_cell_length_a 26.508
_cell_length_b 26.37200000322088
_cell_length_c 26.311999743092066
_cell_angle_alpha 93.74100058972084
_cell_angle_beta 96.04100104955006
_cell_angle_gamma 83.6869992558723
_symmetry_space_group_name_H-M         'P 1'
_symmetry_Int_Tables_number            1
loop_
_symmetry_equiv_pos_as_xyz
   'x, y, z'
                         
loop_
_atom_site_label
_atom_site_type_symbol
_atom_site_fract_x 
_atom_site_fract_y
_atom_site_fract_z
_atom_site_charge
Zn Zn 0.087487 0.0915073 0.347541 0.83971
Zn Zn 0.157531 0.34539 0.0852047 0.83971
Zn Zn 0.411948 0.418704 0.152806 0.83971
Zn Zn 0.343927 0.153642 0.415868 0.83971
H_ H_ 0.172647 0.137287 0.306366 0.10394
H_ H_ 0.253626 0.0983416 0.273887 0.10394
H_ H_ 0.225431 0.447419 0.296866 0.10394
H_ H_ 0.127508 0.988626 0.314803 0.10394
H_ H_ 0.519614 0.0907223 0.249444 0.10394
H_ H_ 0.485924 0.163981 0.199645 0.10394
H_ H_ 0.0511857 0.277863 0.327848 0.10394
H_ H_ 0.0753605 0.203872 0.37909 0.10394
H_ H_ 0.0311581 0.444592 0.387822 0.10394
H_ H_ 0.485412 0.377514 0.36332 0.10394
H_ H_ 0.356405 0.485415 0.403142 0.10394
H_ H_ 0.0731664 0.309229 0.136572 0.10394
H_ H_ 0.510544 0.265274 0.0983779 0.10394
H_ H_ 0.0485767 0.264398 0.447256 0.10394
H_ H_ 0.11483 0.322412 0.98476 0.10394
H_ H_ 0.213941 0.245027 0.101556 0.10394
H_ H_ 0.249264 0.198842 0.174832 0.10394
H_ H_ 0.229094 0.343979 0.266201 0.10394
H_ H_ 0.1835 0.382382 0.19254 0.10394
H_ H_ 0.230434 0.337376 0.448572 0.10394
H_ H_ 0.279136 0.356288 0.379819 0.10394
H_ H_ 0.398378 0.404383 0.489599 0.10394
H_ H_ 0.310226 0.391805 0.163424 0.10394
H_ H_ 0.234452 0.441286 0.201006 0.10394
H_ H_ 0.333983 0.0516781 0.269243 0.10394
H_ H_ 0.406178 0.495371 0.238226 0.10394
H_ H_ 0.00622169 0.397089 0.196463 0.10394
H_ H_ 0.0504394 0.330129 0.250704 0.10394
H_ H_ 0.402459 0.246696 0.221635 0.10394
H_ H_ 0.363598 0.324338 0.183868 0.10394
H_ H_ 0.465452 0.0624746 0.128573 0.10394
H_ H_ 0.0144902 0.118458 0.0988421 0.10394
H_ H_ 0.145217 0.00390132 0.0914882 0.10394
H_ H_ 0.442065 0.161643 0.398661 0.10394
H_ H_ 0.0160068 0.190276 0.450044 0.10394
H_ H_ 0.420864 0.281991 0.0499248 0.10394
H_ H_ 0.34934 0.231256 0.512196 0.10394
H_ H_ 0.239245 0.201623 0.38613 0.10394
H_ H_ 0.202525 0.255662 0.319192 0.10394
H_ H_ 0.32015 0.18818 0.234375 0.10394
H_ H_ 0.380397 0.172384 0.318627 0.10394
H_ H_ 0.282005 0.134391 0.0591873 0.10394
H_ H_ 0.23093 0.112845 0.125448 0.10394
H_ H_ 0.102655 0.0976022 0.00980802 0.10394
C_ C_ 0.181424 0.0962447 0.30646 0.18167
C_ C_ 0.228101 0.0728787 0.28807 -0.15533
C_ C_ 0.239066 0.0194108 0.281876 0.02923
C_ C_ 0.212046 0.489839 0.298954 -0.15533
C_ C_ 0.156602 0.0134508 0.314988 0.18167
C_ C_ 0.0330138 0.14228 0.270527 0.18167
C_ C_ 0.50262 0.171185 0.235528 -0.15533
C_ C_ 0.0132258 0.234671 0.263249 0.02923
C_ C_ 0.0439192 0.239502 0.310831 -0.15533
C_ C_ 0.0626203 0.197904 0.338779 0.18167
C_ C_ 0.0063729 0.0525811 0.36903 0.69207
C_ C_ 0.472063 0.504673 0.368631 0.02923
C_ C_ 0.495408 0.454119 0.369745 -0.15533
C_ C_ 0.467014 0.413034 0.374007 -0.15533
C_ C_ 0.416975 0.422129 0.391102 0.02923
C_ C_ 0.396099 0.474511 0.396499 -0.15533
C_ C_ 0.421277 0.516701 0.383873 0.02923
C_ C_ 0.392304 0.0642934 0.386796 0.69207
C_ C_ 0.402701 0.325685 0.383074 0.69661
C_ C_ 0.0650781 0.302132 0.095802 0.18167
C_ C_ 0.0205037 0.277853 0.0760487 -0.15533
C_ C_ 0.00984955 0.270952 0.0239144 0.02923
C_ C_ 0.0569614 0.277398 0.486975 -0.15533
C_ C_ 0.0885778 0.308233 0.0115815 0.18167
C_ C_ 0.216291 0.266339 0.137524 0.18167
C_ C_ 0.238213 0.238916 0.180669 -0.15533
C_ C_ 0.242393 0.266664 0.229872 0.02923
C_ C_ 0.227891 0.321539 0.229757 -0.15533
C_ C_ 0.199074 0.341894 0.187501 0.18167
C_ C_ 0.235987 0.3697 0.0436095 0.69207
C_ C_ 0.283703 0.366417 0.507812 0.02923
C_ C_ 0.26476 0.359097 0.457446 -0.15533
C_ C_ 0.294539 0.364341 0.419243 -0.15533
C_ C_ 0.34289 0.38386 0.429615 0.02923
C_ C_ 0.363186 0.389625 0.480972 -0.15533
C_ C_ 0.333638 0.379743 0.520851 0.02923
C_ C_ 0.350235 0.384878 0.0686885 0.69207
C_ C_ 0.350393 0.388073 0.33116 0.69661
C_ C_ 0.313616 0.429166 0.183654 0.18167
C_ C_ 0.27377 0.452823 0.21007 -0.15533
C_ C_ 0.278566 0.49873 0.240437 0.02923
C_ C_ 0.326382 0.0166767 0.248364 -0.15533
C_ C_ 0.367098 0.48592 0.225512 0.18167
C_ C_ 0.486807 0.345678 0.186738 0.18167
C_ C_ 0.0129148 0.325947 0.233118 -0.15533
C_ C_ 0.47801 0.264811 0.22577 0.02923
C_ C_ 0.426437 0.270972 0.209852 -0.15533
C_ C_ 0.405712 0.318074 0.18976 0.18167
C_ C_ 0.495906 0.453599 0.122162 0.69207
C_ C_ 0.018944 0.990119 0.114892 0.02923
C_ C_ 0.000837639 0.0412691 0.114105 -0.15533
C_ C_ 0.0324167 0.0783685 0.105985 -0.15533
C_ C_ 0.0855804 0.0667434 0.103601 0.02923
C_ C_ 0.104989 0.0139262 0.100589 -0.15533
C_ C_ 0.0727058 0.976681 0.10638 0.02923
C_ C_ 0.0925642 0.426117 0.105445 0.69207
C_ C_ 0.100795 0.164228 0.115296 0.69661
C_ C_ 0.437103 0.18939 0.431198 0.18167
C_ C_ 0.479742 0.20816 0.457897 -0.15533
C_ C_ 0.47462 0.241322 0.500553 0.02923
C_ C_ 0.42814 0.252782 0.0212034 -0.15533
C_ C_ 0.386816 0.223666 0.497137 0.18167
C_ C_ 0.266854 0.212555 0.360802 0.18167
C_ C_ 0.245595 0.244555 0.321952 -0.15533
C_ C_ 0.269728 0.242452 0.276379 0.02923
C_ C_ 0.316214 0.209955 0.270925 -0.15533
C_ C_ 0.340046 0.187238 0.315029 0.18167
C_ C_ 0.258136 0.131715 0.453374 0.69207
C_ C_ 0.22685 0.11369 0.995512 0.02923
C_ C_ 0.245148 0.117668 0.0471241 -0.15533
C_ C_ 0.214408 0.108615 0.0862898 -0.15533
C_ C_ 0.161 0.103977 0.0720647 0.02923
C_ C_ 0.141512 0.103835 0.0181711 -0.15533
C_ C_ 0.174667 0.108213 0.981548 0.02923
C_ C_ 0.147147 0.1185 0.429941 0.69207
C_ C_ 0.147126 0.100178 0.171909 0.69661
C_ C_ 0.377416 0.381956 0.384913 -0.30787
C_ C_ 0.123306 0.108147 0.115032 -0.30787
N_ N_ 0.146291 0.0659581 0.317242 -0.32189
N_ N_ 0.0566344 0.149916 0.316613 -0.32189
N_ N_ 0.0980368 0.313805 0.0635644 -0.32189
N_ N_ 0.196043 0.316182 0.141474 -0.32189
N_ N_ 0.358051 0.44826 0.190582 -0.32189
N_ N_ 0.435646 0.352588 0.177856 -0.32189
N_ N_ 0.391521 0.196496 0.450285 -0.32189
N_ N_ 0.314899 0.187943 0.357257 -0.32189
O_ O_ 0.497256 0.0881034 0.405118 -0.63271
O_ O_ 0.0452593 0.0419697 0.34151 -0.57982
O_ O_ 0.393447 0.0848708 0.343132 -0.63271
O_ O_ 0.378621 0.0943044 0.426214 -0.57982
O_ O_ 0.246954 0.387091 0.0917442 -0.63271
O_ O_ 0.199537 0.338369 0.0361879 -0.57982
O_ O_ 0.35579 0.341682 0.0906415 -0.63271
O_ O_ 0.377466 0.422199 0.089031 -0.57982
O_ O_ 0.986576 0.41227 0.0975074 -0.63271
O_ O_ 0.462064 0.462925 0.155149 -0.57982
O_ O_ 0.091129 0.402829 0.14787 -0.63271
O_ O_ 0.130157 0.410696 0.0772063 -0.57982
O_ O_ 0.256866 0.101927 0.410919 -0.63271
O_ O_ 0.296087 0.161997 0.462449 -0.57982
O_ O_ 0.157379 0.152028 0.398397 -0.63271
O_ O_ 0.110969 0.0905265 0.416713 -0.57982
F_ F_ 0.440396 0.31628 0.420005 -0.20885
F_ F_ 0.423542 0.311971 0.33718 -0.20885
F_ F_ 0.365738 0.292828 0.385457 -0.20885
F_ F_ 0.315061 0.431247 0.332454 -0.20885
F_ F_ 0.321783 0.348492 0.307789 -0.20885
F_ F_ 0.384467 0.391635 0.295819 -0.20885
F_ F_ 0.0739658 0.172197 0.0675181 -0.20885
F_ F_ 0.0680323 0.178416 0.152834 -0.20885
F_ F_ 0.137328 0.199953 0.119701 -0.20885
F_ F_ 0.186933 0.0614525 0.172614 -0.20885
F_ F_ 0.167482 0.142909 0.196278 -0.20885
F_ F_ 0.112911 0.0917031 0.203532 -0.20885
Zn Zn 0.087779 0.0944646 0.850849 0.83971
Zn Zn 0.165466 0.344953 0.584241 0.83971
Zn Zn 0.409397 0.409651 0.660722 0.83971
Zn Zn 0.344712 0.15563 0.92482 0.83971
H_ H_ 0.175752 0.133331 0.816106 0.10394
H_ H_ 0.256688 0.0988664 0.777694 0.10394
H_ H_ 0.201606 0.445334 0.78523 0.10394
H_ H_ 0.128379 0.989947 0.824245 0.10394
H_ H_ 0.544687 0.0910728 0.758026 0.10394
H_ H_ 0.505503 0.168026 0.706921 0.10394
H_ H_ 0.0328109 0.278685 0.836815 0.10394
H_ H_ 0.0723899 0.200299 0.883964 0.10394
H_ H_ 0.0307623 0.453672 0.867493 0.10394
H_ H_ 0.464378 0.374303 0.852294 0.10394
H_ H_ 0.341607 0.486412 0.889879 0.10394
H_ H_ 0.0838856 0.301739 0.632501 0.10394
H_ H_ 0.506095 0.263073 0.600758 0.10394
H_ H_ 0.0337923 0.290324 0.952158 0.10394
H_ H_ 0.129412 0.306258 0.481018 0.10394
H_ H_ 0.233937 0.247808 0.603 0.10394
H_ H_ 0.274096 0.205021 0.68105 0.10394
H_ H_ 0.213437 0.340135 0.768326 0.10394
H_ H_ 0.17704 0.378421 0.685597 0.10394
H_ H_ 0.217089 0.348791 0.942164 0.10394
H_ H_ 0.253702 0.384603 0.876481 0.10394
H_ H_ 0.387734 0.410003 0.982463 0.10394
H_ H_ 0.30516 0.396081 0.657668 0.10394
H_ H_ 0.230874 0.444503 0.685686 0.10394
H_ H_ 0.32897 0.0442915 0.782811 0.10394
H_ H_ 0.401279 0.500307 0.740227 0.10394
H_ H_ 0.00943977 0.399468 0.714482 0.10394
H_ H_ 0.0622463 0.324994 0.740071 0.10394
H_ H_ 0.414862 0.23765 0.726763 0.10394
H_ H_ 0.375273 0.312896 0.685154 0.10394
H_ H_ 0.456539 0.0459341 0.623289 0.10394
H_ H_ 0.0295764 0.126729 0.620234 0.10394
H_ H_ 0.142277 0.00485524 0.58867 0.10394
H_ H_ 0.437694 0.174332 0.897841 0.10394
H_ H_ 0.0118416 0.192846 0.949465 0.10394
H_ H_ 0.423324 0.275026 0.550629 0.10394
H_ H_ 0.355137 0.223678 0.0212382 0.10394
H_ H_ 0.238268 0.210571 0.894493 0.10394
H_ H_ 0.197962 0.247257 0.816201 0.10394
H_ H_ 0.341563 0.2295 0.757915 0.10394
H_ H_ 0.377932 0.190769 0.837084 0.10394
H_ H_ 0.28489 0.140646 0.555357 0.10394
H_ H_ 0.237718 0.116303 0.620831 0.10394
H_ H_ 0.103893 0.109978 0.514824 0.10394
C_ C_ 0.183071 0.0937194 0.808369 0.18167
C_ C_ 0.226505 0.0730262 0.78351 -0.15533
C_ C_ 0.233039 0.0188136 0.773446 0.02923
C_ C_ 0.197896 0.485043 0.786556 -0.15533
C_ C_ 0.154648 0.0132481 0.810178 0.18167
C_ C_ 0.0360934 0.143682 0.76956 0.18167
C_ C_ 0.518887 0.170713 0.747802 -0.15533
C_ C_ 0.022753 0.23664 0.763492 0.02923
C_ C_ 0.0420484 0.242723 0.815193 -0.15533
C_ C_ 0.0545347 0.199003 0.844293 0.18167
C_ C_ 0.0128361 0.0496261 0.871867 0.69207
C_ C_ 0.463141 0.50258 0.867492 0.02923
C_ C_ 0.477658 0.452154 0.853322 -0.15533
C_ C_ 0.447657 0.414119 0.858467 -0.15533
C_ C_ 0.402446 0.425637 0.880982 0.02923
C_ C_ 0.381319 0.477658 0.885212 -0.15533
C_ C_ 0.411686 0.515978 0.881485 0.02923
C_ C_ 0.395582 0.0689278 0.885578 0.69207
C_ C_ 0.390411 0.328889 0.888745 0.69661
C_ C_ 0.0746302 0.300517 0.591453 0.18167
C_ C_ 0.0308007 0.277949 0.571691 -0.15533
C_ C_ 0.0203781 0.269139 0.519817 0.02923
C_ C_ 0.0438972 0.287565 0.991359 -0.15533
C_ C_ 0.100632 0.300072 0.506175 0.18167
C_ C_ 0.227578 0.26467 0.638937 0.18167
C_ C_ 0.248163 0.241762 0.684147 -0.15533
C_ C_ 0.24221 0.268549 0.73191 0.02923
C_ C_ 0.215352 0.317893 0.7328 -0.15533
C_ C_ 0.189439 0.336249 0.686301 0.18167
C_ C_ 0.247772 0.358885 0.546399 0.69207
C_ C_ 0.272876 0.374075 0.00356075 0.02923
C_ C_ 0.252821 0.365523 0.951568 -0.15533
C_ C_ 0.275171 0.380797 0.912011 -0.15533
C_ C_ 0.327125 0.393503 0.922825 0.02923
C_ C_ 0.348582 0.401565 0.973453 -0.15533
C_ C_ 0.324716 0.385092 0.0154865 0.02923
C_ C_ 0.359362 0.377291 0.573503 0.69207
C_ C_ 0.337342 0.380378 0.824657 0.69661
C_ C_ 0.311055 0.42516 0.689063 0.18167
C_ C_ 0.268383 0.45488 0.702368 -0.15533
C_ C_ 0.273716 0.494404 0.739347 0.02923
C_ C_ 0.32445 0.013315 0.755822 -0.15533
C_ C_ 0.363681 0.486567 0.729486 0.18167
C_ C_ 0.494617 0.346674 0.70104 0.18167
C_ C_ 0.0223985 0.322248 0.728191 -0.15533
C_ C_ 0.490929 0.265261 0.738129 0.02923
C_ C_ 0.439485 0.266882 0.718721 -0.15533
C_ C_ 0.415782 0.311762 0.698598 0.18167
C_ C_ 0.486211 0.449403 0.627564 0.69207
C_ C_ 0.023294 0.996457 0.615618 0.02923
C_ C_ 0.00646802 0.0492905 0.616864 -0.15533
C_ C_ 0.0410702 0.0864839 0.614332 -0.15533
C_ C_ 0.0911782 0.0719102 0.604427 0.02923
C_ C_ 0.10646 0.0190684 0.60017 -0.15533
C_ C_ 0.0723283 0.982 0.606382 0.02923
C_ C_ 0.0961006 0.421183 0.603049 0.69207
C_ C_ 0.114158 0.167896 0.624378 0.69661
C_ C_ 0.438913 0.19193 0.934114 0.18167
C_ C_ 0.479238 0.213474 0.956646 -0.15533
C_ C_ 0.475206 0.246406 0.99914 0.02923
C_ C_ 0.427148 0.246675 0.522204 -0.15533
C_ C_ 0.389325 0.225761 0.999105 0.18167
C_ C_ 0.258503 0.208144 0.861058 0.18167
C_ C_ 0.234753 0.230346 0.814284 -0.15533
C_ C_ 0.265271 0.241347 0.778981 0.02923
C_ C_ 0.316639 0.220357 0.783811 -0.15533
C_ C_ 0.338814 0.196806 0.827453 0.18167
C_ C_ 0.263494 0.118609 0.957533 0.69207
C_ C_ 0.225054 0.127713 0.495132 0.02923
C_ C_ 0.246768 0.129255 0.545387 -0.15533
C_ C_ 0.219081 0.115298 0.582826 -0.15533
C_ C_ 0.168199 0.101371 0.573684 0.02923
C_ C_ 0.144878 0.107089 0.522748 -0.15533
C_ C_ 0.172746 0.116875 0.483489 0.02923
C_ C_ 0.151605 0.105638 0.927139 0.69207
C_ C_ 0.160512 0.096934 0.669256 0.69661
C_ C_ 0.364244 0.383006 0.880467 -0.30787
C_ C_ 0.13294 0.109999 0.615593 -0.30787
N_ N_ 0.144777 0.0645578 0.813816 -0.32189
N_ N_ 0.0543191 0.151048 0.819505 -0.32189
N_ N_ 0.10953 0.308815 0.558852 -0.32189
N_ N_ 0.197933 0.309491 0.640221 -0.32189
N_ N_ 0.357849 0.440152 0.703127 -0.32189
N_ N_ 0.442467 0.351614 0.691024 -0.32189
N_ N_ 0.394265 0.197711 0.955762 -0.32189
N_ N_ 0.308325 0.186417 0.864526 -0.32189
O_ O_ 0.494808 0.0908616 0.8847 -0.63271
O_ O_ 0.0436092 0.0477458 0.836752 -0.57982
O_ O_ 0.386324 0.0932398 0.841552 -0.63271
O_ O_ 0.384741 0.0956266 0.928037 -0.57982
O_ O_ 0.24456 0.390416 0.5865 -0.63271
O_ O_ 0.210707 0.329609 0.53683 -0.57982
O_ O_ 0.357829 0.336235 0.600878 -0.63271
O_ O_ 0.377965 0.416836 0.597348 -0.57982
O_ O_ 0.988015 0.404132 0.597238 -0.63271
O_ O_ 0.454357 0.455031 0.663817 -0.57982
O_ O_ 0.0949616 0.396474 0.643836 -0.63271
O_ O_ 0.135267 0.40831 0.574999 -0.57982
O_ O_ 0.252661 0.105636 0.908281 -0.63271
O_ O_ 0.300222 0.150513 0.970549 -0.57982
O_ O_ 0.151862 0.148338 0.903875 -0.63271
O_ O_ 0.11339 0.0789567 0.912479 -0.57982
F_ F_ 0.421071 0.323889 0.933079 -0.20885
F_ F_ 0.417487 0.30921 0.849038 -0.20885
F_ F_ 0.35676 0.292357 0.884811 -0.20885
F_ F_ 0.305912 0.424434 0.815076 -0.20885
F_ F_ 0.30938 0.338692 0.813087 -0.20885
F_ F_ 0.371646 0.374925 0.788056 -0.20885
F_ F_ 0.0815066 0.18299 0.582991 -0.20885
F_ F_ 0.0881926 0.17436 0.666799 -0.20885
F_ F_ 0.149273 0.20355 0.633508 -0.20885
F_ F_ 0.187912 0.0505635 0.664255 -0.20885
F_ F_ 0.192133 0.132001 0.694167 -0.20885
F_ F_ 0.122466 0.0886831 0.700655 -0.20885
Zn Zn 0.0883437 0.578193 0.341206 0.83971
Zn Zn 0.160667 0.845946 0.0886535 0.83971
Zn Zn 0.407849 0.917077 0.154217 0.83971
Zn Zn 0.339071 0.656754 0.420314 0.83971
H_ H_ 0.163033 0.629246 0.29351 0.10394
H_ H_ 0.241635 0.59603 0.254466 0.10394
H_ H_ 0.208863 0.948372 0.301782 0.10394
H_ H_ 0.14169 0.479121 0.326784 0.10394
H_ H_ 0.53728 0.59751 0.243635 0.10394
H_ H_ 0.483811 0.66408 0.198855 0.10394
H_ H_ 0.0334984 0.763512 0.334298 0.10394
H_ H_ 0.0657241 0.684246 0.375473 0.10394
H_ H_ 0.0419137 0.957263 0.393731 0.10394
H_ H_ 0.480341 0.872302 0.397249 0.10394
H_ H_ 0.354071 0.981998 0.417162 0.10394
H_ H_ 0.0778017 0.805359 0.136195 0.10394
H_ H_ 0.502636 0.768102 0.102123 0.10394
H_ H_ 0.0454019 0.774852 0.437752 0.10394
H_ H_ 0.128596 0.816123 0.9918 0.10394
H_ H_ 0.221142 0.749914 0.106351 0.10394
H_ H_ 0.25362 0.701416 0.182416 0.10394
H_ H_ 0.203531 0.835306 0.27804 0.10394
H_ H_ 0.168026 0.875861 0.198581 0.10394
H_ H_ 0.211308 0.891832 0.453687 0.10394
H_ H_ 0.262509 0.897449 0.386492 0.10394
H_ H_ 0.39656 0.892019 0.490928 0.10394
H_ H_ 0.307578 0.890985 0.168366 0.10394
H_ H_ 0.234589 0.935412 0.210291 0.10394
H_ H_ 0.336011 0.546879 0.276509 0.10394
H_ H_ 0.404531 0.00551476 0.225567 0.10394
H_ H_ 0.00393705 0.896178 0.215574 0.10394
H_ H_ 0.0518325 0.81161 0.249019 0.10394
H_ H_ 0.402913 0.746843 0.217861 0.10394
H_ H_ 0.367873 0.823857 0.182153 0.10394
H_ H_ 0.464216 0.552349 0.116071 0.10394
H_ H_ 0.0115799 0.620603 0.0987227 0.10394
H_ H_ 0.14269 0.506504 0.0960749 0.10394
H_ H_ 0.442444 0.662165 0.399046 0.10394
H_ H_ 0.0230087 0.683578 0.445007 0.10394
H_ H_ 0.40858 0.788307 0.0393671 0.10394
H_ H_ 0.346862 0.743412 0.497368 0.10394
H_ H_ 0.233752 0.699838 0.38866 0.10394
H_ H_ 0.190661 0.733311 0.311407 0.10394
H_ H_ 0.337819 0.745473 0.261399 0.10394
H_ H_ 0.376595 0.698262 0.331142 0.10394
H_ H_ 0.282434 0.620886 0.0521956 0.10394
H_ H_ 0.225027 0.622096 0.118591 0.10394
H_ H_ 0.101235 0.598856 0.00268847 0.10394
C_ C_ 0.17511 0.588713 0.291637 0.18167
C_ C_ 0.220501 0.572027 0.271618 -0.15533
C_ C_ 0.238901 0.521232 0.273205 0.02923
C_ C_ 0.204869 0.989952 0.304123 -0.15533
C_ C_ 0.162889 0.504508 0.310167 0.18167
C_ C_ 0.0262399 0.633158 0.263816 0.18167
C_ C_ 0.498943 0.672015 0.237943 -0.15533
C_ C_ 0.00804951 0.725753 0.261394 0.02923
C_ C_ 0.0382223 0.728618 0.310199 -0.15533
C_ C_ 0.0586593 0.684639 0.333962 0.18167
C_ C_ 0.00375662 0.545174 0.360401 0.69207
C_ C_ 0.472657 0.000691121 0.388308 0.02923
C_ C_ 0.492214 0.948864 0.382384 -0.15533
C_ C_ 0.462068 0.91052 0.389141 -0.15533
C_ C_ 0.410077 0.922444 0.397756 0.02923
C_ C_ 0.39282 0.973828 0.405163 -0.15533
C_ C_ 0.419973 0.0138902 0.396628 0.02923
C_ C_ 0.392768 0.568094 0.377679 0.69207
C_ C_ 0.391395 0.829458 0.389303 0.69661
C_ C_ 0.071937 0.798189 0.0949702 0.18167
C_ C_ 0.0239251 0.788104 0.0717629 -0.15533
C_ C_ 0.0185751 0.772368 0.0178021 0.02923
C_ C_ 0.0533266 0.778834 0.48101 -0.15533
C_ C_ 0.10105 0.8006 0.0122831 0.18167
C_ C_ 0.218746 0.769038 0.144081 0.18167
C_ C_ 0.233395 0.740758 0.187645 -0.15533
C_ C_ 0.234822 0.76593 0.235056 0.02923
C_ C_ 0.209863 0.816447 0.2397 -0.15533
C_ C_ 0.187205 0.838532 0.19609 0.18167
C_ C_ 0.239728 0.868091 0.0487256 0.69207
C_ C_ 0.273421 0.880171 0.512361 0.02923
C_ C_ 0.251793 0.891998 0.464808 -0.15533
C_ C_ 0.283026 0.897009 0.424353 -0.15533
C_ C_ 0.336052 0.894435 0.433706 0.02923
C_ C_ 0.357125 0.889032 0.483201 -0.15533
C_ C_ 0.326308 0.878478 0.523092 0.02923
C_ C_ 0.348696 0.894838 0.0759034 0.69207
C_ C_ 0.345138 0.89365 0.336774 0.69661
C_ C_ 0.311301 0.926944 0.190374 0.18167
C_ C_ 0.269654 0.953528 0.21426 -0.15533
C_ C_ 0.277013 0.997579 0.245715 0.02923
C_ C_ 0.327865 0.515557 0.247261 -0.15533
C_ C_ 0.3664 0.987462 0.226075 0.18167
C_ C_ 0.489628 0.85256 0.204152 0.18167
C_ C_ 0.0109692 0.81545 0.232756 -0.15533
C_ C_ 0.479233 0.765742 0.228056 0.02923
C_ C_ 0.427712 0.773792 0.210755 -0.15533
C_ C_ 0.407966 0.821411 0.194937 0.18167
C_ C_ 0.484586 0.961226 0.114949 0.69207
C_ C_ 0.0185931 0.495301 0.109983 0.02923
C_ C_ 0.0014025 0.545853 0.11112 -0.15533
C_ C_ 0.0314294 0.582903 0.105482 -0.15533
C_ C_ 0.0806935 0.569116 0.0979604 0.02923
C_ C_ 0.099596 0.517389 0.0971002 -0.15533
C_ C_ 0.0689564 0.47957 0.09959 0.02923
C_ C_ 0.0965348 0.92557 0.108448 0.69207
C_ C_ 0.0979847 0.665214 0.106807 0.69661
C_ C_ 0.440955 0.684365 0.432991 0.18167
C_ C_ 0.481094 0.709711 0.454721 -0.15533
C_ C_ 0.477273 0.742015 0.498484 0.02923
C_ C_ 0.418033 0.753999 0.0169692 -0.15533
C_ C_ 0.384249 0.733409 0.485008 0.18167
C_ C_ 0.255537 0.70111 0.358314 0.18167
C_ C_ 0.230095 0.726189 0.316765 -0.15533
C_ C_ 0.258381 0.740714 0.278568 0.02923
C_ C_ 0.313156 0.732946 0.28763 -0.15533
C_ C_ 0.335072 0.705828 0.32846 0.18167
C_ C_ 0.261105 0.62322 0.452099 0.69207
C_ C_ 0.223599 0.61281 0.990003 0.02923
C_ C_ 0.243787 0.611704 0.0415855 -0.15533
C_ C_ 0.209518 0.617668 0.0793371 -0.15533
C_ C_ 0.157688 0.605819 0.0671351 0.02923
C_ C_ 0.140071 0.600827 0.015099 -0.15533
C_ C_ 0.172003 0.608748 0.977054 0.02923
C_ C_ 0.151768 0.598577 0.421062 0.69207
C_ C_ 0.143441 0.602905 0.164616 0.69661
C_ C_ 0.369706 0.886245 0.389284 -0.30787
C_ C_ 0.120128 0.607906 0.108975 -0.30787
N_ N_ 0.145487 0.554669 0.305706 -0.32189
N_ N_ 0.0565791 0.638644 0.307882 -0.32189
N_ N_ 0.106442 0.808605 0.063522 -0.32189
N_ N_ 0.190482 0.814707 0.148538 -0.32189
N_ N_ 0.358174 0.943742 0.197223 -0.32189
N_ N_ 0.437893 0.859162 0.188939 -0.32189
N_ N_ 0.394662 0.691287 0.453096 -0.32189
N_ N_ 0.306803 0.692342 0.364937 -0.32189
O_ O_ 0.50395 0.588995 0.387164 -0.63271
O_ O_ 0.039122 0.534952 0.326971 -0.57982
O_ O_ 0.398804 0.595381 0.338117 -0.63271
O_ O_ 0.365693 0.590655 0.414785 -0.57982
O_ O_ 0.244823 0.892103 0.0953672 -0.63271
O_ O_ 0.205623 0.835497 0.0416608 -0.57982
O_ O_ 0.35782 0.853557 0.0995451 -0.63271
O_ O_ 0.370765 0.933049 0.0930825 -0.57982
O_ O_ 0.981369 0.909999 0.0918461 -0.63271
O_ O_ 0.455388 0.962582 0.153246 -0.57982
O_ O_ 0.0910507 0.89785 0.146227 -0.63271
O_ O_ 0.133688 0.910442 0.0805097 -0.57982
O_ O_ 0.257267 0.603355 0.404354 -0.63271
O_ O_ 0.294102 0.65672 0.466099 -0.57982
O_ O_ 0.154952 0.637285 0.392129 -0.63271
O_ O_ 0.113739 0.571324 0.40779 -0.57982
F_ F_ 0.428732 0.819735 0.42548 -0.20885
F_ F_ 0.414227 0.812512 0.346529 -0.20885
F_ F_ 0.353837 0.799744 0.399009 -0.20885
F_ F_ 0.314081 0.938882 0.331125 -0.20885
F_ F_ 0.316091 0.857249 0.318598 -0.20885
F_ F_ 0.381081 0.894118 0.299599 -0.20885
F_ F_ 0.0668875 0.671983 0.0620047 -0.20885
F_ F_ 0.0733625 0.68376 0.150059 -0.20885
F_ F_ 0.133721 0.698246 0.105411 -0.20885
F_ F_ 0.176377 0.56068 0.168871 -0.20885
F_ F_ 0.165898 0.644223 0.184912 -0.20885
F_ F_ 0.10366 0.596546 0.193845 -0.20885
Zn Zn 0.0903336 0.587319 0.842497 0.83971
Zn Zn 0.157197 0.845947 0.585524 0.83971
Zn Zn 0.405868 0.912116 0.662274 0.83971
Zn Zn 0.337033 0.653276 0.921366 0.83971
H_ H_ 0.179246 0.634189 0.807924 0.10394
H_ H_ 0.249979 0.593079 0.763808 0.10394
H_ H_ 0.210182 0.948017 0.795757 0.10394
H_ H_ 0.122499 0.488548 0.807168 0.10394
H_ H_ 0.546316 0.599599 0.745185 0.10394
H_ H_ 0.500265 0.672093 0.704393 0.10394
H_ H_ 0.0193487 0.768751 0.837451 0.10394
H_ H_ 0.0478778 0.691584 0.883164 0.10394
H_ H_ 0.0407981 0.949263 0.872147 0.10394
H_ H_ 0.481496 0.871029 0.891856 0.10394
H_ H_ 0.348776 0.986135 0.895454 0.10394
H_ H_ 0.0795031 0.808316 0.628091 0.10394
H_ H_ 0.511128 0.776228 0.599384 0.10394
H_ H_ 0.0598242 0.764849 0.948669 0.10394
H_ H_ 0.113815 0.826547 0.477928 0.10394
H_ H_ 0.217555 0.756347 0.60247 0.10394
H_ H_ 0.257986 0.709715 0.67486 0.10394
H_ H_ 0.206982 0.831921 0.774723 0.10394
H_ H_ 0.173451 0.8831 0.699863 0.10394
H_ H_ 0.225097 0.84542 0.947078 0.10394
H_ H_ 0.274689 0.855003 0.88025 0.10394
H_ H_ 0.387734 0.919173 0.987795 0.10394
H_ H_ 0.311381 0.892064 0.670911 0.10394
H_ H_ 0.236346 0.940902 0.697649 0.10394
H_ H_ 0.329578 0.537808 0.782479 0.10394
H_ H_ 0.399389 0.00768294 0.732765 0.10394
H_ H_ 0.0150501 0.877245 0.68428 0.10394
H_ H_ 0.0480876 0.818943 0.751198 0.10394
H_ H_ 0.406288 0.747787 0.736407 0.10394
H_ H_ 0.3641 0.823919 0.708448 0.10394
H_ H_ 0.458955 0.549085 0.617418 0.10394
H_ H_ 0.00998659 0.614292 0.577927 0.10394
H_ H_ 0.143646 0.505676 0.602057 0.10394
H_ H_ 0.44117 0.64337 0.91947 0.10394
H_ H_ 0.023453 0.674395 0.978682 0.10394
H_ H_ 0.42092 0.784947 0.541315 0.10394
H_ H_ 0.339495 0.743791 0.00283161 0.10394
H_ H_ 0.238904 0.708015 0.895353 0.10394
H_ H_ 0.193378 0.750289 0.823096 0.10394
H_ H_ 0.325892 0.719092 0.740081 0.10394
H_ H_ 0.375011 0.682299 0.824989 0.10394
H_ H_ 0.284053 0.617047 0.551309 0.10394
H_ H_ 0.23335 0.604221 0.618231 0.10394
H_ H_ 0.103756 0.588892 0.5032 0.10394
C_ C_ 0.182696 0.592939 0.800855 0.18167
C_ C_ 0.224875 0.569532 0.778372 -0.15533
C_ C_ 0.229323 0.517164 0.765798 0.02923
C_ C_ 0.200593 0.989595 0.794886 -0.15533
C_ C_ 0.154648 0.50878 0.805372 0.18167
C_ C_ 0.0248071 0.636658 0.765658 0.18167
C_ C_ 0.516549 0.676389 0.743662 -0.15533
C_ C_ 0.00733579 0.728144 0.761466 0.02923
C_ C_ 0.0207902 0.731458 0.816572 -0.15533
C_ C_ 0.0429611 0.688232 0.841851 0.18167
C_ C_ 0.00529734 0.550567 0.859889 0.69207
C_ C_ 0.472548 0.00342779 0.88156 0.02923
C_ C_ 0.495264 0.951829 0.88295 -0.15533
C_ C_ 0.464013 0.9101 0.889524 -0.15533
C_ C_ 0.411055 0.922182 0.896375 0.02923
C_ C_ 0.390374 0.974173 0.895601 -0.15533
C_ C_ 0.421314 0.0145012 0.891006 0.02923
C_ C_ 0.392037 0.570378 0.885641 0.69207
C_ C_ 0.398068 0.824213 0.886534 0.69661
C_ C_ 0.0701021 0.801345 0.587033 0.18167
C_ C_ 0.0305231 0.772633 0.566932 -0.15533
C_ C_ 0.0196906 0.760525 0.511322 0.02923
C_ C_ 0.0599541 0.777015 0.988223 -0.15533
C_ C_ 0.0929297 0.80732 0.502299 0.18167
C_ C_ 0.215897 0.774223 0.640384 0.18167
C_ C_ 0.233834 0.744321 0.682212 -0.15533
C_ C_ 0.232522 0.76651 0.731841 0.02923
C_ C_ 0.21034 0.817233 0.736147 -0.15533
C_ C_ 0.190756 0.844152 0.694493 0.18167
C_ C_ 0.238855 0.874254 0.551187 0.69207
C_ C_ 0.274758 0.873834 0.0102123 0.02923
C_ C_ 0.259748 0.861371 0.958865 -0.15533
C_ C_ 0.289248 0.866753 0.919398 -0.15533
C_ C_ 0.335771 0.88565 0.92973 0.02923
C_ C_ 0.350601 0.902532 0.980751 -0.15533
C_ C_ 0.323046 0.893408 0.0222182 0.02923
C_ C_ 0.353875 0.878239 0.577695 0.69207
C_ C_ 0.344756 0.887985 0.830759 0.69661
C_ C_ 0.314256 0.926336 0.69459 0.18167
C_ C_ 0.272703 0.950449 0.715436 -0.15533
C_ C_ 0.277485 0.994939 0.746241 0.02923
C_ C_ 0.322099 0.511406 0.751235 -0.15533
C_ C_ 0.366865 0.990149 0.732003 0.18167
C_ C_ 0.486189 0.851105 0.713896 0.18167
C_ C_ 0.00983864 0.815171 0.730035 -0.15533
C_ C_ 0.482547 0.767556 0.742437 0.02923
C_ C_ 0.431564 0.772198 0.72758 -0.15533
C_ C_ 0.407205 0.818192 0.712255 0.18167
C_ C_ 0.487918 0.944304 0.629559 0.69207
C_ C_ 0.0189136 0.487582 0.603226 0.02923
C_ C_ 0.99913 0.537721 0.589957 -0.15533
C_ C_ 0.0302653 0.579404 0.593918 -0.15533
C_ C_ 0.0843563 0.564939 0.596544 0.02923
C_ C_ 0.102858 0.512999 0.598794 -0.15533
C_ C_ 0.0713993 0.474321 0.603079 0.02923
C_ C_ 0.0935286 0.927244 0.606501 0.69207
C_ C_ 0.100795 0.66365 0.603248 0.69661
C_ C_ 0.433782 0.674142 0.945875 0.18167
C_ C_ 0.474278 0.699678 0.968238 -0.15533
C_ C_ 0.466515 0.739557 0.00445066 0.02923
C_ C_ 0.425594 0.755715 0.512177 -0.15533
C_ C_ 0.376943 0.728846 0.993932 0.18167
C_ C_ 0.257481 0.706054 0.861592 0.18167
C_ C_ 0.234298 0.735641 0.822315 -0.15533
C_ C_ 0.258875 0.737978 0.775806 0.02923
C_ C_ 0.310059 0.718475 0.776225 -0.15533
C_ C_ 0.334379 0.698502 0.822626 0.18167
C_ C_ 0.258607 0.621573 0.952106 0.69207
C_ C_ 0.225037 0.611895 0.489899 0.02923
C_ C_ 0.244104 0.611747 0.541147 -0.15533
C_ C_ 0.215003 0.602751 0.578665 -0.15533
C_ C_ 0.161919 0.601967 0.567324 0.02923
C_ C_ 0.143616 0.594547 0.514622 -0.15533
C_ C_ 0.174321 0.599947 0.474785 0.02923
C_ C_ 0.146719 0.609039 0.923795 0.69207
C_ C_ 0.145311 0.602969 0.664463 0.69661
C_ C_ 0.371767 0.88019 0.886833 -0.30787
C_ C_ 0.123102 0.60686 0.607615 -0.30787
N_ N_ 0.148836 0.560954 0.811012 -0.32189
N_ N_ 0.0511398 0.643748 0.813719 -0.32189
N_ N_ 0.104828 0.812136 0.554372 -0.32189
N_ N_ 0.192472 0.821058 0.647018 -0.32189
N_ N_ 0.36134 0.945552 0.70368 -0.32189
N_ N_ 0.43479 0.85558 0.701254 -0.32189
N_ N_ 0.385424 0.690687 0.957316 -0.32189
N_ N_ 0.308034 0.693031 0.863743 -0.32189
O_ O_ 0.502926 0.577851 0.896646 -0.63271
O_ O_ 0.0435078 0.53832 0.836392 -0.57982
O_ O_ 0.393451 0.598117 0.847507 -0.63271
O_ O_ 0.36443 0.58754 0.921252 -0.57982
O_ O_ 0.245987 0.889515 0.598757 -0.63271
O_ O_ 0.202473 0.844744 0.538021 -0.57982
O_ O_ 0.361562 0.836608 0.603493 -0.63271
O_ O_ 0.380449 0.915841 0.594049 -0.57982
O_ O_ 0.989913 0.913769 0.596821 -0.63271
O_ O_ 0.453655 0.959128 0.659548 -0.57982
O_ O_ 0.0855758 0.902584 0.646125 -0.63271
O_ O_ 0.134733 0.912754 0.583268 -0.57982
O_ O_ 0.256287 0.599192 0.905902 -0.63271
O_ O_ 0.291977 0.654676 0.964259 -0.57982
O_ O_ 0.147013 0.649407 0.896981 -0.63271
O_ O_ 0.111683 0.577712 0.908081 -0.57982
F_ F_ 0.428847 0.822303 0.929448 -0.20885
F_ F_ 0.427098 0.812029 0.847479 -0.20885
F_ F_ 0.363703 0.787693 0.884215 -0.20885
F_ F_ 0.31113 0.931902 0.829655 -0.20885
F_ F_ 0.315553 0.849784 0.810702 -0.20885
F_ F_ 0.38344 0.897699 0.800761 -0.20885
F_ F_ 0.0719573 0.671149 0.556963 -0.20885
F_ F_ 0.0677017 0.678398 0.639735 -0.20885
F_ F_ 0.135536 0.700299 0.610293 -0.20885
F_ F_ 0.18025 0.561528 0.674255 -0.20885
F_ F_ 0.171575 0.6452 0.683203 -0.20885
F_ F_ 0.104814 0.602972 0.694223 -0.20885
Zn Zn 0.581811 0.0819789 0.347952 0.83971
Zn Zn 0.665311 0.349862 0.0842065 0.83971
Zn Zn 0.910015 0.421945 0.150306 0.83971
Zn Zn 0.836446 0.160631 0.425187 0.83971
H_ H_ 0.6703 0.126868 0.314206 0.10394
H_ H_ 0.743155 0.0895677 0.269742 0.10394
H_ H_ 0.712624 0.445715 0.281398 0.10394
H_ H_ 0.625503 0.978998 0.329458 0.10394
H_ H_ 0.0313803 0.104005 0.257393 0.10394
H_ H_ 0.987805 0.176508 0.204019 0.10394
H_ H_ 0.52437 0.266425 0.32572 0.10394
H_ H_ 0.567613 0.191501 0.373435 0.10394
H_ H_ 0.535488 0.445809 0.358842 0.10394
H_ H_ 0.979561 0.381127 0.393088 0.10394
H_ H_ 0.849419 0.486484 0.394414 0.10394
H_ H_ 0.588845 0.302859 0.128541 0.10394
H_ H_ 0.993561 0.265158 0.100163 0.10394
H_ H_ 0.532088 0.292343 0.447146 0.10394
H_ H_ 0.618656 0.3243 0.979569 0.10394
H_ H_ 0.721438 0.262868 0.0985747 0.10394
H_ H_ 0.754242 0.210427 0.173908 0.10394
H_ H_ 0.715363 0.342947 0.27592 0.10394
H_ H_ 0.683603 0.392341 0.198857 0.10394
H_ H_ 0.71356 0.37859 0.446988 0.10394
H_ H_ 0.765252 0.39409 0.37756 0.10394
H_ H_ 0.892129 0.413328 0.489375 0.10394
H_ H_ 0.807821 0.404307 0.154886 0.10394
H_ H_ 0.732084 0.454685 0.187134 0.10394
H_ H_ 0.828383 0.0365698 0.278508 0.10394
H_ H_ 0.908667 0.502378 0.235894 0.10394
H_ H_ 0.509486 0.372185 0.175989 0.10394
H_ H_ 0.552277 0.295311 0.221266 0.10394
H_ H_ 0.911652 0.249279 0.214415 0.10394
H_ H_ 0.878319 0.321619 0.166063 0.10394
H_ H_ 0.96245 0.0525835 0.119046 0.10394
H_ H_ 0.525858 0.12778 0.138404 0.10394
H_ H_ 0.639662 0.0143915 0.0832743 0.10394
H_ H_ 0.939626 0.157131 0.409274 0.10394
H_ H_ 0.516879 0.199269 0.44256 0.10394
H_ H_ 0.907142 0.284317 0.0381754 0.10394
H_ H_ 0.845581 0.244089 0.503831 0.10394
H_ H_ 0.731067 0.194847 0.385989 0.10394
H_ H_ 0.693696 0.244822 0.30835 0.10394
H_ H_ 0.839597 0.242427 0.256495 0.10394
H_ H_ 0.876819 0.197861 0.33443 0.10394
H_ H_ 0.787379 0.0797874 0.0527165 0.10394
H_ H_ 0.734337 0.0964052 0.122589 0.10394
H_ H_ 0.602655 0.0918232 0.00905133 0.10394
C_ C_ 0.676189 0.0848703 0.307989 0.18167
C_ C_ 0.718625 0.0645492 0.286432 -0.15533
C_ C_ 0.729862 0.0105255 0.277902 0.02923
C_ C_ 0.706057 0.487074 0.285074 -0.15533
C_ C_ 0.650488 0.00208564 0.314568 0.18167
C_ C_ 0.526708 0.130306 0.262359 0.18167
C_ C_ 0.0105614 0.184336 0.242522 -0.15533
C_ C_ 0.502567 0.221405 0.257066 0.02923
C_ C_ 0.529812 0.227958 0.306191 -0.15533
C_ C_ 0.552281 0.184316 0.333618 0.18167
C_ C_ 0.504976 0.0428018 0.381582 0.69207
C_ C_ 0.970131 0.504086 0.374774 0.02923
C_ C_ 0.99198 0.453739 0.374932 -0.15533
C_ C_ 0.960994 0.416104 0.384978 -0.15533
C_ C_ 0.907658 0.427267 0.384986 0.02923
C_ C_ 0.888628 0.478175 0.388499 -0.15533
C_ C_ 0.916984 0.517355 0.379029 0.02923
C_ C_ 0.896154 0.073516 0.386503 0.69207
C_ C_ 0.8959 0.332519 0.390659 0.69661
C_ C_ 0.577033 0.301865 0.0907895 0.18167
C_ C_ 0.532536 0.281211 0.0728477 -0.15533
C_ C_ 0.519002 0.2745 0.0196029 0.02923
C_ C_ 0.548805 0.286337 0.487583 -0.15533
C_ C_ 0.596453 0.312627 0.00561051 0.18167
C_ C_ 0.713215 0.276299 0.139344 0.18167
C_ C_ 0.735377 0.247833 0.181767 -0.15533
C_ C_ 0.73805 0.273486 0.231531 0.02923
C_ C_ 0.71551 0.323524 0.237617 -0.15533
C_ C_ 0.696616 0.352096 0.194883 0.18167
C_ C_ 0.7448 0.364917 0.0419071 0.69207
C_ C_ 0.775105 0.382998 0.506234 0.02923
C_ C_ 0.75447 0.382925 0.454962 -0.15533
C_ C_ 0.783242 0.388875 0.415597 -0.15533
C_ C_ 0.834895 0.397625 0.426606 0.02923
C_ C_ 0.853841 0.40672 0.477711 -0.15533
C_ C_ 0.824243 0.39823 0.518729 0.02923
C_ C_ 0.853226 0.388389 0.0641794 0.69207
C_ C_ 0.843883 0.384569 0.327754 0.69661
C_ C_ 0.81285 0.438654 0.178779 0.18167
C_ C_ 0.771369 0.465289 0.199096 -0.15533
C_ C_ 0.779576 0.503564 0.237797 0.02923
C_ C_ 0.819413 0.00562901 0.254301 -0.15533
C_ C_ 0.869996 0.492887 0.225397 0.18167
C_ C_ 0.987734 0.364829 0.201317 0.18167
C_ C_ 0.509869 0.303341 0.214543 -0.15533
C_ C_ 0.988542 0.280118 0.237389 0.02923
C_ C_ 0.939204 0.279568 0.212754 -0.15533
C_ C_ 0.915894 0.322493 0.185931 0.18167
C_ C_ 0.984872 0.457101 0.119988 0.69207
C_ C_ 0.521468 0.998721 0.117183 0.02923
C_ C_ 0.504812 0.0513061 0.126483 -0.15533
C_ C_ 0.540176 0.0866329 0.132394 -0.15533
C_ C_ 0.587776 0.0742785 0.110211 0.02923
C_ C_ 0.602132 0.0233799 0.0947138 -0.15533
C_ C_ 0.571829 0.98465 0.105186 0.02923
C_ C_ 0.604024 0.426583 0.106754 0.69207
C_ C_ 0.603685 0.169806 0.110806 0.69661
C_ C_ 0.937509 0.186056 0.43869 0.18167
C_ C_ 0.980469 0.205577 0.460595 -0.15533
C_ C_ 0.975808 0.243018 0.500773 0.02923
C_ C_ 0.916677 0.252665 0.0133898 -0.15533
C_ C_ 0.882971 0.235796 0.490641 0.18167
C_ C_ 0.755235 0.204842 0.356175 0.18167
C_ C_ 0.733762 0.232283 0.314492 -0.15533
C_ C_ 0.761893 0.243479 0.275996 0.02923
C_ C_ 0.814669 0.232593 0.283592 -0.15533
C_ C_ 0.836745 0.208434 0.329275 0.18167
C_ C_ 0.756728 0.128379 0.457475 0.69207
C_ C_ 0.72682 0.102624 0.994747 0.02923
C_ C_ 0.748334 0.0911395 0.0448112 -0.15533
C_ C_ 0.717229 0.100127 0.0849189 -0.15533
C_ C_ 0.662582 0.102628 0.0735851 0.02923
C_ C_ 0.642956 0.0961693 0.0205983 -0.15533
C_ C_ 0.673529 0.102539 0.982074 0.02923
C_ C_ 0.646703 0.102764 0.425941 0.69207
C_ C_ 0.654897 0.109778 0.170892 0.69661
C_ C_ 0.870008 0.385026 0.382648 -0.30787
C_ C_ 0.627014 0.114398 0.115094 -0.30787
N_ N_ 0.63863 0.0541499 0.315184 -0.32189
N_ N_ 0.549099 0.136826 0.310119 -0.32189
N_ N_ 0.607371 0.318214 0.0571628 -0.32189
N_ N_ 0.694733 0.325724 0.146519 -0.32189
N_ N_ 0.860727 0.454176 0.190386 -0.32189
N_ N_ 0.939743 0.363198 0.179553 -0.32189
N_ N_ 0.890321 0.200995 0.452192 -0.32189
N_ N_ 0.806846 0.195715 0.365707 -0.32189
O_ O_ 4.88654e-05 0.0974498 0.394797 -0.63271
O_ O_ 0.540278 0.0333801 0.350051 -0.57982
O_ O_ 0.891443 0.0940241 0.341562 -0.63271
O_ O_ 0.868533 0.0942188 0.422637 -0.57982
O_ O_ 0.75104 0.387843 0.0869558 -0.63271
O_ O_ 0.706386 0.336785 0.0329458 -0.57982
O_ O_ 0.859809 0.343992 0.0856898 -0.63271
O_ O_ 0.876887 0.426817 0.0879189 -0.57982
O_ O_ 0.498549 0.409695 0.0974845 -0.63271
O_ O_ 0.956227 0.466034 0.156995 -0.57982
O_ O_ 0.59985 0.397416 0.144822 -0.63271
O_ O_ 0.642844 0.414281 0.0796184 -0.57982
O_ O_ 0.75915 0.0970803 0.416448 -0.63271
O_ O_ 0.78706 0.164792 0.467056 -0.57982
O_ O_ 0.650254 0.142955 0.40083 -0.63271
O_ O_ 0.606576 0.0756384 0.411508 -0.57982
F_ F_ 0.929152 0.330099 0.433663 -0.20885
F_ F_ 0.923248 0.30748 0.355063 -0.20885
F_ F_ 0.860195 0.300513 0.397461 -0.20885
F_ F_ 0.8164 0.432513 0.321089 -0.20885
F_ F_ 0.810137 0.348371 0.318279 -0.20885
F_ F_ 0.873631 0.378943 0.286431 -0.20885
F_ F_ 0.565349 0.170894 0.0689437 -0.20885
F_ F_ 0.58302 0.192486 0.152363 -0.20885
F_ F_ 0.637187 0.201288 0.0992561 -0.20885
F_ F_ 0.683215 0.0618381 0.178209 -0.20885
F_ F_ 0.687395 0.147947 0.18408 -0.20885
F_ F_ 0.621462 0.113577 0.20632 -0.20885
Zn Zn 0.592002 0.0801196 0.851064 0.83971
Zn Zn 0.65952 0.344999 0.58336 0.83971
Zn Zn 0.906455 0.417513 0.654095 0.83971
Zn Zn 0.839363 0.152082 0.918923 0.83971
H_ H_ 0.676605 0.132869 0.808546 0.10394
H_ H_ 0.751273 0.10107 0.77102 0.10394
H_ H_ 0.710397 0.436973 0.790716 0.10394
H_ H_ 0.62612 0.986089 0.804695 0.10394
H_ H_ 0.040241 0.105028 0.750074 0.10394
H_ H_ 0.999336 0.179267 0.70584 0.10394
H_ H_ 0.527136 0.263404 0.847409 0.10394
H_ H_ 0.573509 0.191739 0.886493 0.10394
H_ H_ 0.50911 0.445126 0.832307 0.10394
H_ H_ 0.981438 0.385185 0.878244 0.10394
H_ H_ 0.85291 0.490718 0.899241 0.10394
H_ H_ 0.57917 0.30416 0.633476 0.10394
H_ H_ 0.00567379 0.267505 0.596923 0.10394
H_ H_ 0.539867 0.290521 0.946665 0.10394
H_ H_ 0.619934 0.317728 0.484972 0.10394
H_ H_ 0.732244 0.254758 0.599059 0.10394
H_ H_ 0.76177 0.20144 0.674473 0.10394
H_ H_ 0.711081 0.328033 0.773517 0.10394
H_ H_ 0.670105 0.37415 0.698849 0.10394
H_ H_ 0.721438 0.352571 0.93701 0.10394
H_ H_ 0.77925 0.357468 0.873464 0.10394
H_ H_ 0.887658 0.423197 0.983631 0.10394
H_ H_ 0.805288 0.38825 0.667504 0.10394
H_ H_ 0.728391 0.440179 0.695257 0.10394
H_ H_ 0.833628 0.0459013 0.784485 0.10394
H_ H_ 0.895929 0.506308 0.717599 0.10394
H_ H_ 0.51684 0.378758 0.698541 0.10394
H_ H_ 0.562892 0.295348 0.730426 0.10394
H_ H_ 0.925517 0.245067 0.71838 0.10394
H_ H_ 0.881056 0.31908 0.67475 0.10394
H_ H_ 0.968052 0.0632971 0.617716 0.10394
H_ H_ 0.510281 0.112101 0.604259 0.10394
H_ H_ 0.640062 0.00693326 0.599629 0.10394
H_ H_ 0.939471 0.163732 0.895359 0.10394
H_ H_ 0.515859 0.199642 0.943042 0.10394
H_ H_ 0.920604 0.285173 0.546551 0.10394
H_ H_ 0.840195 0.229804 0.00189316 0.10394
H_ H_ 0.733445 0.199382 0.886759 0.10394
H_ H_ 0.694518 0.248743 0.813317 0.10394
H_ H_ 0.842066 0.22573 0.75104 0.10394
H_ H_ 0.877603 0.193454 0.834412 0.10394
H_ H_ 0.780999 0.124232 0.558259 0.10394
H_ H_ 0.725869 0.107021 0.623643 0.10394
H_ H_ 0.603084 0.0730882 0.505752 0.10394
C_ C_ 0.683962 0.0927642 0.803859 0.18167
C_ C_ 0.726308 0.074577 0.779681 -0.15533
C_ C_ 0.733331 0.0222131 0.764421 0.02923
C_ C_ 0.699489 0.478082 0.792555 -0.15533
C_ C_ 0.657161 0.0103622 0.80055 0.18167
C_ C_ 0.542376 0.130539 0.774282 0.18167
C_ C_ 0.0189791 0.187305 0.742557 -0.15533
C_ C_ 0.513533 0.221363 0.769497 0.02923
C_ C_ 0.527079 0.227203 0.825477 -0.15533
C_ C_ 0.551986 0.18655 0.849399 0.18167
C_ C_ 0.506487 0.0426873 0.870203 0.69207
C_ C_ 0.972412 0.510721 0.875385 0.02923
C_ C_ 0.994497 0.461033 0.878922 -0.15533
C_ C_ 0.964238 0.422036 0.886546 -0.15533
C_ C_ 0.911172 0.431852 0.892639 0.02923
C_ C_ 0.891931 0.482134 0.896343 -0.15533
C_ C_ 0.92074 0.523246 0.884823 0.02923
C_ C_ 0.902511 0.0739965 0.884076 0.69207
C_ C_ 0.900483 0.334478 0.885156 0.69661
C_ C_ 0.57361 0.295437 0.592642 0.18167
C_ C_ 0.529215 0.275462 0.573882 -0.15533
C_ C_ 0.518356 0.268455 0.52174 0.02923
C_ C_ 0.551595 0.29069 0.987461 -0.15533
C_ C_ 0.593699 0.306794 0.508722 0.18167
C_ C_ 0.717483 0.265553 0.635902 0.18167
C_ C_ 0.74136 0.239846 0.678827 -0.15533
C_ C_ 0.739212 0.262536 0.728023 0.02923
C_ C_ 0.717705 0.312408 0.734903 -0.15533
C_ C_ 0.693086 0.337946 0.693301 0.18167
C_ C_ 0.740411 0.371727 0.546279 0.69207
C_ C_ 0.776432 0.372921 0.999827 0.02923
C_ C_ 0.759719 0.364249 0.947578 -0.15533
C_ C_ 0.787176 0.375664 0.909989 -0.15533
C_ C_ 0.834484 0.395976 0.921374 0.02923
C_ C_ 0.85106 0.406763 0.973611 -0.15533
C_ C_ 0.824703 0.392451 0.0127134 0.02923
C_ C_ 0.8526 0.391146 0.568641 0.69207
C_ C_ 0.853142 0.392288 0.825995 0.69661
C_ C_ 0.808978 0.427099 0.685591 0.18167
C_ C_ 0.766996 0.451958 0.706791 -0.15533
C_ C_ 0.771299 0.494979 0.739168 0.02923
C_ C_ 0.827278 0.0161213 0.754153 -0.15533
C_ C_ 0.859761 0.489073 0.719981 0.18167
C_ C_ 0.992684 0.365432 0.710663 0.18167
C_ C_ 0.521384 0.302077 0.724782 -0.15533
C_ C_ 0.997012 0.281122 0.736081 0.02923
C_ C_ 0.945734 0.277893 0.715123 -0.15533
C_ C_ 0.921566 0.320735 0.690231 0.18167
C_ C_ 0.986348 0.449623 0.617178 0.69207
C_ C_ 0.517268 0.983851 0.615697 0.02923
C_ C_ 0.49645 0.0364804 0.615652 -0.15533
C_ C_ 0.528157 0.0743993 0.612497 -0.15533
C_ C_ 0.580174 0.0648695 0.604262 0.02923
C_ C_ 0.600327 0.0140505 0.596462 -0.15533
C_ C_ 0.569931 0.97429 0.604915 0.02923
C_ C_ 0.591641 0.423235 0.604979 0.69207
C_ C_ 0.595615 0.162916 0.604746 0.69661
C_ C_ 0.934453 0.18762 0.928866 0.18167
C_ C_ 0.973471 0.206958 0.957166 -0.15533
C_ C_ 0.967802 0.240883 0.000352327 0.02923
C_ C_ 0.926516 0.257588 0.515864 -0.15533
C_ C_ 0.878147 0.225776 0.987734 0.18167
C_ C_ 0.757437 0.209353 0.857404 0.18167
C_ C_ 0.735601 0.235312 0.815529 -0.15533
C_ C_ 0.764648 0.23768 0.774348 0.02923
C_ C_ 0.816592 0.220355 0.779517 -0.15533
C_ C_ 0.837178 0.199131 0.82496 0.18167
C_ C_ 0.760136 0.114697 0.954024 0.69207
C_ C_ 0.721675 0.11752 0.493499 0.02923
C_ C_ 0.740595 0.119913 0.546269 -0.15533
C_ C_ 0.709952 0.106308 0.583092 -0.15533
C_ C_ 0.657912 0.0966966 0.570975 0.02923
C_ C_ 0.643367 0.0859453 0.5181 -0.15533
C_ C_ 0.672637 0.101317 0.479933 0.02923
C_ C_ 0.650657 0.107269 0.928925 0.69207
C_ C_ 0.64371 0.103863 0.665799 0.69661
C_ C_ 0.875971 0.389385 0.883127 -0.30787
C_ C_ 0.61855 0.107315 0.610925 -0.30787
N_ N_ 0.64839 0.0609383 0.811459 -0.32189
N_ N_ 0.558526 0.139457 0.823444 -0.32189
N_ N_ 0.606961 0.308269 0.560436 -0.32189
N_ N_ 0.695945 0.31623 0.645104 -0.32189
N_ N_ 0.855396 0.443466 0.69472 -0.32189
N_ N_ 0.944362 0.361427 0.686938 -0.32189
N_ N_ 0.886901 0.197176 0.945704 -0.32189
N_ N_ 0.808658 0.191623 0.862959 -0.32189
O_ O_ 0.00735442 0.0928122 0.900848 -0.63271
O_ O_ 0.547561 0.0292098 0.845333 -0.57982
O_ O_ 0.900712 0.0981196 0.840561 -0.63271
O_ O_ 0.876321 0.0923688 0.922042 -0.57982
O_ O_ 0.74173 0.394916 0.592391 -0.63271
O_ O_ 0.708787 0.336759 0.538158 -0.57982
O_ O_ 0.853521 0.348786 0.593423 -0.63271
O_ O_ 0.878228 0.427341 0.59003 -0.57982
O_ O_ 0.477927 0.414863 0.589571 -0.63271
O_ O_ 0.950896 0.462684 0.649423 -0.57982
O_ O_ 0.591376 0.39367 0.641718 -0.63271
O_ O_ 0.620162 0.406116 0.56847 -0.57982
O_ O_ 0.761897 0.0870399 0.911126 -0.63271
O_ O_ 0.791728 0.14945 0.964671 -0.57982
O_ O_ 0.657706 0.14899 0.906577 -0.63271
O_ O_ 0.607797 0.0866152 0.915873 -0.57982
F_ F_ 0.92379 0.330318 0.934549 -0.20885
F_ F_ 0.933654 0.319854 0.850441 -0.20885
F_ F_ 0.867194 0.298225 0.878821 -0.20885
F_ F_ 0.813621 0.432064 0.824418 -0.20885
F_ F_ 0.829417 0.349557 0.805301 -0.20885
F_ F_ 0.891521 0.402193 0.79704 -0.20885
F_ F_ 0.565387 0.167134 0.56007 -0.20885
F_ F_ 0.563395 0.182574 0.641104 -0.20885
F_ F_ 0.633991 0.195861 0.609841 -0.20885
F_ F_ 0.67581 0.0597376 0.670219 -0.20885
F_ F_ 0.671937 0.145371 0.679426 -0.20885
F_ F_ 0.608957 0.102199 0.700985 -0.20885
Zn Zn 0.587511 0.582077 0.342831 0.83971
Zn Zn 0.658404 0.849405 0.0759951 0.83971
Zn Zn 0.903252 0.917924 0.155134 0.83971
Zn Zn 0.837677 0.652997 0.405838 0.83971
H_ H_ 0.661358 0.628615 0.289876 0.10394
H_ H_ 0.742854 0.605026 0.264243 0.10394
H_ H_ 0.712808 0.940313 0.308535 0.10394
H_ H_ 0.63539 0.479313 0.317959 0.10394
H_ H_ 0.0159755 0.596416 0.248546 0.10394
H_ H_ 0.98205 0.673953 0.201937 0.10394
H_ H_ 0.51814 0.769634 0.327388 0.10394
H_ H_ 0.569573 0.694889 0.372989 0.10394
H_ H_ 0.533009 0.936872 0.390139 0.10394
H_ H_ 0.98787 0.882512 0.377713 0.10394
H_ H_ 0.856599 0.988304 0.411491 0.10394
H_ H_ 0.572268 0.816985 0.128114 0.10394
H_ H_ 0.990836 0.787373 0.0942191 0.10394
H_ H_ 0.55091 0.77888 0.442094 0.10394
H_ H_ 0.618152 0.802943 0.976544 0.10394
H_ H_ 0.724441 0.753577 0.0794248 0.10394
H_ H_ 0.768245 0.703593 0.152918 0.10394
H_ H_ 0.705152 0.818348 0.255318 0.10394
H_ H_ 0.664023 0.86965 0.185312 0.10394
H_ H_ 0.72576 0.85359 0.442891 0.10394
H_ H_ 0.780364 0.859032 0.372556 0.10394
H_ H_ 0.902705 0.899289 0.484043 0.10394
H_ H_ 0.802204 0.883455 0.170777 0.10394
H_ H_ 0.722758 0.939163 0.201459 0.10394
H_ H_ 0.836285 0.537825 0.290018 0.10394
H_ H_ 0.895918 0.994728 0.237353 0.10394
H_ H_ 0.511021 0.886153 0.209045 0.10394
H_ H_ 0.55128 0.804132 0.236094 0.10394
H_ H_ 0.909453 0.747404 0.220873 0.10394
H_ H_ 0.871299 0.821574 0.177507 0.10394
H_ H_ 0.960628 0.555453 0.117176 0.10394
H_ H_ 0.520388 0.621539 0.111435 0.10394
H_ H_ 0.648581 0.510907 0.0860348 0.10394
H_ H_ 0.94647 0.659064 0.383048 0.10394
H_ H_ 0.515781 0.70253 0.438528 0.10394
H_ H_ 0.916818 0.805494 0.0104834 0.10394
H_ H_ 0.84453 0.735883 0.482254 0.10394
H_ H_ 0.732729 0.691127 0.374595 0.10394
H_ H_ 0.692891 0.733976 0.29668 0.10394
H_ H_ 0.833534 0.718724 0.234035 0.10394
H_ H_ 0.874523 0.682487 0.312417 0.10394
H_ H_ 0.788459 0.628603 0.0465616 0.10394
H_ H_ 0.73518 0.611843 0.112994 0.10394
H_ H_ 0.614654 0.577321 0.00439452 0.10394
C_ C_ 0.674965 0.590188 0.294487 0.18167
C_ C_ 0.721123 0.575494 0.274131 -0.15533
C_ C_ 0.738233 0.521757 0.26841 0.02923
C_ C_ 0.698316 0.979257 0.298544 -0.15533
C_ C_ 0.659554 0.506633 0.304849 0.18167
C_ C_ 0.528933 0.631834 0.264715 0.18167
C_ C_ 0.00448642 0.676147 0.238594 -0.15533
C_ C_ 0.50319 0.721693 0.257872 0.02923
C_ C_ 0.523539 0.731641 0.309381 -0.15533
C_ C_ 0.546898 0.688099 0.336909 0.18167
C_ C_ 0.501401 0.547722 0.355694 0.69207
C_ C_ 0.977122 0.0123863 0.383673 0.02923
C_ C_ 0.000880474 0.961956 0.390203 -0.15533
C_ C_ 0.970864 0.921086 0.387773 -0.15533
C_ C_ 0.91723 0.928576 0.389981 0.02923
C_ C_ 0.895813 0.980204 0.397957 -0.15533
C_ C_ 0.922902 0.0209959 0.388729 0.02923
C_ C_ 0.895053 0.570289 0.376684 0.69207
C_ C_ 0.911214 0.826564 0.380338 0.69661
C_ C_ 0.568081 0.803559 0.0870918 0.18167
C_ C_ 0.522744 0.782551 0.0711892 -0.15533
C_ C_ 0.509496 0.771487 0.0185165 0.02923
C_ C_ 0.556928 0.784449 0.483088 -0.15533
C_ C_ 0.589815 0.802358 0.00182199 0.18167
C_ C_ 0.7251 0.771165 0.119618 0.18167
C_ C_ 0.748238 0.743182 0.159397 -0.15533
C_ C_ 0.737934 0.757424 0.210045 0.02923
C_ C_ 0.70746 0.802547 0.219534 -0.15533
C_ C_ 0.689464 0.833834 0.178317 0.18167
C_ C_ 0.737052 0.882106 0.0370548 0.69207
C_ C_ 0.783582 0.875124 0.502097 0.02923
C_ C_ 0.76371 0.867323 0.451171 -0.15533
C_ C_ 0.794775 0.869076 0.412269 -0.15533
C_ C_ 0.845406 0.885014 0.421609 0.02923
C_ C_ 0.863616 0.889204 0.472671 -0.15533
C_ C_ 0.834991 0.881335 0.511533 0.02923
C_ C_ 0.852121 0.878933 0.066787 0.69207
C_ C_ 0.855601 0.890546 0.328423 0.69661
C_ C_ 0.80388 0.922188 0.186855 0.18167
C_ C_ 0.761615 0.946077 0.213093 -0.15533
C_ C_ 0.770401 0.988319 0.246835 0.02923
C_ C_ 0.829553 0.514602 0.253897 -0.15533
C_ C_ 0.857681 0.982466 0.227032 0.18167
C_ C_ 0.986539 0.861766 0.21342 0.18167
C_ C_ 0.50888 0.805724 0.225279 -0.15533
C_ C_ 0.984256 0.771745 0.233531 0.02923
C_ C_ 0.931163 0.777267 0.217539 -0.15533
C_ C_ 0.91072 0.821024 0.195595 0.18167
C_ C_ 0.98468 0.951638 0.123523 0.69207
C_ C_ 0.528964 0.493129 0.112236 0.02923
C_ C_ 0.507657 0.544397 0.113331 -0.15533
C_ C_ 0.536714 0.582411 0.107807 -0.15533
C_ C_ 0.588793 0.571415 0.0991347 0.02923
C_ C_ 0.611638 0.519399 0.0980106 -0.15533
C_ C_ 0.581907 0.48085 0.110042 0.02923
C_ C_ 0.596983 0.931849 0.108741 0.69207
C_ C_ 0.601317 0.67059 0.100423 0.69661
C_ C_ 0.939846 0.680058 0.417621 0.18167
C_ C_ 0.983116 0.701229 0.447548 -0.15533
C_ C_ 0.975679 0.734891 0.488761 0.02923
C_ C_ 0.924311 0.766697 0.997147 -0.15533
C_ C_ 0.882838 0.723088 0.473802 0.18167
C_ C_ 0.757009 0.697286 0.342665 0.18167
C_ C_ 0.730619 0.71874 0.295679 -0.15533
C_ C_ 0.759469 0.727224 0.256688 0.02923
C_ C_ 0.80963 0.708365 0.261115 -0.15533
C_ C_ 0.832383 0.685225 0.305594 0.18167
C_ C_ 0.76514 0.621697 0.450446 0.69207
C_ C_ 0.725885 0.625942 0.986068 0.02923
C_ C_ 0.747087 0.626513 0.0377649 -0.15533
C_ C_ 0.716934 0.617251 0.07511 -0.15533
C_ C_ 0.664704 0.607944 0.0641087 0.02923
C_ C_ 0.647586 0.598242 0.0135801 -0.15533
C_ C_ 0.675741 0.61069 0.974793 0.02923
C_ C_ 0.650027 0.609491 0.423083 0.69207
C_ C_ 0.648004 0.614541 0.158444 0.69661
C_ C_ 0.88333 0.883157 0.381223 -0.30787
C_ C_ 0.62396 0.61482 0.103413 -0.30787
N_ N_ 0.644196 0.55574 0.307342 -0.32189
N_ N_ 0.552992 0.639847 0.31201 -0.32189
N_ N_ 0.599026 0.817155 0.0527339 -0.32189
N_ N_ 0.697863 0.817266 0.129945 -0.32189
N_ N_ 0.850356 0.941275 0.19574 -0.32189
N_ N_ 0.938267 0.860483 0.188713 -0.32189
N_ N_ 0.891149 0.694395 0.43068 -0.32189
N_ N_ 0.805993 0.677071 0.344384 -0.32189
O_ O_ 0.0040431 0.587661 0.387327 -0.63271
O_ O_ 0.540247 0.537605 0.325202 -0.57982
O_ O_ 0.89482 0.596972 0.335352 -0.63271
O_ O_ 0.874181 0.592648 0.415797 -0.57982
O_ O_ 0.74134 0.908582 0.0791679 -0.63271
O_ O_ 0.70073 0.850959 0.0252716 -0.57982
O_ O_ 0.84926 0.838514 0.0912832 -0.63271
O_ O_ 0.867593 0.921127 0.0912872 -0.57982
O_ O_ 0.487763 0.917934 0.0857899 -0.63271
O_ O_ 0.952155 0.961404 0.157915 -0.57982
O_ O_ 0.584064 0.901538 0.140551 -0.63271
O_ O_ 0.636072 0.915691 0.0819845 -0.57982
O_ O_ 0.764508 0.595764 0.407551 -0.63271
O_ O_ 0.795284 0.657872 0.456337 -0.57982
O_ O_ 0.659248 0.644365 0.392201 -0.63271
O_ O_ 0.617902 0.577203 0.404457 -0.57982
F_ F_ 0.941021 0.822069 0.424678 -0.20885
F_ F_ 0.943077 0.816654 0.340534 -0.20885
F_ F_ 0.877215 0.789606 0.377975 -0.20885
F_ F_ 0.819821 0.934723 0.330762 -0.20885
F_ F_ 0.833822 0.84817 0.30725 -0.20885
F_ F_ 0.886928 0.896434 0.291628 -0.20885
F_ F_ 0.571871 0.675196 0.0527401 -0.20885
F_ F_ 0.567966 0.689406 0.136252 -0.20885
F_ F_ 0.637513 0.703445 0.0965583 -0.20885
F_ F_ 0.679543 0.567875 0.166993 -0.20885
F_ F_ 0.679011 0.652568 0.170764 -0.20885
F_ F_ 0.614537 0.616348 0.194103 -0.20885
Zn Zn 0.584018 0.579926 0.847712 0.83971
Zn Zn 0.667273 0.849625 0.584288 0.83971
Zn Zn 0.912294 0.918311 0.652948 0.83971
Zn Zn 0.841729 0.660032 0.917633 0.83971
H_ H_ 0.6622 0.621867 0.811269 0.10394
H_ H_ 0.737855 0.59184 0.764093 0.10394
H_ H_ 0.701467 0.946635 0.767449 0.10394
H_ H_ 0.635664 0.471456 0.835204 0.10394
H_ H_ 0.0264945 0.600971 0.743554 0.10394
H_ H_ 0.988975 0.670564 0.699942 0.10394
H_ H_ 0.508663 0.759255 0.846444 0.10394
H_ H_ 0.552071 0.682327 0.887937 0.10394
H_ H_ 0.534727 0.940664 0.876824 0.10394
H_ H_ 0.987946 0.882506 0.862795 0.10394
H_ H_ 0.855663 0.992687 0.886891 0.10394
H_ H_ 0.589661 0.805952 0.630284 0.10394
H_ H_ 0.00353701 0.762053 0.592807 0.10394
H_ H_ 0.53593 0.776384 0.94407 0.10394
H_ H_ 0.628308 0.81838 0.477643 0.10394
H_ H_ 0.71842 0.749164 0.60198 0.10394
H_ H_ 0.755938 0.704598 0.678325 0.10394
H_ H_ 0.737836 0.851065 0.764548 0.10394
H_ H_ 0.689183 0.889632 0.688525 0.10394
H_ H_ 0.719389 0.880972 0.930878 0.10394
H_ H_ 0.777269 0.868395 0.869846 0.10394
H_ H_ 0.903054 0.895327 0.988523 0.10394
H_ H_ 0.808178 0.916006 0.644732 0.10394
H_ H_ 0.733882 0.964165 0.67535 0.10394
H_ H_ 0.823621 0.554341 0.757544 0.10394
H_ H_ 0.905623 0.998328 0.746601 0.10394
H_ H_ 0.508022 0.883855 0.7124 0.10394
H_ H_ 0.551425 0.803892 0.737601 0.10394
H_ H_ 0.913287 0.742449 0.712141 0.10394
H_ H_ 0.869446 0.821243 0.675359 0.10394
H_ H_ 0.957228 0.545816 0.581419 0.10394
H_ H_ 0.517881 0.614737 0.61266 0.10394
H_ H_ 0.636254 0.501197 0.58594 0.10394
H_ H_ 0.948981 0.62497 0.960918 0.10394
H_ H_ 0.512071 0.682732 0.962231 0.10394
H_ H_ 0.916942 0.774205 0.532469 0.10394
H_ H_ 0.845149 0.756581 0.976482 0.10394
H_ H_ 0.762287 0.740044 0.898428 0.10394
H_ H_ 0.71506 0.77831 0.826753 0.10394
H_ H_ 0.833312 0.714298 0.735029 0.10394
H_ H_ 0.878523 0.682142 0.814975 0.10394
H_ H_ 0.787838 0.596665 0.553095 0.10394
H_ H_ 0.733918 0.598569 0.618008 0.10394
H_ H_ 0.604989 0.594189 0.503816 0.10394
C_ C_ 0.670076 0.582099 0.800515 0.18167
C_ C_ 0.714705 0.563465 0.776382 -0.15533
C_ C_ 0.732288 0.511087 0.775883 0.02923
C_ C_ 0.700933 0.989122 0.779836 -0.15533
C_ C_ 0.655051 0.497214 0.815729 0.18167
C_ C_ 0.542163 0.635529 0.76741 0.18167
C_ C_ 0.00765187 0.678676 0.737223 -0.15533
C_ C_ 0.507222 0.721213 0.770899 0.02923
C_ C_ 0.516079 0.723922 0.824378 -0.15533
C_ C_ 0.53862 0.678628 0.84801 0.18167
C_ C_ 0.499987 0.541075 0.861921 0.69207
C_ C_ 0.979689 0.00893365 0.876639 0.02923
C_ C_ 0.000344827 0.957894 0.877525 -0.15533
C_ C_ 0.969887 0.919042 0.881598 -0.15533
C_ C_ 0.917796 0.928455 0.886957 0.02923
C_ C_ 0.89693 0.981317 0.888474 -0.15533
C_ C_ 0.92621 0.0215204 0.882837 0.02923
C_ C_ 0.894233 0.575141 0.880906 0.69207
C_ C_ 0.911676 0.833193 0.881812 0.69661
C_ C_ 0.582076 0.79781 0.587032 0.18167
C_ C_ 0.535952 0.778932 0.570631 -0.15533
C_ C_ 0.522677 0.770221 0.5175 0.02923
C_ C_ 0.540581 0.787614 0.983134 -0.15533
C_ C_ 0.602332 0.805328 0.502651 0.18167
C_ C_ 0.715583 0.76882 0.639476 0.18167
C_ C_ 0.741809 0.746046 0.68238 -0.15533
C_ C_ 0.7408 0.772449 0.730586 0.02923
C_ C_ 0.728417 0.826115 0.729356 -0.15533
C_ C_ 0.704581 0.849057 0.686095 0.18167
C_ C_ 0.747608 0.874446 0.542636 0.69207
C_ C_ 0.776284 0.883665 0.998948 0.02923
C_ C_ 0.759998 0.880943 0.94514 -0.15533
C_ C_ 0.79462 0.877102 0.908291 -0.15533
C_ C_ 0.845716 0.890245 0.920992 0.02923
C_ C_ 0.863253 0.890469 0.974332 -0.15533
C_ C_ 0.828827 0.883449 0.0125234 0.02923
C_ C_ 0.860959 0.880259 0.564618 0.69207
C_ C_ 0.857426 0.887312 0.82177 0.69661
C_ C_ 0.814176 0.9451 0.674071 0.18167
C_ C_ 0.771119 0.972152 0.692381 -0.15533
C_ C_ 0.779019 0.00259827 0.738313 0.02923
C_ C_ 0.817917 0.515672 0.742404 -0.15533
C_ C_ 0.869121 0.990451 0.731758 0.18167
C_ C_ 0.989692 0.853947 0.699535 0.18167
C_ C_ 0.511087 0.806081 0.731557 -0.15533
C_ C_ 0.983529 0.772351 0.735665 0.02923
C_ C_ 0.933878 0.775095 0.711992 -0.15533
C_ C_ 0.910052 0.818365 0.687857 0.18167
C_ C_ 0.985075 0.96112 0.617171 0.69207
C_ C_ 0.520874 0.488955 0.62154 0.02923
C_ C_ 0.500709 0.541085 0.622714 -0.15533
C_ C_ 0.531234 0.576133 0.610559 -0.15533
C_ C_ 0.582114 0.566198 0.598304 0.02923
C_ C_ 0.597086 0.513261 0.591505 -0.15533
C_ C_ 0.570725 0.476435 0.609453 0.02923
C_ C_ 0.595913 0.921614 0.607987 0.69207
C_ C_ 0.606788 0.662675 0.610915 0.69661
C_ C_ 0.943531 0.666341 0.964969 0.18167
C_ C_ 0.984676 0.692251 0.982935 -0.15533
C_ C_ 0.975686 0.743674 0.998423 0.02923
C_ C_ 0.924099 0.744199 0.505675 -0.15533
C_ C_ 0.883485 0.739006 0.977227 0.18167
C_ C_ 0.773114 0.724828 0.863087 0.18167
C_ C_ 0.749589 0.751551 0.821216 -0.15533
C_ C_ 0.769207 0.748946 0.774792 0.02923
C_ C_ 0.814776 0.719918 0.771018 -0.15533
C_ C_ 0.839238 0.695796 0.814548 0.18167
C_ C_ 0.754434 0.644811 0.948944 0.69207
C_ C_ 0.729845 0.611899 0.489249 0.02923
C_ C_ 0.74754 0.603566 0.542037 -0.15533
C_ C_ 0.716847 0.607125 0.580554 -0.15533
C_ C_ 0.663971 0.602879 0.567586 0.02923
C_ C_ 0.645443 0.601106 0.515312 -0.15533
C_ C_ 0.677033 0.605776 0.475901 0.02923
C_ C_ 0.648179 0.610654 0.922923 0.69207
C_ C_ 0.653712 0.594547 0.664611 0.69661
C_ C_ 0.8802 0.886456 0.87812 -0.30787
C_ C_ 0.625318 0.604515 0.609472 -0.30787
N_ N_ 0.640287 0.54824 0.81662 -0.32189
N_ N_ 0.552698 0.636091 0.819587 -0.32189
N_ N_ 0.613449 0.810532 0.553602 -0.32189
N_ N_ 0.698227 0.819025 0.643314 -0.32189
N_ N_ 0.860751 0.955004 0.692078 -0.32189
N_ N_ 0.940164 0.85522 0.678916 -0.32189
N_ N_ 0.895052 0.690458 0.953982 -0.32189
N_ N_ 0.816386 0.695107 0.858507 -0.32189
O_ O_ 0.997435 0.596513 0.882363 -0.63271
O_ O_ 0.533262 0.535413 0.827908 -0.57982
O_ O_ 0.887068 0.596269 0.83706 -0.63271
O_ O_ 0.866725 0.593499 0.919108 -0.57982
O_ O_ 0.745083 0.907274 0.581188 -0.63271
O_ O_ 0.715795 0.839145 0.536763 -0.57982
O_ O_ 0.861708 0.839324 0.590372 -0.63271
O_ O_ 0.882123 0.920934 0.586773 -0.57982
O_ O_ 0.487078 0.898576 0.607375 -0.63271
O_ O_ 0.954241 0.968088 0.655111 -0.57982
O_ O_ 0.599761 0.896242 0.649548 -0.63271
O_ O_ 0.631268 0.911884 0.57563 -0.57982
O_ O_ 0.748068 0.626653 0.903434 -0.63271
O_ O_ 0.794116 0.670074 0.962461 -0.57982
O_ O_ 0.642676 0.652107 0.896852 -0.63271
O_ O_ 0.613615 0.576969 0.910131 -0.57982
F_ F_ 0.94383 0.828806 0.924439 -0.20885
F_ F_ 0.94089 0.818676 0.840574 -0.20885
F_ F_ 0.882831 0.791847 0.877727 -0.20885
F_ F_ 0.824144 0.930286 0.815363 -0.20885
F_ F_ 0.832308 0.846481 0.805792 -0.20885
F_ F_ 0.891752 0.891404 0.786783 -0.20885
F_ F_ 0.572368 0.673416 0.570544 -0.20885
F_ F_ 0.578725 0.675939 0.652163 -0.20885
F_ F_ 0.643628 0.693965 0.605673 -0.20885
F_ F_ 0.684545 0.549836 0.658802 -0.20885
F_ F_ 0.680819 0.631003 0.68993 -0.20885
F_ F_ 0.619172 0.588535 0.698268 -0.20885
_cell_length_a 26.508
_cell_length_b 26.37200000322088
_cell_length_c 26.311999743092066
_cell_angle_alpha 93.74100058972084
_cell_angle_beta 96.04100104955006
_cell_angle_gamma 83.6869992558723
_symmetry_space_group_name_H-M         'P 1'
_symmetry_Int_Tables_number            1
loop_
_symmetry_equiv_pos_as_xyz
   'x, y, z'
                         
loop_
_atom_site_label
_atom_site_type_symbol
_atom_site_fract_x 
_atom_site_fract_y
_atom_site_fract_z
_atom_site_charge
Zn Zn 0.087487 0.0915073 0.347541 0.83971
Zn Zn 0.157531 0.34539 0.0852047 0.83971
Zn Zn 0.411948 0.418704 0.152806 0.83971
Zn Zn 0.343927 0.153642 0.415868 0.83971
H_ H_ 0.172647 0.137287 0.306366 0.10394
H_ H_ 0.253626 0.0983416 0.273887 0.10394
H_ H_ 0.225431 0.447419 0.296866 0.10394
H_ H_ 0.127508 0.988626 0.314803 0.10394
H_ H_ 0.519614 0.0907223 0.249444 0.10394
H_ H_ 0.485924 0.163981 0.199645 0.10394
H_ H_ 0.0511857 0.277863 0.327848 0.10394
H_ H_ 0.0753605 0.203872 0.37909 0.10394
H_ H_ 0.0311581 0.444592 0.387822 0.10394
H_ H_ 0.485412 0.377514 0.36332 0.10394
H_ H_ 0.356405 0.485415 0.403142 0.10394
H_ H_ 0.0731664 0.309229 0.136572 0.10394
H_ H_ 0.510544 0.265274 0.0983779 0.10394
H_ H_ 0.0485767 0.264398 0.447256 0.10394
H_ H_ 0.11483 0.322412 0.98476 0.10394
H_ H_ 0.213941 0.245027 0.101556 0.10394
H_ H_ 0.249264 0.198842 0.174832 0.10394
H_ H_ 0.229094 0.343979 0.266201 0.10394
H_ H_ 0.1835 0.382382 0.19254 0.10394
H_ H_ 0.230434 0.337376 0.448572 0.10394
H_ H_ 0.279136 0.356288 0.379819 0.10394
H_ H_ 0.398378 0.404383 0.489599 0.10394
H_ H_ 0.310226 0.391805 0.163424 0.10394
H_ H_ 0.234452 0.441286 0.201006 0.10394
H_ H_ 0.333983 0.0516781 0.269243 0.10394
H_ H_ 0.406178 0.495371 0.238226 0.10394
H_ H_ 0.00622169 0.397089 0.196463 0.10394
H_ H_ 0.0504394 0.330129 0.250704 0.10394
H_ H_ 0.402459 0.246696 0.221635 0.10394
H_ H_ 0.363598 0.324338 0.183868 0.10394
H_ H_ 0.465452 0.0624746 0.128573 0.10394
H_ H_ 0.0144902 0.118458 0.0988421 0.10394
H_ H_ 0.145217 0.00390132 0.0914882 0.10394
H_ H_ 0.442065 0.161643 0.398661 0.10394
H_ H_ 0.0160068 0.190276 0.450044 0.10394
H_ H_ 0.420864 0.281991 0.0499248 0.10394
H_ H_ 0.34934 0.231256 0.512196 0.10394
H_ H_ 0.239245 0.201623 0.38613 0.10394
H_ H_ 0.202525 0.255662 0.319192 0.10394
H_ H_ 0.32015 0.18818 0.234375 0.10394
H_ H_ 0.380397 0.172384 0.318627 0.10394
H_ H_ 0.282005 0.134391 0.0591873 0.10394
H_ H_ 0.23093 0.112845 0.125448 0.10394
H_ H_ 0.102655 0.0976022 0.00980802 0.10394
C_ C_ 0.181424 0.0962447 0.30646 0.18167
C_ C_ 0.228101 0.0728787 0.28807 -0.15533
C_ C_ 0.239066 0.0194108 0.281876 0.02923
C_ C_ 0.212046 0.489839 0.298954 -0.15533
C_ C_ 0.156602 0.0134508 0.314988 0.18167
C_ C_ 0.0330138 0.14228 0.270527 0.18167
C_ C_ 0.50262 0.171185 0.235528 -0.15533
C_ C_ 0.0132258 0.234671 0.263249 0.02923
C_ C_ 0.0439192 0.239502 0.310831 -0.15533
C_ C_ 0.0626203 0.197904 0.338779 0.18167
C_ C_ 0.0063729 0.0525811 0.36903 0.69207
C_ C_ 0.472063 0.504673 0.368631 0.02923
C_ C_ 0.495408 0.454119 0.369745 -0.15533
C_ C_ 0.467014 0.413034 0.374007 -0.15533
C_ C_ 0.416975 0.422129 0.391102 0.02923
C_ C_ 0.396099 0.474511 0.396499 -0.15533
C_ C_ 0.421277 0.516701 0.383873 0.02923
C_ C_ 0.392304 0.0642934 0.386796 0.69207
C_ C_ 0.402701 0.325685 0.383074 0.69661
C_ C_ 0.0650781 0.302132 0.095802 0.18167
C_ C_ 0.0205037 0.277853 0.0760487 -0.15533
C_ C_ 0.00984955 0.270952 0.0239144 0.02923
C_ C_ 0.0569614 0.277398 0.486975 -0.15533
C_ C_ 0.0885778 0.308233 0.0115815 0.18167
C_ C_ 0.216291 0.266339 0.137524 0.18167
C_ C_ 0.238213 0.238916 0.180669 -0.15533
C_ C_ 0.242393 0.266664 0.229872 0.02923
C_ C_ 0.227891 0.321539 0.229757 -0.15533
C_ C_ 0.199074 0.341894 0.187501 0.18167
C_ C_ 0.235987 0.3697 0.0436095 0.69207
C_ C_ 0.283703 0.366417 0.507812 0.02923
C_ C_ 0.26476 0.359097 0.457446 -0.15533
C_ C_ 0.294539 0.364341 0.419243 -0.15533
C_ C_ 0.34289 0.38386 0.429615 0.02923
C_ C_ 0.363186 0.389625 0.480972 -0.15533
C_ C_ 0.333638 0.379743 0.520851 0.02923
C_ C_ 0.350235 0.384878 0.0686885 0.69207
C_ C_ 0.350393 0.388073 0.33116 0.69661
C_ C_ 0.313616 0.429166 0.183654 0.18167
C_ C_ 0.27377 0.452823 0.21007 -0.15533
C_ C_ 0.278566 0.49873 0.240437 0.02923
C_ C_ 0.326382 0.0166767 0.248364 -0.15533
C_ C_ 0.367098 0.48592 0.225512 0.18167
C_ C_ 0.486807 0.345678 0.186738 0.18167
C_ C_ 0.0129148 0.325947 0.233118 -0.15533
C_ C_ 0.47801 0.264811 0.22577 0.02923
C_ C_ 0.426437 0.270972 0.209852 -0.15533
C_ C_ 0.405712 0.318074 0.18976 0.18167
C_ C_ 0.495906 0.453599 0.122162 0.69207
C_ C_ 0.018944 0.990119 0.114892 0.02923
C_ C_ 0.000837639 0.0412691 0.114105 -0.15533
C_ C_ 0.0324167 0.0783685 0.105985 -0.15533
C_ C_ 0.0855804 0.0667434 0.103601 0.02923
C_ C_ 0.104989 0.0139262 0.100589 -0.15533
C_ C_ 0.0727058 0.976681 0.10638 0.02923
C_ C_ 0.0925642 0.426117 0.105445 0.69207
C_ C_ 0.100795 0.164228 0.115296 0.69661
C_ C_ 0.437103 0.18939 0.431198 0.18167
C_ C_ 0.479742 0.20816 0.457897 -0.15533
C_ C_ 0.47462 0.241322 0.500553 0.02923
C_ C_ 0.42814 0.252782 0.0212034 -0.15533
C_ C_ 0.386816 0.223666 0.497137 0.18167
C_ C_ 0.266854 0.212555 0.360802 0.18167
C_ C_ 0.245595 0.244555 0.321952 -0.15533
C_ C_ 0.269728 0.242452 0.276379 0.02923
C_ C_ 0.316214 0.209955 0.270925 -0.15533
C_ C_ 0.340046 0.187238 0.315029 0.18167
C_ C_ 0.258136 0.131715 0.453374 0.69207
C_ C_ 0.22685 0.11369 0.995512 0.02923
C_ C_ 0.245148 0.117668 0.0471241 -0.15533
C_ C_ 0.214408 0.108615 0.0862898 -0.15533
C_ C_ 0.161 0.103977 0.0720647 0.02923
C_ C_ 0.141512 0.103835 0.0181711 -0.15533
C_ C_ 0.174667 0.108213 0.981548 0.02923
C_ C_ 0.147147 0.1185 0.429941 0.69207
C_ C_ 0.147126 0.100178 0.171909 0.69661
C_ C_ 0.377416 0.381956 0.384913 -0.30787
C_ C_ 0.123306 0.108147 0.115032 -0.30787
N_ N_ 0.146291 0.0659581 0.317242 -0.32189
N_ N_ 0.0566344 0.149916 0.316613 -0.32189
N_ N_ 0.0980368 0.313805 0.0635644 -0.32189
N_ N_ 0.196043 0.316182 0.141474 -0.32189
N_ N_ 0.358051 0.44826 0.190582 -0.32189
N_ N_ 0.435646 0.352588 0.177856 -0.32189
N_ N_ 0.391521 0.196496 0.450285 -0.32189
N_ N_ 0.314899 0.187943 0.357257 -0.32189
O_ O_ 0.497256 0.0881034 0.405118 -0.63271
O_ O_ 0.0452593 0.0419697 0.34151 -0.57982
O_ O_ 0.393447 0.0848708 0.343132 -0.63271
O_ O_ 0.378621 0.0943044 0.426214 -0.57982
O_ O_ 0.246954 0.387091 0.0917442 -0.63271
O_ O_ 0.199537 0.338369 0.0361879 -0.57982
O_ O_ 0.35579 0.341682 0.0906415 -0.63271
O_ O_ 0.377466 0.422199 0.089031 -0.57982
O_ O_ 0.986576 0.41227 0.0975074 -0.63271
O_ O_ 0.462064 0.462925 0.155149 -0.57982
O_ O_ 0.091129 0.402829 0.14787 -0.63271
O_ O_ 0.130157 0.410696 0.0772063 -0.57982
O_ O_ 0.256866 0.101927 0.410919 -0.63271
O_ O_ 0.296087 0.161997 0.462449 -0.57982
O_ O_ 0.157379 0.152028 0.398397 -0.63271
O_ O_ 0.110969 0.0905265 0.416713 -0.57982
F_ F_ 0.440396 0.31628 0.420005 -0.20885
F_ F_ 0.423542 0.311971 0.33718 -0.20885
F_ F_ 0.365738 0.292828 0.385457 -0.20885
F_ F_ 0.315061 0.431247 0.332454 -0.20885
F_ F_ 0.321783 0.348492 0.307789 -0.20885
F_ F_ 0.384467 0.391635 0.295819 -0.20885
F_ F_ 0.0739658 0.172197 0.0675181 -0.20885
F_ F_ 0.0680323 0.178416 0.152834 -0.20885
F_ F_ 0.137328 0.199953 0.119701 -0.20885
F_ F_ 0.186933 0.0614525 0.172614 -0.20885
F_ F_ 0.167482 0.142909 0.196278 -0.20885
F_ F_ 0.112911 0.0917031 0.203532 -0.20885
Zn Zn 0.087779 0.0944646 0.850849 0.83971
Zn Zn 0.165466 0.344953 0.584241 0.83971
Zn Zn 0.409397 0.409651 0.660722 0.83971
Zn Zn 0.344712 0.15563 0.92482 0.83971
H_ H_ 0.175752 0.133331 0.816106 0.10394
H_ H_ 0.256688 0.0988664 0.777694 0.10394
H_ H_ 0.201606 0.445334 0.78523 0.10394
H_ H_ 0.128379 0.989947 0.824245 0.10394
H_ H_ 0.544687 0.0910728 0.758026 0.10394
H_ H_ 0.505503 0.168026 0.706921 0.10394
H_ H_ 0.0328109 0.278685 0.836815 0.10394
H_ H_ 0.0723899 0.200299 0.883964 0.10394
H_ H_ 0.0307623 0.453672 0.867493 0.10394
H_ H_ 0.464378 0.374303 0.852294 0.10394
H_ H_ 0.341607 0.486412 0.889879 0.10394
H_ H_ 0.0838856 0.301739 0.632501 0.10394
H_ H_ 0.506095 0.263073 0.600758 0.10394
H_ H_ 0.0337923 0.290324 0.952158 0.10394
H_ H_ 0.129412 0.306258 0.481018 0.10394
H_ H_ 0.233937 0.247808 0.603 0.10394
H_ H_ 0.274096 0.205021 0.68105 0.10394
H_ H_ 0.213437 0.340135 0.768326 0.10394
H_ H_ 0.17704 0.378421 0.685597 0.10394
H_ H_ 0.217089 0.348791 0.942164 0.10394
H_ H_ 0.253702 0.384603 0.876481 0.10394
H_ H_ 0.387734 0.410003 0.982463 0.10394
H_ H_ 0.30516 0.396081 0.657668 0.10394
H_ H_ 0.230874 0.444503 0.685686 0.10394
H_ H_ 0.32897 0.0442915 0.782811 0.10394
H_ H_ 0.401279 0.500307 0.740227 0.10394
H_ H_ 0.00943977 0.399468 0.714482 0.10394
H_ H_ 0.0622463 0.324994 0.740071 0.10394
H_ H_ 0.414862 0.23765 0.726763 0.10394
H_ H_ 0.375273 0.312896 0.685154 0.10394
H_ H_ 0.456539 0.0459341 0.623289 0.10394
H_ H_ 0.0295764 0.126729 0.620234 0.10394
H_ H_ 0.142277 0.00485524 0.58867 0.10394
H_ H_ 0.437694 0.174332 0.897841 0.10394
H_ H_ 0.0118416 0.192846 0.949465 0.10394
H_ H_ 0.423324 0.275026 0.550629 0.10394
H_ H_ 0.355137 0.223678 0.0212382 0.10394
H_ H_ 0.238268 0.210571 0.894493 0.10394
H_ H_ 0.197962 0.247257 0.816201 0.10394
H_ H_ 0.341563 0.2295 0.757915 0.10394
H_ H_ 0.377932 0.190769 0.837084 0.10394
H_ H_ 0.28489 0.140646 0.555357 0.10394
H_ H_ 0.237718 0.116303 0.620831 0.10394
H_ H_ 0.103893 0.109978 0.514824 0.10394
C_ C_ 0.183071 0.0937194 0.808369 0.18167
C_ C_ 0.226505 0.0730262 0.78351 -0.15533
C_ C_ 0.233039 0.0188136 0.773446 0.02923
C_ C_ 0.197896 0.485043 0.786556 -0.15533
C_ C_ 0.154648 0.0132481 0.810178 0.18167
C_ C_ 0.0360934 0.143682 0.76956 0.18167
C_ C_ 0.518887 0.170713 0.747802 -0.15533
C_ C_ 0.022753 0.23664 0.763492 0.02923
C_ C_ 0.0420484 0.242723 0.815193 -0.15533
C_ C_ 0.0545347 0.199003 0.844293 0.18167
C_ C_ 0.0128361 0.0496261 0.871867 0.69207
C_ C_ 0.463141 0.50258 0.867492 0.02923
C_ C_ 0.477658 0.452154 0.853322 -0.15533
C_ C_ 0.447657 0.414119 0.858467 -0.15533
C_ C_ 0.402446 0.425637 0.880982 0.02923
C_ C_ 0.381319 0.477658 0.885212 -0.15533
C_ C_ 0.411686 0.515978 0.881485 0.02923
C_ C_ 0.395582 0.0689278 0.885578 0.69207
C_ C_ 0.390411 0.328889 0.888745 0.69661
C_ C_ 0.0746302 0.300517 0.591453 0.18167
C_ C_ 0.0308007 0.277949 0.571691 -0.15533
C_ C_ 0.0203781 0.269139 0.519817 0.02923
C_ C_ 0.0438972 0.287565 0.991359 -0.15533
C_ C_ 0.100632 0.300072 0.506175 0.18167
C_ C_ 0.227578 0.26467 0.638937 0.18167
C_ C_ 0.248163 0.241762 0.684147 -0.15533
C_ C_ 0.24221 0.268549 0.73191 0.02923
C_ C_ 0.215352 0.317893 0.7328 -0.15533
C_ C_ 0.189439 0.336249 0.686301 0.18167
C_ C_ 0.247772 0.358885 0.546399 0.69207
C_ C_ 0.272876 0.374075 0.00356075 0.02923
C_ C_ 0.252821 0.365523 0.951568 -0.15533
C_ C_ 0.275171 0.380797 0.912011 -0.15533
C_ C_ 0.327125 0.393503 0.922825 0.02923
C_ C_ 0.348582 0.401565 0.973453 -0.15533
C_ C_ 0.324716 0.385092 0.0154865 0.02923
C_ C_ 0.359362 0.377291 0.573503 0.69207
C_ C_ 0.337342 0.380378 0.824657 0.69661
C_ C_ 0.311055 0.42516 0.689063 0.18167
C_ C_ 0.268383 0.45488 0.702368 -0.15533
C_ C_ 0.273716 0.494404 0.739347 0.02923
C_ C_ 0.32445 0.013315 0.755822 -0.15533
C_ C_ 0.363681 0.486567 0.729486 0.18167
C_ C_ 0.494617 0.346674 0.70104 0.18167
C_ C_ 0.0223985 0.322248 0.728191 -0.15533
C_ C_ 0.490929 0.265261 0.738129 0.02923
C_ C_ 0.439485 0.266882 0.718721 -0.15533
C_ C_ 0.415782 0.311762 0.698598 0.18167
C_ C_ 0.486211 0.449403 0.627564 0.69207
C_ C_ 0.023294 0.996457 0.615618 0.02923
C_ C_ 0.00646802 0.0492905 0.616864 -0.15533
C_ C_ 0.0410702 0.0864839 0.614332 -0.15533
C_ C_ 0.0911782 0.0719102 0.604427 0.02923
C_ C_ 0.10646 0.0190684 0.60017 -0.15533
C_ C_ 0.0723283 0.982 0.606382 0.02923
C_ C_ 0.0961006 0.421183 0.603049 0.69207
C_ C_ 0.114158 0.167896 0.624378 0.69661
C_ C_ 0.438913 0.19193 0.934114 0.18167
C_ C_ 0.479238 0.213474 0.956646 -0.15533
C_ C_ 0.475206 0.246406 0.99914 0.02923
C_ C_ 0.427148 0.246675 0.522204 -0.15533
C_ C_ 0.389325 0.225761 0.999105 0.18167
C_ C_ 0.258503 0.208144 0.861058 0.18167
C_ C_ 0.234753 0.230346 0.814284 -0.15533
C_ C_ 0.265271 0.241347 0.778981 0.02923
C_ C_ 0.316639 0.220357 0.783811 -0.15533
C_ C_ 0.338814 0.196806 0.827453 0.18167
C_ C_ 0.263494 0.118609 0.957533 0.69207
C_ C_ 0.225054 0.127713 0.495132 0.02923
C_ C_ 0.246768 0.129255 0.545387 -0.15533
C_ C_ 0.219081 0.115298 0.582826 -0.15533
C_ C_ 0.168199 0.101371 0.573684 0.02923
C_ C_ 0.144878 0.107089 0.522748 -0.15533
C_ C_ 0.172746 0.116875 0.483489 0.02923
C_ C_ 0.151605 0.105638 0.927139 0.69207
C_ C_ 0.160512 0.096934 0.669256 0.69661
C_ C_ 0.364244 0.383006 0.880467 -0.30787
C_ C_ 0.13294 0.109999 0.615593 -0.30787
N_ N_ 0.144777 0.0645578 0.813816 -0.32189
N_ N_ 0.0543191 0.151048 0.819505 -0.32189
N_ N_ 0.10953 0.308815 0.558852 -0.32189
N_ N_ 0.197933 0.309491 0.640221 -0.32189
N_ N_ 0.357849 0.440152 0.703127 -0.32189
N_ N_ 0.442467 0.351614 0.691024 -0.32189
N_ N_ 0.394265 0.197711 0.955762 -0.32189
N_ N_ 0.308325 0.186417 0.864526 -0.32189
O_ O_ 0.494808 0.0908616 0.8847 -0.63271
O_ O_ 0.0436092 0.0477458 0.836752 -0.57982
O_ O_ 0.386324 0.0932398 0.841552 -0.63271
O_ O_ 0.384741 0.0956266 0.928037 -0.57982
O_ O_ 0.24456 0.390416 0.5865 -0.63271
O_ O_ 0.210707 0.329609 0.53683 -0.57982
O_ O_ 0.357829 0.336235 0.600878 -0.63271
O_ O_ 0.377965 0.416836 0.597348 -0.57982
O_ O_ 0.988015 0.404132 0.597238 -0.63271
O_ O_ 0.454357 0.455031 0.663817 -0.57982
O_ O_ 0.0949616 0.396474 0.643836 -0.63271
O_ O_ 0.135267 0.40831 0.574999 -0.57982
O_ O_ 0.252661 0.105636 0.908281 -0.63271
O_ O_ 0.300222 0.150513 0.970549 -0.57982
O_ O_ 0.151862 0.148338 0.903875 -0.63271
O_ O_ 0.11339 0.0789567 0.912479 -0.57982
F_ F_ 0.421071 0.323889 0.933079 -0.20885
F_ F_ 0.417487 0.30921 0.849038 -0.20885
F_ F_ 0.35676 0.292357 0.884811 -0.20885
F_ F_ 0.305912 0.424434 0.815076 -0.20885
F_ F_ 0.30938 0.338692 0.813087 -0.20885
F_ F_ 0.371646 0.374925 0.788056 -0.20885
F_ F_ 0.0815066 0.18299 0.582991 -0.20885
F_ F_ 0.0881926 0.17436 0.666799 -0.20885
F_ F_ 0.149273 0.20355 0.633508 -0.20885
F_ F_ 0.187912 0.0505635 0.664255 -0.20885
F_ F_ 0.192133 0.132001 0.694167 -0.20885
F_ F_ 0.122466 0.0886831 0.700655 -0.20885
Zn Zn 0.0883437 0.578193 0.341206 0.83971
Zn Zn 0.160667 0.845946 0.0886535 0.83971
Zn Zn 0.407849 0.917077 0.154217 0.83971
Zn Zn 0.339071 0.656754 0.420314 0.83971
H_ H_ 0.163033 0.629246 0.29351 0.10394
H_ H_ 0.241635 0.59603 0.254466 0.10394
H_ H_ 0.208863 0.948372 0.301782 0.10394
H_ H_ 0.14169 0.479121 0.326784 0.10394
H_ H_ 0.53728 0.59751 0.243635 0.10394
H_ H_ 0.483811 0.66408 0.198855 0.10394
H_ H_ 0.0334984 0.763512 0.334298 0.10394
H_ H_ 0.0657241 0.684246 0.375473 0.10394
H_ H_ 0.0419137 0.957263 0.393731 0.10394
H_ H_ 0.480341 0.872302 0.397249 0.10394
H_ H_ 0.354071 0.981998 0.417162 0.10394
H_ H_ 0.0778017 0.805359 0.136195 0.10394
H_ H_ 0.502636 0.768102 0.102123 0.10394
H_ H_ 0.0454019 0.774852 0.437752 0.10394
H_ H_ 0.128596 0.816123 0.9918 0.10394
H_ H_ 0.221142 0.749914 0.106351 0.10394
H_ H_ 0.25362 0.701416 0.182416 0.10394
H_ H_ 0.203531 0.835306 0.27804 0.10394
H_ H_ 0.168026 0.875861 0.198581 0.10394
H_ H_ 0.211308 0.891832 0.453687 0.10394
H_ H_ 0.262509 0.897449 0.386492 0.10394
H_ H_ 0.39656 0.892019 0.490928 0.10394
H_ H_ 0.307578 0.890985 0.168366 0.10394
H_ H_ 0.234589 0.935412 0.210291 0.10394
H_ H_ 0.336011 0.546879 0.276509 0.10394
H_ H_ 0.404531 0.00551476 0.225567 0.10394
H_ H_ 0.00393705 0.896178 0.215574 0.10394
H_ H_ 0.0518325 0.81161 0.249019 0.10394
H_ H_ 0.402913 0.746843 0.217861 0.10394
H_ H_ 0.367873 0.823857 0.182153 0.10394
H_ H_ 0.464216 0.552349 0.116071 0.10394
H_ H_ 0.0115799 0.620603 0.0987227 0.10394
H_ H_ 0.14269 0.506504 0.0960749 0.10394
H_ H_ 0.442444 0.662165 0.399046 0.10394
H_ H_ 0.0230087 0.683578 0.445007 0.10394
H_ H_ 0.40858 0.788307 0.0393671 0.10394
H_ H_ 0.346862 0.743412 0.497368 0.10394
H_ H_ 0.233752 0.699838 0.38866 0.10394
H_ H_ 0.190661 0.733311 0.311407 0.10394
H_ H_ 0.337819 0.745473 0.261399 0.10394
H_ H_ 0.376595 0.698262 0.331142 0.10394
H_ H_ 0.282434 0.620886 0.0521956 0.10394
H_ H_ 0.225027 0.622096 0.118591 0.10394
H_ H_ 0.101235 0.598856 0.00268847 0.10394
C_ C_ 0.17511 0.588713 0.291637 0.18167
C_ C_ 0.220501 0.572027 0.271618 -0.15533
C_ C_ 0.238901 0.521232 0.273205 0.02923
C_ C_ 0.204869 0.989952 0.304123 -0.15533
C_ C_ 0.162889 0.504508 0.310167 0.18167
C_ C_ 0.0262399 0.633158 0.263816 0.18167
C_ C_ 0.498943 0.672015 0.237943 -0.15533
C_ C_ 0.00804951 0.725753 0.261394 0.02923
C_ C_ 0.0382223 0.728618 0.310199 -0.15533
C_ C_ 0.0586593 0.684639 0.333962 0.18167
C_ C_ 0.00375662 0.545174 0.360401 0.69207
C_ C_ 0.472657 0.000691121 0.388308 0.02923
C_ C_ 0.492214 0.948864 0.382384 -0.15533
C_ C_ 0.462068 0.91052 0.389141 -0.15533
C_ C_ 0.410077 0.922444 0.397756 0.02923
C_ C_ 0.39282 0.973828 0.405163 -0.15533
C_ C_ 0.419973 0.0138902 0.396628 0.02923
C_ C_ 0.392768 0.568094 0.377679 0.69207
C_ C_ 0.391395 0.829458 0.389303 0.69661
C_ C_ 0.071937 0.798189 0.0949702 0.18167
C_ C_ 0.0239251 0.788104 0.0717629 -0.15533
C_ C_ 0.0185751 0.772368 0.0178021 0.02923
C_ C_ 0.0533266 0.778834 0.48101 -0.15533
C_ C_ 0.10105 0.8006 0.0122831 0.18167
C_ C_ 0.218746 0.769038 0.144081 0.18167
C_ C_ 0.233395 0.740758 0.187645 -0.15533
C_ C_ 0.234822 0.76593 0.235056 0.02923
C_ C_ 0.209863 0.816447 0.2397 -0.15533
C_ C_ 0.187205 0.838532 0.19609 0.18167
C_ C_ 0.239728 0.868091 0.0487256 0.69207
C_ C_ 0.273421 0.880171 0.512361 0.02923
C_ C_ 0.251793 0.891998 0.464808 -0.15533
C_ C_ 0.283026 0.897009 0.424353 -0.15533
C_ C_ 0.336052 0.894435 0.433706 0.02923
C_ C_ 0.357125 0.889032 0.483201 -0.15533
C_ C_ 0.326308 0.878478 0.523092 0.02923
C_ C_ 0.348696 0.894838 0.0759034 0.69207
C_ C_ 0.345138 0.89365 0.336774 0.69661
C_ C_ 0.311301 0.926944 0.190374 0.18167
C_ C_ 0.269654 0.953528 0.21426 -0.15533
C_ C_ 0.277013 0.997579 0.245715 0.02923
C_ C_ 0.327865 0.515557 0.247261 -0.15533
C_ C_ 0.3664 0.987462 0.226075 0.18167
C_ C_ 0.489628 0.85256 0.204152 0.18167
C_ C_ 0.0109692 0.81545 0.232756 -0.15533
C_ C_ 0.479233 0.765742 0.228056 0.02923
C_ C_ 0.427712 0.773792 0.210755 -0.15533
C_ C_ 0.407966 0.821411 0.194937 0.18167
C_ C_ 0.484586 0.961226 0.114949 0.69207
C_ C_ 0.0185931 0.495301 0.109983 0.02923
C_ C_ 0.0014025 0.545853 0.11112 -0.15533
C_ C_ 0.0314294 0.582903 0.105482 -0.15533
C_ C_ 0.0806935 0.569116 0.0979604 0.02923
C_ C_ 0.099596 0.517389 0.0971002 -0.15533
C_ C_ 0.0689564 0.47957 0.09959 0.02923
C_ C_ 0.0965348 0.92557 0.108448 0.69207
C_ C_ 0.0979847 0.665214 0.106807 0.69661
C_ C_ 0.440955 0.684365 0.432991 0.18167
C_ C_ 0.481094 0.709711 0.454721 -0.15533
C_ C_ 0.477273 0.742015 0.498484 0.02923
C_ C_ 0.418033 0.753999 0.0169692 -0.15533
C_ C_ 0.384249 0.733409 0.485008 0.18167
C_ C_ 0.255537 0.70111 0.358314 0.18167
C_ C_ 0.230095 0.726189 0.316765 -0.15533
C_ C_ 0.258381 0.740714 0.278568 0.02923
C_ C_ 0.313156 0.732946 0.28763 -0.15533
C_ C_ 0.335072 0.705828 0.32846 0.18167
C_ C_ 0.261105 0.62322 0.452099 0.69207
C_ C_ 0.223599 0.61281 0.990003 0.02923
C_ C_ 0.243787 0.611704 0.0415855 -0.15533
C_ C_ 0.209518 0.617668 0.0793371 -0.15533
C_ C_ 0.157688 0.605819 0.0671351 0.02923
C_ C_ 0.140071 0.600827 0.015099 -0.15533
C_ C_ 0.172003 0.608748 0.977054 0.02923
C_ C_ 0.151768 0.598577 0.421062 0.69207
C_ C_ 0.143441 0.602905 0.164616 0.69661
C_ C_ 0.369706 0.886245 0.389284 -0.30787
C_ C_ 0.120128 0.607906 0.108975 -0.30787
N_ N_ 0.145487 0.554669 0.305706 -0.32189
N_ N_ 0.0565791 0.638644 0.307882 -0.32189
N_ N_ 0.106442 0.808605 0.063522 -0.32189
N_ N_ 0.190482 0.814707 0.148538 -0.32189
N_ N_ 0.358174 0.943742 0.197223 -0.32189
N_ N_ 0.437893 0.859162 0.188939 -0.32189
N_ N_ 0.394662 0.691287 0.453096 -0.32189
N_ N_ 0.306803 0.692342 0.364937 -0.32189
O_ O_ 0.50395 0.588995 0.387164 -0.63271
O_ O_ 0.039122 0.534952 0.326971 -0.57982
O_ O_ 0.398804 0.595381 0.338117 -0.63271
O_ O_ 0.365693 0.590655 0.414785 -0.57982
O_ O_ 0.244823 0.892103 0.0953672 -0.63271
O_ O_ 0.205623 0.835497 0.0416608 -0.57982
O_ O_ 0.35782 0.853557 0.0995451 -0.63271
O_ O_ 0.370765 0.933049 0.0930825 -0.57982
O_ O_ 0.981369 0.909999 0.0918461 -0.63271
O_ O_ 0.455388 0.962582 0.153246 -0.57982
O_ O_ 0.0910507 0.89785 0.146227 -0.63271
O_ O_ 0.133688 0.910442 0.0805097 -0.57982
O_ O_ 0.257267 0.603355 0.404354 -0.63271
O_ O_ 0.294102 0.65672 0.466099 -0.57982
O_ O_ 0.154952 0.637285 0.392129 -0.63271
O_ O_ 0.113739 0.571324 0.40779 -0.57982
F_ F_ 0.428732 0.819735 0.42548 -0.20885
F_ F_ 0.414227 0.812512 0.346529 -0.20885
F_ F_ 0.353837 0.799744 0.399009 -0.20885
F_ F_ 0.314081 0.938882 0.331125 -0.20885
F_ F_ 0.316091 0.857249 0.318598 -0.20885
F_ F_ 0.381081 0.894118 0.299599 -0.20885
F_ F_ 0.0668875 0.671983 0.0620047 -0.20885
F_ F_ 0.0733625 0.68376 0.150059 -0.20885
F_ F_ 0.133721 0.698246 0.105411 -0.20885
F_ F_ 0.176377 0.56068 0.168871 -0.20885
F_ F_ 0.165898 0.644223 0.184912 -0.20885
F_ F_ 0.10366 0.596546 0.193845 -0.20885
Zn Zn 0.0903336 0.587319 0.842497 0.83971
Zn Zn 0.157197 0.845947 0.585524 0.83971
Zn Zn 0.405868 0.912116 0.662274 0.83971
Zn Zn 0.337033 0.653276 0.921366 0.83971
H_ H_ 0.179246 0.634189 0.807924 0.10394
H_ H_ 0.249979 0.593079 0.763808 0.10394
H_ H_ 0.210182 0.948017 0.795757 0.10394
H_ H_ 0.122499 0.488548 0.807168 0.10394
H_ H_ 0.546316 0.599599 0.745185 0.10394
H_ H_ 0.500265 0.672093 0.704393 0.10394
H_ H_ 0.0193487 0.768751 0.837451 0.10394
H_ H_ 0.0478778 0.691584 0.883164 0.10394
H_ H_ 0.0407981 0.949263 0.872147 0.10394
H_ H_ 0.481496 0.871029 0.891856 0.10394
H_ H_ 0.348776 0.986135 0.895454 0.10394
H_ H_ 0.0795031 0.808316 0.628091 0.10394
H_ H_ 0.511128 0.776228 0.599384 0.10394
H_ H_ 0.0598242 0.764849 0.948669 0.10394
H_ H_ 0.113815 0.826547 0.477928 0.10394
H_ H_ 0.217555 0.756347 0.60247 0.10394
H_ H_ 0.257986 0.709715 0.67486 0.10394
H_ H_ 0.206982 0.831921 0.774723 0.10394
H_ H_ 0.173451 0.8831 0.699863 0.10394
H_ H_ 0.225097 0.84542 0.947078 0.10394
H_ H_ 0.274689 0.855003 0.88025 0.10394
H_ H_ 0.387734 0.919173 0.987795 0.10394
H_ H_ 0.311381 0.892064 0.670911 0.10394
H_ H_ 0.236346 0.940902 0.697649 0.10394
H_ H_ 0.329578 0.537808 0.782479 0.10394
H_ H_ 0.399389 0.00768294 0.732765 0.10394
H_ H_ 0.0150501 0.877245 0.68428 0.10394
H_ H_ 0.0480876 0.818943 0.751198 0.10394
H_ H_ 0.406288 0.747787 0.736407 0.10394
H_ H_ 0.3641 0.823919 0.708448 0.10394
H_ H_ 0.458955 0.549085 0.617418 0.10394
H_ H_ 0.00998659 0.614292 0.577927 0.10394
H_ H_ 0.143646 0.505676 0.602057 0.10394
H_ H_ 0.44117 0.64337 0.91947 0.10394
H_ H_ 0.023453 0.674395 0.978682 0.10394
H_ H_ 0.42092 0.784947 0.541315 0.10394
H_ H_ 0.339495 0.743791 0.00283161 0.10394
H_ H_ 0.238904 0.708015 0.895353 0.10394
H_ H_ 0.193378 0.750289 0.823096 0.10394
H_ H_ 0.325892 0.719092 0.740081 0.10394
H_ H_ 0.375011 0.682299 0.824989 0.10394
H_ H_ 0.284053 0.617047 0.551309 0.10394
H_ H_ 0.23335 0.604221 0.618231 0.10394
H_ H_ 0.103756 0.588892 0.5032 0.10394
C_ C_ 0.182696 0.592939 0.800855 0.18167
C_ C_ 0.224875 0.569532 0.778372 -0.15533
C_ C_ 0.229323 0.517164 0.765798 0.02923
C_ C_ 0.200593 0.989595 0.794886 -0.15533
C_ C_ 0.154648 0.50878 0.805372 0.18167
C_ C_ 0.0248071 0.636658 0.765658 0.18167
C_ C_ 0.516549 0.676389 0.743662 -0.15533
C_ C_ 0.00733579 0.728144 0.761466 0.02923
C_ C_ 0.0207902 0.731458 0.816572 -0.15533
C_ C_ 0.0429611 0.688232 0.841851 0.18167
C_ C_ 0.00529734 0.550567 0.859889 0.69207
C_ C_ 0.472548 0.00342779 0.88156 0.02923
C_ C_ 0.495264 0.951829 0.88295 -0.15533
C_ C_ 0.464013 0.9101 0.889524 -0.15533
C_ C_ 0.411055 0.922182 0.896375 0.02923
C_ C_ 0.390374 0.974173 0.895601 -0.15533
C_ C_ 0.421314 0.0145012 0.891006 0.02923
C_ C_ 0.392037 0.570378 0.885641 0.69207
C_ C_ 0.398068 0.824213 0.886534 0.69661
C_ C_ 0.0701021 0.801345 0.587033 0.18167
C_ C_ 0.0305231 0.772633 0.566932 -0.15533
C_ C_ 0.0196906 0.760525 0.511322 0.02923
C_ C_ 0.0599541 0.777015 0.988223 -0.15533
C_ C_ 0.0929297 0.80732 0.502299 0.18167
C_ C_ 0.215897 0.774223 0.640384 0.18167
C_ C_ 0.233834 0.744321 0.682212 -0.15533
C_ C_ 0.232522 0.76651 0.731841 0.02923
C_ C_ 0.21034 0.817233 0.736147 -0.15533
C_ C_ 0.190756 0.844152 0.694493 0.18167
C_ C_ 0.238855 0.874254 0.551187 0.69207
C_ C_ 0.274758 0.873834 0.0102123 0.02923
C_ C_ 0.259748 0.861371 0.958865 -0.15533
C_ C_ 0.289248 0.866753 0.919398 -0.15533
C_ C_ 0.335771 0.88565 0.92973 0.02923
C_ C_ 0.350601 0.902532 0.980751 -0.15533
C_ C_ 0.323046 0.893408 0.0222182 0.02923
C_ C_ 0.353875 0.878239 0.577695 0.69207
C_ C_ 0.344756 0.887985 0.830759 0.69661
C_ C_ 0.314256 0.926336 0.69459 0.18167
C_ C_ 0.272703 0.950449 0.715436 -0.15533
C_ C_ 0.277485 0.994939 0.746241 0.02923
C_ C_ 0.322099 0.511406 0.751235 -0.15533
C_ C_ 0.366865 0.990149 0.732003 0.18167
C_ C_ 0.486189 0.851105 0.713896 0.18167
C_ C_ 0.00983864 0.815171 0.730035 -0.15533
C_ C_ 0.482547 0.767556 0.742437 0.02923
C_ C_ 0.431564 0.772198 0.72758 -0.15533
C_ C_ 0.407205 0.818192 0.712255 0.18167
C_ C_ 0.487918 0.944304 0.629559 0.69207
C_ C_ 0.0189136 0.487582 0.603226 0.02923
C_ C_ 0.99913 0.537721 0.589957 -0.15533
C_ C_ 0.0302653 0.579404 0.593918 -0.15533
C_ C_ 0.0843563 0.564939 0.596544 0.02923
C_ C_ 0.102858 0.512999 0.598794 -0.15533
C_ C_ 0.0713993 0.474321 0.603079 0.02923
C_ C_ 0.0935286 0.927244 0.606501 0.69207
C_ C_ 0.100795 0.66365 0.603248 0.69661
C_ C_ 0.433782 0.674142 0.945875 0.18167
C_ C_ 0.474278 0.699678 0.968238 -0.15533
C_ C_ 0.466515 0.739557 0.00445066 0.02923
C_ C_ 0.425594 0.755715 0.512177 -0.15533
C_ C_ 0.376943 0.728846 0.993932 0.18167
C_ C_ 0.257481 0.706054 0.861592 0.18167
C_ C_ 0.234298 0.735641 0.822315 -0.15533
C_ C_ 0.258875 0.737978 0.775806 0.02923
C_ C_ 0.310059 0.718475 0.776225 -0.15533
C_ C_ 0.334379 0.698502 0.822626 0.18167
C_ C_ 0.258607 0.621573 0.952106 0.69207
C_ C_ 0.225037 0.611895 0.489899 0.02923
C_ C_ 0.244104 0.611747 0.541147 -0.15533
C_ C_ 0.215003 0.602751 0.578665 -0.15533
C_ C_ 0.161919 0.601967 0.567324 0.02923
C_ C_ 0.143616 0.594547 0.514622 -0.15533
C_ C_ 0.174321 0.599947 0.474785 0.02923
C_ C_ 0.146719 0.609039 0.923795 0.69207
C_ C_ 0.145311 0.602969 0.664463 0.69661
C_ C_ 0.371767 0.88019 0.886833 -0.30787
C_ C_ 0.123102 0.60686 0.607615 -0.30787
N_ N_ 0.148836 0.560954 0.811012 -0.32189
N_ N_ 0.0511398 0.643748 0.813719 -0.32189
N_ N_ 0.104828 0.812136 0.554372 -0.32189
N_ N_ 0.192472 0.821058 0.647018 -0.32189
N_ N_ 0.36134 0.945552 0.70368 -0.32189
N_ N_ 0.43479 0.85558 0.701254 -0.32189
N_ N_ 0.385424 0.690687 0.957316 -0.32189
N_ N_ 0.308034 0.693031 0.863743 -0.32189
O_ O_ 0.502926 0.577851 0.896646 -0.63271
O_ O_ 0.0435078 0.53832 0.836392 -0.57982
O_ O_ 0.393451 0.598117 0.847507 -0.63271
O_ O_ 0.36443 0.58754 0.921252 -0.57982
O_ O_ 0.245987 0.889515 0.598757 -0.63271
O_ O_ 0.202473 0.844744 0.538021 -0.57982
O_ O_ 0.361562 0.836608 0.603493 -0.63271
O_ O_ 0.380449 0.915841 0.594049 -0.57982
O_ O_ 0.989913 0.913769 0.596821 -0.63271
O_ O_ 0.453655 0.959128 0.659548 -0.57982
O_ O_ 0.0855758 0.902584 0.646125 -0.63271
O_ O_ 0.134733 0.912754 0.583268 -0.57982
O_ O_ 0.256287 0.599192 0.905902 -0.63271
O_ O_ 0.291977 0.654676 0.964259 -0.57982
O_ O_ 0.147013 0.649407 0.896981 -0.63271
O_ O_ 0.111683 0.577712 0.908081 -0.57982
F_ F_ 0.428847 0.822303 0.929448 -0.20885
F_ F_ 0.427098 0.812029 0.847479 -0.20885
F_ F_ 0.363703 0.787693 0.884215 -0.20885
F_ F_ 0.31113 0.931902 0.829655 -0.20885
F_ F_ 0.315553 0.849784 0.810702 -0.20885
F_ F_ 0.38344 0.897699 0.800761 -0.20885
F_ F_ 0.0719573 0.671149 0.556963 -0.20885
F_ F_ 0.0677017 0.678398 0.639735 -0.20885
F_ F_ 0.135536 0.700299 0.610293 -0.20885
F_ F_ 0.18025 0.561528 0.674255 -0.20885
F_ F_ 0.171575 0.6452 0.683203 -0.20885
F_ F_ 0.104814 0.602972 0.694223 -0.20885
Zn Zn 0.581811 0.0819789 0.347952 0.83971
Zn Zn 0.665311 0.349862 0.0842065 0.83971
Zn Zn 0.910015 0.421945 0.150306 0.83971
Zn Zn 0.836446 0.160631 0.425187 0.83971
H_ H_ 0.6703 0.126868 0.314206 0.10394
H_ H_ 0.743155 0.0895677 0.269742 0.10394
H_ H_ 0.712624 0.445715 0.281398 0.10394
H_ H_ 0.625503 0.978998 0.329458 0.10394
H_ H_ 0.0313803 0.104005 0.257393 0.10394
H_ H_ 0.987805 0.176508 0.204019 0.10394
H_ H_ 0.52437 0.266425 0.32572 0.10394
H_ H_ 0.567613 0.191501 0.373435 0.10394
H_ H_ 0.535488 0.445809 0.358842 0.10394
H_ H_ 0.979561 0.381127 0.393088 0.10394
H_ H_ 0.849419 0.486484 0.394414 0.10394
H_ H_ 0.588845 0.302859 0.128541 0.10394
H_ H_ 0.993561 0.265158 0.100163 0.10394
H_ H_ 0.532088 0.292343 0.447146 0.10394
H_ H_ 0.618656 0.3243 0.979569 0.10394
H_ H_ 0.721438 0.262868 0.0985747 0.10394
H_ H_ 0.754242 0.210427 0.173908 0.10394
H_ H_ 0.715363 0.342947 0.27592 0.10394
H_ H_ 0.683603 0.392341 0.198857 0.10394
H_ H_ 0.71356 0.37859 0.446988 0.10394
H_ H_ 0.765252 0.39409 0.37756 0.10394
H_ H_ 0.892129 0.413328 0.489375 0.10394
H_ H_ 0.807821 0.404307 0.154886 0.10394
H_ H_ 0.732084 0.454685 0.187134 0.10394
H_ H_ 0.828383 0.0365698 0.278508 0.10394
H_ H_ 0.908667 0.502378 0.235894 0.10394
H_ H_ 0.509486 0.372185 0.175989 0.10394
H_ H_ 0.552277 0.295311 0.221266 0.10394
H_ H_ 0.911652 0.249279 0.214415 0.10394
H_ H_ 0.878319 0.321619 0.166063 0.10394
H_ H_ 0.96245 0.0525835 0.119046 0.10394
H_ H_ 0.525858 0.12778 0.138404 0.10394
H_ H_ 0.639662 0.0143915 0.0832743 0.10394
H_ H_ 0.939626 0.157131 0.409274 0.10394
H_ H_ 0.516879 0.199269 0.44256 0.10394
H_ H_ 0.907142 0.284317 0.0381754 0.10394
H_ H_ 0.845581 0.244089 0.503831 0.10394
H_ H_ 0.731067 0.194847 0.385989 0.10394
H_ H_ 0.693696 0.244822 0.30835 0.10394
H_ H_ 0.839597 0.242427 0.256495 0.10394
H_ H_ 0.876819 0.197861 0.33443 0.10394
H_ H_ 0.787379 0.0797874 0.0527165 0.10394
H_ H_ 0.734337 0.0964052 0.122589 0.10394
H_ H_ 0.602655 0.0918232 0.00905133 0.10394
C_ C_ 0.676189 0.0848703 0.307989 0.18167
C_ C_ 0.718625 0.0645492 0.286432 -0.15533
C_ C_ 0.729862 0.0105255 0.277902 0.02923
C_ C_ 0.706057 0.487074 0.285074 -0.15533
C_ C_ 0.650488 0.00208564 0.314568 0.18167
C_ C_ 0.526708 0.130306 0.262359 0.18167
C_ C_ 0.0105614 0.184336 0.242522 -0.15533
C_ C_ 0.502567 0.221405 0.257066 0.02923
C_ C_ 0.529812 0.227958 0.306191 -0.15533
C_ C_ 0.552281 0.184316 0.333618 0.18167
C_ C_ 0.504976 0.0428018 0.381582 0.69207
C_ C_ 0.970131 0.504086 0.374774 0.02923
C_ C_ 0.99198 0.453739 0.374932 -0.15533
C_ C_ 0.960994 0.416104 0.384978 -0.15533
C_ C_ 0.907658 0.427267 0.384986 0.02923
C_ C_ 0.888628 0.478175 0.388499 -0.15533
C_ C_ 0.916984 0.517355 0.379029 0.02923
C_ C_ 0.896154 0.073516 0.386503 0.69207
C_ C_ 0.8959 0.332519 0.390659 0.69661
C_ C_ 0.577033 0.301865 0.0907895 0.18167
C_ C_ 0.532536 0.281211 0.0728477 -0.15533
C_ C_ 0.519002 0.2745 0.0196029 0.02923
C_ C_ 0.548805 0.286337 0.487583 -0.15533
C_ C_ 0.596453 0.312627 0.00561051 0.18167
C_ C_ 0.713215 0.276299 0.139344 0.18167
C_ C_ 0.735377 0.247833 0.181767 -0.15533
C_ C_ 0.73805 0.273486 0.231531 0.02923
C_ C_ 0.71551 0.323524 0.237617 -0.15533
C_ C_ 0.696616 0.352096 0.194883 0.18167
C_ C_ 0.7448 0.364917 0.0419071 0.69207
C_ C_ 0.775105 0.382998 0.506234 0.02923
C_ C_ 0.75447 0.382925 0.454962 -0.15533
C_ C_ 0.783242 0.388875 0.415597 -0.15533
C_ C_ 0.834895 0.397625 0.426606 0.02923
C_ C_ 0.853841 0.40672 0.477711 -0.15533
C_ C_ 0.824243 0.39823 0.518729 0.02923
C_ C_ 0.853226 0.388389 0.0641794 0.69207
C_ C_ 0.843883 0.384569 0.327754 0.69661
C_ C_ 0.81285 0.438654 0.178779 0.18167
C_ C_ 0.771369 0.465289 0.199096 -0.15533
C_ C_ 0.779576 0.503564 0.237797 0.02923
C_ C_ 0.819413 0.00562901 0.254301 -0.15533
C_ C_ 0.869996 0.492887 0.225397 0.18167
C_ C_ 0.987734 0.364829 0.201317 0.18167
C_ C_ 0.509869 0.303341 0.214543 -0.15533
C_ C_ 0.988542 0.280118 0.237389 0.02923
C_ C_ 0.939204 0.279568 0.212754 -0.15533
C_ C_ 0.915894 0.322493 0.185931 0.18167
C_ C_ 0.984872 0.457101 0.119988 0.69207
C_ C_ 0.521468 0.998721 0.117183 0.02923
C_ C_ 0.504812 0.0513061 0.126483 -0.15533
C_ C_ 0.540176 0.0866329 0.132394 -0.15533
C_ C_ 0.587776 0.0742785 0.110211 0.02923
C_ C_ 0.602132 0.0233799 0.0947138 -0.15533
C_ C_ 0.571829 0.98465 0.105186 0.02923
C_ C_ 0.604024 0.426583 0.106754 0.69207
C_ C_ 0.603685 0.169806 0.110806 0.69661
C_ C_ 0.937509 0.186056 0.43869 0.18167
C_ C_ 0.980469 0.205577 0.460595 -0.15533
C_ C_ 0.975808 0.243018 0.500773 0.02923
C_ C_ 0.916677 0.252665 0.0133898 -0.15533
C_ C_ 0.882971 0.235796 0.490641 0.18167
C_ C_ 0.755235 0.204842 0.356175 0.18167
C_ C_ 0.733762 0.232283 0.314492 -0.15533
C_ C_ 0.761893 0.243479 0.275996 0.02923
C_ C_ 0.814669 0.232593 0.283592 -0.15533
C_ C_ 0.836745 0.208434 0.329275 0.18167
C_ C_ 0.756728 0.128379 0.457475 0.69207
C_ C_ 0.72682 0.102624 0.994747 0.02923
C_ C_ 0.748334 0.0911395 0.0448112 -0.15533
C_ C_ 0.717229 0.100127 0.0849189 -0.15533
C_ C_ 0.662582 0.102628 0.0735851 0.02923
C_ C_ 0.642956 0.0961693 0.0205983 -0.15533
C_ C_ 0.673529 0.102539 0.982074 0.02923
C_ C_ 0.646703 0.102764 0.425941 0.69207
C_ C_ 0.654897 0.109778 0.170892 0.69661
C_ C_ 0.870008 0.385026 0.382648 -0.30787
C_ C_ 0.627014 0.114398 0.115094 -0.30787
N_ N_ 0.63863 0.0541499 0.315184 -0.32189
N_ N_ 0.549099 0.136826 0.310119 -0.32189
N_ N_ 0.607371 0.318214 0.0571628 -0.32189
N_ N_ 0.694733 0.325724 0.146519 -0.32189
N_ N_ 0.860727 0.454176 0.190386 -0.32189
N_ N_ 0.939743 0.363198 0.179553 -0.32189
N_ N_ 0.890321 0.200995 0.452192 -0.32189
N_ N_ 0.806846 0.195715 0.365707 -0.32189
O_ O_ 4.88654e-05 0.0974498 0.394797 -0.63271
O_ O_ 0.540278 0.0333801 0.350051 -0.57982
O_ O_ 0.891443 0.0940241 0.341562 -0.63271
O_ O_ 0.868533 0.0942188 0.422637 -0.57982
O_ O_ 0.75104 0.387843 0.0869558 -0.63271
O_ O_ 0.706386 0.336785 0.0329458 -0.57982
O_ O_ 0.859809 0.343992 0.0856898 -0.63271
O_ O_ 0.876887 0.426817 0.0879189 -0.57982
O_ O_ 0.498549 0.409695 0.0974845 -0.63271
O_ O_ 0.956227 0.466034 0.156995 -0.57982
O_ O_ 0.59985 0.397416 0.144822 -0.63271
O_ O_ 0.642844 0.414281 0.0796184 -0.57982
O_ O_ 0.75915 0.0970803 0.416448 -0.63271
O_ O_ 0.78706 0.164792 0.467056 -0.57982
O_ O_ 0.650254 0.142955 0.40083 -0.63271
O_ O_ 0.606576 0.0756384 0.411508 -0.57982
F_ F_ 0.929152 0.330099 0.433663 -0.20885
F_ F_ 0.923248 0.30748 0.355063 -0.20885
F_ F_ 0.860195 0.300513 0.397461 -0.20885
F_ F_ 0.8164 0.432513 0.321089 -0.20885
F_ F_ 0.810137 0.348371 0.318279 -0.20885
F_ F_ 0.873631 0.378943 0.286431 -0.20885
F_ F_ 0.565349 0.170894 0.0689437 -0.20885
F_ F_ 0.58302 0.192486 0.152363 -0.20885
F_ F_ 0.637187 0.201288 0.0992561 -0.20885
F_ F_ 0.683215 0.0618381 0.178209 -0.20885
F_ F_ 0.687395 0.147947 0.18408 -0.20885
F_ F_ 0.621462 0.113577 0.20632 -0.20885
Zn Zn 0.592002 0.0801196 0.851064 0.83971
Zn Zn 0.65952 0.344999 0.58336 0.83971
Zn Zn 0.906455 0.417513 0.654095 0.83971
Zn Zn 0.839363 0.152082 0.918923 0.83971
H_ H_ 0.676605 0.132869 0.808546 0.10394
H_ H_ 0.751273 0.10107 0.77102 0.10394
H_ H_ 0.710397 0.436973 0.790716 0.10394
H_ H_ 0.62612 0.986089 0.804695 0.10394
H_ H_ 0.040241 0.105028 0.750074 0.10394
H_ H_ 0.999336 0.179267 0.70584 0.10394
H_ H_ 0.527136 0.263404 0.847409 0.10394
H_ H_ 0.573509 0.191739 0.886493 0.10394
H_ H_ 0.50911 0.445126 0.832307 0.10394
H_ H_ 0.981438 0.385185 0.878244 0.10394
H_ H_ 0.85291 0.490718 0.899241 0.10394
H_ H_ 0.57917 0.30416 0.633476 0.10394
H_ H_ 0.00567379 0.267505 0.596923 0.10394
H_ H_ 0.539867 0.290521 0.946665 0.10394
H_ H_ 0.619934 0.317728 0.484972 0.10394
H_ H_ 0.732244 0.254758 0.599059 0.10394
H_ H_ 0.76177 0.20144 0.674473 0.10394
H_ H_ 0.711081 0.328033 0.773517 0.10394
H_ H_ 0.670105 0.37415 0.698849 0.10394
H_ H_ 0.721438 0.352571 0.93701 0.10394
H_ H_ 0.77925 0.357468 0.873464 0.10394
H_ H_ 0.887658 0.423197 0.983631 0.10394
H_ H_ 0.805288 0.38825 0.667504 0.10394
H_ H_ 0.728391 0.440179 0.695257 0.10394
H_ H_ 0.833628 0.0459013 0.784485 0.10394
H_ H_ 0.895929 0.506308 0.717599 0.10394
H_ H_ 0.51684 0.378758 0.698541 0.10394
H_ H_ 0.562892 0.295348 0.730426 0.10394
H_ H_ 0.925517 0.245067 0.71838 0.10394
H_ H_ 0.881056 0.31908 0.67475 0.10394
H_ H_ 0.968052 0.0632971 0.617716 0.10394
H_ H_ 0.510281 0.112101 0.604259 0.10394
H_ H_ 0.640062 0.00693326 0.599629 0.10394
H_ H_ 0.939471 0.163732 0.895359 0.10394
H_ H_ 0.515859 0.199642 0.943042 0.10394
H_ H_ 0.920604 0.285173 0.546551 0.10394
H_ H_ 0.840195 0.229804 0.00189316 0.10394
H_ H_ 0.733445 0.199382 0.886759 0.10394
H_ H_ 0.694518 0.248743 0.813317 0.10394
H_ H_ 0.842066 0.22573 0.75104 0.10394
H_ H_ 0.877603 0.193454 0.834412 0.10394
H_ H_ 0.780999 0.124232 0.558259 0.10394
H_ H_ 0.725869 0.107021 0.623643 0.10394
H_ H_ 0.603084 0.0730882 0.505752 0.10394
C_ C_ 0.683962 0.0927642 0.803859 0.18167
C_ C_ 0.726308 0.074577 0.779681 -0.15533
C_ C_ 0.733331 0.0222131 0.764421 0.02923
C_ C_ 0.699489 0.478082 0.792555 -0.15533
C_ C_ 0.657161 0.0103622 0.80055 0.18167
C_ C_ 0.542376 0.130539 0.774282 0.18167
C_ C_ 0.0189791 0.187305 0.742557 -0.15533
C_ C_ 0.513533 0.221363 0.769497 0.02923
C_ C_ 0.527079 0.227203 0.825477 -0.15533
C_ C_ 0.551986 0.18655 0.849399 0.18167
C_ C_ 0.506487 0.0426873 0.870203 0.69207
C_ C_ 0.972412 0.510721 0.875385 0.02923
C_ C_ 0.994497 0.461033 0.878922 -0.15533
C_ C_ 0.964238 0.422036 0.886546 -0.15533
C_ C_ 0.911172 0.431852 0.892639 0.02923
C_ C_ 0.891931 0.482134 0.896343 -0.15533
C_ C_ 0.92074 0.523246 0.884823 0.02923
C_ C_ 0.902511 0.0739965 0.884076 0.69207
C_ C_ 0.900483 0.334478 0.885156 0.69661
C_ C_ 0.57361 0.295437 0.592642 0.18167
C_ C_ 0.529215 0.275462 0.573882 -0.15533
C_ C_ 0.518356 0.268455 0.52174 0.02923
C_ C_ 0.551595 0.29069 0.987461 -0.15533
C_ C_ 0.593699 0.306794 0.508722 0.18167
C_ C_ 0.717483 0.265553 0.635902 0.18167
C_ C_ 0.74136 0.239846 0.678827 -0.15533
C_ C_ 0.739212 0.262536 0.728023 0.02923
C_ C_ 0.717705 0.312408 0.734903 -0.15533
C_ C_ 0.693086 0.337946 0.693301 0.18167
C_ C_ 0.740411 0.371727 0.546279 0.69207
C_ C_ 0.776432 0.372921 0.999827 0.02923
C_ C_ 0.759719 0.364249 0.947578 -0.15533
C_ C_ 0.787176 0.375664 0.909989 -0.15533
C_ C_ 0.834484 0.395976 0.921374 0.02923
C_ C_ 0.85106 0.406763 0.973611 -0.15533
C_ C_ 0.824703 0.392451 0.0127134 0.02923
C_ C_ 0.8526 0.391146 0.568641 0.69207
C_ C_ 0.853142 0.392288 0.825995 0.69661
C_ C_ 0.808978 0.427099 0.685591 0.18167
C_ C_ 0.766996 0.451958 0.706791 -0.15533
C_ C_ 0.771299 0.494979 0.739168 0.02923
C_ C_ 0.827278 0.0161213 0.754153 -0.15533
C_ C_ 0.859761 0.489073 0.719981 0.18167
C_ C_ 0.992684 0.365432 0.710663 0.18167
C_ C_ 0.521384 0.302077 0.724782 -0.15533
C_ C_ 0.997012 0.281122 0.736081 0.02923
C_ C_ 0.945734 0.277893 0.715123 -0.15533
C_ C_ 0.921566 0.320735 0.690231 0.18167
C_ C_ 0.986348 0.449623 0.617178 0.69207
C_ C_ 0.517268 0.983851 0.615697 0.02923
C_ C_ 0.49645 0.0364804 0.615652 -0.15533
C_ C_ 0.528157 0.0743993 0.612497 -0.15533
C_ C_ 0.580174 0.0648695 0.604262 0.02923
C_ C_ 0.600327 0.0140505 0.596462 -0.15533
C_ C_ 0.569931 0.97429 0.604915 0.02923
C_ C_ 0.591641 0.423235 0.604979 0.69207
C_ C_ 0.595615 0.162916 0.604746 0.69661
C_ C_ 0.934453 0.18762 0.928866 0.18167
C_ C_ 0.973471 0.206958 0.957166 -0.15533
C_ C_ 0.967802 0.240883 0.000352327 0.02923
C_ C_ 0.926516 0.257588 0.515864 -0.15533
C_ C_ 0.878147 0.225776 0.987734 0.18167
C_ C_ 0.757437 0.209353 0.857404 0.18167
C_ C_ 0.735601 0.235312 0.815529 -0.15533
C_ C_ 0.764648 0.23768 0.774348 0.02923
C_ C_ 0.816592 0.220355 0.779517 -0.15533
C_ C_ 0.837178 0.199131 0.82496 0.18167
C_ C_ 0.760136 0.114697 0.954024 0.69207
C_ C_ 0.721675 0.11752 0.493499 0.02923
C_ C_ 0.740595 0.119913 0.546269 -0.15533
C_ C_ 0.709952 0.106308 0.583092 -0.15533
C_ C_ 0.657912 0.0966966 0.570975 0.02923
C_ C_ 0.643367 0.0859453 0.5181 -0.15533
C_ C_ 0.672637 0.101317 0.479933 0.02923
C_ C_ 0.650657 0.107269 0.928925 0.69207
C_ C_ 0.64371 0.103863 0.665799 0.69661
C_ C_ 0.875971 0.389385 0.883127 -0.30787
C_ C_ 0.61855 0.107315 0.610925 -0.30787
N_ N_ 0.64839 0.0609383 0.811459 -0.32189
N_ N_ 0.558526 0.139457 0.823444 -0.32189
N_ N_ 0.606961 0.308269 0.560436 -0.32189
N_ N_ 0.695945 0.31623 0.645104 -0.32189
N_ N_ 0.855396 0.443466 0.69472 -0.32189
N_ N_ 0.944362 0.361427 0.686938 -0.32189
N_ N_ 0.886901 0.197176 0.945704 -0.32189
N_ N_ 0.808658 0.191623 0.862959 -0.32189
O_ O_ 0.00735442 0.0928122 0.900848 -0.63271
O_ O_ 0.547561 0.0292098 0.845333 -0.57982
O_ O_ 0.900712 0.0981196 0.840561 -0.63271
O_ O_ 0.876321 0.0923688 0.922042 -0.57982
O_ O_ 0.74173 0.394916 0.592391 -0.63271
O_ O_ 0.708787 0.336759 0.538158 -0.57982
O_ O_ 0.853521 0.348786 0.593423 -0.63271
O_ O_ 0.878228 0.427341 0.59003 -0.57982
O_ O_ 0.477927 0.414863 0.589571 -0.63271
O_ O_ 0.950896 0.462684 0.649423 -0.57982
O_ O_ 0.591376 0.39367 0.641718 -0.63271
O_ O_ 0.620162 0.406116 0.56847 -0.57982
O_ O_ 0.761897 0.0870399 0.911126 -0.63271
O_ O_ 0.791728 0.14945 0.964671 -0.57982
O_ O_ 0.657706 0.14899 0.906577 -0.63271
O_ O_ 0.607797 0.0866152 0.915873 -0.57982
F_ F_ 0.92379 0.330318 0.934549 -0.20885
F_ F_ 0.933654 0.319854 0.850441 -0.20885
F_ F_ 0.867194 0.298225 0.878821 -0.20885
F_ F_ 0.813621 0.432064 0.824418 -0.20885
F_ F_ 0.829417 0.349557 0.805301 -0.20885
F_ F_ 0.891521 0.402193 0.79704 -0.20885
F_ F_ 0.565387 0.167134 0.56007 -0.20885
F_ F_ 0.563395 0.182574 0.641104 -0.20885
F_ F_ 0.633991 0.195861 0.609841 -0.20885
F_ F_ 0.67581 0.0597376 0.670219 -0.20885
F_ F_ 0.671937 0.145371 0.679426 -0.20885
F_ F_ 0.608957 0.102199 0.700985 -0.20885
Zn Zn 0.587511 0.582077 0.342831 0.83971
Zn Zn 0.658404 0.849405 0.0759951 0.83971
Zn Zn 0.903252 0.917924 0.155134 0.83971
Zn Zn 0.837677 0.652997 0.405838 0.83971
H_ H_ 0.661358 0.628615 0.289876 0.10394
H_ H_ 0.742854 0.605026 0.264243 0.10394
H_ H_ 0.712808 0.940313 0.308535 0.10394
H_ H_ 0.63539 0.479313 0.317959 0.10394
H_ H_ 0.0159755 0.596416 0.248546 0.10394
H_ H_ 0.98205 0.673953 0.201937 0.10394
H_ H_ 0.51814 0.769634 0.327388 0.10394
H_ H_ 0.569573 0.694889 0.372989 0.10394
H_ H_ 0.533009 0.936872 0.390139 0.10394
H_ H_ 0.98787 0.882512 0.377713 0.10394
H_ H_ 0.856599 0.988304 0.411491 0.10394
H_ H_ 0.572268 0.816985 0.128114 0.10394
H_ H_ 0.990836 0.787373 0.0942191 0.10394
H_ H_ 0.55091 0.77888 0.442094 0.10394
H_ H_ 0.618152 0.802943 0.976544 0.10394
H_ H_ 0.724441 0.753577 0.0794248 0.10394
H_ H_ 0.768245 0.703593 0.152918 0.10394
H_ H_ 0.705152 0.818348 0.255318 0.10394
H_ H_ 0.664023 0.86965 0.185312 0.10394
H_ H_ 0.72576 0.85359 0.442891 0.10394
H_ H_ 0.780364 0.859032 0.372556 0.10394
H_ H_ 0.902705 0.899289 0.484043 0.10394
H_ H_ 0.802204 0.883455 0.170777 0.10394
H_ H_ 0.722758 0.939163 0.201459 0.10394
H_ H_ 0.836285 0.537825 0.290018 0.10394
H_ H_ 0.895918 0.994728 0.237353 0.10394
H_ H_ 0.511021 0.886153 0.209045 0.10394
H_ H_ 0.55128 0.804132 0.236094 0.10394
H_ H_ 0.909453 0.747404 0.220873 0.10394
H_ H_ 0.871299 0.821574 0.177507 0.10394
H_ H_ 0.960628 0.555453 0.117176 0.10394
H_ H_ 0.520388 0.621539 0.111435 0.10394
H_ H_ 0.648581 0.510907 0.0860348 0.10394
H_ H_ 0.94647 0.659064 0.383048 0.10394
H_ H_ 0.515781 0.70253 0.438528 0.10394
H_ H_ 0.916818 0.805494 0.0104834 0.10394
H_ H_ 0.84453 0.735883 0.482254 0.10394
H_ H_ 0.732729 0.691127 0.374595 0.10394
H_ H_ 0.692891 0.733976 0.29668 0.10394
H_ H_ 0.833534 0.718724 0.234035 0.10394
H_ H_ 0.874523 0.682487 0.312417 0.10394
H_ H_ 0.788459 0.628603 0.0465616 0.10394
H_ H_ 0.73518 0.611843 0.112994 0.10394
H_ H_ 0.614654 0.577321 0.00439452 0.10394
C_ C_ 0.674965 0.590188 0.294487 0.18167
C_ C_ 0.721123 0.575494 0.274131 -0.15533
C_ C_ 0.738233 0.521757 0.26841 0.02923
C_ C_ 0.698316 0.979257 0.298544 -0.15533
C_ C_ 0.659554 0.506633 0.304849 0.18167
C_ C_ 0.528933 0.631834 0.264715 0.18167
C_ C_ 0.00448642 0.676147 0.238594 -0.15533
C_ C_ 0.50319 0.721693 0.257872 0.02923
C_ C_ 0.523539 0.731641 0.309381 -0.15533
C_ C_ 0.546898 0.688099 0.336909 0.18167
C_ C_ 0.501401 0.547722 0.355694 0.69207
C_ C_ 0.977122 0.0123863 0.383673 0.02923
C_ C_ 0.000880474 0.961956 0.390203 -0.15533
C_ C_ 0.970864 0.921086 0.387773 -0.15533
C_ C_ 0.91723 0.928576 0.389981 0.02923
C_ C_ 0.895813 0.980204 0.397957 -0.15533
C_ C_ 0.922902 0.0209959 0.388729 0.02923
C_ C_ 0.895053 0.570289 0.376684 0.69207
C_ C_ 0.911214 0.826564 0.380338 0.69661
C_ C_ 0.568081 0.803559 0.0870918 0.18167
C_ C_ 0.522744 0.782551 0.0711892 -0.15533
C_ C_ 0.509496 0.771487 0.0185165 0.02923
C_ C_ 0.556928 0.784449 0.483088 -0.15533
C_ C_ 0.589815 0.802358 0.00182199 0.18167
C_ C_ 0.7251 0.771165 0.119618 0.18167
C_ C_ 0.748238 0.743182 0.159397 -0.15533
C_ C_ 0.737934 0.757424 0.210045 0.02923
C_ C_ 0.70746 0.802547 0.219534 -0.15533
C_ C_ 0.689464 0.833834 0.178317 0.18167
C_ C_ 0.737052 0.882106 0.0370548 0.69207
C_ C_ 0.783582 0.875124 0.502097 0.02923
C_ C_ 0.76371 0.867323 0.451171 -0.15533
C_ C_ 0.794775 0.869076 0.412269 -0.15533
C_ C_ 0.845406 0.885014 0.421609 0.02923
C_ C_ 0.863616 0.889204 0.472671 -0.15533
C_ C_ 0.834991 0.881335 0.511533 0.02923
C_ C_ 0.852121 0.878933 0.066787 0.69207
C_ C_ 0.855601 0.890546 0.328423 0.69661
C_ C_ 0.80388 0.922188 0.186855 0.18167
C_ C_ 0.761615 0.946077 0.213093 -0.15533
C_ C_ 0.770401 0.988319 0.246835 0.02923
C_ C_ 0.829553 0.514602 0.253897 -0.15533
C_ C_ 0.857681 0.982466 0.227032 0.18167
C_ C_ 0.986539 0.861766 0.21342 0.18167
C_ C_ 0.50888 0.805724 0.225279 -0.15533
C_ C_ 0.984256 0.771745 0.233531 0.02923
C_ C_ 0.931163 0.777267 0.217539 -0.15533
C_ C_ 0.91072 0.821024 0.195595 0.18167
C_ C_ 0.98468 0.951638 0.123523 0.69207
C_ C_ 0.528964 0.493129 0.112236 0.02923
C_ C_ 0.507657 0.544397 0.113331 -0.15533
C_ C_ 0.536714 0.582411 0.107807 -0.15533
C_ C_ 0.588793 0.571415 0.0991347 0.02923
C_ C_ 0.611638 0.519399 0.0980106 -0.15533
C_ C_ 0.581907 0.48085 0.110042 0.02923
C_ C_ 0.596983 0.931849 0.108741 0.69207
C_ C_ 0.601317 0.67059 0.100423 0.69661
C_ C_ 0.939846 0.680058 0.417621 0.18167
C_ C_ 0.983116 0.701229 0.447548 -0.15533
C_ C_ 0.975679 0.734891 0.488761 0.02923
C_ C_ 0.924311 0.766697 0.997147 -0.15533
C_ C_ 0.882838 0.723088 0.473802 0.18167
C_ C_ 0.757009 0.697286 0.342665 0.18167
C_ C_ 0.730619 0.71874 0.295679 -0.15533
C_ C_ 0.759469 0.727224 0.256688 0.02923
C_ C_ 0.80963 0.708365 0.261115 -0.15533
C_ C_ 0.832383 0.685225 0.305594 0.18167
C_ C_ 0.76514 0.621697 0.450446 0.69207
C_ C_ 0.725885 0.625942 0.986068 0.02923
C_ C_ 0.747087 0.626513 0.0377649 -0.15533
C_ C_ 0.716934 0.617251 0.07511 -0.15533
C_ C_ 0.664704 0.607944 0.0641087 0.02923
C_ C_ 0.647586 0.598242 0.0135801 -0.15533
C_ C_ 0.675741 0.61069 0.974793 0.02923
C_ C_ 0.650027 0.609491 0.423083 0.69207
C_ C_ 0.648004 0.614541 0.158444 0.69661
C_ C_ 0.88333 0.883157 0.381223 -0.30787
C_ C_ 0.62396 0.61482 0.103413 -0.30787
N_ N_ 0.644196 0.55574 0.307342 -0.32189
N_ N_ 0.552992 0.639847 0.31201 -0.32189
N_ N_ 0.599026 0.817155 0.0527339 -0.32189
N_ N_ 0.697863 0.817266 0.129945 -0.32189
N_ N_ 0.850356 0.941275 0.19574 -0.32189
N_ N_ 0.938267 0.860483 0.188713 -0.32189
N_ N_ 0.891149 0.694395 0.43068 -0.32189
N_ N_ 0.805993 0.677071 0.344384 -0.32189
O_ O_ 0.0040431 0.587661 0.387327 -0.63271
O_ O_ 0.540247 0.537605 0.325202 -0.57982
O_ O_ 0.89482 0.596972 0.335352 -0.63271
O_ O_ 0.874181 0.592648 0.415797 -0.57982
O_ O_ 0.74134 0.908582 0.0791679 -0.63271
O_ O_ 0.70073 0.850959 0.0252716 -0.57982
O_ O_ 0.84926 0.838514 0.0912832 -0.63271
O_ O_ 0.867593 0.921127 0.0912872 -0.57982
O_ O_ 0.487763 0.917934 0.0857899 -0.63271
O_ O_ 0.952155 0.961404 0.157915 -0.57982
O_ O_ 0.584064 0.901538 0.140551 -0.63271
O_ O_ 0.636072 0.915691 0.0819845 -0.57982
O_ O_ 0.764508 0.595764 0.407551 -0.63271
O_ O_ 0.795284 0.657872 0.456337 -0.57982
O_ O_ 0.659248 0.644365 0.392201 -0.63271
O_ O_ 0.617902 0.577203 0.404457 -0.57982
F_ F_ 0.941021 0.822069 0.424678 -0.20885
F_ F_ 0.943077 0.816654 0.340534 -0.20885
F_ F_ 0.877215 0.789606 0.377975 -0.20885
F_ F_ 0.819821 0.934723 0.330762 -0.20885
F_ F_ 0.833822 0.84817 0.30725 -0.20885
F_ F_ 0.886928 0.896434 0.291628 -0.20885
F_ F_ 0.571871 0.675196 0.0527401 -0.20885
F_ F_ 0.567966 0.689406 0.136252 -0.20885
F_ F_ 0.637513 0.703445 0.0965583 -0.20885
F_ F_ 0.679543 0.567875 0.166993 -0.20885
F_ F_ 0.679011 0.652568 0.170764 -0.20885
F_ F_ 0.614537 0.616348 0.194103 -0.20885
Zn Zn 0.584018 0.579926 0.847712 0.83971
Zn Zn 0.667273 0.849625 0.584288 0.83971
Zn Zn 0.912294 0.918311 0.652948 0.83971
Zn Zn 0.841729 0.660032 0.917633 0.83971
H_ H_ 0.6622 0.621867 0.811269 0.10394
H_ H_ 0.737855 0.59184 0.764093 0.10394
H_ H_ 0.701467 0.946635 0.767449 0.10394
H_ H_ 0.635664 0.471456 0.835204 0.10394
H_ H_ 0.0264945 0.600971 0.743554 0.10394
H_ H_ 0.988975 0.670564 0.699942 0.10394
H_ H_ 0.508663 0.759255 0.846444 0.10394
H_ H_ 0.552071 0.682327 0.887937 0.10394
H_ H_ 0.534727 0.940664 0.876824 0.10394
H_ H_ 0.987946 0.882506 0.862795 0.10394
H_ H_ 0.855663 0.992687 0.886891 0.10394
H_ H_ 0.589661 0.805952 0.630284 0.10394
H_ H_ 0.00353701 0.762053 0.592807 0.10394
H_ H_ 0.53593 0.776384 0.94407 0.10394
H_ H_ 0.628308 0.81838 0.477643 0.10394
H_ H_ 0.71842 0.749164 0.60198 0.10394
H_ H_ 0.755938 0.704598 0.678325 0.10394
H_ H_ 0.737836 0.851065 0.764548 0.10394
H_ H_ 0.689183 0.889632 0.688525 0.10394
H_ H_ 0.719389 0.880972 0.930878 0.10394
H_ H_ 0.777269 0.868395 0.869846 0.10394
H_ H_ 0.903054 0.895327 0.988523 0.10394
H_ H_ 0.808178 0.916006 0.644732 0.10394
H_ H_ 0.733882 0.964165 0.67535 0.10394
H_ H_ 0.823621 0.554341 0.757544 0.10394
H_ H_ 0.905623 0.998328 0.746601 0.10394
H_ H_ 0.508022 0.883855 0.7124 0.10394
H_ H_ 0.551425 0.803892 0.737601 0.10394
H_ H_ 0.913287 0.742449 0.712141 0.10394
H_ H_ 0.869446 0.821243 0.675359 0.10394
H_ H_ 0.957228 0.545816 0.581419 0.10394
H_ H_ 0.517881 0.614737 0.61266 0.10394
H_ H_ 0.636254 0.501197 0.58594 0.10394
H_ H_ 0.948981 0.62497 0.960918 0.10394
H_ H_ 0.512071 0.682732 0.962231 0.10394
H_ H_ 0.916942 0.774205 0.532469 0.10394
H_ H_ 0.845149 0.756581 0.976482 0.10394
H_ H_ 0.762287 0.740044 0.898428 0.10394
H_ H_ 0.71506 0.77831 0.826753 0.10394
H_ H_ 0.833312 0.714298 0.735029 0.10394
H_ H_ 0.878523 0.682142 0.814975 0.10394
H_ H_ 0.787838 0.596665 0.553095 0.10394
H_ H_ 0.733918 0.598569 0.618008 0.10394
H_ H_ 0.604989 0.594189 0.503816 0.10394
C_ C_ 0.670076 0.582099 0.800515 0.18167
C_ C_ 0.714705 0.563465 0.776382 -0.15533
C_ C_ 0.732288 0.511087 0.775883 0.02923
C_ C_ 0.700933 0.989122 0.779836 -0.15533
C_ C_ 0.655051 0.497214 0.815729 0.18167
C_ C_ 0.542163 0.635529 0.76741 0.18167
C_ C_ 0.00765187 0.678676 0.737223 -0.15533
C_ C_ 0.507222 0.721213 0.770899 0.02923
C_ C_ 0.516079 0.723922 0.824378 -0.15533
C_ C_ 0.53862 0.678628 0.84801 0.18167
C_ C_ 0.499987 0.541075 0.861921 0.69207
C_ C_ 0.979689 0.00893365 0.876639 0.02923
C_ C_ 0.000344827 0.957894 0.877525 -0.15533
C_ C_ 0.969887 0.919042 0.881598 -0.15533
C_ C_ 0.917796 0.928455 0.886957 0.02923
C_ C_ 0.89693 0.981317 0.888474 -0.15533
C_ C_ 0.92621 0.0215204 0.882837 0.02923
C_ C_ 0.894233 0.575141 0.880906 0.69207
C_ C_ 0.911676 0.833193 0.881812 0.69661
C_ C_ 0.582076 0.79781 0.587032 0.18167
C_ C_ 0.535952 0.778932 0.570631 -0.15533
C_ C_ 0.522677 0.770221 0.5175 0.02923
C_ C_ 0.540581 0.787614 0.983134 -0.15533
C_ C_ 0.602332 0.805328 0.502651 0.18167
C_ C_ 0.715583 0.76882 0.639476 0.18167
C_ C_ 0.741809 0.746046 0.68238 -0.15533
C_ C_ 0.7408 0.772449 0.730586 0.02923
C_ C_ 0.728417 0.826115 0.729356 -0.15533
C_ C_ 0.704581 0.849057 0.686095 0.18167
C_ C_ 0.747608 0.874446 0.542636 0.69207
C_ C_ 0.776284 0.883665 0.998948 0.02923
C_ C_ 0.759998 0.880943 0.94514 -0.15533
C_ C_ 0.79462 0.877102 0.908291 -0.15533
C_ C_ 0.845716 0.890245 0.920992 0.02923
C_ C_ 0.863253 0.890469 0.974332 -0.15533
C_ C_ 0.828827 0.883449 0.0125234 0.02923
C_ C_ 0.860959 0.880259 0.564618 0.69207
C_ C_ 0.857426 0.887312 0.82177 0.69661
C_ C_ 0.814176 0.9451 0.674071 0.18167
C_ C_ 0.771119 0.972152 0.692381 -0.15533
C_ C_ 0.779019 0.00259827 0.738313 0.02923
C_ C_ 0.817917 0.515672 0.742404 -0.15533
C_ C_ 0.869121 0.990451 0.731758 0.18167
C_ C_ 0.989692 0.853947 0.699535 0.18167
C_ C_ 0.511087 0.806081 0.731557 -0.15533
C_ C_ 0.983529 0.772351 0.735665 0.02923
C_ C_ 0.933878 0.775095 0.711992 -0.15533
C_ C_ 0.910052 0.818365 0.687857 0.18167
C_ C_ 0.985075 0.96112 0.617171 0.69207
C_ C_ 0.520874 0.488955 0.62154 0.02923
C_ C_ 0.500709 0.541085 0.622714 -0.15533
C_ C_ 0.531234 0.576133 0.610559 -0.15533
C_ C_ 0.582114 0.566198 0.598304 0.02923
C_ C_ 0.597086 0.513261 0.591505 -0.15533
C_ C_ 0.570725 0.476435 0.609453 0.02923
C_ C_ 0.595913 0.921614 0.607987 0.69207
C_ C_ 0.606788 0.662675 0.610915 0.69661
C_ C_ 0.943531 0.666341 0.964969 0.18167
C_ C_ 0.984676 0.692251 0.982935 -0.15533
C_ C_ 0.975686 0.743674 0.998423 0.02923
C_ C_ 0.924099 0.744199 0.505675 -0.15533
C_ C_ 0.883485 0.739006 0.977227 0.18167
C_ C_ 0.773114 0.724828 0.863087 0.18167
C_ C_ 0.749589 0.751551 0.821216 -0.15533
C_ C_ 0.769207 0.748946 0.774792 0.02923
C_ C_ 0.814776 0.719918 0.771018 -0.15533
C_ C_ 0.839238 0.695796 0.814548 0.18167
C_ C_ 0.754434 0.644811 0.948944 0.69207
C_ C_ 0.729845 0.611899 0.489249 0.02923
C_ C_ 0.74754 0.603566 0.542037 -0.15533
C_ C_ 0.716847 0.607125 0.580554 -0.15533
C_ C_ 0.663971 0.602879 0.567586 0.02923
C_ C_ 0.645443 0.601106 0.515312 -0.15533
C_ C_ 0.677033 0.605776 0.475901 0.02923
C_ C_ 0.648179 0.610654 0.922923 0.69207
C_ C_ 0.653712 0.594547 0.664611 0.69661
C_ C_ 0.8802 0.886456 0.87812 -0.30787
C_ C_ 0.625318 0.604515 0.609472 -0.30787
N_ N_ 0.640287 0.54824 0.81662 -0.32189
N_ N_ 0.552698 0.636091 0.819587 -0.32189
N_ N_ 0.613449 0.810532 0.553602 -0.32189
N_ N_ 0.698227 0.819025 0.643314 -0.32189
N_ N_ 0.860751 0.955004 0.692078 -0.32189
N_ N_ 0.940164 0.85522 0.678916 -0.32189
N_ N_ 0.895052 0.690458 0.953982 -0.32189
N_ N_ 0.816386 0.695107 0.858507 -0.32189
O_ O_ 0.997435 0.596513 0.882363 -0.63271
O_ O_ 0.533262 0.535413 0.827908 -0.57982
O_ O_ 0.887068 0.596269 0.83706 -0.63271
O_ O_ 0.866725 0.593499 0.919108 -0.57982
O_ O_ 0.745083 0.907274 0.581188 -0.63271
O_ O_ 0.715795 0.839145 0.536763 -0.57982
O_ O_ 0.861708 0.839324 0.590372 -0.63271
O_ O_ 0.882123 0.920934 0.586773 -0.57982
O_ O_ 0.487078 0.898576 0.607375 -0.63271
O_ O_ 0.954241 0.968088 0.655111 -0.57982
O_ O_ 0.599761 0.896242 0.649548 -0.63271
O_ O_ 0.631268 0.911884 0.57563 -0.57982
O_ O_ 0.748068 0.626653 0.903434 -0.63271
O_ O_ 0.794116 0.670074 0.962461 -0.57982
O_ O_ 0.642676 0.652107 0.896852 -0.63271
O_ O_ 0.613615 0.576969 0.910131 -0.57982
F_ F_ 0.94383 0.828806 0.924439 -0.20885
F_ F_ 0.94089 0.818676 0.840574 -0.20885
F_ F_ 0.882831 0.791847 0.877727 -0.20885
F_ F_ 0.824144 0.930286 0.815363 -0.20885
F_ F_ 0.832308 0.846481 0.805792 -0.20885
F_ F_ 0.891752 0.891404 0.786783 -0.20885
F_ F_ 0.572368 0.673416 0.570544 -0.20885
F_ F_ 0.578725 0.675939 0.652163 -0.20885
F_ F_ 0.643628 0.693965 0.605673 -0.20885
F_ F_ 0.684545 0.549836 0.658802 -0.20885
F_ F_ 0.680819 0.631003 0.68993 -0.20885
F_ F_ 0.619172 0.588535 0.698268 -0.20885
