_cell_length_a 26.508
_cell_length_b 26.37200000322088
_cell_length_c 26.311999743092066
_cell_angle_alpha 93.74100058972084
_cell_angle_beta 96.04100104955006
_cell_angle_gamma 83.6869992558723
_symmetry_space_group_name_H-M         'P 1'
_symmetry_Int_Tables_number            1
loop_
_symmetry_equiv_pos_as_xyz
   'x, y, z'
                         
loop_
_atom_site_label
_atom_site_type_symbol
_atom_site_fract_x 
_atom_site_fract_y
_atom_site_fract_z
_atom_site_charge
Zn Zn 0.0875675 0.0890515 0.344017 0.83971
Zn Zn 0.164428 0.340226 0.0818583 0.83971
Zn Zn 0.406128 0.421447 0.152847 0.83971
Zn Zn 0.342669 0.159879 0.419325 0.83971
H_ H_ 0.174517 0.135156 0.309341 0.10394
H_ H_ 0.24608 0.0991071 0.269464 0.10394
H_ H_ 0.226059 0.448744 0.308114 0.10394
H_ H_ 0.123665 0.987147 0.315714 0.10394
H_ H_ 0.525851 0.101907 0.25549 0.10394
H_ H_ 0.486016 0.183817 0.208892 0.10394
H_ H_ 0.00410016 0.262019 0.32529 0.10394
H_ H_ 0.0599938 0.194512 0.374899 0.10394
H_ H_ 0.0306176 0.44029 0.375845 0.10394
H_ H_ 0.483079 0.384123 0.380993 0.10394
H_ H_ 0.351506 0.489592 0.415029 0.10394
H_ H_ 0.0763207 0.300198 0.128588 0.10394
H_ H_ 0.486769 0.285674 0.100868 0.10394
H_ H_ 0.036223 0.287086 0.452222 0.10394
H_ H_ 0.12154 0.319084 0.981079 0.10394
H_ H_ 0.212386 0.235295 0.095894 0.10394
H_ H_ 0.244761 0.190511 0.172877 0.10394
H_ H_ 0.217533 0.333212 0.260688 0.10394
H_ H_ 0.175942 0.372659 0.183237 0.10394
H_ H_ 0.219578 0.354185 0.45025 0.10394
H_ H_ 0.272682 0.366647 0.383725 0.10394
H_ H_ 0.390295 0.414324 0.499501 0.10394
H_ H_ 0.311474 0.404014 0.157456 0.10394
H_ H_ 0.238293 0.443621 0.208528 0.10394
H_ H_ 0.326535 0.0433747 0.273124 0.10394
H_ H_ 0.408856 0.505787 0.238108 0.10394
H_ H_ 0.00716764 0.383867 0.198613 0.10394
H_ H_ 0.0461761 0.305684 0.232016 0.10394
H_ H_ 0.417295 0.255976 0.241043 0.10394
H_ H_ 0.378402 0.324847 0.187885 0.10394
H_ H_ 0.460745 0.0575512 0.116725 0.10394
H_ H_ 0.0221907 0.116781 0.114405 0.10394
H_ H_ 0.143974 -0.00174646 0.0853028 0.10394
H_ H_ 0.43698 0.168316 0.402563 0.10394
H_ H_ 0.0151855 0.193236 0.47053 0.10394
H_ H_ 0.411506 0.274537 0.0485865 0.10394
H_ H_ 0.34239 0.245955 0.503443 0.10394
H_ H_ 0.242686 0.214747 0.391577 0.10394
H_ H_ 0.198901 0.246494 0.313893 0.10394
H_ H_ 0.337101 0.211137 0.238323 0.10394
H_ H_ 0.378053 0.179292 0.321279 0.10394
H_ H_ 0.288281 0.112714 0.0585665 0.10394
H_ H_ 0.235174 0.0948535 0.120428 0.10394
H_ H_ 0.106141 0.104772 0.00633402 0.10394
C_ C_ 0.179886 0.092525 0.303525 0.18167
C_ C_ 0.223646 0.0720851 0.281957 -0.15533
C_ C_ 0.231288 0.0179364 0.270077 0.02923
C_ C_ 0.211659 0.487085 0.300533 -0.15533
C_ C_ 0.152258 0.0116504 0.30827 0.18167
C_ C_ 0.0262131 0.132729 0.261461 0.18167
C_ C_ 0.514728 0.185585 0.244363 -0.15533
C_ C_ -0.0034650000000000514 0.223803 0.256355 0.02923
C_ C_ 0.0171235 0.229876 0.307015 -0.15533
C_ C_ 0.0443607 0.189446 0.334176 0.18167
C_ C_ 0.00605582 0.0555717 0.364377 0.69207
C_ C_ 0.468777 0.509533 0.383124 0.02923
C_ C_ 0.49087 0.459702 0.385594 -0.15533
C_ C_ 0.462534 0.419712 0.392518 -0.15533
C_ C_ 0.410323 0.429764 0.400001 0.02923
C_ C_ 0.391361 0.479799 0.408428 -0.15533
C_ C_ 0.418225 0.518766 0.39293 0.02923
C_ C_ 0.394768 0.0728732 0.383535 0.69207
C_ C_ 0.403764 0.330418 0.39507 0.69661
C_ C_ 0.0723822 0.294229 0.087013 0.18167
C_ C_ 0.0267164 0.27754 0.0663609 -0.15533
C_ C_ 0.0111398 0.277643 0.0146287 0.02923
C_ C_ 0.047642 0.292207 0.493076 -0.15533
C_ C_ 0.0965682 0.305722 0.00548169 0.18167
C_ C_ 0.216975 0.257981 0.132847 0.18167
C_ C_ 0.234443 0.231577 0.176764 -0.15533
C_ C_ 0.239243 0.260715 0.223158 0.02923
C_ C_ 0.221445 0.312372 0.224582 -0.15533
C_ C_ 0.200321 0.338882 0.180748 0.18167
C_ C_ 0.245135 0.373018 0.0428986 0.69207
C_ C_ 0.273326 0.372959 0.514021 0.02923
C_ C_ 0.257134 0.3621 0.461672 -0.15533
C_ C_ 0.28768 0.372438 0.423879 -0.15533
C_ C_ 0.336515 0.389984 0.435362 0.02923
C_ C_ 0.350684 0.403893 0.489084 -0.15533
C_ C_ 0.322736 0.390498 0.528452 0.02923
C_ C_ 0.362693 0.383798 0.0674566 0.69207
C_ C_ 0.35058 0.389676 0.337755 0.69661
C_ C_ 0.315844 0.434861 0.186448 0.18167
C_ C_ 0.276006 0.45689 0.21372 -0.15533
C_ C_ 0.284173 0.496949 0.249749 0.02923
C_ C_ 0.320772 0.0130487 0.248974 -0.15533
C_ C_ 0.371682 0.492684 0.229281 0.18167
C_ C_ 0.495705 0.361465 0.201805 0.18167
C_ C_ 0.00442451 0.310465 0.22417 -0.15533
C_ C_ 0.491767 0.28063 0.243474 0.02923
C_ C_ 0.439251 0.286427 0.231162 -0.15533
C_ C_ 0.417483 0.325457 0.199606 0.18167
C_ C_ 0.487023 0.460344 0.126808 0.69207
C_ C_ 0.0221524 0.986062 0.112969 0.02923
C_ C_ 0.00295802 0.0383932 0.112712 -0.15533
C_ C_ 0.0361392 0.0761334 0.105911 -0.15533
C_ C_ 0.0880597 0.0608454 0.100122 0.02923
C_ C_ 0.105214 0.00849956 0.0942739 -0.15533
C_ C_ 0.0744309 0.971769 0.102867 0.02923
C_ C_ 0.0945262 0.41634 0.104355 0.69207
C_ C_ 0.107813 0.157045 0.112793 0.69661
C_ C_ 0.433971 0.187506 0.437095 0.18167
C_ C_ 0.475699 0.21067 0.459627 -0.15533
C_ C_ 0.472054 0.247825 0.49953 0.02923
C_ C_ 0.420168 0.252237 0.0149614 -0.15533
C_ C_ 0.381441 0.231458 0.495996 0.18167
C_ C_ 0.264859 0.216313 0.359857 0.18167
C_ C_ 0.237849 0.23559 0.314124 -0.15533
C_ C_ 0.263847 0.235596 0.270377 0.02923
C_ C_ 0.314493 0.213942 0.271607 -0.15533
C_ C_ 0.338674 0.193695 0.317787 0.18167
C_ C_ 0.260957 0.125135 0.454243 0.69207
C_ C_ 0.23178 0.113249 0.995881 0.02923
C_ C_ 0.250364 0.106951 0.0456467 -0.15533
C_ C_ 0.217804 0.0969695 0.0812635 -0.15533
C_ C_ 0.166304 0.0945543 0.0687913 0.02923
C_ C_ 0.148059 0.101473 0.019 -0.15533
C_ C_ 0.180054 0.109849 0.982558 0.02923
C_ C_ 0.145132 0.115982 0.426617 0.69207
C_ C_ 0.15279 0.0888501 0.167375 0.69661
C_ C_ 0.376188 0.384914 0.393875 -0.30787
C_ C_ 0.128054 0.0995013 0.111528 -0.30787
N_ N_ 0.143054 0.0626331 0.31048 -0.32189
N_ N_ 0.0497047 0.142446 0.309627 -0.32189
N_ N_ 0.106813 0.307062 0.0561995 -0.32189
N_ N_ 0.201208 0.30944 0.136694 -0.32189
N_ N_ 0.363211 0.449499 0.19783 -0.32189
N_ N_ 0.443904 0.362536 0.186971 -0.32189
N_ N_ 0.388782 0.198035 0.457052 -0.32189
N_ N_ 0.312575 0.194006 0.359816 -0.32189
O_ O_ 0.503458 0.0929806 0.387387 -0.63271
O_ O_ 0.0410373 0.0445429 0.334262 -0.57982
O_ O_ 0.388943 0.0919998 0.338776 -0.63271
O_ O_ 0.369597 0.0965859 0.418354 -0.57982
O_ O_ 0.246894 0.400354 0.085946 -0.63271
O_ O_ 0.208218 0.341383 0.0331163 -0.57982
O_ O_ 0.35778 0.347611 0.0966742 -0.63271
O_ O_ 0.385598 0.422717 0.0871851 -0.57982
O_ O_ 0.983703 0.40092 0.0947013 -0.63271
O_ O_ 0.452181 0.469582 0.159818 -0.57982
O_ O_ 0.0873242 0.388867 0.143587 -0.63271
O_ O_ 0.130367 0.40374 0.0732811 -0.57982
O_ O_ 0.253892 0.108986 0.406964 -0.63271
O_ O_ 0.300307 0.151893 0.467013 -0.57982
O_ O_ 0.147095 0.154888 0.39916 -0.63271
O_ O_ 0.111595 0.0855155 0.410357 -0.57982
F_ F_ 0.439574 0.328983 0.437727 -0.20885
F_ F_ 0.42682 0.317495 0.352147 -0.20885
F_ F_ 0.375024 0.29128 0.399387 -0.20885
F_ F_ 0.310942 0.427434 0.336972 -0.20885
F_ F_ 0.327581 0.348269 0.317685 -0.20885
F_ F_ 0.38448 0.398124 0.303977 -0.20885
F_ F_ 0.0728283 0.170982 0.0687578 -0.20885
F_ F_ 0.0830993 0.171796 0.157325 -0.20885
F_ F_ 0.14714 0.191146 0.115682 -0.20885
F_ F_ 0.187371 0.045885 0.167302 -0.20885
F_ F_ 0.176264 0.129624 0.191758 -0.20885
F_ F_ 0.115686 0.0815912 0.19991 -0.20885
Zn Zn 0.0897422 0.0892848 0.847807 0.83971
Zn Zn 0.154471 0.351192 0.591457 0.83971
Zn Zn 0.40966 0.411683 0.659007 0.83971
Zn Zn 0.343682 0.150998 0.916169 0.83971
H_ H_ 0.17067 0.138684 0.799762 0.10394
H_ H_ 0.250281 0.0957564 0.767469 0.10394
H_ H_ 0.220878 0.444589 0.801339 0.10394
H_ H_ 0.131416 0.995634 0.832839 0.10394
H_ H_ 0.525239 0.0909428 0.754558 0.10394
H_ H_ 0.493583 0.166419 0.709227 0.10394
H_ H_ 0.0359693 0.278626 0.826891 0.10394
H_ H_ 0.0737418 0.203179 0.878225 0.10394
H_ H_ 0.0305012 0.445046 0.860304 0.10394
H_ H_ 0.487981 0.376063 0.86925 0.10394
H_ H_ 0.36439 0.481901 0.924199 0.10394
H_ H_ 0.0843047 0.304217 0.639337 0.10394
H_ H_ 0.508243 0.265039 0.599312 0.10394
H_ H_ 0.041341 0.29152 0.942832 0.10394
H_ H_ 0.115423 0.32621 0.485469 0.10394
H_ H_ 0.216674 0.253643 0.601024 0.10394
H_ H_ 0.243923 0.202362 0.676468 0.10394
H_ H_ 0.214479 0.33589 0.776861 0.10394
H_ H_ 0.164461 0.37899 0.703462 0.10394
H_ H_ 0.224321 0.378542 0.9435 0.10394
H_ H_ 0.277941 0.381172 0.877026 0.10394
H_ H_ 0.40471 0.395008 0.988321 0.10394
H_ H_ 0.308929 0.395088 0.670107 0.10394
H_ H_ 0.237315 0.444944 0.711383 0.10394
H_ H_ 0.329024 0.0427242 0.779152 0.10394
H_ H_ 0.408349 0.505257 0.729518 0.10394
H_ H_ -0.0034682 0.401507 0.702002 0.10394
H_ H_ 0.0499531 0.325815 0.745412 0.10394
H_ H_ 0.402597 0.249962 0.742377 0.10394
H_ H_ 0.366438 0.32463 0.69694 0.10394
H_ H_ 0.453695 0.0544248 0.607216 0.10394
H_ H_ 0.0176611 0.121821 0.623936 0.10394
H_ H_ 0.141962 0.00404332 0.594296 0.10394
H_ H_ 0.446955 0.157737 0.900708 0.10394
H_ H_ 0.0121407 0.198353 0.943598 0.10394
H_ H_ 0.417216 0.293638 0.540724 0.10394
H_ H_ 0.34237 0.239465 -0.002139000000000002 0.10394
H_ H_ 0.24599 0.205538 0.896053 0.10394
H_ H_ 0.190048 0.233872 0.820311 0.10394
H_ H_ 0.327033 0.215227 0.739449 0.10394
H_ H_ 0.37042 0.173937 0.814751 0.10394
H_ H_ 0.283296 0.128645 0.556951 0.10394
H_ H_ 0.235884 0.0813949 0.613377 0.10394
H_ H_ 0.103078 0.0917781 0.508307 0.10394
C_ C_ 0.177965 0.0977177 0.798528 0.18167
C_ C_ 0.223766 0.0750366 0.780094 -0.15533
C_ C_ 0.233858 0.0226576 0.773824 0.02923
C_ C_ 0.211884 0.487264 0.800378 -0.15533
C_ C_ 0.157109 0.0158789 0.81387 0.18167
C_ C_ 0.0366894 0.144672 0.769546 0.18167
C_ C_ 0.506617 0.172004 0.746777 -0.15533
C_ C_ 0.0103278 0.235159 0.763581 0.02923
C_ C_ 0.0335622 0.241257 0.811939 -0.15533
C_ C_ 0.0534146 0.199221 0.840427 0.18167
C_ C_ 0.012999 0.0492543 0.87213 0.69207
C_ C_ 0.476203 0.505496 0.876527 0.02923
C_ C_ 0.495645 0.455047 0.866288 -0.15533
C_ C_ 0.469735 0.415687 0.876514 -0.15533
C_ C_ 0.419248 0.423946 0.88984 0.02923
C_ C_ 0.398224 0.474676 0.902966 -0.15533
C_ C_ 0.422703 0.51537 0.888141 0.02923
C_ C_ 0.405595 0.0668489 0.885375 0.69207
C_ C_ 0.41613 0.325085 0.886839 0.69661
C_ C_ 0.0749778 0.299577 0.596431 0.18167
C_ C_ 0.0249738 0.289175 0.57962 -0.15533
C_ C_ 0.0112037 0.281263 0.52686 0.02923
C_ C_ 0.0480383 0.291921 0.984096 -0.15533
C_ C_ 0.093245 0.310287 0.511676 0.18167
C_ C_ 0.215063 0.27235 0.639089 0.18167
C_ C_ 0.231382 0.243253 0.681688 -0.15533
C_ C_ 0.231467 0.265037 0.731354 0.02923
C_ C_ 0.209346 0.316095 0.738924 -0.15533
C_ C_ 0.188364 0.342769 0.695629 0.18167
C_ C_ 0.239946 0.360373 0.554137 0.69207
C_ C_ 0.280887 0.381647 0.00776794 0.02923
C_ C_ 0.262432 0.380741 0.954681 -0.15533
C_ C_ 0.295025 0.3818 0.915239 -0.15533
C_ C_ 0.346618 0.384189 0.92551 0.02923
C_ C_ 0.365492 0.387268 0.977745 -0.15533
C_ C_ 0.336749 0.380408 0.0173522 0.02923
C_ C_ 0.349074 0.384233 0.579077 0.69207
C_ C_ 0.365314 0.378654 0.827452 0.69661
C_ C_ 0.315583 0.431583 0.692901 0.18167
C_ C_ 0.276925 0.453297 0.721686 -0.15533
C_ C_ 0.284867 0.499703 0.752955 0.02923
C_ C_ 0.323316 0.00897761 0.75279 -0.15533
C_ C_ 0.369639 0.495047 0.723587 0.18167
C_ C_ 0.487656 0.342903 0.70155 0.18167
C_ C_ 0.00952111 0.323612 0.72957 -0.15533
C_ C_ 0.48234 0.264707 0.739727 0.02923
C_ C_ 0.429629 0.271015 0.727282 -0.15533
C_ C_ 0.407348 0.313992 0.701282 0.18167
C_ C_ 0.489289 0.44923 0.622814 0.69207
C_ C_ 0.0162468 0.997749 0.615506 0.02923
C_ C_ 0.000728376 0.0493135 0.622057 -0.15533
C_ C_ 0.0353255 0.0846317 0.620773 -0.15533
C_ C_ 0.0848556 0.0718096 0.60661 0.02923
C_ C_ 0.101939 0.0186027 0.601764 -0.15533
C_ C_ 0.0692341 0.983537 0.611573 0.02923
C_ C_ 0.0909579 0.431489 0.602594 0.69207
C_ C_ 0.105335 0.165817 0.616404 0.69661
C_ C_ 0.440833 0.176863 0.938013 0.18167
C_ C_ 0.4804 0.202487 0.964511 -0.15533
C_ C_ 0.471575 0.239826 1.00296777 0.02923
C_ C_ 0.422955 0.260199 0.517096 -0.15533
C_ C_ 0.37975 0.22745 0.987482 0.18167
C_ C_ 0.261133 0.204225 0.860475 0.18167
C_ C_ 0.2321 0.225859 0.819809 -0.15533
C_ C_ 0.255777 0.234293 0.77576 0.02923
C_ C_ 0.30498 0.211945 0.772888 -0.15533
C_ C_ 0.331193 0.185422 0.813291 0.18167
C_ C_ 0.267194 0.120668 0.95633 0.69207
C_ C_ 0.2245 0.120521 0.492704 0.02923
C_ C_ 0.244159 0.120232 0.545377 -0.15533
C_ C_ 0.216429 0.102394 0.581145 -0.15533
C_ C_ 0.161331 0.103326 0.569983 0.02923
C_ C_ 0.140532 0.106012 0.520191 -0.15533
C_ C_ 0.170976 0.115121 0.480105 0.02923
C_ C_ 0.152224 0.114894 0.928348 0.69207
C_ C_ 0.15361 0.101304 0.668095 0.69661
C_ C_ 0.385253 0.378486 0.884176 -0.30787
C_ C_ 0.12574 0.109418 0.614649 -0.30787
N_ N_ 0.143239 0.0682511 0.809792 -0.32189
N_ N_ 0.0549162 0.151054 0.818029 -0.32189
N_ N_ 0.106016 0.312991 0.563163 -0.32189
N_ N_ 0.188345 0.319467 0.648027 -0.32189
N_ N_ 0.360974 0.451318 0.695878 -0.32189
N_ N_ 0.437712 0.349882 0.6913 -0.32189
N_ N_ 0.391016 0.191676 0.948651 -0.32189
N_ N_ 0.310579 0.185968 0.857986 -0.32189
O_ O_ 0.510301 0.0760784 0.903392 -0.63271
O_ O_ 0.04713 0.0399417 0.841457 -0.57982
O_ O_ 0.406925 0.091932 0.844115 -0.63271
O_ O_ 0.372134 0.0842148 0.916912 -0.57982
O_ O_ 0.239587 0.388735 0.596935 -0.63271
O_ O_ 0.199961 0.333514 0.540966 -0.57982
O_ O_ 0.353725 0.339521 0.600384 -0.63271
O_ O_ 0.384092 0.415627 0.59404 -0.57982
O_ O_ 0.977718 0.419112 0.595324 -0.63271
O_ O_ 0.45641 0.457736 0.657014 -0.57982
O_ O_ 0.0890664 0.409159 0.647772 -0.63271
O_ O_ 0.128545 0.416914 0.575918 -0.57982
O_ O_ 0.257553 0.104933 0.910012 -0.63271
O_ O_ 0.301589 0.154176 0.965416 -0.57982
O_ O_ 0.157636 0.155397 0.902699 -0.63271
O_ O_ 0.111391 0.0919092 0.914189 -0.57982
F_ F_ 0.449422 0.321453 0.929053 -0.20885
F_ F_ 0.435305 0.304574 0.844262 -0.20885
F_ F_ 0.380775 0.291203 0.891819 -0.20885
F_ F_ 0.33204 0.422785 0.825808 -0.20885
F_ F_ 0.336867 0.341487 0.805012 -0.20885
F_ F_ 0.403329 0.382459 0.79628 -0.20885
F_ F_ 0.0735822 0.176148 0.572418 -0.20885
F_ F_ 0.0849012 0.186879 0.660123 -0.20885
F_ F_ 0.14654 0.193029 0.613375 -0.20885
F_ F_ 0.175827 0.0504021 0.669232 -0.20885
F_ F_ 0.192595 0.130636 0.681746 -0.20885
F_ F_ 0.119281 0.105084 0.703096 -0.20885
Zn Zn 0.0904694 0.581308 0.348 0.83971
Zn Zn 0.162957 0.841354 0.0793667 0.83971
Zn Zn 0.404425 0.913992 0.15382 0.83971
Zn Zn 0.341659 0.661727 0.41556 0.83971
H_ H_ 0.172121 0.632735 0.302179 0.10394
H_ H_ 0.253941 0.599329 0.270774 0.10394
H_ H_ 0.194572 0.948019 0.274616 0.10394
H_ H_ 0.144229 0.484704 0.339666 0.10394
H_ H_ 0.524671 0.596847 0.254411 0.10394
H_ H_ 0.480059 0.674129 0.207712 0.10394
H_ H_ 0.038672 0.763019 0.327809 0.10394
H_ H_ 0.0663595 0.686653 0.374142 0.10394
H_ H_ 0.0409821 0.959011 0.380566 0.10394
H_ H_ 0.477616 0.878608 0.374975 0.10394
H_ H_ 0.350753 0.990704 0.405294 0.10394
H_ H_ 0.0814739 0.800171 0.126999 0.10394
H_ H_ 0.504999 0.767368 0.0874196 0.10394
H_ H_ 0.0484665 0.772038 0.44735 0.10394
H_ H_ 0.117038 0.813271 0.97414 0.10394
H_ H_ 0.211643 0.730715 0.0951082 0.10394
H_ H_ 0.239771 0.690984 0.178806 0.10394
H_ H_ 0.225631 0.837026 0.259197 0.10394
H_ H_ 0.172487 0.868112 0.18655 0.10394
H_ H_ 0.221654 0.851944 0.440837 0.10394
H_ H_ 0.270667 0.873186 0.370564 0.10394
H_ H_ 0.395817 0.904367 0.484675 0.10394
H_ H_ 0.30086 0.891175 0.1615 0.10394
H_ H_ 0.229086 0.940142 0.198938 0.10394
H_ H_ 0.338316 0.547792 0.283306 0.10394
H_ H_ 0.396926 0.00229534 0.223612 0.10394
H_ H_ 0.0150088 0.870029 0.189138 0.10394
H_ H_ 0.0487752 0.806463 0.243582 0.10394
H_ H_ 0.409498 0.751157 0.2325 0.10394
H_ H_ 0.3724 0.824953 0.179363 0.10394
H_ H_ 0.478026 0.560435 0.15437 0.10394
H_ H_ 0.00846014 0.611182 0.101065 0.10394
H_ H_ 0.137547 0.498265 0.0922232 0.10394
H_ H_ 0.437196 0.670593 0.394562 0.10394
H_ H_ 0.0193371 0.683528 0.451693 0.10394
H_ H_ 0.414472 0.788677 0.0311901 0.10394
H_ H_ 0.34423 0.749141 0.499039 0.10394
H_ H_ 0.236298 0.705547 0.389062 0.10394
H_ H_ 0.190662 0.736784 0.309252 0.10394
H_ H_ 0.334664 0.731258 0.243881 0.10394
H_ H_ 0.374223 0.693513 0.322669 0.10394
H_ H_ 0.27195 0.627888 0.057852 0.10394
H_ H_ 0.223405 0.589593 0.117635 0.10394
H_ H_ 0.0944684 0.589173 0.00677162 0.10394
C_ C_ 0.180329 0.590615 0.296806 0.18167
C_ C_ 0.227763 0.572213 0.280685 -0.15533
C_ C_ 0.242762 0.519255 0.278778 0.02923
C_ C_ 0.194256 0.989379 0.284248 -0.15533
C_ C_ 0.168323 0.508202 0.322152 0.18167
C_ C_ 0.0278218 0.625776 0.265408 0.18167
C_ C_ 0.505106 0.678368 0.243685 -0.15533
C_ C_ 0.00747887 0.718225 0.260792 0.02923
C_ C_ 0.0336517 0.725231 0.310811 -0.15533
C_ C_ 0.0521823 0.682219 0.336054 0.18167
C_ C_ 0.00726757 0.543709 0.374476 0.69207
C_ C_ 0.4696 0.00783945 0.370223 0.02923
C_ C_ 0.488492 0.954778 0.365544 -0.15533
C_ C_ 0.459735 0.918601 0.376997 -0.15533
C_ C_ 0.409973 0.928757 0.390612 0.02923
C_ C_ 0.39004 0.98027 0.396438 -0.15533
C_ C_ 0.418846 0.021049 0.386988 0.02923
C_ C_ 0.389223 0.571144 0.385578 0.69207
C_ C_ 0.400991 0.829753 0.384348 0.69661
C_ C_ 0.0738216 0.793549 0.0871531 0.18167
C_ C_ 0.0269086 0.778419 0.0694296 -0.15533
C_ C_ 0.015221 0.76624 0.0180729 0.02923
C_ C_ 0.0550958 0.781092 0.486474 -0.15533
C_ C_ 0.0958419 0.796294 0.00173109 0.18167
C_ C_ 0.210592 0.754572 0.133847 0.18167
C_ C_ 0.228434 0.729307 0.179192 -0.15533
C_ C_ 0.233529 0.758519 0.22552 0.02923
C_ C_ 0.223267 0.811794 0.224953 -0.15533
C_ C_ 0.199649 0.835212 0.18209 0.18167
C_ C_ 0.24153 0.8724 0.0393105 0.69207
C_ C_ 0.275593 0.872952 0.501273 0.02923
C_ C_ 0.255625 0.871121 0.450987 -0.15533
C_ C_ 0.28373 0.880362 0.41116 -0.15533
C_ C_ 0.335342 0.892692 0.422247 0.02923
C_ C_ 0.354971 0.89742 0.475083 -0.15533
C_ C_ 0.324793 0.887904 0.514103 0.02923
C_ C_ 0.354341 0.883021 0.067221 0.69207
C_ C_ 0.347303 0.893016 0.325884 0.69661
C_ C_ 0.307756 0.924461 0.188802 0.18167
C_ C_ 0.26672 0.952987 0.208941 -0.15533
C_ C_ 0.27493 0.993891 0.244438 0.02923
C_ C_ 0.33035 0.520181 0.251417 -0.15533
C_ C_ 0.360166 0.987639 0.221569 0.18167
C_ C_ 0.494314 0.849354 0.192484 0.18167
C_ C_ 0.0108733 0.804177 0.228045 -0.15533
C_ C_ 0.487385 0.772264 0.237355 0.02923
C_ C_ 0.43535 0.777054 0.219017 -0.15533
C_ C_ 0.414711 0.816353 0.186428 0.18167
C_ C_ 0.487093 0.952835 0.120477 0.69207
C_ C_ 0.0168652 0.48395 0.111789 0.02923
C_ C_ -0.0049000000000000155 0.533247 0.105313 -0.15533
C_ C_ 0.0258999 0.572271 0.101565 -0.15533
C_ C_ 0.0784798 0.560644 0.0957478 0.02923
C_ C_ 0.0994526 0.508704 0.0944725 -0.15533
C_ C_ 0.0691857 0.470961 0.10541 0.02923
C_ C_ 0.0968318 0.918026 0.103422 0.69207
C_ C_ 0.0939595 0.653544 0.110805 0.69661
C_ C_ 0.432742 0.695203 0.427079 0.18167
C_ C_ 0.476964 0.710063 0.456946 -0.15533
C_ C_ 0.472574 0.744918 0.498337 0.02923
C_ C_ 0.422644 0.757568 0.00432845 -0.15533
C_ C_ 0.382329 0.737171 0.489082 0.18167
C_ C_ 0.254788 0.702225 0.353359 0.18167
C_ C_ 0.233841 0.731477 0.312077 -0.15533
C_ C_ 0.259142 0.737669 0.271502 0.02923
C_ C_ 0.312228 0.724301 0.274281 -0.15533
C_ C_ 0.335048 0.698479 0.317169 0.18167
C_ C_ 0.26222 0.627885 0.454562 0.69207
C_ C_ 0.218263 0.61241 0.992415 0.02923
C_ C_ 0.235517 0.614558 0.0450831 -0.15533
C_ C_ 0.20704 0.597822 0.0787912 -0.15533
C_ C_ 0.156352 0.590246 0.066763 0.02923
C_ C_ 0.137902 0.589475 0.0142155 -0.15533
C_ C_ 0.16659 0.60467 0.977179 0.02923
C_ C_ 0.153305 0.606831 0.427574 0.69207
C_ C_ 0.140116 0.586834 0.165335 0.69661
C_ C_ 0.373635 0.885666 0.382324 -0.30787
C_ C_ 0.118142 0.597788 0.109503 -0.30787
N_ N_ 0.15009 0.558587 0.316866 -0.32189
N_ N_ 0.0508054 0.634551 0.313201 -0.32189
N_ N_ 0.106342 0.805406 0.053784 -0.32189
N_ N_ 0.195516 0.806009 0.136845 -0.32189
N_ N_ 0.354286 0.943883 0.193613 -0.32189
N_ N_ 0.443566 0.853191 0.175735 -0.32189
N_ N_ 0.386536 0.705396 0.446446 -0.32189
N_ N_ 0.306966 0.687764 0.355326 -0.32189
O_ O_ 0.500033 0.591995 0.400211 -0.63271
O_ O_ 0.0436997 0.532495 0.345873 -0.57982
O_ O_ 0.3929 0.59778 0.344195 -0.63271
O_ O_ 0.373096 0.597748 0.424299 -0.57982
O_ O_ 0.251791 0.889282 0.0879888 -0.63271
O_ O_ 0.207844 0.839771 0.0327181 -0.57982
O_ O_ 0.354293 0.841216 0.0908595 -0.63271
O_ O_ 0.379486 0.920118 0.0873669 -0.57982
O_ O_ 0.9829 0.907493 0.0894576 -0.63271
O_ O_ 0.451468 0.9606 0.151316 -0.57982
O_ O_ 0.0893679 0.89127 0.14124 -0.63271
O_ O_ 0.135383 0.904299 0.0777446 -0.57982
O_ O_ 0.258438 0.601929 0.410133 -0.63271
O_ O_ 0.29719 0.659682 0.463891 -0.57982
O_ O_ 0.14491 0.650333 0.402293 -0.63271
O_ O_ 0.123401 0.571219 0.411177 -0.57982
F_ F_ 0.434823 0.823625 0.425839 -0.20885
F_ F_ 0.427421 0.814081 0.344774 -0.20885
F_ F_ 0.364179 0.796285 0.386616 -0.20885
F_ F_ 0.311292 0.933158 0.318946 -0.20885
F_ F_ 0.327479 0.849212 0.306971 -0.20885
F_ F_ 0.38281 0.89421 0.293714 -0.20885
F_ F_ 0.0696108 0.667752 0.0632588 -0.20885
F_ F_ 0.063114 0.665418 0.148603 -0.20885
F_ F_ 0.131992 0.688723 0.119533 -0.20885
F_ F_ 0.174573 0.542078 0.16878 -0.20885
F_ F_ 0.170371 0.623365 0.185893 -0.20885
F_ F_ 0.107167 0.580317 0.198117 -0.20885
Zn Zn 0.0869145 0.582409 0.839643 0.83971
Zn Zn 0.159944 0.849806 0.580946 0.83971
Zn Zn 0.403833 0.916089 0.650886 0.83971
Zn Zn 0.331756 0.656163 0.92053 0.83971
H_ H_ 0.16912 0.633149 0.792573 0.10394
H_ H_ 0.253951 0.596379 0.771752 0.10394
H_ H_ 0.208972 0.953357 0.793166 0.10394
H_ H_ 0.140602 0.489708 0.835125 0.10394
H_ H_ 0.519892 0.594956 0.770072 0.10394
H_ H_ 0.476685 0.666805 0.71313 0.10394
H_ H_ 0.0454067 0.771322 0.83678 0.10394
H_ H_ 0.0735562 0.691779 0.881078 0.10394
H_ H_ 0.0330131 0.945718 0.854587 0.10394
H_ H_ 0.481532 0.870857 0.85667 0.10394
H_ H_ 0.358642 0.981757 0.900039 0.10394
H_ H_ 0.0764521 0.813516 0.632234 0.10394
H_ H_ 0.507216 0.761766 0.598392 0.10394
H_ H_ 0.0387884 0.775034 0.944715 0.10394
H_ H_ 0.117096 0.82381 0.481901 0.10394
H_ H_ 0.235086 0.761249 0.593287 0.10394
H_ H_ 0.275719 0.71369 0.663737 0.10394
H_ H_ 0.209693 0.823369 0.770953 0.10394
H_ H_ 0.168192 0.875967 0.696241 0.10394
H_ H_ 0.219076 0.867679 0.93997 0.10394
H_ H_ 0.266901 0.877351 0.870677 0.10394
H_ H_ 0.398598 0.896987 0.977913 0.10394
H_ H_ 0.301179 0.895879 0.660833 0.10394
H_ H_ 0.227243 0.950671 0.691584 0.10394
H_ H_ 0.339946 0.556144 0.773607 0.10394
H_ H_ 0.400745 -0.0027880000000000127 0.732538 0.10394
H_ H_ 0.0115529 0.88949 0.69007 0.10394
H_ H_ 0.0576686 0.816129 0.740093 0.10394
H_ H_ 0.416466 0.737643 0.698452 0.10394
H_ H_ 0.370326 0.820493 0.671282 0.10394
H_ H_ 0.464809 0.550336 0.617367 0.10394
H_ H_ 0.0133875 0.629653 0.597106 0.10394
H_ H_ 0.140787 0.508703 0.594318 0.10394
H_ H_ 0.438723 0.649761 0.900393 0.10394
H_ H_ 0.0162217 0.683337 0.949618 0.10394
H_ H_ 0.419021 0.789815 0.541168 0.10394
H_ H_ 0.342693 0.746392 -0.013507000000000047 0.10394
H_ H_ 0.226906 0.686915 0.876825 0.10394
H_ H_ 0.189332 0.72662 0.798081 0.10394
H_ H_ 0.336959 0.712624 0.740264 0.10394
H_ H_ 0.375419 0.687926 0.829876 0.10394
H_ H_ 0.285338 0.631886 0.556511 0.10394
H_ H_ 0.23403 0.609726 0.622089 0.10394
H_ H_ 0.115838 0.5765 0.510111 0.10394
C_ C_ 0.18131 0.594174 0.798195 0.18167
C_ C_ 0.230868 0.573753 0.791076 -0.15533
C_ C_ 0.246 0.520777 0.787043 0.02923
C_ C_ 0.202317 0.992118 0.795889 -0.15533
C_ C_ 0.163175 0.510294 0.814074 0.18167
C_ C_ 0.0295725 0.638352 0.768977 0.18167
C_ C_ 0.498516 0.67382 0.749575 -0.15533
C_ C_ 0.0109777 0.732646 0.765764 0.02923
C_ C_ 0.0347069 0.736531 0.816974 -0.15533
C_ C_ 0.0560475 0.690303 0.842173 0.18167
C_ C_ 0.0032604 0.547894 0.857264 0.69207
C_ C_ 0.477577 0.00018999999999991246 0.866729 0.02923
C_ C_ 0.495585 0.948465 0.861726 -0.15533
C_ C_ 0.466017 0.908954 0.864403 -0.15533
C_ C_ 0.414442 0.920615 0.879664 0.02923
C_ C_ 0.39542 0.973065 0.886627 -0.15533
C_ C_ 0.428811 0.0122069 0.886825 0.02923
C_ C_ 0.391558 0.567219 0.881228 0.69207
C_ C_ 0.40256 0.825203 0.874456 0.69661
C_ C_ 0.0659294 0.809265 0.589518 0.18167
C_ C_ 0.0264098 0.782548 0.570544 -0.15533
C_ C_ 0.0198707 0.769074 0.516241 0.02923
C_ C_ 0.0513718 0.774253 0.984591 -0.15533
C_ C_ 0.0915032 0.811907 0.507386 0.18167
C_ C_ 0.222091 0.771947 0.631285 0.18167
C_ C_ 0.244533 0.742121 0.671058 -0.15533
C_ C_ 0.237671 0.758826 0.721361 0.02923
C_ C_ 0.212954 0.807633 0.732751 -0.15533
C_ C_ 0.187814 0.83605 0.69095 0.18167
C_ C_ 0.238561 0.866283 0.541272 0.69207
C_ C_ 0.277518 0.87545 -0.0010299999999999754 0.02923
C_ C_ 0.260557 0.866682 0.948739 -0.15533
C_ C_ 0.28924 0.871678 0.907416 -0.15533
C_ C_ 0.340479 0.884393 0.917922 0.02923
C_ C_ 0.359401 0.889957 0.970561 -0.15533
C_ C_ 0.328494 0.887563 0.0117495 0.02923
C_ C_ 0.350222 0.886334 0.566962 0.69207
C_ C_ 0.349402 0.881564 0.821246 0.69661
C_ C_ 0.306411 0.933712 0.679031 0.18167
C_ C_ 0.264405 0.963174 0.700556 -0.15533
C_ C_ 0.272686 1.00142206 0.737485 0.02923
C_ C_ 0.331175 0.519342 0.753052 -0.15533
C_ C_ 0.361821 0.987278 0.722161 0.18167
C_ C_ 0.487868 0.85671 0.708434 0.18167
C_ C_ 0.0169006 0.817849 0.731485 -0.15533
C_ C_ 0.485734 0.767484 0.730145 0.02923
C_ C_ 0.436083 0.770889 0.704993 -0.15533
C_ C_ 0.411851 0.818012 0.687203 0.18167
C_ C_ 0.481436 0.950661 0.624313 0.69207
C_ C_ 0.0144399 0.500475 0.608279 0.02923
C_ C_ 0.998713 0.553627 0.608485 -0.15533
C_ C_ 0.0325603 0.589052 0.601098 -0.15533
C_ C_ 0.082791 0.574008 0.598204 0.02923
C_ C_ 0.10009 0.522275 0.595372 -0.15533
C_ C_ 0.0662828 0.485659 0.600421 0.02923
C_ C_ 0.0915999 0.927916 0.609479 0.69207
C_ C_ 0.103285 0.666153 0.601946 0.69661
C_ C_ 0.433787 0.67938 0.929563 0.18167
C_ C_ 0.475951 0.702771 0.950052 -0.15533
C_ C_ 0.470905 0.744083 -0.012577999999999978 0.02923
C_ C_ 0.423828 0.75781 0.515815 -0.15533
C_ C_ 0.381321 0.732636 0.979606 0.18167
C_ C_ 0.251633 0.698449 0.851291 0.18167
C_ C_ 0.230446 0.722251 0.805348 -0.15533
C_ C_ 0.261331 0.726875 0.764641 0.02923
C_ C_ 0.312913 0.713972 0.77204 -0.15533
C_ C_ 0.332673 0.693105 0.819184 0.18167
C_ C_ 0.255983 0.621499 0.953712 0.69207
C_ C_ 0.226709 0.621765 0.493351 0.02923
C_ C_ 0.245638 0.624798 0.547103 -0.15533
C_ C_ 0.217067 0.609694 0.584945 -0.15533
C_ C_ 0.167794 0.595775 0.571512 0.02923
C_ C_ 0.151604 0.591404 0.518668 -0.15533
C_ C_ 0.175767 0.611531 0.481233 0.02923
C_ C_ 0.145493 0.605405 0.922319 0.69207
C_ C_ 0.144031 0.607424 0.664401 0.69661
C_ C_ 0.37734 0.8792 0.874602 -0.30787
C_ C_ 0.125306 0.609598 0.607084 -0.30787
N_ N_ 0.149092 0.562403 0.811111 -0.32189
N_ N_ 0.0564655 0.645447 0.814692 -0.32189
N_ N_ 0.101848 0.819311 0.559364 -0.32189
N_ N_ 0.19292 0.817513 0.642246 -0.32189
N_ N_ 0.352219 0.950159 0.686391 -0.32189
N_ N_ 0.44139 0.857195 0.681266 -0.32189
N_ N_ 0.389499 0.689389 0.94869 -0.32189
N_ N_ 0.303007 0.684264 0.856419 -0.32189
O_ O_ 0.511692 0.58521 0.908535 -0.63271
O_ O_ 0.0448156 0.533852 0.837235 -0.57982
O_ O_ 0.398659 0.592453 0.841167 -0.63271
O_ O_ 0.363811 0.590508 0.916771 -0.57982
O_ O_ 0.236928 0.896518 0.581904 -0.63271
O_ O_ 0.20518 0.832028 0.533314 -0.57982
O_ O_ 0.348631 0.845197 0.590624 -0.63271
O_ O_ 0.378843 0.920447 0.58533 -0.57982
O_ O_ 0.980062 0.915874 0.593519 -0.63271
O_ O_ 0.447113 0.962775 0.655503 -0.57982
O_ O_ 0.0868961 0.900343 0.646709 -0.63271
O_ O_ 0.124422 0.912818 0.57727 -0.57982
O_ O_ 0.261482 0.595393 0.90984 -0.63271
O_ O_ 0.286407 0.65706 0.96664 -0.57982
O_ O_ 0.152889 0.642177 0.89431 -0.63271
O_ O_ 0.111113 0.575747 0.903583 -0.57982
F_ F_ 0.439236 0.820668 0.914045 -0.20885
F_ F_ 0.42549 0.809531 0.831042 -0.20885
F_ F_ 0.372062 0.786222 0.886273 -0.20885
F_ F_ 0.317043 0.923454 0.824416 -0.20885
F_ F_ 0.321602 0.841126 0.802839 -0.20885
F_ F_ 0.37972 0.891544 0.78245 -0.20885
F_ F_ 0.0733582 0.668757 0.555079 -0.20885
F_ F_ 0.0739183 0.686751 0.643041 -0.20885
F_ F_ 0.140386 0.698776 0.602103 -0.20885
F_ F_ 0.17562 0.564152 0.676919 -0.20885
F_ F_ 0.167867 0.64739 0.687452 -0.20885
F_ F_ 0.101853 0.611727 0.693161 -0.20885
Zn Zn 0.590679 0.0852734 0.346215 0.83971
Zn Zn 0.657669 0.347531 0.0912182 0.83971
Zn Zn 0.898972 0.411681 0.146532 0.83971
Zn Zn 0.837379 0.158037 0.426616 0.83971
H_ H_ 0.663832 0.13448 0.296514 0.10394
H_ H_ 0.743618 0.101397 0.257872 0.10394
H_ H_ 0.698817 0.445731 0.2866 0.10394
H_ H_ 0.652607 0.988771 0.351784 0.10394
H_ H_ 0.0296966 0.0955817 0.24405 0.10394
H_ H_ 0.982325 0.166524 0.194931 0.10394
H_ H_ 0.531943 0.273998 0.342739 0.10394
H_ H_ 0.5683 0.197041 0.383184 0.10394
H_ H_ 0.527998 0.452098 0.375598 0.10394
H_ H_ 0.976009 0.379599 0.372141 0.10394
H_ H_ 0.850384 0.488441 0.411262 0.10394
H_ H_ 0.573115 0.314629 0.135946 0.10394
H_ H_ 1.0024467 0.263893 0.0927608 0.10394
H_ H_ 0.535169 0.291281 0.447519 0.10394
H_ H_ 0.619278 0.310317 0.985067 0.10394
H_ H_ 0.709933 0.242427 0.109793 0.10394
H_ H_ 0.748208 0.200649 0.181111 0.10394
H_ H_ 0.72558 0.338473 0.273127 0.10394
H_ H_ 0.684813 0.381272 0.195056 0.10394
H_ H_ 0.715592 0.369322 0.447032 0.10394
H_ H_ 0.761682 0.385638 0.378875 0.10394
H_ H_ 0.894973 0.401777 0.48817 0.10394
H_ H_ 0.803019 0.394446 0.161376 0.10394
H_ H_ 0.724864 0.443813 0.195634 0.10394
H_ H_ 0.830476 0.0530844 0.260351 0.10394
H_ H_ 0.895378 0.507307 0.222375 0.10394
H_ H_ 0.516788 0.391265 0.192501 0.10394
H_ H_ 0.559724 0.316166 0.235416 0.10394
H_ H_ 0.906288 0.241359 0.211565 0.10394
H_ H_ 0.861331 0.317997 0.178992 0.10394
H_ H_ 0.960207 0.0493029 0.11445 0.10394
H_ H_ 0.518364 0.122872 0.11096 0.10394
H_ H_ 0.64341 0.00744609 0.0916545 0.10394
H_ H_ 0.943883 0.157932 0.416709 0.10394
H_ H_ 0.512287 0.196488 0.444997 0.10394
H_ H_ 0.913606 0.281949 0.0418341 0.10394
H_ H_ 0.840682 0.242203 0.511078 0.10394
H_ H_ 0.724569 0.205464 0.391464 0.10394
H_ H_ 0.689975 0.251198 0.313914 0.10394
H_ H_ 0.839056 0.242374 0.263696 0.10394
H_ H_ 0.870215 0.194875 0.339644 0.10394
H_ H_ 0.787572 0.122834 0.0522008 0.10394
H_ H_ 0.733027 0.11589 0.118571 0.10394
H_ H_ 0.612827 0.0715929 0.00262982 0.10394
C_ C_ 0.676344 0.0938888 0.29652 0.18167
C_ C_ 0.720369 0.0751986 0.270517 -0.15533
C_ C_ 0.737701 0.0225043 0.270472 0.02923
C_ C_ 0.692239 0.48565 0.288068 -0.15533
C_ C_ 0.669482 0.0118158 0.322376 0.18167
C_ C_ 0.531903 0.141106 0.271418 0.18167
C_ C_ 0.00271342 0.173639 0.232583 -0.15533
C_ C_ 0.516611 0.233906 0.270024 0.02923
C_ C_ 0.537613 0.238153 0.320308 -0.15533
C_ C_ 0.557199 0.193203 0.34315 0.18167
C_ C_ 0.506768 0.047501 0.363185 0.69207
C_ C_ 0.972683 0.50458 0.384958 0.02923
C_ C_ 0.992983 0.453816 0.385347 -0.15533
C_ C_ 0.960634 0.415368 0.384704 -0.15533
C_ C_ 0.908161 0.427216 0.391392 0.02923
C_ C_ 0.888226 0.480031 0.396706 -0.15533
C_ C_ 0.921731 0.516736 0.395259 0.02923
C_ C_ 0.897101 0.0761521 0.380079 0.69207
C_ C_ 0.894805 0.327643 0.387 0.69661
C_ C_ 0.566105 0.303886 0.0966294 0.18167
C_ C_ 0.51838 0.287457 0.0775724 -0.15533
C_ C_ 0.512862 0.270453 0.0254134 0.02923
C_ C_ 0.545137 0.295597 0.488534 -0.15533
C_ C_ 0.594176 0.297845 0.0138511 0.18167
C_ C_ 0.714102 0.266256 0.142338 0.18167
C_ C_ 0.735508 0.239898 0.185932 -0.15533
C_ C_ 0.739309 0.266908 0.234334 0.02923
C_ C_ 0.722994 0.317157 0.236841 -0.15533
C_ C_ 0.698775 0.342063 0.193098 0.18167
C_ C_ 0.733976 0.371679 0.0422979 0.69207
C_ C_ 0.774758 0.380161 0.506302 0.02923
C_ C_ 0.753256 0.382603 0.456313 -0.15533
C_ C_ 0.781383 0.387417 0.41701 -0.15533
C_ C_ 0.833646 0.395003 0.425579 0.02923
C_ C_ 0.855306 0.396074 0.476443 -0.15533
C_ C_ 0.827269 0.389868 0.517099 0.02923
C_ C_ 0.845157 0.381046 0.0623754 0.69207
C_ C_ 0.841942 0.392206 0.329921 0.69661
C_ C_ 0.805008 0.431635 0.181094 0.18167
C_ C_ 0.763087 0.455711 0.205118 -0.15533
C_ C_ 0.770054 0.495013 0.243918 0.02923
C_ C_ 0.821995 0.0221123 0.23479 -0.15533
C_ C_ 0.858247 0.490647 0.222379 0.18167
C_ C_ 0.983578 0.351721 0.195693 0.18167
C_ C_ 0.519659 0.319342 0.22831 -0.15533
C_ C_ 0.978045 0.269402 0.227355 0.02923
C_ C_ 0.925934 0.272168 0.207024 -0.15533
C_ C_ 0.901537 0.316722 0.188343 0.18167
C_ C_ 0.983107 0.445084 0.122532 0.69207
C_ C_ 0.519829 0.993589 0.110952 0.02923
C_ C_ 0.501455 0.0453449 0.111258 -0.15533
C_ C_ 0.532627 0.0823236 0.101651 -0.15533
C_ C_ 0.585154 0.0713827 0.0966296 0.02923
C_ C_ 0.603226 0.0192615 0.0950823 -0.15533
C_ C_ 0.572277 0.980707 0.103983 0.02923
C_ C_ 0.599965 0.429575 0.116411 0.69207
C_ C_ 0.598729 0.165522 0.0908102 0.69661
C_ C_ 0.936265 0.182704 0.449408 0.18167
C_ C_ 0.977756 0.203198 0.478991 -0.15533
C_ C_ 0.968512 0.247992 0.509326 0.02923
C_ C_ 0.9211 0.255767 0.0112165 -0.15533
C_ C_ 0.878718 0.229351 0.500297 0.18167
C_ C_ 0.751582 0.211026 0.363192 0.18167
C_ C_ 0.730321 0.239376 0.320474 -0.15533
C_ C_ 0.760527 0.243411 0.281617 0.02923
C_ C_ 0.813172 0.228268 0.288139 -0.15533
C_ C_ 0.830602 0.203267 0.332796 0.18167
C_ C_ 0.761365 0.124715 0.462379 0.69207
C_ C_ 0.727886 0.111117 0.988077 0.02923
C_ C_ 0.747817 0.113596 0.0399873 -0.15533
C_ C_ 0.718311 0.107445 0.0788433 -0.15533
C_ C_ 0.666278 0.0975408 0.0669144 0.02923
C_ C_ 0.651968 0.0799462 0.0160794 -0.15533
C_ C_ 0.679407 0.0930856 0.975478 0.02923
C_ C_ 0.650369 0.10906 0.429589 0.69207
C_ C_ 0.640888 0.1104 0.157976 0.69661
C_ C_ 0.87082 0.384409 0.384684 -0.30787
C_ C_ 0.623441 0.111304 0.100768 -0.30787
N_ N_ 0.647739 0.0594935 0.313326 -0.32189
N_ N_ 0.560395 0.146584 0.317264 -0.32189
N_ N_ 0.599638 0.315575 0.064052 -0.32189
N_ N_ 0.691804 0.315014 0.148087 -0.32189
N_ N_ 0.851132 0.447824 0.190413 -0.32189
N_ N_ 0.931306 0.354735 0.179478 -0.32189
N_ N_ 0.887346 0.196932 0.459069 -0.32189
N_ N_ 0.801023 0.189048 0.365795 -0.32189
O_ O_ 0.0048757 0.101618 0.387054 -0.63271
O_ O_ 0.54354 0.0368471 0.335223 -0.57982
O_ O_ 0.890511 0.105544 0.341188 -0.63271
O_ O_ 0.876999 0.0938679 0.423069 -0.57982
O_ O_ 0.738355 0.400919 0.0853818 -0.63271
O_ O_ 0.697171 0.342028 0.0365807 -0.57982
O_ O_ 0.849265 0.340048 0.0885873 -0.63271
O_ O_ 0.870625 0.417528 0.0795716 -0.57982
O_ O_ 0.492979 0.415464 0.103883 -0.63271
O_ O_ 0.945072 0.456643 0.149882 -0.57982
O_ O_ 0.598671 0.401775 0.157588 -0.63271
O_ O_ 0.627323 0.409828 0.0797889 -0.57982
O_ O_ 0.761298 0.0966349 0.419515 -0.63271
O_ O_ 0.793657 0.158947 0.471049 -0.57982
O_ O_ 0.651126 0.150042 0.402917 -0.63271
O_ O_ 0.615995 0.0779239 0.413067 -0.57982
F_ F_ 0.931163 0.325757 0.429414 -0.20885
F_ F_ 0.917276 0.309715 0.343499 -0.20885
F_ F_ 0.860487 0.295389 0.397038 -0.20885
F_ F_ 0.811904 0.43715 0.33335 -0.20885
F_ F_ 0.811393 0.354503 0.313068 -0.20885
F_ F_ 0.874963 0.390896 0.29309 -0.20885
F_ F_ 0.567923 0.169996 0.0443346 -0.20885
F_ F_ 0.568322 0.18979 0.129641 -0.20885
F_ F_ 0.63553 0.197691 0.088031 -0.20885
F_ F_ 0.671359 0.0643553 0.174374 -0.20885
F_ F_ 0.668212 0.152061 0.173181 -0.20885
F_ F_ 0.598519 0.113691 0.184056 -0.20885
Zn Zn 0.595184 0.0828305 0.850008 0.83971
Zn Zn 0.663723 0.342498 0.58254 0.83971
Zn Zn 0.903803 0.427136 0.65183 0.83971
Zn Zn 0.840537 0.158246 0.915561 0.83971
H_ H_ 0.665062 0.121725 0.799488 0.10394
H_ H_ 0.749283 0.0872849 0.766761 0.10394
H_ H_ 0.722331 0.457642 0.803986 0.10394
H_ H_ 0.635181 0.975362 0.83261 0.10394
H_ H_ 0.0367667 0.108578 0.753466 0.10394
H_ H_ 0.993258 0.174807 0.701133 0.10394
H_ H_ 0.530348 0.265296 0.834732 0.10394
H_ H_ 0.571583 0.18638 0.881176 0.10394
H_ H_ 0.536159 0.445577 0.856148 0.10394
H_ H_ 0.972271 0.380215 0.866892 0.10394
H_ H_ 0.856668 0.491753 0.918458 0.10394
H_ H_ 0.589801 0.298926 0.631875 0.10394
H_ H_ 0.000895964 0.278629 0.607705 0.10394
H_ H_ 0.540436 0.27623 0.953449 0.10394
H_ H_ 0.614453 0.324139 0.481391 0.10394
H_ H_ 0.716251 0.244969 0.597263 0.10394
H_ H_ 0.74559 0.19503 0.670624 0.10394
H_ H_ 0.712673 0.327995 0.771358 0.10394
H_ H_ 0.687576 0.376754 0.694456 0.10394
H_ H_ 0.7092 0.362019 0.936599 0.10394
H_ H_ 0.756283 0.397113 0.873045 0.10394
H_ H_ 0.883242 0.405057 0.981114 0.10394
H_ H_ 0.802325 0.413968 0.657339 0.10394
H_ H_ 0.729436 0.455112 0.701484 0.10394
H_ H_ 0.839954 0.0208496 0.796206 0.10394
H_ H_ 0.894856 0.519671 0.729244 0.10394
H_ H_ 0.510208 0.36714 0.684973 0.10394
H_ H_ 0.551843 0.29734 0.732336 0.10394
H_ H_ 0.914389 0.247891 0.719383 0.10394
H_ H_ 0.867174 0.327425 0.69126 0.10394
H_ H_ 0.959133 0.0630327 0.616174 0.10394
H_ H_ 0.510885 0.117389 0.611021 0.10394
H_ H_ 0.635999 0.00270091 0.592236 0.10394
H_ H_ 0.942185 0.167317 0.895242 0.10394
H_ H_ 0.520287 0.192037 0.955777 0.10394
H_ H_ 0.91103 0.285232 0.552945 0.10394
H_ H_ 0.843382 0.237015 0.00385455 0.10394
H_ H_ 0.733953 0.193783 0.884429 0.10394
H_ H_ 0.689127 0.236623 0.807825 0.10394
H_ H_ 0.833375 0.227576 0.745848 0.10394
H_ H_ 0.87525 0.184052 0.82008 0.10394
H_ H_ 0.781318 0.123786 0.561983 0.10394
H_ H_ 0.726258 0.105429 0.626952 0.10394
H_ H_ 0.602984 0.0960992 0.511233 0.10394
C_ C_ 0.6752 0.0815018 0.795395 0.18167
C_ C_ 0.722523 0.0608974 0.777914 -0.15533
C_ C_ 0.737275 0.00770176 0.776763 0.02923
C_ C_ 0.710229 0.497866 0.806225 -0.15533
C_ C_ 0.658548 -0.0023339999999999472 0.812228 0.18167
C_ C_ 0.528473 0.129087 0.772993 0.18167
C_ C_ 0.00814199 0.18454 0.74275 -0.15533
C_ C_ 0.506228 0.219377 0.768111 0.02923
C_ C_ 0.533776 0.226456 0.815744 -0.15533
C_ C_ 0.559046 0.184403 0.840312 0.18167
C_ C_ 0.513961 0.038067 0.869171 0.69207
C_ C_ 0.970337 0.508992 0.87106 0.02923
C_ C_ 0.989377 0.455716 0.867388 -0.15533
C_ C_ 0.958323 0.418111 0.871462 -0.15533
C_ C_ 0.907524 0.43125 0.887334 0.02923
C_ C_ 0.895035 0.481832 0.904063 -0.15533
C_ C_ 0.919144 0.522579 0.886397 0.02923
C_ C_ 0.901938 0.0767547 0.891548 0.69207
C_ C_ 0.885967 0.334621 0.870549 0.69661
C_ C_ 0.577795 0.29462 0.591217 0.18167
C_ C_ 0.532892 0.27334 0.57203 -0.15533
C_ C_ 0.517463 0.274958 0.520222 0.02923
C_ C_ 0.546743 0.285492 0.993311 -0.15533
C_ C_ 0.59022 0.313435 0.507353 0.18167
C_ C_ 0.714496 0.263024 0.63631 0.18167
C_ C_ 0.737128 0.235793 0.676251 -0.15533
C_ C_ 0.737489 0.259241 0.726245 0.02923
C_ C_ 0.720048 0.311198 0.733304 -0.15533
C_ C_ 0.70354 0.337846 0.689437 0.18167
C_ C_ 0.743109 0.363056 0.54525 0.69207
C_ C_ 0.768304 0.375616 0.999335 0.02923
C_ C_ 0.745504 0.37768 0.948124 -0.15533
C_ C_ 0.7757 0.386513 0.909783 -0.15533
C_ C_ 0.827601 0.394203 0.918862 0.02923
C_ C_ 0.84841 0.388711 0.969415 -0.15533
C_ C_ 0.820632 0.378852 0.00985387 0.02923
C_ C_ 0.853326 0.391219 0.569125 0.69207
C_ C_ 0.838235 0.409241 0.823193 0.69661
C_ C_ 0.808506 0.44679 0.685049 0.18167
C_ C_ 0.76777 0.468933 0.711649 -0.15533
C_ C_ 0.772897 0.512701 0.744664 0.02923
C_ C_ 0.828459 -0.005632999999999999 0.762077 -0.15533
C_ C_ 0.859519 0.506548 0.723458 0.18167
C_ C_ 0.981596 0.366063 0.704471 0.18167
C_ C_ 0.510446 0.302533 0.728336 -0.15533
C_ C_ 0.986138 0.279193 0.733283 0.02923
C_ C_ 0.934347 0.28174 0.716875 -0.15533
C_ C_ 0.908247 0.323704 0.693246 0.18167
C_ C_ 0.974962 0.465536 0.615277 0.69207
C_ C_ 0.513768 0.989003 0.614428 0.02923
C_ C_ 0.494334 0.0413259 0.60886 -0.15533
C_ C_ 0.526374 0.0778017 0.611135 -0.15533
C_ C_ 0.578943 0.0661423 0.605515 0.02923
C_ C_ 0.595556 0.0135412 0.595877 -0.15533
C_ C_ 0.565954 0.976443 0.606207 0.02923
C_ C_ 0.602335 0.423604 0.612354 0.69207
C_ C_ 0.595315 0.16325 0.613351 0.69661
C_ C_ 0.933514 0.195072 0.925182 0.18167
C_ C_ 0.975121 0.21411 0.950359 -0.15533
C_ C_ 0.96775 0.249781 -0.008674999999999988 0.02923
C_ C_ 0.91927 0.255497 0.525553 -0.15533
C_ C_ 0.879365 0.231547 0.987152 0.18167
C_ C_ 0.753945 0.204971 0.855453 0.18167
C_ C_ 0.728927 0.225975 0.811141 -0.15533
C_ C_ 0.758818 0.232589 0.771406 0.02923
C_ C_ 0.810477 0.221621 0.77632 -0.15533
C_ C_ 0.833886 0.193178 0.818435 0.18167
C_ C_ 0.762081 0.122317 0.949469 0.69207
C_ C_ 0.725142 0.117545 0.499008 0.02923
C_ C_ 0.741858 0.117606 0.550752 -0.15533
C_ C_ 0.709424 0.106306 0.587366 -0.15533
C_ C_ 0.658253 0.0983355 0.574591 0.02923
C_ C_ 0.640843 0.0990327 0.522485 -0.15533
C_ C_ 0.672615 0.110697 0.484724 0.02923
C_ C_ 0.652218 0.0941053 0.925748 0.69207
C_ C_ 0.642074 0.0966032 0.669775 0.69661
C_ C_ 0.866789 0.39178 0.877496 -0.30787
C_ C_ 0.618494 0.106154 0.614834 -0.30787
N_ N_ 0.645152 0.0484927 0.809855 -0.32189
N_ N_ 0.552908 0.135881 0.821125 -0.32189
N_ N_ 0.608758 0.30678 0.555196 -0.32189
N_ N_ 0.695333 0.312291 0.6425 -0.32189
N_ N_ 0.852832 0.464643 0.693011 -0.32189
N_ N_ 0.932765 0.364861 0.684751 -0.32189
N_ N_ 0.88556 0.202926 0.942228 -0.32189
N_ N_ 0.80623 0.18968 0.858173 -0.32189
O_ O_ 0.0106216 0.0950565 0.895509 -0.63271
O_ O_ 0.551572 0.0322342 0.83951 -0.57982
O_ O_ 0.891871 0.0979156 0.847439 -0.63271
O_ O_ 0.87325 0.094343 0.926981 -0.57982
O_ O_ 0.742325 0.386135 0.590132 -0.63271
O_ O_ 0.707093 0.335793 0.530044 -0.57982
O_ O_ 0.855976 0.352296 0.599104 -0.63271
O_ O_ 0.871967 0.433585 0.587915 -0.57982
O_ O_ 0.491727 0.405925 0.596803 -0.63271
O_ O_ 0.950285 0.472011 0.654364 -0.57982
O_ O_ 0.590486 0.394829 0.647137 -0.63271
O_ O_ 0.637865 0.407193 0.583429 -0.57982
O_ O_ 0.763819 0.0985914 0.90333 -0.63271
O_ O_ 0.793574 0.157978 0.961955 -0.57982
O_ O_ 0.657509 0.132889 0.898157 -0.63271
O_ O_ 0.618792 0.0625168 0.909927 -0.57982
F_ F_ 0.920126 0.321966 0.911816 -0.20885
F_ F_ 0.910385 0.323111 0.825184 -0.20885
F_ F_ 0.846718 0.302499 0.867286 -0.20885
F_ F_ 0.812801 0.457612 0.829357 -0.20885
F_ F_ 0.801137 0.379162 0.798482 -0.20885
F_ F_ 0.877932 0.409083 0.789779 -0.20885
F_ F_ 0.564271 0.165969 0.567913 -0.20885
F_ F_ 0.563634 0.181852 0.650226 -0.20885
F_ F_ 0.629603 0.197538 0.608562 -0.20885
F_ F_ 0.672074 0.0500263 0.675286 -0.20885
F_ F_ 0.672267 0.131792 0.692404 -0.20885
F_ F_ 0.602572 0.104657 0.701101 -0.20885
Zn Zn 0.582057 0.583647 0.345137 0.83971
Zn Zn 0.662884 0.844171 0.0794165 0.83971
Zn Zn 0.911783 0.908883 0.155912 0.83971
Zn Zn 0.838335 0.654672 0.417697 0.83971
H_ H_ 0.661966 0.632292 0.300312 0.10394
H_ H_ 0.743037 0.594547 0.266453 0.10394
H_ H_ 0.732782 0.956539 0.309001 0.10394
H_ H_ 0.614036 0.483003 0.298557 0.10394
H_ H_ 0.0240828 0.586981 0.249714 0.10394
H_ H_ 0.988662 0.660344 0.198411 0.10394
H_ H_ 0.533016 0.770372 0.333518 0.10394
H_ H_ 0.575034 0.692395 0.378112 0.10394
H_ H_ 0.528939 0.944858 0.365636 0.10394
H_ H_ 0.991207 0.890156 0.409674 0.10394
H_ H_ 0.854211 0.990644 0.383931 0.10394
H_ H_ 0.588038 0.788962 0.123653 0.10394
H_ H_ 0.99798545 0.779895 0.0940557 0.10394
H_ H_ 0.542245 0.78458 0.44556 0.10394
H_ H_ 0.621877 0.818682 0.974325 0.10394
H_ H_ 0.72301 0.752323 0.0900563 0.10394
H_ H_ 0.771225 0.706925 0.158665 0.10394
H_ H_ 0.719795 0.830385 0.267202 0.10394
H_ H_ 0.675465 0.873623 0.190576 0.10394
H_ H_ 0.719495 0.876854 0.432361 0.10394
H_ H_ 0.779829 0.868128 0.371307 0.10394
H_ H_ 0.893745 0.917366 0.48462 0.10394
H_ H_ 0.811624 0.885843 0.17284 0.10394
H_ H_ 0.734906 0.938567 0.203509 0.10394
H_ H_ 0.825552 0.542081 0.282233 0.10394
H_ H_ 0.89985 1.0103307 0.214083 0.10394
H_ H_ 0.517866 0.873862 0.181951 0.10394
H_ H_ 0.555404 0.806421 0.234844 0.10394
H_ H_ 0.914207 0.726498 0.203966 0.10394
H_ H_ 0.86835 0.810886 0.176753 0.10394
H_ H_ 0.955714 0.542071 0.109493 0.10394
H_ H_ 0.526189 0.626206 0.129955 0.10394
H_ H_ 0.644913 0.506074 0.0949341 0.10394
H_ H_ 0.945554 0.659869 0.392323 0.10394
H_ H_ 0.514078 0.689856 0.4506 0.10394
H_ H_ 0.913862 0.78093 0.0423908 0.10394
H_ H_ 0.84742 0.736573 0.493602 0.10394
H_ H_ 0.736251 0.698053 0.380284 0.10394
H_ H_ 0.694708 0.740116 0.303526 0.10394
H_ H_ 0.837665 0.710487 0.23586 0.10394
H_ H_ 0.881362 0.687765 0.326092 0.10394
H_ H_ 0.79442 0.612274 0.0575175 0.10394
H_ H_ 0.740447 0.609253 0.126569 0.10394
H_ H_ 0.615256 0.581191 0.0130728 0.10394
C_ C_ 0.673497 0.591346 0.302234 0.18167
C_ C_ 0.7206 0.569686 0.286084 -0.15533
C_ C_ 0.728831 0.516577 0.276553 0.02923
C_ C_ 0.713561 0.992326 0.298875 -0.15533
C_ C_ 0.645362 0.507596 0.301538 0.18167
C_ C_ 0.528311 0.63555 0.270685 0.18167
C_ C_ 0.0029891 0.66753 0.238542 -0.15533
C_ C_ 0.512792 0.727581 0.263356 0.02923
C_ C_ 0.533983 0.732709 0.313464 -0.15533
C_ C_ 0.559896 0.690184 0.338331 0.18167
C_ C_ 0.498864 0.550719 0.369574 0.69207
C_ C_ 0.976185 0.0139453 0.377411 0.02923
C_ C_ -0.0010580000000000034 0.964727 0.382877 -0.15533
C_ C_ 0.970486 0.926568 0.395492 -0.15533
C_ C_ 0.917158 0.93232 0.391622 0.02923
C_ C_ 0.894084 0.983489 0.388486 -0.15533
C_ C_ 0.923201 0.022393 0.377165 0.02923
C_ C_ 0.89515 0.568616 0.39253 0.69207
C_ C_ 0.914279 0.832661 0.389714 0.69661
C_ C_ 0.575683 0.792439 0.0839592 0.18167
C_ C_ 0.527544 0.778437 0.0622686 -0.15533
C_ C_ 0.516196 0.770768 0.00995689 0.02923
C_ C_ 0.547436 0.792303 0.488324 -0.15533
C_ C_ 0.596269 0.804018 0.000280000000000058 0.18167
C_ C_ 0.728135 0.771081 0.127109 0.18167
C_ C_ 0.749944 0.741381 0.167439 -0.15533
C_ C_ 0.744711 0.761191 0.220459 0.02923
C_ C_ 0.720881 0.813355 0.226696 -0.15533
C_ C_ 0.699577 0.838213 0.185286 0.18167
C_ C_ 0.742132 0.881452 0.0445549 0.69207
C_ C_ 0.777885 0.879071 0.499278 0.02923
C_ C_ 0.759165 0.874393 0.445975 -0.15533
C_ C_ 0.792161 0.878345 0.410546 -0.15533
C_ C_ 0.843788 0.890192 0.421622 0.02923
C_ C_ 0.857833 0.903457 0.473544 -0.15533
C_ C_ 0.828077 0.893018 0.512545 0.02923
C_ C_ 0.849871 0.891365 0.0698453 0.69207
C_ C_ 0.86365 0.893354 0.325853 0.69661
C_ C_ 0.815425 0.922843 0.193551 0.18167
C_ C_ 0.771493 0.954035 0.205361 -0.15533
C_ C_ 0.77594 0.999124 0.236099 0.02923
C_ C_ 0.819099 0.511969 0.251528 -0.15533
C_ C_ 0.865673 0.993247 0.213931 0.18167
C_ C_ 0.990384 0.840918 0.197404 0.18167
C_ C_ 0.51677 0.808056 0.222782 -0.15533
C_ C_ 0.983845 0.763393 0.234016 0.02923
C_ C_ 0.933787 0.763112 0.210216 -0.15533
C_ C_ 0.91131 0.806859 0.186461 0.18167
C_ C_ 0.986965 0.947897 0.121222 0.69207
C_ C_ 0.52959 0.497728 0.131647 0.02923
C_ C_ 0.51385 0.549653 0.141146 -0.15533
C_ C_ 0.542684 0.585637 0.124653 -0.15533
C_ C_ 0.591926 0.571641 0.109941 0.02923
C_ C_ 0.608034 0.519626 0.107438 -0.15533
C_ C_ 0.577796 0.482621 0.117026 0.02923
C_ C_ 0.597327 0.92499 0.103529 0.69207
C_ C_ 0.614265 0.666335 0.115819 0.69661
C_ C_ 0.941418 0.678971 0.429531 0.18167
C_ C_ 0.981416 0.700362 0.455989 -0.15533
C_ C_ 0.9762 0.739096 0.494439 0.02923
C_ C_ 0.922559 0.749898 1.0140903 -0.15533
C_ C_ 0.886254 0.728117 0.483381 0.18167
C_ C_ 0.759499 0.701919 0.349389 0.18167
C_ C_ 0.737042 0.726429 0.306812 -0.15533
C_ C_ 0.765931 0.731522 0.266896 0.02923
C_ C_ 0.817417 0.708583 0.269777 -0.15533
C_ C_ 0.839767 0.690626 0.316864 0.18167
C_ C_ 0.761601 0.624921 0.451091 0.69207
C_ C_ 0.731063 0.61598 0.997668 0.02923
C_ C_ 0.75412 0.61378 0.0476864 -0.15533
C_ C_ 0.722716 0.607879 0.0865735 -0.15533
C_ C_ 0.670469 0.601357 0.0751948 0.02923
C_ C_ 0.651453 0.596355 0.0236631 -0.15533
C_ C_ 0.681883 0.601332 0.984122 0.02923
C_ C_ 0.648932 0.612575 0.421012 0.69207
C_ C_ 0.65558 0.601439 0.172377 0.69661
C_ C_ 0.884824 0.886591 0.382824 -0.30787
C_ C_ 0.632589 0.60978 0.116717 -0.30787
N_ N_ 0.638498 0.560006 0.311487 -0.32189
N_ N_ 0.557468 0.643381 0.315849 -0.32189
N_ N_ 0.607222 0.80583 0.0514181 -0.32189
N_ N_ 0.698063 0.815819 0.137399 -0.32189
N_ N_ 0.862014 0.941724 0.195747 -0.32189
N_ N_ 0.941544 0.845576 0.182511 -0.32189
N_ N_ 0.894212 0.693592 0.44231 -0.32189
N_ N_ 0.809308 0.685662 0.354161 -0.32189
O_ O_ 0.00749863 0.587542 0.4 -0.63271
O_ O_ 0.529095 0.544434 0.334689 -0.57982
O_ O_ 0.897094 0.59639 0.353297 -0.63271
O_ O_ 0.865255 0.588764 0.425241 -0.57982
O_ O_ 0.743513 0.906774 0.0887005 -0.63271
O_ O_ 0.704673 0.849377 0.0338242 -0.57982
O_ O_ 0.86033 0.844088 0.0825429 -0.63271
O_ O_ 0.873125 0.926047 0.0965343 -0.57982
O_ O_ 0.492683 0.909032 0.0941969 -0.63271
O_ O_ 0.961238 0.9531 0.159098 -0.57982
O_ O_ 0.596692 0.897219 0.143158 -0.63271
O_ O_ 0.632268 0.91 0.0728288 -0.57982
O_ O_ 0.75924 0.603039 0.40678 -0.63271
O_ O_ 0.795867 0.655852 0.468133 -0.57982
O_ O_ 0.65648 0.648161 0.391206 -0.63271
O_ O_ 0.609445 0.587841 0.4097 -0.57982
F_ F_ 0.93287 0.830283 0.441199 -0.20885
F_ F_ 0.956517 0.818901 0.361815 -0.20885
F_ F_ 0.883011 0.792356 0.379493 -0.20885
F_ F_ 0.827406 0.935908 0.318576 -0.20885
F_ F_ 0.836083 0.854076 0.303728 -0.20885
F_ F_ 0.904149 0.896776 0.296445 -0.20885
F_ F_ 0.573643 0.674042 0.0774976 -0.20885
F_ F_ 0.596176 0.690762 0.160723 -0.20885
F_ F_ 0.651502 0.695425 0.103674 -0.20885
F_ F_ 0.684561 0.555731 0.177974 -0.20885
F_ F_ 0.684952 0.640676 0.193538 -0.20885
F_ F_ 0.620359 0.605144 0.207365 -0.20885
Zn Zn 0.586261 0.592351 0.859937 0.83971
Zn Zn 0.663681 0.848372 0.58244 0.83971
Zn Zn 0.908852 0.915819 0.650299 0.83971
Zn Zn 0.836547 0.65893 0.917028 0.83971
H_ H_ 0.65257 0.63512 0.785912 0.10394
H_ H_ 0.728837 0.608568 0.755652 0.10394
H_ H_ 0.71773 0.938051 0.796634 0.10394
H_ H_ 0.640789 0.490236 0.843303 0.10394
H_ H_ 0.0231528 0.59892 0.75184 0.10394
H_ H_ 0.994281 0.678612 0.702595 0.10394
H_ H_ 0.535927 0.773915 0.826605 0.10394
H_ H_ 0.580331 0.70097 0.874407 0.10394
H_ H_ 0.534857 0.93987 0.856278 0.10394
H_ H_ 0.992028 0.87869 0.88312 0.10394
H_ H_ 0.858713 0.987334 0.905268 0.10394
H_ H_ 0.584959 0.800256 0.635323 0.10394
H_ H_ -0.0017650000000000166 0.777718 0.594179 0.10394
H_ H_ 0.544821 0.782375 0.93707 0.10394
H_ H_ 0.618753 0.821264 0.482647 0.10394
H_ H_ 0.726783 0.754976 0.597452 0.10394
H_ H_ 0.771247 0.714227 0.669022 0.10394
H_ H_ 0.708955 0.834901 0.768819 0.10394
H_ H_ 0.678336 0.882753 0.694811 0.10394
H_ H_ 0.72389 0.865647 0.937954 0.10394
H_ H_ 0.781187 0.864845 0.878034 0.10394
H_ H_ 0.895951 0.920938 0.995009 0.10394
H_ H_ 0.804288 0.89537 0.653106 0.10394
H_ H_ 0.730949 0.944472 0.688351 0.10394
H_ H_ 0.828057 0.563437 0.774493 0.10394
H_ H_ 0.905272 0.987762 0.738457 0.10394
H_ H_ 0.509418 0.890177 0.710724 0.10394
H_ H_ 0.547997 0.813704 0.758288 0.10394
H_ H_ 0.91143 0.750634 0.726165 0.10394
H_ H_ 0.872856 0.82442 0.683052 0.10394
H_ H_ 0.960387 0.567111 0.616407 0.10394
H_ H_ 0.51908 0.614155 0.609732 0.10394
H_ H_ 0.649311 0.505609 0.601129 0.10394
H_ H_ 0.937048 0.662506 0.897329 0.10394
H_ H_ 0.51154 0.685977 0.939688 0.10394
H_ H_ 0.919409 0.784145 0.533675 0.10394
H_ H_ 0.842911 0.739897 0.997177 0.10394
H_ H_ 0.729562 0.681793 0.872413 0.10394
H_ H_ 0.692525 0.724614 0.792192 0.10394
H_ H_ 0.842588 0.738951 0.756332 0.10394
H_ H_ 0.877459 0.701854 0.834851 0.10394
H_ H_ 0.784925 0.615204 0.548693 0.10394
H_ H_ 0.735635 0.600587 0.61385 0.10394
H_ H_ 0.603156 0.59823 0.507189 0.10394
C_ C_ 0.670366 0.600582 0.802683 0.18167
C_ C_ 0.715525 0.585052 0.782742 -0.15533
C_ C_ 0.734104 0.531249 0.781385 0.02923
C_ C_ 0.705556 0.975782 0.794121 -0.15533
C_ C_ 0.662763 0.516638 0.825251 0.18167
C_ C_ 0.524035 0.634601 0.779612 0.18167
C_ C_ 0.00883215 0.683078 0.742955 -0.15533
C_ C_ 0.505581 0.725255 0.765237 0.02923
C_ C_ 0.535012 0.734737 0.811839 -0.15533
C_ C_ 0.558381 0.69379 0.839304 0.18167
C_ C_ 0.509508 0.547969 0.872455 0.69207
C_ C_ 0.981119 0.0101773 0.883563 0.02923
C_ C_ 0.0006699999999999484 0.958402 0.876659 -0.15533
C_ C_ 0.972926 0.918621 0.8878 -0.15533
C_ C_ 0.920957 0.929731 0.896359 0.02923
C_ C_ 0.899113 0.981074 0.902317 -0.15533
C_ C_ 0.927867 0.0227029 0.893299 0.02923
C_ C_ 0.894022 0.575341 0.885898 0.69207
C_ C_ 0.911067 0.829729 0.89531 0.69661
C_ C_ 0.576358 0.796437 0.59193 0.18167
C_ C_ 0.530092 0.777459 0.572835 -0.15533
C_ C_ 0.516906 0.772188 0.52001 0.02923
C_ C_ 0.552573 0.783585 0.978339 -0.15533
C_ C_ 0.594664 0.808406 0.50765 0.18167
C_ C_ 0.723311 0.774572 0.634948 0.18167
C_ C_ 0.749629 0.749973 0.676629 -0.15533
C_ C_ 0.739506 0.767873 0.726279 0.02923
C_ C_ 0.7099 0.814801 0.734502 -0.15533
C_ C_ 0.690696 0.841949 0.690533 0.18167
C_ C_ 0.743774 0.871166 0.537806 0.69207
C_ C_ 0.777799 0.887687 1.00573718 0.02923
C_ C_ 0.760563 0.878967 0.953434 -0.15533
C_ C_ 0.796051 0.876364 0.916205 -0.15533
C_ C_ 0.846294 0.892016 0.929409 0.02923
C_ C_ 0.861725 0.903704 0.980976 -0.15533
C_ C_ 0.827319 0.899127 0.0191104 0.02923
C_ C_ 0.852074 0.889389 0.566072 0.69207
C_ C_ 0.860144 0.884852 0.833949 0.69661
C_ C_ 0.810058 0.925428 0.680351 0.18167
C_ C_ 0.768625 0.952111 0.702918 -0.15533
C_ C_ 0.779074 -0.016271999999999953 0.747629 0.02923
C_ C_ 0.818719 0.532351 0.747253 -0.15533
C_ C_ 0.8676 0.972121 0.733212 0.18167
C_ C_ 0.98973 0.860243 0.70227 0.18167
C_ C_ 0.510728 0.811363 0.732854 -0.15533
C_ C_ 0.988797 0.775548 0.736307 0.02923
C_ C_ 0.937197 0.776893 0.717428 -0.15533
C_ C_ 0.912655 0.821002 0.695862 0.18167
C_ C_ 0.980318 0.958858 0.62076 0.69207
C_ C_ 0.523675 0.489223 0.613929 0.02923
C_ C_ 0.503932 0.540237 0.610841 -0.15533
C_ C_ 0.535444 0.576693 0.609471 -0.15533
C_ C_ 0.588492 0.565798 0.602958 0.02923
C_ C_ 0.608398 0.515478 0.601786 -0.15533
C_ C_ 0.578452 0.476855 0.612281 0.02923
C_ C_ 0.591799 0.922752 0.611696 0.69207
C_ C_ 0.602761 0.667878 0.608493 0.69661
C_ C_ 0.934559 0.678971 0.934862 0.18167
C_ C_ 0.977938 0.697113 0.959776 -0.15533
C_ C_ 0.972233 0.734707 1.000000983069 0.02923
C_ C_ 0.926095 0.752872 0.507474 -0.15533
C_ C_ 0.882053 0.724764 0.991601 0.18167
C_ C_ 0.752829 0.699917 0.847382 0.18167
C_ C_ 0.731398 0.721946 0.802638 -0.15533
C_ C_ 0.762911 0.741525 0.771823 0.02923
C_ C_ 0.816078 0.730998 0.781767 -0.15533
C_ C_ 0.837263 0.708036 0.825816 0.18167
C_ C_ 0.764812 0.623614 0.956893 0.69207
C_ C_ 0.726166 0.614469 0.487896 0.02923
C_ C_ 0.745346 0.612141 0.538705 -0.15533
C_ C_ 0.716571 0.601645 0.575732 -0.15533
C_ C_ 0.662873 0.601714 0.564918 0.02923
C_ C_ 0.642366 0.604859 0.515813 -0.15533
C_ C_ 0.672711 0.612108 0.474959 0.02923
C_ C_ 0.655647 0.609021 0.933496 0.69207
C_ C_ 0.65303 0.606283 0.662482 0.69661
C_ C_ 0.884165 0.886189 0.890012 -0.30787
C_ C_ 0.625376 0.609297 0.607462 -0.30787
N_ N_ 0.644397 0.56735 0.823876 -0.32189
N_ N_ 0.557259 0.647988 0.818718 -0.32189
N_ N_ 0.608317 0.809733 0.559427 -0.32189
N_ N_ 0.693158 0.818347 0.642711 -0.32189
N_ N_ 0.859987 0.936834 0.69454 -0.32189
N_ N_ 0.940258 0.858516 0.684393 -0.32189
N_ N_ 0.888192 0.691217 0.951342 -0.32189
N_ N_ 0.805312 0.694821 0.858989 -0.32189
O_ O_ 1.00012 0.59433 0.877644 -0.63271
O_ O_ 0.548543 0.539405 0.846658 -0.57982
O_ O_ 0.89215 0.602695 0.845923 -0.63271
O_ O_ 0.863054 0.591881 0.924548 -0.57982
O_ O_ 0.745212 0.899724 0.579172 -0.63271
O_ O_ 0.708596 0.838878 0.531863 -0.57982
O_ O_ 0.859696 0.845757 0.586238 -0.63271
O_ O_ 0.876949 0.925037 0.587457 -0.57982
O_ O_ 0.489582 0.903643 0.604753 -0.63271
O_ O_ 0.948944 0.967326 0.655456 -0.57982
O_ O_ 0.589008 0.897676 0.651852 -0.63271
O_ O_ 0.630077 0.9116 0.583706 -0.57982
O_ O_ 0.761228 0.599827 0.911409 -0.63271
O_ O_ 0.790326 0.663214 0.963497 -0.57982
O_ O_ 0.654131 0.65287 0.912153 -0.63271
O_ O_ 0.618816 0.579673 0.919385 -0.57982
F_ F_ 0.945651 0.824425 0.940749 -0.20885
F_ F_ 0.940233 0.815903 0.856186 -0.20885
F_ F_ 0.874959 0.793595 0.896203 -0.20885
F_ F_ 0.824238 0.924762 0.832091 -0.20885
F_ F_ 0.83645 0.841202 0.815617 -0.20885
F_ F_ 0.894974 0.890231 0.799035 -0.20885
F_ F_ 0.562067 0.671999 0.57041 -0.20885
F_ F_ 0.577403 0.6884 0.649709 -0.20885
F_ F_ 0.640095 0.700281 0.60265 -0.20885
F_ F_ 0.683501 0.560638 0.66999 -0.20885
F_ F_ 0.683925 0.645512 0.672942 -0.20885
F_ F_ 0.617524 0.615324 0.698021 -0.20885
_cell_length_a 26.508
_cell_length_b 26.37200000322088
_cell_length_c 26.311999743092066
_cell_angle_alpha 93.74100058972084
_cell_angle_beta 96.04100104955006
_cell_angle_gamma 83.6869992558723
_symmetry_space_group_name_H-M         'P 1'
_symmetry_Int_Tables_number            1
loop_
_symmetry_equiv_pos_as_xyz
   'x, y, z'
                         
loop_
_atom_site_label
_atom_site_type_symbol
_atom_site_fract_x 
_atom_site_fract_y
_atom_site_fract_z
_atom_site_charge
Zn Zn 0.0875675 0.0890515 0.344017 0.83971
Zn Zn 0.164428 0.340226 0.0818583 0.83971
Zn Zn 0.406128 0.421447 0.152847 0.83971
Zn Zn 0.342669 0.159879 0.419325 0.83971
H_ H_ 0.174517 0.135156 0.309341 0.10394
H_ H_ 0.24608 0.0991071 0.269464 0.10394
H_ H_ 0.226059 0.448744 0.308114 0.10394
H_ H_ 0.123665 0.987147 0.315714 0.10394
H_ H_ 0.525851 0.101907 0.25549 0.10394
H_ H_ 0.486016 0.183817 0.208892 0.10394
H_ H_ 0.00410016 0.262019 0.32529 0.10394
H_ H_ 0.0599938 0.194512 0.374899 0.10394
H_ H_ 0.0306176 0.44029 0.375845 0.10394
H_ H_ 0.483079 0.384123 0.380993 0.10394
H_ H_ 0.351506 0.489592 0.415029 0.10394
H_ H_ 0.0763207 0.300198 0.128588 0.10394
H_ H_ 0.486769 0.285674 0.100868 0.10394
H_ H_ 0.036223 0.287086 0.452222 0.10394
H_ H_ 0.12154 0.319084 0.981079 0.10394
H_ H_ 0.212386 0.235295 0.095894 0.10394
H_ H_ 0.244761 0.190511 0.172877 0.10394
H_ H_ 0.217533 0.333212 0.260688 0.10394
H_ H_ 0.175942 0.372659 0.183237 0.10394
H_ H_ 0.219578 0.354185 0.45025 0.10394
H_ H_ 0.272682 0.366647 0.383725 0.10394
H_ H_ 0.390295 0.414324 0.499501 0.10394
H_ H_ 0.311474 0.404014 0.157456 0.10394
H_ H_ 0.238293 0.443621 0.208528 0.10394
H_ H_ 0.326535 0.0433747 0.273124 0.10394
H_ H_ 0.408856 0.505787 0.238108 0.10394
H_ H_ 0.00716764 0.383867 0.198613 0.10394
H_ H_ 0.0461761 0.305684 0.232016 0.10394
H_ H_ 0.417295 0.255976 0.241043 0.10394
H_ H_ 0.378402 0.324847 0.187885 0.10394
H_ H_ 0.460745 0.0575512 0.116725 0.10394
H_ H_ 0.0221907 0.116781 0.114405 0.10394
H_ H_ 0.143974 -0.00174646 0.0853028 0.10394
H_ H_ 0.43698 0.168316 0.402563 0.10394
H_ H_ 0.0151855 0.193236 0.47053 0.10394
H_ H_ 0.411506 0.274537 0.0485865 0.10394
H_ H_ 0.34239 0.245955 0.503443 0.10394
H_ H_ 0.242686 0.214747 0.391577 0.10394
H_ H_ 0.198901 0.246494 0.313893 0.10394
H_ H_ 0.337101 0.211137 0.238323 0.10394
H_ H_ 0.378053 0.179292 0.321279 0.10394
H_ H_ 0.288281 0.112714 0.0585665 0.10394
H_ H_ 0.235174 0.0948535 0.120428 0.10394
H_ H_ 0.106141 0.104772 0.00633402 0.10394
C_ C_ 0.179886 0.092525 0.303525 0.18167
C_ C_ 0.223646 0.0720851 0.281957 -0.15533
C_ C_ 0.231288 0.0179364 0.270077 0.02923
C_ C_ 0.211659 0.487085 0.300533 -0.15533
C_ C_ 0.152258 0.0116504 0.30827 0.18167
C_ C_ 0.0262131 0.132729 0.261461 0.18167
C_ C_ 0.514728 0.185585 0.244363 -0.15533
C_ C_ -0.0034650000000000514 0.223803 0.256355 0.02923
C_ C_ 0.0171235 0.229876 0.307015 -0.15533
C_ C_ 0.0443607 0.189446 0.334176 0.18167
C_ C_ 0.00605582 0.0555717 0.364377 0.69207
C_ C_ 0.468777 0.509533 0.383124 0.02923
C_ C_ 0.49087 0.459702 0.385594 -0.15533
C_ C_ 0.462534 0.419712 0.392518 -0.15533
C_ C_ 0.410323 0.429764 0.400001 0.02923
C_ C_ 0.391361 0.479799 0.408428 -0.15533
C_ C_ 0.418225 0.518766 0.39293 0.02923
C_ C_ 0.394768 0.0728732 0.383535 0.69207
C_ C_ 0.403764 0.330418 0.39507 0.69661
C_ C_ 0.0723822 0.294229 0.087013 0.18167
C_ C_ 0.0267164 0.27754 0.0663609 -0.15533
C_ C_ 0.0111398 0.277643 0.0146287 0.02923
C_ C_ 0.047642 0.292207 0.493076 -0.15533
C_ C_ 0.0965682 0.305722 0.00548169 0.18167
C_ C_ 0.216975 0.257981 0.132847 0.18167
C_ C_ 0.234443 0.231577 0.176764 -0.15533
C_ C_ 0.239243 0.260715 0.223158 0.02923
C_ C_ 0.221445 0.312372 0.224582 -0.15533
C_ C_ 0.200321 0.338882 0.180748 0.18167
C_ C_ 0.245135 0.373018 0.0428986 0.69207
C_ C_ 0.273326 0.372959 0.514021 0.02923
C_ C_ 0.257134 0.3621 0.461672 -0.15533
C_ C_ 0.28768 0.372438 0.423879 -0.15533
C_ C_ 0.336515 0.389984 0.435362 0.02923
C_ C_ 0.350684 0.403893 0.489084 -0.15533
C_ C_ 0.322736 0.390498 0.528452 0.02923
C_ C_ 0.362693 0.383798 0.0674566 0.69207
C_ C_ 0.35058 0.389676 0.337755 0.69661
C_ C_ 0.315844 0.434861 0.186448 0.18167
C_ C_ 0.276006 0.45689 0.21372 -0.15533
C_ C_ 0.284173 0.496949 0.249749 0.02923
C_ C_ 0.320772 0.0130487 0.248974 -0.15533
C_ C_ 0.371682 0.492684 0.229281 0.18167
C_ C_ 0.495705 0.361465 0.201805 0.18167
C_ C_ 0.00442451 0.310465 0.22417 -0.15533
C_ C_ 0.491767 0.28063 0.243474 0.02923
C_ C_ 0.439251 0.286427 0.231162 -0.15533
C_ C_ 0.417483 0.325457 0.199606 0.18167
C_ C_ 0.487023 0.460344 0.126808 0.69207
C_ C_ 0.0221524 0.986062 0.112969 0.02923
C_ C_ 0.00295802 0.0383932 0.112712 -0.15533
C_ C_ 0.0361392 0.0761334 0.105911 -0.15533
C_ C_ 0.0880597 0.0608454 0.100122 0.02923
C_ C_ 0.105214 0.00849956 0.0942739 -0.15533
C_ C_ 0.0744309 0.971769 0.102867 0.02923
C_ C_ 0.0945262 0.41634 0.104355 0.69207
C_ C_ 0.107813 0.157045 0.112793 0.69661
C_ C_ 0.433971 0.187506 0.437095 0.18167
C_ C_ 0.475699 0.21067 0.459627 -0.15533
C_ C_ 0.472054 0.247825 0.49953 0.02923
C_ C_ 0.420168 0.252237 0.0149614 -0.15533
C_ C_ 0.381441 0.231458 0.495996 0.18167
C_ C_ 0.264859 0.216313 0.359857 0.18167
C_ C_ 0.237849 0.23559 0.314124 -0.15533
C_ C_ 0.263847 0.235596 0.270377 0.02923
C_ C_ 0.314493 0.213942 0.271607 -0.15533
C_ C_ 0.338674 0.193695 0.317787 0.18167
C_ C_ 0.260957 0.125135 0.454243 0.69207
C_ C_ 0.23178 0.113249 0.995881 0.02923
C_ C_ 0.250364 0.106951 0.0456467 -0.15533
C_ C_ 0.217804 0.0969695 0.0812635 -0.15533
C_ C_ 0.166304 0.0945543 0.0687913 0.02923
C_ C_ 0.148059 0.101473 0.019 -0.15533
C_ C_ 0.180054 0.109849 0.982558 0.02923
C_ C_ 0.145132 0.115982 0.426617 0.69207
C_ C_ 0.15279 0.0888501 0.167375 0.69661
C_ C_ 0.376188 0.384914 0.393875 -0.30787
C_ C_ 0.128054 0.0995013 0.111528 -0.30787
N_ N_ 0.143054 0.0626331 0.31048 -0.32189
N_ N_ 0.0497047 0.142446 0.309627 -0.32189
N_ N_ 0.106813 0.307062 0.0561995 -0.32189
N_ N_ 0.201208 0.30944 0.136694 -0.32189
N_ N_ 0.363211 0.449499 0.19783 -0.32189
N_ N_ 0.443904 0.362536 0.186971 -0.32189
N_ N_ 0.388782 0.198035 0.457052 -0.32189
N_ N_ 0.312575 0.194006 0.359816 -0.32189
O_ O_ 0.503458 0.0929806 0.387387 -0.63271
O_ O_ 0.0410373 0.0445429 0.334262 -0.57982
O_ O_ 0.388943 0.0919998 0.338776 -0.63271
O_ O_ 0.369597 0.0965859 0.418354 -0.57982
O_ O_ 0.246894 0.400354 0.085946 -0.63271
O_ O_ 0.208218 0.341383 0.0331163 -0.57982
O_ O_ 0.35778 0.347611 0.0966742 -0.63271
O_ O_ 0.385598 0.422717 0.0871851 -0.57982
O_ O_ 0.983703 0.40092 0.0947013 -0.63271
O_ O_ 0.452181 0.469582 0.159818 -0.57982
O_ O_ 0.0873242 0.388867 0.143587 -0.63271
O_ O_ 0.130367 0.40374 0.0732811 -0.57982
O_ O_ 0.253892 0.108986 0.406964 -0.63271
O_ O_ 0.300307 0.151893 0.467013 -0.57982
O_ O_ 0.147095 0.154888 0.39916 -0.63271
O_ O_ 0.111595 0.0855155 0.410357 -0.57982
F_ F_ 0.439574 0.328983 0.437727 -0.20885
F_ F_ 0.42682 0.317495 0.352147 -0.20885
F_ F_ 0.375024 0.29128 0.399387 -0.20885
F_ F_ 0.310942 0.427434 0.336972 -0.20885
F_ F_ 0.327581 0.348269 0.317685 -0.20885
F_ F_ 0.38448 0.398124 0.303977 -0.20885
F_ F_ 0.0728283 0.170982 0.0687578 -0.20885
F_ F_ 0.0830993 0.171796 0.157325 -0.20885
F_ F_ 0.14714 0.191146 0.115682 -0.20885
F_ F_ 0.187371 0.045885 0.167302 -0.20885
F_ F_ 0.176264 0.129624 0.191758 -0.20885
F_ F_ 0.115686 0.0815912 0.19991 -0.20885
Zn Zn 0.0897422 0.0892848 0.847807 0.83971
Zn Zn 0.154471 0.351192 0.591457 0.83971
Zn Zn 0.40966 0.411683 0.659007 0.83971
Zn Zn 0.343682 0.150998 0.916169 0.83971
H_ H_ 0.17067 0.138684 0.799762 0.10394
H_ H_ 0.250281 0.0957564 0.767469 0.10394
H_ H_ 0.220878 0.444589 0.801339 0.10394
H_ H_ 0.131416 0.995634 0.832839 0.10394
H_ H_ 0.525239 0.0909428 0.754558 0.10394
H_ H_ 0.493583 0.166419 0.709227 0.10394
H_ H_ 0.0359693 0.278626 0.826891 0.10394
H_ H_ 0.0737418 0.203179 0.878225 0.10394
H_ H_ 0.0305012 0.445046 0.860304 0.10394
H_ H_ 0.487981 0.376063 0.86925 0.10394
H_ H_ 0.36439 0.481901 0.924199 0.10394
H_ H_ 0.0843047 0.304217 0.639337 0.10394
H_ H_ 0.508243 0.265039 0.599312 0.10394
H_ H_ 0.041341 0.29152 0.942832 0.10394
H_ H_ 0.115423 0.32621 0.485469 0.10394
H_ H_ 0.216674 0.253643 0.601024 0.10394
H_ H_ 0.243923 0.202362 0.676468 0.10394
H_ H_ 0.214479 0.33589 0.776861 0.10394
H_ H_ 0.164461 0.37899 0.703462 0.10394
H_ H_ 0.224321 0.378542 0.9435 0.10394
H_ H_ 0.277941 0.381172 0.877026 0.10394
H_ H_ 0.40471 0.395008 0.988321 0.10394
H_ H_ 0.308929 0.395088 0.670107 0.10394
H_ H_ 0.237315 0.444944 0.711383 0.10394
H_ H_ 0.329024 0.0427242 0.779152 0.10394
H_ H_ 0.408349 0.505257 0.729518 0.10394
H_ H_ -0.0034682 0.401507 0.702002 0.10394
H_ H_ 0.0499531 0.325815 0.745412 0.10394
H_ H_ 0.402597 0.249962 0.742377 0.10394
H_ H_ 0.366438 0.32463 0.69694 0.10394
H_ H_ 0.453695 0.0544248 0.607216 0.10394
H_ H_ 0.0176611 0.121821 0.623936 0.10394
H_ H_ 0.141962 0.00404332 0.594296 0.10394
H_ H_ 0.446955 0.157737 0.900708 0.10394
H_ H_ 0.0121407 0.198353 0.943598 0.10394
H_ H_ 0.417216 0.293638 0.540724 0.10394
H_ H_ 0.34237 0.239465 -0.002139000000000002 0.10394
H_ H_ 0.24599 0.205538 0.896053 0.10394
H_ H_ 0.190048 0.233872 0.820311 0.10394
H_ H_ 0.327033 0.215227 0.739449 0.10394
H_ H_ 0.37042 0.173937 0.814751 0.10394
H_ H_ 0.283296 0.128645 0.556951 0.10394
H_ H_ 0.235884 0.0813949 0.613377 0.10394
H_ H_ 0.103078 0.0917781 0.508307 0.10394
C_ C_ 0.177965 0.0977177 0.798528 0.18167
C_ C_ 0.223766 0.0750366 0.780094 -0.15533
C_ C_ 0.233858 0.0226576 0.773824 0.02923
C_ C_ 0.211884 0.487264 0.800378 -0.15533
C_ C_ 0.157109 0.0158789 0.81387 0.18167
C_ C_ 0.0366894 0.144672 0.769546 0.18167
C_ C_ 0.506617 0.172004 0.746777 -0.15533
C_ C_ 0.0103278 0.235159 0.763581 0.02923
C_ C_ 0.0335622 0.241257 0.811939 -0.15533
C_ C_ 0.0534146 0.199221 0.840427 0.18167
C_ C_ 0.012999 0.0492543 0.87213 0.69207
C_ C_ 0.476203 0.505496 0.876527 0.02923
C_ C_ 0.495645 0.455047 0.866288 -0.15533
C_ C_ 0.469735 0.415687 0.876514 -0.15533
C_ C_ 0.419248 0.423946 0.88984 0.02923
C_ C_ 0.398224 0.474676 0.902966 -0.15533
C_ C_ 0.422703 0.51537 0.888141 0.02923
C_ C_ 0.405595 0.0668489 0.885375 0.69207
C_ C_ 0.41613 0.325085 0.886839 0.69661
C_ C_ 0.0749778 0.299577 0.596431 0.18167
C_ C_ 0.0249738 0.289175 0.57962 -0.15533
C_ C_ 0.0112037 0.281263 0.52686 0.02923
C_ C_ 0.0480383 0.291921 0.984096 -0.15533
C_ C_ 0.093245 0.310287 0.511676 0.18167
C_ C_ 0.215063 0.27235 0.639089 0.18167
C_ C_ 0.231382 0.243253 0.681688 -0.15533
C_ C_ 0.231467 0.265037 0.731354 0.02923
C_ C_ 0.209346 0.316095 0.738924 -0.15533
C_ C_ 0.188364 0.342769 0.695629 0.18167
C_ C_ 0.239946 0.360373 0.554137 0.69207
C_ C_ 0.280887 0.381647 0.00776794 0.02923
C_ C_ 0.262432 0.380741 0.954681 -0.15533
C_ C_ 0.295025 0.3818 0.915239 -0.15533
C_ C_ 0.346618 0.384189 0.92551 0.02923
C_ C_ 0.365492 0.387268 0.977745 -0.15533
C_ C_ 0.336749 0.380408 0.0173522 0.02923
C_ C_ 0.349074 0.384233 0.579077 0.69207
C_ C_ 0.365314 0.378654 0.827452 0.69661
C_ C_ 0.315583 0.431583 0.692901 0.18167
C_ C_ 0.276925 0.453297 0.721686 -0.15533
C_ C_ 0.284867 0.499703 0.752955 0.02923
C_ C_ 0.323316 0.00897761 0.75279 -0.15533
C_ C_ 0.369639 0.495047 0.723587 0.18167
C_ C_ 0.487656 0.342903 0.70155 0.18167
C_ C_ 0.00952111 0.323612 0.72957 -0.15533
C_ C_ 0.48234 0.264707 0.739727 0.02923
C_ C_ 0.429629 0.271015 0.727282 -0.15533
C_ C_ 0.407348 0.313992 0.701282 0.18167
C_ C_ 0.489289 0.44923 0.622814 0.69207
C_ C_ 0.0162468 0.997749 0.615506 0.02923
C_ C_ 0.000728376 0.0493135 0.622057 -0.15533
C_ C_ 0.0353255 0.0846317 0.620773 -0.15533
C_ C_ 0.0848556 0.0718096 0.60661 0.02923
C_ C_ 0.101939 0.0186027 0.601764 -0.15533
C_ C_ 0.0692341 0.983537 0.611573 0.02923
C_ C_ 0.0909579 0.431489 0.602594 0.69207
C_ C_ 0.105335 0.165817 0.616404 0.69661
C_ C_ 0.440833 0.176863 0.938013 0.18167
C_ C_ 0.4804 0.202487 0.964511 -0.15533
C_ C_ 0.471575 0.239826 1.00296777 0.02923
C_ C_ 0.422955 0.260199 0.517096 -0.15533
C_ C_ 0.37975 0.22745 0.987482 0.18167
C_ C_ 0.261133 0.204225 0.860475 0.18167
C_ C_ 0.2321 0.225859 0.819809 -0.15533
C_ C_ 0.255777 0.234293 0.77576 0.02923
C_ C_ 0.30498 0.211945 0.772888 -0.15533
C_ C_ 0.331193 0.185422 0.813291 0.18167
C_ C_ 0.267194 0.120668 0.95633 0.69207
C_ C_ 0.2245 0.120521 0.492704 0.02923
C_ C_ 0.244159 0.120232 0.545377 -0.15533
C_ C_ 0.216429 0.102394 0.581145 -0.15533
C_ C_ 0.161331 0.103326 0.569983 0.02923
C_ C_ 0.140532 0.106012 0.520191 -0.15533
C_ C_ 0.170976 0.115121 0.480105 0.02923
C_ C_ 0.152224 0.114894 0.928348 0.69207
C_ C_ 0.15361 0.101304 0.668095 0.69661
C_ C_ 0.385253 0.378486 0.884176 -0.30787
C_ C_ 0.12574 0.109418 0.614649 -0.30787
N_ N_ 0.143239 0.0682511 0.809792 -0.32189
N_ N_ 0.0549162 0.151054 0.818029 -0.32189
N_ N_ 0.106016 0.312991 0.563163 -0.32189
N_ N_ 0.188345 0.319467 0.648027 -0.32189
N_ N_ 0.360974 0.451318 0.695878 -0.32189
N_ N_ 0.437712 0.349882 0.6913 -0.32189
N_ N_ 0.391016 0.191676 0.948651 -0.32189
N_ N_ 0.310579 0.185968 0.857986 -0.32189
O_ O_ 0.510301 0.0760784 0.903392 -0.63271
O_ O_ 0.04713 0.0399417 0.841457 -0.57982
O_ O_ 0.406925 0.091932 0.844115 -0.63271
O_ O_ 0.372134 0.0842148 0.916912 -0.57982
O_ O_ 0.239587 0.388735 0.596935 -0.63271
O_ O_ 0.199961 0.333514 0.540966 -0.57982
O_ O_ 0.353725 0.339521 0.600384 -0.63271
O_ O_ 0.384092 0.415627 0.59404 -0.57982
O_ O_ 0.977718 0.419112 0.595324 -0.63271
O_ O_ 0.45641 0.457736 0.657014 -0.57982
O_ O_ 0.0890664 0.409159 0.647772 -0.63271
O_ O_ 0.128545 0.416914 0.575918 -0.57982
O_ O_ 0.257553 0.104933 0.910012 -0.63271
O_ O_ 0.301589 0.154176 0.965416 -0.57982
O_ O_ 0.157636 0.155397 0.902699 -0.63271
O_ O_ 0.111391 0.0919092 0.914189 -0.57982
F_ F_ 0.449422 0.321453 0.929053 -0.20885
F_ F_ 0.435305 0.304574 0.844262 -0.20885
F_ F_ 0.380775 0.291203 0.891819 -0.20885
F_ F_ 0.33204 0.422785 0.825808 -0.20885
F_ F_ 0.336867 0.341487 0.805012 -0.20885
F_ F_ 0.403329 0.382459 0.79628 -0.20885
F_ F_ 0.0735822 0.176148 0.572418 -0.20885
F_ F_ 0.0849012 0.186879 0.660123 -0.20885
F_ F_ 0.14654 0.193029 0.613375 -0.20885
F_ F_ 0.175827 0.0504021 0.669232 -0.20885
F_ F_ 0.192595 0.130636 0.681746 -0.20885
F_ F_ 0.119281 0.105084 0.703096 -0.20885
Zn Zn 0.0904694 0.581308 0.348 0.83971
Zn Zn 0.162957 0.841354 0.0793667 0.83971
Zn Zn 0.404425 0.913992 0.15382 0.83971
Zn Zn 0.341659 0.661727 0.41556 0.83971
H_ H_ 0.172121 0.632735 0.302179 0.10394
H_ H_ 0.253941 0.599329 0.270774 0.10394
H_ H_ 0.194572 0.948019 0.274616 0.10394
H_ H_ 0.144229 0.484704 0.339666 0.10394
H_ H_ 0.524671 0.596847 0.254411 0.10394
H_ H_ 0.480059 0.674129 0.207712 0.10394
H_ H_ 0.038672 0.763019 0.327809 0.10394
H_ H_ 0.0663595 0.686653 0.374142 0.10394
H_ H_ 0.0409821 0.959011 0.380566 0.10394
H_ H_ 0.477616 0.878608 0.374975 0.10394
H_ H_ 0.350753 0.990704 0.405294 0.10394
H_ H_ 0.0814739 0.800171 0.126999 0.10394
H_ H_ 0.504999 0.767368 0.0874196 0.10394
H_ H_ 0.0484665 0.772038 0.44735 0.10394
H_ H_ 0.117038 0.813271 0.97414 0.10394
H_ H_ 0.211643 0.730715 0.0951082 0.10394
H_ H_ 0.239771 0.690984 0.178806 0.10394
H_ H_ 0.225631 0.837026 0.259197 0.10394
H_ H_ 0.172487 0.868112 0.18655 0.10394
H_ H_ 0.221654 0.851944 0.440837 0.10394
H_ H_ 0.270667 0.873186 0.370564 0.10394
H_ H_ 0.395817 0.904367 0.484675 0.10394
H_ H_ 0.30086 0.891175 0.1615 0.10394
H_ H_ 0.229086 0.940142 0.198938 0.10394
H_ H_ 0.338316 0.547792 0.283306 0.10394
H_ H_ 0.396926 0.00229534 0.223612 0.10394
H_ H_ 0.0150088 0.870029 0.189138 0.10394
H_ H_ 0.0487752 0.806463 0.243582 0.10394
H_ H_ 0.409498 0.751157 0.2325 0.10394
H_ H_ 0.3724 0.824953 0.179363 0.10394
H_ H_ 0.478026 0.560435 0.15437 0.10394
H_ H_ 0.00846014 0.611182 0.101065 0.10394
H_ H_ 0.137547 0.498265 0.0922232 0.10394
H_ H_ 0.437196 0.670593 0.394562 0.10394
H_ H_ 0.0193371 0.683528 0.451693 0.10394
H_ H_ 0.414472 0.788677 0.0311901 0.10394
H_ H_ 0.34423 0.749141 0.499039 0.10394
H_ H_ 0.236298 0.705547 0.389062 0.10394
H_ H_ 0.190662 0.736784 0.309252 0.10394
H_ H_ 0.334664 0.731258 0.243881 0.10394
H_ H_ 0.374223 0.693513 0.322669 0.10394
H_ H_ 0.27195 0.627888 0.057852 0.10394
H_ H_ 0.223405 0.589593 0.117635 0.10394
H_ H_ 0.0944684 0.589173 0.00677162 0.10394
C_ C_ 0.180329 0.590615 0.296806 0.18167
C_ C_ 0.227763 0.572213 0.280685 -0.15533
C_ C_ 0.242762 0.519255 0.278778 0.02923
C_ C_ 0.194256 0.989379 0.284248 -0.15533
C_ C_ 0.168323 0.508202 0.322152 0.18167
C_ C_ 0.0278218 0.625776 0.265408 0.18167
C_ C_ 0.505106 0.678368 0.243685 -0.15533
C_ C_ 0.00747887 0.718225 0.260792 0.02923
C_ C_ 0.0336517 0.725231 0.310811 -0.15533
C_ C_ 0.0521823 0.682219 0.336054 0.18167
C_ C_ 0.00726757 0.543709 0.374476 0.69207
C_ C_ 0.4696 0.00783945 0.370223 0.02923
C_ C_ 0.488492 0.954778 0.365544 -0.15533
C_ C_ 0.459735 0.918601 0.376997 -0.15533
C_ C_ 0.409973 0.928757 0.390612 0.02923
C_ C_ 0.39004 0.98027 0.396438 -0.15533
C_ C_ 0.418846 0.021049 0.386988 0.02923
C_ C_ 0.389223 0.571144 0.385578 0.69207
C_ C_ 0.400991 0.829753 0.384348 0.69661
C_ C_ 0.0738216 0.793549 0.0871531 0.18167
C_ C_ 0.0269086 0.778419 0.0694296 -0.15533
C_ C_ 0.015221 0.76624 0.0180729 0.02923
C_ C_ 0.0550958 0.781092 0.486474 -0.15533
C_ C_ 0.0958419 0.796294 0.00173109 0.18167
C_ C_ 0.210592 0.754572 0.133847 0.18167
C_ C_ 0.228434 0.729307 0.179192 -0.15533
C_ C_ 0.233529 0.758519 0.22552 0.02923
C_ C_ 0.223267 0.811794 0.224953 -0.15533
C_ C_ 0.199649 0.835212 0.18209 0.18167
C_ C_ 0.24153 0.8724 0.0393105 0.69207
C_ C_ 0.275593 0.872952 0.501273 0.02923
C_ C_ 0.255625 0.871121 0.450987 -0.15533
C_ C_ 0.28373 0.880362 0.41116 -0.15533
C_ C_ 0.335342 0.892692 0.422247 0.02923
C_ C_ 0.354971 0.89742 0.475083 -0.15533
C_ C_ 0.324793 0.887904 0.514103 0.02923
C_ C_ 0.354341 0.883021 0.067221 0.69207
C_ C_ 0.347303 0.893016 0.325884 0.69661
C_ C_ 0.307756 0.924461 0.188802 0.18167
C_ C_ 0.26672 0.952987 0.208941 -0.15533
C_ C_ 0.27493 0.993891 0.244438 0.02923
C_ C_ 0.33035 0.520181 0.251417 -0.15533
C_ C_ 0.360166 0.987639 0.221569 0.18167
C_ C_ 0.494314 0.849354 0.192484 0.18167
C_ C_ 0.0108733 0.804177 0.228045 -0.15533
C_ C_ 0.487385 0.772264 0.237355 0.02923
C_ C_ 0.43535 0.777054 0.219017 -0.15533
C_ C_ 0.414711 0.816353 0.186428 0.18167
C_ C_ 0.487093 0.952835 0.120477 0.69207
C_ C_ 0.0168652 0.48395 0.111789 0.02923
C_ C_ -0.0049000000000000155 0.533247 0.105313 -0.15533
C_ C_ 0.0258999 0.572271 0.101565 -0.15533
C_ C_ 0.0784798 0.560644 0.0957478 0.02923
C_ C_ 0.0994526 0.508704 0.0944725 -0.15533
C_ C_ 0.0691857 0.470961 0.10541 0.02923
C_ C_ 0.0968318 0.918026 0.103422 0.69207
C_ C_ 0.0939595 0.653544 0.110805 0.69661
C_ C_ 0.432742 0.695203 0.427079 0.18167
C_ C_ 0.476964 0.710063 0.456946 -0.15533
C_ C_ 0.472574 0.744918 0.498337 0.02923
C_ C_ 0.422644 0.757568 0.00432845 -0.15533
C_ C_ 0.382329 0.737171 0.489082 0.18167
C_ C_ 0.254788 0.702225 0.353359 0.18167
C_ C_ 0.233841 0.731477 0.312077 -0.15533
C_ C_ 0.259142 0.737669 0.271502 0.02923
C_ C_ 0.312228 0.724301 0.274281 -0.15533
C_ C_ 0.335048 0.698479 0.317169 0.18167
C_ C_ 0.26222 0.627885 0.454562 0.69207
C_ C_ 0.218263 0.61241 0.992415 0.02923
C_ C_ 0.235517 0.614558 0.0450831 -0.15533
C_ C_ 0.20704 0.597822 0.0787912 -0.15533
C_ C_ 0.156352 0.590246 0.066763 0.02923
C_ C_ 0.137902 0.589475 0.0142155 -0.15533
C_ C_ 0.16659 0.60467 0.977179 0.02923
C_ C_ 0.153305 0.606831 0.427574 0.69207
C_ C_ 0.140116 0.586834 0.165335 0.69661
C_ C_ 0.373635 0.885666 0.382324 -0.30787
C_ C_ 0.118142 0.597788 0.109503 -0.30787
N_ N_ 0.15009 0.558587 0.316866 -0.32189
N_ N_ 0.0508054 0.634551 0.313201 -0.32189
N_ N_ 0.106342 0.805406 0.053784 -0.32189
N_ N_ 0.195516 0.806009 0.136845 -0.32189
N_ N_ 0.354286 0.943883 0.193613 -0.32189
N_ N_ 0.443566 0.853191 0.175735 -0.32189
N_ N_ 0.386536 0.705396 0.446446 -0.32189
N_ N_ 0.306966 0.687764 0.355326 -0.32189
O_ O_ 0.500033 0.591995 0.400211 -0.63271
O_ O_ 0.0436997 0.532495 0.345873 -0.57982
O_ O_ 0.3929 0.59778 0.344195 -0.63271
O_ O_ 0.373096 0.597748 0.424299 -0.57982
O_ O_ 0.251791 0.889282 0.0879888 -0.63271
O_ O_ 0.207844 0.839771 0.0327181 -0.57982
O_ O_ 0.354293 0.841216 0.0908595 -0.63271
O_ O_ 0.379486 0.920118 0.0873669 -0.57982
O_ O_ 0.9829 0.907493 0.0894576 -0.63271
O_ O_ 0.451468 0.9606 0.151316 -0.57982
O_ O_ 0.0893679 0.89127 0.14124 -0.63271
O_ O_ 0.135383 0.904299 0.0777446 -0.57982
O_ O_ 0.258438 0.601929 0.410133 -0.63271
O_ O_ 0.29719 0.659682 0.463891 -0.57982
O_ O_ 0.14491 0.650333 0.402293 -0.63271
O_ O_ 0.123401 0.571219 0.411177 -0.57982
F_ F_ 0.434823 0.823625 0.425839 -0.20885
F_ F_ 0.427421 0.814081 0.344774 -0.20885
F_ F_ 0.364179 0.796285 0.386616 -0.20885
F_ F_ 0.311292 0.933158 0.318946 -0.20885
F_ F_ 0.327479 0.849212 0.306971 -0.20885
F_ F_ 0.38281 0.89421 0.293714 -0.20885
F_ F_ 0.0696108 0.667752 0.0632588 -0.20885
F_ F_ 0.063114 0.665418 0.148603 -0.20885
F_ F_ 0.131992 0.688723 0.119533 -0.20885
F_ F_ 0.174573 0.542078 0.16878 -0.20885
F_ F_ 0.170371 0.623365 0.185893 -0.20885
F_ F_ 0.107167 0.580317 0.198117 -0.20885
Zn Zn 0.0869145 0.582409 0.839643 0.83971
Zn Zn 0.159944 0.849806 0.580946 0.83971
Zn Zn 0.403833 0.916089 0.650886 0.83971
Zn Zn 0.331756 0.656163 0.92053 0.83971
H_ H_ 0.16912 0.633149 0.792573 0.10394
H_ H_ 0.253951 0.596379 0.771752 0.10394
H_ H_ 0.208972 0.953357 0.793166 0.10394
H_ H_ 0.140602 0.489708 0.835125 0.10394
H_ H_ 0.519892 0.594956 0.770072 0.10394
H_ H_ 0.476685 0.666805 0.71313 0.10394
H_ H_ 0.0454067 0.771322 0.83678 0.10394
H_ H_ 0.0735562 0.691779 0.881078 0.10394
H_ H_ 0.0330131 0.945718 0.854587 0.10394
H_ H_ 0.481532 0.870857 0.85667 0.10394
H_ H_ 0.358642 0.981757 0.900039 0.10394
H_ H_ 0.0764521 0.813516 0.632234 0.10394
H_ H_ 0.507216 0.761766 0.598392 0.10394
H_ H_ 0.0387884 0.775034 0.944715 0.10394
H_ H_ 0.117096 0.82381 0.481901 0.10394
H_ H_ 0.235086 0.761249 0.593287 0.10394
H_ H_ 0.275719 0.71369 0.663737 0.10394
H_ H_ 0.209693 0.823369 0.770953 0.10394
H_ H_ 0.168192 0.875967 0.696241 0.10394
H_ H_ 0.219076 0.867679 0.93997 0.10394
H_ H_ 0.266901 0.877351 0.870677 0.10394
H_ H_ 0.398598 0.896987 0.977913 0.10394
H_ H_ 0.301179 0.895879 0.660833 0.10394
H_ H_ 0.227243 0.950671 0.691584 0.10394
H_ H_ 0.339946 0.556144 0.773607 0.10394
H_ H_ 0.400745 -0.0027880000000000127 0.732538 0.10394
H_ H_ 0.0115529 0.88949 0.69007 0.10394
H_ H_ 0.0576686 0.816129 0.740093 0.10394
H_ H_ 0.416466 0.737643 0.698452 0.10394
H_ H_ 0.370326 0.820493 0.671282 0.10394
H_ H_ 0.464809 0.550336 0.617367 0.10394
H_ H_ 0.0133875 0.629653 0.597106 0.10394
H_ H_ 0.140787 0.508703 0.594318 0.10394
H_ H_ 0.438723 0.649761 0.900393 0.10394
H_ H_ 0.0162217 0.683337 0.949618 0.10394
H_ H_ 0.419021 0.789815 0.541168 0.10394
H_ H_ 0.342693 0.746392 -0.013507000000000047 0.10394
H_ H_ 0.226906 0.686915 0.876825 0.10394
H_ H_ 0.189332 0.72662 0.798081 0.10394
H_ H_ 0.336959 0.712624 0.740264 0.10394
H_ H_ 0.375419 0.687926 0.829876 0.10394
H_ H_ 0.285338 0.631886 0.556511 0.10394
H_ H_ 0.23403 0.609726 0.622089 0.10394
H_ H_ 0.115838 0.5765 0.510111 0.10394
C_ C_ 0.18131 0.594174 0.798195 0.18167
C_ C_ 0.230868 0.573753 0.791076 -0.15533
C_ C_ 0.246 0.520777 0.787043 0.02923
C_ C_ 0.202317 0.992118 0.795889 -0.15533
C_ C_ 0.163175 0.510294 0.814074 0.18167
C_ C_ 0.0295725 0.638352 0.768977 0.18167
C_ C_ 0.498516 0.67382 0.749575 -0.15533
C_ C_ 0.0109777 0.732646 0.765764 0.02923
C_ C_ 0.0347069 0.736531 0.816974 -0.15533
C_ C_ 0.0560475 0.690303 0.842173 0.18167
C_ C_ 0.0032604 0.547894 0.857264 0.69207
C_ C_ 0.477577 0.00018999999999991246 0.866729 0.02923
C_ C_ 0.495585 0.948465 0.861726 -0.15533
C_ C_ 0.466017 0.908954 0.864403 -0.15533
C_ C_ 0.414442 0.920615 0.879664 0.02923
C_ C_ 0.39542 0.973065 0.886627 -0.15533
C_ C_ 0.428811 0.0122069 0.886825 0.02923
C_ C_ 0.391558 0.567219 0.881228 0.69207
C_ C_ 0.40256 0.825203 0.874456 0.69661
C_ C_ 0.0659294 0.809265 0.589518 0.18167
C_ C_ 0.0264098 0.782548 0.570544 -0.15533
C_ C_ 0.0198707 0.769074 0.516241 0.02923
C_ C_ 0.0513718 0.774253 0.984591 -0.15533
C_ C_ 0.0915032 0.811907 0.507386 0.18167
C_ C_ 0.222091 0.771947 0.631285 0.18167
C_ C_ 0.244533 0.742121 0.671058 -0.15533
C_ C_ 0.237671 0.758826 0.721361 0.02923
C_ C_ 0.212954 0.807633 0.732751 -0.15533
C_ C_ 0.187814 0.83605 0.69095 0.18167
C_ C_ 0.238561 0.866283 0.541272 0.69207
C_ C_ 0.277518 0.87545 -0.0010299999999999754 0.02923
C_ C_ 0.260557 0.866682 0.948739 -0.15533
C_ C_ 0.28924 0.871678 0.907416 -0.15533
C_ C_ 0.340479 0.884393 0.917922 0.02923
C_ C_ 0.359401 0.889957 0.970561 -0.15533
C_ C_ 0.328494 0.887563 0.0117495 0.02923
C_ C_ 0.350222 0.886334 0.566962 0.69207
C_ C_ 0.349402 0.881564 0.821246 0.69661
C_ C_ 0.306411 0.933712 0.679031 0.18167
C_ C_ 0.264405 0.963174 0.700556 -0.15533
C_ C_ 0.272686 1.00142206 0.737485 0.02923
C_ C_ 0.331175 0.519342 0.753052 -0.15533
C_ C_ 0.361821 0.987278 0.722161 0.18167
C_ C_ 0.487868 0.85671 0.708434 0.18167
C_ C_ 0.0169006 0.817849 0.731485 -0.15533
C_ C_ 0.485734 0.767484 0.730145 0.02923
C_ C_ 0.436083 0.770889 0.704993 -0.15533
C_ C_ 0.411851 0.818012 0.687203 0.18167
C_ C_ 0.481436 0.950661 0.624313 0.69207
C_ C_ 0.0144399 0.500475 0.608279 0.02923
C_ C_ 0.998713 0.553627 0.608485 -0.15533
C_ C_ 0.0325603 0.589052 0.601098 -0.15533
C_ C_ 0.082791 0.574008 0.598204 0.02923
C_ C_ 0.10009 0.522275 0.595372 -0.15533
C_ C_ 0.0662828 0.485659 0.600421 0.02923
C_ C_ 0.0915999 0.927916 0.609479 0.69207
C_ C_ 0.103285 0.666153 0.601946 0.69661
C_ C_ 0.433787 0.67938 0.929563 0.18167
C_ C_ 0.475951 0.702771 0.950052 -0.15533
C_ C_ 0.470905 0.744083 -0.012577999999999978 0.02923
C_ C_ 0.423828 0.75781 0.515815 -0.15533
C_ C_ 0.381321 0.732636 0.979606 0.18167
C_ C_ 0.251633 0.698449 0.851291 0.18167
C_ C_ 0.230446 0.722251 0.805348 -0.15533
C_ C_ 0.261331 0.726875 0.764641 0.02923
C_ C_ 0.312913 0.713972 0.77204 -0.15533
C_ C_ 0.332673 0.693105 0.819184 0.18167
C_ C_ 0.255983 0.621499 0.953712 0.69207
C_ C_ 0.226709 0.621765 0.493351 0.02923
C_ C_ 0.245638 0.624798 0.547103 -0.15533
C_ C_ 0.217067 0.609694 0.584945 -0.15533
C_ C_ 0.167794 0.595775 0.571512 0.02923
C_ C_ 0.151604 0.591404 0.518668 -0.15533
C_ C_ 0.175767 0.611531 0.481233 0.02923
C_ C_ 0.145493 0.605405 0.922319 0.69207
C_ C_ 0.144031 0.607424 0.664401 0.69661
C_ C_ 0.37734 0.8792 0.874602 -0.30787
C_ C_ 0.125306 0.609598 0.607084 -0.30787
N_ N_ 0.149092 0.562403 0.811111 -0.32189
N_ N_ 0.0564655 0.645447 0.814692 -0.32189
N_ N_ 0.101848 0.819311 0.559364 -0.32189
N_ N_ 0.19292 0.817513 0.642246 -0.32189
N_ N_ 0.352219 0.950159 0.686391 -0.32189
N_ N_ 0.44139 0.857195 0.681266 -0.32189
N_ N_ 0.389499 0.689389 0.94869 -0.32189
N_ N_ 0.303007 0.684264 0.856419 -0.32189
O_ O_ 0.511692 0.58521 0.908535 -0.63271
O_ O_ 0.0448156 0.533852 0.837235 -0.57982
O_ O_ 0.398659 0.592453 0.841167 -0.63271
O_ O_ 0.363811 0.590508 0.916771 -0.57982
O_ O_ 0.236928 0.896518 0.581904 -0.63271
O_ O_ 0.20518 0.832028 0.533314 -0.57982
O_ O_ 0.348631 0.845197 0.590624 -0.63271
O_ O_ 0.378843 0.920447 0.58533 -0.57982
O_ O_ 0.980062 0.915874 0.593519 -0.63271
O_ O_ 0.447113 0.962775 0.655503 -0.57982
O_ O_ 0.0868961 0.900343 0.646709 -0.63271
O_ O_ 0.124422 0.912818 0.57727 -0.57982
O_ O_ 0.261482 0.595393 0.90984 -0.63271
O_ O_ 0.286407 0.65706 0.96664 -0.57982
O_ O_ 0.152889 0.642177 0.89431 -0.63271
O_ O_ 0.111113 0.575747 0.903583 -0.57982
F_ F_ 0.439236 0.820668 0.914045 -0.20885
F_ F_ 0.42549 0.809531 0.831042 -0.20885
F_ F_ 0.372062 0.786222 0.886273 -0.20885
F_ F_ 0.317043 0.923454 0.824416 -0.20885
F_ F_ 0.321602 0.841126 0.802839 -0.20885
F_ F_ 0.37972 0.891544 0.78245 -0.20885
F_ F_ 0.0733582 0.668757 0.555079 -0.20885
F_ F_ 0.0739183 0.686751 0.643041 -0.20885
F_ F_ 0.140386 0.698776 0.602103 -0.20885
F_ F_ 0.17562 0.564152 0.676919 -0.20885
F_ F_ 0.167867 0.64739 0.687452 -0.20885
F_ F_ 0.101853 0.611727 0.693161 -0.20885
Zn Zn 0.590679 0.0852734 0.346215 0.83971
Zn Zn 0.657669 0.347531 0.0912182 0.83971
Zn Zn 0.898972 0.411681 0.146532 0.83971
Zn Zn 0.837379 0.158037 0.426616 0.83971
H_ H_ 0.663832 0.13448 0.296514 0.10394
H_ H_ 0.743618 0.101397 0.257872 0.10394
H_ H_ 0.698817 0.445731 0.2866 0.10394
H_ H_ 0.652607 0.988771 0.351784 0.10394
H_ H_ 0.0296966 0.0955817 0.24405 0.10394
H_ H_ 0.982325 0.166524 0.194931 0.10394
H_ H_ 0.531943 0.273998 0.342739 0.10394
H_ H_ 0.5683 0.197041 0.383184 0.10394
H_ H_ 0.527998 0.452098 0.375598 0.10394
H_ H_ 0.976009 0.379599 0.372141 0.10394
H_ H_ 0.850384 0.488441 0.411262 0.10394
H_ H_ 0.573115 0.314629 0.135946 0.10394
H_ H_ 1.0024467 0.263893 0.0927608 0.10394
H_ H_ 0.535169 0.291281 0.447519 0.10394
H_ H_ 0.619278 0.310317 0.985067 0.10394
H_ H_ 0.709933 0.242427 0.109793 0.10394
H_ H_ 0.748208 0.200649 0.181111 0.10394
H_ H_ 0.72558 0.338473 0.273127 0.10394
H_ H_ 0.684813 0.381272 0.195056 0.10394
H_ H_ 0.715592 0.369322 0.447032 0.10394
H_ H_ 0.761682 0.385638 0.378875 0.10394
H_ H_ 0.894973 0.401777 0.48817 0.10394
H_ H_ 0.803019 0.394446 0.161376 0.10394
H_ H_ 0.724864 0.443813 0.195634 0.10394
H_ H_ 0.830476 0.0530844 0.260351 0.10394
H_ H_ 0.895378 0.507307 0.222375 0.10394
H_ H_ 0.516788 0.391265 0.192501 0.10394
H_ H_ 0.559724 0.316166 0.235416 0.10394
H_ H_ 0.906288 0.241359 0.211565 0.10394
H_ H_ 0.861331 0.317997 0.178992 0.10394
H_ H_ 0.960207 0.0493029 0.11445 0.10394
H_ H_ 0.518364 0.122872 0.11096 0.10394
H_ H_ 0.64341 0.00744609 0.0916545 0.10394
H_ H_ 0.943883 0.157932 0.416709 0.10394
H_ H_ 0.512287 0.196488 0.444997 0.10394
H_ H_ 0.913606 0.281949 0.0418341 0.10394
H_ H_ 0.840682 0.242203 0.511078 0.10394
H_ H_ 0.724569 0.205464 0.391464 0.10394
H_ H_ 0.689975 0.251198 0.313914 0.10394
H_ H_ 0.839056 0.242374 0.263696 0.10394
H_ H_ 0.870215 0.194875 0.339644 0.10394
H_ H_ 0.787572 0.122834 0.0522008 0.10394
H_ H_ 0.733027 0.11589 0.118571 0.10394
H_ H_ 0.612827 0.0715929 0.00262982 0.10394
C_ C_ 0.676344 0.0938888 0.29652 0.18167
C_ C_ 0.720369 0.0751986 0.270517 -0.15533
C_ C_ 0.737701 0.0225043 0.270472 0.02923
C_ C_ 0.692239 0.48565 0.288068 -0.15533
C_ C_ 0.669482 0.0118158 0.322376 0.18167
C_ C_ 0.531903 0.141106 0.271418 0.18167
C_ C_ 0.00271342 0.173639 0.232583 -0.15533
C_ C_ 0.516611 0.233906 0.270024 0.02923
C_ C_ 0.537613 0.238153 0.320308 -0.15533
C_ C_ 0.557199 0.193203 0.34315 0.18167
C_ C_ 0.506768 0.047501 0.363185 0.69207
C_ C_ 0.972683 0.50458 0.384958 0.02923
C_ C_ 0.992983 0.453816 0.385347 -0.15533
C_ C_ 0.960634 0.415368 0.384704 -0.15533
C_ C_ 0.908161 0.427216 0.391392 0.02923
C_ C_ 0.888226 0.480031 0.396706 -0.15533
C_ C_ 0.921731 0.516736 0.395259 0.02923
C_ C_ 0.897101 0.0761521 0.380079 0.69207
C_ C_ 0.894805 0.327643 0.387 0.69661
C_ C_ 0.566105 0.303886 0.0966294 0.18167
C_ C_ 0.51838 0.287457 0.0775724 -0.15533
C_ C_ 0.512862 0.270453 0.0254134 0.02923
C_ C_ 0.545137 0.295597 0.488534 -0.15533
C_ C_ 0.594176 0.297845 0.0138511 0.18167
C_ C_ 0.714102 0.266256 0.142338 0.18167
C_ C_ 0.735508 0.239898 0.185932 -0.15533
C_ C_ 0.739309 0.266908 0.234334 0.02923
C_ C_ 0.722994 0.317157 0.236841 -0.15533
C_ C_ 0.698775 0.342063 0.193098 0.18167
C_ C_ 0.733976 0.371679 0.0422979 0.69207
C_ C_ 0.774758 0.380161 0.506302 0.02923
C_ C_ 0.753256 0.382603 0.456313 -0.15533
C_ C_ 0.781383 0.387417 0.41701 -0.15533
C_ C_ 0.833646 0.395003 0.425579 0.02923
C_ C_ 0.855306 0.396074 0.476443 -0.15533
C_ C_ 0.827269 0.389868 0.517099 0.02923
C_ C_ 0.845157 0.381046 0.0623754 0.69207
C_ C_ 0.841942 0.392206 0.329921 0.69661
C_ C_ 0.805008 0.431635 0.181094 0.18167
C_ C_ 0.763087 0.455711 0.205118 -0.15533
C_ C_ 0.770054 0.495013 0.243918 0.02923
C_ C_ 0.821995 0.0221123 0.23479 -0.15533
C_ C_ 0.858247 0.490647 0.222379 0.18167
C_ C_ 0.983578 0.351721 0.195693 0.18167
C_ C_ 0.519659 0.319342 0.22831 -0.15533
C_ C_ 0.978045 0.269402 0.227355 0.02923
C_ C_ 0.925934 0.272168 0.207024 -0.15533
C_ C_ 0.901537 0.316722 0.188343 0.18167
C_ C_ 0.983107 0.445084 0.122532 0.69207
C_ C_ 0.519829 0.993589 0.110952 0.02923
C_ C_ 0.501455 0.0453449 0.111258 -0.15533
C_ C_ 0.532627 0.0823236 0.101651 -0.15533
C_ C_ 0.585154 0.0713827 0.0966296 0.02923
C_ C_ 0.603226 0.0192615 0.0950823 -0.15533
C_ C_ 0.572277 0.980707 0.103983 0.02923
C_ C_ 0.599965 0.429575 0.116411 0.69207
C_ C_ 0.598729 0.165522 0.0908102 0.69661
C_ C_ 0.936265 0.182704 0.449408 0.18167
C_ C_ 0.977756 0.203198 0.478991 -0.15533
C_ C_ 0.968512 0.247992 0.509326 0.02923
C_ C_ 0.9211 0.255767 0.0112165 -0.15533
C_ C_ 0.878718 0.229351 0.500297 0.18167
C_ C_ 0.751582 0.211026 0.363192 0.18167
C_ C_ 0.730321 0.239376 0.320474 -0.15533
C_ C_ 0.760527 0.243411 0.281617 0.02923
C_ C_ 0.813172 0.228268 0.288139 -0.15533
C_ C_ 0.830602 0.203267 0.332796 0.18167
C_ C_ 0.761365 0.124715 0.462379 0.69207
C_ C_ 0.727886 0.111117 0.988077 0.02923
C_ C_ 0.747817 0.113596 0.0399873 -0.15533
C_ C_ 0.718311 0.107445 0.0788433 -0.15533
C_ C_ 0.666278 0.0975408 0.0669144 0.02923
C_ C_ 0.651968 0.0799462 0.0160794 -0.15533
C_ C_ 0.679407 0.0930856 0.975478 0.02923
C_ C_ 0.650369 0.10906 0.429589 0.69207
C_ C_ 0.640888 0.1104 0.157976 0.69661
C_ C_ 0.87082 0.384409 0.384684 -0.30787
C_ C_ 0.623441 0.111304 0.100768 -0.30787
N_ N_ 0.647739 0.0594935 0.313326 -0.32189
N_ N_ 0.560395 0.146584 0.317264 -0.32189
N_ N_ 0.599638 0.315575 0.064052 -0.32189
N_ N_ 0.691804 0.315014 0.148087 -0.32189
N_ N_ 0.851132 0.447824 0.190413 -0.32189
N_ N_ 0.931306 0.354735 0.179478 -0.32189
N_ N_ 0.887346 0.196932 0.459069 -0.32189
N_ N_ 0.801023 0.189048 0.365795 -0.32189
O_ O_ 0.0048757 0.101618 0.387054 -0.63271
O_ O_ 0.54354 0.0368471 0.335223 -0.57982
O_ O_ 0.890511 0.105544 0.341188 -0.63271
O_ O_ 0.876999 0.0938679 0.423069 -0.57982
O_ O_ 0.738355 0.400919 0.0853818 -0.63271
O_ O_ 0.697171 0.342028 0.0365807 -0.57982
O_ O_ 0.849265 0.340048 0.0885873 -0.63271
O_ O_ 0.870625 0.417528 0.0795716 -0.57982
O_ O_ 0.492979 0.415464 0.103883 -0.63271
O_ O_ 0.945072 0.456643 0.149882 -0.57982
O_ O_ 0.598671 0.401775 0.157588 -0.63271
O_ O_ 0.627323 0.409828 0.0797889 -0.57982
O_ O_ 0.761298 0.0966349 0.419515 -0.63271
O_ O_ 0.793657 0.158947 0.471049 -0.57982
O_ O_ 0.651126 0.150042 0.402917 -0.63271
O_ O_ 0.615995 0.0779239 0.413067 -0.57982
F_ F_ 0.931163 0.325757 0.429414 -0.20885
F_ F_ 0.917276 0.309715 0.343499 -0.20885
F_ F_ 0.860487 0.295389 0.397038 -0.20885
F_ F_ 0.811904 0.43715 0.33335 -0.20885
F_ F_ 0.811393 0.354503 0.313068 -0.20885
F_ F_ 0.874963 0.390896 0.29309 -0.20885
F_ F_ 0.567923 0.169996 0.0443346 -0.20885
F_ F_ 0.568322 0.18979 0.129641 -0.20885
F_ F_ 0.63553 0.197691 0.088031 -0.20885
F_ F_ 0.671359 0.0643553 0.174374 -0.20885
F_ F_ 0.668212 0.152061 0.173181 -0.20885
F_ F_ 0.598519 0.113691 0.184056 -0.20885
Zn Zn 0.595184 0.0828305 0.850008 0.83971
Zn Zn 0.663723 0.342498 0.58254 0.83971
Zn Zn 0.903803 0.427136 0.65183 0.83971
Zn Zn 0.840537 0.158246 0.915561 0.83971
H_ H_ 0.665062 0.121725 0.799488 0.10394
H_ H_ 0.749283 0.0872849 0.766761 0.10394
H_ H_ 0.722331 0.457642 0.803986 0.10394
H_ H_ 0.635181 0.975362 0.83261 0.10394
H_ H_ 0.0367667 0.108578 0.753466 0.10394
H_ H_ 0.993258 0.174807 0.701133 0.10394
H_ H_ 0.530348 0.265296 0.834732 0.10394
H_ H_ 0.571583 0.18638 0.881176 0.10394
H_ H_ 0.536159 0.445577 0.856148 0.10394
H_ H_ 0.972271 0.380215 0.866892 0.10394
H_ H_ 0.856668 0.491753 0.918458 0.10394
H_ H_ 0.589801 0.298926 0.631875 0.10394
H_ H_ 0.000895964 0.278629 0.607705 0.10394
H_ H_ 0.540436 0.27623 0.953449 0.10394
H_ H_ 0.614453 0.324139 0.481391 0.10394
H_ H_ 0.716251 0.244969 0.597263 0.10394
H_ H_ 0.74559 0.19503 0.670624 0.10394
H_ H_ 0.712673 0.327995 0.771358 0.10394
H_ H_ 0.687576 0.376754 0.694456 0.10394
H_ H_ 0.7092 0.362019 0.936599 0.10394
H_ H_ 0.756283 0.397113 0.873045 0.10394
H_ H_ 0.883242 0.405057 0.981114 0.10394
H_ H_ 0.802325 0.413968 0.657339 0.10394
H_ H_ 0.729436 0.455112 0.701484 0.10394
H_ H_ 0.839954 0.0208496 0.796206 0.10394
H_ H_ 0.894856 0.519671 0.729244 0.10394
H_ H_ 0.510208 0.36714 0.684973 0.10394
H_ H_ 0.551843 0.29734 0.732336 0.10394
H_ H_ 0.914389 0.247891 0.719383 0.10394
H_ H_ 0.867174 0.327425 0.69126 0.10394
H_ H_ 0.959133 0.0630327 0.616174 0.10394
H_ H_ 0.510885 0.117389 0.611021 0.10394
H_ H_ 0.635999 0.00270091 0.592236 0.10394
H_ H_ 0.942185 0.167317 0.895242 0.10394
H_ H_ 0.520287 0.192037 0.955777 0.10394
H_ H_ 0.91103 0.285232 0.552945 0.10394
H_ H_ 0.843382 0.237015 0.00385455 0.10394
H_ H_ 0.733953 0.193783 0.884429 0.10394
H_ H_ 0.689127 0.236623 0.807825 0.10394
H_ H_ 0.833375 0.227576 0.745848 0.10394
H_ H_ 0.87525 0.184052 0.82008 0.10394
H_ H_ 0.781318 0.123786 0.561983 0.10394
H_ H_ 0.726258 0.105429 0.626952 0.10394
H_ H_ 0.602984 0.0960992 0.511233 0.10394
C_ C_ 0.6752 0.0815018 0.795395 0.18167
C_ C_ 0.722523 0.0608974 0.777914 -0.15533
C_ C_ 0.737275 0.00770176 0.776763 0.02923
C_ C_ 0.710229 0.497866 0.806225 -0.15533
C_ C_ 0.658548 -0.0023339999999999472 0.812228 0.18167
C_ C_ 0.528473 0.129087 0.772993 0.18167
C_ C_ 0.00814199 0.18454 0.74275 -0.15533
C_ C_ 0.506228 0.219377 0.768111 0.02923
C_ C_ 0.533776 0.226456 0.815744 -0.15533
C_ C_ 0.559046 0.184403 0.840312 0.18167
C_ C_ 0.513961 0.038067 0.869171 0.69207
C_ C_ 0.970337 0.508992 0.87106 0.02923
C_ C_ 0.989377 0.455716 0.867388 -0.15533
C_ C_ 0.958323 0.418111 0.871462 -0.15533
C_ C_ 0.907524 0.43125 0.887334 0.02923
C_ C_ 0.895035 0.481832 0.904063 -0.15533
C_ C_ 0.919144 0.522579 0.886397 0.02923
C_ C_ 0.901938 0.0767547 0.891548 0.69207
C_ C_ 0.885967 0.334621 0.870549 0.69661
C_ C_ 0.577795 0.29462 0.591217 0.18167
C_ C_ 0.532892 0.27334 0.57203 -0.15533
C_ C_ 0.517463 0.274958 0.520222 0.02923
C_ C_ 0.546743 0.285492 0.993311 -0.15533
C_ C_ 0.59022 0.313435 0.507353 0.18167
C_ C_ 0.714496 0.263024 0.63631 0.18167
C_ C_ 0.737128 0.235793 0.676251 -0.15533
C_ C_ 0.737489 0.259241 0.726245 0.02923
C_ C_ 0.720048 0.311198 0.733304 -0.15533
C_ C_ 0.70354 0.337846 0.689437 0.18167
C_ C_ 0.743109 0.363056 0.54525 0.69207
C_ C_ 0.768304 0.375616 0.999335 0.02923
C_ C_ 0.745504 0.37768 0.948124 -0.15533
C_ C_ 0.7757 0.386513 0.909783 -0.15533
C_ C_ 0.827601 0.394203 0.918862 0.02923
C_ C_ 0.84841 0.388711 0.969415 -0.15533
C_ C_ 0.820632 0.378852 0.00985387 0.02923
C_ C_ 0.853326 0.391219 0.569125 0.69207
C_ C_ 0.838235 0.409241 0.823193 0.69661
C_ C_ 0.808506 0.44679 0.685049 0.18167
C_ C_ 0.76777 0.468933 0.711649 -0.15533
C_ C_ 0.772897 0.512701 0.744664 0.02923
C_ C_ 0.828459 -0.005632999999999999 0.762077 -0.15533
C_ C_ 0.859519 0.506548 0.723458 0.18167
C_ C_ 0.981596 0.366063 0.704471 0.18167
C_ C_ 0.510446 0.302533 0.728336 -0.15533
C_ C_ 0.986138 0.279193 0.733283 0.02923
C_ C_ 0.934347 0.28174 0.716875 -0.15533
C_ C_ 0.908247 0.323704 0.693246 0.18167
C_ C_ 0.974962 0.465536 0.615277 0.69207
C_ C_ 0.513768 0.989003 0.614428 0.02923
C_ C_ 0.494334 0.0413259 0.60886 -0.15533
C_ C_ 0.526374 0.0778017 0.611135 -0.15533
C_ C_ 0.578943 0.0661423 0.605515 0.02923
C_ C_ 0.595556 0.0135412 0.595877 -0.15533
C_ C_ 0.565954 0.976443 0.606207 0.02923
C_ C_ 0.602335 0.423604 0.612354 0.69207
C_ C_ 0.595315 0.16325 0.613351 0.69661
C_ C_ 0.933514 0.195072 0.925182 0.18167
C_ C_ 0.975121 0.21411 0.950359 -0.15533
C_ C_ 0.96775 0.249781 -0.008674999999999988 0.02923
C_ C_ 0.91927 0.255497 0.525553 -0.15533
C_ C_ 0.879365 0.231547 0.987152 0.18167
C_ C_ 0.753945 0.204971 0.855453 0.18167
C_ C_ 0.728927 0.225975 0.811141 -0.15533
C_ C_ 0.758818 0.232589 0.771406 0.02923
C_ C_ 0.810477 0.221621 0.77632 -0.15533
C_ C_ 0.833886 0.193178 0.818435 0.18167
C_ C_ 0.762081 0.122317 0.949469 0.69207
C_ C_ 0.725142 0.117545 0.499008 0.02923
C_ C_ 0.741858 0.117606 0.550752 -0.15533
C_ C_ 0.709424 0.106306 0.587366 -0.15533
C_ C_ 0.658253 0.0983355 0.574591 0.02923
C_ C_ 0.640843 0.0990327 0.522485 -0.15533
C_ C_ 0.672615 0.110697 0.484724 0.02923
C_ C_ 0.652218 0.0941053 0.925748 0.69207
C_ C_ 0.642074 0.0966032 0.669775 0.69661
C_ C_ 0.866789 0.39178 0.877496 -0.30787
C_ C_ 0.618494 0.106154 0.614834 -0.30787
N_ N_ 0.645152 0.0484927 0.809855 -0.32189
N_ N_ 0.552908 0.135881 0.821125 -0.32189
N_ N_ 0.608758 0.30678 0.555196 -0.32189
N_ N_ 0.695333 0.312291 0.6425 -0.32189
N_ N_ 0.852832 0.464643 0.693011 -0.32189
N_ N_ 0.932765 0.364861 0.684751 -0.32189
N_ N_ 0.88556 0.202926 0.942228 -0.32189
N_ N_ 0.80623 0.18968 0.858173 -0.32189
O_ O_ 0.0106216 0.0950565 0.895509 -0.63271
O_ O_ 0.551572 0.0322342 0.83951 -0.57982
O_ O_ 0.891871 0.0979156 0.847439 -0.63271
O_ O_ 0.87325 0.094343 0.926981 -0.57982
O_ O_ 0.742325 0.386135 0.590132 -0.63271
O_ O_ 0.707093 0.335793 0.530044 -0.57982
O_ O_ 0.855976 0.352296 0.599104 -0.63271
O_ O_ 0.871967 0.433585 0.587915 -0.57982
O_ O_ 0.491727 0.405925 0.596803 -0.63271
O_ O_ 0.950285 0.472011 0.654364 -0.57982
O_ O_ 0.590486 0.394829 0.647137 -0.63271
O_ O_ 0.637865 0.407193 0.583429 -0.57982
O_ O_ 0.763819 0.0985914 0.90333 -0.63271
O_ O_ 0.793574 0.157978 0.961955 -0.57982
O_ O_ 0.657509 0.132889 0.898157 -0.63271
O_ O_ 0.618792 0.0625168 0.909927 -0.57982
F_ F_ 0.920126 0.321966 0.911816 -0.20885
F_ F_ 0.910385 0.323111 0.825184 -0.20885
F_ F_ 0.846718 0.302499 0.867286 -0.20885
F_ F_ 0.812801 0.457612 0.829357 -0.20885
F_ F_ 0.801137 0.379162 0.798482 -0.20885
F_ F_ 0.877932 0.409083 0.789779 -0.20885
F_ F_ 0.564271 0.165969 0.567913 -0.20885
F_ F_ 0.563634 0.181852 0.650226 -0.20885
F_ F_ 0.629603 0.197538 0.608562 -0.20885
F_ F_ 0.672074 0.0500263 0.675286 -0.20885
F_ F_ 0.672267 0.131792 0.692404 -0.20885
F_ F_ 0.602572 0.104657 0.701101 -0.20885
Zn Zn 0.582057 0.583647 0.345137 0.83971
Zn Zn 0.662884 0.844171 0.0794165 0.83971
Zn Zn 0.911783 0.908883 0.155912 0.83971
Zn Zn 0.838335 0.654672 0.417697 0.83971
H_ H_ 0.661966 0.632292 0.300312 0.10394
H_ H_ 0.743037 0.594547 0.266453 0.10394
H_ H_ 0.732782 0.956539 0.309001 0.10394
H_ H_ 0.614036 0.483003 0.298557 0.10394
H_ H_ 0.0240828 0.586981 0.249714 0.10394
H_ H_ 0.988662 0.660344 0.198411 0.10394
H_ H_ 0.533016 0.770372 0.333518 0.10394
H_ H_ 0.575034 0.692395 0.378112 0.10394
H_ H_ 0.528939 0.944858 0.365636 0.10394
H_ H_ 0.991207 0.890156 0.409674 0.10394
H_ H_ 0.854211 0.990644 0.383931 0.10394
H_ H_ 0.588038 0.788962 0.123653 0.10394
H_ H_ 0.99798545 0.779895 0.0940557 0.10394
H_ H_ 0.542245 0.78458 0.44556 0.10394
H_ H_ 0.621877 0.818682 0.974325 0.10394
H_ H_ 0.72301 0.752323 0.0900563 0.10394
H_ H_ 0.771225 0.706925 0.158665 0.10394
H_ H_ 0.719795 0.830385 0.267202 0.10394
H_ H_ 0.675465 0.873623 0.190576 0.10394
H_ H_ 0.719495 0.876854 0.432361 0.10394
H_ H_ 0.779829 0.868128 0.371307 0.10394
H_ H_ 0.893745 0.917366 0.48462 0.10394
H_ H_ 0.811624 0.885843 0.17284 0.10394
H_ H_ 0.734906 0.938567 0.203509 0.10394
H_ H_ 0.825552 0.542081 0.282233 0.10394
H_ H_ 0.89985 1.0103307 0.214083 0.10394
H_ H_ 0.517866 0.873862 0.181951 0.10394
H_ H_ 0.555404 0.806421 0.234844 0.10394
H_ H_ 0.914207 0.726498 0.203966 0.10394
H_ H_ 0.86835 0.810886 0.176753 0.10394
H_ H_ 0.955714 0.542071 0.109493 0.10394
H_ H_ 0.526189 0.626206 0.129955 0.10394
H_ H_ 0.644913 0.506074 0.0949341 0.10394
H_ H_ 0.945554 0.659869 0.392323 0.10394
H_ H_ 0.514078 0.689856 0.4506 0.10394
H_ H_ 0.913862 0.78093 0.0423908 0.10394
H_ H_ 0.84742 0.736573 0.493602 0.10394
H_ H_ 0.736251 0.698053 0.380284 0.10394
H_ H_ 0.694708 0.740116 0.303526 0.10394
H_ H_ 0.837665 0.710487 0.23586 0.10394
H_ H_ 0.881362 0.687765 0.326092 0.10394
H_ H_ 0.79442 0.612274 0.0575175 0.10394
H_ H_ 0.740447 0.609253 0.126569 0.10394
H_ H_ 0.615256 0.581191 0.0130728 0.10394
C_ C_ 0.673497 0.591346 0.302234 0.18167
C_ C_ 0.7206 0.569686 0.286084 -0.15533
C_ C_ 0.728831 0.516577 0.276553 0.02923
C_ C_ 0.713561 0.992326 0.298875 -0.15533
C_ C_ 0.645362 0.507596 0.301538 0.18167
C_ C_ 0.528311 0.63555 0.270685 0.18167
C_ C_ 0.0029891 0.66753 0.238542 -0.15533
C_ C_ 0.512792 0.727581 0.263356 0.02923
C_ C_ 0.533983 0.732709 0.313464 -0.15533
C_ C_ 0.559896 0.690184 0.338331 0.18167
C_ C_ 0.498864 0.550719 0.369574 0.69207
C_ C_ 0.976185 0.0139453 0.377411 0.02923
C_ C_ -0.0010580000000000034 0.964727 0.382877 -0.15533
C_ C_ 0.970486 0.926568 0.395492 -0.15533
C_ C_ 0.917158 0.93232 0.391622 0.02923
C_ C_ 0.894084 0.983489 0.388486 -0.15533
C_ C_ 0.923201 0.022393 0.377165 0.02923
C_ C_ 0.89515 0.568616 0.39253 0.69207
C_ C_ 0.914279 0.832661 0.389714 0.69661
C_ C_ 0.575683 0.792439 0.0839592 0.18167
C_ C_ 0.527544 0.778437 0.0622686 -0.15533
C_ C_ 0.516196 0.770768 0.00995689 0.02923
C_ C_ 0.547436 0.792303 0.488324 -0.15533
C_ C_ 0.596269 0.804018 0.000280000000000058 0.18167
C_ C_ 0.728135 0.771081 0.127109 0.18167
C_ C_ 0.749944 0.741381 0.167439 -0.15533
C_ C_ 0.744711 0.761191 0.220459 0.02923
C_ C_ 0.720881 0.813355 0.226696 -0.15533
C_ C_ 0.699577 0.838213 0.185286 0.18167
C_ C_ 0.742132 0.881452 0.0445549 0.69207
C_ C_ 0.777885 0.879071 0.499278 0.02923
C_ C_ 0.759165 0.874393 0.445975 -0.15533
C_ C_ 0.792161 0.878345 0.410546 -0.15533
C_ C_ 0.843788 0.890192 0.421622 0.02923
C_ C_ 0.857833 0.903457 0.473544 -0.15533
C_ C_ 0.828077 0.893018 0.512545 0.02923
C_ C_ 0.849871 0.891365 0.0698453 0.69207
C_ C_ 0.86365 0.893354 0.325853 0.69661
C_ C_ 0.815425 0.922843 0.193551 0.18167
C_ C_ 0.771493 0.954035 0.205361 -0.15533
C_ C_ 0.77594 0.999124 0.236099 0.02923
C_ C_ 0.819099 0.511969 0.251528 -0.15533
C_ C_ 0.865673 0.993247 0.213931 0.18167
C_ C_ 0.990384 0.840918 0.197404 0.18167
C_ C_ 0.51677 0.808056 0.222782 -0.15533
C_ C_ 0.983845 0.763393 0.234016 0.02923
C_ C_ 0.933787 0.763112 0.210216 -0.15533
C_ C_ 0.91131 0.806859 0.186461 0.18167
C_ C_ 0.986965 0.947897 0.121222 0.69207
C_ C_ 0.52959 0.497728 0.131647 0.02923
C_ C_ 0.51385 0.549653 0.141146 -0.15533
C_ C_ 0.542684 0.585637 0.124653 -0.15533
C_ C_ 0.591926 0.571641 0.109941 0.02923
C_ C_ 0.608034 0.519626 0.107438 -0.15533
C_ C_ 0.577796 0.482621 0.117026 0.02923
C_ C_ 0.597327 0.92499 0.103529 0.69207
C_ C_ 0.614265 0.666335 0.115819 0.69661
C_ C_ 0.941418 0.678971 0.429531 0.18167
C_ C_ 0.981416 0.700362 0.455989 -0.15533
C_ C_ 0.9762 0.739096 0.494439 0.02923
C_ C_ 0.922559 0.749898 1.0140903 -0.15533
C_ C_ 0.886254 0.728117 0.483381 0.18167
C_ C_ 0.759499 0.701919 0.349389 0.18167
C_ C_ 0.737042 0.726429 0.306812 -0.15533
C_ C_ 0.765931 0.731522 0.266896 0.02923
C_ C_ 0.817417 0.708583 0.269777 -0.15533
C_ C_ 0.839767 0.690626 0.316864 0.18167
C_ C_ 0.761601 0.624921 0.451091 0.69207
C_ C_ 0.731063 0.61598 0.997668 0.02923
C_ C_ 0.75412 0.61378 0.0476864 -0.15533
C_ C_ 0.722716 0.607879 0.0865735 -0.15533
C_ C_ 0.670469 0.601357 0.0751948 0.02923
C_ C_ 0.651453 0.596355 0.0236631 -0.15533
C_ C_ 0.681883 0.601332 0.984122 0.02923
C_ C_ 0.648932 0.612575 0.421012 0.69207
C_ C_ 0.65558 0.601439 0.172377 0.69661
C_ C_ 0.884824 0.886591 0.382824 -0.30787
C_ C_ 0.632589 0.60978 0.116717 -0.30787
N_ N_ 0.638498 0.560006 0.311487 -0.32189
N_ N_ 0.557468 0.643381 0.315849 -0.32189
N_ N_ 0.607222 0.80583 0.0514181 -0.32189
N_ N_ 0.698063 0.815819 0.137399 -0.32189
N_ N_ 0.862014 0.941724 0.195747 -0.32189
N_ N_ 0.941544 0.845576 0.182511 -0.32189
N_ N_ 0.894212 0.693592 0.44231 -0.32189
N_ N_ 0.809308 0.685662 0.354161 -0.32189
O_ O_ 0.00749863 0.587542 0.4 -0.63271
O_ O_ 0.529095 0.544434 0.334689 -0.57982
O_ O_ 0.897094 0.59639 0.353297 -0.63271
O_ O_ 0.865255 0.588764 0.425241 -0.57982
O_ O_ 0.743513 0.906774 0.0887005 -0.63271
O_ O_ 0.704673 0.849377 0.0338242 -0.57982
O_ O_ 0.86033 0.844088 0.0825429 -0.63271
O_ O_ 0.873125 0.926047 0.0965343 -0.57982
O_ O_ 0.492683 0.909032 0.0941969 -0.63271
O_ O_ 0.961238 0.9531 0.159098 -0.57982
O_ O_ 0.596692 0.897219 0.143158 -0.63271
O_ O_ 0.632268 0.91 0.0728288 -0.57982
O_ O_ 0.75924 0.603039 0.40678 -0.63271
O_ O_ 0.795867 0.655852 0.468133 -0.57982
O_ O_ 0.65648 0.648161 0.391206 -0.63271
O_ O_ 0.609445 0.587841 0.4097 -0.57982
F_ F_ 0.93287 0.830283 0.441199 -0.20885
F_ F_ 0.956517 0.818901 0.361815 -0.20885
F_ F_ 0.883011 0.792356 0.379493 -0.20885
F_ F_ 0.827406 0.935908 0.318576 -0.20885
F_ F_ 0.836083 0.854076 0.303728 -0.20885
F_ F_ 0.904149 0.896776 0.296445 -0.20885
F_ F_ 0.573643 0.674042 0.0774976 -0.20885
F_ F_ 0.596176 0.690762 0.160723 -0.20885
F_ F_ 0.651502 0.695425 0.103674 -0.20885
F_ F_ 0.684561 0.555731 0.177974 -0.20885
F_ F_ 0.684952 0.640676 0.193538 -0.20885
F_ F_ 0.620359 0.605144 0.207365 -0.20885
Zn Zn 0.586261 0.592351 0.859937 0.83971
Zn Zn 0.663681 0.848372 0.58244 0.83971
Zn Zn 0.908852 0.915819 0.650299 0.83971
Zn Zn 0.836547 0.65893 0.917028 0.83971
H_ H_ 0.65257 0.63512 0.785912 0.10394
H_ H_ 0.728837 0.608568 0.755652 0.10394
H_ H_ 0.71773 0.938051 0.796634 0.10394
H_ H_ 0.640789 0.490236 0.843303 0.10394
H_ H_ 0.0231528 0.59892 0.75184 0.10394
H_ H_ 0.994281 0.678612 0.702595 0.10394
H_ H_ 0.535927 0.773915 0.826605 0.10394
H_ H_ 0.580331 0.70097 0.874407 0.10394
H_ H_ 0.534857 0.93987 0.856278 0.10394
H_ H_ 0.992028 0.87869 0.88312 0.10394
H_ H_ 0.858713 0.987334 0.905268 0.10394
H_ H_ 0.584959 0.800256 0.635323 0.10394
H_ H_ -0.0017650000000000166 0.777718 0.594179 0.10394
H_ H_ 0.544821 0.782375 0.93707 0.10394
H_ H_ 0.618753 0.821264 0.482647 0.10394
H_ H_ 0.726783 0.754976 0.597452 0.10394
H_ H_ 0.771247 0.714227 0.669022 0.10394
H_ H_ 0.708955 0.834901 0.768819 0.10394
H_ H_ 0.678336 0.882753 0.694811 0.10394
H_ H_ 0.72389 0.865647 0.937954 0.10394
H_ H_ 0.781187 0.864845 0.878034 0.10394
H_ H_ 0.895951 0.920938 0.995009 0.10394
H_ H_ 0.804288 0.89537 0.653106 0.10394
H_ H_ 0.730949 0.944472 0.688351 0.10394
H_ H_ 0.828057 0.563437 0.774493 0.10394
H_ H_ 0.905272 0.987762 0.738457 0.10394
H_ H_ 0.509418 0.890177 0.710724 0.10394
H_ H_ 0.547997 0.813704 0.758288 0.10394
H_ H_ 0.91143 0.750634 0.726165 0.10394
H_ H_ 0.872856 0.82442 0.683052 0.10394
H_ H_ 0.960387 0.567111 0.616407 0.10394
H_ H_ 0.51908 0.614155 0.609732 0.10394
H_ H_ 0.649311 0.505609 0.601129 0.10394
H_ H_ 0.937048 0.662506 0.897329 0.10394
H_ H_ 0.51154 0.685977 0.939688 0.10394
H_ H_ 0.919409 0.784145 0.533675 0.10394
H_ H_ 0.842911 0.739897 0.997177 0.10394
H_ H_ 0.729562 0.681793 0.872413 0.10394
H_ H_ 0.692525 0.724614 0.792192 0.10394
H_ H_ 0.842588 0.738951 0.756332 0.10394
H_ H_ 0.877459 0.701854 0.834851 0.10394
H_ H_ 0.784925 0.615204 0.548693 0.10394
H_ H_ 0.735635 0.600587 0.61385 0.10394
H_ H_ 0.603156 0.59823 0.507189 0.10394
C_ C_ 0.670366 0.600582 0.802683 0.18167
C_ C_ 0.715525 0.585052 0.782742 -0.15533
C_ C_ 0.734104 0.531249 0.781385 0.02923
C_ C_ 0.705556 0.975782 0.794121 -0.15533
C_ C_ 0.662763 0.516638 0.825251 0.18167
C_ C_ 0.524035 0.634601 0.779612 0.18167
C_ C_ 0.00883215 0.683078 0.742955 -0.15533
C_ C_ 0.505581 0.725255 0.765237 0.02923
C_ C_ 0.535012 0.734737 0.811839 -0.15533
C_ C_ 0.558381 0.69379 0.839304 0.18167
C_ C_ 0.509508 0.547969 0.872455 0.69207
C_ C_ 0.981119 0.0101773 0.883563 0.02923
C_ C_ 0.0006699999999999484 0.958402 0.876659 -0.15533
C_ C_ 0.972926 0.918621 0.8878 -0.15533
C_ C_ 0.920957 0.929731 0.896359 0.02923
C_ C_ 0.899113 0.981074 0.902317 -0.15533
C_ C_ 0.927867 0.0227029 0.893299 0.02923
C_ C_ 0.894022 0.575341 0.885898 0.69207
C_ C_ 0.911067 0.829729 0.89531 0.69661
C_ C_ 0.576358 0.796437 0.59193 0.18167
C_ C_ 0.530092 0.777459 0.572835 -0.15533
C_ C_ 0.516906 0.772188 0.52001 0.02923
C_ C_ 0.552573 0.783585 0.978339 -0.15533
C_ C_ 0.594664 0.808406 0.50765 0.18167
C_ C_ 0.723311 0.774572 0.634948 0.18167
C_ C_ 0.749629 0.749973 0.676629 -0.15533
C_ C_ 0.739506 0.767873 0.726279 0.02923
C_ C_ 0.7099 0.814801 0.734502 -0.15533
C_ C_ 0.690696 0.841949 0.690533 0.18167
C_ C_ 0.743774 0.871166 0.537806 0.69207
C_ C_ 0.777799 0.887687 1.00573718 0.02923
C_ C_ 0.760563 0.878967 0.953434 -0.15533
C_ C_ 0.796051 0.876364 0.916205 -0.15533
C_ C_ 0.846294 0.892016 0.929409 0.02923
C_ C_ 0.861725 0.903704 0.980976 -0.15533
C_ C_ 0.827319 0.899127 0.0191104 0.02923
C_ C_ 0.852074 0.889389 0.566072 0.69207
C_ C_ 0.860144 0.884852 0.833949 0.69661
C_ C_ 0.810058 0.925428 0.680351 0.18167
C_ C_ 0.768625 0.952111 0.702918 -0.15533
C_ C_ 0.779074 -0.016271999999999953 0.747629 0.02923
C_ C_ 0.818719 0.532351 0.747253 -0.15533
C_ C_ 0.8676 0.972121 0.733212 0.18167
C_ C_ 0.98973 0.860243 0.70227 0.18167
C_ C_ 0.510728 0.811363 0.732854 -0.15533
C_ C_ 0.988797 0.775548 0.736307 0.02923
C_ C_ 0.937197 0.776893 0.717428 -0.15533
C_ C_ 0.912655 0.821002 0.695862 0.18167
C_ C_ 0.980318 0.958858 0.62076 0.69207
C_ C_ 0.523675 0.489223 0.613929 0.02923
C_ C_ 0.503932 0.540237 0.610841 -0.15533
C_ C_ 0.535444 0.576693 0.609471 -0.15533
C_ C_ 0.588492 0.565798 0.602958 0.02923
C_ C_ 0.608398 0.515478 0.601786 -0.15533
C_ C_ 0.578452 0.476855 0.612281 0.02923
C_ C_ 0.591799 0.922752 0.611696 0.69207
C_ C_ 0.602761 0.667878 0.608493 0.69661
C_ C_ 0.934559 0.678971 0.934862 0.18167
C_ C_ 0.977938 0.697113 0.959776 -0.15533
C_ C_ 0.972233 0.734707 1.000000983069 0.02923
C_ C_ 0.926095 0.752872 0.507474 -0.15533
C_ C_ 0.882053 0.724764 0.991601 0.18167
C_ C_ 0.752829 0.699917 0.847382 0.18167
C_ C_ 0.731398 0.721946 0.802638 -0.15533
C_ C_ 0.762911 0.741525 0.771823 0.02923
C_ C_ 0.816078 0.730998 0.781767 -0.15533
C_ C_ 0.837263 0.708036 0.825816 0.18167
C_ C_ 0.764812 0.623614 0.956893 0.69207
C_ C_ 0.726166 0.614469 0.487896 0.02923
C_ C_ 0.745346 0.612141 0.538705 -0.15533
C_ C_ 0.716571 0.601645 0.575732 -0.15533
C_ C_ 0.662873 0.601714 0.564918 0.02923
C_ C_ 0.642366 0.604859 0.515813 -0.15533
C_ C_ 0.672711 0.612108 0.474959 0.02923
C_ C_ 0.655647 0.609021 0.933496 0.69207
C_ C_ 0.65303 0.606283 0.662482 0.69661
C_ C_ 0.884165 0.886189 0.890012 -0.30787
C_ C_ 0.625376 0.609297 0.607462 -0.30787
N_ N_ 0.644397 0.56735 0.823876 -0.32189
N_ N_ 0.557259 0.647988 0.818718 -0.32189
N_ N_ 0.608317 0.809733 0.559427 -0.32189
N_ N_ 0.693158 0.818347 0.642711 -0.32189
N_ N_ 0.859987 0.936834 0.69454 -0.32189
N_ N_ 0.940258 0.858516 0.684393 -0.32189
N_ N_ 0.888192 0.691217 0.951342 -0.32189
N_ N_ 0.805312 0.694821 0.858989 -0.32189
O_ O_ 1.00012 0.59433 0.877644 -0.63271
O_ O_ 0.548543 0.539405 0.846658 -0.57982
O_ O_ 0.89215 0.602695 0.845923 -0.63271
O_ O_ 0.863054 0.591881 0.924548 -0.57982
O_ O_ 0.745212 0.899724 0.579172 -0.63271
O_ O_ 0.708596 0.838878 0.531863 -0.57982
O_ O_ 0.859696 0.845757 0.586238 -0.63271
O_ O_ 0.876949 0.925037 0.587457 -0.57982
O_ O_ 0.489582 0.903643 0.604753 -0.63271
O_ O_ 0.948944 0.967326 0.655456 -0.57982
O_ O_ 0.589008 0.897676 0.651852 -0.63271
O_ O_ 0.630077 0.9116 0.583706 -0.57982
O_ O_ 0.761228 0.599827 0.911409 -0.63271
O_ O_ 0.790326 0.663214 0.963497 -0.57982
O_ O_ 0.654131 0.65287 0.912153 -0.63271
O_ O_ 0.618816 0.579673 0.919385 -0.57982
F_ F_ 0.945651 0.824425 0.940749 -0.20885
F_ F_ 0.940233 0.815903 0.856186 -0.20885
F_ F_ 0.874959 0.793595 0.896203 -0.20885
F_ F_ 0.824238 0.924762 0.832091 -0.20885
F_ F_ 0.83645 0.841202 0.815617 -0.20885
F_ F_ 0.894974 0.890231 0.799035 -0.20885
F_ F_ 0.562067 0.671999 0.57041 -0.20885
F_ F_ 0.577403 0.6884 0.649709 -0.20885
F_ F_ 0.640095 0.700281 0.60265 -0.20885
F_ F_ 0.683501 0.560638 0.66999 -0.20885
F_ F_ 0.683925 0.645512 0.672942 -0.20885
F_ F_ 0.617524 0.615324 0.698021 -0.20885
