_cell_length_a 26.508
_cell_length_b 26.37200000322088
_cell_length_c 26.311999743092066
_cell_angle_alpha 93.74100058972084
_cell_angle_beta 96.04100104955006
_cell_angle_gamma 83.6869992558723
_symmetry_space_group_name_H-M         'P 1'
_symmetry_Int_Tables_number            1
loop_
_symmetry_equiv_pos_as_xyz
   'x, y, z'
                         
loop_
_atom_site_label
_atom_site_type_symbol
_atom_site_fract_x 
_atom_site_fract_y
_atom_site_fract_z
_atom_site_charge
Zn Zn 0.0855943 0.0824914 0.344909 0.83971
Zn Zn 0.15876 0.345668 0.0912421 0.83971
Zn Zn 0.414525 0.42211 0.163443 0.83971
Zn Zn 0.338163 0.153602 0.417185 0.83971
H_ H_ 0.173665 0.133853 0.312104 0.10394
H_ H_ 0.250621 0.102222 0.270335 0.10394
H_ H_ 0.218106 0.453235 0.292747 0.10394
H_ H_ 0.135479 0.982599 0.323459 0.10394
H_ H_ 0.523212 0.0907992 0.253025 0.10394
H_ H_ 0.488025 0.167532 0.201292 0.10394
H_ H_ 0.0140583 0.264555 0.341157 0.10394
H_ H_ 0.0599112 0.18925 0.383522 0.10394
H_ H_ 0.018921 0.430535 0.344924 0.10394
H_ H_ 0.485644 0.376822 0.397433 0.10394
H_ H_ 0.357266 0.492857 0.416017 0.10394
H_ H_ 0.0835576 0.304444 0.137072 0.10394
H_ H_ 0.486178 0.289392 0.09688 0.10394
H_ H_ 0.037667 0.278493 0.43796 0.10394
H_ H_ 0.105658 0.34767 0.98872 0.10394
H_ H_ 0.21534 0.254621 0.101675 0.10394
H_ H_ 0.266037 0.208177 0.174807 0.10394
H_ H_ 0.218906 0.33799 0.27357 0.10394
H_ H_ 0.178848 0.381884 0.199106 0.10394
H_ H_ 0.212918 0.367276 0.445568 0.10394
H_ H_ 0.26707 0.378865 0.377934 0.10394
H_ H_ 0.395535 0.392031 0.494574 0.10394
H_ H_ 0.308113 0.405268 0.166575 0.10394
H_ H_ 0.234507 0.468914 0.190322 0.10394
H_ H_ 0.333976 0.0485446 0.269134 0.10394
H_ H_ 0.409869 0.498064 0.250797 0.10394
H_ H_ 0.00598048 0.388789 0.204303 0.10394
H_ H_ 0.0448418 0.310798 0.253121 0.10394
H_ H_ 0.410894 0.256448 0.237834 0.10394
H_ H_ 0.372331 0.343681 0.208801 0.10394
H_ H_ 0.460195 0.0491784 0.114987 0.10394
H_ H_ 0.0272637 0.122618 0.115171 0.10394
H_ H_ 0.150114 0.00808304 0.0988978 0.10394
H_ H_ 0.438533 0.162675 0.394428 0.10394
H_ H_ 0.0136643 0.190267 0.450921 0.10394
H_ H_ 0.4125 0.287079 0.0424005 0.10394
H_ H_ 0.344127 0.228077 0.503523 0.10394
H_ H_ 0.234903 0.190171 0.384616 0.10394
H_ H_ 0.192769 0.233086 0.310199 0.10394
H_ H_ 0.335105 0.247701 0.263869 0.10394
H_ H_ 0.379454 0.189342 0.327463 0.10394
H_ H_ 0.295329 0.0910362 0.0533967 0.10394
H_ H_ 0.241021 0.085446 0.122061 0.10394
H_ H_ 0.10876 0.0919051 0.0143665 0.10394
C_ C_ 0.182978 0.0928787 0.309472 0.18167
C_ C_ 0.226293 0.0757026 0.284671 -0.15533
C_ C_ 0.237083 0.0218862 0.273913 0.02923
C_ C_ 0.209853 0.494054 0.296998 -0.15533
C_ C_ 0.162369 0.00903384 0.315095 0.18167
C_ C_ 0.0282791 0.132827 0.267863 0.18167
C_ C_ 0.506431 0.174654 0.240514 -0.15533
C_ C_ 0.004389999999999894 0.224236 0.264897 0.02923
C_ C_ 0.0192301 0.229937 0.318843 -0.15533
C_ C_ 0.0435456 0.186902 0.343125 0.18167
C_ C_ 0.00756063 0.0383131 0.36294 0.69207
C_ C_ 0.475823 0.50545 0.383117 0.02923
C_ C_ 0.493361 0.452713 0.380234 -0.15533
C_ C_ 0.465228 0.416017 0.393179 -0.15533
C_ C_ 0.412681 0.429834 0.401035 0.02923
C_ C_ 0.393192 0.481681 0.400988 -0.15533
C_ C_ 0.42549 0.518095 0.393692 0.02923
C_ C_ 0.397082 0.0708746 0.38213 0.69207
C_ C_ 0.398543 0.334807 0.390169 0.69661
C_ C_ 0.0734311 0.298361 0.0957521 0.18167
C_ C_ 0.0276051 0.280305 0.0758736 -0.15533
C_ C_ 0.0140379 0.275709 0.0232178 0.02923
C_ C_ 0.0441072 0.28772 0.479099 -0.15533
C_ C_ 0.0872581 0.319753 0.0114192 0.18167
C_ C_ 0.217373 0.270449 0.139235 0.18167
C_ C_ 0.240489 0.242931 0.182048 -0.15533
C_ C_ 0.2358 0.265225 0.231379 0.02923
C_ C_ 0.214733 0.315519 0.236542 -0.15533
C_ C_ 0.195266 0.341945 0.195029 0.18167
C_ C_ 0.241345 0.371101 0.057957 0.69207
C_ C_ 0.270527 0.379409 0.507922 0.02923
C_ C_ 0.251626 0.378329 0.456679 -0.15533
C_ C_ 0.284371 0.383138 0.418845 -0.15533
C_ C_ 0.335448 0.395354 0.431572 0.02923
C_ C_ 0.353989 0.39484 0.483097 -0.15533
C_ C_ 0.321283 0.38905 0.52081 0.02923
C_ C_ 0.354257 0.384732 0.083553 0.69207
C_ C_ 0.346861 0.395722 0.33619 0.69661
C_ C_ 0.314682 0.442333 0.182943 0.18167
C_ C_ 0.272929 0.472365 0.205619 -0.15533
C_ C_ 0.281226 0.506996 0.248298 0.02923
C_ C_ 0.327099 0.0158945 0.243304 -0.15533
C_ C_ 0.371459 0.492021 0.235939 0.18167
C_ C_ 0.49694 0.352755 0.20464 0.18167
C_ C_ 0.00899937 0.312781 0.231623 -0.15533
C_ C_ 0.487914 0.269714 0.237537 0.02923
C_ C_ 0.435568 0.282919 0.234479 -0.15533
C_ C_ 0.414174 0.331616 0.211751 0.18167
C_ C_ 0.489781 0.461496 0.129929 0.69207
C_ C_ 0.0261967 0.995972 0.122634 0.02923
C_ C_ 0.00758067 0.0477514 0.120071 -0.15533
C_ C_ 0.0402641 0.0832166 0.110973 -0.15533
C_ C_ 0.0926241 0.0696547 0.107146 0.02923
C_ C_ 0.110752 0.0187013 0.10556 -0.15533
C_ C_ 0.078537 0.983327 0.114924 0.02923
C_ C_ 0.102733 0.424703 0.116522 0.69207
C_ C_ 0.111722 0.168395 0.112209 0.69661
C_ C_ 0.433546 0.186234 0.430633 0.18167
C_ C_ 0.477154 0.205391 0.455788 -0.15533
C_ C_ 0.471285 0.241122 0.499548 0.02923
C_ C_ 0.4219 0.254515 0.0146114 -0.15533
C_ C_ 0.380382 0.22534 0.489668 0.18167
C_ C_ 0.255112 0.199679 0.35635 0.18167
C_ C_ 0.232847 0.229358 0.316993 -0.15533
C_ C_ 0.260609 0.239977 0.278639 0.02923
C_ C_ 0.312103 0.227727 0.282482 -0.15533
C_ C_ 0.336688 0.20308 0.326647 0.18167
C_ C_ 0.257335 0.118748 0.452278 0.69207
C_ C_ 0.229802 0.106403 0.993247 0.02923
C_ C_ 0.250912 0.0956933 0.0442112 -0.15533
C_ C_ 0.221537 0.0865207 0.0828441 -0.15533
C_ C_ 0.169027 0.0979091 0.0731848 0.02923
C_ C_ 0.147542 0.0983457 0.0224323 -0.15533
C_ C_ 0.175552 0.109698 0.983454 0.02923
C_ C_ 0.148772 0.102146 0.423079 0.69207
C_ C_ 0.158659 0.102619 0.170621 0.69661
C_ C_ 0.373361 0.389562 0.391257 -0.30787
C_ C_ 0.132554 0.109668 0.115638 -0.30787
N_ N_ 0.146815 0.0591613 0.315272 -0.32189
N_ N_ 0.0473163 0.140488 0.3188 -0.32189
N_ N_ 0.103873 0.314749 0.0622211 -0.32189
N_ N_ 0.192133 0.316998 0.148811 -0.32189
N_ N_ 0.363905 0.450018 0.203429 -0.32189
N_ N_ 0.445032 0.3626 0.193248 -0.32189
N_ N_ 0.390937 0.188798 0.452679 -0.32189
N_ N_ 0.307896 0.187995 0.36044 -0.32189
O_ O_ 0.50714 0.0906205 0.400978 -0.63271
O_ O_ 0.0453589 0.0311512 0.334803 -0.57982
O_ O_ 0.401707 0.0992937 0.34278 -0.63271
O_ O_ 0.371919 0.0915592 0.420565 -0.57982
O_ O_ 0.2421 0.40151 0.101321 -0.63271
O_ O_ 0.205577 0.341805 0.0482427 -0.57982
O_ O_ 0.350211 0.34708 0.113356 -0.63271
O_ O_ 0.379315 0.423593 0.102695 -0.57982
O_ O_ 0.983595 0.41394 0.0911711 -0.63271
O_ O_ 0.466243 0.464296 0.169861 -0.57982
O_ O_ 0.0905562 0.394845 0.150724 -0.63271
O_ O_ 0.137318 0.406616 0.0865552 -0.57982
O_ O_ 0.255788 0.0893334 0.411143 -0.63271
O_ O_ 0.290036 0.151829 0.460744 -0.57982
O_ O_ 0.15043 0.144749 0.401782 -0.63271
O_ O_ 0.110654 0.0754054 0.408453 -0.57982
F_ F_ 0.427153 0.325208 0.435382 -0.20885
F_ F_ 0.427478 0.327006 0.349651 -0.20885
F_ F_ 0.364196 0.299046 0.387221 -0.20885
F_ F_ 0.3124 0.436842 0.332286 -0.20885
F_ F_ 0.324707 0.353036 0.316455 -0.20885
F_ F_ 0.381821 0.398349 0.301323 -0.20885
F_ F_ 0.079981 0.171621 0.06702 -0.20885
F_ F_ 0.0848218 0.195817 0.15165 -0.20885
F_ F_ 0.151447 0.197745 0.107019 -0.20885
F_ F_ 0.176608 0.0517959 0.180889 -0.20885
F_ F_ 0.198791 0.133497 0.181312 -0.20885
F_ F_ 0.124787 0.117015 0.207995 -0.20885
Zn Zn 0.0907703 0.0845833 0.848835 0.83971
Zn Zn 0.159583 0.340755 0.582458 0.83971
Zn Zn 0.412277 0.415034 0.661263 0.83971
Zn Zn 0.34384 0.150493 0.921864 0.83971
H_ H_ 0.164886 0.136709 0.808789 0.10394
H_ H_ 0.246326 0.103687 0.771134 0.10394
H_ H_ 0.203876 0.448102 0.793206 0.10394
H_ H_ 0.132183 0.984017 0.818128 0.10394
H_ H_ 0.523709 0.0961934 0.741536 0.10394
H_ H_ 0.498811 0.176109 0.697268 0.10394
H_ H_ 0.0291264 0.270467 0.840683 0.10394
H_ H_ 0.0708398 0.194984 0.883511 0.10394
H_ H_ 0.0321036 0.455172 0.882877 0.10394
H_ H_ 0.480357 0.374658 0.877619 0.10394
H_ H_ 0.360815 0.483493 0.922795 0.10394
H_ H_ 0.0766633 0.307824 0.625445 0.10394
H_ H_ 0.507747 0.263949 0.600783 0.10394
H_ H_ 0.031851 0.296417 0.947723 0.10394
H_ H_ 0.122199 0.308195 0.476341 0.10394
H_ H_ 0.225003 0.243599 0.596241 0.10394
H_ H_ 0.268743 0.196636 0.672805 0.10394
H_ H_ 0.221634 0.329593 0.764232 0.10394
H_ H_ 0.171911 0.371396 0.694193 0.10394
H_ H_ 0.212444 0.381447 0.958563 0.10394
H_ H_ 0.267578 0.389425 0.890264 0.10394
H_ H_ 0.398653 0.386866 0.998275 0.10394
H_ H_ 0.313066 0.39388 0.666438 0.10394
H_ H_ 0.236508 0.436242 0.705202 0.10394
H_ H_ 0.343578 0.0494019 0.784452 0.10394
H_ H_ 0.399834 0.50875 0.739539 0.10394
H_ H_ 0.0138861 0.382819 0.695868 0.10394
H_ H_ 0.0522635 0.303199 0.736395 0.10394
H_ H_ 0.421021 0.240557 0.719572 0.10394
H_ H_ 0.377464 0.318929 0.681662 0.10394
H_ H_ 0.462314 0.0472651 0.614921 0.10394
H_ H_ 0.0121297 0.117853 0.612682 0.10394
H_ H_ 0.137323 0.0047453 0.587882 0.10394
H_ H_ 0.440975 0.159687 0.90343 0.10394
H_ H_ 0.0185352 0.199184 0.941768 0.10394
H_ H_ 0.419141 0.277723 0.548918 0.10394
H_ H_ 0.342891 0.240506 0.000922209 0.10394
H_ H_ 0.242237 0.188269 0.879448 0.10394
H_ H_ 0.205455 0.238596 0.808179 0.10394
H_ H_ 0.347999 0.23089 0.752257 0.10394
H_ H_ 0.388766 0.177882 0.820995 0.10394
H_ H_ 0.280037 0.106967 0.555557 0.10394
H_ H_ 0.226318 0.0996961 0.620129 0.10394
H_ H_ 0.100768 0.0841996 0.504444 0.10394
C_ C_ 0.175928 0.0958307 0.801365 0.18167
C_ C_ 0.221931 0.0776214 0.783031 -0.15533
C_ C_ 0.236326 0.0259211 0.775335 0.02923
C_ C_ 0.196439 0.489346 0.793709 -0.15533
C_ C_ 0.153908 0.0102222 0.802294 0.18167
C_ C_ 0.019966 0.133113 0.782217 0.18167
C_ C_ 0.514026 0.177459 0.738599 -0.15533
C_ C_ 0.00488129 0.223894 0.77238 0.02923
C_ C_ 0.030583 0.232249 0.821612 -0.15533
C_ C_ 0.0547103 0.19019 0.847642 0.18167
C_ C_ 0.00575486 0.0499866 0.876203 0.69207
C_ C_ 0.474015 0.50102 0.878593 0.02923
C_ C_ 0.492085 0.450883 0.874333 -0.15533
C_ C_ 0.463592 0.41297 0.880865 -0.15533
C_ C_ 0.416098 0.42369 0.89948 0.02923
C_ C_ 0.396659 0.475653 0.905804 -0.15533
C_ C_ 0.425397 0.51341 0.895929 0.02923
C_ C_ 0.402834 0.068876 0.892739 0.69207
C_ C_ 0.400336 0.326654 0.893015 0.69661
C_ C_ 0.0677897 0.299157 0.584029 0.18167
C_ C_ 0.0209348 0.286751 0.562195 -0.15533
C_ C_ 0.00912791 0.275543 0.510329 0.02923
C_ C_ 0.0445621 0.294587 0.989176 -0.15533
C_ C_ 0.0934445 0.299943 0.499523 0.18167
C_ C_ 0.224398 0.264363 0.631893 0.18167
C_ C_ 0.250524 0.238725 0.67566 -0.15533
C_ C_ 0.251108 0.263351 0.7242 0.02923
C_ C_ 0.223137 0.309514 0.729502 -0.15533
C_ C_ 0.19585 0.334327 0.686831 0.18167
C_ C_ 0.237663 0.369677 0.54711 0.69207
C_ C_ 0.275594 0.377799 0.0188156 0.02923
C_ C_ 0.256101 0.381093 0.968442 -0.15533
C_ C_ 0.285428 0.384224 0.92829 -0.15533
C_ C_ 0.338029 0.38859 0.938421 0.02923
C_ C_ 0.359141 0.385047 0.989127 -0.15533
C_ C_ 0.328684 0.383959 0.0308421 0.02923
C_ C_ 0.349984 0.385927 0.574097 0.69207
C_ C_ 0.349278 0.387685 0.838761 0.69661
C_ C_ 0.317075 0.427802 0.693858 0.18167
C_ C_ 0.273369 0.450702 0.715057 -0.15533
C_ C_ 0.275793 0.496054 0.746931 0.02923
C_ C_ 0.330931 0.0240409 0.752456 -0.15533
C_ C_ 0.365146 0.491432 0.73323 0.18167
C_ C_ 0.493303 0.357279 0.715037 0.18167
C_ C_ 0.012233 0.308311 0.727919 -0.15533
C_ C_ 0.490223 0.271617 0.740038 0.02923
C_ C_ 0.437541 0.276521 0.720951 -0.15533
C_ C_ 0.415484 0.319976 0.700049 0.18167
C_ C_ 0.489867 0.453315 0.626517 0.69207
C_ C_ 0.0184943 0.98862 0.614572 0.02923
C_ C_ 0.0015600000000000058 0.0411545 0.62104 -0.15533
C_ C_ 0.0290378 0.0803336 0.609481 -0.15533
C_ C_ 0.079481 0.0673131 0.601653 0.02923
C_ C_ 0.0972936 0.0159063 0.591908 -0.15533
C_ C_ 0.0695616 0.976638 0.604524 0.02923
C_ C_ 0.0982964 0.42251 0.603716 0.69207
C_ C_ 0.0940023 0.163302 0.602809 0.69661
C_ C_ 0.437552 0.183838 0.936968 0.18167
C_ C_ 0.480129 0.202678 0.962875 -0.15533
C_ C_ 0.47132 0.240564 1.000564551 0.02923
C_ C_ 0.421899 0.248224 0.515668 -0.15533
C_ C_ 0.381594 0.229654 0.992047 0.18167
C_ C_ 0.266227 0.20093 0.853041 0.18167
C_ C_ 0.24544 0.22659 0.809907 -0.15533
C_ C_ 0.274663 0.238363 0.771319 0.02923
C_ C_ 0.327079 0.223842 0.779672 -0.15533
C_ C_ 0.348145 0.191972 0.819097 0.18167
C_ C_ 0.264861 0.118578 0.955024 0.69207
C_ C_ 0.22306 0.111901 0.491771 0.02923
C_ C_ 0.240138 0.109614 0.54358 -0.15533
C_ C_ 0.209642 0.0989001 0.58114 -0.15533
C_ C_ 0.156161 0.0978214 0.568729 0.02923
C_ C_ 0.139936 0.0926978 0.516303 -0.15533
C_ C_ 0.17161 0.100615 0.479743 0.02923
C_ C_ 0.153298 0.113934 0.930056 0.69207
C_ C_ 0.138615 0.103765 0.6649 0.69661
C_ C_ 0.376913 0.381547 0.895986 -0.30787
C_ C_ 0.115935 0.108188 0.608093 -0.30787
N_ N_ 0.141028 0.0606383 0.807781 -0.32189
N_ N_ 0.0515496 0.14232 0.825627 -0.32189
N_ N_ 0.103822 0.303913 0.552169 -0.32189
N_ N_ 0.193958 0.309033 0.63908 -0.32189
N_ N_ 0.360753 0.451108 0.698435 -0.32189
N_ N_ 0.441697 0.36096 0.701174 -0.32189
N_ N_ 0.391751 0.191854 0.952981 -0.32189
N_ N_ 0.317399 0.184879 0.858156 -0.32189
O_ O_ 0.508557 0.0892102 0.896666 -0.63271
O_ O_ 0.0454445 0.040622 0.847257 -0.57982
O_ O_ 0.396623 0.0906729 0.849066 -0.63271
O_ O_ 0.383352 0.092419 0.931576 -0.57982
O_ O_ 0.241882 0.393939 0.593047 -0.63271
O_ O_ 0.204103 0.335646 0.537493 -0.57982
O_ O_ 0.348791 0.345052 0.600214 -0.63271
O_ O_ 0.37332 0.422984 0.596836 -0.57982
O_ O_ 0.987151 0.403429 0.598824 -0.63271
O_ O_ 0.455196 0.462677 0.65968 -0.57982
O_ O_ 0.089378 0.395446 0.643105 -0.63271
O_ O_ 0.134255 0.406246 0.575546 -0.57982
O_ O_ 0.266813 0.0934424 0.909998 -0.63271
O_ O_ 0.296602 0.152998 0.967624 -0.57982
O_ O_ 0.158915 0.154969 0.905296 -0.63271
O_ O_ 0.11448 0.0868333 0.914187 -0.57982
F_ F_ 0.436636 0.323901 0.935156 -0.20885
F_ F_ 0.425606 0.314312 0.849539 -0.20885
F_ F_ 0.369527 0.287955 0.896987 -0.20885
F_ F_ 0.317231 0.432651 0.832764 -0.20885
F_ F_ 0.316286 0.350764 0.830483 -0.20885
F_ F_ 0.378583 0.379285 0.800181 -0.20885
F_ F_ 0.0653772 0.168883 0.557669 -0.20885
F_ F_ 0.0608662 0.182216 0.639857 -0.20885
F_ F_ 0.133472 0.194168 0.602708 -0.20885
F_ F_ 0.168858 0.0570519 0.672309 -0.20885
F_ F_ 0.166915 0.143869 0.681945 -0.20885
F_ F_ 0.101104 0.102744 0.697898 -0.20885
Zn Zn 0.0848963 0.586974 0.344173 0.83971
Zn Zn 0.15794 0.852339 0.0866956 0.83971
Zn Zn 0.410189 0.915723 0.150109 0.83971
Zn Zn 0.339727 0.654987 0.418463 0.83971
H_ H_ 0.15951 0.638978 0.29534 0.10394
H_ H_ 0.248939 0.609062 0.269626 0.10394
H_ H_ 0.207984 0.950016 0.278971 0.10394
H_ H_ 0.135007 0.485933 0.312097 0.10394
H_ H_ 0.538544 0.599628 0.249186 0.10394
H_ H_ 0.502044 0.67282 0.199737 0.10394
H_ H_ 0.0396537 0.774261 0.331795 0.10394
H_ H_ 0.0680702 0.699261 0.382711 0.10394
H_ H_ 0.0221456 0.939876 0.346969 0.10394
H_ H_ 0.489817 0.88179 0.383236 0.10394
H_ H_ 0.351908 0.982856 0.392 0.10394
H_ H_ 0.0756807 0.814059 0.134863 0.10394
H_ H_ 0.500901 0.76882 0.0972311 0.10394
H_ H_ 0.045283 0.787367 0.436905 0.10394
H_ H_ 0.105161 0.837912 0.986784 0.10394
H_ H_ 0.23106 0.761263 0.0960845 0.10394
H_ H_ 0.266906 0.707902 0.163504 0.10394
H_ H_ 0.224415 0.835989 0.271013 0.10394
H_ H_ 0.179505 0.881393 0.194992 0.10394
H_ H_ 0.224052 0.860513 0.443073 0.10394
H_ H_ 0.278408 0.867986 0.377125 0.10394
H_ H_ 0.402634 0.896977 0.490317 0.10394
H_ H_ 0.304865 0.898627 0.15946 0.10394
H_ H_ 0.232363 0.952108 0.188146 0.10394
H_ H_ 0.340621 0.550438 0.287785 0.10394
H_ H_ 0.405752 -0.00416148 0.235247 0.10394
H_ H_ 0.013695 0.891381 0.203842 0.10394
H_ H_ 0.0533545 0.818324 0.248938 0.10394
H_ H_ 0.412093 0.754669 0.237349 0.10394
H_ H_ 0.369481 0.82928 0.188133 0.10394
H_ H_ 0.473946 0.564371 0.144541 0.10394
H_ H_ 0.0176981 0.616336 0.0890729 0.10394
H_ H_ 0.151029 0.506676 0.115798 0.10394
H_ H_ 0.444913 0.662712 0.409435 0.10394
H_ H_ 0.0143827 0.6906 0.431283 0.10394
H_ H_ 0.415214 0.784684 0.041391 0.10394
H_ H_ 0.337018 0.738148 0.50691 0.10394
H_ H_ 0.241266 0.691906 0.380062 0.10394
H_ H_ 0.201111 0.738411 0.310266 0.10394
H_ H_ 0.340706 0.713374 0.240258 0.10394
H_ H_ 0.380564 0.678808 0.320991 0.10394
H_ H_ 0.290666 0.624405 0.0614191 0.10394
H_ H_ 0.229484 0.622459 0.124895 0.10394
H_ H_ 0.114656 0.585599 0.00625996 0.10394
C_ C_ 0.175989 0.599214 0.298383 0.18167
C_ C_ 0.22557 0.581953 0.284747 -0.15533
C_ C_ 0.239592 0.528371 0.277972 0.02923
C_ C_ 0.207001 0.988257 0.293739 -0.15533
C_ C_ 0.160827 0.513102 0.308572 0.18167
C_ C_ 0.0271837 0.638458 0.270217 0.18167
C_ C_ 0.512302 0.678631 0.242608 -0.15533
C_ C_ 0.0187281 0.730314 0.26102 0.02923
C_ C_ 0.0387085 0.737175 0.312456 -0.15533
C_ C_ 0.0560735 0.694145 0.340972 0.18167
C_ C_ 0.00553153 0.538665 0.366452 0.69207
C_ C_ 0.473612 0.0104654 0.379098 0.02923
C_ C_ 0.496059 0.960021 0.380629 -0.15533
C_ C_ 0.469791 0.920885 0.390842 -0.15533
C_ C_ 0.415417 0.929244 0.396747 0.02923
C_ C_ 0.39313 0.976875 0.38919 -0.15533
C_ C_ 0.422241 0.0183916 0.386735 0.02923
C_ C_ 0.40234 0.573586 0.392806 0.69207
C_ C_ 0.412766 0.82573 0.388978 0.69661
C_ C_ 0.069246 0.80185 0.0936277 0.18167
C_ C_ 0.0264413 0.776909 0.0775067 -0.15533
C_ C_ 0.0122461 0.775647 0.025066 0.02923
C_ C_ 0.0558924 0.785449 0.479476 -0.15533
C_ C_ 0.0833903 0.821439 0.0117863 0.18167
C_ C_ 0.225608 0.776002 0.135208 0.18167
C_ C_ 0.248195 0.746336 0.174334 -0.15533
C_ C_ 0.242658 0.765302 0.226305 0.02923
C_ C_ 0.221239 0.815661 0.233405 -0.15533
C_ C_ 0.194503 0.84026 0.192272 0.18167
C_ C_ 0.244841 0.86117 0.0472607 0.69207
C_ C_ 0.279506 0.872034 0.507671 0.02923
C_ C_ 0.259709 0.871494 0.455433 -0.15533
C_ C_ 0.292893 0.875496 0.415502 -0.15533
C_ C_ 0.344285 0.884533 0.428185 0.02923
C_ C_ 0.362051 0.890747 0.480686 -0.15533
C_ C_ 0.331732 0.882952 0.521103 0.02923
C_ C_ 0.351349 0.88395 0.0697539 0.69207
C_ C_ 0.353793 0.884862 0.332676 0.69661
C_ C_ 0.310293 0.931406 0.181442 0.18167
C_ C_ 0.269628 0.959819 0.202469 -0.15533
C_ C_ 0.279119 0.999964 0.240298 0.02923
C_ C_ 0.331195 0.521093 0.258413 -0.15533
C_ C_ 0.367918 0.987306 0.220403 0.18167
C_ C_ 0.492959 0.848087 0.193416 0.18167
C_ C_ 0.0168426 0.817617 0.230827 -0.15533
C_ C_ 0.483903 0.772339 0.237748 0.02923
C_ C_ 0.4336 0.779265 0.222155 -0.15533
C_ C_ 0.410877 0.821225 0.194057 0.18167
C_ C_ 0.48907 0.950492 0.116535 0.69207
C_ C_ 0.0266303 0.491579 0.119296 0.02923
C_ C_ 0.00479035 0.540814 0.106295 -0.15533
C_ C_ 0.0351879 0.577399 0.096947 -0.15533
C_ C_ 0.0888467 0.566117 0.100888 0.02923
C_ C_ 0.109301 0.515668 0.10908 -0.15533
C_ C_ 0.0788214 0.478873 0.114978 0.02923
C_ C_ 0.0973506 0.930416 0.10843 0.69207
C_ C_ 0.0991898 0.66085 0.0994719 0.69661
C_ C_ 0.435673 0.682015 0.446529 0.18167
C_ C_ 0.476483 0.706534 0.473695 -0.15533
C_ C_ 0.465197 0.744349 0.512509 0.02923
C_ C_ 0.423327 0.75772 0.0100776 -0.15533
C_ C_ 0.376446 0.7264 0.499129 0.18167
C_ C_ 0.264395 0.69957 0.351358 0.18167
C_ C_ 0.241219 0.726276 0.309987 -0.15533
C_ C_ 0.26767 0.735769 0.268521 0.02923
C_ C_ 0.318408 0.715542 0.272482 -0.15533
C_ C_ 0.342485 0.696547 0.319407 0.18167
C_ C_ 0.262506 0.61834 0.454699 0.69207
C_ C_ 0.232294 0.621922 0.996566 0.02923
C_ C_ 0.252266 0.618531 0.049676 -0.15533
C_ C_ 0.218125 0.612565 0.0868735 -0.15533
C_ C_ 0.168052 0.599606 0.0714476 0.02923
C_ C_ 0.151511 0.595368 0.0184319 -0.15533
C_ C_ 0.181344 0.60985 0.982414 0.02923
C_ C_ 0.150234 0.606098 0.423554 0.69207
C_ C_ 0.144728 0.608684 0.165928 0.69661
C_ C_ 0.381579 0.881927 0.386894 -0.30787
C_ C_ 0.126225 0.607501 0.108745 -0.30787
N_ N_ 0.14638 0.563942 0.312845 -0.32189
N_ N_ 0.0522792 0.646889 0.317355 -0.32189
N_ N_ 0.0967299 0.824052 0.0624812 -0.32189
N_ N_ 0.193339 0.817885 0.143314 -0.32189
N_ N_ 0.358301 0.94677 0.188791 -0.32189
N_ N_ 0.440143 0.857018 0.184125 -0.32189
N_ N_ 0.387798 0.689656 0.461342 -0.32189
N_ N_ 0.314527 0.682655 0.355241 -0.32189
O_ O_ 0.508542 0.589071 0.403331 -0.63271
O_ O_ 0.0410172 0.538513 0.335959 -0.57982
O_ O_ 0.404249 0.600455 0.35176 -0.63271
O_ O_ 0.366808 0.590553 0.42194 -0.57982
O_ O_ 0.244978 0.896927 0.0857943 -0.63271
O_ O_ 0.207763 0.831674 0.0441777 -0.57982
O_ O_ 0.353468 0.84418 0.096524 -0.63271
O_ O_ 0.386092 0.91485 0.0832771 -0.57982
O_ O_ 0.995233 0.911459 0.1007 -0.63271
O_ O_ 0.455639 0.96201 0.149223 -0.57982
O_ O_ 0.0953911 0.900176 0.145759 -0.63271
O_ O_ 0.130053 0.917285 0.0751741 -0.57982
O_ O_ 0.252624 0.602156 0.406584 -0.63271
O_ O_ 0.292375 0.655312 0.465979 -0.57982
O_ O_ 0.147862 0.649788 0.400944 -0.63271
O_ O_ 0.114114 0.576034 0.408681 -0.57982
F_ F_ 0.447468 0.83065 0.431471 -0.20885
F_ F_ 0.43804 0.810924 0.347397 -0.20885
F_ F_ 0.381231 0.790763 0.396101 -0.20885
F_ F_ 0.314728 0.923567 0.331094 -0.20885
F_ F_ 0.33546 0.840725 0.312748 -0.20885
F_ F_ 0.388252 0.889997 0.298254 -0.20885
F_ F_ 0.0759186 0.667104 0.0519828 -0.20885
F_ F_ 0.0659251 0.679065 0.137433 -0.20885
F_ F_ 0.135079 0.69342 0.102304 -0.20885
F_ F_ 0.182332 0.568556 0.177062 -0.20885
F_ F_ 0.162175 0.651872 0.187606 -0.20885
F_ F_ 0.105351 0.608628 0.198562 -0.20885
Zn Zn 0.0904241 0.593419 0.852401 0.83971
Zn Zn 0.160083 0.847216 0.581176 0.83971
Zn Zn 0.408627 0.916416 0.655855 0.83971
Zn Zn 0.348911 0.65508 0.916398 0.83971
H_ H_ 0.171687 0.634892 0.809176 0.10394
H_ H_ 0.249148 0.595211 0.770071 0.10394
H_ H_ 0.210967 0.950795 0.7832 0.10394
H_ H_ 0.129502 0.489955 0.829622 0.10394
H_ H_ 0.530986 0.595024 0.74935 0.10394
H_ H_ 0.478111 0.665254 0.707641 0.10394
H_ H_ 0.0335844 0.775645 0.821037 0.10394
H_ H_ 0.0852971 0.708434 0.871238 0.10394
H_ H_ 0.035081 0.952313 0.871089 0.10394
H_ H_ 0.48508 0.877718 0.881281 0.10394
H_ H_ 0.352165 0.991112 0.904239 0.10394
H_ H_ 0.082719 0.805793 0.625398 0.10394
H_ H_ 0.495205 0.780565 0.611346 0.10394
H_ H_ 0.0299468 0.803641 0.954944 0.10394
H_ H_ 0.120125 0.826735 0.478725 0.10394
H_ H_ 0.21464 0.743372 0.599385 0.10394
H_ H_ 0.248485 0.696297 0.67407 0.10394
H_ H_ 0.216812 0.831238 0.769396 0.10394
H_ H_ 0.193743 0.880028 0.69103 0.10394
H_ H_ 0.238577 0.823847 0.94644 0.10394
H_ H_ 0.272617 0.858415 0.875634 0.10394
H_ H_ 0.393952 0.906581 0.987542 0.10394
H_ H_ 0.301537 0.92333 0.645489 0.10394
H_ H_ 0.229351 0.966996 0.689315 0.10394
H_ H_ 0.324949 0.548521 0.782024 0.10394
H_ H_ 0.406488 0.015349999999999975 0.725732 0.10394
H_ H_ 0.0103918 0.879226 0.685662 0.10394
H_ H_ 0.0521951 0.803789 0.733398 0.10394
H_ H_ 0.402992 0.751974 0.736566 0.10394
H_ H_ 0.367177 0.829493 0.696052 0.10394
H_ H_ 0.466969 0.55481 0.620477 0.10394
H_ H_ 0.0164521 0.613757 0.620198 0.10394
H_ H_ 0.139518 0.505089 0.577004 0.10394
H_ H_ 0.444791 0.664429 0.890883 0.10394
H_ H_ 0.0119909 0.694511 0.951366 0.10394
H_ H_ 0.403071 0.784075 0.548992 0.10394
H_ H_ 0.344138 0.752052 -0.011212 0.10394
H_ H_ 0.243439 0.70994 0.893628 0.10394
H_ H_ 0.197155 0.75298 0.816591 0.10394
H_ H_ 0.317283 0.686383 0.730207 0.10394
H_ H_ 0.367828 0.666706 0.8106 0.10394
H_ H_ 0.279754 0.603799 0.555352 0.10394
H_ H_ 0.228463 0.595037 0.620211 0.10394
H_ H_ 0.0999702 0.590276 0.504975 0.10394
C_ C_ 0.17692 0.593814 0.802775 0.18167
C_ C_ 0.219849 0.571657 0.776121 -0.15533
C_ C_ 0.229467 0.519206 0.772068 0.02923
C_ C_ 0.202235 0.991795 0.78541 -0.15533
C_ C_ 0.152323 0.513964 0.812415 0.18167
C_ C_ 0.0213606 0.635571 0.778833 0.18167
C_ C_ 0.499595 0.672345 0.743797 -0.15533
C_ C_ 0.00786265 0.725257 0.757805 0.02923
C_ C_ 0.0358397 0.736925 0.803916 -0.15533
C_ C_ 0.0611352 0.698703 0.834755 0.18167
C_ C_ 0.00881204 0.552338 0.881803 0.69207
C_ C_ 0.479292 0.00498138 0.885851 0.02923
C_ C_ 0.49839 0.953008 0.878908 -0.15533
C_ C_ 0.466315 0.916648 0.885367 -0.15533
C_ C_ 0.414246 0.926765 0.891171 0.02923
C_ C_ 0.393643 0.977793 0.896802 -0.15533
C_ C_ 0.425953 0.0169582 0.893465 0.02923
C_ C_ 0.400913 0.56645 0.891014 0.69207
C_ C_ 0.400001 0.831193 0.876444 0.69661
C_ C_ 0.0765836 0.79739 0.584307 0.18167
C_ C_ 0.0323903 0.775361 0.565206 -0.15533
C_ C_ 0.0228075 0.767203 0.510603 0.02923
C_ C_ 0.0428049 0.795741 0.993319 -0.15533
C_ C_ 0.0954838 0.811447 0.50309 0.18167
C_ C_ 0.216195 0.764724 0.636569 0.18167
C_ C_ 0.233002 0.737133 0.679161 -0.15533
C_ C_ 0.237105 0.760494 0.727722 0.02923
C_ C_ 0.215723 0.813229 0.732991 -0.15533
C_ C_ 0.194114 0.839715 0.689608 0.18167
C_ C_ 0.24289 0.866856 0.546206 0.69207
C_ C_ 0.28017 0.865023 0.00482933 0.02923
C_ C_ 0.264157 0.853124 0.952864 -0.15533
C_ C_ 0.289733 0.867019 0.913565 -0.15533
C_ C_ 0.337734 0.885787 0.923174 0.02923
C_ C_ 0.355899 0.894434 0.976764 -0.15533
C_ C_ 0.326694 0.884893 0.0167415 0.02923
C_ C_ 0.353617 0.884335 0.575065 0.69207
C_ C_ 0.345298 0.896078 0.828058 0.69661
C_ C_ 0.308276 0.952266 0.67562 0.18167
C_ C_ 0.268663 0.975291 0.701261 -0.15533
C_ C_ 0.280382 1.00752651 0.74411 0.02923
C_ C_ 0.321774 0.516947 0.753863 -0.15533
C_ C_ 0.368458 1.00163 0.722028 0.18167
C_ C_ 0.49008 0.84928 0.703654 0.18167
C_ C_ 0.0121715 0.805047 0.71992 -0.15533
C_ C_ 0.482451 0.766202 0.7327 0.02923
C_ C_ 0.428328 0.775534 0.72027 -0.15533
C_ C_ 0.407352 0.823189 0.703208 0.18167
C_ C_ 0.491644 0.950078 0.634093 0.69207
C_ C_ 0.0196244 0.486861 0.612762 0.02923
C_ C_ 1.00268188 0.538823 0.621616 -0.15533
C_ C_ 0.0324087 0.575907 0.613441 -0.15533
C_ C_ 0.0829042 0.564989 0.60343 0.02923
C_ C_ 0.102343 0.513738 0.595273 -0.15533
C_ C_ 0.0722267 0.475072 0.601219 0.02923
C_ C_ 0.0969973 0.925333 0.608957 0.69207
C_ C_ 0.0975341 0.65991 0.606462 0.69661
C_ C_ 0.441445 0.683656 0.929603 0.18167
C_ C_ 0.483821 0.704207 0.958451 -0.15533
C_ C_ 0.473363 0.742582 -0.005283000000000038 0.02923
C_ C_ 0.414373 0.752131 0.525166 -0.15533
C_ C_ 0.383325 0.736928 0.980812 0.18167
C_ C_ 0.258952 0.705663 0.855753 0.18167
C_ C_ 0.236448 0.733879 0.815817 -0.15533
C_ C_ 0.258101 0.73078 0.770814 0.02923
C_ C_ 0.298974 0.693204 0.764861 -0.15533
C_ C_ 0.328776 0.67682 0.810383 0.18167
C_ C_ 0.271475 0.62389 0.959791 0.69207
C_ C_ 0.224233 0.610344 0.491003 0.02923
C_ C_ 0.242248 0.607358 0.542719 -0.15533
C_ C_ 0.212284 0.598394 0.581283 -0.15533
C_ C_ 0.160375 0.594883 0.569405 0.02923
C_ C_ 0.140517 0.594145 0.515392 -0.15533
C_ C_ 0.171702 0.604743 0.47767 0.02923
C_ C_ 0.155227 0.614946 0.930942 0.69207
C_ C_ 0.147343 0.603547 0.668029 0.69661
C_ C_ 0.375133 0.886327 0.881542 -0.30787
C_ C_ 0.122986 0.604494 0.611598 -0.30787
N_ N_ 0.141721 0.565913 0.814985 -0.32189
N_ N_ 0.0551748 0.648681 0.819062 -0.32189
N_ N_ 0.108602 0.810989 0.55332 -0.32189
N_ N_ 0.192363 0.81342 0.642726 -0.32189
N_ N_ 0.356652 0.962698 0.686357 -0.32189
N_ N_ 0.439217 0.856221 0.690856 -0.32189
N_ N_ 0.392923 0.701833 0.940852 -0.32189
N_ N_ 0.307606 0.679639 0.854143 -0.32189
O_ O_ 0.503567 0.584212 0.904038 -0.63271
O_ O_ 0.0442683 0.544674 0.849538 -0.57982
O_ O_ 0.396626 0.587365 0.845222 -0.63271
O_ O_ 0.377135 0.590704 0.928416 -0.57982
O_ O_ 0.234582 0.901894 0.582226 -0.63271
O_ O_ 0.210276 0.833033 0.533661 -0.57982
O_ O_ 0.350982 0.84708 0.603212 -0.63271
O_ O_ 0.387741 0.913309 0.587419 -0.57982
O_ O_ 0.989265 0.906671 0.592061 -0.63271
O_ O_ 0.459118 0.957972 0.667063 -0.57982
O_ O_ 0.103278 0.9025 0.652592 -0.63271
O_ O_ 0.124073 0.907169 0.571456 -0.57982
O_ O_ 0.266323 0.597908 0.916052 -0.63271
O_ O_ 0.301494 0.660602 0.96353 -0.57982
O_ O_ 0.153423 0.657662 0.907409 -0.63271
O_ O_ 0.121812 0.584541 0.915433 -0.57982
F_ F_ 0.435493 0.823597 0.918863 -0.20885
F_ F_ 0.424459 0.822701 0.835657 -0.20885
F_ F_ 0.368001 0.793616 0.874824 -0.20885
F_ F_ 0.305038 0.932405 0.834408 -0.20885
F_ F_ 0.322433 0.853737 0.800977 -0.20885
F_ F_ 0.376962 0.909306 0.793716 -0.20885
F_ F_ 0.0706757 0.668393 0.559079 -0.20885
F_ F_ 0.0704098 0.67991 0.646304 -0.20885
F_ F_ 0.131708 0.69641 0.605342 -0.20885
F_ F_ 0.176189 0.555819 0.67646 -0.20885
F_ F_ 0.17889 0.639576 0.679493 -0.20885
F_ F_ 0.114946 0.606922 0.703636 -0.20885
Zn Zn 0.584926 0.0845268 0.344689 0.83971
Zn Zn 0.657927 0.351725 0.0810453 0.83971
Zn Zn 0.907032 0.41719 0.155767 0.83971
Zn Zn 0.839095 0.150322 0.412344 0.83971
H_ H_ 0.663659 0.136048 0.296836 0.10394
H_ H_ 0.740852 0.10269 0.260561 0.10394
H_ H_ 0.687599 0.453272 0.256186 0.10394
H_ H_ 0.628963 0.987893 0.32221 0.10394
H_ H_ 0.0210033 0.0932452 0.251661 0.10394
H_ H_ 0.998058 0.168901 0.201575 0.10394
H_ H_ 0.523405 0.263755 0.341229 0.10394
H_ H_ 0.566676 0.187174 0.379295 0.10394
H_ H_ 0.531761 0.441871 0.374134 0.10394
H_ H_ 0.956917 0.372695 0.339192 0.10394
H_ H_ 0.849209 0.486283 0.40068 0.10394
H_ H_ 0.5666 0.324951 0.13097 0.10394
H_ H_ 1.00623268 0.262801 0.103416 0.10394
H_ H_ 0.538538 0.282106 0.446603 0.10394
H_ H_ 0.618856 0.316866 0.986037 0.10394
H_ H_ 0.718027 0.249622 0.0935127 0.10394
H_ H_ 0.737981 0.19832 0.170827 0.10394
H_ H_ 0.712355 0.333672 0.268198 0.10394
H_ H_ 0.683793 0.381711 0.187402 0.10394
H_ H_ 0.712326 0.367393 0.444652 0.10394
H_ H_ 0.760641 0.371549 0.376207 0.10394
H_ H_ 0.89674 0.390363 0.479595 0.10394
H_ H_ 0.804296 0.401488 0.153965 0.10394
H_ H_ 0.732458 0.457175 0.181883 0.10394
H_ H_ 0.832522 0.0410642 0.283947 0.10394
H_ H_ 0.906488 0.483845 0.251291 0.10394
H_ H_ 0.521625 0.373848 0.188235 0.10394
H_ H_ 0.558843 0.303481 0.237009 0.10394
H_ H_ 0.90746 0.244907 0.227669 0.10394
H_ H_ 0.868968 0.322551 0.179966 0.10394
H_ H_ 0.968228 0.0613081 0.124113 0.10394
H_ H_ 0.515973 0.112469 0.105394 0.10394
H_ H_ 0.64791 0.0053399999999999 0.0902055 0.10394
H_ H_ 0.941098 0.151971 0.399403 0.10394
H_ H_ 0.514119 0.195217 0.442054 0.10394
H_ H_ 0.922757 0.260757 0.0557926 0.10394
H_ H_ 0.836697 0.237864 0.488416 0.10394
H_ H_ 0.734497 0.198695 0.393167 0.10394
H_ H_ 0.68712 0.237316 0.317772 0.10394
H_ H_ 0.822644 0.221316 0.240903 0.10394
H_ H_ 0.869185 0.185981 0.322701 0.10394
H_ H_ 0.790015 0.115328 0.0545335 0.10394
H_ H_ 0.73335 0.10828 0.11911 0.10394
H_ H_ 0.618533 0.0655638 -0.000348507 0.10394
C_ C_ 0.673225 0.0941378 0.294072 0.18167
C_ C_ 0.717579 0.0762738 0.27327 -0.15533
C_ C_ 0.731052 0.0219977 0.26716 0.02923
C_ C_ 0.688877 0.491615 0.27184 -0.15533
C_ C_ 0.653948 0.00973735 0.305771 0.18167
C_ C_ 0.523546 0.131513 0.268247 0.18167
C_ C_ 0.010757 0.173322 0.241355 -0.15533
C_ C_ 0.510494 0.226254 0.265447 0.02923
C_ C_ 0.530252 0.229814 0.31758 -0.15533
C_ C_ 0.551783 0.186264 0.341029 0.18167
C_ C_ 0.506607 0.0499934 0.370794 0.69207
C_ C_ 0.967987 0.500501 0.363714 0.02923
C_ C_ 0.980491 0.447619 0.349132 -0.15533
C_ C_ 0.945469 0.412506 0.34852 -0.15533
C_ C_ 0.901828 0.423594 0.374925 0.02923
C_ C_ 0.886403 0.475599 0.387862 -0.15533
C_ C_ 0.917802 0.512914 0.382042 0.02923
C_ C_ 0.891457 0.0650555 0.375814 0.69207
C_ C_ 0.889572 0.326204 0.379056 0.69661
C_ C_ 0.56098 0.314668 0.0921299 0.18167
C_ C_ 0.517971 0.289291 0.0730142 -0.15533
C_ C_ 0.511401 0.272282 0.0206687 0.02923
C_ C_ 0.546073 0.287102 0.487344 -0.15533
C_ C_ 0.58976 0.312939 0.00943151 0.18167
C_ C_ 0.713849 0.265057 0.133606 0.18167
C_ C_ 0.729152 0.237547 0.175347 -0.15533
C_ C_ 0.726102 0.2599 0.226533 0.02923
C_ C_ 0.708734 0.312458 0.230935 -0.15533
C_ C_ 0.688799 0.339957 0.187098 0.18167
C_ C_ 0.740384 0.370973 0.0428109 0.69207
C_ C_ 0.77626 0.378751 0.505035 0.02923
C_ C_ 0.752055 0.377672 0.453912 -0.15533
C_ C_ 0.780068 0.377067 0.413608 -0.15533
C_ C_ 0.831516 0.388713 0.419091 0.02923
C_ C_ 0.856756 0.387795 0.471997 -0.15533
C_ C_ 0.827544 0.385608 0.516423 0.02923
C_ C_ 0.849781 0.389423 0.0679447 0.69207
C_ C_ 0.833277 0.380829 0.320779 0.69661
C_ C_ 0.810838 0.43385 0.179205 0.18167
C_ C_ 0.769467 0.460748 0.20115 -0.15533
C_ C_ 0.775948 0.498431 0.240011 0.02923
C_ C_ 0.822159 0.0153895 0.250205 -0.15533
C_ C_ 0.86781 0.47913 0.237392 0.18167
C_ C_ 0.985133 0.35511 0.204267 0.18167
C_ C_ 0.518591 0.305767 0.224857 -0.15533
C_ C_ 0.982861 0.271109 0.237957 0.02923
C_ C_ 0.93014 0.275725 0.217916 -0.15533
C_ C_ 0.909283 0.315085 0.188638 0.18167
C_ C_ 0.987713 0.451839 0.124363 0.69207
C_ C_ 0.521549 0.988124 0.106141 0.02923
C_ C_ 0.499274 0.0389232 0.104787 -0.15533
C_ C_ 0.530424 0.0759717 0.0985391 -0.15533
C_ C_ 0.583409 0.0654072 0.0914828 0.02923
C_ C_ 0.606079 0.013843 0.0921831 -0.15533
C_ C_ 0.573775 0.974745 0.0973917 0.02923
C_ C_ 0.597867 0.434125 0.111483 0.69207
C_ C_ 0.595614 0.159191 0.0900413 0.69661
C_ C_ 0.934577 0.17804 0.431777 0.18167
C_ C_ 0.97538 0.202282 0.456659 -0.15533
C_ C_ 0.965807 0.244097 0.489502 0.02923
C_ C_ 0.926929 0.243845 0.0214327 -0.15533
C_ C_ 0.87498 0.223648 0.484388 0.18167
C_ C_ 0.75239 0.199966 0.357459 0.18167
C_ C_ 0.725735 0.226553 0.315087 -0.15533
C_ C_ 0.751151 0.230512 0.27205 0.02923
C_ C_ 0.802742 0.213663 0.27276 -0.15533
C_ C_ 0.8281 0.194216 0.318212 0.18167
C_ C_ 0.759798 0.117063 0.450361 0.69207
C_ C_ 0.728964 0.117797 0.990623 0.02923
C_ C_ 0.749566 0.11381 0.0427816 -0.15533
C_ C_ 0.716958 0.107214 0.0804341 -0.15533
C_ C_ 0.666089 0.0962778 0.0620626 0.02923
C_ C_ 0.653969 0.0839443 0.0112763 -0.15533
C_ C_ 0.679864 0.104073 0.975921 0.02923
C_ C_ 0.649723 0.101865 0.422739 0.69207
C_ C_ 0.639668 0.106465 0.155504 0.69661
C_ C_ 0.864468 0.382749 0.375717 -0.30787
C_ C_ 0.621834 0.103734 0.0992125 -0.30787
N_ N_ 0.643031 0.0615605 0.309204 -0.32189
N_ N_ 0.548893 0.140923 0.315334 -0.32189
N_ N_ 0.596789 0.320829 0.0602588 -0.32189
N_ N_ 0.691341 0.313063 0.140633 -0.32189
N_ N_ 0.857837 0.44429 0.198858 -0.32189
N_ N_ 0.936242 0.355832 0.184286 -0.32189
N_ N_ 0.886597 0.189892 0.445325 -0.32189
N_ N_ 0.803251 0.189734 0.359799 -0.32189
O_ O_ 0.0022599999999999287 0.0792363 0.393603 -0.63271
O_ O_ 0.544319 0.0397038 0.344586 -0.57982
O_ O_ 0.900665 0.0948877 0.340363 -0.63271
O_ O_ 0.867942 0.086118 0.41302 -0.57982
O_ O_ 0.738871 0.399307 0.0855678 -0.63271
O_ O_ 0.702922 0.342273 0.0319334 -0.57982
O_ O_ 0.849643 0.346879 0.088243 -0.63271
O_ O_ 0.880391 0.423219 0.0875406 -0.57982
O_ O_ 0.495889 0.418385 0.104469 -0.63271
O_ O_ 0.957309 0.459319 0.160496 -0.57982
O_ O_ 0.596865 0.411653 0.154528 -0.63271
O_ O_ 0.63428 0.416939 0.0837688 -0.57982
O_ O_ 0.753768 0.0975387 0.40435 -0.63271
O_ O_ 0.798701 0.144558 0.461827 -0.57982
O_ O_ 0.650169 0.147641 0.402348 -0.63271
O_ O_ 0.615829 0.0707969 0.405838 -0.57982
F_ F_ 0.934108 0.329942 0.413594 -0.20885
F_ F_ 0.908148 0.303269 0.335971 -0.20885
F_ F_ 0.861036 0.291928 0.394964 -0.20885
F_ F_ 0.794844 0.423452 0.315334 -0.20885
F_ F_ 0.810995 0.33656 0.306717 -0.20885
F_ F_ 0.864842 0.381161 0.28117 -0.20885
F_ F_ 0.563506 0.163007 0.0463354 -0.20885
F_ F_ 0.566807 0.178791 0.129966 -0.20885
F_ F_ 0.631231 0.192455 0.0885624 -0.20885
F_ F_ 0.671227 0.061538 0.168644 -0.20885
F_ F_ 0.668582 0.145683 0.172662 -0.20885
F_ F_ 0.603499 0.10556 0.188299 -0.20885
Zn Zn 0.59039 0.0796355 0.840179 0.83971
Zn Zn 0.662382 0.343412 0.582431 0.83971
Zn Zn 0.904522 0.416689 0.655138 0.83971
Zn Zn 0.837947 0.159396 0.916923 0.83971
H_ H_ 0.67314 0.130773 0.804266 0.10394
H_ H_ 0.751493 0.0997247 0.759146 0.10394
H_ H_ 0.715186 0.452077 0.794707 0.10394
H_ H_ 0.632116 0.985232 0.806763 0.10394
H_ H_ 0.0121319 0.0949687 0.767483 0.10394
H_ H_ 0.981711 0.168265 0.718571 0.10394
H_ H_ 0.535959 0.260465 0.837094 0.10394
H_ H_ 0.564778 0.179383 0.880013 0.10394
H_ H_ 0.53194 0.439815 0.862952 0.10394
H_ H_ 0.974838 0.386882 0.865838 0.10394
H_ H_ 0.849679 0.489649 0.886616 0.10394
H_ H_ 0.584305 0.305087 0.630238 0.10394
H_ H_ -0.008542999999999967 0.285598 0.586386 0.10394
H_ H_ 0.544088 0.27681 0.948792 0.10394
H_ H_ 0.617626 0.317286 0.477985 0.10394
H_ H_ 0.721007 0.248264 0.600638 0.10394
H_ H_ 0.755198 0.202243 0.679192 0.10394
H_ H_ 0.721059 0.343215 0.767447 0.10394
H_ H_ 0.684319 0.38606 0.687705 0.10394
H_ H_ 0.720347 0.359223 0.94283 0.10394
H_ H_ 0.771163 0.374676 0.873761 0.10394
H_ H_ 0.896512 0.405552 0.983983 0.10394
H_ H_ 0.802392 0.401902 0.664945 0.10394
H_ H_ 0.731644 0.453358 0.696063 0.10394
H_ H_ 0.833936 0.050124 0.763129 0.10394
H_ H_ 0.89801 0.514479 0.724503 0.10394
H_ H_ 0.513734 0.389127 0.703027 0.10394
H_ H_ 0.561253 0.306198 0.738937 0.10394
H_ H_ 0.904359 0.255504 0.736876 0.10394
H_ H_ 0.869596 0.324193 0.684906 0.10394
H_ H_ 0.965398 0.0533031 0.631235 0.10394
H_ H_ 0.511157 0.110773 0.59284 0.10394
H_ H_ 0.637437 0.00542359 0.575299 0.10394
H_ H_ 0.942431 0.168317 0.892054 0.10394
H_ H_ 0.518657 0.189682 0.956544 0.10394
H_ H_ 0.909662 0.268969 0.542657 0.10394
H_ H_ 0.850617 0.227581 0.0117284 0.10394
H_ H_ 0.730026 0.200159 0.889401 0.10394
H_ H_ 0.695392 0.261751 0.82622 0.10394
H_ H_ 0.827401 0.228835 0.746029 0.10394
H_ H_ 0.871878 0.194147 0.826498 0.10394
H_ H_ 0.780589 0.117964 0.550633 0.10394
H_ H_ 0.73375 0.107701 0.617039 0.10394
H_ H_ 0.610375 0.0685517 0.503496 0.10394
C_ C_ 0.680161 0.0931325 0.792926 0.18167
C_ C_ 0.725091 0.07571 0.770852 -0.15533
C_ C_ 0.734836 0.0230572 0.762022 0.02923
C_ C_ 0.705744 0.493892 0.797779 -0.15533
C_ C_ 0.659569 0.00950086 0.801213 0.18167
C_ C_ 0.533223 0.133462 0.761304 0.18167
C_ C_ -0.005639999999999978 0.174267 0.758541 -0.15533
C_ C_ 0.514291 0.223972 0.76389 0.02923
C_ C_ 0.535174 0.226263 0.816168 -0.15533
C_ C_ 0.554821 0.18126 0.839117 0.18167
C_ C_ 0.510264 0.0438719 0.869958 0.69207
C_ C_ 0.971545 0.512609 0.880068 0.02923
C_ C_ 0.991753 0.46202 0.881584 -0.15533
C_ C_ 0.960765 0.424741 0.879852 -0.15533
C_ C_ 0.910604 0.432754 0.886719 0.02923
C_ C_ 0.889687 0.482724 0.882915 -0.15533
C_ C_ 0.918996 0.523807 0.880714 0.02923
C_ C_ 0.892882 0.0729948 0.87723 0.69207
C_ C_ 0.902542 0.335846 0.887797 0.69661
C_ C_ 0.575883 0.297002 0.590195 0.18167
C_ C_ 0.52848 0.277818 0.573242 -0.15533
C_ C_ 0.513399 0.27089 0.520149 0.02923
C_ C_ 0.54628 0.288009 0.988606 -0.15533
C_ C_ 0.592907 0.305033 0.505032 0.18167
C_ C_ 0.718511 0.267947 0.638945 0.18167
C_ C_ 0.736554 0.241816 0.68228 -0.15533
C_ C_ 0.734539 0.269253 0.730438 0.02923
C_ C_ 0.717083 0.321597 0.732159 -0.15533
C_ C_ 0.698216 0.345513 0.687078 0.18167
C_ C_ 0.744786 0.367483 0.544869 0.69207
C_ C_ 0.775441 0.378642 1.00348 0.02923
C_ C_ 0.758711 0.36955 0.950282 -0.15533
C_ C_ 0.78908 0.377682 0.912056 -0.15533
C_ C_ 0.836666 0.394636 0.923973 0.02923
C_ C_ 0.854649 0.401414 0.975491 -0.15533
C_ C_ 0.825258 0.395091 0.0154151 0.02923
C_ C_ 0.852741 0.385469 0.569715 0.69207
C_ C_ 0.850595 0.387009 0.824658 0.69661
C_ C_ 0.809167 0.434275 0.690035 0.18167
C_ C_ 0.768303 0.46365 0.709641 -0.15533
C_ C_ 0.774945 0.504037 0.742258 0.02923
C_ C_ 0.826937 0.0173944 0.74086 -0.15533
C_ C_ 0.8626 0.495345 0.722444 0.18167
C_ C_ 0.990322 0.353588 0.705757 0.18167
C_ C_ 0.518832 0.312623 0.732396 -0.15533
C_ C_ 0.983678 0.270124 0.740024 0.02923
C_ C_ 0.930583 0.278253 0.725415 -0.15533
C_ C_ 0.908548 0.321698 0.700323 0.18167
C_ C_ 0.981407 0.449238 0.619299 0.69207
C_ C_ 0.52445 0.990285 0.622802 0.02923
C_ C_ 0.503409 0.0405054 0.614291 -0.15533
C_ C_ 0.53235 0.0768812 0.605044 -0.15533
C_ C_ 0.583652 0.0662407 0.598211 0.02923
C_ C_ 0.602311 0.0153752 0.592995 -0.15533
C_ C_ 0.574572 0.976526 0.608263 0.02923
C_ C_ 0.599341 0.424345 0.607244 0.69207
C_ C_ 0.598659 0.162511 0.591997 0.69661
C_ C_ 0.938143 0.192429 0.92722 0.18167
C_ C_ 0.981091 0.208613 0.957622 -0.15533
C_ C_ 0.971812 0.244999 -0.001310999999999951 0.02923
C_ C_ 0.915144 0.252477 0.506152 -0.15533
C_ C_ 0.887839 0.220784 0.995919 0.18167
C_ C_ 0.752577 0.205365 0.856437 0.18167
C_ C_ 0.729662 0.235085 0.817821 -0.15533
C_ C_ 0.757012 0.244078 0.778107 0.02923
C_ C_ 0.805848 0.221754 0.77768 -0.15533
C_ C_ 0.829935 0.1981 0.820018 0.18167
C_ C_ 0.761768 0.129153 0.952435 0.69207
C_ C_ 0.723942 0.111072 0.488656 0.02923
C_ C_ 0.742325 0.114546 0.540083 -0.15533
C_ C_ 0.711804 0.112744 0.578547 -0.15533
C_ C_ 0.664334 0.0940903 0.566827 0.02923
C_ C_ 0.646628 0.085363 0.514039 -0.15533
C_ C_ 0.675171 0.0960653 0.475572 0.02923
C_ C_ 0.652479 0.111194 0.922623 0.69207
C_ C_ 0.643968 0.10775 0.660803 0.69661
C_ C_ 0.876286 0.390846 0.881205 -0.30787
C_ C_ 0.621515 0.107792 0.603067 -0.30787
N_ N_ 0.646173 0.0609397 0.802467 -0.32189
N_ N_ 0.558254 0.13782 0.809526 -0.32189
N_ N_ 0.605378 0.311086 0.555569 -0.32189
N_ N_ 0.695714 0.31609 0.642919 -0.32189
N_ N_ 0.85608 0.450238 0.696515 -0.32189
N_ N_ 0.939323 0.359774 0.693365 -0.32189
N_ N_ 0.890718 0.199056 0.946138 -0.32189
N_ N_ 0.802317 0.18759 0.858561 -0.32189
O_ O_ -0.000760447 0.0941733 0.900415 -0.63271
O_ O_ 0.545594 0.0328331 0.839137 -0.57982
O_ O_ 0.89024 0.0984681 0.835975 -0.63271
O_ O_ 0.877008 0.0978689 0.919117 -0.57982
O_ O_ 0.741404 0.398008 0.585775 -0.63271
O_ O_ 0.709177 0.336731 0.535575 -0.57982
O_ O_ 0.844065 0.351981 0.600246 -0.63271
O_ O_ 0.881357 0.420252 0.588414 -0.57982
O_ O_ 0.493716 0.407361 0.602204 -0.63271
O_ O_ 0.948386 0.460399 0.652928 -0.57982
O_ O_ 0.596352 0.396643 0.645899 -0.63271
O_ O_ 0.634098 0.409337 0.576397 -0.57982
O_ O_ 0.764516 0.101777 0.909556 -0.63271
O_ O_ 0.793991 0.164026 0.964673 -0.57982
O_ O_ 0.651415 0.15466 0.901457 -0.63271
O_ O_ 0.619597 0.0785484 0.903483 -0.57982
F_ F_ 0.938748 0.334323 0.931516 -0.20885
F_ F_ 0.929876 0.317064 0.847758 -0.20885
F_ F_ 0.869914 0.29731 0.891811 -0.20885
F_ F_ 0.816541 0.429471 0.821689 -0.20885
F_ F_ 0.827114 0.344615 0.807782 -0.20885
F_ F_ 0.886086 0.396199 0.790585 -0.20885
F_ F_ 0.568596 0.169767 0.545888 -0.20885
F_ F_ 0.56573 0.182993 0.626527 -0.20885
F_ F_ 0.636293 0.196118 0.59712 -0.20885
F_ F_ 0.675593 0.0642585 0.667898 -0.20885
F_ F_ 0.672014 0.147543 0.6756 -0.20885
F_ F_ 0.609218 0.108835 0.697794 -0.20885
Zn Zn 0.589537 0.586583 0.351933 0.83971
Zn Zn 0.662603 0.842996 0.0801744 0.83971
Zn Zn 0.910806 0.921277 0.153234 0.83971
Zn Zn 0.841647 0.655119 0.41421 0.83971
H_ H_ 0.675721 0.634231 0.313487 0.10394
H_ H_ 0.749993 0.598078 0.26968 0.10394
H_ H_ 0.715871 0.95041 0.291065 0.10394
H_ H_ 0.621257 0.491393 0.310879 0.10394
H_ H_ 0.0201732 0.598868 0.255863 0.10394
H_ H_ 0.986355 0.676057 0.205357 0.10394
H_ H_ 0.533944 0.76825 0.336513 0.10394
H_ H_ 0.570213 0.695782 0.382502 0.10394
H_ H_ 0.535869 0.952918 0.372375 0.10394
H_ H_ 0.969945 0.871495 0.353441 0.10394
H_ H_ 0.850034 0.987545 0.405496 0.10394
H_ H_ 0.579384 0.809089 0.130224 0.10394
H_ H_ 1.00053 0.766818 0.10283 0.10394
H_ H_ 0.530841 0.783851 0.453683 0.10394
H_ H_ 0.620331 0.810985 0.981477 0.10394
H_ H_ 0.745557 0.758676 0.0906041 0.10394
H_ H_ 0.767642 0.69977 0.167932 0.10394
H_ H_ 0.710813 0.825062 0.266129 0.10394
H_ H_ 0.674146 0.868374 0.188683 0.10394
H_ H_ 0.717614 0.845453 0.445532 0.10394
H_ H_ 0.7575 0.880188 0.376739 0.10394
H_ H_ 0.891882 0.902103 0.480017 0.10394
H_ H_ 0.814637 0.896881 0.158545 0.10394
H_ H_ 0.731295 0.942856 0.186093 0.10394
H_ H_ 0.834969 0.53343 0.292709 0.10394
H_ H_ 0.904603 1.000540277 0.242317 0.10394
H_ H_ 0.512406 0.883791 0.198905 0.10394
H_ H_ 0.554622 0.807293 0.2344 0.10394
H_ H_ 0.920111 0.744121 0.212713 0.10394
H_ H_ 0.876308 0.823027 0.184096 0.10394
H_ H_ 0.963405 0.550859 0.101914 0.10394
H_ H_ 0.519353 0.629876 0.124471 0.10394
H_ H_ 0.641179 0.516113 0.0821682 0.10394
H_ H_ 0.939092 0.647579 0.40391 0.10394
H_ H_ 0.512866 0.70203 0.460225 0.10394
H_ H_ 0.914168 0.782857 0.0520691 0.10394
H_ H_ 0.849026 0.740965 0.498497 0.10394
H_ H_ 0.736685 0.707348 0.388338 0.10394
H_ H_ 0.694435 0.74405 0.306087 0.10394
H_ H_ 0.837886 0.716014 0.244369 0.10394
H_ H_ 0.880209 0.688404 0.326796 0.10394
H_ H_ 0.788585 0.616612 0.0548018 0.10394
H_ H_ 0.73968 0.598613 0.120529 0.10394
H_ H_ 0.604993 0.602237 0.00913644 0.10394
C_ C_ 0.682456 0.593419 0.308325 0.18167
C_ C_ 0.724223 0.573456 0.283615 -0.15533
C_ C_ 0.729877 0.520113 0.266765 0.02923
C_ C_ 0.698452 0.988809 0.283628 -0.15533
C_ C_ 0.648135 0.515608 0.299529 0.18167
C_ C_ 0.536185 0.63704 0.269666 0.18167
C_ C_ 0.00950231 0.680499 0.242794 -0.15533
C_ C_ 0.508538 0.727608 0.267192 0.02923
C_ C_ 0.531413 0.731137 0.318125 -0.15533
C_ C_ 0.554914 0.689281 0.343414 0.18167
C_ C_ 0.510969 0.546658 0.378054 0.69207
C_ C_ 0.96796 0.00106147 0.360506 0.02923
C_ C_ -0.016661000000000037 0.949918 0.35364 -0.15533
C_ C_ 0.951982 0.911085 0.357526 -0.15533
C_ C_ 0.905319 0.92307 0.379315 0.02923
C_ C_ 0.888751 0.975271 0.390353 -0.15533
C_ C_ 0.918664 0.0142806 0.378961 0.02923
C_ C_ 0.899133 0.569226 0.383904 0.69207
C_ C_ 0.888126 0.825549 0.374291 0.69661
C_ C_ 0.568211 0.803181 0.0897833 0.18167
C_ C_ 0.525021 0.780226 0.0711566 -0.15533
C_ C_ 0.515773 0.768704 0.018456 0.02923
C_ C_ 0.539262 0.790899 0.495741 -0.15533
C_ C_ 0.591809 0.807351 0.0056657 0.18167
C_ C_ 0.735827 0.769969 0.130004 0.18167
C_ C_ 0.753622 0.742246 0.171915 -0.15533
C_ C_ 0.743508 0.76022 0.222142 0.02923
C_ C_ 0.717568 0.808287 0.228515 -0.15533
C_ C_ 0.696541 0.832434 0.184753 0.18167
C_ C_ 0.747091 0.861051 0.0421836 0.69207
C_ C_ 0.779693 0.858395 0.502584 0.02923
C_ C_ 0.757263 0.856888 0.452653 -0.15533
C_ C_ 0.780122 0.876022 0.412985 -0.15533
C_ C_ 0.831483 0.888716 0.419744 0.02923
C_ C_ 0.851914 0.897414 0.471191 -0.15533
C_ C_ 0.824888 0.883448 0.513409 0.02923
C_ C_ 0.853058 0.885604 0.0669031 0.69207
C_ C_ 0.83627 0.88934 0.321166 0.69661
C_ C_ 0.814027 0.933395 0.180006 0.18167
C_ C_ 0.769265 0.95756 0.199625 -0.15533
C_ C_ 0.773309 0.999091203 0.236751 0.02923
C_ C_ 0.82711 0.509426 0.258664 -0.15533
C_ C_ 0.864943 0.993148 0.227131 0.18167
C_ C_ 0.990385 0.860573 0.206668 0.18167
C_ C_ 0.514785 0.807598 0.222634 -0.15533
C_ C_ 0.990911 0.774901 0.233585 0.02923
C_ C_ 0.943272 0.77619 0.210034 -0.15533
C_ C_ 0.915107 0.822932 0.196301 0.18167
C_ C_ 0.991636 0.95637 0.125686 0.69207
C_ C_ 0.525308 0.501049 0.124875 0.02923
C_ C_ 0.51027 0.553266 0.134171 -0.15533
C_ C_ 0.537566 0.591825 0.11799 -0.15533
C_ C_ 0.587721 0.57747 0.103722 0.02923
C_ C_ 0.603758 0.525992 0.0983433 -0.15533
C_ C_ 0.571462 0.486946 0.104963 0.02923
C_ C_ 0.600533 0.922535 0.100006 0.69207
C_ C_ 0.609282 0.671097 0.109002 0.69661
C_ C_ 0.936171 0.678156 0.431893 0.18167
C_ C_ 0.97891 0.704052 0.447999 -0.15533
C_ C_ 0.975712 0.742411 0.48784 0.02923
C_ C_ 0.920882 0.75313 1.02077 -0.15533
C_ C_ 0.88566 0.733253 0.483426 0.18167
C_ C_ 0.758475 0.707486 0.353768 0.18167
C_ C_ 0.734901 0.730738 0.309651 -0.15533
C_ C_ 0.763482 0.733659 0.26863 0.02923
C_ C_ 0.817575 0.720806 0.276061 -0.15533
C_ C_ 0.838406 0.696998 0.321529 0.18167
C_ C_ 0.766493 0.623512 0.458631 0.69207
C_ C_ 0.728852 0.611313 0.992097 0.02923
C_ C_ 0.749948 0.609192 0.04187 -0.15533
C_ C_ 0.721013 0.601216 0.0806155 -0.15533
C_ C_ 0.667707 0.604478 0.0702286 0.02923
C_ C_ 0.645424 0.608499 0.0200987 -0.15533
C_ C_ 0.675394 0.6084 0.981075 0.02923
C_ C_ 0.657667 0.610268 0.428613 0.69207
C_ C_ 0.657973 0.607202 0.166773 0.69661
C_ C_ 0.86626 0.883187 0.375237 -0.30787
C_ C_ 0.631054 0.614038 0.112955 -0.30787
N_ N_ 0.644329 0.565622 0.313775 -0.32189
N_ N_ 0.553933 0.642955 0.31978 -0.32189
N_ N_ 0.601845 0.813964 0.0569368 -0.32189
N_ N_ 0.700017 0.811078 0.137049 -0.32189
N_ N_ 0.860639 0.953012 0.190887 -0.32189
N_ N_ 0.941724 0.862134 0.187153 -0.32189
N_ N_ 0.891474 0.694601 0.447482 -0.32189
N_ N_ 0.807486 0.685573 0.355919 -0.32189
O_ O_ 0.00744104 0.571909 0.406955 -0.63271
O_ O_ 0.54153 0.541659 0.342971 -0.57982
O_ O_ 0.89747 0.590842 0.341577 -0.63271
O_ O_ 0.868199 0.589174 0.417812 -0.57982
O_ O_ 0.755922 0.876779 0.0891731 -0.63271
O_ O_ 0.707824 0.833377 0.0312773 -0.57982
O_ O_ 0.855585 0.845316 0.0941644 -0.63271
O_ O_ 0.881939 0.920392 0.0843215 -0.57982
O_ O_ 0.493599 0.903813 0.0955771 -0.63271
O_ O_ 0.958199 0.964575 0.159018 -0.57982
O_ O_ 0.599763 0.895491 0.139602 -0.63271
O_ O_ 0.639009 0.909352 0.0738681 -0.57982
O_ O_ 0.766195 0.594763 0.415274 -0.63271
O_ O_ 0.79877 0.657295 0.464553 -0.57982
O_ O_ 0.656354 0.652852 0.403753 -0.63271
O_ O_ 0.624544 0.579252 0.411359 -0.57982
F_ F_ 0.924548 0.81755 0.412579 -0.20885
F_ F_ 0.912989 0.806973 0.331879 -0.20885
F_ F_ 0.848172 0.795024 0.375077 -0.20885
F_ F_ 0.805803 0.934573 0.321862 -0.20885
F_ F_ 0.802361 0.854291 0.302097 -0.20885
F_ F_ 0.865462 0.895313 0.281028 -0.20885
F_ F_ 0.574532 0.678088 0.0677839 -0.20885
F_ F_ 0.58532 0.688715 0.150044 -0.20885
F_ F_ 0.642048 0.706289 0.106229 -0.20885
F_ F_ 0.687382 0.560024 0.167471 -0.20885
F_ F_ 0.687286 0.645338 0.187479 -0.20885
F_ F_ 0.623199 0.605122 0.201226 -0.20885
Zn Zn 0.588444 0.584465 0.852545 0.83971
Zn Zn 0.66187 0.838546 0.584592 0.83971
Zn Zn 0.905179 0.910595 0.646271 0.83971
Zn Zn 0.836696 0.660205 0.91622 0.83971
H_ H_ 0.670626 0.636 0.81286 0.10394
H_ H_ 0.7399 0.607222 0.763545 0.10394
H_ H_ 0.709323 0.947153 0.77273 0.10394
H_ H_ 0.636321 0.48441 0.82963 0.10394
H_ H_ 0.0260585 0.597092 0.766021 0.10394
H_ H_ 0.972854 0.664287 0.715611 0.10394
H_ H_ 0.530264 0.766235 0.832806 0.10394
H_ H_ 0.568685 0.692699 0.87846 0.10394
H_ H_ 0.532597 0.943711 0.859253 0.10394
H_ H_ 0.985318 0.883749 0.872437 0.10394
H_ H_ 0.850548 0.99241 0.896814 0.10394
H_ H_ 0.583627 0.798362 0.640069 0.10394
H_ H_ 0.00413056 0.768723 0.590302 0.10394
H_ H_ 0.543261 0.774497 0.942865 0.10394
H_ H_ 0.6147 0.81278 0.48688 0.10394
H_ H_ 0.717669 0.740637 0.602306 0.10394
H_ H_ 0.773825 0.712866 0.676173 0.10394
H_ H_ 0.709978 0.839152 0.768018 0.10394
H_ H_ 0.677234 0.874336 0.690066 0.10394
H_ H_ 0.721049 0.857738 0.939274 0.10394
H_ H_ 0.77632 0.870741 0.870899 0.10394
H_ H_ 0.891933 0.915321 0.984611 0.10394
H_ H_ 0.803954 0.895598 0.652842 0.10394
H_ H_ 0.728726 0.951777 0.682698 0.10394
H_ H_ 0.834369 0.555219 0.777802 0.10394
H_ H_ 0.899932 1.00901 0.717122 0.10394
H_ H_ 0.512833 0.881475 0.698338 0.10394
H_ H_ 0.553774 0.798411 0.729492 0.10394
H_ H_ 0.911037 0.739543 0.719452 0.10394
H_ H_ 0.871846 0.812995 0.671786 0.10394
H_ H_ 0.962722 0.548095 0.621768 0.10394
H_ H_ 0.522358 0.619925 0.619518 0.10394
H_ H_ 0.648287 0.510342 0.606426 0.10394
H_ H_ 0.939382 0.658685 0.903651 0.10394
H_ H_ 0.52409 0.685484 0.952553 0.10394
H_ H_ 0.924692 0.783718 0.538985 0.10394
H_ H_ 0.840984 0.742306 1.00085 0.10394
H_ H_ 0.729524 0.694134 0.874768 0.10394
H_ H_ 0.693752 0.747586 0.806652 0.10394
H_ H_ 0.843777 0.740846 0.758733 0.10394
H_ H_ 0.877202 0.708232 0.841477 0.10394
H_ H_ 0.787015 0.626762 0.559102 0.10394
H_ H_ 0.734741 0.603666 0.625882 0.10394
H_ H_ 0.611161 0.5846 0.510161 0.10394
C_ C_ 0.677713 0.595905 0.802353 0.18167
C_ C_ 0.717805 0.578714 0.777291 -0.15533
C_ C_ 0.732497 0.526823 0.774375 0.02923
C_ C_ 0.701874 0.9887 0.7769 -0.15533
C_ C_ 0.660062 0.513187 0.81726 0.18167
C_ C_ 0.526457 0.631398 0.769163 0.18167
C_ C_ -0.000586375 0.672097 0.744878 -0.15533
C_ C_ 0.508244 0.72299 0.76263 0.02923
C_ C_ 0.529857 0.729776 0.814242 -0.15533
C_ C_ 0.552984 0.688546 0.839102 0.18167
C_ C_ 0.511121 0.540877 0.878165 0.69207
C_ C_ 0.971278 0.0132313 0.876589 0.02923
C_ C_ -0.006152000000000046 0.962394 0.873387 -0.15533
C_ C_ 0.964858 0.922499 0.880204 -0.15533
C_ C_ 0.913312 0.931054 0.887843 0.02923
C_ C_ 0.892154 0.983115 0.892247 -0.15533
C_ C_ 0.920318 0.0221608 0.880821 0.02923
C_ C_ 0.894531 0.5762 0.880935 0.69207
C_ C_ 0.906569 0.833604 0.890621 0.69661
C_ C_ 0.570343 0.794659 0.597756 0.18167
C_ C_ 0.520541 0.78299 0.582336 -0.15533
C_ C_ 0.506253 0.776039 0.531504 0.02923
C_ C_ 0.549235 0.785457 0.984214 -0.15533
C_ C_ 0.587613 0.806731 0.513664 0.18167
C_ C_ 0.719316 0.763236 0.63784 0.18167
C_ C_ 0.748792 0.744632 0.680937 -0.15533
C_ C_ 0.739974 0.766319 0.729342 0.02923
C_ C_ 0.714114 0.818089 0.732074 -0.15533
C_ C_ 0.692643 0.838425 0.687125 0.18167
C_ C_ 0.744983 0.851402 0.544016 0.69207
C_ C_ 0.779203 0.872287 1.00188621 0.02923
C_ C_ 0.760133 0.869284 0.950118 -0.15533
C_ C_ 0.787385 0.881637 0.912249 -0.15533
C_ C_ 0.837952 0.894018 0.92265 0.02923
C_ C_ 0.853405 0.902838 0.973603 -0.15533
C_ C_ 0.827581 0.886613 0.013659 0.02923
C_ C_ 0.852842 0.8828 0.563547 0.69207
C_ C_ 0.853397 0.884789 0.825044 0.69661
C_ C_ 0.810086 0.931694 0.677033 0.18167
C_ C_ 0.769534 0.959237 0.698224 -0.15533
C_ C_ 0.776159 0.00209922 0.732979 0.02923
C_ C_ 0.824121 0.519876 0.753754 -0.15533
C_ C_ 0.865762 0.98933 0.716513 0.18167
C_ C_ 0.98802 0.850685 0.697696 0.18167
C_ C_ 0.513018 0.803948 0.720027 -0.15533
C_ C_ 0.985184 0.764889 0.726101 0.02923
C_ C_ 0.933929 0.766679 0.707738 -0.15533
C_ C_ 0.911369 0.811804 0.682975 0.18167
C_ C_ 0.983822 0.949321 0.617939 0.69207
C_ C_ 0.52579 0.490522 0.618313 0.02923
C_ C_ 0.505845 0.543104 0.615724 -0.15533
C_ C_ 0.537506 0.581389 0.611861 -0.15533
C_ C_ 0.587943 0.568707 0.603097 0.02923
C_ C_ 0.607362 0.518577 0.60389 -0.15533
C_ C_ 0.576724 0.477465 0.608855 0.02923
C_ C_ 0.595903 0.923181 0.60656 0.69207
C_ C_ 0.601473 0.666299 0.601648 0.69661
C_ C_ 0.93427 0.687436 0.934911 0.18167
C_ C_ 0.975618 0.708455 0.962264 -0.15533
C_ C_ 0.969203 0.745137 1.00302794 0.02923
C_ C_ 0.928873 0.755132 0.505945 -0.15533
C_ C_ 0.879556 0.734786 0.989052 0.18167
C_ C_ 0.754308 0.709566 0.854387 0.18167
C_ C_ 0.73412 0.734704 0.812572 -0.15533
C_ C_ 0.764673 0.743269 0.775039 0.02923
C_ C_ 0.818044 0.729637 0.783097 -0.15533
C_ C_ 0.837392 0.703979 0.826451 0.18167
C_ C_ 0.757763 0.626618 0.95349 0.69207
C_ C_ 0.730579 0.616364 0.496078 0.02923
C_ C_ 0.74934 0.619156 0.549637 -0.15533
C_ C_ 0.718465 0.607449 0.586452 -0.15533
C_ C_ 0.666647 0.602021 0.572457 0.02923
C_ C_ 0.647819 0.597536 0.520064 -0.15533
C_ C_ 0.677578 0.608301 0.481935 0.02923
C_ C_ 0.649093 0.614008 0.930427 0.69207
C_ C_ 0.647482 0.610204 0.668239 0.69661
C_ C_ 0.877737 0.887402 0.881995 -0.30787
C_ C_ 0.6267 0.610901 0.612121 -0.30787
N_ N_ 0.647221 0.56371 0.820284 -0.32189
N_ N_ 0.553666 0.640378 0.814923 -0.32189
N_ N_ 0.603042 0.805289 0.564378 -0.32189
N_ N_ 0.695265 0.811711 0.641407 -0.32189
N_ N_ 0.857841 0.945054 0.687367 -0.32189
N_ N_ 0.937916 0.85166 0.681005 -0.32189
N_ N_ 0.885917 0.703245 0.947358 -0.32189
N_ N_ 0.804123 0.689193 0.858302 -0.32189
O_ O_ 1.0138283 0.586882 0.918294 -0.63271
O_ O_ 0.549806 0.532083 0.850779 -0.57982
O_ O_ 0.89764 0.605271 0.844332 -0.63271
O_ O_ 0.865612 0.593831 0.917683 -0.57982
O_ O_ 0.745692 0.881935 0.585416 -0.63271
O_ O_ 0.701724 0.828058 0.53233 -0.57982
O_ O_ 0.859543 0.840268 0.586387 -0.63271
O_ O_ 0.876296 0.920288 0.581636 -0.57982
O_ O_ 0.494572 0.909934 0.604299 -0.63271
O_ O_ 0.95292 0.954893 0.65521 -0.57982
O_ O_ 0.596582 0.899666 0.649442 -0.63271
O_ O_ 0.632338 0.906197 0.576758 -0.57982
O_ O_ 0.747053 0.614971 0.904014 -0.63271
O_ O_ 0.795902 0.654697 0.967121 -0.57982
O_ O_ 0.644584 0.659232 0.910975 -0.63271
O_ O_ 0.616624 0.581011 0.914014 -0.57982
F_ F_ 0.943684 0.836964 0.932413 -0.20885
F_ F_ 0.931729 0.810281 0.847821 -0.20885
F_ F_ 0.876498 0.80055 0.90685 -0.20885
F_ F_ 0.816327 0.923046 0.81264 -0.20885
F_ F_ 0.834134 0.839055 0.809365 -0.20885
F_ F_ 0.891634 0.890997 0.793793 -0.20885
F_ F_ 0.564286 0.665893 0.561083 -0.20885
F_ F_ 0.577056 0.690185 0.643442 -0.20885
F_ F_ 0.63323 0.699574 0.588123 -0.20885
F_ F_ 0.680898 0.566254 0.671146 -0.20885
F_ F_ 0.677977 0.65087 0.68088 -0.20885
F_ F_ 0.60986 0.613565 0.704195 -0.20885
_cell_length_a 26.508
_cell_length_b 26.37200000322088
_cell_length_c 26.311999743092066
_cell_angle_alpha 93.74100058972084
_cell_angle_beta 96.04100104955006
_cell_angle_gamma 83.6869992558723
_symmetry_space_group_name_H-M         'P 1'
_symmetry_Int_Tables_number            1
loop_
_symmetry_equiv_pos_as_xyz
   'x, y, z'
                         
loop_
_atom_site_label
_atom_site_type_symbol
_atom_site_fract_x 
_atom_site_fract_y
_atom_site_fract_z
_atom_site_charge
Zn Zn 0.0855943 0.0824914 0.344909 0.83971
Zn Zn 0.15876 0.345668 0.0912421 0.83971
Zn Zn 0.414525 0.42211 0.163443 0.83971
Zn Zn 0.338163 0.153602 0.417185 0.83971
H_ H_ 0.173665 0.133853 0.312104 0.10394
H_ H_ 0.250621 0.102222 0.270335 0.10394
H_ H_ 0.218106 0.453235 0.292747 0.10394
H_ H_ 0.135479 0.982599 0.323459 0.10394
H_ H_ 0.523212 0.0907992 0.253025 0.10394
H_ H_ 0.488025 0.167532 0.201292 0.10394
H_ H_ 0.0140583 0.264555 0.341157 0.10394
H_ H_ 0.0599112 0.18925 0.383522 0.10394
H_ H_ 0.018921 0.430535 0.344924 0.10394
H_ H_ 0.485644 0.376822 0.397433 0.10394
H_ H_ 0.357266 0.492857 0.416017 0.10394
H_ H_ 0.0835576 0.304444 0.137072 0.10394
H_ H_ 0.486178 0.289392 0.09688 0.10394
H_ H_ 0.037667 0.278493 0.43796 0.10394
H_ H_ 0.105658 0.34767 0.98872 0.10394
H_ H_ 0.21534 0.254621 0.101675 0.10394
H_ H_ 0.266037 0.208177 0.174807 0.10394
H_ H_ 0.218906 0.33799 0.27357 0.10394
H_ H_ 0.178848 0.381884 0.199106 0.10394
H_ H_ 0.212918 0.367276 0.445568 0.10394
H_ H_ 0.26707 0.378865 0.377934 0.10394
H_ H_ 0.395535 0.392031 0.494574 0.10394
H_ H_ 0.308113 0.405268 0.166575 0.10394
H_ H_ 0.234507 0.468914 0.190322 0.10394
H_ H_ 0.333976 0.0485446 0.269134 0.10394
H_ H_ 0.409869 0.498064 0.250797 0.10394
H_ H_ 0.00598048 0.388789 0.204303 0.10394
H_ H_ 0.0448418 0.310798 0.253121 0.10394
H_ H_ 0.410894 0.256448 0.237834 0.10394
H_ H_ 0.372331 0.343681 0.208801 0.10394
H_ H_ 0.460195 0.0491784 0.114987 0.10394
H_ H_ 0.0272637 0.122618 0.115171 0.10394
H_ H_ 0.150114 0.00808304 0.0988978 0.10394
H_ H_ 0.438533 0.162675 0.394428 0.10394
H_ H_ 0.0136643 0.190267 0.450921 0.10394
H_ H_ 0.4125 0.287079 0.0424005 0.10394
H_ H_ 0.344127 0.228077 0.503523 0.10394
H_ H_ 0.234903 0.190171 0.384616 0.10394
H_ H_ 0.192769 0.233086 0.310199 0.10394
H_ H_ 0.335105 0.247701 0.263869 0.10394
H_ H_ 0.379454 0.189342 0.327463 0.10394
H_ H_ 0.295329 0.0910362 0.0533967 0.10394
H_ H_ 0.241021 0.085446 0.122061 0.10394
H_ H_ 0.10876 0.0919051 0.0143665 0.10394
C_ C_ 0.182978 0.0928787 0.309472 0.18167
C_ C_ 0.226293 0.0757026 0.284671 -0.15533
C_ C_ 0.237083 0.0218862 0.273913 0.02923
C_ C_ 0.209853 0.494054 0.296998 -0.15533
C_ C_ 0.162369 0.00903384 0.315095 0.18167
C_ C_ 0.0282791 0.132827 0.267863 0.18167
C_ C_ 0.506431 0.174654 0.240514 -0.15533
C_ C_ 0.004389999999999894 0.224236 0.264897 0.02923
C_ C_ 0.0192301 0.229937 0.318843 -0.15533
C_ C_ 0.0435456 0.186902 0.343125 0.18167
C_ C_ 0.00756063 0.0383131 0.36294 0.69207
C_ C_ 0.475823 0.50545 0.383117 0.02923
C_ C_ 0.493361 0.452713 0.380234 -0.15533
C_ C_ 0.465228 0.416017 0.393179 -0.15533
C_ C_ 0.412681 0.429834 0.401035 0.02923
C_ C_ 0.393192 0.481681 0.400988 -0.15533
C_ C_ 0.42549 0.518095 0.393692 0.02923
C_ C_ 0.397082 0.0708746 0.38213 0.69207
C_ C_ 0.398543 0.334807 0.390169 0.69661
C_ C_ 0.0734311 0.298361 0.0957521 0.18167
C_ C_ 0.0276051 0.280305 0.0758736 -0.15533
C_ C_ 0.0140379 0.275709 0.0232178 0.02923
C_ C_ 0.0441072 0.28772 0.479099 -0.15533
C_ C_ 0.0872581 0.319753 0.0114192 0.18167
C_ C_ 0.217373 0.270449 0.139235 0.18167
C_ C_ 0.240489 0.242931 0.182048 -0.15533
C_ C_ 0.2358 0.265225 0.231379 0.02923
C_ C_ 0.214733 0.315519 0.236542 -0.15533
C_ C_ 0.195266 0.341945 0.195029 0.18167
C_ C_ 0.241345 0.371101 0.057957 0.69207
C_ C_ 0.270527 0.379409 0.507922 0.02923
C_ C_ 0.251626 0.378329 0.456679 -0.15533
C_ C_ 0.284371 0.383138 0.418845 -0.15533
C_ C_ 0.335448 0.395354 0.431572 0.02923
C_ C_ 0.353989 0.39484 0.483097 -0.15533
C_ C_ 0.321283 0.38905 0.52081 0.02923
C_ C_ 0.354257 0.384732 0.083553 0.69207
C_ C_ 0.346861 0.395722 0.33619 0.69661
C_ C_ 0.314682 0.442333 0.182943 0.18167
C_ C_ 0.272929 0.472365 0.205619 -0.15533
C_ C_ 0.281226 0.506996 0.248298 0.02923
C_ C_ 0.327099 0.0158945 0.243304 -0.15533
C_ C_ 0.371459 0.492021 0.235939 0.18167
C_ C_ 0.49694 0.352755 0.20464 0.18167
C_ C_ 0.00899937 0.312781 0.231623 -0.15533
C_ C_ 0.487914 0.269714 0.237537 0.02923
C_ C_ 0.435568 0.282919 0.234479 -0.15533
C_ C_ 0.414174 0.331616 0.211751 0.18167
C_ C_ 0.489781 0.461496 0.129929 0.69207
C_ C_ 0.0261967 0.995972 0.122634 0.02923
C_ C_ 0.00758067 0.0477514 0.120071 -0.15533
C_ C_ 0.0402641 0.0832166 0.110973 -0.15533
C_ C_ 0.0926241 0.0696547 0.107146 0.02923
C_ C_ 0.110752 0.0187013 0.10556 -0.15533
C_ C_ 0.078537 0.983327 0.114924 0.02923
C_ C_ 0.102733 0.424703 0.116522 0.69207
C_ C_ 0.111722 0.168395 0.112209 0.69661
C_ C_ 0.433546 0.186234 0.430633 0.18167
C_ C_ 0.477154 0.205391 0.455788 -0.15533
C_ C_ 0.471285 0.241122 0.499548 0.02923
C_ C_ 0.4219 0.254515 0.0146114 -0.15533
C_ C_ 0.380382 0.22534 0.489668 0.18167
C_ C_ 0.255112 0.199679 0.35635 0.18167
C_ C_ 0.232847 0.229358 0.316993 -0.15533
C_ C_ 0.260609 0.239977 0.278639 0.02923
C_ C_ 0.312103 0.227727 0.282482 -0.15533
C_ C_ 0.336688 0.20308 0.326647 0.18167
C_ C_ 0.257335 0.118748 0.452278 0.69207
C_ C_ 0.229802 0.106403 0.993247 0.02923
C_ C_ 0.250912 0.0956933 0.0442112 -0.15533
C_ C_ 0.221537 0.0865207 0.0828441 -0.15533
C_ C_ 0.169027 0.0979091 0.0731848 0.02923
C_ C_ 0.147542 0.0983457 0.0224323 -0.15533
C_ C_ 0.175552 0.109698 0.983454 0.02923
C_ C_ 0.148772 0.102146 0.423079 0.69207
C_ C_ 0.158659 0.102619 0.170621 0.69661
C_ C_ 0.373361 0.389562 0.391257 -0.30787
C_ C_ 0.132554 0.109668 0.115638 -0.30787
N_ N_ 0.146815 0.0591613 0.315272 -0.32189
N_ N_ 0.0473163 0.140488 0.3188 -0.32189
N_ N_ 0.103873 0.314749 0.0622211 -0.32189
N_ N_ 0.192133 0.316998 0.148811 -0.32189
N_ N_ 0.363905 0.450018 0.203429 -0.32189
N_ N_ 0.445032 0.3626 0.193248 -0.32189
N_ N_ 0.390937 0.188798 0.452679 -0.32189
N_ N_ 0.307896 0.187995 0.36044 -0.32189
O_ O_ 0.50714 0.0906205 0.400978 -0.63271
O_ O_ 0.0453589 0.0311512 0.334803 -0.57982
O_ O_ 0.401707 0.0992937 0.34278 -0.63271
O_ O_ 0.371919 0.0915592 0.420565 -0.57982
O_ O_ 0.2421 0.40151 0.101321 -0.63271
O_ O_ 0.205577 0.341805 0.0482427 -0.57982
O_ O_ 0.350211 0.34708 0.113356 -0.63271
O_ O_ 0.379315 0.423593 0.102695 -0.57982
O_ O_ 0.983595 0.41394 0.0911711 -0.63271
O_ O_ 0.466243 0.464296 0.169861 -0.57982
O_ O_ 0.0905562 0.394845 0.150724 -0.63271
O_ O_ 0.137318 0.406616 0.0865552 -0.57982
O_ O_ 0.255788 0.0893334 0.411143 -0.63271
O_ O_ 0.290036 0.151829 0.460744 -0.57982
O_ O_ 0.15043 0.144749 0.401782 -0.63271
O_ O_ 0.110654 0.0754054 0.408453 -0.57982
F_ F_ 0.427153 0.325208 0.435382 -0.20885
F_ F_ 0.427478 0.327006 0.349651 -0.20885
F_ F_ 0.364196 0.299046 0.387221 -0.20885
F_ F_ 0.3124 0.436842 0.332286 -0.20885
F_ F_ 0.324707 0.353036 0.316455 -0.20885
F_ F_ 0.381821 0.398349 0.301323 -0.20885
F_ F_ 0.079981 0.171621 0.06702 -0.20885
F_ F_ 0.0848218 0.195817 0.15165 -0.20885
F_ F_ 0.151447 0.197745 0.107019 -0.20885
F_ F_ 0.176608 0.0517959 0.180889 -0.20885
F_ F_ 0.198791 0.133497 0.181312 -0.20885
F_ F_ 0.124787 0.117015 0.207995 -0.20885
Zn Zn 0.0907703 0.0845833 0.848835 0.83971
Zn Zn 0.159583 0.340755 0.582458 0.83971
Zn Zn 0.412277 0.415034 0.661263 0.83971
Zn Zn 0.34384 0.150493 0.921864 0.83971
H_ H_ 0.164886 0.136709 0.808789 0.10394
H_ H_ 0.246326 0.103687 0.771134 0.10394
H_ H_ 0.203876 0.448102 0.793206 0.10394
H_ H_ 0.132183 0.984017 0.818128 0.10394
H_ H_ 0.523709 0.0961934 0.741536 0.10394
H_ H_ 0.498811 0.176109 0.697268 0.10394
H_ H_ 0.0291264 0.270467 0.840683 0.10394
H_ H_ 0.0708398 0.194984 0.883511 0.10394
H_ H_ 0.0321036 0.455172 0.882877 0.10394
H_ H_ 0.480357 0.374658 0.877619 0.10394
H_ H_ 0.360815 0.483493 0.922795 0.10394
H_ H_ 0.0766633 0.307824 0.625445 0.10394
H_ H_ 0.507747 0.263949 0.600783 0.10394
H_ H_ 0.031851 0.296417 0.947723 0.10394
H_ H_ 0.122199 0.308195 0.476341 0.10394
H_ H_ 0.225003 0.243599 0.596241 0.10394
H_ H_ 0.268743 0.196636 0.672805 0.10394
H_ H_ 0.221634 0.329593 0.764232 0.10394
H_ H_ 0.171911 0.371396 0.694193 0.10394
H_ H_ 0.212444 0.381447 0.958563 0.10394
H_ H_ 0.267578 0.389425 0.890264 0.10394
H_ H_ 0.398653 0.386866 0.998275 0.10394
H_ H_ 0.313066 0.39388 0.666438 0.10394
H_ H_ 0.236508 0.436242 0.705202 0.10394
H_ H_ 0.343578 0.0494019 0.784452 0.10394
H_ H_ 0.399834 0.50875 0.739539 0.10394
H_ H_ 0.0138861 0.382819 0.695868 0.10394
H_ H_ 0.0522635 0.303199 0.736395 0.10394
H_ H_ 0.421021 0.240557 0.719572 0.10394
H_ H_ 0.377464 0.318929 0.681662 0.10394
H_ H_ 0.462314 0.0472651 0.614921 0.10394
H_ H_ 0.0121297 0.117853 0.612682 0.10394
H_ H_ 0.137323 0.0047453 0.587882 0.10394
H_ H_ 0.440975 0.159687 0.90343 0.10394
H_ H_ 0.0185352 0.199184 0.941768 0.10394
H_ H_ 0.419141 0.277723 0.548918 0.10394
H_ H_ 0.342891 0.240506 0.000922209 0.10394
H_ H_ 0.242237 0.188269 0.879448 0.10394
H_ H_ 0.205455 0.238596 0.808179 0.10394
H_ H_ 0.347999 0.23089 0.752257 0.10394
H_ H_ 0.388766 0.177882 0.820995 0.10394
H_ H_ 0.280037 0.106967 0.555557 0.10394
H_ H_ 0.226318 0.0996961 0.620129 0.10394
H_ H_ 0.100768 0.0841996 0.504444 0.10394
C_ C_ 0.175928 0.0958307 0.801365 0.18167
C_ C_ 0.221931 0.0776214 0.783031 -0.15533
C_ C_ 0.236326 0.0259211 0.775335 0.02923
C_ C_ 0.196439 0.489346 0.793709 -0.15533
C_ C_ 0.153908 0.0102222 0.802294 0.18167
C_ C_ 0.019966 0.133113 0.782217 0.18167
C_ C_ 0.514026 0.177459 0.738599 -0.15533
C_ C_ 0.00488129 0.223894 0.77238 0.02923
C_ C_ 0.030583 0.232249 0.821612 -0.15533
C_ C_ 0.0547103 0.19019 0.847642 0.18167
C_ C_ 0.00575486 0.0499866 0.876203 0.69207
C_ C_ 0.474015 0.50102 0.878593 0.02923
C_ C_ 0.492085 0.450883 0.874333 -0.15533
C_ C_ 0.463592 0.41297 0.880865 -0.15533
C_ C_ 0.416098 0.42369 0.89948 0.02923
C_ C_ 0.396659 0.475653 0.905804 -0.15533
C_ C_ 0.425397 0.51341 0.895929 0.02923
C_ C_ 0.402834 0.068876 0.892739 0.69207
C_ C_ 0.400336 0.326654 0.893015 0.69661
C_ C_ 0.0677897 0.299157 0.584029 0.18167
C_ C_ 0.0209348 0.286751 0.562195 -0.15533
C_ C_ 0.00912791 0.275543 0.510329 0.02923
C_ C_ 0.0445621 0.294587 0.989176 -0.15533
C_ C_ 0.0934445 0.299943 0.499523 0.18167
C_ C_ 0.224398 0.264363 0.631893 0.18167
C_ C_ 0.250524 0.238725 0.67566 -0.15533
C_ C_ 0.251108 0.263351 0.7242 0.02923
C_ C_ 0.223137 0.309514 0.729502 -0.15533
C_ C_ 0.19585 0.334327 0.686831 0.18167
C_ C_ 0.237663 0.369677 0.54711 0.69207
C_ C_ 0.275594 0.377799 0.0188156 0.02923
C_ C_ 0.256101 0.381093 0.968442 -0.15533
C_ C_ 0.285428 0.384224 0.92829 -0.15533
C_ C_ 0.338029 0.38859 0.938421 0.02923
C_ C_ 0.359141 0.385047 0.989127 -0.15533
C_ C_ 0.328684 0.383959 0.0308421 0.02923
C_ C_ 0.349984 0.385927 0.574097 0.69207
C_ C_ 0.349278 0.387685 0.838761 0.69661
C_ C_ 0.317075 0.427802 0.693858 0.18167
C_ C_ 0.273369 0.450702 0.715057 -0.15533
C_ C_ 0.275793 0.496054 0.746931 0.02923
C_ C_ 0.330931 0.0240409 0.752456 -0.15533
C_ C_ 0.365146 0.491432 0.73323 0.18167
C_ C_ 0.493303 0.357279 0.715037 0.18167
C_ C_ 0.012233 0.308311 0.727919 -0.15533
C_ C_ 0.490223 0.271617 0.740038 0.02923
C_ C_ 0.437541 0.276521 0.720951 -0.15533
C_ C_ 0.415484 0.319976 0.700049 0.18167
C_ C_ 0.489867 0.453315 0.626517 0.69207
C_ C_ 0.0184943 0.98862 0.614572 0.02923
C_ C_ 0.0015600000000000058 0.0411545 0.62104 -0.15533
C_ C_ 0.0290378 0.0803336 0.609481 -0.15533
C_ C_ 0.079481 0.0673131 0.601653 0.02923
C_ C_ 0.0972936 0.0159063 0.591908 -0.15533
C_ C_ 0.0695616 0.976638 0.604524 0.02923
C_ C_ 0.0982964 0.42251 0.603716 0.69207
C_ C_ 0.0940023 0.163302 0.602809 0.69661
C_ C_ 0.437552 0.183838 0.936968 0.18167
C_ C_ 0.480129 0.202678 0.962875 -0.15533
C_ C_ 0.47132 0.240564 1.000564551 0.02923
C_ C_ 0.421899 0.248224 0.515668 -0.15533
C_ C_ 0.381594 0.229654 0.992047 0.18167
C_ C_ 0.266227 0.20093 0.853041 0.18167
C_ C_ 0.24544 0.22659 0.809907 -0.15533
C_ C_ 0.274663 0.238363 0.771319 0.02923
C_ C_ 0.327079 0.223842 0.779672 -0.15533
C_ C_ 0.348145 0.191972 0.819097 0.18167
C_ C_ 0.264861 0.118578 0.955024 0.69207
C_ C_ 0.22306 0.111901 0.491771 0.02923
C_ C_ 0.240138 0.109614 0.54358 -0.15533
C_ C_ 0.209642 0.0989001 0.58114 -0.15533
C_ C_ 0.156161 0.0978214 0.568729 0.02923
C_ C_ 0.139936 0.0926978 0.516303 -0.15533
C_ C_ 0.17161 0.100615 0.479743 0.02923
C_ C_ 0.153298 0.113934 0.930056 0.69207
C_ C_ 0.138615 0.103765 0.6649 0.69661
C_ C_ 0.376913 0.381547 0.895986 -0.30787
C_ C_ 0.115935 0.108188 0.608093 -0.30787
N_ N_ 0.141028 0.0606383 0.807781 -0.32189
N_ N_ 0.0515496 0.14232 0.825627 -0.32189
N_ N_ 0.103822 0.303913 0.552169 -0.32189
N_ N_ 0.193958 0.309033 0.63908 -0.32189
N_ N_ 0.360753 0.451108 0.698435 -0.32189
N_ N_ 0.441697 0.36096 0.701174 -0.32189
N_ N_ 0.391751 0.191854 0.952981 -0.32189
N_ N_ 0.317399 0.184879 0.858156 -0.32189
O_ O_ 0.508557 0.0892102 0.896666 -0.63271
O_ O_ 0.0454445 0.040622 0.847257 -0.57982
O_ O_ 0.396623 0.0906729 0.849066 -0.63271
O_ O_ 0.383352 0.092419 0.931576 -0.57982
O_ O_ 0.241882 0.393939 0.593047 -0.63271
O_ O_ 0.204103 0.335646 0.537493 -0.57982
O_ O_ 0.348791 0.345052 0.600214 -0.63271
O_ O_ 0.37332 0.422984 0.596836 -0.57982
O_ O_ 0.987151 0.403429 0.598824 -0.63271
O_ O_ 0.455196 0.462677 0.65968 -0.57982
O_ O_ 0.089378 0.395446 0.643105 -0.63271
O_ O_ 0.134255 0.406246 0.575546 -0.57982
O_ O_ 0.266813 0.0934424 0.909998 -0.63271
O_ O_ 0.296602 0.152998 0.967624 -0.57982
O_ O_ 0.158915 0.154969 0.905296 -0.63271
O_ O_ 0.11448 0.0868333 0.914187 -0.57982
F_ F_ 0.436636 0.323901 0.935156 -0.20885
F_ F_ 0.425606 0.314312 0.849539 -0.20885
F_ F_ 0.369527 0.287955 0.896987 -0.20885
F_ F_ 0.317231 0.432651 0.832764 -0.20885
F_ F_ 0.316286 0.350764 0.830483 -0.20885
F_ F_ 0.378583 0.379285 0.800181 -0.20885
F_ F_ 0.0653772 0.168883 0.557669 -0.20885
F_ F_ 0.0608662 0.182216 0.639857 -0.20885
F_ F_ 0.133472 0.194168 0.602708 -0.20885
F_ F_ 0.168858 0.0570519 0.672309 -0.20885
F_ F_ 0.166915 0.143869 0.681945 -0.20885
F_ F_ 0.101104 0.102744 0.697898 -0.20885
Zn Zn 0.0848963 0.586974 0.344173 0.83971
Zn Zn 0.15794 0.852339 0.0866956 0.83971
Zn Zn 0.410189 0.915723 0.150109 0.83971
Zn Zn 0.339727 0.654987 0.418463 0.83971
H_ H_ 0.15951 0.638978 0.29534 0.10394
H_ H_ 0.248939 0.609062 0.269626 0.10394
H_ H_ 0.207984 0.950016 0.278971 0.10394
H_ H_ 0.135007 0.485933 0.312097 0.10394
H_ H_ 0.538544 0.599628 0.249186 0.10394
H_ H_ 0.502044 0.67282 0.199737 0.10394
H_ H_ 0.0396537 0.774261 0.331795 0.10394
H_ H_ 0.0680702 0.699261 0.382711 0.10394
H_ H_ 0.0221456 0.939876 0.346969 0.10394
H_ H_ 0.489817 0.88179 0.383236 0.10394
H_ H_ 0.351908 0.982856 0.392 0.10394
H_ H_ 0.0756807 0.814059 0.134863 0.10394
H_ H_ 0.500901 0.76882 0.0972311 0.10394
H_ H_ 0.045283 0.787367 0.436905 0.10394
H_ H_ 0.105161 0.837912 0.986784 0.10394
H_ H_ 0.23106 0.761263 0.0960845 0.10394
H_ H_ 0.266906 0.707902 0.163504 0.10394
H_ H_ 0.224415 0.835989 0.271013 0.10394
H_ H_ 0.179505 0.881393 0.194992 0.10394
H_ H_ 0.224052 0.860513 0.443073 0.10394
H_ H_ 0.278408 0.867986 0.377125 0.10394
H_ H_ 0.402634 0.896977 0.490317 0.10394
H_ H_ 0.304865 0.898627 0.15946 0.10394
H_ H_ 0.232363 0.952108 0.188146 0.10394
H_ H_ 0.340621 0.550438 0.287785 0.10394
H_ H_ 0.405752 -0.00416148 0.235247 0.10394
H_ H_ 0.013695 0.891381 0.203842 0.10394
H_ H_ 0.0533545 0.818324 0.248938 0.10394
H_ H_ 0.412093 0.754669 0.237349 0.10394
H_ H_ 0.369481 0.82928 0.188133 0.10394
H_ H_ 0.473946 0.564371 0.144541 0.10394
H_ H_ 0.0176981 0.616336 0.0890729 0.10394
H_ H_ 0.151029 0.506676 0.115798 0.10394
H_ H_ 0.444913 0.662712 0.409435 0.10394
H_ H_ 0.0143827 0.6906 0.431283 0.10394
H_ H_ 0.415214 0.784684 0.041391 0.10394
H_ H_ 0.337018 0.738148 0.50691 0.10394
H_ H_ 0.241266 0.691906 0.380062 0.10394
H_ H_ 0.201111 0.738411 0.310266 0.10394
H_ H_ 0.340706 0.713374 0.240258 0.10394
H_ H_ 0.380564 0.678808 0.320991 0.10394
H_ H_ 0.290666 0.624405 0.0614191 0.10394
H_ H_ 0.229484 0.622459 0.124895 0.10394
H_ H_ 0.114656 0.585599 0.00625996 0.10394
C_ C_ 0.175989 0.599214 0.298383 0.18167
C_ C_ 0.22557 0.581953 0.284747 -0.15533
C_ C_ 0.239592 0.528371 0.277972 0.02923
C_ C_ 0.207001 0.988257 0.293739 -0.15533
C_ C_ 0.160827 0.513102 0.308572 0.18167
C_ C_ 0.0271837 0.638458 0.270217 0.18167
C_ C_ 0.512302 0.678631 0.242608 -0.15533
C_ C_ 0.0187281 0.730314 0.26102 0.02923
C_ C_ 0.0387085 0.737175 0.312456 -0.15533
C_ C_ 0.0560735 0.694145 0.340972 0.18167
C_ C_ 0.00553153 0.538665 0.366452 0.69207
C_ C_ 0.473612 0.0104654 0.379098 0.02923
C_ C_ 0.496059 0.960021 0.380629 -0.15533
C_ C_ 0.469791 0.920885 0.390842 -0.15533
C_ C_ 0.415417 0.929244 0.396747 0.02923
C_ C_ 0.39313 0.976875 0.38919 -0.15533
C_ C_ 0.422241 0.0183916 0.386735 0.02923
C_ C_ 0.40234 0.573586 0.392806 0.69207
C_ C_ 0.412766 0.82573 0.388978 0.69661
C_ C_ 0.069246 0.80185 0.0936277 0.18167
C_ C_ 0.0264413 0.776909 0.0775067 -0.15533
C_ C_ 0.0122461 0.775647 0.025066 0.02923
C_ C_ 0.0558924 0.785449 0.479476 -0.15533
C_ C_ 0.0833903 0.821439 0.0117863 0.18167
C_ C_ 0.225608 0.776002 0.135208 0.18167
C_ C_ 0.248195 0.746336 0.174334 -0.15533
C_ C_ 0.242658 0.765302 0.226305 0.02923
C_ C_ 0.221239 0.815661 0.233405 -0.15533
C_ C_ 0.194503 0.84026 0.192272 0.18167
C_ C_ 0.244841 0.86117 0.0472607 0.69207
C_ C_ 0.279506 0.872034 0.507671 0.02923
C_ C_ 0.259709 0.871494 0.455433 -0.15533
C_ C_ 0.292893 0.875496 0.415502 -0.15533
C_ C_ 0.344285 0.884533 0.428185 0.02923
C_ C_ 0.362051 0.890747 0.480686 -0.15533
C_ C_ 0.331732 0.882952 0.521103 0.02923
C_ C_ 0.351349 0.88395 0.0697539 0.69207
C_ C_ 0.353793 0.884862 0.332676 0.69661
C_ C_ 0.310293 0.931406 0.181442 0.18167
C_ C_ 0.269628 0.959819 0.202469 -0.15533
C_ C_ 0.279119 0.999964 0.240298 0.02923
C_ C_ 0.331195 0.521093 0.258413 -0.15533
C_ C_ 0.367918 0.987306 0.220403 0.18167
C_ C_ 0.492959 0.848087 0.193416 0.18167
C_ C_ 0.0168426 0.817617 0.230827 -0.15533
C_ C_ 0.483903 0.772339 0.237748 0.02923
C_ C_ 0.4336 0.779265 0.222155 -0.15533
C_ C_ 0.410877 0.821225 0.194057 0.18167
C_ C_ 0.48907 0.950492 0.116535 0.69207
C_ C_ 0.0266303 0.491579 0.119296 0.02923
C_ C_ 0.00479035 0.540814 0.106295 -0.15533
C_ C_ 0.0351879 0.577399 0.096947 -0.15533
C_ C_ 0.0888467 0.566117 0.100888 0.02923
C_ C_ 0.109301 0.515668 0.10908 -0.15533
C_ C_ 0.0788214 0.478873 0.114978 0.02923
C_ C_ 0.0973506 0.930416 0.10843 0.69207
C_ C_ 0.0991898 0.66085 0.0994719 0.69661
C_ C_ 0.435673 0.682015 0.446529 0.18167
C_ C_ 0.476483 0.706534 0.473695 -0.15533
C_ C_ 0.465197 0.744349 0.512509 0.02923
C_ C_ 0.423327 0.75772 0.0100776 -0.15533
C_ C_ 0.376446 0.7264 0.499129 0.18167
C_ C_ 0.264395 0.69957 0.351358 0.18167
C_ C_ 0.241219 0.726276 0.309987 -0.15533
C_ C_ 0.26767 0.735769 0.268521 0.02923
C_ C_ 0.318408 0.715542 0.272482 -0.15533
C_ C_ 0.342485 0.696547 0.319407 0.18167
C_ C_ 0.262506 0.61834 0.454699 0.69207
C_ C_ 0.232294 0.621922 0.996566 0.02923
C_ C_ 0.252266 0.618531 0.049676 -0.15533
C_ C_ 0.218125 0.612565 0.0868735 -0.15533
C_ C_ 0.168052 0.599606 0.0714476 0.02923
C_ C_ 0.151511 0.595368 0.0184319 -0.15533
C_ C_ 0.181344 0.60985 0.982414 0.02923
C_ C_ 0.150234 0.606098 0.423554 0.69207
C_ C_ 0.144728 0.608684 0.165928 0.69661
C_ C_ 0.381579 0.881927 0.386894 -0.30787
C_ C_ 0.126225 0.607501 0.108745 -0.30787
N_ N_ 0.14638 0.563942 0.312845 -0.32189
N_ N_ 0.0522792 0.646889 0.317355 -0.32189
N_ N_ 0.0967299 0.824052 0.0624812 -0.32189
N_ N_ 0.193339 0.817885 0.143314 -0.32189
N_ N_ 0.358301 0.94677 0.188791 -0.32189
N_ N_ 0.440143 0.857018 0.184125 -0.32189
N_ N_ 0.387798 0.689656 0.461342 -0.32189
N_ N_ 0.314527 0.682655 0.355241 -0.32189
O_ O_ 0.508542 0.589071 0.403331 -0.63271
O_ O_ 0.0410172 0.538513 0.335959 -0.57982
O_ O_ 0.404249 0.600455 0.35176 -0.63271
O_ O_ 0.366808 0.590553 0.42194 -0.57982
O_ O_ 0.244978 0.896927 0.0857943 -0.63271
O_ O_ 0.207763 0.831674 0.0441777 -0.57982
O_ O_ 0.353468 0.84418 0.096524 -0.63271
O_ O_ 0.386092 0.91485 0.0832771 -0.57982
O_ O_ 0.995233 0.911459 0.1007 -0.63271
O_ O_ 0.455639 0.96201 0.149223 -0.57982
O_ O_ 0.0953911 0.900176 0.145759 -0.63271
O_ O_ 0.130053 0.917285 0.0751741 -0.57982
O_ O_ 0.252624 0.602156 0.406584 -0.63271
O_ O_ 0.292375 0.655312 0.465979 -0.57982
O_ O_ 0.147862 0.649788 0.400944 -0.63271
O_ O_ 0.114114 0.576034 0.408681 -0.57982
F_ F_ 0.447468 0.83065 0.431471 -0.20885
F_ F_ 0.43804 0.810924 0.347397 -0.20885
F_ F_ 0.381231 0.790763 0.396101 -0.20885
F_ F_ 0.314728 0.923567 0.331094 -0.20885
F_ F_ 0.33546 0.840725 0.312748 -0.20885
F_ F_ 0.388252 0.889997 0.298254 -0.20885
F_ F_ 0.0759186 0.667104 0.0519828 -0.20885
F_ F_ 0.0659251 0.679065 0.137433 -0.20885
F_ F_ 0.135079 0.69342 0.102304 -0.20885
F_ F_ 0.182332 0.568556 0.177062 -0.20885
F_ F_ 0.162175 0.651872 0.187606 -0.20885
F_ F_ 0.105351 0.608628 0.198562 -0.20885
Zn Zn 0.0904241 0.593419 0.852401 0.83971
Zn Zn 0.160083 0.847216 0.581176 0.83971
Zn Zn 0.408627 0.916416 0.655855 0.83971
Zn Zn 0.348911 0.65508 0.916398 0.83971
H_ H_ 0.171687 0.634892 0.809176 0.10394
H_ H_ 0.249148 0.595211 0.770071 0.10394
H_ H_ 0.210967 0.950795 0.7832 0.10394
H_ H_ 0.129502 0.489955 0.829622 0.10394
H_ H_ 0.530986 0.595024 0.74935 0.10394
H_ H_ 0.478111 0.665254 0.707641 0.10394
H_ H_ 0.0335844 0.775645 0.821037 0.10394
H_ H_ 0.0852971 0.708434 0.871238 0.10394
H_ H_ 0.035081 0.952313 0.871089 0.10394
H_ H_ 0.48508 0.877718 0.881281 0.10394
H_ H_ 0.352165 0.991112 0.904239 0.10394
H_ H_ 0.082719 0.805793 0.625398 0.10394
H_ H_ 0.495205 0.780565 0.611346 0.10394
H_ H_ 0.0299468 0.803641 0.954944 0.10394
H_ H_ 0.120125 0.826735 0.478725 0.10394
H_ H_ 0.21464 0.743372 0.599385 0.10394
H_ H_ 0.248485 0.696297 0.67407 0.10394
H_ H_ 0.216812 0.831238 0.769396 0.10394
H_ H_ 0.193743 0.880028 0.69103 0.10394
H_ H_ 0.238577 0.823847 0.94644 0.10394
H_ H_ 0.272617 0.858415 0.875634 0.10394
H_ H_ 0.393952 0.906581 0.987542 0.10394
H_ H_ 0.301537 0.92333 0.645489 0.10394
H_ H_ 0.229351 0.966996 0.689315 0.10394
H_ H_ 0.324949 0.548521 0.782024 0.10394
H_ H_ 0.406488 0.015349999999999975 0.725732 0.10394
H_ H_ 0.0103918 0.879226 0.685662 0.10394
H_ H_ 0.0521951 0.803789 0.733398 0.10394
H_ H_ 0.402992 0.751974 0.736566 0.10394
H_ H_ 0.367177 0.829493 0.696052 0.10394
H_ H_ 0.466969 0.55481 0.620477 0.10394
H_ H_ 0.0164521 0.613757 0.620198 0.10394
H_ H_ 0.139518 0.505089 0.577004 0.10394
H_ H_ 0.444791 0.664429 0.890883 0.10394
H_ H_ 0.0119909 0.694511 0.951366 0.10394
H_ H_ 0.403071 0.784075 0.548992 0.10394
H_ H_ 0.344138 0.752052 -0.011212 0.10394
H_ H_ 0.243439 0.70994 0.893628 0.10394
H_ H_ 0.197155 0.75298 0.816591 0.10394
H_ H_ 0.317283 0.686383 0.730207 0.10394
H_ H_ 0.367828 0.666706 0.8106 0.10394
H_ H_ 0.279754 0.603799 0.555352 0.10394
H_ H_ 0.228463 0.595037 0.620211 0.10394
H_ H_ 0.0999702 0.590276 0.504975 0.10394
C_ C_ 0.17692 0.593814 0.802775 0.18167
C_ C_ 0.219849 0.571657 0.776121 -0.15533
C_ C_ 0.229467 0.519206 0.772068 0.02923
C_ C_ 0.202235 0.991795 0.78541 -0.15533
C_ C_ 0.152323 0.513964 0.812415 0.18167
C_ C_ 0.0213606 0.635571 0.778833 0.18167
C_ C_ 0.499595 0.672345 0.743797 -0.15533
C_ C_ 0.00786265 0.725257 0.757805 0.02923
C_ C_ 0.0358397 0.736925 0.803916 -0.15533
C_ C_ 0.0611352 0.698703 0.834755 0.18167
C_ C_ 0.00881204 0.552338 0.881803 0.69207
C_ C_ 0.479292 0.00498138 0.885851 0.02923
C_ C_ 0.49839 0.953008 0.878908 -0.15533
C_ C_ 0.466315 0.916648 0.885367 -0.15533
C_ C_ 0.414246 0.926765 0.891171 0.02923
C_ C_ 0.393643 0.977793 0.896802 -0.15533
C_ C_ 0.425953 0.0169582 0.893465 0.02923
C_ C_ 0.400913 0.56645 0.891014 0.69207
C_ C_ 0.400001 0.831193 0.876444 0.69661
C_ C_ 0.0765836 0.79739 0.584307 0.18167
C_ C_ 0.0323903 0.775361 0.565206 -0.15533
C_ C_ 0.0228075 0.767203 0.510603 0.02923
C_ C_ 0.0428049 0.795741 0.993319 -0.15533
C_ C_ 0.0954838 0.811447 0.50309 0.18167
C_ C_ 0.216195 0.764724 0.636569 0.18167
C_ C_ 0.233002 0.737133 0.679161 -0.15533
C_ C_ 0.237105 0.760494 0.727722 0.02923
C_ C_ 0.215723 0.813229 0.732991 -0.15533
C_ C_ 0.194114 0.839715 0.689608 0.18167
C_ C_ 0.24289 0.866856 0.546206 0.69207
C_ C_ 0.28017 0.865023 0.00482933 0.02923
C_ C_ 0.264157 0.853124 0.952864 -0.15533
C_ C_ 0.289733 0.867019 0.913565 -0.15533
C_ C_ 0.337734 0.885787 0.923174 0.02923
C_ C_ 0.355899 0.894434 0.976764 -0.15533
C_ C_ 0.326694 0.884893 0.0167415 0.02923
C_ C_ 0.353617 0.884335 0.575065 0.69207
C_ C_ 0.345298 0.896078 0.828058 0.69661
C_ C_ 0.308276 0.952266 0.67562 0.18167
C_ C_ 0.268663 0.975291 0.701261 -0.15533
C_ C_ 0.280382 1.00752651 0.74411 0.02923
C_ C_ 0.321774 0.516947 0.753863 -0.15533
C_ C_ 0.368458 1.00163 0.722028 0.18167
C_ C_ 0.49008 0.84928 0.703654 0.18167
C_ C_ 0.0121715 0.805047 0.71992 -0.15533
C_ C_ 0.482451 0.766202 0.7327 0.02923
C_ C_ 0.428328 0.775534 0.72027 -0.15533
C_ C_ 0.407352 0.823189 0.703208 0.18167
C_ C_ 0.491644 0.950078 0.634093 0.69207
C_ C_ 0.0196244 0.486861 0.612762 0.02923
C_ C_ 1.00268188 0.538823 0.621616 -0.15533
C_ C_ 0.0324087 0.575907 0.613441 -0.15533
C_ C_ 0.0829042 0.564989 0.60343 0.02923
C_ C_ 0.102343 0.513738 0.595273 -0.15533
C_ C_ 0.0722267 0.475072 0.601219 0.02923
C_ C_ 0.0969973 0.925333 0.608957 0.69207
C_ C_ 0.0975341 0.65991 0.606462 0.69661
C_ C_ 0.441445 0.683656 0.929603 0.18167
C_ C_ 0.483821 0.704207 0.958451 -0.15533
C_ C_ 0.473363 0.742582 -0.005283000000000038 0.02923
C_ C_ 0.414373 0.752131 0.525166 -0.15533
C_ C_ 0.383325 0.736928 0.980812 0.18167
C_ C_ 0.258952 0.705663 0.855753 0.18167
C_ C_ 0.236448 0.733879 0.815817 -0.15533
C_ C_ 0.258101 0.73078 0.770814 0.02923
C_ C_ 0.298974 0.693204 0.764861 -0.15533
C_ C_ 0.328776 0.67682 0.810383 0.18167
C_ C_ 0.271475 0.62389 0.959791 0.69207
C_ C_ 0.224233 0.610344 0.491003 0.02923
C_ C_ 0.242248 0.607358 0.542719 -0.15533
C_ C_ 0.212284 0.598394 0.581283 -0.15533
C_ C_ 0.160375 0.594883 0.569405 0.02923
C_ C_ 0.140517 0.594145 0.515392 -0.15533
C_ C_ 0.171702 0.604743 0.47767 0.02923
C_ C_ 0.155227 0.614946 0.930942 0.69207
C_ C_ 0.147343 0.603547 0.668029 0.69661
C_ C_ 0.375133 0.886327 0.881542 -0.30787
C_ C_ 0.122986 0.604494 0.611598 -0.30787
N_ N_ 0.141721 0.565913 0.814985 -0.32189
N_ N_ 0.0551748 0.648681 0.819062 -0.32189
N_ N_ 0.108602 0.810989 0.55332 -0.32189
N_ N_ 0.192363 0.81342 0.642726 -0.32189
N_ N_ 0.356652 0.962698 0.686357 -0.32189
N_ N_ 0.439217 0.856221 0.690856 -0.32189
N_ N_ 0.392923 0.701833 0.940852 -0.32189
N_ N_ 0.307606 0.679639 0.854143 -0.32189
O_ O_ 0.503567 0.584212 0.904038 -0.63271
O_ O_ 0.0442683 0.544674 0.849538 -0.57982
O_ O_ 0.396626 0.587365 0.845222 -0.63271
O_ O_ 0.377135 0.590704 0.928416 -0.57982
O_ O_ 0.234582 0.901894 0.582226 -0.63271
O_ O_ 0.210276 0.833033 0.533661 -0.57982
O_ O_ 0.350982 0.84708 0.603212 -0.63271
O_ O_ 0.387741 0.913309 0.587419 -0.57982
O_ O_ 0.989265 0.906671 0.592061 -0.63271
O_ O_ 0.459118 0.957972 0.667063 -0.57982
O_ O_ 0.103278 0.9025 0.652592 -0.63271
O_ O_ 0.124073 0.907169 0.571456 -0.57982
O_ O_ 0.266323 0.597908 0.916052 -0.63271
O_ O_ 0.301494 0.660602 0.96353 -0.57982
O_ O_ 0.153423 0.657662 0.907409 -0.63271
O_ O_ 0.121812 0.584541 0.915433 -0.57982
F_ F_ 0.435493 0.823597 0.918863 -0.20885
F_ F_ 0.424459 0.822701 0.835657 -0.20885
F_ F_ 0.368001 0.793616 0.874824 -0.20885
F_ F_ 0.305038 0.932405 0.834408 -0.20885
F_ F_ 0.322433 0.853737 0.800977 -0.20885
F_ F_ 0.376962 0.909306 0.793716 -0.20885
F_ F_ 0.0706757 0.668393 0.559079 -0.20885
F_ F_ 0.0704098 0.67991 0.646304 -0.20885
F_ F_ 0.131708 0.69641 0.605342 -0.20885
F_ F_ 0.176189 0.555819 0.67646 -0.20885
F_ F_ 0.17889 0.639576 0.679493 -0.20885
F_ F_ 0.114946 0.606922 0.703636 -0.20885
Zn Zn 0.584926 0.0845268 0.344689 0.83971
Zn Zn 0.657927 0.351725 0.0810453 0.83971
Zn Zn 0.907032 0.41719 0.155767 0.83971
Zn Zn 0.839095 0.150322 0.412344 0.83971
H_ H_ 0.663659 0.136048 0.296836 0.10394
H_ H_ 0.740852 0.10269 0.260561 0.10394
H_ H_ 0.687599 0.453272 0.256186 0.10394
H_ H_ 0.628963 0.987893 0.32221 0.10394
H_ H_ 0.0210033 0.0932452 0.251661 0.10394
H_ H_ 0.998058 0.168901 0.201575 0.10394
H_ H_ 0.523405 0.263755 0.341229 0.10394
H_ H_ 0.566676 0.187174 0.379295 0.10394
H_ H_ 0.531761 0.441871 0.374134 0.10394
H_ H_ 0.956917 0.372695 0.339192 0.10394
H_ H_ 0.849209 0.486283 0.40068 0.10394
H_ H_ 0.5666 0.324951 0.13097 0.10394
H_ H_ 1.00623268 0.262801 0.103416 0.10394
H_ H_ 0.538538 0.282106 0.446603 0.10394
H_ H_ 0.618856 0.316866 0.986037 0.10394
H_ H_ 0.718027 0.249622 0.0935127 0.10394
H_ H_ 0.737981 0.19832 0.170827 0.10394
H_ H_ 0.712355 0.333672 0.268198 0.10394
H_ H_ 0.683793 0.381711 0.187402 0.10394
H_ H_ 0.712326 0.367393 0.444652 0.10394
H_ H_ 0.760641 0.371549 0.376207 0.10394
H_ H_ 0.89674 0.390363 0.479595 0.10394
H_ H_ 0.804296 0.401488 0.153965 0.10394
H_ H_ 0.732458 0.457175 0.181883 0.10394
H_ H_ 0.832522 0.0410642 0.283947 0.10394
H_ H_ 0.906488 0.483845 0.251291 0.10394
H_ H_ 0.521625 0.373848 0.188235 0.10394
H_ H_ 0.558843 0.303481 0.237009 0.10394
H_ H_ 0.90746 0.244907 0.227669 0.10394
H_ H_ 0.868968 0.322551 0.179966 0.10394
H_ H_ 0.968228 0.0613081 0.124113 0.10394
H_ H_ 0.515973 0.112469 0.105394 0.10394
H_ H_ 0.64791 0.0053399999999999 0.0902055 0.10394
H_ H_ 0.941098 0.151971 0.399403 0.10394
H_ H_ 0.514119 0.195217 0.442054 0.10394
H_ H_ 0.922757 0.260757 0.0557926 0.10394
H_ H_ 0.836697 0.237864 0.488416 0.10394
H_ H_ 0.734497 0.198695 0.393167 0.10394
H_ H_ 0.68712 0.237316 0.317772 0.10394
H_ H_ 0.822644 0.221316 0.240903 0.10394
H_ H_ 0.869185 0.185981 0.322701 0.10394
H_ H_ 0.790015 0.115328 0.0545335 0.10394
H_ H_ 0.73335 0.10828 0.11911 0.10394
H_ H_ 0.618533 0.0655638 -0.000348507 0.10394
C_ C_ 0.673225 0.0941378 0.294072 0.18167
C_ C_ 0.717579 0.0762738 0.27327 -0.15533
C_ C_ 0.731052 0.0219977 0.26716 0.02923
C_ C_ 0.688877 0.491615 0.27184 -0.15533
C_ C_ 0.653948 0.00973735 0.305771 0.18167
C_ C_ 0.523546 0.131513 0.268247 0.18167
C_ C_ 0.010757 0.173322 0.241355 -0.15533
C_ C_ 0.510494 0.226254 0.265447 0.02923
C_ C_ 0.530252 0.229814 0.31758 -0.15533
C_ C_ 0.551783 0.186264 0.341029 0.18167
C_ C_ 0.506607 0.0499934 0.370794 0.69207
C_ C_ 0.967987 0.500501 0.363714 0.02923
C_ C_ 0.980491 0.447619 0.349132 -0.15533
C_ C_ 0.945469 0.412506 0.34852 -0.15533
C_ C_ 0.901828 0.423594 0.374925 0.02923
C_ C_ 0.886403 0.475599 0.387862 -0.15533
C_ C_ 0.917802 0.512914 0.382042 0.02923
C_ C_ 0.891457 0.0650555 0.375814 0.69207
C_ C_ 0.889572 0.326204 0.379056 0.69661
C_ C_ 0.56098 0.314668 0.0921299 0.18167
C_ C_ 0.517971 0.289291 0.0730142 -0.15533
C_ C_ 0.511401 0.272282 0.0206687 0.02923
C_ C_ 0.546073 0.287102 0.487344 -0.15533
C_ C_ 0.58976 0.312939 0.00943151 0.18167
C_ C_ 0.713849 0.265057 0.133606 0.18167
C_ C_ 0.729152 0.237547 0.175347 -0.15533
C_ C_ 0.726102 0.2599 0.226533 0.02923
C_ C_ 0.708734 0.312458 0.230935 -0.15533
C_ C_ 0.688799 0.339957 0.187098 0.18167
C_ C_ 0.740384 0.370973 0.0428109 0.69207
C_ C_ 0.77626 0.378751 0.505035 0.02923
C_ C_ 0.752055 0.377672 0.453912 -0.15533
C_ C_ 0.780068 0.377067 0.413608 -0.15533
C_ C_ 0.831516 0.388713 0.419091 0.02923
C_ C_ 0.856756 0.387795 0.471997 -0.15533
C_ C_ 0.827544 0.385608 0.516423 0.02923
C_ C_ 0.849781 0.389423 0.0679447 0.69207
C_ C_ 0.833277 0.380829 0.320779 0.69661
C_ C_ 0.810838 0.43385 0.179205 0.18167
C_ C_ 0.769467 0.460748 0.20115 -0.15533
C_ C_ 0.775948 0.498431 0.240011 0.02923
C_ C_ 0.822159 0.0153895 0.250205 -0.15533
C_ C_ 0.86781 0.47913 0.237392 0.18167
C_ C_ 0.985133 0.35511 0.204267 0.18167
C_ C_ 0.518591 0.305767 0.224857 -0.15533
C_ C_ 0.982861 0.271109 0.237957 0.02923
C_ C_ 0.93014 0.275725 0.217916 -0.15533
C_ C_ 0.909283 0.315085 0.188638 0.18167
C_ C_ 0.987713 0.451839 0.124363 0.69207
C_ C_ 0.521549 0.988124 0.106141 0.02923
C_ C_ 0.499274 0.0389232 0.104787 -0.15533
C_ C_ 0.530424 0.0759717 0.0985391 -0.15533
C_ C_ 0.583409 0.0654072 0.0914828 0.02923
C_ C_ 0.606079 0.013843 0.0921831 -0.15533
C_ C_ 0.573775 0.974745 0.0973917 0.02923
C_ C_ 0.597867 0.434125 0.111483 0.69207
C_ C_ 0.595614 0.159191 0.0900413 0.69661
C_ C_ 0.934577 0.17804 0.431777 0.18167
C_ C_ 0.97538 0.202282 0.456659 -0.15533
C_ C_ 0.965807 0.244097 0.489502 0.02923
C_ C_ 0.926929 0.243845 0.0214327 -0.15533
C_ C_ 0.87498 0.223648 0.484388 0.18167
C_ C_ 0.75239 0.199966 0.357459 0.18167
C_ C_ 0.725735 0.226553 0.315087 -0.15533
C_ C_ 0.751151 0.230512 0.27205 0.02923
C_ C_ 0.802742 0.213663 0.27276 -0.15533
C_ C_ 0.8281 0.194216 0.318212 0.18167
C_ C_ 0.759798 0.117063 0.450361 0.69207
C_ C_ 0.728964 0.117797 0.990623 0.02923
C_ C_ 0.749566 0.11381 0.0427816 -0.15533
C_ C_ 0.716958 0.107214 0.0804341 -0.15533
C_ C_ 0.666089 0.0962778 0.0620626 0.02923
C_ C_ 0.653969 0.0839443 0.0112763 -0.15533
C_ C_ 0.679864 0.104073 0.975921 0.02923
C_ C_ 0.649723 0.101865 0.422739 0.69207
C_ C_ 0.639668 0.106465 0.155504 0.69661
C_ C_ 0.864468 0.382749 0.375717 -0.30787
C_ C_ 0.621834 0.103734 0.0992125 -0.30787
N_ N_ 0.643031 0.0615605 0.309204 -0.32189
N_ N_ 0.548893 0.140923 0.315334 -0.32189
N_ N_ 0.596789 0.320829 0.0602588 -0.32189
N_ N_ 0.691341 0.313063 0.140633 -0.32189
N_ N_ 0.857837 0.44429 0.198858 -0.32189
N_ N_ 0.936242 0.355832 0.184286 -0.32189
N_ N_ 0.886597 0.189892 0.445325 -0.32189
N_ N_ 0.803251 0.189734 0.359799 -0.32189
O_ O_ 0.0022599999999999287 0.0792363 0.393603 -0.63271
O_ O_ 0.544319 0.0397038 0.344586 -0.57982
O_ O_ 0.900665 0.0948877 0.340363 -0.63271
O_ O_ 0.867942 0.086118 0.41302 -0.57982
O_ O_ 0.738871 0.399307 0.0855678 -0.63271
O_ O_ 0.702922 0.342273 0.0319334 -0.57982
O_ O_ 0.849643 0.346879 0.088243 -0.63271
O_ O_ 0.880391 0.423219 0.0875406 -0.57982
O_ O_ 0.495889 0.418385 0.104469 -0.63271
O_ O_ 0.957309 0.459319 0.160496 -0.57982
O_ O_ 0.596865 0.411653 0.154528 -0.63271
O_ O_ 0.63428 0.416939 0.0837688 -0.57982
O_ O_ 0.753768 0.0975387 0.40435 -0.63271
O_ O_ 0.798701 0.144558 0.461827 -0.57982
O_ O_ 0.650169 0.147641 0.402348 -0.63271
O_ O_ 0.615829 0.0707969 0.405838 -0.57982
F_ F_ 0.934108 0.329942 0.413594 -0.20885
F_ F_ 0.908148 0.303269 0.335971 -0.20885
F_ F_ 0.861036 0.291928 0.394964 -0.20885
F_ F_ 0.794844 0.423452 0.315334 -0.20885
F_ F_ 0.810995 0.33656 0.306717 -0.20885
F_ F_ 0.864842 0.381161 0.28117 -0.20885
F_ F_ 0.563506 0.163007 0.0463354 -0.20885
F_ F_ 0.566807 0.178791 0.129966 -0.20885
F_ F_ 0.631231 0.192455 0.0885624 -0.20885
F_ F_ 0.671227 0.061538 0.168644 -0.20885
F_ F_ 0.668582 0.145683 0.172662 -0.20885
F_ F_ 0.603499 0.10556 0.188299 -0.20885
Zn Zn 0.59039 0.0796355 0.840179 0.83971
Zn Zn 0.662382 0.343412 0.582431 0.83971
Zn Zn 0.904522 0.416689 0.655138 0.83971
Zn Zn 0.837947 0.159396 0.916923 0.83971
H_ H_ 0.67314 0.130773 0.804266 0.10394
H_ H_ 0.751493 0.0997247 0.759146 0.10394
H_ H_ 0.715186 0.452077 0.794707 0.10394
H_ H_ 0.632116 0.985232 0.806763 0.10394
H_ H_ 0.0121319 0.0949687 0.767483 0.10394
H_ H_ 0.981711 0.168265 0.718571 0.10394
H_ H_ 0.535959 0.260465 0.837094 0.10394
H_ H_ 0.564778 0.179383 0.880013 0.10394
H_ H_ 0.53194 0.439815 0.862952 0.10394
H_ H_ 0.974838 0.386882 0.865838 0.10394
H_ H_ 0.849679 0.489649 0.886616 0.10394
H_ H_ 0.584305 0.305087 0.630238 0.10394
H_ H_ -0.008542999999999967 0.285598 0.586386 0.10394
H_ H_ 0.544088 0.27681 0.948792 0.10394
H_ H_ 0.617626 0.317286 0.477985 0.10394
H_ H_ 0.721007 0.248264 0.600638 0.10394
H_ H_ 0.755198 0.202243 0.679192 0.10394
H_ H_ 0.721059 0.343215 0.767447 0.10394
H_ H_ 0.684319 0.38606 0.687705 0.10394
H_ H_ 0.720347 0.359223 0.94283 0.10394
H_ H_ 0.771163 0.374676 0.873761 0.10394
H_ H_ 0.896512 0.405552 0.983983 0.10394
H_ H_ 0.802392 0.401902 0.664945 0.10394
H_ H_ 0.731644 0.453358 0.696063 0.10394
H_ H_ 0.833936 0.050124 0.763129 0.10394
H_ H_ 0.89801 0.514479 0.724503 0.10394
H_ H_ 0.513734 0.389127 0.703027 0.10394
H_ H_ 0.561253 0.306198 0.738937 0.10394
H_ H_ 0.904359 0.255504 0.736876 0.10394
H_ H_ 0.869596 0.324193 0.684906 0.10394
H_ H_ 0.965398 0.0533031 0.631235 0.10394
H_ H_ 0.511157 0.110773 0.59284 0.10394
H_ H_ 0.637437 0.00542359 0.575299 0.10394
H_ H_ 0.942431 0.168317 0.892054 0.10394
H_ H_ 0.518657 0.189682 0.956544 0.10394
H_ H_ 0.909662 0.268969 0.542657 0.10394
H_ H_ 0.850617 0.227581 0.0117284 0.10394
H_ H_ 0.730026 0.200159 0.889401 0.10394
H_ H_ 0.695392 0.261751 0.82622 0.10394
H_ H_ 0.827401 0.228835 0.746029 0.10394
H_ H_ 0.871878 0.194147 0.826498 0.10394
H_ H_ 0.780589 0.117964 0.550633 0.10394
H_ H_ 0.73375 0.107701 0.617039 0.10394
H_ H_ 0.610375 0.0685517 0.503496 0.10394
C_ C_ 0.680161 0.0931325 0.792926 0.18167
C_ C_ 0.725091 0.07571 0.770852 -0.15533
C_ C_ 0.734836 0.0230572 0.762022 0.02923
C_ C_ 0.705744 0.493892 0.797779 -0.15533
C_ C_ 0.659569 0.00950086 0.801213 0.18167
C_ C_ 0.533223 0.133462 0.761304 0.18167
C_ C_ -0.005639999999999978 0.174267 0.758541 -0.15533
C_ C_ 0.514291 0.223972 0.76389 0.02923
C_ C_ 0.535174 0.226263 0.816168 -0.15533
C_ C_ 0.554821 0.18126 0.839117 0.18167
C_ C_ 0.510264 0.0438719 0.869958 0.69207
C_ C_ 0.971545 0.512609 0.880068 0.02923
C_ C_ 0.991753 0.46202 0.881584 -0.15533
C_ C_ 0.960765 0.424741 0.879852 -0.15533
C_ C_ 0.910604 0.432754 0.886719 0.02923
C_ C_ 0.889687 0.482724 0.882915 -0.15533
C_ C_ 0.918996 0.523807 0.880714 0.02923
C_ C_ 0.892882 0.0729948 0.87723 0.69207
C_ C_ 0.902542 0.335846 0.887797 0.69661
C_ C_ 0.575883 0.297002 0.590195 0.18167
C_ C_ 0.52848 0.277818 0.573242 -0.15533
C_ C_ 0.513399 0.27089 0.520149 0.02923
C_ C_ 0.54628 0.288009 0.988606 -0.15533
C_ C_ 0.592907 0.305033 0.505032 0.18167
C_ C_ 0.718511 0.267947 0.638945 0.18167
C_ C_ 0.736554 0.241816 0.68228 -0.15533
C_ C_ 0.734539 0.269253 0.730438 0.02923
C_ C_ 0.717083 0.321597 0.732159 -0.15533
C_ C_ 0.698216 0.345513 0.687078 0.18167
C_ C_ 0.744786 0.367483 0.544869 0.69207
C_ C_ 0.775441 0.378642 1.00348 0.02923
C_ C_ 0.758711 0.36955 0.950282 -0.15533
C_ C_ 0.78908 0.377682 0.912056 -0.15533
C_ C_ 0.836666 0.394636 0.923973 0.02923
C_ C_ 0.854649 0.401414 0.975491 -0.15533
C_ C_ 0.825258 0.395091 0.0154151 0.02923
C_ C_ 0.852741 0.385469 0.569715 0.69207
C_ C_ 0.850595 0.387009 0.824658 0.69661
C_ C_ 0.809167 0.434275 0.690035 0.18167
C_ C_ 0.768303 0.46365 0.709641 -0.15533
C_ C_ 0.774945 0.504037 0.742258 0.02923
C_ C_ 0.826937 0.0173944 0.74086 -0.15533
C_ C_ 0.8626 0.495345 0.722444 0.18167
C_ C_ 0.990322 0.353588 0.705757 0.18167
C_ C_ 0.518832 0.312623 0.732396 -0.15533
C_ C_ 0.983678 0.270124 0.740024 0.02923
C_ C_ 0.930583 0.278253 0.725415 -0.15533
C_ C_ 0.908548 0.321698 0.700323 0.18167
C_ C_ 0.981407 0.449238 0.619299 0.69207
C_ C_ 0.52445 0.990285 0.622802 0.02923
C_ C_ 0.503409 0.0405054 0.614291 -0.15533
C_ C_ 0.53235 0.0768812 0.605044 -0.15533
C_ C_ 0.583652 0.0662407 0.598211 0.02923
C_ C_ 0.602311 0.0153752 0.592995 -0.15533
C_ C_ 0.574572 0.976526 0.608263 0.02923
C_ C_ 0.599341 0.424345 0.607244 0.69207
C_ C_ 0.598659 0.162511 0.591997 0.69661
C_ C_ 0.938143 0.192429 0.92722 0.18167
C_ C_ 0.981091 0.208613 0.957622 -0.15533
C_ C_ 0.971812 0.244999 -0.001310999999999951 0.02923
C_ C_ 0.915144 0.252477 0.506152 -0.15533
C_ C_ 0.887839 0.220784 0.995919 0.18167
C_ C_ 0.752577 0.205365 0.856437 0.18167
C_ C_ 0.729662 0.235085 0.817821 -0.15533
C_ C_ 0.757012 0.244078 0.778107 0.02923
C_ C_ 0.805848 0.221754 0.77768 -0.15533
C_ C_ 0.829935 0.1981 0.820018 0.18167
C_ C_ 0.761768 0.129153 0.952435 0.69207
C_ C_ 0.723942 0.111072 0.488656 0.02923
C_ C_ 0.742325 0.114546 0.540083 -0.15533
C_ C_ 0.711804 0.112744 0.578547 -0.15533
C_ C_ 0.664334 0.0940903 0.566827 0.02923
C_ C_ 0.646628 0.085363 0.514039 -0.15533
C_ C_ 0.675171 0.0960653 0.475572 0.02923
C_ C_ 0.652479 0.111194 0.922623 0.69207
C_ C_ 0.643968 0.10775 0.660803 0.69661
C_ C_ 0.876286 0.390846 0.881205 -0.30787
C_ C_ 0.621515 0.107792 0.603067 -0.30787
N_ N_ 0.646173 0.0609397 0.802467 -0.32189
N_ N_ 0.558254 0.13782 0.809526 -0.32189
N_ N_ 0.605378 0.311086 0.555569 -0.32189
N_ N_ 0.695714 0.31609 0.642919 -0.32189
N_ N_ 0.85608 0.450238 0.696515 -0.32189
N_ N_ 0.939323 0.359774 0.693365 -0.32189
N_ N_ 0.890718 0.199056 0.946138 -0.32189
N_ N_ 0.802317 0.18759 0.858561 -0.32189
O_ O_ -0.000760447 0.0941733 0.900415 -0.63271
O_ O_ 0.545594 0.0328331 0.839137 -0.57982
O_ O_ 0.89024 0.0984681 0.835975 -0.63271
O_ O_ 0.877008 0.0978689 0.919117 -0.57982
O_ O_ 0.741404 0.398008 0.585775 -0.63271
O_ O_ 0.709177 0.336731 0.535575 -0.57982
O_ O_ 0.844065 0.351981 0.600246 -0.63271
O_ O_ 0.881357 0.420252 0.588414 -0.57982
O_ O_ 0.493716 0.407361 0.602204 -0.63271
O_ O_ 0.948386 0.460399 0.652928 -0.57982
O_ O_ 0.596352 0.396643 0.645899 -0.63271
O_ O_ 0.634098 0.409337 0.576397 -0.57982
O_ O_ 0.764516 0.101777 0.909556 -0.63271
O_ O_ 0.793991 0.164026 0.964673 -0.57982
O_ O_ 0.651415 0.15466 0.901457 -0.63271
O_ O_ 0.619597 0.0785484 0.903483 -0.57982
F_ F_ 0.938748 0.334323 0.931516 -0.20885
F_ F_ 0.929876 0.317064 0.847758 -0.20885
F_ F_ 0.869914 0.29731 0.891811 -0.20885
F_ F_ 0.816541 0.429471 0.821689 -0.20885
F_ F_ 0.827114 0.344615 0.807782 -0.20885
F_ F_ 0.886086 0.396199 0.790585 -0.20885
F_ F_ 0.568596 0.169767 0.545888 -0.20885
F_ F_ 0.56573 0.182993 0.626527 -0.20885
F_ F_ 0.636293 0.196118 0.59712 -0.20885
F_ F_ 0.675593 0.0642585 0.667898 -0.20885
F_ F_ 0.672014 0.147543 0.6756 -0.20885
F_ F_ 0.609218 0.108835 0.697794 -0.20885
Zn Zn 0.589537 0.586583 0.351933 0.83971
Zn Zn 0.662603 0.842996 0.0801744 0.83971
Zn Zn 0.910806 0.921277 0.153234 0.83971
Zn Zn 0.841647 0.655119 0.41421 0.83971
H_ H_ 0.675721 0.634231 0.313487 0.10394
H_ H_ 0.749993 0.598078 0.26968 0.10394
H_ H_ 0.715871 0.95041 0.291065 0.10394
H_ H_ 0.621257 0.491393 0.310879 0.10394
H_ H_ 0.0201732 0.598868 0.255863 0.10394
H_ H_ 0.986355 0.676057 0.205357 0.10394
H_ H_ 0.533944 0.76825 0.336513 0.10394
H_ H_ 0.570213 0.695782 0.382502 0.10394
H_ H_ 0.535869 0.952918 0.372375 0.10394
H_ H_ 0.969945 0.871495 0.353441 0.10394
H_ H_ 0.850034 0.987545 0.405496 0.10394
H_ H_ 0.579384 0.809089 0.130224 0.10394
H_ H_ 1.00053 0.766818 0.10283 0.10394
H_ H_ 0.530841 0.783851 0.453683 0.10394
H_ H_ 0.620331 0.810985 0.981477 0.10394
H_ H_ 0.745557 0.758676 0.0906041 0.10394
H_ H_ 0.767642 0.69977 0.167932 0.10394
H_ H_ 0.710813 0.825062 0.266129 0.10394
H_ H_ 0.674146 0.868374 0.188683 0.10394
H_ H_ 0.717614 0.845453 0.445532 0.10394
H_ H_ 0.7575 0.880188 0.376739 0.10394
H_ H_ 0.891882 0.902103 0.480017 0.10394
H_ H_ 0.814637 0.896881 0.158545 0.10394
H_ H_ 0.731295 0.942856 0.186093 0.10394
H_ H_ 0.834969 0.53343 0.292709 0.10394
H_ H_ 0.904603 1.000540277 0.242317 0.10394
H_ H_ 0.512406 0.883791 0.198905 0.10394
H_ H_ 0.554622 0.807293 0.2344 0.10394
H_ H_ 0.920111 0.744121 0.212713 0.10394
H_ H_ 0.876308 0.823027 0.184096 0.10394
H_ H_ 0.963405 0.550859 0.101914 0.10394
H_ H_ 0.519353 0.629876 0.124471 0.10394
H_ H_ 0.641179 0.516113 0.0821682 0.10394
H_ H_ 0.939092 0.647579 0.40391 0.10394
H_ H_ 0.512866 0.70203 0.460225 0.10394
H_ H_ 0.914168 0.782857 0.0520691 0.10394
H_ H_ 0.849026 0.740965 0.498497 0.10394
H_ H_ 0.736685 0.707348 0.388338 0.10394
H_ H_ 0.694435 0.74405 0.306087 0.10394
H_ H_ 0.837886 0.716014 0.244369 0.10394
H_ H_ 0.880209 0.688404 0.326796 0.10394
H_ H_ 0.788585 0.616612 0.0548018 0.10394
H_ H_ 0.73968 0.598613 0.120529 0.10394
H_ H_ 0.604993 0.602237 0.00913644 0.10394
C_ C_ 0.682456 0.593419 0.308325 0.18167
C_ C_ 0.724223 0.573456 0.283615 -0.15533
C_ C_ 0.729877 0.520113 0.266765 0.02923
C_ C_ 0.698452 0.988809 0.283628 -0.15533
C_ C_ 0.648135 0.515608 0.299529 0.18167
C_ C_ 0.536185 0.63704 0.269666 0.18167
C_ C_ 0.00950231 0.680499 0.242794 -0.15533
C_ C_ 0.508538 0.727608 0.267192 0.02923
C_ C_ 0.531413 0.731137 0.318125 -0.15533
C_ C_ 0.554914 0.689281 0.343414 0.18167
C_ C_ 0.510969 0.546658 0.378054 0.69207
C_ C_ 0.96796 0.00106147 0.360506 0.02923
C_ C_ -0.016661000000000037 0.949918 0.35364 -0.15533
C_ C_ 0.951982 0.911085 0.357526 -0.15533
C_ C_ 0.905319 0.92307 0.379315 0.02923
C_ C_ 0.888751 0.975271 0.390353 -0.15533
C_ C_ 0.918664 0.0142806 0.378961 0.02923
C_ C_ 0.899133 0.569226 0.383904 0.69207
C_ C_ 0.888126 0.825549 0.374291 0.69661
C_ C_ 0.568211 0.803181 0.0897833 0.18167
C_ C_ 0.525021 0.780226 0.0711566 -0.15533
C_ C_ 0.515773 0.768704 0.018456 0.02923
C_ C_ 0.539262 0.790899 0.495741 -0.15533
C_ C_ 0.591809 0.807351 0.0056657 0.18167
C_ C_ 0.735827 0.769969 0.130004 0.18167
C_ C_ 0.753622 0.742246 0.171915 -0.15533
C_ C_ 0.743508 0.76022 0.222142 0.02923
C_ C_ 0.717568 0.808287 0.228515 -0.15533
C_ C_ 0.696541 0.832434 0.184753 0.18167
C_ C_ 0.747091 0.861051 0.0421836 0.69207
C_ C_ 0.779693 0.858395 0.502584 0.02923
C_ C_ 0.757263 0.856888 0.452653 -0.15533
C_ C_ 0.780122 0.876022 0.412985 -0.15533
C_ C_ 0.831483 0.888716 0.419744 0.02923
C_ C_ 0.851914 0.897414 0.471191 -0.15533
C_ C_ 0.824888 0.883448 0.513409 0.02923
C_ C_ 0.853058 0.885604 0.0669031 0.69207
C_ C_ 0.83627 0.88934 0.321166 0.69661
C_ C_ 0.814027 0.933395 0.180006 0.18167
C_ C_ 0.769265 0.95756 0.199625 -0.15533
C_ C_ 0.773309 0.999091203 0.236751 0.02923
C_ C_ 0.82711 0.509426 0.258664 -0.15533
C_ C_ 0.864943 0.993148 0.227131 0.18167
C_ C_ 0.990385 0.860573 0.206668 0.18167
C_ C_ 0.514785 0.807598 0.222634 -0.15533
C_ C_ 0.990911 0.774901 0.233585 0.02923
C_ C_ 0.943272 0.77619 0.210034 -0.15533
C_ C_ 0.915107 0.822932 0.196301 0.18167
C_ C_ 0.991636 0.95637 0.125686 0.69207
C_ C_ 0.525308 0.501049 0.124875 0.02923
C_ C_ 0.51027 0.553266 0.134171 -0.15533
C_ C_ 0.537566 0.591825 0.11799 -0.15533
C_ C_ 0.587721 0.57747 0.103722 0.02923
C_ C_ 0.603758 0.525992 0.0983433 -0.15533
C_ C_ 0.571462 0.486946 0.104963 0.02923
C_ C_ 0.600533 0.922535 0.100006 0.69207
C_ C_ 0.609282 0.671097 0.109002 0.69661
C_ C_ 0.936171 0.678156 0.431893 0.18167
C_ C_ 0.97891 0.704052 0.447999 -0.15533
C_ C_ 0.975712 0.742411 0.48784 0.02923
C_ C_ 0.920882 0.75313 1.02077 -0.15533
C_ C_ 0.88566 0.733253 0.483426 0.18167
C_ C_ 0.758475 0.707486 0.353768 0.18167
C_ C_ 0.734901 0.730738 0.309651 -0.15533
C_ C_ 0.763482 0.733659 0.26863 0.02923
C_ C_ 0.817575 0.720806 0.276061 -0.15533
C_ C_ 0.838406 0.696998 0.321529 0.18167
C_ C_ 0.766493 0.623512 0.458631 0.69207
C_ C_ 0.728852 0.611313 0.992097 0.02923
C_ C_ 0.749948 0.609192 0.04187 -0.15533
C_ C_ 0.721013 0.601216 0.0806155 -0.15533
C_ C_ 0.667707 0.604478 0.0702286 0.02923
C_ C_ 0.645424 0.608499 0.0200987 -0.15533
C_ C_ 0.675394 0.6084 0.981075 0.02923
C_ C_ 0.657667 0.610268 0.428613 0.69207
C_ C_ 0.657973 0.607202 0.166773 0.69661
C_ C_ 0.86626 0.883187 0.375237 -0.30787
C_ C_ 0.631054 0.614038 0.112955 -0.30787
N_ N_ 0.644329 0.565622 0.313775 -0.32189
N_ N_ 0.553933 0.642955 0.31978 -0.32189
N_ N_ 0.601845 0.813964 0.0569368 -0.32189
N_ N_ 0.700017 0.811078 0.137049 -0.32189
N_ N_ 0.860639 0.953012 0.190887 -0.32189
N_ N_ 0.941724 0.862134 0.187153 -0.32189
N_ N_ 0.891474 0.694601 0.447482 -0.32189
N_ N_ 0.807486 0.685573 0.355919 -0.32189
O_ O_ 0.00744104 0.571909 0.406955 -0.63271
O_ O_ 0.54153 0.541659 0.342971 -0.57982
O_ O_ 0.89747 0.590842 0.341577 -0.63271
O_ O_ 0.868199 0.589174 0.417812 -0.57982
O_ O_ 0.755922 0.876779 0.0891731 -0.63271
O_ O_ 0.707824 0.833377 0.0312773 -0.57982
O_ O_ 0.855585 0.845316 0.0941644 -0.63271
O_ O_ 0.881939 0.920392 0.0843215 -0.57982
O_ O_ 0.493599 0.903813 0.0955771 -0.63271
O_ O_ 0.958199 0.964575 0.159018 -0.57982
O_ O_ 0.599763 0.895491 0.139602 -0.63271
O_ O_ 0.639009 0.909352 0.0738681 -0.57982
O_ O_ 0.766195 0.594763 0.415274 -0.63271
O_ O_ 0.79877 0.657295 0.464553 -0.57982
O_ O_ 0.656354 0.652852 0.403753 -0.63271
O_ O_ 0.624544 0.579252 0.411359 -0.57982
F_ F_ 0.924548 0.81755 0.412579 -0.20885
F_ F_ 0.912989 0.806973 0.331879 -0.20885
F_ F_ 0.848172 0.795024 0.375077 -0.20885
F_ F_ 0.805803 0.934573 0.321862 -0.20885
F_ F_ 0.802361 0.854291 0.302097 -0.20885
F_ F_ 0.865462 0.895313 0.281028 -0.20885
F_ F_ 0.574532 0.678088 0.0677839 -0.20885
F_ F_ 0.58532 0.688715 0.150044 -0.20885
F_ F_ 0.642048 0.706289 0.106229 -0.20885
F_ F_ 0.687382 0.560024 0.167471 -0.20885
F_ F_ 0.687286 0.645338 0.187479 -0.20885
F_ F_ 0.623199 0.605122 0.201226 -0.20885
Zn Zn 0.588444 0.584465 0.852545 0.83971
Zn Zn 0.66187 0.838546 0.584592 0.83971
Zn Zn 0.905179 0.910595 0.646271 0.83971
Zn Zn 0.836696 0.660205 0.91622 0.83971
H_ H_ 0.670626 0.636 0.81286 0.10394
H_ H_ 0.7399 0.607222 0.763545 0.10394
H_ H_ 0.709323 0.947153 0.77273 0.10394
H_ H_ 0.636321 0.48441 0.82963 0.10394
H_ H_ 0.0260585 0.597092 0.766021 0.10394
H_ H_ 0.972854 0.664287 0.715611 0.10394
H_ H_ 0.530264 0.766235 0.832806 0.10394
H_ H_ 0.568685 0.692699 0.87846 0.10394
H_ H_ 0.532597 0.943711 0.859253 0.10394
H_ H_ 0.985318 0.883749 0.872437 0.10394
H_ H_ 0.850548 0.99241 0.896814 0.10394
H_ H_ 0.583627 0.798362 0.640069 0.10394
H_ H_ 0.00413056 0.768723 0.590302 0.10394
H_ H_ 0.543261 0.774497 0.942865 0.10394
H_ H_ 0.6147 0.81278 0.48688 0.10394
H_ H_ 0.717669 0.740637 0.602306 0.10394
H_ H_ 0.773825 0.712866 0.676173 0.10394
H_ H_ 0.709978 0.839152 0.768018 0.10394
H_ H_ 0.677234 0.874336 0.690066 0.10394
H_ H_ 0.721049 0.857738 0.939274 0.10394
H_ H_ 0.77632 0.870741 0.870899 0.10394
H_ H_ 0.891933 0.915321 0.984611 0.10394
H_ H_ 0.803954 0.895598 0.652842 0.10394
H_ H_ 0.728726 0.951777 0.682698 0.10394
H_ H_ 0.834369 0.555219 0.777802 0.10394
H_ H_ 0.899932 1.00901 0.717122 0.10394
H_ H_ 0.512833 0.881475 0.698338 0.10394
H_ H_ 0.553774 0.798411 0.729492 0.10394
H_ H_ 0.911037 0.739543 0.719452 0.10394
H_ H_ 0.871846 0.812995 0.671786 0.10394
H_ H_ 0.962722 0.548095 0.621768 0.10394
H_ H_ 0.522358 0.619925 0.619518 0.10394
H_ H_ 0.648287 0.510342 0.606426 0.10394
H_ H_ 0.939382 0.658685 0.903651 0.10394
H_ H_ 0.52409 0.685484 0.952553 0.10394
H_ H_ 0.924692 0.783718 0.538985 0.10394
H_ H_ 0.840984 0.742306 1.00085 0.10394
H_ H_ 0.729524 0.694134 0.874768 0.10394
H_ H_ 0.693752 0.747586 0.806652 0.10394
H_ H_ 0.843777 0.740846 0.758733 0.10394
H_ H_ 0.877202 0.708232 0.841477 0.10394
H_ H_ 0.787015 0.626762 0.559102 0.10394
H_ H_ 0.734741 0.603666 0.625882 0.10394
H_ H_ 0.611161 0.5846 0.510161 0.10394
C_ C_ 0.677713 0.595905 0.802353 0.18167
C_ C_ 0.717805 0.578714 0.777291 -0.15533
C_ C_ 0.732497 0.526823 0.774375 0.02923
C_ C_ 0.701874 0.9887 0.7769 -0.15533
C_ C_ 0.660062 0.513187 0.81726 0.18167
C_ C_ 0.526457 0.631398 0.769163 0.18167
C_ C_ -0.000586375 0.672097 0.744878 -0.15533
C_ C_ 0.508244 0.72299 0.76263 0.02923
C_ C_ 0.529857 0.729776 0.814242 -0.15533
C_ C_ 0.552984 0.688546 0.839102 0.18167
C_ C_ 0.511121 0.540877 0.878165 0.69207
C_ C_ 0.971278 0.0132313 0.876589 0.02923
C_ C_ -0.006152000000000046 0.962394 0.873387 -0.15533
C_ C_ 0.964858 0.922499 0.880204 -0.15533
C_ C_ 0.913312 0.931054 0.887843 0.02923
C_ C_ 0.892154 0.983115 0.892247 -0.15533
C_ C_ 0.920318 0.0221608 0.880821 0.02923
C_ C_ 0.894531 0.5762 0.880935 0.69207
C_ C_ 0.906569 0.833604 0.890621 0.69661
C_ C_ 0.570343 0.794659 0.597756 0.18167
C_ C_ 0.520541 0.78299 0.582336 -0.15533
C_ C_ 0.506253 0.776039 0.531504 0.02923
C_ C_ 0.549235 0.785457 0.984214 -0.15533
C_ C_ 0.587613 0.806731 0.513664 0.18167
C_ C_ 0.719316 0.763236 0.63784 0.18167
C_ C_ 0.748792 0.744632 0.680937 -0.15533
C_ C_ 0.739974 0.766319 0.729342 0.02923
C_ C_ 0.714114 0.818089 0.732074 -0.15533
C_ C_ 0.692643 0.838425 0.687125 0.18167
C_ C_ 0.744983 0.851402 0.544016 0.69207
C_ C_ 0.779203 0.872287 1.00188621 0.02923
C_ C_ 0.760133 0.869284 0.950118 -0.15533
C_ C_ 0.787385 0.881637 0.912249 -0.15533
C_ C_ 0.837952 0.894018 0.92265 0.02923
C_ C_ 0.853405 0.902838 0.973603 -0.15533
C_ C_ 0.827581 0.886613 0.013659 0.02923
C_ C_ 0.852842 0.8828 0.563547 0.69207
C_ C_ 0.853397 0.884789 0.825044 0.69661
C_ C_ 0.810086 0.931694 0.677033 0.18167
C_ C_ 0.769534 0.959237 0.698224 -0.15533
C_ C_ 0.776159 0.00209922 0.732979 0.02923
C_ C_ 0.824121 0.519876 0.753754 -0.15533
C_ C_ 0.865762 0.98933 0.716513 0.18167
C_ C_ 0.98802 0.850685 0.697696 0.18167
C_ C_ 0.513018 0.803948 0.720027 -0.15533
C_ C_ 0.985184 0.764889 0.726101 0.02923
C_ C_ 0.933929 0.766679 0.707738 -0.15533
C_ C_ 0.911369 0.811804 0.682975 0.18167
C_ C_ 0.983822 0.949321 0.617939 0.69207
C_ C_ 0.52579 0.490522 0.618313 0.02923
C_ C_ 0.505845 0.543104 0.615724 -0.15533
C_ C_ 0.537506 0.581389 0.611861 -0.15533
C_ C_ 0.587943 0.568707 0.603097 0.02923
C_ C_ 0.607362 0.518577 0.60389 -0.15533
C_ C_ 0.576724 0.477465 0.608855 0.02923
C_ C_ 0.595903 0.923181 0.60656 0.69207
C_ C_ 0.601473 0.666299 0.601648 0.69661
C_ C_ 0.93427 0.687436 0.934911 0.18167
C_ C_ 0.975618 0.708455 0.962264 -0.15533
C_ C_ 0.969203 0.745137 1.00302794 0.02923
C_ C_ 0.928873 0.755132 0.505945 -0.15533
C_ C_ 0.879556 0.734786 0.989052 0.18167
C_ C_ 0.754308 0.709566 0.854387 0.18167
C_ C_ 0.73412 0.734704 0.812572 -0.15533
C_ C_ 0.764673 0.743269 0.775039 0.02923
C_ C_ 0.818044 0.729637 0.783097 -0.15533
C_ C_ 0.837392 0.703979 0.826451 0.18167
C_ C_ 0.757763 0.626618 0.95349 0.69207
C_ C_ 0.730579 0.616364 0.496078 0.02923
C_ C_ 0.74934 0.619156 0.549637 -0.15533
C_ C_ 0.718465 0.607449 0.586452 -0.15533
C_ C_ 0.666647 0.602021 0.572457 0.02923
C_ C_ 0.647819 0.597536 0.520064 -0.15533
C_ C_ 0.677578 0.608301 0.481935 0.02923
C_ C_ 0.649093 0.614008 0.930427 0.69207
C_ C_ 0.647482 0.610204 0.668239 0.69661
C_ C_ 0.877737 0.887402 0.881995 -0.30787
C_ C_ 0.6267 0.610901 0.612121 -0.30787
N_ N_ 0.647221 0.56371 0.820284 -0.32189
N_ N_ 0.553666 0.640378 0.814923 -0.32189
N_ N_ 0.603042 0.805289 0.564378 -0.32189
N_ N_ 0.695265 0.811711 0.641407 -0.32189
N_ N_ 0.857841 0.945054 0.687367 -0.32189
N_ N_ 0.937916 0.85166 0.681005 -0.32189
N_ N_ 0.885917 0.703245 0.947358 -0.32189
N_ N_ 0.804123 0.689193 0.858302 -0.32189
O_ O_ 1.0138283 0.586882 0.918294 -0.63271
O_ O_ 0.549806 0.532083 0.850779 -0.57982
O_ O_ 0.89764 0.605271 0.844332 -0.63271
O_ O_ 0.865612 0.593831 0.917683 -0.57982
O_ O_ 0.745692 0.881935 0.585416 -0.63271
O_ O_ 0.701724 0.828058 0.53233 -0.57982
O_ O_ 0.859543 0.840268 0.586387 -0.63271
O_ O_ 0.876296 0.920288 0.581636 -0.57982
O_ O_ 0.494572 0.909934 0.604299 -0.63271
O_ O_ 0.95292 0.954893 0.65521 -0.57982
O_ O_ 0.596582 0.899666 0.649442 -0.63271
O_ O_ 0.632338 0.906197 0.576758 -0.57982
O_ O_ 0.747053 0.614971 0.904014 -0.63271
O_ O_ 0.795902 0.654697 0.967121 -0.57982
O_ O_ 0.644584 0.659232 0.910975 -0.63271
O_ O_ 0.616624 0.581011 0.914014 -0.57982
F_ F_ 0.943684 0.836964 0.932413 -0.20885
F_ F_ 0.931729 0.810281 0.847821 -0.20885
F_ F_ 0.876498 0.80055 0.90685 -0.20885
F_ F_ 0.816327 0.923046 0.81264 -0.20885
F_ F_ 0.834134 0.839055 0.809365 -0.20885
F_ F_ 0.891634 0.890997 0.793793 -0.20885
F_ F_ 0.564286 0.665893 0.561083 -0.20885
F_ F_ 0.577056 0.690185 0.643442 -0.20885
F_ F_ 0.63323 0.699574 0.588123 -0.20885
F_ F_ 0.680898 0.566254 0.671146 -0.20885
F_ F_ 0.677977 0.65087 0.68088 -0.20885
F_ F_ 0.60986 0.613565 0.704195 -0.20885
