_cell_length_a 26.508
_cell_length_b 26.37200000322088
_cell_length_c 26.311999743092066
_cell_angle_alpha 93.74100058972084
_cell_angle_beta 96.04100104955006
_cell_angle_gamma 83.6869992558723
_symmetry_space_group_name_H-M         'P 1'
_symmetry_Int_Tables_number            1
loop_
_symmetry_equiv_pos_as_xyz
   'x, y, z'
                         
loop_
_atom_site_label
_atom_site_type_symbol
_atom_site_fract_x 
_atom_site_fract_y
_atom_site_fract_z
_atom_site_charge
Zn Zn 0.0851246 0.0841597 0.351565 0.83971
Zn Zn 0.156286 0.342564 0.0780896 0.83971
Zn Zn 0.408793 0.411752 0.15317 0.83971
Zn Zn 0.337384 0.15597 0.408316 0.83971
H_ H_ 0.166479 0.13624 0.303074 0.10394
H_ H_ 0.246704 0.0963442 0.267108 0.10394
H_ H_ 0.215541 0.448209 0.291548 0.10394
H_ H_ 0.129082 0.989984 0.328639 0.10394
H_ H_ 0.53932 0.10064 0.251242 0.10394
H_ H_ 0.49719 0.169325 0.20648 0.10394
H_ H_ 0.040419 0.272488 0.34123 0.10394
H_ H_ 0.0679666 0.191444 0.385722 0.10394
H_ H_ 0.0251416 0.438347 0.363376 0.10394
H_ H_ 0.492642 0.377505 0.404557 0.10394
H_ H_ 0.354786 0.47862 0.384908 0.10394
H_ H_ 0.0769593 0.302086 0.13274 0.10394
H_ H_ 0.503443 0.266722 0.0999763 0.10394
H_ H_ 0.0292789 0.297585 0.450509 0.10394
H_ H_ 0.113691 0.321206 0.982958 0.10394
H_ H_ 0.215464 0.246462 0.0938687 0.10394
H_ H_ 0.259903 0.205367 0.171083 0.10394
H_ H_ 0.219677 0.332603 0.266689 0.10394
H_ H_ 0.170839 0.376964 0.193293 0.10394
H_ H_ 0.225296 0.341327 0.436514 0.10394
H_ H_ 0.274043 0.363704 0.370504 0.10394
H_ H_ 0.39192 0.399148 0.487995 0.10394
H_ H_ 0.305017 0.397892 0.164724 0.10394
H_ H_ 0.238556 0.442771 0.203661 0.10394
H_ H_ 0.322785 0.0467491 0.275146 0.10394
H_ H_ 0.405533 0.496615 0.235569 0.10394
H_ H_ 0.014834 0.387087 0.199703 0.10394
H_ H_ 0.0610581 0.311895 0.238869 0.10394
H_ H_ 0.416492 0.237871 0.217678 0.10394
H_ H_ 0.372542 0.3115 0.183882 0.10394
H_ H_ 0.463508 0.0559058 0.112304 0.10394
H_ H_ 0.0102874 0.124111 0.113187 0.10394
H_ H_ 0.133857 0.00971791 0.0852933 0.10394
H_ H_ 0.443593 0.159671 0.388427 0.10394
H_ H_ 0.0161055 0.193181 0.457729 0.10394
H_ H_ 0.419373 0.284618 0.0511316 0.10394
H_ H_ 0.346469 0.237778 0.491122 0.10394
H_ H_ 0.237893 0.209933 0.385106 0.10394
H_ H_ 0.196708 0.251366 0.31421 0.10394
H_ H_ 0.339362 0.222449 0.241675 0.10394
H_ H_ 0.376335 0.177383 0.316837 0.10394
H_ H_ 0.282149 0.112554 0.0592204 0.10394
H_ H_ 0.218969 0.131229 0.122996 0.10394
H_ H_ 0.105744 0.0902657 0.0061722 0.10394
C_ C_ 0.171223 0.0945747 0.295417 0.18167
C_ C_ 0.216135 0.0739186 0.272969 -0.15533
C_ C_ 0.227164 0.0203321 0.263617 0.02923
C_ C_ 0.207572 0.489555 0.29599 -0.15533
C_ C_ 0.154355 0.0128685 0.312996 0.18167
C_ C_ 0.0338319 0.137076 0.271447 0.18167
C_ C_ 0.51502 0.176895 0.244216 -0.15533
C_ C_ 0.010932 0.230318 0.270636 0.02923
C_ C_ 0.0330812 0.235749 0.321181 -0.15533
C_ C_ 0.0544671 0.191306 0.345294 0.18167
C_ C_ 0.00380381 0.0506604 0.375381 0.69207
C_ C_ 0.477024 0.502767 0.379485 0.02923
C_ C_ 0.499861 0.452587 0.386535 -0.15533
C_ C_ 0.471807 0.413255 0.392705 -0.15533
C_ C_ 0.416318 0.42202 0.38855 0.02923
C_ C_ 0.395473 0.472127 0.382737 -0.15533
C_ C_ 0.424642 0.512473 0.381652 0.02923
C_ C_ 0.39183 0.0692854 0.383319 0.69207
C_ C_ 0.409742 0.325218 0.387476 0.69661
C_ C_ 0.0643943 0.300787 0.0924699 0.18167
C_ C_ 0.0170206 0.281232 0.0712588 -0.15533
C_ C_ 0.00878395 0.268886 0.0182707 0.02923
C_ C_ 0.0420268 0.291806 0.489972 -0.15533
C_ C_ 0.0868525 0.309779 0.0084335 0.18167
C_ C_ 0.217435 0.2685 0.133513 0.18167
C_ C_ 0.242429 0.243999 0.174647 -0.15533
C_ C_ 0.242172 0.266977 0.224187 0.02923
C_ C_ 0.215251 0.313905 0.230077 -0.15533
C_ C_ 0.194891 0.341471 0.186522 0.18167
C_ C_ 0.23704 0.36473 0.0398539 0.69207
C_ C_ 0.275384 0.367887 0.49889 0.02923
C_ C_ 0.260292 0.358039 0.447377 -0.15533
C_ C_ 0.290641 0.367944 0.411091 -0.15533
C_ C_ 0.339175 0.383322 0.423059 0.02923
C_ C_ 0.354863 0.389766 0.476097 -0.15533
C_ C_ 0.324887 0.381888 0.513472 0.02923
C_ C_ 0.349063 0.386757 0.0697129 0.69207
C_ C_ 0.356212 0.381261 0.326591 0.69661
C_ C_ 0.312166 0.431812 0.189559 0.18167
C_ C_ 0.273543 0.456898 0.213224 -0.15533
C_ C_ 0.28124 0.498503 0.248248 0.02923
C_ C_ 0.318817 0.0137742 0.246678 -0.15533
C_ C_ 0.367341 0.490031 0.225474 0.18167
C_ C_ 0.486018 0.355902 0.210239 0.18167
C_ C_ 0.0182377 0.314936 0.232659 -0.15533
C_ C_ 0.487529 0.271422 0.238719 0.02923
C_ C_ 0.437392 0.269184 0.215409 -0.15533
C_ C_ 0.41349 0.309342 0.190213 0.18167
C_ C_ 0.487936 0.44561 0.119419 0.69207
C_ C_ 0.0159132 0.995105 0.112794 0.02923
C_ C_ -0.003314000000000039 0.0477143 0.120481 -0.15533
C_ C_ 0.0262725 0.0856541 0.113079 -0.15533
C_ C_ 0.0778456 0.0736054 0.103584 0.02923
C_ C_ 0.0952195 0.0219129 0.0945471 -0.15533
C_ C_ 0.0683147 0.982209 0.105876 0.02923
C_ C_ 0.0983224 0.422702 0.108057 0.69207
C_ C_ 0.089129 0.167826 0.10794 0.69661
C_ C_ 0.438412 0.182569 0.42274 0.18167
C_ C_ 0.480328 0.204625 0.447219 -0.15533
C_ C_ 0.472976 0.242261 0.486784 0.02923
C_ C_ 0.428483 0.253774 0.019884 -0.15533
C_ C_ 0.384738 0.226317 0.481339 0.18167
C_ C_ 0.260052 0.211287 0.353909 0.18167
C_ C_ 0.238102 0.238178 0.313387 -0.15533
C_ C_ 0.266801 0.242236 0.271094 0.02923
C_ C_ 0.318117 0.221102 0.273745 -0.15533
C_ C_ 0.337105 0.195583 0.316404 0.18167
C_ C_ 0.257288 0.131069 0.449641 0.69207
C_ C_ 0.224086 0.122583 0.995212 0.02923
C_ C_ 0.243272 0.115555 0.0471803 -0.15533
C_ C_ 0.208474 0.114464 0.0836502 -0.15533
C_ C_ 0.157717 0.111246 0.0685296 0.02923
C_ C_ 0.142972 0.104985 0.0177455 -0.15533
C_ C_ 0.171489 0.11692 0.979337 0.02923
C_ C_ 0.149968 0.103724 0.425232 0.69207
C_ C_ 0.14338 0.110347 0.166143 0.69661
C_ C_ 0.381167 0.378624 0.382837 -0.30787
C_ C_ 0.118084 0.114244 0.109013 -0.30787
N_ N_ 0.139657 0.0628419 0.309389 -0.32189
N_ N_ 0.0510277 0.143488 0.32197 -0.32189
N_ N_ 0.0963674 0.31424 0.060336 -0.32189
N_ N_ 0.195257 0.316054 0.138949 -0.32189
N_ N_ 0.357576 0.449487 0.192945 -0.32189
N_ N_ 0.438849 0.350296 0.186022 -0.32189
N_ N_ 0.391834 0.189604 0.443305 -0.32189
N_ N_ 0.308519 0.190702 0.355235 -0.32189
O_ O_ 0.507728 0.0857837 0.403452 -0.63271
O_ O_ 0.0364873 0.0394461 0.343461 -0.57982
O_ O_ 0.3881 0.092345 0.340305 -0.63271
O_ O_ 0.368867 0.0923271 0.420395 -0.57982
O_ O_ 0.241448 0.384507 0.0867476 -0.63271
O_ O_ 0.193596 0.345145 0.0252852 -0.57982
O_ O_ 0.356968 0.343272 0.0922749 -0.63271
O_ O_ 0.380491 0.422043 0.0888245 -0.57982
O_ O_ 0.988378 0.407422 0.0987377 -0.63271
O_ O_ 0.457325 0.456984 0.154869 -0.57982
O_ O_ 0.0933472 0.398288 0.149216 -0.63271
O_ O_ 0.137155 0.407785 0.0810321 -0.57982
O_ O_ 0.258314 0.103046 0.406309 -0.63271
O_ O_ 0.295233 0.157524 0.461775 -0.57982
O_ O_ 0.14665 0.143456 0.398563 -0.63271
O_ O_ 0.119528 0.0676842 0.412324 -0.57982
F_ F_ 0.441329 0.323696 0.430657 -0.20885
F_ F_ 0.439114 0.306704 0.348222 -0.20885
F_ F_ 0.376078 0.287306 0.391253 -0.20885
F_ F_ 0.320224 0.422109 0.319309 -0.20885
F_ F_ 0.334519 0.336722 0.312137 -0.20885
F_ F_ 0.392048 0.388108 0.294114 -0.20885
F_ F_ 0.0576898 0.171571 0.0644084 -0.20885
F_ F_ 0.0657202 0.177569 0.152502 -0.20885
F_ F_ 0.123308 0.203889 0.107763 -0.20885
F_ F_ 0.177822 0.0658995 0.165879 -0.20885
F_ F_ 0.168128 0.153981 0.184218 -0.20885
F_ F_ 0.107684 0.104787 0.200619 -0.20885
Zn Zn 0.0877653 0.0897593 0.844701 0.83971
Zn Zn 0.163436 0.342829 0.588034 0.83971
Zn Zn 0.412564 0.414197 0.649692 0.83971
Zn Zn 0.342848 0.153155 0.923504 0.83971
H_ H_ 0.178354 0.128671 0.816258 0.10394
H_ H_ 0.254568 0.0920952 0.773619 0.10394
H_ H_ 0.203814 0.4403 0.771107 0.10394
H_ H_ 0.116321 0.987863 0.799313 0.10394
H_ H_ 0.519758 0.0916628 0.749982 0.10394
H_ H_ 0.490288 0.165209 0.698494 0.10394
H_ H_ 0.0338733 0.271555 0.830767 0.10394
H_ H_ 0.0630559 0.192542 0.874735 0.10394
H_ H_ 0.0426745 0.447802 0.88139 0.10394
H_ H_ 0.474938 0.376306 0.864803 0.10394
H_ H_ 0.348654 0.488136 0.891157 0.10394
H_ H_ 0.0864612 0.296544 0.636115 0.10394
H_ H_ 0.494444 0.271816 0.586102 0.10394
H_ H_ 0.0373644 0.279735 0.946364 0.10394
H_ H_ 0.109301 0.326401 0.484086 0.10394
H_ H_ 0.229943 0.251333 0.602595 0.10394
H_ H_ 0.271875 0.205098 0.669181 0.10394
H_ H_ 0.228371 0.333882 0.771983 0.10394
H_ H_ 0.18386 0.377513 0.695386 0.10394
H_ H_ 0.213441 0.387204 0.940604 0.10394
H_ H_ 0.268967 0.380585 0.8722 0.10394
H_ H_ 0.389562 0.40935 0.989962 0.10394
H_ H_ 0.301924 0.447855 0.61855 0.10394
H_ H_ 0.228789 0.46949 0.666972 0.10394
H_ H_ 0.328792 0.0485806 0.759524 0.10394
H_ H_ 0.404877 0.45806 0.750104 0.10394
H_ H_ 0.0111618 0.386828 0.686584 0.10394
H_ H_ 0.0625061 0.309566 0.721393 0.10394
H_ H_ 0.405761 0.248368 0.717108 0.10394
H_ H_ 0.367203 0.327097 0.678513 0.10394
H_ H_ 0.45969 0.0566957 0.621223 0.10394
H_ H_ 0.0276114 0.12155 0.60687 0.10394
H_ H_ 0.152343 0.00216245 0.604836 0.10394
H_ H_ 0.440743 0.167812 0.900882 0.10394
H_ H_ 0.0118789 0.188867 0.946746 0.10394
H_ H_ 0.418771 0.282218 0.536066 0.10394
H_ H_ 0.351016 0.230673 0.0151741 0.10394
H_ H_ 0.238852 0.20963 0.892438 0.10394
H_ H_ 0.199965 0.246041 0.811326 0.10394
H_ H_ 0.34878 0.221392 0.754295 0.10394
H_ H_ 0.380851 0.177843 0.833655 0.10394
H_ H_ 0.287902 0.130571 0.549052 0.10394
H_ H_ 0.245441 0.109533 0.61833 0.10394
H_ H_ 0.115927 0.0705266 0.50872 0.10394
C_ C_ 0.180799 0.0888597 0.799967 0.18167
C_ C_ 0.228114 0.066151 0.782394 -0.15533
C_ C_ 0.234286 0.011932 0.772829 0.02923
C_ C_ 0.19711 0.48175 0.776279 -0.15533
C_ C_ 0.148837 0.00898502 0.799411 0.18167
C_ C_ 0.0467861 0.139634 0.759814 0.18167
C_ C_ 0.504236 0.169908 0.736156 -0.15533
C_ C_ 0.0198528 0.230332 0.757344 0.02923
C_ C_ 0.0396041 0.234646 0.809693 -0.15533
C_ C_ 0.0578626 0.190803 0.834533 0.18167
C_ C_ 0.00871075 0.0469795 0.874846 0.69207
C_ C_ 0.467424 0.502175 0.856744 0.02923
C_ C_ 0.489449 0.452587 0.857626 -0.15533
C_ C_ 0.459769 0.414618 0.870748 -0.15533
C_ C_ 0.410658 0.427175 0.886999 0.02923
C_ C_ 0.388988 0.47751 0.885731 -0.15533
C_ C_ 0.417425 0.515971 0.870186 0.02923
C_ C_ 0.394888 0.0674815 0.888745 0.69207
C_ C_ 0.403731 0.330358 0.895125 0.69661
C_ C_ 0.0722665 0.297135 0.595106 0.18167
C_ C_ 0.0297788 0.273123 0.576241 -0.15533
C_ C_ 0.012859 0.274214 0.523518 0.02923
C_ C_ 0.0439139 0.283825 0.985616 -0.15533
C_ C_ 0.0892382 0.307551 0.509578 0.18167
C_ C_ 0.226892 0.266823 0.640393 0.18167
C_ C_ 0.25062 0.239815 0.681669 -0.15533
C_ C_ 0.254207 0.264204 0.730371 0.02923
C_ C_ 0.227489 0.314565 0.734759 -0.15533
C_ C_ 0.201063 0.33759 0.69231 0.18167
C_ C_ 0.240598 0.362932 0.542049 0.69207
C_ C_ 0.271623 0.380779 0.00160126 0.02923
C_ C_ 0.251818 0.383584 0.950711 -0.15533
C_ C_ 0.283373 0.389678 0.912586 -0.15533
C_ C_ 0.33568 0.393868 0.924855 0.02923
C_ C_ 0.351593 0.399755 0.977888 -0.15533
C_ C_ 0.323226 0.388909 0.0162299 0.02923
C_ C_ 0.351277 0.379558 0.566539 0.69207
C_ C_ 0.353056 0.380715 0.827294 0.69661
C_ C_ 0.307078 0.455459 0.65879 0.18167
C_ C_ 0.266234 0.472264 0.685506 -0.15533
C_ C_ 0.275442 0.492255 0.735828 0.02923
C_ C_ 0.320351 0.0136104 0.738019 -0.15533
C_ C_ 0.367101 0.469293 0.729841 0.18167
C_ C_ 0.491285 0.349424 0.700033 0.18167
C_ C_ 0.020508 0.311789 0.712141 -0.15533
C_ C_ 0.482382 0.265678 0.730527 0.02923
C_ C_ 0.430236 0.272464 0.712582 -0.15533
C_ C_ 0.409 0.319985 0.690658 0.18167
C_ C_ 0.487924 0.452972 0.623892 0.69207
C_ C_ 0.0272732 0.993077 0.616773 0.02923
C_ C_ 0.00853319 0.0462296 0.61137 -0.15533
C_ C_ 0.0415705 0.0823248 0.606956 -0.15533
C_ C_ 0.0951657 0.0672044 0.608544 0.02923
C_ C_ 0.112941 0.0150422 0.609261 -0.15533
C_ C_ 0.0797295 0.978376 0.611624 0.02923
C_ C_ 0.102321 0.425353 0.617784 0.69207
C_ C_ 0.112828 0.164376 0.607878 0.69661
C_ C_ 0.437916 0.186111 0.937073 0.18167
C_ C_ 0.480308 0.206865 0.960459 -0.15533
C_ C_ 0.477941 0.24148 1.00149083 0.02923
C_ C_ 0.424669 0.252311 0.502923 -0.15533
C_ C_ 0.386799 0.228082 0.99656628 0.18167
C_ C_ 0.263903 0.212654 0.863296 0.18167
C_ C_ 0.240929 0.23275 0.815462 -0.15533
C_ C_ 0.272058 0.235589 0.775179 0.02923
C_ C_ 0.322929 0.21749 0.783498 -0.15533
C_ C_ 0.340812 0.192744 0.828849 0.18167
C_ C_ 0.26131 0.133104 0.956975 0.69207
C_ C_ 0.22499 0.120116 0.490165 0.02923
C_ C_ 0.248319 0.123242 0.540287 -0.15533
C_ C_ 0.224294 0.105507 0.579283 -0.15533
C_ C_ 0.171554 0.0984352 0.569449 0.02923
C_ C_ 0.149649 0.0910566 0.519254 -0.15533
C_ C_ 0.174676 0.106664 0.479149 0.02923
C_ C_ 0.149318 0.117215 0.925167 0.69207
C_ C_ 0.161998 0.107573 0.667299 0.69661
C_ C_ 0.374551 0.383657 0.884484 -0.30787
C_ C_ 0.134496 0.108697 0.613494 -0.30787
N_ N_ 0.143254 0.0601731 0.809629 -0.32189
N_ N_ 0.0608683 0.144893 0.810519 -0.32189
N_ N_ 0.104421 0.311694 0.562125 -0.32189
N_ N_ 0.200098 0.312659 0.646875 -0.32189
N_ N_ 0.356171 0.45097 0.680757 -0.32189
N_ N_ 0.440245 0.358036 0.686573 -0.32189
N_ N_ 0.394587 0.19187 0.959246 -0.32189
N_ N_ 0.311988 0.19103 0.868312 -0.32189
O_ O_ 0.501332 0.0882069 0.899131 -0.63271
O_ O_ 0.043046 0.0417917 0.841294 -0.57982
O_ O_ 0.37967 0.0872573 0.845418 -0.63271
O_ O_ 0.375431 0.0888569 0.927484 -0.57982
O_ O_ 0.243236 0.393177 0.582526 -0.63271
O_ O_ 0.205726 0.332007 0.538289 -0.57982
O_ O_ 0.357646 0.336298 0.588111 -0.63271
O_ O_ 0.382473 0.413644 0.582526 -0.57982
O_ O_ 0.990973 0.417995 0.590591 -0.63271
O_ O_ 0.452664 0.467445 0.65431 -0.57982
O_ O_ 0.0999525 0.396636 0.658909 -0.63271
O_ O_ 0.131743 0.405203 0.583522 -0.57982
O_ O_ 0.260828 0.108436 0.911214 -0.63271
O_ O_ 0.298729 0.159577 0.970934 -0.57982
O_ O_ 0.146206 0.159124 0.898794 -0.63271
O_ O_ 0.117755 0.0831337 0.907572 -0.57982
F_ F_ 0.438068 0.326411 0.93786 -0.20885
F_ F_ 0.431761 0.308114 0.855381 -0.20885
F_ F_ 0.368828 0.296516 0.900621 -0.20885
F_ F_ 0.312817 0.416977 0.816049 -0.20885
F_ F_ 0.33155 0.334796 0.811776 -0.20885
F_ F_ 0.388305 0.381741 0.791565 -0.20885
F_ F_ 0.0843139 0.162726 0.561089 -0.20885
F_ F_ 0.0804493 0.184775 0.643174 -0.20885
F_ F_ 0.147847 0.19994 0.60405 -0.20885
F_ F_ 0.194951 0.0647774 0.675952 -0.20885
F_ F_ 0.189784 0.14895 0.681749 -0.20885
F_ F_ 0.123481 0.108004 0.700152 -0.20885
Zn Zn 0.0863509 0.579782 0.350294 0.83971
Zn Zn 0.164474 0.852001 0.0895554 0.83971
Zn Zn 0.406931 0.919554 0.154412 0.83971
Zn Zn 0.344519 0.650735 0.416205 0.83971
H_ H_ 0.16282 0.631111 0.300049 0.10394
H_ H_ 0.242576 0.5977 0.263851 0.10394
H_ H_ 0.203059 0.947564 0.284385 0.10394
H_ H_ 0.143791 0.484212 0.339047 0.10394
H_ H_ 0.534851 0.598599 0.252684 0.10394
H_ H_ 0.48942 0.671836 0.205528 0.10394
H_ H_ 0.0107206 0.760628 0.346028 0.10394
H_ H_ 0.0701953 0.6893 0.380066 0.10394
H_ H_ 0.0297695 0.94822 0.380282 0.10394
H_ H_ 0.471185 0.881662 0.345331 0.10394
H_ H_ 0.353399 0.986311 0.405303 0.10394
H_ H_ 0.0815868 0.803184 0.139704 0.10394
H_ H_ 0.501688 0.75944 0.0979819 0.10394
H_ H_ 0.0427578 0.782143 0.444915 0.10394
H_ H_ 0.106259 0.834575 0.988833 0.10394
H_ H_ 0.213695 0.748777 0.0994192 0.10394
H_ H_ 0.256445 0.701981 0.170113 0.10394
H_ H_ 0.226517 0.828213 0.272112 0.10394
H_ H_ 0.172396 0.875439 0.203522 0.10394
H_ H_ 0.22031 0.855193 0.442065 0.10394
H_ H_ 0.268803 0.883097 0.377782 0.10394
H_ H_ 0.394978 0.906886 0.486731 0.10394
H_ H_ 0.307502 0.888861 0.171005 0.10394
H_ H_ 0.229516 0.939516 0.195946 0.10394
H_ H_ 0.338071 0.543798 0.282854 0.10394
H_ H_ 0.399822 -0.00214982 0.244264 0.10394
H_ H_ 0.0133121 0.860174 0.174736 0.10394
H_ H_ 0.050534 0.794004 0.232906 0.10394
H_ H_ 0.411822 0.748268 0.226639 0.10394
H_ H_ 0.372121 0.822941 0.182322 0.10394
H_ H_ 0.456664 0.547222 0.104985 0.10394
H_ H_ 0.0159634 0.613375 0.0816699 0.10394
H_ H_ 0.147204 0.504641 0.0945386 0.10394
H_ H_ 0.446659 0.660343 0.393751 0.10394
H_ H_ 0.022474 0.689347 0.447947 0.10394
H_ H_ 0.408773 0.783393 0.0337649 0.10394
H_ H_ 0.348801 0.729227 0.507456 0.10394
H_ H_ 0.242714 0.700885 0.387322 0.10394
H_ H_ 0.19947 0.739049 0.311821 0.10394
H_ H_ 0.3407 0.709279 0.239849 0.10394
H_ H_ 0.384801 0.688394 0.328613 0.10394
H_ H_ 0.286855 0.620711 0.0540747 0.10394
H_ H_ 0.234417 0.609812 0.117805 0.10394
H_ H_ 0.107924 0.583867 0.00535971 0.10394
C_ C_ 0.174877 0.591771 0.297816 0.18167
C_ C_ 0.220348 0.572301 0.277028 -0.15533
C_ C_ 0.240206 0.520095 0.27985 0.02923
C_ C_ 0.194756 0.989596 0.285609 -0.15533
C_ C_ 0.161402 0.509292 0.316072 0.18167
C_ C_ 0.0252018 0.628827 0.272305 0.18167
C_ C_ 0.509293 0.678276 0.241134 -0.15533
C_ C_ -0.003898999999999986 0.72079 0.271684 0.02923
C_ C_ 0.0173136 0.725842 0.322162 -0.15533
C_ C_ 0.0454036 0.683118 0.344846 0.18167
C_ C_ 0.00543724 0.542419 0.372317 0.69207
C_ C_ 0.468292 0.0080827 0.374617 0.02923
C_ C_ 0.489565 0.9569 0.364282 -0.15533
C_ C_ 0.460242 0.915914 0.369277 -0.15533
C_ C_ 0.409832 0.925412 0.383848 0.02923
C_ C_ 0.390344 0.977631 0.39305 -0.15533
C_ C_ 0.417062 0.0174333 0.384784 0.02923
C_ C_ 0.400732 0.566567 0.382404 0.69207
C_ C_ 0.403481 0.828506 0.387113 0.69661
C_ C_ 0.0751304 0.793704 0.0995211 0.18167
C_ C_ 0.0293836 0.773262 0.0811623 -0.15533
C_ C_ 0.019315 0.763929 0.0286951 0.02923
C_ C_ 0.0532194 0.781781 0.484373 -0.15533
C_ C_ 0.0868412 0.817367 0.0150482 0.18167
C_ C_ 0.220647 0.767703 0.137086 0.18167
C_ C_ 0.244006 0.740727 0.178056 -0.15533
C_ C_ 0.243588 0.761156 0.228804 0.02923
C_ C_ 0.221042 0.811046 0.234652 -0.15533
C_ C_ 0.192074 0.836732 0.195814 0.18167
C_ C_ 0.237338 0.866023 0.0470411 0.69207
C_ C_ 0.278633 0.872772 0.503216 0.02923
C_ C_ 0.260543 0.865756 0.451856 -0.15533
C_ C_ 0.287997 0.879355 0.413928 -0.15533
C_ C_ 0.337157 0.889342 0.422432 0.02923
C_ C_ 0.358085 0.895741 0.47595 -0.15533
C_ C_ 0.327515 0.888019 0.516264 0.02923
C_ C_ 0.349665 0.886924 0.0771348 0.69207
C_ C_ 0.348479 0.881453 0.325149 0.69661
C_ C_ 0.310516 0.924792 0.188498 0.18167
C_ C_ 0.266429 0.951073 0.208372 -0.15533
C_ C_ 0.271487 0.997405 0.237957 0.02923
C_ C_ 0.328673 0.516932 0.251532 -0.15533
C_ C_ 0.361301 0.98444 0.230422 0.18167
C_ C_ 0.492018 0.855261 0.201003 0.18167
C_ C_ 0.0079198 0.799291 0.222871 -0.15533
C_ C_ 0.488754 0.772598 0.232458 0.02923
C_ C_ 0.436682 0.77772 0.216605 -0.15533
C_ C_ 0.413596 0.81826 0.189227 0.18167
C_ C_ 0.484769 0.957437 0.121251 0.69207
C_ C_ 0.0237449 0.490746 0.114218 0.02923
C_ C_ 0.00449456 0.542412 0.106648 -0.15533
C_ C_ 0.0366365 0.57684 0.0960578 -0.15533
C_ C_ 0.0897269 0.565305 0.0972248 0.02923
C_ C_ 0.108496 0.513374 0.0970994 -0.15533
C_ C_ 0.0775087 0.477086 0.108573 0.02923
C_ C_ 0.0926174 0.930046 0.111455 0.69207
C_ C_ 0.101847 0.6597 0.110317 0.69661
C_ C_ 0.440396 0.685949 0.428808 0.18167
C_ C_ 0.480781 0.703765 0.457988 -0.15533
C_ C_ 0.473113 0.744413 0.495647 0.02923
C_ C_ 0.418076 0.753729 0.00701662 -0.15533
C_ C_ 0.383258 0.728741 0.487737 0.18167
C_ C_ 0.26479 0.706121 0.356827 0.18167
C_ C_ 0.240018 0.722957 0.310273 -0.15533
C_ C_ 0.268735 0.733047 0.271719 0.02923
C_ C_ 0.320919 0.712016 0.274759 -0.15533
C_ C_ 0.344083 0.693101 0.320369 0.18167
C_ C_ 0.263535 0.617901 0.449896 0.69207
C_ C_ 0.227129 0.616327 0.990125 0.02923
C_ C_ 0.246669 0.612273 0.040927 -0.15533
C_ C_ 0.214777 0.606268 0.0787534 -0.15533
C_ C_ 0.165489 0.596976 0.0665483 0.02923
C_ C_ 0.145697 0.597834 0.015737 -0.15533
C_ C_ 0.175664 0.605879 0.976281 0.02923
C_ C_ 0.152229 0.599631 0.427592 0.69207
C_ C_ 0.151281 0.597875 0.163494 0.69661
C_ C_ 0.374799 0.880753 0.380962 -0.30787
C_ C_ 0.12837 0.606422 0.108215 -0.30787
N_ N_ 0.143927 0.55925 0.315033 -0.32189
N_ N_ 0.0496359 0.636832 0.320192 -0.32189
N_ N_ 0.103127 0.817662 0.0670251 -0.32189
N_ N_ 0.19339 0.814972 0.147149 -0.32189
N_ N_ 0.355919 0.944085 0.196307 -0.32189
N_ N_ 0.441054 0.857399 0.184661 -0.32189
N_ N_ 0.392577 0.695224 0.445236 -0.32189
N_ N_ 0.315706 0.6881 0.357744 -0.32189
O_ O_ 0.508744 0.586114 0.40272 -0.63271
O_ O_ 0.0453497 0.532725 0.344124 -0.57982
O_ O_ 0.397316 0.591277 0.339553 -0.63271
O_ O_ 0.374346 0.585002 0.419389 -0.57982
O_ O_ 0.242901 0.890257 0.0918135 -0.63271
O_ O_ 0.196643 0.843975 0.0352369 -0.57982
O_ O_ 0.353223 0.846034 0.103096 -0.63271
O_ O_ 0.381123 0.922217 0.0901733 -0.57982
O_ O_ 0.981847 0.912224 0.0916476 -0.63271
O_ O_ 0.447562 0.967928 0.151211 -0.57982
O_ O_ 0.0844968 0.906565 0.153008 -0.63271
O_ O_ 0.135674 0.916623 0.0904488 -0.57982
O_ O_ 0.250297 0.601653 0.403689 -0.63271
O_ O_ 0.295337 0.651873 0.456859 -0.57982
O_ O_ 0.14954 0.64127 0.402925 -0.63271
O_ O_ 0.114207 0.572224 0.41485 -0.57982
F_ F_ 0.437255 0.825735 0.428798 -0.20885
F_ F_ 0.424739 0.811012 0.343094 -0.20885
F_ F_ 0.371188 0.787806 0.388413 -0.20885
F_ F_ 0.317138 0.926847 0.318352 -0.20885
F_ F_ 0.321919 0.840588 0.316276 -0.20885
F_ F_ 0.377814 0.875552 0.286064 -0.20885
F_ F_ 0.0749515 0.670757 0.0620048 -0.20885
F_ F_ 0.0695331 0.671453 0.146543 -0.20885
F_ F_ 0.133251 0.697845 0.120007 -0.20885
F_ F_ 0.182794 0.552785 0.170522 -0.20885
F_ F_ 0.181486 0.637673 0.180791 -0.20885
F_ F_ 0.116228 0.602017 0.198451 -0.20885
Zn Zn 0.0934515 0.585525 0.839027 0.83971
Zn Zn 0.161835 0.847129 0.580032 0.83971
Zn Zn 0.412771 0.914957 0.651402 0.83971
Zn Zn 0.334951 0.652728 0.907008 0.83971
H_ H_ 0.175779 0.624606 0.808682 0.10394
H_ H_ 0.258776 0.58643 0.780024 0.10394
H_ H_ 0.196706 0.941134 0.779348 0.10394
H_ H_ 0.119354 0.481548 0.798628 0.10394
H_ H_ 0.530842 0.590744 0.754284 0.10394
H_ H_ 0.489165 0.664283 0.70766 0.10394
H_ H_ 0.0219035 0.769941 0.840384 0.10394
H_ H_ 0.0541305 0.686985 0.880332 0.10394
H_ H_ 0.0244381 0.945813 0.845217 0.10394
H_ H_ 0.475619 0.873126 0.879601 0.10394
H_ H_ 0.353393 0.984684 0.905284 0.10394
H_ H_ 0.0838029 0.805776 0.630623 0.10394
H_ H_ 0.503364 0.764114 0.598163 0.10394
H_ H_ 0.0355844 0.787785 0.953377 0.10394
H_ H_ 0.119577 0.823684 0.481531 0.10394
H_ H_ 0.232293 0.765677 0.599407 0.10394
H_ H_ 0.258964 0.707377 0.668839 0.10394
H_ H_ 0.188805 0.818826 0.771961 0.10394
H_ H_ 0.17311 0.877265 0.6993 0.10394
H_ H_ 0.214337 0.868467 0.949957 0.10394
H_ H_ 0.265097 0.867562 0.879449 0.10394
H_ H_ 0.393045 0.899183 0.988481 0.10394
H_ H_ 0.313951 0.883356 0.665823 0.10394
H_ H_ 0.241277 0.922332 0.711325 0.10394
H_ H_ 0.334125 0.504977 0.797763 0.10394
H_ H_ 0.399869 0.00459985 0.720875 0.10394
H_ H_ 0.00265535 0.906092 0.726336 0.10394
H_ H_ 0.0499241 0.830152 0.763576 0.10394
H_ H_ 0.417681 0.743204 0.719919 0.10394
H_ H_ 0.376964 0.822795 0.690464 0.10394
H_ H_ 0.463884 0.554596 0.62116 0.10394
H_ H_ 0.0238322 0.62342 0.61354 0.10394
H_ H_ 0.147475 0.508205 0.591448 0.10394
H_ H_ 0.439597 0.658055 0.893244 0.10394
H_ H_ 0.016494 0.696288 0.94762 0.10394
H_ H_ 0.418891 0.783145 0.542642 0.10394
H_ H_ 0.34427 0.733323 -0.0007190000000000252 0.10394
H_ H_ 0.231212 0.683138 0.875694 0.10394
H_ H_ 0.185506 0.708778 0.795561 0.10394
H_ H_ 0.329548 0.721087 0.740566 0.10394
H_ H_ 0.37045 0.68851 0.818074 0.10394
H_ H_ 0.288003 0.633175 0.550926 0.10394
H_ H_ 0.239569 0.615631 0.619964 0.10394
H_ H_ 0.110007 0.58481 0.513158 0.10394
C_ C_ 0.179202 0.585554 0.793572 0.18167
C_ C_ 0.225506 0.56465 0.777877 -0.15533
C_ C_ 0.232999 0.515088 0.764957 0.02923
C_ C_ 0.193712 0.983536 0.780389 -0.15533
C_ C_ 0.151605 0.504271 0.794725 0.18167
C_ C_ 0.0366368 0.64469 0.763117 0.18167
C_ C_ 0.50878 0.67226 0.74513 -0.15533
C_ C_ 0.0148713 0.73577 0.765535 0.02923
C_ C_ 0.030959 0.736585 0.817847 -0.15533
C_ C_ 0.052517 0.691519 0.840808 0.18167
C_ C_ 0.0159169 0.5477 0.870137 0.69207
C_ C_ 0.471652 0.00392965 0.880259 0.02923
C_ C_ 0.491654 0.951535 0.877625 -0.15533
C_ C_ 0.461411 0.913575 0.886661 -0.15533
C_ C_ 0.410458 0.924243 0.896417 0.02923
C_ C_ 0.392374 0.976443 0.903448 -0.15533
C_ C_ 0.420473 0.016272 0.891304 0.02923
C_ C_ 0.396188 0.570119 0.872313 0.69207
C_ C_ 0.396076 0.826492 0.884515 0.69661
C_ C_ 0.0758295 0.798599 0.588618 0.18167
C_ C_ 0.0310574 0.776643 0.569703 -0.15533
C_ C_ 0.0219379 0.764845 0.517487 0.02923
C_ C_ 0.0477681 0.788399 0.995948 -0.15533
C_ C_ 0.0984396 0.804246 0.504538 0.18167
C_ C_ 0.221475 0.776406 0.635492 0.18167
C_ C_ 0.237592 0.742635 0.675769 -0.15533
C_ C_ 0.226897 0.75984 0.72464 0.02923
C_ C_ 0.201052 0.808483 0.733237 -0.15533
C_ C_ 0.186919 0.839142 0.69226 0.18167
C_ C_ 0.244643 0.862297 0.543422 0.69207
C_ C_ 0.275483 0.871583 0.00960381 0.02923
C_ C_ 0.255805 0.863662 0.957973 -0.15533
C_ C_ 0.284217 0.869537 0.917954 -0.15533
C_ C_ 0.335341 0.88615 0.928013 0.02923
C_ C_ 0.353414 0.89255 0.980062 -0.15533
C_ C_ 0.325215 0.885886 0.0219798 0.02923
C_ C_ 0.356254 0.882739 0.568245 0.69207
C_ C_ 0.34517 0.892899 0.830212 0.69661
C_ C_ 0.316846 0.918678 0.68836 0.18167
C_ C_ 0.275055 0.94147 0.714195 -0.15533
C_ C_ 0.277504 0.988757 0.742646 0.02923
C_ C_ 0.326096 0.491036 0.75814 -0.15533
C_ C_ 0.361956 0.989445 0.715067 0.18167
C_ C_ 0.497954 0.850929 0.701348 0.18167
C_ C_ 0.0124934 0.826862 0.744065 -0.15533
C_ C_ 0.490318 0.768533 0.73575 0.02923
C_ C_ 0.439791 0.774276 0.719977 -0.15533
C_ C_ 0.416605 0.817463 0.695841 0.18167
C_ C_ 0.488818 0.955004 0.620688 0.69207
C_ C_ 0.0290046 0.494918 0.623441 0.02923
C_ C_ 1.0106994 0.547622 0.623704 -0.15533
C_ C_ 0.0405347 0.585893 0.615406 -0.15533
C_ C_ 0.0931072 0.572034 0.606713 0.02923
C_ C_ 0.1102 0.518158 0.600756 -0.15533
C_ C_ 0.0788264 0.479995 0.611776 0.02923
C_ C_ 0.0974698 0.924833 0.609174 0.69207
C_ C_ 0.107657 0.667694 0.607086 0.69661
C_ C_ 0.432577 0.680563 0.926461 0.18167
C_ C_ 0.474282 0.698624 0.955147 -0.15533
C_ C_ 0.467296 0.735611 -0.0042320000000000135 0.02923
C_ C_ 0.424743 0.754587 0.511576 -0.15533
C_ C_ 0.379278 0.724113 0.983955 0.18167
C_ C_ 0.252523 0.697357 0.848207 0.18167
C_ C_ 0.224673 0.71052 0.80064 -0.15533
C_ C_ 0.25312 0.728342 0.765341 0.02923
C_ C_ 0.306155 0.715574 0.771439 -0.15533
C_ C_ 0.33049 0.694958 0.814658 0.18167
C_ C_ 0.258223 0.624197 0.949583 0.69207
C_ C_ 0.228803 0.609971 0.490765 0.02923
C_ C_ 0.249247 0.617618 0.542098 -0.15533
C_ C_ 0.220977 0.610853 0.582152 -0.15533
C_ C_ 0.168394 0.600365 0.572146 0.02923
C_ C_ 0.148902 0.593886 0.520992 -0.15533
C_ C_ 0.17662 0.600245 0.481374 0.02923
C_ C_ 0.150772 0.609134 0.921974 0.69207
C_ C_ 0.154899 0.608376 0.667844 0.69661
C_ C_ 0.372952 0.882704 0.885504 -0.30787
C_ C_ 0.130872 0.613283 0.612543 -0.30787
N_ N_ 0.14363 0.554774 0.799809 -0.32189
N_ N_ 0.0584058 0.645791 0.811904 -0.32189
N_ N_ 0.111272 0.806296 0.555742 -0.32189
N_ N_ 0.191976 0.819131 0.643087 -0.32189
N_ N_ 0.358846 0.945125 0.687995 -0.32189
N_ N_ 0.446309 0.855985 0.686055 -0.32189
N_ N_ 0.384862 0.692601 0.941145 -0.32189
N_ N_ 0.30265 0.681528 0.850248 -0.32189
O_ O_ 0.502276 0.58431 0.880325 -0.63271
O_ O_ 0.0447195 0.541769 0.832213 -0.57982
O_ O_ 0.394397 0.596348 0.830055 -0.63271
O_ O_ 0.363897 0.58493 0.905805 -0.57982
O_ O_ 0.252714 0.877963 0.591746 -0.63271
O_ O_ 0.202316 0.841071 0.530079 -0.57982
O_ O_ 0.358088 0.841773 0.591792 -0.63271
O_ O_ 0.38483 0.917357 0.586795 -0.57982
O_ O_ 0.996384 0.909144 0.615564 -0.63271
O_ O_ 0.451507 0.963295 0.650634 -0.57982
O_ O_ 0.0980784 0.899121 0.650935 -0.63271
O_ O_ 0.125397 0.909277 0.573829 -0.57982
O_ O_ 0.257906 0.592068 0.909816 -0.63271
O_ O_ 0.291596 0.657854 0.954664 -0.57982
O_ O_ 0.153857 0.649356 0.895585 -0.63271
O_ O_ 0.119125 0.575278 0.903444 -0.57982
F_ F_ 0.43181 0.818995 0.925322 -0.20885
F_ F_ 0.422848 0.808534 0.843238 -0.20885
F_ F_ 0.361889 0.792429 0.88623 -0.20885
F_ F_ 0.307718 0.935557 0.835467 -0.20885
F_ F_ 0.320283 0.852601 0.812384 -0.20885
F_ F_ 0.374568 0.902731 0.791441 -0.20885
F_ F_ 0.0847627 0.674863 0.557846 -0.20885
F_ F_ 0.0741049 0.689737 0.644114 -0.20885
F_ F_ 0.146408 0.699131 0.605678 -0.20885
F_ F_ 0.178298 0.562783 0.675177 -0.20885
F_ F_ 0.189226 0.64505 0.685197 -0.20885
F_ F_ 0.119268 0.622925 0.703559 -0.20885
Zn Zn 0.587178 0.0861047 0.351354 0.83971
Zn Zn 0.66809 0.34531 0.0872471 0.83971
Zn Zn 0.908439 0.416735 0.158534 0.83971
Zn Zn 0.833859 0.160028 0.419728 0.83971
H_ H_ 0.667138 0.134205 0.305992 0.10394
H_ H_ 0.745839 0.0965628 0.266709 0.10394
H_ H_ 0.693925 0.455176 0.26132 0.10394
H_ H_ 0.625006 0.986821 0.321301 0.10394
H_ H_ 0.0353619 0.0985557 0.253377 0.10394
H_ H_ 0.989186 0.175715 0.212175 0.10394
H_ H_ 0.544984 0.26912 0.326543 0.10394
H_ H_ 0.580821 0.197418 0.378271 0.10394
H_ H_ 0.541296 0.442223 0.388973 0.10394
H_ H_ 0.964884 0.376076 0.358214 0.10394
H_ H_ 0.847753 0.49566 0.404686 0.10394
H_ H_ 0.583404 0.300932 0.137961 0.10394
H_ H_ 0.993549 0.264528 0.0953934 0.10394
H_ H_ 0.545283 0.28521 0.435733 0.10394
H_ H_ 0.634257 0.308172 0.987823 0.10394
H_ H_ 0.731004 0.255796 0.0910509 0.10394
H_ H_ 0.75974 0.196136 0.16171 0.10394
H_ H_ 0.716561 0.316446 0.268939 0.10394
H_ H_ 0.677334 0.368703 0.202244 0.10394
H_ H_ 0.706892 0.397719 0.461337 0.10394
H_ H_ 0.751752 0.396266 0.384451 0.10394
H_ H_ 0.891684 0.411699 0.484218 0.10394
H_ H_ 0.799476 0.419153 0.138837 0.10394
H_ H_ 0.725493 0.462326 0.179548 0.10394
H_ H_ 0.834303 0.0480157 0.281068 0.10394
H_ H_ 0.898708 0.501968 0.239473 0.10394
H_ H_ 0.503459 0.389657 0.215838 0.10394
H_ H_ 0.552504 0.318561 0.248892 0.10394
H_ H_ 0.909209 0.257272 0.243367 0.10394
H_ H_ 0.872116 0.325829 0.191435 0.10394
H_ H_ 0.957284 0.0605895 0.125723 0.10394
H_ H_ 0.520892 0.121084 0.115414 0.10394
H_ H_ 0.639168 0.00611000000000006 0.083215 0.10394
H_ H_ 0.944082 0.156204 0.407279 0.10394
H_ H_ 0.51848 0.188842 0.43811 0.10394
H_ H_ 0.909578 0.285401 0.0330929 0.10394
H_ H_ 0.839005 0.235001 0.504048 0.10394
H_ H_ 0.729669 0.186526 0.379423 0.10394
H_ H_ 0.690698 0.225314 0.298323 0.10394
H_ H_ 0.843497 0.221861 0.250928 0.10394
H_ H_ 0.878873 0.19333 0.335794 0.10394
H_ H_ 0.788923 0.111369 0.047888 0.10394
H_ H_ 0.743169 0.0988264 0.118249 0.10394
H_ H_ 0.604381 0.0979721 0.0132791 0.10394
C_ C_ 0.677829 0.0926593 0.305178 0.18167
C_ C_ 0.723333 0.0717743 0.284697 -0.15533
C_ C_ 0.734219 0.0179599 0.282298 0.02923
C_ C_ 0.688132 0.495688 0.270729 -0.15533
C_ C_ 0.652452 0.0108314 0.30843 0.18167
C_ C_ 0.535816 0.13503 0.270366 0.18167
C_ C_ 0.0063307 0.181905 0.249289 -0.15533
C_ C_ 0.518321 0.227832 0.264344 0.02923
C_ C_ 0.538243 0.231662 0.313415 -0.15533
C_ C_ 0.556336 0.188458 0.343112 0.18167
C_ C_ 0.503 0.0491191 0.368134 0.69207
C_ C_ 0.969156 0.505093 0.37692 0.02923
C_ C_ 0.984472 0.452584 0.365024 -0.15533
C_ C_ 0.949691 0.415236 0.367729 -0.15533
C_ C_ 0.901229 0.430012 0.385129 0.02923
C_ C_ 0.886572 0.483223 0.394177 -0.15533
C_ C_ 0.918181 0.520906 0.387241 0.02923
C_ C_ 0.893058 0.0757976 0.38697 0.69207
C_ C_ 0.884462 0.332143 0.387231 0.69661
C_ C_ 0.577914 0.294689 0.0973675 0.18167
C_ C_ 0.531392 0.278052 0.0763459 -0.15533
C_ C_ 0.524613 0.26643 0.0237798 0.02923
C_ C_ 0.551748 0.286154 0.47697 -0.15533
C_ C_ 0.605588 0.29993 0.0145563 0.18167
C_ C_ 0.724226 0.267232 0.131826 0.18167
C_ C_ 0.746791 0.235244 0.170558 -0.15533
C_ C_ 0.745822 0.255908 0.220432 0.02923
C_ C_ 0.719708 0.305206 0.228654 -0.15533
C_ C_ 0.694835 0.331219 0.190358 0.18167
C_ C_ 0.749023 0.374632 0.0456787 0.69207
C_ C_ 0.773379 0.387616 0.512127 0.02923
C_ C_ 0.748433 0.395487 0.464252 -0.15533
C_ C_ 0.774786 0.399932 0.420611 -0.15533
C_ C_ 0.829547 0.401928 0.427027 0.02923
C_ C_ 0.852496 0.402545 0.477322 -0.15533
C_ C_ 0.826952 0.38946 0.518644 0.02923
C_ C_ 0.860297 0.387288 0.0722467 0.69207
C_ C_ 0.835122 0.394098 0.328678 0.69661
C_ C_ 0.804831 0.444946 0.171223 0.18167
C_ C_ 0.762545 0.472842 0.192703 -0.15533
C_ C_ 0.767145 0.509626 0.232667 0.02923
C_ C_ 0.823639 0.0162836 0.252684 -0.15533
C_ C_ 0.86022 0.490875 0.228989 0.18167
C_ C_ 0.992976 0.357748 0.210043 0.18167
C_ C_ 0.512871 0.314615 0.231457 -0.15533
C_ C_ 0.988422 0.277326 0.244205 0.02923
C_ C_ 0.934259 0.283393 0.232424 -0.15533
C_ C_ 0.913078 0.325577 0.205883 0.18167
C_ C_ 0.987591 0.452856 0.122814 0.69207
C_ C_ 0.522221 0.992197 0.115634 0.02923
C_ C_ 0.503394 0.0439771 0.111837 -0.15533
C_ C_ 0.537421 0.0826055 0.110788 -0.15533
C_ C_ 0.590663 0.0682878 0.106064 0.02923
C_ C_ 0.605397 0.0161674 0.100838 -0.15533
C_ C_ 0.574369 0.97788 0.107261 0.02923
C_ C_ 0.598323 0.421548 0.105602 0.69207
C_ C_ 0.610611 0.162312 0.118974 0.69661
C_ C_ 0.935557 0.183596 0.438282 0.18167
C_ C_ 0.9768 0.203526 0.467065 -0.15533
C_ C_ 0.967591 0.246547 0.501496 0.02923
C_ C_ 0.915447 0.257862 0.00426832 -0.15533
C_ C_ 0.877146 0.229722 0.491148 0.18167
C_ C_ 0.753178 0.194145 0.350273 0.18167
C_ C_ 0.733012 0.213361 0.304802 -0.15533
C_ C_ 0.764393 0.223035 0.267006 0.02923
C_ C_ 0.816971 0.214687 0.278396 -0.15533
C_ C_ 0.837884 0.197911 0.325462 0.18167
C_ C_ 0.758145 0.120006 0.458911 0.69207
C_ C_ 0.723229 0.116291 0.991988 0.02923
C_ C_ 0.74939 0.106314 0.0407601 -0.15533
C_ C_ 0.721454 0.100179 0.0821761 -0.15533
C_ C_ 0.668641 0.0967778 0.0737262 0.02923
C_ C_ 0.644991 0.100899 0.0217218 -0.15533
C_ C_ 0.671864 0.108812 0.981081 0.02923
C_ C_ 0.650097 0.101843 0.428324 0.69207
C_ C_ 0.658198 0.0945425 0.169513 0.69661
C_ C_ 0.864023 0.387895 0.383131 -0.30787
C_ C_ 0.630966 0.105518 0.116889 -0.30787
N_ N_ 0.64465 0.0607492 0.315392 -0.32189
N_ N_ 0.562577 0.141811 0.317448 -0.32189
N_ N_ 0.612759 0.306847 0.0665705 -0.32189
N_ N_ 0.700441 0.315656 0.140441 -0.32189
N_ N_ 0.852886 0.450889 0.192373 -0.32189
N_ N_ 0.943345 0.362165 0.195183 -0.32189
N_ N_ 0.887221 0.197592 0.449531 -0.32189
N_ N_ 0.805473 0.188186 0.359375 -0.32189
O_ O_ 0.00802445 0.0912055 0.404792 -0.63271
O_ O_ 0.535699 0.0436341 0.334025 -0.57982
O_ O_ 0.896473 0.100578 0.346206 -0.63271
O_ O_ 0.870218 0.0975318 0.425809 -0.57982
O_ O_ 0.735527 0.415559 0.0749899 -0.63271
O_ O_ 0.717768 0.339632 0.0414804 -0.57982
O_ O_ 0.854469 0.352237 0.102335 -0.63271
O_ O_ 0.883816 0.425841 0.0908135 -0.57982
O_ O_ 0.494402 0.397478 0.102152 -0.63271
O_ O_ 0.953972 0.46272 0.154914 -0.57982
O_ O_ 0.598303 0.395806 0.148677 -0.63271
O_ O_ 0.634049 0.407698 0.0760417 -0.57982
O_ O_ 0.757469 0.0904895 0.418132 -0.63271
O_ O_ 0.789636 0.156086 0.464788 -0.57982
O_ O_ 0.649892 0.144237 0.403516 -0.63271
O_ O_ 0.618182 0.0705934 0.411875 -0.57982
F_ F_ 0.927196 0.325672 0.421749 -0.20885
F_ F_ 0.902951 0.311509 0.341546 -0.20885
F_ F_ 0.846843 0.302044 0.395768 -0.20885
F_ F_ 0.808614 0.440626 0.31892 -0.20885
F_ F_ 0.799849 0.35784 0.316759 -0.20885
F_ F_ 0.868144 0.385651 0.294466 -0.20885
F_ F_ 0.575631 0.177009 0.0794039 -0.20885
F_ F_ 0.585507 0.179585 0.160174 -0.20885
F_ F_ 0.64793 0.193887 0.11757 -0.20885
F_ F_ 0.688626 0.0478881 0.174572 -0.20885
F_ F_ 0.691776 0.130502 0.186931 -0.20885
F_ F_ 0.622051 0.0971272 0.202624 -0.20885
Zn Zn 0.584958 0.0805908 0.848564 0.83971
Zn Zn 0.657541 0.344098 0.581391 0.83971
Zn Zn 0.909288 0.42144 0.653766 0.83971
Zn Zn 0.833376 0.156053 0.907116 0.83971
H_ H_ 0.654833 0.118721 0.798618 0.10394
H_ H_ 0.742068 0.0890801 0.773116 0.10394
H_ H_ 0.713177 0.448823 0.783252 0.10394
H_ H_ 0.635989 0.97094 0.837253 0.10394
H_ H_ 0.0410153 0.102187 0.743493 0.10394
H_ H_ 1.00744032 0.172977 0.694834 0.10394
H_ H_ 0.522344 0.263633 0.83623 0.10394
H_ H_ 0.556277 0.184601 0.876938 0.10394
H_ H_ 0.527146 0.442111 0.852177 0.10394
H_ H_ 0.991075 0.37848 0.885146 0.10394
H_ H_ 0.861456 0.48911 0.897759 0.10394
H_ H_ 0.572736 0.309787 0.621867 0.10394
H_ H_ 0.00804999999999989 0.255389 0.602617 0.10394
H_ H_ 0.552546 0.277704 0.951046 0.10394
H_ H_ 0.623452 0.316352 0.475723 0.10394
H_ H_ 0.731001 0.249191 0.586634 0.10394
H_ H_ 0.771593 0.202665 0.658973 0.10394
H_ H_ 0.706984 0.320724 0.763455 0.10394
H_ H_ 0.669568 0.367288 0.68884 0.10394
H_ H_ 0.733414 0.349729 0.945614 0.10394
H_ H_ 0.782974 0.360456 0.876612 0.10394
H_ H_ 0.901554 0.41427 0.990889 0.10394
H_ H_ 0.814351 0.397731 0.662051 0.10394
H_ H_ 0.736176 0.444232 0.705033 0.10394
H_ H_ 0.831461 0.0376235 0.793036 0.10394
H_ H_ 0.904015 0.511255 0.724912 0.10394
H_ H_ 0.516569 0.377562 0.697344 0.10394
H_ H_ 0.550142 0.306258 0.744163 0.10394
H_ H_ 0.914971 0.253241 0.731911 0.10394
H_ H_ 0.876226 0.320073 0.684519 0.10394
H_ H_ 0.966997 0.0574644 0.616387 0.10394
H_ H_ 0.511608 0.125897 0.614628 0.10394
H_ H_ 0.639796 0.0188637 0.591062 0.10394
H_ H_ 0.941048 0.156718 0.897262 0.10394
H_ H_ 0.518138 0.191177 0.952228 0.10394
H_ H_ 0.904021 0.295608 0.532015 0.10394
H_ H_ 0.836285 0.238662 -0.007588000000000039 0.10394
H_ H_ 0.729418 0.175975 0.866304 0.10394
H_ H_ 0.692083 0.212985 0.783399 0.10394
H_ H_ 0.841676 0.226524 0.744289 0.10394
H_ H_ 0.87538 0.191006 0.826913 0.10394
H_ H_ 0.781011 0.128717 0.557202 0.10394
H_ H_ 0.721796 0.134409 0.622473 0.10394
H_ H_ 0.600151 0.0971939 0.511254 0.10394
C_ C_ 0.667912 0.0800877 0.797857 0.18167
C_ C_ 0.713563 0.0632165 0.777675 -0.15533
C_ C_ 0.73048 0.0116823 0.776027 0.02923
C_ C_ 0.705602 0.489943 0.790912 -0.15533
C_ C_ 0.660135 -0.00246965 0.825555 0.18167
C_ C_ 0.520431 0.129415 0.768351 0.18167
C_ C_ 0.0224295 0.180346 0.734356 -0.15533
C_ C_ 0.505529 0.218946 0.760233 0.02923
C_ C_ 0.526294 0.225805 0.813071 -0.15533
C_ C_ 0.546831 0.182412 0.837566 0.18167
C_ C_ 0.502272 0.0454516 0.872272 0.69207
C_ C_ 0.98088 0.507124 0.878109 0.02923
C_ C_ 1.00123896 0.45704 0.881912 -0.15533
C_ C_ 0.973514 0.416213 0.887628 -0.15533
C_ C_ 0.921457 0.425278 0.892272 0.02923
C_ C_ 0.900564 0.475772 0.89208 -0.15533
C_ C_ 0.927649 0.517921 0.884975 0.02923
C_ C_ 0.894285 0.0740677 0.889369 0.69207
C_ C_ 0.914546 0.327245 0.885115 0.69661
C_ C_ 0.567778 0.299991 0.581267 0.18167
C_ C_ 0.523313 0.279854 0.561323 -0.15533
C_ C_ 0.517676 0.271278 0.508984 0.02923
C_ C_ 0.5618 0.278001 0.99201 -0.15533
C_ C_ 0.596398 0.305071 0.499189 0.18167
C_ C_ 0.728821 0.267037 0.624305 0.18167
C_ C_ 0.749858 0.238372 0.66613 -0.15533
C_ C_ 0.740531 0.256243 0.715078 0.02923
C_ C_ 0.714016 0.304238 0.723553 -0.15533
C_ C_ 0.689994 0.329904 0.681771 0.18167
C_ C_ 0.743216 0.370659 0.55139 0.69207
C_ C_ 0.78471 0.377872 1.00616749 0.02923
C_ C_ 0.769615 0.363934 0.95345 -0.15533
C_ C_ 0.801042 0.369443 0.91465 -0.15533
C_ C_ 0.850175 0.38633 0.927486 0.02923
C_ C_ 0.867232 0.395602 0.979648 -0.15533
C_ C_ 0.836218 0.387175 0.0178987 0.02923
C_ C_ 0.855311 0.389078 0.571208 0.69207
C_ C_ 0.861906 0.388 0.829253 0.69661
C_ C_ 0.813819 0.431853 0.68805 0.18167
C_ C_ 0.769692 0.462307 0.705697 -0.15533
C_ C_ 0.777649 0.505165 0.738185 0.02923
C_ C_ 0.823145 0.014961 0.759853 -0.15533
C_ C_ 0.867119 0.497493 0.720505 0.18167
C_ C_ 0.993386 0.356417 0.691405 0.18167
C_ C_ 0.513136 0.30578 0.725717 -0.15533
C_ C_ 0.995009 0.275541 0.731043 0.02923
C_ C_ 0.9405 0.276853 0.715442 -0.15533
C_ C_ 0.915658 0.320721 0.694812 0.18167
C_ C_ 0.99233 0.457108 0.623145 0.69207
C_ C_ 0.521746 0.994809 0.613275 0.02923
C_ C_ 0.498985 0.0466818 0.614129 -0.15533
C_ C_ 0.527714 0.0863877 0.609329 -0.15533
C_ C_ 0.579896 0.0751306 0.605192 0.02923
C_ C_ 0.598461 0.0257603 0.592911 -0.15533
C_ C_ 0.573674 0.983618 0.603292 0.02923
C_ C_ 0.599247 0.423545 0.602694 0.69207
C_ C_ 0.593975 0.173128 0.608164 0.69661
C_ C_ 0.932778 0.181283 0.931237 0.18167
C_ C_ 0.971927 0.202842 0.95887 -0.15533
C_ C_ 0.965918 0.239531 -0.0043800000000000505 0.02923
C_ C_ 0.915847 0.260525 0.515143 -0.15533
C_ C_ 0.87425 0.234772 0.978302 0.18167
C_ C_ 0.753228 0.190768 0.840247 0.18167
C_ C_ 0.731592 0.209197 0.792145 -0.15533
C_ C_ 0.763227 0.226761 0.760073 0.02923
C_ C_ 0.815703 0.221841 0.771946 -0.15533
C_ C_ 0.835987 0.204399 0.819751 0.18167
C_ C_ 0.755191 0.118608 0.950886 0.69207
C_ C_ 0.721678 0.116487 0.495922 0.02923
C_ C_ 0.741637 0.11648 0.546621 -0.15533
C_ C_ 0.709495 0.118325 0.584815 -0.15533
C_ C_ 0.658097 0.108317 0.573456 0.02923
C_ C_ 0.640373 0.0997373 0.522233 -0.15533
C_ C_ 0.67161 0.103424 0.48309 0.02923
C_ C_ 0.64496 0.114071 0.929923 0.69207
C_ C_ 0.643211 0.112414 0.668022 0.69661
C_ C_ 0.886597 0.383109 0.884182 -0.30787
C_ C_ 0.618072 0.116707 0.611492 -0.30787
N_ N_ 0.64281 0.0482382 0.820411 -0.32189
N_ N_ 0.54819 0.135714 0.812846 -0.32189
N_ N_ 0.606558 0.304961 0.552001 -0.32189
N_ N_ 0.694345 0.308621 0.633311 -0.32189
N_ N_ 0.858977 0.453289 0.693287 -0.32189
N_ N_ 0.941706 0.359829 0.684386 -0.32189
N_ N_ 0.883945 0.196341 0.941238 -0.32189
N_ N_ 0.804222 0.190709 0.852886 -0.32189
O_ O_ 0.0053626 0.0874589 0.905992 -0.63271
O_ O_ 0.541797 0.0325242 0.845546 -0.57982
O_ O_ 0.894564 0.0983101 0.847872 -0.63271
O_ O_ 0.862677 0.092431 0.920295 -0.57982
O_ O_ 0.742885 0.39559 0.596938 -0.63271
O_ O_ 0.70711 0.340081 0.535164 -0.57982
O_ O_ 0.858134 0.34955 0.599399 -0.63271
O_ O_ 0.880699 0.428352 0.588958 -0.57982
O_ O_ 0.486947 0.408549 0.59914 -0.63271
O_ O_ 0.958224 0.465075 0.656618 -0.57982
O_ O_ 0.596665 0.396634 0.641935 -0.63271
O_ O_ 0.628594 0.405515 0.567685 -0.57982
O_ O_ 0.755429 0.0840823 0.912649 -0.63271
O_ O_ 0.780732 0.158282 0.948795 -0.57982
O_ O_ 0.654274 0.153227 0.903712 -0.63271
O_ O_ 0.6075 0.0881849 0.914791 -0.57982
F_ F_ 0.94918 0.321857 0.928292 -0.20885
F_ F_ 0.941482 0.315381 0.843906 -0.20885
F_ F_ 0.883204 0.288265 0.884929 -0.20885
F_ F_ 0.827073 0.431981 0.824562 -0.20885
F_ F_ 0.836652 0.345802 0.806468 -0.20885
F_ F_ 0.902424 0.392605 0.799489 -0.20885
F_ F_ 0.56168 0.180168 0.563268 -0.20885
F_ F_ 0.567782 0.191619 0.647809 -0.20885
F_ F_ 0.632753 0.209035 0.610796 -0.20885
F_ F_ 0.673724 0.065489 0.676587 -0.20885
F_ F_ 0.671323 0.152074 0.691004 -0.20885
F_ F_ 0.604183 0.113208 0.699748 -0.20885
Zn Zn 0.586108 0.587261 0.348642 0.83971
Zn Zn 0.652494 0.849838 0.0796845 0.83971
Zn Zn 0.908574 0.914463 0.161259 0.83971
Zn Zn 0.841178 0.658136 0.409873 0.83971
H_ H_ 0.664691 0.637501 0.307625 0.10394
H_ H_ 0.741163 0.60503 0.2687 0.10394
H_ H_ 0.70267 0.947899 0.284792 0.10394
H_ H_ 0.620209 0.488492 0.304699 0.10394
H_ H_ 0.037938 0.596 0.25232 0.10394
H_ H_ 0.984313 0.665536 0.207426 0.10394
H_ H_ 0.526385 0.774664 0.332341 0.10394
H_ H_ 0.557319 0.697451 0.386416 0.10394
H_ H_ 0.530726 0.949329 0.363167 0.10394
H_ H_ 0.971773 0.883274 0.392966 0.10394
H_ H_ 0.847144 0.996634 0.400252 0.10394
H_ H_ 0.573908 0.808056 0.129415 0.10394
H_ H_ 1.00841884 0.752896 0.104319 0.10394
H_ H_ 0.54489 0.782907 0.445726 0.10394
H_ H_ 0.611561 0.8168 0.979079 0.10394
H_ H_ 0.699806 0.755721 0.0952883 0.10394
H_ H_ 0.733084 0.706647 0.170062 0.10394
H_ H_ 0.720704 0.838927 0.268851 0.10394
H_ H_ 0.673573 0.885004 0.194606 0.10394
H_ H_ 0.716608 0.867754 0.455849 0.10394
H_ H_ 0.756762 0.889852 0.383403 0.10394
H_ H_ 0.893979 0.912892 0.492242 0.10394
H_ H_ 0.800408 0.896842 0.171093 0.10394
H_ H_ 0.732582 0.943525 0.203521 0.10394
H_ H_ 0.824118 0.547236 0.280127 0.10394
H_ H_ 0.898486 1.00965211 0.225159 0.10394
H_ H_ 0.509817 0.890352 0.205678 0.10394
H_ H_ 0.557161 0.817566 0.240527 0.10394
H_ H_ 0.898084 0.75121 0.244653 0.10394
H_ H_ 0.863912 0.82634 0.191757 0.10394
H_ H_ 0.964495 0.555106 0.107648 0.10394
H_ H_ 0.508308 0.613796 0.0914075 0.10394
H_ H_ 0.638538 0.505029 0.0796756 0.10394
H_ H_ 0.948527 0.659486 0.391839 0.10394
H_ H_ 0.517989 0.683999 0.459162 0.10394
H_ H_ 0.919895 0.778403 0.0475166 0.10394
H_ H_ 0.848735 0.732497 0.495799 0.10394
H_ H_ 0.759145 0.732518 0.394 0.10394
H_ H_ 0.706304 0.770646 0.321506 0.10394
H_ H_ 0.822944 0.701016 0.225642 0.10394
H_ H_ 0.872876 0.670882 0.30258 0.10394
H_ H_ 0.775188 0.644042 0.0553689 0.10394
H_ H_ 0.71751 0.634629 0.119711 0.10394
H_ H_ 0.602924 0.599451 -0.00269551 0.10394
C_ C_ 0.670002 0.598672 0.297998 0.18167
C_ C_ 0.711764 0.581303 0.273901 -0.15533
C_ C_ 0.722934 0.527637 0.260234 0.02923
C_ C_ 0.697768 0.988834 0.295135 -0.15533
C_ C_ 0.647099 0.515595 0.297137 0.18167
C_ C_ 0.530936 0.636872 0.271188 0.18167
C_ C_ 2.6599e-05 0.67047 0.245916 -0.15533
C_ C_ 0.512918 0.729365 0.26386 0.02923
C_ C_ 0.531636 0.735997 0.315271 -0.15533
C_ C_ 0.548709 0.69287 0.343976 0.18167
C_ C_ 0.509654 0.544506 0.373831 0.69207
C_ C_ 0.97116 0.0114673 0.386045 0.02923
C_ C_ -0.011342999999999992 0.959047 0.380694 -0.15533
C_ C_ 0.956683 0.922784 0.391575 -0.15533
C_ C_ 0.904099 0.935005 0.394284 0.02923
C_ C_ 0.886318 0.986599 0.396959 -0.15533
C_ C_ 0.918211 0.0248613 0.389898 0.02923
C_ C_ 0.897272 0.574232 0.384525 0.69207
C_ C_ 0.891441 0.838499 0.39936 0.69661
C_ C_ 0.565088 0.800179 0.0903275 0.18167
C_ C_ 0.524022 0.774572 0.0713647 -0.15533
C_ C_ 0.513081 0.76317 0.0186957 0.02923
C_ C_ 0.549912 0.790377 0.486262 -0.15533
C_ C_ 0.588437 0.803505 0.00577478 0.18167
C_ C_ 0.705863 0.774217 0.133262 0.18167
C_ C_ 0.726883 0.745743 0.174478 -0.15533
C_ C_ 0.736006 0.768517 0.224166 0.02923
C_ C_ 0.712021 0.818539 0.231706 -0.15533
C_ C_ 0.686303 0.844733 0.190348 0.18167
C_ C_ 0.736445 0.869991 0.047873 0.69207
C_ C_ 0.772305 0.889359 0.514225 0.02923
C_ C_ 0.749132 0.887375 0.464066 -0.15533
C_ C_ 0.777372 0.892493 0.42436 -0.15533
C_ C_ 0.828697 0.904079 0.433341 0.02923
C_ C_ 0.851292 0.912453 0.485272 -0.15533
C_ C_ 0.823302 0.898865 0.525798 0.02923
C_ C_ 0.848587 0.893134 0.079653 0.69207
C_ C_ 0.841737 0.894406 0.337784 0.69661
C_ C_ 0.808852 0.932428 0.189687 0.18167
C_ C_ 0.769832 0.95733 0.214966 -0.15533
C_ C_ 0.777525 0.997373 0.249552 0.02923
C_ C_ 0.817677 0.519264 0.249041 -0.15533
C_ C_ 0.8617 0.99299 0.22332 0.18167
C_ C_ 0.987763 0.841415 0.195341 0.18167
C_ C_ 0.518301 0.812664 0.222221 -0.15533
C_ C_ 0.974923 0.767194 0.242673 0.02923
C_ C_ 0.923151 0.774457 0.227655 -0.15533
C_ C_ 0.904415 0.81705 0.200933 0.18167
C_ C_ 0.97959 0.956843 0.117922 0.69207
C_ C_ 0.520699 0.485829 0.107271 0.02923
C_ C_ 0.498053 0.536359 0.0983045 -0.15533
C_ C_ 0.528026 0.576254 0.0888475 -0.15533
C_ C_ 0.580702 0.5659 0.0872099 0.02923
C_ C_ 0.601492 0.514035 0.0901558 -0.15533
C_ C_ 0.572471 0.474573 0.100652 0.02923
C_ C_ 0.596714 0.925096 0.104059 0.69207
C_ C_ 0.588233 0.664399 0.102309 0.69661
C_ C_ 0.942687 0.687983 0.421881 0.18167
C_ C_ 0.984639 0.702256 0.454413 -0.15533
C_ C_ 0.978276 0.737416 0.496089 0.02923
C_ C_ 0.927651 0.743991 1.0224583 -0.15533
C_ C_ 0.885973 0.729549 0.481299 0.18167
C_ C_ 0.767597 0.719388 0.358027 0.18167
C_ C_ 0.739109 0.744311 0.315706 -0.15533
C_ C_ 0.760642 0.738231 0.267544 0.02923
C_ C_ 0.806695 0.707141 0.262747 -0.15533
C_ C_ 0.834453 0.69031 0.306038 0.18167
C_ C_ 0.760934 0.631007 0.446833 0.69207
C_ C_ 0.722711 0.622465 0.989114 0.02923
C_ C_ 0.737177 0.632668 0.0409763 -0.15533
C_ C_ 0.70439 0.62922 0.0776739 -0.15533
C_ C_ 0.656676 0.610625 0.0651091 0.02923
C_ C_ 0.642262 0.600362 0.011099 -0.15533
C_ C_ 0.674573 0.606327 0.973595 0.02923
C_ C_ 0.650147 0.607572 0.422315 0.69207
C_ C_ 0.637309 0.602805 0.15903 0.69661
C_ C_ 0.865937 0.894315 0.392924 -0.30787
C_ C_ 0.615756 0.610402 0.103052 -0.30787
N_ N_ 0.635893 0.566456 0.305171 -0.32189
N_ N_ 0.551033 0.646055 0.319856 -0.32189
N_ N_ 0.595658 0.814787 0.0553294 -0.32189
N_ N_ 0.6808 0.819297 0.142591 -0.32189
N_ N_ 0.855611 0.946168 0.198772 -0.32189
N_ N_ 0.936349 0.847553 0.183906 -0.32189
N_ N_ 0.893761 0.698063 0.438144 -0.32189
N_ N_ 0.811681 0.690666 0.351965 -0.32189
O_ O_ 0.00561584 0.584267 0.404249 -0.63271
O_ O_ 0.544348 0.535226 0.342474 -0.57982
O_ O_ 0.897322 0.597538 0.344164 -0.63271
O_ O_ 0.867036 0.592246 0.419462 -0.57982
O_ O_ 0.739914 0.892296 0.0921634 -0.63271
O_ O_ 0.702253 0.83794 0.0359846 -0.57982
O_ O_ 0.856756 0.849195 0.101999 -0.63271
O_ O_ 0.872045 0.930843 0.101011 -0.57982
O_ O_ 0.490795 0.912176 0.0982686 -0.63271
O_ O_ 0.952349 0.962327 0.157224 -0.57982
O_ O_ 0.600008 0.897735 0.144549 -0.63271
O_ O_ 0.626252 0.909627 0.0684861 -0.57982
O_ O_ 0.752958 0.61031 0.400982 -0.63271
O_ O_ 0.791121 0.666085 0.454821 -0.57982
O_ O_ 0.643935 0.650582 0.397957 -0.63271
O_ O_ 0.619125 0.573318 0.40756 -0.57982
F_ F_ 0.921035 0.834991 0.444512 -0.20885
F_ F_ 0.917889 0.818777 0.359916 -0.20885
F_ F_ 0.854912 0.804918 0.40312 -0.20885
F_ F_ 0.807511 0.937382 0.331503 -0.20885
F_ F_ 0.817117 0.850339 0.323016 -0.20885
F_ F_ 0.877347 0.898551 0.302812 -0.20885
F_ F_ 0.558246 0.668191 0.0551334 -0.20885
F_ F_ 0.554928 0.675834 0.138456 -0.20885
F_ F_ 0.62112 0.70315 0.109976 -0.20885
F_ F_ 0.676355 0.563523 0.165245 -0.20885
F_ F_ 0.653937 0.646504 0.183461 -0.20885
F_ F_ 0.60103 0.593146 0.190603 -0.20885
Zn Zn 0.584969 0.57841 0.844446 0.83971
Zn Zn 0.661733 0.846719 0.591434 0.83971
Zn Zn 0.910727 0.926013 0.662601 0.83971
Zn Zn 0.843908 0.652821 0.918038 0.83971
H_ H_ 0.658632 0.633983 0.795554 0.10394
H_ H_ 0.741189 0.604299 0.759312 0.10394
H_ H_ 0.710379 0.937715 0.79415 0.10394
H_ H_ 0.643651 0.48424 0.832481 0.10394
H_ H_ 0.0404487 0.608724 0.740015 0.10394
H_ H_ 0.9938938 0.685592 0.698831 0.10394
H_ H_ 0.536383 0.766988 0.834409 0.10394
H_ H_ 0.564783 0.688027 0.883299 0.10394
H_ H_ 0.533265 0.94538 0.872148 0.10394
H_ H_ 0.978961 0.877929 0.866094 0.10394
H_ H_ 0.858401 0.993744 0.919172 0.10394
H_ H_ 0.576709 0.813564 0.634135 0.10394
H_ H_ 0.00675213 0.764932 0.595379 0.10394
H_ H_ 0.533229 0.777733 0.946268 0.10394
H_ H_ 0.62412 0.819812 0.486811 0.10394
H_ H_ 0.725309 0.764293 0.603643 0.10394
H_ H_ 0.776761 0.720363 0.675192 0.10394
H_ H_ 0.717744 0.83815 0.778054 0.10394
H_ H_ 0.673205 0.880941 0.701368 0.10394
H_ H_ 0.73101 0.84494 0.946483 0.10394
H_ H_ 0.774097 0.874598 0.882681 0.10394
H_ H_ 0.892507 0.913041 0.99864 0.10394
H_ H_ 0.816977 0.895136 0.668682 0.10394
H_ H_ 0.734879 0.93467 0.700043 0.10394
H_ H_ 0.833145 0.557778 0.76967 0.10394
H_ H_ 0.899304 1.0138436 0.737744 0.10394
H_ H_ 0.520924 0.882655 0.693131 0.10394
H_ H_ 0.558448 0.807956 0.746062 0.10394
H_ H_ 0.916288 0.753948 0.723306 0.10394
H_ H_ 0.874989 0.823271 0.680654 0.10394
H_ H_ 0.968336 0.558964 0.622265 0.10394
H_ H_ 0.520363 0.618208 0.605274 0.10394
H_ H_ 0.648203 0.504484 0.600806 0.10394
H_ H_ 0.943228 0.659069 0.897429 0.10394
H_ H_ 0.510133 0.678065 0.946849 0.10394
H_ H_ 0.922119 0.770325 0.54703 0.10394
H_ H_ 0.848881 0.727961 1.0050935 0.10394
H_ H_ 0.742316 0.69277 0.884829 0.10394
H_ H_ 0.700679 0.736659 0.811983 0.10394
H_ H_ 0.850476 0.739664 0.75869 0.10394
H_ H_ 0.887288 0.698238 0.834172 0.10394
H_ H_ 0.784404 0.633369 0.547562 0.10394
H_ H_ 0.742304 0.606712 0.61211 0.10394
H_ H_ 0.61779 0.567781 0.507229 0.10394
C_ C_ 0.673099 0.594506 0.793221 0.18167
C_ C_ 0.722033 0.577973 0.777286 -0.15533
C_ C_ 0.736373 0.52403 0.772697 0.02923
C_ C_ 0.704582 0.977939 0.801344 -0.15533
C_ C_ 0.662301 0.51084 0.814886 0.18167
C_ C_ 0.529484 0.630137 0.772555 0.18167
C_ C_ 0.0172514 0.68835 0.737732 -0.15533
C_ C_ 0.509934 0.723372 0.766709 0.02923
C_ C_ 0.531536 0.728689 0.81635 -0.15533
C_ C_ 0.547202 0.685064 0.844482 0.18167
C_ C_ 0.503524 0.542661 0.850362 0.69207
C_ C_ 0.972668 0.00823326 0.879389 0.02923
C_ C_ -0.011507000000000045 0.956878 0.864444 -0.15533
C_ C_ 0.958048 0.919325 0.874018 -0.15533
C_ C_ 0.912668 0.929893 0.897151 0.02923
C_ C_ 0.895644 0.982927 0.907517 -0.15533
C_ C_ 0.922204 0.0206529 0.893915 0.02923
C_ C_ 0.901427 0.571167 0.883891 0.69207
C_ C_ 0.900359 0.834197 0.892157 0.69661
C_ C_ 0.57214 0.80019 0.592854 0.18167
C_ C_ 0.52708 0.778997 0.572429 -0.15533
C_ C_ 0.515234 0.774202 0.518787 0.02923
C_ C_ 0.541701 0.785301 0.986415 -0.15533
C_ C_ 0.595283 0.809416 0.510747 0.18167
C_ C_ 0.720559 0.776917 0.642453 0.18167
C_ C_ 0.748181 0.750937 0.681645 -0.15533
C_ C_ 0.748528 0.77263 0.732707 0.02923
C_ C_ 0.720464 0.821249 0.741265 -0.15533
C_ C_ 0.689188 0.843421 0.70118 0.18167
C_ C_ 0.740873 0.877125 0.555741 0.69207
C_ C_ 0.778814 0.871037 1.0122059 0.02923
C_ C_ 0.765017 0.861014 0.958839 -0.15533
C_ C_ 0.787208 0.882909 0.923182 -0.15533
C_ C_ 0.835518 0.900679 0.934963 0.02923
C_ C_ 0.854122 0.90758 0.988271 -0.15533
C_ C_ 0.824673 0.89402 0.0261622 0.02923
C_ C_ 0.8495 0.890938 0.578515 0.69207
C_ C_ 0.849493 0.891463 0.837019 0.69661
C_ C_ 0.815191 0.930063 0.690883 0.18167
C_ C_ 0.772914 0.950036 0.713463 -0.15533
C_ C_ 0.776245 -0.008719000000000032 0.750752 0.02923
C_ C_ 0.826743 0.522664 0.745804 -0.15533
C_ C_ 0.863222 0.995344 0.730561 0.18167
C_ C_ 0.985822 0.870467 0.721635 0.18167
C_ C_ 0.52133 0.806711 0.725899 -0.15533
C_ C_ 0.991085 0.780992 0.739782 0.02923
C_ C_ 0.941202 0.781224 0.716615 -0.15533
C_ C_ 0.917384 0.822467 0.69229 0.18167
C_ C_ 0.991291 0.958691 0.630377 0.69207
C_ C_ 0.522316 0.491314 0.609846 0.02923
C_ C_ 0.502437 0.542874 0.608747 -0.15533
C_ C_ 0.535481 0.580188 0.606908 -0.15533
C_ C_ 0.588677 0.567673 0.600997 0.02923
C_ C_ 0.607367 0.515225 0.599674 -0.15533
C_ C_ 0.575987 0.477158 0.603426 0.02923
C_ C_ 0.597833 0.932285 0.611055 0.69207
C_ C_ 0.605987 0.665947 0.605729 0.69661
C_ C_ 0.938944 0.6842 0.932612 0.18167
C_ C_ 0.981392 0.704345 0.960674 -0.15533
C_ C_ 0.976946 0.734839 1.00711408 0.02923
C_ C_ 0.928784 0.746365 0.511407 -0.15533
C_ C_ 0.886033 0.721768 0.993845 0.18167
C_ C_ 0.762839 0.702362 0.853605 0.18167
C_ C_ 0.741484 0.731012 0.814575 -0.15533
C_ C_ 0.770708 0.745975 0.778534 0.02923
C_ C_ 0.823864 0.733821 0.786266 -0.15533
C_ C_ 0.845558 0.704639 0.827108 0.18167
C_ C_ 0.762545 0.624526 0.951911 0.69207
C_ C_ 0.724609 0.62334 0.487132 0.02923
C_ C_ 0.745539 0.622382 0.538491 -0.15533
C_ C_ 0.719404 0.610965 0.578048 -0.15533
C_ C_ 0.66814 0.601647 0.568043 0.02923
C_ C_ 0.651832 0.590138 0.515969 -0.15533
C_ C_ 0.677123 0.605261 0.475228 0.02923
C_ C_ 0.652224 0.604782 0.918979 0.69207
C_ C_ 0.650659 0.604581 0.666036 0.69661
C_ C_ 0.874265 0.889551 0.893829 -0.30787
C_ C_ 0.628443 0.608758 0.610685 -0.30787
N_ N_ 0.643434 0.560496 0.80727 -0.32189
N_ N_ 0.55266 0.637677 0.820265 -0.32189
N_ N_ 0.606159 0.812698 0.562399 -0.32189
N_ N_ 0.692564 0.821446 0.653339 -0.32189
N_ N_ 0.858782 0.952761 0.699645 -0.32189
N_ N_ 0.940765 0.865933 0.691915 -0.32189
N_ N_ 0.894007 0.693943 0.948556 -0.32189
N_ N_ 0.814585 0.686272 0.858136 -0.32189
O_ O_ 1.0152297 0.590593 0.902542 -0.63271
O_ O_ 0.547139 0.5281 0.830697 -0.57982
O_ O_ 0.897523 0.594414 0.84131 -0.63271
O_ O_ 0.873189 0.589371 0.918749 -0.57982
O_ O_ 0.750953 0.893227 0.602108 -0.63271
O_ O_ 0.706333 0.843233 0.545946 -0.57982
O_ O_ 0.860141 0.844406 0.594828 -0.63271
O_ O_ 0.873656 0.927961 0.599842 -0.57982
O_ O_ 0.495195 0.911699 0.5956 -0.63271
O_ O_ 0.956055 0.974348 0.660743 -0.57982
O_ O_ 0.595114 0.912974 0.65708 -0.63271
O_ O_ 0.635451 0.913034 0.583132 -0.57982
O_ O_ 0.759164 0.599446 0.906578 -0.63271
O_ O_ 0.797076 0.656612 0.962362 -0.57982
O_ O_ 0.651247 0.644488 0.892681 -0.63271
O_ O_ 0.622499 0.57104 0.903417 -0.57982
F_ F_ 0.940075 0.824649 0.931645 -0.20885
F_ F_ 0.921668 0.812809 0.849473 -0.20885
F_ F_ 0.865873 0.801133 0.90234 -0.20885
F_ F_ 0.818147 0.937008 0.83467 -0.20885
F_ F_ 0.822259 0.849333 0.819882 -0.20885
F_ F_ 0.880575 0.89236 0.79914 -0.20885
F_ F_ 0.574298 0.670302 0.560715 -0.20885
F_ F_ 0.574601 0.680997 0.645511 -0.20885
F_ F_ 0.640359 0.701782 0.606523 -0.20885
F_ F_ 0.683938 0.560444 0.670261 -0.20885
F_ F_ 0.68364 0.641 0.681366 -0.20885
F_ F_ 0.613595 0.599666 0.698169 -0.20885
_cell_length_a 26.508
_cell_length_b 26.37200000322088
_cell_length_c 26.311999743092066
_cell_angle_alpha 93.74100058972084
_cell_angle_beta 96.04100104955006
_cell_angle_gamma 83.6869992558723
_symmetry_space_group_name_H-M         'P 1'
_symmetry_Int_Tables_number            1
loop_
_symmetry_equiv_pos_as_xyz
   'x, y, z'
                         
loop_
_atom_site_label
_atom_site_type_symbol
_atom_site_fract_x 
_atom_site_fract_y
_atom_site_fract_z
_atom_site_charge
Zn Zn 0.0851246 0.0841597 0.351565 0.83971
Zn Zn 0.156286 0.342564 0.0780896 0.83971
Zn Zn 0.408793 0.411752 0.15317 0.83971
Zn Zn 0.337384 0.15597 0.408316 0.83971
H_ H_ 0.166479 0.13624 0.303074 0.10394
H_ H_ 0.246704 0.0963442 0.267108 0.10394
H_ H_ 0.215541 0.448209 0.291548 0.10394
H_ H_ 0.129082 0.989984 0.328639 0.10394
H_ H_ 0.53932 0.10064 0.251242 0.10394
H_ H_ 0.49719 0.169325 0.20648 0.10394
H_ H_ 0.040419 0.272488 0.34123 0.10394
H_ H_ 0.0679666 0.191444 0.385722 0.10394
H_ H_ 0.0251416 0.438347 0.363376 0.10394
H_ H_ 0.492642 0.377505 0.404557 0.10394
H_ H_ 0.354786 0.47862 0.384908 0.10394
H_ H_ 0.0769593 0.302086 0.13274 0.10394
H_ H_ 0.503443 0.266722 0.0999763 0.10394
H_ H_ 0.0292789 0.297585 0.450509 0.10394
H_ H_ 0.113691 0.321206 0.982958 0.10394
H_ H_ 0.215464 0.246462 0.0938687 0.10394
H_ H_ 0.259903 0.205367 0.171083 0.10394
H_ H_ 0.219677 0.332603 0.266689 0.10394
H_ H_ 0.170839 0.376964 0.193293 0.10394
H_ H_ 0.225296 0.341327 0.436514 0.10394
H_ H_ 0.274043 0.363704 0.370504 0.10394
H_ H_ 0.39192 0.399148 0.487995 0.10394
H_ H_ 0.305017 0.397892 0.164724 0.10394
H_ H_ 0.238556 0.442771 0.203661 0.10394
H_ H_ 0.322785 0.0467491 0.275146 0.10394
H_ H_ 0.405533 0.496615 0.235569 0.10394
H_ H_ 0.014834 0.387087 0.199703 0.10394
H_ H_ 0.0610581 0.311895 0.238869 0.10394
H_ H_ 0.416492 0.237871 0.217678 0.10394
H_ H_ 0.372542 0.3115 0.183882 0.10394
H_ H_ 0.463508 0.0559058 0.112304 0.10394
H_ H_ 0.0102874 0.124111 0.113187 0.10394
H_ H_ 0.133857 0.00971791 0.0852933 0.10394
H_ H_ 0.443593 0.159671 0.388427 0.10394
H_ H_ 0.0161055 0.193181 0.457729 0.10394
H_ H_ 0.419373 0.284618 0.0511316 0.10394
H_ H_ 0.346469 0.237778 0.491122 0.10394
H_ H_ 0.237893 0.209933 0.385106 0.10394
H_ H_ 0.196708 0.251366 0.31421 0.10394
H_ H_ 0.339362 0.222449 0.241675 0.10394
H_ H_ 0.376335 0.177383 0.316837 0.10394
H_ H_ 0.282149 0.112554 0.0592204 0.10394
H_ H_ 0.218969 0.131229 0.122996 0.10394
H_ H_ 0.105744 0.0902657 0.0061722 0.10394
C_ C_ 0.171223 0.0945747 0.295417 0.18167
C_ C_ 0.216135 0.0739186 0.272969 -0.15533
C_ C_ 0.227164 0.0203321 0.263617 0.02923
C_ C_ 0.207572 0.489555 0.29599 -0.15533
C_ C_ 0.154355 0.0128685 0.312996 0.18167
C_ C_ 0.0338319 0.137076 0.271447 0.18167
C_ C_ 0.51502 0.176895 0.244216 -0.15533
C_ C_ 0.010932 0.230318 0.270636 0.02923
C_ C_ 0.0330812 0.235749 0.321181 -0.15533
C_ C_ 0.0544671 0.191306 0.345294 0.18167
C_ C_ 0.00380381 0.0506604 0.375381 0.69207
C_ C_ 0.477024 0.502767 0.379485 0.02923
C_ C_ 0.499861 0.452587 0.386535 -0.15533
C_ C_ 0.471807 0.413255 0.392705 -0.15533
C_ C_ 0.416318 0.42202 0.38855 0.02923
C_ C_ 0.395473 0.472127 0.382737 -0.15533
C_ C_ 0.424642 0.512473 0.381652 0.02923
C_ C_ 0.39183 0.0692854 0.383319 0.69207
C_ C_ 0.409742 0.325218 0.387476 0.69661
C_ C_ 0.0643943 0.300787 0.0924699 0.18167
C_ C_ 0.0170206 0.281232 0.0712588 -0.15533
C_ C_ 0.00878395 0.268886 0.0182707 0.02923
C_ C_ 0.0420268 0.291806 0.489972 -0.15533
C_ C_ 0.0868525 0.309779 0.0084335 0.18167
C_ C_ 0.217435 0.2685 0.133513 0.18167
C_ C_ 0.242429 0.243999 0.174647 -0.15533
C_ C_ 0.242172 0.266977 0.224187 0.02923
C_ C_ 0.215251 0.313905 0.230077 -0.15533
C_ C_ 0.194891 0.341471 0.186522 0.18167
C_ C_ 0.23704 0.36473 0.0398539 0.69207
C_ C_ 0.275384 0.367887 0.49889 0.02923
C_ C_ 0.260292 0.358039 0.447377 -0.15533
C_ C_ 0.290641 0.367944 0.411091 -0.15533
C_ C_ 0.339175 0.383322 0.423059 0.02923
C_ C_ 0.354863 0.389766 0.476097 -0.15533
C_ C_ 0.324887 0.381888 0.513472 0.02923
C_ C_ 0.349063 0.386757 0.0697129 0.69207
C_ C_ 0.356212 0.381261 0.326591 0.69661
C_ C_ 0.312166 0.431812 0.189559 0.18167
C_ C_ 0.273543 0.456898 0.213224 -0.15533
C_ C_ 0.28124 0.498503 0.248248 0.02923
C_ C_ 0.318817 0.0137742 0.246678 -0.15533
C_ C_ 0.367341 0.490031 0.225474 0.18167
C_ C_ 0.486018 0.355902 0.210239 0.18167
C_ C_ 0.0182377 0.314936 0.232659 -0.15533
C_ C_ 0.487529 0.271422 0.238719 0.02923
C_ C_ 0.437392 0.269184 0.215409 -0.15533
C_ C_ 0.41349 0.309342 0.190213 0.18167
C_ C_ 0.487936 0.44561 0.119419 0.69207
C_ C_ 0.0159132 0.995105 0.112794 0.02923
C_ C_ -0.003314000000000039 0.0477143 0.120481 -0.15533
C_ C_ 0.0262725 0.0856541 0.113079 -0.15533
C_ C_ 0.0778456 0.0736054 0.103584 0.02923
C_ C_ 0.0952195 0.0219129 0.0945471 -0.15533
C_ C_ 0.0683147 0.982209 0.105876 0.02923
C_ C_ 0.0983224 0.422702 0.108057 0.69207
C_ C_ 0.089129 0.167826 0.10794 0.69661
C_ C_ 0.438412 0.182569 0.42274 0.18167
C_ C_ 0.480328 0.204625 0.447219 -0.15533
C_ C_ 0.472976 0.242261 0.486784 0.02923
C_ C_ 0.428483 0.253774 0.019884 -0.15533
C_ C_ 0.384738 0.226317 0.481339 0.18167
C_ C_ 0.260052 0.211287 0.353909 0.18167
C_ C_ 0.238102 0.238178 0.313387 -0.15533
C_ C_ 0.266801 0.242236 0.271094 0.02923
C_ C_ 0.318117 0.221102 0.273745 -0.15533
C_ C_ 0.337105 0.195583 0.316404 0.18167
C_ C_ 0.257288 0.131069 0.449641 0.69207
C_ C_ 0.224086 0.122583 0.995212 0.02923
C_ C_ 0.243272 0.115555 0.0471803 -0.15533
C_ C_ 0.208474 0.114464 0.0836502 -0.15533
C_ C_ 0.157717 0.111246 0.0685296 0.02923
C_ C_ 0.142972 0.104985 0.0177455 -0.15533
C_ C_ 0.171489 0.11692 0.979337 0.02923
C_ C_ 0.149968 0.103724 0.425232 0.69207
C_ C_ 0.14338 0.110347 0.166143 0.69661
C_ C_ 0.381167 0.378624 0.382837 -0.30787
C_ C_ 0.118084 0.114244 0.109013 -0.30787
N_ N_ 0.139657 0.0628419 0.309389 -0.32189
N_ N_ 0.0510277 0.143488 0.32197 -0.32189
N_ N_ 0.0963674 0.31424 0.060336 -0.32189
N_ N_ 0.195257 0.316054 0.138949 -0.32189
N_ N_ 0.357576 0.449487 0.192945 -0.32189
N_ N_ 0.438849 0.350296 0.186022 -0.32189
N_ N_ 0.391834 0.189604 0.443305 -0.32189
N_ N_ 0.308519 0.190702 0.355235 -0.32189
O_ O_ 0.507728 0.0857837 0.403452 -0.63271
O_ O_ 0.0364873 0.0394461 0.343461 -0.57982
O_ O_ 0.3881 0.092345 0.340305 -0.63271
O_ O_ 0.368867 0.0923271 0.420395 -0.57982
O_ O_ 0.241448 0.384507 0.0867476 -0.63271
O_ O_ 0.193596 0.345145 0.0252852 -0.57982
O_ O_ 0.356968 0.343272 0.0922749 -0.63271
O_ O_ 0.380491 0.422043 0.0888245 -0.57982
O_ O_ 0.988378 0.407422 0.0987377 -0.63271
O_ O_ 0.457325 0.456984 0.154869 -0.57982
O_ O_ 0.0933472 0.398288 0.149216 -0.63271
O_ O_ 0.137155 0.407785 0.0810321 -0.57982
O_ O_ 0.258314 0.103046 0.406309 -0.63271
O_ O_ 0.295233 0.157524 0.461775 -0.57982
O_ O_ 0.14665 0.143456 0.398563 -0.63271
O_ O_ 0.119528 0.0676842 0.412324 -0.57982
F_ F_ 0.441329 0.323696 0.430657 -0.20885
F_ F_ 0.439114 0.306704 0.348222 -0.20885
F_ F_ 0.376078 0.287306 0.391253 -0.20885
F_ F_ 0.320224 0.422109 0.319309 -0.20885
F_ F_ 0.334519 0.336722 0.312137 -0.20885
F_ F_ 0.392048 0.388108 0.294114 -0.20885
F_ F_ 0.0576898 0.171571 0.0644084 -0.20885
F_ F_ 0.0657202 0.177569 0.152502 -0.20885
F_ F_ 0.123308 0.203889 0.107763 -0.20885
F_ F_ 0.177822 0.0658995 0.165879 -0.20885
F_ F_ 0.168128 0.153981 0.184218 -0.20885
F_ F_ 0.107684 0.104787 0.200619 -0.20885
Zn Zn 0.0877653 0.0897593 0.844701 0.83971
Zn Zn 0.163436 0.342829 0.588034 0.83971
Zn Zn 0.412564 0.414197 0.649692 0.83971
Zn Zn 0.342848 0.153155 0.923504 0.83971
H_ H_ 0.178354 0.128671 0.816258 0.10394
H_ H_ 0.254568 0.0920952 0.773619 0.10394
H_ H_ 0.203814 0.4403 0.771107 0.10394
H_ H_ 0.116321 0.987863 0.799313 0.10394
H_ H_ 0.519758 0.0916628 0.749982 0.10394
H_ H_ 0.490288 0.165209 0.698494 0.10394
H_ H_ 0.0338733 0.271555 0.830767 0.10394
H_ H_ 0.0630559 0.192542 0.874735 0.10394
H_ H_ 0.0426745 0.447802 0.88139 0.10394
H_ H_ 0.474938 0.376306 0.864803 0.10394
H_ H_ 0.348654 0.488136 0.891157 0.10394
H_ H_ 0.0864612 0.296544 0.636115 0.10394
H_ H_ 0.494444 0.271816 0.586102 0.10394
H_ H_ 0.0373644 0.279735 0.946364 0.10394
H_ H_ 0.109301 0.326401 0.484086 0.10394
H_ H_ 0.229943 0.251333 0.602595 0.10394
H_ H_ 0.271875 0.205098 0.669181 0.10394
H_ H_ 0.228371 0.333882 0.771983 0.10394
H_ H_ 0.18386 0.377513 0.695386 0.10394
H_ H_ 0.213441 0.387204 0.940604 0.10394
H_ H_ 0.268967 0.380585 0.8722 0.10394
H_ H_ 0.389562 0.40935 0.989962 0.10394
H_ H_ 0.301924 0.447855 0.61855 0.10394
H_ H_ 0.228789 0.46949 0.666972 0.10394
H_ H_ 0.328792 0.0485806 0.759524 0.10394
H_ H_ 0.404877 0.45806 0.750104 0.10394
H_ H_ 0.0111618 0.386828 0.686584 0.10394
H_ H_ 0.0625061 0.309566 0.721393 0.10394
H_ H_ 0.405761 0.248368 0.717108 0.10394
H_ H_ 0.367203 0.327097 0.678513 0.10394
H_ H_ 0.45969 0.0566957 0.621223 0.10394
H_ H_ 0.0276114 0.12155 0.60687 0.10394
H_ H_ 0.152343 0.00216245 0.604836 0.10394
H_ H_ 0.440743 0.167812 0.900882 0.10394
H_ H_ 0.0118789 0.188867 0.946746 0.10394
H_ H_ 0.418771 0.282218 0.536066 0.10394
H_ H_ 0.351016 0.230673 0.0151741 0.10394
H_ H_ 0.238852 0.20963 0.892438 0.10394
H_ H_ 0.199965 0.246041 0.811326 0.10394
H_ H_ 0.34878 0.221392 0.754295 0.10394
H_ H_ 0.380851 0.177843 0.833655 0.10394
H_ H_ 0.287902 0.130571 0.549052 0.10394
H_ H_ 0.245441 0.109533 0.61833 0.10394
H_ H_ 0.115927 0.0705266 0.50872 0.10394
C_ C_ 0.180799 0.0888597 0.799967 0.18167
C_ C_ 0.228114 0.066151 0.782394 -0.15533
C_ C_ 0.234286 0.011932 0.772829 0.02923
C_ C_ 0.19711 0.48175 0.776279 -0.15533
C_ C_ 0.148837 0.00898502 0.799411 0.18167
C_ C_ 0.0467861 0.139634 0.759814 0.18167
C_ C_ 0.504236 0.169908 0.736156 -0.15533
C_ C_ 0.0198528 0.230332 0.757344 0.02923
C_ C_ 0.0396041 0.234646 0.809693 -0.15533
C_ C_ 0.0578626 0.190803 0.834533 0.18167
C_ C_ 0.00871075 0.0469795 0.874846 0.69207
C_ C_ 0.467424 0.502175 0.856744 0.02923
C_ C_ 0.489449 0.452587 0.857626 -0.15533
C_ C_ 0.459769 0.414618 0.870748 -0.15533
C_ C_ 0.410658 0.427175 0.886999 0.02923
C_ C_ 0.388988 0.47751 0.885731 -0.15533
C_ C_ 0.417425 0.515971 0.870186 0.02923
C_ C_ 0.394888 0.0674815 0.888745 0.69207
C_ C_ 0.403731 0.330358 0.895125 0.69661
C_ C_ 0.0722665 0.297135 0.595106 0.18167
C_ C_ 0.0297788 0.273123 0.576241 -0.15533
C_ C_ 0.012859 0.274214 0.523518 0.02923
C_ C_ 0.0439139 0.283825 0.985616 -0.15533
C_ C_ 0.0892382 0.307551 0.509578 0.18167
C_ C_ 0.226892 0.266823 0.640393 0.18167
C_ C_ 0.25062 0.239815 0.681669 -0.15533
C_ C_ 0.254207 0.264204 0.730371 0.02923
C_ C_ 0.227489 0.314565 0.734759 -0.15533
C_ C_ 0.201063 0.33759 0.69231 0.18167
C_ C_ 0.240598 0.362932 0.542049 0.69207
C_ C_ 0.271623 0.380779 0.00160126 0.02923
C_ C_ 0.251818 0.383584 0.950711 -0.15533
C_ C_ 0.283373 0.389678 0.912586 -0.15533
C_ C_ 0.33568 0.393868 0.924855 0.02923
C_ C_ 0.351593 0.399755 0.977888 -0.15533
C_ C_ 0.323226 0.388909 0.0162299 0.02923
C_ C_ 0.351277 0.379558 0.566539 0.69207
C_ C_ 0.353056 0.380715 0.827294 0.69661
C_ C_ 0.307078 0.455459 0.65879 0.18167
C_ C_ 0.266234 0.472264 0.685506 -0.15533
C_ C_ 0.275442 0.492255 0.735828 0.02923
C_ C_ 0.320351 0.0136104 0.738019 -0.15533
C_ C_ 0.367101 0.469293 0.729841 0.18167
C_ C_ 0.491285 0.349424 0.700033 0.18167
C_ C_ 0.020508 0.311789 0.712141 -0.15533
C_ C_ 0.482382 0.265678 0.730527 0.02923
C_ C_ 0.430236 0.272464 0.712582 -0.15533
C_ C_ 0.409 0.319985 0.690658 0.18167
C_ C_ 0.487924 0.452972 0.623892 0.69207
C_ C_ 0.0272732 0.993077 0.616773 0.02923
C_ C_ 0.00853319 0.0462296 0.61137 -0.15533
C_ C_ 0.0415705 0.0823248 0.606956 -0.15533
C_ C_ 0.0951657 0.0672044 0.608544 0.02923
C_ C_ 0.112941 0.0150422 0.609261 -0.15533
C_ C_ 0.0797295 0.978376 0.611624 0.02923
C_ C_ 0.102321 0.425353 0.617784 0.69207
C_ C_ 0.112828 0.164376 0.607878 0.69661
C_ C_ 0.437916 0.186111 0.937073 0.18167
C_ C_ 0.480308 0.206865 0.960459 -0.15533
C_ C_ 0.477941 0.24148 1.00149083 0.02923
C_ C_ 0.424669 0.252311 0.502923 -0.15533
C_ C_ 0.386799 0.228082 0.99656628 0.18167
C_ C_ 0.263903 0.212654 0.863296 0.18167
C_ C_ 0.240929 0.23275 0.815462 -0.15533
C_ C_ 0.272058 0.235589 0.775179 0.02923
C_ C_ 0.322929 0.21749 0.783498 -0.15533
C_ C_ 0.340812 0.192744 0.828849 0.18167
C_ C_ 0.26131 0.133104 0.956975 0.69207
C_ C_ 0.22499 0.120116 0.490165 0.02923
C_ C_ 0.248319 0.123242 0.540287 -0.15533
C_ C_ 0.224294 0.105507 0.579283 -0.15533
C_ C_ 0.171554 0.0984352 0.569449 0.02923
C_ C_ 0.149649 0.0910566 0.519254 -0.15533
C_ C_ 0.174676 0.106664 0.479149 0.02923
C_ C_ 0.149318 0.117215 0.925167 0.69207
C_ C_ 0.161998 0.107573 0.667299 0.69661
C_ C_ 0.374551 0.383657 0.884484 -0.30787
C_ C_ 0.134496 0.108697 0.613494 -0.30787
N_ N_ 0.143254 0.0601731 0.809629 -0.32189
N_ N_ 0.0608683 0.144893 0.810519 -0.32189
N_ N_ 0.104421 0.311694 0.562125 -0.32189
N_ N_ 0.200098 0.312659 0.646875 -0.32189
N_ N_ 0.356171 0.45097 0.680757 -0.32189
N_ N_ 0.440245 0.358036 0.686573 -0.32189
N_ N_ 0.394587 0.19187 0.959246 -0.32189
N_ N_ 0.311988 0.19103 0.868312 -0.32189
O_ O_ 0.501332 0.0882069 0.899131 -0.63271
O_ O_ 0.043046 0.0417917 0.841294 -0.57982
O_ O_ 0.37967 0.0872573 0.845418 -0.63271
O_ O_ 0.375431 0.0888569 0.927484 -0.57982
O_ O_ 0.243236 0.393177 0.582526 -0.63271
O_ O_ 0.205726 0.332007 0.538289 -0.57982
O_ O_ 0.357646 0.336298 0.588111 -0.63271
O_ O_ 0.382473 0.413644 0.582526 -0.57982
O_ O_ 0.990973 0.417995 0.590591 -0.63271
O_ O_ 0.452664 0.467445 0.65431 -0.57982
O_ O_ 0.0999525 0.396636 0.658909 -0.63271
O_ O_ 0.131743 0.405203 0.583522 -0.57982
O_ O_ 0.260828 0.108436 0.911214 -0.63271
O_ O_ 0.298729 0.159577 0.970934 -0.57982
O_ O_ 0.146206 0.159124 0.898794 -0.63271
O_ O_ 0.117755 0.0831337 0.907572 -0.57982
F_ F_ 0.438068 0.326411 0.93786 -0.20885
F_ F_ 0.431761 0.308114 0.855381 -0.20885
F_ F_ 0.368828 0.296516 0.900621 -0.20885
F_ F_ 0.312817 0.416977 0.816049 -0.20885
F_ F_ 0.33155 0.334796 0.811776 -0.20885
F_ F_ 0.388305 0.381741 0.791565 -0.20885
F_ F_ 0.0843139 0.162726 0.561089 -0.20885
F_ F_ 0.0804493 0.184775 0.643174 -0.20885
F_ F_ 0.147847 0.19994 0.60405 -0.20885
F_ F_ 0.194951 0.0647774 0.675952 -0.20885
F_ F_ 0.189784 0.14895 0.681749 -0.20885
F_ F_ 0.123481 0.108004 0.700152 -0.20885
Zn Zn 0.0863509 0.579782 0.350294 0.83971
Zn Zn 0.164474 0.852001 0.0895554 0.83971
Zn Zn 0.406931 0.919554 0.154412 0.83971
Zn Zn 0.344519 0.650735 0.416205 0.83971
H_ H_ 0.16282 0.631111 0.300049 0.10394
H_ H_ 0.242576 0.5977 0.263851 0.10394
H_ H_ 0.203059 0.947564 0.284385 0.10394
H_ H_ 0.143791 0.484212 0.339047 0.10394
H_ H_ 0.534851 0.598599 0.252684 0.10394
H_ H_ 0.48942 0.671836 0.205528 0.10394
H_ H_ 0.0107206 0.760628 0.346028 0.10394
H_ H_ 0.0701953 0.6893 0.380066 0.10394
H_ H_ 0.0297695 0.94822 0.380282 0.10394
H_ H_ 0.471185 0.881662 0.345331 0.10394
H_ H_ 0.353399 0.986311 0.405303 0.10394
H_ H_ 0.0815868 0.803184 0.139704 0.10394
H_ H_ 0.501688 0.75944 0.0979819 0.10394
H_ H_ 0.0427578 0.782143 0.444915 0.10394
H_ H_ 0.106259 0.834575 0.988833 0.10394
H_ H_ 0.213695 0.748777 0.0994192 0.10394
H_ H_ 0.256445 0.701981 0.170113 0.10394
H_ H_ 0.226517 0.828213 0.272112 0.10394
H_ H_ 0.172396 0.875439 0.203522 0.10394
H_ H_ 0.22031 0.855193 0.442065 0.10394
H_ H_ 0.268803 0.883097 0.377782 0.10394
H_ H_ 0.394978 0.906886 0.486731 0.10394
H_ H_ 0.307502 0.888861 0.171005 0.10394
H_ H_ 0.229516 0.939516 0.195946 0.10394
H_ H_ 0.338071 0.543798 0.282854 0.10394
H_ H_ 0.399822 -0.00214982 0.244264 0.10394
H_ H_ 0.0133121 0.860174 0.174736 0.10394
H_ H_ 0.050534 0.794004 0.232906 0.10394
H_ H_ 0.411822 0.748268 0.226639 0.10394
H_ H_ 0.372121 0.822941 0.182322 0.10394
H_ H_ 0.456664 0.547222 0.104985 0.10394
H_ H_ 0.0159634 0.613375 0.0816699 0.10394
H_ H_ 0.147204 0.504641 0.0945386 0.10394
H_ H_ 0.446659 0.660343 0.393751 0.10394
H_ H_ 0.022474 0.689347 0.447947 0.10394
H_ H_ 0.408773 0.783393 0.0337649 0.10394
H_ H_ 0.348801 0.729227 0.507456 0.10394
H_ H_ 0.242714 0.700885 0.387322 0.10394
H_ H_ 0.19947 0.739049 0.311821 0.10394
H_ H_ 0.3407 0.709279 0.239849 0.10394
H_ H_ 0.384801 0.688394 0.328613 0.10394
H_ H_ 0.286855 0.620711 0.0540747 0.10394
H_ H_ 0.234417 0.609812 0.117805 0.10394
H_ H_ 0.107924 0.583867 0.00535971 0.10394
C_ C_ 0.174877 0.591771 0.297816 0.18167
C_ C_ 0.220348 0.572301 0.277028 -0.15533
C_ C_ 0.240206 0.520095 0.27985 0.02923
C_ C_ 0.194756 0.989596 0.285609 -0.15533
C_ C_ 0.161402 0.509292 0.316072 0.18167
C_ C_ 0.0252018 0.628827 0.272305 0.18167
C_ C_ 0.509293 0.678276 0.241134 -0.15533
C_ C_ -0.003898999999999986 0.72079 0.271684 0.02923
C_ C_ 0.0173136 0.725842 0.322162 -0.15533
C_ C_ 0.0454036 0.683118 0.344846 0.18167
C_ C_ 0.00543724 0.542419 0.372317 0.69207
C_ C_ 0.468292 0.0080827 0.374617 0.02923
C_ C_ 0.489565 0.9569 0.364282 -0.15533
C_ C_ 0.460242 0.915914 0.369277 -0.15533
C_ C_ 0.409832 0.925412 0.383848 0.02923
C_ C_ 0.390344 0.977631 0.39305 -0.15533
C_ C_ 0.417062 0.0174333 0.384784 0.02923
C_ C_ 0.400732 0.566567 0.382404 0.69207
C_ C_ 0.403481 0.828506 0.387113 0.69661
C_ C_ 0.0751304 0.793704 0.0995211 0.18167
C_ C_ 0.0293836 0.773262 0.0811623 -0.15533
C_ C_ 0.019315 0.763929 0.0286951 0.02923
C_ C_ 0.0532194 0.781781 0.484373 -0.15533
C_ C_ 0.0868412 0.817367 0.0150482 0.18167
C_ C_ 0.220647 0.767703 0.137086 0.18167
C_ C_ 0.244006 0.740727 0.178056 -0.15533
C_ C_ 0.243588 0.761156 0.228804 0.02923
C_ C_ 0.221042 0.811046 0.234652 -0.15533
C_ C_ 0.192074 0.836732 0.195814 0.18167
C_ C_ 0.237338 0.866023 0.0470411 0.69207
C_ C_ 0.278633 0.872772 0.503216 0.02923
C_ C_ 0.260543 0.865756 0.451856 -0.15533
C_ C_ 0.287997 0.879355 0.413928 -0.15533
C_ C_ 0.337157 0.889342 0.422432 0.02923
C_ C_ 0.358085 0.895741 0.47595 -0.15533
C_ C_ 0.327515 0.888019 0.516264 0.02923
C_ C_ 0.349665 0.886924 0.0771348 0.69207
C_ C_ 0.348479 0.881453 0.325149 0.69661
C_ C_ 0.310516 0.924792 0.188498 0.18167
C_ C_ 0.266429 0.951073 0.208372 -0.15533
C_ C_ 0.271487 0.997405 0.237957 0.02923
C_ C_ 0.328673 0.516932 0.251532 -0.15533
C_ C_ 0.361301 0.98444 0.230422 0.18167
C_ C_ 0.492018 0.855261 0.201003 0.18167
C_ C_ 0.0079198 0.799291 0.222871 -0.15533
C_ C_ 0.488754 0.772598 0.232458 0.02923
C_ C_ 0.436682 0.77772 0.216605 -0.15533
C_ C_ 0.413596 0.81826 0.189227 0.18167
C_ C_ 0.484769 0.957437 0.121251 0.69207
C_ C_ 0.0237449 0.490746 0.114218 0.02923
C_ C_ 0.00449456 0.542412 0.106648 -0.15533
C_ C_ 0.0366365 0.57684 0.0960578 -0.15533
C_ C_ 0.0897269 0.565305 0.0972248 0.02923
C_ C_ 0.108496 0.513374 0.0970994 -0.15533
C_ C_ 0.0775087 0.477086 0.108573 0.02923
C_ C_ 0.0926174 0.930046 0.111455 0.69207
C_ C_ 0.101847 0.6597 0.110317 0.69661
C_ C_ 0.440396 0.685949 0.428808 0.18167
C_ C_ 0.480781 0.703765 0.457988 -0.15533
C_ C_ 0.473113 0.744413 0.495647 0.02923
C_ C_ 0.418076 0.753729 0.00701662 -0.15533
C_ C_ 0.383258 0.728741 0.487737 0.18167
C_ C_ 0.26479 0.706121 0.356827 0.18167
C_ C_ 0.240018 0.722957 0.310273 -0.15533
C_ C_ 0.268735 0.733047 0.271719 0.02923
C_ C_ 0.320919 0.712016 0.274759 -0.15533
C_ C_ 0.344083 0.693101 0.320369 0.18167
C_ C_ 0.263535 0.617901 0.449896 0.69207
C_ C_ 0.227129 0.616327 0.990125 0.02923
C_ C_ 0.246669 0.612273 0.040927 -0.15533
C_ C_ 0.214777 0.606268 0.0787534 -0.15533
C_ C_ 0.165489 0.596976 0.0665483 0.02923
C_ C_ 0.145697 0.597834 0.015737 -0.15533
C_ C_ 0.175664 0.605879 0.976281 0.02923
C_ C_ 0.152229 0.599631 0.427592 0.69207
C_ C_ 0.151281 0.597875 0.163494 0.69661
C_ C_ 0.374799 0.880753 0.380962 -0.30787
C_ C_ 0.12837 0.606422 0.108215 -0.30787
N_ N_ 0.143927 0.55925 0.315033 -0.32189
N_ N_ 0.0496359 0.636832 0.320192 -0.32189
N_ N_ 0.103127 0.817662 0.0670251 -0.32189
N_ N_ 0.19339 0.814972 0.147149 -0.32189
N_ N_ 0.355919 0.944085 0.196307 -0.32189
N_ N_ 0.441054 0.857399 0.184661 -0.32189
N_ N_ 0.392577 0.695224 0.445236 -0.32189
N_ N_ 0.315706 0.6881 0.357744 -0.32189
O_ O_ 0.508744 0.586114 0.40272 -0.63271
O_ O_ 0.0453497 0.532725 0.344124 -0.57982
O_ O_ 0.397316 0.591277 0.339553 -0.63271
O_ O_ 0.374346 0.585002 0.419389 -0.57982
O_ O_ 0.242901 0.890257 0.0918135 -0.63271
O_ O_ 0.196643 0.843975 0.0352369 -0.57982
O_ O_ 0.353223 0.846034 0.103096 -0.63271
O_ O_ 0.381123 0.922217 0.0901733 -0.57982
O_ O_ 0.981847 0.912224 0.0916476 -0.63271
O_ O_ 0.447562 0.967928 0.151211 -0.57982
O_ O_ 0.0844968 0.906565 0.153008 -0.63271
O_ O_ 0.135674 0.916623 0.0904488 -0.57982
O_ O_ 0.250297 0.601653 0.403689 -0.63271
O_ O_ 0.295337 0.651873 0.456859 -0.57982
O_ O_ 0.14954 0.64127 0.402925 -0.63271
O_ O_ 0.114207 0.572224 0.41485 -0.57982
F_ F_ 0.437255 0.825735 0.428798 -0.20885
F_ F_ 0.424739 0.811012 0.343094 -0.20885
F_ F_ 0.371188 0.787806 0.388413 -0.20885
F_ F_ 0.317138 0.926847 0.318352 -0.20885
F_ F_ 0.321919 0.840588 0.316276 -0.20885
F_ F_ 0.377814 0.875552 0.286064 -0.20885
F_ F_ 0.0749515 0.670757 0.0620048 -0.20885
F_ F_ 0.0695331 0.671453 0.146543 -0.20885
F_ F_ 0.133251 0.697845 0.120007 -0.20885
F_ F_ 0.182794 0.552785 0.170522 -0.20885
F_ F_ 0.181486 0.637673 0.180791 -0.20885
F_ F_ 0.116228 0.602017 0.198451 -0.20885
Zn Zn 0.0934515 0.585525 0.839027 0.83971
Zn Zn 0.161835 0.847129 0.580032 0.83971
Zn Zn 0.412771 0.914957 0.651402 0.83971
Zn Zn 0.334951 0.652728 0.907008 0.83971
H_ H_ 0.175779 0.624606 0.808682 0.10394
H_ H_ 0.258776 0.58643 0.780024 0.10394
H_ H_ 0.196706 0.941134 0.779348 0.10394
H_ H_ 0.119354 0.481548 0.798628 0.10394
H_ H_ 0.530842 0.590744 0.754284 0.10394
H_ H_ 0.489165 0.664283 0.70766 0.10394
H_ H_ 0.0219035 0.769941 0.840384 0.10394
H_ H_ 0.0541305 0.686985 0.880332 0.10394
H_ H_ 0.0244381 0.945813 0.845217 0.10394
H_ H_ 0.475619 0.873126 0.879601 0.10394
H_ H_ 0.353393 0.984684 0.905284 0.10394
H_ H_ 0.0838029 0.805776 0.630623 0.10394
H_ H_ 0.503364 0.764114 0.598163 0.10394
H_ H_ 0.0355844 0.787785 0.953377 0.10394
H_ H_ 0.119577 0.823684 0.481531 0.10394
H_ H_ 0.232293 0.765677 0.599407 0.10394
H_ H_ 0.258964 0.707377 0.668839 0.10394
H_ H_ 0.188805 0.818826 0.771961 0.10394
H_ H_ 0.17311 0.877265 0.6993 0.10394
H_ H_ 0.214337 0.868467 0.949957 0.10394
H_ H_ 0.265097 0.867562 0.879449 0.10394
H_ H_ 0.393045 0.899183 0.988481 0.10394
H_ H_ 0.313951 0.883356 0.665823 0.10394
H_ H_ 0.241277 0.922332 0.711325 0.10394
H_ H_ 0.334125 0.504977 0.797763 0.10394
H_ H_ 0.399869 0.00459985 0.720875 0.10394
H_ H_ 0.00265535 0.906092 0.726336 0.10394
H_ H_ 0.0499241 0.830152 0.763576 0.10394
H_ H_ 0.417681 0.743204 0.719919 0.10394
H_ H_ 0.376964 0.822795 0.690464 0.10394
H_ H_ 0.463884 0.554596 0.62116 0.10394
H_ H_ 0.0238322 0.62342 0.61354 0.10394
H_ H_ 0.147475 0.508205 0.591448 0.10394
H_ H_ 0.439597 0.658055 0.893244 0.10394
H_ H_ 0.016494 0.696288 0.94762 0.10394
H_ H_ 0.418891 0.783145 0.542642 0.10394
H_ H_ 0.34427 0.733323 -0.0007190000000000252 0.10394
H_ H_ 0.231212 0.683138 0.875694 0.10394
H_ H_ 0.185506 0.708778 0.795561 0.10394
H_ H_ 0.329548 0.721087 0.740566 0.10394
H_ H_ 0.37045 0.68851 0.818074 0.10394
H_ H_ 0.288003 0.633175 0.550926 0.10394
H_ H_ 0.239569 0.615631 0.619964 0.10394
H_ H_ 0.110007 0.58481 0.513158 0.10394
C_ C_ 0.179202 0.585554 0.793572 0.18167
C_ C_ 0.225506 0.56465 0.777877 -0.15533
C_ C_ 0.232999 0.515088 0.764957 0.02923
C_ C_ 0.193712 0.983536 0.780389 -0.15533
C_ C_ 0.151605 0.504271 0.794725 0.18167
C_ C_ 0.0366368 0.64469 0.763117 0.18167
C_ C_ 0.50878 0.67226 0.74513 -0.15533
C_ C_ 0.0148713 0.73577 0.765535 0.02923
C_ C_ 0.030959 0.736585 0.817847 -0.15533
C_ C_ 0.052517 0.691519 0.840808 0.18167
C_ C_ 0.0159169 0.5477 0.870137 0.69207
C_ C_ 0.471652 0.00392965 0.880259 0.02923
C_ C_ 0.491654 0.951535 0.877625 -0.15533
C_ C_ 0.461411 0.913575 0.886661 -0.15533
C_ C_ 0.410458 0.924243 0.896417 0.02923
C_ C_ 0.392374 0.976443 0.903448 -0.15533
C_ C_ 0.420473 0.016272 0.891304 0.02923
C_ C_ 0.396188 0.570119 0.872313 0.69207
C_ C_ 0.396076 0.826492 0.884515 0.69661
C_ C_ 0.0758295 0.798599 0.588618 0.18167
C_ C_ 0.0310574 0.776643 0.569703 -0.15533
C_ C_ 0.0219379 0.764845 0.517487 0.02923
C_ C_ 0.0477681 0.788399 0.995948 -0.15533
C_ C_ 0.0984396 0.804246 0.504538 0.18167
C_ C_ 0.221475 0.776406 0.635492 0.18167
C_ C_ 0.237592 0.742635 0.675769 -0.15533
C_ C_ 0.226897 0.75984 0.72464 0.02923
C_ C_ 0.201052 0.808483 0.733237 -0.15533
C_ C_ 0.186919 0.839142 0.69226 0.18167
C_ C_ 0.244643 0.862297 0.543422 0.69207
C_ C_ 0.275483 0.871583 0.00960381 0.02923
C_ C_ 0.255805 0.863662 0.957973 -0.15533
C_ C_ 0.284217 0.869537 0.917954 -0.15533
C_ C_ 0.335341 0.88615 0.928013 0.02923
C_ C_ 0.353414 0.89255 0.980062 -0.15533
C_ C_ 0.325215 0.885886 0.0219798 0.02923
C_ C_ 0.356254 0.882739 0.568245 0.69207
C_ C_ 0.34517 0.892899 0.830212 0.69661
C_ C_ 0.316846 0.918678 0.68836 0.18167
C_ C_ 0.275055 0.94147 0.714195 -0.15533
C_ C_ 0.277504 0.988757 0.742646 0.02923
C_ C_ 0.326096 0.491036 0.75814 -0.15533
C_ C_ 0.361956 0.989445 0.715067 0.18167
C_ C_ 0.497954 0.850929 0.701348 0.18167
C_ C_ 0.0124934 0.826862 0.744065 -0.15533
C_ C_ 0.490318 0.768533 0.73575 0.02923
C_ C_ 0.439791 0.774276 0.719977 -0.15533
C_ C_ 0.416605 0.817463 0.695841 0.18167
C_ C_ 0.488818 0.955004 0.620688 0.69207
C_ C_ 0.0290046 0.494918 0.623441 0.02923
C_ C_ 1.0106994 0.547622 0.623704 -0.15533
C_ C_ 0.0405347 0.585893 0.615406 -0.15533
C_ C_ 0.0931072 0.572034 0.606713 0.02923
C_ C_ 0.1102 0.518158 0.600756 -0.15533
C_ C_ 0.0788264 0.479995 0.611776 0.02923
C_ C_ 0.0974698 0.924833 0.609174 0.69207
C_ C_ 0.107657 0.667694 0.607086 0.69661
C_ C_ 0.432577 0.680563 0.926461 0.18167
C_ C_ 0.474282 0.698624 0.955147 -0.15533
C_ C_ 0.467296 0.735611 -0.0042320000000000135 0.02923
C_ C_ 0.424743 0.754587 0.511576 -0.15533
C_ C_ 0.379278 0.724113 0.983955 0.18167
C_ C_ 0.252523 0.697357 0.848207 0.18167
C_ C_ 0.224673 0.71052 0.80064 -0.15533
C_ C_ 0.25312 0.728342 0.765341 0.02923
C_ C_ 0.306155 0.715574 0.771439 -0.15533
C_ C_ 0.33049 0.694958 0.814658 0.18167
C_ C_ 0.258223 0.624197 0.949583 0.69207
C_ C_ 0.228803 0.609971 0.490765 0.02923
C_ C_ 0.249247 0.617618 0.542098 -0.15533
C_ C_ 0.220977 0.610853 0.582152 -0.15533
C_ C_ 0.168394 0.600365 0.572146 0.02923
C_ C_ 0.148902 0.593886 0.520992 -0.15533
C_ C_ 0.17662 0.600245 0.481374 0.02923
C_ C_ 0.150772 0.609134 0.921974 0.69207
C_ C_ 0.154899 0.608376 0.667844 0.69661
C_ C_ 0.372952 0.882704 0.885504 -0.30787
C_ C_ 0.130872 0.613283 0.612543 -0.30787
N_ N_ 0.14363 0.554774 0.799809 -0.32189
N_ N_ 0.0584058 0.645791 0.811904 -0.32189
N_ N_ 0.111272 0.806296 0.555742 -0.32189
N_ N_ 0.191976 0.819131 0.643087 -0.32189
N_ N_ 0.358846 0.945125 0.687995 -0.32189
N_ N_ 0.446309 0.855985 0.686055 -0.32189
N_ N_ 0.384862 0.692601 0.941145 -0.32189
N_ N_ 0.30265 0.681528 0.850248 -0.32189
O_ O_ 0.502276 0.58431 0.880325 -0.63271
O_ O_ 0.0447195 0.541769 0.832213 -0.57982
O_ O_ 0.394397 0.596348 0.830055 -0.63271
O_ O_ 0.363897 0.58493 0.905805 -0.57982
O_ O_ 0.252714 0.877963 0.591746 -0.63271
O_ O_ 0.202316 0.841071 0.530079 -0.57982
O_ O_ 0.358088 0.841773 0.591792 -0.63271
O_ O_ 0.38483 0.917357 0.586795 -0.57982
O_ O_ 0.996384 0.909144 0.615564 -0.63271
O_ O_ 0.451507 0.963295 0.650634 -0.57982
O_ O_ 0.0980784 0.899121 0.650935 -0.63271
O_ O_ 0.125397 0.909277 0.573829 -0.57982
O_ O_ 0.257906 0.592068 0.909816 -0.63271
O_ O_ 0.291596 0.657854 0.954664 -0.57982
O_ O_ 0.153857 0.649356 0.895585 -0.63271
O_ O_ 0.119125 0.575278 0.903444 -0.57982
F_ F_ 0.43181 0.818995 0.925322 -0.20885
F_ F_ 0.422848 0.808534 0.843238 -0.20885
F_ F_ 0.361889 0.792429 0.88623 -0.20885
F_ F_ 0.307718 0.935557 0.835467 -0.20885
F_ F_ 0.320283 0.852601 0.812384 -0.20885
F_ F_ 0.374568 0.902731 0.791441 -0.20885
F_ F_ 0.0847627 0.674863 0.557846 -0.20885
F_ F_ 0.0741049 0.689737 0.644114 -0.20885
F_ F_ 0.146408 0.699131 0.605678 -0.20885
F_ F_ 0.178298 0.562783 0.675177 -0.20885
F_ F_ 0.189226 0.64505 0.685197 -0.20885
F_ F_ 0.119268 0.622925 0.703559 -0.20885
Zn Zn 0.587178 0.0861047 0.351354 0.83971
Zn Zn 0.66809 0.34531 0.0872471 0.83971
Zn Zn 0.908439 0.416735 0.158534 0.83971
Zn Zn 0.833859 0.160028 0.419728 0.83971
H_ H_ 0.667138 0.134205 0.305992 0.10394
H_ H_ 0.745839 0.0965628 0.266709 0.10394
H_ H_ 0.693925 0.455176 0.26132 0.10394
H_ H_ 0.625006 0.986821 0.321301 0.10394
H_ H_ 0.0353619 0.0985557 0.253377 0.10394
H_ H_ 0.989186 0.175715 0.212175 0.10394
H_ H_ 0.544984 0.26912 0.326543 0.10394
H_ H_ 0.580821 0.197418 0.378271 0.10394
H_ H_ 0.541296 0.442223 0.388973 0.10394
H_ H_ 0.964884 0.376076 0.358214 0.10394
H_ H_ 0.847753 0.49566 0.404686 0.10394
H_ H_ 0.583404 0.300932 0.137961 0.10394
H_ H_ 0.993549 0.264528 0.0953934 0.10394
H_ H_ 0.545283 0.28521 0.435733 0.10394
H_ H_ 0.634257 0.308172 0.987823 0.10394
H_ H_ 0.731004 0.255796 0.0910509 0.10394
H_ H_ 0.75974 0.196136 0.16171 0.10394
H_ H_ 0.716561 0.316446 0.268939 0.10394
H_ H_ 0.677334 0.368703 0.202244 0.10394
H_ H_ 0.706892 0.397719 0.461337 0.10394
H_ H_ 0.751752 0.396266 0.384451 0.10394
H_ H_ 0.891684 0.411699 0.484218 0.10394
H_ H_ 0.799476 0.419153 0.138837 0.10394
H_ H_ 0.725493 0.462326 0.179548 0.10394
H_ H_ 0.834303 0.0480157 0.281068 0.10394
H_ H_ 0.898708 0.501968 0.239473 0.10394
H_ H_ 0.503459 0.389657 0.215838 0.10394
H_ H_ 0.552504 0.318561 0.248892 0.10394
H_ H_ 0.909209 0.257272 0.243367 0.10394
H_ H_ 0.872116 0.325829 0.191435 0.10394
H_ H_ 0.957284 0.0605895 0.125723 0.10394
H_ H_ 0.520892 0.121084 0.115414 0.10394
H_ H_ 0.639168 0.00611000000000006 0.083215 0.10394
H_ H_ 0.944082 0.156204 0.407279 0.10394
H_ H_ 0.51848 0.188842 0.43811 0.10394
H_ H_ 0.909578 0.285401 0.0330929 0.10394
H_ H_ 0.839005 0.235001 0.504048 0.10394
H_ H_ 0.729669 0.186526 0.379423 0.10394
H_ H_ 0.690698 0.225314 0.298323 0.10394
H_ H_ 0.843497 0.221861 0.250928 0.10394
H_ H_ 0.878873 0.19333 0.335794 0.10394
H_ H_ 0.788923 0.111369 0.047888 0.10394
H_ H_ 0.743169 0.0988264 0.118249 0.10394
H_ H_ 0.604381 0.0979721 0.0132791 0.10394
C_ C_ 0.677829 0.0926593 0.305178 0.18167
C_ C_ 0.723333 0.0717743 0.284697 -0.15533
C_ C_ 0.734219 0.0179599 0.282298 0.02923
C_ C_ 0.688132 0.495688 0.270729 -0.15533
C_ C_ 0.652452 0.0108314 0.30843 0.18167
C_ C_ 0.535816 0.13503 0.270366 0.18167
C_ C_ 0.0063307 0.181905 0.249289 -0.15533
C_ C_ 0.518321 0.227832 0.264344 0.02923
C_ C_ 0.538243 0.231662 0.313415 -0.15533
C_ C_ 0.556336 0.188458 0.343112 0.18167
C_ C_ 0.503 0.0491191 0.368134 0.69207
C_ C_ 0.969156 0.505093 0.37692 0.02923
C_ C_ 0.984472 0.452584 0.365024 -0.15533
C_ C_ 0.949691 0.415236 0.367729 -0.15533
C_ C_ 0.901229 0.430012 0.385129 0.02923
C_ C_ 0.886572 0.483223 0.394177 -0.15533
C_ C_ 0.918181 0.520906 0.387241 0.02923
C_ C_ 0.893058 0.0757976 0.38697 0.69207
C_ C_ 0.884462 0.332143 0.387231 0.69661
C_ C_ 0.577914 0.294689 0.0973675 0.18167
C_ C_ 0.531392 0.278052 0.0763459 -0.15533
C_ C_ 0.524613 0.26643 0.0237798 0.02923
C_ C_ 0.551748 0.286154 0.47697 -0.15533
C_ C_ 0.605588 0.29993 0.0145563 0.18167
C_ C_ 0.724226 0.267232 0.131826 0.18167
C_ C_ 0.746791 0.235244 0.170558 -0.15533
C_ C_ 0.745822 0.255908 0.220432 0.02923
C_ C_ 0.719708 0.305206 0.228654 -0.15533
C_ C_ 0.694835 0.331219 0.190358 0.18167
C_ C_ 0.749023 0.374632 0.0456787 0.69207
C_ C_ 0.773379 0.387616 0.512127 0.02923
C_ C_ 0.748433 0.395487 0.464252 -0.15533
C_ C_ 0.774786 0.399932 0.420611 -0.15533
C_ C_ 0.829547 0.401928 0.427027 0.02923
C_ C_ 0.852496 0.402545 0.477322 -0.15533
C_ C_ 0.826952 0.38946 0.518644 0.02923
C_ C_ 0.860297 0.387288 0.0722467 0.69207
C_ C_ 0.835122 0.394098 0.328678 0.69661
C_ C_ 0.804831 0.444946 0.171223 0.18167
C_ C_ 0.762545 0.472842 0.192703 -0.15533
C_ C_ 0.767145 0.509626 0.232667 0.02923
C_ C_ 0.823639 0.0162836 0.252684 -0.15533
C_ C_ 0.86022 0.490875 0.228989 0.18167
C_ C_ 0.992976 0.357748 0.210043 0.18167
C_ C_ 0.512871 0.314615 0.231457 -0.15533
C_ C_ 0.988422 0.277326 0.244205 0.02923
C_ C_ 0.934259 0.283393 0.232424 -0.15533
C_ C_ 0.913078 0.325577 0.205883 0.18167
C_ C_ 0.987591 0.452856 0.122814 0.69207
C_ C_ 0.522221 0.992197 0.115634 0.02923
C_ C_ 0.503394 0.0439771 0.111837 -0.15533
C_ C_ 0.537421 0.0826055 0.110788 -0.15533
C_ C_ 0.590663 0.0682878 0.106064 0.02923
C_ C_ 0.605397 0.0161674 0.100838 -0.15533
C_ C_ 0.574369 0.97788 0.107261 0.02923
C_ C_ 0.598323 0.421548 0.105602 0.69207
C_ C_ 0.610611 0.162312 0.118974 0.69661
C_ C_ 0.935557 0.183596 0.438282 0.18167
C_ C_ 0.9768 0.203526 0.467065 -0.15533
C_ C_ 0.967591 0.246547 0.501496 0.02923
C_ C_ 0.915447 0.257862 0.00426832 -0.15533
C_ C_ 0.877146 0.229722 0.491148 0.18167
C_ C_ 0.753178 0.194145 0.350273 0.18167
C_ C_ 0.733012 0.213361 0.304802 -0.15533
C_ C_ 0.764393 0.223035 0.267006 0.02923
C_ C_ 0.816971 0.214687 0.278396 -0.15533
C_ C_ 0.837884 0.197911 0.325462 0.18167
C_ C_ 0.758145 0.120006 0.458911 0.69207
C_ C_ 0.723229 0.116291 0.991988 0.02923
C_ C_ 0.74939 0.106314 0.0407601 -0.15533
C_ C_ 0.721454 0.100179 0.0821761 -0.15533
C_ C_ 0.668641 0.0967778 0.0737262 0.02923
C_ C_ 0.644991 0.100899 0.0217218 -0.15533
C_ C_ 0.671864 0.108812 0.981081 0.02923
C_ C_ 0.650097 0.101843 0.428324 0.69207
C_ C_ 0.658198 0.0945425 0.169513 0.69661
C_ C_ 0.864023 0.387895 0.383131 -0.30787
C_ C_ 0.630966 0.105518 0.116889 -0.30787
N_ N_ 0.64465 0.0607492 0.315392 -0.32189
N_ N_ 0.562577 0.141811 0.317448 -0.32189
N_ N_ 0.612759 0.306847 0.0665705 -0.32189
N_ N_ 0.700441 0.315656 0.140441 -0.32189
N_ N_ 0.852886 0.450889 0.192373 -0.32189
N_ N_ 0.943345 0.362165 0.195183 -0.32189
N_ N_ 0.887221 0.197592 0.449531 -0.32189
N_ N_ 0.805473 0.188186 0.359375 -0.32189
O_ O_ 0.00802445 0.0912055 0.404792 -0.63271
O_ O_ 0.535699 0.0436341 0.334025 -0.57982
O_ O_ 0.896473 0.100578 0.346206 -0.63271
O_ O_ 0.870218 0.0975318 0.425809 -0.57982
O_ O_ 0.735527 0.415559 0.0749899 -0.63271
O_ O_ 0.717768 0.339632 0.0414804 -0.57982
O_ O_ 0.854469 0.352237 0.102335 -0.63271
O_ O_ 0.883816 0.425841 0.0908135 -0.57982
O_ O_ 0.494402 0.397478 0.102152 -0.63271
O_ O_ 0.953972 0.46272 0.154914 -0.57982
O_ O_ 0.598303 0.395806 0.148677 -0.63271
O_ O_ 0.634049 0.407698 0.0760417 -0.57982
O_ O_ 0.757469 0.0904895 0.418132 -0.63271
O_ O_ 0.789636 0.156086 0.464788 -0.57982
O_ O_ 0.649892 0.144237 0.403516 -0.63271
O_ O_ 0.618182 0.0705934 0.411875 -0.57982
F_ F_ 0.927196 0.325672 0.421749 -0.20885
F_ F_ 0.902951 0.311509 0.341546 -0.20885
F_ F_ 0.846843 0.302044 0.395768 -0.20885
F_ F_ 0.808614 0.440626 0.31892 -0.20885
F_ F_ 0.799849 0.35784 0.316759 -0.20885
F_ F_ 0.868144 0.385651 0.294466 -0.20885
F_ F_ 0.575631 0.177009 0.0794039 -0.20885
F_ F_ 0.585507 0.179585 0.160174 -0.20885
F_ F_ 0.64793 0.193887 0.11757 -0.20885
F_ F_ 0.688626 0.0478881 0.174572 -0.20885
F_ F_ 0.691776 0.130502 0.186931 -0.20885
F_ F_ 0.622051 0.0971272 0.202624 -0.20885
Zn Zn 0.584958 0.0805908 0.848564 0.83971
Zn Zn 0.657541 0.344098 0.581391 0.83971
Zn Zn 0.909288 0.42144 0.653766 0.83971
Zn Zn 0.833376 0.156053 0.907116 0.83971
H_ H_ 0.654833 0.118721 0.798618 0.10394
H_ H_ 0.742068 0.0890801 0.773116 0.10394
H_ H_ 0.713177 0.448823 0.783252 0.10394
H_ H_ 0.635989 0.97094 0.837253 0.10394
H_ H_ 0.0410153 0.102187 0.743493 0.10394
H_ H_ 1.00744032 0.172977 0.694834 0.10394
H_ H_ 0.522344 0.263633 0.83623 0.10394
H_ H_ 0.556277 0.184601 0.876938 0.10394
H_ H_ 0.527146 0.442111 0.852177 0.10394
H_ H_ 0.991075 0.37848 0.885146 0.10394
H_ H_ 0.861456 0.48911 0.897759 0.10394
H_ H_ 0.572736 0.309787 0.621867 0.10394
H_ H_ 0.00804999999999989 0.255389 0.602617 0.10394
H_ H_ 0.552546 0.277704 0.951046 0.10394
H_ H_ 0.623452 0.316352 0.475723 0.10394
H_ H_ 0.731001 0.249191 0.586634 0.10394
H_ H_ 0.771593 0.202665 0.658973 0.10394
H_ H_ 0.706984 0.320724 0.763455 0.10394
H_ H_ 0.669568 0.367288 0.68884 0.10394
H_ H_ 0.733414 0.349729 0.945614 0.10394
H_ H_ 0.782974 0.360456 0.876612 0.10394
H_ H_ 0.901554 0.41427 0.990889 0.10394
H_ H_ 0.814351 0.397731 0.662051 0.10394
H_ H_ 0.736176 0.444232 0.705033 0.10394
H_ H_ 0.831461 0.0376235 0.793036 0.10394
H_ H_ 0.904015 0.511255 0.724912 0.10394
H_ H_ 0.516569 0.377562 0.697344 0.10394
H_ H_ 0.550142 0.306258 0.744163 0.10394
H_ H_ 0.914971 0.253241 0.731911 0.10394
H_ H_ 0.876226 0.320073 0.684519 0.10394
H_ H_ 0.966997 0.0574644 0.616387 0.10394
H_ H_ 0.511608 0.125897 0.614628 0.10394
H_ H_ 0.639796 0.0188637 0.591062 0.10394
H_ H_ 0.941048 0.156718 0.897262 0.10394
H_ H_ 0.518138 0.191177 0.952228 0.10394
H_ H_ 0.904021 0.295608 0.532015 0.10394
H_ H_ 0.836285 0.238662 -0.007588000000000039 0.10394
H_ H_ 0.729418 0.175975 0.866304 0.10394
H_ H_ 0.692083 0.212985 0.783399 0.10394
H_ H_ 0.841676 0.226524 0.744289 0.10394
H_ H_ 0.87538 0.191006 0.826913 0.10394
H_ H_ 0.781011 0.128717 0.557202 0.10394
H_ H_ 0.721796 0.134409 0.622473 0.10394
H_ H_ 0.600151 0.0971939 0.511254 0.10394
C_ C_ 0.667912 0.0800877 0.797857 0.18167
C_ C_ 0.713563 0.0632165 0.777675 -0.15533
C_ C_ 0.73048 0.0116823 0.776027 0.02923
C_ C_ 0.705602 0.489943 0.790912 -0.15533
C_ C_ 0.660135 -0.00246965 0.825555 0.18167
C_ C_ 0.520431 0.129415 0.768351 0.18167
C_ C_ 0.0224295 0.180346 0.734356 -0.15533
C_ C_ 0.505529 0.218946 0.760233 0.02923
C_ C_ 0.526294 0.225805 0.813071 -0.15533
C_ C_ 0.546831 0.182412 0.837566 0.18167
C_ C_ 0.502272 0.0454516 0.872272 0.69207
C_ C_ 0.98088 0.507124 0.878109 0.02923
C_ C_ 1.00123896 0.45704 0.881912 -0.15533
C_ C_ 0.973514 0.416213 0.887628 -0.15533
C_ C_ 0.921457 0.425278 0.892272 0.02923
C_ C_ 0.900564 0.475772 0.89208 -0.15533
C_ C_ 0.927649 0.517921 0.884975 0.02923
C_ C_ 0.894285 0.0740677 0.889369 0.69207
C_ C_ 0.914546 0.327245 0.885115 0.69661
C_ C_ 0.567778 0.299991 0.581267 0.18167
C_ C_ 0.523313 0.279854 0.561323 -0.15533
C_ C_ 0.517676 0.271278 0.508984 0.02923
C_ C_ 0.5618 0.278001 0.99201 -0.15533
C_ C_ 0.596398 0.305071 0.499189 0.18167
C_ C_ 0.728821 0.267037 0.624305 0.18167
C_ C_ 0.749858 0.238372 0.66613 -0.15533
C_ C_ 0.740531 0.256243 0.715078 0.02923
C_ C_ 0.714016 0.304238 0.723553 -0.15533
C_ C_ 0.689994 0.329904 0.681771 0.18167
C_ C_ 0.743216 0.370659 0.55139 0.69207
C_ C_ 0.78471 0.377872 1.00616749 0.02923
C_ C_ 0.769615 0.363934 0.95345 -0.15533
C_ C_ 0.801042 0.369443 0.91465 -0.15533
C_ C_ 0.850175 0.38633 0.927486 0.02923
C_ C_ 0.867232 0.395602 0.979648 -0.15533
C_ C_ 0.836218 0.387175 0.0178987 0.02923
C_ C_ 0.855311 0.389078 0.571208 0.69207
C_ C_ 0.861906 0.388 0.829253 0.69661
C_ C_ 0.813819 0.431853 0.68805 0.18167
C_ C_ 0.769692 0.462307 0.705697 -0.15533
C_ C_ 0.777649 0.505165 0.738185 0.02923
C_ C_ 0.823145 0.014961 0.759853 -0.15533
C_ C_ 0.867119 0.497493 0.720505 0.18167
C_ C_ 0.993386 0.356417 0.691405 0.18167
C_ C_ 0.513136 0.30578 0.725717 -0.15533
C_ C_ 0.995009 0.275541 0.731043 0.02923
C_ C_ 0.9405 0.276853 0.715442 -0.15533
C_ C_ 0.915658 0.320721 0.694812 0.18167
C_ C_ 0.99233 0.457108 0.623145 0.69207
C_ C_ 0.521746 0.994809 0.613275 0.02923
C_ C_ 0.498985 0.0466818 0.614129 -0.15533
C_ C_ 0.527714 0.0863877 0.609329 -0.15533
C_ C_ 0.579896 0.0751306 0.605192 0.02923
C_ C_ 0.598461 0.0257603 0.592911 -0.15533
C_ C_ 0.573674 0.983618 0.603292 0.02923
C_ C_ 0.599247 0.423545 0.602694 0.69207
C_ C_ 0.593975 0.173128 0.608164 0.69661
C_ C_ 0.932778 0.181283 0.931237 0.18167
C_ C_ 0.971927 0.202842 0.95887 -0.15533
C_ C_ 0.965918 0.239531 -0.0043800000000000505 0.02923
C_ C_ 0.915847 0.260525 0.515143 -0.15533
C_ C_ 0.87425 0.234772 0.978302 0.18167
C_ C_ 0.753228 0.190768 0.840247 0.18167
C_ C_ 0.731592 0.209197 0.792145 -0.15533
C_ C_ 0.763227 0.226761 0.760073 0.02923
C_ C_ 0.815703 0.221841 0.771946 -0.15533
C_ C_ 0.835987 0.204399 0.819751 0.18167
C_ C_ 0.755191 0.118608 0.950886 0.69207
C_ C_ 0.721678 0.116487 0.495922 0.02923
C_ C_ 0.741637 0.11648 0.546621 -0.15533
C_ C_ 0.709495 0.118325 0.584815 -0.15533
C_ C_ 0.658097 0.108317 0.573456 0.02923
C_ C_ 0.640373 0.0997373 0.522233 -0.15533
C_ C_ 0.67161 0.103424 0.48309 0.02923
C_ C_ 0.64496 0.114071 0.929923 0.69207
C_ C_ 0.643211 0.112414 0.668022 0.69661
C_ C_ 0.886597 0.383109 0.884182 -0.30787
C_ C_ 0.618072 0.116707 0.611492 -0.30787
N_ N_ 0.64281 0.0482382 0.820411 -0.32189
N_ N_ 0.54819 0.135714 0.812846 -0.32189
N_ N_ 0.606558 0.304961 0.552001 -0.32189
N_ N_ 0.694345 0.308621 0.633311 -0.32189
N_ N_ 0.858977 0.453289 0.693287 -0.32189
N_ N_ 0.941706 0.359829 0.684386 -0.32189
N_ N_ 0.883945 0.196341 0.941238 -0.32189
N_ N_ 0.804222 0.190709 0.852886 -0.32189
O_ O_ 0.0053626 0.0874589 0.905992 -0.63271
O_ O_ 0.541797 0.0325242 0.845546 -0.57982
O_ O_ 0.894564 0.0983101 0.847872 -0.63271
O_ O_ 0.862677 0.092431 0.920295 -0.57982
O_ O_ 0.742885 0.39559 0.596938 -0.63271
O_ O_ 0.70711 0.340081 0.535164 -0.57982
O_ O_ 0.858134 0.34955 0.599399 -0.63271
O_ O_ 0.880699 0.428352 0.588958 -0.57982
O_ O_ 0.486947 0.408549 0.59914 -0.63271
O_ O_ 0.958224 0.465075 0.656618 -0.57982
O_ O_ 0.596665 0.396634 0.641935 -0.63271
O_ O_ 0.628594 0.405515 0.567685 -0.57982
O_ O_ 0.755429 0.0840823 0.912649 -0.63271
O_ O_ 0.780732 0.158282 0.948795 -0.57982
O_ O_ 0.654274 0.153227 0.903712 -0.63271
O_ O_ 0.6075 0.0881849 0.914791 -0.57982
F_ F_ 0.94918 0.321857 0.928292 -0.20885
F_ F_ 0.941482 0.315381 0.843906 -0.20885
F_ F_ 0.883204 0.288265 0.884929 -0.20885
F_ F_ 0.827073 0.431981 0.824562 -0.20885
F_ F_ 0.836652 0.345802 0.806468 -0.20885
F_ F_ 0.902424 0.392605 0.799489 -0.20885
F_ F_ 0.56168 0.180168 0.563268 -0.20885
F_ F_ 0.567782 0.191619 0.647809 -0.20885
F_ F_ 0.632753 0.209035 0.610796 -0.20885
F_ F_ 0.673724 0.065489 0.676587 -0.20885
F_ F_ 0.671323 0.152074 0.691004 -0.20885
F_ F_ 0.604183 0.113208 0.699748 -0.20885
Zn Zn 0.586108 0.587261 0.348642 0.83971
Zn Zn 0.652494 0.849838 0.0796845 0.83971
Zn Zn 0.908574 0.914463 0.161259 0.83971
Zn Zn 0.841178 0.658136 0.409873 0.83971
H_ H_ 0.664691 0.637501 0.307625 0.10394
H_ H_ 0.741163 0.60503 0.2687 0.10394
H_ H_ 0.70267 0.947899 0.284792 0.10394
H_ H_ 0.620209 0.488492 0.304699 0.10394
H_ H_ 0.037938 0.596 0.25232 0.10394
H_ H_ 0.984313 0.665536 0.207426 0.10394
H_ H_ 0.526385 0.774664 0.332341 0.10394
H_ H_ 0.557319 0.697451 0.386416 0.10394
H_ H_ 0.530726 0.949329 0.363167 0.10394
H_ H_ 0.971773 0.883274 0.392966 0.10394
H_ H_ 0.847144 0.996634 0.400252 0.10394
H_ H_ 0.573908 0.808056 0.129415 0.10394
H_ H_ 1.00841884 0.752896 0.104319 0.10394
H_ H_ 0.54489 0.782907 0.445726 0.10394
H_ H_ 0.611561 0.8168 0.979079 0.10394
H_ H_ 0.699806 0.755721 0.0952883 0.10394
H_ H_ 0.733084 0.706647 0.170062 0.10394
H_ H_ 0.720704 0.838927 0.268851 0.10394
H_ H_ 0.673573 0.885004 0.194606 0.10394
H_ H_ 0.716608 0.867754 0.455849 0.10394
H_ H_ 0.756762 0.889852 0.383403 0.10394
H_ H_ 0.893979 0.912892 0.492242 0.10394
H_ H_ 0.800408 0.896842 0.171093 0.10394
H_ H_ 0.732582 0.943525 0.203521 0.10394
H_ H_ 0.824118 0.547236 0.280127 0.10394
H_ H_ 0.898486 1.00965211 0.225159 0.10394
H_ H_ 0.509817 0.890352 0.205678 0.10394
H_ H_ 0.557161 0.817566 0.240527 0.10394
H_ H_ 0.898084 0.75121 0.244653 0.10394
H_ H_ 0.863912 0.82634 0.191757 0.10394
H_ H_ 0.964495 0.555106 0.107648 0.10394
H_ H_ 0.508308 0.613796 0.0914075 0.10394
H_ H_ 0.638538 0.505029 0.0796756 0.10394
H_ H_ 0.948527 0.659486 0.391839 0.10394
H_ H_ 0.517989 0.683999 0.459162 0.10394
H_ H_ 0.919895 0.778403 0.0475166 0.10394
H_ H_ 0.848735 0.732497 0.495799 0.10394
H_ H_ 0.759145 0.732518 0.394 0.10394
H_ H_ 0.706304 0.770646 0.321506 0.10394
H_ H_ 0.822944 0.701016 0.225642 0.10394
H_ H_ 0.872876 0.670882 0.30258 0.10394
H_ H_ 0.775188 0.644042 0.0553689 0.10394
H_ H_ 0.71751 0.634629 0.119711 0.10394
H_ H_ 0.602924 0.599451 -0.00269551 0.10394
C_ C_ 0.670002 0.598672 0.297998 0.18167
C_ C_ 0.711764 0.581303 0.273901 -0.15533
C_ C_ 0.722934 0.527637 0.260234 0.02923
C_ C_ 0.697768 0.988834 0.295135 -0.15533
C_ C_ 0.647099 0.515595 0.297137 0.18167
C_ C_ 0.530936 0.636872 0.271188 0.18167
C_ C_ 2.6599e-05 0.67047 0.245916 -0.15533
C_ C_ 0.512918 0.729365 0.26386 0.02923
C_ C_ 0.531636 0.735997 0.315271 -0.15533
C_ C_ 0.548709 0.69287 0.343976 0.18167
C_ C_ 0.509654 0.544506 0.373831 0.69207
C_ C_ 0.97116 0.0114673 0.386045 0.02923
C_ C_ -0.011342999999999992 0.959047 0.380694 -0.15533
C_ C_ 0.956683 0.922784 0.391575 -0.15533
C_ C_ 0.904099 0.935005 0.394284 0.02923
C_ C_ 0.886318 0.986599 0.396959 -0.15533
C_ C_ 0.918211 0.0248613 0.389898 0.02923
C_ C_ 0.897272 0.574232 0.384525 0.69207
C_ C_ 0.891441 0.838499 0.39936 0.69661
C_ C_ 0.565088 0.800179 0.0903275 0.18167
C_ C_ 0.524022 0.774572 0.0713647 -0.15533
C_ C_ 0.513081 0.76317 0.0186957 0.02923
C_ C_ 0.549912 0.790377 0.486262 -0.15533
C_ C_ 0.588437 0.803505 0.00577478 0.18167
C_ C_ 0.705863 0.774217 0.133262 0.18167
C_ C_ 0.726883 0.745743 0.174478 -0.15533
C_ C_ 0.736006 0.768517 0.224166 0.02923
C_ C_ 0.712021 0.818539 0.231706 -0.15533
C_ C_ 0.686303 0.844733 0.190348 0.18167
C_ C_ 0.736445 0.869991 0.047873 0.69207
C_ C_ 0.772305 0.889359 0.514225 0.02923
C_ C_ 0.749132 0.887375 0.464066 -0.15533
C_ C_ 0.777372 0.892493 0.42436 -0.15533
C_ C_ 0.828697 0.904079 0.433341 0.02923
C_ C_ 0.851292 0.912453 0.485272 -0.15533
C_ C_ 0.823302 0.898865 0.525798 0.02923
C_ C_ 0.848587 0.893134 0.079653 0.69207
C_ C_ 0.841737 0.894406 0.337784 0.69661
C_ C_ 0.808852 0.932428 0.189687 0.18167
C_ C_ 0.769832 0.95733 0.214966 -0.15533
C_ C_ 0.777525 0.997373 0.249552 0.02923
C_ C_ 0.817677 0.519264 0.249041 -0.15533
C_ C_ 0.8617 0.99299 0.22332 0.18167
C_ C_ 0.987763 0.841415 0.195341 0.18167
C_ C_ 0.518301 0.812664 0.222221 -0.15533
C_ C_ 0.974923 0.767194 0.242673 0.02923
C_ C_ 0.923151 0.774457 0.227655 -0.15533
C_ C_ 0.904415 0.81705 0.200933 0.18167
C_ C_ 0.97959 0.956843 0.117922 0.69207
C_ C_ 0.520699 0.485829 0.107271 0.02923
C_ C_ 0.498053 0.536359 0.0983045 -0.15533
C_ C_ 0.528026 0.576254 0.0888475 -0.15533
C_ C_ 0.580702 0.5659 0.0872099 0.02923
C_ C_ 0.601492 0.514035 0.0901558 -0.15533
C_ C_ 0.572471 0.474573 0.100652 0.02923
C_ C_ 0.596714 0.925096 0.104059 0.69207
C_ C_ 0.588233 0.664399 0.102309 0.69661
C_ C_ 0.942687 0.687983 0.421881 0.18167
C_ C_ 0.984639 0.702256 0.454413 -0.15533
C_ C_ 0.978276 0.737416 0.496089 0.02923
C_ C_ 0.927651 0.743991 1.0224583 -0.15533
C_ C_ 0.885973 0.729549 0.481299 0.18167
C_ C_ 0.767597 0.719388 0.358027 0.18167
C_ C_ 0.739109 0.744311 0.315706 -0.15533
C_ C_ 0.760642 0.738231 0.267544 0.02923
C_ C_ 0.806695 0.707141 0.262747 -0.15533
C_ C_ 0.834453 0.69031 0.306038 0.18167
C_ C_ 0.760934 0.631007 0.446833 0.69207
C_ C_ 0.722711 0.622465 0.989114 0.02923
C_ C_ 0.737177 0.632668 0.0409763 -0.15533
C_ C_ 0.70439 0.62922 0.0776739 -0.15533
C_ C_ 0.656676 0.610625 0.0651091 0.02923
C_ C_ 0.642262 0.600362 0.011099 -0.15533
C_ C_ 0.674573 0.606327 0.973595 0.02923
C_ C_ 0.650147 0.607572 0.422315 0.69207
C_ C_ 0.637309 0.602805 0.15903 0.69661
C_ C_ 0.865937 0.894315 0.392924 -0.30787
C_ C_ 0.615756 0.610402 0.103052 -0.30787
N_ N_ 0.635893 0.566456 0.305171 -0.32189
N_ N_ 0.551033 0.646055 0.319856 -0.32189
N_ N_ 0.595658 0.814787 0.0553294 -0.32189
N_ N_ 0.6808 0.819297 0.142591 -0.32189
N_ N_ 0.855611 0.946168 0.198772 -0.32189
N_ N_ 0.936349 0.847553 0.183906 -0.32189
N_ N_ 0.893761 0.698063 0.438144 -0.32189
N_ N_ 0.811681 0.690666 0.351965 -0.32189
O_ O_ 0.00561584 0.584267 0.404249 -0.63271
O_ O_ 0.544348 0.535226 0.342474 -0.57982
O_ O_ 0.897322 0.597538 0.344164 -0.63271
O_ O_ 0.867036 0.592246 0.419462 -0.57982
O_ O_ 0.739914 0.892296 0.0921634 -0.63271
O_ O_ 0.702253 0.83794 0.0359846 -0.57982
O_ O_ 0.856756 0.849195 0.101999 -0.63271
O_ O_ 0.872045 0.930843 0.101011 -0.57982
O_ O_ 0.490795 0.912176 0.0982686 -0.63271
O_ O_ 0.952349 0.962327 0.157224 -0.57982
O_ O_ 0.600008 0.897735 0.144549 -0.63271
O_ O_ 0.626252 0.909627 0.0684861 -0.57982
O_ O_ 0.752958 0.61031 0.400982 -0.63271
O_ O_ 0.791121 0.666085 0.454821 -0.57982
O_ O_ 0.643935 0.650582 0.397957 -0.63271
O_ O_ 0.619125 0.573318 0.40756 -0.57982
F_ F_ 0.921035 0.834991 0.444512 -0.20885
F_ F_ 0.917889 0.818777 0.359916 -0.20885
F_ F_ 0.854912 0.804918 0.40312 -0.20885
F_ F_ 0.807511 0.937382 0.331503 -0.20885
F_ F_ 0.817117 0.850339 0.323016 -0.20885
F_ F_ 0.877347 0.898551 0.302812 -0.20885
F_ F_ 0.558246 0.668191 0.0551334 -0.20885
F_ F_ 0.554928 0.675834 0.138456 -0.20885
F_ F_ 0.62112 0.70315 0.109976 -0.20885
F_ F_ 0.676355 0.563523 0.165245 -0.20885
F_ F_ 0.653937 0.646504 0.183461 -0.20885
F_ F_ 0.60103 0.593146 0.190603 -0.20885
Zn Zn 0.584969 0.57841 0.844446 0.83971
Zn Zn 0.661733 0.846719 0.591434 0.83971
Zn Zn 0.910727 0.926013 0.662601 0.83971
Zn Zn 0.843908 0.652821 0.918038 0.83971
H_ H_ 0.658632 0.633983 0.795554 0.10394
H_ H_ 0.741189 0.604299 0.759312 0.10394
H_ H_ 0.710379 0.937715 0.79415 0.10394
H_ H_ 0.643651 0.48424 0.832481 0.10394
H_ H_ 0.0404487 0.608724 0.740015 0.10394
H_ H_ 0.9938938 0.685592 0.698831 0.10394
H_ H_ 0.536383 0.766988 0.834409 0.10394
H_ H_ 0.564783 0.688027 0.883299 0.10394
H_ H_ 0.533265 0.94538 0.872148 0.10394
H_ H_ 0.978961 0.877929 0.866094 0.10394
H_ H_ 0.858401 0.993744 0.919172 0.10394
H_ H_ 0.576709 0.813564 0.634135 0.10394
H_ H_ 0.00675213 0.764932 0.595379 0.10394
H_ H_ 0.533229 0.777733 0.946268 0.10394
H_ H_ 0.62412 0.819812 0.486811 0.10394
H_ H_ 0.725309 0.764293 0.603643 0.10394
H_ H_ 0.776761 0.720363 0.675192 0.10394
H_ H_ 0.717744 0.83815 0.778054 0.10394
H_ H_ 0.673205 0.880941 0.701368 0.10394
H_ H_ 0.73101 0.84494 0.946483 0.10394
H_ H_ 0.774097 0.874598 0.882681 0.10394
H_ H_ 0.892507 0.913041 0.99864 0.10394
H_ H_ 0.816977 0.895136 0.668682 0.10394
H_ H_ 0.734879 0.93467 0.700043 0.10394
H_ H_ 0.833145 0.557778 0.76967 0.10394
H_ H_ 0.899304 1.0138436 0.737744 0.10394
H_ H_ 0.520924 0.882655 0.693131 0.10394
H_ H_ 0.558448 0.807956 0.746062 0.10394
H_ H_ 0.916288 0.753948 0.723306 0.10394
H_ H_ 0.874989 0.823271 0.680654 0.10394
H_ H_ 0.968336 0.558964 0.622265 0.10394
H_ H_ 0.520363 0.618208 0.605274 0.10394
H_ H_ 0.648203 0.504484 0.600806 0.10394
H_ H_ 0.943228 0.659069 0.897429 0.10394
H_ H_ 0.510133 0.678065 0.946849 0.10394
H_ H_ 0.922119 0.770325 0.54703 0.10394
H_ H_ 0.848881 0.727961 1.0050935 0.10394
H_ H_ 0.742316 0.69277 0.884829 0.10394
H_ H_ 0.700679 0.736659 0.811983 0.10394
H_ H_ 0.850476 0.739664 0.75869 0.10394
H_ H_ 0.887288 0.698238 0.834172 0.10394
H_ H_ 0.784404 0.633369 0.547562 0.10394
H_ H_ 0.742304 0.606712 0.61211 0.10394
H_ H_ 0.61779 0.567781 0.507229 0.10394
C_ C_ 0.673099 0.594506 0.793221 0.18167
C_ C_ 0.722033 0.577973 0.777286 -0.15533
C_ C_ 0.736373 0.52403 0.772697 0.02923
C_ C_ 0.704582 0.977939 0.801344 -0.15533
C_ C_ 0.662301 0.51084 0.814886 0.18167
C_ C_ 0.529484 0.630137 0.772555 0.18167
C_ C_ 0.0172514 0.68835 0.737732 -0.15533
C_ C_ 0.509934 0.723372 0.766709 0.02923
C_ C_ 0.531536 0.728689 0.81635 -0.15533
C_ C_ 0.547202 0.685064 0.844482 0.18167
C_ C_ 0.503524 0.542661 0.850362 0.69207
C_ C_ 0.972668 0.00823326 0.879389 0.02923
C_ C_ -0.011507000000000045 0.956878 0.864444 -0.15533
C_ C_ 0.958048 0.919325 0.874018 -0.15533
C_ C_ 0.912668 0.929893 0.897151 0.02923
C_ C_ 0.895644 0.982927 0.907517 -0.15533
C_ C_ 0.922204 0.0206529 0.893915 0.02923
C_ C_ 0.901427 0.571167 0.883891 0.69207
C_ C_ 0.900359 0.834197 0.892157 0.69661
C_ C_ 0.57214 0.80019 0.592854 0.18167
C_ C_ 0.52708 0.778997 0.572429 -0.15533
C_ C_ 0.515234 0.774202 0.518787 0.02923
C_ C_ 0.541701 0.785301 0.986415 -0.15533
C_ C_ 0.595283 0.809416 0.510747 0.18167
C_ C_ 0.720559 0.776917 0.642453 0.18167
C_ C_ 0.748181 0.750937 0.681645 -0.15533
C_ C_ 0.748528 0.77263 0.732707 0.02923
C_ C_ 0.720464 0.821249 0.741265 -0.15533
C_ C_ 0.689188 0.843421 0.70118 0.18167
C_ C_ 0.740873 0.877125 0.555741 0.69207
C_ C_ 0.778814 0.871037 1.0122059 0.02923
C_ C_ 0.765017 0.861014 0.958839 -0.15533
C_ C_ 0.787208 0.882909 0.923182 -0.15533
C_ C_ 0.835518 0.900679 0.934963 0.02923
C_ C_ 0.854122 0.90758 0.988271 -0.15533
C_ C_ 0.824673 0.89402 0.0261622 0.02923
C_ C_ 0.8495 0.890938 0.578515 0.69207
C_ C_ 0.849493 0.891463 0.837019 0.69661
C_ C_ 0.815191 0.930063 0.690883 0.18167
C_ C_ 0.772914 0.950036 0.713463 -0.15533
C_ C_ 0.776245 -0.008719000000000032 0.750752 0.02923
C_ C_ 0.826743 0.522664 0.745804 -0.15533
C_ C_ 0.863222 0.995344 0.730561 0.18167
C_ C_ 0.985822 0.870467 0.721635 0.18167
C_ C_ 0.52133 0.806711 0.725899 -0.15533
C_ C_ 0.991085 0.780992 0.739782 0.02923
C_ C_ 0.941202 0.781224 0.716615 -0.15533
C_ C_ 0.917384 0.822467 0.69229 0.18167
C_ C_ 0.991291 0.958691 0.630377 0.69207
C_ C_ 0.522316 0.491314 0.609846 0.02923
C_ C_ 0.502437 0.542874 0.608747 -0.15533
C_ C_ 0.535481 0.580188 0.606908 -0.15533
C_ C_ 0.588677 0.567673 0.600997 0.02923
C_ C_ 0.607367 0.515225 0.599674 -0.15533
C_ C_ 0.575987 0.477158 0.603426 0.02923
C_ C_ 0.597833 0.932285 0.611055 0.69207
C_ C_ 0.605987 0.665947 0.605729 0.69661
C_ C_ 0.938944 0.6842 0.932612 0.18167
C_ C_ 0.981392 0.704345 0.960674 -0.15533
C_ C_ 0.976946 0.734839 1.00711408 0.02923
C_ C_ 0.928784 0.746365 0.511407 -0.15533
C_ C_ 0.886033 0.721768 0.993845 0.18167
C_ C_ 0.762839 0.702362 0.853605 0.18167
C_ C_ 0.741484 0.731012 0.814575 -0.15533
C_ C_ 0.770708 0.745975 0.778534 0.02923
C_ C_ 0.823864 0.733821 0.786266 -0.15533
C_ C_ 0.845558 0.704639 0.827108 0.18167
C_ C_ 0.762545 0.624526 0.951911 0.69207
C_ C_ 0.724609 0.62334 0.487132 0.02923
C_ C_ 0.745539 0.622382 0.538491 -0.15533
C_ C_ 0.719404 0.610965 0.578048 -0.15533
C_ C_ 0.66814 0.601647 0.568043 0.02923
C_ C_ 0.651832 0.590138 0.515969 -0.15533
C_ C_ 0.677123 0.605261 0.475228 0.02923
C_ C_ 0.652224 0.604782 0.918979 0.69207
C_ C_ 0.650659 0.604581 0.666036 0.69661
C_ C_ 0.874265 0.889551 0.893829 -0.30787
C_ C_ 0.628443 0.608758 0.610685 -0.30787
N_ N_ 0.643434 0.560496 0.80727 -0.32189
N_ N_ 0.55266 0.637677 0.820265 -0.32189
N_ N_ 0.606159 0.812698 0.562399 -0.32189
N_ N_ 0.692564 0.821446 0.653339 -0.32189
N_ N_ 0.858782 0.952761 0.699645 -0.32189
N_ N_ 0.940765 0.865933 0.691915 -0.32189
N_ N_ 0.894007 0.693943 0.948556 -0.32189
N_ N_ 0.814585 0.686272 0.858136 -0.32189
O_ O_ 1.0152297 0.590593 0.902542 -0.63271
O_ O_ 0.547139 0.5281 0.830697 -0.57982
O_ O_ 0.897523 0.594414 0.84131 -0.63271
O_ O_ 0.873189 0.589371 0.918749 -0.57982
O_ O_ 0.750953 0.893227 0.602108 -0.63271
O_ O_ 0.706333 0.843233 0.545946 -0.57982
O_ O_ 0.860141 0.844406 0.594828 -0.63271
O_ O_ 0.873656 0.927961 0.599842 -0.57982
O_ O_ 0.495195 0.911699 0.5956 -0.63271
O_ O_ 0.956055 0.974348 0.660743 -0.57982
O_ O_ 0.595114 0.912974 0.65708 -0.63271
O_ O_ 0.635451 0.913034 0.583132 -0.57982
O_ O_ 0.759164 0.599446 0.906578 -0.63271
O_ O_ 0.797076 0.656612 0.962362 -0.57982
O_ O_ 0.651247 0.644488 0.892681 -0.63271
O_ O_ 0.622499 0.57104 0.903417 -0.57982
F_ F_ 0.940075 0.824649 0.931645 -0.20885
F_ F_ 0.921668 0.812809 0.849473 -0.20885
F_ F_ 0.865873 0.801133 0.90234 -0.20885
F_ F_ 0.818147 0.937008 0.83467 -0.20885
F_ F_ 0.822259 0.849333 0.819882 -0.20885
F_ F_ 0.880575 0.89236 0.79914 -0.20885
F_ F_ 0.574298 0.670302 0.560715 -0.20885
F_ F_ 0.574601 0.680997 0.645511 -0.20885
F_ F_ 0.640359 0.701782 0.606523 -0.20885
F_ F_ 0.683938 0.560444 0.670261 -0.20885
F_ F_ 0.68364 0.641 0.681366 -0.20885
F_ F_ 0.613595 0.599666 0.698169 -0.20885
