_cell_length_a 26.508
_cell_length_b 26.37200000322088
_cell_length_c 26.311999743092066
_cell_angle_alpha 93.74100058972084
_cell_angle_beta 96.04100104955006
_cell_angle_gamma 83.6869992558723
_symmetry_space_group_name_H-M         'P 1'
_symmetry_Int_Tables_number            1
loop_
_symmetry_equiv_pos_as_xyz
   'x, y, z'
                         
loop_
_atom_site_label
_atom_site_type_symbol
_atom_site_fract_x 
_atom_site_fract_y
_atom_site_fract_z
_atom_site_charge
Zn Zn 0.0902584 0.0773927 0.348595 0.83971
Zn Zn 0.1606 0.341375 0.0794329 0.83971
Zn Zn 0.407204 0.421842 0.15321 0.83971
Zn Zn 0.339876 0.153717 0.414418 0.83971
H_ H_ 0.160699 0.133351 0.300223 0.10394
H_ H_ 0.244077 0.098891 0.262792 0.10394
H_ H_ 0.217761 0.448917 0.291074 0.10394
H_ H_ 0.142175 0.97933 0.334131 0.10394
H_ H_ 0.512715 0.103548 0.262943 0.10394
H_ H_ 0.477568 0.17427 0.202097 0.10394
H_ H_ 0.0256982 0.263086 0.324377 0.10394
H_ H_ 0.070874 0.195175 0.373011 0.10394
H_ H_ 0.0354059 0.443794 0.371788 0.10394
H_ H_ 0.479136 0.382202 0.394714 0.10394
H_ H_ 0.347923 0.488566 0.408141 0.10394
H_ H_ 0.0817894 0.3023 0.123713 0.10394
H_ H_ 0.503207 0.265294 0.0948645 0.10394
H_ H_ 0.0290263 0.300332 0.448447 0.10394
H_ H_ 0.112193 0.320608 0.975139 0.10394
H_ H_ 0.207105 0.24434 0.0958168 0.10394
H_ H_ 0.240482 0.196447 0.171377 0.10394
H_ H_ 0.216347 0.338025 0.265461 0.10394
H_ H_ 0.187792 0.382294 0.188259 0.10394
H_ H_ 0.209912 0.374511 0.434389 0.10394
H_ H_ 0.266098 0.377026 0.373016 0.10394
H_ H_ 0.395609 0.389597 0.487162 0.10394
H_ H_ 0.297332 0.412702 0.144282 0.10394
H_ H_ 0.222913 0.457791 0.181676 0.10394
H_ H_ 0.334342 0.0501935 0.283905 0.10394
H_ H_ 0.401854 0.493716 0.242488 0.10394
H_ H_ 0.010911 0.359739 0.17936 0.10394
H_ H_ 0.0485192 0.283803 0.215185 0.10394
H_ H_ 0.409918 0.265222 0.248923 0.10394
H_ H_ 0.371149 0.335015 0.190925 0.10394
H_ H_ 0.464976 0.0515756 0.0989343 0.10394
H_ H_ 0.0147325 0.115203 0.0955555 0.10394
H_ H_ 0.141893 0.0018009 0.0923607 0.10394
H_ H_ 0.436551 0.166224 0.385343 0.10394
H_ H_ 0.0189763 0.203865 0.437917 0.10394
H_ H_ 0.418185 0.275952 0.0510693 0.10394
H_ H_ 0.350786 0.213802 0.508856 0.10394
H_ H_ 0.224554 0.188572 0.383899 0.10394
H_ H_ 0.184245 0.225785 0.299141 0.10394
H_ H_ 0.330467 0.24041 0.255309 0.10394
H_ H_ 0.369546 0.195268 0.332815 0.10394
H_ H_ 0.283212 0.127916 0.0621706 0.10394
H_ H_ 0.229972 0.102537 0.123856 0.10394
H_ H_ 0.112007 0.0786051 0.00537359 0.10394
C_ C_ 0.172112 0.0899865 0.294955 0.18167
C_ C_ 0.220117 0.0745395 0.276934 -0.15533
C_ C_ 0.235727 0.0231844 0.272556 0.02923
C_ C_ 0.20988 0.490849 0.298344 -0.15533
C_ C_ 0.160757 0.00492697 0.314121 0.18167
C_ C_ 0.0333866 0.120815 0.269193 0.18167
C_ C_ 0.505216 0.180102 0.237498 -0.15533
C_ C_ 0.00285471 0.209932 0.257012 0.02923
C_ C_ 0.024911 0.22317 0.308046 -0.15533
C_ C_ 0.051931 0.18284 0.335616 0.18167
C_ C_ 0.00668762 0.038306 0.375253 0.69207
C_ C_ 0.467273 0.509564 0.383838 0.02923
C_ C_ 0.49245 0.45867 0.391812 -0.15533
C_ C_ 0.462317 0.419628 0.392019 -0.15533
C_ C_ 0.409854 0.429479 0.39643 0.02923
C_ C_ 0.388674 0.480527 0.404438 -0.15533
C_ C_ 0.41626 0.52104 0.3941 0.02923
C_ C_ 0.404474 0.0738348 0.383055 0.69207
C_ C_ 0.396473 0.331457 0.381128 0.69661
C_ C_ 0.072996 0.296141 0.0843849 0.18167
C_ C_ 0.0290895 0.271394 0.0654919 -0.15533
C_ C_ 0.019323 0.261556 0.0126156 0.02923
C_ C_ 0.0403888 0.296594 0.489289 -0.15533
C_ C_ 0.095867 0.299106 -7.23756e-05 0.18167
C_ C_ 0.211193 0.26512 0.131248 0.18167
C_ C_ 0.228392 0.238034 0.175959 -0.15533
C_ C_ 0.230328 0.262946 0.22542 0.02923
C_ C_ 0.21001 0.315788 0.228432 -0.15533
C_ C_ 0.1932 0.340411 0.184983 0.18167
C_ C_ 0.235459 0.383083 0.0409829 0.69207
C_ C_ 0.270262 0.373204 0.501099 0.02923
C_ C_ 0.250754 0.375239 0.448624 -0.15533
C_ C_ 0.283314 0.379562 0.412175 -0.15533
C_ C_ 0.332158 0.392752 0.425672 0.02923
C_ C_ 0.35338 0.387175 0.477102 -0.15533
C_ C_ 0.322191 0.383163 0.515772 0.02923
C_ C_ 0.34559 0.38921 0.0678492 0.69207
C_ C_ 0.344962 0.395504 0.327464 0.69661
C_ C_ 0.304153 0.438336 0.174485 0.18167
C_ C_ 0.261049 0.466607 0.19613 -0.15533
C_ C_ 0.271629 0.503047 0.237038 0.02923
C_ C_ 0.327539 0.0208737 0.252472 -0.15533
C_ C_ 0.363018 0.486458 0.228177 0.18167
C_ C_ 0.49116 0.358562 0.193319 0.18167
C_ C_ 0.00871242 0.288571 0.209533 -0.15533
C_ C_ 0.487834 0.275704 0.229462 0.02923
C_ C_ 0.43379 0.286055 0.224907 -0.15533
C_ C_ 0.410171 0.327868 0.196641 0.18167
C_ C_ 0.483926 0.461924 0.124983 0.69207
C_ C_ 0.0201425 0.989412 0.113202 0.02923
C_ C_ 0.000397318 0.040213 0.103407 -0.15533
C_ C_ 0.0311079 0.0758472 0.0973551 -0.15533
C_ C_ 0.0840395 0.0638634 0.0973704 0.02923
C_ C_ 0.103351 0.0136017 0.0974396 -0.15533
C_ C_ 0.0721517 0.975601 0.104365 0.02923
C_ C_ 0.0968984 0.426069 0.108981 0.69207
C_ C_ 0.101726 0.160443 0.109637 0.69661
C_ C_ 0.433371 0.183604 0.421495 0.18167
C_ C_ 0.474966 0.205651 0.442915 -0.15533
C_ C_ 0.473478 0.233953 0.489038 0.02923
C_ C_ 0.426847 0.25138 0.0153981 -0.15533
C_ C_ 0.386141 0.212572 0.492023 0.18167
C_ C_ 0.24881 0.192132 0.351999 0.18167
C_ C_ 0.224708 0.216979 0.306972 -0.15533
C_ C_ 0.254725 0.236185 0.271427 0.02923
C_ C_ 0.306349 0.223362 0.27909 -0.15533
C_ C_ 0.328591 0.197325 0.321753 0.18167
C_ C_ 0.258679 0.118735 0.455039 0.69207
C_ C_ 0.226921 0.118865 0.995832 0.02923
C_ C_ 0.244481 0.118901 0.0486305 -0.15533
C_ C_ 0.214105 0.107211 0.0845399 -0.15533
C_ C_ 0.163469 0.0952782 0.0685485 0.02923
C_ C_ 0.147956 0.0894339 0.0148053 -0.15533
C_ C_ 0.178288 0.103364 0.977664 0.02923
C_ C_ 0.151182 0.0982402 0.427948 0.69207
C_ C_ 0.146409 0.0920647 0.163669 0.69661
C_ C_ 0.371665 0.389229 0.384124 -0.30787
C_ C_ 0.122029 0.102788 0.108309 -0.30787
N_ N_ 0.142036 0.056239 0.309549 -0.32189
N_ N_ 0.0554428 0.133478 0.317935 -0.32189
N_ N_ 0.107271 0.303297 0.0529559 -0.32189
N_ N_ 0.192573 0.314898 0.13855 -0.32189
N_ N_ 0.353034 0.450661 0.189253 -0.32189
N_ N_ 0.438421 0.361382 0.180273 -0.32189
N_ N_ 0.389422 0.19147 0.44535 -0.32189
N_ N_ 0.299904 0.181871 0.356619 -0.32189
O_ O_ 0.50451 0.0906005 0.383378 -0.63271
O_ O_ 0.0450139 0.0307784 0.347709 -0.57982
O_ O_ 0.396924 0.0970412 0.340572 -0.63271
O_ O_ 0.377674 0.0943294 0.419416 -0.57982
O_ O_ 0.235944 0.417672 0.0796577 -0.63271
O_ O_ 0.209649 0.344349 0.0381697 -0.57982
O_ O_ 0.338971 0.352725 0.0971547 -0.63271
O_ O_ 0.372678 0.425669 0.0879674 -0.57982
O_ O_ 0.991601 0.40298 0.0983836 -0.63271
O_ O_ 0.448902 0.469294 0.157009 -0.57982
O_ O_ 0.0922921 0.400366 0.148539 -0.63271
O_ O_ 0.127089 0.405541 0.073696 -0.57982
O_ O_ 0.25694 0.0881602 0.414169 -0.63271
O_ O_ 0.289174 0.155703 0.45803 -0.57982
O_ O_ 0.150112 0.138491 0.399262 -0.63271
O_ O_ 0.119404 0.0645656 0.412021 -0.57982
F_ F_ 0.429304 0.322748 0.426211 -0.20885
F_ F_ 0.424545 0.318979 0.342171 -0.20885
F_ F_ 0.360367 0.298704 0.378335 -0.20885
F_ F_ 0.314706 0.440577 0.325166 -0.20885
F_ F_ 0.318111 0.355817 0.309402 -0.20885
F_ F_ 0.379637 0.397632 0.291301 -0.20885
F_ F_ 0.0724515 0.167572 0.0621998 -0.20885
F_ F_ 0.0734206 0.175916 0.150284 -0.20885
F_ F_ 0.138858 0.19204 0.107854 -0.20885
F_ F_ 0.184162 0.0516907 0.166308 -0.20885
F_ F_ 0.16637 0.13475 0.188253 -0.20885
F_ F_ 0.112334 0.0828553 0.198007 -0.20885
Zn Zn 0.0864819 0.0918021 0.841532 0.83971
Zn Zn 0.156183 0.351169 0.586403 0.83971
Zn Zn 0.402908 0.417721 0.654115 0.83971
Zn Zn 0.340726 0.157821 0.921081 0.83971
H_ H_ 0.172794 0.130273 0.800196 0.10394
H_ H_ 0.247518 0.0945743 0.771931 0.10394
H_ H_ 0.196204 0.449924 0.771957 0.10394
H_ H_ 0.115424 0.986755 0.811175 0.10394
H_ H_ 0.504472 0.0958593 0.763409 0.10394
H_ H_ 0.470919 0.166195 0.704313 0.10394
H_ H_ 0.0425414 0.274004 0.837922 0.10394
H_ H_ 0.0765898 0.196074 0.87286 0.10394
H_ H_ 0.0304251 0.443086 0.862504 0.10394
H_ H_ 0.478031 0.381891 0.872485 0.10394
H_ H_ 0.347119 0.490714 0.895444 0.10394
H_ H_ 0.0720226 0.31466 0.631887 0.10394
H_ H_ 0.510232 0.24846 0.586034 0.10394
H_ H_ 0.0441649 0.275541 0.938095 0.10394
H_ H_ 0.115712 0.324573 0.486853 0.10394
H_ H_ 0.228425 0.261408 0.597021 0.10394
H_ H_ 0.265087 0.212549 0.674083 0.10394
H_ H_ 0.189114 0.319808 0.774151 0.10394
H_ H_ 0.162769 0.375534 0.702898 0.10394
H_ H_ 0.212503 0.367217 0.937517 0.10394
H_ H_ 0.260678 0.387119 0.87243 0.10394
H_ H_ 0.393196 0.404392 0.985781 0.10394
H_ H_ 0.293167 0.407128 0.655273 0.10394
H_ H_ 0.2229 0.468538 0.679971 0.10394
H_ H_ 0.328098 0.0351629 0.794252 0.10394
H_ H_ 0.399725 0.502497 0.737566 0.10394
H_ H_ 0.00973389 0.394111 0.694824 0.10394
H_ H_ 0.0513281 0.313354 0.724846 0.10394
H_ H_ 0.39528 0.261725 0.743277 0.10394
H_ H_ 0.356368 0.339158 0.695593 0.10394
H_ H_ 0.466428 0.0624551 0.613424 0.10394
H_ H_ 0.0221452 0.114079 0.620626 0.10394
H_ H_ 0.150254 0.00740816 0.590583 0.10394
H_ H_ 0.437511 0.174855 0.886911 0.10394
H_ H_ 0.0112206 0.19169 0.928035 0.10394
H_ H_ 0.423252 0.264329 0.549355 0.10394
H_ H_ 0.355526 0.222129 0.0134444 0.10394
H_ H_ 0.236811 0.213786 0.89759 0.10394
H_ H_ 0.186819 0.240455 0.821917 0.10394
H_ H_ 0.323022 0.214842 0.745264 0.10394
H_ H_ 0.369495 0.176605 0.816988 0.10394
H_ H_ 0.286152 0.121485 0.557754 0.10394
H_ H_ 0.235758 0.100138 0.62053 0.10394
H_ H_ 0.110451 0.0786437 0.507454 0.10394
C_ C_ 0.177508 0.0882615 0.798853 0.18167
C_ C_ 0.222553 0.0664229 0.78017 -0.15533
C_ C_ 0.228804 0.0138666 0.770264 0.02923
C_ C_ 0.193089 0.490054 0.784289 -0.15533
C_ C_ 0.143517 0.00931691 0.798497 0.18167
C_ C_ 0.0267459 0.147509 0.760795 0.18167
C_ C_ 0.491966 0.173498 0.743192 -0.15533
C_ C_ 0.00625309 0.240699 0.767817 0.02923
C_ C_ 0.0317067 0.240492 0.818481 -0.15533
C_ C_ 0.0552287 0.194637 0.83779 0.18167
C_ C_ 0.00202477 0.0535777 0.857895 0.69207
C_ C_ 0.467639 0.511511 0.877495 0.02923
C_ C_ 0.485138 0.459422 0.867254 -0.15533
C_ C_ 0.458321 0.419055 0.874212 -0.15533
C_ C_ 0.407908 0.428913 0.887331 0.02923
C_ C_ 0.386736 0.480692 0.890744 -0.15533
C_ C_ 0.417489 0.523395 0.890814 0.02923
C_ C_ 0.397452 0.0739705 0.886734 0.69207
C_ C_ 0.398841 0.331028 0.889457 0.69661
C_ C_ 0.0664362 0.301694 0.591262 0.18167
C_ C_ 0.0279778 0.270587 0.57221 -0.15533
C_ C_ 0.013457 0.269624 0.518651 0.02923
C_ C_ 0.0487979 0.283831 0.980068 -0.15533
C_ C_ 0.0855326 0.316308 0.509972 0.18167
C_ C_ 0.216546 0.271489 0.638215 0.18167
C_ C_ 0.238949 0.246443 0.680116 -0.15533
C_ C_ 0.224175 0.258681 0.729233 0.02923
C_ C_ 0.192862 0.303612 0.735087 -0.15533
C_ C_ 0.180518 0.338121 0.694593 0.18167
C_ C_ 0.234573 0.370102 0.540994 0.69207
C_ C_ 0.271646 0.382644 0.00146934 0.02923
C_ C_ 0.250343 0.382619 0.949734 -0.15533
C_ C_ 0.279229 0.387 0.911742 -0.15533
C_ C_ 0.333174 0.393019 0.923676 0.02923
C_ C_ 0.351706 0.400013 0.974847 -0.15533
C_ C_ 0.324393 0.388575 0.0132578 0.02923
C_ C_ 0.344548 0.381034 0.570477 0.69207
C_ C_ 0.348726 0.383236 0.827664 0.69661
C_ C_ 0.302316 0.440187 0.678877 0.18167
C_ C_ 0.260709 0.470612 0.699643 -0.15533
C_ C_ 0.273123 0.503324 0.743777 0.02923
C_ C_ 0.323569 0.00642125 0.764489 -0.15533
C_ C_ 0.362937 0.489675 0.72698 0.18167
C_ C_ 0.480181 0.338527 0.67365 0.18167
C_ C_ 0.0115003 0.317614 0.719342 -0.15533
C_ C_ 0.470969 0.266327 0.724456 0.02923
C_ C_ 0.417984 0.283878 0.723545 -0.15533
C_ C_ 0.397122 0.32501 0.694904 0.18167
C_ C_ 0.484163 0.453307 0.6158 0.69207
C_ C_ 0.0231494 0.986394 0.597982 0.02923
C_ C_ 0.00559617 0.0367453 0.605358 -0.15533
C_ C_ 0.0388823 0.0749374 0.611004 -0.15533
C_ C_ 0.090137 0.0647106 0.60732 0.02923
C_ C_ 0.109415 0.0149528 0.594816 -0.15533
C_ C_ 0.0782245 0.976118 0.59472 0.02923
C_ C_ 0.0909895 0.432234 0.610847 0.69207
C_ C_ 0.104497 0.161265 0.610495 0.69661
C_ C_ 0.436878 0.191846 0.924392 0.18167
C_ C_ 0.477601 0.215809 0.948165 -0.15533
C_ C_ 0.475866 0.244787 0.995972 0.02923
C_ C_ 0.427437 0.238543 0.513623 -0.15533
C_ C_ 0.38806 0.222599 0.994741 0.18167
C_ C_ 0.251732 0.200941 0.860598 0.18167
C_ C_ 0.224447 0.219607 0.816623 -0.15533
C_ C_ 0.250393 0.231256 0.775842 0.02923
C_ C_ 0.30302 0.211336 0.775531 -0.15533
C_ C_ 0.327122 0.18687 0.816461 0.18167
C_ C_ 0.25949 0.134225 0.957653 0.69207
C_ C_ 0.225753 0.113762 0.494843 0.02923
C_ C_ 0.246729 0.112468 0.545836 -0.15533
C_ C_ 0.215514 0.105397 0.583137 -0.15533
C_ C_ 0.164551 0.101279 0.570584 0.02923
C_ C_ 0.147894 0.0915736 0.519452 -0.15533
C_ C_ 0.176175 0.100189 0.480784 0.02923
C_ C_ 0.15413 0.106882 0.924974 0.69207
C_ C_ 0.154475 0.1016 0.667577 0.69661
C_ C_ 0.372345 0.386186 0.883226 -0.30787
C_ C_ 0.127579 0.105926 0.612723 -0.30787
N_ N_ 0.141048 0.0623214 0.809359 -0.32189
N_ N_ 0.0483098 0.150009 0.810155 -0.32189
N_ N_ 0.0963783 0.319984 0.560248 -0.32189
N_ N_ 0.18732 0.317571 0.64643 -0.32189
N_ N_ 0.35187 0.451508 0.691222 -0.32189
N_ N_ 0.428203 0.351177 0.671322 -0.32189
N_ N_ 0.392527 0.195397 0.948073 -0.32189
N_ N_ 0.303262 0.184586 0.85817 -0.32189
O_ O_ 0.515796 0.088401 0.907989 -0.63271
O_ O_ 0.0433854 0.0412739 0.835212 -0.57982
O_ O_ 0.40462 0.0999603 0.847117 -0.63271
O_ O_ 0.369306 0.0939592 0.922196 -0.57982
O_ O_ 0.235958 0.401636 0.581273 -0.63271
O_ O_ 0.196382 0.342808 0.531711 -0.57982
O_ O_ 0.33776 0.34288 0.596976 -0.63271
O_ O_ 0.372402 0.417067 0.590402 -0.57982
O_ O_ 0.986053 0.416754 0.597608 -0.63271
O_ O_ 0.453905 0.458584 0.652605 -0.57982
O_ O_ 0.0891255 0.406114 0.652117 -0.63271
O_ O_ 0.125362 0.414773 0.580102 -0.57982
O_ O_ 0.260223 0.109915 0.911872 -0.63271
O_ O_ 0.29622 0.162295 0.971718 -0.57982
O_ O_ 0.155984 0.147686 0.89903 -0.63271
O_ O_ 0.113968 0.0805016 0.908624 -0.57982
F_ F_ 0.433378 0.333204 0.935181 -0.20885
F_ F_ 0.42845 0.309087 0.851447 -0.20885
F_ F_ 0.36488 0.298557 0.900024 -0.20885
F_ F_ 0.312734 0.424942 0.814267 -0.20885
F_ F_ 0.320553 0.343505 0.812765 -0.20885
F_ F_ 0.384768 0.38135 0.792959 -0.20885
F_ F_ 0.0691296 0.167708 0.568229 -0.20885
F_ F_ 0.079219 0.178389 0.651795 -0.20885
F_ F_ 0.142982 0.193809 0.606014 -0.20885
F_ F_ 0.179275 0.0541267 0.669079 -0.20885
F_ F_ 0.190803 0.135314 0.685865 -0.20885
F_ F_ 0.119861 0.103989 0.704452 -0.20885
Zn Zn 0.0904472 0.583133 0.352848 0.83971
Zn Zn 0.156958 0.847784 0.08313 0.83971
Zn Zn 0.410981 0.916838 0.153778 0.83971
Zn Zn 0.333108 0.659817 0.422987 0.83971
H_ H_ 0.169087 0.632803 0.304403 0.10394
H_ H_ 0.239183 0.600581 0.251349 0.10394
H_ H_ 0.224534 0.948475 0.303991 0.10394
H_ H_ 0.141143 0.485489 0.33598 0.10394
H_ H_ 0.528061 0.592851 0.252368 0.10394
H_ H_ 0.483203 0.661046 0.200217 0.10394
H_ H_ 0.0309332 0.767375 0.328776 0.10394
H_ H_ 0.05953 0.697175 0.383811 0.10394
H_ H_ 0.025607 0.936446 0.348873 0.10394
H_ H_ 0.480068 0.880053 0.376763 0.10394
H_ H_ 0.355976 0.9957 0.402367 0.10394
H_ H_ 0.0823551 0.797903 0.12645 0.10394
H_ H_ 0.507587 0.770964 0.0989952 0.10394
H_ H_ 0.053257 0.773962 0.442684 0.10394
H_ H_ 0.125093 0.805702 0.977975 0.10394
H_ H_ 0.221213 0.751275 0.0990191 0.10394
H_ H_ 0.2578 0.703056 0.167462 0.10394
H_ H_ 0.212464 0.835305 0.268893 0.10394
H_ H_ 0.174414 0.876075 0.193526 0.10394
H_ H_ 0.223054 0.885166 0.452653 0.10394
H_ H_ 0.265141 0.899407 0.383802 0.10394
H_ H_ 0.401609 0.907804 0.492611 0.10394
H_ H_ 0.307866 0.900452 0.167346 0.10394
H_ H_ 0.236034 0.942215 0.205849 0.10394
H_ H_ 0.332738 0.540851 0.283398 0.10394
H_ H_ 0.40616 0.0028565 0.234975 0.10394
H_ H_ 0.0179184 0.87555 0.187205 0.10394
H_ H_ 0.0589408 0.796262 0.224007 0.10394
H_ H_ 0.417074 0.741764 0.213384 0.10394
H_ H_ 0.375257 0.826721 0.195607 0.10394
H_ H_ 0.459043 0.564404 0.109006 0.10394
H_ H_ 0.00766178 0.614818 0.0840196 0.10394
H_ H_ 0.140557 0.503671 0.0873913 0.10394
H_ H_ 0.434446 0.663999 0.397493 0.10394
H_ H_ 0.0196755 0.681575 0.455245 0.10394
H_ H_ 0.421095 0.77933 0.0526074 0.10394
H_ H_ 0.350264 0.736023 0.512797 0.10394
H_ H_ 0.233107 0.709912 0.388769 0.10394
H_ H_ 0.191814 0.741936 0.305396 0.10394
H_ H_ 0.337558 0.726338 0.248599 0.10394
H_ H_ 0.376394 0.680438 0.321469 0.10394
H_ H_ 0.282286 0.621281 0.0652533 0.10394
H_ H_ 0.225189 0.621061 0.130667 0.10394
H_ H_ 0.104895 0.591488 0.00794683 0.10394
C_ C_ 0.174034 0.593405 0.294732 0.18167
C_ C_ 0.217213 0.574407 0.271547 -0.15533
C_ C_ 0.233439 0.523258 0.270743 0.02923
C_ C_ 0.209829 0.98896 0.30025 -0.15533
C_ C_ 0.16683 0.510855 0.323255 0.18167
C_ C_ 0.0281284 0.631234 0.273811 0.18167
C_ C_ 0.509823 0.67028 0.235768 -0.15533
C_ C_ 0.0135679 0.721433 0.263389 0.02923
C_ C_ 0.0354874 0.729523 0.312678 -0.15533
C_ C_ 0.0497665 0.688302 0.342194 0.18167
C_ C_ 0.00808976 0.546128 0.365762 0.69207
C_ C_ 0.47603 0.00477181 0.364179 0.02923
C_ C_ 0.494222 0.953072 0.367286 -0.15533
C_ C_ 0.460983 0.917615 0.372623 -0.15533
C_ C_ 0.413209 0.931229 0.387744 0.02923
C_ C_ 0.396743 0.984189 0.396017 -0.15533
C_ C_ 0.428015 0.0207125 0.383355 0.02923
C_ C_ 0.388295 0.572341 0.390985 0.69207
C_ C_ 0.402877 0.833563 0.3988 0.69661
C_ C_ 0.0707707 0.80038 0.0870522 0.18167
C_ C_ 0.0267356 0.77865 0.0681744 -0.15533
C_ C_ 0.0127317 0.771533 0.0149501 0.02923
C_ C_ 0.0591647 0.779958 0.485174 -0.15533
C_ C_ 0.0981871 0.796799 0.00391713 0.18167
C_ C_ 0.220682 0.770233 0.135366 0.18167
C_ C_ 0.238532 0.742592 0.176486 -0.15533
C_ C_ 0.238549 0.765257 0.226563 0.02923
C_ C_ 0.216407 0.815317 0.231982 -0.15533
C_ C_ 0.194706 0.840794 0.187586 0.18167
C_ C_ 0.242568 0.865733 0.0486753 0.69207
C_ C_ 0.282999 0.884668 0.509773 0.02923
C_ C_ 0.26106 0.892392 0.461225 -0.15533
C_ C_ 0.286708 0.903566 0.422221 -0.15533
C_ C_ 0.340811 0.897645 0.432531 0.02923
C_ C_ 0.360818 0.902066 0.483405 -0.15533
C_ C_ 0.333244 0.89111 0.522505 0.02923
C_ C_ 0.35447 0.887219 0.0739246 0.69207
C_ C_ 0.346485 0.885628 0.333539 0.69661
C_ C_ 0.313964 0.934715 0.186887 0.18167
C_ C_ 0.273831 0.956683 0.212849 -0.15533
C_ C_ 0.278932 1.000815666 0.24592 0.02923
C_ C_ 0.32312 0.511164 0.254361 -0.15533
C_ C_ 0.3698 0.993083 0.229397 0.18167
C_ C_ 0.496762 0.849413 0.192146 0.18167
C_ C_ 0.0208202 0.803117 0.222177 -0.15533
C_ C_ 0.489545 0.765508 0.22439 0.02923
C_ C_ 0.439638 0.770668 0.205054 -0.15533
C_ C_ 0.416085 0.818627 0.190965 0.18167
C_ C_ 0.492271 0.947861 0.119994 0.69207
C_ C_ 0.0201456 0.489967 0.115291 0.02923
C_ C_ -0.003866999999999954 0.538258 0.10247 -0.15533
C_ C_ 0.0277094 0.578275 0.0948765 -0.15533
C_ C_ 0.0809087 0.566482 0.0939153 0.02923
C_ C_ 0.0988247 0.516514 0.0926688 -0.15533
C_ C_ 0.0708438 0.477356 0.103836 0.02923
C_ C_ 0.0950134 0.922496 0.102397 0.69207
C_ C_ 0.0895965 0.662413 0.109729 0.69661
C_ C_ 0.433195 0.682733 0.43368 0.18167
C_ C_ 0.47578 0.703814 0.454092 -0.15533
C_ C_ 0.472781 0.742621 0.49309 0.02923
C_ C_ 0.425884 0.75576 0.0190383 -0.15533
C_ C_ 0.385345 0.727017 0.495318 0.18167
C_ C_ 0.255536 0.706494 0.355285 0.18167
C_ C_ 0.231649 0.727658 0.309851 -0.15533
C_ C_ 0.261243 0.735632 0.270412 0.02923
C_ C_ 0.312223 0.721965 0.277825 -0.15533
C_ C_ 0.335128 0.695897 0.321181 0.18167
C_ C_ 0.258952 0.631199 0.456869 0.69207
C_ C_ 0.223683 0.624342 1.000718296 0.02923
C_ C_ 0.2423 0.627191 0.0529993 -0.15533
C_ C_ 0.208347 0.618429 0.0887041 -0.15533
C_ C_ 0.158647 0.605119 0.0724494 0.02923
C_ C_ 0.143315 0.597206 0.0208047 -0.15533
C_ C_ 0.172551 0.615305 0.98574 0.02923
C_ C_ 0.151376 0.613192 0.43065 0.69207
C_ C_ 0.139854 0.596646 0.164437 0.69661
C_ C_ 0.376345 0.889403 0.38903 -0.30787
C_ C_ 0.116855 0.607656 0.109434 -0.30787
N_ N_ 0.150704 0.56231 0.322135 -0.32189
N_ N_ 0.0526647 0.639484 0.321285 -0.32189
N_ N_ 0.107258 0.806769 0.0541802 -0.32189
N_ N_ 0.193303 0.817425 0.140732 -0.32189
N_ N_ 0.361735 0.951685 0.196846 -0.32189
N_ N_ 0.443908 0.85719 0.182759 -0.32189
N_ N_ 0.388233 0.695135 0.452767 -0.32189
N_ N_ 0.30695 0.691751 0.362126 -0.32189
O_ O_ 0.503703 0.589462 0.401797 -0.63271
O_ O_ 0.0486498 0.531851 0.342762 -0.57982
O_ O_ 0.390133 0.59517 0.349193 -0.63271
O_ O_ 0.358408 0.592831 0.42528 -0.57982
O_ O_ 0.247799 0.887366 0.0955256 -0.63271
O_ O_ 0.204696 0.838012 0.037075 -0.57982
O_ O_ 0.355548 0.847509 0.100023 -0.63271
O_ O_ 0.383177 0.922454 0.0924154 -0.57982
O_ O_ 0.989928 0.904429 0.0986014 -0.63271
O_ O_ 0.459939 0.96156 0.152092 -0.57982
O_ O_ 0.0993558 0.898146 0.144212 -0.63271
O_ O_ 0.128803 0.908807 0.0686381 -0.57982
O_ O_ 0.25873 0.611565 0.409967 -0.63271
O_ O_ 0.291523 0.66364 0.469987 -0.57982
O_ O_ 0.153765 0.653275 0.402749 -0.63271
O_ O_ 0.113002 0.585886 0.416883 -0.57982
F_ F_ 0.445845 0.836115 0.435764 -0.20885
F_ F_ 0.421565 0.808428 0.35582 -0.20885
F_ F_ 0.371095 0.80048 0.412354 -0.20885
F_ F_ 0.311509 0.926134 0.327598 -0.20885
F_ F_ 0.323481 0.840524 0.323387 -0.20885
F_ F_ 0.378791 0.886728 0.294779 -0.20885
F_ F_ 0.0599282 0.67109 0.0656935 -0.20885
F_ F_ 0.0578279 0.669759 0.147445 -0.20885
F_ F_ 0.123847 0.698905 0.1181 -0.20885
F_ F_ 0.175414 0.553938 0.165541 -0.20885
F_ F_ 0.161462 0.637578 0.189271 -0.20885
F_ F_ 0.103019 0.587144 0.195112 -0.20885
Zn Zn 0.0835199 0.588947 0.848616 0.83971
Zn Zn 0.167644 0.845229 0.582667 0.83971
Zn Zn 0.412788 0.920859 0.65976 0.83971
Zn Zn 0.337161 0.659065 0.924419 0.83971
H_ H_ 0.17307 0.631251 0.825019 0.10394
H_ H_ 0.254709 0.594956 0.795961 0.10394
H_ H_ 0.193493 0.944757 0.769534 0.10394
H_ H_ 0.12192 0.484583 0.809472 0.10394
H_ H_ 0.509856 0.59839 0.765801 0.10394
H_ H_ 0.475135 0.673971 0.713579 0.10394
H_ H_ 0.0304268 0.771964 0.835305 0.10394
H_ H_ 0.0659098 0.694336 0.880958 0.10394
H_ H_ 0.0229079 0.951278 0.842884 0.10394
H_ H_ 0.48851 0.884971 0.90289 0.10394
H_ H_ 0.350888 0.993938 0.896517 0.10394
H_ H_ 0.0891636 0.806505 0.630056 0.10394
H_ H_ 0.508711 0.762283 0.588743 0.10394
H_ H_ 0.0513407 0.761126 0.943689 0.10394
H_ H_ 0.132365 0.80833 0.476163 0.10394
H_ H_ 0.222562 0.74915 0.600612 0.10394
H_ H_ 0.265311 0.702469 0.680747 0.10394
H_ H_ 0.212253 0.83559 0.775107 0.10394
H_ H_ 0.184131 0.885176 0.693786 0.10394
H_ H_ 0.225628 0.848082 0.944916 0.10394
H_ H_ 0.274208 0.861024 0.877136 0.10394
H_ H_ 0.396338 0.90754 0.989188 0.10394
H_ H_ 0.313469 0.901913 0.659177 0.10394
H_ H_ 0.23581 0.945834 0.688418 0.10394
H_ H_ 0.333407 0.532243 0.792849 0.10394
H_ H_ 0.401785 0.00170264 0.7467 0.10394
H_ H_ 0.0105245 0.886922 0.697799 0.10394
H_ H_ 0.0470135 0.817392 0.756606 0.10394
H_ H_ 0.408518 0.757663 0.743086 0.10394
H_ H_ 0.370908 0.838447 0.70682 0.10394
H_ H_ 0.463449 0.555386 0.627894 0.10394
H_ H_ 0.0195451 0.631552 0.616422 0.10394
H_ H_ 0.138641 0.507173 0.585993 0.10394
H_ H_ 0.438619 0.666897 0.898622 0.10394
H_ H_ 0.012126 0.679778 0.956981 0.10394
H_ H_ 0.422705 0.777241 0.55118 0.10394
H_ H_ 0.346142 0.734733 0.0114187 0.10394
H_ H_ 0.232708 0.706236 0.88972 0.10394
H_ H_ 0.194868 0.73697 0.80531 0.10394
H_ H_ 0.339892 0.72737 0.752226 0.10394
H_ H_ 0.379973 0.696275 0.837722 0.10394
H_ H_ 0.289897 0.608712 0.553541 0.10394
H_ H_ 0.239223 0.601033 0.623135 0.10394
H_ H_ 0.107968 0.597854 0.50967 0.10394
C_ C_ 0.177542 0.591556 0.812869 0.18167
C_ C_ 0.223817 0.571547 0.795646 -0.15533
C_ C_ 0.229001 0.522093 0.775769 0.02923
C_ C_ 0.189924 0.985446 0.778829 -0.15533
C_ C_ 0.151003 0.508939 0.806914 0.18167
C_ C_ 0.0398496 0.638865 0.765004 0.18167
C_ C_ 0.499901 0.677984 0.748859 -0.15533
C_ C_ 0.0109639 0.729905 0.763623 0.02923
C_ C_ 0.0264511 0.732293 0.817176 -0.15533
C_ C_ 0.047341 0.69009 0.841203 0.18167
C_ C_ 0.00813473 0.544712 0.870848 0.69207
C_ C_ 0.47629 0.0111216 0.885677 0.02923
C_ C_ 0.497719 0.960445 0.887165 -0.15533
C_ C_ 0.467484 0.921424 0.893534 -0.15533
C_ C_ 0.413976 0.930071 0.892787 0.02923
C_ C_ 0.392783 0.981105 0.891384 -0.15533
C_ C_ 0.423457 0.0224249 0.888113 0.02923
C_ C_ 0.392448 0.576092 0.891159 0.69207
C_ C_ 0.410213 0.829145 0.892021 0.69661
C_ C_ 0.0808104 0.797832 0.589157 0.18167
C_ C_ 0.0343761 0.780601 0.569671 -0.15533
C_ C_ 0.0237736 0.768651 0.517338 0.02923
C_ C_ 0.0536654 0.773733 0.98321 -0.15533
C_ C_ 0.103619 0.801927 0.502603 0.18167
C_ C_ 0.222877 0.769916 0.640657 0.18167
C_ C_ 0.245749 0.742233 0.684339 -0.15533
C_ C_ 0.242345 0.767358 0.731161 0.02923
C_ C_ 0.216084 0.817093 0.737056 -0.15533
C_ C_ 0.198069 0.844437 0.691763 0.18167
C_ C_ 0.251122 0.869636 0.548759 0.69207
C_ C_ 0.276856 0.873503 0.00842642 0.02923
C_ C_ 0.260047 0.865517 0.956587 -0.15533
C_ C_ 0.288366 0.872921 0.916434 -0.15533
C_ C_ 0.339884 0.889545 0.92778 0.02923
C_ C_ 0.357654 0.896917 0.980943 -0.15533
C_ C_ 0.328385 0.89011 0.0212409 0.02923
C_ C_ 0.359301 0.884451 0.576507 0.69207
C_ C_ 0.355822 0.885463 0.832991 0.69661
C_ C_ 0.31624 0.932525 0.6878 0.18167
C_ C_ 0.273163 0.954854 0.707827 -0.15533
C_ C_ 0.277183 0.988985 0.749577 0.02923
C_ C_ 0.322981 0.511244 0.757514 -0.15533
C_ C_ 0.36605 0.987641 0.737467 0.18167
C_ C_ 0.494217 0.851079 0.697663 0.18167
C_ C_ 0.00991929 0.816593 0.734074 -0.15533
C_ C_ 0.486692 0.771731 0.737639 0.02923
C_ C_ 0.433822 0.784155 0.73404 -0.15533
C_ C_ 0.412931 0.828236 0.707203 0.18167
C_ C_ 0.487293 0.957797 0.628818 0.69207
C_ C_ 0.0185436 0.497996 0.618291 0.02923
C_ C_ 1.00284319 0.552512 0.624814 -0.15533
C_ C_ 0.0356346 0.590896 0.617274 -0.15533
C_ C_ 0.0870276 0.57507 0.606695 0.02923
C_ C_ 0.100174 0.521799 0.595804 -0.15533
C_ C_ 0.0691018 0.484782 0.60873 0.02923
C_ C_ 0.10288 0.92301 0.598282 0.69207
C_ C_ 0.114467 0.669379 0.617956 0.69661
C_ C_ 0.438941 0.685755 0.937362 0.18167
C_ C_ 0.479672 0.710464 0.959967 -0.15533
C_ C_ 0.476283 0.744094 0.0036656 0.02923
C_ C_ 0.428086 0.751605 0.517236 -0.15533
C_ C_ 0.383017 0.732189 0.993704 0.18167
C_ C_ 0.257536 0.71163 0.860378 0.18167
C_ C_ 0.236265 0.733578 0.816173 -0.15533
C_ C_ 0.266552 0.742478 0.778874 0.02923
C_ C_ 0.318822 0.725915 0.783856 -0.15533
C_ C_ 0.34021 0.701441 0.829864 0.18167
C_ C_ 0.25693 0.63549 0.959856 0.69207
C_ C_ 0.227862 0.616871 0.494974 0.02923
C_ C_ 0.250115 0.610163 0.546149 -0.15533
C_ C_ 0.220073 0.603394 0.584034 -0.15533
C_ C_ 0.167503 0.600777 0.572537 0.02923
C_ C_ 0.147418 0.597625 0.521513 -0.15533
C_ C_ 0.177148 0.607755 0.482048 0.02923
C_ C_ 0.153187 0.615578 0.929272 0.69207
C_ C_ 0.153463 0.596996 0.670492 0.69661
C_ C_ 0.381983 0.883806 0.888875 -0.30787
C_ C_ 0.129704 0.611637 0.616025 -0.30787
N_ N_ 0.139072 0.560612 0.812357 -0.32189
N_ N_ 0.0565239 0.645312 0.815922 -0.32189
N_ N_ 0.113456 0.811512 0.555502 -0.32189
N_ N_ 0.198219 0.818154 0.644636 -0.32189
N_ N_ 0.362083 0.947241 0.702769 -0.32189
N_ N_ 0.442499 0.8617 0.693803 -0.32189
N_ N_ 0.391116 0.69862 0.952356 -0.32189
N_ N_ 0.307767 0.687916 0.862975 -0.32189
O_ O_ 0.498179 0.597517 0.896118 -0.63271
O_ O_ 0.0409911 0.538577 0.836414 -0.57982
O_ O_ 0.388552 0.600803 0.847243 -0.63271
O_ O_ 0.364733 0.594308 0.929001 -0.57982
O_ O_ 0.254514 0.891546 0.59471 -0.63271
O_ O_ 0.216688 0.83616 0.536161 -0.57982
O_ O_ 0.359567 0.842669 0.601528 -0.63271
O_ O_ 0.380568 0.922991 0.596693 -0.57982
O_ O_ 0.995173 0.90023 0.589315 -0.63271
O_ O_ 0.454598 0.967998 0.663343 -0.57982
O_ O_ 0.0998431 0.898838 0.638645 -0.63271
O_ O_ 0.144818 0.909594 0.575827 -0.57982
O_ O_ 0.257083 0.605326 0.917531 -0.63271
O_ O_ 0.293876 0.664561 0.970755 -0.57982
O_ O_ 0.151728 0.658751 0.906651 -0.63271
O_ O_ 0.121772 0.582958 0.910815 -0.57982
F_ F_ 0.439909 0.829398 0.937311 -0.20885
F_ F_ 0.438802 0.821989 0.851368 -0.20885
F_ F_ 0.380593 0.790347 0.891596 -0.20885
F_ F_ 0.311888 0.92335 0.829789 -0.20885
F_ F_ 0.339 0.837823 0.817489 -0.20885
F_ F_ 0.388391 0.893098 0.798609 -0.20885
F_ F_ 0.0845387 0.680754 0.571671 -0.20885
F_ F_ 0.0846855 0.687552 0.656198 -0.20885
F_ F_ 0.15474 0.702554 0.621291 -0.20885
F_ F_ 0.175376 0.547197 0.67049 -0.20885
F_ F_ 0.188236 0.63028 0.69248 -0.20885
F_ F_ 0.118746 0.595291 0.704204 -0.20885
Zn Zn 0.589727 0.0855688 0.342135 0.83971
Zn Zn 0.65744 0.35342 0.0925415 0.83971
Zn Zn 0.907343 0.412378 0.16322 0.83971
Zn Zn 0.84509 0.148576 0.411979 0.83971
H_ H_ 0.679661 0.136391 0.30674 0.10394
H_ H_ 0.761686 0.0986584 0.274228 0.10394
H_ H_ 0.708341 0.451927 0.28994 0.10394
H_ H_ 0.635226 0.989301 0.31857 0.10394
H_ H_ 0.0324991 0.0819934 0.255843 0.10394
H_ H_ 0.99243 0.150072 0.198295 0.10394
H_ H_ 0.552109 0.276333 0.317433 0.10394
H_ H_ 0.576754 0.19962 0.370223 0.10394
H_ H_ 0.533011 0.450045 0.39112 0.10394
H_ H_ 0.987234 0.379247 0.382 0.10394
H_ H_ 0.85714 0.492598 0.409519 0.10394
H_ H_ 0.580183 0.309447 0.132229 0.10394
H_ H_ 1.00523699 0.257755 0.0914688 0.10394
H_ H_ 0.53418 0.297426 0.441817 0.10394
H_ H_ 0.624276 0.319986 0.983946 0.10394
H_ H_ 0.700056 0.259139 0.106581 0.10394
H_ H_ 0.742063 0.200857 0.174945 0.10394
H_ H_ 0.718887 0.331556 0.276794 0.10394
H_ H_ 0.679851 0.384873 0.202333 0.10394
H_ H_ 0.715997 0.375883 0.447593 0.10394
H_ H_ 0.771995 0.373425 0.382855 0.10394
H_ H_ 0.897216 0.402685 0.492266 0.10394
H_ H_ 0.800434 0.407927 0.158138 0.10394
H_ H_ 0.728073 0.456033 0.193414 0.10394
H_ H_ 0.838144 0.0513908 0.269461 0.10394
H_ H_ 0.905611 0.500236 0.238498 0.10394
H_ H_ 0.509315 0.394669 0.206305 0.10394
H_ H_ 0.555662 0.311731 0.222275 0.10394
H_ H_ 0.901964 0.241497 0.237345 0.10394
H_ H_ 0.863261 0.316543 0.191297 0.10394
H_ H_ 0.959095 0.0510999 0.104904 0.10394
H_ H_ 0.51913 0.112821 0.0866668 0.10394
H_ H_ 0.653196 0.00263874 0.0961431 0.10394
H_ H_ 0.944953 0.163629 0.389962 0.10394
H_ H_ 0.512059 0.193037 0.429693 0.10394
H_ H_ 0.923329 0.277895 0.0432064 0.10394
H_ H_ 0.841652 0.23423 0.492889 0.10394
H_ H_ 0.743474 0.185158 0.386069 0.10394
H_ H_ 0.702351 0.246388 0.324052 0.10394
H_ H_ 0.831381 0.211404 0.238685 0.10394
H_ H_ 0.877768 0.176309 0.314299 0.10394
H_ H_ 0.787516 0.134396 0.0521879 0.10394
H_ H_ 0.733774 0.11228 0.118786 0.10394
H_ H_ 0.60909 0.0938215 0.00562829 0.10394
C_ C_ 0.683842 0.0968063 0.296435 0.18167
C_ C_ 0.729524 0.0765802 0.276362 -0.15533
C_ C_ 0.737438 0.0249475 0.266891 0.02923
C_ C_ 0.69905 0.492544 0.292928 -0.15533
C_ C_ 0.660709 0.01594 0.305456 0.18167
C_ C_ 0.530215 0.139346 0.266127 0.18167
C_ C_ 0.00609973 0.157615 0.239808 -0.15533
C_ C_ 0.514814 0.231839 0.256614 0.02923
C_ C_ 0.544728 0.236895 0.303252 -0.15533
C_ C_ 0.561119 0.195379 0.332498 0.18167
C_ C_ 0.51259 0.0440862 0.361996 0.69207
C_ C_ 0.975336 0.506846 0.379608 0.02923
C_ C_ 0.997412 0.45531 0.382775 -0.15533
C_ C_ 0.966976 0.416549 0.389661 -0.15533
C_ C_ 0.91484 0.426527 0.39549 0.02923
C_ C_ 0.896235 0.478834 0.405811 -0.15533
C_ C_ 0.9259 0.518643 0.395315 0.02923
C_ C_ 0.894559 0.0644728 0.373998 0.69207
C_ C_ 0.900104 0.329228 0.385732 0.69661
C_ C_ 0.574611 0.299954 0.0909487 0.18167
C_ C_ 0.528355 0.281456 0.0713054 -0.15533
C_ C_ 0.517733 0.276555 0.0178062 0.02923
C_ C_ 0.546913 0.287808 0.480743 -0.15533
C_ C_ 0.597472 0.3106 0.00928353 0.18167
C_ C_ 0.707363 0.27335 0.142345 0.18167
C_ C_ 0.728132 0.241625 0.181034 -0.15533
C_ C_ 0.733208 0.262446 0.230621 0.02923
C_ C_ 0.715963 0.314109 0.23923 -0.15533
C_ C_ 0.693491 0.345409 0.198326 0.18167
C_ C_ 0.741934 0.374869 0.0501154 0.69207
C_ C_ 0.775667 0.376366 0.509427 0.02923
C_ C_ 0.756507 0.374793 0.458047 -0.15533
C_ C_ 0.786368 0.385363 0.420718 -0.15533
C_ C_ 0.837341 0.394758 0.430528 0.02923
C_ C_ 0.855701 0.397262 0.482166 -0.15533
C_ C_ 0.82735 0.388673 0.520906 0.02923
C_ C_ 0.853645 0.377577 0.0712927 0.69207
C_ C_ 0.850415 0.39135 0.330602 0.69661
C_ C_ 0.806407 0.440802 0.181941 0.18167
C_ C_ 0.764934 0.466806 0.205655 -0.15533
C_ C_ 0.77437 0.502525 0.246117 0.02923
C_ C_ 0.830647 0.015806 0.246794 -0.15533
C_ C_ 0.865462 0.494323 0.228514 0.18167
C_ C_ 0.986278 0.334113 0.189466 0.18167
C_ C_ 0.516161 0.313286 0.212747 -0.15533
C_ C_ 0.979753 0.252205 0.226195 0.02923
C_ C_ 0.926244 0.265936 0.223845 -0.15533
C_ C_ 0.905025 0.312519 0.204538 0.18167
C_ C_ 0.989123 0.44886 0.125191 0.69207
C_ C_ 0.526247 0.986583 0.1073 0.02923
C_ C_ 0.506041 0.0378299 0.100858 -0.15533
C_ C_ 0.538929 0.0750664 0.0977616 -0.15533
C_ C_ 0.591604 0.0630781 0.100366 0.02923
C_ C_ 0.611107 0.0127827 0.101923 -0.15533
C_ C_ 0.579743 0.974519 0.104947 0.02923
C_ C_ 0.592577 0.433231 0.126706 0.69207
C_ C_ 0.600898 0.161516 0.104972 0.69661
C_ C_ 0.93917 0.187162 0.425294 0.18167
C_ C_ 0.979844 0.210289 0.451385 -0.15533
C_ C_ 0.971405 0.239956 0.496665 0.02923
C_ C_ 0.926154 0.248267 0.0123062 -0.15533
C_ C_ 0.882862 0.223808 0.484221 0.18167
C_ C_ 0.764249 0.196209 0.355912 0.18167
C_ C_ 0.735977 0.223332 0.316346 -0.15533
C_ C_ 0.759368 0.232488 0.273242 0.02923
C_ C_ 0.812433 0.214835 0.271965 -0.15533
C_ C_ 0.837098 0.188253 0.314643 0.18167
C_ C_ 0.769648 0.118467 0.447394 0.69207
C_ C_ 0.72658 0.124432 0.989113 0.02923
C_ C_ 0.747619 0.124915 0.0408253 -0.15533
C_ C_ 0.718532 0.11373 0.0790512 -0.15533
C_ C_ 0.668098 0.101837 0.0675986 0.02923
C_ C_ 0.648982 0.0987327 0.0149191 -0.15533
C_ C_ 0.676071 0.114123 0.97707 0.02923
C_ C_ 0.657158 0.102102 0.421251 0.69207
C_ C_ 0.650731 0.101138 0.162411 0.69661
C_ C_ 0.876799 0.38486 0.388055 -0.30787
C_ C_ 0.628371 0.106405 0.106031 -0.30787
N_ N_ 0.646171 0.066617 0.303896 -0.32189
N_ N_ 0.556333 0.147448 0.312467 -0.32189
N_ N_ 0.607925 0.313738 0.060644 -0.32189
N_ N_ 0.692425 0.32195 0.150011 -0.32189
N_ N_ 0.85561 0.451351 0.197391 -0.32189
N_ N_ 0.935445 0.347016 0.189701 -0.32189
N_ N_ 0.893384 0.190105 0.444621 -0.32189
N_ N_ 0.813426 0.178753 0.354297 -0.32189
O_ O_ 0.00176367 0.0797951 0.405044 -0.63271
O_ O_ 0.550956 0.0321426 0.332944 -0.57982
O_ O_ 0.897551 0.0894907 0.333423 -0.63271
O_ O_ 0.882374 0.0888772 0.41616 -0.57982
O_ O_ 0.739851 0.408909 0.0856035 -0.63271
O_ O_ 0.704337 0.342787 0.0439278 -0.57982
O_ O_ 0.847212 0.338221 0.0959973 -0.63271
O_ O_ 0.879172 0.412231 0.0969473 -0.57982
O_ O_ 0.487087 0.418986 0.0967492 -0.63271
O_ O_ 0.955273 0.455866 0.156804 -0.57982
O_ O_ 0.595253 0.408251 0.169002 -0.63271
O_ O_ 0.615727 0.412197 0.0883346 -0.57982
O_ O_ 0.773462 0.0896753 0.405729 -0.63271
O_ O_ 0.800436 0.153446 0.458899 -0.57982
O_ O_ 0.658889 0.142372 0.396747 -0.63271
O_ O_ 0.62429 0.0697437 0.405045 -0.57982
F_ F_ 0.930966 0.321593 0.432498 -0.20885
F_ F_ 0.928274 0.316931 0.344193 -0.20885
F_ F_ 0.864401 0.296737 0.381442 -0.20885
F_ F_ 0.820164 0.436168 0.328132 -0.20885
F_ F_ 0.821238 0.352893 0.3105 -0.20885
F_ F_ 0.885 0.39484 0.296388 -0.20885
F_ F_ 0.568354 0.168025 0.057947 -0.20885
F_ F_ 0.566763 0.172932 0.141161 -0.20885
F_ F_ 0.634587 0.197245 0.107953 -0.20885
F_ F_ 0.685831 0.0611796 0.167973 -0.20885
F_ F_ 0.676103 0.142097 0.179749 -0.20885
F_ F_ 0.611787 0.0996565 0.192901 -0.20885
Zn Zn 0.587977 0.0850685 0.844599 0.83971
Zn Zn 0.659025 0.342782 0.581602 0.83971
Zn Zn 0.904868 0.42493 0.657738 0.83971
Zn Zn 0.839388 0.15373 0.913889 0.83971
H_ H_ 0.66479 0.130763 0.797779 0.10394
H_ H_ 0.744056 0.0973768 0.759103 0.10394
H_ H_ 0.714632 0.449203 0.800594 0.10394
H_ H_ 0.629435 0.978151 0.814618 0.10394
H_ H_ 0.0216532 0.111113 0.743841 0.10394
H_ H_ 0.987933 0.193261 0.700642 0.10394
H_ H_ 0.525369 0.273135 0.817511 0.10394
H_ H_ 0.585518 0.203967 0.858553 0.10394
H_ H_ 0.52486 0.449423 0.855686 0.10394
H_ H_ 0.983102 0.374822 0.880939 0.10394
H_ H_ 0.854997 0.486901 0.908168 0.10394
H_ H_ 0.589089 0.295514 0.623316 0.10394
H_ H_ 0.00648748 0.254971 0.598933 0.10394
H_ H_ 0.540572 0.293463 0.945793 0.10394
H_ H_ 0.612478 0.332483 0.476696 0.10394
H_ H_ 0.724206 0.253638 0.594309 0.10394
H_ H_ 0.767587 0.205757 0.670482 0.10394
H_ H_ 0.70214 0.328888 0.764027 0.10394
H_ H_ 0.666873 0.376966 0.689566 0.10394
H_ H_ 0.712946 0.382787 0.949172 0.10394
H_ H_ 0.767763 0.37562 0.883625 0.10394
H_ H_ 0.899306 0.402302 0.991834 0.10394
H_ H_ 0.796673 0.408882 0.659873 0.10394
H_ H_ 0.729208 0.439846 0.70716 0.10394
H_ H_ 0.835795 0.0417322 0.774654 0.10394
H_ H_ 0.895224 0.511215 0.731208 0.10394
H_ H_ 0.500827 0.360352 0.654714 0.10394
H_ H_ 0.542305 0.27777 0.696509 0.10394
H_ H_ 0.906231 0.272301 0.749589 0.10394
H_ H_ 0.866597 0.334833 0.688445 0.10394
H_ H_ 0.966251 0.0474189 0.606757 0.10394
H_ H_ 0.524007 0.119893 0.596403 0.10394
H_ H_ 0.643929 0.00195465 0.583851 0.10394
H_ H_ 0.932776 0.162723 0.892434 0.10394
H_ H_ 0.51664 0.204192 0.936467 0.10394
H_ H_ 0.910644 0.280932 0.536946 0.10394
H_ H_ 0.846621 0.239438 0.00584637 0.10394
H_ H_ 0.737704 0.202866 0.880492 0.10394
H_ H_ 0.69472 0.241361 0.804746 0.10394
H_ H_ 0.841112 0.227669 0.744009 0.10394
H_ H_ 0.878516 0.187386 0.821527 0.10394
H_ H_ 0.792803 0.11902 0.547575 0.10394
H_ H_ 0.74531 0.0856236 0.61221 0.10394
H_ H_ 0.618649 0.0674223 0.502276 0.10394
C_ C_ 0.674084 0.0903084 0.792666 0.18167
C_ C_ 0.721158 0.0700751 0.774843 -0.15533
C_ C_ 0.738152 0.0169454 0.772545 0.02923
C_ C_ 0.69845 0.488601 0.79635 -0.15533
C_ C_ 0.655588 0.00581547 0.803736 0.18167
C_ C_ 0.513536 0.134612 0.774122 0.18167
C_ C_ 0.0027799 0.19342 0.739636 -0.15533
C_ C_ 0.495127 0.223877 0.759799 0.02923
C_ C_ 0.526422 0.233341 0.805753 -0.15533
C_ C_ 0.555294 0.192878 0.830258 0.18167
C_ C_ 0.509205 0.0513342 0.87455 0.69207
C_ C_ 0.975456 0.504789 0.877505 0.02923
C_ C_ 0.994825 0.452934 0.873982 -0.15533
C_ C_ 0.965538 0.411705 0.878007 -0.15533
C_ C_ 0.91541 0.42339 0.891961 0.02923
C_ C_ 0.896538 0.476244 0.902865 -0.15533
C_ C_ 0.924814 0.516272 0.893105 0.02923
C_ C_ 0.893038 0.0734688 0.884876 0.69207
C_ C_ 0.902916 0.327186 0.896843 0.69661
C_ C_ 0.578537 0.289385 0.581579 0.18167
C_ C_ 0.534475 0.265331 0.5623 -0.15533
C_ C_ 0.519852 0.261217 0.511829 0.02923
C_ C_ 0.549898 0.296373 0.986813 -0.15533
C_ C_ 0.593525 0.307675 0.498973 0.18167
C_ C_ 0.722225 0.272187 0.632289 0.18167
C_ C_ 0.746198 0.243427 0.675138 -0.15533
C_ C_ 0.742751 0.267541 0.723514 0.02923
C_ C_ 0.711359 0.315701 0.728323 -0.15533
C_ C_ 0.690916 0.340687 0.684218 0.18167
C_ C_ 0.737176 0.374255 0.546252 0.69207
C_ C_ 0.775687 0.38044 1.0110105 0.02923
C_ C_ 0.755085 0.383041 0.961538 -0.15533
C_ C_ 0.787353 0.384869 0.921264 -0.15533
C_ C_ 0.841282 0.388693 0.930568 0.02923
C_ C_ 0.859015 0.396598 0.981257 -0.15533
C_ C_ 0.827466 0.389183 0.0203513 0.02923
C_ C_ 0.854319 0.387261 0.573772 0.69207
C_ C_ 0.850344 0.384828 0.834808 0.69661
C_ C_ 0.807206 0.433573 0.691096 0.18167
C_ C_ 0.766522 0.455136 0.716261 -0.15533
C_ C_ 0.772969 0.496591 0.748257 0.02923
C_ C_ 0.826129 0.019284 0.741704 -0.15533
C_ C_ 0.858954 0.494483 0.72685 0.18167
C_ C_ 0.986948 0.359365 0.693144 0.18167
C_ C_ 0.500351 0.290064 0.696094 -0.15533
C_ C_ 0.984215 0.288669 0.743776 0.02923
C_ C_ 0.929899 0.293847 0.732279 -0.15533
C_ C_ 0.907131 0.332105 0.701412 0.18167
C_ C_ 0.982035 0.46071 0.623797 0.69207
C_ C_ 0.523372 0.994449 0.61594 0.02923
C_ C_ 0.507015 0.0467087 0.613745 -0.15533
C_ C_ 0.540099 0.0832548 0.61006 -0.15533
C_ C_ 0.594353 0.0693169 0.606442 0.02923
C_ C_ 0.608903 0.0165363 0.597806 -0.15533
C_ C_ 0.576684 0.980777 0.610295 0.02923
C_ C_ 0.594812 0.426615 0.606418 0.69207
C_ C_ 0.613321 0.162753 0.593482 0.69661
C_ C_ 0.931741 0.182112 0.930044 0.18167
C_ C_ 0.97597 0.20275 0.950287 -0.15533
C_ C_ 0.973832 0.235073 -0.006211999999999995 0.02923
C_ C_ 0.921446 0.249168 0.510272 -0.15533
C_ C_ 0.883253 0.224945 0.992455 0.18167
C_ C_ 0.761566 0.205811 0.85152 0.18167
C_ C_ 0.738128 0.233346 0.809844 -0.15533
C_ C_ 0.767581 0.244859 0.771674 0.02923
C_ C_ 0.819451 0.225865 0.775548 -0.15533
C_ C_ 0.839905 0.195397 0.816563 0.18167
C_ C_ 0.762608 0.128478 0.949094 0.69207
C_ C_ 0.734335 0.107602 0.484699 0.02923
C_ C_ 0.754849 0.109454 0.536519 -0.15533
C_ C_ 0.726903 0.0946874 0.57522 -0.15533
C_ C_ 0.673278 0.0885501 0.565913 0.02923
C_ C_ 0.654564 0.0814108 0.512928 -0.15533
C_ C_ 0.682552 0.0986172 0.474211 0.02923
C_ C_ 0.652382 0.115116 0.923352 0.69207
C_ C_ 0.659485 0.112542 0.660726 0.69661
C_ C_ 0.876421 0.381796 0.888221 -0.30787
C_ C_ 0.633738 0.107208 0.605829 -0.30787
N_ N_ 0.643059 0.0571251 0.808082 -0.32189
N_ N_ 0.547282 0.142861 0.814936 -0.32189
N_ N_ 0.6075 0.306781 0.549707 -0.32189
N_ N_ 0.692354 0.31659 0.638545 -0.32189
N_ N_ 0.853026 0.453797 0.696595 -0.32189
N_ N_ 0.936568 0.363745 0.682921 -0.32189
N_ N_ 0.887089 0.192653 0.94958 -0.32189
N_ N_ 0.812753 0.190111 0.855372 -0.32189
O_ O_ -0.0050040000000000084 0.100303 0.878023 -0.63271
O_ O_ 0.547512 0.0372319 0.846222 -0.57982
O_ O_ 0.887087 0.096873 0.842445 -0.63271
O_ O_ 0.869697 0.091971 0.924504 -0.57982
O_ O_ 0.736616 0.404261 0.587593 -0.63271
O_ O_ 0.708104 0.339136 0.539391 -0.57982
O_ O_ 0.851385 0.348919 0.60221 -0.63271
O_ O_ 0.87402 0.427213 0.595387 -0.57982
O_ O_ 0.481768 0.414326 0.583575 -0.63271
O_ O_ 0.95033 0.470317 0.658477 -0.57982
O_ O_ 0.583788 0.397219 0.642078 -0.63271
O_ O_ 0.632898 0.410335 0.580584 -0.57982
O_ O_ 0.762265 0.101345 0.904806 -0.63271
O_ O_ 0.792904 0.1633 0.956341 -0.57982
O_ O_ 0.660858 0.149841 0.893437 -0.63271
O_ O_ 0.619055 0.0843641 0.908665 -0.57982
F_ F_ 0.941127 0.321802 0.934668 -0.20885
F_ F_ 0.925741 0.310483 0.852917 -0.20885
F_ F_ 0.870369 0.290205 0.900661 -0.20885
F_ F_ 0.809782 0.420641 0.832272 -0.20885
F_ F_ 0.828198 0.342195 0.819655 -0.20885
F_ F_ 0.882224 0.395182 0.799129 -0.20885
F_ F_ 0.580871 0.161308 0.548746 -0.20885
F_ F_ 0.589376 0.193189 0.630973 -0.20885
F_ F_ 0.653046 0.191601 0.590226 -0.20885
F_ F_ 0.686324 0.0654021 0.669125 -0.20885
F_ F_ 0.689665 0.151763 0.672397 -0.20885
F_ F_ 0.624374 0.122296 0.697063 -0.20885
Zn Zn 0.583059 0.583984 0.350833 0.83971
Zn Zn 0.670338 0.846861 0.0832797 0.83971
Zn Zn 0.908789 0.909069 0.154613 0.83971
Zn Zn 0.840448 0.655554 0.419369 0.83971
H_ H_ 0.666952 0.637069 0.308248 0.10394
H_ H_ 0.743073 0.600863 0.266023 0.10394
H_ H_ 0.717033 0.952877 0.286854 0.10394
H_ H_ 0.632328 0.485063 0.328522 0.10394
H_ H_ 0.0343984 0.591241 0.257182 0.10394
H_ H_ 0.996126 0.660968 0.203296 0.10394
H_ H_ 0.525177 0.769979 0.32514 0.10394
H_ H_ 0.563443 0.69726 0.376726 0.10394
H_ H_ 0.528567 0.940677 0.348898 0.10394
H_ H_ 0.976713 0.871807 0.372952 0.10394
H_ H_ 0.84506 0.979132 0.385055 0.10394
H_ H_ 0.589632 0.805682 0.128724 0.10394
H_ H_ 0.997911 0.773574 0.0934986 0.10394
H_ H_ 0.548416 0.764709 0.440389 0.10394
H_ H_ 0.61104 0.839355 0.9783 0.10394
H_ H_ 0.728615 0.743154 0.0957787 0.10394
H_ H_ 0.7617 0.696534 0.171011 0.10394
H_ H_ 0.732593 0.836538 0.26438 0.10394
H_ H_ 0.687582 0.87348 0.19024 0.10394
H_ H_ 0.70796 0.876579 0.43942 0.10394
H_ H_ 0.764178 0.886652 0.365101 0.10394
H_ H_ 0.893402 0.893926 0.479161 0.10394
H_ H_ 0.80456 0.898048 0.156136 0.10394
H_ H_ 0.728857 0.956572 0.184653 0.10394
H_ H_ 0.835044 0.546793 0.286109 0.10394
H_ H_ 0.901309 1.0032998 0.212747 0.10394
H_ H_ 0.518942 0.880713 0.198345 0.10394
H_ H_ 0.558419 0.800851 0.228908 0.10394
H_ H_ 0.919158 0.746496 0.230653 0.10394
H_ H_ 0.875598 0.819536 0.181706 0.10394
H_ H_ 0.955887 0.548729 0.108806 0.10394
H_ H_ 0.520796 0.628964 0.11248 0.10394
H_ H_ 0.642157 0.505409 0.0993716 0.10394
H_ H_ 0.945909 0.658249 0.399062 0.10394
H_ H_ 0.509992 0.697716 0.435601 0.10394
H_ H_ 0.913174 0.790844 0.0394531 0.10394
H_ H_ 0.851742 0.741616 0.50425 0.10394
H_ H_ 0.732228 0.693683 0.383556 0.10394
H_ H_ 0.699322 0.747289 0.30851 0.10394
H_ H_ 0.840427 0.709323 0.244483 0.10394
H_ H_ 0.880017 0.677917 0.327672 0.10394
H_ H_ 0.793125 0.600078 0.0553234 0.10394
H_ H_ 0.735529 0.594018 0.125291 0.10394
H_ H_ 0.606433 0.594583 0.0121287 0.10394
C_ C_ 0.672731 0.597196 0.300603 0.18167
C_ C_ 0.71832 0.577119 0.283055 -0.15533
C_ C_ 0.732167 0.523561 0.277462 0.02923
C_ C_ 0.705154 0.993216 0.28547 -0.15533
C_ C_ 0.65557 0.511533 0.315383 0.18167
C_ C_ 0.530245 0.632224 0.267951 0.18167
C_ C_ 0.0127847 0.671153 0.242789 -0.15533
C_ C_ 0.512316 0.721191 0.256677 0.02923
C_ C_ 0.524938 0.730471 0.308878 -0.15533
C_ C_ 0.547708 0.688918 0.338267 0.18167
C_ C_ 0.501443 0.547245 0.373544 0.69207
C_ C_ 0.969365 -0.0011679999999999469 0.370569 0.02923
C_ C_ -0.012556000000000012 0.947344 0.360074 -0.15533
C_ C_ 0.958043 0.909037 0.370192 -0.15533
C_ C_ 0.907175 0.92045 0.381255 0.02923
C_ C_ 0.886069 0.971442 0.384557 -0.15533
C_ C_ 0.916723 0.0117331 0.377262 0.02923
C_ C_ 0.895814 0.568021 0.386674 0.69207
C_ C_ 0.903323 0.822242 0.384136 0.69661
C_ C_ 0.58305 0.798375 0.0894246 0.18167
C_ C_ 0.536036 0.778183 0.0736794 -0.15533
C_ C_ 0.519128 0.775828 0.0209195 0.02923
C_ C_ 0.555957 0.774955 0.48121 -0.15533
C_ C_ 0.59419 0.814674 0.00421409 0.18167
C_ C_ 0.727614 0.76289 0.132945 0.18167
C_ C_ 0.744235 0.736578 0.176592 -0.15533
C_ C_ 0.741729 0.761023 0.225983 0.02923
C_ C_ 0.72558 0.81337 0.229449 -0.15533
C_ C_ 0.709665 0.838255 0.184752 0.18167
C_ C_ 0.74205 0.879753 0.0431594 0.69207
C_ C_ 0.771273 0.877658 0.499978 0.02923
C_ C_ 0.75141 0.879079 0.447799 -0.15533
C_ C_ 0.782469 0.883789 0.407511 -0.15533
C_ C_ 0.835119 0.883554 0.419234 0.02923
C_ C_ 0.853592 0.886554 0.470213 -0.15533
C_ C_ 0.822487 0.88683 0.510077 0.02923
C_ C_ 0.853909 0.887932 0.0670749 0.69207
C_ C_ 0.850254 0.876618 0.322255 0.69661
C_ C_ 0.80927 0.93324 0.177836 0.18167
C_ C_ 0.769159 0.960826 0.200471 -0.15533
C_ C_ 0.779867 1.00151372 0.236147 0.02923
C_ C_ 0.825174 0.519376 0.255563 -0.15533
C_ C_ 0.867769 0.988416 0.218668 0.18167
C_ C_ 0.997137 0.847714 0.200273 0.18167
C_ C_ 0.518408 0.805453 0.217803 -0.15533
C_ C_ 0.991362 0.764695 0.232654 0.02923
C_ C_ 0.938546 0.775627 0.224576 -0.15533
C_ C_ 0.916861 0.81433 0.192155 0.18167
C_ C_ 0.985642 0.950139 0.122172 0.69207
C_ C_ 0.518271 0.501419 0.123456 0.02923
C_ C_ 0.498854 0.553697 0.116688 -0.15533
C_ C_ 0.533211 0.589065 0.109055 -0.15533
C_ C_ 0.585206 0.573475 0.106163 0.02923
C_ C_ 0.602954 0.521724 0.105445 -0.15533
C_ C_ 0.571296 0.486651 0.121625 0.02923
C_ C_ 0.606081 0.922595 0.108183 0.69207
C_ C_ 0.605586 0.667823 0.109582 0.69661
C_ C_ 0.938991 0.680679 0.434924 0.18167
C_ C_ 0.983659 0.699499 0.46197 -0.15533
C_ C_ 0.978372 0.741718 0.496258 0.02923
C_ C_ 0.919713 0.76043 1.0102595 -0.15533
C_ C_ 0.887442 0.73196 0.489158 0.18167
C_ C_ 0.758947 0.704634 0.355653 0.18167
C_ C_ 0.737187 0.726805 0.311501 -0.15533
C_ C_ 0.765658 0.735025 0.273521 0.02923
C_ C_ 0.815061 0.709905 0.274681 -0.15533
C_ C_ 0.838951 0.689501 0.320765 0.18167
C_ C_ 0.762726 0.624868 0.462625 0.69207
C_ C_ 0.733252 0.599789 0.994784 0.02923
C_ C_ 0.753637 0.595405 0.0476101 -0.15533
C_ C_ 0.720488 0.597469 0.0879344 -0.15533
C_ C_ 0.666385 0.600266 0.074766 0.02923
C_ C_ 0.647692 0.595592 0.0228861 -0.15533
C_ C_ 0.679795 0.600541 0.984061 0.02923
C_ C_ 0.647725 0.61157 0.431203 0.69207
C_ C_ 0.646788 0.605303 0.173209 0.69661
C_ C_ 0.874606 0.876691 0.380472 -0.30787
C_ C_ 0.626876 0.611386 0.115285 -0.30787
N_ N_ 0.642922 0.563172 0.318119 -0.32189
N_ N_ 0.547935 0.641805 0.317897 -0.32189
N_ N_ 0.610385 0.815919 0.0550128 -0.32189
N_ N_ 0.702375 0.811034 0.138066 -0.32189
N_ N_ 0.857178 0.945507 0.189569 -0.32189
N_ N_ 0.946813 0.849814 0.180968 -0.32189
N_ N_ 0.892576 0.6956 0.450729 -0.32189
N_ N_ 0.809388 0.68446 0.358705 -0.32189
O_ O_ 0.00707455 0.591835 0.390548 -0.63271
O_ O_ 0.5415 0.532991 0.346882 -0.57982
O_ O_ 0.894678 0.591165 0.345985 -0.63271
O_ O_ 0.872535 0.588965 0.427023 -0.57982
O_ O_ 0.741148 0.908966 0.0838468 -0.63271
O_ O_ 0.707027 0.847315 0.0315071 -0.57982
O_ O_ 0.845011 0.850257 0.0943264 -0.63271
O_ O_ 0.887315 0.918322 0.087397 -0.57982
O_ O_ 0.488743 0.904908 0.0907057 -0.63271
O_ O_ 0.951622 0.959449 0.155257 -0.57982
O_ O_ 0.608664 0.898485 0.15081 -0.63271
O_ O_ 0.641296 0.907165 0.0771372 -0.57982
O_ O_ 0.758869 0.5964 0.42086 -0.63271
O_ O_ 0.795195 0.660268 0.467682 -0.57982
O_ O_ 0.649882 0.650578 0.403862 -0.63271
O_ O_ 0.608982 0.583299 0.416922 -0.57982
F_ F_ 0.934824 0.817857 0.430472 -0.20885
F_ F_ 0.933525 0.807502 0.342748 -0.20885
F_ F_ 0.868398 0.785977 0.383649 -0.20885
F_ F_ 0.814011 0.915609 0.308146 -0.20885
F_ F_ 0.82891 0.830982 0.306308 -0.20885
F_ F_ 0.888146 0.87775 0.287386 -0.20885
F_ F_ 0.576792 0.673139 0.0637449 -0.20885
F_ F_ 0.575641 0.685927 0.15017 -0.20885
F_ F_ 0.646446 0.696955 0.113116 -0.20885
F_ F_ 0.670358 0.556684 0.179347 -0.20885
F_ F_ 0.68098 0.639865 0.190696 -0.20885
F_ F_ 0.609758 0.611199 0.207171 -0.20885
Zn Zn 0.585487 0.590537 0.852275 0.83971
Zn Zn 0.662383 0.844698 0.581047 0.83971
Zn Zn 0.909025 0.909724 0.643344 0.83971
Zn Zn 0.843149 0.649574 0.917387 0.83971
H_ H_ 0.6567 0.633472 0.797646 0.10394
H_ H_ 0.733793 0.599805 0.76122 0.10394
H_ H_ 0.707339 0.94373 0.784946 0.10394
H_ H_ 0.630206 0.484283 0.827863 0.10394
H_ H_ 0.0368201 0.601989 0.745942 0.10394
H_ H_ 1.0137864 0.676244 0.699627 0.10394
H_ H_ 0.551596 0.773983 0.822773 0.10394
H_ H_ 0.586556 0.700342 0.873742 0.10394
H_ H_ 0.536521 0.955171 0.876806 0.10394
H_ H_ 0.980352 0.881335 0.858157 0.10394
H_ H_ 0.848786 0.991253 0.891452 0.10394
H_ H_ 0.58577 0.805384 0.622716 0.10394
H_ H_ 0.00857033 0.770305 0.597596 0.10394
H_ H_ 0.533133 0.7928 0.948482 0.10394
H_ H_ 0.629393 0.79824 0.474338 0.10394
H_ H_ 0.721077 0.74755 0.597615 0.10394
H_ H_ 0.756074 0.697314 0.671907 0.10394
H_ H_ 0.716928 0.827427 0.774191 0.10394
H_ H_ 0.679045 0.877714 0.695455 0.10394
H_ H_ 0.711616 0.895733 0.94239 0.10394
H_ H_ 0.764576 0.911947 0.876119 0.10394
H_ H_ 0.90151 0.894471 0.980465 0.10394
H_ H_ 0.812066 0.892191 0.658753 0.10394
H_ H_ 0.738672 0.935618 0.701493 0.10394
H_ H_ 0.817593 0.55883 0.767466 0.10394
H_ H_ 0.902074 1.0136409 0.719315 0.10394
H_ H_ 0.518049 0.878659 0.692721 0.10394
H_ H_ 0.559555 0.804884 0.729985 0.10394
H_ H_ 0.913777 0.739664 0.708317 0.10394
H_ H_ 0.872045 0.816151 0.674911 0.10394
H_ H_ 0.964229 0.56518 0.624953 0.10394
H_ H_ 0.517709 0.621424 0.622653 0.10394
H_ H_ 0.641206 0.508906 0.586218 0.10394
H_ H_ 0.935312 0.662297 0.901768 0.10394
H_ H_ 0.514962 0.696535 0.946701 0.10394
H_ H_ 0.92248 0.793386 0.532138 0.10394
H_ H_ 0.844955 0.738451 1.00854391 0.10394
H_ H_ 0.73528 0.683104 0.879613 0.10394
H_ H_ 0.694135 0.710649 0.801484 0.10394
H_ H_ 0.840977 0.742445 0.75651 0.10394
H_ H_ 0.881214 0.695894 0.823935 0.10394
H_ H_ 0.785969 0.609827 0.563701 0.10394
H_ H_ 0.730055 0.614096 0.624396 0.10394
H_ H_ 0.604374 0.592057 0.514132 0.10394
C_ C_ 0.668761 0.592342 0.80297 0.18167
C_ C_ 0.714285 0.574563 0.780955 -0.15533
C_ C_ 0.730682 0.520086 0.778428 0.02923
C_ C_ 0.701705 0.985142 0.78751 -0.15533
C_ C_ 0.653299 0.509884 0.816477 0.18167
C_ C_ 0.520575 0.637014 0.776504 0.18167
C_ C_ 0.0169281 0.680467 0.738969 -0.15533
C_ C_ 0.510408 0.727847 0.764934 0.02923
C_ C_ 0.536667 0.737339 0.812518 -0.15533
C_ C_ 0.557636 0.694962 0.839789 0.18167
C_ C_ 0.502506 0.552332 0.873301 0.69207
C_ C_ 0.972155 0.0127045 0.871215 0.02923
C_ C_ -0.013128999999999946 0.961814 0.857261 -0.15533
C_ C_ 0.959607 0.922782 0.868682 -0.15533
C_ C_ 0.909608 0.931641 0.883732 0.02923
C_ C_ 0.890928 0.982262 0.891028 -0.15533
C_ C_ 0.922092 0.0224186 0.885422 0.02923
C_ C_ 0.896093 0.567786 0.889107 0.69207
C_ C_ 0.898384 0.833851 0.879767 0.69661
C_ C_ 0.574245 0.803782 0.583146 0.18167
C_ C_ 0.533047 0.775016 0.563645 -0.15533
C_ C_ 0.521514 0.764395 0.512509 0.02923
C_ C_ 0.548942 0.793222 0.986971 -0.15533
C_ C_ 0.598167 0.798981 0.498067 0.18167
C_ C_ 0.717147 0.765202 0.63461 0.18167
C_ C_ 0.737634 0.736354 0.676977 -0.15533
C_ C_ 0.738227 0.759662 0.7273 0.02923
C_ C_ 0.713839 0.809548 0.733815 -0.15533
C_ C_ 0.694346 0.837945 0.691232 0.18167
C_ C_ 0.735587 0.870769 0.539724 0.69207
C_ C_ 0.776081 0.887563 1.00263328 0.02923
C_ C_ 0.752879 0.898724 0.952428 -0.15533
C_ C_ 0.782674 0.902916 0.912157 -0.15533
C_ C_ 0.836509 0.895233 0.921732 0.02923
C_ C_ 0.858071 0.892224 0.972965 -0.15533
C_ C_ 0.82806 0.893784 0.0136649 0.02923
C_ C_ 0.847687 0.886589 0.563646 0.69207
C_ C_ 0.847535 0.891738 0.822502 0.69661
C_ C_ 0.815228 0.929475 0.679809 0.18167
C_ C_ 0.776434 0.950432 0.710315 -0.15533
C_ C_ 0.78095 -0.005350999999999995 0.740256 0.02923
C_ C_ 0.817739 0.519891 0.750452 -0.15533
C_ C_ 0.866101 0.994502 0.714277 0.18167
C_ C_ 0.986677 0.85828 0.707504 0.18167
C_ C_ 0.517603 0.807687 0.722593 -0.15533
C_ C_ 0.984668 0.773463 0.734652 0.02923
C_ C_ 0.936393 0.770941 0.707835 -0.15533
C_ C_ 0.911089 0.815903 0.687339 0.18167
C_ C_ 0.99034 0.946274 0.61058 0.69207
C_ C_ 0.52058 0.492977 0.612145 0.02923
C_ C_ 0.503066 0.54449 0.62242 -0.15533
C_ C_ 0.53391 0.584264 0.616067 -0.15533
C_ C_ 0.584743 0.571283 0.60729 0.02923
C_ C_ 0.601576 0.51938 0.592902 -0.15533
C_ C_ 0.571792 0.480125 0.602981 0.02923
C_ C_ 0.598908 0.926323 0.609662 0.69207
C_ C_ 0.596453 0.668332 0.616079 0.69661
C_ C_ 0.933757 0.680481 0.938039 0.18167
C_ C_ 0.975521 0.701616 0.961192 -0.15533
C_ C_ 0.968219 0.744471 0.994924 0.02923
C_ C_ 0.928919 0.758787 0.508396 -0.15533
C_ C_ 0.881543 0.730439 0.993206 0.18167
C_ C_ 0.759875 0.692703 0.850305 0.18167
C_ C_ 0.735074 0.712364 0.805358 -0.15533
C_ C_ 0.763142 0.729657 0.769295 0.02923
C_ C_ 0.817604 0.726034 0.78016 -0.15533
C_ C_ 0.839078 0.700582 0.821727 0.18167
C_ C_ 0.768251 0.611459 0.955994 0.69207
C_ C_ 0.724115 0.624444 0.501011 0.02923
C_ C_ 0.746323 0.620716 0.551917 -0.15533
C_ C_ 0.711242 0.616491 0.588103 -0.15533
C_ C_ 0.659658 0.61049 0.576098 0.02923
C_ C_ 0.642499 0.600822 0.523903 -0.15533
C_ C_ 0.671409 0.613753 0.485864 0.02923
C_ C_ 0.654914 0.607571 0.930244 0.69207
C_ C_ 0.644411 0.604851 0.671982 0.69661
C_ C_ 0.871518 0.888606 0.878041 -0.30787
C_ C_ 0.621516 0.612549 0.616717 -0.30787
N_ N_ 0.639646 0.559921 0.818608 -0.32189
N_ N_ 0.549918 0.647072 0.821651 -0.32189
N_ N_ 0.607352 0.813574 0.548796 -0.32189
N_ N_ 0.692431 0.812496 0.643328 -0.32189
N_ N_ 0.861146 0.949809 0.686105 -0.32189
N_ N_ 0.93855 0.856014 0.682134 -0.32189
N_ N_ 0.88813 0.693741 0.955798 -0.32189
N_ N_ 0.810257 0.683686 0.856037 -0.32189
O_ O_ 1.00616766 0.588836 0.898945 -0.63271
O_ O_ 0.541319 0.544448 0.84468 -0.57982
O_ O_ 0.894352 0.595078 0.847715 -0.63271
O_ O_ 0.868577 0.587533 0.926898 -0.57982
O_ O_ 0.742462 0.892231 0.586237 -0.63271
O_ O_ 0.703838 0.836159 0.530939 -0.57982
O_ O_ 0.853975 0.840816 0.582165 -0.63271
O_ O_ 0.87555 0.921216 0.580325 -0.57982
O_ O_ 0.485223 0.914946 0.59978 -0.63271
O_ O_ 0.957078 0.956941 0.644636 -0.57982
O_ O_ 0.598182 0.899656 0.649861 -0.63271
O_ O_ 0.628202 0.908228 0.573371 -0.57982
O_ O_ 0.759609 0.59425 0.908834 -0.63271
O_ O_ 0.799345 0.6482 0.966385 -0.57982
O_ O_ 0.658559 0.649419 0.907459 -0.63271
O_ O_ 0.613841 0.584458 0.917558 -0.57982
F_ F_ 0.93717 0.826356 0.916756 -0.20885
F_ F_ 0.920175 0.816026 0.833101 -0.20885
F_ F_ 0.866298 0.800974 0.889341 -0.20885
F_ F_ 0.812686 0.935456 0.817458 -0.20885
F_ F_ 0.821592 0.849543 0.807544 -0.20885
F_ F_ 0.880874 0.894933 0.787501 -0.20885
F_ F_ 0.568529 0.672809 0.568734 -0.20885
F_ F_ 0.565718 0.681541 0.655119 -0.20885
F_ F_ 0.628045 0.706049 0.625546 -0.20885
F_ F_ 0.67638 0.560495 0.676099 -0.20885
F_ F_ 0.674985 0.641614 0.690858 -0.20885
F_ F_ 0.608689 0.603125 0.705507 -0.20885
_cell_length_a 26.508
_cell_length_b 26.37200000322088
_cell_length_c 26.311999743092066
_cell_angle_alpha 93.74100058972084
_cell_angle_beta 96.04100104955006
_cell_angle_gamma 83.6869992558723
_symmetry_space_group_name_H-M         'P 1'
_symmetry_Int_Tables_number            1
loop_
_symmetry_equiv_pos_as_xyz
   'x, y, z'
                         
loop_
_atom_site_label
_atom_site_type_symbol
_atom_site_fract_x 
_atom_site_fract_y
_atom_site_fract_z
_atom_site_charge
Zn Zn 0.0902584 0.0773927 0.348595 0.83971
Zn Zn 0.1606 0.341375 0.0794329 0.83971
Zn Zn 0.407204 0.421842 0.15321 0.83971
Zn Zn 0.339876 0.153717 0.414418 0.83971
H_ H_ 0.160699 0.133351 0.300223 0.10394
H_ H_ 0.244077 0.098891 0.262792 0.10394
H_ H_ 0.217761 0.448917 0.291074 0.10394
H_ H_ 0.142175 0.97933 0.334131 0.10394
H_ H_ 0.512715 0.103548 0.262943 0.10394
H_ H_ 0.477568 0.17427 0.202097 0.10394
H_ H_ 0.0256982 0.263086 0.324377 0.10394
H_ H_ 0.070874 0.195175 0.373011 0.10394
H_ H_ 0.0354059 0.443794 0.371788 0.10394
H_ H_ 0.479136 0.382202 0.394714 0.10394
H_ H_ 0.347923 0.488566 0.408141 0.10394
H_ H_ 0.0817894 0.3023 0.123713 0.10394
H_ H_ 0.503207 0.265294 0.0948645 0.10394
H_ H_ 0.0290263 0.300332 0.448447 0.10394
H_ H_ 0.112193 0.320608 0.975139 0.10394
H_ H_ 0.207105 0.24434 0.0958168 0.10394
H_ H_ 0.240482 0.196447 0.171377 0.10394
H_ H_ 0.216347 0.338025 0.265461 0.10394
H_ H_ 0.187792 0.382294 0.188259 0.10394
H_ H_ 0.209912 0.374511 0.434389 0.10394
H_ H_ 0.266098 0.377026 0.373016 0.10394
H_ H_ 0.395609 0.389597 0.487162 0.10394
H_ H_ 0.297332 0.412702 0.144282 0.10394
H_ H_ 0.222913 0.457791 0.181676 0.10394
H_ H_ 0.334342 0.0501935 0.283905 0.10394
H_ H_ 0.401854 0.493716 0.242488 0.10394
H_ H_ 0.010911 0.359739 0.17936 0.10394
H_ H_ 0.0485192 0.283803 0.215185 0.10394
H_ H_ 0.409918 0.265222 0.248923 0.10394
H_ H_ 0.371149 0.335015 0.190925 0.10394
H_ H_ 0.464976 0.0515756 0.0989343 0.10394
H_ H_ 0.0147325 0.115203 0.0955555 0.10394
H_ H_ 0.141893 0.0018009 0.0923607 0.10394
H_ H_ 0.436551 0.166224 0.385343 0.10394
H_ H_ 0.0189763 0.203865 0.437917 0.10394
H_ H_ 0.418185 0.275952 0.0510693 0.10394
H_ H_ 0.350786 0.213802 0.508856 0.10394
H_ H_ 0.224554 0.188572 0.383899 0.10394
H_ H_ 0.184245 0.225785 0.299141 0.10394
H_ H_ 0.330467 0.24041 0.255309 0.10394
H_ H_ 0.369546 0.195268 0.332815 0.10394
H_ H_ 0.283212 0.127916 0.0621706 0.10394
H_ H_ 0.229972 0.102537 0.123856 0.10394
H_ H_ 0.112007 0.0786051 0.00537359 0.10394
C_ C_ 0.172112 0.0899865 0.294955 0.18167
C_ C_ 0.220117 0.0745395 0.276934 -0.15533
C_ C_ 0.235727 0.0231844 0.272556 0.02923
C_ C_ 0.20988 0.490849 0.298344 -0.15533
C_ C_ 0.160757 0.00492697 0.314121 0.18167
C_ C_ 0.0333866 0.120815 0.269193 0.18167
C_ C_ 0.505216 0.180102 0.237498 -0.15533
C_ C_ 0.00285471 0.209932 0.257012 0.02923
C_ C_ 0.024911 0.22317 0.308046 -0.15533
C_ C_ 0.051931 0.18284 0.335616 0.18167
C_ C_ 0.00668762 0.038306 0.375253 0.69207
C_ C_ 0.467273 0.509564 0.383838 0.02923
C_ C_ 0.49245 0.45867 0.391812 -0.15533
C_ C_ 0.462317 0.419628 0.392019 -0.15533
C_ C_ 0.409854 0.429479 0.39643 0.02923
C_ C_ 0.388674 0.480527 0.404438 -0.15533
C_ C_ 0.41626 0.52104 0.3941 0.02923
C_ C_ 0.404474 0.0738348 0.383055 0.69207
C_ C_ 0.396473 0.331457 0.381128 0.69661
C_ C_ 0.072996 0.296141 0.0843849 0.18167
C_ C_ 0.0290895 0.271394 0.0654919 -0.15533
C_ C_ 0.019323 0.261556 0.0126156 0.02923
C_ C_ 0.0403888 0.296594 0.489289 -0.15533
C_ C_ 0.095867 0.299106 -7.23756e-05 0.18167
C_ C_ 0.211193 0.26512 0.131248 0.18167
C_ C_ 0.228392 0.238034 0.175959 -0.15533
C_ C_ 0.230328 0.262946 0.22542 0.02923
C_ C_ 0.21001 0.315788 0.228432 -0.15533
C_ C_ 0.1932 0.340411 0.184983 0.18167
C_ C_ 0.235459 0.383083 0.0409829 0.69207
C_ C_ 0.270262 0.373204 0.501099 0.02923
C_ C_ 0.250754 0.375239 0.448624 -0.15533
C_ C_ 0.283314 0.379562 0.412175 -0.15533
C_ C_ 0.332158 0.392752 0.425672 0.02923
C_ C_ 0.35338 0.387175 0.477102 -0.15533
C_ C_ 0.322191 0.383163 0.515772 0.02923
C_ C_ 0.34559 0.38921 0.0678492 0.69207
C_ C_ 0.344962 0.395504 0.327464 0.69661
C_ C_ 0.304153 0.438336 0.174485 0.18167
C_ C_ 0.261049 0.466607 0.19613 -0.15533
C_ C_ 0.271629 0.503047 0.237038 0.02923
C_ C_ 0.327539 0.0208737 0.252472 -0.15533
C_ C_ 0.363018 0.486458 0.228177 0.18167
C_ C_ 0.49116 0.358562 0.193319 0.18167
C_ C_ 0.00871242 0.288571 0.209533 -0.15533
C_ C_ 0.487834 0.275704 0.229462 0.02923
C_ C_ 0.43379 0.286055 0.224907 -0.15533
C_ C_ 0.410171 0.327868 0.196641 0.18167
C_ C_ 0.483926 0.461924 0.124983 0.69207
C_ C_ 0.0201425 0.989412 0.113202 0.02923
C_ C_ 0.000397318 0.040213 0.103407 -0.15533
C_ C_ 0.0311079 0.0758472 0.0973551 -0.15533
C_ C_ 0.0840395 0.0638634 0.0973704 0.02923
C_ C_ 0.103351 0.0136017 0.0974396 -0.15533
C_ C_ 0.0721517 0.975601 0.104365 0.02923
C_ C_ 0.0968984 0.426069 0.108981 0.69207
C_ C_ 0.101726 0.160443 0.109637 0.69661
C_ C_ 0.433371 0.183604 0.421495 0.18167
C_ C_ 0.474966 0.205651 0.442915 -0.15533
C_ C_ 0.473478 0.233953 0.489038 0.02923
C_ C_ 0.426847 0.25138 0.0153981 -0.15533
C_ C_ 0.386141 0.212572 0.492023 0.18167
C_ C_ 0.24881 0.192132 0.351999 0.18167
C_ C_ 0.224708 0.216979 0.306972 -0.15533
C_ C_ 0.254725 0.236185 0.271427 0.02923
C_ C_ 0.306349 0.223362 0.27909 -0.15533
C_ C_ 0.328591 0.197325 0.321753 0.18167
C_ C_ 0.258679 0.118735 0.455039 0.69207
C_ C_ 0.226921 0.118865 0.995832 0.02923
C_ C_ 0.244481 0.118901 0.0486305 -0.15533
C_ C_ 0.214105 0.107211 0.0845399 -0.15533
C_ C_ 0.163469 0.0952782 0.0685485 0.02923
C_ C_ 0.147956 0.0894339 0.0148053 -0.15533
C_ C_ 0.178288 0.103364 0.977664 0.02923
C_ C_ 0.151182 0.0982402 0.427948 0.69207
C_ C_ 0.146409 0.0920647 0.163669 0.69661
C_ C_ 0.371665 0.389229 0.384124 -0.30787
C_ C_ 0.122029 0.102788 0.108309 -0.30787
N_ N_ 0.142036 0.056239 0.309549 -0.32189
N_ N_ 0.0554428 0.133478 0.317935 -0.32189
N_ N_ 0.107271 0.303297 0.0529559 -0.32189
N_ N_ 0.192573 0.314898 0.13855 -0.32189
N_ N_ 0.353034 0.450661 0.189253 -0.32189
N_ N_ 0.438421 0.361382 0.180273 -0.32189
N_ N_ 0.389422 0.19147 0.44535 -0.32189
N_ N_ 0.299904 0.181871 0.356619 -0.32189
O_ O_ 0.50451 0.0906005 0.383378 -0.63271
O_ O_ 0.0450139 0.0307784 0.347709 -0.57982
O_ O_ 0.396924 0.0970412 0.340572 -0.63271
O_ O_ 0.377674 0.0943294 0.419416 -0.57982
O_ O_ 0.235944 0.417672 0.0796577 -0.63271
O_ O_ 0.209649 0.344349 0.0381697 -0.57982
O_ O_ 0.338971 0.352725 0.0971547 -0.63271
O_ O_ 0.372678 0.425669 0.0879674 -0.57982
O_ O_ 0.991601 0.40298 0.0983836 -0.63271
O_ O_ 0.448902 0.469294 0.157009 -0.57982
O_ O_ 0.0922921 0.400366 0.148539 -0.63271
O_ O_ 0.127089 0.405541 0.073696 -0.57982
O_ O_ 0.25694 0.0881602 0.414169 -0.63271
O_ O_ 0.289174 0.155703 0.45803 -0.57982
O_ O_ 0.150112 0.138491 0.399262 -0.63271
O_ O_ 0.119404 0.0645656 0.412021 -0.57982
F_ F_ 0.429304 0.322748 0.426211 -0.20885
F_ F_ 0.424545 0.318979 0.342171 -0.20885
F_ F_ 0.360367 0.298704 0.378335 -0.20885
F_ F_ 0.314706 0.440577 0.325166 -0.20885
F_ F_ 0.318111 0.355817 0.309402 -0.20885
F_ F_ 0.379637 0.397632 0.291301 -0.20885
F_ F_ 0.0724515 0.167572 0.0621998 -0.20885
F_ F_ 0.0734206 0.175916 0.150284 -0.20885
F_ F_ 0.138858 0.19204 0.107854 -0.20885
F_ F_ 0.184162 0.0516907 0.166308 -0.20885
F_ F_ 0.16637 0.13475 0.188253 -0.20885
F_ F_ 0.112334 0.0828553 0.198007 -0.20885
Zn Zn 0.0864819 0.0918021 0.841532 0.83971
Zn Zn 0.156183 0.351169 0.586403 0.83971
Zn Zn 0.402908 0.417721 0.654115 0.83971
Zn Zn 0.340726 0.157821 0.921081 0.83971
H_ H_ 0.172794 0.130273 0.800196 0.10394
H_ H_ 0.247518 0.0945743 0.771931 0.10394
H_ H_ 0.196204 0.449924 0.771957 0.10394
H_ H_ 0.115424 0.986755 0.811175 0.10394
H_ H_ 0.504472 0.0958593 0.763409 0.10394
H_ H_ 0.470919 0.166195 0.704313 0.10394
H_ H_ 0.0425414 0.274004 0.837922 0.10394
H_ H_ 0.0765898 0.196074 0.87286 0.10394
H_ H_ 0.0304251 0.443086 0.862504 0.10394
H_ H_ 0.478031 0.381891 0.872485 0.10394
H_ H_ 0.347119 0.490714 0.895444 0.10394
H_ H_ 0.0720226 0.31466 0.631887 0.10394
H_ H_ 0.510232 0.24846 0.586034 0.10394
H_ H_ 0.0441649 0.275541 0.938095 0.10394
H_ H_ 0.115712 0.324573 0.486853 0.10394
H_ H_ 0.228425 0.261408 0.597021 0.10394
H_ H_ 0.265087 0.212549 0.674083 0.10394
H_ H_ 0.189114 0.319808 0.774151 0.10394
H_ H_ 0.162769 0.375534 0.702898 0.10394
H_ H_ 0.212503 0.367217 0.937517 0.10394
H_ H_ 0.260678 0.387119 0.87243 0.10394
H_ H_ 0.393196 0.404392 0.985781 0.10394
H_ H_ 0.293167 0.407128 0.655273 0.10394
H_ H_ 0.2229 0.468538 0.679971 0.10394
H_ H_ 0.328098 0.0351629 0.794252 0.10394
H_ H_ 0.399725 0.502497 0.737566 0.10394
H_ H_ 0.00973389 0.394111 0.694824 0.10394
H_ H_ 0.0513281 0.313354 0.724846 0.10394
H_ H_ 0.39528 0.261725 0.743277 0.10394
H_ H_ 0.356368 0.339158 0.695593 0.10394
H_ H_ 0.466428 0.0624551 0.613424 0.10394
H_ H_ 0.0221452 0.114079 0.620626 0.10394
H_ H_ 0.150254 0.00740816 0.590583 0.10394
H_ H_ 0.437511 0.174855 0.886911 0.10394
H_ H_ 0.0112206 0.19169 0.928035 0.10394
H_ H_ 0.423252 0.264329 0.549355 0.10394
H_ H_ 0.355526 0.222129 0.0134444 0.10394
H_ H_ 0.236811 0.213786 0.89759 0.10394
H_ H_ 0.186819 0.240455 0.821917 0.10394
H_ H_ 0.323022 0.214842 0.745264 0.10394
H_ H_ 0.369495 0.176605 0.816988 0.10394
H_ H_ 0.286152 0.121485 0.557754 0.10394
H_ H_ 0.235758 0.100138 0.62053 0.10394
H_ H_ 0.110451 0.0786437 0.507454 0.10394
C_ C_ 0.177508 0.0882615 0.798853 0.18167
C_ C_ 0.222553 0.0664229 0.78017 -0.15533
C_ C_ 0.228804 0.0138666 0.770264 0.02923
C_ C_ 0.193089 0.490054 0.784289 -0.15533
C_ C_ 0.143517 0.00931691 0.798497 0.18167
C_ C_ 0.0267459 0.147509 0.760795 0.18167
C_ C_ 0.491966 0.173498 0.743192 -0.15533
C_ C_ 0.00625309 0.240699 0.767817 0.02923
C_ C_ 0.0317067 0.240492 0.818481 -0.15533
C_ C_ 0.0552287 0.194637 0.83779 0.18167
C_ C_ 0.00202477 0.0535777 0.857895 0.69207
C_ C_ 0.467639 0.511511 0.877495 0.02923
C_ C_ 0.485138 0.459422 0.867254 -0.15533
C_ C_ 0.458321 0.419055 0.874212 -0.15533
C_ C_ 0.407908 0.428913 0.887331 0.02923
C_ C_ 0.386736 0.480692 0.890744 -0.15533
C_ C_ 0.417489 0.523395 0.890814 0.02923
C_ C_ 0.397452 0.0739705 0.886734 0.69207
C_ C_ 0.398841 0.331028 0.889457 0.69661
C_ C_ 0.0664362 0.301694 0.591262 0.18167
C_ C_ 0.0279778 0.270587 0.57221 -0.15533
C_ C_ 0.013457 0.269624 0.518651 0.02923
C_ C_ 0.0487979 0.283831 0.980068 -0.15533
C_ C_ 0.0855326 0.316308 0.509972 0.18167
C_ C_ 0.216546 0.271489 0.638215 0.18167
C_ C_ 0.238949 0.246443 0.680116 -0.15533
C_ C_ 0.224175 0.258681 0.729233 0.02923
C_ C_ 0.192862 0.303612 0.735087 -0.15533
C_ C_ 0.180518 0.338121 0.694593 0.18167
C_ C_ 0.234573 0.370102 0.540994 0.69207
C_ C_ 0.271646 0.382644 0.00146934 0.02923
C_ C_ 0.250343 0.382619 0.949734 -0.15533
C_ C_ 0.279229 0.387 0.911742 -0.15533
C_ C_ 0.333174 0.393019 0.923676 0.02923
C_ C_ 0.351706 0.400013 0.974847 -0.15533
C_ C_ 0.324393 0.388575 0.0132578 0.02923
C_ C_ 0.344548 0.381034 0.570477 0.69207
C_ C_ 0.348726 0.383236 0.827664 0.69661
C_ C_ 0.302316 0.440187 0.678877 0.18167
C_ C_ 0.260709 0.470612 0.699643 -0.15533
C_ C_ 0.273123 0.503324 0.743777 0.02923
C_ C_ 0.323569 0.00642125 0.764489 -0.15533
C_ C_ 0.362937 0.489675 0.72698 0.18167
C_ C_ 0.480181 0.338527 0.67365 0.18167
C_ C_ 0.0115003 0.317614 0.719342 -0.15533
C_ C_ 0.470969 0.266327 0.724456 0.02923
C_ C_ 0.417984 0.283878 0.723545 -0.15533
C_ C_ 0.397122 0.32501 0.694904 0.18167
C_ C_ 0.484163 0.453307 0.6158 0.69207
C_ C_ 0.0231494 0.986394 0.597982 0.02923
C_ C_ 0.00559617 0.0367453 0.605358 -0.15533
C_ C_ 0.0388823 0.0749374 0.611004 -0.15533
C_ C_ 0.090137 0.0647106 0.60732 0.02923
C_ C_ 0.109415 0.0149528 0.594816 -0.15533
C_ C_ 0.0782245 0.976118 0.59472 0.02923
C_ C_ 0.0909895 0.432234 0.610847 0.69207
C_ C_ 0.104497 0.161265 0.610495 0.69661
C_ C_ 0.436878 0.191846 0.924392 0.18167
C_ C_ 0.477601 0.215809 0.948165 -0.15533
C_ C_ 0.475866 0.244787 0.995972 0.02923
C_ C_ 0.427437 0.238543 0.513623 -0.15533
C_ C_ 0.38806 0.222599 0.994741 0.18167
C_ C_ 0.251732 0.200941 0.860598 0.18167
C_ C_ 0.224447 0.219607 0.816623 -0.15533
C_ C_ 0.250393 0.231256 0.775842 0.02923
C_ C_ 0.30302 0.211336 0.775531 -0.15533
C_ C_ 0.327122 0.18687 0.816461 0.18167
C_ C_ 0.25949 0.134225 0.957653 0.69207
C_ C_ 0.225753 0.113762 0.494843 0.02923
C_ C_ 0.246729 0.112468 0.545836 -0.15533
C_ C_ 0.215514 0.105397 0.583137 -0.15533
C_ C_ 0.164551 0.101279 0.570584 0.02923
C_ C_ 0.147894 0.0915736 0.519452 -0.15533
C_ C_ 0.176175 0.100189 0.480784 0.02923
C_ C_ 0.15413 0.106882 0.924974 0.69207
C_ C_ 0.154475 0.1016 0.667577 0.69661
C_ C_ 0.372345 0.386186 0.883226 -0.30787
C_ C_ 0.127579 0.105926 0.612723 -0.30787
N_ N_ 0.141048 0.0623214 0.809359 -0.32189
N_ N_ 0.0483098 0.150009 0.810155 -0.32189
N_ N_ 0.0963783 0.319984 0.560248 -0.32189
N_ N_ 0.18732 0.317571 0.64643 -0.32189
N_ N_ 0.35187 0.451508 0.691222 -0.32189
N_ N_ 0.428203 0.351177 0.671322 -0.32189
N_ N_ 0.392527 0.195397 0.948073 -0.32189
N_ N_ 0.303262 0.184586 0.85817 -0.32189
O_ O_ 0.515796 0.088401 0.907989 -0.63271
O_ O_ 0.0433854 0.0412739 0.835212 -0.57982
O_ O_ 0.40462 0.0999603 0.847117 -0.63271
O_ O_ 0.369306 0.0939592 0.922196 -0.57982
O_ O_ 0.235958 0.401636 0.581273 -0.63271
O_ O_ 0.196382 0.342808 0.531711 -0.57982
O_ O_ 0.33776 0.34288 0.596976 -0.63271
O_ O_ 0.372402 0.417067 0.590402 -0.57982
O_ O_ 0.986053 0.416754 0.597608 -0.63271
O_ O_ 0.453905 0.458584 0.652605 -0.57982
O_ O_ 0.0891255 0.406114 0.652117 -0.63271
O_ O_ 0.125362 0.414773 0.580102 -0.57982
O_ O_ 0.260223 0.109915 0.911872 -0.63271
O_ O_ 0.29622 0.162295 0.971718 -0.57982
O_ O_ 0.155984 0.147686 0.89903 -0.63271
O_ O_ 0.113968 0.0805016 0.908624 -0.57982
F_ F_ 0.433378 0.333204 0.935181 -0.20885
F_ F_ 0.42845 0.309087 0.851447 -0.20885
F_ F_ 0.36488 0.298557 0.900024 -0.20885
F_ F_ 0.312734 0.424942 0.814267 -0.20885
F_ F_ 0.320553 0.343505 0.812765 -0.20885
F_ F_ 0.384768 0.38135 0.792959 -0.20885
F_ F_ 0.0691296 0.167708 0.568229 -0.20885
F_ F_ 0.079219 0.178389 0.651795 -0.20885
F_ F_ 0.142982 0.193809 0.606014 -0.20885
F_ F_ 0.179275 0.0541267 0.669079 -0.20885
F_ F_ 0.190803 0.135314 0.685865 -0.20885
F_ F_ 0.119861 0.103989 0.704452 -0.20885
Zn Zn 0.0904472 0.583133 0.352848 0.83971
Zn Zn 0.156958 0.847784 0.08313 0.83971
Zn Zn 0.410981 0.916838 0.153778 0.83971
Zn Zn 0.333108 0.659817 0.422987 0.83971
H_ H_ 0.169087 0.632803 0.304403 0.10394
H_ H_ 0.239183 0.600581 0.251349 0.10394
H_ H_ 0.224534 0.948475 0.303991 0.10394
H_ H_ 0.141143 0.485489 0.33598 0.10394
H_ H_ 0.528061 0.592851 0.252368 0.10394
H_ H_ 0.483203 0.661046 0.200217 0.10394
H_ H_ 0.0309332 0.767375 0.328776 0.10394
H_ H_ 0.05953 0.697175 0.383811 0.10394
H_ H_ 0.025607 0.936446 0.348873 0.10394
H_ H_ 0.480068 0.880053 0.376763 0.10394
H_ H_ 0.355976 0.9957 0.402367 0.10394
H_ H_ 0.0823551 0.797903 0.12645 0.10394
H_ H_ 0.507587 0.770964 0.0989952 0.10394
H_ H_ 0.053257 0.773962 0.442684 0.10394
H_ H_ 0.125093 0.805702 0.977975 0.10394
H_ H_ 0.221213 0.751275 0.0990191 0.10394
H_ H_ 0.2578 0.703056 0.167462 0.10394
H_ H_ 0.212464 0.835305 0.268893 0.10394
H_ H_ 0.174414 0.876075 0.193526 0.10394
H_ H_ 0.223054 0.885166 0.452653 0.10394
H_ H_ 0.265141 0.899407 0.383802 0.10394
H_ H_ 0.401609 0.907804 0.492611 0.10394
H_ H_ 0.307866 0.900452 0.167346 0.10394
H_ H_ 0.236034 0.942215 0.205849 0.10394
H_ H_ 0.332738 0.540851 0.283398 0.10394
H_ H_ 0.40616 0.0028565 0.234975 0.10394
H_ H_ 0.0179184 0.87555 0.187205 0.10394
H_ H_ 0.0589408 0.796262 0.224007 0.10394
H_ H_ 0.417074 0.741764 0.213384 0.10394
H_ H_ 0.375257 0.826721 0.195607 0.10394
H_ H_ 0.459043 0.564404 0.109006 0.10394
H_ H_ 0.00766178 0.614818 0.0840196 0.10394
H_ H_ 0.140557 0.503671 0.0873913 0.10394
H_ H_ 0.434446 0.663999 0.397493 0.10394
H_ H_ 0.0196755 0.681575 0.455245 0.10394
H_ H_ 0.421095 0.77933 0.0526074 0.10394
H_ H_ 0.350264 0.736023 0.512797 0.10394
H_ H_ 0.233107 0.709912 0.388769 0.10394
H_ H_ 0.191814 0.741936 0.305396 0.10394
H_ H_ 0.337558 0.726338 0.248599 0.10394
H_ H_ 0.376394 0.680438 0.321469 0.10394
H_ H_ 0.282286 0.621281 0.0652533 0.10394
H_ H_ 0.225189 0.621061 0.130667 0.10394
H_ H_ 0.104895 0.591488 0.00794683 0.10394
C_ C_ 0.174034 0.593405 0.294732 0.18167
C_ C_ 0.217213 0.574407 0.271547 -0.15533
C_ C_ 0.233439 0.523258 0.270743 0.02923
C_ C_ 0.209829 0.98896 0.30025 -0.15533
C_ C_ 0.16683 0.510855 0.323255 0.18167
C_ C_ 0.0281284 0.631234 0.273811 0.18167
C_ C_ 0.509823 0.67028 0.235768 -0.15533
C_ C_ 0.0135679 0.721433 0.263389 0.02923
C_ C_ 0.0354874 0.729523 0.312678 -0.15533
C_ C_ 0.0497665 0.688302 0.342194 0.18167
C_ C_ 0.00808976 0.546128 0.365762 0.69207
C_ C_ 0.47603 0.00477181 0.364179 0.02923
C_ C_ 0.494222 0.953072 0.367286 -0.15533
C_ C_ 0.460983 0.917615 0.372623 -0.15533
C_ C_ 0.413209 0.931229 0.387744 0.02923
C_ C_ 0.396743 0.984189 0.396017 -0.15533
C_ C_ 0.428015 0.0207125 0.383355 0.02923
C_ C_ 0.388295 0.572341 0.390985 0.69207
C_ C_ 0.402877 0.833563 0.3988 0.69661
C_ C_ 0.0707707 0.80038 0.0870522 0.18167
C_ C_ 0.0267356 0.77865 0.0681744 -0.15533
C_ C_ 0.0127317 0.771533 0.0149501 0.02923
C_ C_ 0.0591647 0.779958 0.485174 -0.15533
C_ C_ 0.0981871 0.796799 0.00391713 0.18167
C_ C_ 0.220682 0.770233 0.135366 0.18167
C_ C_ 0.238532 0.742592 0.176486 -0.15533
C_ C_ 0.238549 0.765257 0.226563 0.02923
C_ C_ 0.216407 0.815317 0.231982 -0.15533
C_ C_ 0.194706 0.840794 0.187586 0.18167
C_ C_ 0.242568 0.865733 0.0486753 0.69207
C_ C_ 0.282999 0.884668 0.509773 0.02923
C_ C_ 0.26106 0.892392 0.461225 -0.15533
C_ C_ 0.286708 0.903566 0.422221 -0.15533
C_ C_ 0.340811 0.897645 0.432531 0.02923
C_ C_ 0.360818 0.902066 0.483405 -0.15533
C_ C_ 0.333244 0.89111 0.522505 0.02923
C_ C_ 0.35447 0.887219 0.0739246 0.69207
C_ C_ 0.346485 0.885628 0.333539 0.69661
C_ C_ 0.313964 0.934715 0.186887 0.18167
C_ C_ 0.273831 0.956683 0.212849 -0.15533
C_ C_ 0.278932 1.000815666 0.24592 0.02923
C_ C_ 0.32312 0.511164 0.254361 -0.15533
C_ C_ 0.3698 0.993083 0.229397 0.18167
C_ C_ 0.496762 0.849413 0.192146 0.18167
C_ C_ 0.0208202 0.803117 0.222177 -0.15533
C_ C_ 0.489545 0.765508 0.22439 0.02923
C_ C_ 0.439638 0.770668 0.205054 -0.15533
C_ C_ 0.416085 0.818627 0.190965 0.18167
C_ C_ 0.492271 0.947861 0.119994 0.69207
C_ C_ 0.0201456 0.489967 0.115291 0.02923
C_ C_ -0.003866999999999954 0.538258 0.10247 -0.15533
C_ C_ 0.0277094 0.578275 0.0948765 -0.15533
C_ C_ 0.0809087 0.566482 0.0939153 0.02923
C_ C_ 0.0988247 0.516514 0.0926688 -0.15533
C_ C_ 0.0708438 0.477356 0.103836 0.02923
C_ C_ 0.0950134 0.922496 0.102397 0.69207
C_ C_ 0.0895965 0.662413 0.109729 0.69661
C_ C_ 0.433195 0.682733 0.43368 0.18167
C_ C_ 0.47578 0.703814 0.454092 -0.15533
C_ C_ 0.472781 0.742621 0.49309 0.02923
C_ C_ 0.425884 0.75576 0.0190383 -0.15533
C_ C_ 0.385345 0.727017 0.495318 0.18167
C_ C_ 0.255536 0.706494 0.355285 0.18167
C_ C_ 0.231649 0.727658 0.309851 -0.15533
C_ C_ 0.261243 0.735632 0.270412 0.02923
C_ C_ 0.312223 0.721965 0.277825 -0.15533
C_ C_ 0.335128 0.695897 0.321181 0.18167
C_ C_ 0.258952 0.631199 0.456869 0.69207
C_ C_ 0.223683 0.624342 1.000718296 0.02923
C_ C_ 0.2423 0.627191 0.0529993 -0.15533
C_ C_ 0.208347 0.618429 0.0887041 -0.15533
C_ C_ 0.158647 0.605119 0.0724494 0.02923
C_ C_ 0.143315 0.597206 0.0208047 -0.15533
C_ C_ 0.172551 0.615305 0.98574 0.02923
C_ C_ 0.151376 0.613192 0.43065 0.69207
C_ C_ 0.139854 0.596646 0.164437 0.69661
C_ C_ 0.376345 0.889403 0.38903 -0.30787
C_ C_ 0.116855 0.607656 0.109434 -0.30787
N_ N_ 0.150704 0.56231 0.322135 -0.32189
N_ N_ 0.0526647 0.639484 0.321285 -0.32189
N_ N_ 0.107258 0.806769 0.0541802 -0.32189
N_ N_ 0.193303 0.817425 0.140732 -0.32189
N_ N_ 0.361735 0.951685 0.196846 -0.32189
N_ N_ 0.443908 0.85719 0.182759 -0.32189
N_ N_ 0.388233 0.695135 0.452767 -0.32189
N_ N_ 0.30695 0.691751 0.362126 -0.32189
O_ O_ 0.503703 0.589462 0.401797 -0.63271
O_ O_ 0.0486498 0.531851 0.342762 -0.57982
O_ O_ 0.390133 0.59517 0.349193 -0.63271
O_ O_ 0.358408 0.592831 0.42528 -0.57982
O_ O_ 0.247799 0.887366 0.0955256 -0.63271
O_ O_ 0.204696 0.838012 0.037075 -0.57982
O_ O_ 0.355548 0.847509 0.100023 -0.63271
O_ O_ 0.383177 0.922454 0.0924154 -0.57982
O_ O_ 0.989928 0.904429 0.0986014 -0.63271
O_ O_ 0.459939 0.96156 0.152092 -0.57982
O_ O_ 0.0993558 0.898146 0.144212 -0.63271
O_ O_ 0.128803 0.908807 0.0686381 -0.57982
O_ O_ 0.25873 0.611565 0.409967 -0.63271
O_ O_ 0.291523 0.66364 0.469987 -0.57982
O_ O_ 0.153765 0.653275 0.402749 -0.63271
O_ O_ 0.113002 0.585886 0.416883 -0.57982
F_ F_ 0.445845 0.836115 0.435764 -0.20885
F_ F_ 0.421565 0.808428 0.35582 -0.20885
F_ F_ 0.371095 0.80048 0.412354 -0.20885
F_ F_ 0.311509 0.926134 0.327598 -0.20885
F_ F_ 0.323481 0.840524 0.323387 -0.20885
F_ F_ 0.378791 0.886728 0.294779 -0.20885
F_ F_ 0.0599282 0.67109 0.0656935 -0.20885
F_ F_ 0.0578279 0.669759 0.147445 -0.20885
F_ F_ 0.123847 0.698905 0.1181 -0.20885
F_ F_ 0.175414 0.553938 0.165541 -0.20885
F_ F_ 0.161462 0.637578 0.189271 -0.20885
F_ F_ 0.103019 0.587144 0.195112 -0.20885
Zn Zn 0.0835199 0.588947 0.848616 0.83971
Zn Zn 0.167644 0.845229 0.582667 0.83971
Zn Zn 0.412788 0.920859 0.65976 0.83971
Zn Zn 0.337161 0.659065 0.924419 0.83971
H_ H_ 0.17307 0.631251 0.825019 0.10394
H_ H_ 0.254709 0.594956 0.795961 0.10394
H_ H_ 0.193493 0.944757 0.769534 0.10394
H_ H_ 0.12192 0.484583 0.809472 0.10394
H_ H_ 0.509856 0.59839 0.765801 0.10394
H_ H_ 0.475135 0.673971 0.713579 0.10394
H_ H_ 0.0304268 0.771964 0.835305 0.10394
H_ H_ 0.0659098 0.694336 0.880958 0.10394
H_ H_ 0.0229079 0.951278 0.842884 0.10394
H_ H_ 0.48851 0.884971 0.90289 0.10394
H_ H_ 0.350888 0.993938 0.896517 0.10394
H_ H_ 0.0891636 0.806505 0.630056 0.10394
H_ H_ 0.508711 0.762283 0.588743 0.10394
H_ H_ 0.0513407 0.761126 0.943689 0.10394
H_ H_ 0.132365 0.80833 0.476163 0.10394
H_ H_ 0.222562 0.74915 0.600612 0.10394
H_ H_ 0.265311 0.702469 0.680747 0.10394
H_ H_ 0.212253 0.83559 0.775107 0.10394
H_ H_ 0.184131 0.885176 0.693786 0.10394
H_ H_ 0.225628 0.848082 0.944916 0.10394
H_ H_ 0.274208 0.861024 0.877136 0.10394
H_ H_ 0.396338 0.90754 0.989188 0.10394
H_ H_ 0.313469 0.901913 0.659177 0.10394
H_ H_ 0.23581 0.945834 0.688418 0.10394
H_ H_ 0.333407 0.532243 0.792849 0.10394
H_ H_ 0.401785 0.00170264 0.7467 0.10394
H_ H_ 0.0105245 0.886922 0.697799 0.10394
H_ H_ 0.0470135 0.817392 0.756606 0.10394
H_ H_ 0.408518 0.757663 0.743086 0.10394
H_ H_ 0.370908 0.838447 0.70682 0.10394
H_ H_ 0.463449 0.555386 0.627894 0.10394
H_ H_ 0.0195451 0.631552 0.616422 0.10394
H_ H_ 0.138641 0.507173 0.585993 0.10394
H_ H_ 0.438619 0.666897 0.898622 0.10394
H_ H_ 0.012126 0.679778 0.956981 0.10394
H_ H_ 0.422705 0.777241 0.55118 0.10394
H_ H_ 0.346142 0.734733 0.0114187 0.10394
H_ H_ 0.232708 0.706236 0.88972 0.10394
H_ H_ 0.194868 0.73697 0.80531 0.10394
H_ H_ 0.339892 0.72737 0.752226 0.10394
H_ H_ 0.379973 0.696275 0.837722 0.10394
H_ H_ 0.289897 0.608712 0.553541 0.10394
H_ H_ 0.239223 0.601033 0.623135 0.10394
H_ H_ 0.107968 0.597854 0.50967 0.10394
C_ C_ 0.177542 0.591556 0.812869 0.18167
C_ C_ 0.223817 0.571547 0.795646 -0.15533
C_ C_ 0.229001 0.522093 0.775769 0.02923
C_ C_ 0.189924 0.985446 0.778829 -0.15533
C_ C_ 0.151003 0.508939 0.806914 0.18167
C_ C_ 0.0398496 0.638865 0.765004 0.18167
C_ C_ 0.499901 0.677984 0.748859 -0.15533
C_ C_ 0.0109639 0.729905 0.763623 0.02923
C_ C_ 0.0264511 0.732293 0.817176 -0.15533
C_ C_ 0.047341 0.69009 0.841203 0.18167
C_ C_ 0.00813473 0.544712 0.870848 0.69207
C_ C_ 0.47629 0.0111216 0.885677 0.02923
C_ C_ 0.497719 0.960445 0.887165 -0.15533
C_ C_ 0.467484 0.921424 0.893534 -0.15533
C_ C_ 0.413976 0.930071 0.892787 0.02923
C_ C_ 0.392783 0.981105 0.891384 -0.15533
C_ C_ 0.423457 0.0224249 0.888113 0.02923
C_ C_ 0.392448 0.576092 0.891159 0.69207
C_ C_ 0.410213 0.829145 0.892021 0.69661
C_ C_ 0.0808104 0.797832 0.589157 0.18167
C_ C_ 0.0343761 0.780601 0.569671 -0.15533
C_ C_ 0.0237736 0.768651 0.517338 0.02923
C_ C_ 0.0536654 0.773733 0.98321 -0.15533
C_ C_ 0.103619 0.801927 0.502603 0.18167
C_ C_ 0.222877 0.769916 0.640657 0.18167
C_ C_ 0.245749 0.742233 0.684339 -0.15533
C_ C_ 0.242345 0.767358 0.731161 0.02923
C_ C_ 0.216084 0.817093 0.737056 -0.15533
C_ C_ 0.198069 0.844437 0.691763 0.18167
C_ C_ 0.251122 0.869636 0.548759 0.69207
C_ C_ 0.276856 0.873503 0.00842642 0.02923
C_ C_ 0.260047 0.865517 0.956587 -0.15533
C_ C_ 0.288366 0.872921 0.916434 -0.15533
C_ C_ 0.339884 0.889545 0.92778 0.02923
C_ C_ 0.357654 0.896917 0.980943 -0.15533
C_ C_ 0.328385 0.89011 0.0212409 0.02923
C_ C_ 0.359301 0.884451 0.576507 0.69207
C_ C_ 0.355822 0.885463 0.832991 0.69661
C_ C_ 0.31624 0.932525 0.6878 0.18167
C_ C_ 0.273163 0.954854 0.707827 -0.15533
C_ C_ 0.277183 0.988985 0.749577 0.02923
C_ C_ 0.322981 0.511244 0.757514 -0.15533
C_ C_ 0.36605 0.987641 0.737467 0.18167
C_ C_ 0.494217 0.851079 0.697663 0.18167
C_ C_ 0.00991929 0.816593 0.734074 -0.15533
C_ C_ 0.486692 0.771731 0.737639 0.02923
C_ C_ 0.433822 0.784155 0.73404 -0.15533
C_ C_ 0.412931 0.828236 0.707203 0.18167
C_ C_ 0.487293 0.957797 0.628818 0.69207
C_ C_ 0.0185436 0.497996 0.618291 0.02923
C_ C_ 1.00284319 0.552512 0.624814 -0.15533
C_ C_ 0.0356346 0.590896 0.617274 -0.15533
C_ C_ 0.0870276 0.57507 0.606695 0.02923
C_ C_ 0.100174 0.521799 0.595804 -0.15533
C_ C_ 0.0691018 0.484782 0.60873 0.02923
C_ C_ 0.10288 0.92301 0.598282 0.69207
C_ C_ 0.114467 0.669379 0.617956 0.69661
C_ C_ 0.438941 0.685755 0.937362 0.18167
C_ C_ 0.479672 0.710464 0.959967 -0.15533
C_ C_ 0.476283 0.744094 0.0036656 0.02923
C_ C_ 0.428086 0.751605 0.517236 -0.15533
C_ C_ 0.383017 0.732189 0.993704 0.18167
C_ C_ 0.257536 0.71163 0.860378 0.18167
C_ C_ 0.236265 0.733578 0.816173 -0.15533
C_ C_ 0.266552 0.742478 0.778874 0.02923
C_ C_ 0.318822 0.725915 0.783856 -0.15533
C_ C_ 0.34021 0.701441 0.829864 0.18167
C_ C_ 0.25693 0.63549 0.959856 0.69207
C_ C_ 0.227862 0.616871 0.494974 0.02923
C_ C_ 0.250115 0.610163 0.546149 -0.15533
C_ C_ 0.220073 0.603394 0.584034 -0.15533
C_ C_ 0.167503 0.600777 0.572537 0.02923
C_ C_ 0.147418 0.597625 0.521513 -0.15533
C_ C_ 0.177148 0.607755 0.482048 0.02923
C_ C_ 0.153187 0.615578 0.929272 0.69207
C_ C_ 0.153463 0.596996 0.670492 0.69661
C_ C_ 0.381983 0.883806 0.888875 -0.30787
C_ C_ 0.129704 0.611637 0.616025 -0.30787
N_ N_ 0.139072 0.560612 0.812357 -0.32189
N_ N_ 0.0565239 0.645312 0.815922 -0.32189
N_ N_ 0.113456 0.811512 0.555502 -0.32189
N_ N_ 0.198219 0.818154 0.644636 -0.32189
N_ N_ 0.362083 0.947241 0.702769 -0.32189
N_ N_ 0.442499 0.8617 0.693803 -0.32189
N_ N_ 0.391116 0.69862 0.952356 -0.32189
N_ N_ 0.307767 0.687916 0.862975 -0.32189
O_ O_ 0.498179 0.597517 0.896118 -0.63271
O_ O_ 0.0409911 0.538577 0.836414 -0.57982
O_ O_ 0.388552 0.600803 0.847243 -0.63271
O_ O_ 0.364733 0.594308 0.929001 -0.57982
O_ O_ 0.254514 0.891546 0.59471 -0.63271
O_ O_ 0.216688 0.83616 0.536161 -0.57982
O_ O_ 0.359567 0.842669 0.601528 -0.63271
O_ O_ 0.380568 0.922991 0.596693 -0.57982
O_ O_ 0.995173 0.90023 0.589315 -0.63271
O_ O_ 0.454598 0.967998 0.663343 -0.57982
O_ O_ 0.0998431 0.898838 0.638645 -0.63271
O_ O_ 0.144818 0.909594 0.575827 -0.57982
O_ O_ 0.257083 0.605326 0.917531 -0.63271
O_ O_ 0.293876 0.664561 0.970755 -0.57982
O_ O_ 0.151728 0.658751 0.906651 -0.63271
O_ O_ 0.121772 0.582958 0.910815 -0.57982
F_ F_ 0.439909 0.829398 0.937311 -0.20885
F_ F_ 0.438802 0.821989 0.851368 -0.20885
F_ F_ 0.380593 0.790347 0.891596 -0.20885
F_ F_ 0.311888 0.92335 0.829789 -0.20885
F_ F_ 0.339 0.837823 0.817489 -0.20885
F_ F_ 0.388391 0.893098 0.798609 -0.20885
F_ F_ 0.0845387 0.680754 0.571671 -0.20885
F_ F_ 0.0846855 0.687552 0.656198 -0.20885
F_ F_ 0.15474 0.702554 0.621291 -0.20885
F_ F_ 0.175376 0.547197 0.67049 -0.20885
F_ F_ 0.188236 0.63028 0.69248 -0.20885
F_ F_ 0.118746 0.595291 0.704204 -0.20885
Zn Zn 0.589727 0.0855688 0.342135 0.83971
Zn Zn 0.65744 0.35342 0.0925415 0.83971
Zn Zn 0.907343 0.412378 0.16322 0.83971
Zn Zn 0.84509 0.148576 0.411979 0.83971
H_ H_ 0.679661 0.136391 0.30674 0.10394
H_ H_ 0.761686 0.0986584 0.274228 0.10394
H_ H_ 0.708341 0.451927 0.28994 0.10394
H_ H_ 0.635226 0.989301 0.31857 0.10394
H_ H_ 0.0324991 0.0819934 0.255843 0.10394
H_ H_ 0.99243 0.150072 0.198295 0.10394
H_ H_ 0.552109 0.276333 0.317433 0.10394
H_ H_ 0.576754 0.19962 0.370223 0.10394
H_ H_ 0.533011 0.450045 0.39112 0.10394
H_ H_ 0.987234 0.379247 0.382 0.10394
H_ H_ 0.85714 0.492598 0.409519 0.10394
H_ H_ 0.580183 0.309447 0.132229 0.10394
H_ H_ 1.00523699 0.257755 0.0914688 0.10394
H_ H_ 0.53418 0.297426 0.441817 0.10394
H_ H_ 0.624276 0.319986 0.983946 0.10394
H_ H_ 0.700056 0.259139 0.106581 0.10394
H_ H_ 0.742063 0.200857 0.174945 0.10394
H_ H_ 0.718887 0.331556 0.276794 0.10394
H_ H_ 0.679851 0.384873 0.202333 0.10394
H_ H_ 0.715997 0.375883 0.447593 0.10394
H_ H_ 0.771995 0.373425 0.382855 0.10394
H_ H_ 0.897216 0.402685 0.492266 0.10394
H_ H_ 0.800434 0.407927 0.158138 0.10394
H_ H_ 0.728073 0.456033 0.193414 0.10394
H_ H_ 0.838144 0.0513908 0.269461 0.10394
H_ H_ 0.905611 0.500236 0.238498 0.10394
H_ H_ 0.509315 0.394669 0.206305 0.10394
H_ H_ 0.555662 0.311731 0.222275 0.10394
H_ H_ 0.901964 0.241497 0.237345 0.10394
H_ H_ 0.863261 0.316543 0.191297 0.10394
H_ H_ 0.959095 0.0510999 0.104904 0.10394
H_ H_ 0.51913 0.112821 0.0866668 0.10394
H_ H_ 0.653196 0.00263874 0.0961431 0.10394
H_ H_ 0.944953 0.163629 0.389962 0.10394
H_ H_ 0.512059 0.193037 0.429693 0.10394
H_ H_ 0.923329 0.277895 0.0432064 0.10394
H_ H_ 0.841652 0.23423 0.492889 0.10394
H_ H_ 0.743474 0.185158 0.386069 0.10394
H_ H_ 0.702351 0.246388 0.324052 0.10394
H_ H_ 0.831381 0.211404 0.238685 0.10394
H_ H_ 0.877768 0.176309 0.314299 0.10394
H_ H_ 0.787516 0.134396 0.0521879 0.10394
H_ H_ 0.733774 0.11228 0.118786 0.10394
H_ H_ 0.60909 0.0938215 0.00562829 0.10394
C_ C_ 0.683842 0.0968063 0.296435 0.18167
C_ C_ 0.729524 0.0765802 0.276362 -0.15533
C_ C_ 0.737438 0.0249475 0.266891 0.02923
C_ C_ 0.69905 0.492544 0.292928 -0.15533
C_ C_ 0.660709 0.01594 0.305456 0.18167
C_ C_ 0.530215 0.139346 0.266127 0.18167
C_ C_ 0.00609973 0.157615 0.239808 -0.15533
C_ C_ 0.514814 0.231839 0.256614 0.02923
C_ C_ 0.544728 0.236895 0.303252 -0.15533
C_ C_ 0.561119 0.195379 0.332498 0.18167
C_ C_ 0.51259 0.0440862 0.361996 0.69207
C_ C_ 0.975336 0.506846 0.379608 0.02923
C_ C_ 0.997412 0.45531 0.382775 -0.15533
C_ C_ 0.966976 0.416549 0.389661 -0.15533
C_ C_ 0.91484 0.426527 0.39549 0.02923
C_ C_ 0.896235 0.478834 0.405811 -0.15533
C_ C_ 0.9259 0.518643 0.395315 0.02923
C_ C_ 0.894559 0.0644728 0.373998 0.69207
C_ C_ 0.900104 0.329228 0.385732 0.69661
C_ C_ 0.574611 0.299954 0.0909487 0.18167
C_ C_ 0.528355 0.281456 0.0713054 -0.15533
C_ C_ 0.517733 0.276555 0.0178062 0.02923
C_ C_ 0.546913 0.287808 0.480743 -0.15533
C_ C_ 0.597472 0.3106 0.00928353 0.18167
C_ C_ 0.707363 0.27335 0.142345 0.18167
C_ C_ 0.728132 0.241625 0.181034 -0.15533
C_ C_ 0.733208 0.262446 0.230621 0.02923
C_ C_ 0.715963 0.314109 0.23923 -0.15533
C_ C_ 0.693491 0.345409 0.198326 0.18167
C_ C_ 0.741934 0.374869 0.0501154 0.69207
C_ C_ 0.775667 0.376366 0.509427 0.02923
C_ C_ 0.756507 0.374793 0.458047 -0.15533
C_ C_ 0.786368 0.385363 0.420718 -0.15533
C_ C_ 0.837341 0.394758 0.430528 0.02923
C_ C_ 0.855701 0.397262 0.482166 -0.15533
C_ C_ 0.82735 0.388673 0.520906 0.02923
C_ C_ 0.853645 0.377577 0.0712927 0.69207
C_ C_ 0.850415 0.39135 0.330602 0.69661
C_ C_ 0.806407 0.440802 0.181941 0.18167
C_ C_ 0.764934 0.466806 0.205655 -0.15533
C_ C_ 0.77437 0.502525 0.246117 0.02923
C_ C_ 0.830647 0.015806 0.246794 -0.15533
C_ C_ 0.865462 0.494323 0.228514 0.18167
C_ C_ 0.986278 0.334113 0.189466 0.18167
C_ C_ 0.516161 0.313286 0.212747 -0.15533
C_ C_ 0.979753 0.252205 0.226195 0.02923
C_ C_ 0.926244 0.265936 0.223845 -0.15533
C_ C_ 0.905025 0.312519 0.204538 0.18167
C_ C_ 0.989123 0.44886 0.125191 0.69207
C_ C_ 0.526247 0.986583 0.1073 0.02923
C_ C_ 0.506041 0.0378299 0.100858 -0.15533
C_ C_ 0.538929 0.0750664 0.0977616 -0.15533
C_ C_ 0.591604 0.0630781 0.100366 0.02923
C_ C_ 0.611107 0.0127827 0.101923 -0.15533
C_ C_ 0.579743 0.974519 0.104947 0.02923
C_ C_ 0.592577 0.433231 0.126706 0.69207
C_ C_ 0.600898 0.161516 0.104972 0.69661
C_ C_ 0.93917 0.187162 0.425294 0.18167
C_ C_ 0.979844 0.210289 0.451385 -0.15533
C_ C_ 0.971405 0.239956 0.496665 0.02923
C_ C_ 0.926154 0.248267 0.0123062 -0.15533
C_ C_ 0.882862 0.223808 0.484221 0.18167
C_ C_ 0.764249 0.196209 0.355912 0.18167
C_ C_ 0.735977 0.223332 0.316346 -0.15533
C_ C_ 0.759368 0.232488 0.273242 0.02923
C_ C_ 0.812433 0.214835 0.271965 -0.15533
C_ C_ 0.837098 0.188253 0.314643 0.18167
C_ C_ 0.769648 0.118467 0.447394 0.69207
C_ C_ 0.72658 0.124432 0.989113 0.02923
C_ C_ 0.747619 0.124915 0.0408253 -0.15533
C_ C_ 0.718532 0.11373 0.0790512 -0.15533
C_ C_ 0.668098 0.101837 0.0675986 0.02923
C_ C_ 0.648982 0.0987327 0.0149191 -0.15533
C_ C_ 0.676071 0.114123 0.97707 0.02923
C_ C_ 0.657158 0.102102 0.421251 0.69207
C_ C_ 0.650731 0.101138 0.162411 0.69661
C_ C_ 0.876799 0.38486 0.388055 -0.30787
C_ C_ 0.628371 0.106405 0.106031 -0.30787
N_ N_ 0.646171 0.066617 0.303896 -0.32189
N_ N_ 0.556333 0.147448 0.312467 -0.32189
N_ N_ 0.607925 0.313738 0.060644 -0.32189
N_ N_ 0.692425 0.32195 0.150011 -0.32189
N_ N_ 0.85561 0.451351 0.197391 -0.32189
N_ N_ 0.935445 0.347016 0.189701 -0.32189
N_ N_ 0.893384 0.190105 0.444621 -0.32189
N_ N_ 0.813426 0.178753 0.354297 -0.32189
O_ O_ 0.00176367 0.0797951 0.405044 -0.63271
O_ O_ 0.550956 0.0321426 0.332944 -0.57982
O_ O_ 0.897551 0.0894907 0.333423 -0.63271
O_ O_ 0.882374 0.0888772 0.41616 -0.57982
O_ O_ 0.739851 0.408909 0.0856035 -0.63271
O_ O_ 0.704337 0.342787 0.0439278 -0.57982
O_ O_ 0.847212 0.338221 0.0959973 -0.63271
O_ O_ 0.879172 0.412231 0.0969473 -0.57982
O_ O_ 0.487087 0.418986 0.0967492 -0.63271
O_ O_ 0.955273 0.455866 0.156804 -0.57982
O_ O_ 0.595253 0.408251 0.169002 -0.63271
O_ O_ 0.615727 0.412197 0.0883346 -0.57982
O_ O_ 0.773462 0.0896753 0.405729 -0.63271
O_ O_ 0.800436 0.153446 0.458899 -0.57982
O_ O_ 0.658889 0.142372 0.396747 -0.63271
O_ O_ 0.62429 0.0697437 0.405045 -0.57982
F_ F_ 0.930966 0.321593 0.432498 -0.20885
F_ F_ 0.928274 0.316931 0.344193 -0.20885
F_ F_ 0.864401 0.296737 0.381442 -0.20885
F_ F_ 0.820164 0.436168 0.328132 -0.20885
F_ F_ 0.821238 0.352893 0.3105 -0.20885
F_ F_ 0.885 0.39484 0.296388 -0.20885
F_ F_ 0.568354 0.168025 0.057947 -0.20885
F_ F_ 0.566763 0.172932 0.141161 -0.20885
F_ F_ 0.634587 0.197245 0.107953 -0.20885
F_ F_ 0.685831 0.0611796 0.167973 -0.20885
F_ F_ 0.676103 0.142097 0.179749 -0.20885
F_ F_ 0.611787 0.0996565 0.192901 -0.20885
Zn Zn 0.587977 0.0850685 0.844599 0.83971
Zn Zn 0.659025 0.342782 0.581602 0.83971
Zn Zn 0.904868 0.42493 0.657738 0.83971
Zn Zn 0.839388 0.15373 0.913889 0.83971
H_ H_ 0.66479 0.130763 0.797779 0.10394
H_ H_ 0.744056 0.0973768 0.759103 0.10394
H_ H_ 0.714632 0.449203 0.800594 0.10394
H_ H_ 0.629435 0.978151 0.814618 0.10394
H_ H_ 0.0216532 0.111113 0.743841 0.10394
H_ H_ 0.987933 0.193261 0.700642 0.10394
H_ H_ 0.525369 0.273135 0.817511 0.10394
H_ H_ 0.585518 0.203967 0.858553 0.10394
H_ H_ 0.52486 0.449423 0.855686 0.10394
H_ H_ 0.983102 0.374822 0.880939 0.10394
H_ H_ 0.854997 0.486901 0.908168 0.10394
H_ H_ 0.589089 0.295514 0.623316 0.10394
H_ H_ 0.00648748 0.254971 0.598933 0.10394
H_ H_ 0.540572 0.293463 0.945793 0.10394
H_ H_ 0.612478 0.332483 0.476696 0.10394
H_ H_ 0.724206 0.253638 0.594309 0.10394
H_ H_ 0.767587 0.205757 0.670482 0.10394
H_ H_ 0.70214 0.328888 0.764027 0.10394
H_ H_ 0.666873 0.376966 0.689566 0.10394
H_ H_ 0.712946 0.382787 0.949172 0.10394
H_ H_ 0.767763 0.37562 0.883625 0.10394
H_ H_ 0.899306 0.402302 0.991834 0.10394
H_ H_ 0.796673 0.408882 0.659873 0.10394
H_ H_ 0.729208 0.439846 0.70716 0.10394
H_ H_ 0.835795 0.0417322 0.774654 0.10394
H_ H_ 0.895224 0.511215 0.731208 0.10394
H_ H_ 0.500827 0.360352 0.654714 0.10394
H_ H_ 0.542305 0.27777 0.696509 0.10394
H_ H_ 0.906231 0.272301 0.749589 0.10394
H_ H_ 0.866597 0.334833 0.688445 0.10394
H_ H_ 0.966251 0.0474189 0.606757 0.10394
H_ H_ 0.524007 0.119893 0.596403 0.10394
H_ H_ 0.643929 0.00195465 0.583851 0.10394
H_ H_ 0.932776 0.162723 0.892434 0.10394
H_ H_ 0.51664 0.204192 0.936467 0.10394
H_ H_ 0.910644 0.280932 0.536946 0.10394
H_ H_ 0.846621 0.239438 0.00584637 0.10394
H_ H_ 0.737704 0.202866 0.880492 0.10394
H_ H_ 0.69472 0.241361 0.804746 0.10394
H_ H_ 0.841112 0.227669 0.744009 0.10394
H_ H_ 0.878516 0.187386 0.821527 0.10394
H_ H_ 0.792803 0.11902 0.547575 0.10394
H_ H_ 0.74531 0.0856236 0.61221 0.10394
H_ H_ 0.618649 0.0674223 0.502276 0.10394
C_ C_ 0.674084 0.0903084 0.792666 0.18167
C_ C_ 0.721158 0.0700751 0.774843 -0.15533
C_ C_ 0.738152 0.0169454 0.772545 0.02923
C_ C_ 0.69845 0.488601 0.79635 -0.15533
C_ C_ 0.655588 0.00581547 0.803736 0.18167
C_ C_ 0.513536 0.134612 0.774122 0.18167
C_ C_ 0.0027799 0.19342 0.739636 -0.15533
C_ C_ 0.495127 0.223877 0.759799 0.02923
C_ C_ 0.526422 0.233341 0.805753 -0.15533
C_ C_ 0.555294 0.192878 0.830258 0.18167
C_ C_ 0.509205 0.0513342 0.87455 0.69207
C_ C_ 0.975456 0.504789 0.877505 0.02923
C_ C_ 0.994825 0.452934 0.873982 -0.15533
C_ C_ 0.965538 0.411705 0.878007 -0.15533
C_ C_ 0.91541 0.42339 0.891961 0.02923
C_ C_ 0.896538 0.476244 0.902865 -0.15533
C_ C_ 0.924814 0.516272 0.893105 0.02923
C_ C_ 0.893038 0.0734688 0.884876 0.69207
C_ C_ 0.902916 0.327186 0.896843 0.69661
C_ C_ 0.578537 0.289385 0.581579 0.18167
C_ C_ 0.534475 0.265331 0.5623 -0.15533
C_ C_ 0.519852 0.261217 0.511829 0.02923
C_ C_ 0.549898 0.296373 0.986813 -0.15533
C_ C_ 0.593525 0.307675 0.498973 0.18167
C_ C_ 0.722225 0.272187 0.632289 0.18167
C_ C_ 0.746198 0.243427 0.675138 -0.15533
C_ C_ 0.742751 0.267541 0.723514 0.02923
C_ C_ 0.711359 0.315701 0.728323 -0.15533
C_ C_ 0.690916 0.340687 0.684218 0.18167
C_ C_ 0.737176 0.374255 0.546252 0.69207
C_ C_ 0.775687 0.38044 1.0110105 0.02923
C_ C_ 0.755085 0.383041 0.961538 -0.15533
C_ C_ 0.787353 0.384869 0.921264 -0.15533
C_ C_ 0.841282 0.388693 0.930568 0.02923
C_ C_ 0.859015 0.396598 0.981257 -0.15533
C_ C_ 0.827466 0.389183 0.0203513 0.02923
C_ C_ 0.854319 0.387261 0.573772 0.69207
C_ C_ 0.850344 0.384828 0.834808 0.69661
C_ C_ 0.807206 0.433573 0.691096 0.18167
C_ C_ 0.766522 0.455136 0.716261 -0.15533
C_ C_ 0.772969 0.496591 0.748257 0.02923
C_ C_ 0.826129 0.019284 0.741704 -0.15533
C_ C_ 0.858954 0.494483 0.72685 0.18167
C_ C_ 0.986948 0.359365 0.693144 0.18167
C_ C_ 0.500351 0.290064 0.696094 -0.15533
C_ C_ 0.984215 0.288669 0.743776 0.02923
C_ C_ 0.929899 0.293847 0.732279 -0.15533
C_ C_ 0.907131 0.332105 0.701412 0.18167
C_ C_ 0.982035 0.46071 0.623797 0.69207
C_ C_ 0.523372 0.994449 0.61594 0.02923
C_ C_ 0.507015 0.0467087 0.613745 -0.15533
C_ C_ 0.540099 0.0832548 0.61006 -0.15533
C_ C_ 0.594353 0.0693169 0.606442 0.02923
C_ C_ 0.608903 0.0165363 0.597806 -0.15533
C_ C_ 0.576684 0.980777 0.610295 0.02923
C_ C_ 0.594812 0.426615 0.606418 0.69207
C_ C_ 0.613321 0.162753 0.593482 0.69661
C_ C_ 0.931741 0.182112 0.930044 0.18167
C_ C_ 0.97597 0.20275 0.950287 -0.15533
C_ C_ 0.973832 0.235073 -0.006211999999999995 0.02923
C_ C_ 0.921446 0.249168 0.510272 -0.15533
C_ C_ 0.883253 0.224945 0.992455 0.18167
C_ C_ 0.761566 0.205811 0.85152 0.18167
C_ C_ 0.738128 0.233346 0.809844 -0.15533
C_ C_ 0.767581 0.244859 0.771674 0.02923
C_ C_ 0.819451 0.225865 0.775548 -0.15533
C_ C_ 0.839905 0.195397 0.816563 0.18167
C_ C_ 0.762608 0.128478 0.949094 0.69207
C_ C_ 0.734335 0.107602 0.484699 0.02923
C_ C_ 0.754849 0.109454 0.536519 -0.15533
C_ C_ 0.726903 0.0946874 0.57522 -0.15533
C_ C_ 0.673278 0.0885501 0.565913 0.02923
C_ C_ 0.654564 0.0814108 0.512928 -0.15533
C_ C_ 0.682552 0.0986172 0.474211 0.02923
C_ C_ 0.652382 0.115116 0.923352 0.69207
C_ C_ 0.659485 0.112542 0.660726 0.69661
C_ C_ 0.876421 0.381796 0.888221 -0.30787
C_ C_ 0.633738 0.107208 0.605829 -0.30787
N_ N_ 0.643059 0.0571251 0.808082 -0.32189
N_ N_ 0.547282 0.142861 0.814936 -0.32189
N_ N_ 0.6075 0.306781 0.549707 -0.32189
N_ N_ 0.692354 0.31659 0.638545 -0.32189
N_ N_ 0.853026 0.453797 0.696595 -0.32189
N_ N_ 0.936568 0.363745 0.682921 -0.32189
N_ N_ 0.887089 0.192653 0.94958 -0.32189
N_ N_ 0.812753 0.190111 0.855372 -0.32189
O_ O_ -0.0050040000000000084 0.100303 0.878023 -0.63271
O_ O_ 0.547512 0.0372319 0.846222 -0.57982
O_ O_ 0.887087 0.096873 0.842445 -0.63271
O_ O_ 0.869697 0.091971 0.924504 -0.57982
O_ O_ 0.736616 0.404261 0.587593 -0.63271
O_ O_ 0.708104 0.339136 0.539391 -0.57982
O_ O_ 0.851385 0.348919 0.60221 -0.63271
O_ O_ 0.87402 0.427213 0.595387 -0.57982
O_ O_ 0.481768 0.414326 0.583575 -0.63271
O_ O_ 0.95033 0.470317 0.658477 -0.57982
O_ O_ 0.583788 0.397219 0.642078 -0.63271
O_ O_ 0.632898 0.410335 0.580584 -0.57982
O_ O_ 0.762265 0.101345 0.904806 -0.63271
O_ O_ 0.792904 0.1633 0.956341 -0.57982
O_ O_ 0.660858 0.149841 0.893437 -0.63271
O_ O_ 0.619055 0.0843641 0.908665 -0.57982
F_ F_ 0.941127 0.321802 0.934668 -0.20885
F_ F_ 0.925741 0.310483 0.852917 -0.20885
F_ F_ 0.870369 0.290205 0.900661 -0.20885
F_ F_ 0.809782 0.420641 0.832272 -0.20885
F_ F_ 0.828198 0.342195 0.819655 -0.20885
F_ F_ 0.882224 0.395182 0.799129 -0.20885
F_ F_ 0.580871 0.161308 0.548746 -0.20885
F_ F_ 0.589376 0.193189 0.630973 -0.20885
F_ F_ 0.653046 0.191601 0.590226 -0.20885
F_ F_ 0.686324 0.0654021 0.669125 -0.20885
F_ F_ 0.689665 0.151763 0.672397 -0.20885
F_ F_ 0.624374 0.122296 0.697063 -0.20885
Zn Zn 0.583059 0.583984 0.350833 0.83971
Zn Zn 0.670338 0.846861 0.0832797 0.83971
Zn Zn 0.908789 0.909069 0.154613 0.83971
Zn Zn 0.840448 0.655554 0.419369 0.83971
H_ H_ 0.666952 0.637069 0.308248 0.10394
H_ H_ 0.743073 0.600863 0.266023 0.10394
H_ H_ 0.717033 0.952877 0.286854 0.10394
H_ H_ 0.632328 0.485063 0.328522 0.10394
H_ H_ 0.0343984 0.591241 0.257182 0.10394
H_ H_ 0.996126 0.660968 0.203296 0.10394
H_ H_ 0.525177 0.769979 0.32514 0.10394
H_ H_ 0.563443 0.69726 0.376726 0.10394
H_ H_ 0.528567 0.940677 0.348898 0.10394
H_ H_ 0.976713 0.871807 0.372952 0.10394
H_ H_ 0.84506 0.979132 0.385055 0.10394
H_ H_ 0.589632 0.805682 0.128724 0.10394
H_ H_ 0.997911 0.773574 0.0934986 0.10394
H_ H_ 0.548416 0.764709 0.440389 0.10394
H_ H_ 0.61104 0.839355 0.9783 0.10394
H_ H_ 0.728615 0.743154 0.0957787 0.10394
H_ H_ 0.7617 0.696534 0.171011 0.10394
H_ H_ 0.732593 0.836538 0.26438 0.10394
H_ H_ 0.687582 0.87348 0.19024 0.10394
H_ H_ 0.70796 0.876579 0.43942 0.10394
H_ H_ 0.764178 0.886652 0.365101 0.10394
H_ H_ 0.893402 0.893926 0.479161 0.10394
H_ H_ 0.80456 0.898048 0.156136 0.10394
H_ H_ 0.728857 0.956572 0.184653 0.10394
H_ H_ 0.835044 0.546793 0.286109 0.10394
H_ H_ 0.901309 1.0032998 0.212747 0.10394
H_ H_ 0.518942 0.880713 0.198345 0.10394
H_ H_ 0.558419 0.800851 0.228908 0.10394
H_ H_ 0.919158 0.746496 0.230653 0.10394
H_ H_ 0.875598 0.819536 0.181706 0.10394
H_ H_ 0.955887 0.548729 0.108806 0.10394
H_ H_ 0.520796 0.628964 0.11248 0.10394
H_ H_ 0.642157 0.505409 0.0993716 0.10394
H_ H_ 0.945909 0.658249 0.399062 0.10394
H_ H_ 0.509992 0.697716 0.435601 0.10394
H_ H_ 0.913174 0.790844 0.0394531 0.10394
H_ H_ 0.851742 0.741616 0.50425 0.10394
H_ H_ 0.732228 0.693683 0.383556 0.10394
H_ H_ 0.699322 0.747289 0.30851 0.10394
H_ H_ 0.840427 0.709323 0.244483 0.10394
H_ H_ 0.880017 0.677917 0.327672 0.10394
H_ H_ 0.793125 0.600078 0.0553234 0.10394
H_ H_ 0.735529 0.594018 0.125291 0.10394
H_ H_ 0.606433 0.594583 0.0121287 0.10394
C_ C_ 0.672731 0.597196 0.300603 0.18167
C_ C_ 0.71832 0.577119 0.283055 -0.15533
C_ C_ 0.732167 0.523561 0.277462 0.02923
C_ C_ 0.705154 0.993216 0.28547 -0.15533
C_ C_ 0.65557 0.511533 0.315383 0.18167
C_ C_ 0.530245 0.632224 0.267951 0.18167
C_ C_ 0.0127847 0.671153 0.242789 -0.15533
C_ C_ 0.512316 0.721191 0.256677 0.02923
C_ C_ 0.524938 0.730471 0.308878 -0.15533
C_ C_ 0.547708 0.688918 0.338267 0.18167
C_ C_ 0.501443 0.547245 0.373544 0.69207
C_ C_ 0.969365 -0.0011679999999999469 0.370569 0.02923
C_ C_ -0.012556000000000012 0.947344 0.360074 -0.15533
C_ C_ 0.958043 0.909037 0.370192 -0.15533
C_ C_ 0.907175 0.92045 0.381255 0.02923
C_ C_ 0.886069 0.971442 0.384557 -0.15533
C_ C_ 0.916723 0.0117331 0.377262 0.02923
C_ C_ 0.895814 0.568021 0.386674 0.69207
C_ C_ 0.903323 0.822242 0.384136 0.69661
C_ C_ 0.58305 0.798375 0.0894246 0.18167
C_ C_ 0.536036 0.778183 0.0736794 -0.15533
C_ C_ 0.519128 0.775828 0.0209195 0.02923
C_ C_ 0.555957 0.774955 0.48121 -0.15533
C_ C_ 0.59419 0.814674 0.00421409 0.18167
C_ C_ 0.727614 0.76289 0.132945 0.18167
C_ C_ 0.744235 0.736578 0.176592 -0.15533
C_ C_ 0.741729 0.761023 0.225983 0.02923
C_ C_ 0.72558 0.81337 0.229449 -0.15533
C_ C_ 0.709665 0.838255 0.184752 0.18167
C_ C_ 0.74205 0.879753 0.0431594 0.69207
C_ C_ 0.771273 0.877658 0.499978 0.02923
C_ C_ 0.75141 0.879079 0.447799 -0.15533
C_ C_ 0.782469 0.883789 0.407511 -0.15533
C_ C_ 0.835119 0.883554 0.419234 0.02923
C_ C_ 0.853592 0.886554 0.470213 -0.15533
C_ C_ 0.822487 0.88683 0.510077 0.02923
C_ C_ 0.853909 0.887932 0.0670749 0.69207
C_ C_ 0.850254 0.876618 0.322255 0.69661
C_ C_ 0.80927 0.93324 0.177836 0.18167
C_ C_ 0.769159 0.960826 0.200471 -0.15533
C_ C_ 0.779867 1.00151372 0.236147 0.02923
C_ C_ 0.825174 0.519376 0.255563 -0.15533
C_ C_ 0.867769 0.988416 0.218668 0.18167
C_ C_ 0.997137 0.847714 0.200273 0.18167
C_ C_ 0.518408 0.805453 0.217803 -0.15533
C_ C_ 0.991362 0.764695 0.232654 0.02923
C_ C_ 0.938546 0.775627 0.224576 -0.15533
C_ C_ 0.916861 0.81433 0.192155 0.18167
C_ C_ 0.985642 0.950139 0.122172 0.69207
C_ C_ 0.518271 0.501419 0.123456 0.02923
C_ C_ 0.498854 0.553697 0.116688 -0.15533
C_ C_ 0.533211 0.589065 0.109055 -0.15533
C_ C_ 0.585206 0.573475 0.106163 0.02923
C_ C_ 0.602954 0.521724 0.105445 -0.15533
C_ C_ 0.571296 0.486651 0.121625 0.02923
C_ C_ 0.606081 0.922595 0.108183 0.69207
C_ C_ 0.605586 0.667823 0.109582 0.69661
C_ C_ 0.938991 0.680679 0.434924 0.18167
C_ C_ 0.983659 0.699499 0.46197 -0.15533
C_ C_ 0.978372 0.741718 0.496258 0.02923
C_ C_ 0.919713 0.76043 1.0102595 -0.15533
C_ C_ 0.887442 0.73196 0.489158 0.18167
C_ C_ 0.758947 0.704634 0.355653 0.18167
C_ C_ 0.737187 0.726805 0.311501 -0.15533
C_ C_ 0.765658 0.735025 0.273521 0.02923
C_ C_ 0.815061 0.709905 0.274681 -0.15533
C_ C_ 0.838951 0.689501 0.320765 0.18167
C_ C_ 0.762726 0.624868 0.462625 0.69207
C_ C_ 0.733252 0.599789 0.994784 0.02923
C_ C_ 0.753637 0.595405 0.0476101 -0.15533
C_ C_ 0.720488 0.597469 0.0879344 -0.15533
C_ C_ 0.666385 0.600266 0.074766 0.02923
C_ C_ 0.647692 0.595592 0.0228861 -0.15533
C_ C_ 0.679795 0.600541 0.984061 0.02923
C_ C_ 0.647725 0.61157 0.431203 0.69207
C_ C_ 0.646788 0.605303 0.173209 0.69661
C_ C_ 0.874606 0.876691 0.380472 -0.30787
C_ C_ 0.626876 0.611386 0.115285 -0.30787
N_ N_ 0.642922 0.563172 0.318119 -0.32189
N_ N_ 0.547935 0.641805 0.317897 -0.32189
N_ N_ 0.610385 0.815919 0.0550128 -0.32189
N_ N_ 0.702375 0.811034 0.138066 -0.32189
N_ N_ 0.857178 0.945507 0.189569 -0.32189
N_ N_ 0.946813 0.849814 0.180968 -0.32189
N_ N_ 0.892576 0.6956 0.450729 -0.32189
N_ N_ 0.809388 0.68446 0.358705 -0.32189
O_ O_ 0.00707455 0.591835 0.390548 -0.63271
O_ O_ 0.5415 0.532991 0.346882 -0.57982
O_ O_ 0.894678 0.591165 0.345985 -0.63271
O_ O_ 0.872535 0.588965 0.427023 -0.57982
O_ O_ 0.741148 0.908966 0.0838468 -0.63271
O_ O_ 0.707027 0.847315 0.0315071 -0.57982
O_ O_ 0.845011 0.850257 0.0943264 -0.63271
O_ O_ 0.887315 0.918322 0.087397 -0.57982
O_ O_ 0.488743 0.904908 0.0907057 -0.63271
O_ O_ 0.951622 0.959449 0.155257 -0.57982
O_ O_ 0.608664 0.898485 0.15081 -0.63271
O_ O_ 0.641296 0.907165 0.0771372 -0.57982
O_ O_ 0.758869 0.5964 0.42086 -0.63271
O_ O_ 0.795195 0.660268 0.467682 -0.57982
O_ O_ 0.649882 0.650578 0.403862 -0.63271
O_ O_ 0.608982 0.583299 0.416922 -0.57982
F_ F_ 0.934824 0.817857 0.430472 -0.20885
F_ F_ 0.933525 0.807502 0.342748 -0.20885
F_ F_ 0.868398 0.785977 0.383649 -0.20885
F_ F_ 0.814011 0.915609 0.308146 -0.20885
F_ F_ 0.82891 0.830982 0.306308 -0.20885
F_ F_ 0.888146 0.87775 0.287386 -0.20885
F_ F_ 0.576792 0.673139 0.0637449 -0.20885
F_ F_ 0.575641 0.685927 0.15017 -0.20885
F_ F_ 0.646446 0.696955 0.113116 -0.20885
F_ F_ 0.670358 0.556684 0.179347 -0.20885
F_ F_ 0.68098 0.639865 0.190696 -0.20885
F_ F_ 0.609758 0.611199 0.207171 -0.20885
Zn Zn 0.585487 0.590537 0.852275 0.83971
Zn Zn 0.662383 0.844698 0.581047 0.83971
Zn Zn 0.909025 0.909724 0.643344 0.83971
Zn Zn 0.843149 0.649574 0.917387 0.83971
H_ H_ 0.6567 0.633472 0.797646 0.10394
H_ H_ 0.733793 0.599805 0.76122 0.10394
H_ H_ 0.707339 0.94373 0.784946 0.10394
H_ H_ 0.630206 0.484283 0.827863 0.10394
H_ H_ 0.0368201 0.601989 0.745942 0.10394
H_ H_ 1.0137864 0.676244 0.699627 0.10394
H_ H_ 0.551596 0.773983 0.822773 0.10394
H_ H_ 0.586556 0.700342 0.873742 0.10394
H_ H_ 0.536521 0.955171 0.876806 0.10394
H_ H_ 0.980352 0.881335 0.858157 0.10394
H_ H_ 0.848786 0.991253 0.891452 0.10394
H_ H_ 0.58577 0.805384 0.622716 0.10394
H_ H_ 0.00857033 0.770305 0.597596 0.10394
H_ H_ 0.533133 0.7928 0.948482 0.10394
H_ H_ 0.629393 0.79824 0.474338 0.10394
H_ H_ 0.721077 0.74755 0.597615 0.10394
H_ H_ 0.756074 0.697314 0.671907 0.10394
H_ H_ 0.716928 0.827427 0.774191 0.10394
H_ H_ 0.679045 0.877714 0.695455 0.10394
H_ H_ 0.711616 0.895733 0.94239 0.10394
H_ H_ 0.764576 0.911947 0.876119 0.10394
H_ H_ 0.90151 0.894471 0.980465 0.10394
H_ H_ 0.812066 0.892191 0.658753 0.10394
H_ H_ 0.738672 0.935618 0.701493 0.10394
H_ H_ 0.817593 0.55883 0.767466 0.10394
H_ H_ 0.902074 1.0136409 0.719315 0.10394
H_ H_ 0.518049 0.878659 0.692721 0.10394
H_ H_ 0.559555 0.804884 0.729985 0.10394
H_ H_ 0.913777 0.739664 0.708317 0.10394
H_ H_ 0.872045 0.816151 0.674911 0.10394
H_ H_ 0.964229 0.56518 0.624953 0.10394
H_ H_ 0.517709 0.621424 0.622653 0.10394
H_ H_ 0.641206 0.508906 0.586218 0.10394
H_ H_ 0.935312 0.662297 0.901768 0.10394
H_ H_ 0.514962 0.696535 0.946701 0.10394
H_ H_ 0.92248 0.793386 0.532138 0.10394
H_ H_ 0.844955 0.738451 1.00854391 0.10394
H_ H_ 0.73528 0.683104 0.879613 0.10394
H_ H_ 0.694135 0.710649 0.801484 0.10394
H_ H_ 0.840977 0.742445 0.75651 0.10394
H_ H_ 0.881214 0.695894 0.823935 0.10394
H_ H_ 0.785969 0.609827 0.563701 0.10394
H_ H_ 0.730055 0.614096 0.624396 0.10394
H_ H_ 0.604374 0.592057 0.514132 0.10394
C_ C_ 0.668761 0.592342 0.80297 0.18167
C_ C_ 0.714285 0.574563 0.780955 -0.15533
C_ C_ 0.730682 0.520086 0.778428 0.02923
C_ C_ 0.701705 0.985142 0.78751 -0.15533
C_ C_ 0.653299 0.509884 0.816477 0.18167
C_ C_ 0.520575 0.637014 0.776504 0.18167
C_ C_ 0.0169281 0.680467 0.738969 -0.15533
C_ C_ 0.510408 0.727847 0.764934 0.02923
C_ C_ 0.536667 0.737339 0.812518 -0.15533
C_ C_ 0.557636 0.694962 0.839789 0.18167
C_ C_ 0.502506 0.552332 0.873301 0.69207
C_ C_ 0.972155 0.0127045 0.871215 0.02923
C_ C_ -0.013128999999999946 0.961814 0.857261 -0.15533
C_ C_ 0.959607 0.922782 0.868682 -0.15533
C_ C_ 0.909608 0.931641 0.883732 0.02923
C_ C_ 0.890928 0.982262 0.891028 -0.15533
C_ C_ 0.922092 0.0224186 0.885422 0.02923
C_ C_ 0.896093 0.567786 0.889107 0.69207
C_ C_ 0.898384 0.833851 0.879767 0.69661
C_ C_ 0.574245 0.803782 0.583146 0.18167
C_ C_ 0.533047 0.775016 0.563645 -0.15533
C_ C_ 0.521514 0.764395 0.512509 0.02923
C_ C_ 0.548942 0.793222 0.986971 -0.15533
C_ C_ 0.598167 0.798981 0.498067 0.18167
C_ C_ 0.717147 0.765202 0.63461 0.18167
C_ C_ 0.737634 0.736354 0.676977 -0.15533
C_ C_ 0.738227 0.759662 0.7273 0.02923
C_ C_ 0.713839 0.809548 0.733815 -0.15533
C_ C_ 0.694346 0.837945 0.691232 0.18167
C_ C_ 0.735587 0.870769 0.539724 0.69207
C_ C_ 0.776081 0.887563 1.00263328 0.02923
C_ C_ 0.752879 0.898724 0.952428 -0.15533
C_ C_ 0.782674 0.902916 0.912157 -0.15533
C_ C_ 0.836509 0.895233 0.921732 0.02923
C_ C_ 0.858071 0.892224 0.972965 -0.15533
C_ C_ 0.82806 0.893784 0.0136649 0.02923
C_ C_ 0.847687 0.886589 0.563646 0.69207
C_ C_ 0.847535 0.891738 0.822502 0.69661
C_ C_ 0.815228 0.929475 0.679809 0.18167
C_ C_ 0.776434 0.950432 0.710315 -0.15533
C_ C_ 0.78095 -0.005350999999999995 0.740256 0.02923
C_ C_ 0.817739 0.519891 0.750452 -0.15533
C_ C_ 0.866101 0.994502 0.714277 0.18167
C_ C_ 0.986677 0.85828 0.707504 0.18167
C_ C_ 0.517603 0.807687 0.722593 -0.15533
C_ C_ 0.984668 0.773463 0.734652 0.02923
C_ C_ 0.936393 0.770941 0.707835 -0.15533
C_ C_ 0.911089 0.815903 0.687339 0.18167
C_ C_ 0.99034 0.946274 0.61058 0.69207
C_ C_ 0.52058 0.492977 0.612145 0.02923
C_ C_ 0.503066 0.54449 0.62242 -0.15533
C_ C_ 0.53391 0.584264 0.616067 -0.15533
C_ C_ 0.584743 0.571283 0.60729 0.02923
C_ C_ 0.601576 0.51938 0.592902 -0.15533
C_ C_ 0.571792 0.480125 0.602981 0.02923
C_ C_ 0.598908 0.926323 0.609662 0.69207
C_ C_ 0.596453 0.668332 0.616079 0.69661
C_ C_ 0.933757 0.680481 0.938039 0.18167
C_ C_ 0.975521 0.701616 0.961192 -0.15533
C_ C_ 0.968219 0.744471 0.994924 0.02923
C_ C_ 0.928919 0.758787 0.508396 -0.15533
C_ C_ 0.881543 0.730439 0.993206 0.18167
C_ C_ 0.759875 0.692703 0.850305 0.18167
C_ C_ 0.735074 0.712364 0.805358 -0.15533
C_ C_ 0.763142 0.729657 0.769295 0.02923
C_ C_ 0.817604 0.726034 0.78016 -0.15533
C_ C_ 0.839078 0.700582 0.821727 0.18167
C_ C_ 0.768251 0.611459 0.955994 0.69207
C_ C_ 0.724115 0.624444 0.501011 0.02923
C_ C_ 0.746323 0.620716 0.551917 -0.15533
C_ C_ 0.711242 0.616491 0.588103 -0.15533
C_ C_ 0.659658 0.61049 0.576098 0.02923
C_ C_ 0.642499 0.600822 0.523903 -0.15533
C_ C_ 0.671409 0.613753 0.485864 0.02923
C_ C_ 0.654914 0.607571 0.930244 0.69207
C_ C_ 0.644411 0.604851 0.671982 0.69661
C_ C_ 0.871518 0.888606 0.878041 -0.30787
C_ C_ 0.621516 0.612549 0.616717 -0.30787
N_ N_ 0.639646 0.559921 0.818608 -0.32189
N_ N_ 0.549918 0.647072 0.821651 -0.32189
N_ N_ 0.607352 0.813574 0.548796 -0.32189
N_ N_ 0.692431 0.812496 0.643328 -0.32189
N_ N_ 0.861146 0.949809 0.686105 -0.32189
N_ N_ 0.93855 0.856014 0.682134 -0.32189
N_ N_ 0.88813 0.693741 0.955798 -0.32189
N_ N_ 0.810257 0.683686 0.856037 -0.32189
O_ O_ 1.00616766 0.588836 0.898945 -0.63271
O_ O_ 0.541319 0.544448 0.84468 -0.57982
O_ O_ 0.894352 0.595078 0.847715 -0.63271
O_ O_ 0.868577 0.587533 0.926898 -0.57982
O_ O_ 0.742462 0.892231 0.586237 -0.63271
O_ O_ 0.703838 0.836159 0.530939 -0.57982
O_ O_ 0.853975 0.840816 0.582165 -0.63271
O_ O_ 0.87555 0.921216 0.580325 -0.57982
O_ O_ 0.485223 0.914946 0.59978 -0.63271
O_ O_ 0.957078 0.956941 0.644636 -0.57982
O_ O_ 0.598182 0.899656 0.649861 -0.63271
O_ O_ 0.628202 0.908228 0.573371 -0.57982
O_ O_ 0.759609 0.59425 0.908834 -0.63271
O_ O_ 0.799345 0.6482 0.966385 -0.57982
O_ O_ 0.658559 0.649419 0.907459 -0.63271
O_ O_ 0.613841 0.584458 0.917558 -0.57982
F_ F_ 0.93717 0.826356 0.916756 -0.20885
F_ F_ 0.920175 0.816026 0.833101 -0.20885
F_ F_ 0.866298 0.800974 0.889341 -0.20885
F_ F_ 0.812686 0.935456 0.817458 -0.20885
F_ F_ 0.821592 0.849543 0.807544 -0.20885
F_ F_ 0.880874 0.894933 0.787501 -0.20885
F_ F_ 0.568529 0.672809 0.568734 -0.20885
F_ F_ 0.565718 0.681541 0.655119 -0.20885
F_ F_ 0.628045 0.706049 0.625546 -0.20885
F_ F_ 0.67638 0.560495 0.676099 -0.20885
F_ F_ 0.674985 0.641614 0.690858 -0.20885
F_ F_ 0.608689 0.603125 0.705507 -0.20885
