_cell_length_a 26.508
_cell_length_b 26.37200000322088
_cell_length_c 26.311999743092066
_cell_angle_alpha 93.74100058972084
_cell_angle_beta 96.04100104955006
_cell_angle_gamma 83.6869992558723
_symmetry_space_group_name_H-M         'P 1'
_symmetry_Int_Tables_number            1
loop_
_symmetry_equiv_pos_as_xyz
   'x, y, z'
                         
loop_
_atom_site_label
_atom_site_type_symbol
_atom_site_fract_x 
_atom_site_fract_y
_atom_site_fract_z
_atom_site_charge
Zn Zn 0.0861144 0.0920028 0.35322 0.83971
Zn Zn 0.164163 0.338151 0.0752108 0.83971
Zn Zn 0.411545 0.418465 0.147624 0.83971
Zn Zn 0.335156 0.157202 0.41813 0.83971
H_ H_ 0.163302 0.140028 0.306406 0.10394
H_ H_ 0.251653 0.0997979 0.28302 0.10394
H_ H_ 0.216602 0.441544 0.285498 0.10394
H_ H_ 0.133633 0.98862 0.332452 0.10394
H_ H_ 0.524398 0.0968241 0.247759 0.10394
H_ H_ 0.474216 0.168205 0.208826 0.10394
H_ H_ 0.0401059 0.280795 0.328287 0.10394
H_ H_ 0.0693751 0.202506 0.379972 0.10394
H_ H_ 0.0342342 0.451694 0.373231 0.10394
H_ H_ 0.484622 0.386457 0.395662 0.10394
H_ H_ 0.35796 0.495762 0.412613 0.10394
H_ H_ 0.0843608 0.300428 0.126373 0.10394
H_ H_ 0.499766 0.273531 0.103947 0.10394
H_ H_ 0.0502952 0.280427 0.447319 0.10394
H_ H_ 0.125149 0.316264 0.975444 0.10394
H_ H_ 0.216596 0.236954 0.101092 0.10394
H_ H_ 0.254697 0.196926 0.177428 0.10394
H_ H_ 0.219515 0.342515 0.258996 0.10394
H_ H_ 0.184288 0.377779 0.180266 0.10394
H_ H_ 0.220974 0.362473 0.441824 0.10394
H_ H_ 0.269132 0.389046 0.37857 0.10394
H_ H_ 0.393827 0.410915 0.494252 0.10394
H_ H_ 0.304251 0.394155 0.154678 0.10394
H_ H_ 0.235 0.459092 0.17531 0.10394
H_ H_ 0.323744 0.0552012 0.27527 0.10394
H_ H_ 0.410546 0.488594 0.236612 0.10394
H_ H_ 0.0112212 0.402224 0.211026 0.10394
H_ H_ 0.0591297 0.32196 0.23935 0.10394
H_ H_ 0.40602 0.246274 0.215972 0.10394
H_ H_ 0.362751 0.327058 0.181397 0.10394
H_ H_ 0.460108 0.0596844 0.121491 0.10394
H_ H_ 0.0188875 0.118327 0.0934024 0.10394
H_ H_ 0.142842 0.00268459 0.0946557 0.10394
H_ H_ 0.437464 0.158315 0.394605 0.10394
H_ H_ 0.0162283 0.190792 0.448583 0.10394
H_ H_ 0.419942 0.28581 0.0535675 0.10394
H_ H_ 0.349141 0.233187 0.505977 0.10394
H_ H_ 0.229101 0.198523 0.382327 0.10394
H_ H_ 0.191955 0.236481 0.298195 0.10394
H_ H_ 0.344894 0.252966 0.268654 0.10394
H_ H_ 0.378563 0.200271 0.33856 0.10394
H_ H_ 0.284074 0.125136 0.0626832 0.10394
H_ H_ 0.23077 0.105051 0.126934 0.10394
H_ H_ 0.101592 0.0976953 0.00725152 0.10394
C_ C_ 0.175651 0.0973636 0.305562 0.18167
C_ C_ 0.221308 0.0762224 0.288043 -0.15533
C_ C_ 0.226774 0.025219 0.272394 0.02923
C_ C_ 0.207582 0.480828 0.288682 -0.15533
C_ C_ 0.154478 0.0153858 0.31603 0.18167
C_ C_ 0.0362039 0.143614 0.270709 0.18167
C_ C_ 0.497381 0.177426 0.241923 -0.15533
C_ C_ 0.0156208 0.236295 0.263503 0.02923
C_ C_ 0.037612 0.24281 0.313595 -0.15533
C_ C_ 0.0585192 0.200751 0.340725 0.18167
C_ C_ 0.00682637 0.0481324 0.369262 0.69207
C_ C_ 0.472508 0.511702 0.376626 0.02923
C_ C_ 0.496864 0.463129 0.386898 -0.15533
C_ C_ 0.468426 0.424398 0.39784 -0.15533
C_ C_ 0.415279 0.434542 0.403548 0.02923
C_ C_ 0.395072 0.485402 0.401697 -0.15533
C_ C_ 0.418417 0.524708 0.38198 0.02923
C_ C_ 0.391858 0.0741907 0.38694 0.69207
C_ C_ 0.404965 0.336857 0.397105 0.69661
C_ C_ 0.0784816 0.294504 0.084878 0.18167
C_ C_ 0.0329936 0.278948 0.0663347 -0.15533
C_ C_ 0.0218912 0.266274 0.0138175 0.02923
C_ C_ 0.0520595 0.291598 0.4874 -0.15533
C_ C_ 0.102241 0.299244 -7.19134e-05 0.18167
C_ C_ 0.219562 0.259919 0.13601 0.18167
C_ C_ 0.243139 0.23761 0.180434 -0.15533
C_ C_ 0.247409 0.268347 0.226079 0.02923
C_ C_ 0.217345 0.316258 0.228345 -0.15533
C_ C_ 0.197842 0.337434 0.181532 0.18167
C_ C_ 0.24278 0.368572 0.0341774 0.69207
C_ C_ 0.276217 0.378032 0.507933 0.02923
C_ C_ 0.257998 0.372976 0.45367 -0.15533
C_ C_ 0.289324 0.386057 0.416238 -0.15533
C_ C_ 0.337947 0.401026 0.430663 0.02923
C_ C_ 0.355998 0.403521 0.481835 -0.15533
C_ C_ 0.326818 0.391084 0.520541 0.02923
C_ C_ 0.352526 0.386676 0.0638078 0.69207
C_ C_ 0.358546 0.393066 0.334304 0.69661
C_ C_ 0.31227 0.431666 0.175499 0.18167
C_ C_ 0.272158 0.460441 0.195842 -0.15533
C_ C_ 0.280543 0.494179 0.236699 0.02923
C_ C_ 0.319862 0.0188364 0.252831 -0.15533
C_ C_ 0.371533 0.478933 0.224767 0.18167
C_ C_ 0.48409 0.354822 0.200415 0.18167
C_ C_ 0.0173894 0.320533 0.227314 -0.15533
C_ C_ 0.477549 0.27118 0.229829 0.02923
C_ C_ 0.428977 0.272995 0.20657 -0.15533
C_ C_ 0.406795 0.319238 0.18297 0.18167
C_ C_ 0.485714 0.45942 0.119876 0.69207
C_ C_ 0.0187292 0.989676 0.115262 0.02923
C_ C_ -0.0020679999999999588 0.0411887 0.107534 -0.15533
C_ C_ 0.0331386 0.0792934 0.105176 -0.15533
C_ C_ 0.085889 0.067091 0.102506 0.02923
C_ C_ 0.102471 0.0137938 0.0997666 -0.15533
C_ C_ 0.0725416 0.977771 0.114631 0.02923
C_ C_ 0.0993669 0.417545 0.103538 0.69207
C_ C_ 0.100397 0.16314 0.107813 0.69661
C_ C_ 0.434727 0.178829 0.428997 0.18167
C_ C_ 0.476619 0.204335 0.445881 -0.15533
C_ C_ 0.470328 0.24461 0.484337 0.02923
C_ C_ 0.425503 0.256924 0.0205474 -0.15533
C_ C_ 0.383635 0.225597 0.488443 0.18167
C_ C_ 0.252932 0.207049 0.353331 0.18167
C_ C_ 0.233746 0.230765 0.307709 -0.15533
C_ C_ 0.267672 0.243793 0.274153 0.02923
C_ C_ 0.319584 0.23403 0.286187 -0.15533
C_ C_ 0.338296 0.204352 0.326858 0.18167
C_ C_ 0.254076 0.125849 0.454848 0.69207
C_ C_ 0.22644 0.121949 0.9998 0.02923
C_ C_ 0.245024 0.114941 0.05107 -0.15533
C_ C_ 0.213873 0.104564 0.0877593 -0.15533
C_ C_ 0.160678 0.100527 0.0731682 0.02923
C_ C_ 0.142702 0.100209 0.0196221 -0.15533
C_ C_ 0.173282 0.113916 0.983854 0.02923
C_ C_ 0.142574 0.113424 0.435164 0.69207
C_ C_ 0.143078 0.104242 0.169932 0.69661
C_ C_ 0.378494 0.393389 0.392553 -0.30787
C_ C_ 0.122628 0.107682 0.113313 -0.30787
N_ N_ 0.144861 0.0665577 0.320065 -0.32189
N_ N_ 0.0566862 0.151643 0.319878 -0.32189
N_ N_ 0.11129 0.304325 0.051467 -0.32189
N_ N_ 0.195846 0.309394 0.136621 -0.32189
N_ N_ 0.362358 0.440107 0.189677 -0.32189
N_ N_ 0.433956 0.358707 0.179894 -0.32189
N_ N_ 0.389266 0.18888 0.447613 -0.32189
N_ N_ 0.304836 0.196447 0.361118 -0.32189
O_ O_ 0.500579 0.0880621 0.402057 -0.63271
O_ O_ 0.0471449 0.0390342 0.341976 -0.57982
O_ O_ 0.385336 0.0961404 0.342169 -0.63271
O_ O_ 0.365942 0.0947213 0.423602 -0.57982
O_ O_ 0.243237 0.401631 0.0744241 -0.63271
O_ O_ 0.212215 0.332283 0.0302172 -0.57982
O_ O_ 0.348758 0.347064 0.090211 -0.63271
O_ O_ 0.386428 0.41841 0.0825337 -0.57982
O_ O_ 0.992782 0.403099 0.111042 -0.63271
O_ O_ 0.455476 0.466554 0.15649 -0.57982
O_ O_ 0.0974086 0.389352 0.142 -0.63271
O_ O_ 0.137685 0.403681 0.0749684 -0.57982
O_ O_ 0.253049 0.0961768 0.412887 -0.63271
O_ O_ 0.287778 0.157905 0.462342 -0.57982
O_ O_ 0.150876 0.150233 0.405621 -0.63271
O_ O_ 0.106869 0.0845403 0.419486 -0.57982
F_ F_ 0.438322 0.334266 0.439539 -0.20885
F_ F_ 0.432463 0.31335 0.356832 -0.20885
F_ F_ 0.369194 0.303432 0.401608 -0.20885
F_ F_ 0.322252 0.433234 0.324118 -0.20885
F_ F_ 0.333457 0.351367 0.312206 -0.20885
F_ F_ 0.399244 0.400922 0.307034 -0.20885
F_ F_ 0.0689292 0.168639 0.0622254 -0.20885
F_ F_ 0.074529 0.185284 0.148427 -0.20885
F_ F_ 0.140928 0.192589 0.105219 -0.20885
F_ F_ 0.17598 0.0578073 0.177949 -0.20885
F_ F_ 0.172935 0.141946 0.187346 -0.20885
F_ F_ 0.103005 0.109194 0.20118 -0.20885
Zn Zn 0.0873379 0.0903192 0.847412 0.83971
Zn Zn 0.16593 0.347859 0.588245 0.83971
Zn Zn 0.40795 0.411025 0.656053 0.83971
Zn Zn 0.342928 0.157149 0.926224 0.83971
H_ H_ 0.171685 0.13494 0.818151 0.10394
H_ H_ 0.251456 0.105829 0.780111 0.10394
H_ H_ 0.221753 0.444022 0.794782 0.10394
H_ H_ 0.132201 0.982946 0.819202 0.10394
H_ H_ 0.550774 0.103758 0.76161 0.10394
H_ H_ 0.494631 0.166603 0.715575 0.10394
H_ H_ 0.054844 0.276925 0.808069 0.10394
H_ H_ 0.0867882 0.205031 0.860944 0.10394
H_ H_ 0.0345626 0.43657 0.863333 0.10394
H_ H_ 0.488532 0.370809 0.872706 0.10394
H_ H_ 0.358804 0.483152 0.900373 0.10394
H_ H_ 0.080295 0.312404 0.633215 0.10394
H_ H_ 0.500731 0.258477 0.586494 0.10394
H_ H_ 0.0471746 0.280797 0.937824 0.10394
H_ H_ 0.125306 0.318909 0.48612 0.10394
H_ H_ 0.221016 0.252026 0.60272 0.10394
H_ H_ 0.252385 0.198591 0.672297 0.10394
H_ H_ 0.219148 0.330522 0.77625 0.10394
H_ H_ 0.182195 0.375002 0.700269 0.10394
H_ H_ 0.224807 0.35911 0.933727 0.10394
H_ H_ 0.270643 0.389092 0.870109 0.10394
H_ H_ 0.400415 0.390046 0.980095 0.10394
H_ H_ 0.309762 0.400949 0.658902 0.10394
H_ H_ 0.238009 0.445039 0.694193 0.10394
H_ H_ 0.338902 0.0398439 0.78816 0.10394
H_ H_ 0.406622 0.502743 0.735725 0.10394
H_ H_ 0.0065328 0.390835 0.700642 0.10394
H_ H_ 0.0487447 0.30739 0.732443 0.10394
H_ H_ 0.411669 0.237154 0.724265 0.10394
H_ H_ 0.37383 0.315251 0.681201 0.10394
H_ H_ 0.459945 0.0484891 0.602274 0.10394
H_ H_ 0.01089 0.121685 0.589567 0.10394
H_ H_ 0.13612 0.0120099 0.580026 0.10394
H_ H_ 0.445207 0.170246 0.903664 0.10394
H_ H_ 0.0143232 0.190253 0.93554 0.10394
H_ H_ 0.41977 0.285577 0.533938 0.10394
H_ H_ 0.348743 0.238177 0.0154557 0.10394
H_ H_ 0.239209 0.199518 0.892205 0.10394
H_ H_ 0.19827 0.23672 0.815134 0.10394
H_ H_ 0.342408 0.214922 0.750695 0.10394
H_ H_ 0.381895 0.183655 0.8346 0.10394
H_ H_ 0.276139 0.139275 0.55808 0.10394
H_ H_ 0.225267 0.123614 0.625664 0.10394
H_ H_ 0.0954743 0.107059 0.518901 0.10394
C_ C_ 0.178682 0.0954472 0.804588 0.18167
C_ C_ 0.227727 0.0760673 0.787471 -0.15533
C_ C_ 0.240706 0.0230954 0.780554 0.02923
C_ C_ 0.207515 0.484728 0.79569 -0.15533
C_ C_ 0.157336 0.00927395 0.808575 0.18167
C_ C_ 0.0243963 0.138563 0.772172 0.18167
C_ C_ 0.51714 0.176765 0.750524 -0.15533
C_ C_ 0.00509028 0.228545 0.758576 0.02923
C_ C_ 0.0448639 0.23657 0.797075 -0.15533
C_ C_ 0.0695698 0.197304 0.826075 0.18167
C_ C_ 0.00702351 0.0498889 0.872952 0.69207
C_ C_ 0.476508 0.502343 0.876981 0.02923
C_ C_ 0.501372 0.450422 0.876422 -0.15533
C_ C_ 0.471609 0.410139 0.880279 -0.15533
C_ C_ 0.416582 0.419988 0.884846 0.02923
C_ C_ 0.396961 0.471588 0.889911 -0.15533
C_ C_ 0.425384 0.513682 0.887696 0.02923
C_ C_ 0.401599 0.0739077 0.892079 0.69207
C_ C_ 0.405779 0.322445 0.875868 0.69661
C_ C_ 0.0737894 0.301838 0.592653 0.18167
C_ C_ 0.0270052 0.284778 0.573104 -0.15533
C_ C_ 0.016298 0.277353 0.518969 0.02923
C_ C_ 0.0562552 0.27917 0.978481 -0.15533
C_ C_ 0.0985595 0.306784 0.509688 0.18167
C_ C_ 0.22257 0.267922 0.63936 0.18167
C_ C_ 0.240073 0.236757 0.680099 -0.15533
C_ C_ 0.243808 0.26175 0.731119 0.02923
C_ C_ 0.220403 0.310825 0.738841 -0.15533
C_ C_ 0.19787 0.336005 0.696608 0.18167
C_ C_ 0.243103 0.367625 0.5469 0.69207
C_ C_ 0.282371 0.368701 -0.002194999999999947 0.02923
C_ C_ 0.26334 0.365095 0.94517 -0.15533
C_ C_ 0.287711 0.385819 0.909355 -0.15533
C_ C_ 0.341089 0.387026 0.918517 0.02923
C_ C_ 0.360554 0.390979 0.970316 -0.15533
C_ C_ 0.331109 0.386689 0.0104431 0.02923
C_ C_ 0.351212 0.384551 0.572768 0.69207
C_ C_ 0.352926 0.384761 0.820727 0.69661
C_ C_ 0.312992 0.435886 0.681449 0.18167
C_ C_ 0.273568 0.45806 0.707269 -0.15533
C_ C_ 0.279388 0.500424 0.744897 0.02923
C_ C_ 0.329428 0.0105954 0.758765 -0.15533
C_ C_ 0.367279 0.492842 0.726039 0.18167
C_ C_ 0.49009 0.348305 0.706301 0.18167
C_ C_ 0.00755784 0.311496 0.72024 -0.15533
C_ C_ 0.487838 0.26798 0.740151 0.02923
C_ C_ 0.435526 0.268063 0.719239 -0.15533
C_ C_ 0.413422 0.314656 0.69786 0.18167
C_ C_ 0.488151 0.441196 0.626407 0.69207
C_ C_ 0.0136862 0.994409 0.606078 0.02923
C_ C_ -0.005090000000000039 0.0469165 0.609049 -0.15533
C_ C_ 0.0281288 0.0850335 0.60393 -0.15533
C_ C_ 0.0804478 0.070703 0.607056 0.02923
C_ C_ 0.0971691 0.020648 0.591308 -0.15533
C_ C_ 0.0656165 0.981698 0.599232 0.02923
C_ C_ 0.0995133 0.428395 0.610708 0.69207
C_ C_ 0.0950087 0.167039 0.623691 0.69661
C_ C_ 0.438537 0.194037 0.934367 0.18167
C_ C_ 0.480597 0.213569 0.95938 -0.15533
C_ C_ 0.474114 0.246063 1.00278236 0.02923
C_ C_ 0.423132 0.252769 0.506115 -0.15533
C_ C_ 0.384288 0.232563 0.996399 0.18167
C_ C_ 0.261986 0.203782 0.861441 0.18167
C_ C_ 0.239919 0.228923 0.818741 -0.15533
C_ C_ 0.265588 0.230649 0.775005 0.02923
C_ C_ 0.318336 0.211465 0.781849 -0.15533
C_ C_ 0.339905 0.192189 0.828823 0.18167
C_ C_ 0.263331 0.127319 0.961243 0.69207
C_ C_ 0.22015 0.120963 0.497187 0.02923
C_ C_ 0.239461 0.12647 0.549173 -0.15533
C_ C_ 0.206769 0.12199 0.58786 -0.15533
C_ C_ 0.157049 0.108121 0.578104 0.02923
C_ C_ 0.136979 0.106025 0.52491 -0.15533
C_ C_ 0.168079 0.110834 0.486687 0.02923
C_ C_ 0.150791 0.118316 0.931009 0.69207
C_ C_ 0.143469 0.101567 0.675796 0.69661
C_ C_ 0.378951 0.380489 0.876008 -0.30787
C_ C_ 0.119801 0.110983 0.62054 -0.30787
N_ N_ 0.144249 0.0606507 0.811892 -0.32189
N_ N_ 0.0589952 0.148175 0.810983 -0.32189
N_ N_ 0.109746 0.312311 0.561982 -0.32189
N_ N_ 0.200744 0.315178 0.64723 -0.32189
N_ N_ 0.360827 0.45116 0.695183 -0.32189
N_ N_ 0.440071 0.353334 0.690295 -0.32189
N_ N_ 0.393052 0.198306 0.955202 -0.32189
N_ N_ 0.310057 0.183732 0.865797 -0.32189
O_ O_ 0.505097 0.0916957 0.90309 -0.63271
O_ O_ 0.040902 0.0436493 0.838627 -0.57982
O_ O_ 0.402822 0.10084 0.852545 -0.63271
O_ O_ 0.369226 0.0894705 0.925108 -0.57982
O_ O_ 0.24228 0.395513 0.589126 -0.63271
O_ O_ 0.203511 0.344677 0.534548 -0.57982
O_ O_ 0.351384 0.341025 0.594934 -0.63271
O_ O_ 0.37417 0.420653 0.594967 -0.57982
O_ O_ 0.994078 0.410675 0.600181 -0.63271
O_ O_ 0.454498 0.451694 0.658454 -0.57982
O_ O_ 0.102357 0.408413 0.655407 -0.63271
O_ O_ 0.12999 0.408325 0.577499 -0.57982
O_ O_ 0.257386 0.107561 0.914011 -0.63271
O_ O_ 0.29594 0.158847 0.972489 -0.57982
O_ O_ 0.160405 0.157161 0.906767 -0.63271
O_ O_ 0.109184 0.0958622 0.913677 -0.57982
F_ F_ 0.440745 0.317439 0.917424 -0.20885
F_ F_ 0.433828 0.3065 0.83277 -0.20885
F_ F_ 0.371212 0.287848 0.879279 -0.20885
F_ F_ 0.325776 0.430881 0.816579 -0.20885
F_ F_ 0.325255 0.344148 0.80628 -0.20885
F_ F_ 0.388805 0.385466 0.787154 -0.20885
F_ F_ 0.0687964 0.182092 0.581029 -0.20885
F_ F_ 0.0611313 0.178553 0.658855 -0.20885
F_ F_ 0.132524 0.200447 0.632624 -0.20885
F_ F_ 0.178966 0.0591448 0.680826 -0.20885
F_ F_ 0.170968 0.139703 0.700182 -0.20885
F_ F_ 0.103566 0.0948633 0.703895 -0.20885
Zn Zn 0.0932349 0.581156 0.343309 0.83971
Zn Zn 0.162423 0.844088 0.0839652 0.83971
Zn Zn 0.40567 0.919157 0.155239 0.83971
Zn Zn 0.340597 0.659916 0.412161 0.83971
H_ H_ 0.165067 0.625123 0.295091 0.10394
H_ H_ 0.25001 0.591602 0.268077 0.10394
H_ H_ 0.192169 0.953151 0.277322 0.10394
H_ H_ 0.132968 0.475448 0.309951 0.10394
H_ H_ 0.52666 0.592808 0.242599 0.10394
H_ H_ 0.481867 0.667346 0.195139 0.10394
H_ H_ 0.0225345 0.761337 0.327425 0.10394
H_ H_ 0.0672322 0.685217 0.370073 0.10394
H_ H_ 0.0211155 0.945718 0.34814 0.10394
H_ H_ 0.473468 0.88507 0.377432 0.10394
H_ H_ 0.35771 0.990468 0.427503 0.10394
H_ H_ 0.0861967 0.800313 0.125709 0.10394
H_ H_ 0.506872 0.75901 0.0945676 0.10394
H_ H_ 0.0298666 0.794438 0.447001 0.10394
H_ H_ 0.130941 0.804913 0.976013 0.10394
H_ H_ 0.215644 0.745528 0.0969683 0.10394
H_ H_ 0.261209 0.700852 0.174647 0.10394
H_ H_ 0.219367 0.839573 0.26649 0.10394
H_ H_ 0.184162 0.883097 0.18781 0.10394
H_ H_ 0.207162 0.880126 0.444848 0.10394
H_ H_ 0.257743 0.889744 0.37709 0.10394
H_ H_ 0.390626 0.902203 0.489161 0.10394
H_ H_ 0.298462 0.902735 0.161906 0.10394
H_ H_ 0.225252 0.955827 0.193716 0.10394
H_ H_ 0.340998 0.528934 0.284468 0.10394
H_ H_ 0.396572 0.00890332 0.225893 0.10394
H_ H_ 0.0173999 0.878185 0.196671 0.10394
H_ H_ 0.0566976 0.798077 0.238005 0.10394
H_ H_ 0.408834 0.744006 0.220279 0.10394
H_ H_ 0.368392 0.827233 0.183241 0.10394
H_ H_ 0.465335 0.560949 0.134306 0.10394
H_ H_ 0.0284603 0.615219 0.112597 0.10394
H_ H_ 0.146281 0.494943 0.0939545 0.10394
H_ H_ 0.439369 0.674749 0.386081 0.10394
H_ H_ 0.0112822 0.702208 0.436963 0.10394
H_ H_ 0.414826 0.779936 0.0395125 0.10394
H_ H_ 0.345471 0.735027 0.49798 0.10394
H_ H_ 0.233125 0.686619 0.374043 0.10394
H_ H_ 0.189948 0.732457 0.299662 0.10394
H_ H_ 0.334262 0.733767 0.245837 0.10394
H_ H_ 0.376788 0.702234 0.328477 0.10394
H_ H_ 0.294489 0.615753 0.0455483 0.10394
H_ H_ 0.251268 0.589119 0.112213 0.10394
H_ H_ 0.11665 0.572422 0.00460525 0.10394
C_ C_ 0.176377 0.585538 0.290866 0.18167
C_ C_ 0.226045 0.566651 0.278532 -0.15533
C_ C_ 0.237901 0.514245 0.268367 0.02923
C_ C_ 0.192389 0.994571 0.289142 -0.15533
C_ C_ 0.16095 0.501757 0.305494 0.18167
C_ C_ 0.0436898 0.627922 0.25638 0.18167
C_ C_ 0.507218 0.672761 0.229358 -0.15533
C_ C_ 0.00863097 0.718227 0.254609 0.02923
C_ C_ 0.0261723 0.723251 0.306438 -0.15533
C_ C_ 0.0521036 0.681136 0.330452 0.18167
C_ C_ 0.00508087 0.547828 0.366047 0.69207
C_ C_ 0.464313 0.00950398 0.371431 0.02923
C_ C_ 0.483853 0.958857 0.365143 -0.15533
C_ C_ 0.453957 0.921744 0.374854 -0.15533
C_ C_ 0.403088 0.930477 0.387519 0.02923
C_ C_ 0.388538 0.980862 0.403485 -0.15533
C_ C_ 0.416025 0.0214855 0.390774 0.02923
C_ C_ 0.391628 0.577051 0.376712 0.69207
C_ C_ 0.392912 0.830278 0.389445 0.69661
C_ C_ 0.0781445 0.790859 0.0871534 0.18167
C_ C_ 0.0346038 0.764977 0.0691222 -0.15533
C_ C_ 0.0242629 0.757142 0.0151694 0.02923
C_ C_ 0.040233 0.793896 0.485908 -0.15533
C_ C_ 0.104337 0.792401 0.00378377 0.18167
C_ C_ 0.215762 0.765154 0.13366 0.18167
C_ C_ 0.240632 0.739646 0.177115 -0.15533
C_ C_ 0.239791 0.766524 0.225488 0.02923
C_ C_ 0.21745 0.816534 0.229998 -0.15533
C_ C_ 0.199847 0.841757 0.184901 0.18167
C_ C_ 0.240125 0.865879 0.0440938 0.69207
C_ C_ 0.269856 0.882794 0.506667 0.02923
C_ C_ 0.24913 0.880236 0.454606 -0.15533
C_ C_ 0.278478 0.88285 0.415966 -0.15533
C_ C_ 0.330208 0.894773 0.428001 0.02923
C_ C_ 0.350418 0.895742 0.479019 -0.15533
C_ C_ 0.320336 0.894298 0.517367 0.02923
C_ C_ 0.347924 0.892104 0.0730245 0.69207
C_ C_ 0.340781 0.887639 0.329617 0.69661
C_ C_ 0.303528 0.937658 0.182098 0.18167
C_ C_ 0.264071 0.960137 0.209633 -0.15533
C_ C_ 0.271356 1.000942878 0.24632 0.02923
C_ C_ 0.330676 0.504141 0.251874 -0.15533
C_ C_ 0.357554 0.997461 0.222481 0.18167
C_ C_ 0.489499 0.851678 0.192469 0.18167
C_ C_ 0.0148129 0.801248 0.220756 -0.15533
C_ C_ 0.48294 0.768849 0.221744 0.02923
C_ C_ 0.429733 0.774078 0.209854 -0.15533
C_ C_ 0.409379 0.818074 0.188841 0.18167
C_ C_ 0.486033 0.957783 0.123994 0.69207
C_ C_ 0.0271756 0.488655 0.118181 0.02923
C_ C_ 0.0128384 0.539468 0.124278 -0.15533
C_ C_ 0.0438498 0.575287 0.111733 -0.15533
C_ C_ 0.0935146 0.560354 0.0997099 0.02923
C_ C_ 0.108496 0.507695 0.0942502 -0.15533
C_ C_ 0.0761245 0.470935 0.102804 0.02923
C_ C_ 0.0976031 0.923775 0.118147 0.69207
C_ C_ 0.114208 0.652679 0.100408 0.69661
C_ C_ 0.434727 0.693587 0.422115 0.18167
C_ C_ 0.476375 0.716132 0.446091 -0.15533
C_ C_ 0.470143 0.744167 0.494036 0.02923
C_ C_ 0.424836 0.752772 0.00895026 -0.15533
C_ C_ 0.380241 0.735391 0.479038 0.18167
C_ C_ 0.25489 0.703192 0.34779 0.18167
C_ C_ 0.232283 0.72815 0.306319 -0.15533
C_ C_ 0.263147 0.742815 0.270126 0.02923
C_ C_ 0.314453 0.726876 0.276227 -0.15533
C_ C_ 0.337049 0.705234 0.319617 0.18167
C_ C_ 0.266248 0.629637 0.455269 0.69207
C_ C_ 0.232755 0.611585 0.983078 0.02923
C_ C_ 0.255359 0.60545 0.0344784 -0.15533
C_ C_ 0.22855 0.590999 0.0739844 -0.15533
C_ C_ 0.177147 0.58469 0.0651242 0.02923
C_ C_ 0.154912 0.585878 0.013245 -0.15533
C_ C_ 0.180759 0.602942 0.973592 0.02923
C_ C_ 0.156009 0.61253 0.422035 0.69207
C_ C_ 0.160808 0.591845 0.159383 0.69661
C_ C_ 0.368339 0.888017 0.38366 -0.30787
C_ C_ 0.136373 0.595962 0.105003 -0.30787
N_ N_ 0.145042 0.552937 0.305432 -0.32189
N_ N_ 0.0603045 0.635334 0.305446 -0.32189
N_ N_ 0.113129 0.800672 0.0552633 -0.32189
N_ N_ 0.196313 0.815664 0.140336 -0.32189
N_ N_ 0.350725 0.953506 0.192983 -0.32189
N_ N_ 0.438464 0.855655 0.183903 -0.32189
N_ N_ 0.388646 0.702416 0.438883 -0.32189
N_ N_ 0.306404 0.691328 0.354853 -0.32189
O_ O_ 0.50759 0.592741 0.387918 -0.63271
O_ O_ 0.0441437 0.533475 0.337235 -0.57982
O_ O_ 0.386993 0.599718 0.334849 -0.63271
O_ O_ 0.375144 0.598895 0.416737 -0.57982
O_ O_ 0.232244 0.899368 0.0839271 -0.63271
O_ O_ 0.209858 0.828862 0.036501 -0.57982
O_ O_ 0.353437 0.848274 0.0967033 -0.63271
O_ O_ 0.376419 0.926172 0.0923788 -0.57982
O_ O_ 0.986569 0.90505 0.103398 -0.63271
O_ O_ 0.451984 0.966572 0.156047 -0.57982
O_ O_ 0.0955068 0.897021 0.158251 -0.63271
O_ O_ 0.127205 0.905194 0.0829425 -0.57982
O_ O_ 0.271089 0.596541 0.415973 -0.63271
O_ O_ 0.295504 0.66667 0.461099 -0.57982
O_ O_ 0.161743 0.648246 0.38875 -0.63271
O_ O_ 0.119498 0.58348 0.408331 -0.57982
F_ F_ 0.423208 0.828095 0.434416 -0.20885
F_ F_ 0.42266 0.812859 0.351414 -0.20885
F_ F_ 0.354919 0.796839 0.384909 -0.20885
F_ F_ 0.309237 0.930881 0.320964 -0.20885
F_ F_ 0.312256 0.847728 0.312865 -0.20885
F_ F_ 0.374641 0.885371 0.29342 -0.20885
F_ F_ 0.0801919 0.656855 0.0575677 -0.20885
F_ F_ 0.0857831 0.672983 0.142044 -0.20885
F_ F_ 0.151494 0.685284 0.102441 -0.20885
F_ F_ 0.183434 0.54306 0.172061 -0.20885
F_ F_ 0.19336 0.626453 0.174408 -0.20885
F_ F_ 0.121802 0.601809 0.19163 -0.20885
Zn Zn 0.0866701 0.582472 0.844373 0.83971
Zn Zn 0.157399 0.850865 0.583891 0.83971
Zn Zn 0.409507 0.912473 0.657049 0.83971
Zn Zn 0.346012 0.654763 0.906813 0.83971
H_ H_ 0.160421 0.627206 0.794267 0.10394
H_ H_ 0.2423 0.598322 0.767099 0.10394
H_ H_ 0.210339 0.949325 0.789808 0.10394
H_ H_ 0.143089 0.479799 0.838623 0.10394
H_ H_ 0.531511 0.600168 0.74597 0.10394
H_ H_ 0.480495 0.67158 0.707419 0.10394
H_ H_ 0.0420576 0.763869 0.823514 0.10394
H_ H_ 0.0830342 0.693651 0.868432 0.10394
H_ H_ 0.0326871 0.946619 0.865135 0.10394
H_ H_ 0.478348 0.875625 0.879873 0.10394
H_ H_ 0.35684 0.993466 0.907418 0.10394
H_ H_ 0.0775296 0.807361 0.627855 0.10394
H_ H_ 0.511546 0.749214 0.599041 0.10394
H_ H_ 0.0457295 0.782363 0.944073 0.10394
H_ H_ 0.103898 0.838683 0.481869 0.10394
H_ H_ 0.210056 0.753825 0.596364 0.10394
H_ H_ 0.243436 0.706029 0.675301 0.10394
H_ H_ 0.220573 0.843336 0.76748 0.10394
H_ H_ 0.183261 0.8889 0.689901 0.10394
H_ H_ 0.219567 0.861845 0.947724 0.10394
H_ H_ 0.267346 0.880485 0.877323 0.10394
H_ H_ 0.391084 0.909465 0.992697 0.10394
H_ H_ 0.297939 0.903978 0.656308 0.10394
H_ H_ 0.229537 0.961629 0.691773 0.10394
H_ H_ 0.333577 0.553781 0.773351 0.10394
H_ H_ 0.406041 -0.005365999999999982 0.736043 0.10394
H_ H_ 0.0208139 0.878246 0.692105 0.10394
H_ H_ 0.060749 0.797728 0.722381 0.10394
H_ H_ 0.408729 0.750306 0.727525 0.10394
H_ H_ 0.37104 0.81902 0.676656 0.10394
H_ H_ 0.465261 0.541112 0.628438 0.10394
H_ H_ 0.0181397 0.620975 0.617223 0.10394
H_ H_ 0.144002 0.508861 0.587058 0.10394
H_ H_ 0.449676 0.658175 0.891569 0.10394
H_ H_ 0.0246342 0.679742 0.946992 0.10394
H_ H_ 0.413888 0.778215 0.544981 0.10394
H_ H_ 0.349345 0.732369 -0.003242999999999996 0.10394
H_ H_ 0.239938 0.696021 0.876256 0.10394
H_ H_ 0.195943 0.74931 0.803998 0.10394
H_ H_ 0.331522 0.722938 0.729758 0.10394
H_ H_ 0.375122 0.675964 0.809085 0.10394
H_ H_ 0.280835 0.647347 0.55962 0.10394
H_ H_ 0.226294 0.621043 0.620356 0.10394
H_ H_ 0.101904 0.608313 0.501463 0.10394
C_ C_ 0.174719 0.587527 0.79631 0.18167
C_ C_ 0.219458 0.570109 0.775752 -0.15533
C_ C_ 0.236597 0.518922 0.774475 0.02923
C_ C_ 0.202529 0.991446 0.790813 -0.15533
C_ C_ 0.162486 0.503517 0.817448 0.18167
C_ C_ 0.0193282 0.630753 0.766386 0.18167
C_ C_ 0.500935 0.676738 0.744529 -0.15533
C_ C_ 0.0103681 0.721526 0.755015 0.02923
C_ C_ 0.0347429 0.72805 0.806644 -0.15533
C_ C_ 0.0559934 0.685889 0.833909 0.18167
C_ C_ 0.010563 0.540682 0.868663 0.69207
C_ C_ 0.47884 0.00683894 0.886478 0.02923
C_ C_ 0.496356 0.953918 0.885875 -0.15533
C_ C_ 0.463604 0.915766 0.88113 -0.15533
C_ C_ 0.411995 0.928871 0.891028 0.02923
C_ C_ 0.392871 0.98171 0.895817 -0.15533
C_ C_ 0.427139 0.0212928 0.893999 0.02923
C_ C_ 0.398179 0.564958 0.88173 0.69207
C_ C_ 0.395781 0.831097 0.886855 0.69661
C_ C_ 0.0686032 0.799906 0.587517 0.18167
C_ C_ 0.0269716 0.774733 0.570002 -0.15533
C_ C_ 0.010481 0.773528 0.518733 0.02923
C_ C_ 0.0578003 0.775814 0.983427 -0.15533
C_ C_ 0.0846353 0.81519 0.504607 0.18167
C_ C_ 0.215596 0.773372 0.633948 0.18167
C_ C_ 0.23319 0.746351 0.677746 -0.15533
C_ C_ 0.240801 0.772714 0.724406 0.02923
C_ C_ 0.225303 0.825124 0.728995 -0.15533
C_ C_ 0.201594 0.84922 0.685663 0.18167
C_ C_ 0.239474 0.875133 0.548398 0.69207
C_ C_ 0.275623 0.877155 0.00783129 0.02923
C_ C_ 0.256658 0.874482 0.956316 -0.15533
C_ C_ 0.285355 0.883562 0.916343 -0.15533
C_ C_ 0.336429 0.893821 0.925767 0.02923
C_ C_ 0.353314 0.898885 0.980267 -0.15533
C_ C_ 0.323774 0.894146 0.0203611 0.02923
C_ C_ 0.352085 0.886191 0.568788 0.69207
C_ C_ 0.346285 0.890183 0.829187 0.69661
C_ C_ 0.307345 0.936301 0.681529 0.18167
C_ C_ 0.268105 0.96399 0.707665 -0.15533
C_ C_ 0.279598 1.00248029 0.746097 0.02923
C_ C_ 0.326528 0.517511 0.754327 -0.15533
C_ C_ 0.365597 0.985827 0.729286 0.18167
C_ C_ 0.492579 0.852164 0.700834 0.18167
C_ C_ 0.0199035 0.803045 0.717771 -0.15533
C_ C_ 0.484304 0.76972 0.736551 0.02923
C_ C_ 0.433612 0.773612 0.7143 -0.15533
C_ C_ 0.414004 0.817151 0.689211 0.18167
C_ C_ 0.485469 0.948385 0.624083 0.69207
C_ C_ 0.0223535 0.49273 0.611813 0.02923
C_ C_ 1.00406281 0.544487 0.619456 -0.15533
C_ C_ 0.0350264 0.582237 0.61223 -0.15533
C_ C_ 0.0841827 0.572203 0.597192 0.02923
C_ C_ 0.102981 0.520096 0.59425 -0.15533
C_ C_ 0.0738799 0.47962 0.60281 0.02923
C_ C_ 0.0902859 0.929961 0.604526 0.69207
C_ C_ 0.0990371 0.670318 0.6067 0.69661
C_ C_ 0.442694 0.682642 0.92545 0.18167
C_ C_ 0.483105 0.705585 0.954785 -0.15533
C_ C_ 0.47484 0.741753 -0.007496999999999976 0.02923
C_ C_ 0.421266 0.756631 0.508795 -0.15533
C_ C_ 0.385211 0.726982 0.98183 0.18167
C_ C_ 0.261803 0.706025 0.846828 0.18167
C_ C_ 0.235361 0.733277 0.803958 -0.15533
C_ C_ 0.2658 0.745259 0.768053 0.02923
C_ C_ 0.314026 0.719444 0.764943 -0.15533
C_ C_ 0.337417 0.69611 0.809626 0.18167
C_ C_ 0.265666 0.622298 0.942066 0.69207
C_ C_ 0.227693 0.62805 0.492217 0.02923
C_ C_ 0.243637 0.633756 0.54571 -0.15533
C_ C_ 0.211555 0.620692 0.58056 -0.15533
C_ C_ 0.15952 0.610978 0.566646 0.02923
C_ C_ 0.142819 0.61333 0.51398 -0.15533
C_ C_ 0.175792 0.620575 0.477684 0.02923
C_ C_ 0.150627 0.609008 0.922007 0.69207
C_ C_ 0.146432 0.608712 0.663408 0.69661
C_ C_ 0.374766 0.886838 0.883953 -0.30787
C_ C_ 0.122575 0.613988 0.607338 -0.30787
N_ N_ 0.14444 0.554664 0.812484 -0.32189
N_ N_ 0.0541494 0.639427 0.809004 -0.32189
N_ N_ 0.100268 0.814349 0.555537 -0.32189
N_ N_ 0.194126 0.822693 0.640492 -0.32189
N_ N_ 0.356158 0.945648 0.695796 -0.32189
N_ N_ 0.44495 0.852242 0.680066 -0.32189
N_ N_ 0.394161 0.697037 0.939111 -0.32189
N_ N_ 0.310339 0.687282 0.847149 -0.32189
O_ O_ 0.506114 0.587615 0.893903 -0.63271
O_ O_ 0.0473564 0.532178 0.840576 -0.57982
O_ O_ 0.401999 0.587326 0.838923 -0.63271
O_ O_ 0.372737 0.588305 0.917133 -0.57982
O_ O_ 0.23347 0.911162 0.584439 -0.63271
O_ O_ 0.203659 0.844483 0.538572 -0.57982
O_ O_ 0.345427 0.846365 0.594201 -0.63271
O_ O_ 0.372828 0.922948 0.594187 -0.57982
O_ O_ 0.982812 0.910573 0.59514 -0.63271
O_ O_ 0.454239 0.96019 0.659669 -0.57982
O_ O_ 0.0840379 0.905314 0.642747 -0.63271
O_ O_ 0.126573 0.91438 0.576105 -0.57982
O_ O_ 0.261604 0.600581 0.895221 -0.63271
O_ O_ 0.30227 0.652418 0.956205 -0.57982
O_ O_ 0.157272 0.645067 0.892627 -0.63271
O_ O_ 0.11262 0.582714 0.907751 -0.57982
F_ F_ 0.432358 0.827109 0.930346 -0.20885
F_ F_ 0.418728 0.813553 0.843819 -0.20885
F_ F_ 0.360221 0.799975 0.89184 -0.20885
F_ F_ 0.311837 0.936129 0.825265 -0.20885
F_ F_ 0.320239 0.848756 0.810332 -0.20885
F_ F_ 0.383208 0.887862 0.793096 -0.20885
F_ F_ 0.0612337 0.674342 0.567619 -0.20885
F_ F_ 0.0748407 0.685727 0.650991 -0.20885
F_ F_ 0.137278 0.704995 0.608484 -0.20885
F_ F_ 0.179354 0.560973 0.667671 -0.20885
F_ F_ 0.17495 0.646933 0.685866 -0.20885
F_ F_ 0.106889 0.604222 0.694202 -0.20885
Zn Zn 0.584396 0.0854758 0.345811 0.83971
Zn Zn 0.656256 0.352266 0.0884168 0.83971
Zn Zn 0.908449 0.423782 0.159251 0.83971
Zn Zn 0.838563 0.15945 0.421387 0.83971
H_ H_ 0.677576 0.130196 0.322633 0.10394
H_ H_ 0.755134 0.0941175 0.281891 0.10394
H_ H_ 0.703592 0.446625 0.277034 0.10394
H_ H_ 0.622291 0.985491 0.306239 0.10394
H_ H_ 0.0331195 0.107695 0.25328 0.10394
H_ H_ 0.99317 0.179512 0.207558 0.10394
H_ H_ 0.529457 0.271447 0.322194 0.10394
H_ H_ 0.576829 0.196927 0.370901 0.10394
H_ H_ 0.537611 0.454846 0.385507 0.10394
H_ H_ 0.980119 0.385243 0.365107 0.10394
H_ H_ 0.850296 0.494699 0.392096 0.10394
H_ H_ 0.575243 0.318406 0.138032 0.10394
H_ H_ 1.0113384 0.264683 0.0932425 0.10394
H_ H_ 0.553084 0.270268 0.437816 0.10394
H_ H_ 0.617763 0.322357 0.987988 0.10394
H_ H_ 0.712463 0.256978 0.0998861 0.10394
H_ H_ 0.74956 0.207612 0.172425 0.10394
H_ H_ 0.724597 0.341403 0.271936 0.10394
H_ H_ 0.669614 0.38491 0.201998 0.10394
H_ H_ 0.71883 0.352684 0.436528 0.10394
H_ H_ 0.776601 0.355824 0.371562 0.10394
H_ H_ 0.886379 0.417769 0.480891 0.10394
H_ H_ 0.803408 0.40386 0.158962 0.10394
H_ H_ 0.726403 0.455921 0.183296 0.10394
H_ H_ 0.834799 0.0366938 0.286876 0.10394
H_ H_ 0.899958 0.502297 0.24115 0.10394
H_ H_ 0.500789 0.389456 0.208686 0.10394
H_ H_ 0.547082 0.31027 0.242194 0.10394
H_ H_ 0.91761 0.253777 0.226453 0.10394
H_ H_ 0.873218 0.329124 0.188862 0.10394
H_ H_ 0.957528 0.0453221 0.0948482 0.10394
H_ H_ 0.516011 0.12836 0.123648 0.10394
H_ H_ 0.643268 0.0142494 0.104702 0.10394
H_ H_ 0.939263 0.168597 0.394846 0.10394
H_ H_ 0.51386 0.185601 0.434863 0.10394
H_ H_ 0.932733 0.260586 0.0587727 0.10394
H_ H_ 0.845399 0.248338 0.495656 0.10394
H_ H_ 0.735076 0.193454 0.383488 0.10394
H_ H_ 0.696532 0.249325 0.317107 0.10394
H_ H_ 0.839994 0.229425 0.246154 0.10394
H_ H_ 0.880997 0.185486 0.325916 0.10394
H_ H_ 0.786956 0.113149 0.0606396 0.10394
H_ H_ 0.732328 0.114075 0.131786 0.10394
H_ H_ 0.602722 0.102589 0.0186273 0.10394
C_ C_ 0.681195 0.0921602 0.310533 0.18167
C_ C_ 0.726081 0.0708151 0.288974 -0.15533
C_ C_ 0.734017 0.0179115 0.274435 0.02923
C_ C_ 0.695536 0.487448 0.281999 -0.15533
C_ C_ 0.648965 0.011396 0.299805 0.18167
C_ C_ 0.522737 0.136171 0.267066 0.18167
C_ C_ 0.0134749 0.186469 0.242688 -0.15533
C_ C_ 0.50108 0.227045 0.260302 0.02923
C_ C_ 0.531085 0.233411 0.304682 -0.15533
C_ C_ 0.559925 0.191031 0.330337 0.18167
C_ C_ 0.503919 0.0460794 0.371346 0.69207
C_ C_ 0.969803 0.511001 0.377184 0.02923
C_ C_ 0.992986 0.460488 0.37794 -0.15533
C_ C_ 0.961453 0.420749 0.377433 -0.15533
C_ C_ 0.910404 0.431443 0.388189 0.02923
C_ C_ 0.891199 0.482983 0.392449 -0.15533
C_ C_ 0.921105 0.521464 0.389303 0.02923
C_ C_ 0.896957 0.0743501 0.385662 0.69207
C_ C_ 0.903341 0.333527 0.382003 0.69661
C_ C_ 0.567479 0.310395 0.0955191 0.18167
C_ C_ 0.524854 0.286242 0.0785635 -0.15533
C_ C_ 0.51586 0.273976 0.0243521 0.02923
C_ C_ 0.557568 0.274481 0.479218 -0.15533
C_ C_ 0.589693 0.316582 0.0110985 0.18167
C_ C_ 0.71455 0.274531 0.140568 0.18167
C_ C_ 0.73525 0.247426 0.183462 -0.15533
C_ C_ 0.742389 0.271164 0.231341 0.02923
C_ C_ 0.716459 0.320863 0.236509 -0.15533
C_ C_ 0.690612 0.346481 0.196 0.18167
C_ C_ 0.740028 0.370313 0.0498005 0.69207
C_ C_ 0.776762 0.366178 0.499021 0.02923
C_ C_ 0.759012 0.357409 0.447417 -0.15533
C_ C_ 0.790136 0.367541 0.410131 -0.15533
C_ C_ 0.837476 0.38845 0.421172 0.02923
C_ C_ 0.854154 0.399417 0.471277 -0.15533
C_ C_ 0.828462 0.379837 0.510244 0.02923
C_ C_ 0.848976 0.389303 0.0753804 0.69207
C_ C_ 0.84636 0.391063 0.32482 0.69661
C_ C_ 0.808712 0.437705 0.181234 0.18167
C_ C_ 0.764996 0.465229 0.200108 -0.15533
C_ C_ 0.771541 0.501969 0.238416 0.02923
C_ C_ 0.827322 0.0122107 0.253455 -0.15533
C_ C_ 0.862281 0.492932 0.229546 0.18167
C_ C_ 0.99152 0.366517 0.20876 0.18167
C_ C_ 0.507305 0.310289 0.223044 -0.15533
C_ C_ 0.992135 0.279385 0.234946 0.02923
C_ C_ 0.941213 0.281126 0.216633 -0.15533
C_ C_ 0.914013 0.325507 0.197641 0.18167
C_ C_ 0.990465 0.451643 0.127573 0.69207
C_ C_ 0.522554 0.996928 0.118836 0.02923
C_ C_ 0.500584 0.0487132 0.120081 -0.15533
C_ C_ 0.534415 0.0868466 0.120366 -0.15533
C_ C_ 0.584683 0.0757896 0.11295 0.02923
C_ C_ 0.60342 0.0236359 0.104209 -0.15533
C_ C_ 0.573377 0.984475 0.108987 0.02923
C_ C_ 0.598711 0.430298 0.105542 0.69207
C_ C_ 0.601743 0.171465 0.113724 0.69661
C_ C_ 0.936015 0.192124 0.429465 0.18167
C_ C_ 0.978463 0.209757 0.456545 -0.15533
C_ C_ 0.972854 0.249504 0.494041 0.02923
C_ C_ 0.931917 0.244479 0.0186548 -0.15533
C_ C_ 0.882246 0.237724 0.485984 0.18167
C_ C_ 0.757466 0.196012 0.351261 0.18167
C_ C_ 0.736649 0.231181 0.314747 -0.15533
C_ C_ 0.76629 0.244433 0.277831 0.02923
C_ C_ 0.818749 0.223972 0.279745 -0.15533
C_ C_ 0.838985 0.19332 0.318757 0.18167
C_ C_ 0.759719 0.129655 0.45846 0.69207
C_ C_ 0.725924 0.119015 1.00137629 0.02923
C_ C_ 0.747234 0.109246 0.0524484 -0.15533
C_ C_ 0.715278 0.112963 0.0907252 -0.15533
C_ C_ 0.662008 0.108514 0.0795729 0.02923
C_ C_ 0.64333 0.105089 0.0294219 -0.15533
C_ C_ 0.672616 0.116359 0.990099 0.02923
C_ C_ 0.640399 0.115977 0.431258 0.69207
C_ C_ 0.647613 0.116123 0.176605 0.69661
C_ C_ 0.87475 0.388463 0.378685 -0.30787
C_ C_ 0.624389 0.116872 0.120423 -0.30787
N_ N_ 0.642713 0.0627181 0.311425 -0.32189
N_ N_ 0.554744 0.141562 0.310242 -0.32189
N_ N_ 0.600546 0.318701 0.0620538 -0.32189
N_ N_ 0.690229 0.322843 0.148333 -0.32189
N_ N_ 0.85506 0.454169 0.194292 -0.32189
N_ N_ 0.940224 0.367786 0.194528 -0.32189
N_ N_ 0.890647 0.198383 0.450331 -0.32189
N_ N_ 0.808746 0.181054 0.355668 -0.32189
O_ O_ 0.00461471 0.0902142 0.397917 -0.63271
O_ O_ 0.540689 0.0396162 0.340263 -0.57982
O_ O_ 0.888194 0.0930946 0.339428 -0.63271
O_ O_ 0.873566 0.0976985 0.423729 -0.57982
O_ O_ 0.733606 0.409136 0.0825819 -0.63271
O_ O_ 0.70789 0.337251 0.045216 -0.57982
O_ O_ 0.850059 0.350563 0.103562 -0.63271
O_ O_ 0.880405 0.423096 0.0911075 -0.57982
O_ O_ 0.493674 0.412875 0.0969196 -0.63271
O_ O_ 0.956165 0.46737 0.157161 -0.57982
O_ O_ 0.596191 0.403129 0.142913 -0.63271
O_ O_ 0.628559 0.413302 0.0710533 -0.57982
O_ O_ 0.762069 0.099493 0.417266 -0.63271
O_ O_ 0.792071 0.16554 0.466328 -0.57982
O_ O_ 0.653296 0.148738 0.402985 -0.63271
O_ O_ 0.612324 0.0802467 0.410423 -0.57982
F_ F_ 0.93769 0.333009 0.42392 -0.20885
F_ F_ 0.925595 0.315033 0.339065 -0.20885
F_ F_ 0.878464 0.294257 0.393671 -0.20885
F_ F_ 0.805359 0.430351 0.326961 -0.20885
F_ F_ 0.825232 0.344979 0.308622 -0.20885
F_ F_ 0.879048 0.400752 0.288756 -0.20885
F_ F_ 0.566058 0.175259 0.0717168 -0.20885
F_ F_ 0.578724 0.18778 0.15731 -0.20885
F_ F_ 0.636928 0.208832 0.109476 -0.20885
F_ F_ 0.675044 0.0686889 0.181708 -0.20885
F_ F_ 0.678448 0.153251 0.189597 -0.20885
F_ F_ 0.608913 0.115726 0.20831 -0.20885
Zn Zn 0.594827 0.0848887 0.857938 0.83971
Zn Zn 0.662651 0.337734 0.580195 0.83971
Zn Zn 0.905475 0.416221 0.647951 0.83971
Zn Zn 0.836168 0.157808 0.918984 0.83971
H_ H_ 0.663589 0.130211 0.803089 0.10394
H_ H_ 0.734912 0.101912 0.764683 0.10394
H_ H_ 0.702766 0.441958 0.782664 0.10394
H_ H_ 0.655656 0.985156 0.853066 0.10394
H_ H_ 0.01556 0.0995871 0.763085 0.10394
H_ H_ 0.978544 0.168041 0.706571 0.10394
H_ H_ 0.538541 0.272718 0.837478 0.10394
H_ H_ 0.571254 0.20053 0.891826 0.10394
H_ H_ 0.539535 0.439425 0.870735 0.10394
H_ H_ 0.978414 0.371185 0.867503 0.10394
H_ H_ 0.860024 0.483198 0.909642 0.10394
H_ H_ 0.576768 0.302151 0.624787 0.10394
H_ H_ -0.002139000000000002 0.286637 0.599781 0.10394
H_ H_ 0.541211 0.285686 0.949775 0.10394
H_ H_ 0.629116 0.306265 0.479988 0.10394
H_ H_ 0.723553 0.240134 0.605543 0.10394
H_ H_ 0.751164 0.200575 0.688412 0.10394
H_ H_ 0.722899 0.345658 0.768632 0.10394
H_ H_ 0.683295 0.382751 0.684135 0.10394
H_ H_ 0.719797 0.360022 0.943725 0.10394
H_ H_ 0.765628 0.369293 0.87884 0.10394
H_ H_ 0.893815 0.397649 0.988722 0.10394
H_ H_ 0.796823 0.429183 0.629821 0.10394
H_ H_ 0.728091 0.459702 0.676313 0.10394
H_ H_ 0.833253 0.057813 0.776001 0.10394
H_ H_ 0.903877 0.481102 0.745849 0.10394
H_ H_ 0.512691 0.38003 0.7024 0.10394
H_ H_ 0.553356 0.307977 0.749147 0.10394
H_ H_ 0.907659 0.243406 0.710265 0.10394
H_ H_ 0.86478 0.326331 0.683762 0.10394
H_ H_ 0.95485 0.0594777 0.612493 0.10394
H_ H_ 0.514537 0.112446 0.588695 0.10394
H_ H_ 0.645671 -0.004518000000000022 0.602481 0.10394
H_ H_ 0.93645 0.165684 0.887142 0.10394
H_ H_ 0.520113 0.197975 0.950541 0.10394
H_ H_ 0.915224 0.296772 0.538022 0.10394
H_ H_ 0.854333 0.224326 0.00954626 0.10394
H_ H_ 0.73015 0.20066 0.886721 0.10394
H_ H_ 0.69147 0.243671 0.813105 0.10394
H_ H_ 0.830359 0.234584 0.754731 0.10394
H_ H_ 0.873909 0.18382 0.826373 0.10394
H_ H_ 0.778353 0.133431 0.558071 0.10394
H_ H_ 0.729475 0.104446 0.621664 0.10394
H_ H_ 0.604786 0.0836231 0.508956 0.10394
C_ C_ 0.676637 0.0908072 0.8038 0.18167
C_ C_ 0.722853 0.076114 0.789536 -0.15533
C_ C_ 0.738369 0.0250743 0.781721 0.02923
C_ C_ 0.693875 0.48336 0.783463 -0.15533
C_ C_ 0.667803 0.00840285 0.825728 0.18167
C_ C_ 0.540517 0.136456 0.780191 0.18167
C_ C_ 0.0007900000000000684 0.177076 0.742686 -0.15533
C_ C_ 0.511283 0.224895 0.772662 0.02923
C_ C_ 0.530853 0.234415 0.823814 -0.15533
C_ C_ 0.55664 0.192948 0.851748 0.18167
C_ C_ 0.517133 0.0448981 0.884741 0.69207
C_ C_ 0.974039 0.500977 0.875204 0.02923
C_ C_ 0.995109 0.44877 0.872624 -0.15533
C_ C_ 0.965639 0.408944 0.87744 -0.15533
C_ C_ 0.915203 0.421124 0.890032 0.02923
C_ C_ 0.895945 0.472721 0.896124 -0.15533
C_ C_ 0.924193 0.512308 0.886185 0.02923
C_ C_ 0.89679 0.0736999 0.886707 0.69207
C_ C_ 0.903377 0.32409 0.894179 0.69661
C_ C_ 0.569934 0.294425 0.582924 0.18167
C_ C_ 0.525584 0.273965 0.563116 -0.15533
C_ C_ 0.517954 0.264239 0.509333 0.02923
C_ C_ 0.546921 0.29292 0.99138 -0.15533
C_ C_ 0.598768 0.297623 0.502218 0.18167
C_ C_ 0.720574 0.262591 0.640551 0.18167
C_ C_ 0.73553 0.239268 0.687172 -0.15533
C_ C_ 0.735701 0.268401 0.733326 0.02923
C_ C_ 0.718995 0.321405 0.730879 -0.15533
C_ C_ 0.699702 0.343353 0.684036 0.18167
C_ C_ 0.740404 0.36271 0.537418 0.69207
C_ C_ 0.775123 0.372418 1.00971604 0.02923
C_ C_ 0.758352 0.361857 0.957969 -0.15533
C_ C_ 0.788604 0.368545 0.917106 -0.15533
C_ C_ 0.836618 0.387849 0.927042 0.02923
C_ C_ 0.853462 0.39442 0.979943 -0.15533
C_ C_ 0.823445 0.38724 0.0195936 0.02923
C_ C_ 0.855329 0.379094 0.562303 0.69207
C_ C_ 0.850557 0.377411 0.833351 0.69661
C_ C_ 0.80417 0.445555 0.666784 0.18167
C_ C_ 0.765364 0.462093 0.695045 -0.15533
C_ C_ 0.774247 0.487945 0.741803 0.02923
C_ C_ 0.828943 0.0224126 0.754534 -0.15533
C_ C_ 0.863052 0.481619 0.729227 0.18167
C_ C_ 0.985418 0.356463 0.699999 0.18167
C_ C_ 0.514996 0.30867 0.733947 -0.15533
C_ C_ 0.979187 0.272745 0.730672 0.02923
C_ C_ 0.928245 0.276705 0.712007 -0.15533
C_ C_ 0.905547 0.321932 0.69193 0.18167
C_ C_ 0.987892 0.454763 0.622739 0.69207
C_ C_ 0.51945 0.985925 0.612183 0.02923
C_ C_ 0.500853 0.0371745 0.611041 -0.15533
C_ C_ 0.53309 0.0737012 0.600231 -0.15533
C_ C_ 0.586837 0.0596611 0.60109 0.02923
C_ C_ 0.604383 0.00732165 0.602229 -0.15533
C_ C_ 0.571456 0.970902 0.608405 0.02923
C_ C_ 0.597048 0.412827 0.602198 0.69207
C_ C_ 0.600883 0.153831 0.620953 0.69661
C_ C_ 0.936061 0.184574 0.926163 0.18167
C_ C_ 0.979598 0.203857 0.950147 -0.15533
C_ C_ 0.978051 0.237102 -0.0034600000000000186 0.02923
C_ C_ 0.922702 0.266212 0.50829 -0.15533
C_ C_ 0.889945 0.220075 0.993657 0.18167
C_ C_ 0.752406 0.202375 0.856307 0.18167
C_ C_ 0.730352 0.233811 0.816942 -0.15533
C_ C_ 0.761434 0.246232 0.782023 0.02923
C_ C_ 0.810067 0.225664 0.785093 -0.15533
C_ C_ 0.833667 0.193976 0.822101 0.18167
C_ C_ 0.759877 0.129508 0.960718 0.69207
C_ C_ 0.720335 0.126005 0.495809 0.02923
C_ C_ 0.738902 0.126543 0.547481 -0.15533
C_ C_ 0.711198 0.10849 0.584304 -0.15533
C_ C_ 0.658988 0.100965 0.573991 0.02923
C_ C_ 0.639623 0.101128 0.522989 -0.15533
C_ C_ 0.668662 0.109961 0.483522 0.02923
C_ C_ 0.648734 0.112891 0.936348 0.69207
C_ C_ 0.650929 0.0846653 0.670048 0.69661
C_ C_ 0.877157 0.378776 0.887838 -0.30787
C_ C_ 0.625324 0.0973045 0.616913 -0.30787
N_ N_ 0.646381 0.0563656 0.818544 -0.32189
N_ N_ 0.56012 0.14451 0.8288 -0.32189
N_ N_ 0.605974 0.303784 0.553768 -0.32189
N_ N_ 0.695919 0.310889 0.640061 -0.32189
N_ N_ 0.852618 0.45325 0.684985 -0.32189
N_ N_ 0.935412 0.360156 0.682733 -0.32189
N_ N_ 0.891426 0.194609 0.948035 -0.32189
N_ N_ 0.804032 0.184884 0.860998 -0.32189
O_ O_ 0.00501703 0.0919265 0.902731 -0.63271
O_ O_ 0.548463 0.0411081 0.848814 -0.57982
O_ O_ 0.897152 0.099001 0.845697 -0.63271
O_ O_ 0.865713 0.0914734 0.920436 -0.57982
O_ O_ 0.730976 0.399119 0.571978 -0.63271
O_ O_ 0.708417 0.327717 0.532645 -0.57982
O_ O_ 0.846495 0.34562 0.595197 -0.63271
O_ O_ 0.881477 0.41596 0.581636 -0.57982
O_ O_ 0.487991 0.396839 0.602498 -0.63271
O_ O_ 0.950526 0.466189 0.651014 -0.57982
O_ O_ 0.597249 0.387266 0.644112 -0.63271
O_ O_ 0.625168 0.395861 0.56519 -0.57982
O_ O_ 0.756115 0.107336 0.914855 -0.63271
O_ O_ 0.793606 0.164041 0.970616 -0.57982
O_ O_ 0.648128 0.150775 0.908568 -0.63271
O_ O_ 0.611363 0.0842401 0.925307 -0.57982
F_ F_ 0.936386 0.325967 0.938777 -0.20885
F_ F_ 0.926619 0.303371 0.85333 -0.20885
F_ F_ 0.865626 0.292305 0.900851 -0.20885
F_ F_ 0.806902 0.412017 0.827899 -0.20885
F_ F_ 0.828147 0.331391 0.818066 -0.20885
F_ F_ 0.882139 0.388091 0.797553 -0.20885
F_ F_ 0.57276 0.170206 0.576744 -0.20885
F_ F_ 0.572385 0.164446 0.662084 -0.20885
F_ F_ 0.638252 0.188784 0.630709 -0.20885
F_ F_ 0.68875 0.0432632 0.671465 -0.20885
F_ F_ 0.679813 0.121814 0.694549 -0.20885
F_ F_ 0.614592 0.079059 0.704396 -0.20885
Zn Zn 0.581524 0.582756 0.340037 0.83971
Zn Zn 0.657184 0.852249 0.082856 0.83971
Zn Zn 0.910655 0.912776 0.154213 0.83971
Zn Zn 0.835023 0.657365 0.416114 0.83971
H_ H_ 0.660468 0.629362 0.305965 0.10394
H_ H_ 0.741495 0.60047 0.274927 0.10394
H_ H_ 0.695613 0.947766 0.269957 0.10394
H_ H_ 0.626691 0.479332 0.31725 0.10394
H_ H_ 0.0411706 0.588812 0.241594 0.10394
H_ H_ 0.99403525 0.663204 0.1958 0.10394
H_ H_ 0.535821 0.765358 0.317539 0.10394
H_ H_ 0.565163 0.694795 0.370598 0.10394
H_ H_ 0.520835 0.947994 0.348075 0.10394
H_ H_ 0.971037 0.880724 0.365654 0.10394
H_ H_ 0.853788 0.99593 0.407835 0.10394
H_ H_ 0.583835 0.794936 0.125887 0.10394
H_ H_ 1.00977815 0.753489 0.0959673 0.10394
H_ H_ 0.533142 0.794156 0.446778 0.10394
H_ H_ 0.608442 0.837651 0.979638 0.10394
H_ H_ 0.717294 0.758749 0.0902165 0.10394
H_ H_ 0.761815 0.70708 0.163059 0.10394
H_ H_ 0.728814 0.837289 0.267741 0.10394
H_ H_ 0.679589 0.881046 0.190391 0.10394
H_ H_ 0.711963 0.878982 0.446506 0.10394
H_ H_ 0.763268 0.885652 0.37761 0.10394
H_ H_ 0.891816 0.914191 0.492933 0.10394
H_ H_ 0.804516 0.893352 0.16099 0.10394
H_ H_ 0.729881 0.947015 0.192971 0.10394
H_ H_ 0.829005 0.546592 0.284804 0.10394
H_ H_ 0.907613 0.99002553 0.243911 0.10394
H_ H_ 0.508638 0.88191 0.18451 0.10394
H_ H_ 0.55646 0.79796 0.216579 0.10394
H_ H_ 0.90811 0.735546 0.201525 0.10394
H_ H_ 0.873531 0.820819 0.182113 0.10394
H_ H_ 0.975988 0.551741 0.13666 0.10394
H_ H_ 0.516468 0.625916 0.108873 0.10394
H_ H_ 0.645719 0.510295 0.0986672 0.10394
H_ H_ 0.938338 0.670725 0.39329 0.10394
H_ H_ 0.514236 0.703358 0.437238 0.10394
H_ H_ 0.925185 0.773398 0.0370172 0.10394
H_ H_ 0.84537 0.727784 0.502371 0.10394
H_ H_ 0.73497 0.70694 0.383582 0.10394
H_ H_ 0.696514 0.742541 0.306021 0.10394
H_ H_ 0.834322 0.702889 0.237087 0.10394
H_ H_ 0.876963 0.681792 0.324421 0.10394
H_ H_ 0.787117 0.612019 0.048771 0.10394
H_ H_ 0.73407 0.612803 0.114266 0.10394
H_ H_ 0.604515 0.59435 0.00796334 0.10394
C_ C_ 0.673167 0.589068 0.303443 0.18167
C_ C_ 0.716326 0.573077 0.281616 -0.15533
C_ C_ 0.726708 0.52106 0.266571 0.02923
C_ C_ 0.693659 0.988358 0.2812 -0.15533
C_ C_ 0.651423 0.505391 0.305036 0.18167
C_ C_ 0.525572 0.630071 0.260368 0.18167
C_ C_ 0.0146058 0.668179 0.232394 -0.15533
C_ C_ 0.50697 0.723369 0.250974 0.02923
C_ C_ 0.53459 0.728331 0.299796 -0.15533
C_ C_ 0.550367 0.686913 0.330308 0.18167
C_ C_ 0.503577 0.549252 0.359939 0.69207
C_ C_ 0.972766 0.00869815 0.374857 0.02923
C_ C_ -0.009503999999999957 0.956595 0.371671 -0.15533
C_ C_ 0.957808 0.919196 0.375743 -0.15533
C_ C_ 0.910313 0.932016 0.393413 0.02923
C_ C_ 0.893596 0.984435 0.401581 -0.15533
C_ C_ 0.92429 0.023512 0.391032 0.02923
C_ C_ 0.896965 0.575145 0.386768 0.69207
C_ C_ 0.894515 0.834987 0.391648 0.69661
C_ C_ 0.572705 0.799744 0.086221 0.18167
C_ C_ 0.529221 0.777316 0.0687627 -0.15533
C_ C_ 0.51634 0.771881 0.0144714 0.02923
C_ C_ 0.543625 0.794776 0.487726 -0.15533
C_ C_ 0.589779 0.815383 0.00374591 0.18167
C_ C_ 0.718361 0.772447 0.129457 0.18167
C_ C_ 0.742861 0.743468 0.169993 -0.15533
C_ C_ 0.744242 0.765868 0.221323 0.02923
C_ C_ 0.72583 0.819557 0.229457 -0.15533
C_ C_ 0.699839 0.843725 0.186408 0.18167
C_ C_ 0.739447 0.869803 0.0460679 0.69207
C_ C_ 0.770807 0.881343 0.508228 0.02923
C_ C_ 0.751544 0.883556 0.456817 -0.15533
C_ C_ 0.780628 0.891278 0.420732 -0.15533
C_ C_ 0.832063 0.89936 0.431394 0.02923
C_ C_ 0.852637 0.902815 0.48278 -0.15533
C_ C_ 0.823801 0.892618 0.522537 0.02923
C_ C_ 0.851177 0.881166 0.073787 0.69207
C_ C_ 0.846677 0.893061 0.333756 0.69661
C_ C_ 0.811827 0.926562 0.187408 0.18167
C_ C_ 0.768998 0.955206 0.208285 -0.15533
C_ C_ 0.776565 0.995983 0.243764 0.02923
C_ C_ 0.820166 0.520666 0.250679 -0.15533
C_ C_ 0.867736 0.983906 0.228779 0.18167
C_ C_ 0.992578 0.847361 0.200584 0.18167
C_ C_ 0.514586 0.80421 0.20703 -0.15533
C_ C_ 0.986049 0.761628 0.223773 0.02923
C_ C_ 0.935201 0.766201 0.203113 -0.15533
C_ C_ 0.913783 0.81509 0.186945 0.18167
C_ C_ 0.98301 0.951146 0.124541 0.69207
C_ C_ 0.521986 0.496956 0.117804 0.02923
C_ C_ 0.50463 0.549358 0.126272 -0.15533
C_ C_ 0.533693 0.586355 0.11265 -0.15533
C_ C_ 0.585896 0.574341 0.0994908 0.02923
C_ C_ 0.604468 0.522922 0.102602 -0.15533
C_ C_ 0.573219 0.483666 0.104736 0.02923
C_ C_ 0.596811 0.932471 0.107265 0.69207
C_ C_ 0.603069 0.669929 0.104514 0.69661
C_ C_ 0.933232 0.694345 0.424555 0.18167
C_ C_ 0.975305 0.714699 0.450162 -0.15533
C_ C_ 0.97049 0.743036 0.498341 0.02923
C_ C_ 0.92956 0.747048 1.0058977 -0.15533
C_ C_ 0.882351 0.725431 0.490766 0.18167
C_ C_ 0.759345 0.715293 0.354415 0.18167
C_ C_ 0.737253 0.735472 0.308672 -0.15533
C_ C_ 0.766889 0.73813 0.266809 0.02923
C_ C_ 0.816451 0.710755 0.271232 -0.15533
C_ C_ 0.836021 0.688699 0.31723 0.18167
C_ C_ 0.756487 0.622148 0.447662 0.69207
C_ C_ 0.728125 0.603429 0.985106 0.02923
C_ C_ 0.74701 0.608349 0.0380709 -0.15533
C_ C_ 0.717291 0.607106 0.0770828 -0.15533
C_ C_ 0.664751 0.601293 0.0664074 0.02923
C_ C_ 0.644366 0.599905 0.0146052 -0.15533
C_ C_ 0.674286 0.600212 0.974515 0.02923
C_ C_ 0.643139 0.60764 0.422468 0.69207
C_ C_ 0.652084 0.611725 0.164186 0.69661
C_ C_ 0.872531 0.891237 0.390365 -0.30787
C_ C_ 0.626683 0.614284 0.108114 -0.30787
N_ N_ 0.639807 0.556816 0.310841 -0.32189
N_ N_ 0.546979 0.640233 0.3096 -0.32189
N_ N_ 0.602956 0.817313 0.0551301 -0.32189
N_ N_ 0.693816 0.817558 0.139213 -0.32189
N_ N_ 0.858835 0.941722 0.198182 -0.32189
N_ N_ 0.942303 0.853658 0.184427 -0.32189
N_ N_ 0.88972 0.694139 0.447759 -0.32189
N_ N_ 0.807697 0.692098 0.356772 -0.32189
O_ O_ 0.000995179 0.596678 0.383702 -0.63271
O_ O_ 0.541078 0.532522 0.331436 -0.57982
O_ O_ 0.898549 0.599722 0.347538 -0.63271
O_ O_ 0.862728 0.591717 0.418783 -0.57982
O_ O_ 0.738308 0.89622 0.0895937 -0.63271
O_ O_ 0.703317 0.838585 0.035424 -0.57982
O_ O_ 0.8578 0.83589 0.09582 -0.63271
O_ O_ 0.876448 0.917086 0.0925221 -0.57982
O_ O_ 0.485125 0.914585 0.0969443 -0.63271
O_ O_ 0.950567 0.962261 0.158478 -0.57982
O_ O_ 0.597046 0.904916 0.145478 -0.63271
O_ O_ 0.629206 0.916444 0.0731009 -0.57982
O_ O_ 0.759214 0.598346 0.401673 -0.63271
O_ O_ 0.785182 0.658462 0.460172 -0.57982
O_ O_ 0.646431 0.651775 0.401839 -0.63271
O_ O_ 0.604297 0.583696 0.40639 -0.57982
F_ F_ 0.932632 0.830248 0.431054 -0.20885
F_ F_ 0.916304 0.814677 0.347728 -0.20885
F_ F_ 0.860817 0.799435 0.39824 -0.20885
F_ F_ 0.812432 0.93967 0.329216 -0.20885
F_ F_ 0.816302 0.852332 0.319494 -0.20885
F_ F_ 0.886422 0.892603 0.29939 -0.20885
F_ F_ 0.565795 0.673253 0.0631161 -0.20885
F_ F_ 0.582658 0.692719 0.147869 -0.20885
F_ F_ 0.637867 0.703556 0.0947111 -0.20885
F_ F_ 0.682323 0.566049 0.172093 -0.20885
F_ F_ 0.688353 0.645424 0.176975 -0.20885
F_ F_ 0.617871 0.61751 0.200906 -0.20885
Zn Zn 0.585469 0.585453 0.84792 0.83971
Zn Zn 0.660146 0.841248 0.588658 0.83971
Zn Zn 0.911689 0.917569 0.658691 0.83971
Zn Zn 0.846707 0.647184 0.912947 0.83971
H_ H_ 0.669775 0.631195 0.80171 0.10394
H_ H_ 0.749884 0.58825 0.764455 0.10394
H_ H_ 0.730003 0.952719 0.807632 0.10394
H_ H_ 0.628136 0.480334 0.823116 0.10394
H_ H_ 0.00626296 0.590891 0.760963 0.10394
H_ H_ 0.971626 0.668485 0.702014 0.10394
H_ H_ 0.528847 0.766862 0.832959 0.10394
H_ H_ 0.565996 0.69221 0.878022 0.10394
H_ H_ 0.535892 0.943427 0.876008 0.10394
H_ H_ 0.983749 0.880101 0.885612 0.10394
H_ H_ 0.854782 0.99154 0.91456 0.10394
H_ H_ 0.587427 0.782058 0.629563 0.10394
H_ H_ 0.00321197 0.764725 0.595635 0.10394
H_ H_ 0.535259 0.799232 0.940909 0.10394
H_ H_ 0.611059 0.829581 0.485256 0.10394
H_ H_ 0.717678 0.743837 0.600618 0.10394
H_ H_ 0.766906 0.700788 0.672389 0.10394
H_ H_ 0.713928 0.827258 0.772524 0.10394
H_ H_ 0.678106 0.871491 0.70122 0.10394
H_ H_ 0.716144 0.874209 0.947149 0.10394
H_ H_ 0.772426 0.888433 0.880894 0.10394
H_ H_ 0.892755 0.904679 0.994793 0.10394
H_ H_ 0.806245 0.908094 0.66379 0.10394
H_ H_ 0.734639 0.95908 0.695052 0.10394
H_ H_ 0.833904 0.51039 0.798238 0.10394
H_ H_ 0.908542 1.00717688 0.735549 0.10394
H_ H_ 0.513253 0.885288 0.696246 0.10394
H_ H_ 0.550595 0.815865 0.750239 0.10394
H_ H_ 0.909438 0.745134 0.710996 0.10394
H_ H_ 0.874941 0.835018 0.699604 0.10394
H_ H_ 0.968245 0.55696 0.63857 0.10394
H_ H_ 0.512491 0.607077 0.602528 0.10394
H_ H_ 0.636863 0.494546 0.575204 0.10394
H_ H_ 0.951079 0.655902 0.890631 0.10394
H_ H_ 0.519177 0.690055 0.946641 0.10394
H_ H_ 0.917629 0.769797 0.553382 0.10394
H_ H_ 0.846979 0.737547 0.987961 0.10394
H_ H_ 0.743189 0.665163 0.865399 0.10394
H_ H_ 0.703178 0.719367 0.795668 0.10394
H_ H_ 0.853191 0.752659 0.770518 0.10394
H_ H_ 0.888435 0.680896 0.82016 0.10394
H_ H_ 0.78464 0.595527 0.546164 0.10394
H_ H_ 0.736443 0.576808 0.608801 0.10394
H_ H_ 0.605949 0.573808 0.503011 0.10394
C_ C_ 0.677095 0.588353 0.801437 0.18167
C_ C_ 0.722244 0.565171 0.778384 -0.15533
C_ C_ 0.731052 0.511849 0.770165 0.02923
C_ C_ 0.712539 0.990542 0.803349 -0.15533
C_ C_ 0.649426 0.506389 0.803551 0.18167
C_ C_ 0.526301 0.634523 0.767466 0.18167
C_ C_ -0.00387317 0.672033 0.739046 -0.15533
C_ C_ 0.504791 0.725449 0.766751 0.02923
C_ C_ 0.529747 0.730376 0.814827 -0.15533
C_ C_ 0.551548 0.686501 0.838329 0.18167
C_ C_ 0.509618 0.543238 0.86965 0.69207
C_ C_ 0.970657 0.0096434 0.877665 0.02923
C_ C_ -0.008082999999999951 0.957819 0.875403 -0.15533
C_ C_ 0.961574 0.919357 0.88226 -0.15533
C_ C_ 0.910604 0.929129 0.893119 0.02923
C_ C_ 0.891993 0.981168 0.899519 -0.15533
C_ C_ 0.921358 0.0203797 0.890663 0.02923
C_ C_ 0.897968 0.563607 0.882529 0.69207
C_ C_ 0.899985 0.829663 0.894818 0.69661
C_ C_ 0.574534 0.787927 0.590399 0.18167
C_ C_ 0.531125 0.766309 0.570876 -0.15533
C_ C_ 0.513698 0.770784 0.518477 0.02923
C_ C_ 0.545249 0.796479 0.982177 -0.15533
C_ C_ 0.588921 0.812173 0.508439 0.18167
C_ C_ 0.716473 0.761561 0.640392 0.18167
C_ C_ 0.744174 0.736222 0.681701 -0.15533
C_ C_ 0.746313 0.761776 0.730982 0.02923
C_ C_ 0.718507 0.810477 0.73601 -0.15533
C_ C_ 0.690036 0.832709 0.693058 0.18167
C_ C_ 0.740323 0.872405 0.548992 0.69207
C_ C_ 0.773795 0.877911 1.0092705 0.02923
C_ C_ 0.754865 0.877354 0.95743 -0.15533
C_ C_ 0.786071 0.886991 0.919693 -0.15533
C_ C_ 0.836229 0.893746 0.930376 0.02923
C_ C_ 0.855276 0.897767 0.983875 -0.15533
C_ C_ 0.825572 0.8843 0.0214449 0.02923
C_ C_ 0.850124 0.890531 0.577605 0.69207
C_ C_ 0.851872 0.886152 0.835746 0.69661
C_ C_ 0.811909 0.938894 0.691603 0.18167
C_ C_ 0.771178 0.966699 0.713122 -0.15533
C_ C_ 0.778923 0.00670201 0.748682 0.02923
C_ C_ 0.824949 0.494985 0.761002 -0.15533
C_ C_ 0.870303 0.996164 0.729888 0.18167
C_ C_ 0.996736 0.849787 0.70052 0.18167
C_ C_ 0.514524 0.810983 0.730552 -0.15533
C_ C_ 0.986599 0.766745 0.728268 0.02923
C_ C_ 0.933041 0.776538 0.7176 -0.15533
C_ C_ 0.912272 0.82339 0.698609 0.18167
C_ C_ 0.976281 0.957236 0.615357 0.69207
C_ C_ 0.52289 0.478563 0.616628 0.02923
C_ C_ 0.502896 0.530671 0.617269 -0.15533
C_ C_ 0.532508 0.569396 0.607636 -0.15533
C_ C_ 0.584563 0.555953 0.598495 0.02923
C_ C_ 0.60169 0.503731 0.591896 -0.15533
C_ C_ 0.571723 0.465497 0.602351 0.02923
C_ C_ 0.594142 0.917137 0.612694 0.69207
C_ C_ 0.59832 0.653018 0.603341 0.69661
C_ C_ 0.945994 0.677089 0.927098 0.18167
C_ C_ 0.988327 0.696267 0.953059 -0.15533
C_ C_ 0.979489 0.7337 0.991049 0.02923
C_ C_ 0.921996 0.751886 0.518011 -0.15533
C_ C_ 0.887073 0.725449 0.97953 0.18167
C_ C_ 0.765691 0.683164 0.843541 0.18167
C_ C_ 0.744344 0.715518 0.806341 -0.15533
C_ C_ 0.773721 0.736456 0.774374 0.02923
C_ C_ 0.826262 0.726452 0.780177 -0.15533
C_ C_ 0.847089 0.687681 0.81444 0.18167
C_ C_ 0.761801 0.611188 0.945722 0.69207
C_ C_ 0.722802 0.605801 0.483018 0.02923
C_ C_ 0.743813 0.598908 0.534079 -0.15533
C_ C_ 0.714213 0.590225 0.574142 -0.15533
C_ C_ 0.661962 0.587737 0.562669 0.02923
C_ C_ 0.643101 0.588931 0.511581 -0.15533
C_ C_ 0.671448 0.598622 0.472531 0.02923
C_ C_ 0.650924 0.598705 0.923487 0.69207
C_ C_ 0.650373 0.597537 0.656603 0.69661
C_ C_ 0.874889 0.886088 0.89055 -0.30787
C_ C_ 0.622506 0.597881 0.602307 -0.30787
N_ N_ 0.643549 0.557808 0.81273 -0.32189
N_ N_ 0.553061 0.639712 0.813442 -0.32189
N_ N_ 0.605155 0.806087 0.559365 -0.32189
N_ N_ 0.690198 0.808612 0.646291 -0.32189
N_ N_ 0.861427 0.952304 0.70232 -0.32189
N_ N_ 0.945302 0.856925 0.68721 -0.32189
N_ N_ 0.895851 0.691326 0.939866 -0.32189
N_ N_ 0.817899 0.672208 0.849154 -0.32189
O_ O_ 1.00712214 0.584797 0.893844 -0.63271
O_ O_ 0.543754 0.534904 0.837904 -0.57982
O_ O_ 0.895114 0.589935 0.841224 -0.63271
O_ O_ 0.878259 0.584114 0.921129 -0.57982
O_ O_ 0.739477 0.902736 0.590304 -0.63271
O_ O_ 0.708705 0.835892 0.542343 -0.57982
O_ O_ 0.856527 0.846192 0.600496 -0.63271
O_ O_ 0.871169 0.929431 0.60018 -0.57982
O_ O_ 0.483184 0.904898 0.599066 -0.63271
O_ O_ 0.955494 0.96484 0.656882 -0.57982
O_ O_ 0.589022 0.892588 0.650987 -0.63271
O_ O_ 0.625195 0.899048 0.577546 -0.57982
O_ O_ 0.760393 0.583371 0.903096 -0.63271
O_ O_ 0.79347 0.646908 0.952409 -0.57982
O_ O_ 0.653175 0.637564 0.896131 -0.63271
O_ O_ 0.614899 0.570674 0.911473 -0.57982
F_ F_ 0.935837 0.827176 0.939913 -0.20885
F_ F_ 0.929916 0.811595 0.857318 -0.20885
F_ F_ 0.86327 0.797069 0.89893 -0.20885
F_ F_ 0.821862 0.931419 0.828526 -0.20885
F_ F_ 0.819507 0.847912 0.822987 -0.20885
F_ F_ 0.885622 0.880198 0.797144 -0.20885
F_ F_ 0.566838 0.662014 0.558337 -0.20885
F_ F_ 0.570365 0.670223 0.645814 -0.20885
F_ F_ 0.633254 0.687661 0.602538 -0.20885
F_ F_ 0.679222 0.550761 0.662487 -0.20885
F_ F_ 0.68059 0.636651 0.67077 -0.20885
F_ F_ 0.619041 0.601074 0.694403 -0.20885
_cell_length_a 26.508
_cell_length_b 26.37200000322088
_cell_length_c 26.311999743092066
_cell_angle_alpha 93.74100058972084
_cell_angle_beta 96.04100104955006
_cell_angle_gamma 83.6869992558723
_symmetry_space_group_name_H-M         'P 1'
_symmetry_Int_Tables_number            1
loop_
_symmetry_equiv_pos_as_xyz
   'x, y, z'
                         
loop_
_atom_site_label
_atom_site_type_symbol
_atom_site_fract_x 
_atom_site_fract_y
_atom_site_fract_z
_atom_site_charge
Zn Zn 0.0861144 0.0920028 0.35322 0.83971
Zn Zn 0.164163 0.338151 0.0752108 0.83971
Zn Zn 0.411545 0.418465 0.147624 0.83971
Zn Zn 0.335156 0.157202 0.41813 0.83971
H_ H_ 0.163302 0.140028 0.306406 0.10394
H_ H_ 0.251653 0.0997979 0.28302 0.10394
H_ H_ 0.216602 0.441544 0.285498 0.10394
H_ H_ 0.133633 0.98862 0.332452 0.10394
H_ H_ 0.524398 0.0968241 0.247759 0.10394
H_ H_ 0.474216 0.168205 0.208826 0.10394
H_ H_ 0.0401059 0.280795 0.328287 0.10394
H_ H_ 0.0693751 0.202506 0.379972 0.10394
H_ H_ 0.0342342 0.451694 0.373231 0.10394
H_ H_ 0.484622 0.386457 0.395662 0.10394
H_ H_ 0.35796 0.495762 0.412613 0.10394
H_ H_ 0.0843608 0.300428 0.126373 0.10394
H_ H_ 0.499766 0.273531 0.103947 0.10394
H_ H_ 0.0502952 0.280427 0.447319 0.10394
H_ H_ 0.125149 0.316264 0.975444 0.10394
H_ H_ 0.216596 0.236954 0.101092 0.10394
H_ H_ 0.254697 0.196926 0.177428 0.10394
H_ H_ 0.219515 0.342515 0.258996 0.10394
H_ H_ 0.184288 0.377779 0.180266 0.10394
H_ H_ 0.220974 0.362473 0.441824 0.10394
H_ H_ 0.269132 0.389046 0.37857 0.10394
H_ H_ 0.393827 0.410915 0.494252 0.10394
H_ H_ 0.304251 0.394155 0.154678 0.10394
H_ H_ 0.235 0.459092 0.17531 0.10394
H_ H_ 0.323744 0.0552012 0.27527 0.10394
H_ H_ 0.410546 0.488594 0.236612 0.10394
H_ H_ 0.0112212 0.402224 0.211026 0.10394
H_ H_ 0.0591297 0.32196 0.23935 0.10394
H_ H_ 0.40602 0.246274 0.215972 0.10394
H_ H_ 0.362751 0.327058 0.181397 0.10394
H_ H_ 0.460108 0.0596844 0.121491 0.10394
H_ H_ 0.0188875 0.118327 0.0934024 0.10394
H_ H_ 0.142842 0.00268459 0.0946557 0.10394
H_ H_ 0.437464 0.158315 0.394605 0.10394
H_ H_ 0.0162283 0.190792 0.448583 0.10394
H_ H_ 0.419942 0.28581 0.0535675 0.10394
H_ H_ 0.349141 0.233187 0.505977 0.10394
H_ H_ 0.229101 0.198523 0.382327 0.10394
H_ H_ 0.191955 0.236481 0.298195 0.10394
H_ H_ 0.344894 0.252966 0.268654 0.10394
H_ H_ 0.378563 0.200271 0.33856 0.10394
H_ H_ 0.284074 0.125136 0.0626832 0.10394
H_ H_ 0.23077 0.105051 0.126934 0.10394
H_ H_ 0.101592 0.0976953 0.00725152 0.10394
C_ C_ 0.175651 0.0973636 0.305562 0.18167
C_ C_ 0.221308 0.0762224 0.288043 -0.15533
C_ C_ 0.226774 0.025219 0.272394 0.02923
C_ C_ 0.207582 0.480828 0.288682 -0.15533
C_ C_ 0.154478 0.0153858 0.31603 0.18167
C_ C_ 0.0362039 0.143614 0.270709 0.18167
C_ C_ 0.497381 0.177426 0.241923 -0.15533
C_ C_ 0.0156208 0.236295 0.263503 0.02923
C_ C_ 0.037612 0.24281 0.313595 -0.15533
C_ C_ 0.0585192 0.200751 0.340725 0.18167
C_ C_ 0.00682637 0.0481324 0.369262 0.69207
C_ C_ 0.472508 0.511702 0.376626 0.02923
C_ C_ 0.496864 0.463129 0.386898 -0.15533
C_ C_ 0.468426 0.424398 0.39784 -0.15533
C_ C_ 0.415279 0.434542 0.403548 0.02923
C_ C_ 0.395072 0.485402 0.401697 -0.15533
C_ C_ 0.418417 0.524708 0.38198 0.02923
C_ C_ 0.391858 0.0741907 0.38694 0.69207
C_ C_ 0.404965 0.336857 0.397105 0.69661
C_ C_ 0.0784816 0.294504 0.084878 0.18167
C_ C_ 0.0329936 0.278948 0.0663347 -0.15533
C_ C_ 0.0218912 0.266274 0.0138175 0.02923
C_ C_ 0.0520595 0.291598 0.4874 -0.15533
C_ C_ 0.102241 0.299244 -7.19134e-05 0.18167
C_ C_ 0.219562 0.259919 0.13601 0.18167
C_ C_ 0.243139 0.23761 0.180434 -0.15533
C_ C_ 0.247409 0.268347 0.226079 0.02923
C_ C_ 0.217345 0.316258 0.228345 -0.15533
C_ C_ 0.197842 0.337434 0.181532 0.18167
C_ C_ 0.24278 0.368572 0.0341774 0.69207
C_ C_ 0.276217 0.378032 0.507933 0.02923
C_ C_ 0.257998 0.372976 0.45367 -0.15533
C_ C_ 0.289324 0.386057 0.416238 -0.15533
C_ C_ 0.337947 0.401026 0.430663 0.02923
C_ C_ 0.355998 0.403521 0.481835 -0.15533
C_ C_ 0.326818 0.391084 0.520541 0.02923
C_ C_ 0.352526 0.386676 0.0638078 0.69207
C_ C_ 0.358546 0.393066 0.334304 0.69661
C_ C_ 0.31227 0.431666 0.175499 0.18167
C_ C_ 0.272158 0.460441 0.195842 -0.15533
C_ C_ 0.280543 0.494179 0.236699 0.02923
C_ C_ 0.319862 0.0188364 0.252831 -0.15533
C_ C_ 0.371533 0.478933 0.224767 0.18167
C_ C_ 0.48409 0.354822 0.200415 0.18167
C_ C_ 0.0173894 0.320533 0.227314 -0.15533
C_ C_ 0.477549 0.27118 0.229829 0.02923
C_ C_ 0.428977 0.272995 0.20657 -0.15533
C_ C_ 0.406795 0.319238 0.18297 0.18167
C_ C_ 0.485714 0.45942 0.119876 0.69207
C_ C_ 0.0187292 0.989676 0.115262 0.02923
C_ C_ -0.0020679999999999588 0.0411887 0.107534 -0.15533
C_ C_ 0.0331386 0.0792934 0.105176 -0.15533
C_ C_ 0.085889 0.067091 0.102506 0.02923
C_ C_ 0.102471 0.0137938 0.0997666 -0.15533
C_ C_ 0.0725416 0.977771 0.114631 0.02923
C_ C_ 0.0993669 0.417545 0.103538 0.69207
C_ C_ 0.100397 0.16314 0.107813 0.69661
C_ C_ 0.434727 0.178829 0.428997 0.18167
C_ C_ 0.476619 0.204335 0.445881 -0.15533
C_ C_ 0.470328 0.24461 0.484337 0.02923
C_ C_ 0.425503 0.256924 0.0205474 -0.15533
C_ C_ 0.383635 0.225597 0.488443 0.18167
C_ C_ 0.252932 0.207049 0.353331 0.18167
C_ C_ 0.233746 0.230765 0.307709 -0.15533
C_ C_ 0.267672 0.243793 0.274153 0.02923
C_ C_ 0.319584 0.23403 0.286187 -0.15533
C_ C_ 0.338296 0.204352 0.326858 0.18167
C_ C_ 0.254076 0.125849 0.454848 0.69207
C_ C_ 0.22644 0.121949 0.9998 0.02923
C_ C_ 0.245024 0.114941 0.05107 -0.15533
C_ C_ 0.213873 0.104564 0.0877593 -0.15533
C_ C_ 0.160678 0.100527 0.0731682 0.02923
C_ C_ 0.142702 0.100209 0.0196221 -0.15533
C_ C_ 0.173282 0.113916 0.983854 0.02923
C_ C_ 0.142574 0.113424 0.435164 0.69207
C_ C_ 0.143078 0.104242 0.169932 0.69661
C_ C_ 0.378494 0.393389 0.392553 -0.30787
C_ C_ 0.122628 0.107682 0.113313 -0.30787
N_ N_ 0.144861 0.0665577 0.320065 -0.32189
N_ N_ 0.0566862 0.151643 0.319878 -0.32189
N_ N_ 0.11129 0.304325 0.051467 -0.32189
N_ N_ 0.195846 0.309394 0.136621 -0.32189
N_ N_ 0.362358 0.440107 0.189677 -0.32189
N_ N_ 0.433956 0.358707 0.179894 -0.32189
N_ N_ 0.389266 0.18888 0.447613 -0.32189
N_ N_ 0.304836 0.196447 0.361118 -0.32189
O_ O_ 0.500579 0.0880621 0.402057 -0.63271
O_ O_ 0.0471449 0.0390342 0.341976 -0.57982
O_ O_ 0.385336 0.0961404 0.342169 -0.63271
O_ O_ 0.365942 0.0947213 0.423602 -0.57982
O_ O_ 0.243237 0.401631 0.0744241 -0.63271
O_ O_ 0.212215 0.332283 0.0302172 -0.57982
O_ O_ 0.348758 0.347064 0.090211 -0.63271
O_ O_ 0.386428 0.41841 0.0825337 -0.57982
O_ O_ 0.992782 0.403099 0.111042 -0.63271
O_ O_ 0.455476 0.466554 0.15649 -0.57982
O_ O_ 0.0974086 0.389352 0.142 -0.63271
O_ O_ 0.137685 0.403681 0.0749684 -0.57982
O_ O_ 0.253049 0.0961768 0.412887 -0.63271
O_ O_ 0.287778 0.157905 0.462342 -0.57982
O_ O_ 0.150876 0.150233 0.405621 -0.63271
O_ O_ 0.106869 0.0845403 0.419486 -0.57982
F_ F_ 0.438322 0.334266 0.439539 -0.20885
F_ F_ 0.432463 0.31335 0.356832 -0.20885
F_ F_ 0.369194 0.303432 0.401608 -0.20885
F_ F_ 0.322252 0.433234 0.324118 -0.20885
F_ F_ 0.333457 0.351367 0.312206 -0.20885
F_ F_ 0.399244 0.400922 0.307034 -0.20885
F_ F_ 0.0689292 0.168639 0.0622254 -0.20885
F_ F_ 0.074529 0.185284 0.148427 -0.20885
F_ F_ 0.140928 0.192589 0.105219 -0.20885
F_ F_ 0.17598 0.0578073 0.177949 -0.20885
F_ F_ 0.172935 0.141946 0.187346 -0.20885
F_ F_ 0.103005 0.109194 0.20118 -0.20885
Zn Zn 0.0873379 0.0903192 0.847412 0.83971
Zn Zn 0.16593 0.347859 0.588245 0.83971
Zn Zn 0.40795 0.411025 0.656053 0.83971
Zn Zn 0.342928 0.157149 0.926224 0.83971
H_ H_ 0.171685 0.13494 0.818151 0.10394
H_ H_ 0.251456 0.105829 0.780111 0.10394
H_ H_ 0.221753 0.444022 0.794782 0.10394
H_ H_ 0.132201 0.982946 0.819202 0.10394
H_ H_ 0.550774 0.103758 0.76161 0.10394
H_ H_ 0.494631 0.166603 0.715575 0.10394
H_ H_ 0.054844 0.276925 0.808069 0.10394
H_ H_ 0.0867882 0.205031 0.860944 0.10394
H_ H_ 0.0345626 0.43657 0.863333 0.10394
H_ H_ 0.488532 0.370809 0.872706 0.10394
H_ H_ 0.358804 0.483152 0.900373 0.10394
H_ H_ 0.080295 0.312404 0.633215 0.10394
H_ H_ 0.500731 0.258477 0.586494 0.10394
H_ H_ 0.0471746 0.280797 0.937824 0.10394
H_ H_ 0.125306 0.318909 0.48612 0.10394
H_ H_ 0.221016 0.252026 0.60272 0.10394
H_ H_ 0.252385 0.198591 0.672297 0.10394
H_ H_ 0.219148 0.330522 0.77625 0.10394
H_ H_ 0.182195 0.375002 0.700269 0.10394
H_ H_ 0.224807 0.35911 0.933727 0.10394
H_ H_ 0.270643 0.389092 0.870109 0.10394
H_ H_ 0.400415 0.390046 0.980095 0.10394
H_ H_ 0.309762 0.400949 0.658902 0.10394
H_ H_ 0.238009 0.445039 0.694193 0.10394
H_ H_ 0.338902 0.0398439 0.78816 0.10394
H_ H_ 0.406622 0.502743 0.735725 0.10394
H_ H_ 0.0065328 0.390835 0.700642 0.10394
H_ H_ 0.0487447 0.30739 0.732443 0.10394
H_ H_ 0.411669 0.237154 0.724265 0.10394
H_ H_ 0.37383 0.315251 0.681201 0.10394
H_ H_ 0.459945 0.0484891 0.602274 0.10394
H_ H_ 0.01089 0.121685 0.589567 0.10394
H_ H_ 0.13612 0.0120099 0.580026 0.10394
H_ H_ 0.445207 0.170246 0.903664 0.10394
H_ H_ 0.0143232 0.190253 0.93554 0.10394
H_ H_ 0.41977 0.285577 0.533938 0.10394
H_ H_ 0.348743 0.238177 0.0154557 0.10394
H_ H_ 0.239209 0.199518 0.892205 0.10394
H_ H_ 0.19827 0.23672 0.815134 0.10394
H_ H_ 0.342408 0.214922 0.750695 0.10394
H_ H_ 0.381895 0.183655 0.8346 0.10394
H_ H_ 0.276139 0.139275 0.55808 0.10394
H_ H_ 0.225267 0.123614 0.625664 0.10394
H_ H_ 0.0954743 0.107059 0.518901 0.10394
C_ C_ 0.178682 0.0954472 0.804588 0.18167
C_ C_ 0.227727 0.0760673 0.787471 -0.15533
C_ C_ 0.240706 0.0230954 0.780554 0.02923
C_ C_ 0.207515 0.484728 0.79569 -0.15533
C_ C_ 0.157336 0.00927395 0.808575 0.18167
C_ C_ 0.0243963 0.138563 0.772172 0.18167
C_ C_ 0.51714 0.176765 0.750524 -0.15533
C_ C_ 0.00509028 0.228545 0.758576 0.02923
C_ C_ 0.0448639 0.23657 0.797075 -0.15533
C_ C_ 0.0695698 0.197304 0.826075 0.18167
C_ C_ 0.00702351 0.0498889 0.872952 0.69207
C_ C_ 0.476508 0.502343 0.876981 0.02923
C_ C_ 0.501372 0.450422 0.876422 -0.15533
C_ C_ 0.471609 0.410139 0.880279 -0.15533
C_ C_ 0.416582 0.419988 0.884846 0.02923
C_ C_ 0.396961 0.471588 0.889911 -0.15533
C_ C_ 0.425384 0.513682 0.887696 0.02923
C_ C_ 0.401599 0.0739077 0.892079 0.69207
C_ C_ 0.405779 0.322445 0.875868 0.69661
C_ C_ 0.0737894 0.301838 0.592653 0.18167
C_ C_ 0.0270052 0.284778 0.573104 -0.15533
C_ C_ 0.016298 0.277353 0.518969 0.02923
C_ C_ 0.0562552 0.27917 0.978481 -0.15533
C_ C_ 0.0985595 0.306784 0.509688 0.18167
C_ C_ 0.22257 0.267922 0.63936 0.18167
C_ C_ 0.240073 0.236757 0.680099 -0.15533
C_ C_ 0.243808 0.26175 0.731119 0.02923
C_ C_ 0.220403 0.310825 0.738841 -0.15533
C_ C_ 0.19787 0.336005 0.696608 0.18167
C_ C_ 0.243103 0.367625 0.5469 0.69207
C_ C_ 0.282371 0.368701 -0.002194999999999947 0.02923
C_ C_ 0.26334 0.365095 0.94517 -0.15533
C_ C_ 0.287711 0.385819 0.909355 -0.15533
C_ C_ 0.341089 0.387026 0.918517 0.02923
C_ C_ 0.360554 0.390979 0.970316 -0.15533
C_ C_ 0.331109 0.386689 0.0104431 0.02923
C_ C_ 0.351212 0.384551 0.572768 0.69207
C_ C_ 0.352926 0.384761 0.820727 0.69661
C_ C_ 0.312992 0.435886 0.681449 0.18167
C_ C_ 0.273568 0.45806 0.707269 -0.15533
C_ C_ 0.279388 0.500424 0.744897 0.02923
C_ C_ 0.329428 0.0105954 0.758765 -0.15533
C_ C_ 0.367279 0.492842 0.726039 0.18167
C_ C_ 0.49009 0.348305 0.706301 0.18167
C_ C_ 0.00755784 0.311496 0.72024 -0.15533
C_ C_ 0.487838 0.26798 0.740151 0.02923
C_ C_ 0.435526 0.268063 0.719239 -0.15533
C_ C_ 0.413422 0.314656 0.69786 0.18167
C_ C_ 0.488151 0.441196 0.626407 0.69207
C_ C_ 0.0136862 0.994409 0.606078 0.02923
C_ C_ -0.005090000000000039 0.0469165 0.609049 -0.15533
C_ C_ 0.0281288 0.0850335 0.60393 -0.15533
C_ C_ 0.0804478 0.070703 0.607056 0.02923
C_ C_ 0.0971691 0.020648 0.591308 -0.15533
C_ C_ 0.0656165 0.981698 0.599232 0.02923
C_ C_ 0.0995133 0.428395 0.610708 0.69207
C_ C_ 0.0950087 0.167039 0.623691 0.69661
C_ C_ 0.438537 0.194037 0.934367 0.18167
C_ C_ 0.480597 0.213569 0.95938 -0.15533
C_ C_ 0.474114 0.246063 1.00278236 0.02923
C_ C_ 0.423132 0.252769 0.506115 -0.15533
C_ C_ 0.384288 0.232563 0.996399 0.18167
C_ C_ 0.261986 0.203782 0.861441 0.18167
C_ C_ 0.239919 0.228923 0.818741 -0.15533
C_ C_ 0.265588 0.230649 0.775005 0.02923
C_ C_ 0.318336 0.211465 0.781849 -0.15533
C_ C_ 0.339905 0.192189 0.828823 0.18167
C_ C_ 0.263331 0.127319 0.961243 0.69207
C_ C_ 0.22015 0.120963 0.497187 0.02923
C_ C_ 0.239461 0.12647 0.549173 -0.15533
C_ C_ 0.206769 0.12199 0.58786 -0.15533
C_ C_ 0.157049 0.108121 0.578104 0.02923
C_ C_ 0.136979 0.106025 0.52491 -0.15533
C_ C_ 0.168079 0.110834 0.486687 0.02923
C_ C_ 0.150791 0.118316 0.931009 0.69207
C_ C_ 0.143469 0.101567 0.675796 0.69661
C_ C_ 0.378951 0.380489 0.876008 -0.30787
C_ C_ 0.119801 0.110983 0.62054 -0.30787
N_ N_ 0.144249 0.0606507 0.811892 -0.32189
N_ N_ 0.0589952 0.148175 0.810983 -0.32189
N_ N_ 0.109746 0.312311 0.561982 -0.32189
N_ N_ 0.200744 0.315178 0.64723 -0.32189
N_ N_ 0.360827 0.45116 0.695183 -0.32189
N_ N_ 0.440071 0.353334 0.690295 -0.32189
N_ N_ 0.393052 0.198306 0.955202 -0.32189
N_ N_ 0.310057 0.183732 0.865797 -0.32189
O_ O_ 0.505097 0.0916957 0.90309 -0.63271
O_ O_ 0.040902 0.0436493 0.838627 -0.57982
O_ O_ 0.402822 0.10084 0.852545 -0.63271
O_ O_ 0.369226 0.0894705 0.925108 -0.57982
O_ O_ 0.24228 0.395513 0.589126 -0.63271
O_ O_ 0.203511 0.344677 0.534548 -0.57982
O_ O_ 0.351384 0.341025 0.594934 -0.63271
O_ O_ 0.37417 0.420653 0.594967 -0.57982
O_ O_ 0.994078 0.410675 0.600181 -0.63271
O_ O_ 0.454498 0.451694 0.658454 -0.57982
O_ O_ 0.102357 0.408413 0.655407 -0.63271
O_ O_ 0.12999 0.408325 0.577499 -0.57982
O_ O_ 0.257386 0.107561 0.914011 -0.63271
O_ O_ 0.29594 0.158847 0.972489 -0.57982
O_ O_ 0.160405 0.157161 0.906767 -0.63271
O_ O_ 0.109184 0.0958622 0.913677 -0.57982
F_ F_ 0.440745 0.317439 0.917424 -0.20885
F_ F_ 0.433828 0.3065 0.83277 -0.20885
F_ F_ 0.371212 0.287848 0.879279 -0.20885
F_ F_ 0.325776 0.430881 0.816579 -0.20885
F_ F_ 0.325255 0.344148 0.80628 -0.20885
F_ F_ 0.388805 0.385466 0.787154 -0.20885
F_ F_ 0.0687964 0.182092 0.581029 -0.20885
F_ F_ 0.0611313 0.178553 0.658855 -0.20885
F_ F_ 0.132524 0.200447 0.632624 -0.20885
F_ F_ 0.178966 0.0591448 0.680826 -0.20885
F_ F_ 0.170968 0.139703 0.700182 -0.20885
F_ F_ 0.103566 0.0948633 0.703895 -0.20885
Zn Zn 0.0932349 0.581156 0.343309 0.83971
Zn Zn 0.162423 0.844088 0.0839652 0.83971
Zn Zn 0.40567 0.919157 0.155239 0.83971
Zn Zn 0.340597 0.659916 0.412161 0.83971
H_ H_ 0.165067 0.625123 0.295091 0.10394
H_ H_ 0.25001 0.591602 0.268077 0.10394
H_ H_ 0.192169 0.953151 0.277322 0.10394
H_ H_ 0.132968 0.475448 0.309951 0.10394
H_ H_ 0.52666 0.592808 0.242599 0.10394
H_ H_ 0.481867 0.667346 0.195139 0.10394
H_ H_ 0.0225345 0.761337 0.327425 0.10394
H_ H_ 0.0672322 0.685217 0.370073 0.10394
H_ H_ 0.0211155 0.945718 0.34814 0.10394
H_ H_ 0.473468 0.88507 0.377432 0.10394
H_ H_ 0.35771 0.990468 0.427503 0.10394
H_ H_ 0.0861967 0.800313 0.125709 0.10394
H_ H_ 0.506872 0.75901 0.0945676 0.10394
H_ H_ 0.0298666 0.794438 0.447001 0.10394
H_ H_ 0.130941 0.804913 0.976013 0.10394
H_ H_ 0.215644 0.745528 0.0969683 0.10394
H_ H_ 0.261209 0.700852 0.174647 0.10394
H_ H_ 0.219367 0.839573 0.26649 0.10394
H_ H_ 0.184162 0.883097 0.18781 0.10394
H_ H_ 0.207162 0.880126 0.444848 0.10394
H_ H_ 0.257743 0.889744 0.37709 0.10394
H_ H_ 0.390626 0.902203 0.489161 0.10394
H_ H_ 0.298462 0.902735 0.161906 0.10394
H_ H_ 0.225252 0.955827 0.193716 0.10394
H_ H_ 0.340998 0.528934 0.284468 0.10394
H_ H_ 0.396572 0.00890332 0.225893 0.10394
H_ H_ 0.0173999 0.878185 0.196671 0.10394
H_ H_ 0.0566976 0.798077 0.238005 0.10394
H_ H_ 0.408834 0.744006 0.220279 0.10394
H_ H_ 0.368392 0.827233 0.183241 0.10394
H_ H_ 0.465335 0.560949 0.134306 0.10394
H_ H_ 0.0284603 0.615219 0.112597 0.10394
H_ H_ 0.146281 0.494943 0.0939545 0.10394
H_ H_ 0.439369 0.674749 0.386081 0.10394
H_ H_ 0.0112822 0.702208 0.436963 0.10394
H_ H_ 0.414826 0.779936 0.0395125 0.10394
H_ H_ 0.345471 0.735027 0.49798 0.10394
H_ H_ 0.233125 0.686619 0.374043 0.10394
H_ H_ 0.189948 0.732457 0.299662 0.10394
H_ H_ 0.334262 0.733767 0.245837 0.10394
H_ H_ 0.376788 0.702234 0.328477 0.10394
H_ H_ 0.294489 0.615753 0.0455483 0.10394
H_ H_ 0.251268 0.589119 0.112213 0.10394
H_ H_ 0.11665 0.572422 0.00460525 0.10394
C_ C_ 0.176377 0.585538 0.290866 0.18167
C_ C_ 0.226045 0.566651 0.278532 -0.15533
C_ C_ 0.237901 0.514245 0.268367 0.02923
C_ C_ 0.192389 0.994571 0.289142 -0.15533
C_ C_ 0.16095 0.501757 0.305494 0.18167
C_ C_ 0.0436898 0.627922 0.25638 0.18167
C_ C_ 0.507218 0.672761 0.229358 -0.15533
C_ C_ 0.00863097 0.718227 0.254609 0.02923
C_ C_ 0.0261723 0.723251 0.306438 -0.15533
C_ C_ 0.0521036 0.681136 0.330452 0.18167
C_ C_ 0.00508087 0.547828 0.366047 0.69207
C_ C_ 0.464313 0.00950398 0.371431 0.02923
C_ C_ 0.483853 0.958857 0.365143 -0.15533
C_ C_ 0.453957 0.921744 0.374854 -0.15533
C_ C_ 0.403088 0.930477 0.387519 0.02923
C_ C_ 0.388538 0.980862 0.403485 -0.15533
C_ C_ 0.416025 0.0214855 0.390774 0.02923
C_ C_ 0.391628 0.577051 0.376712 0.69207
C_ C_ 0.392912 0.830278 0.389445 0.69661
C_ C_ 0.0781445 0.790859 0.0871534 0.18167
C_ C_ 0.0346038 0.764977 0.0691222 -0.15533
C_ C_ 0.0242629 0.757142 0.0151694 0.02923
C_ C_ 0.040233 0.793896 0.485908 -0.15533
C_ C_ 0.104337 0.792401 0.00378377 0.18167
C_ C_ 0.215762 0.765154 0.13366 0.18167
C_ C_ 0.240632 0.739646 0.177115 -0.15533
C_ C_ 0.239791 0.766524 0.225488 0.02923
C_ C_ 0.21745 0.816534 0.229998 -0.15533
C_ C_ 0.199847 0.841757 0.184901 0.18167
C_ C_ 0.240125 0.865879 0.0440938 0.69207
C_ C_ 0.269856 0.882794 0.506667 0.02923
C_ C_ 0.24913 0.880236 0.454606 -0.15533
C_ C_ 0.278478 0.88285 0.415966 -0.15533
C_ C_ 0.330208 0.894773 0.428001 0.02923
C_ C_ 0.350418 0.895742 0.479019 -0.15533
C_ C_ 0.320336 0.894298 0.517367 0.02923
C_ C_ 0.347924 0.892104 0.0730245 0.69207
C_ C_ 0.340781 0.887639 0.329617 0.69661
C_ C_ 0.303528 0.937658 0.182098 0.18167
C_ C_ 0.264071 0.960137 0.209633 -0.15533
C_ C_ 0.271356 1.000942878 0.24632 0.02923
C_ C_ 0.330676 0.504141 0.251874 -0.15533
C_ C_ 0.357554 0.997461 0.222481 0.18167
C_ C_ 0.489499 0.851678 0.192469 0.18167
C_ C_ 0.0148129 0.801248 0.220756 -0.15533
C_ C_ 0.48294 0.768849 0.221744 0.02923
C_ C_ 0.429733 0.774078 0.209854 -0.15533
C_ C_ 0.409379 0.818074 0.188841 0.18167
C_ C_ 0.486033 0.957783 0.123994 0.69207
C_ C_ 0.0271756 0.488655 0.118181 0.02923
C_ C_ 0.0128384 0.539468 0.124278 -0.15533
C_ C_ 0.0438498 0.575287 0.111733 -0.15533
C_ C_ 0.0935146 0.560354 0.0997099 0.02923
C_ C_ 0.108496 0.507695 0.0942502 -0.15533
C_ C_ 0.0761245 0.470935 0.102804 0.02923
C_ C_ 0.0976031 0.923775 0.118147 0.69207
C_ C_ 0.114208 0.652679 0.100408 0.69661
C_ C_ 0.434727 0.693587 0.422115 0.18167
C_ C_ 0.476375 0.716132 0.446091 -0.15533
C_ C_ 0.470143 0.744167 0.494036 0.02923
C_ C_ 0.424836 0.752772 0.00895026 -0.15533
C_ C_ 0.380241 0.735391 0.479038 0.18167
C_ C_ 0.25489 0.703192 0.34779 0.18167
C_ C_ 0.232283 0.72815 0.306319 -0.15533
C_ C_ 0.263147 0.742815 0.270126 0.02923
C_ C_ 0.314453 0.726876 0.276227 -0.15533
C_ C_ 0.337049 0.705234 0.319617 0.18167
C_ C_ 0.266248 0.629637 0.455269 0.69207
C_ C_ 0.232755 0.611585 0.983078 0.02923
C_ C_ 0.255359 0.60545 0.0344784 -0.15533
C_ C_ 0.22855 0.590999 0.0739844 -0.15533
C_ C_ 0.177147 0.58469 0.0651242 0.02923
C_ C_ 0.154912 0.585878 0.013245 -0.15533
C_ C_ 0.180759 0.602942 0.973592 0.02923
C_ C_ 0.156009 0.61253 0.422035 0.69207
C_ C_ 0.160808 0.591845 0.159383 0.69661
C_ C_ 0.368339 0.888017 0.38366 -0.30787
C_ C_ 0.136373 0.595962 0.105003 -0.30787
N_ N_ 0.145042 0.552937 0.305432 -0.32189
N_ N_ 0.0603045 0.635334 0.305446 -0.32189
N_ N_ 0.113129 0.800672 0.0552633 -0.32189
N_ N_ 0.196313 0.815664 0.140336 -0.32189
N_ N_ 0.350725 0.953506 0.192983 -0.32189
N_ N_ 0.438464 0.855655 0.183903 -0.32189
N_ N_ 0.388646 0.702416 0.438883 -0.32189
N_ N_ 0.306404 0.691328 0.354853 -0.32189
O_ O_ 0.50759 0.592741 0.387918 -0.63271
O_ O_ 0.0441437 0.533475 0.337235 -0.57982
O_ O_ 0.386993 0.599718 0.334849 -0.63271
O_ O_ 0.375144 0.598895 0.416737 -0.57982
O_ O_ 0.232244 0.899368 0.0839271 -0.63271
O_ O_ 0.209858 0.828862 0.036501 -0.57982
O_ O_ 0.353437 0.848274 0.0967033 -0.63271
O_ O_ 0.376419 0.926172 0.0923788 -0.57982
O_ O_ 0.986569 0.90505 0.103398 -0.63271
O_ O_ 0.451984 0.966572 0.156047 -0.57982
O_ O_ 0.0955068 0.897021 0.158251 -0.63271
O_ O_ 0.127205 0.905194 0.0829425 -0.57982
O_ O_ 0.271089 0.596541 0.415973 -0.63271
O_ O_ 0.295504 0.66667 0.461099 -0.57982
O_ O_ 0.161743 0.648246 0.38875 -0.63271
O_ O_ 0.119498 0.58348 0.408331 -0.57982
F_ F_ 0.423208 0.828095 0.434416 -0.20885
F_ F_ 0.42266 0.812859 0.351414 -0.20885
F_ F_ 0.354919 0.796839 0.384909 -0.20885
F_ F_ 0.309237 0.930881 0.320964 -0.20885
F_ F_ 0.312256 0.847728 0.312865 -0.20885
F_ F_ 0.374641 0.885371 0.29342 -0.20885
F_ F_ 0.0801919 0.656855 0.0575677 -0.20885
F_ F_ 0.0857831 0.672983 0.142044 -0.20885
F_ F_ 0.151494 0.685284 0.102441 -0.20885
F_ F_ 0.183434 0.54306 0.172061 -0.20885
F_ F_ 0.19336 0.626453 0.174408 -0.20885
F_ F_ 0.121802 0.601809 0.19163 -0.20885
Zn Zn 0.0866701 0.582472 0.844373 0.83971
Zn Zn 0.157399 0.850865 0.583891 0.83971
Zn Zn 0.409507 0.912473 0.657049 0.83971
Zn Zn 0.346012 0.654763 0.906813 0.83971
H_ H_ 0.160421 0.627206 0.794267 0.10394
H_ H_ 0.2423 0.598322 0.767099 0.10394
H_ H_ 0.210339 0.949325 0.789808 0.10394
H_ H_ 0.143089 0.479799 0.838623 0.10394
H_ H_ 0.531511 0.600168 0.74597 0.10394
H_ H_ 0.480495 0.67158 0.707419 0.10394
H_ H_ 0.0420576 0.763869 0.823514 0.10394
H_ H_ 0.0830342 0.693651 0.868432 0.10394
H_ H_ 0.0326871 0.946619 0.865135 0.10394
H_ H_ 0.478348 0.875625 0.879873 0.10394
H_ H_ 0.35684 0.993466 0.907418 0.10394
H_ H_ 0.0775296 0.807361 0.627855 0.10394
H_ H_ 0.511546 0.749214 0.599041 0.10394
H_ H_ 0.0457295 0.782363 0.944073 0.10394
H_ H_ 0.103898 0.838683 0.481869 0.10394
H_ H_ 0.210056 0.753825 0.596364 0.10394
H_ H_ 0.243436 0.706029 0.675301 0.10394
H_ H_ 0.220573 0.843336 0.76748 0.10394
H_ H_ 0.183261 0.8889 0.689901 0.10394
H_ H_ 0.219567 0.861845 0.947724 0.10394
H_ H_ 0.267346 0.880485 0.877323 0.10394
H_ H_ 0.391084 0.909465 0.992697 0.10394
H_ H_ 0.297939 0.903978 0.656308 0.10394
H_ H_ 0.229537 0.961629 0.691773 0.10394
H_ H_ 0.333577 0.553781 0.773351 0.10394
H_ H_ 0.406041 -0.005365999999999982 0.736043 0.10394
H_ H_ 0.0208139 0.878246 0.692105 0.10394
H_ H_ 0.060749 0.797728 0.722381 0.10394
H_ H_ 0.408729 0.750306 0.727525 0.10394
H_ H_ 0.37104 0.81902 0.676656 0.10394
H_ H_ 0.465261 0.541112 0.628438 0.10394
H_ H_ 0.0181397 0.620975 0.617223 0.10394
H_ H_ 0.144002 0.508861 0.587058 0.10394
H_ H_ 0.449676 0.658175 0.891569 0.10394
H_ H_ 0.0246342 0.679742 0.946992 0.10394
H_ H_ 0.413888 0.778215 0.544981 0.10394
H_ H_ 0.349345 0.732369 -0.003242999999999996 0.10394
H_ H_ 0.239938 0.696021 0.876256 0.10394
H_ H_ 0.195943 0.74931 0.803998 0.10394
H_ H_ 0.331522 0.722938 0.729758 0.10394
H_ H_ 0.375122 0.675964 0.809085 0.10394
H_ H_ 0.280835 0.647347 0.55962 0.10394
H_ H_ 0.226294 0.621043 0.620356 0.10394
H_ H_ 0.101904 0.608313 0.501463 0.10394
C_ C_ 0.174719 0.587527 0.79631 0.18167
C_ C_ 0.219458 0.570109 0.775752 -0.15533
C_ C_ 0.236597 0.518922 0.774475 0.02923
C_ C_ 0.202529 0.991446 0.790813 -0.15533
C_ C_ 0.162486 0.503517 0.817448 0.18167
C_ C_ 0.0193282 0.630753 0.766386 0.18167
C_ C_ 0.500935 0.676738 0.744529 -0.15533
C_ C_ 0.0103681 0.721526 0.755015 0.02923
C_ C_ 0.0347429 0.72805 0.806644 -0.15533
C_ C_ 0.0559934 0.685889 0.833909 0.18167
C_ C_ 0.010563 0.540682 0.868663 0.69207
C_ C_ 0.47884 0.00683894 0.886478 0.02923
C_ C_ 0.496356 0.953918 0.885875 -0.15533
C_ C_ 0.463604 0.915766 0.88113 -0.15533
C_ C_ 0.411995 0.928871 0.891028 0.02923
C_ C_ 0.392871 0.98171 0.895817 -0.15533
C_ C_ 0.427139 0.0212928 0.893999 0.02923
C_ C_ 0.398179 0.564958 0.88173 0.69207
C_ C_ 0.395781 0.831097 0.886855 0.69661
C_ C_ 0.0686032 0.799906 0.587517 0.18167
C_ C_ 0.0269716 0.774733 0.570002 -0.15533
C_ C_ 0.010481 0.773528 0.518733 0.02923
C_ C_ 0.0578003 0.775814 0.983427 -0.15533
C_ C_ 0.0846353 0.81519 0.504607 0.18167
C_ C_ 0.215596 0.773372 0.633948 0.18167
C_ C_ 0.23319 0.746351 0.677746 -0.15533
C_ C_ 0.240801 0.772714 0.724406 0.02923
C_ C_ 0.225303 0.825124 0.728995 -0.15533
C_ C_ 0.201594 0.84922 0.685663 0.18167
C_ C_ 0.239474 0.875133 0.548398 0.69207
C_ C_ 0.275623 0.877155 0.00783129 0.02923
C_ C_ 0.256658 0.874482 0.956316 -0.15533
C_ C_ 0.285355 0.883562 0.916343 -0.15533
C_ C_ 0.336429 0.893821 0.925767 0.02923
C_ C_ 0.353314 0.898885 0.980267 -0.15533
C_ C_ 0.323774 0.894146 0.0203611 0.02923
C_ C_ 0.352085 0.886191 0.568788 0.69207
C_ C_ 0.346285 0.890183 0.829187 0.69661
C_ C_ 0.307345 0.936301 0.681529 0.18167
C_ C_ 0.268105 0.96399 0.707665 -0.15533
C_ C_ 0.279598 1.00248029 0.746097 0.02923
C_ C_ 0.326528 0.517511 0.754327 -0.15533
C_ C_ 0.365597 0.985827 0.729286 0.18167
C_ C_ 0.492579 0.852164 0.700834 0.18167
C_ C_ 0.0199035 0.803045 0.717771 -0.15533
C_ C_ 0.484304 0.76972 0.736551 0.02923
C_ C_ 0.433612 0.773612 0.7143 -0.15533
C_ C_ 0.414004 0.817151 0.689211 0.18167
C_ C_ 0.485469 0.948385 0.624083 0.69207
C_ C_ 0.0223535 0.49273 0.611813 0.02923
C_ C_ 1.00406281 0.544487 0.619456 -0.15533
C_ C_ 0.0350264 0.582237 0.61223 -0.15533
C_ C_ 0.0841827 0.572203 0.597192 0.02923
C_ C_ 0.102981 0.520096 0.59425 -0.15533
C_ C_ 0.0738799 0.47962 0.60281 0.02923
C_ C_ 0.0902859 0.929961 0.604526 0.69207
C_ C_ 0.0990371 0.670318 0.6067 0.69661
C_ C_ 0.442694 0.682642 0.92545 0.18167
C_ C_ 0.483105 0.705585 0.954785 -0.15533
C_ C_ 0.47484 0.741753 -0.007496999999999976 0.02923
C_ C_ 0.421266 0.756631 0.508795 -0.15533
C_ C_ 0.385211 0.726982 0.98183 0.18167
C_ C_ 0.261803 0.706025 0.846828 0.18167
C_ C_ 0.235361 0.733277 0.803958 -0.15533
C_ C_ 0.2658 0.745259 0.768053 0.02923
C_ C_ 0.314026 0.719444 0.764943 -0.15533
C_ C_ 0.337417 0.69611 0.809626 0.18167
C_ C_ 0.265666 0.622298 0.942066 0.69207
C_ C_ 0.227693 0.62805 0.492217 0.02923
C_ C_ 0.243637 0.633756 0.54571 -0.15533
C_ C_ 0.211555 0.620692 0.58056 -0.15533
C_ C_ 0.15952 0.610978 0.566646 0.02923
C_ C_ 0.142819 0.61333 0.51398 -0.15533
C_ C_ 0.175792 0.620575 0.477684 0.02923
C_ C_ 0.150627 0.609008 0.922007 0.69207
C_ C_ 0.146432 0.608712 0.663408 0.69661
C_ C_ 0.374766 0.886838 0.883953 -0.30787
C_ C_ 0.122575 0.613988 0.607338 -0.30787
N_ N_ 0.14444 0.554664 0.812484 -0.32189
N_ N_ 0.0541494 0.639427 0.809004 -0.32189
N_ N_ 0.100268 0.814349 0.555537 -0.32189
N_ N_ 0.194126 0.822693 0.640492 -0.32189
N_ N_ 0.356158 0.945648 0.695796 -0.32189
N_ N_ 0.44495 0.852242 0.680066 -0.32189
N_ N_ 0.394161 0.697037 0.939111 -0.32189
N_ N_ 0.310339 0.687282 0.847149 -0.32189
O_ O_ 0.506114 0.587615 0.893903 -0.63271
O_ O_ 0.0473564 0.532178 0.840576 -0.57982
O_ O_ 0.401999 0.587326 0.838923 -0.63271
O_ O_ 0.372737 0.588305 0.917133 -0.57982
O_ O_ 0.23347 0.911162 0.584439 -0.63271
O_ O_ 0.203659 0.844483 0.538572 -0.57982
O_ O_ 0.345427 0.846365 0.594201 -0.63271
O_ O_ 0.372828 0.922948 0.594187 -0.57982
O_ O_ 0.982812 0.910573 0.59514 -0.63271
O_ O_ 0.454239 0.96019 0.659669 -0.57982
O_ O_ 0.0840379 0.905314 0.642747 -0.63271
O_ O_ 0.126573 0.91438 0.576105 -0.57982
O_ O_ 0.261604 0.600581 0.895221 -0.63271
O_ O_ 0.30227 0.652418 0.956205 -0.57982
O_ O_ 0.157272 0.645067 0.892627 -0.63271
O_ O_ 0.11262 0.582714 0.907751 -0.57982
F_ F_ 0.432358 0.827109 0.930346 -0.20885
F_ F_ 0.418728 0.813553 0.843819 -0.20885
F_ F_ 0.360221 0.799975 0.89184 -0.20885
F_ F_ 0.311837 0.936129 0.825265 -0.20885
F_ F_ 0.320239 0.848756 0.810332 -0.20885
F_ F_ 0.383208 0.887862 0.793096 -0.20885
F_ F_ 0.0612337 0.674342 0.567619 -0.20885
F_ F_ 0.0748407 0.685727 0.650991 -0.20885
F_ F_ 0.137278 0.704995 0.608484 -0.20885
F_ F_ 0.179354 0.560973 0.667671 -0.20885
F_ F_ 0.17495 0.646933 0.685866 -0.20885
F_ F_ 0.106889 0.604222 0.694202 -0.20885
Zn Zn 0.584396 0.0854758 0.345811 0.83971
Zn Zn 0.656256 0.352266 0.0884168 0.83971
Zn Zn 0.908449 0.423782 0.159251 0.83971
Zn Zn 0.838563 0.15945 0.421387 0.83971
H_ H_ 0.677576 0.130196 0.322633 0.10394
H_ H_ 0.755134 0.0941175 0.281891 0.10394
H_ H_ 0.703592 0.446625 0.277034 0.10394
H_ H_ 0.622291 0.985491 0.306239 0.10394
H_ H_ 0.0331195 0.107695 0.25328 0.10394
H_ H_ 0.99317 0.179512 0.207558 0.10394
H_ H_ 0.529457 0.271447 0.322194 0.10394
H_ H_ 0.576829 0.196927 0.370901 0.10394
H_ H_ 0.537611 0.454846 0.385507 0.10394
H_ H_ 0.980119 0.385243 0.365107 0.10394
H_ H_ 0.850296 0.494699 0.392096 0.10394
H_ H_ 0.575243 0.318406 0.138032 0.10394
H_ H_ 1.0113384 0.264683 0.0932425 0.10394
H_ H_ 0.553084 0.270268 0.437816 0.10394
H_ H_ 0.617763 0.322357 0.987988 0.10394
H_ H_ 0.712463 0.256978 0.0998861 0.10394
H_ H_ 0.74956 0.207612 0.172425 0.10394
H_ H_ 0.724597 0.341403 0.271936 0.10394
H_ H_ 0.669614 0.38491 0.201998 0.10394
H_ H_ 0.71883 0.352684 0.436528 0.10394
H_ H_ 0.776601 0.355824 0.371562 0.10394
H_ H_ 0.886379 0.417769 0.480891 0.10394
H_ H_ 0.803408 0.40386 0.158962 0.10394
H_ H_ 0.726403 0.455921 0.183296 0.10394
H_ H_ 0.834799 0.0366938 0.286876 0.10394
H_ H_ 0.899958 0.502297 0.24115 0.10394
H_ H_ 0.500789 0.389456 0.208686 0.10394
H_ H_ 0.547082 0.31027 0.242194 0.10394
H_ H_ 0.91761 0.253777 0.226453 0.10394
H_ H_ 0.873218 0.329124 0.188862 0.10394
H_ H_ 0.957528 0.0453221 0.0948482 0.10394
H_ H_ 0.516011 0.12836 0.123648 0.10394
H_ H_ 0.643268 0.0142494 0.104702 0.10394
H_ H_ 0.939263 0.168597 0.394846 0.10394
H_ H_ 0.51386 0.185601 0.434863 0.10394
H_ H_ 0.932733 0.260586 0.0587727 0.10394
H_ H_ 0.845399 0.248338 0.495656 0.10394
H_ H_ 0.735076 0.193454 0.383488 0.10394
H_ H_ 0.696532 0.249325 0.317107 0.10394
H_ H_ 0.839994 0.229425 0.246154 0.10394
H_ H_ 0.880997 0.185486 0.325916 0.10394
H_ H_ 0.786956 0.113149 0.0606396 0.10394
H_ H_ 0.732328 0.114075 0.131786 0.10394
H_ H_ 0.602722 0.102589 0.0186273 0.10394
C_ C_ 0.681195 0.0921602 0.310533 0.18167
C_ C_ 0.726081 0.0708151 0.288974 -0.15533
C_ C_ 0.734017 0.0179115 0.274435 0.02923
C_ C_ 0.695536 0.487448 0.281999 -0.15533
C_ C_ 0.648965 0.011396 0.299805 0.18167
C_ C_ 0.522737 0.136171 0.267066 0.18167
C_ C_ 0.0134749 0.186469 0.242688 -0.15533
C_ C_ 0.50108 0.227045 0.260302 0.02923
C_ C_ 0.531085 0.233411 0.304682 -0.15533
C_ C_ 0.559925 0.191031 0.330337 0.18167
C_ C_ 0.503919 0.0460794 0.371346 0.69207
C_ C_ 0.969803 0.511001 0.377184 0.02923
C_ C_ 0.992986 0.460488 0.37794 -0.15533
C_ C_ 0.961453 0.420749 0.377433 -0.15533
C_ C_ 0.910404 0.431443 0.388189 0.02923
C_ C_ 0.891199 0.482983 0.392449 -0.15533
C_ C_ 0.921105 0.521464 0.389303 0.02923
C_ C_ 0.896957 0.0743501 0.385662 0.69207
C_ C_ 0.903341 0.333527 0.382003 0.69661
C_ C_ 0.567479 0.310395 0.0955191 0.18167
C_ C_ 0.524854 0.286242 0.0785635 -0.15533
C_ C_ 0.51586 0.273976 0.0243521 0.02923
C_ C_ 0.557568 0.274481 0.479218 -0.15533
C_ C_ 0.589693 0.316582 0.0110985 0.18167
C_ C_ 0.71455 0.274531 0.140568 0.18167
C_ C_ 0.73525 0.247426 0.183462 -0.15533
C_ C_ 0.742389 0.271164 0.231341 0.02923
C_ C_ 0.716459 0.320863 0.236509 -0.15533
C_ C_ 0.690612 0.346481 0.196 0.18167
C_ C_ 0.740028 0.370313 0.0498005 0.69207
C_ C_ 0.776762 0.366178 0.499021 0.02923
C_ C_ 0.759012 0.357409 0.447417 -0.15533
C_ C_ 0.790136 0.367541 0.410131 -0.15533
C_ C_ 0.837476 0.38845 0.421172 0.02923
C_ C_ 0.854154 0.399417 0.471277 -0.15533
C_ C_ 0.828462 0.379837 0.510244 0.02923
C_ C_ 0.848976 0.389303 0.0753804 0.69207
C_ C_ 0.84636 0.391063 0.32482 0.69661
C_ C_ 0.808712 0.437705 0.181234 0.18167
C_ C_ 0.764996 0.465229 0.200108 -0.15533
C_ C_ 0.771541 0.501969 0.238416 0.02923
C_ C_ 0.827322 0.0122107 0.253455 -0.15533
C_ C_ 0.862281 0.492932 0.229546 0.18167
C_ C_ 0.99152 0.366517 0.20876 0.18167
C_ C_ 0.507305 0.310289 0.223044 -0.15533
C_ C_ 0.992135 0.279385 0.234946 0.02923
C_ C_ 0.941213 0.281126 0.216633 -0.15533
C_ C_ 0.914013 0.325507 0.197641 0.18167
C_ C_ 0.990465 0.451643 0.127573 0.69207
C_ C_ 0.522554 0.996928 0.118836 0.02923
C_ C_ 0.500584 0.0487132 0.120081 -0.15533
C_ C_ 0.534415 0.0868466 0.120366 -0.15533
C_ C_ 0.584683 0.0757896 0.11295 0.02923
C_ C_ 0.60342 0.0236359 0.104209 -0.15533
C_ C_ 0.573377 0.984475 0.108987 0.02923
C_ C_ 0.598711 0.430298 0.105542 0.69207
C_ C_ 0.601743 0.171465 0.113724 0.69661
C_ C_ 0.936015 0.192124 0.429465 0.18167
C_ C_ 0.978463 0.209757 0.456545 -0.15533
C_ C_ 0.972854 0.249504 0.494041 0.02923
C_ C_ 0.931917 0.244479 0.0186548 -0.15533
C_ C_ 0.882246 0.237724 0.485984 0.18167
C_ C_ 0.757466 0.196012 0.351261 0.18167
C_ C_ 0.736649 0.231181 0.314747 -0.15533
C_ C_ 0.76629 0.244433 0.277831 0.02923
C_ C_ 0.818749 0.223972 0.279745 -0.15533
C_ C_ 0.838985 0.19332 0.318757 0.18167
C_ C_ 0.759719 0.129655 0.45846 0.69207
C_ C_ 0.725924 0.119015 1.00137629 0.02923
C_ C_ 0.747234 0.109246 0.0524484 -0.15533
C_ C_ 0.715278 0.112963 0.0907252 -0.15533
C_ C_ 0.662008 0.108514 0.0795729 0.02923
C_ C_ 0.64333 0.105089 0.0294219 -0.15533
C_ C_ 0.672616 0.116359 0.990099 0.02923
C_ C_ 0.640399 0.115977 0.431258 0.69207
C_ C_ 0.647613 0.116123 0.176605 0.69661
C_ C_ 0.87475 0.388463 0.378685 -0.30787
C_ C_ 0.624389 0.116872 0.120423 -0.30787
N_ N_ 0.642713 0.0627181 0.311425 -0.32189
N_ N_ 0.554744 0.141562 0.310242 -0.32189
N_ N_ 0.600546 0.318701 0.0620538 -0.32189
N_ N_ 0.690229 0.322843 0.148333 -0.32189
N_ N_ 0.85506 0.454169 0.194292 -0.32189
N_ N_ 0.940224 0.367786 0.194528 -0.32189
N_ N_ 0.890647 0.198383 0.450331 -0.32189
N_ N_ 0.808746 0.181054 0.355668 -0.32189
O_ O_ 0.00461471 0.0902142 0.397917 -0.63271
O_ O_ 0.540689 0.0396162 0.340263 -0.57982
O_ O_ 0.888194 0.0930946 0.339428 -0.63271
O_ O_ 0.873566 0.0976985 0.423729 -0.57982
O_ O_ 0.733606 0.409136 0.0825819 -0.63271
O_ O_ 0.70789 0.337251 0.045216 -0.57982
O_ O_ 0.850059 0.350563 0.103562 -0.63271
O_ O_ 0.880405 0.423096 0.0911075 -0.57982
O_ O_ 0.493674 0.412875 0.0969196 -0.63271
O_ O_ 0.956165 0.46737 0.157161 -0.57982
O_ O_ 0.596191 0.403129 0.142913 -0.63271
O_ O_ 0.628559 0.413302 0.0710533 -0.57982
O_ O_ 0.762069 0.099493 0.417266 -0.63271
O_ O_ 0.792071 0.16554 0.466328 -0.57982
O_ O_ 0.653296 0.148738 0.402985 -0.63271
O_ O_ 0.612324 0.0802467 0.410423 -0.57982
F_ F_ 0.93769 0.333009 0.42392 -0.20885
F_ F_ 0.925595 0.315033 0.339065 -0.20885
F_ F_ 0.878464 0.294257 0.393671 -0.20885
F_ F_ 0.805359 0.430351 0.326961 -0.20885
F_ F_ 0.825232 0.344979 0.308622 -0.20885
F_ F_ 0.879048 0.400752 0.288756 -0.20885
F_ F_ 0.566058 0.175259 0.0717168 -0.20885
F_ F_ 0.578724 0.18778 0.15731 -0.20885
F_ F_ 0.636928 0.208832 0.109476 -0.20885
F_ F_ 0.675044 0.0686889 0.181708 -0.20885
F_ F_ 0.678448 0.153251 0.189597 -0.20885
F_ F_ 0.608913 0.115726 0.20831 -0.20885
Zn Zn 0.594827 0.0848887 0.857938 0.83971
Zn Zn 0.662651 0.337734 0.580195 0.83971
Zn Zn 0.905475 0.416221 0.647951 0.83971
Zn Zn 0.836168 0.157808 0.918984 0.83971
H_ H_ 0.663589 0.130211 0.803089 0.10394
H_ H_ 0.734912 0.101912 0.764683 0.10394
H_ H_ 0.702766 0.441958 0.782664 0.10394
H_ H_ 0.655656 0.985156 0.853066 0.10394
H_ H_ 0.01556 0.0995871 0.763085 0.10394
H_ H_ 0.978544 0.168041 0.706571 0.10394
H_ H_ 0.538541 0.272718 0.837478 0.10394
H_ H_ 0.571254 0.20053 0.891826 0.10394
H_ H_ 0.539535 0.439425 0.870735 0.10394
H_ H_ 0.978414 0.371185 0.867503 0.10394
H_ H_ 0.860024 0.483198 0.909642 0.10394
H_ H_ 0.576768 0.302151 0.624787 0.10394
H_ H_ -0.002139000000000002 0.286637 0.599781 0.10394
H_ H_ 0.541211 0.285686 0.949775 0.10394
H_ H_ 0.629116 0.306265 0.479988 0.10394
H_ H_ 0.723553 0.240134 0.605543 0.10394
H_ H_ 0.751164 0.200575 0.688412 0.10394
H_ H_ 0.722899 0.345658 0.768632 0.10394
H_ H_ 0.683295 0.382751 0.684135 0.10394
H_ H_ 0.719797 0.360022 0.943725 0.10394
H_ H_ 0.765628 0.369293 0.87884 0.10394
H_ H_ 0.893815 0.397649 0.988722 0.10394
H_ H_ 0.796823 0.429183 0.629821 0.10394
H_ H_ 0.728091 0.459702 0.676313 0.10394
H_ H_ 0.833253 0.057813 0.776001 0.10394
H_ H_ 0.903877 0.481102 0.745849 0.10394
H_ H_ 0.512691 0.38003 0.7024 0.10394
H_ H_ 0.553356 0.307977 0.749147 0.10394
H_ H_ 0.907659 0.243406 0.710265 0.10394
H_ H_ 0.86478 0.326331 0.683762 0.10394
H_ H_ 0.95485 0.0594777 0.612493 0.10394
H_ H_ 0.514537 0.112446 0.588695 0.10394
H_ H_ 0.645671 -0.004518000000000022 0.602481 0.10394
H_ H_ 0.93645 0.165684 0.887142 0.10394
H_ H_ 0.520113 0.197975 0.950541 0.10394
H_ H_ 0.915224 0.296772 0.538022 0.10394
H_ H_ 0.854333 0.224326 0.00954626 0.10394
H_ H_ 0.73015 0.20066 0.886721 0.10394
H_ H_ 0.69147 0.243671 0.813105 0.10394
H_ H_ 0.830359 0.234584 0.754731 0.10394
H_ H_ 0.873909 0.18382 0.826373 0.10394
H_ H_ 0.778353 0.133431 0.558071 0.10394
H_ H_ 0.729475 0.104446 0.621664 0.10394
H_ H_ 0.604786 0.0836231 0.508956 0.10394
C_ C_ 0.676637 0.0908072 0.8038 0.18167
C_ C_ 0.722853 0.076114 0.789536 -0.15533
C_ C_ 0.738369 0.0250743 0.781721 0.02923
C_ C_ 0.693875 0.48336 0.783463 -0.15533
C_ C_ 0.667803 0.00840285 0.825728 0.18167
C_ C_ 0.540517 0.136456 0.780191 0.18167
C_ C_ 0.0007900000000000684 0.177076 0.742686 -0.15533
C_ C_ 0.511283 0.224895 0.772662 0.02923
C_ C_ 0.530853 0.234415 0.823814 -0.15533
C_ C_ 0.55664 0.192948 0.851748 0.18167
C_ C_ 0.517133 0.0448981 0.884741 0.69207
C_ C_ 0.974039 0.500977 0.875204 0.02923
C_ C_ 0.995109 0.44877 0.872624 -0.15533
C_ C_ 0.965639 0.408944 0.87744 -0.15533
C_ C_ 0.915203 0.421124 0.890032 0.02923
C_ C_ 0.895945 0.472721 0.896124 -0.15533
C_ C_ 0.924193 0.512308 0.886185 0.02923
C_ C_ 0.89679 0.0736999 0.886707 0.69207
C_ C_ 0.903377 0.32409 0.894179 0.69661
C_ C_ 0.569934 0.294425 0.582924 0.18167
C_ C_ 0.525584 0.273965 0.563116 -0.15533
C_ C_ 0.517954 0.264239 0.509333 0.02923
C_ C_ 0.546921 0.29292 0.99138 -0.15533
C_ C_ 0.598768 0.297623 0.502218 0.18167
C_ C_ 0.720574 0.262591 0.640551 0.18167
C_ C_ 0.73553 0.239268 0.687172 -0.15533
C_ C_ 0.735701 0.268401 0.733326 0.02923
C_ C_ 0.718995 0.321405 0.730879 -0.15533
C_ C_ 0.699702 0.343353 0.684036 0.18167
C_ C_ 0.740404 0.36271 0.537418 0.69207
C_ C_ 0.775123 0.372418 1.00971604 0.02923
C_ C_ 0.758352 0.361857 0.957969 -0.15533
C_ C_ 0.788604 0.368545 0.917106 -0.15533
C_ C_ 0.836618 0.387849 0.927042 0.02923
C_ C_ 0.853462 0.39442 0.979943 -0.15533
C_ C_ 0.823445 0.38724 0.0195936 0.02923
C_ C_ 0.855329 0.379094 0.562303 0.69207
C_ C_ 0.850557 0.377411 0.833351 0.69661
C_ C_ 0.80417 0.445555 0.666784 0.18167
C_ C_ 0.765364 0.462093 0.695045 -0.15533
C_ C_ 0.774247 0.487945 0.741803 0.02923
C_ C_ 0.828943 0.0224126 0.754534 -0.15533
C_ C_ 0.863052 0.481619 0.729227 0.18167
C_ C_ 0.985418 0.356463 0.699999 0.18167
C_ C_ 0.514996 0.30867 0.733947 -0.15533
C_ C_ 0.979187 0.272745 0.730672 0.02923
C_ C_ 0.928245 0.276705 0.712007 -0.15533
C_ C_ 0.905547 0.321932 0.69193 0.18167
C_ C_ 0.987892 0.454763 0.622739 0.69207
C_ C_ 0.51945 0.985925 0.612183 0.02923
C_ C_ 0.500853 0.0371745 0.611041 -0.15533
C_ C_ 0.53309 0.0737012 0.600231 -0.15533
C_ C_ 0.586837 0.0596611 0.60109 0.02923
C_ C_ 0.604383 0.00732165 0.602229 -0.15533
C_ C_ 0.571456 0.970902 0.608405 0.02923
C_ C_ 0.597048 0.412827 0.602198 0.69207
C_ C_ 0.600883 0.153831 0.620953 0.69661
C_ C_ 0.936061 0.184574 0.926163 0.18167
C_ C_ 0.979598 0.203857 0.950147 -0.15533
C_ C_ 0.978051 0.237102 -0.0034600000000000186 0.02923
C_ C_ 0.922702 0.266212 0.50829 -0.15533
C_ C_ 0.889945 0.220075 0.993657 0.18167
C_ C_ 0.752406 0.202375 0.856307 0.18167
C_ C_ 0.730352 0.233811 0.816942 -0.15533
C_ C_ 0.761434 0.246232 0.782023 0.02923
C_ C_ 0.810067 0.225664 0.785093 -0.15533
C_ C_ 0.833667 0.193976 0.822101 0.18167
C_ C_ 0.759877 0.129508 0.960718 0.69207
C_ C_ 0.720335 0.126005 0.495809 0.02923
C_ C_ 0.738902 0.126543 0.547481 -0.15533
C_ C_ 0.711198 0.10849 0.584304 -0.15533
C_ C_ 0.658988 0.100965 0.573991 0.02923
C_ C_ 0.639623 0.101128 0.522989 -0.15533
C_ C_ 0.668662 0.109961 0.483522 0.02923
C_ C_ 0.648734 0.112891 0.936348 0.69207
C_ C_ 0.650929 0.0846653 0.670048 0.69661
C_ C_ 0.877157 0.378776 0.887838 -0.30787
C_ C_ 0.625324 0.0973045 0.616913 -0.30787
N_ N_ 0.646381 0.0563656 0.818544 -0.32189
N_ N_ 0.56012 0.14451 0.8288 -0.32189
N_ N_ 0.605974 0.303784 0.553768 -0.32189
N_ N_ 0.695919 0.310889 0.640061 -0.32189
N_ N_ 0.852618 0.45325 0.684985 -0.32189
N_ N_ 0.935412 0.360156 0.682733 -0.32189
N_ N_ 0.891426 0.194609 0.948035 -0.32189
N_ N_ 0.804032 0.184884 0.860998 -0.32189
O_ O_ 0.00501703 0.0919265 0.902731 -0.63271
O_ O_ 0.548463 0.0411081 0.848814 -0.57982
O_ O_ 0.897152 0.099001 0.845697 -0.63271
O_ O_ 0.865713 0.0914734 0.920436 -0.57982
O_ O_ 0.730976 0.399119 0.571978 -0.63271
O_ O_ 0.708417 0.327717 0.532645 -0.57982
O_ O_ 0.846495 0.34562 0.595197 -0.63271
O_ O_ 0.881477 0.41596 0.581636 -0.57982
O_ O_ 0.487991 0.396839 0.602498 -0.63271
O_ O_ 0.950526 0.466189 0.651014 -0.57982
O_ O_ 0.597249 0.387266 0.644112 -0.63271
O_ O_ 0.625168 0.395861 0.56519 -0.57982
O_ O_ 0.756115 0.107336 0.914855 -0.63271
O_ O_ 0.793606 0.164041 0.970616 -0.57982
O_ O_ 0.648128 0.150775 0.908568 -0.63271
O_ O_ 0.611363 0.0842401 0.925307 -0.57982
F_ F_ 0.936386 0.325967 0.938777 -0.20885
F_ F_ 0.926619 0.303371 0.85333 -0.20885
F_ F_ 0.865626 0.292305 0.900851 -0.20885
F_ F_ 0.806902 0.412017 0.827899 -0.20885
F_ F_ 0.828147 0.331391 0.818066 -0.20885
F_ F_ 0.882139 0.388091 0.797553 -0.20885
F_ F_ 0.57276 0.170206 0.576744 -0.20885
F_ F_ 0.572385 0.164446 0.662084 -0.20885
F_ F_ 0.638252 0.188784 0.630709 -0.20885
F_ F_ 0.68875 0.0432632 0.671465 -0.20885
F_ F_ 0.679813 0.121814 0.694549 -0.20885
F_ F_ 0.614592 0.079059 0.704396 -0.20885
Zn Zn 0.581524 0.582756 0.340037 0.83971
Zn Zn 0.657184 0.852249 0.082856 0.83971
Zn Zn 0.910655 0.912776 0.154213 0.83971
Zn Zn 0.835023 0.657365 0.416114 0.83971
H_ H_ 0.660468 0.629362 0.305965 0.10394
H_ H_ 0.741495 0.60047 0.274927 0.10394
H_ H_ 0.695613 0.947766 0.269957 0.10394
H_ H_ 0.626691 0.479332 0.31725 0.10394
H_ H_ 0.0411706 0.588812 0.241594 0.10394
H_ H_ 0.99403525 0.663204 0.1958 0.10394
H_ H_ 0.535821 0.765358 0.317539 0.10394
H_ H_ 0.565163 0.694795 0.370598 0.10394
H_ H_ 0.520835 0.947994 0.348075 0.10394
H_ H_ 0.971037 0.880724 0.365654 0.10394
H_ H_ 0.853788 0.99593 0.407835 0.10394
H_ H_ 0.583835 0.794936 0.125887 0.10394
H_ H_ 1.00977815 0.753489 0.0959673 0.10394
H_ H_ 0.533142 0.794156 0.446778 0.10394
H_ H_ 0.608442 0.837651 0.979638 0.10394
H_ H_ 0.717294 0.758749 0.0902165 0.10394
H_ H_ 0.761815 0.70708 0.163059 0.10394
H_ H_ 0.728814 0.837289 0.267741 0.10394
H_ H_ 0.679589 0.881046 0.190391 0.10394
H_ H_ 0.711963 0.878982 0.446506 0.10394
H_ H_ 0.763268 0.885652 0.37761 0.10394
H_ H_ 0.891816 0.914191 0.492933 0.10394
H_ H_ 0.804516 0.893352 0.16099 0.10394
H_ H_ 0.729881 0.947015 0.192971 0.10394
H_ H_ 0.829005 0.546592 0.284804 0.10394
H_ H_ 0.907613 0.99002553 0.243911 0.10394
H_ H_ 0.508638 0.88191 0.18451 0.10394
H_ H_ 0.55646 0.79796 0.216579 0.10394
H_ H_ 0.90811 0.735546 0.201525 0.10394
H_ H_ 0.873531 0.820819 0.182113 0.10394
H_ H_ 0.975988 0.551741 0.13666 0.10394
H_ H_ 0.516468 0.625916 0.108873 0.10394
H_ H_ 0.645719 0.510295 0.0986672 0.10394
H_ H_ 0.938338 0.670725 0.39329 0.10394
H_ H_ 0.514236 0.703358 0.437238 0.10394
H_ H_ 0.925185 0.773398 0.0370172 0.10394
H_ H_ 0.84537 0.727784 0.502371 0.10394
H_ H_ 0.73497 0.70694 0.383582 0.10394
H_ H_ 0.696514 0.742541 0.306021 0.10394
H_ H_ 0.834322 0.702889 0.237087 0.10394
H_ H_ 0.876963 0.681792 0.324421 0.10394
H_ H_ 0.787117 0.612019 0.048771 0.10394
H_ H_ 0.73407 0.612803 0.114266 0.10394
H_ H_ 0.604515 0.59435 0.00796334 0.10394
C_ C_ 0.673167 0.589068 0.303443 0.18167
C_ C_ 0.716326 0.573077 0.281616 -0.15533
C_ C_ 0.726708 0.52106 0.266571 0.02923
C_ C_ 0.693659 0.988358 0.2812 -0.15533
C_ C_ 0.651423 0.505391 0.305036 0.18167
C_ C_ 0.525572 0.630071 0.260368 0.18167
C_ C_ 0.0146058 0.668179 0.232394 -0.15533
C_ C_ 0.50697 0.723369 0.250974 0.02923
C_ C_ 0.53459 0.728331 0.299796 -0.15533
C_ C_ 0.550367 0.686913 0.330308 0.18167
C_ C_ 0.503577 0.549252 0.359939 0.69207
C_ C_ 0.972766 0.00869815 0.374857 0.02923
C_ C_ -0.009503999999999957 0.956595 0.371671 -0.15533
C_ C_ 0.957808 0.919196 0.375743 -0.15533
C_ C_ 0.910313 0.932016 0.393413 0.02923
C_ C_ 0.893596 0.984435 0.401581 -0.15533
C_ C_ 0.92429 0.023512 0.391032 0.02923
C_ C_ 0.896965 0.575145 0.386768 0.69207
C_ C_ 0.894515 0.834987 0.391648 0.69661
C_ C_ 0.572705 0.799744 0.086221 0.18167
C_ C_ 0.529221 0.777316 0.0687627 -0.15533
C_ C_ 0.51634 0.771881 0.0144714 0.02923
C_ C_ 0.543625 0.794776 0.487726 -0.15533
C_ C_ 0.589779 0.815383 0.00374591 0.18167
C_ C_ 0.718361 0.772447 0.129457 0.18167
C_ C_ 0.742861 0.743468 0.169993 -0.15533
C_ C_ 0.744242 0.765868 0.221323 0.02923
C_ C_ 0.72583 0.819557 0.229457 -0.15533
C_ C_ 0.699839 0.843725 0.186408 0.18167
C_ C_ 0.739447 0.869803 0.0460679 0.69207
C_ C_ 0.770807 0.881343 0.508228 0.02923
C_ C_ 0.751544 0.883556 0.456817 -0.15533
C_ C_ 0.780628 0.891278 0.420732 -0.15533
C_ C_ 0.832063 0.89936 0.431394 0.02923
C_ C_ 0.852637 0.902815 0.48278 -0.15533
C_ C_ 0.823801 0.892618 0.522537 0.02923
C_ C_ 0.851177 0.881166 0.073787 0.69207
C_ C_ 0.846677 0.893061 0.333756 0.69661
C_ C_ 0.811827 0.926562 0.187408 0.18167
C_ C_ 0.768998 0.955206 0.208285 -0.15533
C_ C_ 0.776565 0.995983 0.243764 0.02923
C_ C_ 0.820166 0.520666 0.250679 -0.15533
C_ C_ 0.867736 0.983906 0.228779 0.18167
C_ C_ 0.992578 0.847361 0.200584 0.18167
C_ C_ 0.514586 0.80421 0.20703 -0.15533
C_ C_ 0.986049 0.761628 0.223773 0.02923
C_ C_ 0.935201 0.766201 0.203113 -0.15533
C_ C_ 0.913783 0.81509 0.186945 0.18167
C_ C_ 0.98301 0.951146 0.124541 0.69207
C_ C_ 0.521986 0.496956 0.117804 0.02923
C_ C_ 0.50463 0.549358 0.126272 -0.15533
C_ C_ 0.533693 0.586355 0.11265 -0.15533
C_ C_ 0.585896 0.574341 0.0994908 0.02923
C_ C_ 0.604468 0.522922 0.102602 -0.15533
C_ C_ 0.573219 0.483666 0.104736 0.02923
C_ C_ 0.596811 0.932471 0.107265 0.69207
C_ C_ 0.603069 0.669929 0.104514 0.69661
C_ C_ 0.933232 0.694345 0.424555 0.18167
C_ C_ 0.975305 0.714699 0.450162 -0.15533
C_ C_ 0.97049 0.743036 0.498341 0.02923
C_ C_ 0.92956 0.747048 1.0058977 -0.15533
C_ C_ 0.882351 0.725431 0.490766 0.18167
C_ C_ 0.759345 0.715293 0.354415 0.18167
C_ C_ 0.737253 0.735472 0.308672 -0.15533
C_ C_ 0.766889 0.73813 0.266809 0.02923
C_ C_ 0.816451 0.710755 0.271232 -0.15533
C_ C_ 0.836021 0.688699 0.31723 0.18167
C_ C_ 0.756487 0.622148 0.447662 0.69207
C_ C_ 0.728125 0.603429 0.985106 0.02923
C_ C_ 0.74701 0.608349 0.0380709 -0.15533
C_ C_ 0.717291 0.607106 0.0770828 -0.15533
C_ C_ 0.664751 0.601293 0.0664074 0.02923
C_ C_ 0.644366 0.599905 0.0146052 -0.15533
C_ C_ 0.674286 0.600212 0.974515 0.02923
C_ C_ 0.643139 0.60764 0.422468 0.69207
C_ C_ 0.652084 0.611725 0.164186 0.69661
C_ C_ 0.872531 0.891237 0.390365 -0.30787
C_ C_ 0.626683 0.614284 0.108114 -0.30787
N_ N_ 0.639807 0.556816 0.310841 -0.32189
N_ N_ 0.546979 0.640233 0.3096 -0.32189
N_ N_ 0.602956 0.817313 0.0551301 -0.32189
N_ N_ 0.693816 0.817558 0.139213 -0.32189
N_ N_ 0.858835 0.941722 0.198182 -0.32189
N_ N_ 0.942303 0.853658 0.184427 -0.32189
N_ N_ 0.88972 0.694139 0.447759 -0.32189
N_ N_ 0.807697 0.692098 0.356772 -0.32189
O_ O_ 0.000995179 0.596678 0.383702 -0.63271
O_ O_ 0.541078 0.532522 0.331436 -0.57982
O_ O_ 0.898549 0.599722 0.347538 -0.63271
O_ O_ 0.862728 0.591717 0.418783 -0.57982
O_ O_ 0.738308 0.89622 0.0895937 -0.63271
O_ O_ 0.703317 0.838585 0.035424 -0.57982
O_ O_ 0.8578 0.83589 0.09582 -0.63271
O_ O_ 0.876448 0.917086 0.0925221 -0.57982
O_ O_ 0.485125 0.914585 0.0969443 -0.63271
O_ O_ 0.950567 0.962261 0.158478 -0.57982
O_ O_ 0.597046 0.904916 0.145478 -0.63271
O_ O_ 0.629206 0.916444 0.0731009 -0.57982
O_ O_ 0.759214 0.598346 0.401673 -0.63271
O_ O_ 0.785182 0.658462 0.460172 -0.57982
O_ O_ 0.646431 0.651775 0.401839 -0.63271
O_ O_ 0.604297 0.583696 0.40639 -0.57982
F_ F_ 0.932632 0.830248 0.431054 -0.20885
F_ F_ 0.916304 0.814677 0.347728 -0.20885
F_ F_ 0.860817 0.799435 0.39824 -0.20885
F_ F_ 0.812432 0.93967 0.329216 -0.20885
F_ F_ 0.816302 0.852332 0.319494 -0.20885
F_ F_ 0.886422 0.892603 0.29939 -0.20885
F_ F_ 0.565795 0.673253 0.0631161 -0.20885
F_ F_ 0.582658 0.692719 0.147869 -0.20885
F_ F_ 0.637867 0.703556 0.0947111 -0.20885
F_ F_ 0.682323 0.566049 0.172093 -0.20885
F_ F_ 0.688353 0.645424 0.176975 -0.20885
F_ F_ 0.617871 0.61751 0.200906 -0.20885
Zn Zn 0.585469 0.585453 0.84792 0.83971
Zn Zn 0.660146 0.841248 0.588658 0.83971
Zn Zn 0.911689 0.917569 0.658691 0.83971
Zn Zn 0.846707 0.647184 0.912947 0.83971
H_ H_ 0.669775 0.631195 0.80171 0.10394
H_ H_ 0.749884 0.58825 0.764455 0.10394
H_ H_ 0.730003 0.952719 0.807632 0.10394
H_ H_ 0.628136 0.480334 0.823116 0.10394
H_ H_ 0.00626296 0.590891 0.760963 0.10394
H_ H_ 0.971626 0.668485 0.702014 0.10394
H_ H_ 0.528847 0.766862 0.832959 0.10394
H_ H_ 0.565996 0.69221 0.878022 0.10394
H_ H_ 0.535892 0.943427 0.876008 0.10394
H_ H_ 0.983749 0.880101 0.885612 0.10394
H_ H_ 0.854782 0.99154 0.91456 0.10394
H_ H_ 0.587427 0.782058 0.629563 0.10394
H_ H_ 0.00321197 0.764725 0.595635 0.10394
H_ H_ 0.535259 0.799232 0.940909 0.10394
H_ H_ 0.611059 0.829581 0.485256 0.10394
H_ H_ 0.717678 0.743837 0.600618 0.10394
H_ H_ 0.766906 0.700788 0.672389 0.10394
H_ H_ 0.713928 0.827258 0.772524 0.10394
H_ H_ 0.678106 0.871491 0.70122 0.10394
H_ H_ 0.716144 0.874209 0.947149 0.10394
H_ H_ 0.772426 0.888433 0.880894 0.10394
H_ H_ 0.892755 0.904679 0.994793 0.10394
H_ H_ 0.806245 0.908094 0.66379 0.10394
H_ H_ 0.734639 0.95908 0.695052 0.10394
H_ H_ 0.833904 0.51039 0.798238 0.10394
H_ H_ 0.908542 1.00717688 0.735549 0.10394
H_ H_ 0.513253 0.885288 0.696246 0.10394
H_ H_ 0.550595 0.815865 0.750239 0.10394
H_ H_ 0.909438 0.745134 0.710996 0.10394
H_ H_ 0.874941 0.835018 0.699604 0.10394
H_ H_ 0.968245 0.55696 0.63857 0.10394
H_ H_ 0.512491 0.607077 0.602528 0.10394
H_ H_ 0.636863 0.494546 0.575204 0.10394
H_ H_ 0.951079 0.655902 0.890631 0.10394
H_ H_ 0.519177 0.690055 0.946641 0.10394
H_ H_ 0.917629 0.769797 0.553382 0.10394
H_ H_ 0.846979 0.737547 0.987961 0.10394
H_ H_ 0.743189 0.665163 0.865399 0.10394
H_ H_ 0.703178 0.719367 0.795668 0.10394
H_ H_ 0.853191 0.752659 0.770518 0.10394
H_ H_ 0.888435 0.680896 0.82016 0.10394
H_ H_ 0.78464 0.595527 0.546164 0.10394
H_ H_ 0.736443 0.576808 0.608801 0.10394
H_ H_ 0.605949 0.573808 0.503011 0.10394
C_ C_ 0.677095 0.588353 0.801437 0.18167
C_ C_ 0.722244 0.565171 0.778384 -0.15533
C_ C_ 0.731052 0.511849 0.770165 0.02923
C_ C_ 0.712539 0.990542 0.803349 -0.15533
C_ C_ 0.649426 0.506389 0.803551 0.18167
C_ C_ 0.526301 0.634523 0.767466 0.18167
C_ C_ -0.00387317 0.672033 0.739046 -0.15533
C_ C_ 0.504791 0.725449 0.766751 0.02923
C_ C_ 0.529747 0.730376 0.814827 -0.15533
C_ C_ 0.551548 0.686501 0.838329 0.18167
C_ C_ 0.509618 0.543238 0.86965 0.69207
C_ C_ 0.970657 0.0096434 0.877665 0.02923
C_ C_ -0.008082999999999951 0.957819 0.875403 -0.15533
C_ C_ 0.961574 0.919357 0.88226 -0.15533
C_ C_ 0.910604 0.929129 0.893119 0.02923
C_ C_ 0.891993 0.981168 0.899519 -0.15533
C_ C_ 0.921358 0.0203797 0.890663 0.02923
C_ C_ 0.897968 0.563607 0.882529 0.69207
C_ C_ 0.899985 0.829663 0.894818 0.69661
C_ C_ 0.574534 0.787927 0.590399 0.18167
C_ C_ 0.531125 0.766309 0.570876 -0.15533
C_ C_ 0.513698 0.770784 0.518477 0.02923
C_ C_ 0.545249 0.796479 0.982177 -0.15533
C_ C_ 0.588921 0.812173 0.508439 0.18167
C_ C_ 0.716473 0.761561 0.640392 0.18167
C_ C_ 0.744174 0.736222 0.681701 -0.15533
C_ C_ 0.746313 0.761776 0.730982 0.02923
C_ C_ 0.718507 0.810477 0.73601 -0.15533
C_ C_ 0.690036 0.832709 0.693058 0.18167
C_ C_ 0.740323 0.872405 0.548992 0.69207
C_ C_ 0.773795 0.877911 1.0092705 0.02923
C_ C_ 0.754865 0.877354 0.95743 -0.15533
C_ C_ 0.786071 0.886991 0.919693 -0.15533
C_ C_ 0.836229 0.893746 0.930376 0.02923
C_ C_ 0.855276 0.897767 0.983875 -0.15533
C_ C_ 0.825572 0.8843 0.0214449 0.02923
C_ C_ 0.850124 0.890531 0.577605 0.69207
C_ C_ 0.851872 0.886152 0.835746 0.69661
C_ C_ 0.811909 0.938894 0.691603 0.18167
C_ C_ 0.771178 0.966699 0.713122 -0.15533
C_ C_ 0.778923 0.00670201 0.748682 0.02923
C_ C_ 0.824949 0.494985 0.761002 -0.15533
C_ C_ 0.870303 0.996164 0.729888 0.18167
C_ C_ 0.996736 0.849787 0.70052 0.18167
C_ C_ 0.514524 0.810983 0.730552 -0.15533
C_ C_ 0.986599 0.766745 0.728268 0.02923
C_ C_ 0.933041 0.776538 0.7176 -0.15533
C_ C_ 0.912272 0.82339 0.698609 0.18167
C_ C_ 0.976281 0.957236 0.615357 0.69207
C_ C_ 0.52289 0.478563 0.616628 0.02923
C_ C_ 0.502896 0.530671 0.617269 -0.15533
C_ C_ 0.532508 0.569396 0.607636 -0.15533
C_ C_ 0.584563 0.555953 0.598495 0.02923
C_ C_ 0.60169 0.503731 0.591896 -0.15533
C_ C_ 0.571723 0.465497 0.602351 0.02923
C_ C_ 0.594142 0.917137 0.612694 0.69207
C_ C_ 0.59832 0.653018 0.603341 0.69661
C_ C_ 0.945994 0.677089 0.927098 0.18167
C_ C_ 0.988327 0.696267 0.953059 -0.15533
C_ C_ 0.979489 0.7337 0.991049 0.02923
C_ C_ 0.921996 0.751886 0.518011 -0.15533
C_ C_ 0.887073 0.725449 0.97953 0.18167
C_ C_ 0.765691 0.683164 0.843541 0.18167
C_ C_ 0.744344 0.715518 0.806341 -0.15533
C_ C_ 0.773721 0.736456 0.774374 0.02923
C_ C_ 0.826262 0.726452 0.780177 -0.15533
C_ C_ 0.847089 0.687681 0.81444 0.18167
C_ C_ 0.761801 0.611188 0.945722 0.69207
C_ C_ 0.722802 0.605801 0.483018 0.02923
C_ C_ 0.743813 0.598908 0.534079 -0.15533
C_ C_ 0.714213 0.590225 0.574142 -0.15533
C_ C_ 0.661962 0.587737 0.562669 0.02923
C_ C_ 0.643101 0.588931 0.511581 -0.15533
C_ C_ 0.671448 0.598622 0.472531 0.02923
C_ C_ 0.650924 0.598705 0.923487 0.69207
C_ C_ 0.650373 0.597537 0.656603 0.69661
C_ C_ 0.874889 0.886088 0.89055 -0.30787
C_ C_ 0.622506 0.597881 0.602307 -0.30787
N_ N_ 0.643549 0.557808 0.81273 -0.32189
N_ N_ 0.553061 0.639712 0.813442 -0.32189
N_ N_ 0.605155 0.806087 0.559365 -0.32189
N_ N_ 0.690198 0.808612 0.646291 -0.32189
N_ N_ 0.861427 0.952304 0.70232 -0.32189
N_ N_ 0.945302 0.856925 0.68721 -0.32189
N_ N_ 0.895851 0.691326 0.939866 -0.32189
N_ N_ 0.817899 0.672208 0.849154 -0.32189
O_ O_ 1.00712214 0.584797 0.893844 -0.63271
O_ O_ 0.543754 0.534904 0.837904 -0.57982
O_ O_ 0.895114 0.589935 0.841224 -0.63271
O_ O_ 0.878259 0.584114 0.921129 -0.57982
O_ O_ 0.739477 0.902736 0.590304 -0.63271
O_ O_ 0.708705 0.835892 0.542343 -0.57982
O_ O_ 0.856527 0.846192 0.600496 -0.63271
O_ O_ 0.871169 0.929431 0.60018 -0.57982
O_ O_ 0.483184 0.904898 0.599066 -0.63271
O_ O_ 0.955494 0.96484 0.656882 -0.57982
O_ O_ 0.589022 0.892588 0.650987 -0.63271
O_ O_ 0.625195 0.899048 0.577546 -0.57982
O_ O_ 0.760393 0.583371 0.903096 -0.63271
O_ O_ 0.79347 0.646908 0.952409 -0.57982
O_ O_ 0.653175 0.637564 0.896131 -0.63271
O_ O_ 0.614899 0.570674 0.911473 -0.57982
F_ F_ 0.935837 0.827176 0.939913 -0.20885
F_ F_ 0.929916 0.811595 0.857318 -0.20885
F_ F_ 0.86327 0.797069 0.89893 -0.20885
F_ F_ 0.821862 0.931419 0.828526 -0.20885
F_ F_ 0.819507 0.847912 0.822987 -0.20885
F_ F_ 0.885622 0.880198 0.797144 -0.20885
F_ F_ 0.566838 0.662014 0.558337 -0.20885
F_ F_ 0.570365 0.670223 0.645814 -0.20885
F_ F_ 0.633254 0.687661 0.602538 -0.20885
F_ F_ 0.679222 0.550761 0.662487 -0.20885
F_ F_ 0.68059 0.636651 0.67077 -0.20885
F_ F_ 0.619041 0.601074 0.694403 -0.20885
