_cell_length_a 26.508
_cell_length_b 26.37200000322088
_cell_length_c 26.311999743092066
_cell_angle_alpha 93.74100058972084
_cell_angle_beta 96.04100104955006
_cell_angle_gamma 83.6869992558723
_symmetry_space_group_name_H-M         'P 1'
_symmetry_Int_Tables_number            1
loop_
_symmetry_equiv_pos_as_xyz
   'x, y, z'
                         
loop_
_atom_site_label
_atom_site_type_symbol
_atom_site_fract_x 
_atom_site_fract_y
_atom_site_fract_z
_atom_site_charge
Zn Zn 0.0873652 0.0877581 0.348396 0.83971
Zn Zn 0.157716 0.343076 0.0818067 0.83971
Zn Zn 0.407951 0.415173 0.150906 0.83971
Zn Zn 0.343031 0.152487 0.414699 0.83971
H_ H_ 0.166485 0.137438 0.298869 0.10394
H_ H_ 0.241377 0.106728 0.262795 0.10394
H_ H_ 0.207905 0.438347 0.273894 0.10394
H_ H_ 0.130172 0.989279 0.322779 0.10394
H_ H_ 0.531133 0.101582 0.240485 0.10394
H_ H_ 0.491046 0.175386 0.196258 0.10394
H_ H_ 0.0278349 0.27514 0.338988 0.10394
H_ H_ 0.0631541 0.198959 0.384471 0.10394
H_ H_ 0.0363179 0.439384 0.385137 0.10394
H_ H_ 0.47952 0.381117 0.379353 0.10394
H_ H_ 0.347296 0.490033 0.398434 0.10394
H_ H_ 0.0786815 0.298035 0.128709 0.10394
H_ H_ 0.507323 0.263926 0.098267 0.10394
H_ H_ 0.0287282 0.283912 0.452844 0.10394
H_ H_ 0.107168 0.327076 0.973548 0.10394
H_ H_ 0.227727 0.247408 0.0877785 0.10394
H_ H_ 0.266423 0.200064 0.162428 0.10394
H_ H_ 0.210673 0.321507 0.266481 0.10394
H_ H_ 0.173872 0.369161 0.19011 0.10394
H_ H_ 0.210492 0.376802 0.445262 0.10394
H_ H_ 0.270665 0.365453 0.382307 0.10394
H_ H_ 0.390946 0.417796 0.490302 0.10394
H_ H_ 0.308095 0.400609 0.155006 0.10394
H_ H_ 0.230999 0.457002 0.181466 0.10394
H_ H_ 0.324709 0.0572032 0.267072 0.10394
H_ H_ 0.405311 0.492703 0.24466 0.10394
H_ H_ 0.00565913 0.395072 0.203527 0.10394
H_ H_ 0.0531075 0.322309 0.237908 0.10394
H_ H_ 0.409272 0.265891 0.256826 0.10394
H_ H_ 0.364909 0.327118 0.1899 0.10394
H_ H_ 0.464521 0.0551475 0.14337 0.10394
H_ H_ 0.025187 0.119525 0.107476 0.10394
H_ H_ 0.150362 0.00226747 0.0936116 0.10394
H_ H_ 0.44586 0.165596 0.393794 0.10394
H_ H_ 0.0147929 0.189553 0.465439 0.10394
H_ H_ 0.416155 0.275637 0.0471038 0.10394
H_ H_ 0.348134 0.233263 0.49927 0.10394
H_ H_ 0.234782 0.194845 0.384325 0.10394
H_ H_ 0.194735 0.22962 0.307949 0.10394
H_ H_ 0.336517 0.227383 0.248629 0.10394
H_ H_ 0.37736 0.184778 0.324742 0.10394
H_ H_ 0.288887 0.101859 0.0436961 0.10394
H_ H_ 0.23598 0.0888311 0.112081 0.10394
H_ H_ 0.105486 0.0881526 7.00000000000145e-05 0.10394
C_ C_ 0.176107 0.0969354 0.30143 0.18167
C_ C_ 0.21761 0.0795697 0.273983 -0.15533
C_ C_ 0.228362 0.0266835 0.264958 0.02923
C_ C_ 0.198044 0.47802 0.282919 -0.15533
C_ C_ 0.157104 0.0139704 0.311908 0.18167
C_ C_ 0.0386781 0.140434 0.268926 0.18167
C_ C_ 0.513515 0.179942 0.234112 -0.15533
C_ C_ 0.0132564 0.233384 0.266157 0.02923
C_ C_ 0.0269269 0.23735 0.317797 -0.15533
C_ C_ 0.0525246 0.194634 0.343301 0.18167
C_ C_ 0.00297848 0.0493535 0.361793 0.69207
C_ C_ 0.47201 0.510702 0.377427 0.02923
C_ C_ 0.492499 0.460476 0.37667 -0.15533
C_ C_ 0.461306 0.420504 0.37762 -0.15533
C_ C_ 0.409619 0.429569 0.389601 0.02923
C_ C_ 0.387974 0.480855 0.392145 -0.15533
C_ C_ 0.418864 0.521908 0.384316 0.02923
C_ C_ 0.399864 0.069834 0.383231 0.69207
C_ C_ 0.400651 0.332932 0.39356 0.69661
C_ C_ 0.0708394 0.294385 0.0863973 0.18167
C_ C_ 0.0268747 0.268291 0.0674019 -0.15533
C_ C_ 0.012422 0.266845 0.014361 0.02923
C_ C_ 0.0376795 0.292794 0.493409 -0.15533
C_ C_ 0.0868609 0.309116 0.00307413 0.18167
C_ C_ 0.220499 0.261237 0.128239 0.18167
C_ C_ 0.243426 0.233445 0.169088 -0.15533
C_ C_ 0.240055 0.256431 0.221356 0.02923
C_ C_ 0.213233 0.3044 0.227025 -0.15533
C_ C_ 0.187363 0.327842 0.186214 0.18167
C_ C_ 0.245471 0.360953 0.0462413 0.69207
C_ C_ 0.270422 0.383842 0.509093 0.02923
C_ C_ 0.252808 0.378857 0.4569 -0.15533
C_ C_ 0.286012 0.377908 0.41824 -0.15533
C_ C_ 0.33585 0.391705 0.429824 0.02923
C_ C_ 0.352944 0.4042 0.481478 -0.15533
C_ C_ 0.320023 0.399595 0.523007 0.02923
C_ C_ 0.355241 0.380172 0.0698097 0.69207
C_ C_ 0.349539 0.386168 0.331739 0.69661
C_ C_ 0.310291 0.433043 0.181819 0.18167
C_ C_ 0.268572 0.460497 0.201496 -0.15533
C_ C_ 0.276772 0.495578 0.244612 0.02923
C_ C_ 0.321062 0.0219813 0.244236 -0.15533
C_ C_ 0.366797 0.483056 0.23451 0.18167
C_ C_ 0.489798 0.352999 0.196686 0.18167
C_ C_ 0.013245 0.319184 0.231184 -0.15533
C_ C_ 0.484244 0.274931 0.236555 0.02923
C_ C_ 0.430522 0.288082 0.23416 -0.15533
C_ C_ 0.408142 0.323148 0.199615 0.18167
C_ C_ 0.491059 0.449695 0.118398 0.69207
C_ C_ 0.0249837 0.991547 0.118545 0.02923
C_ C_ 0.0106349 0.0437916 0.123375 -0.15533
C_ C_ 0.0410552 0.0792752 0.107402 -0.15533
C_ C_ 0.092939 0.0650325 0.100977 0.02923
C_ C_ 0.109564 0.0134189 0.0952281 -0.15533
C_ C_ 0.0769683 0.976437 0.106516 0.02923
C_ C_ 0.0903231 0.425102 0.105251 0.69207
C_ C_ 0.103722 0.162149 0.0888215 0.69661
C_ C_ 0.438306 0.184879 0.429147 0.18167
C_ C_ 0.480509 0.200955 0.459386 -0.15533
C_ C_ 0.473274 0.240807 0.497136 0.02923
C_ C_ 0.422418 0.249421 0.0141016 -0.15533
C_ C_ 0.38615 0.226346 0.487487 0.18167
C_ C_ 0.258108 0.199493 0.354887 0.18167
C_ C_ 0.234447 0.22294 0.31199 -0.15533
C_ C_ 0.262163 0.230959 0.270007 0.02923
C_ C_ 0.315625 0.22185 0.279804 -0.15533
C_ C_ 0.336621 0.196143 0.323213 0.18167
C_ C_ 0.263651 0.122481 0.451168 0.69207
C_ C_ 0.229485 0.102942 0.983962 0.02923
C_ C_ 0.249162 0.102805 0.0356791 -0.15533
C_ C_ 0.216663 0.098795 0.0739584 -0.15533
C_ C_ 0.164957 0.0943037 0.0615567 0.02923
C_ C_ 0.146143 0.088555 0.010765 -0.15533
C_ C_ 0.175915 0.101994 0.972265 0.02923
C_ C_ 0.151945 0.109113 0.424991 0.69207
C_ C_ 0.150847 0.109815 0.156454 0.69661
C_ C_ 0.374186 0.388324 0.38751 -0.30787
C_ C_ 0.128296 0.107185 0.100298 -0.30787
N_ N_ 0.144794 0.0646819 0.31404 -0.32189
N_ N_ 0.0573891 0.148102 0.317139 -0.32189
N_ N_ 0.101691 0.311271 0.0536999 -0.32189
N_ N_ 0.190082 0.305336 0.138342 -0.32189
N_ N_ 0.357358 0.44939 0.194182 -0.32189
N_ N_ 0.437251 0.355252 0.182653 -0.32189
N_ N_ 0.390439 0.197051 0.444687 -0.32189
N_ N_ 0.308363 0.186138 0.359905 -0.32189
O_ O_ 0.499662 0.0939889 0.385891 -0.63271
O_ O_ 0.0388383 0.0396827 0.331148 -0.57982
O_ O_ 0.397243 0.0936574 0.339429 -0.63271
O_ O_ 0.378858 0.0936555 0.422856 -0.57982
O_ O_ 0.245471 0.389108 0.0901185 -0.63271
O_ O_ 0.207257 0.333795 0.035761 -0.57982
O_ O_ 0.359982 0.336827 0.0947561 -0.63271
O_ O_ 0.373616 0.422474 0.0904807 -0.57982
O_ O_ 0.978222 0.417006 0.0911946 -0.63271
O_ O_ 0.453706 0.461697 0.147145 -0.57982
O_ O_ 0.0795117 0.396131 0.140953 -0.63271
O_ O_ 0.131537 0.410396 0.0845496 -0.57982
O_ O_ 0.25468 0.101023 0.40556 -0.63271
O_ O_ 0.29499 0.156706 0.458033 -0.57982
O_ O_ 0.14847 0.150218 0.398972 -0.63271
O_ O_ 0.120624 0.0753852 0.408994 -0.57982
F_ F_ 0.438034 0.331546 0.435164 -0.20885
F_ F_ 0.427921 0.319255 0.351807 -0.20885
F_ F_ 0.36897 0.296982 0.400461 -0.20885
F_ F_ 0.31001 0.42564 0.324159 -0.20885
F_ F_ 0.32696 0.3417 0.316797 -0.20885
F_ F_ 0.384256 0.392716 0.295483 -0.20885
F_ F_ 0.066699 0.160788 0.0466393 -0.20885
F_ F_ 0.0741251 0.187985 0.126419 -0.20885
F_ F_ 0.136733 0.198476 0.0824324 -0.20885
F_ F_ 0.177695 0.0632363 0.16724 -0.20885
F_ F_ 0.184052 0.146542 0.16207 -0.20885
F_ F_ 0.114074 0.120793 0.191398 -0.20885
Zn Zn 0.089728 0.0875617 0.841907 0.83971
Zn Zn 0.155593 0.352722 0.588984 0.83971
Zn Zn 0.404153 0.423514 0.656977 0.83971
Zn Zn 0.340943 0.149988 0.910693 0.83971
H_ H_ 0.179073 0.132866 0.80721 0.10394
H_ H_ 0.252719 0.0942208 0.765549 0.10394
H_ H_ 0.211541 0.449076 0.800729 0.10394
H_ H_ 0.131948 0.985981 0.817035 0.10394
H_ H_ 0.524402 0.0932874 0.744528 0.10394
H_ H_ 0.470633 0.170041 0.698705 0.10394
H_ H_ 0.0185602 0.272045 0.824602 0.10394
H_ H_ 0.0669668 0.195761 0.870485 0.10394
H_ H_ 0.0303628 0.445223 0.865588 0.10394
H_ H_ 0.481916 0.381347 0.893436 0.10394
H_ H_ 0.350916 0.489461 0.911954 0.10394
H_ H_ 0.0769232 0.302324 0.637097 0.10394
H_ H_ 0.494488 0.273032 0.593695 0.10394
H_ H_ 0.0328995 0.294834 0.943235 0.10394
H_ H_ 0.105803 0.326595 0.484251 0.10394
H_ H_ 0.210482 0.258269 0.602608 0.10394
H_ H_ 0.256631 0.213684 0.677645 0.10394
H_ H_ 0.217467 0.346016 0.771966 0.10394
H_ H_ 0.170042 0.386632 0.696915 0.10394
H_ H_ 0.218191 0.357283 0.941966 0.10394
H_ H_ 0.269332 0.369068 0.875153 0.10394
H_ H_ 0.397451 0.39919 0.988392 0.10394
H_ H_ 0.303038 0.404548 0.663912 0.10394
H_ H_ 0.23185 0.459441 0.69517 0.10394
H_ H_ 0.334399 0.0418618 0.77231 0.10394
H_ H_ 0.404947 0.508353 0.733006 0.10394
H_ H_ 0.00685507 0.389142 0.689772 0.10394
H_ H_ 0.0517493 0.312479 0.732574 0.10394
H_ H_ 0.40292 0.24965 0.715282 0.10394
H_ H_ 0.362912 0.333483 0.689668 0.10394
H_ H_ 0.459526 0.0466611 0.630183 0.10394
H_ H_ 0.0197144 0.118806 0.613327 0.10394
H_ H_ 0.148652 0.00867788 0.593024 0.10394
H_ H_ 0.442199 0.159315 0.890463 0.10394
H_ H_ 0.0127041 0.195545 0.936388 0.10394
H_ H_ 0.420264 0.276045 0.545717 0.10394
H_ H_ 0.346489 0.227974 0.004350000000000076 0.10394
H_ H_ 0.238148 0.202563 0.896186 0.10394
H_ H_ 0.191141 0.252426 0.821758 0.10394
H_ H_ 0.328226 0.237317 0.746419 0.10394
H_ H_ 0.37082 0.181351 0.816503 0.10394
H_ H_ 0.285272 0.143474 0.549183 0.10394
H_ H_ 0.240611 0.117822 0.615683 0.10394
H_ H_ 0.108263 0.0905567 0.512 0.10394
C_ C_ 0.185143 0.0919652 0.799228 0.18167
C_ C_ 0.22559 0.0708718 0.772795 -0.15533
C_ C_ 0.23718 0.0188258 0.766894 0.02923
C_ C_ 0.202526 0.489333 0.796708 -0.15533
C_ C_ 0.156897 0.0103091 0.801306 0.18167
C_ C_ 0.0218859 0.135855 0.762421 0.18167
C_ C_ 0.49578 0.174664 0.73561 -0.15533
C_ C_ 0.00731111 0.228009 0.753242 0.02923
C_ C_ 0.0268042 0.235198 0.804897 -0.15533
C_ C_ 0.0515591 0.191923 0.829984 0.18167
C_ C_ 0.0058098 0.0492873 0.858461 0.69207
C_ C_ 0.471081 0.507468 0.885551 0.02923
C_ C_ 0.491069 0.455715 0.882654 -0.15533
C_ C_ 0.461052 0.418529 0.886842 -0.15533
C_ C_ 0.410043 0.427564 0.897679 0.02923
C_ C_ 0.392062 0.478339 0.906696 -0.15533
C_ C_ 0.418493 0.518785 0.892421 0.02923
C_ C_ 0.395879 0.0661963 0.87555 0.69207
C_ C_ 0.40161 0.32859 0.881173 0.69661
C_ C_ 0.0617925 0.307788 0.597396 0.18167
C_ C_ 0.0192011 0.283267 0.578074 -0.15533
C_ C_ 0.0111497 0.269653 0.526894 0.02923
C_ C_ 0.0425344 0.289406 0.983992 -0.15533
C_ C_ 0.0811781 0.316147 0.510886 0.18167
C_ C_ 0.213746 0.275619 0.640653 0.18167
C_ C_ 0.233316 0.249434 0.684752 -0.15533
C_ C_ 0.231143 0.271877 0.732938 0.02923
C_ C_ 0.216761 0.32587 0.735901 -0.15533
C_ C_ 0.19355 0.351277 0.692663 0.18167
C_ C_ 0.236601 0.374089 0.547338 0.69207
C_ C_ 0.279498 0.368348 0.0059386 0.02923
C_ C_ 0.257727 0.364434 0.952677 -0.15533
C_ C_ 0.2869 0.373907 0.914268 -0.15533
C_ C_ 0.339264 0.38575 0.927501 0.02923
C_ C_ 0.360431 0.389306 0.97816 -0.15533
C_ C_ 0.330374 0.381857 0.0195383 0.02923
C_ C_ 0.345621 0.397402 0.574897 0.69207
C_ C_ 0.350961 0.392059 0.828906 0.69661
C_ C_ 0.309091 0.439233 0.688021 0.18167
C_ C_ 0.269062 0.470002 0.705867 -0.15533
C_ C_ 0.278393 0.503958 0.747619 0.02923
C_ C_ 0.328503 0.0082953 0.745883 -0.15533
C_ C_ 0.367098 0.495454 0.728444 0.18167
C_ C_ 0.487785 0.355527 0.698669 0.18167
C_ C_ 0.0125501 0.314379 0.718972 -0.15533
C_ C_ 0.480432 0.271988 0.727948 0.02923
C_ C_ 0.426948 0.28049 0.712925 -0.15533
C_ C_ 0.404883 0.325435 0.69323 0.18167
C_ C_ 0.483803 0.46156 0.62007 0.69207
C_ C_ 0.0275408 0.99129 0.614029 0.02923
C_ C_ 0.00739965 0.0427442 0.610998 -0.15533
C_ C_ 0.0387529 0.0819557 0.608761 -0.15533
C_ C_ 0.0902859 0.0700479 0.601737 0.02923
C_ C_ 0.109344 0.018674 0.596588 -0.15533
C_ C_ 0.0796679 0.977992 0.603166 0.02923
C_ C_ 0.0953256 0.433242 0.613524 0.69207
C_ C_ 0.10472 0.165388 0.607498 0.69661
C_ C_ 0.437167 0.184431 0.928881 0.18167
C_ C_ 0.477833 0.210152 0.952916 -0.15533
C_ C_ 0.471266 0.242352 0.996627 0.02923
C_ C_ 0.424824 0.253049 0.510193 -0.15533
C_ C_ 0.383405 0.223249 0.988331 0.18167
C_ C_ 0.258253 0.211853 0.864197 0.18167
C_ C_ 0.231957 0.238053 0.822676 -0.15533
C_ C_ 0.257424 0.244444 0.779052 0.02923
C_ C_ 0.307863 0.225651 0.777792 -0.15533
C_ C_ 0.330672 0.194759 0.817179 0.18167
C_ C_ 0.26475 0.107473 0.945246 0.69207
C_ C_ 0.228102 0.118248 0.489745 0.02923
C_ C_ 0.24729 0.129046 0.539839 -0.15533
C_ C_ 0.218271 0.121162 0.580214 -0.15533
C_ C_ 0.167815 0.106143 0.569391 0.02923
C_ C_ 0.148996 0.0978047 0.518112 -0.15533
C_ C_ 0.177168 0.110094 0.477902 0.02923
C_ C_ 0.149794 0.111864 0.921324 0.69207
C_ C_ 0.153443 0.105502 0.667057 0.69661
C_ C_ 0.375383 0.384249 0.884992 -0.30787
C_ C_ 0.129686 0.109825 0.611361 -0.30787
N_ N_ 0.149821 0.0605066 0.812428 -0.32189
N_ N_ 0.0514088 0.143086 0.807555 -0.32189
N_ N_ 0.0946003 0.319564 0.56279 -0.32189
N_ N_ 0.189503 0.3233 0.646602 -0.32189
N_ N_ 0.358273 0.452637 0.700079 -0.32189
N_ N_ 0.436372 0.361288 0.680937 -0.32189
N_ N_ 0.391468 0.189934 0.947483 -0.32189
N_ N_ 0.305444 0.186979 0.85774 -0.32189
O_ O_ 0.504315 0.0864663 0.881842 -0.63271
O_ O_ 0.0449872 0.0383446 0.831098 -0.57982
O_ O_ 0.386713 0.0890096 0.832465 -0.63271
O_ O_ 0.37839 0.088016 0.916056 -0.57982
O_ O_ 0.234319 0.403791 0.588198 -0.63271
O_ O_ 0.199821 0.343018 0.538229 -0.57982
O_ O_ 0.345399 0.353981 0.598672 -0.63271
O_ O_ 0.372369 0.434642 0.594117 -0.57982
O_ O_ 0.987322 0.411915 0.593391 -0.63271
O_ O_ 0.447879 0.470295 0.650186 -0.57982
O_ O_ 0.0927894 0.406577 0.653961 -0.63271
O_ O_ 0.128689 0.417698 0.581036 -0.57982
O_ O_ 0.259702 0.0862254 0.898468 -0.63271
O_ O_ 0.302193 0.132867 0.958606 -0.57982
O_ O_ 0.155432 0.152994 0.89636 -0.63271
O_ O_ 0.111698 0.0854799 0.905634 -0.57982
F_ F_ 0.436239 0.323118 0.925882 -0.20885
F_ F_ 0.431171 0.318371 0.841551 -0.20885
F_ F_ 0.369752 0.288953 0.883361 -0.20885
F_ F_ 0.31433 0.433813 0.827965 -0.20885
F_ F_ 0.329197 0.351973 0.803798 -0.20885
F_ F_ 0.385682 0.403106 0.797568 -0.20885
F_ F_ 0.07547 0.169271 0.559862 -0.20885
F_ F_ 0.0736141 0.18151 0.646267 -0.20885
F_ F_ 0.134873 0.203682 0.607222 -0.20885
F_ F_ 0.186436 0.0628076 0.677379 -0.20885
F_ F_ 0.179965 0.145412 0.685703 -0.20885
F_ F_ 0.116539 0.102509 0.701218 -0.20885
Zn Zn 0.0822937 0.575787 0.342934 0.83971
Zn Zn 0.163849 0.845947 0.0795965 0.83971
Zn Zn 0.405747 0.91239 0.157462 0.83971
Zn Zn 0.333 0.658515 0.414346 0.83971
H_ H_ 0.160914 0.624119 0.306342 0.10394
H_ H_ 0.24929 0.593025 0.288601 0.10394
H_ H_ 0.20078 0.95348 0.271514 0.10394
H_ H_ 0.121892 0.473569 0.307656 0.10394
H_ H_ 0.542419 0.599268 0.252335 0.10394
H_ H_ 0.505779 0.669668 0.204139 0.10394
H_ H_ 0.0279183 0.760714 0.335724 0.10394
H_ H_ 0.0703132 0.682852 0.374857 0.10394
H_ H_ 0.033009 0.94829 0.358678 0.10394
H_ H_ 0.490916 0.879153 0.367203 0.10394
H_ H_ 0.359955 0.987107 0.398985 0.10394
H_ H_ 0.0829783 0.804234 0.131942 0.10394
H_ H_ 0.507127 0.753034 0.102151 0.10394
H_ H_ 0.0489186 0.7789 0.445667 0.10394
H_ H_ 0.113938 0.830545 0.983021 0.10394
H_ H_ 0.24648 0.759579 0.0878864 0.10394
H_ H_ 0.275515 0.709005 0.159366 0.10394
H_ H_ 0.211473 0.821876 0.265298 0.10394
H_ H_ 0.186891 0.876739 0.191338 0.10394
H_ H_ 0.218154 0.883896 0.433414 0.10394
H_ H_ 0.277077 0.896523 0.373001 0.10394
H_ H_ 0.404698 0.884637 0.48353 0.10394
H_ H_ 0.299525 0.899664 0.16241 0.10394
H_ H_ 0.229028 0.949425 0.191465 0.10394
H_ H_ 0.332684 0.545603 0.276489 0.10394
H_ H_ 0.403336 0.00391000000000008 0.235205 0.10394
H_ H_ 0.0154239 0.88285 0.202834 0.10394
H_ H_ 0.0485699 0.80535 0.236463 0.10394
H_ H_ 0.423674 0.74217 0.223606 0.10394
H_ H_ 0.377476 0.820022 0.181288 0.10394
H_ H_ 0.469385 0.548071 0.108166 0.10394
H_ H_ 0.0194739 0.622615 0.110615 0.10394
H_ H_ 0.140561 0.508217 0.0925271 0.10394
H_ H_ 0.439452 0.657799 0.396786 0.10394
H_ H_ 0.0241059 0.683361 0.45934 0.10394
H_ H_ 0.416355 0.773882 0.0496094 0.10394
H_ H_ 0.342527 0.737685 0.497399 0.10394
H_ H_ 0.230056 0.686513 0.370641 0.10394
H_ H_ 0.19331 0.725673 0.295695 0.10394
H_ H_ 0.340767 0.725204 0.242114 0.10394
H_ H_ 0.376733 0.686159 0.319696 0.10394
H_ H_ 0.276511 0.646894 0.0643509 0.10394
H_ H_ 0.230423 0.617224 0.131559 0.10394
H_ H_ 0.101316 0.601975 0.0220455 0.10394
C_ C_ 0.173683 0.58356 0.308213 0.18167
C_ C_ 0.221456 0.565205 0.293282 -0.15533
C_ C_ 0.232379 0.5131 0.276157 0.02923
C_ C_ 0.197918 0.992524 0.283364 -0.15533
C_ C_ 0.152583 0.497093 0.306615 0.18167
C_ C_ 0.0167001 0.628033 0.267544 0.18167
C_ C_ 0.518617 0.677405 0.244744 -0.15533
C_ C_ -0.0012919999999999598 0.72187 0.26686 0.02923
C_ C_ 0.0241526 0.724861 0.317018 -0.15533
C_ C_ 0.0475072 0.680258 0.337122 0.18167
C_ C_ 0.0105073 0.538006 0.369262 0.69207
C_ C_ 0.478269 0.00670396 0.375528 0.02923
C_ C_ 0.498182 0.956372 0.375236 -0.15533
C_ C_ 0.471389 0.916346 0.376619 -0.15533
C_ C_ 0.418923 0.925679 0.387025 0.02923
C_ C_ 0.399895 0.977558 0.39508 -0.15533
C_ C_ 0.427296 0.0180429 0.388376 0.02923
C_ C_ 0.393113 0.574637 0.380943 0.69207
C_ C_ 0.408533 0.830301 0.38362 0.69661
C_ C_ 0.0732588 0.800175 0.0916628 0.18167
C_ C_ 0.0260257 0.78331 0.0711643 -0.15533
C_ C_ 0.0170782 0.772147 0.0192046 0.02923
C_ C_ 0.0552033 0.787737 0.487973 -0.15533
C_ C_ 0.0951419 0.808062 0.00682719 0.18167
C_ C_ 0.234946 0.773254 0.127569 0.18167
C_ C_ 0.25257 0.742408 0.168383 -0.15533
C_ C_ 0.241014 0.758173 0.217508 0.02923
C_ C_ 0.216101 0.806564 0.226832 -0.15533
C_ C_ 0.196819 0.836998 0.184155 0.18167
C_ C_ 0.245877 0.862007 0.0449783 0.69207
C_ C_ 0.278852 0.874025 0.496498 0.02923
C_ C_ 0.258649 0.884774 0.446569 -0.15533
C_ C_ 0.294677 0.891321 0.4117 -0.15533
C_ C_ 0.345099 0.892146 0.423383 0.02923
C_ C_ 0.365619 0.883523 0.473416 -0.15533
C_ C_ 0.331541 0.876817 0.510198 0.02923
C_ C_ 0.354534 0.878896 0.0699227 0.69207
C_ C_ 0.357592 0.886178 0.323879 0.69661
C_ C_ 0.307849 0.932267 0.187982 0.18167
C_ C_ 0.265189 0.963154 0.200072 -0.15533
C_ C_ 0.272883 1.00567493 0.235528 0.02923
C_ C_ 0.32566 0.510211 0.256963 -0.15533
C_ C_ 0.364079 0.990173 0.229922 0.18167
C_ C_ 0.492192 0.8603 0.215715 0.18167
C_ C_ 0.00981073 0.808471 0.227857 -0.15533
C_ C_ 0.49356 0.773455 0.241777 0.02923
C_ C_ 0.444971 0.773461 0.217962 -0.15533
C_ C_ 0.419025 0.817864 0.194048 0.18167
C_ C_ 0.485144 0.952309 0.133305 0.69207
C_ C_ 0.0184032 0.494966 0.116731 0.02923
C_ C_ 0.000525199 0.546693 0.119924 -0.15533
C_ C_ 0.0345775 0.585374 0.119201 -0.15533
C_ C_ 0.0862563 0.572155 0.112978 0.02923
C_ C_ 0.102238 0.51817 0.106057 -0.15533
C_ C_ 0.0698797 0.479102 0.110368 0.02923
C_ C_ 0.0993236 0.923636 0.10672 0.69207
C_ C_ 0.100924 0.668589 0.122563 0.69661
C_ C_ 0.435398 0.68317 0.431748 0.18167
C_ C_ 0.477554 0.703616 0.460592 -0.15533
C_ C_ 0.471021 0.745966 0.494929 0.02923
C_ C_ 0.423843 0.745932 0.0197153 -0.15533
C_ C_ 0.379037 0.734854 0.483528 0.18167
C_ C_ 0.254613 0.696287 0.343851 0.18167
C_ C_ 0.232697 0.718415 0.298559 -0.15533
C_ C_ 0.26449 0.728125 0.261358 0.02923
C_ C_ 0.317163 0.719684 0.2719 -0.15533
C_ C_ 0.336494 0.700054 0.316774 0.18167
C_ C_ 0.259561 0.61646 0.451526 0.69207
C_ C_ 0.223568 0.627471 1.000787141 0.02923
C_ C_ 0.240447 0.632467 0.0545769 -0.15533
C_ C_ 0.213328 0.617505 0.0929519 -0.15533
C_ C_ 0.162253 0.608367 0.0801668 0.02923
C_ C_ 0.141408 0.608877 0.0284973 -0.15533
C_ C_ 0.172156 0.614465 0.988271 0.02923
C_ C_ 0.147543 0.604581 0.424248 0.69207
C_ C_ 0.149642 0.6066 0.177009 0.69661
C_ C_ 0.382572 0.885133 0.380324 -0.30787
C_ C_ 0.124548 0.612491 0.122316 -0.30787
N_ N_ 0.139275 0.54912 0.311413 -0.32189
N_ N_ 0.0495142 0.633807 0.309261 -0.32189
N_ N_ 0.107876 0.808127 0.0595365 -0.32189
N_ N_ 0.201869 0.816247 0.136875 -0.32189
N_ N_ 0.355872 0.946853 0.19736 -0.32189
N_ N_ 0.442585 0.860229 0.194576 -0.32189
N_ N_ 0.38719 0.698119 0.445332 -0.32189
N_ N_ 0.306467 0.691922 0.353363 -0.32189
O_ O_ 0.504952 0.593025 0.400285 -0.63271
O_ O_ 0.0398482 0.528632 0.332203 -0.57982
O_ O_ 0.387848 0.594951 0.337819 -0.63271
O_ O_ 0.373511 0.598333 0.418901 -0.57982
O_ O_ 0.242613 0.89586 0.0854707 -0.63271
O_ O_ 0.20705 0.837816 0.0309213 -0.57982
O_ O_ 0.347566 0.840613 0.0982138 -0.63271
O_ O_ 0.37899 0.914697 0.0910215 -0.57982
O_ O_ 0.993976 0.907346 0.104782 -0.63271
O_ O_ 0.44651 0.964584 0.159966 -0.57982
O_ O_ 0.101086 0.89779 0.14793 -0.63271
O_ O_ 0.133444 0.907937 0.0753601 -0.57982
O_ O_ 0.270128 0.584643 0.41464 -0.63271
O_ O_ 0.286951 0.654096 0.46054 -0.57982
O_ O_ 0.15168 0.645192 0.400615 -0.63271
O_ O_ 0.112579 0.575331 0.405932 -0.57982
F_ F_ 0.444344 0.828687 0.425752 -0.20885
F_ F_ 0.43014 0.812787 0.338885 -0.20885
F_ F_ 0.375344 0.796339 0.388442 -0.20885
F_ F_ 0.332936 0.932951 0.308568 -0.20885
F_ F_ 0.332021 0.843928 0.304778 -0.20885
F_ F_ 0.3965 0.885123 0.291047 -0.20885
F_ F_ 0.0669161 0.679579 0.0798151 -0.20885
F_ F_ 0.0744046 0.686037 0.161261 -0.20885
F_ F_ 0.138438 0.700046 0.12395 -0.20885
F_ F_ 0.17832 0.559732 0.179179 -0.20885
F_ F_ 0.178442 0.645414 0.196324 -0.20885
F_ F_ 0.110211 0.609717 0.20944 -0.20885
Zn Zn 0.0871533 0.589491 0.85205 0.83971
Zn Zn 0.166888 0.843922 0.578179 0.83971
Zn Zn 0.408699 0.907447 0.649335 0.83971
Zn Zn 0.334748 0.655391 0.917645 0.83971
H_ H_ 0.162763 0.635129 0.806173 0.10394
H_ H_ 0.251838 0.602552 0.782869 0.10394
H_ H_ 0.210323 0.946869 0.781557 0.10394
H_ H_ 0.130915 0.486003 0.823914 0.10394
H_ H_ 0.533559 0.59351 0.762089 0.10394
H_ H_ 0.478781 0.663915 0.716189 0.10394
H_ H_ 0.0178508 0.772782 0.837435 0.10394
H_ H_ 0.0647867 0.699041 0.882007 0.10394
H_ H_ 0.0235218 0.946384 0.846701 0.10394
H_ H_ 0.471505 0.874378 0.855554 0.10394
H_ H_ 0.349088 0.986775 0.897721 0.10394
H_ H_ 0.0887387 0.810847 0.631088 0.10394
H_ H_ 0.503106 0.777883 0.599785 0.10394
H_ H_ 0.0439034 0.779147 0.945665 0.10394
H_ H_ 0.127223 0.814246 0.485004 0.10394
H_ H_ 0.233523 0.755118 0.59603 0.10394
H_ H_ 0.274901 0.704916 0.668441 0.10394
H_ H_ 0.214189 0.830325 0.7667 0.10394
H_ H_ 0.184192 0.880188 0.69268 0.10394
H_ H_ 0.217122 0.880488 0.949195 0.10394
H_ H_ 0.267048 0.889777 0.878458 0.10394
H_ H_ 0.402561 0.892852 0.985665 0.10394
H_ H_ 0.30348 0.886212 0.668388 0.10394
H_ H_ 0.232967 0.943822 0.687731 0.10394
H_ H_ 0.337325 0.545007 0.79022 0.10394
H_ H_ 0.403763 -0.0033450000000000424 0.725999 0.10394
H_ H_ 0.0171021 0.886231 0.696337 0.10394
H_ H_ 0.0524089 0.811155 0.742729 0.10394
H_ H_ 0.413665 0.741155 0.715212 0.10394
H_ H_ 0.375589 0.818808 0.67777 0.10394
H_ H_ 0.463298 0.564579 0.639854 0.10394
H_ H_ 0.0107093 0.625204 0.600598 0.10394
H_ H_ 0.137444 0.515609 0.593585 0.10394
H_ H_ 0.438575 0.662345 0.897233 0.10394
H_ H_ 0.0178714 0.688373 0.951459 0.10394
H_ H_ 0.415649 0.776565 0.546425 0.10394
H_ H_ 0.343327 0.741624 -0.00139855 0.10394
H_ H_ 0.23159 0.70385 0.881358 0.10394
H_ H_ 0.193871 0.736915 0.800689 0.10394
H_ H_ 0.340505 0.723181 0.743154 0.10394
H_ H_ 0.380718 0.691334 0.829758 0.10394
H_ H_ 0.279883 0.60856 0.558662 0.10394
H_ H_ 0.226434 0.615001 0.621266 0.10394
H_ H_ 0.0982588 0.59991 0.508224 0.10394
C_ C_ 0.176211 0.594092 0.8056 0.18167
C_ C_ 0.225187 0.575024 0.792996 -0.15533
C_ C_ 0.236006 0.522543 0.781238 0.02923
C_ C_ 0.20236 0.98667 0.782347 -0.15533
C_ C_ 0.157808 0.510489 0.814201 0.18167
C_ C_ 0.0247078 0.635889 0.774253 0.18167
C_ C_ 0.502916 0.672794 0.751007 -0.15533
C_ C_ 0.00434559 0.728017 0.760304 0.02923
C_ C_ 0.0263859 0.735905 0.815175 -0.15533
C_ C_ 0.0481057 0.693143 0.842808 0.18167
C_ C_ 0.00846154 0.546332 0.87327 0.69207
C_ C_ 0.47143 0.00336523 0.864339 0.02923
C_ C_ 0.488419 0.951071 0.855241 -0.15533
C_ C_ 0.457767 0.913439 0.866089 -0.15533
C_ C_ 0.409639 0.924932 0.884203 0.02923
C_ C_ 0.391394 0.976783 0.892705 -0.15533
C_ C_ 0.420273 0.0144299 0.87731 0.02923
C_ C_ 0.39346 0.569312 0.888824 0.69207
C_ C_ 0.406813 0.824912 0.887763 0.69661
C_ C_ 0.0758643 0.80504 0.591255 0.18167
C_ C_ 0.0283997 0.787577 0.573735 -0.15533
C_ C_ 0.0187831 0.775879 0.520173 0.02923
C_ C_ 0.0508203 0.785262 0.985885 -0.15533
C_ C_ 0.09871 0.808739 0.507956 0.18167
C_ C_ 0.228485 0.768085 0.634003 0.18167
C_ C_ 0.253656 0.743773 0.674033 -0.15533
C_ C_ 0.242735 0.762855 0.723268 0.02923
C_ C_ 0.218991 0.812316 0.730516 -0.15533
C_ C_ 0.199694 0.839543 0.687655 0.18167
C_ C_ 0.243981 0.868693 0.534712 0.69207
C_ C_ 0.280158 0.871622 0.00421592 0.02923
C_ C_ 0.257866 0.876085 0.954252 -0.15533
C_ C_ 0.286888 0.88227 0.915315 -0.15533
C_ C_ 0.341112 0.884867 0.925079 0.02923
C_ C_ 0.36249 0.888635 0.976095 -0.15533
C_ C_ 0.331601 0.881465 0.0156834 0.02923
C_ C_ 0.356163 0.870684 0.563939 0.69207
C_ C_ 0.353594 0.875741 0.825947 0.69661
C_ C_ 0.311382 0.923816 0.683244 0.18167
C_ C_ 0.270387 0.956069 0.700528 -0.15533
C_ C_ 0.278604 0.996358 0.7363 0.02923
C_ C_ 0.326502 0.522707 0.75562 -0.15533
C_ C_ 0.368953 0.981057 0.722577 0.18167
C_ C_ 0.498455 0.847336 0.698933 0.18167
C_ C_ 0.0149519 0.810733 0.721749 -0.15533
C_ C_ 0.486831 0.767908 0.738899 0.02923
C_ C_ 0.436262 0.771881 0.717982 -0.15533
C_ C_ 0.416778 0.815602 0.691142 0.18167
C_ C_ 0.479127 0.947659 0.619971 0.69207
C_ C_ 0.0156584 0.498195 0.613336 0.02923
C_ C_ 0.996933 0.550506 0.614252 -0.15533
C_ C_ 0.0287591 0.587245 0.607817 -0.15533
C_ C_ 0.0822454 0.575051 0.606128 0.02923
C_ C_ 0.100902 0.524721 0.60345 -0.15533
C_ C_ 0.0692979 0.485206 0.608672 0.02923
C_ C_ 0.102558 0.924888 0.602095 0.69207
C_ C_ 0.0984624 0.671908 0.616037 0.69661
C_ C_ 0.436413 0.680518 0.933087 0.18167
C_ C_ 0.480716 0.698586 0.961683 -0.15533
C_ C_ 0.474332 0.731973 0.00397219 0.02923
C_ C_ 0.421339 0.757426 0.5089 -0.15533
C_ C_ 0.382474 0.727618 0.989362 0.18167
C_ C_ 0.254981 0.703168 0.850745 0.18167
C_ C_ 0.235612 0.725991 0.80609 -0.15533
C_ C_ 0.267025 0.737913 0.770523 0.02923
C_ C_ 0.318698 0.718521 0.774 -0.15533
C_ C_ 0.337431 0.695712 0.821041 0.18167
C_ C_ 0.254774 0.632776 0.959136 0.69207
C_ C_ 0.2238 0.606503 0.489693 0.02923
C_ C_ 0.242435 0.602997 0.543247 -0.15533
C_ C_ 0.210309 0.60418 0.582327 -0.15533
C_ C_ 0.157127 0.605449 0.569951 0.02923
C_ C_ 0.138001 0.601483 0.516814 -0.15533
C_ C_ 0.170617 0.603335 0.47772 0.02923
C_ C_ 0.146372 0.618422 0.93359 0.69207
C_ C_ 0.146137 0.607999 0.669261 0.69661
C_ C_ 0.376882 0.879044 0.88303 -0.30787
C_ C_ 0.121327 0.61418 0.613941 -0.30787
N_ N_ 0.143281 0.561001 0.815801 -0.32189
N_ N_ 0.0491429 0.646186 0.821307 -0.32189
N_ N_ 0.109577 0.811725 0.558204 -0.32189
N_ N_ 0.204974 0.817926 0.640568 -0.32189
N_ N_ 0.359036 0.938808 0.690931 -0.32189
N_ N_ 0.446028 0.853852 0.685998 -0.32189
N_ N_ 0.389658 0.695145 0.948361 -0.32189
N_ N_ 0.306127 0.688795 0.858732 -0.32189
O_ O_ 0.503291 0.58882 0.908863 -0.63271
O_ O_ 0.0439782 0.535289 0.843106 -0.57982
O_ O_ 0.397236 0.592827 0.848332 -0.63271
O_ O_ 0.360179 0.588512 0.920076 -0.57982
O_ O_ 0.251993 0.889006 0.580545 -0.63271
O_ O_ 0.20414 0.841666 0.524428 -0.57982
O_ O_ 0.34917 0.832322 0.591837 -0.63271
O_ O_ 0.383541 0.906551 0.583519 -0.57982
O_ O_ 0.99515 0.908297 0.599594 -0.63271
O_ O_ 0.447924 0.957506 0.654791 -0.57982
O_ O_ 0.100836 0.901978 0.643563 -0.63271
O_ O_ 0.138382 0.908967 0.571456 -0.57982
O_ O_ 0.252357 0.602531 0.916885 -0.63271
O_ O_ 0.290939 0.662649 0.968521 -0.57982
O_ O_ 0.150611 0.659203 0.908796 -0.63271
O_ O_ 0.113037 0.587855 0.917305 -0.57982
F_ F_ 0.448869 0.823953 0.922154 -0.20885
F_ F_ 0.424859 0.800769 0.842056 -0.20885
F_ F_ 0.376513 0.790062 0.90357 -0.20885
F_ F_ 0.315825 0.917411 0.816647 -0.20885
F_ F_ 0.325401 0.832792 0.816729 -0.20885
F_ F_ 0.385578 0.87619 0.789031 -0.20885
F_ F_ 0.0709341 0.678401 0.57045 -0.20885
F_ F_ 0.064424 0.67904 0.652803 -0.20885
F_ F_ 0.131592 0.70605 0.624631 -0.20885
F_ F_ 0.175595 0.563739 0.673046 -0.20885
F_ F_ 0.178829 0.645214 0.689727 -0.20885
F_ F_ 0.110543 0.61113 0.704856 -0.20885
Zn Zn 0.586746 0.0848885 0.344526 0.83971
Zn Zn 0.663293 0.335531 0.0847731 0.83971
Zn Zn 0.905615 0.415945 0.152157 0.83971
Zn Zn 0.839636 0.150958 0.419234 0.83971
H_ H_ 0.673127 0.131258 0.308436 0.10394
H_ H_ 0.748357 0.09844 0.27422 0.10394
H_ H_ 0.719483 0.442056 0.303358 0.10394
H_ H_ 0.628645 0.980431 0.303274 0.10394
H_ H_ 0.0451443 0.104727 0.243786 0.10394
H_ H_ 0.99942 0.175285 0.201865 0.10394
H_ H_ 0.524374 0.268232 0.335802 0.10394
H_ H_ 0.568682 0.188643 0.37501 0.10394
H_ H_ 0.533321 0.451219 0.378262 0.10394
H_ H_ 0.987422 0.378494 0.411987 0.10394
H_ H_ 0.854817 0.487962 0.400848 0.10394
H_ H_ 0.591137 0.289618 0.132032 0.10394
H_ H_ 1.00541325 0.245607 0.0899538 0.10394
H_ H_ 0.541056 0.280329 0.441558 0.10394
H_ H_ 0.614852 0.329333 0.981228 0.10394
H_ H_ 0.733337 0.248 0.103054 0.10394
H_ H_ 0.770509 0.208402 0.185676 0.10394
H_ H_ 0.704646 0.341767 0.269481 0.10394
H_ H_ 0.677664 0.378025 0.18465 0.10394
H_ H_ 0.720377 0.359629 0.445093 0.10394
H_ H_ 0.774806 0.358423 0.378084 0.10394
H_ H_ 0.894669 0.40502 0.491444 0.10394
H_ H_ 0.807885 0.394314 0.164069 0.10394
H_ H_ 0.734982 0.444763 0.205443 0.10394
H_ H_ 0.829859 0.0472595 0.279767 0.10394
H_ H_ 0.909137 0.495539 0.239595 0.10394
H_ H_ 0.511664 0.386022 0.192878 0.10394
H_ H_ 0.554843 0.311836 0.240239 0.10394
H_ H_ 0.91124 0.245705 0.226351 0.10394
H_ H_ 0.872314 0.31731 0.17446 0.10394
H_ H_ 0.972775 0.0587549 0.134204 0.10394
H_ H_ 0.516411 0.121177 0.113457 0.10394
H_ H_ 0.635068 -0.000814441 0.0814609 0.10394
H_ H_ 0.944372 0.150916 0.413302 0.10394
H_ H_ 0.515103 0.189759 0.443305 0.10394
H_ H_ 0.921528 0.268959 0.0464093 0.10394
H_ H_ 0.840822 0.235474 0.507155 0.10394
H_ H_ 0.733861 0.20781 0.395934 0.10394
H_ H_ 0.693746 0.246466 0.314839 0.10394
H_ H_ 0.837144 0.231205 0.257911 0.10394
H_ H_ 0.8763 0.186528 0.332522 0.10394
H_ H_ 0.782517 0.116212 0.0488673 0.10394
H_ H_ 0.734538 0.0885958 0.111677 0.10394
H_ H_ 0.603145 0.0782399 -0.00112995 0.10394
C_ C_ 0.677776 0.091634 0.296743 0.18167
C_ C_ 0.721026 0.0723211 0.278065 -0.15533
C_ C_ 0.734296 0.0197056 0.270806 0.02923
C_ C_ 0.709428 0.483991 0.302848 -0.15533
C_ C_ 0.655346 0.00713631 0.300978 0.18167
C_ C_ 0.538505 0.138115 0.258895 0.18167
C_ C_ 0.0138327 0.182417 0.244107 -0.15533
C_ C_ 0.509955 0.226743 0.261587 0.02923
C_ C_ 0.528665 0.230985 0.313663 -0.15533
C_ C_ 0.552633 0.187729 0.335762 0.18167
C_ C_ 0.511053 0.0469537 0.369682 0.69207
C_ C_ 0.977368 0.501364 0.378956 0.02923
C_ C_ 0.997289 0.450043 0.386846 -0.15533
C_ C_ 0.96957 0.415152 0.403608 -0.15533
C_ C_ 0.91567 0.426144 0.398423 0.02923
C_ C_ 0.895803 0.477679 0.399515 -0.15533
C_ C_ 0.924951 0.515056 0.392789 0.02923
C_ C_ 0.891834 0.0683136 0.382608 0.69207
C_ C_ 0.901951 0.328694 0.389214 0.69661
C_ C_ 0.577622 0.291325 0.0900964 0.18167
C_ C_ 0.531148 0.27406 0.0723842 -0.15533
C_ C_ 0.51379 0.274401 0.0190433 0.02923
C_ C_ 0.54725 0.286119 0.483937 -0.15533
C_ C_ 0.593516 0.308236 0.00527064 0.18167
C_ C_ 0.730609 0.267369 0.140589 0.18167
C_ C_ 0.749528 0.244379 0.185844 -0.15533
C_ C_ 0.740375 0.271624 0.233734 0.02923
C_ C_ 0.714588 0.318902 0.23406 -0.15533
C_ C_ 0.695303 0.340316 0.186437 0.18167
C_ C_ 0.739535 0.36675 0.0402519 0.69207
C_ C_ 0.775699 0.374673 0.50693 0.02923
C_ C_ 0.760813 0.36115 0.455801 -0.15533
C_ C_ 0.788774 0.370632 0.415579 -0.15533
C_ C_ 0.83511 0.390005 0.428022 0.02923
C_ C_ 0.852863 0.399565 0.482004 -0.15533
C_ C_ 0.827006 0.386644 0.521668 0.02923
C_ C_ 0.850611 0.384019 0.0685308 0.69207
C_ C_ 0.855856 0.388575 0.332539 0.69661
C_ C_ 0.81415 0.425761 0.192755 0.18167
C_ C_ 0.773534 0.452109 0.218211 -0.15533
C_ C_ 0.782752 0.493726 0.252974 0.02923
C_ C_ 0.826632 0.0190227 0.250652 -0.15533
C_ C_ 0.870014 0.484104 0.231991 0.18167
C_ C_ 0.986068 0.360034 0.204999 0.18167
C_ C_ 0.512637 0.316708 0.230948 -0.15533
C_ C_ 0.987143 0.27749 0.239209 0.02923
C_ C_ 0.934471 0.277084 0.220656 -0.15533
C_ C_ 0.910424 0.318833 0.192922 0.18167
C_ C_ 0.980107 0.456062 0.122637 0.69207
C_ C_ 0.518361 0.992127 0.122717 0.02923
C_ C_ 0.501334 0.0444199 0.1253 -0.15533
C_ C_ 0.532561 0.0802456 0.11279 -0.15533
C_ C_ 0.585176 0.0640888 0.104476 0.02923
C_ C_ 0.598022 0.0120346 0.0946828 -0.15533
C_ C_ 0.568581 0.975844 0.108036 0.02923
C_ C_ 0.603822 0.417948 0.11622 0.69207
C_ C_ 0.603717 0.158767 0.0951313 0.69661
C_ C_ 0.937158 0.178391 0.443719 0.18167
C_ C_ 0.977647 0.198517 0.475646 -0.15533
C_ C_ 0.968275 0.239655 0.508049 0.02923
C_ C_ 0.922401 0.247763 0.00958574 -0.15533
C_ C_ 0.879708 0.226809 0.495691 0.18167
C_ C_ 0.754832 0.212353 0.364081 0.18167
C_ C_ 0.732404 0.232248 0.317185 -0.15533
C_ C_ 0.763065 0.249326 0.281185 0.02923
C_ C_ 0.812502 0.225807 0.285462 -0.15533
C_ C_ 0.834358 0.199166 0.328367 0.18167
C_ C_ 0.757976 0.12512 0.451792 0.69207
C_ C_ 0.725583 0.107843 0.982476 0.02923
C_ C_ 0.743668 0.106924 0.0360406 -0.15533
C_ C_ 0.715372 0.0947226 0.0741742 -0.15533
C_ C_ 0.663054 0.0882812 0.062719 0.02923
C_ C_ 0.643929 0.0837889 0.00828832 -0.15533
C_ C_ 0.6733 0.100165 0.971555 0.02923
C_ C_ 0.643848 0.115553 0.425998 0.69207
C_ C_ 0.653331 0.10409 0.160445 0.69661
C_ C_ 0.876314 0.385455 0.388321 -0.30787
C_ C_ 0.624518 0.102878 0.105301 -0.30787
N_ N_ 0.645288 0.058786 0.310183 -0.32189
N_ N_ 0.554108 0.142333 0.310562 -0.32189
N_ N_ 0.609787 0.302288 0.0554747 -0.32189
N_ N_ 0.699831 0.313925 0.142471 -0.32189
N_ N_ 0.860121 0.442939 0.19902 -0.32189
N_ N_ 0.936417 0.359332 0.185555 -0.32189
N_ N_ 0.889762 0.188925 0.457873 -0.32189
N_ N_ 0.804591 0.188684 0.364318 -0.32189
O_ O_ 0.00548863 0.0892732 0.393519 -0.63271
O_ O_ 0.552019 0.0348512 0.3468 -0.57982
O_ O_ 0.891738 0.0974953 0.342454 -0.63271
O_ O_ 0.862512 0.0856737 0.418352 -0.57982
O_ O_ 0.745432 0.39024 0.0852015 -0.63271
O_ O_ 0.708375 0.330442 0.0339624 -0.57982
O_ O_ 0.868567 0.340039 0.0865447 -0.63271
O_ O_ 0.864859 0.42552 0.0933159 -0.57982
O_ O_ 0.496492 0.403511 0.0971328 -0.63271
O_ O_ 0.948902 0.462773 0.157319 -0.57982
O_ O_ 0.59406 0.389356 0.151164 -0.63271
O_ O_ 0.640643 0.40092 0.086767 -0.57982
O_ O_ 0.75372 0.104734 0.402968 -0.63271
O_ O_ 0.79285 0.156135 0.464665 -0.57982
O_ O_ 0.648785 0.158081 0.403854 -0.63271
O_ O_ 0.604872 0.0917523 0.411283 -0.57982
F_ F_ 0.934058 0.319465 0.433019 -0.20885
F_ F_ 0.934868 0.315807 0.349611 -0.20885
F_ F_ 0.870219 0.292794 0.38531 -0.20885
F_ F_ 0.815848 0.426804 0.333272 -0.20885
F_ F_ 0.831506 0.347861 0.307283 -0.20885
F_ F_ 0.891744 0.400432 0.300695 -0.20885
F_ F_ 0.565146 0.161317 0.0561526 -0.20885
F_ F_ 0.584721 0.184615 0.139147 -0.20885
F_ F_ 0.642649 0.186168 0.0832473 -0.20885
F_ F_ 0.679961 0.0579209 0.172367 -0.20885
F_ F_ 0.682365 0.144014 0.169065 -0.20885
F_ F_ 0.618269 0.110874 0.195959 -0.20885
Zn Zn 0.586509 0.0837314 0.839593 0.83971
Zn Zn 0.655036 0.352207 0.585083 0.83971
Zn Zn 0.900234 0.419921 0.65809 0.83971
Zn Zn 0.837456 0.15552 0.910717 0.83971
H_ H_ 0.666019 0.135677 0.805844 0.10394
H_ H_ 0.747011 0.103791 0.763534 0.10394
H_ H_ 0.702628 0.450654 0.793055 0.10394
H_ H_ 0.631191 0.983059 0.806926 0.10394
H_ H_ 0.0244216 0.0968909 0.742674 0.10394
H_ H_ 0.985853 0.17221 0.695917 0.10394
H_ H_ 0.524279 0.264935 0.826336 0.10394
H_ H_ 0.567798 0.195759 0.864655 0.10394
H_ H_ 0.532415 0.443066 0.891029 0.10394
H_ H_ 0.975671 0.379017 0.866688 0.10394
H_ H_ 0.849104 0.492245 0.896065 0.10394
H_ H_ 0.576573 0.303743 0.632602 0.10394
H_ H_ -0.00708636 0.274048 0.60361 0.10394
H_ H_ 0.537191 0.29504 0.947841 0.10394
H_ H_ 0.607323 0.337529 0.484087 0.10394
H_ H_ 0.701544 0.247843 0.59194 0.10394
H_ H_ 0.74098 0.198701 0.666689 0.10394
H_ H_ 0.709972 0.333929 0.762962 0.10394
H_ H_ 0.671004 0.375296 0.689996 0.10394
H_ H_ 0.715629 0.367366 0.931728 0.10394
H_ H_ 0.76166 0.398619 0.875069 0.10394
H_ H_ 0.895985 0.401362 0.982535 0.10394
H_ H_ 0.797564 0.400407 0.661446 0.10394
H_ H_ 0.723778 0.458176 0.68659 0.10394
H_ H_ 0.835858 0.0482798 0.779362 0.10394
H_ H_ 0.894323 0.508902 0.726313 0.10394
H_ H_ 0.515223 0.383023 0.692141 0.10394
H_ H_ 0.553855 0.300179 0.731231 0.10394
H_ H_ 0.908865 0.250386 0.730464 0.10394
H_ H_ 0.867116 0.326485 0.686927 0.10394
H_ H_ 0.965535 0.0545946 0.607433 0.10394
H_ H_ 0.508925 0.114553 0.6155 0.10394
H_ H_ 0.6315 0.00327848 0.579673 0.10394
H_ H_ 0.939432 0.169678 0.880582 0.10394
H_ H_ 0.515369 0.204801 0.939132 0.10394
H_ H_ 0.908252 0.290218 0.54467 0.10394
H_ H_ 0.842953 0.23369 -0.005237000000000047 0.10394
H_ H_ 0.733679 0.196457 0.885133 0.10394
H_ H_ 0.682829 0.231949 0.807115 0.10394
H_ H_ 0.829205 0.228274 0.745703 0.10394
H_ H_ 0.867255 0.187818 0.819104 0.10394
H_ H_ 0.783261 0.113341 0.552541 0.10394
H_ H_ 0.726915 0.0998856 0.620236 0.10394
H_ H_ 0.595686 0.102237 0.505854 0.10394
C_ C_ 0.678723 0.0947897 0.802502 0.18167
C_ C_ 0.723997 0.0774144 0.775422 -0.15533
C_ C_ 0.73499 0.0248596 0.766053 0.02923
C_ C_ 0.699999 0.49148 0.800537 -0.15533
C_ C_ 0.655132 0.01046 0.798487 0.18167
C_ C_ 0.52287 0.131983 0.760831 0.18167
C_ C_ 0.00340617 0.178075 0.733338 -0.15533
C_ C_ 0.502341 0.223828 0.755086 0.02923
C_ C_ 0.523638 0.229878 0.805432 -0.15533
C_ C_ 0.547634 0.186629 0.830126 0.18167
C_ C_ 0.508027 0.0423794 0.858087 0.69207
C_ C_ 0.974717 0.508005 0.882353 0.02923
C_ C_ 0.99082 0.45621 0.869724 -0.15533
C_ C_ 0.959271 0.417308 0.872467 -0.15533
C_ C_ 0.909566 0.428142 0.887547 0.02923
C_ C_ 0.890813 0.47863 0.892443 -0.15533
C_ C_ 0.921986 0.51982 0.889035 0.02923
C_ C_ 0.897402 0.0767627 0.879148 0.69207
C_ C_ 0.894831 0.332408 0.886521 0.69661
C_ C_ 0.564902 0.305683 0.5902 0.18167
C_ C_ 0.520937 0.28412 0.569159 -0.15533
C_ C_ 0.513725 0.270837 0.516512 0.02923
C_ C_ 0.547529 0.289828 0.988131 -0.15533
C_ C_ 0.586149 0.316208 0.505769 0.18167
C_ C_ 0.713579 0.2686 0.628936 0.18167
C_ C_ 0.734577 0.239144 0.671823 -0.15533
C_ C_ 0.731465 0.262092 0.721175 0.02923
C_ C_ 0.709605 0.312968 0.726803 -0.15533
C_ C_ 0.686099 0.337514 0.684413 0.18167
C_ C_ 0.738208 0.373783 0.544994 0.69207
C_ C_ 0.773683 0.376137 0.999301324 0.02923
C_ C_ 0.754283 0.376948 0.94854 -0.15533
C_ C_ 0.783749 0.390111 0.911824 -0.15533
C_ C_ 0.834837 0.396671 0.922656 0.02923
C_ C_ 0.855631 0.394139 0.97554 -0.15533
C_ C_ 0.826009 0.385238 0.0131453 0.02923
C_ C_ 0.850079 0.386757 0.573681 0.69207
C_ C_ 0.84217 0.388173 0.825443 0.69661
C_ C_ 0.802574 0.433391 0.6865 0.18167
C_ C_ 0.76103 0.461993 0.707844 -0.15533
C_ C_ 0.769589 0.500045 0.745108 0.02923
C_ C_ 0.829559 0.0181013 0.749982 -0.15533
C_ C_ 0.85953 0.49213 0.727021 0.18167
C_ C_ 0.986631 0.360175 0.698679 0.18167
C_ C_ 0.511918 0.309622 0.720037 -0.15533
C_ C_ 0.985394 0.270738 0.724463 0.02923
C_ C_ 0.932029 0.279046 0.720771 -0.15533
C_ C_ 0.90717 0.324631 0.699176 0.18167
C_ C_ 0.980116 0.457912 0.616391 0.69207
C_ C_ 0.515685 0.985548 0.614624 0.02923
C_ C_ 0.496727 0.0367769 0.617922 -0.15533
C_ C_ 0.525085 0.0749679 0.606533 -0.15533
C_ C_ 0.575666 0.0629345 0.598303 0.02923
C_ C_ 0.594671 0.012348 0.596088 -0.15533
C_ C_ 0.565131 0.972242 0.599967 0.02923
C_ C_ 0.597123 0.432592 0.613266 0.69207
C_ C_ 0.591663 0.158343 0.609218 0.69661
C_ C_ 0.932985 0.187788 0.919702 0.18167
C_ C_ 0.975513 0.204896 0.949495 -0.15533
C_ C_ 0.969778 0.239645 -0.008790999999999993 0.02923
C_ C_ 0.917766 0.255279 0.517925 -0.15533
C_ C_ 0.881117 0.227059 0.981134 0.18167
C_ C_ 0.753124 0.203658 0.851424 0.18167
C_ C_ 0.725848 0.227184 0.808275 -0.15533
C_ C_ 0.753672 0.233481 0.766895 0.02923
C_ C_ 0.805349 0.22029 0.771997 -0.15533
C_ C_ 0.828228 0.194243 0.813478 0.18167
C_ C_ 0.760705 0.118502 0.944441 0.69207
C_ C_ 0.722888 0.113244 0.490986 0.02923
C_ C_ 0.741882 0.114866 0.542685 -0.15533
C_ C_ 0.710288 0.105276 0.581441 -0.15533
C_ C_ 0.657376 0.0985572 0.568056 0.02923
C_ C_ 0.637383 0.0984534 0.516213 -0.15533
C_ C_ 0.669336 0.109864 0.479089 0.02923
C_ C_ 0.648101 0.102466 0.918818 0.69207
C_ C_ 0.640339 0.0962869 0.663772 0.69661
C_ C_ 0.87284 0.385632 0.881137 -0.30787
C_ C_ 0.616398 0.101938 0.606885 -0.30787
N_ N_ 0.645094 0.0601052 0.810248 -0.32189
N_ N_ 0.548099 0.140755 0.805909 -0.32189
N_ N_ 0.598461 0.319265 0.557092 -0.32189
N_ N_ 0.689006 0.316839 0.637397 -0.32189
N_ N_ 0.851766 0.446635 0.699645 -0.32189
N_ N_ 0.933751 0.362545 0.688118 -0.32189
N_ N_ 0.88767 0.196377 0.938212 -0.32189
N_ N_ 0.803183 0.18757 0.852341 -0.32189
O_ O_ 0.00712255 0.0900663 0.889903 -0.63271
O_ O_ 0.545463 0.0336334 0.828478 -0.57982
O_ O_ 0.890183 0.103533 0.83748 -0.63271
O_ O_ 0.87794 0.0943238 0.920789 -0.57982
O_ O_ 0.739 0.405212 0.585173 -0.63271
O_ O_ 0.700379 0.344678 0.534992 -0.57982
O_ O_ 0.850683 0.345448 0.599693 -0.63271
O_ O_ 0.872361 0.425419 0.593497 -0.57982
O_ O_ 0.489132 0.416839 0.595437 -0.63271
O_ O_ 0.945275 0.46654 0.647885 -0.57982
O_ O_ 0.590733 0.40216 0.649747 -0.63271
O_ O_ 0.633905 0.418352 0.58403 -0.57982
O_ O_ 0.767054 0.088638 0.903 -0.63271
O_ O_ 0.789753 0.155008 0.955571 -0.57982
O_ O_ 0.647419 0.145177 0.894819 -0.63271
O_ O_ 0.61458 0.0714639 0.903162 -0.57982
F_ F_ 0.92642 0.326288 0.930607 -0.20885
F_ F_ 0.920116 0.308461 0.846321 -0.20885
F_ F_ 0.859143 0.298853 0.886958 -0.20885
F_ F_ 0.813336 0.433823 0.819221 -0.20885
F_ F_ 0.813702 0.347568 0.809857 -0.20885
F_ F_ 0.873073 0.388618 0.787949 -0.20885
F_ F_ 0.555587 0.167076 0.567875 -0.20885
F_ F_ 0.567537 0.173402 0.651078 -0.20885
F_ F_ 0.626201 0.194295 0.604314 -0.20885
F_ F_ 0.675181 0.0531368 0.665691 -0.20885
F_ F_ 0.664634 0.137651 0.678978 -0.20885
F_ F_ 0.605701 0.0931441 0.698003 -0.20885
Zn Zn 0.592565 0.584587 0.356478 0.83971
Zn Zn 0.658974 0.847655 0.0896517 0.83971
Zn Zn 0.910898 0.91801 0.153165 0.83971
Zn Zn 0.845893 0.654214 0.421102 0.83971
H_ H_ 0.672471 0.628491 0.321281 0.10394
H_ H_ 0.748635 0.597497 0.271877 0.10394
H_ H_ 0.718009 0.946952 0.289252 0.10394
H_ H_ 0.634482 0.47922 0.325149 0.10394
H_ H_ 0.0107164 0.590891 0.25044 0.10394
H_ H_ 0.974432 0.669451 0.205755 0.10394
H_ H_ 0.540623 0.770736 0.338003 0.10394
H_ H_ 0.570151 0.69569 0.389079 0.10394
H_ H_ 0.536701 0.947641 0.376957 0.10394
H_ H_ 0.98275 0.880432 0.367686 0.10394
H_ H_ 0.854776 0.98574 0.39888 0.10394
H_ H_ 0.588934 0.789904 0.141235 0.10394
H_ H_ 0.99614757 0.783798 0.0968476 0.10394
H_ H_ 0.538358 0.793554 0.442506 0.10394
H_ H_ 0.61707 0.815438 0.990304 0.10394
H_ H_ 0.723117 0.753881 0.100082 0.10394
H_ H_ 0.766325 0.710932 0.179927 0.10394
H_ H_ 0.72696 0.847423 0.269788 0.10394
H_ H_ 0.677661 0.881833 0.195263 0.10394
H_ H_ 0.718149 0.863838 0.43911 0.10394
H_ H_ 0.774151 0.875973 0.371989 0.10394
H_ H_ 0.893698 0.906598 0.488335 0.10394
H_ H_ 0.811242 0.901274 0.159496 0.10394
H_ H_ 0.736776 0.952409 0.189277 0.10394
H_ H_ 0.84079 0.546429 0.282807 0.10394
H_ H_ 0.90718 1.0067039 0.240733 0.10394
H_ H_ 0.512541 0.895765 0.218395 0.10394
H_ H_ 0.560817 0.813946 0.246942 0.10394
H_ H_ 0.904928 0.745808 0.211227 0.10394
H_ H_ 0.869671 0.82977 0.179029 0.10394
H_ H_ 0.959156 0.556865 0.126381 0.10394
H_ H_ 0.524346 0.614159 0.108258 0.10394
H_ H_ 0.654304 0.495957 0.104174 0.10394
H_ H_ 0.94914 0.653045 0.406264 0.10394
H_ H_ 0.516951 0.689193 0.45286 0.10394
H_ H_ 0.917044 0.785483 0.0391951 0.10394
H_ H_ 0.850866 0.744305 0.502346 0.10394
H_ H_ 0.739605 0.706469 0.389702 0.10394
H_ H_ 0.699371 0.754095 0.320154 0.10394
H_ H_ 0.845362 0.737262 0.257863 0.10394
H_ H_ 0.879862 0.680971 0.325738 0.10394
H_ H_ 0.794004 0.619242 0.0551504 0.10394
H_ H_ 0.747069 0.591404 0.116874 0.10394
H_ H_ 0.614188 0.582097 0.0149688 0.10394
C_ C_ 0.683788 0.586969 0.313026 0.18167
C_ C_ 0.728149 0.5698 0.288465 -0.15533
C_ C_ 0.740743 0.51622 0.284909 0.02923
C_ C_ 0.704222 0.987505 0.288207 -0.15533
C_ C_ 0.662572 0.504481 0.318168 0.18167
C_ C_ 0.543723 0.63747 0.271271 0.18167
C_ C_ -0.009623000000000048 0.671595 0.245315 -0.15533
C_ C_ 0.517447 0.726098 0.270045 0.02923
C_ C_ 0.532441 0.733608 0.323598 -0.15533
C_ C_ 0.559496 0.691387 0.347746 0.18167
C_ C_ 0.504888 0.550888 0.36886 0.69207
C_ C_ 0.972263 0.00748548 0.372425 0.02923
C_ C_ -0.006577000000000055 0.956889 0.366472 -0.15533
C_ C_ 0.965142 0.917668 0.374375 -0.15533
C_ C_ 0.914316 0.926464 0.386816 0.02923
C_ C_ 0.893555 0.976332 0.392861 -0.15533
C_ C_ 0.920752 0.016622 0.38284 0.02923
C_ C_ 0.901981 0.569019 0.392863 0.69207
C_ C_ 0.90917 0.825918 0.391707 0.69661
C_ C_ 0.573323 0.791586 0.100178 0.18167
C_ C_ 0.528872 0.771457 0.0805073 -0.15533
C_ C_ 0.516182 0.763263 0.0262723 0.02923
C_ C_ 0.549222 0.787567 0.482055 -0.15533
C_ C_ 0.591985 0.806414 0.0171427 0.18167
C_ C_ 0.720996 0.771756 0.139571 0.18167
C_ C_ 0.745232 0.748198 0.184131 -0.15533
C_ C_ 0.743398 0.770624 0.232572 0.02923
C_ C_ 0.719763 0.821873 0.235425 -0.15533
C_ C_ 0.693343 0.843865 0.193033 0.18167
C_ C_ 0.737691 0.869988 0.0430155 0.69207
C_ C_ 0.777305 0.869892 0.500061 0.02923
C_ C_ 0.759375 0.864017 0.448365 -0.15533
C_ C_ 0.78991 0.874926 0.411529 -0.15533
C_ C_ 0.83986 0.889664 0.422928 0.02923
C_ C_ 0.856484 0.89651 0.47558 -0.15533
C_ C_ 0.828241 0.883364 0.512815 0.02923
C_ C_ 0.851713 0.886438 0.0712458 0.69207
C_ C_ 0.857297 0.878609 0.326124 0.69661
C_ C_ 0.814952 0.936443 0.182179 0.18167
C_ C_ 0.774496 0.958606 0.208438 -0.15533
C_ C_ 0.779088 0.999704983 0.243837 0.02923
C_ C_ 0.832376 0.510473 0.25991 -0.15533
C_ C_ 0.869488 0.994277 0.227136 0.18167
C_ C_ 0.990034 0.855227 0.208442 0.18167
C_ C_ 0.519301 0.816855 0.23996 -0.15533
C_ C_ 0.977226 0.771945 0.239028 0.02923
C_ C_ 0.925119 0.779025 0.220332 -0.15533
C_ C_ 0.906613 0.824887 0.198274 0.18167
C_ C_ 0.991202 0.952203 0.127391 0.69207
C_ C_ 0.529299 0.484932 0.114871 0.02923
C_ C_ 0.511141 0.536391 0.113144 -0.15533
C_ C_ 0.541934 0.574004 0.111004 -0.15533
C_ C_ 0.595873 0.56087 0.109922 0.02923
C_ C_ 0.614375 0.508029 0.108223 -0.15533
C_ C_ 0.582519 0.471623 0.115151 0.02923
C_ C_ 0.590574 0.922507 0.109159 0.69207
C_ C_ 0.610034 0.657174 0.114266 0.69661
C_ C_ 0.943047 0.678681 0.437337 0.18167
C_ C_ 0.985691 0.701175 0.464146 -0.15533
C_ C_ 0.976781 0.742995 0.4999 0.02923
C_ C_ 0.924369 0.754672 1.0114333 -0.15533
C_ C_ 0.888999 0.733732 0.487703 0.18167
C_ C_ 0.761404 0.707676 0.359763 0.18167
C_ C_ 0.738447 0.734374 0.319091 -0.15533
C_ C_ 0.768727 0.744606 0.280025 0.02923
C_ C_ 0.818707 0.726052 0.284136 -0.15533
C_ C_ 0.840269 0.696491 0.324016 0.18167
C_ C_ 0.764874 0.622739 0.458642 0.69207
C_ C_ 0.730213 0.620327 0.99484 0.02923
C_ C_ 0.752185 0.620682 0.046192 -0.15533
C_ C_ 0.724245 0.606032 0.083684 -0.15533
C_ C_ 0.671324 0.599202 0.07452 0.02923
C_ C_ 0.651925 0.593685 0.0234752 -0.15533
C_ C_ 0.679388 0.606939 0.983885 0.02923
C_ C_ 0.653022 0.615392 0.43391 0.69207
C_ C_ 0.661623 0.59863 0.171573 0.69661
C_ C_ 0.882495 0.880806 0.38316 -0.30787
C_ C_ 0.634587 0.600578 0.116674 -0.30787
N_ N_ 0.650452 0.555142 0.32371 -0.32189
N_ N_ 0.563572 0.643773 0.322537 -0.32189
N_ N_ 0.601708 0.810872 0.0686179 -0.32189
N_ N_ 0.69113 0.816822 0.145977 -0.32189
N_ N_ 0.863247 0.953951 0.191335 -0.32189
N_ N_ 0.938683 0.862475 0.191898 -0.32189
N_ N_ 0.896056 0.694516 0.452707 -0.32189
N_ N_ 0.811147 0.688991 0.361496 -0.32189
O_ O_ 0.0110276 0.582245 0.397037 -0.63271
O_ O_ 0.544268 0.539472 0.342609 -0.57982
O_ O_ 0.903797 0.594728 0.353681 -0.63271
O_ O_ 0.877152 0.588804 0.429599 -0.57982
O_ O_ 0.740297 0.892566 0.0882104 -0.63271
O_ O_ 0.698378 0.842066 0.0311372 -0.57982
O_ O_ 0.852306 0.844763 0.0968733 -0.63271
O_ O_ 0.879493 0.920785 0.0866868 -0.57982
O_ O_ 0.487961 0.906338 0.109328 -0.63271
O_ O_ 0.958236 0.963208 0.160738 -0.57982
O_ O_ 0.588138 0.899322 0.152437 -0.63271
O_ O_ 0.627279 0.908694 0.0805684 -0.57982
O_ O_ 0.759365 0.596532 0.415084 -0.63271
O_ O_ 0.801 0.653433 0.467569 -0.57982
O_ O_ 0.659281 0.655366 0.406783 -0.63271
O_ O_ 0.619548 0.58241 0.419985 -0.57982
F_ F_ 0.94011 0.826392 0.436354 -0.20885
F_ F_ 0.940539 0.803881 0.356415 -0.20885
F_ F_ 0.876191 0.790728 0.395317 -0.20885
F_ F_ 0.821681 0.918918 0.317216 -0.20885
F_ F_ 0.8349 0.833172 0.311006 -0.20885
F_ F_ 0.893806 0.879615 0.292608 -0.20885
F_ F_ 0.581886 0.66881 0.0679498 -0.20885
F_ F_ 0.578106 0.672681 0.15139 -0.20885
F_ F_ 0.64698 0.68936 0.1224 -0.20885
F_ F_ 0.691414 0.553667 0.173808 -0.20885
F_ F_ 0.69435 0.636594 0.188784 -0.20885
F_ F_ 0.625966 0.603629 0.206732 -0.20885
Zn Zn 0.585898 0.587767 0.857407 0.83971
Zn Zn 0.661283 0.844118 0.583035 0.83971
Zn Zn 0.911574 0.919721 0.653982 0.83971
Zn Zn 0.841152 0.658471 0.917426 0.83971
H_ H_ 0.669321 0.63717 0.816672 0.10394
H_ H_ 0.741992 0.602517 0.771356 0.10394
H_ H_ 0.710036 0.950705 0.77471 0.10394
H_ H_ 0.637709 0.487552 0.844804 0.10394
H_ H_ 0.0201679 0.597469 0.766169 0.10394
H_ H_ 0.98452 0.664631 0.706067 0.10394
H_ H_ 0.530644 0.770967 0.8374 0.10394
H_ H_ 0.568562 0.695983 0.884324 0.10394
H_ H_ 0.526488 0.942932 0.848411 0.10394
H_ H_ 0.975838 0.879263 0.859426 0.10394
H_ H_ 0.851107 0.992021 0.892116 0.10394
H_ H_ 0.586266 0.805567 0.625631 0.10394
H_ H_ -0.00181905 0.784396 0.600376 0.10394
H_ H_ 0.539217 0.780336 0.95404 0.10394
H_ H_ 0.612237 0.827243 0.47652 0.10394
H_ H_ 0.722863 0.757184 0.598396 0.10394
H_ H_ 0.763366 0.705849 0.669462 0.10394
H_ H_ 0.717599 0.833304 0.77371 0.10394
H_ H_ 0.683624 0.880774 0.697831 0.10394
H_ H_ 0.711414 0.883521 0.946011 0.10394
H_ H_ 0.767551 0.885176 0.873321 0.10394
H_ H_ 0.894967 0.907655 0.984249 0.10394
H_ H_ 0.806447 0.907509 0.653936 0.10394
H_ H_ 0.731995 0.958115 0.682212 0.10394
H_ H_ 0.828679 0.550021 0.772834 0.10394
H_ H_ 0.909791 0.99751405 0.737261 0.10394
H_ H_ 0.52097 0.879133 0.695336 0.10394
H_ H_ 0.557473 0.803119 0.745539 0.10394
H_ H_ 0.911963 0.744241 0.706116 0.10394
H_ H_ 0.870559 0.830088 0.683916 0.10394
H_ H_ 0.956708 0.558517 0.608622 0.10394
H_ H_ 0.515069 0.629763 0.614286 0.10394
H_ H_ 0.638777 0.515421 0.592369 0.10394
H_ H_ 0.946828 0.655886 0.902559 0.10394
H_ H_ 0.517677 0.681834 0.949642 0.10394
H_ H_ 0.921122 0.789191 0.534612 0.10394
H_ H_ 0.848519 0.738694 1.000228558 0.10394
H_ H_ 0.733876 0.708065 0.892224 0.10394
H_ H_ 0.694773 0.746253 0.809853 0.10394
H_ H_ 0.839517 0.744246 0.756911 0.10394
H_ H_ 0.876797 0.697681 0.836288 0.10394
H_ H_ 0.790239 0.611717 0.561845 0.10394
H_ H_ 0.735872 0.614255 0.628567 0.10394
H_ H_ 0.604692 0.593584 0.516331 0.10394
C_ C_ 0.67535 0.595555 0.807222 0.18167
C_ C_ 0.718374 0.577273 0.784517 -0.15533
C_ C_ 0.727508 0.523863 0.775233 0.02923
C_ C_ 0.698203 0.992183 0.777108 -0.15533
C_ C_ 0.657097 0.51304 0.824927 0.18167
C_ C_ 0.529999 0.633713 0.776829 0.18167
C_ C_ -0.000376204 0.675936 0.744493 -0.15533
C_ C_ 0.505532 0.723296 0.771404 0.02923
C_ C_ 0.528095 0.730963 0.821214 -0.15533
C_ C_ 0.548393 0.689059 0.848008 0.18167
C_ C_ 0.507682 0.546498 0.883379 0.69207
C_ C_ 0.969096 0.0104761 0.864494 0.02923
C_ C_ -0.014004000000000016 0.957728 0.855477 -0.15533
C_ C_ 0.958251 0.919519 0.865524 -0.15533
C_ C_ 0.909643 0.932337 0.883743 0.02923
C_ C_ 0.889696 0.98463 0.886435 -0.15533
C_ C_ 0.920668 0.0230304 0.880265 0.02923
C_ C_ 0.898022 0.572874 0.886609 0.69207
C_ C_ 0.898497 0.836729 0.889195 0.69661
C_ C_ 0.577574 0.796417 0.585798 0.18167
C_ C_ 0.528036 0.781914 0.569415 -0.15533
C_ C_ 0.513821 0.772598 0.516274 0.02923
C_ C_ 0.548508 0.781509 0.995212 -0.15533
C_ C_ 0.59554 0.804211 0.501698 0.18167
C_ C_ 0.722792 0.772262 0.635433 0.18167
C_ C_ 0.744166 0.743266 0.677306 -0.15533
C_ C_ 0.741608 0.764823 0.727578 0.02923
C_ C_ 0.71513 0.813401 0.734226 -0.15533
C_ C_ 0.69787 0.841896 0.691358 0.18167
C_ C_ 0.741429 0.865077 0.540537 0.69207
C_ C_ 0.773724 0.875274 1.00442856 0.02923
C_ C_ 0.754498 0.879619 0.953849 -0.15533
C_ C_ 0.784118 0.884995 0.913611 -0.15533
C_ C_ 0.837367 0.893706 0.925062 0.02923
C_ C_ 0.856565 0.897201 0.976268 -0.15533
C_ C_ 0.827373 0.885054 0.0162841 0.02923
C_ C_ 0.855057 0.883382 0.567249 0.69207
C_ C_ 0.848768 0.885639 0.825185 0.69661
C_ C_ 0.812863 0.936851 0.681082 0.18167
C_ C_ 0.770909 0.966943 0.699321 -0.15533
C_ C_ 0.778773 0.00608408 0.736936 0.02923
C_ C_ 0.817362 0.519232 0.74749 -0.15533
C_ C_ 0.871172 0.988444 0.729189 0.18167
C_ C_ 0.991861 0.857674 0.704036 0.18167
C_ C_ 0.516532 0.807556 0.73123 -0.15533
C_ C_ 0.985976 0.770137 0.725382 0.02923
C_ C_ 0.934236 0.776765 0.706417 -0.15533
C_ C_ 0.910579 0.823987 0.688187 0.18167
C_ C_ 0.99112 0.955665 0.621449 0.69207
C_ C_ 0.519787 0.500956 0.621372 0.02923
C_ C_ 0.500807 0.552777 0.625982 -0.15533
C_ C_ 0.532577 0.589458 0.615454 -0.15533
C_ C_ 0.583904 0.578241 0.607451 0.02923
C_ C_ 0.600747 0.525678 0.604535 -0.15533
C_ C_ 0.571726 0.487104 0.611832 0.02923
C_ C_ 0.593995 0.919318 0.60378 0.69207
C_ C_ 0.603618 0.673885 0.616317 0.69661
C_ C_ 0.939608 0.682755 0.932765 0.18167
C_ C_ 0.980128 0.704963 0.958643 -0.15533
C_ C_ 0.973238 0.742178 0.997972 0.02923
C_ C_ 0.928323 0.757658 0.511532 -0.15533
C_ C_ 0.884645 0.728468 0.987629 0.18167
C_ C_ 0.754282 0.71008 0.857997 0.18167
C_ C_ 0.733194 0.730769 0.812235 -0.15533
C_ C_ 0.763508 0.738419 0.772824 0.02923
C_ C_ 0.815817 0.727938 0.781979 -0.15533
C_ C_ 0.836457 0.705275 0.826682 0.18167
C_ C_ 0.763473 0.626817 0.954072 0.69207
C_ C_ 0.728836 0.620978 0.499698 0.02923
C_ C_ 0.747535 0.621301 0.551274 -0.15533
C_ C_ 0.716413 0.614731 0.589234 -0.15533
C_ C_ 0.66285 0.612316 0.575445 0.02923
C_ C_ 0.64473 0.604016 0.524444 -0.15533
C_ C_ 0.676198 0.612414 0.486843 0.02923
C_ C_ 0.651974 0.609098 0.932145 0.69207
C_ C_ 0.647921 0.607394 0.672092 0.69661
C_ C_ 0.873692 0.890233 0.882288 -0.30787
C_ C_ 0.624179 0.617696 0.616342 -0.30787
N_ N_ 0.644239 0.564202 0.82353 -0.32189
N_ N_ 0.553505 0.644009 0.822768 -0.32189
N_ N_ 0.610241 0.80677 0.55202 -0.32189
N_ N_ 0.696821 0.818523 0.643665 -0.32189
N_ N_ 0.860867 0.949501 0.694845 -0.32189
N_ N_ 0.939999 0.862919 0.686615 -0.32189
N_ N_ 0.89253 0.692786 0.947834 -0.32189
N_ N_ 0.807487 0.699194 0.8639 -0.32189
O_ O_ 1.00726239 0.589014 0.900551 -0.63271
O_ O_ 0.53933 0.540294 0.848172 -0.57982
O_ O_ 0.897995 0.596401 0.845096 -0.63271
O_ O_ 0.863724 0.589546 0.9173 -0.57982
O_ O_ 0.747194 0.892617 0.583741 -0.63271
O_ O_ 0.697158 0.84447 0.529655 -0.57982
O_ O_ 0.857561 0.839789 0.59133 -0.63271
O_ O_ 0.877326 0.922377 0.588402 -0.57982
O_ O_ 0.489068 0.899818 0.603523 -0.63271
O_ O_ 0.954703 0.969974 0.652815 -0.57982
O_ O_ 0.595224 0.897648 0.646971 -0.63271
O_ O_ 0.630351 0.906998 0.576041 -0.57982
O_ O_ 0.752957 0.608189 0.906372 -0.63271
O_ O_ 0.795971 0.66084 0.963116 -0.57982
O_ O_ 0.650534 0.651993 0.90753 -0.63271
O_ O_ 0.616106 0.58011 0.919038 -0.57982
F_ F_ 0.937055 0.839344 0.928067 -0.20885
F_ F_ 0.921824 0.816163 0.844772 -0.20885
F_ F_ 0.867377 0.799721 0.898943 -0.20885
F_ F_ 0.813219 0.927063 0.81591 -0.20885
F_ F_ 0.820883 0.84434 0.814405 -0.20885
F_ F_ 0.880085 0.885465 0.787817 -0.20885
F_ F_ 0.569857 0.680473 0.5735 -0.20885
F_ F_ 0.578764 0.694156 0.658778 -0.20885
F_ F_ 0.641534 0.70431 0.610554 -0.20885
F_ F_ 0.679586 0.560274 0.6736 -0.20885
F_ F_ 0.676745 0.646934 0.694164 -0.20885
F_ F_ 0.612319 0.604638 0.706851 -0.20885
_cell_length_a 26.508
_cell_length_b 26.37200000322088
_cell_length_c 26.311999743092066
_cell_angle_alpha 93.74100058972084
_cell_angle_beta 96.04100104955006
_cell_angle_gamma 83.6869992558723
_symmetry_space_group_name_H-M         'P 1'
_symmetry_Int_Tables_number            1
loop_
_symmetry_equiv_pos_as_xyz
   'x, y, z'
                         
loop_
_atom_site_label
_atom_site_type_symbol
_atom_site_fract_x 
_atom_site_fract_y
_atom_site_fract_z
_atom_site_charge
Zn Zn 0.0873652 0.0877581 0.348396 0.83971
Zn Zn 0.157716 0.343076 0.0818067 0.83971
Zn Zn 0.407951 0.415173 0.150906 0.83971
Zn Zn 0.343031 0.152487 0.414699 0.83971
H_ H_ 0.166485 0.137438 0.298869 0.10394
H_ H_ 0.241377 0.106728 0.262795 0.10394
H_ H_ 0.207905 0.438347 0.273894 0.10394
H_ H_ 0.130172 0.989279 0.322779 0.10394
H_ H_ 0.531133 0.101582 0.240485 0.10394
H_ H_ 0.491046 0.175386 0.196258 0.10394
H_ H_ 0.0278349 0.27514 0.338988 0.10394
H_ H_ 0.0631541 0.198959 0.384471 0.10394
H_ H_ 0.0363179 0.439384 0.385137 0.10394
H_ H_ 0.47952 0.381117 0.379353 0.10394
H_ H_ 0.347296 0.490033 0.398434 0.10394
H_ H_ 0.0786815 0.298035 0.128709 0.10394
H_ H_ 0.507323 0.263926 0.098267 0.10394
H_ H_ 0.0287282 0.283912 0.452844 0.10394
H_ H_ 0.107168 0.327076 0.973548 0.10394
H_ H_ 0.227727 0.247408 0.0877785 0.10394
H_ H_ 0.266423 0.200064 0.162428 0.10394
H_ H_ 0.210673 0.321507 0.266481 0.10394
H_ H_ 0.173872 0.369161 0.19011 0.10394
H_ H_ 0.210492 0.376802 0.445262 0.10394
H_ H_ 0.270665 0.365453 0.382307 0.10394
H_ H_ 0.390946 0.417796 0.490302 0.10394
H_ H_ 0.308095 0.400609 0.155006 0.10394
H_ H_ 0.230999 0.457002 0.181466 0.10394
H_ H_ 0.324709 0.0572032 0.267072 0.10394
H_ H_ 0.405311 0.492703 0.24466 0.10394
H_ H_ 0.00565913 0.395072 0.203527 0.10394
H_ H_ 0.0531075 0.322309 0.237908 0.10394
H_ H_ 0.409272 0.265891 0.256826 0.10394
H_ H_ 0.364909 0.327118 0.1899 0.10394
H_ H_ 0.464521 0.0551475 0.14337 0.10394
H_ H_ 0.025187 0.119525 0.107476 0.10394
H_ H_ 0.150362 0.00226747 0.0936116 0.10394
H_ H_ 0.44586 0.165596 0.393794 0.10394
H_ H_ 0.0147929 0.189553 0.465439 0.10394
H_ H_ 0.416155 0.275637 0.0471038 0.10394
H_ H_ 0.348134 0.233263 0.49927 0.10394
H_ H_ 0.234782 0.194845 0.384325 0.10394
H_ H_ 0.194735 0.22962 0.307949 0.10394
H_ H_ 0.336517 0.227383 0.248629 0.10394
H_ H_ 0.37736 0.184778 0.324742 0.10394
H_ H_ 0.288887 0.101859 0.0436961 0.10394
H_ H_ 0.23598 0.0888311 0.112081 0.10394
H_ H_ 0.105486 0.0881526 7.00000000000145e-05 0.10394
C_ C_ 0.176107 0.0969354 0.30143 0.18167
C_ C_ 0.21761 0.0795697 0.273983 -0.15533
C_ C_ 0.228362 0.0266835 0.264958 0.02923
C_ C_ 0.198044 0.47802 0.282919 -0.15533
C_ C_ 0.157104 0.0139704 0.311908 0.18167
C_ C_ 0.0386781 0.140434 0.268926 0.18167
C_ C_ 0.513515 0.179942 0.234112 -0.15533
C_ C_ 0.0132564 0.233384 0.266157 0.02923
C_ C_ 0.0269269 0.23735 0.317797 -0.15533
C_ C_ 0.0525246 0.194634 0.343301 0.18167
C_ C_ 0.00297848 0.0493535 0.361793 0.69207
C_ C_ 0.47201 0.510702 0.377427 0.02923
C_ C_ 0.492499 0.460476 0.37667 -0.15533
C_ C_ 0.461306 0.420504 0.37762 -0.15533
C_ C_ 0.409619 0.429569 0.389601 0.02923
C_ C_ 0.387974 0.480855 0.392145 -0.15533
C_ C_ 0.418864 0.521908 0.384316 0.02923
C_ C_ 0.399864 0.069834 0.383231 0.69207
C_ C_ 0.400651 0.332932 0.39356 0.69661
C_ C_ 0.0708394 0.294385 0.0863973 0.18167
C_ C_ 0.0268747 0.268291 0.0674019 -0.15533
C_ C_ 0.012422 0.266845 0.014361 0.02923
C_ C_ 0.0376795 0.292794 0.493409 -0.15533
C_ C_ 0.0868609 0.309116 0.00307413 0.18167
C_ C_ 0.220499 0.261237 0.128239 0.18167
C_ C_ 0.243426 0.233445 0.169088 -0.15533
C_ C_ 0.240055 0.256431 0.221356 0.02923
C_ C_ 0.213233 0.3044 0.227025 -0.15533
C_ C_ 0.187363 0.327842 0.186214 0.18167
C_ C_ 0.245471 0.360953 0.0462413 0.69207
C_ C_ 0.270422 0.383842 0.509093 0.02923
C_ C_ 0.252808 0.378857 0.4569 -0.15533
C_ C_ 0.286012 0.377908 0.41824 -0.15533
C_ C_ 0.33585 0.391705 0.429824 0.02923
C_ C_ 0.352944 0.4042 0.481478 -0.15533
C_ C_ 0.320023 0.399595 0.523007 0.02923
C_ C_ 0.355241 0.380172 0.0698097 0.69207
C_ C_ 0.349539 0.386168 0.331739 0.69661
C_ C_ 0.310291 0.433043 0.181819 0.18167
C_ C_ 0.268572 0.460497 0.201496 -0.15533
C_ C_ 0.276772 0.495578 0.244612 0.02923
C_ C_ 0.321062 0.0219813 0.244236 -0.15533
C_ C_ 0.366797 0.483056 0.23451 0.18167
C_ C_ 0.489798 0.352999 0.196686 0.18167
C_ C_ 0.013245 0.319184 0.231184 -0.15533
C_ C_ 0.484244 0.274931 0.236555 0.02923
C_ C_ 0.430522 0.288082 0.23416 -0.15533
C_ C_ 0.408142 0.323148 0.199615 0.18167
C_ C_ 0.491059 0.449695 0.118398 0.69207
C_ C_ 0.0249837 0.991547 0.118545 0.02923
C_ C_ 0.0106349 0.0437916 0.123375 -0.15533
C_ C_ 0.0410552 0.0792752 0.107402 -0.15533
C_ C_ 0.092939 0.0650325 0.100977 0.02923
C_ C_ 0.109564 0.0134189 0.0952281 -0.15533
C_ C_ 0.0769683 0.976437 0.106516 0.02923
C_ C_ 0.0903231 0.425102 0.105251 0.69207
C_ C_ 0.103722 0.162149 0.0888215 0.69661
C_ C_ 0.438306 0.184879 0.429147 0.18167
C_ C_ 0.480509 0.200955 0.459386 -0.15533
C_ C_ 0.473274 0.240807 0.497136 0.02923
C_ C_ 0.422418 0.249421 0.0141016 -0.15533
C_ C_ 0.38615 0.226346 0.487487 0.18167
C_ C_ 0.258108 0.199493 0.354887 0.18167
C_ C_ 0.234447 0.22294 0.31199 -0.15533
C_ C_ 0.262163 0.230959 0.270007 0.02923
C_ C_ 0.315625 0.22185 0.279804 -0.15533
C_ C_ 0.336621 0.196143 0.323213 0.18167
C_ C_ 0.263651 0.122481 0.451168 0.69207
C_ C_ 0.229485 0.102942 0.983962 0.02923
C_ C_ 0.249162 0.102805 0.0356791 -0.15533
C_ C_ 0.216663 0.098795 0.0739584 -0.15533
C_ C_ 0.164957 0.0943037 0.0615567 0.02923
C_ C_ 0.146143 0.088555 0.010765 -0.15533
C_ C_ 0.175915 0.101994 0.972265 0.02923
C_ C_ 0.151945 0.109113 0.424991 0.69207
C_ C_ 0.150847 0.109815 0.156454 0.69661
C_ C_ 0.374186 0.388324 0.38751 -0.30787
C_ C_ 0.128296 0.107185 0.100298 -0.30787
N_ N_ 0.144794 0.0646819 0.31404 -0.32189
N_ N_ 0.0573891 0.148102 0.317139 -0.32189
N_ N_ 0.101691 0.311271 0.0536999 -0.32189
N_ N_ 0.190082 0.305336 0.138342 -0.32189
N_ N_ 0.357358 0.44939 0.194182 -0.32189
N_ N_ 0.437251 0.355252 0.182653 -0.32189
N_ N_ 0.390439 0.197051 0.444687 -0.32189
N_ N_ 0.308363 0.186138 0.359905 -0.32189
O_ O_ 0.499662 0.0939889 0.385891 -0.63271
O_ O_ 0.0388383 0.0396827 0.331148 -0.57982
O_ O_ 0.397243 0.0936574 0.339429 -0.63271
O_ O_ 0.378858 0.0936555 0.422856 -0.57982
O_ O_ 0.245471 0.389108 0.0901185 -0.63271
O_ O_ 0.207257 0.333795 0.035761 -0.57982
O_ O_ 0.359982 0.336827 0.0947561 -0.63271
O_ O_ 0.373616 0.422474 0.0904807 -0.57982
O_ O_ 0.978222 0.417006 0.0911946 -0.63271
O_ O_ 0.453706 0.461697 0.147145 -0.57982
O_ O_ 0.0795117 0.396131 0.140953 -0.63271
O_ O_ 0.131537 0.410396 0.0845496 -0.57982
O_ O_ 0.25468 0.101023 0.40556 -0.63271
O_ O_ 0.29499 0.156706 0.458033 -0.57982
O_ O_ 0.14847 0.150218 0.398972 -0.63271
O_ O_ 0.120624 0.0753852 0.408994 -0.57982
F_ F_ 0.438034 0.331546 0.435164 -0.20885
F_ F_ 0.427921 0.319255 0.351807 -0.20885
F_ F_ 0.36897 0.296982 0.400461 -0.20885
F_ F_ 0.31001 0.42564 0.324159 -0.20885
F_ F_ 0.32696 0.3417 0.316797 -0.20885
F_ F_ 0.384256 0.392716 0.295483 -0.20885
F_ F_ 0.066699 0.160788 0.0466393 -0.20885
F_ F_ 0.0741251 0.187985 0.126419 -0.20885
F_ F_ 0.136733 0.198476 0.0824324 -0.20885
F_ F_ 0.177695 0.0632363 0.16724 -0.20885
F_ F_ 0.184052 0.146542 0.16207 -0.20885
F_ F_ 0.114074 0.120793 0.191398 -0.20885
Zn Zn 0.089728 0.0875617 0.841907 0.83971
Zn Zn 0.155593 0.352722 0.588984 0.83971
Zn Zn 0.404153 0.423514 0.656977 0.83971
Zn Zn 0.340943 0.149988 0.910693 0.83971
H_ H_ 0.179073 0.132866 0.80721 0.10394
H_ H_ 0.252719 0.0942208 0.765549 0.10394
H_ H_ 0.211541 0.449076 0.800729 0.10394
H_ H_ 0.131948 0.985981 0.817035 0.10394
H_ H_ 0.524402 0.0932874 0.744528 0.10394
H_ H_ 0.470633 0.170041 0.698705 0.10394
H_ H_ 0.0185602 0.272045 0.824602 0.10394
H_ H_ 0.0669668 0.195761 0.870485 0.10394
H_ H_ 0.0303628 0.445223 0.865588 0.10394
H_ H_ 0.481916 0.381347 0.893436 0.10394
H_ H_ 0.350916 0.489461 0.911954 0.10394
H_ H_ 0.0769232 0.302324 0.637097 0.10394
H_ H_ 0.494488 0.273032 0.593695 0.10394
H_ H_ 0.0328995 0.294834 0.943235 0.10394
H_ H_ 0.105803 0.326595 0.484251 0.10394
H_ H_ 0.210482 0.258269 0.602608 0.10394
H_ H_ 0.256631 0.213684 0.677645 0.10394
H_ H_ 0.217467 0.346016 0.771966 0.10394
H_ H_ 0.170042 0.386632 0.696915 0.10394
H_ H_ 0.218191 0.357283 0.941966 0.10394
H_ H_ 0.269332 0.369068 0.875153 0.10394
H_ H_ 0.397451 0.39919 0.988392 0.10394
H_ H_ 0.303038 0.404548 0.663912 0.10394
H_ H_ 0.23185 0.459441 0.69517 0.10394
H_ H_ 0.334399 0.0418618 0.77231 0.10394
H_ H_ 0.404947 0.508353 0.733006 0.10394
H_ H_ 0.00685507 0.389142 0.689772 0.10394
H_ H_ 0.0517493 0.312479 0.732574 0.10394
H_ H_ 0.40292 0.24965 0.715282 0.10394
H_ H_ 0.362912 0.333483 0.689668 0.10394
H_ H_ 0.459526 0.0466611 0.630183 0.10394
H_ H_ 0.0197144 0.118806 0.613327 0.10394
H_ H_ 0.148652 0.00867788 0.593024 0.10394
H_ H_ 0.442199 0.159315 0.890463 0.10394
H_ H_ 0.0127041 0.195545 0.936388 0.10394
H_ H_ 0.420264 0.276045 0.545717 0.10394
H_ H_ 0.346489 0.227974 0.004350000000000076 0.10394
H_ H_ 0.238148 0.202563 0.896186 0.10394
H_ H_ 0.191141 0.252426 0.821758 0.10394
H_ H_ 0.328226 0.237317 0.746419 0.10394
H_ H_ 0.37082 0.181351 0.816503 0.10394
H_ H_ 0.285272 0.143474 0.549183 0.10394
H_ H_ 0.240611 0.117822 0.615683 0.10394
H_ H_ 0.108263 0.0905567 0.512 0.10394
C_ C_ 0.185143 0.0919652 0.799228 0.18167
C_ C_ 0.22559 0.0708718 0.772795 -0.15533
C_ C_ 0.23718 0.0188258 0.766894 0.02923
C_ C_ 0.202526 0.489333 0.796708 -0.15533
C_ C_ 0.156897 0.0103091 0.801306 0.18167
C_ C_ 0.0218859 0.135855 0.762421 0.18167
C_ C_ 0.49578 0.174664 0.73561 -0.15533
C_ C_ 0.00731111 0.228009 0.753242 0.02923
C_ C_ 0.0268042 0.235198 0.804897 -0.15533
C_ C_ 0.0515591 0.191923 0.829984 0.18167
C_ C_ 0.0058098 0.0492873 0.858461 0.69207
C_ C_ 0.471081 0.507468 0.885551 0.02923
C_ C_ 0.491069 0.455715 0.882654 -0.15533
C_ C_ 0.461052 0.418529 0.886842 -0.15533
C_ C_ 0.410043 0.427564 0.897679 0.02923
C_ C_ 0.392062 0.478339 0.906696 -0.15533
C_ C_ 0.418493 0.518785 0.892421 0.02923
C_ C_ 0.395879 0.0661963 0.87555 0.69207
C_ C_ 0.40161 0.32859 0.881173 0.69661
C_ C_ 0.0617925 0.307788 0.597396 0.18167
C_ C_ 0.0192011 0.283267 0.578074 -0.15533
C_ C_ 0.0111497 0.269653 0.526894 0.02923
C_ C_ 0.0425344 0.289406 0.983992 -0.15533
C_ C_ 0.0811781 0.316147 0.510886 0.18167
C_ C_ 0.213746 0.275619 0.640653 0.18167
C_ C_ 0.233316 0.249434 0.684752 -0.15533
C_ C_ 0.231143 0.271877 0.732938 0.02923
C_ C_ 0.216761 0.32587 0.735901 -0.15533
C_ C_ 0.19355 0.351277 0.692663 0.18167
C_ C_ 0.236601 0.374089 0.547338 0.69207
C_ C_ 0.279498 0.368348 0.0059386 0.02923
C_ C_ 0.257727 0.364434 0.952677 -0.15533
C_ C_ 0.2869 0.373907 0.914268 -0.15533
C_ C_ 0.339264 0.38575 0.927501 0.02923
C_ C_ 0.360431 0.389306 0.97816 -0.15533
C_ C_ 0.330374 0.381857 0.0195383 0.02923
C_ C_ 0.345621 0.397402 0.574897 0.69207
C_ C_ 0.350961 0.392059 0.828906 0.69661
C_ C_ 0.309091 0.439233 0.688021 0.18167
C_ C_ 0.269062 0.470002 0.705867 -0.15533
C_ C_ 0.278393 0.503958 0.747619 0.02923
C_ C_ 0.328503 0.0082953 0.745883 -0.15533
C_ C_ 0.367098 0.495454 0.728444 0.18167
C_ C_ 0.487785 0.355527 0.698669 0.18167
C_ C_ 0.0125501 0.314379 0.718972 -0.15533
C_ C_ 0.480432 0.271988 0.727948 0.02923
C_ C_ 0.426948 0.28049 0.712925 -0.15533
C_ C_ 0.404883 0.325435 0.69323 0.18167
C_ C_ 0.483803 0.46156 0.62007 0.69207
C_ C_ 0.0275408 0.99129 0.614029 0.02923
C_ C_ 0.00739965 0.0427442 0.610998 -0.15533
C_ C_ 0.0387529 0.0819557 0.608761 -0.15533
C_ C_ 0.0902859 0.0700479 0.601737 0.02923
C_ C_ 0.109344 0.018674 0.596588 -0.15533
C_ C_ 0.0796679 0.977992 0.603166 0.02923
C_ C_ 0.0953256 0.433242 0.613524 0.69207
C_ C_ 0.10472 0.165388 0.607498 0.69661
C_ C_ 0.437167 0.184431 0.928881 0.18167
C_ C_ 0.477833 0.210152 0.952916 -0.15533
C_ C_ 0.471266 0.242352 0.996627 0.02923
C_ C_ 0.424824 0.253049 0.510193 -0.15533
C_ C_ 0.383405 0.223249 0.988331 0.18167
C_ C_ 0.258253 0.211853 0.864197 0.18167
C_ C_ 0.231957 0.238053 0.822676 -0.15533
C_ C_ 0.257424 0.244444 0.779052 0.02923
C_ C_ 0.307863 0.225651 0.777792 -0.15533
C_ C_ 0.330672 0.194759 0.817179 0.18167
C_ C_ 0.26475 0.107473 0.945246 0.69207
C_ C_ 0.228102 0.118248 0.489745 0.02923
C_ C_ 0.24729 0.129046 0.539839 -0.15533
C_ C_ 0.218271 0.121162 0.580214 -0.15533
C_ C_ 0.167815 0.106143 0.569391 0.02923
C_ C_ 0.148996 0.0978047 0.518112 -0.15533
C_ C_ 0.177168 0.110094 0.477902 0.02923
C_ C_ 0.149794 0.111864 0.921324 0.69207
C_ C_ 0.153443 0.105502 0.667057 0.69661
C_ C_ 0.375383 0.384249 0.884992 -0.30787
C_ C_ 0.129686 0.109825 0.611361 -0.30787
N_ N_ 0.149821 0.0605066 0.812428 -0.32189
N_ N_ 0.0514088 0.143086 0.807555 -0.32189
N_ N_ 0.0946003 0.319564 0.56279 -0.32189
N_ N_ 0.189503 0.3233 0.646602 -0.32189
N_ N_ 0.358273 0.452637 0.700079 -0.32189
N_ N_ 0.436372 0.361288 0.680937 -0.32189
N_ N_ 0.391468 0.189934 0.947483 -0.32189
N_ N_ 0.305444 0.186979 0.85774 -0.32189
O_ O_ 0.504315 0.0864663 0.881842 -0.63271
O_ O_ 0.0449872 0.0383446 0.831098 -0.57982
O_ O_ 0.386713 0.0890096 0.832465 -0.63271
O_ O_ 0.37839 0.088016 0.916056 -0.57982
O_ O_ 0.234319 0.403791 0.588198 -0.63271
O_ O_ 0.199821 0.343018 0.538229 -0.57982
O_ O_ 0.345399 0.353981 0.598672 -0.63271
O_ O_ 0.372369 0.434642 0.594117 -0.57982
O_ O_ 0.987322 0.411915 0.593391 -0.63271
O_ O_ 0.447879 0.470295 0.650186 -0.57982
O_ O_ 0.0927894 0.406577 0.653961 -0.63271
O_ O_ 0.128689 0.417698 0.581036 -0.57982
O_ O_ 0.259702 0.0862254 0.898468 -0.63271
O_ O_ 0.302193 0.132867 0.958606 -0.57982
O_ O_ 0.155432 0.152994 0.89636 -0.63271
O_ O_ 0.111698 0.0854799 0.905634 -0.57982
F_ F_ 0.436239 0.323118 0.925882 -0.20885
F_ F_ 0.431171 0.318371 0.841551 -0.20885
F_ F_ 0.369752 0.288953 0.883361 -0.20885
F_ F_ 0.31433 0.433813 0.827965 -0.20885
F_ F_ 0.329197 0.351973 0.803798 -0.20885
F_ F_ 0.385682 0.403106 0.797568 -0.20885
F_ F_ 0.07547 0.169271 0.559862 -0.20885
F_ F_ 0.0736141 0.18151 0.646267 -0.20885
F_ F_ 0.134873 0.203682 0.607222 -0.20885
F_ F_ 0.186436 0.0628076 0.677379 -0.20885
F_ F_ 0.179965 0.145412 0.685703 -0.20885
F_ F_ 0.116539 0.102509 0.701218 -0.20885
Zn Zn 0.0822937 0.575787 0.342934 0.83971
Zn Zn 0.163849 0.845947 0.0795965 0.83971
Zn Zn 0.405747 0.91239 0.157462 0.83971
Zn Zn 0.333 0.658515 0.414346 0.83971
H_ H_ 0.160914 0.624119 0.306342 0.10394
H_ H_ 0.24929 0.593025 0.288601 0.10394
H_ H_ 0.20078 0.95348 0.271514 0.10394
H_ H_ 0.121892 0.473569 0.307656 0.10394
H_ H_ 0.542419 0.599268 0.252335 0.10394
H_ H_ 0.505779 0.669668 0.204139 0.10394
H_ H_ 0.0279183 0.760714 0.335724 0.10394
H_ H_ 0.0703132 0.682852 0.374857 0.10394
H_ H_ 0.033009 0.94829 0.358678 0.10394
H_ H_ 0.490916 0.879153 0.367203 0.10394
H_ H_ 0.359955 0.987107 0.398985 0.10394
H_ H_ 0.0829783 0.804234 0.131942 0.10394
H_ H_ 0.507127 0.753034 0.102151 0.10394
H_ H_ 0.0489186 0.7789 0.445667 0.10394
H_ H_ 0.113938 0.830545 0.983021 0.10394
H_ H_ 0.24648 0.759579 0.0878864 0.10394
H_ H_ 0.275515 0.709005 0.159366 0.10394
H_ H_ 0.211473 0.821876 0.265298 0.10394
H_ H_ 0.186891 0.876739 0.191338 0.10394
H_ H_ 0.218154 0.883896 0.433414 0.10394
H_ H_ 0.277077 0.896523 0.373001 0.10394
H_ H_ 0.404698 0.884637 0.48353 0.10394
H_ H_ 0.299525 0.899664 0.16241 0.10394
H_ H_ 0.229028 0.949425 0.191465 0.10394
H_ H_ 0.332684 0.545603 0.276489 0.10394
H_ H_ 0.403336 0.00391000000000008 0.235205 0.10394
H_ H_ 0.0154239 0.88285 0.202834 0.10394
H_ H_ 0.0485699 0.80535 0.236463 0.10394
H_ H_ 0.423674 0.74217 0.223606 0.10394
H_ H_ 0.377476 0.820022 0.181288 0.10394
H_ H_ 0.469385 0.548071 0.108166 0.10394
H_ H_ 0.0194739 0.622615 0.110615 0.10394
H_ H_ 0.140561 0.508217 0.0925271 0.10394
H_ H_ 0.439452 0.657799 0.396786 0.10394
H_ H_ 0.0241059 0.683361 0.45934 0.10394
H_ H_ 0.416355 0.773882 0.0496094 0.10394
H_ H_ 0.342527 0.737685 0.497399 0.10394
H_ H_ 0.230056 0.686513 0.370641 0.10394
H_ H_ 0.19331 0.725673 0.295695 0.10394
H_ H_ 0.340767 0.725204 0.242114 0.10394
H_ H_ 0.376733 0.686159 0.319696 0.10394
H_ H_ 0.276511 0.646894 0.0643509 0.10394
H_ H_ 0.230423 0.617224 0.131559 0.10394
H_ H_ 0.101316 0.601975 0.0220455 0.10394
C_ C_ 0.173683 0.58356 0.308213 0.18167
C_ C_ 0.221456 0.565205 0.293282 -0.15533
C_ C_ 0.232379 0.5131 0.276157 0.02923
C_ C_ 0.197918 0.992524 0.283364 -0.15533
C_ C_ 0.152583 0.497093 0.306615 0.18167
C_ C_ 0.0167001 0.628033 0.267544 0.18167
C_ C_ 0.518617 0.677405 0.244744 -0.15533
C_ C_ -0.0012919999999999598 0.72187 0.26686 0.02923
C_ C_ 0.0241526 0.724861 0.317018 -0.15533
C_ C_ 0.0475072 0.680258 0.337122 0.18167
C_ C_ 0.0105073 0.538006 0.369262 0.69207
C_ C_ 0.478269 0.00670396 0.375528 0.02923
C_ C_ 0.498182 0.956372 0.375236 -0.15533
C_ C_ 0.471389 0.916346 0.376619 -0.15533
C_ C_ 0.418923 0.925679 0.387025 0.02923
C_ C_ 0.399895 0.977558 0.39508 -0.15533
C_ C_ 0.427296 0.0180429 0.388376 0.02923
C_ C_ 0.393113 0.574637 0.380943 0.69207
C_ C_ 0.408533 0.830301 0.38362 0.69661
C_ C_ 0.0732588 0.800175 0.0916628 0.18167
C_ C_ 0.0260257 0.78331 0.0711643 -0.15533
C_ C_ 0.0170782 0.772147 0.0192046 0.02923
C_ C_ 0.0552033 0.787737 0.487973 -0.15533
C_ C_ 0.0951419 0.808062 0.00682719 0.18167
C_ C_ 0.234946 0.773254 0.127569 0.18167
C_ C_ 0.25257 0.742408 0.168383 -0.15533
C_ C_ 0.241014 0.758173 0.217508 0.02923
C_ C_ 0.216101 0.806564 0.226832 -0.15533
C_ C_ 0.196819 0.836998 0.184155 0.18167
C_ C_ 0.245877 0.862007 0.0449783 0.69207
C_ C_ 0.278852 0.874025 0.496498 0.02923
C_ C_ 0.258649 0.884774 0.446569 -0.15533
C_ C_ 0.294677 0.891321 0.4117 -0.15533
C_ C_ 0.345099 0.892146 0.423383 0.02923
C_ C_ 0.365619 0.883523 0.473416 -0.15533
C_ C_ 0.331541 0.876817 0.510198 0.02923
C_ C_ 0.354534 0.878896 0.0699227 0.69207
C_ C_ 0.357592 0.886178 0.323879 0.69661
C_ C_ 0.307849 0.932267 0.187982 0.18167
C_ C_ 0.265189 0.963154 0.200072 -0.15533
C_ C_ 0.272883 1.00567493 0.235528 0.02923
C_ C_ 0.32566 0.510211 0.256963 -0.15533
C_ C_ 0.364079 0.990173 0.229922 0.18167
C_ C_ 0.492192 0.8603 0.215715 0.18167
C_ C_ 0.00981073 0.808471 0.227857 -0.15533
C_ C_ 0.49356 0.773455 0.241777 0.02923
C_ C_ 0.444971 0.773461 0.217962 -0.15533
C_ C_ 0.419025 0.817864 0.194048 0.18167
C_ C_ 0.485144 0.952309 0.133305 0.69207
C_ C_ 0.0184032 0.494966 0.116731 0.02923
C_ C_ 0.000525199 0.546693 0.119924 -0.15533
C_ C_ 0.0345775 0.585374 0.119201 -0.15533
C_ C_ 0.0862563 0.572155 0.112978 0.02923
C_ C_ 0.102238 0.51817 0.106057 -0.15533
C_ C_ 0.0698797 0.479102 0.110368 0.02923
C_ C_ 0.0993236 0.923636 0.10672 0.69207
C_ C_ 0.100924 0.668589 0.122563 0.69661
C_ C_ 0.435398 0.68317 0.431748 0.18167
C_ C_ 0.477554 0.703616 0.460592 -0.15533
C_ C_ 0.471021 0.745966 0.494929 0.02923
C_ C_ 0.423843 0.745932 0.0197153 -0.15533
C_ C_ 0.379037 0.734854 0.483528 0.18167
C_ C_ 0.254613 0.696287 0.343851 0.18167
C_ C_ 0.232697 0.718415 0.298559 -0.15533
C_ C_ 0.26449 0.728125 0.261358 0.02923
C_ C_ 0.317163 0.719684 0.2719 -0.15533
C_ C_ 0.336494 0.700054 0.316774 0.18167
C_ C_ 0.259561 0.61646 0.451526 0.69207
C_ C_ 0.223568 0.627471 1.000787141 0.02923
C_ C_ 0.240447 0.632467 0.0545769 -0.15533
C_ C_ 0.213328 0.617505 0.0929519 -0.15533
C_ C_ 0.162253 0.608367 0.0801668 0.02923
C_ C_ 0.141408 0.608877 0.0284973 -0.15533
C_ C_ 0.172156 0.614465 0.988271 0.02923
C_ C_ 0.147543 0.604581 0.424248 0.69207
C_ C_ 0.149642 0.6066 0.177009 0.69661
C_ C_ 0.382572 0.885133 0.380324 -0.30787
C_ C_ 0.124548 0.612491 0.122316 -0.30787
N_ N_ 0.139275 0.54912 0.311413 -0.32189
N_ N_ 0.0495142 0.633807 0.309261 -0.32189
N_ N_ 0.107876 0.808127 0.0595365 -0.32189
N_ N_ 0.201869 0.816247 0.136875 -0.32189
N_ N_ 0.355872 0.946853 0.19736 -0.32189
N_ N_ 0.442585 0.860229 0.194576 -0.32189
N_ N_ 0.38719 0.698119 0.445332 -0.32189
N_ N_ 0.306467 0.691922 0.353363 -0.32189
O_ O_ 0.504952 0.593025 0.400285 -0.63271
O_ O_ 0.0398482 0.528632 0.332203 -0.57982
O_ O_ 0.387848 0.594951 0.337819 -0.63271
O_ O_ 0.373511 0.598333 0.418901 -0.57982
O_ O_ 0.242613 0.89586 0.0854707 -0.63271
O_ O_ 0.20705 0.837816 0.0309213 -0.57982
O_ O_ 0.347566 0.840613 0.0982138 -0.63271
O_ O_ 0.37899 0.914697 0.0910215 -0.57982
O_ O_ 0.993976 0.907346 0.104782 -0.63271
O_ O_ 0.44651 0.964584 0.159966 -0.57982
O_ O_ 0.101086 0.89779 0.14793 -0.63271
O_ O_ 0.133444 0.907937 0.0753601 -0.57982
O_ O_ 0.270128 0.584643 0.41464 -0.63271
O_ O_ 0.286951 0.654096 0.46054 -0.57982
O_ O_ 0.15168 0.645192 0.400615 -0.63271
O_ O_ 0.112579 0.575331 0.405932 -0.57982
F_ F_ 0.444344 0.828687 0.425752 -0.20885
F_ F_ 0.43014 0.812787 0.338885 -0.20885
F_ F_ 0.375344 0.796339 0.388442 -0.20885
F_ F_ 0.332936 0.932951 0.308568 -0.20885
F_ F_ 0.332021 0.843928 0.304778 -0.20885
F_ F_ 0.3965 0.885123 0.291047 -0.20885
F_ F_ 0.0669161 0.679579 0.0798151 -0.20885
F_ F_ 0.0744046 0.686037 0.161261 -0.20885
F_ F_ 0.138438 0.700046 0.12395 -0.20885
F_ F_ 0.17832 0.559732 0.179179 -0.20885
F_ F_ 0.178442 0.645414 0.196324 -0.20885
F_ F_ 0.110211 0.609717 0.20944 -0.20885
Zn Zn 0.0871533 0.589491 0.85205 0.83971
Zn Zn 0.166888 0.843922 0.578179 0.83971
Zn Zn 0.408699 0.907447 0.649335 0.83971
Zn Zn 0.334748 0.655391 0.917645 0.83971
H_ H_ 0.162763 0.635129 0.806173 0.10394
H_ H_ 0.251838 0.602552 0.782869 0.10394
H_ H_ 0.210323 0.946869 0.781557 0.10394
H_ H_ 0.130915 0.486003 0.823914 0.10394
H_ H_ 0.533559 0.59351 0.762089 0.10394
H_ H_ 0.478781 0.663915 0.716189 0.10394
H_ H_ 0.0178508 0.772782 0.837435 0.10394
H_ H_ 0.0647867 0.699041 0.882007 0.10394
H_ H_ 0.0235218 0.946384 0.846701 0.10394
H_ H_ 0.471505 0.874378 0.855554 0.10394
H_ H_ 0.349088 0.986775 0.897721 0.10394
H_ H_ 0.0887387 0.810847 0.631088 0.10394
H_ H_ 0.503106 0.777883 0.599785 0.10394
H_ H_ 0.0439034 0.779147 0.945665 0.10394
H_ H_ 0.127223 0.814246 0.485004 0.10394
H_ H_ 0.233523 0.755118 0.59603 0.10394
H_ H_ 0.274901 0.704916 0.668441 0.10394
H_ H_ 0.214189 0.830325 0.7667 0.10394
H_ H_ 0.184192 0.880188 0.69268 0.10394
H_ H_ 0.217122 0.880488 0.949195 0.10394
H_ H_ 0.267048 0.889777 0.878458 0.10394
H_ H_ 0.402561 0.892852 0.985665 0.10394
H_ H_ 0.30348 0.886212 0.668388 0.10394
H_ H_ 0.232967 0.943822 0.687731 0.10394
H_ H_ 0.337325 0.545007 0.79022 0.10394
H_ H_ 0.403763 -0.0033450000000000424 0.725999 0.10394
H_ H_ 0.0171021 0.886231 0.696337 0.10394
H_ H_ 0.0524089 0.811155 0.742729 0.10394
H_ H_ 0.413665 0.741155 0.715212 0.10394
H_ H_ 0.375589 0.818808 0.67777 0.10394
H_ H_ 0.463298 0.564579 0.639854 0.10394
H_ H_ 0.0107093 0.625204 0.600598 0.10394
H_ H_ 0.137444 0.515609 0.593585 0.10394
H_ H_ 0.438575 0.662345 0.897233 0.10394
H_ H_ 0.0178714 0.688373 0.951459 0.10394
H_ H_ 0.415649 0.776565 0.546425 0.10394
H_ H_ 0.343327 0.741624 -0.00139855 0.10394
H_ H_ 0.23159 0.70385 0.881358 0.10394
H_ H_ 0.193871 0.736915 0.800689 0.10394
H_ H_ 0.340505 0.723181 0.743154 0.10394
H_ H_ 0.380718 0.691334 0.829758 0.10394
H_ H_ 0.279883 0.60856 0.558662 0.10394
H_ H_ 0.226434 0.615001 0.621266 0.10394
H_ H_ 0.0982588 0.59991 0.508224 0.10394
C_ C_ 0.176211 0.594092 0.8056 0.18167
C_ C_ 0.225187 0.575024 0.792996 -0.15533
C_ C_ 0.236006 0.522543 0.781238 0.02923
C_ C_ 0.20236 0.98667 0.782347 -0.15533
C_ C_ 0.157808 0.510489 0.814201 0.18167
C_ C_ 0.0247078 0.635889 0.774253 0.18167
C_ C_ 0.502916 0.672794 0.751007 -0.15533
C_ C_ 0.00434559 0.728017 0.760304 0.02923
C_ C_ 0.0263859 0.735905 0.815175 -0.15533
C_ C_ 0.0481057 0.693143 0.842808 0.18167
C_ C_ 0.00846154 0.546332 0.87327 0.69207
C_ C_ 0.47143 0.00336523 0.864339 0.02923
C_ C_ 0.488419 0.951071 0.855241 -0.15533
C_ C_ 0.457767 0.913439 0.866089 -0.15533
C_ C_ 0.409639 0.924932 0.884203 0.02923
C_ C_ 0.391394 0.976783 0.892705 -0.15533
C_ C_ 0.420273 0.0144299 0.87731 0.02923
C_ C_ 0.39346 0.569312 0.888824 0.69207
C_ C_ 0.406813 0.824912 0.887763 0.69661
C_ C_ 0.0758643 0.80504 0.591255 0.18167
C_ C_ 0.0283997 0.787577 0.573735 -0.15533
C_ C_ 0.0187831 0.775879 0.520173 0.02923
C_ C_ 0.0508203 0.785262 0.985885 -0.15533
C_ C_ 0.09871 0.808739 0.507956 0.18167
C_ C_ 0.228485 0.768085 0.634003 0.18167
C_ C_ 0.253656 0.743773 0.674033 -0.15533
C_ C_ 0.242735 0.762855 0.723268 0.02923
C_ C_ 0.218991 0.812316 0.730516 -0.15533
C_ C_ 0.199694 0.839543 0.687655 0.18167
C_ C_ 0.243981 0.868693 0.534712 0.69207
C_ C_ 0.280158 0.871622 0.00421592 0.02923
C_ C_ 0.257866 0.876085 0.954252 -0.15533
C_ C_ 0.286888 0.88227 0.915315 -0.15533
C_ C_ 0.341112 0.884867 0.925079 0.02923
C_ C_ 0.36249 0.888635 0.976095 -0.15533
C_ C_ 0.331601 0.881465 0.0156834 0.02923
C_ C_ 0.356163 0.870684 0.563939 0.69207
C_ C_ 0.353594 0.875741 0.825947 0.69661
C_ C_ 0.311382 0.923816 0.683244 0.18167
C_ C_ 0.270387 0.956069 0.700528 -0.15533
C_ C_ 0.278604 0.996358 0.7363 0.02923
C_ C_ 0.326502 0.522707 0.75562 -0.15533
C_ C_ 0.368953 0.981057 0.722577 0.18167
C_ C_ 0.498455 0.847336 0.698933 0.18167
C_ C_ 0.0149519 0.810733 0.721749 -0.15533
C_ C_ 0.486831 0.767908 0.738899 0.02923
C_ C_ 0.436262 0.771881 0.717982 -0.15533
C_ C_ 0.416778 0.815602 0.691142 0.18167
C_ C_ 0.479127 0.947659 0.619971 0.69207
C_ C_ 0.0156584 0.498195 0.613336 0.02923
C_ C_ 0.996933 0.550506 0.614252 -0.15533
C_ C_ 0.0287591 0.587245 0.607817 -0.15533
C_ C_ 0.0822454 0.575051 0.606128 0.02923
C_ C_ 0.100902 0.524721 0.60345 -0.15533
C_ C_ 0.0692979 0.485206 0.608672 0.02923
C_ C_ 0.102558 0.924888 0.602095 0.69207
C_ C_ 0.0984624 0.671908 0.616037 0.69661
C_ C_ 0.436413 0.680518 0.933087 0.18167
C_ C_ 0.480716 0.698586 0.961683 -0.15533
C_ C_ 0.474332 0.731973 0.00397219 0.02923
C_ C_ 0.421339 0.757426 0.5089 -0.15533
C_ C_ 0.382474 0.727618 0.989362 0.18167
C_ C_ 0.254981 0.703168 0.850745 0.18167
C_ C_ 0.235612 0.725991 0.80609 -0.15533
C_ C_ 0.267025 0.737913 0.770523 0.02923
C_ C_ 0.318698 0.718521 0.774 -0.15533
C_ C_ 0.337431 0.695712 0.821041 0.18167
C_ C_ 0.254774 0.632776 0.959136 0.69207
C_ C_ 0.2238 0.606503 0.489693 0.02923
C_ C_ 0.242435 0.602997 0.543247 -0.15533
C_ C_ 0.210309 0.60418 0.582327 -0.15533
C_ C_ 0.157127 0.605449 0.569951 0.02923
C_ C_ 0.138001 0.601483 0.516814 -0.15533
C_ C_ 0.170617 0.603335 0.47772 0.02923
C_ C_ 0.146372 0.618422 0.93359 0.69207
C_ C_ 0.146137 0.607999 0.669261 0.69661
C_ C_ 0.376882 0.879044 0.88303 -0.30787
C_ C_ 0.121327 0.61418 0.613941 -0.30787
N_ N_ 0.143281 0.561001 0.815801 -0.32189
N_ N_ 0.0491429 0.646186 0.821307 -0.32189
N_ N_ 0.109577 0.811725 0.558204 -0.32189
N_ N_ 0.204974 0.817926 0.640568 -0.32189
N_ N_ 0.359036 0.938808 0.690931 -0.32189
N_ N_ 0.446028 0.853852 0.685998 -0.32189
N_ N_ 0.389658 0.695145 0.948361 -0.32189
N_ N_ 0.306127 0.688795 0.858732 -0.32189
O_ O_ 0.503291 0.58882 0.908863 -0.63271
O_ O_ 0.0439782 0.535289 0.843106 -0.57982
O_ O_ 0.397236 0.592827 0.848332 -0.63271
O_ O_ 0.360179 0.588512 0.920076 -0.57982
O_ O_ 0.251993 0.889006 0.580545 -0.63271
O_ O_ 0.20414 0.841666 0.524428 -0.57982
O_ O_ 0.34917 0.832322 0.591837 -0.63271
O_ O_ 0.383541 0.906551 0.583519 -0.57982
O_ O_ 0.99515 0.908297 0.599594 -0.63271
O_ O_ 0.447924 0.957506 0.654791 -0.57982
O_ O_ 0.100836 0.901978 0.643563 -0.63271
O_ O_ 0.138382 0.908967 0.571456 -0.57982
O_ O_ 0.252357 0.602531 0.916885 -0.63271
O_ O_ 0.290939 0.662649 0.968521 -0.57982
O_ O_ 0.150611 0.659203 0.908796 -0.63271
O_ O_ 0.113037 0.587855 0.917305 -0.57982
F_ F_ 0.448869 0.823953 0.922154 -0.20885
F_ F_ 0.424859 0.800769 0.842056 -0.20885
F_ F_ 0.376513 0.790062 0.90357 -0.20885
F_ F_ 0.315825 0.917411 0.816647 -0.20885
F_ F_ 0.325401 0.832792 0.816729 -0.20885
F_ F_ 0.385578 0.87619 0.789031 -0.20885
F_ F_ 0.0709341 0.678401 0.57045 -0.20885
F_ F_ 0.064424 0.67904 0.652803 -0.20885
F_ F_ 0.131592 0.70605 0.624631 -0.20885
F_ F_ 0.175595 0.563739 0.673046 -0.20885
F_ F_ 0.178829 0.645214 0.689727 -0.20885
F_ F_ 0.110543 0.61113 0.704856 -0.20885
Zn Zn 0.586746 0.0848885 0.344526 0.83971
Zn Zn 0.663293 0.335531 0.0847731 0.83971
Zn Zn 0.905615 0.415945 0.152157 0.83971
Zn Zn 0.839636 0.150958 0.419234 0.83971
H_ H_ 0.673127 0.131258 0.308436 0.10394
H_ H_ 0.748357 0.09844 0.27422 0.10394
H_ H_ 0.719483 0.442056 0.303358 0.10394
H_ H_ 0.628645 0.980431 0.303274 0.10394
H_ H_ 0.0451443 0.104727 0.243786 0.10394
H_ H_ 0.99942 0.175285 0.201865 0.10394
H_ H_ 0.524374 0.268232 0.335802 0.10394
H_ H_ 0.568682 0.188643 0.37501 0.10394
H_ H_ 0.533321 0.451219 0.378262 0.10394
H_ H_ 0.987422 0.378494 0.411987 0.10394
H_ H_ 0.854817 0.487962 0.400848 0.10394
H_ H_ 0.591137 0.289618 0.132032 0.10394
H_ H_ 1.00541325 0.245607 0.0899538 0.10394
H_ H_ 0.541056 0.280329 0.441558 0.10394
H_ H_ 0.614852 0.329333 0.981228 0.10394
H_ H_ 0.733337 0.248 0.103054 0.10394
H_ H_ 0.770509 0.208402 0.185676 0.10394
H_ H_ 0.704646 0.341767 0.269481 0.10394
H_ H_ 0.677664 0.378025 0.18465 0.10394
H_ H_ 0.720377 0.359629 0.445093 0.10394
H_ H_ 0.774806 0.358423 0.378084 0.10394
H_ H_ 0.894669 0.40502 0.491444 0.10394
H_ H_ 0.807885 0.394314 0.164069 0.10394
H_ H_ 0.734982 0.444763 0.205443 0.10394
H_ H_ 0.829859 0.0472595 0.279767 0.10394
H_ H_ 0.909137 0.495539 0.239595 0.10394
H_ H_ 0.511664 0.386022 0.192878 0.10394
H_ H_ 0.554843 0.311836 0.240239 0.10394
H_ H_ 0.91124 0.245705 0.226351 0.10394
H_ H_ 0.872314 0.31731 0.17446 0.10394
H_ H_ 0.972775 0.0587549 0.134204 0.10394
H_ H_ 0.516411 0.121177 0.113457 0.10394
H_ H_ 0.635068 -0.000814441 0.0814609 0.10394
H_ H_ 0.944372 0.150916 0.413302 0.10394
H_ H_ 0.515103 0.189759 0.443305 0.10394
H_ H_ 0.921528 0.268959 0.0464093 0.10394
H_ H_ 0.840822 0.235474 0.507155 0.10394
H_ H_ 0.733861 0.20781 0.395934 0.10394
H_ H_ 0.693746 0.246466 0.314839 0.10394
H_ H_ 0.837144 0.231205 0.257911 0.10394
H_ H_ 0.8763 0.186528 0.332522 0.10394
H_ H_ 0.782517 0.116212 0.0488673 0.10394
H_ H_ 0.734538 0.0885958 0.111677 0.10394
H_ H_ 0.603145 0.0782399 -0.00112995 0.10394
C_ C_ 0.677776 0.091634 0.296743 0.18167
C_ C_ 0.721026 0.0723211 0.278065 -0.15533
C_ C_ 0.734296 0.0197056 0.270806 0.02923
C_ C_ 0.709428 0.483991 0.302848 -0.15533
C_ C_ 0.655346 0.00713631 0.300978 0.18167
C_ C_ 0.538505 0.138115 0.258895 0.18167
C_ C_ 0.0138327 0.182417 0.244107 -0.15533
C_ C_ 0.509955 0.226743 0.261587 0.02923
C_ C_ 0.528665 0.230985 0.313663 -0.15533
C_ C_ 0.552633 0.187729 0.335762 0.18167
C_ C_ 0.511053 0.0469537 0.369682 0.69207
C_ C_ 0.977368 0.501364 0.378956 0.02923
C_ C_ 0.997289 0.450043 0.386846 -0.15533
C_ C_ 0.96957 0.415152 0.403608 -0.15533
C_ C_ 0.91567 0.426144 0.398423 0.02923
C_ C_ 0.895803 0.477679 0.399515 -0.15533
C_ C_ 0.924951 0.515056 0.392789 0.02923
C_ C_ 0.891834 0.0683136 0.382608 0.69207
C_ C_ 0.901951 0.328694 0.389214 0.69661
C_ C_ 0.577622 0.291325 0.0900964 0.18167
C_ C_ 0.531148 0.27406 0.0723842 -0.15533
C_ C_ 0.51379 0.274401 0.0190433 0.02923
C_ C_ 0.54725 0.286119 0.483937 -0.15533
C_ C_ 0.593516 0.308236 0.00527064 0.18167
C_ C_ 0.730609 0.267369 0.140589 0.18167
C_ C_ 0.749528 0.244379 0.185844 -0.15533
C_ C_ 0.740375 0.271624 0.233734 0.02923
C_ C_ 0.714588 0.318902 0.23406 -0.15533
C_ C_ 0.695303 0.340316 0.186437 0.18167
C_ C_ 0.739535 0.36675 0.0402519 0.69207
C_ C_ 0.775699 0.374673 0.50693 0.02923
C_ C_ 0.760813 0.36115 0.455801 -0.15533
C_ C_ 0.788774 0.370632 0.415579 -0.15533
C_ C_ 0.83511 0.390005 0.428022 0.02923
C_ C_ 0.852863 0.399565 0.482004 -0.15533
C_ C_ 0.827006 0.386644 0.521668 0.02923
C_ C_ 0.850611 0.384019 0.0685308 0.69207
C_ C_ 0.855856 0.388575 0.332539 0.69661
C_ C_ 0.81415 0.425761 0.192755 0.18167
C_ C_ 0.773534 0.452109 0.218211 -0.15533
C_ C_ 0.782752 0.493726 0.252974 0.02923
C_ C_ 0.826632 0.0190227 0.250652 -0.15533
C_ C_ 0.870014 0.484104 0.231991 0.18167
C_ C_ 0.986068 0.360034 0.204999 0.18167
C_ C_ 0.512637 0.316708 0.230948 -0.15533
C_ C_ 0.987143 0.27749 0.239209 0.02923
C_ C_ 0.934471 0.277084 0.220656 -0.15533
C_ C_ 0.910424 0.318833 0.192922 0.18167
C_ C_ 0.980107 0.456062 0.122637 0.69207
C_ C_ 0.518361 0.992127 0.122717 0.02923
C_ C_ 0.501334 0.0444199 0.1253 -0.15533
C_ C_ 0.532561 0.0802456 0.11279 -0.15533
C_ C_ 0.585176 0.0640888 0.104476 0.02923
C_ C_ 0.598022 0.0120346 0.0946828 -0.15533
C_ C_ 0.568581 0.975844 0.108036 0.02923
C_ C_ 0.603822 0.417948 0.11622 0.69207
C_ C_ 0.603717 0.158767 0.0951313 0.69661
C_ C_ 0.937158 0.178391 0.443719 0.18167
C_ C_ 0.977647 0.198517 0.475646 -0.15533
C_ C_ 0.968275 0.239655 0.508049 0.02923
C_ C_ 0.922401 0.247763 0.00958574 -0.15533
C_ C_ 0.879708 0.226809 0.495691 0.18167
C_ C_ 0.754832 0.212353 0.364081 0.18167
C_ C_ 0.732404 0.232248 0.317185 -0.15533
C_ C_ 0.763065 0.249326 0.281185 0.02923
C_ C_ 0.812502 0.225807 0.285462 -0.15533
C_ C_ 0.834358 0.199166 0.328367 0.18167
C_ C_ 0.757976 0.12512 0.451792 0.69207
C_ C_ 0.725583 0.107843 0.982476 0.02923
C_ C_ 0.743668 0.106924 0.0360406 -0.15533
C_ C_ 0.715372 0.0947226 0.0741742 -0.15533
C_ C_ 0.663054 0.0882812 0.062719 0.02923
C_ C_ 0.643929 0.0837889 0.00828832 -0.15533
C_ C_ 0.6733 0.100165 0.971555 0.02923
C_ C_ 0.643848 0.115553 0.425998 0.69207
C_ C_ 0.653331 0.10409 0.160445 0.69661
C_ C_ 0.876314 0.385455 0.388321 -0.30787
C_ C_ 0.624518 0.102878 0.105301 -0.30787
N_ N_ 0.645288 0.058786 0.310183 -0.32189
N_ N_ 0.554108 0.142333 0.310562 -0.32189
N_ N_ 0.609787 0.302288 0.0554747 -0.32189
N_ N_ 0.699831 0.313925 0.142471 -0.32189
N_ N_ 0.860121 0.442939 0.19902 -0.32189
N_ N_ 0.936417 0.359332 0.185555 -0.32189
N_ N_ 0.889762 0.188925 0.457873 -0.32189
N_ N_ 0.804591 0.188684 0.364318 -0.32189
O_ O_ 0.00548863 0.0892732 0.393519 -0.63271
O_ O_ 0.552019 0.0348512 0.3468 -0.57982
O_ O_ 0.891738 0.0974953 0.342454 -0.63271
O_ O_ 0.862512 0.0856737 0.418352 -0.57982
O_ O_ 0.745432 0.39024 0.0852015 -0.63271
O_ O_ 0.708375 0.330442 0.0339624 -0.57982
O_ O_ 0.868567 0.340039 0.0865447 -0.63271
O_ O_ 0.864859 0.42552 0.0933159 -0.57982
O_ O_ 0.496492 0.403511 0.0971328 -0.63271
O_ O_ 0.948902 0.462773 0.157319 -0.57982
O_ O_ 0.59406 0.389356 0.151164 -0.63271
O_ O_ 0.640643 0.40092 0.086767 -0.57982
O_ O_ 0.75372 0.104734 0.402968 -0.63271
O_ O_ 0.79285 0.156135 0.464665 -0.57982
O_ O_ 0.648785 0.158081 0.403854 -0.63271
O_ O_ 0.604872 0.0917523 0.411283 -0.57982
F_ F_ 0.934058 0.319465 0.433019 -0.20885
F_ F_ 0.934868 0.315807 0.349611 -0.20885
F_ F_ 0.870219 0.292794 0.38531 -0.20885
F_ F_ 0.815848 0.426804 0.333272 -0.20885
F_ F_ 0.831506 0.347861 0.307283 -0.20885
F_ F_ 0.891744 0.400432 0.300695 -0.20885
F_ F_ 0.565146 0.161317 0.0561526 -0.20885
F_ F_ 0.584721 0.184615 0.139147 -0.20885
F_ F_ 0.642649 0.186168 0.0832473 -0.20885
F_ F_ 0.679961 0.0579209 0.172367 -0.20885
F_ F_ 0.682365 0.144014 0.169065 -0.20885
F_ F_ 0.618269 0.110874 0.195959 -0.20885
Zn Zn 0.586509 0.0837314 0.839593 0.83971
Zn Zn 0.655036 0.352207 0.585083 0.83971
Zn Zn 0.900234 0.419921 0.65809 0.83971
Zn Zn 0.837456 0.15552 0.910717 0.83971
H_ H_ 0.666019 0.135677 0.805844 0.10394
H_ H_ 0.747011 0.103791 0.763534 0.10394
H_ H_ 0.702628 0.450654 0.793055 0.10394
H_ H_ 0.631191 0.983059 0.806926 0.10394
H_ H_ 0.0244216 0.0968909 0.742674 0.10394
H_ H_ 0.985853 0.17221 0.695917 0.10394
H_ H_ 0.524279 0.264935 0.826336 0.10394
H_ H_ 0.567798 0.195759 0.864655 0.10394
H_ H_ 0.532415 0.443066 0.891029 0.10394
H_ H_ 0.975671 0.379017 0.866688 0.10394
H_ H_ 0.849104 0.492245 0.896065 0.10394
H_ H_ 0.576573 0.303743 0.632602 0.10394
H_ H_ -0.00708636 0.274048 0.60361 0.10394
H_ H_ 0.537191 0.29504 0.947841 0.10394
H_ H_ 0.607323 0.337529 0.484087 0.10394
H_ H_ 0.701544 0.247843 0.59194 0.10394
H_ H_ 0.74098 0.198701 0.666689 0.10394
H_ H_ 0.709972 0.333929 0.762962 0.10394
H_ H_ 0.671004 0.375296 0.689996 0.10394
H_ H_ 0.715629 0.367366 0.931728 0.10394
H_ H_ 0.76166 0.398619 0.875069 0.10394
H_ H_ 0.895985 0.401362 0.982535 0.10394
H_ H_ 0.797564 0.400407 0.661446 0.10394
H_ H_ 0.723778 0.458176 0.68659 0.10394
H_ H_ 0.835858 0.0482798 0.779362 0.10394
H_ H_ 0.894323 0.508902 0.726313 0.10394
H_ H_ 0.515223 0.383023 0.692141 0.10394
H_ H_ 0.553855 0.300179 0.731231 0.10394
H_ H_ 0.908865 0.250386 0.730464 0.10394
H_ H_ 0.867116 0.326485 0.686927 0.10394
H_ H_ 0.965535 0.0545946 0.607433 0.10394
H_ H_ 0.508925 0.114553 0.6155 0.10394
H_ H_ 0.6315 0.00327848 0.579673 0.10394
H_ H_ 0.939432 0.169678 0.880582 0.10394
H_ H_ 0.515369 0.204801 0.939132 0.10394
H_ H_ 0.908252 0.290218 0.54467 0.10394
H_ H_ 0.842953 0.23369 -0.005237000000000047 0.10394
H_ H_ 0.733679 0.196457 0.885133 0.10394
H_ H_ 0.682829 0.231949 0.807115 0.10394
H_ H_ 0.829205 0.228274 0.745703 0.10394
H_ H_ 0.867255 0.187818 0.819104 0.10394
H_ H_ 0.783261 0.113341 0.552541 0.10394
H_ H_ 0.726915 0.0998856 0.620236 0.10394
H_ H_ 0.595686 0.102237 0.505854 0.10394
C_ C_ 0.678723 0.0947897 0.802502 0.18167
C_ C_ 0.723997 0.0774144 0.775422 -0.15533
C_ C_ 0.73499 0.0248596 0.766053 0.02923
C_ C_ 0.699999 0.49148 0.800537 -0.15533
C_ C_ 0.655132 0.01046 0.798487 0.18167
C_ C_ 0.52287 0.131983 0.760831 0.18167
C_ C_ 0.00340617 0.178075 0.733338 -0.15533
C_ C_ 0.502341 0.223828 0.755086 0.02923
C_ C_ 0.523638 0.229878 0.805432 -0.15533
C_ C_ 0.547634 0.186629 0.830126 0.18167
C_ C_ 0.508027 0.0423794 0.858087 0.69207
C_ C_ 0.974717 0.508005 0.882353 0.02923
C_ C_ 0.99082 0.45621 0.869724 -0.15533
C_ C_ 0.959271 0.417308 0.872467 -0.15533
C_ C_ 0.909566 0.428142 0.887547 0.02923
C_ C_ 0.890813 0.47863 0.892443 -0.15533
C_ C_ 0.921986 0.51982 0.889035 0.02923
C_ C_ 0.897402 0.0767627 0.879148 0.69207
C_ C_ 0.894831 0.332408 0.886521 0.69661
C_ C_ 0.564902 0.305683 0.5902 0.18167
C_ C_ 0.520937 0.28412 0.569159 -0.15533
C_ C_ 0.513725 0.270837 0.516512 0.02923
C_ C_ 0.547529 0.289828 0.988131 -0.15533
C_ C_ 0.586149 0.316208 0.505769 0.18167
C_ C_ 0.713579 0.2686 0.628936 0.18167
C_ C_ 0.734577 0.239144 0.671823 -0.15533
C_ C_ 0.731465 0.262092 0.721175 0.02923
C_ C_ 0.709605 0.312968 0.726803 -0.15533
C_ C_ 0.686099 0.337514 0.684413 0.18167
C_ C_ 0.738208 0.373783 0.544994 0.69207
C_ C_ 0.773683 0.376137 0.999301324 0.02923
C_ C_ 0.754283 0.376948 0.94854 -0.15533
C_ C_ 0.783749 0.390111 0.911824 -0.15533
C_ C_ 0.834837 0.396671 0.922656 0.02923
C_ C_ 0.855631 0.394139 0.97554 -0.15533
C_ C_ 0.826009 0.385238 0.0131453 0.02923
C_ C_ 0.850079 0.386757 0.573681 0.69207
C_ C_ 0.84217 0.388173 0.825443 0.69661
C_ C_ 0.802574 0.433391 0.6865 0.18167
C_ C_ 0.76103 0.461993 0.707844 -0.15533
C_ C_ 0.769589 0.500045 0.745108 0.02923
C_ C_ 0.829559 0.0181013 0.749982 -0.15533
C_ C_ 0.85953 0.49213 0.727021 0.18167
C_ C_ 0.986631 0.360175 0.698679 0.18167
C_ C_ 0.511918 0.309622 0.720037 -0.15533
C_ C_ 0.985394 0.270738 0.724463 0.02923
C_ C_ 0.932029 0.279046 0.720771 -0.15533
C_ C_ 0.90717 0.324631 0.699176 0.18167
C_ C_ 0.980116 0.457912 0.616391 0.69207
C_ C_ 0.515685 0.985548 0.614624 0.02923
C_ C_ 0.496727 0.0367769 0.617922 -0.15533
C_ C_ 0.525085 0.0749679 0.606533 -0.15533
C_ C_ 0.575666 0.0629345 0.598303 0.02923
C_ C_ 0.594671 0.012348 0.596088 -0.15533
C_ C_ 0.565131 0.972242 0.599967 0.02923
C_ C_ 0.597123 0.432592 0.613266 0.69207
C_ C_ 0.591663 0.158343 0.609218 0.69661
C_ C_ 0.932985 0.187788 0.919702 0.18167
C_ C_ 0.975513 0.204896 0.949495 -0.15533
C_ C_ 0.969778 0.239645 -0.008790999999999993 0.02923
C_ C_ 0.917766 0.255279 0.517925 -0.15533
C_ C_ 0.881117 0.227059 0.981134 0.18167
C_ C_ 0.753124 0.203658 0.851424 0.18167
C_ C_ 0.725848 0.227184 0.808275 -0.15533
C_ C_ 0.753672 0.233481 0.766895 0.02923
C_ C_ 0.805349 0.22029 0.771997 -0.15533
C_ C_ 0.828228 0.194243 0.813478 0.18167
C_ C_ 0.760705 0.118502 0.944441 0.69207
C_ C_ 0.722888 0.113244 0.490986 0.02923
C_ C_ 0.741882 0.114866 0.542685 -0.15533
C_ C_ 0.710288 0.105276 0.581441 -0.15533
C_ C_ 0.657376 0.0985572 0.568056 0.02923
C_ C_ 0.637383 0.0984534 0.516213 -0.15533
C_ C_ 0.669336 0.109864 0.479089 0.02923
C_ C_ 0.648101 0.102466 0.918818 0.69207
C_ C_ 0.640339 0.0962869 0.663772 0.69661
C_ C_ 0.87284 0.385632 0.881137 -0.30787
C_ C_ 0.616398 0.101938 0.606885 -0.30787
N_ N_ 0.645094 0.0601052 0.810248 -0.32189
N_ N_ 0.548099 0.140755 0.805909 -0.32189
N_ N_ 0.598461 0.319265 0.557092 -0.32189
N_ N_ 0.689006 0.316839 0.637397 -0.32189
N_ N_ 0.851766 0.446635 0.699645 -0.32189
N_ N_ 0.933751 0.362545 0.688118 -0.32189
N_ N_ 0.88767 0.196377 0.938212 -0.32189
N_ N_ 0.803183 0.18757 0.852341 -0.32189
O_ O_ 0.00712255 0.0900663 0.889903 -0.63271
O_ O_ 0.545463 0.0336334 0.828478 -0.57982
O_ O_ 0.890183 0.103533 0.83748 -0.63271
O_ O_ 0.87794 0.0943238 0.920789 -0.57982
O_ O_ 0.739 0.405212 0.585173 -0.63271
O_ O_ 0.700379 0.344678 0.534992 -0.57982
O_ O_ 0.850683 0.345448 0.599693 -0.63271
O_ O_ 0.872361 0.425419 0.593497 -0.57982
O_ O_ 0.489132 0.416839 0.595437 -0.63271
O_ O_ 0.945275 0.46654 0.647885 -0.57982
O_ O_ 0.590733 0.40216 0.649747 -0.63271
O_ O_ 0.633905 0.418352 0.58403 -0.57982
O_ O_ 0.767054 0.088638 0.903 -0.63271
O_ O_ 0.789753 0.155008 0.955571 -0.57982
O_ O_ 0.647419 0.145177 0.894819 -0.63271
O_ O_ 0.61458 0.0714639 0.903162 -0.57982
F_ F_ 0.92642 0.326288 0.930607 -0.20885
F_ F_ 0.920116 0.308461 0.846321 -0.20885
F_ F_ 0.859143 0.298853 0.886958 -0.20885
F_ F_ 0.813336 0.433823 0.819221 -0.20885
F_ F_ 0.813702 0.347568 0.809857 -0.20885
F_ F_ 0.873073 0.388618 0.787949 -0.20885
F_ F_ 0.555587 0.167076 0.567875 -0.20885
F_ F_ 0.567537 0.173402 0.651078 -0.20885
F_ F_ 0.626201 0.194295 0.604314 -0.20885
F_ F_ 0.675181 0.0531368 0.665691 -0.20885
F_ F_ 0.664634 0.137651 0.678978 -0.20885
F_ F_ 0.605701 0.0931441 0.698003 -0.20885
Zn Zn 0.592565 0.584587 0.356478 0.83971
Zn Zn 0.658974 0.847655 0.0896517 0.83971
Zn Zn 0.910898 0.91801 0.153165 0.83971
Zn Zn 0.845893 0.654214 0.421102 0.83971
H_ H_ 0.672471 0.628491 0.321281 0.10394
H_ H_ 0.748635 0.597497 0.271877 0.10394
H_ H_ 0.718009 0.946952 0.289252 0.10394
H_ H_ 0.634482 0.47922 0.325149 0.10394
H_ H_ 0.0107164 0.590891 0.25044 0.10394
H_ H_ 0.974432 0.669451 0.205755 0.10394
H_ H_ 0.540623 0.770736 0.338003 0.10394
H_ H_ 0.570151 0.69569 0.389079 0.10394
H_ H_ 0.536701 0.947641 0.376957 0.10394
H_ H_ 0.98275 0.880432 0.367686 0.10394
H_ H_ 0.854776 0.98574 0.39888 0.10394
H_ H_ 0.588934 0.789904 0.141235 0.10394
H_ H_ 0.99614757 0.783798 0.0968476 0.10394
H_ H_ 0.538358 0.793554 0.442506 0.10394
H_ H_ 0.61707 0.815438 0.990304 0.10394
H_ H_ 0.723117 0.753881 0.100082 0.10394
H_ H_ 0.766325 0.710932 0.179927 0.10394
H_ H_ 0.72696 0.847423 0.269788 0.10394
H_ H_ 0.677661 0.881833 0.195263 0.10394
H_ H_ 0.718149 0.863838 0.43911 0.10394
H_ H_ 0.774151 0.875973 0.371989 0.10394
H_ H_ 0.893698 0.906598 0.488335 0.10394
H_ H_ 0.811242 0.901274 0.159496 0.10394
H_ H_ 0.736776 0.952409 0.189277 0.10394
H_ H_ 0.84079 0.546429 0.282807 0.10394
H_ H_ 0.90718 1.0067039 0.240733 0.10394
H_ H_ 0.512541 0.895765 0.218395 0.10394
H_ H_ 0.560817 0.813946 0.246942 0.10394
H_ H_ 0.904928 0.745808 0.211227 0.10394
H_ H_ 0.869671 0.82977 0.179029 0.10394
H_ H_ 0.959156 0.556865 0.126381 0.10394
H_ H_ 0.524346 0.614159 0.108258 0.10394
H_ H_ 0.654304 0.495957 0.104174 0.10394
H_ H_ 0.94914 0.653045 0.406264 0.10394
H_ H_ 0.516951 0.689193 0.45286 0.10394
H_ H_ 0.917044 0.785483 0.0391951 0.10394
H_ H_ 0.850866 0.744305 0.502346 0.10394
H_ H_ 0.739605 0.706469 0.389702 0.10394
H_ H_ 0.699371 0.754095 0.320154 0.10394
H_ H_ 0.845362 0.737262 0.257863 0.10394
H_ H_ 0.879862 0.680971 0.325738 0.10394
H_ H_ 0.794004 0.619242 0.0551504 0.10394
H_ H_ 0.747069 0.591404 0.116874 0.10394
H_ H_ 0.614188 0.582097 0.0149688 0.10394
C_ C_ 0.683788 0.586969 0.313026 0.18167
C_ C_ 0.728149 0.5698 0.288465 -0.15533
C_ C_ 0.740743 0.51622 0.284909 0.02923
C_ C_ 0.704222 0.987505 0.288207 -0.15533
C_ C_ 0.662572 0.504481 0.318168 0.18167
C_ C_ 0.543723 0.63747 0.271271 0.18167
C_ C_ -0.009623000000000048 0.671595 0.245315 -0.15533
C_ C_ 0.517447 0.726098 0.270045 0.02923
C_ C_ 0.532441 0.733608 0.323598 -0.15533
C_ C_ 0.559496 0.691387 0.347746 0.18167
C_ C_ 0.504888 0.550888 0.36886 0.69207
C_ C_ 0.972263 0.00748548 0.372425 0.02923
C_ C_ -0.006577000000000055 0.956889 0.366472 -0.15533
C_ C_ 0.965142 0.917668 0.374375 -0.15533
C_ C_ 0.914316 0.926464 0.386816 0.02923
C_ C_ 0.893555 0.976332 0.392861 -0.15533
C_ C_ 0.920752 0.016622 0.38284 0.02923
C_ C_ 0.901981 0.569019 0.392863 0.69207
C_ C_ 0.90917 0.825918 0.391707 0.69661
C_ C_ 0.573323 0.791586 0.100178 0.18167
C_ C_ 0.528872 0.771457 0.0805073 -0.15533
C_ C_ 0.516182 0.763263 0.0262723 0.02923
C_ C_ 0.549222 0.787567 0.482055 -0.15533
C_ C_ 0.591985 0.806414 0.0171427 0.18167
C_ C_ 0.720996 0.771756 0.139571 0.18167
C_ C_ 0.745232 0.748198 0.184131 -0.15533
C_ C_ 0.743398 0.770624 0.232572 0.02923
C_ C_ 0.719763 0.821873 0.235425 -0.15533
C_ C_ 0.693343 0.843865 0.193033 0.18167
C_ C_ 0.737691 0.869988 0.0430155 0.69207
C_ C_ 0.777305 0.869892 0.500061 0.02923
C_ C_ 0.759375 0.864017 0.448365 -0.15533
C_ C_ 0.78991 0.874926 0.411529 -0.15533
C_ C_ 0.83986 0.889664 0.422928 0.02923
C_ C_ 0.856484 0.89651 0.47558 -0.15533
C_ C_ 0.828241 0.883364 0.512815 0.02923
C_ C_ 0.851713 0.886438 0.0712458 0.69207
C_ C_ 0.857297 0.878609 0.326124 0.69661
C_ C_ 0.814952 0.936443 0.182179 0.18167
C_ C_ 0.774496 0.958606 0.208438 -0.15533
C_ C_ 0.779088 0.999704983 0.243837 0.02923
C_ C_ 0.832376 0.510473 0.25991 -0.15533
C_ C_ 0.869488 0.994277 0.227136 0.18167
C_ C_ 0.990034 0.855227 0.208442 0.18167
C_ C_ 0.519301 0.816855 0.23996 -0.15533
C_ C_ 0.977226 0.771945 0.239028 0.02923
C_ C_ 0.925119 0.779025 0.220332 -0.15533
C_ C_ 0.906613 0.824887 0.198274 0.18167
C_ C_ 0.991202 0.952203 0.127391 0.69207
C_ C_ 0.529299 0.484932 0.114871 0.02923
C_ C_ 0.511141 0.536391 0.113144 -0.15533
C_ C_ 0.541934 0.574004 0.111004 -0.15533
C_ C_ 0.595873 0.56087 0.109922 0.02923
C_ C_ 0.614375 0.508029 0.108223 -0.15533
C_ C_ 0.582519 0.471623 0.115151 0.02923
C_ C_ 0.590574 0.922507 0.109159 0.69207
C_ C_ 0.610034 0.657174 0.114266 0.69661
C_ C_ 0.943047 0.678681 0.437337 0.18167
C_ C_ 0.985691 0.701175 0.464146 -0.15533
C_ C_ 0.976781 0.742995 0.4999 0.02923
C_ C_ 0.924369 0.754672 1.0114333 -0.15533
C_ C_ 0.888999 0.733732 0.487703 0.18167
C_ C_ 0.761404 0.707676 0.359763 0.18167
C_ C_ 0.738447 0.734374 0.319091 -0.15533
C_ C_ 0.768727 0.744606 0.280025 0.02923
C_ C_ 0.818707 0.726052 0.284136 -0.15533
C_ C_ 0.840269 0.696491 0.324016 0.18167
C_ C_ 0.764874 0.622739 0.458642 0.69207
C_ C_ 0.730213 0.620327 0.99484 0.02923
C_ C_ 0.752185 0.620682 0.046192 -0.15533
C_ C_ 0.724245 0.606032 0.083684 -0.15533
C_ C_ 0.671324 0.599202 0.07452 0.02923
C_ C_ 0.651925 0.593685 0.0234752 -0.15533
C_ C_ 0.679388 0.606939 0.983885 0.02923
C_ C_ 0.653022 0.615392 0.43391 0.69207
C_ C_ 0.661623 0.59863 0.171573 0.69661
C_ C_ 0.882495 0.880806 0.38316 -0.30787
C_ C_ 0.634587 0.600578 0.116674 -0.30787
N_ N_ 0.650452 0.555142 0.32371 -0.32189
N_ N_ 0.563572 0.643773 0.322537 -0.32189
N_ N_ 0.601708 0.810872 0.0686179 -0.32189
N_ N_ 0.69113 0.816822 0.145977 -0.32189
N_ N_ 0.863247 0.953951 0.191335 -0.32189
N_ N_ 0.938683 0.862475 0.191898 -0.32189
N_ N_ 0.896056 0.694516 0.452707 -0.32189
N_ N_ 0.811147 0.688991 0.361496 -0.32189
O_ O_ 0.0110276 0.582245 0.397037 -0.63271
O_ O_ 0.544268 0.539472 0.342609 -0.57982
O_ O_ 0.903797 0.594728 0.353681 -0.63271
O_ O_ 0.877152 0.588804 0.429599 -0.57982
O_ O_ 0.740297 0.892566 0.0882104 -0.63271
O_ O_ 0.698378 0.842066 0.0311372 -0.57982
O_ O_ 0.852306 0.844763 0.0968733 -0.63271
O_ O_ 0.879493 0.920785 0.0866868 -0.57982
O_ O_ 0.487961 0.906338 0.109328 -0.63271
O_ O_ 0.958236 0.963208 0.160738 -0.57982
O_ O_ 0.588138 0.899322 0.152437 -0.63271
O_ O_ 0.627279 0.908694 0.0805684 -0.57982
O_ O_ 0.759365 0.596532 0.415084 -0.63271
O_ O_ 0.801 0.653433 0.467569 -0.57982
O_ O_ 0.659281 0.655366 0.406783 -0.63271
O_ O_ 0.619548 0.58241 0.419985 -0.57982
F_ F_ 0.94011 0.826392 0.436354 -0.20885
F_ F_ 0.940539 0.803881 0.356415 -0.20885
F_ F_ 0.876191 0.790728 0.395317 -0.20885
F_ F_ 0.821681 0.918918 0.317216 -0.20885
F_ F_ 0.8349 0.833172 0.311006 -0.20885
F_ F_ 0.893806 0.879615 0.292608 -0.20885
F_ F_ 0.581886 0.66881 0.0679498 -0.20885
F_ F_ 0.578106 0.672681 0.15139 -0.20885
F_ F_ 0.64698 0.68936 0.1224 -0.20885
F_ F_ 0.691414 0.553667 0.173808 -0.20885
F_ F_ 0.69435 0.636594 0.188784 -0.20885
F_ F_ 0.625966 0.603629 0.206732 -0.20885
Zn Zn 0.585898 0.587767 0.857407 0.83971
Zn Zn 0.661283 0.844118 0.583035 0.83971
Zn Zn 0.911574 0.919721 0.653982 0.83971
Zn Zn 0.841152 0.658471 0.917426 0.83971
H_ H_ 0.669321 0.63717 0.816672 0.10394
H_ H_ 0.741992 0.602517 0.771356 0.10394
H_ H_ 0.710036 0.950705 0.77471 0.10394
H_ H_ 0.637709 0.487552 0.844804 0.10394
H_ H_ 0.0201679 0.597469 0.766169 0.10394
H_ H_ 0.98452 0.664631 0.706067 0.10394
H_ H_ 0.530644 0.770967 0.8374 0.10394
H_ H_ 0.568562 0.695983 0.884324 0.10394
H_ H_ 0.526488 0.942932 0.848411 0.10394
H_ H_ 0.975838 0.879263 0.859426 0.10394
H_ H_ 0.851107 0.992021 0.892116 0.10394
H_ H_ 0.586266 0.805567 0.625631 0.10394
H_ H_ -0.00181905 0.784396 0.600376 0.10394
H_ H_ 0.539217 0.780336 0.95404 0.10394
H_ H_ 0.612237 0.827243 0.47652 0.10394
H_ H_ 0.722863 0.757184 0.598396 0.10394
H_ H_ 0.763366 0.705849 0.669462 0.10394
H_ H_ 0.717599 0.833304 0.77371 0.10394
H_ H_ 0.683624 0.880774 0.697831 0.10394
H_ H_ 0.711414 0.883521 0.946011 0.10394
H_ H_ 0.767551 0.885176 0.873321 0.10394
H_ H_ 0.894967 0.907655 0.984249 0.10394
H_ H_ 0.806447 0.907509 0.653936 0.10394
H_ H_ 0.731995 0.958115 0.682212 0.10394
H_ H_ 0.828679 0.550021 0.772834 0.10394
H_ H_ 0.909791 0.99751405 0.737261 0.10394
H_ H_ 0.52097 0.879133 0.695336 0.10394
H_ H_ 0.557473 0.803119 0.745539 0.10394
H_ H_ 0.911963 0.744241 0.706116 0.10394
H_ H_ 0.870559 0.830088 0.683916 0.10394
H_ H_ 0.956708 0.558517 0.608622 0.10394
H_ H_ 0.515069 0.629763 0.614286 0.10394
H_ H_ 0.638777 0.515421 0.592369 0.10394
H_ H_ 0.946828 0.655886 0.902559 0.10394
H_ H_ 0.517677 0.681834 0.949642 0.10394
H_ H_ 0.921122 0.789191 0.534612 0.10394
H_ H_ 0.848519 0.738694 1.000228558 0.10394
H_ H_ 0.733876 0.708065 0.892224 0.10394
H_ H_ 0.694773 0.746253 0.809853 0.10394
H_ H_ 0.839517 0.744246 0.756911 0.10394
H_ H_ 0.876797 0.697681 0.836288 0.10394
H_ H_ 0.790239 0.611717 0.561845 0.10394
H_ H_ 0.735872 0.614255 0.628567 0.10394
H_ H_ 0.604692 0.593584 0.516331 0.10394
C_ C_ 0.67535 0.595555 0.807222 0.18167
C_ C_ 0.718374 0.577273 0.784517 -0.15533
C_ C_ 0.727508 0.523863 0.775233 0.02923
C_ C_ 0.698203 0.992183 0.777108 -0.15533
C_ C_ 0.657097 0.51304 0.824927 0.18167
C_ C_ 0.529999 0.633713 0.776829 0.18167
C_ C_ -0.000376204 0.675936 0.744493 -0.15533
C_ C_ 0.505532 0.723296 0.771404 0.02923
C_ C_ 0.528095 0.730963 0.821214 -0.15533
C_ C_ 0.548393 0.689059 0.848008 0.18167
C_ C_ 0.507682 0.546498 0.883379 0.69207
C_ C_ 0.969096 0.0104761 0.864494 0.02923
C_ C_ -0.014004000000000016 0.957728 0.855477 -0.15533
C_ C_ 0.958251 0.919519 0.865524 -0.15533
C_ C_ 0.909643 0.932337 0.883743 0.02923
C_ C_ 0.889696 0.98463 0.886435 -0.15533
C_ C_ 0.920668 0.0230304 0.880265 0.02923
C_ C_ 0.898022 0.572874 0.886609 0.69207
C_ C_ 0.898497 0.836729 0.889195 0.69661
C_ C_ 0.577574 0.796417 0.585798 0.18167
C_ C_ 0.528036 0.781914 0.569415 -0.15533
C_ C_ 0.513821 0.772598 0.516274 0.02923
C_ C_ 0.548508 0.781509 0.995212 -0.15533
C_ C_ 0.59554 0.804211 0.501698 0.18167
C_ C_ 0.722792 0.772262 0.635433 0.18167
C_ C_ 0.744166 0.743266 0.677306 -0.15533
C_ C_ 0.741608 0.764823 0.727578 0.02923
C_ C_ 0.71513 0.813401 0.734226 -0.15533
C_ C_ 0.69787 0.841896 0.691358 0.18167
C_ C_ 0.741429 0.865077 0.540537 0.69207
C_ C_ 0.773724 0.875274 1.00442856 0.02923
C_ C_ 0.754498 0.879619 0.953849 -0.15533
C_ C_ 0.784118 0.884995 0.913611 -0.15533
C_ C_ 0.837367 0.893706 0.925062 0.02923
C_ C_ 0.856565 0.897201 0.976268 -0.15533
C_ C_ 0.827373 0.885054 0.0162841 0.02923
C_ C_ 0.855057 0.883382 0.567249 0.69207
C_ C_ 0.848768 0.885639 0.825185 0.69661
C_ C_ 0.812863 0.936851 0.681082 0.18167
C_ C_ 0.770909 0.966943 0.699321 -0.15533
C_ C_ 0.778773 0.00608408 0.736936 0.02923
C_ C_ 0.817362 0.519232 0.74749 -0.15533
C_ C_ 0.871172 0.988444 0.729189 0.18167
C_ C_ 0.991861 0.857674 0.704036 0.18167
C_ C_ 0.516532 0.807556 0.73123 -0.15533
C_ C_ 0.985976 0.770137 0.725382 0.02923
C_ C_ 0.934236 0.776765 0.706417 -0.15533
C_ C_ 0.910579 0.823987 0.688187 0.18167
C_ C_ 0.99112 0.955665 0.621449 0.69207
C_ C_ 0.519787 0.500956 0.621372 0.02923
C_ C_ 0.500807 0.552777 0.625982 -0.15533
C_ C_ 0.532577 0.589458 0.615454 -0.15533
C_ C_ 0.583904 0.578241 0.607451 0.02923
C_ C_ 0.600747 0.525678 0.604535 -0.15533
C_ C_ 0.571726 0.487104 0.611832 0.02923
C_ C_ 0.593995 0.919318 0.60378 0.69207
C_ C_ 0.603618 0.673885 0.616317 0.69661
C_ C_ 0.939608 0.682755 0.932765 0.18167
C_ C_ 0.980128 0.704963 0.958643 -0.15533
C_ C_ 0.973238 0.742178 0.997972 0.02923
C_ C_ 0.928323 0.757658 0.511532 -0.15533
C_ C_ 0.884645 0.728468 0.987629 0.18167
C_ C_ 0.754282 0.71008 0.857997 0.18167
C_ C_ 0.733194 0.730769 0.812235 -0.15533
C_ C_ 0.763508 0.738419 0.772824 0.02923
C_ C_ 0.815817 0.727938 0.781979 -0.15533
C_ C_ 0.836457 0.705275 0.826682 0.18167
C_ C_ 0.763473 0.626817 0.954072 0.69207
C_ C_ 0.728836 0.620978 0.499698 0.02923
C_ C_ 0.747535 0.621301 0.551274 -0.15533
C_ C_ 0.716413 0.614731 0.589234 -0.15533
C_ C_ 0.66285 0.612316 0.575445 0.02923
C_ C_ 0.64473 0.604016 0.524444 -0.15533
C_ C_ 0.676198 0.612414 0.486843 0.02923
C_ C_ 0.651974 0.609098 0.932145 0.69207
C_ C_ 0.647921 0.607394 0.672092 0.69661
C_ C_ 0.873692 0.890233 0.882288 -0.30787
C_ C_ 0.624179 0.617696 0.616342 -0.30787
N_ N_ 0.644239 0.564202 0.82353 -0.32189
N_ N_ 0.553505 0.644009 0.822768 -0.32189
N_ N_ 0.610241 0.80677 0.55202 -0.32189
N_ N_ 0.696821 0.818523 0.643665 -0.32189
N_ N_ 0.860867 0.949501 0.694845 -0.32189
N_ N_ 0.939999 0.862919 0.686615 -0.32189
N_ N_ 0.89253 0.692786 0.947834 -0.32189
N_ N_ 0.807487 0.699194 0.8639 -0.32189
O_ O_ 1.00726239 0.589014 0.900551 -0.63271
O_ O_ 0.53933 0.540294 0.848172 -0.57982
O_ O_ 0.897995 0.596401 0.845096 -0.63271
O_ O_ 0.863724 0.589546 0.9173 -0.57982
O_ O_ 0.747194 0.892617 0.583741 -0.63271
O_ O_ 0.697158 0.84447 0.529655 -0.57982
O_ O_ 0.857561 0.839789 0.59133 -0.63271
O_ O_ 0.877326 0.922377 0.588402 -0.57982
O_ O_ 0.489068 0.899818 0.603523 -0.63271
O_ O_ 0.954703 0.969974 0.652815 -0.57982
O_ O_ 0.595224 0.897648 0.646971 -0.63271
O_ O_ 0.630351 0.906998 0.576041 -0.57982
O_ O_ 0.752957 0.608189 0.906372 -0.63271
O_ O_ 0.795971 0.66084 0.963116 -0.57982
O_ O_ 0.650534 0.651993 0.90753 -0.63271
O_ O_ 0.616106 0.58011 0.919038 -0.57982
F_ F_ 0.937055 0.839344 0.928067 -0.20885
F_ F_ 0.921824 0.816163 0.844772 -0.20885
F_ F_ 0.867377 0.799721 0.898943 -0.20885
F_ F_ 0.813219 0.927063 0.81591 -0.20885
F_ F_ 0.820883 0.84434 0.814405 -0.20885
F_ F_ 0.880085 0.885465 0.787817 -0.20885
F_ F_ 0.569857 0.680473 0.5735 -0.20885
F_ F_ 0.578764 0.694156 0.658778 -0.20885
F_ F_ 0.641534 0.70431 0.610554 -0.20885
F_ F_ 0.679586 0.560274 0.6736 -0.20885
F_ F_ 0.676745 0.646934 0.694164 -0.20885
F_ F_ 0.612319 0.604638 0.706851 -0.20885
