_cell_length_a 26.508
_cell_length_b 26.37200000322088
_cell_length_c 26.311999743092066
_cell_angle_alpha 93.74100058972084
_cell_angle_beta 96.04100104955006
_cell_angle_gamma 83.6869992558723
_symmetry_space_group_name_H-M         'P 1'
_symmetry_Int_Tables_number            1
loop_
_symmetry_equiv_pos_as_xyz
   'x, y, z'
                         
loop_
_atom_site_label
_atom_site_type_symbol
_atom_site_fract_x 
_atom_site_fract_y
_atom_site_fract_z
_atom_site_charge
Zn Zn 0.0846721 0.08701 0.34972 0.83971
Zn Zn 0.159913 0.350224 0.0926214 0.83971
Zn Zn 0.414292 0.421052 0.15895 0.83971
Zn Zn 0.340208 0.154094 0.419484 0.83971
H_ H_ 0.164688 0.127822 0.305418 0.10394
H_ H_ 0.250527 0.0935266 0.276087 0.10394
H_ H_ 0.203198 0.444182 0.281601 0.10394
H_ H_ 0.130212 0.982995 0.329219 0.10394
H_ H_ 0.530744 0.10882 0.257661 0.10394
H_ H_ 0.498913 0.180587 0.20764 0.10394
H_ H_ 0.0275729 0.269663 0.332132 0.10394
H_ H_ 0.065032 0.19625 0.377564 0.10394
H_ H_ 0.0314895 0.445018 0.357849 0.10394
H_ H_ 0.475728 0.378364 0.367596 0.10394
H_ H_ 0.3499 0.489043 0.405472 0.10394
H_ H_ 0.0787813 0.302144 0.136251 0.10394
H_ H_ 0.494405 0.28287 0.0978665 0.10394
H_ H_ 0.0231716 0.2732 0.444022 0.10394
H_ H_ 0.12224 0.323684 0.988896 0.10394
H_ H_ 0.228318 0.267548 0.0990662 0.10394
H_ H_ 0.276325 0.215015 0.173439 0.10394
H_ H_ 0.184955 0.316669 0.276417 0.10394
H_ H_ 0.153479 0.368002 0.20257 0.10394
H_ H_ 0.21538 0.387021 0.451045 0.10394
H_ H_ 0.265262 0.405393 0.384179 0.10394
H_ H_ 0.399159 0.392683 0.486299 0.10394
H_ H_ 0.313872 0.394533 0.169591 0.10394
H_ H_ 0.237655 0.435773 0.202783 0.10394
H_ H_ 0.334331 0.0377326 0.286814 0.10394
H_ H_ 0.403845 0.510697 0.229726 0.10394
H_ H_ 0.0119553 0.385059 0.19831 0.10394
H_ H_ 0.0553809 0.305356 0.241485 0.10394
H_ H_ 0.421064 0.258254 0.236141 0.10394
H_ H_ 0.376142 0.331307 0.191406 0.10394
H_ H_ 0.459078 0.0563547 0.107284 0.10394
H_ H_ 0.0287871 0.121856 0.134742 0.10394
H_ H_ 0.141514 0.00360562 0.0911409 0.10394
H_ H_ 0.441127 0.16424 0.399598 0.10394
H_ H_ 0.00899999 0.183176 0.445562 0.10394
H_ H_ 0.414605 0.29272 0.0352646 0.10394
H_ H_ 0.346778 0.224752 0.514006 0.10394
H_ H_ 0.237435 0.167618 0.366738 0.10394
H_ H_ 0.191882 0.217034 0.305801 0.10394
H_ H_ 0.342464 0.246569 0.25933 0.10394
H_ H_ 0.382685 0.207571 0.335378 0.10394
H_ H_ 0.295156 0.123178 0.0576798 0.10394
H_ H_ 0.244175 0.104426 0.12362 0.10394
H_ H_ 0.119406 0.0782808 0.01604 0.10394
C_ C_ 0.177791 0.0899061 0.309472 0.18167
C_ C_ 0.225372 0.0678368 0.290723 -0.15533
C_ C_ 0.233979 0.0153351 0.284214 0.02923
C_ C_ 0.19651 0.486706 0.286243 -0.15533
C_ C_ 0.154081 0.00688011 0.312898 0.18167
C_ C_ 0.0309091 0.13621 0.265117 0.18167
C_ C_ 0.512966 0.187972 0.246603 -0.15533
C_ C_ 0.00710751 0.227997 0.262755 0.02923
C_ C_ 0.0231266 0.233094 0.3149 -0.15533
C_ C_ 0.0518955 0.190297 0.33617 0.18167
C_ C_ 0.0069881 0.0443866 0.373954 0.69207
C_ C_ 0.469342 0.507421 0.371935 0.02923
C_ C_ 0.489896 0.456559 0.371195 -0.15533
C_ C_ 0.459784 0.418011 0.376273 -0.15533
C_ C_ 0.407125 0.427759 0.383453 0.02923
C_ C_ 0.388979 0.479451 0.394211 -0.15533
C_ C_ 0.418046 0.518886 0.387136 0.02923
C_ C_ 0.397857 0.0696712 0.380867 0.69207
C_ C_ 0.40097 0.328925 0.386045 0.69661
C_ C_ 0.0727163 0.295957 0.0947359 0.18167
C_ C_ 0.0313989 0.272927 0.0762154 -0.15533
C_ C_ 0.0202125 0.270728 0.0235514 0.02923
C_ C_ 0.0392239 0.278408 0.483945 -0.15533
C_ C_ 0.0957811 0.311658 0.0121343 0.18167
C_ C_ 0.222801 0.276645 0.141252 0.18167
C_ C_ 0.247941 0.248992 0.182385 -0.15533
C_ C_ 0.234656 0.263439 0.232078 0.02923
C_ C_ 0.194046 0.300939 0.238169 -0.15533
C_ C_ 0.17608 0.332369 0.197136 0.18167
C_ C_ 0.244741 0.364589 0.0523035 0.69207
C_ C_ 0.275007 0.373655 0.505064 0.02923
C_ C_ 0.253012 0.385948 0.45884 -0.15533
C_ C_ 0.284 0.391348 0.418198 -0.15533
C_ C_ 0.338322 0.390044 0.426189 0.02923
C_ C_ 0.358001 0.388437 0.477775 -0.15533
C_ C_ 0.326698 0.381671 0.51771 0.02923
C_ C_ 0.355114 0.386937 0.0757595 0.69207
C_ C_ 0.345366 0.38366 0.328338 0.69661
C_ C_ 0.316164 0.429414 0.189412 0.18167
C_ C_ 0.273442 0.452435 0.211821 -0.15533
C_ C_ 0.277193 0.497311 0.240793 0.02923
C_ C_ 0.324295 0.00850405 0.259227 -0.15533
C_ C_ 0.369658 0.490288 0.229398 0.18167
C_ C_ 0.499755 0.356681 0.198308 0.18167
C_ C_ 0.0135595 0.314066 0.230115 -0.15533
C_ C_ 0.494233 0.281922 0.239865 0.02923
C_ C_ 0.44297 0.28303 0.219887 -0.15533
C_ C_ 0.419881 0.324354 0.193121 0.18167
C_ C_ 0.48987 0.455882 0.124432 0.69207
C_ C_ 0.0198466 0.993853 0.111323 0.02923
C_ C_ 0.00577263 0.0455143 0.122413 -0.15533
C_ C_ 0.0421931 0.0812177 0.129779 -0.15533
C_ C_ 0.0913712 0.0682833 0.114935 0.02923
C_ C_ 0.105696 0.0168002 0.104229 -0.15533
C_ C_ 0.0723421 0.977287 0.107376 0.02923
C_ C_ 0.0976977 0.428738 0.110546 0.69207
C_ C_ 0.110138 0.164356 0.11593 0.69661
C_ C_ 0.437882 0.182692 0.438996 0.18167
C_ C_ 0.477605 0.205718 0.46451 -0.15533
C_ C_ 0.470742 0.242775 0.504094 0.02923
C_ C_ 0.420195 0.262664 0.00969186 -0.15533
C_ C_ 0.383098 0.224171 0.498487 0.18167
C_ C_ 0.260547 0.192132 0.35231 0.18167
C_ C_ 0.233945 0.221478 0.314426 -0.15533
C_ C_ 0.261811 0.237452 0.278277 0.02923
C_ C_ 0.315322 0.232373 0.285412 -0.15533
C_ C_ 0.340581 0.207222 0.326313 0.18167
C_ C_ 0.262916 0.122168 0.455906 0.69207
C_ C_ 0.230002 0.121111 0.997736 0.02923
C_ C_ 0.253251 0.115474 0.0488665 -0.15533
C_ C_ 0.223248 0.110708 0.0872669 -0.15533
C_ C_ 0.17205 0.101344 0.076104 0.02923
C_ C_ 0.152862 0.0958264 0.0245238 -0.15533
C_ C_ 0.179808 0.112479 0.985497 0.02923
C_ C_ 0.149085 0.115525 0.430294 0.69207
C_ C_ 0.1606 0.1041 0.17217 0.69661
C_ C_ 0.373425 0.384387 0.382339 -0.30787
C_ C_ 0.132897 0.108074 0.116695 -0.30787
N_ N_ 0.143745 0.0566567 0.31678 -0.32189
N_ N_ 0.0508782 0.142499 0.314688 -0.32189
N_ N_ 0.106271 0.30987 0.0643908 -0.32189
N_ N_ 0.191647 0.319256 0.151196 -0.32189
N_ N_ 0.363261 0.447788 0.198953 -0.32189
N_ N_ 0.449188 0.363151 0.188125 -0.32189
N_ N_ 0.392375 0.189096 0.458717 -0.32189
N_ N_ 0.312251 0.187358 0.359888 -0.32189
O_ O_ 0.503871 0.0902758 0.4046 -0.63271
O_ O_ 0.0416319 0.0355793 0.342587 -0.57982
O_ O_ 0.400781 0.0972891 0.340272 -0.63271
O_ O_ 0.373764 0.0908414 0.417811 -0.57982
O_ O_ 0.250696 0.392058 0.095236 -0.63271
O_ O_ 0.204995 0.340139 0.0464421 -0.57982
O_ O_ 0.365708 0.343065 0.0984705 -0.63271
O_ O_ 0.385106 0.422915 0.0912844 -0.57982
O_ O_ 0.989315 0.407927 0.099629 -0.63271
O_ O_ 0.453205 0.470593 0.154556 -0.57982
O_ O_ 0.0889058 0.398867 0.147323 -0.63271
O_ O_ 0.137277 0.415446 0.0838138 -0.57982
O_ O_ 0.26468 0.0921885 0.414302 -0.63271
O_ O_ 0.291562 0.159861 0.462544 -0.57982
O_ O_ 0.157431 0.155563 0.407149 -0.63271
O_ O_ 0.110308 0.0894246 0.413493 -0.57982
F_ F_ 0.437545 0.322697 0.428286 -0.20885
F_ F_ 0.426982 0.312885 0.344866 -0.20885
F_ F_ 0.365871 0.294364 0.389032 -0.20885
F_ F_ 0.316834 0.427296 0.317235 -0.20885
F_ F_ 0.31419 0.34307 0.318513 -0.20885
F_ F_ 0.377484 0.376751 0.291973 -0.20885
F_ F_ 0.0743071 0.167357 0.0710115 -0.20885
F_ F_ 0.0874052 0.181808 0.159334 -0.20885
F_ F_ 0.146218 0.199089 0.111502 -0.20885
F_ F_ 0.193401 0.0617361 0.181605 -0.20885
F_ F_ 0.18736 0.146082 0.183909 -0.20885
F_ F_ 0.127072 0.105857 0.210423 -0.20885
Zn Zn 0.0912211 0.0879486 0.855069 0.83971
Zn Zn 0.159667 0.342221 0.575765 0.83971
Zn Zn 0.412814 0.418453 0.654843 0.83971
Zn Zn 0.334385 0.160144 0.91733 0.83971
H_ H_ 0.166297 0.133619 0.809207 0.10394
H_ H_ 0.246575 0.100008 0.76217 0.10394
H_ H_ 0.215129 0.452783 0.775503 0.10394
H_ H_ 0.146057 0.990346 0.847633 0.10394
H_ H_ 0.540238 0.107187 0.740368 0.10394
H_ H_ 0.486404 0.175654 0.707763 0.10394
H_ H_ 0.0361181 0.273347 0.834265 0.10394
H_ H_ 0.0736831 0.203083 0.883829 0.10394
H_ H_ 0.0391858 0.443973 0.872286 0.10394
H_ H_ 0.48389 0.380406 0.8997 0.10394
H_ H_ 0.349082 0.491051 0.903206 0.10394
H_ H_ 0.0836045 0.303111 0.626376 0.10394
H_ H_ 0.514509 0.253951 0.600811 0.10394
H_ H_ 0.046288 0.288973 0.950571 0.10394
H_ H_ 0.107202 0.313284 0.471279 0.10394
H_ H_ 0.224846 0.241535 0.590147 0.10394
H_ H_ 0.269059 0.200214 0.671375 0.10394
H_ H_ 0.223753 0.334505 0.757837 0.10394
H_ H_ 0.181397 0.372381 0.679709 0.10394
H_ H_ 0.231944 0.323187 0.955279 0.10394
H_ H_ 0.27804 0.336987 0.884771 0.10394
H_ H_ 0.390302 0.405078 0.990943 0.10394
H_ H_ 0.310597 0.403675 0.657346 0.10394
H_ H_ 0.235224 0.455559 0.690444 0.10394
H_ H_ 0.337998 0.0505547 0.78184 0.10394
H_ H_ 0.411637 0.497378 0.746218 0.10394
H_ H_ 0.0143052 0.383991 0.699401 0.10394
H_ H_ 0.0611133 0.306273 0.729204 0.10394
H_ H_ 0.40792 0.25913 0.73748 0.10394
H_ H_ 0.371419 0.340251 0.696528 0.10394
H_ H_ 0.470175 0.0653887 0.641351 0.10394
H_ H_ 0.0195804 0.117841 0.626662 0.10394
H_ H_ 0.142945 0.00543981 0.583686 0.10394
H_ H_ 0.436818 0.164389 0.899448 0.10394
H_ H_ 0.0220396 0.188286 0.949471 0.10394
H_ H_ 0.413498 0.273057 0.554869 0.10394
H_ H_ 0.341064 0.245414 0.00038999999999989043 0.10394
H_ H_ 0.23531 0.18129 0.868418 0.10394
H_ H_ 0.196981 0.23687 0.802967 0.10394
H_ H_ 0.338661 0.222707 0.739842 0.10394
H_ H_ 0.379247 0.192397 0.826802 0.10394
H_ H_ 0.289018 0.10105 0.55124 0.10394
H_ H_ 0.235265 0.0911404 0.620761 0.10394
H_ H_ 0.103522 0.100661 0.51405 0.10394
C_ C_ 0.179299 0.0945783 0.805139 0.18167
C_ C_ 0.225676 0.0768267 0.785766 -0.15533
C_ C_ 0.238094 0.0246862 0.780641 0.02923
C_ C_ 0.210071 0.493018 0.7859 -0.15533
C_ C_ 0.164297 0.012019 0.822688 0.18167
C_ C_ 0.0276949 0.137012 0.779201 0.18167
C_ C_ 0.509176 0.183339 0.742166 -0.15533
C_ C_ 0.0146972 0.226906 0.765617 0.02923
C_ C_ 0.0356423 0.235116 0.815761 -0.15533
C_ C_ 0.0565461 0.195263 0.846301 0.18167
C_ C_ 0.00667674 0.0436059 0.880261 0.69207
C_ C_ 0.468228 0.508295 0.877956 0.02923
C_ C_ 0.491579 0.457097 0.885391 -0.15533
C_ C_ 0.461463 0.41779 0.891159 -0.15533
C_ C_ 0.408529 0.426419 0.896665 0.02923
C_ C_ 0.388031 0.479303 0.89965 -0.15533
C_ C_ 0.41692 0.518196 0.88925 0.02923
C_ C_ 0.393062 0.0763458 0.882802 0.69207
C_ C_ 0.403107 0.332015 0.881184 0.69661
C_ C_ 0.0759267 0.291892 0.586515 0.18167
C_ C_ 0.0314554 0.269015 0.573186 -0.15533
C_ C_ 0.016957 0.255806 0.52067 0.02923
C_ C_ 0.0515384 0.289535 0.991527 -0.15533
C_ C_ 0.0864712 0.297966 0.499066 0.18167
C_ C_ 0.223111 0.259483 0.628893 0.18167
C_ C_ 0.247394 0.236866 0.673151 -0.15533
C_ C_ 0.238658 0.258883 0.719858 0.02923
C_ C_ 0.218302 0.30915 0.722145 -0.15533
C_ C_ 0.193329 0.331283 0.678865 0.18167
C_ C_ 0.24192 0.358672 0.543034 0.69207
C_ C_ 0.279162 0.366616 0.0110288 0.02923
C_ C_ 0.260528 0.351406 0.959792 -0.15533
C_ C_ 0.289774 0.356321 0.920114 -0.15533
C_ C_ 0.332717 0.387333 0.928741 0.02923
C_ C_ 0.351651 0.395509 0.982359 -0.15533
C_ C_ 0.324681 0.389391 0.0231091 0.02923
C_ C_ 0.353042 0.377851 0.569376 0.69207
C_ C_ 0.343831 0.395222 0.831706 0.69661
C_ C_ 0.315849 0.436115 0.685169 0.18167
C_ C_ 0.272891 0.465818 0.704857 -0.15533
C_ C_ 0.282474 0.506913 0.740247 0.02923
C_ C_ 0.330262 0.0166071 0.755473 -0.15533
C_ C_ 0.373848 0.487272 0.73255 0.18167
C_ C_ 0.494168 0.353675 0.700129 0.18167
C_ C_ 0.0189088 0.307209 0.72046 -0.15533
C_ C_ 0.486444 0.276609 0.741738 0.02923
C_ C_ 0.432121 0.285998 0.726295 -0.15533
C_ C_ 0.411335 0.329155 0.701542 0.18167
C_ C_ 0.489747 0.458621 0.624065 0.69207
C_ C_ 0.0270282 0.990799 0.623921 0.02923
C_ C_ 0.00898081 0.0423378 0.631079 -0.15533
C_ C_ 0.0391928 0.0803004 0.626546 -0.15533
C_ C_ 0.0876091 0.0680557 0.605457 0.02923
C_ C_ 0.104804 0.0157 0.595969 -0.15533
C_ C_ 0.0753906 0.977555 0.608781 0.02923
C_ C_ 0.0970233 0.421564 0.60987 0.69207
C_ C_ 0.104812 0.159824 0.609617 0.69661
C_ C_ 0.433758 0.183629 0.93688 0.18167
C_ C_ 0.476582 0.203866 0.962407 -0.15533
C_ C_ 0.470384 0.246949 0.995221 0.02923
C_ C_ 0.423512 0.247364 0.524627 -0.15533
C_ C_ 0.378784 0.236658 0.98786 0.18167
C_ C_ 0.259624 0.204716 0.850393 0.18167
C_ C_ 0.236906 0.233183 0.809393 -0.15533
C_ C_ 0.265161 0.236253 0.767233 0.02923
C_ C_ 0.317948 0.219327 0.773411 -0.15533
C_ C_ 0.340341 0.20365 0.821783 0.18167
C_ C_ 0.262821 0.129521 0.958047 0.69207
C_ C_ 0.228199 0.113124 0.493363 0.02923
C_ C_ 0.249838 0.0991873 0.541469 -0.15533
C_ C_ 0.218449 0.0940518 0.581905 -0.15533
C_ C_ 0.165435 0.0958161 0.57132 0.02923
C_ C_ 0.144945 0.0993718 0.519172 -0.15533
C_ C_ 0.174849 0.105193 0.480216 0.02923
C_ C_ 0.153417 0.115027 0.934232 0.69207
C_ C_ 0.152695 0.0985862 0.669272 0.69661
C_ C_ 0.370578 0.384313 0.886752 -0.30787
C_ C_ 0.126734 0.105033 0.612476 -0.30787
N_ N_ 0.149927 0.0628104 0.822774 -0.32189
N_ N_ 0.0548899 0.145038 0.826007 -0.32189
N_ N_ 0.101421 0.309025 0.549371 -0.32189
N_ N_ 0.19161 0.305361 0.632871 -0.32189
N_ N_ 0.363229 0.448664 0.696579 -0.32189
N_ N_ 0.443715 0.358365 0.68503 -0.32189
N_ N_ 0.386119 0.197473 0.952053 -0.32189
N_ N_ 0.311426 0.197108 0.858923 -0.32189
O_ O_ 0.501223 0.0928347 0.88944 -0.63271
O_ O_ 0.0475074 0.0392899 0.854222 -0.57982
O_ O_ 0.395977 0.101784 0.843183 -0.63271
O_ O_ 0.367419 0.0972184 0.920713 -0.57982
O_ O_ 0.247816 0.377405 0.591039 -0.63271
O_ O_ 0.202794 0.335027 0.528507 -0.57982
O_ O_ 0.347111 0.337007 0.593972 -0.63271
O_ O_ 0.375942 0.417319 0.591189 -0.57982
O_ O_ 0.986842 0.40942 0.596575 -0.63271
O_ O_ 0.455121 0.468379 0.655331 -0.57982
O_ O_ 0.0988257 0.396952 0.652881 -0.63271
O_ O_ 0.132049 0.40753 0.578804 -0.57982
O_ O_ 0.2663 0.0977407 0.916904 -0.63271
O_ O_ 0.296128 0.164233 0.966097 -0.57982
O_ O_ 0.15733 0.152903 0.907202 -0.63271
O_ O_ 0.118963 0.0845016 0.919987 -0.57982
F_ F_ 0.432093 0.32512 0.927937 -0.20885
F_ F_ 0.434547 0.326153 0.840725 -0.20885
F_ F_ 0.372574 0.290439 0.874339 -0.20885
F_ F_ 0.305895 0.434448 0.834131 -0.20885
F_ F_ 0.317931 0.354369 0.810416 -0.20885
F_ F_ 0.372081 0.407586 0.794235 -0.20885
F_ F_ 0.0689977 0.165256 0.569802 -0.20885
F_ F_ 0.0829014 0.181911 0.652959 -0.20885
F_ F_ 0.141256 0.189691 0.600224 -0.20885
F_ F_ 0.1786 0.0507554 0.675738 -0.20885
F_ F_ 0.186787 0.134177 0.688772 -0.20885
F_ F_ 0.11502 0.104366 0.701232 -0.20885
Zn Zn 0.0855367 0.582525 0.338267 0.83971
Zn Zn 0.157309 0.846277 0.0796457 0.83971
Zn Zn 0.405495 0.924553 0.154884 0.83971
Zn Zn 0.338047 0.654299 0.415596 0.83971
H_ H_ 0.161704 0.630179 0.290736 0.10394
H_ H_ 0.244301 0.59793 0.260768 0.10394
H_ H_ 0.205484 0.940447 0.296806 0.10394
H_ H_ 0.123661 0.484743 0.315112 0.10394
H_ H_ 0.524914 0.606634 0.242794 0.10394
H_ H_ 0.483076 0.689341 0.199798 0.10394
H_ H_ 0.0452032 0.770181 0.316006 0.10394
H_ H_ 0.0622274 0.688963 0.371458 0.10394
H_ H_ 0.0311084 0.940548 0.387113 0.10394
H_ H_ 0.487745 0.880956 0.398544 0.10394
H_ H_ 0.354191 0.986965 0.401655 0.10394
H_ H_ 0.0786882 0.804114 0.129409 0.10394
H_ H_ 0.497235 0.77288 0.0970295 0.10394
H_ H_ 0.023537 0.809251 0.443481 0.10394
H_ H_ 0.121936 0.808014 0.982191 0.10394
H_ H_ 0.213605 0.749569 0.101746 0.10394
H_ H_ 0.242013 0.702411 0.176131 0.10394
H_ H_ 0.213733 0.842261 0.26843 0.10394
H_ H_ 0.172604 0.882717 0.192236 0.10394
H_ H_ 0.230749 0.844834 0.447443 0.10394
H_ H_ 0.279299 0.860432 0.383779 0.10394
H_ H_ 0.401584 0.904986 0.496512 0.10394
H_ H_ 0.298819 0.90163 0.159226 0.10394
H_ H_ 0.227975 0.94416 0.200009 0.10394
H_ H_ 0.333321 0.549462 0.274609 0.10394
H_ H_ 0.398726 -0.000358838 0.236564 0.10394
H_ H_ 0.00993979 0.884668 0.18542 0.10394
H_ H_ 0.0515617 0.808794 0.23384 0.10394
H_ H_ 0.399815 0.765054 0.244899 0.10394
H_ H_ 0.360155 0.836771 0.194413 0.10394
H_ H_ 0.461366 0.55404 0.121141 0.10394
H_ H_ 0.00960419 0.619582 0.094234 0.10394
H_ H_ 0.143525 0.512965 0.0970091 0.10394
H_ H_ 0.443903 0.658909 0.400274 0.10394
H_ H_ 0.00461354 0.722223 0.424053 0.10394
H_ H_ 0.417187 0.778539 0.0515682 0.10394
H_ H_ 0.336378 0.736912 0.497826 0.10394
H_ H_ 0.229622 0.698977 0.382889 0.10394
H_ H_ 0.187019 0.735975 0.305836 0.10394
H_ H_ 0.328033 0.718986 0.238933 0.10394
H_ H_ 0.368393 0.676631 0.313805 0.10394
H_ H_ 0.279376 0.635074 0.0655556 0.10394
H_ H_ 0.222001 0.613349 0.126792 0.10394
H_ H_ 0.104684 0.593259 0.00744521 0.10394
C_ C_ 0.174795 0.591753 0.295849 0.18167
C_ C_ 0.221752 0.57223 0.276884 -0.15533
C_ C_ 0.23341 0.518197 0.271485 0.02923
C_ C_ 0.200936 0.983232 0.299294 -0.15533
C_ C_ 0.150019 0.507766 0.299267 0.18167
C_ C_ 0.017863 0.631705 0.262586 0.18167
C_ C_ 0.495762 0.689153 0.240859 -0.15533
C_ C_ 0.00727817 0.72464 0.254426 0.02923
C_ C_ 0.0344311 0.73128 0.303157 -0.15533
C_ C_ 0.0530282 0.685612 0.329024 0.18167
C_ C_ 0.00262214 0.545654 0.356259 0.69207
C_ C_ 0.475622 0.00935428 0.380184 0.02923
C_ C_ 0.498382 0.958851 0.385464 -0.15533
C_ C_ 0.469526 0.919114 0.393658 -0.15533
C_ C_ 0.416718 0.929308 0.394537 0.02923
C_ C_ 0.394637 0.979445 0.395313 -0.15533
C_ C_ 0.423567 0.0197332 0.386209 0.02923
C_ C_ 0.392426 0.572436 0.387775 0.69207
C_ C_ 0.408566 0.829675 0.387755 0.69661
C_ C_ 0.0701259 0.798827 0.0887351 0.18167
C_ C_ 0.0245352 0.77814 0.0676941 -0.15533
C_ C_ 0.0140814 0.770653 0.0157642 0.02923
C_ C_ 0.0370814 0.802427 0.481579 -0.15533
C_ C_ 0.0931716 0.799748 0.00460778 0.18167
C_ C_ 0.209662 0.769727 0.137932 0.18167
C_ C_ 0.226567 0.743083 0.182068 -0.15533
C_ C_ 0.235494 0.771597 0.228766 0.02923
C_ C_ 0.209719 0.819798 0.232128 -0.15533
C_ C_ 0.187463 0.843073 0.187715 0.18167
C_ C_ 0.237569 0.869851 0.0429687 0.69207
C_ C_ 0.281895 0.866791 0.510025 0.02923
C_ C_ 0.267253 0.857411 0.459021 -0.15533
C_ C_ 0.296052 0.869646 0.421115 -0.15533
C_ C_ 0.343676 0.889638 0.431929 0.02923
C_ C_ 0.360936 0.894931 0.484129 -0.15533
C_ C_ 0.328575 0.889591 0.523361 0.02923
C_ C_ 0.347099 0.891925 0.0697257 0.69207
C_ C_ 0.354822 0.890182 0.33586 0.69661
C_ C_ 0.306045 0.933379 0.186021 0.18167
C_ C_ 0.265195 0.955533 0.212284 -0.15533
C_ C_ 0.275242 0.992072 0.252161 0.02923
C_ C_ 0.326253 0.516158 0.249791 -0.15533
C_ C_ 0.362401 0.989473 0.229112 0.18167
C_ C_ 0.483651 0.862974 0.212114 0.18167
C_ C_ 0.0110487 0.811009 0.215149 -0.15533
C_ C_ 0.474101 0.781374 0.24536 0.02923
C_ C_ 0.423263 0.788421 0.227893 -0.15533
C_ C_ 0.402287 0.829173 0.201407 0.18167
C_ C_ 0.48543 0.959152 0.125259 0.69207
C_ C_ 0.0163642 0.492633 0.109952 0.02923
C_ C_ -0.003897999999999957 0.54324 0.102929 -0.15533
C_ C_ 0.0272979 0.580823 0.0978499 -0.15533
C_ C_ 0.0810932 0.570816 0.102819 0.02923
C_ C_ 0.101989 0.51986 0.0980381 -0.15533
C_ C_ 0.0703318 0.479076 0.106973 0.02923
C_ C_ 0.0928329 0.923603 0.103951 0.69207
C_ C_ 0.0930013 0.667994 0.108071 0.69661
C_ C_ 0.436225 0.682156 0.436066 0.18167
C_ C_ 0.474015 0.706811 0.462449 -0.15533
C_ C_ 0.465902 0.744587 0.500327 0.02923
C_ C_ 0.421642 0.752028 0.0200213 -0.15533
C_ C_ 0.374724 0.73343 0.483476 0.18167
C_ C_ 0.25282 0.704397 0.352376 0.18167
C_ C_ 0.230114 0.734058 0.313626 -0.15533
C_ C_ 0.258279 0.744979 0.273895 0.02923
C_ C_ 0.308121 0.722269 0.273143 -0.15533
C_ C_ 0.330334 0.694422 0.315327 0.18167
C_ C_ 0.258321 0.612431 0.44402 0.69207
C_ C_ 0.222416 0.628336 0.999904 0.02923
C_ C_ 0.239479 0.628905 0.0524502 -0.15533
C_ C_ 0.206728 0.619591 0.0895913 -0.15533
C_ C_ 0.158201 0.608509 0.0735282 0.02923
C_ C_ 0.141096 0.603708 0.0222647 -0.15533
C_ C_ 0.17191 0.616487 0.985226 0.02923
C_ C_ 0.147672 0.599818 0.414649 0.69207
C_ C_ 0.139507 0.605646 0.168802 0.69661
C_ C_ 0.380952 0.885583 0.391813 -0.30787
C_ C_ 0.117319 0.61254 0.111046 -0.30787
N_ N_ 0.140356 0.558585 0.303825 -0.32189
N_ N_ 0.0489328 0.637763 0.30605 -0.32189
N_ N_ 0.104778 0.805839 0.0564897 -0.32189
N_ N_ 0.186754 0.817305 0.142986 -0.32189
N_ N_ 0.351993 0.953172 0.191854 -0.32189
N_ N_ 0.433024 0.865401 0.191474 -0.32189
N_ N_ 0.38744 0.696076 0.446207 -0.32189
N_ N_ 0.302596 0.685032 0.353991 -0.32189
O_ O_ 0.501458 0.590545 0.390328 -0.63271
O_ O_ 0.037754 0.536284 0.323522 -0.57982
O_ O_ 0.395198 0.601131 0.349208 -0.63271
O_ O_ 0.3684 0.591769 0.427452 -0.57982
O_ O_ 0.240604 0.892571 0.0866752 -0.63271
O_ O_ 0.2022 0.836339 0.0318326 -0.57982
O_ O_ 0.35127 0.849316 0.093948 -0.63271
O_ O_ 0.367092 0.932097 0.0925411 -0.57982
O_ O_ 0.986 0.911818 0.0950756 -0.63271
O_ O_ 0.453347 0.969621 0.160076 -0.57982
O_ O_ 0.0864722 0.893956 0.141209 -0.63271
O_ O_ 0.127282 0.908278 0.0723395 -0.57982
O_ O_ 0.266681 0.586779 0.401201 -0.63271
O_ O_ 0.286784 0.650969 0.456104 -0.57982
O_ O_ 0.147565 0.644032 0.394132 -0.63271
O_ O_ 0.111707 0.568788 0.401294 -0.57982
F_ F_ 0.437609 0.816444 0.430737 -0.20885
F_ F_ 0.442383 0.814726 0.350293 -0.20885
F_ F_ 0.369323 0.797734 0.382363 -0.20885
F_ F_ 0.308468 0.920485 0.330044 -0.20885
F_ F_ 0.33919 0.844147 0.310487 -0.20885
F_ F_ 0.383842 0.906794 0.301025 -0.20885
F_ F_ 0.0708487 0.6781 0.060845 -0.20885
F_ F_ 0.0573625 0.678416 0.144973 -0.20885
F_ F_ 0.128827 0.703123 0.121719 -0.20885
F_ F_ 0.170999 0.564125 0.179054 -0.20885
F_ F_ 0.166387 0.64571 0.188414 -0.20885
F_ F_ 0.102617 0.607754 0.202624 -0.20885
Zn Zn 0.0934678 0.586933 0.847013 0.83971
Zn Zn 0.159303 0.8419 0.58081 0.83971
Zn Zn 0.411189 0.920238 0.655766 0.83971
Zn Zn 0.338768 0.657297 0.921339 0.83971
H_ H_ 0.168658 0.636261 0.80639 0.10394
H_ H_ 0.2469 0.606462 0.76803 0.10394
H_ H_ 0.220692 0.949239 0.801299 0.10394
H_ H_ 0.13606 0.482806 0.808609 0.10394
H_ H_ 0.533635 0.600862 0.734783 0.10394
H_ H_ 0.492568 0.678797 0.697477 0.10394
H_ H_ 0.0233027 0.767923 0.828518 0.10394
H_ H_ 0.071008 0.698262 0.878811 0.10394
H_ H_ 0.0375957 0.942405 0.883248 0.10394
H_ H_ 0.468258 0.881087 0.873747 0.10394
H_ H_ 0.349648 0.996122 0.893308 0.10394
H_ H_ 0.0792363 0.79157 0.623082 0.10394
H_ H_ 0.494696 0.777173 0.599194 0.10394
H_ H_ 0.0409549 0.777821 0.939343 0.10394
H_ H_ 0.109313 0.832658 0.478015 0.10394
H_ H_ 0.211353 0.740305 0.600231 0.10394
H_ H_ 0.263723 0.698114 0.672364 0.10394
H_ H_ 0.222529 0.832853 0.769171 0.10394
H_ H_ 0.18036 0.873909 0.686542 0.10394
H_ H_ 0.214485 0.863937 0.940736 0.10394
H_ H_ 0.264042 0.894764 0.877051 0.10394
H_ H_ 0.385982 0.92648 0.984523 0.10394
H_ H_ 0.304328 0.901982 0.664781 0.10394
H_ H_ 0.234025 0.94872 0.70702 0.10394
H_ H_ 0.34038 0.547788 0.780745 0.10394
H_ H_ 0.407102 0.0015499999999999403 0.738689 0.10394
H_ H_ 0.0177196 0.876192 0.682238 0.10394
H_ H_ 0.0596983 0.802879 0.728833 0.10394
H_ H_ 0.407174 0.760832 0.749263 0.10394
H_ H_ 0.371545 0.838043 0.701974 0.10394
H_ H_ 0.467864 0.561863 0.6225 0.10394
H_ H_ 0.0213448 0.615755 0.626927 0.10394
H_ H_ 0.13984 0.502698 0.581626 0.10394
H_ H_ 0.437117 0.668513 0.899659 0.10394
H_ H_ 0.0192376 0.69152 0.944607 0.10394
H_ H_ 0.40526 0.789692 0.539278 0.10394
H_ H_ 0.34536 0.736548 0.00894879 0.10394
H_ H_ 0.235434 0.705088 0.890119 0.10394
H_ H_ 0.196632 0.751538 0.812233 0.10394
H_ H_ 0.335094 0.702585 0.743146 0.10394
H_ H_ 0.37845 0.680068 0.82376 0.10394
H_ H_ 0.287487 0.583821 0.541152 0.10394
H_ H_ 0.228706 0.582493 0.607808 0.10394
H_ H_ 0.0989614 0.583924 0.497735 0.10394
C_ C_ 0.182144 0.596783 0.805338 0.18167
C_ C_ 0.227254 0.580139 0.783736 -0.15533
C_ C_ 0.241593 0.528447 0.774192 0.02923
C_ C_ 0.211038 0.991635 0.805571 -0.15533
C_ C_ 0.160841 0.511221 0.799865 0.18167
C_ C_ 0.0419823 0.634223 0.765481 0.18167
C_ C_ 0.508741 0.679929 0.736277 -0.15533
C_ C_ 0.0126142 0.723321 0.760189 0.02923
C_ C_ 0.0328774 0.731878 0.811052 -0.15533
C_ C_ 0.0565683 0.691384 0.840134 0.18167
C_ C_ 0.0127823 0.545054 0.873117 0.69207
C_ C_ 0.472895 0.00974603 0.872139 0.02923
C_ C_ 0.48901 0.956741 0.868677 -0.15533
C_ C_ 0.456705 0.920742 0.878298 -0.15533
C_ C_ 0.406334 0.933243 0.890328 0.02923
C_ C_ 0.388893 0.986142 0.891899 -0.15533
C_ C_ 0.420183 0.0222679 0.884621 0.02923
C_ C_ 0.386524 0.568828 0.888974 0.69207
C_ C_ 0.394184 0.833577 0.8902 0.69661
C_ C_ 0.0659707 0.796738 0.583589 0.18167
C_ C_ 0.0227074 0.775976 0.563884 -0.15533
C_ C_ 0.00684206 0.779882 0.513147 0.02923
C_ C_ 0.0489975 0.780575 0.982642 -0.15533
C_ C_ 0.0851324 0.815115 0.501365 0.18167
C_ C_ 0.21281 0.76032 0.6362 0.18167
C_ C_ 0.239323 0.733993 0.67926 -0.15533
C_ C_ 0.239902 0.759482 0.726272 0.02923
C_ C_ 0.21995 0.811173 0.731652 -0.15533
C_ C_ 0.193573 0.833482 0.687811 0.18167
C_ C_ 0.241996 0.861465 0.546154 0.69207
C_ C_ 0.274552 0.874675 0.00422799 0.02923
C_ C_ 0.253753 0.870768 0.95236 -0.15533
C_ C_ 0.281143 0.889169 0.914648 -0.15533
C_ C_ 0.331213 0.902061 0.926261 0.02923
C_ C_ 0.350996 0.906762 0.977179 -0.15533
C_ C_ 0.322927 0.894739 0.0176615 0.02923
C_ C_ 0.35398 0.890271 0.576852 0.69207
C_ C_ 0.348166 0.891586 0.82892 0.69661
C_ C_ 0.310858 0.936048 0.688501 0.18167
C_ C_ 0.270817 0.963222 0.711624 -0.15533
C_ C_ 0.279589 1.00391672 0.748016 0.02923
C_ C_ 0.332943 0.515698 0.753318 -0.15533
C_ C_ 0.368685 0.990945 0.729081 0.18167
C_ C_ 0.491828 0.848015 0.686903 0.18167
C_ C_ 0.0188406 0.808634 0.721962 -0.15533
C_ C_ 0.486867 0.774626 0.734126 0.02923
C_ C_ 0.432855 0.785555 0.732802 -0.15533
C_ C_ 0.411198 0.827498 0.705248 0.18167
C_ C_ 0.487342 0.963954 0.625498 0.69207
C_ C_ 0.0242841 0.487752 0.62224 0.02923
C_ C_ 1.00809868 0.538323 0.632217 -0.15533
C_ C_ 0.0346937 0.576536 0.617759 -0.15533
C_ C_ 0.0828311 0.564364 0.599151 0.02923
C_ C_ 0.0990139 0.511759 0.592648 -0.15533
C_ C_ 0.0723855 0.473148 0.606177 0.02923
C_ C_ 0.09872 0.923075 0.607924 0.69207
C_ C_ 0.097653 0.657558 0.596725 0.69661
C_ C_ 0.43206 0.69395 0.930511 0.18167
C_ C_ 0.474368 0.715862 0.955238 -0.15533
C_ C_ 0.469217 0.747161 -0.0017580000000000373 0.02923
C_ C_ 0.41458 0.757485 0.512107 -0.15533
C_ C_ 0.380023 0.733129 0.991275 0.18167
C_ C_ 0.258202 0.710311 0.859484 0.18167
C_ C_ 0.235821 0.736456 0.817004 -0.15533
C_ C_ 0.261229 0.731264 0.771535 0.02923
C_ C_ 0.313199 0.711215 0.776125 -0.15533
C_ C_ 0.336793 0.692018 0.820203 0.18167
C_ C_ 0.2592 0.630373 0.960574 0.69207
C_ C_ 0.223571 0.59628 0.480098 0.02923
C_ C_ 0.245651 0.592313 0.532292 -0.15533
C_ C_ 0.210304 0.590848 0.569132 -0.15533
C_ C_ 0.158651 0.593773 0.557962 0.02923
C_ C_ 0.138626 0.593285 0.507468 -0.15533
C_ C_ 0.170548 0.596232 0.467921 0.02923
C_ C_ 0.152192 0.614421 0.929811 0.69207
C_ C_ 0.148942 0.602202 0.657948 0.69661
C_ C_ 0.368973 0.890244 0.884691 -0.30787
C_ C_ 0.123852 0.602421 0.601629 -0.30787
N_ N_ 0.149409 0.561754 0.812516 -0.32189
N_ N_ 0.0610532 0.641964 0.816002 -0.32189
N_ N_ 0.0996241 0.813502 0.551913 -0.32189
N_ N_ 0.188145 0.808412 0.640825 -0.32189
N_ N_ 0.358555 0.950451 0.696351 -0.32189
N_ N_ 0.439853 0.858641 0.683985 -0.32189
N_ N_ 0.38523 0.699975 0.949864 -0.32189
N_ N_ 0.307623 0.687148 0.859194 -0.32189
O_ O_ 0.492602 0.595612 0.876103 -0.63271
O_ O_ 0.0505485 0.536973 0.84319 -0.57982
O_ O_ 0.380903 0.595616 0.848061 -0.63271
O_ O_ 0.365406 0.590465 0.929072 -0.57982
O_ O_ 0.244088 0.884107 0.591202 -0.63271
O_ O_ 0.200595 0.838165 0.529532 -0.57982
O_ O_ 0.361083 0.847106 0.600411 -0.63271
O_ O_ 0.376487 0.929389 0.594157 -0.57982
O_ O_ 0.994173 0.905999 0.601898 -0.63271
O_ O_ 0.46003 0.964215 0.665522 -0.57982
O_ O_ 0.09299 0.893401 0.64637 -0.63271
O_ O_ 0.134663 0.908805 0.579232 -0.57982
O_ O_ 0.256954 0.602555 0.916323 -0.63271
O_ O_ 0.299034 0.65477 0.972679 -0.57982
O_ O_ 0.153989 0.654082 0.904226 -0.63271
O_ O_ 0.123017 0.58114 0.912249 -0.57982
F_ F_ 0.423621 0.830118 0.939122 -0.20885
F_ F_ 0.427833 0.811546 0.853379 -0.20885
F_ F_ 0.358649 0.800769 0.895295 -0.20885
F_ F_ 0.312146 0.931617 0.82268 -0.20885
F_ F_ 0.322034 0.849035 0.815814 -0.20885
F_ F_ 0.384316 0.891028 0.793152 -0.20885
F_ F_ 0.0584405 0.662243 0.557998 -0.20885
F_ F_ 0.077374 0.678694 0.638343 -0.20885
F_ F_ 0.132963 0.688887 0.584775 -0.20885
F_ F_ 0.175236 0.553969 0.672039 -0.20885
F_ F_ 0.18343 0.638754 0.666926 -0.20885
F_ F_ 0.113135 0.612251 0.693515 -0.20885
Zn Zn 0.590326 0.0896145 0.35215 0.83971
Zn Zn 0.663461 0.347816 0.0770115 0.83971
Zn Zn 0.907396 0.413901 0.155487 0.83971
Zn Zn 0.836871 0.158725 0.417097 0.83971
H_ H_ 0.67322 0.134365 0.315437 0.10394
H_ H_ 0.758923 0.0995494 0.289338 0.10394
H_ H_ 0.731453 0.461743 0.309753 0.10394
H_ H_ 0.630708 0.987012 0.319274 0.10394
H_ H_ 0.0403349 0.0999855 0.245084 0.10394
H_ H_ 0.997017 0.16826 0.202577 0.10394
H_ H_ 0.537169 0.277621 0.339589 0.10394
H_ H_ 0.568538 0.202621 0.385353 0.10394
H_ H_ 0.529098 0.447765 0.360998 0.10394
H_ H_ 0.983246 0.377559 0.383179 0.10394
H_ H_ 0.862114 0.488685 0.417181 0.10394
H_ H_ 0.580515 0.305999 0.128322 0.10394
H_ H_ 1.00267131 0.264477 0.101535 0.10394
H_ H_ 0.531295 0.302043 0.452261 0.10394
H_ H_ 0.621163 0.319682 0.979217 0.10394
H_ H_ 0.713895 0.246113 0.0991877 0.10394
H_ H_ 0.750184 0.202571 0.17668 0.10394
H_ H_ 0.700641 0.335332 0.266692 0.10394
H_ H_ 0.671687 0.38083 0.184422 0.10394
H_ H_ 0.726622 0.351984 0.440226 0.10394
H_ H_ 0.775925 0.381477 0.376042 0.10394
H_ H_ 0.899886 0.408896 0.490232 0.10394
H_ H_ 0.807111 0.39547 0.16651 0.10394
H_ H_ 0.734269 0.440839 0.20852 0.10394
H_ H_ 0.842821 0.0229341 0.296598 0.10394
H_ H_ 0.899186 0.511433 0.22772 0.10394
H_ H_ 0.518929 0.388717 0.195168 0.10394
H_ H_ 0.563663 0.320092 0.245694 0.10394
H_ H_ 0.908565 0.254245 0.232762 0.10394
H_ H_ 0.86768 0.327418 0.192128 0.10394
H_ H_ 0.969018 0.0572141 0.137377 0.10394
H_ H_ 0.51334 0.12354 0.0992441 0.10394
H_ H_ 0.642695 0.0119013 0.100571 0.10394
H_ H_ 0.933064 0.161811 0.398822 0.10394
H_ H_ 0.512311 0.199088 0.44572 0.10394
H_ H_ 0.914773 0.284667 0.0360702 0.10394
H_ H_ 0.846556 0.225969 0.513526 0.10394
H_ H_ 0.732455 0.197104 0.385528 0.10394
H_ H_ 0.687425 0.240912 0.3093 0.10394
H_ H_ 0.833861 0.233187 0.248562 0.10394
H_ H_ 0.876752 0.202382 0.330805 0.10394
H_ H_ 0.784474 0.113982 0.0619134 0.10394
H_ H_ 0.724989 0.118952 0.119603 0.10394
H_ H_ 0.608647 0.0874073 0.00333164 0.10394
C_ C_ 0.684004 0.0940532 0.312998 0.18167
C_ C_ 0.730161 0.0742064 0.293604 -0.15533
C_ C_ 0.737225 0.0234764 0.276636 0.02923
C_ C_ 0.710817 0.497326 0.299858 -0.15533
C_ C_ 0.6578 0.0135817 0.309837 0.18167
C_ C_ 0.531303 0.144496 0.276792 0.18167
C_ C_ 0.0170085 0.1799 0.236282 -0.15533
C_ C_ 0.51896 0.236407 0.268151 0.02923
C_ C_ 0.53513 0.242055 0.319342 -0.15533
C_ C_ 0.558629 0.198915 0.345 0.18167
C_ C_ 0.506758 0.0496942 0.372359 0.69207
C_ C_ 0.96938 0.508467 0.366591 0.02923
C_ C_ 0.992691 0.456115 0.366996 -0.15533
C_ C_ 0.966262 0.417065 0.380841 -0.15533
C_ C_ 0.916333 0.42732 0.394566 0.02923
C_ C_ 0.896796 0.480021 0.400905 -0.15533
C_ C_ 0.920679 0.519473 0.383804 0.02923
C_ C_ 0.890457 0.0703338 0.384906 0.69207
C_ C_ 0.903412 0.326476 0.387085 0.69661
C_ C_ 0.569036 0.303296 0.0863102 0.18167
C_ C_ 0.52195 0.286526 0.0674314 -0.15533
C_ C_ 0.513335 0.274617 0.0143858 0.02923
C_ C_ 0.544017 0.296816 0.491049 -0.15533
C_ C_ 0.594277 0.307115 0.00425697 0.18167
C_ C_ 0.715174 0.267598 0.134746 0.18167
C_ C_ 0.735062 0.243076 0.178526 -0.15533
C_ C_ 0.736885 0.271287 0.227149 0.02923
C_ C_ 0.705727 0.318384 0.229837 -0.15533
C_ C_ 0.690739 0.343352 0.183438 0.18167
C_ C_ 0.739672 0.376726 0.0415079 0.69207
C_ C_ 0.784223 0.364977 0.504003 0.02923
C_ C_ 0.76295 0.365813 0.451998 -0.15533
C_ C_ 0.791944 0.382704 0.414794 -0.15533
C_ C_ 0.843547 0.391285 0.427716 0.02923
C_ C_ 0.863745 0.393818 0.47921 -0.15533
C_ C_ 0.832481 0.381311 0.516206 0.02923
C_ C_ 0.855095 0.376337 0.069537 0.69207
C_ C_ 0.858986 0.384115 0.328389 0.69661
C_ C_ 0.81111 0.431919 0.187287 0.18167
C_ C_ 0.770181 0.458501 0.210535 -0.15533
C_ C_ 0.77394 0.504561 0.237254 0.02923
C_ C_ 0.832441 0.00479042 0.262282 -0.15533
C_ C_ 0.86485 0.493781 0.225852 0.18167
C_ C_ 0.991313 0.353821 0.200686 0.18167
C_ C_ 0.524978 0.318332 0.227201 -0.15533
C_ C_ 0.984487 0.272626 0.234266 0.02923
C_ C_ 0.931752 0.278632 0.219628 -0.15533
C_ C_ 0.90948 0.323137 0.199076 0.18167
C_ C_ 0.98011 0.454239 0.116244 0.69207
C_ C_ 0.520019 0.997031 0.117426 0.02923
C_ C_ 0.49861 0.0479908 0.112859 -0.15533
C_ C_ 0.529295 0.0856754 0.101913 -0.15533
C_ C_ 0.58269 0.0750919 0.101215 0.02923
C_ C_ 0.602596 0.0236058 0.106267 -0.15533
C_ C_ 0.571168 0.984392 0.110507 0.02923
C_ C_ 0.5965 0.425077 0.0989522 0.69207
C_ C_ 0.59194 0.169351 0.0984151 0.69661
C_ C_ 0.931641 0.175257 0.437288 0.18167
C_ C_ 0.975343 0.191501 0.462978 -0.15533
C_ C_ 0.97248 0.224425 0.505396 0.02923
C_ C_ 0.924624 0.255281 0.00913006 -0.15533
C_ C_ 0.88266 0.215746 0.500841 0.18167
C_ C_ 0.753812 0.20663 0.3556 0.18167
C_ C_ 0.730209 0.233662 0.313462 -0.15533
C_ C_ 0.759725 0.245063 0.274677 0.02923
C_ C_ 0.812553 0.231602 0.281557 -0.15533
C_ C_ 0.834882 0.208573 0.326288 0.18167
C_ C_ 0.759824 0.124843 0.458726 0.69207
C_ C_ 0.728612 0.113686 0.993963 0.02923
C_ C_ 0.745286 0.115819 0.0465274 -0.15533
C_ C_ 0.710296 0.112178 0.0838097 -0.15533
C_ C_ 0.659624 0.1045 0.0674097 0.02923
C_ C_ 0.645986 0.093289 0.0151524 -0.15533
C_ C_ 0.676871 0.103454 0.978165 0.02923
C_ C_ 0.649447 0.113505 0.430094 0.69207
C_ C_ 0.646065 0.121822 0.163585 0.69661
C_ C_ 0.87978 0.381697 0.385267 -0.30787
C_ C_ 0.620641 0.115676 0.107207 -0.30787
N_ N_ 0.64682 0.0635512 0.316454 -0.32189
N_ N_ 0.553434 0.151168 0.325653 -0.32189
N_ N_ 0.605444 0.312473 0.0560439 -0.32189
N_ N_ 0.694466 0.319232 0.137615 -0.32189
N_ N_ 0.858444 0.449296 0.194907 -0.32189
N_ N_ 0.93969 0.357891 0.187246 -0.32189
N_ N_ 0.886616 0.189335 0.455721 -0.32189
N_ N_ 0.804703 0.192342 0.359228 -0.32189
O_ O_ -0.000631112 0.0900973 0.397094 -0.63271
O_ O_ 0.549265 0.0385733 0.351314 -0.57982
O_ O_ 0.890172 0.0987363 0.345446 -0.63271
O_ O_ 0.864573 0.090092 0.422297 -0.57982
O_ O_ 0.742856 0.39492 0.0896892 -0.63271
O_ O_ 0.706507 0.343716 0.0304208 -0.57982
O_ O_ 0.858929 0.333084 0.0918141 -0.63271
O_ O_ 0.872864 0.416312 0.0924857 -0.57982
O_ O_ 0.492786 0.411298 0.102289 -0.63271
O_ O_ 0.945821 0.465263 0.148664 -0.57982
O_ O_ 0.593827 0.398325 0.137325 -0.63271
O_ O_ 0.631667 0.407787 0.0694017 -0.57982
O_ O_ 0.757648 0.0984351 0.4147 -0.63271
O_ O_ 0.79143 0.160152 0.465275 -0.57982
O_ O_ 0.651551 0.154749 0.405138 -0.63271
O_ O_ 0.614828 0.0829102 0.414259 -0.57982
F_ F_ 0.939416 0.321454 0.428796 -0.20885
F_ F_ 0.929615 0.306324 0.345556 -0.20885
F_ F_ 0.865667 0.294452 0.392344 -0.20885
F_ F_ 0.827029 0.430357 0.320437 -0.20885
F_ F_ 0.829565 0.344841 0.31225 -0.20885
F_ F_ 0.895286 0.386399 0.293886 -0.20885
F_ F_ 0.559632 0.173224 0.0522698 -0.20885
F_ F_ 0.565155 0.192967 0.136195 -0.20885
F_ F_ 0.628908 0.201102 0.0917689 -0.20885
F_ F_ 0.681918 0.0845486 0.179707 -0.20885
F_ F_ 0.667823 0.166762 0.180814 -0.20885
F_ F_ 0.607234 0.120888 0.19656 -0.20885
Zn Zn 0.592659 0.0847343 0.843457 0.83971
Zn Zn 0.663123 0.347176 0.586207 0.83971
Zn Zn 0.907356 0.414036 0.655914 0.83971
Zn Zn 0.844446 0.149436 0.91843 0.83971
H_ H_ 0.675156 0.131092 0.806099 0.10394
H_ H_ 0.758163 0.0957729 0.778026 0.10394
H_ H_ 0.703401 0.441095 0.780685 0.10394
H_ H_ 0.634659 0.983008 0.826057 0.10394
H_ H_ 0.0171157 0.100319 0.767922 0.10394
H_ H_ 0.99780991 0.16758 0.709237 0.10394
H_ H_ 0.523079 0.272725 0.843819 0.10394
H_ H_ 0.572348 0.196125 0.880439 0.10394
H_ H_ 0.532552 0.449486 0.882958 0.10394
H_ H_ 0.984033 0.374013 0.873935 0.10394
H_ H_ 0.85717 0.483731 0.895757 0.10394
H_ H_ 0.588947 0.304292 0.635854 0.10394
H_ H_ 0.00374983 0.269853 0.600646 0.10394
H_ H_ 0.546453 0.275076 0.942435 0.10394
H_ H_ 0.614184 0.329541 0.483965 0.10394
H_ H_ 0.731955 0.257232 0.600658 0.10394
H_ H_ 0.785244 0.219077 0.671141 0.10394
H_ H_ 0.707291 0.318989 0.77801 0.10394
H_ H_ 0.665997 0.371249 0.702854 0.10394
H_ H_ 0.71918 0.383016 0.939978 0.10394
H_ H_ 0.770463 0.38852 0.873194 0.10394
H_ H_ 0.899139 0.401758 0.984043 0.10394
H_ H_ 0.80515 0.389434 0.660662 0.10394
H_ H_ 0.731225 0.433719 0.694266 0.10394
H_ H_ 0.843077 0.032898 0.783984 0.10394
H_ H_ 0.898036 0.504018 0.726943 0.10394
H_ H_ 0.516151 0.375575 0.681479 0.10394
H_ H_ 0.558345 0.301107 0.721647 0.10394
H_ H_ 0.91816 0.243353 0.729706 0.10394
H_ H_ 0.873214 0.325728 0.697703 0.10394
H_ H_ 0.971487 0.0514976 0.639503 0.10394
H_ H_ 0.529919 0.127311 0.627937 0.10394
H_ H_ 0.642556 0.00794418 0.583892 0.10394
H_ H_ 0.949146 0.161752 0.891626 0.10394
H_ H_ 0.51541 0.1838 0.958946 0.10394
H_ H_ 0.92056 0.271322 0.551805 0.10394
H_ H_ 0.848361 0.234039 -0.006284999999999985 0.10394
H_ H_ 0.737008 0.185158 0.883713 0.10394
H_ H_ 0.700738 0.236735 0.816207 0.10394
H_ H_ 0.840891 0.247573 0.763066 0.10394
H_ H_ 0.882737 0.185762 0.826424 0.10394
H_ H_ 0.78739 0.120788 0.555742 0.10394
H_ H_ 0.739114 0.101463 0.624606 0.10394
H_ H_ 0.609677 0.090728 0.517806 0.10394
C_ C_ 0.686649 0.0884579 0.80497 0.18167
C_ C_ 0.732386 0.0676531 0.786296 -0.15533
C_ C_ 0.742179 0.0151636 0.776221 0.02923
C_ C_ 0.697452 0.483797 0.786911 -0.15533
C_ C_ 0.660342 0.00614304 0.809798 0.18167
C_ C_ 0.533458 0.140486 0.766381 0.18167
C_ C_ 0.0141247 0.176867 0.746814 -0.15533
C_ C_ 0.506898 0.229595 0.769124 0.02923
C_ C_ 0.532362 0.235807 0.819752 -0.15533
C_ C_ 0.551031 0.191246 0.844198 0.18167
C_ C_ 0.507104 0.0494655 0.86564 0.69207
C_ C_ 0.976205 0.504558 0.875626 0.02923
C_ C_ 0.998804 0.453716 0.877836 -0.15533
C_ C_ 0.969557 0.413573 0.884285 -0.15533
C_ C_ 0.91665 0.423362 0.890584 0.02923
C_ C_ 0.896271 0.474579 0.89769 -0.15533
C_ C_ 0.925148 0.514593 0.888031 0.02923
C_ C_ 0.894399 0.0648753 0.880687 0.69207
C_ C_ 0.906759 0.324592 0.88781 0.69661
C_ C_ 0.577033 0.297672 0.594254 0.18167
C_ C_ 0.532536 0.275704 0.57668 -0.15533
C_ C_ 0.514615 0.273654 0.524668 0.02923
C_ C_ 0.546239 0.289802 0.981927 -0.15533
C_ C_ 0.592351 0.312038 0.509438 0.18167
C_ C_ 0.728143 0.272332 0.637726 0.18167
C_ C_ 0.752569 0.247216 0.677858 -0.15533
C_ C_ 0.741783 0.262435 0.728552 0.02923
C_ C_ 0.713752 0.307684 0.737325 -0.15533
C_ C_ 0.691208 0.336503 0.695211 0.18167
C_ C_ 0.748685 0.359394 0.543176 0.69207
C_ C_ 0.777428 0.381049 1.00265318 0.02923
C_ C_ 0.758523 0.3848 0.949865 -0.15533
C_ C_ 0.789313 0.383216 0.910862 -0.15533
C_ C_ 0.841485 0.386631 0.924284 0.02923
C_ C_ 0.859649 0.390789 0.976592 -0.15533
C_ C_ 0.830262 0.380437 0.0146014 0.02923
C_ C_ 0.857468 0.379248 0.567901 0.69207
C_ C_ 0.855893 0.385057 0.82835 0.69661
C_ C_ 0.810082 0.426208 0.683446 0.18167
C_ C_ 0.768823 0.448386 0.709272 -0.15533
C_ C_ 0.772945 0.492364 0.741782 0.02923
C_ C_ 0.832473 0.00347898 0.753373 -0.15533
C_ C_ 0.862998 0.48578 0.726115 0.18167
C_ C_ 0.993074 0.354052 0.702822 0.18167
C_ C_ 0.516678 0.307156 0.720875 -0.15533
C_ C_ 0.99073 0.268721 0.73387 0.02923
C_ C_ 0.938168 0.273486 0.723038 -0.15533
C_ C_ 0.913143 0.320592 0.702041 0.18167
C_ C_ 0.989736 0.448627 0.631109 0.69207
C_ C_ 0.525564 1.00055 0.626545 0.02923
C_ C_ 0.50943 0.0530469 0.630585 -0.15533
C_ C_ 0.542381 0.0872687 0.620141 -0.15533
C_ C_ 0.592388 0.0720057 0.610302 0.02923
C_ C_ 0.607011 0.02011 0.599167 -0.15533
C_ C_ 0.57585 0.983236 0.61167 0.02923
C_ C_ 0.602142 0.42769 0.605761 0.69207
C_ C_ 0.617001 0.16485 0.623931 0.69661
C_ C_ 0.943973 0.182855 0.928267 0.18167
C_ C_ 0.985454 0.206662 0.955194 -0.15533
C_ C_ 0.976304 0.242311 -0.0032809999999999784 0.02923
C_ C_ 0.925402 0.238329 0.523987 -0.15533
C_ C_ 0.886299 0.228469 0.98367 0.18167
C_ C_ 0.761724 0.196621 0.856386 0.18167
C_ C_ 0.739135 0.222148 0.815637 -0.15533
C_ C_ 0.766306 0.236706 0.77616 0.02923
C_ C_ 0.818874 0.224887 0.783709 -0.15533
C_ C_ 0.84239 0.196794 0.825149 0.18167
C_ C_ 0.764695 0.116913 0.956695 0.69207
C_ C_ 0.72792 0.116056 0.496775 0.02923
C_ C_ 0.748943 0.11129 0.546393 -0.15533
C_ C_ 0.720722 0.10414 0.585094 -0.15533
C_ C_ 0.667901 0.102359 0.57537 0.02923
C_ C_ 0.648342 0.099435 0.522652 -0.15533
C_ C_ 0.675889 0.110436 0.482673 0.02923
C_ C_ 0.654427 0.104278 0.923047 0.69207
C_ C_ 0.662846 0.0937897 0.673639 0.69661
C_ C_ 0.881088 0.379286 0.886027 -0.30787
C_ C_ 0.63516 0.107875 0.619746 -0.30787
N_ N_ 0.651135 0.0582565 0.812424 -0.32189
N_ N_ 0.556108 0.14426 0.815607 -0.32189
N_ N_ 0.607879 0.31173 0.562146 -0.32189
N_ N_ 0.697625 0.317819 0.646818 -0.32189
N_ N_ 0.857441 0.442865 0.695475 -0.32189
N_ N_ 0.941641 0.357553 0.691697 -0.32189
N_ N_ 0.89637 0.193029 0.942823 -0.32189
N_ N_ 0.813295 0.183093 0.859665 -0.32189
O_ O_ -0.00138223 0.0849414 0.910517 -0.63271
O_ O_ 0.54759 0.0387301 0.841094 -0.57982
O_ O_ 0.898028 0.0923765 0.840976 -0.63271
O_ O_ 0.877136 0.0855194 0.922251 -0.57982
O_ O_ 0.753565 0.386807 0.587258 -0.63271
O_ O_ 0.705456 0.339452 0.532284 -0.57982
O_ O_ 0.851261 0.339412 0.594735 -0.63271
O_ O_ 0.87963 0.418243 0.589805 -0.57982
O_ O_ 0.49176 0.415791 0.598363 -0.63271
O_ O_ 0.954722 0.456179 0.664733 -0.57982
O_ O_ 0.595072 0.401121 0.644784 -0.63271
O_ O_ 0.637602 0.408775 0.575296 -0.57982
O_ O_ 0.767854 0.0851607 0.917614 -0.63271
O_ O_ 0.79748 0.150518 0.964596 -0.57982
O_ O_ 0.6616 0.143068 0.896803 -0.63271
O_ O_ 0.617329 0.0784291 0.908262 -0.57982
F_ F_ 0.943568 0.322301 0.929431 -0.20885
F_ F_ 0.935774 0.309231 0.848173 -0.20885
F_ F_ 0.871107 0.29008 0.886213 -0.20885
F_ F_ 0.828962 0.431516 0.823094 -0.20885
F_ F_ 0.824393 0.347674 0.809301 -0.20885
F_ F_ 0.891415 0.386396 0.793502 -0.20885
F_ F_ 0.580414 0.178357 0.583669 -0.20885
F_ F_ 0.589994 0.177606 0.666808 -0.20885
F_ F_ 0.656054 0.197231 0.629001 -0.20885
F_ F_ 0.690534 0.0471984 0.668081 -0.20885
F_ F_ 0.696113 0.130115 0.694668 -0.20885
F_ F_ 0.627899 0.0945348 0.710652 -0.20885
Zn Zn 0.586828 0.585992 0.341821 0.83971
Zn Zn 0.657049 0.851591 0.0800996 0.83971
Zn Zn 0.905967 0.917022 0.146782 0.83971
Zn Zn 0.838652 0.654066 0.408229 0.83971
H_ H_ 0.653894 0.63712 0.286767 0.10394
H_ H_ 0.733935 0.605816 0.252984 0.10394
H_ H_ 0.71141 0.950321 0.287789 0.10394
H_ H_ 0.647404 0.491161 0.341449 0.10394
H_ H_ 0.011859 0.595021 0.24386 0.10394
H_ H_ 0.972464 0.668399 0.201111 0.10394
H_ H_ 0.52616 0.770783 0.340011 0.10394
H_ H_ 0.558139 0.689166 0.378338 0.10394
H_ H_ 0.541093 0.954958 0.394427 0.10394
H_ H_ 0.973977 0.876726 0.389901 0.10394
H_ H_ 0.845586 0.990168 0.38823 0.10394
H_ H_ 0.578306 0.807178 0.133641 0.10394
H_ H_ 0.997751 0.773999 0.094643 0.10394
H_ H_ 0.53487 0.786802 0.446675 0.10394
H_ H_ 0.607658 0.833653 0.979741 0.10394
H_ H_ 0.705214 0.750739 0.09403 0.10394
H_ H_ 0.741543 0.706037 0.167564 0.10394
H_ H_ 0.720899 0.845306 0.263816 0.10394
H_ H_ 0.694658 0.891375 0.17907 0.10394
H_ H_ 0.710762 0.869942 0.451155 0.10394
H_ H_ 0.761493 0.878853 0.382309 0.10394
H_ H_ 0.886728 0.917671 0.486082 0.10394
H_ H_ 0.797375 0.945307 0.126015 0.10394
H_ H_ 0.726327 0.980494 0.177574 0.10394
H_ H_ 0.823255 0.557683 0.271019 0.10394
H_ H_ 0.908692 0.97618 0.253746 0.10394
H_ H_ 0.507506 0.889803 0.203351 0.10394
H_ H_ 0.542978 0.822575 0.258889 0.10394
H_ H_ 0.907495 0.748471 0.216616 0.10394
H_ H_ 0.867317 0.825147 0.183171 0.10394
H_ H_ 0.957647 0.552651 0.100586 0.10394
H_ H_ 0.513368 0.622578 0.0994424 0.10394
H_ H_ 0.6389 0.509165 0.0826179 0.10394
H_ H_ 0.938072 0.67404 0.385127 0.10394
H_ H_ 0.5126 0.694487 0.45101 0.10394
H_ H_ 0.914336 0.775223 0.0442196 0.10394
H_ H_ 0.838605 0.72525 0.495553 0.10394
H_ H_ 0.732273 0.688892 0.376582 0.10394
H_ H_ 0.694766 0.753963 0.313957 0.10394
H_ H_ 0.82413 0.71096 0.230183 0.10394
H_ H_ 0.869246 0.674056 0.309575 0.10394
H_ H_ 0.783611 0.619532 0.0505192 0.10394
H_ H_ 0.725584 0.617509 0.115945 0.10394
H_ H_ 0.602559 0.588189 -0.004300999999999999 0.10394
C_ C_ 0.668625 0.595309 0.287743 0.18167
C_ C_ 0.7127 0.578562 0.265899 -0.15533
C_ C_ 0.731842 0.527643 0.269261 0.02923
C_ C_ 0.701134 0.991456 0.287044 -0.15533
C_ C_ 0.661241 0.511893 0.3126 0.18167
C_ C_ 0.518458 0.642574 0.264785 0.18167
C_ C_ 9.999999999998899e-05 0.674836 0.234347 -0.15533
C_ C_ 0.495614 0.735007 0.268624 0.02923
C_ C_ 0.522127 0.733713 0.317777 -0.15533
C_ C_ 0.545097 0.688248 0.339246 0.18167
C_ C_ 0.50411 0.546786 0.363672 0.69207
C_ C_ 0.971335 0.0034993 0.381501 0.02923
C_ C_ -0.009468000000000032 0.951862 0.387471 -0.15533
C_ C_ 0.958408 0.915096 0.387077 -0.15533
C_ C_ 0.904745 0.929 0.390082 0.02923
C_ C_ 0.886838 0.979318 0.386919 -0.15533
C_ C_ 0.9171 0.017402 0.38366 0.02923
C_ C_ 0.891283 0.572479 0.382208 0.69207
C_ C_ 0.893314 0.828939 0.393333 0.69661
C_ C_ 0.570109 0.800945 0.0912804 0.18167
C_ C_ 0.525328 0.783463 0.072467 -0.15533
C_ C_ 0.512223 0.7774 0.0194319 0.02923
C_ C_ 0.543113 0.791931 0.487523 -0.15533
C_ C_ 0.591381 0.810402 0.00604332 0.18167
C_ C_ 0.704111 0.769796 0.131176 0.18167
C_ C_ 0.726757 0.744589 0.173354 -0.15533
C_ C_ 0.734051 0.769833 0.223768 0.02923
C_ C_ 0.7197 0.823387 0.227554 -0.15533
C_ C_ 0.702531 0.849692 0.180981 0.18167
C_ C_ 0.736975 0.869065 0.0421432 0.69207
C_ C_ 0.770112 0.884671 0.510008 0.02923
C_ C_ 0.749737 0.878089 0.460733 -0.15533
C_ C_ 0.77902 0.882981 0.420153 -0.15533
C_ C_ 0.829028 0.896337 0.427155 0.02923
C_ C_ 0.848153 0.904381 0.479158 -0.15533
C_ C_ 0.82045 0.893947 0.519101 0.02923
C_ C_ 0.85045 0.882533 0.067503 0.69207
C_ C_ 0.845832 0.88049 0.329489 0.69661
C_ C_ 0.806487 0.957262 0.166436 0.18167
C_ C_ 0.76661 0.979625 0.196423 -0.15533
C_ C_ 0.778373 1.00359645 0.243429 0.02923
C_ C_ 0.821101 0.52359 0.243106 -0.15533
C_ C_ 0.870172 0.978929 0.233747 0.18167
C_ C_ 0.988108 0.854507 0.190925 0.18167
C_ C_ 0.50394 0.82259 0.242352 -0.15533
C_ C_ 0.983949 0.770076 0.224494 0.02923
C_ C_ 0.932121 0.77385 0.206462 -0.15533
C_ C_ 0.908201 0.820404 0.188998 0.18167
C_ C_ 0.980508 0.957581 0.11775 0.69207
C_ C_ 0.521004 0.491419 0.11031 0.02923
C_ C_ 0.499404 0.54399 0.111452 -0.15533
C_ C_ 0.52926 0.58202 0.0998506 -0.15533
C_ C_ 0.581413 0.570014 0.0934122 0.02923
C_ C_ 0.599159 0.51781 0.0889676 -0.15533
C_ C_ 0.570878 0.478955 0.097946 0.02923
C_ C_ 0.597786 0.932117 0.107523 0.69207
C_ C_ 0.594319 0.66453 0.0995319 0.69661
C_ C_ 0.934241 0.6919 0.420568 0.18167
C_ C_ 0.973022 0.71869 0.443675 -0.15533
C_ C_ 0.965097 0.747612 0.48833 0.02923
C_ C_ 0.92235 0.748307 1.0129169 -0.15533
C_ C_ 0.877951 0.720496 0.483974 0.18167
C_ C_ 0.754936 0.702937 0.350646 0.18167
C_ C_ 0.732403 0.735369 0.310789 -0.15533
C_ C_ 0.759552 0.741271 0.267755 0.02923
C_ C_ 0.807946 0.713314 0.266288 -0.15533
C_ C_ 0.828935 0.687135 0.308068 0.18167
C_ C_ 0.761226 0.617866 0.443047 0.69207
C_ C_ 0.725332 0.613693 0.987816 0.02923
C_ C_ 0.743516 0.615731 0.0394041 -0.15533
C_ C_ 0.710309 0.611226 0.0769156 -0.15533
C_ C_ 0.657771 0.60272 0.0623405 0.02923
C_ C_ 0.642831 0.597296 0.00936255 -0.15533
C_ C_ 0.675013 0.60605 0.971573 0.02923
C_ C_ 0.650577 0.604058 0.418923 0.69207
C_ C_ 0.642159 0.59954 0.157656 0.69661
C_ C_ 0.866977 0.884222 0.385533 -0.30787
C_ C_ 0.618297 0.608804 0.102597 -0.30787
N_ N_ 0.641482 0.561379 0.308178 -0.32189
N_ N_ 0.544909 0.643957 0.311309 -0.32189
N_ N_ 0.604118 0.811802 0.0572991 -0.32189
N_ N_ 0.69027 0.821413 0.137667 -0.32189
N_ N_ 0.856333 0.955003 0.187443 -0.32189
N_ N_ 0.937167 0.860708 0.182153 -0.32189
N_ N_ 0.888454 0.693087 0.43962 -0.32189
N_ N_ 0.803966 0.681962 0.34918 -0.32189
O_ O_ -0.002627000000000046 0.592692 0.374625 -0.63271
O_ O_ 0.540159 0.538574 0.331464 -0.57982
O_ O_ 0.887996 0.598259 0.342677 -0.63271
O_ O_ 0.867145 0.593004 0.421289 -0.57982
O_ O_ 0.733443 0.900978 0.0806942 -0.63271
O_ O_ 0.70016 0.837944 0.0317608 -0.57982
O_ O_ 0.840397 0.85051 0.0992332 -0.63271
O_ O_ 0.882799 0.915198 0.0803753 -0.57982
O_ O_ 0.492532 0.910592 0.106661 -0.63271
O_ O_ 0.943143 0.968793 0.146151 -0.57982
O_ O_ 0.605375 0.90524 0.149446 -0.63271
O_ O_ 0.624046 0.912985 0.0689606 -0.57982
O_ O_ 0.75458 0.596543 0.397503 -0.63271
O_ O_ 0.791487 0.654205 0.451679 -0.57982
O_ O_ 0.650278 0.645595 0.393399 -0.63271
O_ O_ 0.612642 0.575568 0.40741 -0.57982
F_ F_ 0.919369 0.830334 0.442171 -0.20885
F_ F_ 0.926951 0.812648 0.357613 -0.20885
F_ F_ 0.857642 0.79363 0.394148 -0.20885
F_ F_ 0.812143 0.925932 0.321658 -0.20885
F_ F_ 0.820111 0.837999 0.312955 -0.20885
F_ F_ 0.882086 0.880238 0.294757 -0.20885
F_ F_ 0.566981 0.672333 0.051565 -0.20885
F_ F_ 0.567509 0.679641 0.142375 -0.20885
F_ F_ 0.631767 0.697833 0.106587 -0.20885
F_ F_ 0.677565 0.556838 0.162333 -0.20885
F_ F_ 0.666268 0.638654 0.181797 -0.20885
F_ F_ 0.60569 0.591809 0.187568 -0.20885
Zn Zn 0.580603 0.579869 0.843067 0.83971
Zn Zn 0.659673 0.848356 0.584291 0.83971
Zn Zn 0.910365 0.913868 0.652111 0.83971
Zn Zn 0.841683 0.6495 0.912093 0.83971
H_ H_ 0.661538 0.627248 0.800464 0.10394
H_ H_ 0.741367 0.596272 0.764756 0.10394
H_ H_ 0.718378 0.9408 0.78953 0.10394
H_ H_ 0.628898 0.481857 0.824525 0.10394
H_ H_ 0.0347373 0.595595 0.750577 0.10394
H_ H_ 0.99513833 0.666164 0.699119 0.10394
H_ H_ 0.521976 0.765283 0.836653 0.10394
H_ H_ 0.572901 0.693961 0.872734 0.10394
H_ H_ 0.525559 0.939347 0.854359 0.10394
H_ H_ 0.982422 0.877014 0.885306 0.10394
H_ H_ 0.85049 0.982466 0.903633 0.10394
H_ H_ 0.576783 0.799869 0.631809 0.10394
H_ H_ -0.00603375 0.770047 0.58811 0.10394
H_ H_ 0.530627 0.796217 0.946062 0.10394
H_ H_ 0.620544 0.80684 0.481339 0.10394
H_ H_ 0.720004 0.75561 0.588345 0.10394
H_ H_ 0.760258 0.698663 0.659441 0.10394
H_ H_ 0.713524 0.821087 0.768149 0.10394
H_ H_ 0.672458 0.870101 0.700993 0.10394
H_ H_ 0.716625 0.853202 0.944733 0.10394
H_ H_ 0.775629 0.849823 0.874424 0.10394
H_ H_ 0.89374 0.899376 0.985915 0.10394
H_ H_ 0.801732 0.888373 0.662685 0.10394
H_ H_ 0.733196 0.947506 0.697493 0.10394
H_ H_ 0.829661 0.541814 0.779056 0.10394
H_ H_ 0.909507 0.984723 0.737917 0.10394
H_ H_ 0.512309 0.868086 0.663657 0.10394
H_ H_ 0.556311 0.80596 0.724741 0.10394
H_ H_ 0.916948 0.741877 0.712428 0.10394
H_ H_ 0.87687 0.81753 0.676949 0.10394
H_ H_ 0.96711 0.549748 0.639835 0.10394
H_ H_ 0.522174 0.625455 0.607551 0.10394
H_ H_ 0.648153 0.506704 0.586583 0.10394
H_ H_ 0.943342 0.664732 0.892103 0.10394
H_ H_ 0.511447 0.695758 0.945824 0.10394
H_ H_ 0.912738 0.770613 0.541593 0.10394
H_ H_ 0.845355 0.727754 1.0022 0.10394
H_ H_ 0.731617 0.678524 0.872637 0.10394
H_ H_ 0.691622 0.721633 0.796959 0.10394
H_ H_ 0.839599 0.724371 0.743119 0.10394
H_ H_ 0.875917 0.673219 0.817465 0.10394
H_ H_ 0.7855 0.619836 0.542138 0.10394
H_ H_ 0.736011 0.622775 0.6096 0.10394
H_ H_ 0.608248 0.591686 0.507631 0.10394
C_ C_ 0.672092 0.585984 0.798932 0.18167
C_ C_ 0.714265 0.569763 0.77073 -0.15533
C_ C_ 0.726501 0.516698 0.763706 0.02923
C_ C_ 0.706467 0.982346 0.790127 -0.15533
C_ C_ 0.65694 0.50387 0.814517 0.18167
C_ C_ 0.529115 0.636549 0.758959 0.18167
C_ C_ 0.0113748 0.67374 0.738734 -0.15533
C_ C_ 0.513764 0.727925 0.759372 0.02923
C_ C_ 0.529002 0.730564 0.812425 -0.15533
C_ C_ 0.55541 0.688429 0.834862 0.18167
C_ C_ 0.500316 0.547127 0.861218 0.69207
C_ C_ 0.972405 0.00212169 0.876802 0.02923
C_ C_ -0.005376999999999965 0.951349 0.882346 -0.15533
C_ C_ 0.964627 0.91223 0.886989 -0.15533
C_ C_ 0.912562 0.920501 0.88812 0.02923
C_ C_ 0.88942 0.973015 0.888982 -0.15533
C_ C_ 0.918266 0.0116626 0.880781 0.02923
C_ C_ 0.9002 0.565703 0.884894 0.69207
C_ C_ 0.905782 0.824173 0.887315 0.69661
C_ C_ 0.567558 0.802152 0.591886 0.18167
C_ C_ 0.52104 0.78568 0.57252 -0.15533
C_ C_ 0.508979 0.776673 0.521081 0.02923
C_ C_ 0.544876 0.792999 0.987066 -0.15533
C_ C_ 0.589457 0.808903 0.508258 0.18167
C_ C_ 0.716548 0.767152 0.629412 0.18167
C_ C_ 0.740849 0.737393 0.668423 -0.15533
C_ C_ 0.7409 0.756088 0.720451 0.02923
C_ C_ 0.714926 0.80411 0.731241 -0.15533
C_ C_ 0.691466 0.832183 0.691861 0.18167
C_ C_ 0.739619 0.870621 0.5527 0.69207
C_ C_ 0.772835 0.871774 1.00319732 0.02923
C_ C_ 0.752094 0.865074 0.952427 -0.15533
C_ C_ 0.785401 0.868717 0.91406 -0.15533
C_ C_ 0.836112 0.884632 0.924019 0.02923
C_ C_ 0.853911 0.890572 0.975909 -0.15533
C_ C_ 0.823918 0.882636 0.0145219 0.02923
C_ C_ 0.851029 0.887235 0.571163 0.69207
C_ C_ 0.853041 0.875094 0.826225 0.69661
C_ C_ 0.811833 0.920416 0.690944 0.18167
C_ C_ 0.77128 0.952198 0.709432 -0.15533
C_ C_ 0.782648 -0.009295000000000053 0.744758 0.02923
C_ C_ 0.820234 0.513465 0.747333 -0.15533
C_ C_ 0.869996 0.976937 0.727295 0.18167
C_ C_ 0.996062 0.848706 0.692872 0.18167
C_ C_ 0.515948 0.80874 0.715503 -0.15533
C_ C_ 0.990563 0.768884 0.732738 0.02923
C_ C_ 0.939155 0.773861 0.711596 -0.15533
C_ C_ 0.916348 0.815371 0.687141 0.18167
C_ C_ 0.99146 0.951869 0.626673 0.69207
C_ C_ 0.525734 0.497174 0.615487 0.02923
C_ C_ 0.508219 0.549758 0.621963 -0.15533
C_ C_ 0.540848 0.585671 0.614206 -0.15533
C_ C_ 0.591138 0.572554 0.601127 0.02923
C_ C_ 0.608048 0.519555 0.592625 -0.15533
C_ C_ 0.577327 0.482076 0.604056 0.02923
C_ C_ 0.598069 0.930342 0.609541 0.69207
C_ C_ 0.608065 0.669411 0.602011 0.69661
C_ C_ 0.938816 0.685176 0.927622 0.18167
C_ C_ 0.980263 0.703798 0.955808 -0.15533
C_ C_ 0.972113 0.739545 0.995836 0.02923
C_ C_ 0.91887 0.747467 0.510149 -0.15533
C_ C_ 0.884329 0.720918 0.988003 0.18167
C_ C_ 0.756426 0.687026 0.84387 0.18167
C_ C_ 0.732959 0.714237 0.802068 -0.15533
C_ C_ 0.763507 0.724992 0.764028 0.02923
C_ C_ 0.815739 0.71637 0.773927 -0.15533
C_ C_ 0.836827 0.69032 0.816922 0.18167
C_ C_ 0.766403 0.613671 0.95176 0.69207
C_ C_ 0.729321 0.604057 0.483325 0.02923
C_ C_ 0.751679 0.605884 0.532765 -0.15533
C_ C_ 0.718687 0.60886 0.572068 -0.15533
C_ C_ 0.668994 0.603407 0.562818 0.02923
C_ C_ 0.645693 0.600912 0.512772 -0.15533
C_ C_ 0.676393 0.604856 0.472435 0.02923
C_ C_ 0.651092 0.606288 0.91878 0.69207
C_ C_ 0.653395 0.609735 0.661786 0.69661
C_ C_ 0.876915 0.878095 0.883295 -0.30787
C_ C_ 0.630684 0.612839 0.604884 -0.30787
N_ N_ 0.639716 0.553216 0.809325 -0.32189
N_ N_ 0.553982 0.639701 0.807871 -0.32189
N_ N_ 0.600796 0.81423 0.559569 -0.32189
N_ N_ 0.687399 0.811412 0.641866 -0.32189
N_ N_ 0.859501 0.936155 0.69414 -0.32189
N_ N_ 0.945459 0.851019 0.675527 -0.32189
N_ N_ 0.892471 0.691713 0.945767 -0.32189
N_ N_ 0.807594 0.678002 0.852182 -0.32189
O_ O_ 1.00831292 0.588123 0.900219 -0.63271
O_ O_ 0.53455 0.531728 0.830781 -0.57982
O_ O_ 0.902168 0.591445 0.844307 -0.63271
O_ O_ 0.870354 0.588156 0.920438 -0.57982
O_ O_ 0.736779 0.899523 0.593962 -0.63271
O_ O_ 0.704496 0.839553 0.54089 -0.57982
O_ O_ 0.851961 0.842249 0.59205 -0.63271
O_ O_ 0.880362 0.92139 0.590513 -0.57982
O_ O_ 0.484141 0.924869 0.591171 -0.63271
O_ O_ 0.957385 0.959422 0.659675 -0.57982
O_ O_ 0.598499 0.902063 0.64971 -0.63271
O_ O_ 0.631873 0.915961 0.578353 -0.57982
O_ O_ 0.757541 0.592436 0.905849 -0.63271
O_ O_ 0.795347 0.651207 0.95866 -0.57982
O_ O_ 0.654241 0.644627 0.894448 -0.63271
O_ O_ 0.613413 0.578998 0.902901 -0.57982
F_ F_ 0.936572 0.819011 0.933497 -0.20885
F_ F_ 0.931301 0.802844 0.845669 -0.20885
F_ F_ 0.868905 0.79217 0.891711 -0.20885
F_ F_ 0.814475 0.913917 0.819148 -0.20885
F_ F_ 0.829586 0.831826 0.807937 -0.20885
F_ F_ 0.890278 0.879565 0.793788 -0.20885
F_ F_ 0.576238 0.67855 0.556941 -0.20885
F_ F_ 0.574872 0.686442 0.638991 -0.20885
F_ F_ 0.643356 0.702784 0.602638 -0.20885
F_ F_ 0.687755 0.566867 0.669433 -0.20885
F_ F_ 0.680466 0.649184 0.682001 -0.20885
F_ F_ 0.617685 0.606879 0.697616 -0.20885
_cell_length_a 26.508
_cell_length_b 26.37200000322088
_cell_length_c 26.311999743092066
_cell_angle_alpha 93.74100058972084
_cell_angle_beta 96.04100104955006
_cell_angle_gamma 83.6869992558723
_symmetry_space_group_name_H-M         'P 1'
_symmetry_Int_Tables_number            1
loop_
_symmetry_equiv_pos_as_xyz
   'x, y, z'
                         
loop_
_atom_site_label
_atom_site_type_symbol
_atom_site_fract_x 
_atom_site_fract_y
_atom_site_fract_z
_atom_site_charge
Zn Zn 0.0846721 0.08701 0.34972 0.83971
Zn Zn 0.159913 0.350224 0.0926214 0.83971
Zn Zn 0.414292 0.421052 0.15895 0.83971
Zn Zn 0.340208 0.154094 0.419484 0.83971
H_ H_ 0.164688 0.127822 0.305418 0.10394
H_ H_ 0.250527 0.0935266 0.276087 0.10394
H_ H_ 0.203198 0.444182 0.281601 0.10394
H_ H_ 0.130212 0.982995 0.329219 0.10394
H_ H_ 0.530744 0.10882 0.257661 0.10394
H_ H_ 0.498913 0.180587 0.20764 0.10394
H_ H_ 0.0275729 0.269663 0.332132 0.10394
H_ H_ 0.065032 0.19625 0.377564 0.10394
H_ H_ 0.0314895 0.445018 0.357849 0.10394
H_ H_ 0.475728 0.378364 0.367596 0.10394
H_ H_ 0.3499 0.489043 0.405472 0.10394
H_ H_ 0.0787813 0.302144 0.136251 0.10394
H_ H_ 0.494405 0.28287 0.0978665 0.10394
H_ H_ 0.0231716 0.2732 0.444022 0.10394
H_ H_ 0.12224 0.323684 0.988896 0.10394
H_ H_ 0.228318 0.267548 0.0990662 0.10394
H_ H_ 0.276325 0.215015 0.173439 0.10394
H_ H_ 0.184955 0.316669 0.276417 0.10394
H_ H_ 0.153479 0.368002 0.20257 0.10394
H_ H_ 0.21538 0.387021 0.451045 0.10394
H_ H_ 0.265262 0.405393 0.384179 0.10394
H_ H_ 0.399159 0.392683 0.486299 0.10394
H_ H_ 0.313872 0.394533 0.169591 0.10394
H_ H_ 0.237655 0.435773 0.202783 0.10394
H_ H_ 0.334331 0.0377326 0.286814 0.10394
H_ H_ 0.403845 0.510697 0.229726 0.10394
H_ H_ 0.0119553 0.385059 0.19831 0.10394
H_ H_ 0.0553809 0.305356 0.241485 0.10394
H_ H_ 0.421064 0.258254 0.236141 0.10394
H_ H_ 0.376142 0.331307 0.191406 0.10394
H_ H_ 0.459078 0.0563547 0.107284 0.10394
H_ H_ 0.0287871 0.121856 0.134742 0.10394
H_ H_ 0.141514 0.00360562 0.0911409 0.10394
H_ H_ 0.441127 0.16424 0.399598 0.10394
H_ H_ 0.00899999 0.183176 0.445562 0.10394
H_ H_ 0.414605 0.29272 0.0352646 0.10394
H_ H_ 0.346778 0.224752 0.514006 0.10394
H_ H_ 0.237435 0.167618 0.366738 0.10394
H_ H_ 0.191882 0.217034 0.305801 0.10394
H_ H_ 0.342464 0.246569 0.25933 0.10394
H_ H_ 0.382685 0.207571 0.335378 0.10394
H_ H_ 0.295156 0.123178 0.0576798 0.10394
H_ H_ 0.244175 0.104426 0.12362 0.10394
H_ H_ 0.119406 0.0782808 0.01604 0.10394
C_ C_ 0.177791 0.0899061 0.309472 0.18167
C_ C_ 0.225372 0.0678368 0.290723 -0.15533
C_ C_ 0.233979 0.0153351 0.284214 0.02923
C_ C_ 0.19651 0.486706 0.286243 -0.15533
C_ C_ 0.154081 0.00688011 0.312898 0.18167
C_ C_ 0.0309091 0.13621 0.265117 0.18167
C_ C_ 0.512966 0.187972 0.246603 -0.15533
C_ C_ 0.00710751 0.227997 0.262755 0.02923
C_ C_ 0.0231266 0.233094 0.3149 -0.15533
C_ C_ 0.0518955 0.190297 0.33617 0.18167
C_ C_ 0.0069881 0.0443866 0.373954 0.69207
C_ C_ 0.469342 0.507421 0.371935 0.02923
C_ C_ 0.489896 0.456559 0.371195 -0.15533
C_ C_ 0.459784 0.418011 0.376273 -0.15533
C_ C_ 0.407125 0.427759 0.383453 0.02923
C_ C_ 0.388979 0.479451 0.394211 -0.15533
C_ C_ 0.418046 0.518886 0.387136 0.02923
C_ C_ 0.397857 0.0696712 0.380867 0.69207
C_ C_ 0.40097 0.328925 0.386045 0.69661
C_ C_ 0.0727163 0.295957 0.0947359 0.18167
C_ C_ 0.0313989 0.272927 0.0762154 -0.15533
C_ C_ 0.0202125 0.270728 0.0235514 0.02923
C_ C_ 0.0392239 0.278408 0.483945 -0.15533
C_ C_ 0.0957811 0.311658 0.0121343 0.18167
C_ C_ 0.222801 0.276645 0.141252 0.18167
C_ C_ 0.247941 0.248992 0.182385 -0.15533
C_ C_ 0.234656 0.263439 0.232078 0.02923
C_ C_ 0.194046 0.300939 0.238169 -0.15533
C_ C_ 0.17608 0.332369 0.197136 0.18167
C_ C_ 0.244741 0.364589 0.0523035 0.69207
C_ C_ 0.275007 0.373655 0.505064 0.02923
C_ C_ 0.253012 0.385948 0.45884 -0.15533
C_ C_ 0.284 0.391348 0.418198 -0.15533
C_ C_ 0.338322 0.390044 0.426189 0.02923
C_ C_ 0.358001 0.388437 0.477775 -0.15533
C_ C_ 0.326698 0.381671 0.51771 0.02923
C_ C_ 0.355114 0.386937 0.0757595 0.69207
C_ C_ 0.345366 0.38366 0.328338 0.69661
C_ C_ 0.316164 0.429414 0.189412 0.18167
C_ C_ 0.273442 0.452435 0.211821 -0.15533
C_ C_ 0.277193 0.497311 0.240793 0.02923
C_ C_ 0.324295 0.00850405 0.259227 -0.15533
C_ C_ 0.369658 0.490288 0.229398 0.18167
C_ C_ 0.499755 0.356681 0.198308 0.18167
C_ C_ 0.0135595 0.314066 0.230115 -0.15533
C_ C_ 0.494233 0.281922 0.239865 0.02923
C_ C_ 0.44297 0.28303 0.219887 -0.15533
C_ C_ 0.419881 0.324354 0.193121 0.18167
C_ C_ 0.48987 0.455882 0.124432 0.69207
C_ C_ 0.0198466 0.993853 0.111323 0.02923
C_ C_ 0.00577263 0.0455143 0.122413 -0.15533
C_ C_ 0.0421931 0.0812177 0.129779 -0.15533
C_ C_ 0.0913712 0.0682833 0.114935 0.02923
C_ C_ 0.105696 0.0168002 0.104229 -0.15533
C_ C_ 0.0723421 0.977287 0.107376 0.02923
C_ C_ 0.0976977 0.428738 0.110546 0.69207
C_ C_ 0.110138 0.164356 0.11593 0.69661
C_ C_ 0.437882 0.182692 0.438996 0.18167
C_ C_ 0.477605 0.205718 0.46451 -0.15533
C_ C_ 0.470742 0.242775 0.504094 0.02923
C_ C_ 0.420195 0.262664 0.00969186 -0.15533
C_ C_ 0.383098 0.224171 0.498487 0.18167
C_ C_ 0.260547 0.192132 0.35231 0.18167
C_ C_ 0.233945 0.221478 0.314426 -0.15533
C_ C_ 0.261811 0.237452 0.278277 0.02923
C_ C_ 0.315322 0.232373 0.285412 -0.15533
C_ C_ 0.340581 0.207222 0.326313 0.18167
C_ C_ 0.262916 0.122168 0.455906 0.69207
C_ C_ 0.230002 0.121111 0.997736 0.02923
C_ C_ 0.253251 0.115474 0.0488665 -0.15533
C_ C_ 0.223248 0.110708 0.0872669 -0.15533
C_ C_ 0.17205 0.101344 0.076104 0.02923
C_ C_ 0.152862 0.0958264 0.0245238 -0.15533
C_ C_ 0.179808 0.112479 0.985497 0.02923
C_ C_ 0.149085 0.115525 0.430294 0.69207
C_ C_ 0.1606 0.1041 0.17217 0.69661
C_ C_ 0.373425 0.384387 0.382339 -0.30787
C_ C_ 0.132897 0.108074 0.116695 -0.30787
N_ N_ 0.143745 0.0566567 0.31678 -0.32189
N_ N_ 0.0508782 0.142499 0.314688 -0.32189
N_ N_ 0.106271 0.30987 0.0643908 -0.32189
N_ N_ 0.191647 0.319256 0.151196 -0.32189
N_ N_ 0.363261 0.447788 0.198953 -0.32189
N_ N_ 0.449188 0.363151 0.188125 -0.32189
N_ N_ 0.392375 0.189096 0.458717 -0.32189
N_ N_ 0.312251 0.187358 0.359888 -0.32189
O_ O_ 0.503871 0.0902758 0.4046 -0.63271
O_ O_ 0.0416319 0.0355793 0.342587 -0.57982
O_ O_ 0.400781 0.0972891 0.340272 -0.63271
O_ O_ 0.373764 0.0908414 0.417811 -0.57982
O_ O_ 0.250696 0.392058 0.095236 -0.63271
O_ O_ 0.204995 0.340139 0.0464421 -0.57982
O_ O_ 0.365708 0.343065 0.0984705 -0.63271
O_ O_ 0.385106 0.422915 0.0912844 -0.57982
O_ O_ 0.989315 0.407927 0.099629 -0.63271
O_ O_ 0.453205 0.470593 0.154556 -0.57982
O_ O_ 0.0889058 0.398867 0.147323 -0.63271
O_ O_ 0.137277 0.415446 0.0838138 -0.57982
O_ O_ 0.26468 0.0921885 0.414302 -0.63271
O_ O_ 0.291562 0.159861 0.462544 -0.57982
O_ O_ 0.157431 0.155563 0.407149 -0.63271
O_ O_ 0.110308 0.0894246 0.413493 -0.57982
F_ F_ 0.437545 0.322697 0.428286 -0.20885
F_ F_ 0.426982 0.312885 0.344866 -0.20885
F_ F_ 0.365871 0.294364 0.389032 -0.20885
F_ F_ 0.316834 0.427296 0.317235 -0.20885
F_ F_ 0.31419 0.34307 0.318513 -0.20885
F_ F_ 0.377484 0.376751 0.291973 -0.20885
F_ F_ 0.0743071 0.167357 0.0710115 -0.20885
F_ F_ 0.0874052 0.181808 0.159334 -0.20885
F_ F_ 0.146218 0.199089 0.111502 -0.20885
F_ F_ 0.193401 0.0617361 0.181605 -0.20885
F_ F_ 0.18736 0.146082 0.183909 -0.20885
F_ F_ 0.127072 0.105857 0.210423 -0.20885
Zn Zn 0.0912211 0.0879486 0.855069 0.83971
Zn Zn 0.159667 0.342221 0.575765 0.83971
Zn Zn 0.412814 0.418453 0.654843 0.83971
Zn Zn 0.334385 0.160144 0.91733 0.83971
H_ H_ 0.166297 0.133619 0.809207 0.10394
H_ H_ 0.246575 0.100008 0.76217 0.10394
H_ H_ 0.215129 0.452783 0.775503 0.10394
H_ H_ 0.146057 0.990346 0.847633 0.10394
H_ H_ 0.540238 0.107187 0.740368 0.10394
H_ H_ 0.486404 0.175654 0.707763 0.10394
H_ H_ 0.0361181 0.273347 0.834265 0.10394
H_ H_ 0.0736831 0.203083 0.883829 0.10394
H_ H_ 0.0391858 0.443973 0.872286 0.10394
H_ H_ 0.48389 0.380406 0.8997 0.10394
H_ H_ 0.349082 0.491051 0.903206 0.10394
H_ H_ 0.0836045 0.303111 0.626376 0.10394
H_ H_ 0.514509 0.253951 0.600811 0.10394
H_ H_ 0.046288 0.288973 0.950571 0.10394
H_ H_ 0.107202 0.313284 0.471279 0.10394
H_ H_ 0.224846 0.241535 0.590147 0.10394
H_ H_ 0.269059 0.200214 0.671375 0.10394
H_ H_ 0.223753 0.334505 0.757837 0.10394
H_ H_ 0.181397 0.372381 0.679709 0.10394
H_ H_ 0.231944 0.323187 0.955279 0.10394
H_ H_ 0.27804 0.336987 0.884771 0.10394
H_ H_ 0.390302 0.405078 0.990943 0.10394
H_ H_ 0.310597 0.403675 0.657346 0.10394
H_ H_ 0.235224 0.455559 0.690444 0.10394
H_ H_ 0.337998 0.0505547 0.78184 0.10394
H_ H_ 0.411637 0.497378 0.746218 0.10394
H_ H_ 0.0143052 0.383991 0.699401 0.10394
H_ H_ 0.0611133 0.306273 0.729204 0.10394
H_ H_ 0.40792 0.25913 0.73748 0.10394
H_ H_ 0.371419 0.340251 0.696528 0.10394
H_ H_ 0.470175 0.0653887 0.641351 0.10394
H_ H_ 0.0195804 0.117841 0.626662 0.10394
H_ H_ 0.142945 0.00543981 0.583686 0.10394
H_ H_ 0.436818 0.164389 0.899448 0.10394
H_ H_ 0.0220396 0.188286 0.949471 0.10394
H_ H_ 0.413498 0.273057 0.554869 0.10394
H_ H_ 0.341064 0.245414 0.00038999999999989043 0.10394
H_ H_ 0.23531 0.18129 0.868418 0.10394
H_ H_ 0.196981 0.23687 0.802967 0.10394
H_ H_ 0.338661 0.222707 0.739842 0.10394
H_ H_ 0.379247 0.192397 0.826802 0.10394
H_ H_ 0.289018 0.10105 0.55124 0.10394
H_ H_ 0.235265 0.0911404 0.620761 0.10394
H_ H_ 0.103522 0.100661 0.51405 0.10394
C_ C_ 0.179299 0.0945783 0.805139 0.18167
C_ C_ 0.225676 0.0768267 0.785766 -0.15533
C_ C_ 0.238094 0.0246862 0.780641 0.02923
C_ C_ 0.210071 0.493018 0.7859 -0.15533
C_ C_ 0.164297 0.012019 0.822688 0.18167
C_ C_ 0.0276949 0.137012 0.779201 0.18167
C_ C_ 0.509176 0.183339 0.742166 -0.15533
C_ C_ 0.0146972 0.226906 0.765617 0.02923
C_ C_ 0.0356423 0.235116 0.815761 -0.15533
C_ C_ 0.0565461 0.195263 0.846301 0.18167
C_ C_ 0.00667674 0.0436059 0.880261 0.69207
C_ C_ 0.468228 0.508295 0.877956 0.02923
C_ C_ 0.491579 0.457097 0.885391 -0.15533
C_ C_ 0.461463 0.41779 0.891159 -0.15533
C_ C_ 0.408529 0.426419 0.896665 0.02923
C_ C_ 0.388031 0.479303 0.89965 -0.15533
C_ C_ 0.41692 0.518196 0.88925 0.02923
C_ C_ 0.393062 0.0763458 0.882802 0.69207
C_ C_ 0.403107 0.332015 0.881184 0.69661
C_ C_ 0.0759267 0.291892 0.586515 0.18167
C_ C_ 0.0314554 0.269015 0.573186 -0.15533
C_ C_ 0.016957 0.255806 0.52067 0.02923
C_ C_ 0.0515384 0.289535 0.991527 -0.15533
C_ C_ 0.0864712 0.297966 0.499066 0.18167
C_ C_ 0.223111 0.259483 0.628893 0.18167
C_ C_ 0.247394 0.236866 0.673151 -0.15533
C_ C_ 0.238658 0.258883 0.719858 0.02923
C_ C_ 0.218302 0.30915 0.722145 -0.15533
C_ C_ 0.193329 0.331283 0.678865 0.18167
C_ C_ 0.24192 0.358672 0.543034 0.69207
C_ C_ 0.279162 0.366616 0.0110288 0.02923
C_ C_ 0.260528 0.351406 0.959792 -0.15533
C_ C_ 0.289774 0.356321 0.920114 -0.15533
C_ C_ 0.332717 0.387333 0.928741 0.02923
C_ C_ 0.351651 0.395509 0.982359 -0.15533
C_ C_ 0.324681 0.389391 0.0231091 0.02923
C_ C_ 0.353042 0.377851 0.569376 0.69207
C_ C_ 0.343831 0.395222 0.831706 0.69661
C_ C_ 0.315849 0.436115 0.685169 0.18167
C_ C_ 0.272891 0.465818 0.704857 -0.15533
C_ C_ 0.282474 0.506913 0.740247 0.02923
C_ C_ 0.330262 0.0166071 0.755473 -0.15533
C_ C_ 0.373848 0.487272 0.73255 0.18167
C_ C_ 0.494168 0.353675 0.700129 0.18167
C_ C_ 0.0189088 0.307209 0.72046 -0.15533
C_ C_ 0.486444 0.276609 0.741738 0.02923
C_ C_ 0.432121 0.285998 0.726295 -0.15533
C_ C_ 0.411335 0.329155 0.701542 0.18167
C_ C_ 0.489747 0.458621 0.624065 0.69207
C_ C_ 0.0270282 0.990799 0.623921 0.02923
C_ C_ 0.00898081 0.0423378 0.631079 -0.15533
C_ C_ 0.0391928 0.0803004 0.626546 -0.15533
C_ C_ 0.0876091 0.0680557 0.605457 0.02923
C_ C_ 0.104804 0.0157 0.595969 -0.15533
C_ C_ 0.0753906 0.977555 0.608781 0.02923
C_ C_ 0.0970233 0.421564 0.60987 0.69207
C_ C_ 0.104812 0.159824 0.609617 0.69661
C_ C_ 0.433758 0.183629 0.93688 0.18167
C_ C_ 0.476582 0.203866 0.962407 -0.15533
C_ C_ 0.470384 0.246949 0.995221 0.02923
C_ C_ 0.423512 0.247364 0.524627 -0.15533
C_ C_ 0.378784 0.236658 0.98786 0.18167
C_ C_ 0.259624 0.204716 0.850393 0.18167
C_ C_ 0.236906 0.233183 0.809393 -0.15533
C_ C_ 0.265161 0.236253 0.767233 0.02923
C_ C_ 0.317948 0.219327 0.773411 -0.15533
C_ C_ 0.340341 0.20365 0.821783 0.18167
C_ C_ 0.262821 0.129521 0.958047 0.69207
C_ C_ 0.228199 0.113124 0.493363 0.02923
C_ C_ 0.249838 0.0991873 0.541469 -0.15533
C_ C_ 0.218449 0.0940518 0.581905 -0.15533
C_ C_ 0.165435 0.0958161 0.57132 0.02923
C_ C_ 0.144945 0.0993718 0.519172 -0.15533
C_ C_ 0.174849 0.105193 0.480216 0.02923
C_ C_ 0.153417 0.115027 0.934232 0.69207
C_ C_ 0.152695 0.0985862 0.669272 0.69661
C_ C_ 0.370578 0.384313 0.886752 -0.30787
C_ C_ 0.126734 0.105033 0.612476 -0.30787
N_ N_ 0.149927 0.0628104 0.822774 -0.32189
N_ N_ 0.0548899 0.145038 0.826007 -0.32189
N_ N_ 0.101421 0.309025 0.549371 -0.32189
N_ N_ 0.19161 0.305361 0.632871 -0.32189
N_ N_ 0.363229 0.448664 0.696579 -0.32189
N_ N_ 0.443715 0.358365 0.68503 -0.32189
N_ N_ 0.386119 0.197473 0.952053 -0.32189
N_ N_ 0.311426 0.197108 0.858923 -0.32189
O_ O_ 0.501223 0.0928347 0.88944 -0.63271
O_ O_ 0.0475074 0.0392899 0.854222 -0.57982
O_ O_ 0.395977 0.101784 0.843183 -0.63271
O_ O_ 0.367419 0.0972184 0.920713 -0.57982
O_ O_ 0.247816 0.377405 0.591039 -0.63271
O_ O_ 0.202794 0.335027 0.528507 -0.57982
O_ O_ 0.347111 0.337007 0.593972 -0.63271
O_ O_ 0.375942 0.417319 0.591189 -0.57982
O_ O_ 0.986842 0.40942 0.596575 -0.63271
O_ O_ 0.455121 0.468379 0.655331 -0.57982
O_ O_ 0.0988257 0.396952 0.652881 -0.63271
O_ O_ 0.132049 0.40753 0.578804 -0.57982
O_ O_ 0.2663 0.0977407 0.916904 -0.63271
O_ O_ 0.296128 0.164233 0.966097 -0.57982
O_ O_ 0.15733 0.152903 0.907202 -0.63271
O_ O_ 0.118963 0.0845016 0.919987 -0.57982
F_ F_ 0.432093 0.32512 0.927937 -0.20885
F_ F_ 0.434547 0.326153 0.840725 -0.20885
F_ F_ 0.372574 0.290439 0.874339 -0.20885
F_ F_ 0.305895 0.434448 0.834131 -0.20885
F_ F_ 0.317931 0.354369 0.810416 -0.20885
F_ F_ 0.372081 0.407586 0.794235 -0.20885
F_ F_ 0.0689977 0.165256 0.569802 -0.20885
F_ F_ 0.0829014 0.181911 0.652959 -0.20885
F_ F_ 0.141256 0.189691 0.600224 -0.20885
F_ F_ 0.1786 0.0507554 0.675738 -0.20885
F_ F_ 0.186787 0.134177 0.688772 -0.20885
F_ F_ 0.11502 0.104366 0.701232 -0.20885
Zn Zn 0.0855367 0.582525 0.338267 0.83971
Zn Zn 0.157309 0.846277 0.0796457 0.83971
Zn Zn 0.405495 0.924553 0.154884 0.83971
Zn Zn 0.338047 0.654299 0.415596 0.83971
H_ H_ 0.161704 0.630179 0.290736 0.10394
H_ H_ 0.244301 0.59793 0.260768 0.10394
H_ H_ 0.205484 0.940447 0.296806 0.10394
H_ H_ 0.123661 0.484743 0.315112 0.10394
H_ H_ 0.524914 0.606634 0.242794 0.10394
H_ H_ 0.483076 0.689341 0.199798 0.10394
H_ H_ 0.0452032 0.770181 0.316006 0.10394
H_ H_ 0.0622274 0.688963 0.371458 0.10394
H_ H_ 0.0311084 0.940548 0.387113 0.10394
H_ H_ 0.487745 0.880956 0.398544 0.10394
H_ H_ 0.354191 0.986965 0.401655 0.10394
H_ H_ 0.0786882 0.804114 0.129409 0.10394
H_ H_ 0.497235 0.77288 0.0970295 0.10394
H_ H_ 0.023537 0.809251 0.443481 0.10394
H_ H_ 0.121936 0.808014 0.982191 0.10394
H_ H_ 0.213605 0.749569 0.101746 0.10394
H_ H_ 0.242013 0.702411 0.176131 0.10394
H_ H_ 0.213733 0.842261 0.26843 0.10394
H_ H_ 0.172604 0.882717 0.192236 0.10394
H_ H_ 0.230749 0.844834 0.447443 0.10394
H_ H_ 0.279299 0.860432 0.383779 0.10394
H_ H_ 0.401584 0.904986 0.496512 0.10394
H_ H_ 0.298819 0.90163 0.159226 0.10394
H_ H_ 0.227975 0.94416 0.200009 0.10394
H_ H_ 0.333321 0.549462 0.274609 0.10394
H_ H_ 0.398726 -0.000358838 0.236564 0.10394
H_ H_ 0.00993979 0.884668 0.18542 0.10394
H_ H_ 0.0515617 0.808794 0.23384 0.10394
H_ H_ 0.399815 0.765054 0.244899 0.10394
H_ H_ 0.360155 0.836771 0.194413 0.10394
H_ H_ 0.461366 0.55404 0.121141 0.10394
H_ H_ 0.00960419 0.619582 0.094234 0.10394
H_ H_ 0.143525 0.512965 0.0970091 0.10394
H_ H_ 0.443903 0.658909 0.400274 0.10394
H_ H_ 0.00461354 0.722223 0.424053 0.10394
H_ H_ 0.417187 0.778539 0.0515682 0.10394
H_ H_ 0.336378 0.736912 0.497826 0.10394
H_ H_ 0.229622 0.698977 0.382889 0.10394
H_ H_ 0.187019 0.735975 0.305836 0.10394
H_ H_ 0.328033 0.718986 0.238933 0.10394
H_ H_ 0.368393 0.676631 0.313805 0.10394
H_ H_ 0.279376 0.635074 0.0655556 0.10394
H_ H_ 0.222001 0.613349 0.126792 0.10394
H_ H_ 0.104684 0.593259 0.00744521 0.10394
C_ C_ 0.174795 0.591753 0.295849 0.18167
C_ C_ 0.221752 0.57223 0.276884 -0.15533
C_ C_ 0.23341 0.518197 0.271485 0.02923
C_ C_ 0.200936 0.983232 0.299294 -0.15533
C_ C_ 0.150019 0.507766 0.299267 0.18167
C_ C_ 0.017863 0.631705 0.262586 0.18167
C_ C_ 0.495762 0.689153 0.240859 -0.15533
C_ C_ 0.00727817 0.72464 0.254426 0.02923
C_ C_ 0.0344311 0.73128 0.303157 -0.15533
C_ C_ 0.0530282 0.685612 0.329024 0.18167
C_ C_ 0.00262214 0.545654 0.356259 0.69207
C_ C_ 0.475622 0.00935428 0.380184 0.02923
C_ C_ 0.498382 0.958851 0.385464 -0.15533
C_ C_ 0.469526 0.919114 0.393658 -0.15533
C_ C_ 0.416718 0.929308 0.394537 0.02923
C_ C_ 0.394637 0.979445 0.395313 -0.15533
C_ C_ 0.423567 0.0197332 0.386209 0.02923
C_ C_ 0.392426 0.572436 0.387775 0.69207
C_ C_ 0.408566 0.829675 0.387755 0.69661
C_ C_ 0.0701259 0.798827 0.0887351 0.18167
C_ C_ 0.0245352 0.77814 0.0676941 -0.15533
C_ C_ 0.0140814 0.770653 0.0157642 0.02923
C_ C_ 0.0370814 0.802427 0.481579 -0.15533
C_ C_ 0.0931716 0.799748 0.00460778 0.18167
C_ C_ 0.209662 0.769727 0.137932 0.18167
C_ C_ 0.226567 0.743083 0.182068 -0.15533
C_ C_ 0.235494 0.771597 0.228766 0.02923
C_ C_ 0.209719 0.819798 0.232128 -0.15533
C_ C_ 0.187463 0.843073 0.187715 0.18167
C_ C_ 0.237569 0.869851 0.0429687 0.69207
C_ C_ 0.281895 0.866791 0.510025 0.02923
C_ C_ 0.267253 0.857411 0.459021 -0.15533
C_ C_ 0.296052 0.869646 0.421115 -0.15533
C_ C_ 0.343676 0.889638 0.431929 0.02923
C_ C_ 0.360936 0.894931 0.484129 -0.15533
C_ C_ 0.328575 0.889591 0.523361 0.02923
C_ C_ 0.347099 0.891925 0.0697257 0.69207
C_ C_ 0.354822 0.890182 0.33586 0.69661
C_ C_ 0.306045 0.933379 0.186021 0.18167
C_ C_ 0.265195 0.955533 0.212284 -0.15533
C_ C_ 0.275242 0.992072 0.252161 0.02923
C_ C_ 0.326253 0.516158 0.249791 -0.15533
C_ C_ 0.362401 0.989473 0.229112 0.18167
C_ C_ 0.483651 0.862974 0.212114 0.18167
C_ C_ 0.0110487 0.811009 0.215149 -0.15533
C_ C_ 0.474101 0.781374 0.24536 0.02923
C_ C_ 0.423263 0.788421 0.227893 -0.15533
C_ C_ 0.402287 0.829173 0.201407 0.18167
C_ C_ 0.48543 0.959152 0.125259 0.69207
C_ C_ 0.0163642 0.492633 0.109952 0.02923
C_ C_ -0.003897999999999957 0.54324 0.102929 -0.15533
C_ C_ 0.0272979 0.580823 0.0978499 -0.15533
C_ C_ 0.0810932 0.570816 0.102819 0.02923
C_ C_ 0.101989 0.51986 0.0980381 -0.15533
C_ C_ 0.0703318 0.479076 0.106973 0.02923
C_ C_ 0.0928329 0.923603 0.103951 0.69207
C_ C_ 0.0930013 0.667994 0.108071 0.69661
C_ C_ 0.436225 0.682156 0.436066 0.18167
C_ C_ 0.474015 0.706811 0.462449 -0.15533
C_ C_ 0.465902 0.744587 0.500327 0.02923
C_ C_ 0.421642 0.752028 0.0200213 -0.15533
C_ C_ 0.374724 0.73343 0.483476 0.18167
C_ C_ 0.25282 0.704397 0.352376 0.18167
C_ C_ 0.230114 0.734058 0.313626 -0.15533
C_ C_ 0.258279 0.744979 0.273895 0.02923
C_ C_ 0.308121 0.722269 0.273143 -0.15533
C_ C_ 0.330334 0.694422 0.315327 0.18167
C_ C_ 0.258321 0.612431 0.44402 0.69207
C_ C_ 0.222416 0.628336 0.999904 0.02923
C_ C_ 0.239479 0.628905 0.0524502 -0.15533
C_ C_ 0.206728 0.619591 0.0895913 -0.15533
C_ C_ 0.158201 0.608509 0.0735282 0.02923
C_ C_ 0.141096 0.603708 0.0222647 -0.15533
C_ C_ 0.17191 0.616487 0.985226 0.02923
C_ C_ 0.147672 0.599818 0.414649 0.69207
C_ C_ 0.139507 0.605646 0.168802 0.69661
C_ C_ 0.380952 0.885583 0.391813 -0.30787
C_ C_ 0.117319 0.61254 0.111046 -0.30787
N_ N_ 0.140356 0.558585 0.303825 -0.32189
N_ N_ 0.0489328 0.637763 0.30605 -0.32189
N_ N_ 0.104778 0.805839 0.0564897 -0.32189
N_ N_ 0.186754 0.817305 0.142986 -0.32189
N_ N_ 0.351993 0.953172 0.191854 -0.32189
N_ N_ 0.433024 0.865401 0.191474 -0.32189
N_ N_ 0.38744 0.696076 0.446207 -0.32189
N_ N_ 0.302596 0.685032 0.353991 -0.32189
O_ O_ 0.501458 0.590545 0.390328 -0.63271
O_ O_ 0.037754 0.536284 0.323522 -0.57982
O_ O_ 0.395198 0.601131 0.349208 -0.63271
O_ O_ 0.3684 0.591769 0.427452 -0.57982
O_ O_ 0.240604 0.892571 0.0866752 -0.63271
O_ O_ 0.2022 0.836339 0.0318326 -0.57982
O_ O_ 0.35127 0.849316 0.093948 -0.63271
O_ O_ 0.367092 0.932097 0.0925411 -0.57982
O_ O_ 0.986 0.911818 0.0950756 -0.63271
O_ O_ 0.453347 0.969621 0.160076 -0.57982
O_ O_ 0.0864722 0.893956 0.141209 -0.63271
O_ O_ 0.127282 0.908278 0.0723395 -0.57982
O_ O_ 0.266681 0.586779 0.401201 -0.63271
O_ O_ 0.286784 0.650969 0.456104 -0.57982
O_ O_ 0.147565 0.644032 0.394132 -0.63271
O_ O_ 0.111707 0.568788 0.401294 -0.57982
F_ F_ 0.437609 0.816444 0.430737 -0.20885
F_ F_ 0.442383 0.814726 0.350293 -0.20885
F_ F_ 0.369323 0.797734 0.382363 -0.20885
F_ F_ 0.308468 0.920485 0.330044 -0.20885
F_ F_ 0.33919 0.844147 0.310487 -0.20885
F_ F_ 0.383842 0.906794 0.301025 -0.20885
F_ F_ 0.0708487 0.6781 0.060845 -0.20885
F_ F_ 0.0573625 0.678416 0.144973 -0.20885
F_ F_ 0.128827 0.703123 0.121719 -0.20885
F_ F_ 0.170999 0.564125 0.179054 -0.20885
F_ F_ 0.166387 0.64571 0.188414 -0.20885
F_ F_ 0.102617 0.607754 0.202624 -0.20885
Zn Zn 0.0934678 0.586933 0.847013 0.83971
Zn Zn 0.159303 0.8419 0.58081 0.83971
Zn Zn 0.411189 0.920238 0.655766 0.83971
Zn Zn 0.338768 0.657297 0.921339 0.83971
H_ H_ 0.168658 0.636261 0.80639 0.10394
H_ H_ 0.2469 0.606462 0.76803 0.10394
H_ H_ 0.220692 0.949239 0.801299 0.10394
H_ H_ 0.13606 0.482806 0.808609 0.10394
H_ H_ 0.533635 0.600862 0.734783 0.10394
H_ H_ 0.492568 0.678797 0.697477 0.10394
H_ H_ 0.0233027 0.767923 0.828518 0.10394
H_ H_ 0.071008 0.698262 0.878811 0.10394
H_ H_ 0.0375957 0.942405 0.883248 0.10394
H_ H_ 0.468258 0.881087 0.873747 0.10394
H_ H_ 0.349648 0.996122 0.893308 0.10394
H_ H_ 0.0792363 0.79157 0.623082 0.10394
H_ H_ 0.494696 0.777173 0.599194 0.10394
H_ H_ 0.0409549 0.777821 0.939343 0.10394
H_ H_ 0.109313 0.832658 0.478015 0.10394
H_ H_ 0.211353 0.740305 0.600231 0.10394
H_ H_ 0.263723 0.698114 0.672364 0.10394
H_ H_ 0.222529 0.832853 0.769171 0.10394
H_ H_ 0.18036 0.873909 0.686542 0.10394
H_ H_ 0.214485 0.863937 0.940736 0.10394
H_ H_ 0.264042 0.894764 0.877051 0.10394
H_ H_ 0.385982 0.92648 0.984523 0.10394
H_ H_ 0.304328 0.901982 0.664781 0.10394
H_ H_ 0.234025 0.94872 0.70702 0.10394
H_ H_ 0.34038 0.547788 0.780745 0.10394
H_ H_ 0.407102 0.0015499999999999403 0.738689 0.10394
H_ H_ 0.0177196 0.876192 0.682238 0.10394
H_ H_ 0.0596983 0.802879 0.728833 0.10394
H_ H_ 0.407174 0.760832 0.749263 0.10394
H_ H_ 0.371545 0.838043 0.701974 0.10394
H_ H_ 0.467864 0.561863 0.6225 0.10394
H_ H_ 0.0213448 0.615755 0.626927 0.10394
H_ H_ 0.13984 0.502698 0.581626 0.10394
H_ H_ 0.437117 0.668513 0.899659 0.10394
H_ H_ 0.0192376 0.69152 0.944607 0.10394
H_ H_ 0.40526 0.789692 0.539278 0.10394
H_ H_ 0.34536 0.736548 0.00894879 0.10394
H_ H_ 0.235434 0.705088 0.890119 0.10394
H_ H_ 0.196632 0.751538 0.812233 0.10394
H_ H_ 0.335094 0.702585 0.743146 0.10394
H_ H_ 0.37845 0.680068 0.82376 0.10394
H_ H_ 0.287487 0.583821 0.541152 0.10394
H_ H_ 0.228706 0.582493 0.607808 0.10394
H_ H_ 0.0989614 0.583924 0.497735 0.10394
C_ C_ 0.182144 0.596783 0.805338 0.18167
C_ C_ 0.227254 0.580139 0.783736 -0.15533
C_ C_ 0.241593 0.528447 0.774192 0.02923
C_ C_ 0.211038 0.991635 0.805571 -0.15533
C_ C_ 0.160841 0.511221 0.799865 0.18167
C_ C_ 0.0419823 0.634223 0.765481 0.18167
C_ C_ 0.508741 0.679929 0.736277 -0.15533
C_ C_ 0.0126142 0.723321 0.760189 0.02923
C_ C_ 0.0328774 0.731878 0.811052 -0.15533
C_ C_ 0.0565683 0.691384 0.840134 0.18167
C_ C_ 0.0127823 0.545054 0.873117 0.69207
C_ C_ 0.472895 0.00974603 0.872139 0.02923
C_ C_ 0.48901 0.956741 0.868677 -0.15533
C_ C_ 0.456705 0.920742 0.878298 -0.15533
C_ C_ 0.406334 0.933243 0.890328 0.02923
C_ C_ 0.388893 0.986142 0.891899 -0.15533
C_ C_ 0.420183 0.0222679 0.884621 0.02923
C_ C_ 0.386524 0.568828 0.888974 0.69207
C_ C_ 0.394184 0.833577 0.8902 0.69661
C_ C_ 0.0659707 0.796738 0.583589 0.18167
C_ C_ 0.0227074 0.775976 0.563884 -0.15533
C_ C_ 0.00684206 0.779882 0.513147 0.02923
C_ C_ 0.0489975 0.780575 0.982642 -0.15533
C_ C_ 0.0851324 0.815115 0.501365 0.18167
C_ C_ 0.21281 0.76032 0.6362 0.18167
C_ C_ 0.239323 0.733993 0.67926 -0.15533
C_ C_ 0.239902 0.759482 0.726272 0.02923
C_ C_ 0.21995 0.811173 0.731652 -0.15533
C_ C_ 0.193573 0.833482 0.687811 0.18167
C_ C_ 0.241996 0.861465 0.546154 0.69207
C_ C_ 0.274552 0.874675 0.00422799 0.02923
C_ C_ 0.253753 0.870768 0.95236 -0.15533
C_ C_ 0.281143 0.889169 0.914648 -0.15533
C_ C_ 0.331213 0.902061 0.926261 0.02923
C_ C_ 0.350996 0.906762 0.977179 -0.15533
C_ C_ 0.322927 0.894739 0.0176615 0.02923
C_ C_ 0.35398 0.890271 0.576852 0.69207
C_ C_ 0.348166 0.891586 0.82892 0.69661
C_ C_ 0.310858 0.936048 0.688501 0.18167
C_ C_ 0.270817 0.963222 0.711624 -0.15533
C_ C_ 0.279589 1.00391672 0.748016 0.02923
C_ C_ 0.332943 0.515698 0.753318 -0.15533
C_ C_ 0.368685 0.990945 0.729081 0.18167
C_ C_ 0.491828 0.848015 0.686903 0.18167
C_ C_ 0.0188406 0.808634 0.721962 -0.15533
C_ C_ 0.486867 0.774626 0.734126 0.02923
C_ C_ 0.432855 0.785555 0.732802 -0.15533
C_ C_ 0.411198 0.827498 0.705248 0.18167
C_ C_ 0.487342 0.963954 0.625498 0.69207
C_ C_ 0.0242841 0.487752 0.62224 0.02923
C_ C_ 1.00809868 0.538323 0.632217 -0.15533
C_ C_ 0.0346937 0.576536 0.617759 -0.15533
C_ C_ 0.0828311 0.564364 0.599151 0.02923
C_ C_ 0.0990139 0.511759 0.592648 -0.15533
C_ C_ 0.0723855 0.473148 0.606177 0.02923
C_ C_ 0.09872 0.923075 0.607924 0.69207
C_ C_ 0.097653 0.657558 0.596725 0.69661
C_ C_ 0.43206 0.69395 0.930511 0.18167
C_ C_ 0.474368 0.715862 0.955238 -0.15533
C_ C_ 0.469217 0.747161 -0.0017580000000000373 0.02923
C_ C_ 0.41458 0.757485 0.512107 -0.15533
C_ C_ 0.380023 0.733129 0.991275 0.18167
C_ C_ 0.258202 0.710311 0.859484 0.18167
C_ C_ 0.235821 0.736456 0.817004 -0.15533
C_ C_ 0.261229 0.731264 0.771535 0.02923
C_ C_ 0.313199 0.711215 0.776125 -0.15533
C_ C_ 0.336793 0.692018 0.820203 0.18167
C_ C_ 0.2592 0.630373 0.960574 0.69207
C_ C_ 0.223571 0.59628 0.480098 0.02923
C_ C_ 0.245651 0.592313 0.532292 -0.15533
C_ C_ 0.210304 0.590848 0.569132 -0.15533
C_ C_ 0.158651 0.593773 0.557962 0.02923
C_ C_ 0.138626 0.593285 0.507468 -0.15533
C_ C_ 0.170548 0.596232 0.467921 0.02923
C_ C_ 0.152192 0.614421 0.929811 0.69207
C_ C_ 0.148942 0.602202 0.657948 0.69661
C_ C_ 0.368973 0.890244 0.884691 -0.30787
C_ C_ 0.123852 0.602421 0.601629 -0.30787
N_ N_ 0.149409 0.561754 0.812516 -0.32189
N_ N_ 0.0610532 0.641964 0.816002 -0.32189
N_ N_ 0.0996241 0.813502 0.551913 -0.32189
N_ N_ 0.188145 0.808412 0.640825 -0.32189
N_ N_ 0.358555 0.950451 0.696351 -0.32189
N_ N_ 0.439853 0.858641 0.683985 -0.32189
N_ N_ 0.38523 0.699975 0.949864 -0.32189
N_ N_ 0.307623 0.687148 0.859194 -0.32189
O_ O_ 0.492602 0.595612 0.876103 -0.63271
O_ O_ 0.0505485 0.536973 0.84319 -0.57982
O_ O_ 0.380903 0.595616 0.848061 -0.63271
O_ O_ 0.365406 0.590465 0.929072 -0.57982
O_ O_ 0.244088 0.884107 0.591202 -0.63271
O_ O_ 0.200595 0.838165 0.529532 -0.57982
O_ O_ 0.361083 0.847106 0.600411 -0.63271
O_ O_ 0.376487 0.929389 0.594157 -0.57982
O_ O_ 0.994173 0.905999 0.601898 -0.63271
O_ O_ 0.46003 0.964215 0.665522 -0.57982
O_ O_ 0.09299 0.893401 0.64637 -0.63271
O_ O_ 0.134663 0.908805 0.579232 -0.57982
O_ O_ 0.256954 0.602555 0.916323 -0.63271
O_ O_ 0.299034 0.65477 0.972679 -0.57982
O_ O_ 0.153989 0.654082 0.904226 -0.63271
O_ O_ 0.123017 0.58114 0.912249 -0.57982
F_ F_ 0.423621 0.830118 0.939122 -0.20885
F_ F_ 0.427833 0.811546 0.853379 -0.20885
F_ F_ 0.358649 0.800769 0.895295 -0.20885
F_ F_ 0.312146 0.931617 0.82268 -0.20885
F_ F_ 0.322034 0.849035 0.815814 -0.20885
F_ F_ 0.384316 0.891028 0.793152 -0.20885
F_ F_ 0.0584405 0.662243 0.557998 -0.20885
F_ F_ 0.077374 0.678694 0.638343 -0.20885
F_ F_ 0.132963 0.688887 0.584775 -0.20885
F_ F_ 0.175236 0.553969 0.672039 -0.20885
F_ F_ 0.18343 0.638754 0.666926 -0.20885
F_ F_ 0.113135 0.612251 0.693515 -0.20885
Zn Zn 0.590326 0.0896145 0.35215 0.83971
Zn Zn 0.663461 0.347816 0.0770115 0.83971
Zn Zn 0.907396 0.413901 0.155487 0.83971
Zn Zn 0.836871 0.158725 0.417097 0.83971
H_ H_ 0.67322 0.134365 0.315437 0.10394
H_ H_ 0.758923 0.0995494 0.289338 0.10394
H_ H_ 0.731453 0.461743 0.309753 0.10394
H_ H_ 0.630708 0.987012 0.319274 0.10394
H_ H_ 0.0403349 0.0999855 0.245084 0.10394
H_ H_ 0.997017 0.16826 0.202577 0.10394
H_ H_ 0.537169 0.277621 0.339589 0.10394
H_ H_ 0.568538 0.202621 0.385353 0.10394
H_ H_ 0.529098 0.447765 0.360998 0.10394
H_ H_ 0.983246 0.377559 0.383179 0.10394
H_ H_ 0.862114 0.488685 0.417181 0.10394
H_ H_ 0.580515 0.305999 0.128322 0.10394
H_ H_ 1.00267131 0.264477 0.101535 0.10394
H_ H_ 0.531295 0.302043 0.452261 0.10394
H_ H_ 0.621163 0.319682 0.979217 0.10394
H_ H_ 0.713895 0.246113 0.0991877 0.10394
H_ H_ 0.750184 0.202571 0.17668 0.10394
H_ H_ 0.700641 0.335332 0.266692 0.10394
H_ H_ 0.671687 0.38083 0.184422 0.10394
H_ H_ 0.726622 0.351984 0.440226 0.10394
H_ H_ 0.775925 0.381477 0.376042 0.10394
H_ H_ 0.899886 0.408896 0.490232 0.10394
H_ H_ 0.807111 0.39547 0.16651 0.10394
H_ H_ 0.734269 0.440839 0.20852 0.10394
H_ H_ 0.842821 0.0229341 0.296598 0.10394
H_ H_ 0.899186 0.511433 0.22772 0.10394
H_ H_ 0.518929 0.388717 0.195168 0.10394
H_ H_ 0.563663 0.320092 0.245694 0.10394
H_ H_ 0.908565 0.254245 0.232762 0.10394
H_ H_ 0.86768 0.327418 0.192128 0.10394
H_ H_ 0.969018 0.0572141 0.137377 0.10394
H_ H_ 0.51334 0.12354 0.0992441 0.10394
H_ H_ 0.642695 0.0119013 0.100571 0.10394
H_ H_ 0.933064 0.161811 0.398822 0.10394
H_ H_ 0.512311 0.199088 0.44572 0.10394
H_ H_ 0.914773 0.284667 0.0360702 0.10394
H_ H_ 0.846556 0.225969 0.513526 0.10394
H_ H_ 0.732455 0.197104 0.385528 0.10394
H_ H_ 0.687425 0.240912 0.3093 0.10394
H_ H_ 0.833861 0.233187 0.248562 0.10394
H_ H_ 0.876752 0.202382 0.330805 0.10394
H_ H_ 0.784474 0.113982 0.0619134 0.10394
H_ H_ 0.724989 0.118952 0.119603 0.10394
H_ H_ 0.608647 0.0874073 0.00333164 0.10394
C_ C_ 0.684004 0.0940532 0.312998 0.18167
C_ C_ 0.730161 0.0742064 0.293604 -0.15533
C_ C_ 0.737225 0.0234764 0.276636 0.02923
C_ C_ 0.710817 0.497326 0.299858 -0.15533
C_ C_ 0.6578 0.0135817 0.309837 0.18167
C_ C_ 0.531303 0.144496 0.276792 0.18167
C_ C_ 0.0170085 0.1799 0.236282 -0.15533
C_ C_ 0.51896 0.236407 0.268151 0.02923
C_ C_ 0.53513 0.242055 0.319342 -0.15533
C_ C_ 0.558629 0.198915 0.345 0.18167
C_ C_ 0.506758 0.0496942 0.372359 0.69207
C_ C_ 0.96938 0.508467 0.366591 0.02923
C_ C_ 0.992691 0.456115 0.366996 -0.15533
C_ C_ 0.966262 0.417065 0.380841 -0.15533
C_ C_ 0.916333 0.42732 0.394566 0.02923
C_ C_ 0.896796 0.480021 0.400905 -0.15533
C_ C_ 0.920679 0.519473 0.383804 0.02923
C_ C_ 0.890457 0.0703338 0.384906 0.69207
C_ C_ 0.903412 0.326476 0.387085 0.69661
C_ C_ 0.569036 0.303296 0.0863102 0.18167
C_ C_ 0.52195 0.286526 0.0674314 -0.15533
C_ C_ 0.513335 0.274617 0.0143858 0.02923
C_ C_ 0.544017 0.296816 0.491049 -0.15533
C_ C_ 0.594277 0.307115 0.00425697 0.18167
C_ C_ 0.715174 0.267598 0.134746 0.18167
C_ C_ 0.735062 0.243076 0.178526 -0.15533
C_ C_ 0.736885 0.271287 0.227149 0.02923
C_ C_ 0.705727 0.318384 0.229837 -0.15533
C_ C_ 0.690739 0.343352 0.183438 0.18167
C_ C_ 0.739672 0.376726 0.0415079 0.69207
C_ C_ 0.784223 0.364977 0.504003 0.02923
C_ C_ 0.76295 0.365813 0.451998 -0.15533
C_ C_ 0.791944 0.382704 0.414794 -0.15533
C_ C_ 0.843547 0.391285 0.427716 0.02923
C_ C_ 0.863745 0.393818 0.47921 -0.15533
C_ C_ 0.832481 0.381311 0.516206 0.02923
C_ C_ 0.855095 0.376337 0.069537 0.69207
C_ C_ 0.858986 0.384115 0.328389 0.69661
C_ C_ 0.81111 0.431919 0.187287 0.18167
C_ C_ 0.770181 0.458501 0.210535 -0.15533
C_ C_ 0.77394 0.504561 0.237254 0.02923
C_ C_ 0.832441 0.00479042 0.262282 -0.15533
C_ C_ 0.86485 0.493781 0.225852 0.18167
C_ C_ 0.991313 0.353821 0.200686 0.18167
C_ C_ 0.524978 0.318332 0.227201 -0.15533
C_ C_ 0.984487 0.272626 0.234266 0.02923
C_ C_ 0.931752 0.278632 0.219628 -0.15533
C_ C_ 0.90948 0.323137 0.199076 0.18167
C_ C_ 0.98011 0.454239 0.116244 0.69207
C_ C_ 0.520019 0.997031 0.117426 0.02923
C_ C_ 0.49861 0.0479908 0.112859 -0.15533
C_ C_ 0.529295 0.0856754 0.101913 -0.15533
C_ C_ 0.58269 0.0750919 0.101215 0.02923
C_ C_ 0.602596 0.0236058 0.106267 -0.15533
C_ C_ 0.571168 0.984392 0.110507 0.02923
C_ C_ 0.5965 0.425077 0.0989522 0.69207
C_ C_ 0.59194 0.169351 0.0984151 0.69661
C_ C_ 0.931641 0.175257 0.437288 0.18167
C_ C_ 0.975343 0.191501 0.462978 -0.15533
C_ C_ 0.97248 0.224425 0.505396 0.02923
C_ C_ 0.924624 0.255281 0.00913006 -0.15533
C_ C_ 0.88266 0.215746 0.500841 0.18167
C_ C_ 0.753812 0.20663 0.3556 0.18167
C_ C_ 0.730209 0.233662 0.313462 -0.15533
C_ C_ 0.759725 0.245063 0.274677 0.02923
C_ C_ 0.812553 0.231602 0.281557 -0.15533
C_ C_ 0.834882 0.208573 0.326288 0.18167
C_ C_ 0.759824 0.124843 0.458726 0.69207
C_ C_ 0.728612 0.113686 0.993963 0.02923
C_ C_ 0.745286 0.115819 0.0465274 -0.15533
C_ C_ 0.710296 0.112178 0.0838097 -0.15533
C_ C_ 0.659624 0.1045 0.0674097 0.02923
C_ C_ 0.645986 0.093289 0.0151524 -0.15533
C_ C_ 0.676871 0.103454 0.978165 0.02923
C_ C_ 0.649447 0.113505 0.430094 0.69207
C_ C_ 0.646065 0.121822 0.163585 0.69661
C_ C_ 0.87978 0.381697 0.385267 -0.30787
C_ C_ 0.620641 0.115676 0.107207 -0.30787
N_ N_ 0.64682 0.0635512 0.316454 -0.32189
N_ N_ 0.553434 0.151168 0.325653 -0.32189
N_ N_ 0.605444 0.312473 0.0560439 -0.32189
N_ N_ 0.694466 0.319232 0.137615 -0.32189
N_ N_ 0.858444 0.449296 0.194907 -0.32189
N_ N_ 0.93969 0.357891 0.187246 -0.32189
N_ N_ 0.886616 0.189335 0.455721 -0.32189
N_ N_ 0.804703 0.192342 0.359228 -0.32189
O_ O_ -0.000631112 0.0900973 0.397094 -0.63271
O_ O_ 0.549265 0.0385733 0.351314 -0.57982
O_ O_ 0.890172 0.0987363 0.345446 -0.63271
O_ O_ 0.864573 0.090092 0.422297 -0.57982
O_ O_ 0.742856 0.39492 0.0896892 -0.63271
O_ O_ 0.706507 0.343716 0.0304208 -0.57982
O_ O_ 0.858929 0.333084 0.0918141 -0.63271
O_ O_ 0.872864 0.416312 0.0924857 -0.57982
O_ O_ 0.492786 0.411298 0.102289 -0.63271
O_ O_ 0.945821 0.465263 0.148664 -0.57982
O_ O_ 0.593827 0.398325 0.137325 -0.63271
O_ O_ 0.631667 0.407787 0.0694017 -0.57982
O_ O_ 0.757648 0.0984351 0.4147 -0.63271
O_ O_ 0.79143 0.160152 0.465275 -0.57982
O_ O_ 0.651551 0.154749 0.405138 -0.63271
O_ O_ 0.614828 0.0829102 0.414259 -0.57982
F_ F_ 0.939416 0.321454 0.428796 -0.20885
F_ F_ 0.929615 0.306324 0.345556 -0.20885
F_ F_ 0.865667 0.294452 0.392344 -0.20885
F_ F_ 0.827029 0.430357 0.320437 -0.20885
F_ F_ 0.829565 0.344841 0.31225 -0.20885
F_ F_ 0.895286 0.386399 0.293886 -0.20885
F_ F_ 0.559632 0.173224 0.0522698 -0.20885
F_ F_ 0.565155 0.192967 0.136195 -0.20885
F_ F_ 0.628908 0.201102 0.0917689 -0.20885
F_ F_ 0.681918 0.0845486 0.179707 -0.20885
F_ F_ 0.667823 0.166762 0.180814 -0.20885
F_ F_ 0.607234 0.120888 0.19656 -0.20885
Zn Zn 0.592659 0.0847343 0.843457 0.83971
Zn Zn 0.663123 0.347176 0.586207 0.83971
Zn Zn 0.907356 0.414036 0.655914 0.83971
Zn Zn 0.844446 0.149436 0.91843 0.83971
H_ H_ 0.675156 0.131092 0.806099 0.10394
H_ H_ 0.758163 0.0957729 0.778026 0.10394
H_ H_ 0.703401 0.441095 0.780685 0.10394
H_ H_ 0.634659 0.983008 0.826057 0.10394
H_ H_ 0.0171157 0.100319 0.767922 0.10394
H_ H_ 0.99780991 0.16758 0.709237 0.10394
H_ H_ 0.523079 0.272725 0.843819 0.10394
H_ H_ 0.572348 0.196125 0.880439 0.10394
H_ H_ 0.532552 0.449486 0.882958 0.10394
H_ H_ 0.984033 0.374013 0.873935 0.10394
H_ H_ 0.85717 0.483731 0.895757 0.10394
H_ H_ 0.588947 0.304292 0.635854 0.10394
H_ H_ 0.00374983 0.269853 0.600646 0.10394
H_ H_ 0.546453 0.275076 0.942435 0.10394
H_ H_ 0.614184 0.329541 0.483965 0.10394
H_ H_ 0.731955 0.257232 0.600658 0.10394
H_ H_ 0.785244 0.219077 0.671141 0.10394
H_ H_ 0.707291 0.318989 0.77801 0.10394
H_ H_ 0.665997 0.371249 0.702854 0.10394
H_ H_ 0.71918 0.383016 0.939978 0.10394
H_ H_ 0.770463 0.38852 0.873194 0.10394
H_ H_ 0.899139 0.401758 0.984043 0.10394
H_ H_ 0.80515 0.389434 0.660662 0.10394
H_ H_ 0.731225 0.433719 0.694266 0.10394
H_ H_ 0.843077 0.032898 0.783984 0.10394
H_ H_ 0.898036 0.504018 0.726943 0.10394
H_ H_ 0.516151 0.375575 0.681479 0.10394
H_ H_ 0.558345 0.301107 0.721647 0.10394
H_ H_ 0.91816 0.243353 0.729706 0.10394
H_ H_ 0.873214 0.325728 0.697703 0.10394
H_ H_ 0.971487 0.0514976 0.639503 0.10394
H_ H_ 0.529919 0.127311 0.627937 0.10394
H_ H_ 0.642556 0.00794418 0.583892 0.10394
H_ H_ 0.949146 0.161752 0.891626 0.10394
H_ H_ 0.51541 0.1838 0.958946 0.10394
H_ H_ 0.92056 0.271322 0.551805 0.10394
H_ H_ 0.848361 0.234039 -0.006284999999999985 0.10394
H_ H_ 0.737008 0.185158 0.883713 0.10394
H_ H_ 0.700738 0.236735 0.816207 0.10394
H_ H_ 0.840891 0.247573 0.763066 0.10394
H_ H_ 0.882737 0.185762 0.826424 0.10394
H_ H_ 0.78739 0.120788 0.555742 0.10394
H_ H_ 0.739114 0.101463 0.624606 0.10394
H_ H_ 0.609677 0.090728 0.517806 0.10394
C_ C_ 0.686649 0.0884579 0.80497 0.18167
C_ C_ 0.732386 0.0676531 0.786296 -0.15533
C_ C_ 0.742179 0.0151636 0.776221 0.02923
C_ C_ 0.697452 0.483797 0.786911 -0.15533
C_ C_ 0.660342 0.00614304 0.809798 0.18167
C_ C_ 0.533458 0.140486 0.766381 0.18167
C_ C_ 0.0141247 0.176867 0.746814 -0.15533
C_ C_ 0.506898 0.229595 0.769124 0.02923
C_ C_ 0.532362 0.235807 0.819752 -0.15533
C_ C_ 0.551031 0.191246 0.844198 0.18167
C_ C_ 0.507104 0.0494655 0.86564 0.69207
C_ C_ 0.976205 0.504558 0.875626 0.02923
C_ C_ 0.998804 0.453716 0.877836 -0.15533
C_ C_ 0.969557 0.413573 0.884285 -0.15533
C_ C_ 0.91665 0.423362 0.890584 0.02923
C_ C_ 0.896271 0.474579 0.89769 -0.15533
C_ C_ 0.925148 0.514593 0.888031 0.02923
C_ C_ 0.894399 0.0648753 0.880687 0.69207
C_ C_ 0.906759 0.324592 0.88781 0.69661
C_ C_ 0.577033 0.297672 0.594254 0.18167
C_ C_ 0.532536 0.275704 0.57668 -0.15533
C_ C_ 0.514615 0.273654 0.524668 0.02923
C_ C_ 0.546239 0.289802 0.981927 -0.15533
C_ C_ 0.592351 0.312038 0.509438 0.18167
C_ C_ 0.728143 0.272332 0.637726 0.18167
C_ C_ 0.752569 0.247216 0.677858 -0.15533
C_ C_ 0.741783 0.262435 0.728552 0.02923
C_ C_ 0.713752 0.307684 0.737325 -0.15533
C_ C_ 0.691208 0.336503 0.695211 0.18167
C_ C_ 0.748685 0.359394 0.543176 0.69207
C_ C_ 0.777428 0.381049 1.00265318 0.02923
C_ C_ 0.758523 0.3848 0.949865 -0.15533
C_ C_ 0.789313 0.383216 0.910862 -0.15533
C_ C_ 0.841485 0.386631 0.924284 0.02923
C_ C_ 0.859649 0.390789 0.976592 -0.15533
C_ C_ 0.830262 0.380437 0.0146014 0.02923
C_ C_ 0.857468 0.379248 0.567901 0.69207
C_ C_ 0.855893 0.385057 0.82835 0.69661
C_ C_ 0.810082 0.426208 0.683446 0.18167
C_ C_ 0.768823 0.448386 0.709272 -0.15533
C_ C_ 0.772945 0.492364 0.741782 0.02923
C_ C_ 0.832473 0.00347898 0.753373 -0.15533
C_ C_ 0.862998 0.48578 0.726115 0.18167
C_ C_ 0.993074 0.354052 0.702822 0.18167
C_ C_ 0.516678 0.307156 0.720875 -0.15533
C_ C_ 0.99073 0.268721 0.73387 0.02923
C_ C_ 0.938168 0.273486 0.723038 -0.15533
C_ C_ 0.913143 0.320592 0.702041 0.18167
C_ C_ 0.989736 0.448627 0.631109 0.69207
C_ C_ 0.525564 1.00055 0.626545 0.02923
C_ C_ 0.50943 0.0530469 0.630585 -0.15533
C_ C_ 0.542381 0.0872687 0.620141 -0.15533
C_ C_ 0.592388 0.0720057 0.610302 0.02923
C_ C_ 0.607011 0.02011 0.599167 -0.15533
C_ C_ 0.57585 0.983236 0.61167 0.02923
C_ C_ 0.602142 0.42769 0.605761 0.69207
C_ C_ 0.617001 0.16485 0.623931 0.69661
C_ C_ 0.943973 0.182855 0.928267 0.18167
C_ C_ 0.985454 0.206662 0.955194 -0.15533
C_ C_ 0.976304 0.242311 -0.0032809999999999784 0.02923
C_ C_ 0.925402 0.238329 0.523987 -0.15533
C_ C_ 0.886299 0.228469 0.98367 0.18167
C_ C_ 0.761724 0.196621 0.856386 0.18167
C_ C_ 0.739135 0.222148 0.815637 -0.15533
C_ C_ 0.766306 0.236706 0.77616 0.02923
C_ C_ 0.818874 0.224887 0.783709 -0.15533
C_ C_ 0.84239 0.196794 0.825149 0.18167
C_ C_ 0.764695 0.116913 0.956695 0.69207
C_ C_ 0.72792 0.116056 0.496775 0.02923
C_ C_ 0.748943 0.11129 0.546393 -0.15533
C_ C_ 0.720722 0.10414 0.585094 -0.15533
C_ C_ 0.667901 0.102359 0.57537 0.02923
C_ C_ 0.648342 0.099435 0.522652 -0.15533
C_ C_ 0.675889 0.110436 0.482673 0.02923
C_ C_ 0.654427 0.104278 0.923047 0.69207
C_ C_ 0.662846 0.0937897 0.673639 0.69661
C_ C_ 0.881088 0.379286 0.886027 -0.30787
C_ C_ 0.63516 0.107875 0.619746 -0.30787
N_ N_ 0.651135 0.0582565 0.812424 -0.32189
N_ N_ 0.556108 0.14426 0.815607 -0.32189
N_ N_ 0.607879 0.31173 0.562146 -0.32189
N_ N_ 0.697625 0.317819 0.646818 -0.32189
N_ N_ 0.857441 0.442865 0.695475 -0.32189
N_ N_ 0.941641 0.357553 0.691697 -0.32189
N_ N_ 0.89637 0.193029 0.942823 -0.32189
N_ N_ 0.813295 0.183093 0.859665 -0.32189
O_ O_ -0.00138223 0.0849414 0.910517 -0.63271
O_ O_ 0.54759 0.0387301 0.841094 -0.57982
O_ O_ 0.898028 0.0923765 0.840976 -0.63271
O_ O_ 0.877136 0.0855194 0.922251 -0.57982
O_ O_ 0.753565 0.386807 0.587258 -0.63271
O_ O_ 0.705456 0.339452 0.532284 -0.57982
O_ O_ 0.851261 0.339412 0.594735 -0.63271
O_ O_ 0.87963 0.418243 0.589805 -0.57982
O_ O_ 0.49176 0.415791 0.598363 -0.63271
O_ O_ 0.954722 0.456179 0.664733 -0.57982
O_ O_ 0.595072 0.401121 0.644784 -0.63271
O_ O_ 0.637602 0.408775 0.575296 -0.57982
O_ O_ 0.767854 0.0851607 0.917614 -0.63271
O_ O_ 0.79748 0.150518 0.964596 -0.57982
O_ O_ 0.6616 0.143068 0.896803 -0.63271
O_ O_ 0.617329 0.0784291 0.908262 -0.57982
F_ F_ 0.943568 0.322301 0.929431 -0.20885
F_ F_ 0.935774 0.309231 0.848173 -0.20885
F_ F_ 0.871107 0.29008 0.886213 -0.20885
F_ F_ 0.828962 0.431516 0.823094 -0.20885
F_ F_ 0.824393 0.347674 0.809301 -0.20885
F_ F_ 0.891415 0.386396 0.793502 -0.20885
F_ F_ 0.580414 0.178357 0.583669 -0.20885
F_ F_ 0.589994 0.177606 0.666808 -0.20885
F_ F_ 0.656054 0.197231 0.629001 -0.20885
F_ F_ 0.690534 0.0471984 0.668081 -0.20885
F_ F_ 0.696113 0.130115 0.694668 -0.20885
F_ F_ 0.627899 0.0945348 0.710652 -0.20885
Zn Zn 0.586828 0.585992 0.341821 0.83971
Zn Zn 0.657049 0.851591 0.0800996 0.83971
Zn Zn 0.905967 0.917022 0.146782 0.83971
Zn Zn 0.838652 0.654066 0.408229 0.83971
H_ H_ 0.653894 0.63712 0.286767 0.10394
H_ H_ 0.733935 0.605816 0.252984 0.10394
H_ H_ 0.71141 0.950321 0.287789 0.10394
H_ H_ 0.647404 0.491161 0.341449 0.10394
H_ H_ 0.011859 0.595021 0.24386 0.10394
H_ H_ 0.972464 0.668399 0.201111 0.10394
H_ H_ 0.52616 0.770783 0.340011 0.10394
H_ H_ 0.558139 0.689166 0.378338 0.10394
H_ H_ 0.541093 0.954958 0.394427 0.10394
H_ H_ 0.973977 0.876726 0.389901 0.10394
H_ H_ 0.845586 0.990168 0.38823 0.10394
H_ H_ 0.578306 0.807178 0.133641 0.10394
H_ H_ 0.997751 0.773999 0.094643 0.10394
H_ H_ 0.53487 0.786802 0.446675 0.10394
H_ H_ 0.607658 0.833653 0.979741 0.10394
H_ H_ 0.705214 0.750739 0.09403 0.10394
H_ H_ 0.741543 0.706037 0.167564 0.10394
H_ H_ 0.720899 0.845306 0.263816 0.10394
H_ H_ 0.694658 0.891375 0.17907 0.10394
H_ H_ 0.710762 0.869942 0.451155 0.10394
H_ H_ 0.761493 0.878853 0.382309 0.10394
H_ H_ 0.886728 0.917671 0.486082 0.10394
H_ H_ 0.797375 0.945307 0.126015 0.10394
H_ H_ 0.726327 0.980494 0.177574 0.10394
H_ H_ 0.823255 0.557683 0.271019 0.10394
H_ H_ 0.908692 0.97618 0.253746 0.10394
H_ H_ 0.507506 0.889803 0.203351 0.10394
H_ H_ 0.542978 0.822575 0.258889 0.10394
H_ H_ 0.907495 0.748471 0.216616 0.10394
H_ H_ 0.867317 0.825147 0.183171 0.10394
H_ H_ 0.957647 0.552651 0.100586 0.10394
H_ H_ 0.513368 0.622578 0.0994424 0.10394
H_ H_ 0.6389 0.509165 0.0826179 0.10394
H_ H_ 0.938072 0.67404 0.385127 0.10394
H_ H_ 0.5126 0.694487 0.45101 0.10394
H_ H_ 0.914336 0.775223 0.0442196 0.10394
H_ H_ 0.838605 0.72525 0.495553 0.10394
H_ H_ 0.732273 0.688892 0.376582 0.10394
H_ H_ 0.694766 0.753963 0.313957 0.10394
H_ H_ 0.82413 0.71096 0.230183 0.10394
H_ H_ 0.869246 0.674056 0.309575 0.10394
H_ H_ 0.783611 0.619532 0.0505192 0.10394
H_ H_ 0.725584 0.617509 0.115945 0.10394
H_ H_ 0.602559 0.588189 -0.004300999999999999 0.10394
C_ C_ 0.668625 0.595309 0.287743 0.18167
C_ C_ 0.7127 0.578562 0.265899 -0.15533
C_ C_ 0.731842 0.527643 0.269261 0.02923
C_ C_ 0.701134 0.991456 0.287044 -0.15533
C_ C_ 0.661241 0.511893 0.3126 0.18167
C_ C_ 0.518458 0.642574 0.264785 0.18167
C_ C_ 9.999999999998899e-05 0.674836 0.234347 -0.15533
C_ C_ 0.495614 0.735007 0.268624 0.02923
C_ C_ 0.522127 0.733713 0.317777 -0.15533
C_ C_ 0.545097 0.688248 0.339246 0.18167
C_ C_ 0.50411 0.546786 0.363672 0.69207
C_ C_ 0.971335 0.0034993 0.381501 0.02923
C_ C_ -0.009468000000000032 0.951862 0.387471 -0.15533
C_ C_ 0.958408 0.915096 0.387077 -0.15533
C_ C_ 0.904745 0.929 0.390082 0.02923
C_ C_ 0.886838 0.979318 0.386919 -0.15533
C_ C_ 0.9171 0.017402 0.38366 0.02923
C_ C_ 0.891283 0.572479 0.382208 0.69207
C_ C_ 0.893314 0.828939 0.393333 0.69661
C_ C_ 0.570109 0.800945 0.0912804 0.18167
C_ C_ 0.525328 0.783463 0.072467 -0.15533
C_ C_ 0.512223 0.7774 0.0194319 0.02923
C_ C_ 0.543113 0.791931 0.487523 -0.15533
C_ C_ 0.591381 0.810402 0.00604332 0.18167
C_ C_ 0.704111 0.769796 0.131176 0.18167
C_ C_ 0.726757 0.744589 0.173354 -0.15533
C_ C_ 0.734051 0.769833 0.223768 0.02923
C_ C_ 0.7197 0.823387 0.227554 -0.15533
C_ C_ 0.702531 0.849692 0.180981 0.18167
C_ C_ 0.736975 0.869065 0.0421432 0.69207
C_ C_ 0.770112 0.884671 0.510008 0.02923
C_ C_ 0.749737 0.878089 0.460733 -0.15533
C_ C_ 0.77902 0.882981 0.420153 -0.15533
C_ C_ 0.829028 0.896337 0.427155 0.02923
C_ C_ 0.848153 0.904381 0.479158 -0.15533
C_ C_ 0.82045 0.893947 0.519101 0.02923
C_ C_ 0.85045 0.882533 0.067503 0.69207
C_ C_ 0.845832 0.88049 0.329489 0.69661
C_ C_ 0.806487 0.957262 0.166436 0.18167
C_ C_ 0.76661 0.979625 0.196423 -0.15533
C_ C_ 0.778373 1.00359645 0.243429 0.02923
C_ C_ 0.821101 0.52359 0.243106 -0.15533
C_ C_ 0.870172 0.978929 0.233747 0.18167
C_ C_ 0.988108 0.854507 0.190925 0.18167
C_ C_ 0.50394 0.82259 0.242352 -0.15533
C_ C_ 0.983949 0.770076 0.224494 0.02923
C_ C_ 0.932121 0.77385 0.206462 -0.15533
C_ C_ 0.908201 0.820404 0.188998 0.18167
C_ C_ 0.980508 0.957581 0.11775 0.69207
C_ C_ 0.521004 0.491419 0.11031 0.02923
C_ C_ 0.499404 0.54399 0.111452 -0.15533
C_ C_ 0.52926 0.58202 0.0998506 -0.15533
C_ C_ 0.581413 0.570014 0.0934122 0.02923
C_ C_ 0.599159 0.51781 0.0889676 -0.15533
C_ C_ 0.570878 0.478955 0.097946 0.02923
C_ C_ 0.597786 0.932117 0.107523 0.69207
C_ C_ 0.594319 0.66453 0.0995319 0.69661
C_ C_ 0.934241 0.6919 0.420568 0.18167
C_ C_ 0.973022 0.71869 0.443675 -0.15533
C_ C_ 0.965097 0.747612 0.48833 0.02923
C_ C_ 0.92235 0.748307 1.0129169 -0.15533
C_ C_ 0.877951 0.720496 0.483974 0.18167
C_ C_ 0.754936 0.702937 0.350646 0.18167
C_ C_ 0.732403 0.735369 0.310789 -0.15533
C_ C_ 0.759552 0.741271 0.267755 0.02923
C_ C_ 0.807946 0.713314 0.266288 -0.15533
C_ C_ 0.828935 0.687135 0.308068 0.18167
C_ C_ 0.761226 0.617866 0.443047 0.69207
C_ C_ 0.725332 0.613693 0.987816 0.02923
C_ C_ 0.743516 0.615731 0.0394041 -0.15533
C_ C_ 0.710309 0.611226 0.0769156 -0.15533
C_ C_ 0.657771 0.60272 0.0623405 0.02923
C_ C_ 0.642831 0.597296 0.00936255 -0.15533
C_ C_ 0.675013 0.60605 0.971573 0.02923
C_ C_ 0.650577 0.604058 0.418923 0.69207
C_ C_ 0.642159 0.59954 0.157656 0.69661
C_ C_ 0.866977 0.884222 0.385533 -0.30787
C_ C_ 0.618297 0.608804 0.102597 -0.30787
N_ N_ 0.641482 0.561379 0.308178 -0.32189
N_ N_ 0.544909 0.643957 0.311309 -0.32189
N_ N_ 0.604118 0.811802 0.0572991 -0.32189
N_ N_ 0.69027 0.821413 0.137667 -0.32189
N_ N_ 0.856333 0.955003 0.187443 -0.32189
N_ N_ 0.937167 0.860708 0.182153 -0.32189
N_ N_ 0.888454 0.693087 0.43962 -0.32189
N_ N_ 0.803966 0.681962 0.34918 -0.32189
O_ O_ -0.002627000000000046 0.592692 0.374625 -0.63271
O_ O_ 0.540159 0.538574 0.331464 -0.57982
O_ O_ 0.887996 0.598259 0.342677 -0.63271
O_ O_ 0.867145 0.593004 0.421289 -0.57982
O_ O_ 0.733443 0.900978 0.0806942 -0.63271
O_ O_ 0.70016 0.837944 0.0317608 -0.57982
O_ O_ 0.840397 0.85051 0.0992332 -0.63271
O_ O_ 0.882799 0.915198 0.0803753 -0.57982
O_ O_ 0.492532 0.910592 0.106661 -0.63271
O_ O_ 0.943143 0.968793 0.146151 -0.57982
O_ O_ 0.605375 0.90524 0.149446 -0.63271
O_ O_ 0.624046 0.912985 0.0689606 -0.57982
O_ O_ 0.75458 0.596543 0.397503 -0.63271
O_ O_ 0.791487 0.654205 0.451679 -0.57982
O_ O_ 0.650278 0.645595 0.393399 -0.63271
O_ O_ 0.612642 0.575568 0.40741 -0.57982
F_ F_ 0.919369 0.830334 0.442171 -0.20885
F_ F_ 0.926951 0.812648 0.357613 -0.20885
F_ F_ 0.857642 0.79363 0.394148 -0.20885
F_ F_ 0.812143 0.925932 0.321658 -0.20885
F_ F_ 0.820111 0.837999 0.312955 -0.20885
F_ F_ 0.882086 0.880238 0.294757 -0.20885
F_ F_ 0.566981 0.672333 0.051565 -0.20885
F_ F_ 0.567509 0.679641 0.142375 -0.20885
F_ F_ 0.631767 0.697833 0.106587 -0.20885
F_ F_ 0.677565 0.556838 0.162333 -0.20885
F_ F_ 0.666268 0.638654 0.181797 -0.20885
F_ F_ 0.60569 0.591809 0.187568 -0.20885
Zn Zn 0.580603 0.579869 0.843067 0.83971
Zn Zn 0.659673 0.848356 0.584291 0.83971
Zn Zn 0.910365 0.913868 0.652111 0.83971
Zn Zn 0.841683 0.6495 0.912093 0.83971
H_ H_ 0.661538 0.627248 0.800464 0.10394
H_ H_ 0.741367 0.596272 0.764756 0.10394
H_ H_ 0.718378 0.9408 0.78953 0.10394
H_ H_ 0.628898 0.481857 0.824525 0.10394
H_ H_ 0.0347373 0.595595 0.750577 0.10394
H_ H_ 0.99513833 0.666164 0.699119 0.10394
H_ H_ 0.521976 0.765283 0.836653 0.10394
H_ H_ 0.572901 0.693961 0.872734 0.10394
H_ H_ 0.525559 0.939347 0.854359 0.10394
H_ H_ 0.982422 0.877014 0.885306 0.10394
H_ H_ 0.85049 0.982466 0.903633 0.10394
H_ H_ 0.576783 0.799869 0.631809 0.10394
H_ H_ -0.00603375 0.770047 0.58811 0.10394
H_ H_ 0.530627 0.796217 0.946062 0.10394
H_ H_ 0.620544 0.80684 0.481339 0.10394
H_ H_ 0.720004 0.75561 0.588345 0.10394
H_ H_ 0.760258 0.698663 0.659441 0.10394
H_ H_ 0.713524 0.821087 0.768149 0.10394
H_ H_ 0.672458 0.870101 0.700993 0.10394
H_ H_ 0.716625 0.853202 0.944733 0.10394
H_ H_ 0.775629 0.849823 0.874424 0.10394
H_ H_ 0.89374 0.899376 0.985915 0.10394
H_ H_ 0.801732 0.888373 0.662685 0.10394
H_ H_ 0.733196 0.947506 0.697493 0.10394
H_ H_ 0.829661 0.541814 0.779056 0.10394
H_ H_ 0.909507 0.984723 0.737917 0.10394
H_ H_ 0.512309 0.868086 0.663657 0.10394
H_ H_ 0.556311 0.80596 0.724741 0.10394
H_ H_ 0.916948 0.741877 0.712428 0.10394
H_ H_ 0.87687 0.81753 0.676949 0.10394
H_ H_ 0.96711 0.549748 0.639835 0.10394
H_ H_ 0.522174 0.625455 0.607551 0.10394
H_ H_ 0.648153 0.506704 0.586583 0.10394
H_ H_ 0.943342 0.664732 0.892103 0.10394
H_ H_ 0.511447 0.695758 0.945824 0.10394
H_ H_ 0.912738 0.770613 0.541593 0.10394
H_ H_ 0.845355 0.727754 1.0022 0.10394
H_ H_ 0.731617 0.678524 0.872637 0.10394
H_ H_ 0.691622 0.721633 0.796959 0.10394
H_ H_ 0.839599 0.724371 0.743119 0.10394
H_ H_ 0.875917 0.673219 0.817465 0.10394
H_ H_ 0.7855 0.619836 0.542138 0.10394
H_ H_ 0.736011 0.622775 0.6096 0.10394
H_ H_ 0.608248 0.591686 0.507631 0.10394
C_ C_ 0.672092 0.585984 0.798932 0.18167
C_ C_ 0.714265 0.569763 0.77073 -0.15533
C_ C_ 0.726501 0.516698 0.763706 0.02923
C_ C_ 0.706467 0.982346 0.790127 -0.15533
C_ C_ 0.65694 0.50387 0.814517 0.18167
C_ C_ 0.529115 0.636549 0.758959 0.18167
C_ C_ 0.0113748 0.67374 0.738734 -0.15533
C_ C_ 0.513764 0.727925 0.759372 0.02923
C_ C_ 0.529002 0.730564 0.812425 -0.15533
C_ C_ 0.55541 0.688429 0.834862 0.18167
C_ C_ 0.500316 0.547127 0.861218 0.69207
C_ C_ 0.972405 0.00212169 0.876802 0.02923
C_ C_ -0.005376999999999965 0.951349 0.882346 -0.15533
C_ C_ 0.964627 0.91223 0.886989 -0.15533
C_ C_ 0.912562 0.920501 0.88812 0.02923
C_ C_ 0.88942 0.973015 0.888982 -0.15533
C_ C_ 0.918266 0.0116626 0.880781 0.02923
C_ C_ 0.9002 0.565703 0.884894 0.69207
C_ C_ 0.905782 0.824173 0.887315 0.69661
C_ C_ 0.567558 0.802152 0.591886 0.18167
C_ C_ 0.52104 0.78568 0.57252 -0.15533
C_ C_ 0.508979 0.776673 0.521081 0.02923
C_ C_ 0.544876 0.792999 0.987066 -0.15533
C_ C_ 0.589457 0.808903 0.508258 0.18167
C_ C_ 0.716548 0.767152 0.629412 0.18167
C_ C_ 0.740849 0.737393 0.668423 -0.15533
C_ C_ 0.7409 0.756088 0.720451 0.02923
C_ C_ 0.714926 0.80411 0.731241 -0.15533
C_ C_ 0.691466 0.832183 0.691861 0.18167
C_ C_ 0.739619 0.870621 0.5527 0.69207
C_ C_ 0.772835 0.871774 1.00319732 0.02923
C_ C_ 0.752094 0.865074 0.952427 -0.15533
C_ C_ 0.785401 0.868717 0.91406 -0.15533
C_ C_ 0.836112 0.884632 0.924019 0.02923
C_ C_ 0.853911 0.890572 0.975909 -0.15533
C_ C_ 0.823918 0.882636 0.0145219 0.02923
C_ C_ 0.851029 0.887235 0.571163 0.69207
C_ C_ 0.853041 0.875094 0.826225 0.69661
C_ C_ 0.811833 0.920416 0.690944 0.18167
C_ C_ 0.77128 0.952198 0.709432 -0.15533
C_ C_ 0.782648 -0.009295000000000053 0.744758 0.02923
C_ C_ 0.820234 0.513465 0.747333 -0.15533
C_ C_ 0.869996 0.976937 0.727295 0.18167
C_ C_ 0.996062 0.848706 0.692872 0.18167
C_ C_ 0.515948 0.80874 0.715503 -0.15533
C_ C_ 0.990563 0.768884 0.732738 0.02923
C_ C_ 0.939155 0.773861 0.711596 -0.15533
C_ C_ 0.916348 0.815371 0.687141 0.18167
C_ C_ 0.99146 0.951869 0.626673 0.69207
C_ C_ 0.525734 0.497174 0.615487 0.02923
C_ C_ 0.508219 0.549758 0.621963 -0.15533
C_ C_ 0.540848 0.585671 0.614206 -0.15533
C_ C_ 0.591138 0.572554 0.601127 0.02923
C_ C_ 0.608048 0.519555 0.592625 -0.15533
C_ C_ 0.577327 0.482076 0.604056 0.02923
C_ C_ 0.598069 0.930342 0.609541 0.69207
C_ C_ 0.608065 0.669411 0.602011 0.69661
C_ C_ 0.938816 0.685176 0.927622 0.18167
C_ C_ 0.980263 0.703798 0.955808 -0.15533
C_ C_ 0.972113 0.739545 0.995836 0.02923
C_ C_ 0.91887 0.747467 0.510149 -0.15533
C_ C_ 0.884329 0.720918 0.988003 0.18167
C_ C_ 0.756426 0.687026 0.84387 0.18167
C_ C_ 0.732959 0.714237 0.802068 -0.15533
C_ C_ 0.763507 0.724992 0.764028 0.02923
C_ C_ 0.815739 0.71637 0.773927 -0.15533
C_ C_ 0.836827 0.69032 0.816922 0.18167
C_ C_ 0.766403 0.613671 0.95176 0.69207
C_ C_ 0.729321 0.604057 0.483325 0.02923
C_ C_ 0.751679 0.605884 0.532765 -0.15533
C_ C_ 0.718687 0.60886 0.572068 -0.15533
C_ C_ 0.668994 0.603407 0.562818 0.02923
C_ C_ 0.645693 0.600912 0.512772 -0.15533
C_ C_ 0.676393 0.604856 0.472435 0.02923
C_ C_ 0.651092 0.606288 0.91878 0.69207
C_ C_ 0.653395 0.609735 0.661786 0.69661
C_ C_ 0.876915 0.878095 0.883295 -0.30787
C_ C_ 0.630684 0.612839 0.604884 -0.30787
N_ N_ 0.639716 0.553216 0.809325 -0.32189
N_ N_ 0.553982 0.639701 0.807871 -0.32189
N_ N_ 0.600796 0.81423 0.559569 -0.32189
N_ N_ 0.687399 0.811412 0.641866 -0.32189
N_ N_ 0.859501 0.936155 0.69414 -0.32189
N_ N_ 0.945459 0.851019 0.675527 -0.32189
N_ N_ 0.892471 0.691713 0.945767 -0.32189
N_ N_ 0.807594 0.678002 0.852182 -0.32189
O_ O_ 1.00831292 0.588123 0.900219 -0.63271
O_ O_ 0.53455 0.531728 0.830781 -0.57982
O_ O_ 0.902168 0.591445 0.844307 -0.63271
O_ O_ 0.870354 0.588156 0.920438 -0.57982
O_ O_ 0.736779 0.899523 0.593962 -0.63271
O_ O_ 0.704496 0.839553 0.54089 -0.57982
O_ O_ 0.851961 0.842249 0.59205 -0.63271
O_ O_ 0.880362 0.92139 0.590513 -0.57982
O_ O_ 0.484141 0.924869 0.591171 -0.63271
O_ O_ 0.957385 0.959422 0.659675 -0.57982
O_ O_ 0.598499 0.902063 0.64971 -0.63271
O_ O_ 0.631873 0.915961 0.578353 -0.57982
O_ O_ 0.757541 0.592436 0.905849 -0.63271
O_ O_ 0.795347 0.651207 0.95866 -0.57982
O_ O_ 0.654241 0.644627 0.894448 -0.63271
O_ O_ 0.613413 0.578998 0.902901 -0.57982
F_ F_ 0.936572 0.819011 0.933497 -0.20885
F_ F_ 0.931301 0.802844 0.845669 -0.20885
F_ F_ 0.868905 0.79217 0.891711 -0.20885
F_ F_ 0.814475 0.913917 0.819148 -0.20885
F_ F_ 0.829586 0.831826 0.807937 -0.20885
F_ F_ 0.890278 0.879565 0.793788 -0.20885
F_ F_ 0.576238 0.67855 0.556941 -0.20885
F_ F_ 0.574872 0.686442 0.638991 -0.20885
F_ F_ 0.643356 0.702784 0.602638 -0.20885
F_ F_ 0.687755 0.566867 0.669433 -0.20885
F_ F_ 0.680466 0.649184 0.682001 -0.20885
F_ F_ 0.617685 0.606879 0.697616 -0.20885
