_cell_length_a 26.508
_cell_length_b 26.37200000322088
_cell_length_c 26.311999743092066
_cell_angle_alpha 93.74100058972084
_cell_angle_beta 96.04100104955006
_cell_angle_gamma 83.6869992558723
_symmetry_space_group_name_H-M         'P 1'
_symmetry_Int_Tables_number            1
loop_
_symmetry_equiv_pos_as_xyz
   'x, y, z'
                         
loop_
_atom_site_label
_atom_site_type_symbol
_atom_site_fract_x 
_atom_site_fract_y
_atom_site_fract_z
_atom_site_charge
Zn Zn 0.0848221 0.0864616 0.340375 0.83971
Zn Zn 0.157801 0.35194 0.0793894 0.83971
Zn Zn 0.410347 0.403536 0.145402 0.83971
Zn Zn 0.336807 0.150435 0.411063 0.83971
H_ H_ 0.164793 0.135946 0.300855 0.10394
H_ H_ 0.240712 0.105866 0.264266 0.10394
H_ H_ 0.217341 0.439168 0.293459 0.10394
H_ H_ 0.13226 0.988525 0.322933 0.10394
H_ H_ 0.528242 0.0868416 0.244306 0.10394
H_ H_ 0.492327 0.156261 0.193972 0.10394
H_ H_ 0.0451837 0.272495 0.336516 0.10394
H_ H_ 0.0795034 0.191512 0.376077 0.10394
H_ H_ 0.0356892 0.44855 0.387075 0.10394
H_ H_ 0.48787 0.37847 0.394334 0.10394
H_ H_ 0.352196 0.487077 0.391083 0.10394
H_ H_ 0.0754227 0.314279 0.127921 0.10394
H_ H_ 0.50129 0.258129 0.0926338 0.10394
H_ H_ 0.0347266 0.286804 0.445908 0.10394
H_ H_ 0.126448 0.30015 0.981233 0.10394
H_ H_ 0.209805 0.251257 0.0982189 0.10394
H_ H_ 0.252879 0.20757 0.171464 0.10394
H_ H_ 0.219643 0.333425 0.268218 0.10394
H_ H_ 0.175192 0.382014 0.194221 0.10394
H_ H_ 0.219893 0.356747 0.442907 0.10394
H_ H_ 0.28381 0.353512 0.37834 0.10394
H_ H_ 0.395192 0.412577 0.487199 0.10394
H_ H_ 0.303122 0.387058 0.155264 0.10394
H_ H_ 0.234256 0.436002 0.20039 0.10394
H_ H_ 0.334042 0.0500505 0.274993 0.10394
H_ H_ 0.41172 0.477904 0.227245 0.10394
H_ H_ 0.0124986 0.395167 0.204382 0.10394
H_ H_ 0.0535202 0.318001 0.24724 0.10394
H_ H_ 0.402055 0.238293 0.218093 0.10394
H_ H_ 0.3648 0.316223 0.172901 0.10394
H_ H_ 0.458041 0.0501396 0.0960101 0.10394
H_ H_ 0.0158944 0.116507 0.100421 0.10394
H_ H_ 0.142084 0.00574767 0.0901321 0.10394
H_ H_ 0.43698 0.162678 0.391221 0.10394
H_ H_ 0.00771065 0.20799 0.442905 0.10394
H_ H_ 0.409163 0.285396 0.0324088 0.10394
H_ H_ 0.3437 0.229261 0.50323 0.10394
H_ H_ 0.232738 0.198764 0.388657 0.10394
H_ H_ 0.196057 0.250744 0.315116 0.10394
H_ H_ 0.327831 0.230946 0.24762 0.10394
H_ H_ 0.374022 0.186311 0.323904 0.10394
H_ H_ 0.272913 0.132879 0.049916 0.10394
H_ H_ 0.222908 0.129882 0.116988 0.10394
H_ H_ 0.0949473 0.103795 0.00734844 0.10394
C_ C_ 0.172779 0.0965684 0.294839 0.18167
C_ C_ 0.219052 0.0770411 0.275378 -0.15533
C_ C_ 0.230169 0.0257303 0.266132 0.02923
C_ C_ 0.209348 0.478303 0.291099 -0.15533
C_ C_ 0.154584 0.0135522 0.307233 0.18167
C_ C_ 0.0228374 0.146605 0.265509 0.18167
C_ C_ 0.504514 0.16575 0.234775 -0.15533
C_ C_ 0.00439725 0.239303 0.271647 0.02923
C_ C_ 0.0382274 0.237043 0.315618 -0.15533
C_ C_ 0.0594974 0.19237 0.337176 0.18167
C_ C_ 0.0023699999999999832 0.0491343 0.35776 0.69207
C_ C_ 0.474345 0.507368 0.377647 0.02923
C_ C_ 0.495096 0.455701 0.382162 -0.15533
C_ C_ 0.467967 0.41663 0.393037 -0.15533
C_ C_ 0.414113 0.427606 0.392658 0.02923
C_ C_ 0.393052 0.479269 0.392902 -0.15533
C_ C_ 0.423625 0.518468 0.387781 0.02923
C_ C_ 0.395835 0.0689047 0.378801 0.69207
C_ C_ 0.407031 0.330493 0.391456 0.69661
C_ C_ 0.0668476 0.307523 0.0874724 0.18167
C_ C_ 0.0208423 0.287606 0.0720429 -0.15533
C_ C_ 0.0123553 0.27131 0.0201205 0.02923
C_ C_ 0.0432708 0.294899 0.485467 -0.15533
C_ C_ 0.0952725 0.299853 0.00467286 0.18167
C_ C_ 0.209012 0.27025 0.134313 0.18167
C_ C_ 0.231541 0.243602 0.175571 -0.15533
C_ C_ 0.230372 0.2643 0.224674 0.02923
C_ C_ 0.21166 0.316657 0.230132 -0.15533
C_ C_ 0.188433 0.342807 0.188668 0.18167
C_ C_ 0.237361 0.373947 0.0377488 0.69207
C_ C_ 0.278235 0.375934 0.503625 0.02923
C_ C_ 0.261917 0.363368 0.454102 -0.15533
C_ C_ 0.292766 0.370696 0.414491 -0.15533
C_ C_ 0.341989 0.389638 0.425627 0.02923
C_ C_ 0.358268 0.399561 0.479129 -0.15533
C_ C_ 0.32848 0.39089 0.518032 0.02923
C_ C_ 0.348063 0.374154 0.0648773 0.69207
C_ C_ 0.357369 0.383684 0.328394 0.69661
C_ C_ 0.311548 0.417126 0.179111 0.18167
C_ C_ 0.274211 0.442809 0.208263 -0.15533
C_ C_ 0.287063 0.481195 0.241889 0.02923
C_ C_ 0.324164 0.0196708 0.247666 -0.15533
C_ C_ 0.373492 0.466719 0.221538 0.18167
C_ C_ 0.486992 0.339371 0.192661 0.18167
C_ C_ 0.0131081 0.321941 0.235715 -0.15533
C_ C_ 0.477477 0.259945 0.226494 0.02923
C_ C_ 0.424841 0.268416 0.209833 -0.15533
C_ C_ 0.407296 0.307854 0.179361 0.18167
C_ C_ 0.49031 0.443753 0.115662 0.69207
C_ C_ 0.0203194 0.991402 0.1166 0.02923
C_ C_ 0.0011699999999998933 0.0416312 0.114239 -0.15533
C_ C_ 0.0320597 0.079155 0.105415 -0.15533
C_ C_ 0.0841595 0.070156 0.104141 0.02923
C_ C_ 0.105092 0.0196948 0.106671 -0.15533
C_ C_ 0.0743397 0.980685 0.112238 0.02923
C_ C_ 0.0991142 0.431516 0.108909 0.69207
C_ C_ 0.0898507 0.16986 0.110225 0.69661
C_ C_ 0.432364 0.185316 0.42483 0.18167
C_ C_ 0.475723 0.203326 0.453472 -0.15533
C_ C_ 0.469716 0.238795 0.495178 0.02923
C_ C_ 0.417093 0.253653 0.00678344 -0.15533
C_ C_ 0.378641 0.228319 0.48414 0.18167
C_ C_ 0.2528 0.200853 0.354221 0.18167
C_ C_ 0.228304 0.225055 0.309474 -0.15533
C_ C_ 0.254148 0.234407 0.269416 0.02923
C_ C_ 0.308395 0.218049 0.274574 -0.15533
C_ C_ 0.333192 0.19638 0.31919 0.18167
C_ C_ 0.262068 0.113448 0.444455 0.69207
C_ C_ 0.217363 0.12122 0.98922 0.02923
C_ C_ 0.236013 0.127418 0.0398642 -0.15533
C_ C_ 0.20558 0.121632 0.0784755 -0.15533
C_ C_ 0.155993 0.110574 0.0699717 0.02923
C_ C_ 0.137849 0.102947 0.0188153 -0.15533
C_ C_ 0.167056 0.108848 0.97831 0.02923
C_ C_ 0.152286 0.0966751 0.415647 0.69207
C_ C_ 0.145942 0.108374 0.168733 0.69661
C_ C_ 0.380601 0.383045 0.385198 -0.30787
C_ C_ 0.11898 0.114504 0.112193 -0.30787
N_ N_ 0.140098 0.0647701 0.305939 -0.32189
N_ N_ 0.0509999 0.147114 0.310102 -0.32189
N_ N_ 0.101107 0.314633 0.0537291 -0.32189
N_ N_ 0.188766 0.321049 0.139521 -0.32189
N_ N_ 0.359904 0.429217 0.187124 -0.32189
N_ N_ 0.437699 0.344026 0.172362 -0.32189
N_ N_ 0.386379 0.190857 0.445441 -0.32189
N_ N_ 0.305551 0.188461 0.357406 -0.32189
O_ O_ 0.501546 0.0828466 0.393665 -0.63271
O_ O_ 0.0402822 0.0397268 0.32741 -0.57982
O_ O_ 0.390454 0.0936163 0.336167 -0.63271
O_ O_ 0.367867 0.0855293 0.415019 -0.57982
O_ O_ 0.237735 0.401049 0.0805577 -0.63271
O_ O_ 0.202734 0.341335 0.0298311 -0.57982
O_ O_ 0.34791 0.334394 0.0910593 -0.63271
O_ O_ 0.3845 0.404506 0.0809741 -0.57982
O_ O_ 0.991275 0.419362 0.101829 -0.63271
O_ O_ 0.452804 0.454094 0.145731 -0.57982
O_ O_ 0.0920311 0.400543 0.144193 -0.63271
O_ O_ 0.130678 0.415969 0.0755807 -0.57982
O_ O_ 0.260314 0.0911263 0.398397 -0.63271
O_ O_ 0.296965 0.142976 0.457639 -0.57982
O_ O_ 0.155269 0.141131 0.397469 -0.63271
O_ O_ 0.112427 0.0735801 0.40054 -0.57982
F_ F_ 0.438035 0.329078 0.436715 -0.20885
F_ F_ 0.435475 0.310229 0.351696 -0.20885
F_ F_ 0.375735 0.292691 0.39251 -0.20885
F_ F_ 0.317065 0.422816 0.324449 -0.20885
F_ F_ 0.338343 0.340034 0.309504 -0.20885
F_ F_ 0.393901 0.39233 0.296687 -0.20885
F_ F_ 0.0624528 0.179289 0.0652798 -0.20885
F_ F_ 0.0572241 0.183732 0.146949 -0.20885
F_ F_ 0.125198 0.204378 0.114592 -0.20885
F_ F_ 0.180989 0.06591 0.170992 -0.20885
F_ F_ 0.172087 0.149191 0.188377 -0.20885
F_ F_ 0.110664 0.106051 0.201287 -0.20885
Zn Zn 0.0818386 0.086928 0.84614 0.83971
Zn Zn 0.163045 0.346492 0.582719 0.83971
Zn Zn 0.408465 0.425161 0.657177 0.83971
Zn Zn 0.332412 0.157002 0.909932 0.83971
H_ H_ 0.163174 0.133521 0.802235 0.10394
H_ H_ 0.24169 0.095437 0.762754 0.10394
H_ H_ 0.215696 0.457156 0.800729 0.10394
H_ H_ 0.119247 0.985961 0.81406 0.10394
H_ H_ 0.523223 0.0993199 0.74625 0.10394
H_ H_ 0.481953 0.175919 0.698784 0.10394
H_ H_ 0.0325624 0.271499 0.834409 0.10394
H_ H_ 0.0572922 0.192653 0.883209 0.10394
H_ H_ 0.0393581 0.446569 0.885059 0.10394
H_ H_ 0.486603 0.36769 0.877491 0.10394
H_ H_ 0.361366 0.48471 0.912385 0.10394
H_ H_ 0.0917603 0.300911 0.626992 0.10394
H_ H_ 0.501861 0.261591 0.597535 0.10394
H_ H_ 0.0414242 0.273145 0.946012 0.10394
H_ H_ 0.108607 0.334258 0.479143 0.10394
H_ H_ 0.226322 0.249001 0.584856 0.10394
H_ H_ 0.269853 0.199088 0.656023 0.10394
H_ H_ 0.24521 0.330544 0.756431 0.10394
H_ H_ 0.188566 0.373028 0.684663 0.10394
H_ H_ 0.215541 0.375923 0.935709 0.10394
H_ H_ 0.270553 0.387459 0.868544 0.10394
H_ H_ 0.398262 0.385278 0.980538 0.10394
H_ H_ 0.304925 0.410286 0.66346 0.10394
H_ H_ 0.231008 0.459023 0.693426 0.10394
H_ H_ 0.327414 0.0448038 0.784676 0.10394
H_ H_ 0.40332 0.513719 0.733578 0.10394
H_ H_ 0.019124 0.380399 0.685957 0.10394
H_ H_ 0.0559107 0.299101 0.722448 0.10394
H_ H_ 0.405938 0.253368 0.712291 0.10394
H_ H_ 0.36842 0.332705 0.681675 0.10394
H_ H_ 0.460231 0.0577955 0.625488 0.10394
H_ H_ 0.0164242 0.119932 0.605127 0.10394
H_ H_ 0.144675 0.00834567 0.582346 0.10394
H_ H_ 0.443912 0.149574 0.900057 0.10394
H_ H_ 0.0115495 0.183903 0.96156 0.10394
H_ H_ 0.416574 0.2769 0.538818 0.10394
H_ H_ 0.338079 0.247191 -0.016074000000000033 0.10394
H_ H_ 0.229508 0.197473 0.87143 0.10394
H_ H_ 0.196224 0.24593 0.80093 0.10394
H_ H_ 0.343309 0.221043 0.741329 0.10394
H_ H_ 0.381229 0.19291 0.825265 0.10394
H_ H_ 0.290182 0.105219 0.545003 0.10394
H_ H_ 0.231318 0.106109 0.614016 0.10394
H_ H_ 0.106101 0.0816917 0.500793 0.10394
C_ C_ 0.172029 0.0931033 0.797276 0.18167
C_ C_ 0.21538 0.0720398 0.775451 -0.15533
C_ C_ 0.224102 0.0207657 0.766344 0.02923
C_ C_ 0.206654 0.498382 0.800696 -0.15533
C_ C_ 0.147173 0.0105023 0.803775 0.18167
C_ C_ 0.0329165 0.137899 0.765097 0.18167
C_ C_ 0.499498 0.180682 0.737634 -0.15533
C_ C_ 0.0075778 0.22942 0.763493 0.02923
C_ C_ 0.0275025 0.235171 0.81553 -0.15533
C_ C_ 0.0444084 0.191707 0.840719 0.18167
C_ C_ 0.0013499999999999623 0.0464627 0.874856 0.69207
C_ C_ 0.481246 0.498414 0.883232 0.02923
C_ C_ 0.500671 0.447972 0.880695 -0.15533
C_ C_ 0.470149 0.409051 0.881967 -0.15533
C_ C_ 0.416411 0.421451 0.88963 0.02923
C_ C_ 0.398273 0.472801 0.897147 -0.15533
C_ C_ 0.428031 0.509612 0.8857 0.02923
C_ C_ 0.393465 0.0689942 0.875953 0.69207
C_ C_ 0.401246 0.321352 0.877766 0.69661
C_ C_ 0.0753883 0.298883 0.587708 0.18167
C_ C_ 0.0246388 0.286919 0.571369 -0.15533
C_ C_ 0.00963016 0.280133 0.517547 0.02923
C_ C_ 0.0483916 0.28069 0.987307 -0.15533
C_ C_ 0.0854967 0.321173 0.5052 0.18167
C_ C_ 0.228268 0.265829 0.624691 0.18167
C_ C_ 0.251967 0.23743 0.663932 -0.15533
C_ C_ 0.245743 0.258134 0.714981 0.02923
C_ C_ 0.227308 0.310097 0.724628 -0.15533
C_ C_ 0.206134 0.333895 0.680882 0.18167
C_ C_ 0.243501 0.370846 0.543531 0.69207
C_ C_ 0.274222 0.375088 -0.001587000000000005 0.02923
C_ C_ 0.255177 0.37444 0.945165 -0.15533
C_ C_ 0.28627 0.382951 0.906975 -0.15533
C_ C_ 0.338999 0.383857 0.919729 0.02923
C_ C_ 0.356441 0.388053 0.973775 -0.15533
C_ C_ 0.325697 0.376781 0.0108253 0.02923
C_ C_ 0.355563 0.391676 0.571312 0.69207
C_ C_ 0.351835 0.38672 0.826503 0.69661
C_ C_ 0.311498 0.441989 0.687646 0.18167
C_ C_ 0.269368 0.46925 0.70827 -0.15533
C_ C_ 0.277336 0.5072 0.748408 0.02923
C_ C_ 0.320057 0.0142823 0.752945 -0.15533
C_ C_ 0.366409 0.498594 0.72979 0.18167
C_ C_ 0.48816 0.360088 0.698753 0.18167
C_ C_ 0.015543 0.307438 0.718574 -0.15533
C_ C_ 0.485714 0.273626 0.727064 0.02923
C_ C_ 0.432085 0.281503 0.712846 -0.15533
C_ C_ 0.407672 0.328928 0.695899 0.18167
C_ C_ 0.481839 0.461128 0.61467 0.69207
C_ C_ 0.0285641 0.994262 0.622019 0.02923
C_ C_ 0.00677053 0.0443351 0.617441 -0.15533
C_ C_ 0.0348033 0.0817147 0.604484 -0.15533
C_ C_ 0.0855804 0.0699771 0.593248 0.02923
C_ C_ 0.104652 0.0176543 0.590508 -0.15533
C_ C_ 0.0761519 0.980648 0.606701 0.02923
C_ C_ 0.101992 0.427809 0.615774 0.69207
C_ C_ 0.097999 0.165245 0.591093 0.69661
C_ C_ 0.435891 0.17579 0.932928 0.18167
C_ C_ 0.476181 0.200887 0.957811 -0.15533
C_ C_ 0.468885 0.240278 0.994133 0.02923
C_ C_ 0.421781 0.251227 0.509085 -0.15533
C_ C_ 0.377565 0.229177 0.979081 0.18167
C_ C_ 0.255329 0.19894 0.842829 0.18167
C_ C_ 0.235196 0.222579 0.798853 -0.15533
C_ C_ 0.265877 0.225558 0.758827 0.02923
C_ C_ 0.317233 0.2098 0.766067 -0.15533
C_ C_ 0.338758 0.192226 0.814283 0.18167
C_ C_ 0.249999 0.130133 0.946591 0.69207
C_ C_ 0.229987 0.0981917 0.483138 0.02923
C_ C_ 0.249557 0.0984733 0.53547 -0.15533
C_ C_ 0.215632 0.102827 0.574592 -0.15533
C_ C_ 0.163816 0.0973939 0.56023 0.02923
C_ C_ 0.146888 0.0868738 0.508415 -0.15533
C_ C_ 0.17678 0.0908997 0.470142 0.02923
C_ C_ 0.140266 0.11032 0.925547 0.69207
C_ C_ 0.146866 0.112831 0.657852 0.69661
C_ C_ 0.378947 0.379362 0.88016 -0.30787
C_ C_ 0.123569 0.109591 0.597357 -0.30787
N_ N_ 0.137741 0.0628962 0.807586 -0.32189
N_ N_ 0.0497011 0.144976 0.814897 -0.32189
N_ N_ 0.105313 0.316048 0.553927 -0.32189
N_ N_ 0.19903 0.310067 0.634538 -0.32189
N_ N_ 0.35922 0.457328 0.698767 -0.32189
N_ N_ 0.437554 0.364637 0.682878 -0.32189
N_ N_ 0.387617 0.193788 0.940777 -0.32189
N_ N_ 0.306251 0.184528 0.851001 -0.32189
O_ O_ 0.510401 0.0821193 0.897833 -0.63271
O_ O_ 0.0360171 0.0393165 0.842979 -0.57982
O_ O_ 0.400332 0.095657 0.838407 -0.63271
O_ O_ 0.362494 0.0880639 0.909928 -0.57982
O_ O_ 0.24713 0.395714 0.587853 -0.63271
O_ O_ 0.206293 0.342727 0.532002 -0.57982
O_ O_ 0.357765 0.351037 0.59571 -0.63271
O_ O_ 0.375616 0.431495 0.593812 -0.57982
O_ O_ 0.994947 0.411445 0.60337 -0.63271
O_ O_ 0.456793 0.467427 0.655937 -0.57982
O_ O_ 0.0984825 0.40104 0.656637 -0.63271
O_ O_ 0.137429 0.410327 0.586383 -0.57982
O_ O_ 0.248765 0.100971 0.904653 -0.63271
O_ O_ 0.283953 0.162973 0.954663 -0.57982
O_ O_ 0.141048 0.148343 0.895728 -0.63271
O_ O_ 0.113697 0.074214 0.910108 -0.57982
F_ F_ 0.43696 0.315219 0.918997 -0.20885
F_ F_ 0.422179 0.300293 0.833689 -0.20885
F_ F_ 0.363377 0.290341 0.884292 -0.20885
F_ F_ 0.318418 0.432648 0.824594 -0.20885
F_ F_ 0.320128 0.351069 0.805717 -0.20885
F_ F_ 0.389571 0.387055 0.792019 -0.20885
F_ F_ 0.0631987 0.167938 0.549226 -0.20885
F_ F_ 0.076702 0.189996 0.633038 -0.20885
F_ F_ 0.134135 0.19591 0.576855 -0.20885
F_ F_ 0.175008 0.065504 0.665233 -0.20885
F_ F_ 0.175749 0.153472 0.674191 -0.20885
F_ F_ 0.109405 0.115929 0.690603 -0.20885
Zn Zn 0.0977501 0.578303 0.349041 0.83971
Zn Zn 0.160241 0.84375 0.082878 0.83971
Zn Zn 0.403498 0.914431 0.151659 0.83971
Zn Zn 0.341986 0.654528 0.417012 0.83971
H_ H_ 0.193038 0.622706 0.31459 0.10394
H_ H_ 0.264214 0.585728 0.270359 0.10394
H_ H_ 0.205097 0.953325 0.281645 0.10394
H_ H_ 0.141785 0.481707 0.330322 0.10394
H_ H_ 0.51728 0.59788 0.264949 0.10394
H_ H_ 0.471671 0.663606 0.21536 0.10394
H_ H_ 0.0261337 0.761155 0.358289 0.10394
H_ H_ 0.0807598 0.687875 0.394416 0.10394
H_ H_ 0.0250477 0.945013 0.356774 0.10394
H_ H_ 0.474395 0.86875 0.369554 0.10394
H_ H_ 0.350438 0.983874 0.400502 0.10394
H_ H_ 0.092354 0.794894 0.140532 0.10394
H_ H_ 0.502806 0.759559 0.0960324 0.10394
H_ H_ 0.0249058 0.80671 0.451676 0.10394
H_ H_ 0.113654 0.828006 0.990288 0.10394
H_ H_ 0.239707 0.761189 0.101265 0.10394
H_ H_ 0.271384 0.707194 0.172065 0.10394
H_ H_ 0.210541 0.830612 0.272747 0.10394
H_ H_ 0.177962 0.88 0.199754 0.10394
H_ H_ 0.216733 0.861222 0.445017 0.10394
H_ H_ 0.265068 0.876026 0.376625 0.10394
H_ H_ 0.384947 0.916955 0.488496 0.10394
H_ H_ 0.301198 0.901425 0.156981 0.10394
H_ H_ 0.229308 0.952018 0.183949 0.10394
H_ H_ 0.345861 0.530613 0.267268 0.10394
H_ H_ 0.398054 0.0129798 0.21437 0.10394
H_ H_ 0.0104585 0.886291 0.196533 0.10394
H_ H_ 0.0578328 0.81427 0.253847 0.10394
H_ H_ 0.409174 0.735674 0.202716 0.10394
H_ H_ 0.360934 0.818645 0.182623 0.10394
H_ H_ 0.461208 0.55185 0.111614 0.10394
H_ H_ 0.0313193 0.625808 0.125219 0.10394
H_ H_ 0.149723 0.505223 0.106375 0.10394
H_ H_ 0.444214 0.666945 0.388164 0.10394
H_ H_ 0.00898869 0.714188 0.44328 0.10394
H_ H_ 0.41461 0.779035 0.0403759 0.10394
H_ H_ 0.348927 0.739205 0.496959 0.10394
H_ H_ 0.248376 0.71431 0.395782 0.10394
H_ H_ 0.210219 0.758466 0.317055 0.10394
H_ H_ 0.345076 0.72307 0.247384 0.10394
H_ H_ 0.381214 0.677045 0.321594 0.10394
H_ H_ 0.297391 0.605626 0.0557902 0.10394
H_ H_ 0.246697 0.603682 0.128734 0.10394
H_ H_ 0.110217 0.594421 0.0197473 0.10394
C_ C_ 0.199157 0.581902 0.309306 0.18167
C_ C_ 0.242413 0.560047 0.286598 -0.15533
C_ C_ 0.24991 0.505954 0.275485 0.02923
C_ C_ 0.19669 0.993747 0.281551 -0.15533
C_ C_ 0.16854 0.503009 0.315922 0.18167
C_ C_ 0.0461856 0.635773 0.277038 0.18167
C_ C_ 0.498825 0.67382 0.24493 -0.15533
C_ C_ 0.0227276 0.727974 0.278282 0.02923
C_ C_ 0.0347111 0.729454 0.332027 -0.15533
C_ C_ 0.0606731 0.686156 0.354067 0.18167
C_ C_ 0.0118969 0.549808 0.372382 0.69207
C_ C_ 0.472436 0.000683849 0.368158 0.02923
C_ C_ 0.489955 0.948245 0.362921 -0.15533
C_ C_ 0.457193 0.90944 0.370508 -0.15533
C_ C_ 0.407906 0.923041 0.385591 0.02923
C_ C_ 0.390426 0.97567 0.39185 -0.15533
C_ C_ 0.420469 0.0164487 0.379805 0.02923
C_ C_ 0.397669 0.57185 0.387365 0.69207
C_ C_ 0.390231 0.824161 0.385921 0.69661
C_ C_ 0.0788199 0.792978 0.0975509 0.18167
C_ C_ 0.0327634 0.773705 0.0804896 -0.15533
C_ C_ 0.0171842 0.771386 0.027951 0.02923
C_ C_ 0.0358613 0.805847 0.490834 -0.15533
C_ C_ 0.0867091 0.818655 0.0153148 0.18167
C_ C_ 0.229369 0.773945 0.137243 0.18167
C_ C_ 0.252422 0.746101 0.177602 -0.15533
C_ C_ 0.247132 0.768367 0.228262 0.02923
C_ C_ 0.216099 0.813807 0.235341 -0.15533
C_ C_ 0.198196 0.841784 0.192804 0.18167
C_ C_ 0.24378 0.864682 0.0428065 0.69207
C_ C_ 0.275628 0.870737 0.505482 0.02923
C_ C_ 0.256099 0.869051 0.454398 -0.15533
C_ C_ 0.282801 0.881305 0.415859 -0.15533
C_ C_ 0.333868 0.888233 0.425757 0.02923
C_ C_ 0.350927 0.901477 0.47663 -0.15533
C_ C_ 0.325331 0.885333 0.516782 0.02923
C_ C_ 0.353225 0.87938 0.064031 0.69207
C_ C_ 0.347074 0.880604 0.325874 0.69661
C_ C_ 0.308352 0.932457 0.185502 0.18167
C_ C_ 0.266549 0.96289 0.200688 -0.15533
C_ C_ 0.275111 1.00302885 0.238791 0.02923
C_ C_ 0.335904 0.497479 0.245266 -0.15533
C_ C_ 0.36137 0.995759 0.21771 0.18167
C_ C_ 0.481492 0.846283 0.190624 0.18167
C_ C_ 0.0210721 0.81203 0.237112 -0.15533
C_ C_ 0.480412 0.765186 0.227474 0.02923
C_ C_ 0.428415 0.769399 0.212585 -0.15533
C_ C_ 0.402868 0.815167 0.191038 0.18167
C_ C_ 0.480544 0.949949 0.113217 0.69207
C_ C_ 0.0241237 0.499954 0.116613 0.02923
C_ C_ 0.0116257 0.551982 0.124516 -0.15533
C_ C_ 0.0448563 0.58649 0.117114 -0.15533
C_ C_ 0.0967775 0.570883 0.112482 0.02923
C_ C_ 0.111846 0.518966 0.113482 -0.15533
C_ C_ 0.076765 0.483332 0.112026 0.02923
C_ C_ 0.0963984 0.926417 0.11283 0.69207
C_ C_ 0.116087 0.664794 0.121515 0.69661
C_ C_ 0.440553 0.684254 0.426898 0.18167
C_ C_ 0.483835 0.700382 0.455018 -0.15533
C_ C_ 0.475663 0.732018 0.499068 0.02923
C_ C_ 0.420238 0.74861 0.0107925 -0.15533
C_ C_ 0.387807 0.722774 0.487903 0.18167
C_ C_ 0.264854 0.71053 0.359385 0.18167
C_ C_ 0.242439 0.733012 0.314442 -0.15533
C_ C_ 0.270925 0.737621 0.272967 0.02923
C_ C_ 0.320518 0.716304 0.274779 -0.15533
C_ C_ 0.339758 0.686318 0.315069 0.18167
C_ C_ 0.265889 0.628808 0.457084 0.69207
C_ C_ 0.234497 0.607534 0.997614 0.02923
C_ C_ 0.257341 0.6046 0.0487171 -0.15533
C_ C_ 0.228171 0.602115 0.0886549 -0.15533
C_ C_ 0.175114 0.598474 0.0788234 0.02923
C_ C_ 0.151997 0.596593 0.026411 -0.15533
C_ C_ 0.180724 0.601841 0.986007 0.02923
C_ C_ 0.154466 0.610096 0.4287 0.69207
C_ C_ 0.163842 0.608696 0.173962 0.69661
C_ C_ 0.370726 0.879663 0.382874 -0.30787
C_ C_ 0.137727 0.608054 0.120166 -0.30787
N_ N_ 0.161547 0.554244 0.320944 -0.32189
N_ N_ 0.0683409 0.641696 0.325262 -0.32189
N_ N_ 0.107657 0.807931 0.0624247 -0.32189
N_ N_ 0.203539 0.819461 0.144459 -0.32189
N_ N_ 0.355468 0.949584 0.191193 -0.32189
N_ N_ 0.429762 0.85243 0.182293 -0.32189
N_ N_ 0.393559 0.694463 0.443329 -0.32189
N_ N_ 0.312295 0.684781 0.35742 -0.32189
O_ O_ 0.50238 0.593287 0.390412 -0.63271
O_ O_ 0.0506116 0.533203 0.346569 -0.57982
O_ O_ 0.394725 0.597117 0.34631 -0.63271
O_ O_ 0.372762 0.592471 0.42562 -0.57982
O_ O_ 0.246639 0.898755 0.083526 -0.63271
O_ O_ 0.203037 0.838977 0.0321297 -0.57982
O_ O_ 0.348959 0.839175 0.0906468 -0.63271
O_ O_ 0.371916 0.920283 0.0861712 -0.57982
O_ O_ 0.987227 0.907026 0.0988036 -0.63271
O_ O_ 0.453552 0.957487 0.152425 -0.57982
O_ O_ 0.0864771 0.89624 0.14739 -0.63271
O_ O_ 0.130904 0.909653 0.0806174 -0.57982
O_ O_ 0.262853 0.606198 0.412236 -0.63271
O_ O_ 0.29952 0.660232 0.46503 -0.57982
O_ O_ 0.159334 0.647191 0.399356 -0.63271
O_ O_ 0.121351 0.57802 0.414436 -0.57982
F_ F_ 0.424732 0.82241 0.428418 -0.20885
F_ F_ 0.417999 0.80185 0.347374 -0.20885
F_ F_ 0.351647 0.794528 0.390246 -0.20885
F_ F_ 0.313313 0.924407 0.318597 -0.20885
F_ F_ 0.317994 0.842202 0.309848 -0.20885
F_ F_ 0.382805 0.882813 0.292581 -0.20885
F_ F_ 0.0891752 0.678392 0.0751893 -0.20885
F_ F_ 0.0893512 0.683864 0.160949 -0.20885
F_ F_ 0.156714 0.695504 0.125981 -0.20885
F_ F_ 0.19329 0.562867 0.184553 -0.20885
F_ F_ 0.19543 0.645451 0.191928 -0.20885
F_ F_ 0.126684 0.608658 0.209322 -0.20885
Zn Zn 0.0872716 0.589369 0.855501 0.83971
Zn Zn 0.160155 0.84107 0.586668 0.83971
Zn Zn 0.406383 0.913249 0.65367 0.83971
Zn Zn 0.343733 0.646475 0.915545 0.83971
H_ H_ 0.161219 0.641366 0.796783 0.10394
H_ H_ 0.242144 0.605312 0.757606 0.10394
H_ H_ 0.198405 0.949774 0.774951 0.10394
H_ H_ 0.136516 0.490807 0.831038 0.10394
H_ H_ 0.533156 0.589999 0.750124 0.10394
H_ H_ 0.483441 0.666256 0.704172 0.10394
H_ H_ 0.048855 0.776782 0.839029 0.10394
H_ H_ 0.089236 0.704939 0.878071 0.10394
H_ H_ 0.0273709 0.949086 0.874123 0.10394
H_ H_ 0.473806 0.878103 0.856903 0.10394
H_ H_ 0.348456 0.983294 0.888208 0.10394
H_ H_ 0.077218 0.808894 0.634725 0.10394
H_ H_ 0.506631 0.753764 0.599902 0.10394
H_ H_ 0.0336329 0.795142 0.955368 0.10394
H_ H_ 0.106717 0.836681 0.483456 0.10394
H_ H_ 0.223882 0.73774 0.596957 0.10394
H_ H_ 0.270667 0.702814 0.669874 0.10394
H_ H_ 0.231101 0.83303 0.765103 0.10394
H_ H_ 0.188585 0.874916 0.690174 0.10394
H_ H_ 0.214319 0.863437 0.937702 0.10394
H_ H_ 0.267565 0.86944 0.870358 0.10394
H_ H_ 0.390343 0.905576 0.980624 0.10394
H_ H_ 0.305094 0.898021 0.653749 0.10394
H_ H_ 0.226536 0.94887 0.685927 0.10394
H_ H_ 0.332678 0.561019 0.777935 0.10394
H_ H_ 0.399652 0.00288024 0.737709 0.10394
H_ H_ 0.0113994 0.892685 0.712759 0.10394
H_ H_ 0.0515797 0.821307 0.756875 0.10394
H_ H_ 0.419336 0.737201 0.718966 0.10394
H_ H_ 0.376609 0.812909 0.673444 0.10394
H_ H_ 0.458068 0.560409 0.599432 0.10394
H_ H_ 0.0221386 0.626081 0.618261 0.10394
H_ H_ 0.147782 0.511064 0.595449 0.10394
H_ H_ 0.443383 0.660132 0.890308 0.10394
H_ H_ 0.0188514 0.697724 0.949761 0.10394
H_ H_ 0.424241 0.761611 0.5526 0.10394
H_ H_ 0.34198 0.729188 -0.0035610000000000364 0.10394
H_ H_ 0.243662 0.684467 0.881277 0.10394
H_ H_ 0.205866 0.744548 0.815756 0.10394
H_ H_ 0.341897 0.727766 0.742392 0.10394
H_ H_ 0.384554 0.680841 0.821164 0.10394
H_ H_ 0.292288 0.622848 0.555682 0.10394
H_ H_ 0.242261 0.610063 0.623891 0.10394
H_ H_ 0.112146 0.589652 0.509882 0.10394
C_ C_ 0.175301 0.601947 0.800249 0.18167
C_ C_ 0.223216 0.582783 0.782048 -0.15533
C_ C_ 0.237547 0.530535 0.7815 0.02923
C_ C_ 0.190378 0.988928 0.780559 -0.15533
C_ C_ 0.159244 0.51763 0.818035 0.18167
C_ C_ 0.0247147 0.640781 0.784667 0.18167
C_ C_ 0.508404 0.669994 0.73854 -0.15533
C_ C_ 0.00599566 0.732744 0.775988 0.02923
C_ C_ 0.0340533 0.739229 0.82383 -0.15533
C_ C_ 0.059905 0.697353 0.848406 0.18167
C_ C_ 0.010094 0.548092 0.871847 0.69207
C_ C_ 0.470626 0.00477344 0.868465 0.02923
C_ C_ 0.488902 0.955082 0.861789 -0.15533
C_ C_ 0.459628 0.915077 0.870021 -0.15533
C_ C_ 0.410182 0.924121 0.880173 0.02923
C_ C_ 0.388894 0.974884 0.884645 -0.15533
C_ C_ 0.418141 0.0147634 0.879594 0.02923
C_ C_ 0.406688 0.563315 0.881865 0.69207
C_ C_ 0.399637 0.826802 0.89119 0.69661
C_ C_ 0.0646505 0.809124 0.594504 0.18167
C_ C_ 0.0185445 0.790211 0.575761 -0.15533
C_ C_ 0.00414494 0.786762 0.524047 0.02923
C_ C_ 0.042462 0.797592 0.994394 -0.15533
C_ C_ 0.0841508 0.817929 0.507866 0.18167
C_ C_ 0.22092 0.759444 0.636078 0.18167
C_ C_ 0.244142 0.735074 0.678596 -0.15533
C_ C_ 0.243939 0.759105 0.726229 0.02923
C_ C_ 0.225026 0.81143 0.730442 -0.15533
C_ C_ 0.199449 0.834648 0.689023 0.18167
C_ C_ 0.241662 0.862456 0.546549 0.69207
C_ C_ 0.277465 0.86921 0.000947968 0.02923
C_ C_ 0.254223 0.870208 0.948154 -0.15533
C_ C_ 0.280885 0.879416 0.908238 -0.15533
C_ C_ 0.331822 0.891491 0.917214 0.02923
C_ C_ 0.351933 0.897294 0.970687 -0.15533
C_ C_ 0.328037 0.879141 0.0101921 0.02923
C_ C_ 0.35197 0.886284 0.570468 0.69207
C_ C_ 0.349546 0.875202 0.821571 0.69661
C_ C_ 0.30923 0.930856 0.681068 0.18167
C_ C_ 0.265286 0.956193 0.699879 -0.15533
C_ C_ 0.27151 0.996019 0.740169 0.02923
C_ C_ 0.324942 0.527762 0.751107 -0.15533
C_ C_ 0.362791 0.989137 0.727284 0.18167
C_ C_ 0.489991 0.853885 0.704094 0.18167
C_ C_ 0.0143085 0.817177 0.738 -0.15533
C_ C_ 0.491533 0.765295 0.729873 0.02923
C_ C_ 0.440342 0.769359 0.713909 -0.15533
C_ C_ 0.415453 0.810269 0.686596 0.18167
C_ C_ 0.482015 0.956251 0.629516 0.69207
C_ C_ 0.0240561 0.496686 0.614455 0.02923
C_ C_ 1.0056776 0.547272 0.616456 -0.15533
C_ C_ 0.0380082 0.585162 0.615803 -0.15533
C_ C_ 0.0913588 0.572075 0.608567 0.02923
C_ C_ 0.111222 0.521076 0.606351 -0.15533
C_ C_ 0.0783279 0.482068 0.610517 0.02923
C_ C_ 0.102842 0.927816 0.614569 0.69207
C_ C_ 0.0995963 0.669656 0.599369 0.69661
C_ C_ 0.437149 0.681126 0.925171 0.18167
C_ C_ 0.476263 0.709709 0.950095 -0.15533
C_ C_ 0.469986 0.741284 -0.007048000000000054 0.02923
C_ C_ 0.42772 0.744084 0.514672 -0.15533
C_ C_ 0.381092 0.72242 0.985763 0.18167
C_ C_ 0.264065 0.688589 0.84819 0.18167
C_ C_ 0.24192 0.722179 0.809589 -0.15533
C_ C_ 0.268864 0.731012 0.769862 0.02923
C_ C_ 0.320421 0.714735 0.772804 -0.15533
C_ C_ 0.343827 0.688623 0.817422 0.18167
C_ C_ 0.267316 0.614016 0.957458 0.69207
C_ C_ 0.230868 0.621039 0.4955 0.02923
C_ C_ 0.251432 0.618779 0.547083 -0.15533
C_ C_ 0.221841 0.610808 0.585206 -0.15533
C_ C_ 0.171142 0.600981 0.573447 0.02923
C_ C_ 0.153774 0.592761 0.519387 -0.15533
C_ C_ 0.180659 0.609426 0.482837 0.02923
C_ C_ 0.151717 0.603501 0.932395 0.69207
C_ C_ 0.150202 0.611714 0.66616 0.69661
C_ C_ 0.372499 0.879573 0.8766 -0.30787
C_ C_ 0.12789 0.613319 0.608651 -0.30787
N_ N_ 0.144715 0.568438 0.817851 -0.32189
N_ N_ 0.0512815 0.649615 0.82985 -0.32189
N_ N_ 0.0982977 0.818801 0.559816 -0.32189
N_ N_ 0.197065 0.807835 0.640583 -0.32189
N_ N_ 0.356428 0.951485 0.690541 -0.32189
N_ N_ 0.441853 0.851322 0.683105 -0.32189
N_ N_ 0.390947 0.688779 0.945368 -0.32189
N_ N_ 0.314883 0.678398 0.855295 -0.32189
O_ O_ 0.507928 0.583258 0.898803 -0.63271
O_ O_ 0.0473394 0.539024 0.842587 -0.57982
O_ O_ 0.402309 0.58471 0.837035 -0.63271
O_ O_ 0.382847 0.586387 0.918853 -0.57982
O_ O_ 0.241965 0.892045 0.587318 -0.63271
O_ O_ 0.203778 0.832671 0.537301 -0.57982
O_ O_ 0.360911 0.843289 0.591153 -0.63271
O_ O_ 0.379722 0.922715 0.588875 -0.57982
O_ O_ 1.00057 0.90689 0.614791 -0.63271
O_ O_ 0.4478 0.965081 0.66131 -0.57982
O_ O_ 0.102376 0.906988 0.658521 -0.63271
O_ O_ 0.134821 0.907001 0.582917 -0.57982
O_ O_ 0.268044 0.584687 0.915234 -0.63271
O_ O_ 0.301553 0.647871 0.965409 -0.57982
O_ O_ 0.157668 0.641184 0.905585 -0.63271
O_ O_ 0.116949 0.57253 0.918591 -0.57982
F_ F_ 0.433316 0.829018 0.933485 -0.20885
F_ F_ 0.428606 0.803892 0.851461 -0.20885
F_ F_ 0.36743 0.791766 0.903604 -0.20885
F_ F_ 0.314439 0.92005 0.815656 -0.20885
F_ F_ 0.322637 0.832213 0.811379 -0.20885
F_ F_ 0.382767 0.870779 0.785481 -0.20885
F_ F_ 0.0672626 0.668825 0.554785 -0.20885
F_ F_ 0.0705153 0.694643 0.639271 -0.20885
F_ F_ 0.137894 0.699687 0.594654 -0.20885
F_ F_ 0.176804 0.565364 0.678166 -0.20885
F_ F_ 0.18292 0.647976 0.683141 -0.20885
F_ F_ 0.114755 0.615479 0.699131 -0.20885
Zn Zn 0.589212 0.0803952 0.351343 0.83971
Zn Zn 0.658503 0.339886 0.0841622 0.83971
Zn Zn 0.915041 0.425877 0.158172 0.83971
Zn Zn 0.836766 0.156185 0.419039 0.83971
H_ H_ 0.657083 0.128603 0.304539 0.10394
H_ H_ 0.734219 0.103169 0.262948 0.10394
H_ H_ 0.728343 0.458383 0.303982 0.10394
H_ H_ 0.642753 0.979275 0.337972 0.10394
H_ H_ 0.0204991 0.110494 0.242299 0.10394
H_ H_ 0.967974 0.191807 0.210531 0.10394
H_ H_ 0.516697 0.262063 0.329731 0.10394
H_ H_ 0.560199 0.188528 0.37447 0.10394
H_ H_ 0.53492 0.445868 0.377946 0.10394
H_ H_ 0.977877 0.384969 0.400397 0.10394
H_ H_ 0.85056 0.496883 0.396545 0.10394
H_ H_ 0.583315 0.289542 0.130259 0.10394
H_ H_ 0.99355632 0.284342 0.095715 0.10394
H_ H_ 0.54097 0.274514 0.44304 0.10394
H_ H_ 0.613193 0.318 0.982114 0.10394
H_ H_ 0.705224 0.238977 0.0984836 0.10394
H_ H_ 0.75347 0.197584 0.175292 0.10394
H_ H_ 0.731211 0.335296 0.265362 0.10394
H_ H_ 0.688952 0.378909 0.186038 0.10394
H_ H_ 0.71656 0.35888 0.440957 0.10394
H_ H_ 0.767188 0.378803 0.376923 0.10394
H_ H_ 0.894272 0.402751 0.489961 0.10394
H_ H_ 0.813122 0.402409 0.169664 0.10394
H_ H_ 0.737742 0.463315 0.190232 0.10394
H_ H_ 0.825886 0.0512403 0.267897 0.10394
H_ H_ 0.906798 0.515895 0.243728 0.10394
H_ H_ 0.510405 0.365927 0.184273 0.10394
H_ H_ 0.546603 0.295231 0.237878 0.10394
H_ H_ 0.907337 0.264934 0.239001 0.10394
H_ H_ 0.869015 0.335483 0.188 0.10394
H_ H_ 0.961328 0.0493244 0.103667 0.10394
H_ H_ 0.515539 0.113993 0.106153 0.10394
H_ H_ 0.639053 -0.00268796 0.0807614 0.10394
H_ H_ 0.932357 0.169573 0.401042 0.10394
H_ H_ 0.513255 0.191731 0.442328 0.10394
H_ H_ 0.914292 0.278023 0.0490846 0.10394
H_ H_ 0.847132 0.227661 0.516593 0.10394
H_ H_ 0.734671 0.196831 0.387232 0.10394
H_ H_ 0.693763 0.238845 0.308359 0.10394
H_ H_ 0.840796 0.223075 0.252196 0.10394
H_ H_ 0.878247 0.189968 0.331767 0.10394
H_ H_ 0.783035 0.104852 0.0457443 0.10394
H_ H_ 0.727447 0.0934321 0.110936 0.10394
H_ H_ 0.599384 0.0903241 -0.0020860000000000323 0.10394
C_ C_ 0.671358 0.0890691 0.299393 0.18167
C_ C_ 0.713168 0.0737987 0.275019 -0.15533
C_ C_ 0.728088 0.0209053 0.267055 0.02923
C_ C_ 0.709658 0.498189 0.299556 -0.15533
C_ C_ 0.661729 0.00492206 0.318294 0.18167
C_ C_ 0.526686 0.126517 0.264629 0.18167
C_ C_ -0.0039679999999999715 0.191849 0.243642 -0.15533
C_ C_ 0.499307 0.215224 0.257231 0.02923
C_ C_ 0.516502 0.223615 0.309994 -0.15533
C_ C_ 0.538969 0.182726 0.339176 0.18167
C_ C_ 0.510843 0.0374743 0.370037 0.69207
C_ C_ 0.977428 0.511958 0.384839 0.02923
C_ C_ 0.9953 0.461805 0.390208 -0.15533
C_ C_ 0.963103 0.422785 0.392295 -0.15533
C_ C_ 0.910019 0.433721 0.39512 0.02923
C_ C_ 0.891528 0.484859 0.396301 -0.15533
C_ C_ 0.923498 0.523665 0.393159 0.02923
C_ C_ 0.891722 0.0712783 0.381484 0.69207
C_ C_ 0.896969 0.338015 0.382468 0.69661
C_ C_ 0.570913 0.289509 0.0894896 0.18167
C_ C_ 0.522958 0.273486 0.0676129 -0.15533
C_ C_ 0.514364 0.265951 0.0152814 0.02923
C_ C_ 0.549908 0.279691 0.485097 -0.15533
C_ C_ 0.589769 0.302673 0.006269999999999998 0.18167
C_ C_ 0.711709 0.260259 0.135956 0.18167
C_ C_ 0.736209 0.236241 0.177893 -0.15533
C_ C_ 0.738926 0.262129 0.227466 0.02923
C_ C_ 0.722747 0.313736 0.229837 -0.15533
C_ C_ 0.703405 0.338962 0.185424 0.18167
C_ C_ 0.745603 0.361791 0.0522109 0.69207
C_ C_ 0.774109 0.373017 0.503832 0.02923
C_ C_ 0.757881 0.364767 0.451485 -0.15533
C_ C_ 0.787193 0.377818 0.414288 -0.15533
C_ C_ 0.835384 0.395827 0.426024 0.02923
C_ C_ 0.85496 0.39952 0.478819 -0.15533
C_ C_ 0.82605 0.388543 0.516743 0.02923
C_ C_ 0.861618 0.382924 0.0768315 0.69207
C_ C_ 0.85106 0.398692 0.324595 0.69661
C_ C_ 0.818425 0.439949 0.191459 0.18167
C_ C_ 0.775008 0.469533 0.207911 -0.15533
C_ C_ 0.781778 0.509287 0.24577 0.02923
C_ C_ 0.821308 0.0151921 0.24877 -0.15533
C_ C_ 0.870758 0.500895 0.232472 0.18167
C_ C_ 0.992104 0.361591 0.206857 0.18167
C_ C_ 0.508336 0.295988 0.216231 -0.15533
C_ C_ 0.981607 0.286506 0.245746 0.02923
C_ C_ 0.927867 0.296006 0.23512 -0.15533
C_ C_ 0.909071 0.332852 0.202592 0.18167
C_ C_ 0.988314 0.464427 0.125186 0.69207
C_ C_ 0.517414 0.987154 0.10784 0.02923
C_ C_ 0.499742 0.0373966 0.0984985 -0.15533
C_ C_ 0.531749 0.0758902 0.100412 -0.15533
C_ C_ 0.584085 0.0617758 0.0931341 0.02923
C_ C_ 0.601447 0.00917054 0.0910179 -0.15533
C_ C_ 0.569435 0.971522 0.101343 0.02923
C_ C_ 0.599488 0.421322 0.103727 0.69207
C_ C_ 0.596967 0.159244 0.0997003 0.69661
C_ C_ 0.928661 0.195418 0.43198 0.18167
C_ C_ 0.972482 0.216738 0.455884 -0.15533
C_ C_ 0.967306 0.250653 0.49786 0.02923
C_ C_ 0.91699 0.254941 0.0154658 -0.15533
C_ C_ 0.880998 0.227358 0.497634 0.18167
C_ C_ 0.755927 0.200906 0.354347 0.18167
C_ C_ 0.733316 0.227042 0.311464 -0.15533
C_ C_ 0.763454 0.232875 0.274078 0.02923
C_ C_ 0.816105 0.221597 0.280353 -0.15533
C_ C_ 0.835753 0.198136 0.325376 0.18167
C_ C_ 0.75462 0.12547 0.457258 0.69207
C_ C_ 0.723592 0.113674 0.985375 0.02923
C_ C_ 0.742685 0.104022 0.0348092 -0.15533
C_ C_ 0.711272 0.0982148 0.0728492 -0.15533
C_ C_ 0.660483 0.0948553 0.0600962 0.02923
C_ C_ 0.638903 0.10284 0.00992936 -0.15533
C_ C_ 0.671645 0.107449 0.97122 0.02923
C_ C_ 0.649813 0.100061 0.42934 0.69207
C_ C_ 0.646529 0.0984023 0.156146 0.69661
C_ C_ 0.872485 0.392145 0.383766 -0.30787
C_ C_ 0.622557 0.102519 0.100888 -0.30787
N_ N_ 0.645097 0.054551 0.318384 -0.32189
N_ N_ 0.547058 0.135774 0.314503 -0.32189
N_ N_ 0.604543 0.303426 0.0576064 -0.32189
N_ N_ 0.694744 0.310687 0.141925 -0.32189
N_ N_ 0.865049 0.458481 0.200901 -0.32189
N_ N_ 0.941628 0.36545 0.191107 -0.32189
N_ N_ 0.884822 0.199519 0.453389 -0.32189
N_ N_ 0.805463 0.182508 0.358581 -0.32189
O_ O_ -0.0064269999999999605 0.095678 0.378738 -0.63271
O_ O_ 0.548827 0.029329 0.340853 -0.57982
O_ O_ 0.878503 0.0931508 0.33714 -0.63271
O_ O_ 0.868778 0.0915682 0.422079 -0.57982
O_ O_ 0.748604 0.383733 0.0978488 -0.63271
O_ O_ 0.705991 0.336314 0.0371664 -0.57982
O_ O_ 0.857009 0.346459 0.105857 -0.63271
O_ O_ 0.879003 0.42542 0.0954854 -0.57982
O_ O_ 0.499387 0.395826 0.0953698 -0.63271
O_ O_ 0.958781 0.472699 0.160875 -0.57982
O_ O_ 0.591406 0.393976 0.140331 -0.63271
O_ O_ 0.636398 0.406342 0.0790386 -0.57982
O_ O_ 0.75592 0.0933227 0.416996 -0.63271
O_ O_ 0.787076 0.158431 0.464373 -0.57982
O_ O_ 0.645058 0.141972 0.40392 -0.63271
O_ O_ 0.614563 0.069649 0.414206 -0.57982
F_ F_ 0.925666 0.329069 0.428871 -0.20885
F_ F_ 0.932239 0.33277 0.346544 -0.20885
F_ F_ 0.860992 0.30301 0.374753 -0.20885
F_ F_ 0.81451 0.439467 0.318958 -0.20885
F_ F_ 0.831244 0.35507 0.29855 -0.20885
F_ F_ 0.890785 0.408035 0.296464 -0.20885
F_ F_ 0.566116 0.165173 0.0569195 -0.20885
F_ F_ 0.56817 0.179633 0.139492 -0.20885
F_ F_ 0.634804 0.193613 0.098383 -0.20885
F_ F_ 0.677365 0.0539214 0.167001 -0.20885
F_ F_ 0.674703 0.137721 0.171085 -0.20885
F_ F_ 0.609497 0.100877 0.189598 -0.20885
Zn Zn 0.580558 0.0854845 0.843601 0.83971
Zn Zn 0.656493 0.347112 0.579834 0.83971
Zn Zn 0.911973 0.420041 0.653226 0.83971
Zn Zn 0.835607 0.158807 0.912943 0.83971
H_ H_ 0.661322 0.135071 0.801476 0.10394
H_ H_ 0.748543 0.0959013 0.776135 0.10394
H_ H_ 0.707449 0.444867 0.789958 0.10394
H_ H_ 0.623596 0.984556 0.819664 0.10394
H_ H_ 0.0408394 0.100991 0.745387 0.10394
H_ H_ 1.00885 0.176873 0.694717 0.10394
H_ H_ 0.545011 0.26832 0.821836 0.10394
H_ H_ 0.558124 0.197423 0.872826 0.10394
H_ H_ 0.541683 0.439842 0.885213 0.10394
H_ H_ 0.981447 0.380199 0.8904 0.10394
H_ H_ 0.857802 0.501465 0.914562 0.10394
H_ H_ 0.579063 0.296717 0.632307 0.10394
H_ H_ -0.000114781 0.275897 0.598742 0.10394
H_ H_ 0.540344 0.279139 0.942485 0.10394
H_ H_ 0.616206 0.310742 0.478665 0.10394
H_ H_ 0.715946 0.261145 0.596572 0.10394
H_ H_ 0.773061 0.217702 0.664903 0.10394
H_ H_ 0.703586 0.334142 0.767566 0.10394
H_ H_ 0.673796 0.381952 0.692877 0.10394
H_ H_ 0.716059 0.371326 0.952359 0.10394
H_ H_ 0.766113 0.3827 0.884371 0.10394
H_ H_ 0.89156 0.416352 0.994754 0.10394
H_ H_ 0.810199 0.387752 0.663731 0.10394
H_ H_ 0.735387 0.439099 0.684093 0.10394
H_ H_ 0.829109 0.0488438 0.777015 0.10394
H_ H_ 0.900897 0.499935 0.726971 0.10394
H_ H_ 0.511127 0.390044 0.691096 0.10394
H_ H_ 0.552974 0.30742 0.725365 0.10394
H_ H_ 0.906864 0.255545 0.735544 0.10394
H_ H_ 0.872279 0.331287 0.686383 0.10394
H_ H_ 0.96544 0.0539585 0.62343 0.10394
H_ H_ 0.514687 0.124667 0.615752 0.10394
H_ H_ 0.635602 0.0078065 0.583134 0.10394
H_ H_ 0.939571 0.1696 0.895677 0.10394
H_ H_ 0.514381 0.182308 0.952717 0.10394
H_ H_ 0.913061 0.280268 0.552226 0.10394
H_ H_ 0.83542 0.240194 -0.000587381 0.10394
H_ H_ 0.738442 0.208651 0.88789 0.10394
H_ H_ 0.691064 0.244317 0.806335 0.10394
H_ H_ 0.834742 0.216713 0.738348 0.10394
H_ H_ 0.873976 0.183481 0.81887 0.10394
H_ H_ 0.775731 0.143216 0.559901 0.10394
H_ H_ 0.727438 0.105817 0.625142 0.10394
H_ H_ 0.602926 0.0841604 0.511011 0.10394
C_ C_ 0.67292 0.0937666 0.798012 0.18167
C_ C_ 0.721399 0.0708275 0.783347 -0.15533
C_ C_ 0.728478 0.0179909 0.774128 0.02923
C_ C_ 0.699189 0.485631 0.789122 -0.15533
C_ C_ 0.650065 0.00893421 0.806972 0.18167
C_ C_ 0.517607 0.138339 0.765317 0.18167
C_ C_ 0.0133671 0.180422 0.737967 -0.15533
C_ C_ 0.509561 0.230199 0.755265 0.02923
C_ C_ 0.531226 0.235047 0.805795 -0.15533
C_ C_ 0.547682 0.192629 0.834658 0.18167
C_ C_ 0.506647 0.0441022 0.864137 0.69207
C_ C_ 0.976637 0.508706 0.883227 0.02923
C_ C_ 0.998438 0.458013 0.887421 -0.15533
C_ C_ 0.966222 0.419921 0.889878 -0.15533
C_ C_ 0.91416 0.431876 0.899864 0.02923
C_ C_ 0.895836 0.485604 0.90303 -0.15533
C_ C_ 0.924239 0.522403 0.889308 0.02923
C_ C_ 0.891215 0.0729226 0.891125 0.69207
C_ C_ 0.899314 0.333437 0.893356 0.69661
C_ C_ 0.566494 0.299597 0.591478 0.18167
C_ C_ 0.524446 0.275927 0.570875 -0.15533
C_ C_ 0.514579 0.265577 0.515925 0.02923
C_ C_ 0.547958 0.278788 0.983845 -0.15533
C_ C_ 0.591623 0.298559 0.506066 0.18167
C_ C_ 0.722992 0.280828 0.634184 0.18167
C_ C_ 0.749563 0.252489 0.674386 -0.15533
C_ C_ 0.741055 0.269932 0.724899 0.02923
C_ C_ 0.714806 0.31797 0.732075 -0.15533
C_ C_ 0.691348 0.343523 0.689486 0.18167
C_ C_ 0.737271 0.367362 0.542103 0.69207
C_ C_ 0.778754 0.377693 1.0135677 0.02923
C_ C_ 0.75876 0.374208 0.961155 -0.15533
C_ C_ 0.787682 0.382729 0.922097 -0.15533
C_ C_ 0.838072 0.39626 0.934321 0.02923
C_ C_ 0.858698 0.400433 0.98538 -0.15533
C_ C_ 0.832525 0.386661 0.0243783 0.02923
C_ C_ 0.846788 0.391269 0.571018 0.69207
C_ C_ 0.853155 0.395699 0.836736 0.69661
C_ C_ 0.814 0.420965 0.68556 0.18167
C_ C_ 0.770663 0.446378 0.707361 -0.15533
C_ C_ 0.778526 0.487314 0.744243 0.02923
C_ C_ 0.824149 0.0131903 0.753759 -0.15533
C_ C_ 0.865948 0.480516 0.727812 0.18167
C_ C_ 0.994475 0.350926 0.694458 0.18167
C_ C_ 0.513519 0.313706 0.718079 -0.15533
C_ C_ 0.983581 0.274227 0.736092 0.02923
C_ C_ 0.93221 0.284629 0.725476 -0.15533
C_ C_ 0.911498 0.326816 0.698598 0.18167
C_ C_ 0.991121 0.456782 0.628558 0.69207
C_ C_ 0.518315 0.995148 0.622265 0.02923
C_ C_ 0.498745 0.0469497 0.620633 -0.15533
C_ C_ 0.530784 0.086744 0.6149 -0.15533
C_ C_ 0.58191 0.0725524 0.604593 0.02923
C_ C_ 0.598799 0.020337 0.598981 -0.15533
C_ C_ 0.569031 0.98171 0.612215 0.02923
C_ C_ 0.591354 0.428265 0.600835 0.69207
C_ C_ 0.602724 0.168244 0.614146 0.69661
C_ C_ 0.933605 0.188463 0.933301 0.18167
C_ C_ 0.975253 0.20424 0.965521 -0.15533
C_ C_ 0.966585 0.243799 -0.000491522 0.02923
C_ C_ 0.921271 0.254054 0.520011 -0.15533
C_ C_ 0.874402 0.233298 0.987322 0.18167
C_ C_ 0.756251 0.20739 0.853038 0.18167
C_ C_ 0.733302 0.232877 0.80926 -0.15533
C_ C_ 0.762163 0.241933 0.770639 0.02923
C_ C_ 0.813037 0.218856 0.77088 -0.15533
C_ C_ 0.834342 0.1938 0.813655 0.18167
C_ C_ 0.758144 0.119701 0.94629 0.69207
C_ C_ 0.721259 0.119785 0.498594 0.02923
C_ C_ 0.737091 0.130982 0.551252 -0.15533
C_ C_ 0.710415 0.112644 0.587313 -0.15533
C_ C_ 0.659548 0.101574 0.575218 0.02923
C_ C_ 0.641696 0.0937221 0.520709 -0.15533
C_ C_ 0.671731 0.102302 0.482953 0.02923
C_ C_ 0.648507 0.107097 0.918846 0.69207
C_ C_ 0.647457 0.108455 0.671061 0.69661
C_ C_ 0.876089 0.390144 0.892297 -0.30787
C_ C_ 0.62094 0.110705 0.615403 -0.30787
N_ N_ 0.637892 0.0606997 0.806211 -0.32189
N_ N_ 0.545743 0.145757 0.810914 -0.32189
N_ N_ 0.601507 0.308124 0.559063 -0.32189
N_ N_ 0.691283 0.322141 0.641634 -0.32189
N_ N_ 0.859207 0.439741 0.693776 -0.32189
N_ N_ 0.942115 0.360024 0.68097 -0.32189
N_ N_ 0.884408 0.200289 0.947477 -0.32189
N_ N_ 0.805838 0.189649 0.854615 -0.32189
O_ O_ -0.003738000000000019 0.0900182 0.903009 -0.63271
O_ O_ 0.538367 0.0370603 0.82968 -0.57982
O_ O_ 0.884544 0.089818 0.845036 -0.63271
O_ O_ 0.867022 0.0948016 0.927682 -0.57982
O_ O_ 0.744002 0.386019 0.588938 -0.63271
O_ O_ 0.698249 0.341029 0.52906 -0.57982
O_ O_ 0.854985 0.347694 0.594723 -0.63271
O_ O_ 0.874319 0.427247 0.589007 -0.57982
O_ O_ 0.476466 0.418535 0.587829 -0.63271
O_ O_ 0.951034 0.470858 0.653809 -0.57982
O_ O_ 0.586789 0.401322 0.640448 -0.63271
O_ O_ 0.628872 0.41149 0.571108 -0.57982
O_ O_ 0.755158 0.09331 0.903405 -0.63271
O_ O_ 0.787447 0.157691 0.952636 -0.57982
O_ O_ 0.649045 0.148684 0.896667 -0.63271
O_ O_ 0.613107 0.0766924 0.904644 -0.57982
F_ F_ 0.935257 0.329167 0.935309 -0.20885
F_ F_ 0.923794 0.317692 0.850811 -0.20885
F_ F_ 0.865488 0.297369 0.888391 -0.20885
F_ F_ 0.822273 0.441828 0.833152 -0.20885
F_ F_ 0.824765 0.357261 0.818453 -0.20885
F_ F_ 0.888704 0.39958 0.800141 -0.20885
F_ F_ 0.569966 0.16942 0.56897 -0.20885
F_ F_ 0.571518 0.186311 0.65219 -0.20885
F_ F_ 0.637787 0.204335 0.615775 -0.20885
F_ F_ 0.677084 0.0633241 0.680704 -0.20885
F_ F_ 0.678325 0.146048 0.689674 -0.20885
F_ F_ 0.61229 0.114437 0.704518 -0.20885
Zn Zn 0.587187 0.587576 0.350482 0.83971
Zn Zn 0.66113 0.841272 0.0843708 0.83971
Zn Zn 0.909242 0.912416 0.162444 0.83971
Zn Zn 0.842141 0.660827 0.4157 0.83971
H_ H_ 0.661751 0.639872 0.30795 0.10394
H_ H_ 0.738642 0.609877 0.262451 0.10394
H_ H_ 0.710146 0.946113 0.281807 0.10394
H_ H_ 0.642292 0.488627 0.334931 0.10394
H_ H_ 0.0469901 0.59705 0.257409 0.10394
H_ H_ 1.0107384 0.676048 0.211526 0.10394
H_ H_ 0.527094 0.774236 0.325503 0.10394
H_ H_ 0.57738 0.707439 0.373358 0.10394
H_ H_ 0.52816 0.938589 0.354502 0.10394
H_ H_ 0.977696 0.879922 0.386104 0.10394
H_ H_ 0.850249 0.99225 0.397578 0.10394
H_ H_ 0.586092 0.792791 0.12882 0.10394
H_ H_ 1.0128485 0.761879 0.111247 0.10394
H_ H_ 0.518476 0.805134 0.454686 0.10394
H_ H_ 0.61033 0.831901 0.979328 0.10394
H_ H_ 0.715809 0.744647 0.0959642 0.10394
H_ H_ 0.769371 0.706183 0.16604 0.10394
H_ H_ 0.728694 0.835897 0.267277 0.10394
H_ H_ 0.678642 0.875359 0.193283 0.10394
H_ H_ 0.709699 0.898217 0.449293 0.10394
H_ H_ 0.765115 0.891195 0.380833 0.10394
H_ H_ 0.894324 0.906703 0.492847 0.10394
H_ H_ 0.806691 0.890453 0.170306 0.10394
H_ H_ 0.727668 0.941661 0.191424 0.10394
H_ H_ 0.832018 0.563323 0.280515 0.10394
H_ H_ 0.901021 0.99960056 0.235586 0.10394
H_ H_ 0.5045 0.871585 0.177873 0.10394
H_ H_ 0.548324 0.803952 0.228675 0.10394
H_ H_ 0.920745 0.757488 0.266457 0.10394
H_ H_ 0.877237 0.818423 0.201777 0.10394
H_ H_ 0.971208 0.567356 0.131487 0.10394
H_ H_ 0.516168 0.61698 0.109351 0.10394
H_ H_ 0.650424 0.506612 0.103853 0.10394
H_ H_ 0.940476 0.670374 0.40206 0.10394
H_ H_ 0.521751 0.692489 0.439123 0.10394
H_ H_ 0.922748 0.784283 0.0536763 0.10394
H_ H_ 0.839768 0.733006 0.507006 0.10394
H_ H_ 0.739096 0.689112 0.374998 0.10394
H_ H_ 0.699199 0.723445 0.294551 0.10394
H_ H_ 0.846485 0.732203 0.245959 0.10394
H_ H_ 0.889333 0.695742 0.324125 0.10394
H_ H_ 0.792773 0.607834 0.0693295 0.10394
H_ H_ 0.734043 0.606455 0.129789 0.10394
H_ H_ 0.613238 0.591186 0.0110698 0.10394
C_ C_ 0.671327 0.600394 0.298756 0.18167
C_ C_ 0.718496 0.582427 0.279208 -0.15533
C_ C_ 0.737895 0.530597 0.277509 0.02923
C_ C_ 0.701554 0.985794 0.288972 -0.15533
C_ C_ 0.663341 0.514842 0.318326 0.18167
C_ C_ 0.524888 0.636376 0.274276 0.18167
C_ C_ 0.0235165 0.679485 0.252101 -0.15533
C_ C_ 0.5025 0.725577 0.259577 0.02923
C_ C_ 0.529935 0.737496 0.307829 -0.15533
C_ C_ 0.55392 0.697407 0.338728 0.18167
C_ C_ 0.50891 0.547105 0.369598 0.69207
C_ C_ 0.968062 0.00804403 0.36383 0.02923
C_ C_ -0.01296799999999998 0.956524 0.366158 -0.15533
C_ C_ 0.959749 0.919004 0.384983 -0.15533
C_ C_ 0.909668 0.930313 0.392491 0.02923
C_ C_ 0.891092 0.982311 0.396174 -0.15533
C_ C_ 0.919712 0.0209931 0.384284 0.02923
C_ C_ 0.897882 0.576954 0.387349 0.69207
C_ C_ 0.89981 0.832848 0.397336 0.69661
C_ C_ 0.573101 0.794872 0.0887473 0.18167
C_ C_ 0.524976 0.777577 0.0713088 -0.15533
C_ C_ 0.513071 0.770025 0.016457 0.02923
C_ C_ 0.539056 0.794956 0.490344 -0.15533
C_ C_ 0.586915 0.816076 0.00474346 0.18167
C_ C_ 0.718891 0.765895 0.132701 0.18167
C_ C_ 0.744822 0.740721 0.17491 -0.15533
C_ C_ 0.7436 0.765145 0.224687 0.02923
C_ C_ 0.723478 0.814119 0.23042 -0.15533
C_ C_ 0.695808 0.836672 0.188568 0.18167
C_ C_ 0.746107 0.854416 0.0492053 0.69207
C_ C_ 0.769539 0.887924 0.510883 0.02923
C_ C_ 0.749506 0.891808 0.458924 -0.15533
C_ C_ 0.781105 0.897177 0.418945 -0.15533
C_ C_ 0.835577 0.89703 0.429785 0.02923
C_ C_ 0.85451 0.899816 0.483126 -0.15533
C_ C_ 0.822098 0.892085 0.521004 0.02923
C_ C_ 0.85891 0.868109 0.0762166 0.69207
C_ C_ 0.849119 0.888663 0.331866 0.69661
C_ C_ 0.808904 0.928478 0.188656 0.18167
C_ C_ 0.764 0.957744 0.202879 -0.15533
C_ C_ 0.77061 1.00196 0.234652 0.02923
C_ C_ 0.830202 0.528182 0.254631 -0.15533
C_ C_ 0.86211 0.987666 0.226018 0.18167
C_ C_ 0.99325 0.853029 0.209745 0.18167
C_ C_ 0.507447 0.805827 0.216886 -0.15533
C_ C_ 0.997154 0.773614 0.25221 0.02923
C_ C_ 0.943296 0.778216 0.243992 -0.15533
C_ C_ 0.918872 0.814971 0.209546 0.18167
C_ C_ 0.986765 0.951865 0.125687 0.69207
C_ C_ 0.522538 0.486864 0.106488 0.02923
C_ C_ 0.501001 0.539954 0.102737 -0.15533
C_ C_ 0.532918 0.577157 0.103932 -0.15533
C_ C_ 0.586733 0.565638 0.101404 0.02923
C_ C_ 0.608272 0.514114 0.102302 -0.15533
C_ C_ 0.576215 0.474081 0.104115 0.02923
C_ C_ 0.593464 0.919665 0.107167 0.69207
C_ C_ 0.599865 0.664218 0.104869 0.69661
C_ C_ 0.934002 0.690811 0.435845 0.18167
C_ C_ 0.973711 0.717385 0.461206 -0.15533
C_ C_ 0.963698 0.752736 0.502934 0.02923
C_ C_ 0.926582 0.75339 1.0217064 -0.15533
C_ C_ 0.877073 0.728764 0.494115 0.18167
C_ C_ 0.764321 0.700794 0.346392 0.18167
C_ C_ 0.740949 0.719836 0.30314 -0.15533
C_ C_ 0.768656 0.736961 0.268201 0.02923
C_ C_ 0.82348 0.725073 0.274673 -0.15533
C_ C_ 0.847109 0.701361 0.319201 0.18167
C_ C_ 0.768974 0.625477 0.455756 0.69207
C_ C_ 0.737044 0.613699 1.00164 0.02923
C_ C_ 0.753789 0.604808 0.0536678 -0.15533
C_ C_ 0.718949 0.600929 0.0898078 -0.15533
C_ C_ 0.666087 0.599831 0.0743383 0.02923
C_ C_ 0.651962 0.598351 0.0215452 -0.15533
C_ C_ 0.682245 0.612304 0.986336 0.02923
C_ C_ 0.655113 0.610289 0.427399 0.69207
C_ C_ 0.643783 0.608037 0.171053 0.69661
C_ C_ 0.872176 0.887859 0.388321 -0.30787
C_ C_ 0.622631 0.608249 0.112371 -0.30787
N_ N_ 0.644698 0.564409 0.315412 -0.32189
N_ N_ 0.555739 0.647667 0.318466 -0.32189
N_ N_ 0.6011 0.8138 0.0557438 -0.32189
N_ N_ 0.692843 0.812447 0.141217 -0.32189
N_ N_ 0.854529 0.946352 0.195284 -0.32189
N_ N_ 0.942803 0.852967 0.196309 -0.32189
N_ N_ 0.886405 0.702665 0.44921 -0.32189
N_ N_ 0.81504 0.693277 0.355757 -0.32189
O_ O_ 0.00587188 0.59747 0.389888 -0.63271
O_ O_ 0.551246 0.53653 0.346548 -0.57982
O_ O_ 0.90253 0.602253 0.346845 -0.63271
O_ O_ 0.871484 0.598168 0.42481 -0.57982
O_ O_ 0.748528 0.877826 0.0927369 -0.63271
O_ O_ 0.704378 0.832033 0.036782 -0.57982
O_ O_ 0.853655 0.830245 0.103551 -0.63271
O_ O_ 0.876195 0.909801 0.0991595 -0.57982
O_ O_ 0.483022 0.907597 0.0871029 -0.63271
O_ O_ 0.952111 0.961657 0.156931 -0.57982
O_ O_ 0.593514 0.894105 0.148212 -0.63271
O_ O_ 0.628667 0.902884 0.0780476 -0.57982
O_ O_ 0.765188 0.601021 0.410743 -0.63271
O_ O_ 0.796077 0.664906 0.460167 -0.57982
O_ O_ 0.655798 0.653071 0.403024 -0.63271
O_ O_ 0.620733 0.57994 0.412597 -0.57982
F_ F_ 0.93601 0.838252 0.438604 -0.20885
F_ F_ 0.927661 0.814819 0.3551 -0.20885
F_ F_ 0.867001 0.798742 0.407462 -0.20885
F_ F_ 0.814396 0.931053 0.323854 -0.20885
F_ F_ 0.823418 0.846537 0.31918 -0.20885
F_ F_ 0.887252 0.887376 0.300707 -0.20885
F_ F_ 0.572973 0.67471 0.0582297 -0.20885
F_ F_ 0.569354 0.68118 0.143073 -0.20885
F_ F_ 0.635132 0.697633 0.105069 -0.20885
F_ F_ 0.680635 0.56594 0.1742 -0.20885
F_ F_ 0.67015 0.648732 0.190932 -0.20885
F_ F_ 0.60575 0.603211 0.202076 -0.20885
Zn Zn 0.594038 0.583854 0.85164 0.83971
Zn Zn 0.65771 0.851985 0.587766 0.83971
Zn Zn 0.910393 0.919853 0.65769 0.83971
Zn Zn 0.845939 0.660737 0.920983 0.83971
H_ H_ 0.682324 0.626982 0.823386 0.10394
H_ H_ 0.761083 0.588448 0.783234 0.10394
H_ H_ 0.709311 0.947659 0.797181 0.10394
H_ H_ 0.634468 0.483274 0.828644 0.10394
H_ H_ 0.0235353 0.601773 0.769231 0.10394
H_ H_ 0.979638 0.670962 0.719864 0.10394
H_ H_ 0.537649 0.766283 0.827553 0.10394
H_ H_ 0.572066 0.686245 0.874037 0.10394
H_ H_ 0.523617 0.942538 0.845792 0.10394
H_ H_ 0.981824 0.878699 0.887125 0.10394
H_ H_ 0.852534 0.985179 0.908666 0.10394
H_ H_ 0.586609 0.793607 0.633834 0.10394
H_ H_ -0.005894999999999984 0.77554 0.600316 0.10394
H_ H_ 0.529117 0.795228 0.943666 0.10394
H_ H_ 0.601664 0.841121 0.489813 0.10394
H_ H_ 0.73058 0.763678 0.599774 0.10394
H_ H_ 0.761683 0.708442 0.671111 0.10394
H_ H_ 0.711409 0.82818 0.777148 0.10394
H_ H_ 0.670284 0.878975 0.701184 0.10394
H_ H_ 0.71686 0.855503 0.945386 0.10394
H_ H_ 0.773859 0.86496 0.877091 0.10394
H_ H_ 0.891165 0.905635 0.992708 0.10394
H_ H_ 0.804688 0.894879 0.666059 0.10394
H_ H_ 0.733829 0.946877 0.695724 0.10394
H_ H_ 0.834795 0.53398 0.783362 0.10394
H_ H_ 0.897597 1.00797 0.728808 0.10394
H_ H_ 0.50607 0.890843 0.704996 0.10394
H_ H_ 0.555595 0.809642 0.74815 0.10394
H_ H_ 0.912367 0.746925 0.726048 0.10394
H_ H_ 0.873247 0.826761 0.683718 0.10394
H_ H_ 0.967753 0.558946 0.620733 0.10394
H_ H_ 0.518319 0.625479 0.600226 0.10394
H_ H_ 0.642189 0.507871 0.592082 0.10394
H_ H_ 0.944738 0.661838 0.906987 0.10394
H_ H_ 0.512576 0.703998 0.933353 0.10394
H_ H_ 0.90513 0.772673 0.557577 0.10394
H_ H_ 0.848019 0.735878 1.0105764 0.10394
H_ H_ 0.740223 0.704503 0.889849 0.10394
H_ H_ 0.698607 0.747874 0.818713 0.10394
H_ H_ 0.83735 0.723849 0.747508 0.10394
H_ H_ 0.881229 0.692211 0.82642 0.10394
H_ H_ 0.793856 0.626863 0.554707 0.10394
H_ H_ 0.739825 0.619969 0.619473 0.10394
H_ H_ 0.610881 0.586308 0.506479 0.10394
C_ C_ 0.688065 0.586428 0.813139 0.18167
C_ C_ 0.730841 0.565863 0.790175 -0.15533
C_ C_ 0.736769 0.513181 0.777683 0.02923
C_ C_ 0.697066 0.987695 0.794754 -0.15533
C_ C_ 0.655364 0.507216 0.808449 0.18167
C_ C_ 0.529658 0.627927 0.765959 0.18167
C_ C_ 0.00258687 0.681238 0.754674 -0.15533
C_ C_ 0.514474 0.720239 0.758509 0.02923
C_ C_ 0.538354 0.728965 0.810013 -0.15533
C_ C_ 0.55547 0.684659 0.834266 0.18167
C_ C_ 0.513365 0.538875 0.874287 0.69207
C_ C_ 0.968813 0.00658613 0.879904 0.02923
C_ C_ -0.01092700000000002 0.955645 0.87412 -0.15533
C_ C_ 0.961313 0.915043 0.884927 -0.15533
C_ C_ 0.909808 0.925286 0.895506 0.02923
C_ C_ 0.8897 0.978177 0.902735 -0.15533
C_ C_ 0.918278 0.0190806 0.894722 0.02923
C_ C_ 0.898159 0.573657 0.882972 0.69207
C_ C_ 0.898165 0.82496 0.886591 0.69661
C_ C_ 0.574023 0.793949 0.594656 0.18167
C_ C_ 0.531594 0.767626 0.574009 -0.15533
C_ C_ 0.516646 0.765334 0.52178 0.02923
C_ C_ 0.5438 0.790613 0.982734 -0.15533
C_ C_ 0.585488 0.814588 0.510137 0.18167
C_ C_ 0.723579 0.776723 0.638703 0.18167
C_ C_ 0.74335 0.74507 0.678894 -0.15533
C_ C_ 0.734418 0.760373 0.729485 0.02923
C_ C_ 0.706875 0.807946 0.738098 -0.15533
C_ C_ 0.685502 0.837992 0.69662 0.18167
C_ C_ 0.735357 0.871779 0.54875 0.69207
C_ C_ 0.780383 0.860602 1.00968912 0.02923
C_ C_ 0.759985 0.860979 0.957286 -0.15533
C_ C_ 0.788231 0.869656 0.918761 -0.15533
C_ C_ 0.836442 0.883941 0.930849 0.02923
C_ C_ 0.856728 0.887101 0.981846 -0.15533
C_ C_ 0.830767 0.870719 0.0219112 0.02923
C_ C_ 0.846378 0.886178 0.57424 0.69207
C_ C_ 0.845151 0.890389 0.83051 0.69661
C_ C_ 0.812113 0.927119 0.691781 0.18167
C_ C_ 0.769537 0.955183 0.709617 -0.15533
C_ C_ 0.775108 -0.004878000000000049 0.746262 0.02923
C_ C_ 0.827087 0.506156 0.75219 -0.15533
C_ C_ 0.86478 0.989691 0.726746 0.18167
C_ C_ 0.990635 0.860204 0.710876 0.18167
C_ C_ 0.516767 0.810343 0.728814 -0.15533
C_ C_ 0.98665 0.776812 0.743413 0.02923
C_ C_ 0.933441 0.780346 0.728411 -0.15533
C_ C_ 0.91227 0.82339 0.700969 0.18167
C_ C_ 0.992721 0.954299 0.630356 0.69207
C_ C_ 0.517143 0.497604 0.600129 0.02923
C_ C_ 0.49972 0.549448 0.601741 -0.15533
C_ C_ 0.533595 0.587423 0.599733 -0.15533
C_ C_ 0.587559 0.572111 0.600665 0.02923
C_ C_ 0.603713 0.520114 0.598538 -0.15533
C_ C_ 0.570251 0.483137 0.603322 0.02923
C_ C_ 0.593622 0.93001 0.61371 0.69207
C_ C_ 0.604588 0.666989 0.603227 0.69661
C_ C_ 0.940015 0.6834 0.942675 0.18167
C_ C_ 0.982411 0.704137 0.968101 -0.15533
C_ C_ 0.975761 0.741018 1.00650637 0.02923
C_ C_ 0.915561 0.753829 0.522976 -0.15533
C_ C_ 0.884935 0.728318 0.997463 0.18167
C_ C_ 0.763835 0.709433 0.859574 0.18167
C_ C_ 0.738381 0.734176 0.818357 -0.15533
C_ C_ 0.764961 0.737823 0.776179 0.02923
C_ C_ 0.815324 0.719046 0.777094 -0.15533
C_ C_ 0.840066 0.696383 0.82293 0.18167
C_ C_ 0.768765 0.628396 0.962216 0.69207
C_ C_ 0.732635 0.617593 0.492246 0.02923
C_ C_ 0.750342 0.623827 0.543881 -0.15533
C_ C_ 0.720053 0.614536 0.582313 -0.15533
C_ C_ 0.669402 0.601562 0.569072 0.02923
C_ C_ 0.652996 0.592686 0.517672 -0.15533
C_ C_ 0.681558 0.604339 0.479449 0.02923
C_ C_ 0.659504 0.611673 0.930974 0.69207
C_ C_ 0.648899 0.610319 0.665925 0.69661
C_ C_ 0.873216 0.882164 0.885973 -0.30787
C_ C_ 0.627411 0.612022 0.609466 -0.30787
N_ N_ 0.649064 0.55787 0.815121 -0.32189
N_ N_ 0.554254 0.636343 0.811919 -0.32189
N_ N_ 0.602301 0.810592 0.56111 -0.32189
N_ N_ 0.689731 0.818278 0.6474 -0.32189
N_ N_ 0.858297 0.944619 0.69778 -0.32189
N_ N_ 0.940926 0.860381 0.690461 -0.32189
N_ N_ 0.892335 0.697444 0.95671 -0.32189
N_ N_ 0.812523 0.695196 0.863211 -0.32189
O_ O_ 1.00874673 0.59381 0.895728 -0.63271
O_ O_ 0.552738 0.530611 0.847194 -0.57982
O_ O_ 0.896632 0.601106 0.841102 -0.63271
O_ O_ 0.872322 0.593764 0.921215 -0.57982
O_ O_ 0.734411 0.893401 0.592756 -0.63271
O_ O_ 0.695783 0.845251 0.533041 -0.57982
O_ O_ 0.849023 0.84237 0.596387 -0.63271
O_ O_ 0.877714 0.919654 0.592669 -0.57982
O_ O_ 0.484265 0.912976 0.602213 -0.63271
O_ O_ 0.95304 0.967023 0.654552 -0.57982
O_ O_ 0.586817 0.900177 0.649522 -0.63271
O_ O_ 0.628525 0.9165 0.584273 -0.57982
O_ O_ 0.765205 0.604258 0.916431 -0.63271
O_ O_ 0.79803 0.664805 0.969523 -0.57982
O_ O_ 0.659632 0.652362 0.904594 -0.63271
O_ O_ 0.624504 0.57918 0.916543 -0.57982
F_ F_ 0.933224 0.814238 0.92987 -0.20885
F_ F_ 0.920677 0.809492 0.843614 -0.20885
F_ F_ 0.860604 0.794192 0.891005 -0.20885
F_ F_ 0.812475 0.934491 0.825913 -0.20885
F_ F_ 0.819753 0.849094 0.808635 -0.20885
F_ F_ 0.880998 0.894124 0.797341 -0.20885
F_ F_ 0.574069 0.670387 0.560099 -0.20885
F_ F_ 0.57303 0.683351 0.640437 -0.20885
F_ F_ 0.64388 0.698567 0.604535 -0.20885
F_ F_ 0.679115 0.562978 0.672407 -0.20885
F_ F_ 0.680427 0.649029 0.684325 -0.20885
F_ F_ 0.6116 0.614469 0.699206 -0.20885
_cell_length_a 26.508
_cell_length_b 26.37200000322088
_cell_length_c 26.311999743092066
_cell_angle_alpha 93.74100058972084
_cell_angle_beta 96.04100104955006
_cell_angle_gamma 83.6869992558723
_symmetry_space_group_name_H-M         'P 1'
_symmetry_Int_Tables_number            1
loop_
_symmetry_equiv_pos_as_xyz
   'x, y, z'
                         
loop_
_atom_site_label
_atom_site_type_symbol
_atom_site_fract_x 
_atom_site_fract_y
_atom_site_fract_z
_atom_site_charge
Zn Zn 0.0848221 0.0864616 0.340375 0.83971
Zn Zn 0.157801 0.35194 0.0793894 0.83971
Zn Zn 0.410347 0.403536 0.145402 0.83971
Zn Zn 0.336807 0.150435 0.411063 0.83971
H_ H_ 0.164793 0.135946 0.300855 0.10394
H_ H_ 0.240712 0.105866 0.264266 0.10394
H_ H_ 0.217341 0.439168 0.293459 0.10394
H_ H_ 0.13226 0.988525 0.322933 0.10394
H_ H_ 0.528242 0.0868416 0.244306 0.10394
H_ H_ 0.492327 0.156261 0.193972 0.10394
H_ H_ 0.0451837 0.272495 0.336516 0.10394
H_ H_ 0.0795034 0.191512 0.376077 0.10394
H_ H_ 0.0356892 0.44855 0.387075 0.10394
H_ H_ 0.48787 0.37847 0.394334 0.10394
H_ H_ 0.352196 0.487077 0.391083 0.10394
H_ H_ 0.0754227 0.314279 0.127921 0.10394
H_ H_ 0.50129 0.258129 0.0926338 0.10394
H_ H_ 0.0347266 0.286804 0.445908 0.10394
H_ H_ 0.126448 0.30015 0.981233 0.10394
H_ H_ 0.209805 0.251257 0.0982189 0.10394
H_ H_ 0.252879 0.20757 0.171464 0.10394
H_ H_ 0.219643 0.333425 0.268218 0.10394
H_ H_ 0.175192 0.382014 0.194221 0.10394
H_ H_ 0.219893 0.356747 0.442907 0.10394
H_ H_ 0.28381 0.353512 0.37834 0.10394
H_ H_ 0.395192 0.412577 0.487199 0.10394
H_ H_ 0.303122 0.387058 0.155264 0.10394
H_ H_ 0.234256 0.436002 0.20039 0.10394
H_ H_ 0.334042 0.0500505 0.274993 0.10394
H_ H_ 0.41172 0.477904 0.227245 0.10394
H_ H_ 0.0124986 0.395167 0.204382 0.10394
H_ H_ 0.0535202 0.318001 0.24724 0.10394
H_ H_ 0.402055 0.238293 0.218093 0.10394
H_ H_ 0.3648 0.316223 0.172901 0.10394
H_ H_ 0.458041 0.0501396 0.0960101 0.10394
H_ H_ 0.0158944 0.116507 0.100421 0.10394
H_ H_ 0.142084 0.00574767 0.0901321 0.10394
H_ H_ 0.43698 0.162678 0.391221 0.10394
H_ H_ 0.00771065 0.20799 0.442905 0.10394
H_ H_ 0.409163 0.285396 0.0324088 0.10394
H_ H_ 0.3437 0.229261 0.50323 0.10394
H_ H_ 0.232738 0.198764 0.388657 0.10394
H_ H_ 0.196057 0.250744 0.315116 0.10394
H_ H_ 0.327831 0.230946 0.24762 0.10394
H_ H_ 0.374022 0.186311 0.323904 0.10394
H_ H_ 0.272913 0.132879 0.049916 0.10394
H_ H_ 0.222908 0.129882 0.116988 0.10394
H_ H_ 0.0949473 0.103795 0.00734844 0.10394
C_ C_ 0.172779 0.0965684 0.294839 0.18167
C_ C_ 0.219052 0.0770411 0.275378 -0.15533
C_ C_ 0.230169 0.0257303 0.266132 0.02923
C_ C_ 0.209348 0.478303 0.291099 -0.15533
C_ C_ 0.154584 0.0135522 0.307233 0.18167
C_ C_ 0.0228374 0.146605 0.265509 0.18167
C_ C_ 0.504514 0.16575 0.234775 -0.15533
C_ C_ 0.00439725 0.239303 0.271647 0.02923
C_ C_ 0.0382274 0.237043 0.315618 -0.15533
C_ C_ 0.0594974 0.19237 0.337176 0.18167
C_ C_ 0.0023699999999999832 0.0491343 0.35776 0.69207
C_ C_ 0.474345 0.507368 0.377647 0.02923
C_ C_ 0.495096 0.455701 0.382162 -0.15533
C_ C_ 0.467967 0.41663 0.393037 -0.15533
C_ C_ 0.414113 0.427606 0.392658 0.02923
C_ C_ 0.393052 0.479269 0.392902 -0.15533
C_ C_ 0.423625 0.518468 0.387781 0.02923
C_ C_ 0.395835 0.0689047 0.378801 0.69207
C_ C_ 0.407031 0.330493 0.391456 0.69661
C_ C_ 0.0668476 0.307523 0.0874724 0.18167
C_ C_ 0.0208423 0.287606 0.0720429 -0.15533
C_ C_ 0.0123553 0.27131 0.0201205 0.02923
C_ C_ 0.0432708 0.294899 0.485467 -0.15533
C_ C_ 0.0952725 0.299853 0.00467286 0.18167
C_ C_ 0.209012 0.27025 0.134313 0.18167
C_ C_ 0.231541 0.243602 0.175571 -0.15533
C_ C_ 0.230372 0.2643 0.224674 0.02923
C_ C_ 0.21166 0.316657 0.230132 -0.15533
C_ C_ 0.188433 0.342807 0.188668 0.18167
C_ C_ 0.237361 0.373947 0.0377488 0.69207
C_ C_ 0.278235 0.375934 0.503625 0.02923
C_ C_ 0.261917 0.363368 0.454102 -0.15533
C_ C_ 0.292766 0.370696 0.414491 -0.15533
C_ C_ 0.341989 0.389638 0.425627 0.02923
C_ C_ 0.358268 0.399561 0.479129 -0.15533
C_ C_ 0.32848 0.39089 0.518032 0.02923
C_ C_ 0.348063 0.374154 0.0648773 0.69207
C_ C_ 0.357369 0.383684 0.328394 0.69661
C_ C_ 0.311548 0.417126 0.179111 0.18167
C_ C_ 0.274211 0.442809 0.208263 -0.15533
C_ C_ 0.287063 0.481195 0.241889 0.02923
C_ C_ 0.324164 0.0196708 0.247666 -0.15533
C_ C_ 0.373492 0.466719 0.221538 0.18167
C_ C_ 0.486992 0.339371 0.192661 0.18167
C_ C_ 0.0131081 0.321941 0.235715 -0.15533
C_ C_ 0.477477 0.259945 0.226494 0.02923
C_ C_ 0.424841 0.268416 0.209833 -0.15533
C_ C_ 0.407296 0.307854 0.179361 0.18167
C_ C_ 0.49031 0.443753 0.115662 0.69207
C_ C_ 0.0203194 0.991402 0.1166 0.02923
C_ C_ 0.0011699999999998933 0.0416312 0.114239 -0.15533
C_ C_ 0.0320597 0.079155 0.105415 -0.15533
C_ C_ 0.0841595 0.070156 0.104141 0.02923
C_ C_ 0.105092 0.0196948 0.106671 -0.15533
C_ C_ 0.0743397 0.980685 0.112238 0.02923
C_ C_ 0.0991142 0.431516 0.108909 0.69207
C_ C_ 0.0898507 0.16986 0.110225 0.69661
C_ C_ 0.432364 0.185316 0.42483 0.18167
C_ C_ 0.475723 0.203326 0.453472 -0.15533
C_ C_ 0.469716 0.238795 0.495178 0.02923
C_ C_ 0.417093 0.253653 0.00678344 -0.15533
C_ C_ 0.378641 0.228319 0.48414 0.18167
C_ C_ 0.2528 0.200853 0.354221 0.18167
C_ C_ 0.228304 0.225055 0.309474 -0.15533
C_ C_ 0.254148 0.234407 0.269416 0.02923
C_ C_ 0.308395 0.218049 0.274574 -0.15533
C_ C_ 0.333192 0.19638 0.31919 0.18167
C_ C_ 0.262068 0.113448 0.444455 0.69207
C_ C_ 0.217363 0.12122 0.98922 0.02923
C_ C_ 0.236013 0.127418 0.0398642 -0.15533
C_ C_ 0.20558 0.121632 0.0784755 -0.15533
C_ C_ 0.155993 0.110574 0.0699717 0.02923
C_ C_ 0.137849 0.102947 0.0188153 -0.15533
C_ C_ 0.167056 0.108848 0.97831 0.02923
C_ C_ 0.152286 0.0966751 0.415647 0.69207
C_ C_ 0.145942 0.108374 0.168733 0.69661
C_ C_ 0.380601 0.383045 0.385198 -0.30787
C_ C_ 0.11898 0.114504 0.112193 -0.30787
N_ N_ 0.140098 0.0647701 0.305939 -0.32189
N_ N_ 0.0509999 0.147114 0.310102 -0.32189
N_ N_ 0.101107 0.314633 0.0537291 -0.32189
N_ N_ 0.188766 0.321049 0.139521 -0.32189
N_ N_ 0.359904 0.429217 0.187124 -0.32189
N_ N_ 0.437699 0.344026 0.172362 -0.32189
N_ N_ 0.386379 0.190857 0.445441 -0.32189
N_ N_ 0.305551 0.188461 0.357406 -0.32189
O_ O_ 0.501546 0.0828466 0.393665 -0.63271
O_ O_ 0.0402822 0.0397268 0.32741 -0.57982
O_ O_ 0.390454 0.0936163 0.336167 -0.63271
O_ O_ 0.367867 0.0855293 0.415019 -0.57982
O_ O_ 0.237735 0.401049 0.0805577 -0.63271
O_ O_ 0.202734 0.341335 0.0298311 -0.57982
O_ O_ 0.34791 0.334394 0.0910593 -0.63271
O_ O_ 0.3845 0.404506 0.0809741 -0.57982
O_ O_ 0.991275 0.419362 0.101829 -0.63271
O_ O_ 0.452804 0.454094 0.145731 -0.57982
O_ O_ 0.0920311 0.400543 0.144193 -0.63271
O_ O_ 0.130678 0.415969 0.0755807 -0.57982
O_ O_ 0.260314 0.0911263 0.398397 -0.63271
O_ O_ 0.296965 0.142976 0.457639 -0.57982
O_ O_ 0.155269 0.141131 0.397469 -0.63271
O_ O_ 0.112427 0.0735801 0.40054 -0.57982
F_ F_ 0.438035 0.329078 0.436715 -0.20885
F_ F_ 0.435475 0.310229 0.351696 -0.20885
F_ F_ 0.375735 0.292691 0.39251 -0.20885
F_ F_ 0.317065 0.422816 0.324449 -0.20885
F_ F_ 0.338343 0.340034 0.309504 -0.20885
F_ F_ 0.393901 0.39233 0.296687 -0.20885
F_ F_ 0.0624528 0.179289 0.0652798 -0.20885
F_ F_ 0.0572241 0.183732 0.146949 -0.20885
F_ F_ 0.125198 0.204378 0.114592 -0.20885
F_ F_ 0.180989 0.06591 0.170992 -0.20885
F_ F_ 0.172087 0.149191 0.188377 -0.20885
F_ F_ 0.110664 0.106051 0.201287 -0.20885
Zn Zn 0.0818386 0.086928 0.84614 0.83971
Zn Zn 0.163045 0.346492 0.582719 0.83971
Zn Zn 0.408465 0.425161 0.657177 0.83971
Zn Zn 0.332412 0.157002 0.909932 0.83971
H_ H_ 0.163174 0.133521 0.802235 0.10394
H_ H_ 0.24169 0.095437 0.762754 0.10394
H_ H_ 0.215696 0.457156 0.800729 0.10394
H_ H_ 0.119247 0.985961 0.81406 0.10394
H_ H_ 0.523223 0.0993199 0.74625 0.10394
H_ H_ 0.481953 0.175919 0.698784 0.10394
H_ H_ 0.0325624 0.271499 0.834409 0.10394
H_ H_ 0.0572922 0.192653 0.883209 0.10394
H_ H_ 0.0393581 0.446569 0.885059 0.10394
H_ H_ 0.486603 0.36769 0.877491 0.10394
H_ H_ 0.361366 0.48471 0.912385 0.10394
H_ H_ 0.0917603 0.300911 0.626992 0.10394
H_ H_ 0.501861 0.261591 0.597535 0.10394
H_ H_ 0.0414242 0.273145 0.946012 0.10394
H_ H_ 0.108607 0.334258 0.479143 0.10394
H_ H_ 0.226322 0.249001 0.584856 0.10394
H_ H_ 0.269853 0.199088 0.656023 0.10394
H_ H_ 0.24521 0.330544 0.756431 0.10394
H_ H_ 0.188566 0.373028 0.684663 0.10394
H_ H_ 0.215541 0.375923 0.935709 0.10394
H_ H_ 0.270553 0.387459 0.868544 0.10394
H_ H_ 0.398262 0.385278 0.980538 0.10394
H_ H_ 0.304925 0.410286 0.66346 0.10394
H_ H_ 0.231008 0.459023 0.693426 0.10394
H_ H_ 0.327414 0.0448038 0.784676 0.10394
H_ H_ 0.40332 0.513719 0.733578 0.10394
H_ H_ 0.019124 0.380399 0.685957 0.10394
H_ H_ 0.0559107 0.299101 0.722448 0.10394
H_ H_ 0.405938 0.253368 0.712291 0.10394
H_ H_ 0.36842 0.332705 0.681675 0.10394
H_ H_ 0.460231 0.0577955 0.625488 0.10394
H_ H_ 0.0164242 0.119932 0.605127 0.10394
H_ H_ 0.144675 0.00834567 0.582346 0.10394
H_ H_ 0.443912 0.149574 0.900057 0.10394
H_ H_ 0.0115495 0.183903 0.96156 0.10394
H_ H_ 0.416574 0.2769 0.538818 0.10394
H_ H_ 0.338079 0.247191 -0.016074000000000033 0.10394
H_ H_ 0.229508 0.197473 0.87143 0.10394
H_ H_ 0.196224 0.24593 0.80093 0.10394
H_ H_ 0.343309 0.221043 0.741329 0.10394
H_ H_ 0.381229 0.19291 0.825265 0.10394
H_ H_ 0.290182 0.105219 0.545003 0.10394
H_ H_ 0.231318 0.106109 0.614016 0.10394
H_ H_ 0.106101 0.0816917 0.500793 0.10394
C_ C_ 0.172029 0.0931033 0.797276 0.18167
C_ C_ 0.21538 0.0720398 0.775451 -0.15533
C_ C_ 0.224102 0.0207657 0.766344 0.02923
C_ C_ 0.206654 0.498382 0.800696 -0.15533
C_ C_ 0.147173 0.0105023 0.803775 0.18167
C_ C_ 0.0329165 0.137899 0.765097 0.18167
C_ C_ 0.499498 0.180682 0.737634 -0.15533
C_ C_ 0.0075778 0.22942 0.763493 0.02923
C_ C_ 0.0275025 0.235171 0.81553 -0.15533
C_ C_ 0.0444084 0.191707 0.840719 0.18167
C_ C_ 0.0013499999999999623 0.0464627 0.874856 0.69207
C_ C_ 0.481246 0.498414 0.883232 0.02923
C_ C_ 0.500671 0.447972 0.880695 -0.15533
C_ C_ 0.470149 0.409051 0.881967 -0.15533
C_ C_ 0.416411 0.421451 0.88963 0.02923
C_ C_ 0.398273 0.472801 0.897147 -0.15533
C_ C_ 0.428031 0.509612 0.8857 0.02923
C_ C_ 0.393465 0.0689942 0.875953 0.69207
C_ C_ 0.401246 0.321352 0.877766 0.69661
C_ C_ 0.0753883 0.298883 0.587708 0.18167
C_ C_ 0.0246388 0.286919 0.571369 -0.15533
C_ C_ 0.00963016 0.280133 0.517547 0.02923
C_ C_ 0.0483916 0.28069 0.987307 -0.15533
C_ C_ 0.0854967 0.321173 0.5052 0.18167
C_ C_ 0.228268 0.265829 0.624691 0.18167
C_ C_ 0.251967 0.23743 0.663932 -0.15533
C_ C_ 0.245743 0.258134 0.714981 0.02923
C_ C_ 0.227308 0.310097 0.724628 -0.15533
C_ C_ 0.206134 0.333895 0.680882 0.18167
C_ C_ 0.243501 0.370846 0.543531 0.69207
C_ C_ 0.274222 0.375088 -0.001587000000000005 0.02923
C_ C_ 0.255177 0.37444 0.945165 -0.15533
C_ C_ 0.28627 0.382951 0.906975 -0.15533
C_ C_ 0.338999 0.383857 0.919729 0.02923
C_ C_ 0.356441 0.388053 0.973775 -0.15533
C_ C_ 0.325697 0.376781 0.0108253 0.02923
C_ C_ 0.355563 0.391676 0.571312 0.69207
C_ C_ 0.351835 0.38672 0.826503 0.69661
C_ C_ 0.311498 0.441989 0.687646 0.18167
C_ C_ 0.269368 0.46925 0.70827 -0.15533
C_ C_ 0.277336 0.5072 0.748408 0.02923
C_ C_ 0.320057 0.0142823 0.752945 -0.15533
C_ C_ 0.366409 0.498594 0.72979 0.18167
C_ C_ 0.48816 0.360088 0.698753 0.18167
C_ C_ 0.015543 0.307438 0.718574 -0.15533
C_ C_ 0.485714 0.273626 0.727064 0.02923
C_ C_ 0.432085 0.281503 0.712846 -0.15533
C_ C_ 0.407672 0.328928 0.695899 0.18167
C_ C_ 0.481839 0.461128 0.61467 0.69207
C_ C_ 0.0285641 0.994262 0.622019 0.02923
C_ C_ 0.00677053 0.0443351 0.617441 -0.15533
C_ C_ 0.0348033 0.0817147 0.604484 -0.15533
C_ C_ 0.0855804 0.0699771 0.593248 0.02923
C_ C_ 0.104652 0.0176543 0.590508 -0.15533
C_ C_ 0.0761519 0.980648 0.606701 0.02923
C_ C_ 0.101992 0.427809 0.615774 0.69207
C_ C_ 0.097999 0.165245 0.591093 0.69661
C_ C_ 0.435891 0.17579 0.932928 0.18167
C_ C_ 0.476181 0.200887 0.957811 -0.15533
C_ C_ 0.468885 0.240278 0.994133 0.02923
C_ C_ 0.421781 0.251227 0.509085 -0.15533
C_ C_ 0.377565 0.229177 0.979081 0.18167
C_ C_ 0.255329 0.19894 0.842829 0.18167
C_ C_ 0.235196 0.222579 0.798853 -0.15533
C_ C_ 0.265877 0.225558 0.758827 0.02923
C_ C_ 0.317233 0.2098 0.766067 -0.15533
C_ C_ 0.338758 0.192226 0.814283 0.18167
C_ C_ 0.249999 0.130133 0.946591 0.69207
C_ C_ 0.229987 0.0981917 0.483138 0.02923
C_ C_ 0.249557 0.0984733 0.53547 -0.15533
C_ C_ 0.215632 0.102827 0.574592 -0.15533
C_ C_ 0.163816 0.0973939 0.56023 0.02923
C_ C_ 0.146888 0.0868738 0.508415 -0.15533
C_ C_ 0.17678 0.0908997 0.470142 0.02923
C_ C_ 0.140266 0.11032 0.925547 0.69207
C_ C_ 0.146866 0.112831 0.657852 0.69661
C_ C_ 0.378947 0.379362 0.88016 -0.30787
C_ C_ 0.123569 0.109591 0.597357 -0.30787
N_ N_ 0.137741 0.0628962 0.807586 -0.32189
N_ N_ 0.0497011 0.144976 0.814897 -0.32189
N_ N_ 0.105313 0.316048 0.553927 -0.32189
N_ N_ 0.19903 0.310067 0.634538 -0.32189
N_ N_ 0.35922 0.457328 0.698767 -0.32189
N_ N_ 0.437554 0.364637 0.682878 -0.32189
N_ N_ 0.387617 0.193788 0.940777 -0.32189
N_ N_ 0.306251 0.184528 0.851001 -0.32189
O_ O_ 0.510401 0.0821193 0.897833 -0.63271
O_ O_ 0.0360171 0.0393165 0.842979 -0.57982
O_ O_ 0.400332 0.095657 0.838407 -0.63271
O_ O_ 0.362494 0.0880639 0.909928 -0.57982
O_ O_ 0.24713 0.395714 0.587853 -0.63271
O_ O_ 0.206293 0.342727 0.532002 -0.57982
O_ O_ 0.357765 0.351037 0.59571 -0.63271
O_ O_ 0.375616 0.431495 0.593812 -0.57982
O_ O_ 0.994947 0.411445 0.60337 -0.63271
O_ O_ 0.456793 0.467427 0.655937 -0.57982
O_ O_ 0.0984825 0.40104 0.656637 -0.63271
O_ O_ 0.137429 0.410327 0.586383 -0.57982
O_ O_ 0.248765 0.100971 0.904653 -0.63271
O_ O_ 0.283953 0.162973 0.954663 -0.57982
O_ O_ 0.141048 0.148343 0.895728 -0.63271
O_ O_ 0.113697 0.074214 0.910108 -0.57982
F_ F_ 0.43696 0.315219 0.918997 -0.20885
F_ F_ 0.422179 0.300293 0.833689 -0.20885
F_ F_ 0.363377 0.290341 0.884292 -0.20885
F_ F_ 0.318418 0.432648 0.824594 -0.20885
F_ F_ 0.320128 0.351069 0.805717 -0.20885
F_ F_ 0.389571 0.387055 0.792019 -0.20885
F_ F_ 0.0631987 0.167938 0.549226 -0.20885
F_ F_ 0.076702 0.189996 0.633038 -0.20885
F_ F_ 0.134135 0.19591 0.576855 -0.20885
F_ F_ 0.175008 0.065504 0.665233 -0.20885
F_ F_ 0.175749 0.153472 0.674191 -0.20885
F_ F_ 0.109405 0.115929 0.690603 -0.20885
Zn Zn 0.0977501 0.578303 0.349041 0.83971
Zn Zn 0.160241 0.84375 0.082878 0.83971
Zn Zn 0.403498 0.914431 0.151659 0.83971
Zn Zn 0.341986 0.654528 0.417012 0.83971
H_ H_ 0.193038 0.622706 0.31459 0.10394
H_ H_ 0.264214 0.585728 0.270359 0.10394
H_ H_ 0.205097 0.953325 0.281645 0.10394
H_ H_ 0.141785 0.481707 0.330322 0.10394
H_ H_ 0.51728 0.59788 0.264949 0.10394
H_ H_ 0.471671 0.663606 0.21536 0.10394
H_ H_ 0.0261337 0.761155 0.358289 0.10394
H_ H_ 0.0807598 0.687875 0.394416 0.10394
H_ H_ 0.0250477 0.945013 0.356774 0.10394
H_ H_ 0.474395 0.86875 0.369554 0.10394
H_ H_ 0.350438 0.983874 0.400502 0.10394
H_ H_ 0.092354 0.794894 0.140532 0.10394
H_ H_ 0.502806 0.759559 0.0960324 0.10394
H_ H_ 0.0249058 0.80671 0.451676 0.10394
H_ H_ 0.113654 0.828006 0.990288 0.10394
H_ H_ 0.239707 0.761189 0.101265 0.10394
H_ H_ 0.271384 0.707194 0.172065 0.10394
H_ H_ 0.210541 0.830612 0.272747 0.10394
H_ H_ 0.177962 0.88 0.199754 0.10394
H_ H_ 0.216733 0.861222 0.445017 0.10394
H_ H_ 0.265068 0.876026 0.376625 0.10394
H_ H_ 0.384947 0.916955 0.488496 0.10394
H_ H_ 0.301198 0.901425 0.156981 0.10394
H_ H_ 0.229308 0.952018 0.183949 0.10394
H_ H_ 0.345861 0.530613 0.267268 0.10394
H_ H_ 0.398054 0.0129798 0.21437 0.10394
H_ H_ 0.0104585 0.886291 0.196533 0.10394
H_ H_ 0.0578328 0.81427 0.253847 0.10394
H_ H_ 0.409174 0.735674 0.202716 0.10394
H_ H_ 0.360934 0.818645 0.182623 0.10394
H_ H_ 0.461208 0.55185 0.111614 0.10394
H_ H_ 0.0313193 0.625808 0.125219 0.10394
H_ H_ 0.149723 0.505223 0.106375 0.10394
H_ H_ 0.444214 0.666945 0.388164 0.10394
H_ H_ 0.00898869 0.714188 0.44328 0.10394
H_ H_ 0.41461 0.779035 0.0403759 0.10394
H_ H_ 0.348927 0.739205 0.496959 0.10394
H_ H_ 0.248376 0.71431 0.395782 0.10394
H_ H_ 0.210219 0.758466 0.317055 0.10394
H_ H_ 0.345076 0.72307 0.247384 0.10394
H_ H_ 0.381214 0.677045 0.321594 0.10394
H_ H_ 0.297391 0.605626 0.0557902 0.10394
H_ H_ 0.246697 0.603682 0.128734 0.10394
H_ H_ 0.110217 0.594421 0.0197473 0.10394
C_ C_ 0.199157 0.581902 0.309306 0.18167
C_ C_ 0.242413 0.560047 0.286598 -0.15533
C_ C_ 0.24991 0.505954 0.275485 0.02923
C_ C_ 0.19669 0.993747 0.281551 -0.15533
C_ C_ 0.16854 0.503009 0.315922 0.18167
C_ C_ 0.0461856 0.635773 0.277038 0.18167
C_ C_ 0.498825 0.67382 0.24493 -0.15533
C_ C_ 0.0227276 0.727974 0.278282 0.02923
C_ C_ 0.0347111 0.729454 0.332027 -0.15533
C_ C_ 0.0606731 0.686156 0.354067 0.18167
C_ C_ 0.0118969 0.549808 0.372382 0.69207
C_ C_ 0.472436 0.000683849 0.368158 0.02923
C_ C_ 0.489955 0.948245 0.362921 -0.15533
C_ C_ 0.457193 0.90944 0.370508 -0.15533
C_ C_ 0.407906 0.923041 0.385591 0.02923
C_ C_ 0.390426 0.97567 0.39185 -0.15533
C_ C_ 0.420469 0.0164487 0.379805 0.02923
C_ C_ 0.397669 0.57185 0.387365 0.69207
C_ C_ 0.390231 0.824161 0.385921 0.69661
C_ C_ 0.0788199 0.792978 0.0975509 0.18167
C_ C_ 0.0327634 0.773705 0.0804896 -0.15533
C_ C_ 0.0171842 0.771386 0.027951 0.02923
C_ C_ 0.0358613 0.805847 0.490834 -0.15533
C_ C_ 0.0867091 0.818655 0.0153148 0.18167
C_ C_ 0.229369 0.773945 0.137243 0.18167
C_ C_ 0.252422 0.746101 0.177602 -0.15533
C_ C_ 0.247132 0.768367 0.228262 0.02923
C_ C_ 0.216099 0.813807 0.235341 -0.15533
C_ C_ 0.198196 0.841784 0.192804 0.18167
C_ C_ 0.24378 0.864682 0.0428065 0.69207
C_ C_ 0.275628 0.870737 0.505482 0.02923
C_ C_ 0.256099 0.869051 0.454398 -0.15533
C_ C_ 0.282801 0.881305 0.415859 -0.15533
C_ C_ 0.333868 0.888233 0.425757 0.02923
C_ C_ 0.350927 0.901477 0.47663 -0.15533
C_ C_ 0.325331 0.885333 0.516782 0.02923
C_ C_ 0.353225 0.87938 0.064031 0.69207
C_ C_ 0.347074 0.880604 0.325874 0.69661
C_ C_ 0.308352 0.932457 0.185502 0.18167
C_ C_ 0.266549 0.96289 0.200688 -0.15533
C_ C_ 0.275111 1.00302885 0.238791 0.02923
C_ C_ 0.335904 0.497479 0.245266 -0.15533
C_ C_ 0.36137 0.995759 0.21771 0.18167
C_ C_ 0.481492 0.846283 0.190624 0.18167
C_ C_ 0.0210721 0.81203 0.237112 -0.15533
C_ C_ 0.480412 0.765186 0.227474 0.02923
C_ C_ 0.428415 0.769399 0.212585 -0.15533
C_ C_ 0.402868 0.815167 0.191038 0.18167
C_ C_ 0.480544 0.949949 0.113217 0.69207
C_ C_ 0.0241237 0.499954 0.116613 0.02923
C_ C_ 0.0116257 0.551982 0.124516 -0.15533
C_ C_ 0.0448563 0.58649 0.117114 -0.15533
C_ C_ 0.0967775 0.570883 0.112482 0.02923
C_ C_ 0.111846 0.518966 0.113482 -0.15533
C_ C_ 0.076765 0.483332 0.112026 0.02923
C_ C_ 0.0963984 0.926417 0.11283 0.69207
C_ C_ 0.116087 0.664794 0.121515 0.69661
C_ C_ 0.440553 0.684254 0.426898 0.18167
C_ C_ 0.483835 0.700382 0.455018 -0.15533
C_ C_ 0.475663 0.732018 0.499068 0.02923
C_ C_ 0.420238 0.74861 0.0107925 -0.15533
C_ C_ 0.387807 0.722774 0.487903 0.18167
C_ C_ 0.264854 0.71053 0.359385 0.18167
C_ C_ 0.242439 0.733012 0.314442 -0.15533
C_ C_ 0.270925 0.737621 0.272967 0.02923
C_ C_ 0.320518 0.716304 0.274779 -0.15533
C_ C_ 0.339758 0.686318 0.315069 0.18167
C_ C_ 0.265889 0.628808 0.457084 0.69207
C_ C_ 0.234497 0.607534 0.997614 0.02923
C_ C_ 0.257341 0.6046 0.0487171 -0.15533
C_ C_ 0.228171 0.602115 0.0886549 -0.15533
C_ C_ 0.175114 0.598474 0.0788234 0.02923
C_ C_ 0.151997 0.596593 0.026411 -0.15533
C_ C_ 0.180724 0.601841 0.986007 0.02923
C_ C_ 0.154466 0.610096 0.4287 0.69207
C_ C_ 0.163842 0.608696 0.173962 0.69661
C_ C_ 0.370726 0.879663 0.382874 -0.30787
C_ C_ 0.137727 0.608054 0.120166 -0.30787
N_ N_ 0.161547 0.554244 0.320944 -0.32189
N_ N_ 0.0683409 0.641696 0.325262 -0.32189
N_ N_ 0.107657 0.807931 0.0624247 -0.32189
N_ N_ 0.203539 0.819461 0.144459 -0.32189
N_ N_ 0.355468 0.949584 0.191193 -0.32189
N_ N_ 0.429762 0.85243 0.182293 -0.32189
N_ N_ 0.393559 0.694463 0.443329 -0.32189
N_ N_ 0.312295 0.684781 0.35742 -0.32189
O_ O_ 0.50238 0.593287 0.390412 -0.63271
O_ O_ 0.0506116 0.533203 0.346569 -0.57982
O_ O_ 0.394725 0.597117 0.34631 -0.63271
O_ O_ 0.372762 0.592471 0.42562 -0.57982
O_ O_ 0.246639 0.898755 0.083526 -0.63271
O_ O_ 0.203037 0.838977 0.0321297 -0.57982
O_ O_ 0.348959 0.839175 0.0906468 -0.63271
O_ O_ 0.371916 0.920283 0.0861712 -0.57982
O_ O_ 0.987227 0.907026 0.0988036 -0.63271
O_ O_ 0.453552 0.957487 0.152425 -0.57982
O_ O_ 0.0864771 0.89624 0.14739 -0.63271
O_ O_ 0.130904 0.909653 0.0806174 -0.57982
O_ O_ 0.262853 0.606198 0.412236 -0.63271
O_ O_ 0.29952 0.660232 0.46503 -0.57982
O_ O_ 0.159334 0.647191 0.399356 -0.63271
O_ O_ 0.121351 0.57802 0.414436 -0.57982
F_ F_ 0.424732 0.82241 0.428418 -0.20885
F_ F_ 0.417999 0.80185 0.347374 -0.20885
F_ F_ 0.351647 0.794528 0.390246 -0.20885
F_ F_ 0.313313 0.924407 0.318597 -0.20885
F_ F_ 0.317994 0.842202 0.309848 -0.20885
F_ F_ 0.382805 0.882813 0.292581 -0.20885
F_ F_ 0.0891752 0.678392 0.0751893 -0.20885
F_ F_ 0.0893512 0.683864 0.160949 -0.20885
F_ F_ 0.156714 0.695504 0.125981 -0.20885
F_ F_ 0.19329 0.562867 0.184553 -0.20885
F_ F_ 0.19543 0.645451 0.191928 -0.20885
F_ F_ 0.126684 0.608658 0.209322 -0.20885
Zn Zn 0.0872716 0.589369 0.855501 0.83971
Zn Zn 0.160155 0.84107 0.586668 0.83971
Zn Zn 0.406383 0.913249 0.65367 0.83971
Zn Zn 0.343733 0.646475 0.915545 0.83971
H_ H_ 0.161219 0.641366 0.796783 0.10394
H_ H_ 0.242144 0.605312 0.757606 0.10394
H_ H_ 0.198405 0.949774 0.774951 0.10394
H_ H_ 0.136516 0.490807 0.831038 0.10394
H_ H_ 0.533156 0.589999 0.750124 0.10394
H_ H_ 0.483441 0.666256 0.704172 0.10394
H_ H_ 0.048855 0.776782 0.839029 0.10394
H_ H_ 0.089236 0.704939 0.878071 0.10394
H_ H_ 0.0273709 0.949086 0.874123 0.10394
H_ H_ 0.473806 0.878103 0.856903 0.10394
H_ H_ 0.348456 0.983294 0.888208 0.10394
H_ H_ 0.077218 0.808894 0.634725 0.10394
H_ H_ 0.506631 0.753764 0.599902 0.10394
H_ H_ 0.0336329 0.795142 0.955368 0.10394
H_ H_ 0.106717 0.836681 0.483456 0.10394
H_ H_ 0.223882 0.73774 0.596957 0.10394
H_ H_ 0.270667 0.702814 0.669874 0.10394
H_ H_ 0.231101 0.83303 0.765103 0.10394
H_ H_ 0.188585 0.874916 0.690174 0.10394
H_ H_ 0.214319 0.863437 0.937702 0.10394
H_ H_ 0.267565 0.86944 0.870358 0.10394
H_ H_ 0.390343 0.905576 0.980624 0.10394
H_ H_ 0.305094 0.898021 0.653749 0.10394
H_ H_ 0.226536 0.94887 0.685927 0.10394
H_ H_ 0.332678 0.561019 0.777935 0.10394
H_ H_ 0.399652 0.00288024 0.737709 0.10394
H_ H_ 0.0113994 0.892685 0.712759 0.10394
H_ H_ 0.0515797 0.821307 0.756875 0.10394
H_ H_ 0.419336 0.737201 0.718966 0.10394
H_ H_ 0.376609 0.812909 0.673444 0.10394
H_ H_ 0.458068 0.560409 0.599432 0.10394
H_ H_ 0.0221386 0.626081 0.618261 0.10394
H_ H_ 0.147782 0.511064 0.595449 0.10394
H_ H_ 0.443383 0.660132 0.890308 0.10394
H_ H_ 0.0188514 0.697724 0.949761 0.10394
H_ H_ 0.424241 0.761611 0.5526 0.10394
H_ H_ 0.34198 0.729188 -0.0035610000000000364 0.10394
H_ H_ 0.243662 0.684467 0.881277 0.10394
H_ H_ 0.205866 0.744548 0.815756 0.10394
H_ H_ 0.341897 0.727766 0.742392 0.10394
H_ H_ 0.384554 0.680841 0.821164 0.10394
H_ H_ 0.292288 0.622848 0.555682 0.10394
H_ H_ 0.242261 0.610063 0.623891 0.10394
H_ H_ 0.112146 0.589652 0.509882 0.10394
C_ C_ 0.175301 0.601947 0.800249 0.18167
C_ C_ 0.223216 0.582783 0.782048 -0.15533
C_ C_ 0.237547 0.530535 0.7815 0.02923
C_ C_ 0.190378 0.988928 0.780559 -0.15533
C_ C_ 0.159244 0.51763 0.818035 0.18167
C_ C_ 0.0247147 0.640781 0.784667 0.18167
C_ C_ 0.508404 0.669994 0.73854 -0.15533
C_ C_ 0.00599566 0.732744 0.775988 0.02923
C_ C_ 0.0340533 0.739229 0.82383 -0.15533
C_ C_ 0.059905 0.697353 0.848406 0.18167
C_ C_ 0.010094 0.548092 0.871847 0.69207
C_ C_ 0.470626 0.00477344 0.868465 0.02923
C_ C_ 0.488902 0.955082 0.861789 -0.15533
C_ C_ 0.459628 0.915077 0.870021 -0.15533
C_ C_ 0.410182 0.924121 0.880173 0.02923
C_ C_ 0.388894 0.974884 0.884645 -0.15533
C_ C_ 0.418141 0.0147634 0.879594 0.02923
C_ C_ 0.406688 0.563315 0.881865 0.69207
C_ C_ 0.399637 0.826802 0.89119 0.69661
C_ C_ 0.0646505 0.809124 0.594504 0.18167
C_ C_ 0.0185445 0.790211 0.575761 -0.15533
C_ C_ 0.00414494 0.786762 0.524047 0.02923
C_ C_ 0.042462 0.797592 0.994394 -0.15533
C_ C_ 0.0841508 0.817929 0.507866 0.18167
C_ C_ 0.22092 0.759444 0.636078 0.18167
C_ C_ 0.244142 0.735074 0.678596 -0.15533
C_ C_ 0.243939 0.759105 0.726229 0.02923
C_ C_ 0.225026 0.81143 0.730442 -0.15533
C_ C_ 0.199449 0.834648 0.689023 0.18167
C_ C_ 0.241662 0.862456 0.546549 0.69207
C_ C_ 0.277465 0.86921 0.000947968 0.02923
C_ C_ 0.254223 0.870208 0.948154 -0.15533
C_ C_ 0.280885 0.879416 0.908238 -0.15533
C_ C_ 0.331822 0.891491 0.917214 0.02923
C_ C_ 0.351933 0.897294 0.970687 -0.15533
C_ C_ 0.328037 0.879141 0.0101921 0.02923
C_ C_ 0.35197 0.886284 0.570468 0.69207
C_ C_ 0.349546 0.875202 0.821571 0.69661
C_ C_ 0.30923 0.930856 0.681068 0.18167
C_ C_ 0.265286 0.956193 0.699879 -0.15533
C_ C_ 0.27151 0.996019 0.740169 0.02923
C_ C_ 0.324942 0.527762 0.751107 -0.15533
C_ C_ 0.362791 0.989137 0.727284 0.18167
C_ C_ 0.489991 0.853885 0.704094 0.18167
C_ C_ 0.0143085 0.817177 0.738 -0.15533
C_ C_ 0.491533 0.765295 0.729873 0.02923
C_ C_ 0.440342 0.769359 0.713909 -0.15533
C_ C_ 0.415453 0.810269 0.686596 0.18167
C_ C_ 0.482015 0.956251 0.629516 0.69207
C_ C_ 0.0240561 0.496686 0.614455 0.02923
C_ C_ 1.0056776 0.547272 0.616456 -0.15533
C_ C_ 0.0380082 0.585162 0.615803 -0.15533
C_ C_ 0.0913588 0.572075 0.608567 0.02923
C_ C_ 0.111222 0.521076 0.606351 -0.15533
C_ C_ 0.0783279 0.482068 0.610517 0.02923
C_ C_ 0.102842 0.927816 0.614569 0.69207
C_ C_ 0.0995963 0.669656 0.599369 0.69661
C_ C_ 0.437149 0.681126 0.925171 0.18167
C_ C_ 0.476263 0.709709 0.950095 -0.15533
C_ C_ 0.469986 0.741284 -0.007048000000000054 0.02923
C_ C_ 0.42772 0.744084 0.514672 -0.15533
C_ C_ 0.381092 0.72242 0.985763 0.18167
C_ C_ 0.264065 0.688589 0.84819 0.18167
C_ C_ 0.24192 0.722179 0.809589 -0.15533
C_ C_ 0.268864 0.731012 0.769862 0.02923
C_ C_ 0.320421 0.714735 0.772804 -0.15533
C_ C_ 0.343827 0.688623 0.817422 0.18167
C_ C_ 0.267316 0.614016 0.957458 0.69207
C_ C_ 0.230868 0.621039 0.4955 0.02923
C_ C_ 0.251432 0.618779 0.547083 -0.15533
C_ C_ 0.221841 0.610808 0.585206 -0.15533
C_ C_ 0.171142 0.600981 0.573447 0.02923
C_ C_ 0.153774 0.592761 0.519387 -0.15533
C_ C_ 0.180659 0.609426 0.482837 0.02923
C_ C_ 0.151717 0.603501 0.932395 0.69207
C_ C_ 0.150202 0.611714 0.66616 0.69661
C_ C_ 0.372499 0.879573 0.8766 -0.30787
C_ C_ 0.12789 0.613319 0.608651 -0.30787
N_ N_ 0.144715 0.568438 0.817851 -0.32189
N_ N_ 0.0512815 0.649615 0.82985 -0.32189
N_ N_ 0.0982977 0.818801 0.559816 -0.32189
N_ N_ 0.197065 0.807835 0.640583 -0.32189
N_ N_ 0.356428 0.951485 0.690541 -0.32189
N_ N_ 0.441853 0.851322 0.683105 -0.32189
N_ N_ 0.390947 0.688779 0.945368 -0.32189
N_ N_ 0.314883 0.678398 0.855295 -0.32189
O_ O_ 0.507928 0.583258 0.898803 -0.63271
O_ O_ 0.0473394 0.539024 0.842587 -0.57982
O_ O_ 0.402309 0.58471 0.837035 -0.63271
O_ O_ 0.382847 0.586387 0.918853 -0.57982
O_ O_ 0.241965 0.892045 0.587318 -0.63271
O_ O_ 0.203778 0.832671 0.537301 -0.57982
O_ O_ 0.360911 0.843289 0.591153 -0.63271
O_ O_ 0.379722 0.922715 0.588875 -0.57982
O_ O_ 1.00057 0.90689 0.614791 -0.63271
O_ O_ 0.4478 0.965081 0.66131 -0.57982
O_ O_ 0.102376 0.906988 0.658521 -0.63271
O_ O_ 0.134821 0.907001 0.582917 -0.57982
O_ O_ 0.268044 0.584687 0.915234 -0.63271
O_ O_ 0.301553 0.647871 0.965409 -0.57982
O_ O_ 0.157668 0.641184 0.905585 -0.63271
O_ O_ 0.116949 0.57253 0.918591 -0.57982
F_ F_ 0.433316 0.829018 0.933485 -0.20885
F_ F_ 0.428606 0.803892 0.851461 -0.20885
F_ F_ 0.36743 0.791766 0.903604 -0.20885
F_ F_ 0.314439 0.92005 0.815656 -0.20885
F_ F_ 0.322637 0.832213 0.811379 -0.20885
F_ F_ 0.382767 0.870779 0.785481 -0.20885
F_ F_ 0.0672626 0.668825 0.554785 -0.20885
F_ F_ 0.0705153 0.694643 0.639271 -0.20885
F_ F_ 0.137894 0.699687 0.594654 -0.20885
F_ F_ 0.176804 0.565364 0.678166 -0.20885
F_ F_ 0.18292 0.647976 0.683141 -0.20885
F_ F_ 0.114755 0.615479 0.699131 -0.20885
Zn Zn 0.589212 0.0803952 0.351343 0.83971
Zn Zn 0.658503 0.339886 0.0841622 0.83971
Zn Zn 0.915041 0.425877 0.158172 0.83971
Zn Zn 0.836766 0.156185 0.419039 0.83971
H_ H_ 0.657083 0.128603 0.304539 0.10394
H_ H_ 0.734219 0.103169 0.262948 0.10394
H_ H_ 0.728343 0.458383 0.303982 0.10394
H_ H_ 0.642753 0.979275 0.337972 0.10394
H_ H_ 0.0204991 0.110494 0.242299 0.10394
H_ H_ 0.967974 0.191807 0.210531 0.10394
H_ H_ 0.516697 0.262063 0.329731 0.10394
H_ H_ 0.560199 0.188528 0.37447 0.10394
H_ H_ 0.53492 0.445868 0.377946 0.10394
H_ H_ 0.977877 0.384969 0.400397 0.10394
H_ H_ 0.85056 0.496883 0.396545 0.10394
H_ H_ 0.583315 0.289542 0.130259 0.10394
H_ H_ 0.99355632 0.284342 0.095715 0.10394
H_ H_ 0.54097 0.274514 0.44304 0.10394
H_ H_ 0.613193 0.318 0.982114 0.10394
H_ H_ 0.705224 0.238977 0.0984836 0.10394
H_ H_ 0.75347 0.197584 0.175292 0.10394
H_ H_ 0.731211 0.335296 0.265362 0.10394
H_ H_ 0.688952 0.378909 0.186038 0.10394
H_ H_ 0.71656 0.35888 0.440957 0.10394
H_ H_ 0.767188 0.378803 0.376923 0.10394
H_ H_ 0.894272 0.402751 0.489961 0.10394
H_ H_ 0.813122 0.402409 0.169664 0.10394
H_ H_ 0.737742 0.463315 0.190232 0.10394
H_ H_ 0.825886 0.0512403 0.267897 0.10394
H_ H_ 0.906798 0.515895 0.243728 0.10394
H_ H_ 0.510405 0.365927 0.184273 0.10394
H_ H_ 0.546603 0.295231 0.237878 0.10394
H_ H_ 0.907337 0.264934 0.239001 0.10394
H_ H_ 0.869015 0.335483 0.188 0.10394
H_ H_ 0.961328 0.0493244 0.103667 0.10394
H_ H_ 0.515539 0.113993 0.106153 0.10394
H_ H_ 0.639053 -0.00268796 0.0807614 0.10394
H_ H_ 0.932357 0.169573 0.401042 0.10394
H_ H_ 0.513255 0.191731 0.442328 0.10394
H_ H_ 0.914292 0.278023 0.0490846 0.10394
H_ H_ 0.847132 0.227661 0.516593 0.10394
H_ H_ 0.734671 0.196831 0.387232 0.10394
H_ H_ 0.693763 0.238845 0.308359 0.10394
H_ H_ 0.840796 0.223075 0.252196 0.10394
H_ H_ 0.878247 0.189968 0.331767 0.10394
H_ H_ 0.783035 0.104852 0.0457443 0.10394
H_ H_ 0.727447 0.0934321 0.110936 0.10394
H_ H_ 0.599384 0.0903241 -0.0020860000000000323 0.10394
C_ C_ 0.671358 0.0890691 0.299393 0.18167
C_ C_ 0.713168 0.0737987 0.275019 -0.15533
C_ C_ 0.728088 0.0209053 0.267055 0.02923
C_ C_ 0.709658 0.498189 0.299556 -0.15533
C_ C_ 0.661729 0.00492206 0.318294 0.18167
C_ C_ 0.526686 0.126517 0.264629 0.18167
C_ C_ -0.0039679999999999715 0.191849 0.243642 -0.15533
C_ C_ 0.499307 0.215224 0.257231 0.02923
C_ C_ 0.516502 0.223615 0.309994 -0.15533
C_ C_ 0.538969 0.182726 0.339176 0.18167
C_ C_ 0.510843 0.0374743 0.370037 0.69207
C_ C_ 0.977428 0.511958 0.384839 0.02923
C_ C_ 0.9953 0.461805 0.390208 -0.15533
C_ C_ 0.963103 0.422785 0.392295 -0.15533
C_ C_ 0.910019 0.433721 0.39512 0.02923
C_ C_ 0.891528 0.484859 0.396301 -0.15533
C_ C_ 0.923498 0.523665 0.393159 0.02923
C_ C_ 0.891722 0.0712783 0.381484 0.69207
C_ C_ 0.896969 0.338015 0.382468 0.69661
C_ C_ 0.570913 0.289509 0.0894896 0.18167
C_ C_ 0.522958 0.273486 0.0676129 -0.15533
C_ C_ 0.514364 0.265951 0.0152814 0.02923
C_ C_ 0.549908 0.279691 0.485097 -0.15533
C_ C_ 0.589769 0.302673 0.006269999999999998 0.18167
C_ C_ 0.711709 0.260259 0.135956 0.18167
C_ C_ 0.736209 0.236241 0.177893 -0.15533
C_ C_ 0.738926 0.262129 0.227466 0.02923
C_ C_ 0.722747 0.313736 0.229837 -0.15533
C_ C_ 0.703405 0.338962 0.185424 0.18167
C_ C_ 0.745603 0.361791 0.0522109 0.69207
C_ C_ 0.774109 0.373017 0.503832 0.02923
C_ C_ 0.757881 0.364767 0.451485 -0.15533
C_ C_ 0.787193 0.377818 0.414288 -0.15533
C_ C_ 0.835384 0.395827 0.426024 0.02923
C_ C_ 0.85496 0.39952 0.478819 -0.15533
C_ C_ 0.82605 0.388543 0.516743 0.02923
C_ C_ 0.861618 0.382924 0.0768315 0.69207
C_ C_ 0.85106 0.398692 0.324595 0.69661
C_ C_ 0.818425 0.439949 0.191459 0.18167
C_ C_ 0.775008 0.469533 0.207911 -0.15533
C_ C_ 0.781778 0.509287 0.24577 0.02923
C_ C_ 0.821308 0.0151921 0.24877 -0.15533
C_ C_ 0.870758 0.500895 0.232472 0.18167
C_ C_ 0.992104 0.361591 0.206857 0.18167
C_ C_ 0.508336 0.295988 0.216231 -0.15533
C_ C_ 0.981607 0.286506 0.245746 0.02923
C_ C_ 0.927867 0.296006 0.23512 -0.15533
C_ C_ 0.909071 0.332852 0.202592 0.18167
C_ C_ 0.988314 0.464427 0.125186 0.69207
C_ C_ 0.517414 0.987154 0.10784 0.02923
C_ C_ 0.499742 0.0373966 0.0984985 -0.15533
C_ C_ 0.531749 0.0758902 0.100412 -0.15533
C_ C_ 0.584085 0.0617758 0.0931341 0.02923
C_ C_ 0.601447 0.00917054 0.0910179 -0.15533
C_ C_ 0.569435 0.971522 0.101343 0.02923
C_ C_ 0.599488 0.421322 0.103727 0.69207
C_ C_ 0.596967 0.159244 0.0997003 0.69661
C_ C_ 0.928661 0.195418 0.43198 0.18167
C_ C_ 0.972482 0.216738 0.455884 -0.15533
C_ C_ 0.967306 0.250653 0.49786 0.02923
C_ C_ 0.91699 0.254941 0.0154658 -0.15533
C_ C_ 0.880998 0.227358 0.497634 0.18167
C_ C_ 0.755927 0.200906 0.354347 0.18167
C_ C_ 0.733316 0.227042 0.311464 -0.15533
C_ C_ 0.763454 0.232875 0.274078 0.02923
C_ C_ 0.816105 0.221597 0.280353 -0.15533
C_ C_ 0.835753 0.198136 0.325376 0.18167
C_ C_ 0.75462 0.12547 0.457258 0.69207
C_ C_ 0.723592 0.113674 0.985375 0.02923
C_ C_ 0.742685 0.104022 0.0348092 -0.15533
C_ C_ 0.711272 0.0982148 0.0728492 -0.15533
C_ C_ 0.660483 0.0948553 0.0600962 0.02923
C_ C_ 0.638903 0.10284 0.00992936 -0.15533
C_ C_ 0.671645 0.107449 0.97122 0.02923
C_ C_ 0.649813 0.100061 0.42934 0.69207
C_ C_ 0.646529 0.0984023 0.156146 0.69661
C_ C_ 0.872485 0.392145 0.383766 -0.30787
C_ C_ 0.622557 0.102519 0.100888 -0.30787
N_ N_ 0.645097 0.054551 0.318384 -0.32189
N_ N_ 0.547058 0.135774 0.314503 -0.32189
N_ N_ 0.604543 0.303426 0.0576064 -0.32189
N_ N_ 0.694744 0.310687 0.141925 -0.32189
N_ N_ 0.865049 0.458481 0.200901 -0.32189
N_ N_ 0.941628 0.36545 0.191107 -0.32189
N_ N_ 0.884822 0.199519 0.453389 -0.32189
N_ N_ 0.805463 0.182508 0.358581 -0.32189
O_ O_ -0.0064269999999999605 0.095678 0.378738 -0.63271
O_ O_ 0.548827 0.029329 0.340853 -0.57982
O_ O_ 0.878503 0.0931508 0.33714 -0.63271
O_ O_ 0.868778 0.0915682 0.422079 -0.57982
O_ O_ 0.748604 0.383733 0.0978488 -0.63271
O_ O_ 0.705991 0.336314 0.0371664 -0.57982
O_ O_ 0.857009 0.346459 0.105857 -0.63271
O_ O_ 0.879003 0.42542 0.0954854 -0.57982
O_ O_ 0.499387 0.395826 0.0953698 -0.63271
O_ O_ 0.958781 0.472699 0.160875 -0.57982
O_ O_ 0.591406 0.393976 0.140331 -0.63271
O_ O_ 0.636398 0.406342 0.0790386 -0.57982
O_ O_ 0.75592 0.0933227 0.416996 -0.63271
O_ O_ 0.787076 0.158431 0.464373 -0.57982
O_ O_ 0.645058 0.141972 0.40392 -0.63271
O_ O_ 0.614563 0.069649 0.414206 -0.57982
F_ F_ 0.925666 0.329069 0.428871 -0.20885
F_ F_ 0.932239 0.33277 0.346544 -0.20885
F_ F_ 0.860992 0.30301 0.374753 -0.20885
F_ F_ 0.81451 0.439467 0.318958 -0.20885
F_ F_ 0.831244 0.35507 0.29855 -0.20885
F_ F_ 0.890785 0.408035 0.296464 -0.20885
F_ F_ 0.566116 0.165173 0.0569195 -0.20885
F_ F_ 0.56817 0.179633 0.139492 -0.20885
F_ F_ 0.634804 0.193613 0.098383 -0.20885
F_ F_ 0.677365 0.0539214 0.167001 -0.20885
F_ F_ 0.674703 0.137721 0.171085 -0.20885
F_ F_ 0.609497 0.100877 0.189598 -0.20885
Zn Zn 0.580558 0.0854845 0.843601 0.83971
Zn Zn 0.656493 0.347112 0.579834 0.83971
Zn Zn 0.911973 0.420041 0.653226 0.83971
Zn Zn 0.835607 0.158807 0.912943 0.83971
H_ H_ 0.661322 0.135071 0.801476 0.10394
H_ H_ 0.748543 0.0959013 0.776135 0.10394
H_ H_ 0.707449 0.444867 0.789958 0.10394
H_ H_ 0.623596 0.984556 0.819664 0.10394
H_ H_ 0.0408394 0.100991 0.745387 0.10394
H_ H_ 1.00885 0.176873 0.694717 0.10394
H_ H_ 0.545011 0.26832 0.821836 0.10394
H_ H_ 0.558124 0.197423 0.872826 0.10394
H_ H_ 0.541683 0.439842 0.885213 0.10394
H_ H_ 0.981447 0.380199 0.8904 0.10394
H_ H_ 0.857802 0.501465 0.914562 0.10394
H_ H_ 0.579063 0.296717 0.632307 0.10394
H_ H_ -0.000114781 0.275897 0.598742 0.10394
H_ H_ 0.540344 0.279139 0.942485 0.10394
H_ H_ 0.616206 0.310742 0.478665 0.10394
H_ H_ 0.715946 0.261145 0.596572 0.10394
H_ H_ 0.773061 0.217702 0.664903 0.10394
H_ H_ 0.703586 0.334142 0.767566 0.10394
H_ H_ 0.673796 0.381952 0.692877 0.10394
H_ H_ 0.716059 0.371326 0.952359 0.10394
H_ H_ 0.766113 0.3827 0.884371 0.10394
H_ H_ 0.89156 0.416352 0.994754 0.10394
H_ H_ 0.810199 0.387752 0.663731 0.10394
H_ H_ 0.735387 0.439099 0.684093 0.10394
H_ H_ 0.829109 0.0488438 0.777015 0.10394
H_ H_ 0.900897 0.499935 0.726971 0.10394
H_ H_ 0.511127 0.390044 0.691096 0.10394
H_ H_ 0.552974 0.30742 0.725365 0.10394
H_ H_ 0.906864 0.255545 0.735544 0.10394
H_ H_ 0.872279 0.331287 0.686383 0.10394
H_ H_ 0.96544 0.0539585 0.62343 0.10394
H_ H_ 0.514687 0.124667 0.615752 0.10394
H_ H_ 0.635602 0.0078065 0.583134 0.10394
H_ H_ 0.939571 0.1696 0.895677 0.10394
H_ H_ 0.514381 0.182308 0.952717 0.10394
H_ H_ 0.913061 0.280268 0.552226 0.10394
H_ H_ 0.83542 0.240194 -0.000587381 0.10394
H_ H_ 0.738442 0.208651 0.88789 0.10394
H_ H_ 0.691064 0.244317 0.806335 0.10394
H_ H_ 0.834742 0.216713 0.738348 0.10394
H_ H_ 0.873976 0.183481 0.81887 0.10394
H_ H_ 0.775731 0.143216 0.559901 0.10394
H_ H_ 0.727438 0.105817 0.625142 0.10394
H_ H_ 0.602926 0.0841604 0.511011 0.10394
C_ C_ 0.67292 0.0937666 0.798012 0.18167
C_ C_ 0.721399 0.0708275 0.783347 -0.15533
C_ C_ 0.728478 0.0179909 0.774128 0.02923
C_ C_ 0.699189 0.485631 0.789122 -0.15533
C_ C_ 0.650065 0.00893421 0.806972 0.18167
C_ C_ 0.517607 0.138339 0.765317 0.18167
C_ C_ 0.0133671 0.180422 0.737967 -0.15533
C_ C_ 0.509561 0.230199 0.755265 0.02923
C_ C_ 0.531226 0.235047 0.805795 -0.15533
C_ C_ 0.547682 0.192629 0.834658 0.18167
C_ C_ 0.506647 0.0441022 0.864137 0.69207
C_ C_ 0.976637 0.508706 0.883227 0.02923
C_ C_ 0.998438 0.458013 0.887421 -0.15533
C_ C_ 0.966222 0.419921 0.889878 -0.15533
C_ C_ 0.91416 0.431876 0.899864 0.02923
C_ C_ 0.895836 0.485604 0.90303 -0.15533
C_ C_ 0.924239 0.522403 0.889308 0.02923
C_ C_ 0.891215 0.0729226 0.891125 0.69207
C_ C_ 0.899314 0.333437 0.893356 0.69661
C_ C_ 0.566494 0.299597 0.591478 0.18167
C_ C_ 0.524446 0.275927 0.570875 -0.15533
C_ C_ 0.514579 0.265577 0.515925 0.02923
C_ C_ 0.547958 0.278788 0.983845 -0.15533
C_ C_ 0.591623 0.298559 0.506066 0.18167
C_ C_ 0.722992 0.280828 0.634184 0.18167
C_ C_ 0.749563 0.252489 0.674386 -0.15533
C_ C_ 0.741055 0.269932 0.724899 0.02923
C_ C_ 0.714806 0.31797 0.732075 -0.15533
C_ C_ 0.691348 0.343523 0.689486 0.18167
C_ C_ 0.737271 0.367362 0.542103 0.69207
C_ C_ 0.778754 0.377693 1.0135677 0.02923
C_ C_ 0.75876 0.374208 0.961155 -0.15533
C_ C_ 0.787682 0.382729 0.922097 -0.15533
C_ C_ 0.838072 0.39626 0.934321 0.02923
C_ C_ 0.858698 0.400433 0.98538 -0.15533
C_ C_ 0.832525 0.386661 0.0243783 0.02923
C_ C_ 0.846788 0.391269 0.571018 0.69207
C_ C_ 0.853155 0.395699 0.836736 0.69661
C_ C_ 0.814 0.420965 0.68556 0.18167
C_ C_ 0.770663 0.446378 0.707361 -0.15533
C_ C_ 0.778526 0.487314 0.744243 0.02923
C_ C_ 0.824149 0.0131903 0.753759 -0.15533
C_ C_ 0.865948 0.480516 0.727812 0.18167
C_ C_ 0.994475 0.350926 0.694458 0.18167
C_ C_ 0.513519 0.313706 0.718079 -0.15533
C_ C_ 0.983581 0.274227 0.736092 0.02923
C_ C_ 0.93221 0.284629 0.725476 -0.15533
C_ C_ 0.911498 0.326816 0.698598 0.18167
C_ C_ 0.991121 0.456782 0.628558 0.69207
C_ C_ 0.518315 0.995148 0.622265 0.02923
C_ C_ 0.498745 0.0469497 0.620633 -0.15533
C_ C_ 0.530784 0.086744 0.6149 -0.15533
C_ C_ 0.58191 0.0725524 0.604593 0.02923
C_ C_ 0.598799 0.020337 0.598981 -0.15533
C_ C_ 0.569031 0.98171 0.612215 0.02923
C_ C_ 0.591354 0.428265 0.600835 0.69207
C_ C_ 0.602724 0.168244 0.614146 0.69661
C_ C_ 0.933605 0.188463 0.933301 0.18167
C_ C_ 0.975253 0.20424 0.965521 -0.15533
C_ C_ 0.966585 0.243799 -0.000491522 0.02923
C_ C_ 0.921271 0.254054 0.520011 -0.15533
C_ C_ 0.874402 0.233298 0.987322 0.18167
C_ C_ 0.756251 0.20739 0.853038 0.18167
C_ C_ 0.733302 0.232877 0.80926 -0.15533
C_ C_ 0.762163 0.241933 0.770639 0.02923
C_ C_ 0.813037 0.218856 0.77088 -0.15533
C_ C_ 0.834342 0.1938 0.813655 0.18167
C_ C_ 0.758144 0.119701 0.94629 0.69207
C_ C_ 0.721259 0.119785 0.498594 0.02923
C_ C_ 0.737091 0.130982 0.551252 -0.15533
C_ C_ 0.710415 0.112644 0.587313 -0.15533
C_ C_ 0.659548 0.101574 0.575218 0.02923
C_ C_ 0.641696 0.0937221 0.520709 -0.15533
C_ C_ 0.671731 0.102302 0.482953 0.02923
C_ C_ 0.648507 0.107097 0.918846 0.69207
C_ C_ 0.647457 0.108455 0.671061 0.69661
C_ C_ 0.876089 0.390144 0.892297 -0.30787
C_ C_ 0.62094 0.110705 0.615403 -0.30787
N_ N_ 0.637892 0.0606997 0.806211 -0.32189
N_ N_ 0.545743 0.145757 0.810914 -0.32189
N_ N_ 0.601507 0.308124 0.559063 -0.32189
N_ N_ 0.691283 0.322141 0.641634 -0.32189
N_ N_ 0.859207 0.439741 0.693776 -0.32189
N_ N_ 0.942115 0.360024 0.68097 -0.32189
N_ N_ 0.884408 0.200289 0.947477 -0.32189
N_ N_ 0.805838 0.189649 0.854615 -0.32189
O_ O_ -0.003738000000000019 0.0900182 0.903009 -0.63271
O_ O_ 0.538367 0.0370603 0.82968 -0.57982
O_ O_ 0.884544 0.089818 0.845036 -0.63271
O_ O_ 0.867022 0.0948016 0.927682 -0.57982
O_ O_ 0.744002 0.386019 0.588938 -0.63271
O_ O_ 0.698249 0.341029 0.52906 -0.57982
O_ O_ 0.854985 0.347694 0.594723 -0.63271
O_ O_ 0.874319 0.427247 0.589007 -0.57982
O_ O_ 0.476466 0.418535 0.587829 -0.63271
O_ O_ 0.951034 0.470858 0.653809 -0.57982
O_ O_ 0.586789 0.401322 0.640448 -0.63271
O_ O_ 0.628872 0.41149 0.571108 -0.57982
O_ O_ 0.755158 0.09331 0.903405 -0.63271
O_ O_ 0.787447 0.157691 0.952636 -0.57982
O_ O_ 0.649045 0.148684 0.896667 -0.63271
O_ O_ 0.613107 0.0766924 0.904644 -0.57982
F_ F_ 0.935257 0.329167 0.935309 -0.20885
F_ F_ 0.923794 0.317692 0.850811 -0.20885
F_ F_ 0.865488 0.297369 0.888391 -0.20885
F_ F_ 0.822273 0.441828 0.833152 -0.20885
F_ F_ 0.824765 0.357261 0.818453 -0.20885
F_ F_ 0.888704 0.39958 0.800141 -0.20885
F_ F_ 0.569966 0.16942 0.56897 -0.20885
F_ F_ 0.571518 0.186311 0.65219 -0.20885
F_ F_ 0.637787 0.204335 0.615775 -0.20885
F_ F_ 0.677084 0.0633241 0.680704 -0.20885
F_ F_ 0.678325 0.146048 0.689674 -0.20885
F_ F_ 0.61229 0.114437 0.704518 -0.20885
Zn Zn 0.587187 0.587576 0.350482 0.83971
Zn Zn 0.66113 0.841272 0.0843708 0.83971
Zn Zn 0.909242 0.912416 0.162444 0.83971
Zn Zn 0.842141 0.660827 0.4157 0.83971
H_ H_ 0.661751 0.639872 0.30795 0.10394
H_ H_ 0.738642 0.609877 0.262451 0.10394
H_ H_ 0.710146 0.946113 0.281807 0.10394
H_ H_ 0.642292 0.488627 0.334931 0.10394
H_ H_ 0.0469901 0.59705 0.257409 0.10394
H_ H_ 1.0107384 0.676048 0.211526 0.10394
H_ H_ 0.527094 0.774236 0.325503 0.10394
H_ H_ 0.57738 0.707439 0.373358 0.10394
H_ H_ 0.52816 0.938589 0.354502 0.10394
H_ H_ 0.977696 0.879922 0.386104 0.10394
H_ H_ 0.850249 0.99225 0.397578 0.10394
H_ H_ 0.586092 0.792791 0.12882 0.10394
H_ H_ 1.0128485 0.761879 0.111247 0.10394
H_ H_ 0.518476 0.805134 0.454686 0.10394
H_ H_ 0.61033 0.831901 0.979328 0.10394
H_ H_ 0.715809 0.744647 0.0959642 0.10394
H_ H_ 0.769371 0.706183 0.16604 0.10394
H_ H_ 0.728694 0.835897 0.267277 0.10394
H_ H_ 0.678642 0.875359 0.193283 0.10394
H_ H_ 0.709699 0.898217 0.449293 0.10394
H_ H_ 0.765115 0.891195 0.380833 0.10394
H_ H_ 0.894324 0.906703 0.492847 0.10394
H_ H_ 0.806691 0.890453 0.170306 0.10394
H_ H_ 0.727668 0.941661 0.191424 0.10394
H_ H_ 0.832018 0.563323 0.280515 0.10394
H_ H_ 0.901021 0.99960056 0.235586 0.10394
H_ H_ 0.5045 0.871585 0.177873 0.10394
H_ H_ 0.548324 0.803952 0.228675 0.10394
H_ H_ 0.920745 0.757488 0.266457 0.10394
H_ H_ 0.877237 0.818423 0.201777 0.10394
H_ H_ 0.971208 0.567356 0.131487 0.10394
H_ H_ 0.516168 0.61698 0.109351 0.10394
H_ H_ 0.650424 0.506612 0.103853 0.10394
H_ H_ 0.940476 0.670374 0.40206 0.10394
H_ H_ 0.521751 0.692489 0.439123 0.10394
H_ H_ 0.922748 0.784283 0.0536763 0.10394
H_ H_ 0.839768 0.733006 0.507006 0.10394
H_ H_ 0.739096 0.689112 0.374998 0.10394
H_ H_ 0.699199 0.723445 0.294551 0.10394
H_ H_ 0.846485 0.732203 0.245959 0.10394
H_ H_ 0.889333 0.695742 0.324125 0.10394
H_ H_ 0.792773 0.607834 0.0693295 0.10394
H_ H_ 0.734043 0.606455 0.129789 0.10394
H_ H_ 0.613238 0.591186 0.0110698 0.10394
C_ C_ 0.671327 0.600394 0.298756 0.18167
C_ C_ 0.718496 0.582427 0.279208 -0.15533
C_ C_ 0.737895 0.530597 0.277509 0.02923
C_ C_ 0.701554 0.985794 0.288972 -0.15533
C_ C_ 0.663341 0.514842 0.318326 0.18167
C_ C_ 0.524888 0.636376 0.274276 0.18167
C_ C_ 0.0235165 0.679485 0.252101 -0.15533
C_ C_ 0.5025 0.725577 0.259577 0.02923
C_ C_ 0.529935 0.737496 0.307829 -0.15533
C_ C_ 0.55392 0.697407 0.338728 0.18167
C_ C_ 0.50891 0.547105 0.369598 0.69207
C_ C_ 0.968062 0.00804403 0.36383 0.02923
C_ C_ -0.01296799999999998 0.956524 0.366158 -0.15533
C_ C_ 0.959749 0.919004 0.384983 -0.15533
C_ C_ 0.909668 0.930313 0.392491 0.02923
C_ C_ 0.891092 0.982311 0.396174 -0.15533
C_ C_ 0.919712 0.0209931 0.384284 0.02923
C_ C_ 0.897882 0.576954 0.387349 0.69207
C_ C_ 0.89981 0.832848 0.397336 0.69661
C_ C_ 0.573101 0.794872 0.0887473 0.18167
C_ C_ 0.524976 0.777577 0.0713088 -0.15533
C_ C_ 0.513071 0.770025 0.016457 0.02923
C_ C_ 0.539056 0.794956 0.490344 -0.15533
C_ C_ 0.586915 0.816076 0.00474346 0.18167
C_ C_ 0.718891 0.765895 0.132701 0.18167
C_ C_ 0.744822 0.740721 0.17491 -0.15533
C_ C_ 0.7436 0.765145 0.224687 0.02923
C_ C_ 0.723478 0.814119 0.23042 -0.15533
C_ C_ 0.695808 0.836672 0.188568 0.18167
C_ C_ 0.746107 0.854416 0.0492053 0.69207
C_ C_ 0.769539 0.887924 0.510883 0.02923
C_ C_ 0.749506 0.891808 0.458924 -0.15533
C_ C_ 0.781105 0.897177 0.418945 -0.15533
C_ C_ 0.835577 0.89703 0.429785 0.02923
C_ C_ 0.85451 0.899816 0.483126 -0.15533
C_ C_ 0.822098 0.892085 0.521004 0.02923
C_ C_ 0.85891 0.868109 0.0762166 0.69207
C_ C_ 0.849119 0.888663 0.331866 0.69661
C_ C_ 0.808904 0.928478 0.188656 0.18167
C_ C_ 0.764 0.957744 0.202879 -0.15533
C_ C_ 0.77061 1.00196 0.234652 0.02923
C_ C_ 0.830202 0.528182 0.254631 -0.15533
C_ C_ 0.86211 0.987666 0.226018 0.18167
C_ C_ 0.99325 0.853029 0.209745 0.18167
C_ C_ 0.507447 0.805827 0.216886 -0.15533
C_ C_ 0.997154 0.773614 0.25221 0.02923
C_ C_ 0.943296 0.778216 0.243992 -0.15533
C_ C_ 0.918872 0.814971 0.209546 0.18167
C_ C_ 0.986765 0.951865 0.125687 0.69207
C_ C_ 0.522538 0.486864 0.106488 0.02923
C_ C_ 0.501001 0.539954 0.102737 -0.15533
C_ C_ 0.532918 0.577157 0.103932 -0.15533
C_ C_ 0.586733 0.565638 0.101404 0.02923
C_ C_ 0.608272 0.514114 0.102302 -0.15533
C_ C_ 0.576215 0.474081 0.104115 0.02923
C_ C_ 0.593464 0.919665 0.107167 0.69207
C_ C_ 0.599865 0.664218 0.104869 0.69661
C_ C_ 0.934002 0.690811 0.435845 0.18167
C_ C_ 0.973711 0.717385 0.461206 -0.15533
C_ C_ 0.963698 0.752736 0.502934 0.02923
C_ C_ 0.926582 0.75339 1.0217064 -0.15533
C_ C_ 0.877073 0.728764 0.494115 0.18167
C_ C_ 0.764321 0.700794 0.346392 0.18167
C_ C_ 0.740949 0.719836 0.30314 -0.15533
C_ C_ 0.768656 0.736961 0.268201 0.02923
C_ C_ 0.82348 0.725073 0.274673 -0.15533
C_ C_ 0.847109 0.701361 0.319201 0.18167
C_ C_ 0.768974 0.625477 0.455756 0.69207
C_ C_ 0.737044 0.613699 1.00164 0.02923
C_ C_ 0.753789 0.604808 0.0536678 -0.15533
C_ C_ 0.718949 0.600929 0.0898078 -0.15533
C_ C_ 0.666087 0.599831 0.0743383 0.02923
C_ C_ 0.651962 0.598351 0.0215452 -0.15533
C_ C_ 0.682245 0.612304 0.986336 0.02923
C_ C_ 0.655113 0.610289 0.427399 0.69207
C_ C_ 0.643783 0.608037 0.171053 0.69661
C_ C_ 0.872176 0.887859 0.388321 -0.30787
C_ C_ 0.622631 0.608249 0.112371 -0.30787
N_ N_ 0.644698 0.564409 0.315412 -0.32189
N_ N_ 0.555739 0.647667 0.318466 -0.32189
N_ N_ 0.6011 0.8138 0.0557438 -0.32189
N_ N_ 0.692843 0.812447 0.141217 -0.32189
N_ N_ 0.854529 0.946352 0.195284 -0.32189
N_ N_ 0.942803 0.852967 0.196309 -0.32189
N_ N_ 0.886405 0.702665 0.44921 -0.32189
N_ N_ 0.81504 0.693277 0.355757 -0.32189
O_ O_ 0.00587188 0.59747 0.389888 -0.63271
O_ O_ 0.551246 0.53653 0.346548 -0.57982
O_ O_ 0.90253 0.602253 0.346845 -0.63271
O_ O_ 0.871484 0.598168 0.42481 -0.57982
O_ O_ 0.748528 0.877826 0.0927369 -0.63271
O_ O_ 0.704378 0.832033 0.036782 -0.57982
O_ O_ 0.853655 0.830245 0.103551 -0.63271
O_ O_ 0.876195 0.909801 0.0991595 -0.57982
O_ O_ 0.483022 0.907597 0.0871029 -0.63271
O_ O_ 0.952111 0.961657 0.156931 -0.57982
O_ O_ 0.593514 0.894105 0.148212 -0.63271
O_ O_ 0.628667 0.902884 0.0780476 -0.57982
O_ O_ 0.765188 0.601021 0.410743 -0.63271
O_ O_ 0.796077 0.664906 0.460167 -0.57982
O_ O_ 0.655798 0.653071 0.403024 -0.63271
O_ O_ 0.620733 0.57994 0.412597 -0.57982
F_ F_ 0.93601 0.838252 0.438604 -0.20885
F_ F_ 0.927661 0.814819 0.3551 -0.20885
F_ F_ 0.867001 0.798742 0.407462 -0.20885
F_ F_ 0.814396 0.931053 0.323854 -0.20885
F_ F_ 0.823418 0.846537 0.31918 -0.20885
F_ F_ 0.887252 0.887376 0.300707 -0.20885
F_ F_ 0.572973 0.67471 0.0582297 -0.20885
F_ F_ 0.569354 0.68118 0.143073 -0.20885
F_ F_ 0.635132 0.697633 0.105069 -0.20885
F_ F_ 0.680635 0.56594 0.1742 -0.20885
F_ F_ 0.67015 0.648732 0.190932 -0.20885
F_ F_ 0.60575 0.603211 0.202076 -0.20885
Zn Zn 0.594038 0.583854 0.85164 0.83971
Zn Zn 0.65771 0.851985 0.587766 0.83971
Zn Zn 0.910393 0.919853 0.65769 0.83971
Zn Zn 0.845939 0.660737 0.920983 0.83971
H_ H_ 0.682324 0.626982 0.823386 0.10394
H_ H_ 0.761083 0.588448 0.783234 0.10394
H_ H_ 0.709311 0.947659 0.797181 0.10394
H_ H_ 0.634468 0.483274 0.828644 0.10394
H_ H_ 0.0235353 0.601773 0.769231 0.10394
H_ H_ 0.979638 0.670962 0.719864 0.10394
H_ H_ 0.537649 0.766283 0.827553 0.10394
H_ H_ 0.572066 0.686245 0.874037 0.10394
H_ H_ 0.523617 0.942538 0.845792 0.10394
H_ H_ 0.981824 0.878699 0.887125 0.10394
H_ H_ 0.852534 0.985179 0.908666 0.10394
H_ H_ 0.586609 0.793607 0.633834 0.10394
H_ H_ -0.005894999999999984 0.77554 0.600316 0.10394
H_ H_ 0.529117 0.795228 0.943666 0.10394
H_ H_ 0.601664 0.841121 0.489813 0.10394
H_ H_ 0.73058 0.763678 0.599774 0.10394
H_ H_ 0.761683 0.708442 0.671111 0.10394
H_ H_ 0.711409 0.82818 0.777148 0.10394
H_ H_ 0.670284 0.878975 0.701184 0.10394
H_ H_ 0.71686 0.855503 0.945386 0.10394
H_ H_ 0.773859 0.86496 0.877091 0.10394
H_ H_ 0.891165 0.905635 0.992708 0.10394
H_ H_ 0.804688 0.894879 0.666059 0.10394
H_ H_ 0.733829 0.946877 0.695724 0.10394
H_ H_ 0.834795 0.53398 0.783362 0.10394
H_ H_ 0.897597 1.00797 0.728808 0.10394
H_ H_ 0.50607 0.890843 0.704996 0.10394
H_ H_ 0.555595 0.809642 0.74815 0.10394
H_ H_ 0.912367 0.746925 0.726048 0.10394
H_ H_ 0.873247 0.826761 0.683718 0.10394
H_ H_ 0.967753 0.558946 0.620733 0.10394
H_ H_ 0.518319 0.625479 0.600226 0.10394
H_ H_ 0.642189 0.507871 0.592082 0.10394
H_ H_ 0.944738 0.661838 0.906987 0.10394
H_ H_ 0.512576 0.703998 0.933353 0.10394
H_ H_ 0.90513 0.772673 0.557577 0.10394
H_ H_ 0.848019 0.735878 1.0105764 0.10394
H_ H_ 0.740223 0.704503 0.889849 0.10394
H_ H_ 0.698607 0.747874 0.818713 0.10394
H_ H_ 0.83735 0.723849 0.747508 0.10394
H_ H_ 0.881229 0.692211 0.82642 0.10394
H_ H_ 0.793856 0.626863 0.554707 0.10394
H_ H_ 0.739825 0.619969 0.619473 0.10394
H_ H_ 0.610881 0.586308 0.506479 0.10394
C_ C_ 0.688065 0.586428 0.813139 0.18167
C_ C_ 0.730841 0.565863 0.790175 -0.15533
C_ C_ 0.736769 0.513181 0.777683 0.02923
C_ C_ 0.697066 0.987695 0.794754 -0.15533
C_ C_ 0.655364 0.507216 0.808449 0.18167
C_ C_ 0.529658 0.627927 0.765959 0.18167
C_ C_ 0.00258687 0.681238 0.754674 -0.15533
C_ C_ 0.514474 0.720239 0.758509 0.02923
C_ C_ 0.538354 0.728965 0.810013 -0.15533
C_ C_ 0.55547 0.684659 0.834266 0.18167
C_ C_ 0.513365 0.538875 0.874287 0.69207
C_ C_ 0.968813 0.00658613 0.879904 0.02923
C_ C_ -0.01092700000000002 0.955645 0.87412 -0.15533
C_ C_ 0.961313 0.915043 0.884927 -0.15533
C_ C_ 0.909808 0.925286 0.895506 0.02923
C_ C_ 0.8897 0.978177 0.902735 -0.15533
C_ C_ 0.918278 0.0190806 0.894722 0.02923
C_ C_ 0.898159 0.573657 0.882972 0.69207
C_ C_ 0.898165 0.82496 0.886591 0.69661
C_ C_ 0.574023 0.793949 0.594656 0.18167
C_ C_ 0.531594 0.767626 0.574009 -0.15533
C_ C_ 0.516646 0.765334 0.52178 0.02923
C_ C_ 0.5438 0.790613 0.982734 -0.15533
C_ C_ 0.585488 0.814588 0.510137 0.18167
C_ C_ 0.723579 0.776723 0.638703 0.18167
C_ C_ 0.74335 0.74507 0.678894 -0.15533
C_ C_ 0.734418 0.760373 0.729485 0.02923
C_ C_ 0.706875 0.807946 0.738098 -0.15533
C_ C_ 0.685502 0.837992 0.69662 0.18167
C_ C_ 0.735357 0.871779 0.54875 0.69207
C_ C_ 0.780383 0.860602 1.00968912 0.02923
C_ C_ 0.759985 0.860979 0.957286 -0.15533
C_ C_ 0.788231 0.869656 0.918761 -0.15533
C_ C_ 0.836442 0.883941 0.930849 0.02923
C_ C_ 0.856728 0.887101 0.981846 -0.15533
C_ C_ 0.830767 0.870719 0.0219112 0.02923
C_ C_ 0.846378 0.886178 0.57424 0.69207
C_ C_ 0.845151 0.890389 0.83051 0.69661
C_ C_ 0.812113 0.927119 0.691781 0.18167
C_ C_ 0.769537 0.955183 0.709617 -0.15533
C_ C_ 0.775108 -0.004878000000000049 0.746262 0.02923
C_ C_ 0.827087 0.506156 0.75219 -0.15533
C_ C_ 0.86478 0.989691 0.726746 0.18167
C_ C_ 0.990635 0.860204 0.710876 0.18167
C_ C_ 0.516767 0.810343 0.728814 -0.15533
C_ C_ 0.98665 0.776812 0.743413 0.02923
C_ C_ 0.933441 0.780346 0.728411 -0.15533
C_ C_ 0.91227 0.82339 0.700969 0.18167
C_ C_ 0.992721 0.954299 0.630356 0.69207
C_ C_ 0.517143 0.497604 0.600129 0.02923
C_ C_ 0.49972 0.549448 0.601741 -0.15533
C_ C_ 0.533595 0.587423 0.599733 -0.15533
C_ C_ 0.587559 0.572111 0.600665 0.02923
C_ C_ 0.603713 0.520114 0.598538 -0.15533
C_ C_ 0.570251 0.483137 0.603322 0.02923
C_ C_ 0.593622 0.93001 0.61371 0.69207
C_ C_ 0.604588 0.666989 0.603227 0.69661
C_ C_ 0.940015 0.6834 0.942675 0.18167
C_ C_ 0.982411 0.704137 0.968101 -0.15533
C_ C_ 0.975761 0.741018 1.00650637 0.02923
C_ C_ 0.915561 0.753829 0.522976 -0.15533
C_ C_ 0.884935 0.728318 0.997463 0.18167
C_ C_ 0.763835 0.709433 0.859574 0.18167
C_ C_ 0.738381 0.734176 0.818357 -0.15533
C_ C_ 0.764961 0.737823 0.776179 0.02923
C_ C_ 0.815324 0.719046 0.777094 -0.15533
C_ C_ 0.840066 0.696383 0.82293 0.18167
C_ C_ 0.768765 0.628396 0.962216 0.69207
C_ C_ 0.732635 0.617593 0.492246 0.02923
C_ C_ 0.750342 0.623827 0.543881 -0.15533
C_ C_ 0.720053 0.614536 0.582313 -0.15533
C_ C_ 0.669402 0.601562 0.569072 0.02923
C_ C_ 0.652996 0.592686 0.517672 -0.15533
C_ C_ 0.681558 0.604339 0.479449 0.02923
C_ C_ 0.659504 0.611673 0.930974 0.69207
C_ C_ 0.648899 0.610319 0.665925 0.69661
C_ C_ 0.873216 0.882164 0.885973 -0.30787
C_ C_ 0.627411 0.612022 0.609466 -0.30787
N_ N_ 0.649064 0.55787 0.815121 -0.32189
N_ N_ 0.554254 0.636343 0.811919 -0.32189
N_ N_ 0.602301 0.810592 0.56111 -0.32189
N_ N_ 0.689731 0.818278 0.6474 -0.32189
N_ N_ 0.858297 0.944619 0.69778 -0.32189
N_ N_ 0.940926 0.860381 0.690461 -0.32189
N_ N_ 0.892335 0.697444 0.95671 -0.32189
N_ N_ 0.812523 0.695196 0.863211 -0.32189
O_ O_ 1.00874673 0.59381 0.895728 -0.63271
O_ O_ 0.552738 0.530611 0.847194 -0.57982
O_ O_ 0.896632 0.601106 0.841102 -0.63271
O_ O_ 0.872322 0.593764 0.921215 -0.57982
O_ O_ 0.734411 0.893401 0.592756 -0.63271
O_ O_ 0.695783 0.845251 0.533041 -0.57982
O_ O_ 0.849023 0.84237 0.596387 -0.63271
O_ O_ 0.877714 0.919654 0.592669 -0.57982
O_ O_ 0.484265 0.912976 0.602213 -0.63271
O_ O_ 0.95304 0.967023 0.654552 -0.57982
O_ O_ 0.586817 0.900177 0.649522 -0.63271
O_ O_ 0.628525 0.9165 0.584273 -0.57982
O_ O_ 0.765205 0.604258 0.916431 -0.63271
O_ O_ 0.79803 0.664805 0.969523 -0.57982
O_ O_ 0.659632 0.652362 0.904594 -0.63271
O_ O_ 0.624504 0.57918 0.916543 -0.57982
F_ F_ 0.933224 0.814238 0.92987 -0.20885
F_ F_ 0.920677 0.809492 0.843614 -0.20885
F_ F_ 0.860604 0.794192 0.891005 -0.20885
F_ F_ 0.812475 0.934491 0.825913 -0.20885
F_ F_ 0.819753 0.849094 0.808635 -0.20885
F_ F_ 0.880998 0.894124 0.797341 -0.20885
F_ F_ 0.574069 0.670387 0.560099 -0.20885
F_ F_ 0.57303 0.683351 0.640437 -0.20885
F_ F_ 0.64388 0.698567 0.604535 -0.20885
F_ F_ 0.679115 0.562978 0.672407 -0.20885
F_ F_ 0.680427 0.649029 0.684325 -0.20885
F_ F_ 0.6116 0.614469 0.699206 -0.20885
