_cell_length_a 26.508
_cell_length_b 26.37200000322088
_cell_length_c 26.311999743092066
_cell_angle_alpha 93.74100058972084
_cell_angle_beta 96.04100104955006
_cell_angle_gamma 83.6869992558723
_symmetry_space_group_name_H-M         'P 1'
_symmetry_Int_Tables_number            1
loop_
_symmetry_equiv_pos_as_xyz
   'x, y, z'
                         
loop_
_atom_site_label
_atom_site_type_symbol
_atom_site_fract_x 
_atom_site_fract_y
_atom_site_fract_z
_atom_site_charge
Zn Zn 0.0954278 0.0804468 0.348752 0.83971
Zn Zn 0.164667 0.349282 0.0825064 0.83971
Zn Zn 0.407568 0.429481 0.156721 0.83971
Zn Zn 0.338595 0.156372 0.419384 0.83971
H_ H_ 0.17854 0.124936 0.31216 0.10394
H_ H_ 0.256284 0.0940586 0.275211 0.10394
H_ H_ 0.216248 0.45147 0.293045 0.10394
H_ H_ 0.139532 0.975072 0.322747 0.10394
H_ H_ 0.529239 0.107323 0.253392 0.10394
H_ H_ 0.498249 0.184244 0.204586 0.10394
H_ H_ 0.0358519 0.270192 0.330585 0.10394
H_ H_ 0.0802359 0.193277 0.378373 0.10394
H_ H_ 0.0343602 0.439875 0.374627 0.10394
H_ H_ 0.470553 0.375254 0.36332 0.10394
H_ H_ 0.350545 0.48648 0.40547 0.10394
H_ H_ 0.0942856 0.299309 0.128452 0.10394
H_ H_ 0.503362 0.263943 0.116369 0.10394
H_ H_ 0.0431774 0.274427 0.446332 0.10394
H_ H_ 0.11466 0.328602 0.973502 0.10394
H_ H_ 0.217412 0.251971 0.100695 0.10394
H_ H_ 0.24522 0.20149 0.169056 0.10394
H_ H_ 0.23 0.3391 0.264389 0.10394
H_ H_ 0.183356 0.382121 0.190172 0.10394
H_ H_ 0.216359 0.361981 0.443554 0.10394
H_ H_ 0.269385 0.37148 0.375888 0.10394
H_ H_ 0.391343 0.393483 0.489679 0.10394
H_ H_ 0.313073 0.399801 0.168372 0.10394
H_ H_ 0.238293 0.440496 0.208348 0.10394
H_ H_ 0.340533 0.0314669 0.290924 0.10394
H_ H_ 0.394552 0.521373 0.219742 0.10394
H_ H_ 0.00574258 0.388829 0.207009 0.10394
H_ H_ 0.0472502 0.318231 0.252806 0.10394
H_ H_ 0.411379 0.255325 0.227091 0.10394
H_ H_ 0.370683 0.337151 0.192032 0.10394
H_ H_ 0.469658 0.048851 0.121298 0.10394
H_ H_ 0.0290354 0.122097 0.118936 0.10394
H_ H_ 0.148548 0.00391682 0.0962332 0.10394
H_ H_ 0.446677 0.163841 0.401141 0.10394
H_ H_ 0.0111331 0.192081 0.439783 0.10394
H_ H_ 0.415399 0.288499 0.0487516 0.10394
H_ H_ 0.339213 0.235824 0.503191 0.10394
H_ H_ 0.237901 0.207184 0.390357 0.10394
H_ H_ 0.200437 0.254863 0.317785 0.10394
H_ H_ 0.342482 0.20995 0.24555 0.10394
H_ H_ 0.37807 0.178107 0.328311 0.10394
H_ H_ 0.292362 0.125949 0.0629375 0.10394
H_ H_ 0.234115 0.113945 0.131572 0.10394
H_ H_ 0.108367 0.107837 0.0183629 0.10394
C_ C_ 0.187434 0.0860055 0.30845 0.18167
C_ C_ 0.230222 0.0668105 0.283532 -0.15533
C_ C_ 0.239166 0.0147097 0.273523 0.02923
C_ C_ 0.202856 0.492874 0.293013 -0.15533
C_ C_ 0.160333 0.00202112 0.306176 0.18167
C_ C_ 0.0281346 0.133496 0.270961 0.18167
C_ C_ 0.515629 0.188982 0.241798 -0.15533
C_ C_ 0.00963285 0.225073 0.264822 0.02923
C_ C_ 0.0391531 0.231041 0.31306 -0.15533
C_ C_ 0.0625619 0.188675 0.338193 0.18167
C_ C_ 0.016059 0.0386502 0.359518 0.69207
C_ C_ 0.467794 0.50504 0.375607 0.02923
C_ C_ 0.485879 0.451512 0.366109 -0.15533
C_ C_ 0.456356 0.412689 0.372621 -0.15533
C_ C_ 0.409502 0.423065 0.391063 0.02923
C_ C_ 0.389451 0.475645 0.394168 -0.15533
C_ C_ 0.419229 0.516104 0.390205 0.02923
C_ C_ 0.398153 0.073355 0.390772 0.69207
C_ C_ 0.397813 0.326287 0.386645 0.69661
C_ C_ 0.0796504 0.300603 0.0882852 0.18167
C_ C_ 0.0332744 0.280549 0.071872 -0.15533
C_ C_ 0.0193076 0.276394 0.0186498 0.02923
C_ C_ 0.0487335 0.278538 0.487766 -0.15533
C_ C_ 0.094042 0.316188 0.0029992 0.18167
C_ C_ 0.221809 0.270135 0.136406 0.18167
C_ C_ 0.244098 0.242457 0.177559 -0.15533
C_ C_ 0.24373 0.265414 0.225995 0.02923
C_ C_ 0.224048 0.315812 0.231495 -0.15533
C_ C_ 0.1954 0.34025 0.190216 0.18167
C_ C_ 0.246103 0.372345 0.0478126 0.69207
C_ C_ 0.271304 0.368471 0.505981 0.02923
C_ C_ 0.252318 0.368877 0.452912 -0.15533
C_ C_ 0.282255 0.378067 0.415572 -0.15533
C_ C_ 0.333255 0.389093 0.426012 0.02923
C_ C_ 0.350353 0.394491 0.479704 -0.15533
C_ C_ 0.322684 0.381161 0.51727 0.02923
C_ C_ 0.355204 0.397749 0.0709537 0.69207
C_ C_ 0.347416 0.384814 0.328013 0.69661
C_ C_ 0.316087 0.433556 0.192327 0.18167
C_ C_ 0.272683 0.459063 0.211657 -0.15533
C_ C_ 0.273189 0.506597 0.238637 0.02923
C_ C_ 0.332439 0.00713733 0.257035 -0.15533
C_ C_ 0.363786 0.498579 0.228025 0.18167
C_ C_ 0.493248 0.36517 0.207781 0.18167
C_ C_ 0.0078538 0.317521 0.239486 -0.15533
C_ C_ 0.486644 0.281631 0.243295 0.02923
C_ C_ 0.437213 0.284104 0.217303 -0.15533
C_ C_ 0.414062 0.330527 0.196309 0.18167
C_ C_ 0.48783 0.465147 0.122706 0.69207
C_ C_ 0.0267905 0.995486 0.119384 0.02923
C_ C_ 0.00894289 0.0476411 0.120205 -0.15533
C_ C_ 0.0425464 0.0832348 0.117342 -0.15533
C_ C_ 0.0955955 0.069847 0.109633 0.02923
C_ C_ 0.111439 0.0160199 0.104707 -0.15533
C_ C_ 0.0768521 0.98033 0.108294 0.02923
C_ C_ 0.0994157 0.4279 0.107927 0.69207
C_ C_ 0.112718 0.167618 0.130214 0.69661
C_ C_ 0.437478 0.18696 0.434294 0.18167
C_ C_ 0.478329 0.209658 0.460299 -0.15533
C_ C_ 0.468764 0.245501 0.501524 0.02923
C_ C_ 0.420302 0.255528 0.0222592 -0.15533
C_ C_ 0.379684 0.227188 0.492959 0.18167
C_ C_ 0.259835 0.208629 0.358018 0.18167
C_ C_ 0.237383 0.234774 0.31535 -0.15533
C_ C_ 0.266455 0.236611 0.271785 0.02923
C_ C_ 0.319296 0.217388 0.278464 -0.15533
C_ C_ 0.338619 0.191781 0.323201 0.18167
C_ C_ 0.261823 0.123404 0.457262 0.69207
C_ C_ 0.231754 0.112533 1.0011216 0.02923
C_ C_ 0.2522 0.115016 0.0516454 -0.15533
C_ C_ 0.2194 0.116394 0.0925633 -0.15533
C_ C_ 0.168602 0.104888 0.079973 0.02923
C_ C_ 0.1464 0.11458 0.029949 -0.15533
C_ C_ 0.178427 0.115287 0.989823 0.02923
C_ C_ 0.154617 0.10113 0.426888 0.69207
C_ C_ 0.161029 0.0937666 0.176511 0.69661
C_ C_ 0.372429 0.383132 0.38464 -0.30787
C_ C_ 0.134769 0.109902 0.12518 -0.30787
N_ N_ 0.15135 0.0540277 0.312104 -0.32189
N_ N_ 0.0575605 0.140258 0.315977 -0.32189
N_ N_ 0.108757 0.318655 0.053331 -0.32189
N_ N_ 0.194231 0.316056 0.14382 -0.32189
N_ N_ 0.360119 0.452453 0.202572 -0.32189
N_ N_ 0.441384 0.369957 0.191934 -0.32189
N_ N_ 0.387728 0.199103 0.448901 -0.32189
N_ N_ 0.308485 0.185991 0.35912 -0.32189
O_ O_ 0.50899 0.0897598 0.404558 -0.63271
O_ O_ 0.0550729 0.0323944 0.33344 -0.57982
O_ O_ 0.393633 0.0942844 0.347856 -0.63271
O_ O_ 0.374393 0.095702 0.427729 -0.57982
O_ O_ 0.250135 0.394573 0.0937923 -0.63271
O_ O_ 0.210457 0.342333 0.0334929 -0.57982
O_ O_ 0.358444 0.355748 0.0950989 -0.63271
O_ O_ 0.37661 0.435023 0.0937119 -0.57982
O_ O_ 0.979293 0.411921 0.0891284 -0.63271
O_ O_ 0.450818 0.477027 0.152741 -0.57982
O_ O_ 0.0962168 0.404084 0.149073 -0.63271
O_ O_ 0.13925 0.414244 0.0796723 -0.57982
O_ O_ 0.263891 0.100387 0.412228 -0.63271
O_ O_ 0.291366 0.160959 0.466908 -0.57982
O_ O_ 0.159225 0.141062 0.400806 -0.63271
O_ O_ 0.120905 0.0697656 0.410234 -0.57982
F_ F_ 0.434964 0.322912 0.427894 -0.20885
F_ F_ 0.423236 0.304236 0.345859 -0.20885
F_ F_ 0.363178 0.290855 0.391508 -0.20885
F_ F_ 0.313751 0.429946 0.324493 -0.20885
F_ F_ 0.321049 0.342228 0.3088 -0.20885
F_ F_ 0.380331 0.386266 0.292038 -0.20885
F_ F_ 0.0773367 0.181205 0.0897917 -0.20885
F_ F_ 0.0885352 0.18025 0.172955 -0.20885
F_ F_ 0.150348 0.199866 0.129574 -0.20885
F_ F_ 0.190158 0.0482356 0.170601 -0.20885
F_ F_ 0.187525 0.128418 0.204688 -0.20885
F_ F_ 0.123875 0.0864199 0.207447 -0.20885
Zn Zn 0.093561 0.0868957 0.856566 0.83971
Zn Zn 0.152323 0.34186 0.584677 0.83971
Zn Zn 0.404583 0.420364 0.654654 0.83971
Zn Zn 0.340922 0.15464 0.92533 0.83971
H_ H_ 0.164218 0.145633 0.804666 0.10394
H_ H_ 0.247422 0.114669 0.77436 0.10394
H_ H_ 0.212412 0.449418 0.799172 0.10394
H_ H_ 0.139249 0.989401 0.820124 0.10394
H_ H_ 0.535877 0.105068 0.749345 0.10394
H_ H_ 0.493583 0.173053 0.707399 0.10394
H_ H_ 0.0284889 0.271264 0.833887 0.10394
H_ H_ 0.0636278 0.192485 0.885788 0.10394
H_ H_ 0.0217566 0.432672 0.865926 0.10394
H_ H_ 0.477175 0.375078 0.880591 0.10394
H_ H_ 0.34944 0.489121 0.890919 0.10394
H_ H_ 0.0642024 0.306001 0.629152 0.10394
H_ H_ 0.496878 0.270242 0.601766 0.10394
H_ H_ 0.0307662 0.299692 0.946748 0.10394
H_ H_ 0.125687 0.299943 0.487443 0.10394
H_ H_ 0.198722 0.240587 0.613446 0.10394
H_ H_ 0.259445 0.207982 0.691449 0.10394
H_ H_ 0.207446 0.342532 0.774477 0.10394
H_ H_ 0.171645 0.383765 0.695097 0.10394
H_ H_ 0.213136 0.401486 0.949421 0.10394
H_ H_ 0.26546 0.389099 0.881007 0.10394
H_ H_ 0.400073 0.410216 0.984533 0.10394
H_ H_ 0.306157 0.392516 0.671023 0.10394
H_ H_ 0.229175 0.44194 0.70527 0.10394
H_ H_ 0.34205 0.0511052 0.794579 0.10394
H_ H_ 0.395542 0.510906 0.730311 0.10394
H_ H_ 0.0149279 0.38019 0.701797 0.10394
H_ H_ 0.0589856 0.30145 0.730654 0.10394
H_ H_ 0.409305 0.25426 0.744461 0.10394
H_ H_ 0.368161 0.330486 0.696823 0.10394
H_ H_ 0.461082 0.0627753 0.619551 0.10394
H_ H_ 0.013207 0.114413 0.603544 0.10394
H_ H_ 0.143851 -0.000783464 0.599685 0.10394
H_ H_ 0.440838 0.151708 0.915677 0.10394
H_ H_ 0.0187905 0.190033 0.952822 0.10394
H_ H_ 0.408709 0.274554 0.553877 0.10394
H_ H_ 0.339914 0.248785 -0.0016920000000000268 0.10394
H_ H_ 0.234447 0.198641 0.898117 0.10394
H_ H_ 0.195492 0.261887 0.831037 0.10394
H_ H_ 0.331573 0.23418 0.756845 0.10394
H_ H_ 0.374118 0.18997 0.836677 0.10394
H_ H_ 0.286583 0.112116 0.557875 0.10394
H_ H_ 0.235908 0.100506 0.622864 0.10394
H_ H_ 0.113514 0.0691808 0.509497 0.10394
C_ C_ 0.177629 0.105081 0.805123 0.18167
C_ C_ 0.223263 0.0872184 0.784141 -0.15533
C_ C_ 0.241587 0.0352254 0.780356 0.02923
C_ C_ 0.200007 0.490138 0.796376 -0.15533
C_ C_ 0.163885 0.0178243 0.811653 0.18167
C_ C_ 0.0309565 0.133238 0.775195 0.18167
C_ C_ 0.510734 0.181567 0.745265 -0.15533
C_ C_ 0.0146272 0.224903 0.766029 0.02923
C_ C_ 0.0341461 0.233053 0.816528 -0.15533
C_ C_ 0.0513834 0.190554 0.845098 0.18167
C_ C_ 0.0114761 0.0458191 0.873612 0.69207
C_ C_ 0.470785 0.50207 0.861987 0.02923
C_ C_ 0.491211 0.452095 0.867046 -0.15533
C_ C_ 0.461671 0.414555 0.878226 -0.15533
C_ C_ 0.408838 0.427396 0.886435 0.02923
C_ C_ 0.389017 0.478585 0.884641 -0.15533
C_ C_ 0.419359 0.516821 0.874625 0.02923
C_ C_ 0.39608 0.0732421 0.884847 0.69207
C_ C_ 0.399283 0.326189 0.889097 0.69661
C_ C_ 0.0594057 0.298294 0.590488 0.18167
C_ C_ 0.0182717 0.273664 0.570343 -0.15533
C_ C_ 0.0119186 0.261243 0.517626 0.02923
C_ C_ 0.0492948 0.292713 0.984455 -0.15533
C_ C_ 0.0950723 0.292798 0.511921 0.18167
C_ C_ 0.206721 0.265036 0.64415 0.18167
C_ C_ 0.234156 0.245837 0.690369 -0.15533
C_ C_ 0.233445 0.271433 0.739538 0.02923
C_ C_ 0.207588 0.319695 0.739602 -0.15533
C_ C_ 0.185852 0.342759 0.695033 0.18167
C_ C_ 0.234886 0.365422 0.546401 0.69207
C_ C_ 0.27712 0.389096 0.00919007 0.02923
C_ C_ 0.255902 0.395275 0.958649 -0.15533
C_ C_ 0.28646 0.394175 0.919063 -0.15533
C_ C_ 0.339909 0.394187 0.926588 0.02923
C_ C_ 0.361205 0.401476 0.977009 -0.15533
C_ C_ 0.331269 0.395975 0.0176545 0.02923
C_ C_ 0.347424 0.380897 0.570938 0.69207
C_ C_ 0.348485 0.381765 0.830589 0.69661
C_ C_ 0.307318 0.433085 0.688174 0.18167
C_ C_ 0.265873 0.45621 0.712012 -0.15533
C_ C_ 0.270372 0.502724 0.740684 0.02923
C_ C_ 0.332724 0.0192551 0.768747 -0.15533
C_ C_ 0.357569 0.498687 0.722462 0.18167
C_ C_ 0.490648 0.352842 0.697027 0.18167
C_ C_ 0.0172436 0.30723 0.726909 -0.15533
C_ C_ 0.488027 0.275164 0.740143 0.02923
C_ C_ 0.43208 0.282837 0.729304 -0.15533
C_ C_ 0.408501 0.325066 0.70307 0.18167
C_ C_ 0.479493 0.46083 0.613729 0.69207
C_ C_ 0.0188307 0.984387 0.610312 0.02923
C_ C_ 0.0006500000000000394 0.0377393 0.613172 -0.15533
C_ C_ 0.0334216 0.0746483 0.605087 -0.15533
C_ C_ 0.0856189 0.0638075 0.603508 0.02923
C_ C_ 0.104144 0.0109318 0.602948 -0.15533
C_ C_ 0.0721085 0.971806 0.606286 0.02923
C_ C_ 0.0884481 0.422431 0.61431 0.69207
C_ C_ 0.101386 0.159928 0.598573 0.69661
C_ C_ 0.43747 0.180242 0.947216 0.18167
C_ C_ 0.478631 0.200275 0.97282 -0.15533
C_ C_ 0.47079 0.239812 1.00915822 0.02923
C_ C_ 0.419397 0.253236 0.520305 -0.15533
C_ C_ 0.379199 0.234332 0.994515 0.18167
C_ C_ 0.255446 0.210838 0.870309 0.18167
C_ C_ 0.230883 0.240418 0.828861 -0.15533
C_ C_ 0.25734 0.245907 0.785916 0.02923
C_ C_ 0.308144 0.226666 0.787175 -0.15533
C_ C_ 0.331866 0.202191 0.831489 0.18167
C_ C_ 0.265962 0.12259 0.961633 0.69207
C_ C_ 0.226977 0.112616 0.495266 0.02923
C_ C_ 0.246653 0.110198 0.546979 -0.15533
C_ C_ 0.216704 0.101366 0.582693 -0.15533
C_ C_ 0.164995 0.0941271 0.569288 0.02923
C_ C_ 0.150922 0.0810576 0.517215 -0.15533
C_ C_ 0.179928 0.0983352 0.479366 0.02923
C_ C_ 0.154275 0.114455 0.93502 0.69207
C_ C_ 0.147341 0.107323 0.664362 0.69661
C_ C_ 0.375754 0.381903 0.883882 -0.30787
C_ C_ 0.124048 0.106453 0.608111 -0.30787
N_ N_ 0.149749 0.0685643 0.819717 -0.32189
N_ N_ 0.0528699 0.142083 0.823682 -0.32189
N_ N_ 0.0996255 0.303066 0.563058 -0.32189
N_ N_ 0.184811 0.315142 0.648415 -0.32189
N_ N_ 0.353736 0.453665 0.694695 -0.32189
N_ N_ 0.437658 0.359243 0.684286 -0.32189
N_ N_ 0.388807 0.197562 0.95657 -0.32189
N_ N_ 0.305094 0.19441 0.871234 -0.32189
O_ O_ 0.511194 0.0938747 0.895062 -0.63271
O_ O_ 0.0531662 0.0341154 0.850487 -0.57982
O_ O_ 0.395622 0.1023 0.848158 -0.63271
O_ O_ 0.376097 0.0914104 0.927978 -0.57982
O_ O_ 0.242794 0.383266 0.594442 -0.63271
O_ O_ 0.194532 0.343622 0.532879 -0.57982
O_ O_ 0.344333 0.340589 0.599688 -0.63271
O_ O_ 0.369795 0.419479 0.590452 -0.57982
O_ O_ 0.98396 0.405171 0.60212 -0.63271
O_ O_ 0.449989 0.467294 0.650645 -0.57982
O_ O_ 0.0883631 0.397914 0.655594 -0.63271
O_ O_ 0.117672 0.405947 0.580281 -0.57982
O_ O_ 0.26788 0.0969567 0.917761 -0.63271
O_ O_ 0.298855 0.157223 0.973366 -0.57982
O_ O_ 0.151737 0.154557 0.907431 -0.63271
O_ O_ 0.123518 0.0807213 0.918517 -0.57982
F_ F_ 0.427211 0.317628 0.933697 -0.20885
F_ F_ 0.43074 0.308103 0.852081 -0.20885
F_ F_ 0.365093 0.290811 0.888589 -0.20885
F_ F_ 0.314715 0.425309 0.821063 -0.20885
F_ F_ 0.319308 0.341382 0.816204 -0.20885
F_ F_ 0.385689 0.378999 0.796023 -0.20885
F_ F_ 0.0711583 0.163122 0.551658 -0.20885
F_ F_ 0.0696855 0.178531 0.635431 -0.20885
F_ F_ 0.137391 0.194364 0.59642 -0.20885
F_ F_ 0.176689 0.0628349 0.674122 -0.20885
F_ F_ 0.173759 0.149407 0.678877 -0.20885
F_ F_ 0.110502 0.106835 0.700852 -0.20885
Zn Zn 0.0848002 0.584613 0.344662 0.83971
Zn Zn 0.155659 0.84732 0.0809972 0.83971
Zn Zn 0.415673 0.912977 0.155287 0.83971
Zn Zn 0.333901 0.653066 0.412347 0.83971
H_ H_ 0.149584 0.636289 0.285231 0.10394
H_ H_ 0.231213 0.605988 0.250043 0.10394
H_ H_ 0.206231 0.94322 0.274995 0.10394
H_ H_ 0.139429 0.485723 0.334338 0.10394
H_ H_ 0.525276 0.594307 0.243305 0.10394
H_ H_ 0.513404 0.673091 0.19173 0.10394
H_ H_ 0.0341314 0.770237 0.332447 0.10394
H_ H_ 0.0706145 0.695943 0.376621 0.10394
H_ H_ 0.0383947 0.93371 0.35112 0.10394
H_ H_ 0.476468 0.877656 0.378859 0.10394
H_ H_ 0.353837 0.992318 0.413494 0.10394
H_ H_ 0.0743334 0.813096 0.134302 0.10394
H_ H_ 0.509407 0.771486 0.0999629 0.10394
H_ H_ 0.0331401 0.788963 0.442982 0.10394
H_ H_ 0.1111 0.822281 0.981441 0.10394
H_ H_ 0.212709 0.749654 0.0955012 0.10394
H_ H_ 0.253 0.70211 0.171067 0.10394
H_ H_ 0.216379 0.834841 0.266533 0.10394
H_ H_ 0.186006 0.881227 0.190498 0.10394
H_ H_ 0.214635 0.863752 0.448336 0.10394
H_ H_ 0.270121 0.877447 0.380591 0.10394
H_ H_ 0.394906 0.899833 0.49512 0.10394
H_ H_ 0.314395 0.896656 0.159522 0.10394
H_ H_ 0.239285 0.940958 0.194639 0.10394
H_ H_ 0.324217 0.562372 0.264982 0.10394
H_ H_ 0.411949 -0.0043919999999999515 0.240477 0.10394
H_ H_ 0.0163852 0.889738 0.203404 0.10394
H_ H_ 0.0584281 0.8165 0.244789 0.10394
H_ H_ 0.423955 0.759007 0.252663 0.10394
H_ H_ 0.379321 0.830822 0.204433 0.10394
H_ H_ 0.468149 0.568442 0.119121 0.10394
H_ H_ 0.0068864 0.617292 0.0821235 0.10394
H_ H_ 0.148997 0.510066 0.0975326 0.10394
H_ H_ 0.437229 0.66377 0.38694 0.10394
H_ H_ 0.0181411 0.687068 0.448881 0.10394
H_ H_ 0.423703 0.781765 0.0416957 0.10394
H_ H_ 0.35455 0.714688 0.508091 0.10394
H_ H_ 0.225428 0.68977 0.380528 0.10394
H_ H_ 0.179358 0.734334 0.30839 0.10394
H_ H_ 0.327622 0.727048 0.242336 0.10394
H_ H_ 0.365052 0.683468 0.323212 0.10394
H_ H_ 0.273673 0.650882 0.0539725 0.10394
H_ H_ 0.222788 0.631375 0.117322 0.10394
H_ H_ 0.106558 0.584033 -0.0039959999999999996 0.10394
C_ C_ 0.164914 0.5948 0.286493 0.18167
C_ C_ 0.211257 0.578346 0.268291 -0.15533
C_ C_ 0.231314 0.526153 0.271146 0.02923
C_ C_ 0.204198 0.982267 0.286296 -0.15533
C_ C_ 0.158895 0.511361 0.313788 0.18167
C_ C_ 0.0308572 0.63693 0.267147 0.18167
C_ C_ 0.518567 0.677358 0.234596 -0.15533
C_ C_ 0.0132976 0.726559 0.25994 0.02923
C_ C_ 0.0284432 0.732453 0.313838 -0.15533
C_ C_ 0.0471458 0.690684 0.342132 0.18167
C_ C_ 0.0115824 0.537884 0.372729 0.69207
C_ C_ 0.471598 0.00678171 0.379161 0.02923
C_ C_ 0.492831 0.956739 0.382901 -0.15533
C_ C_ 0.461549 0.917956 0.389901 -0.15533
C_ C_ 0.408897 0.930425 0.394487 0.02923
C_ C_ 0.38977 0.982098 0.397505 -0.15533
C_ C_ 0.421231 0.0206606 0.391479 0.02923
C_ C_ 0.391545 0.568209 0.381528 0.69207
C_ C_ 0.399901 0.831734 0.401 0.69661
C_ C_ 0.0654214 0.805436 0.0929703 0.18167
C_ C_ 0.0197576 0.783118 0.0735435 -0.15533
C_ C_ 0.00951186 0.771989 0.0207799 0.02923
C_ C_ 0.04305 0.788873 0.485757 -0.15533
C_ C_ 0.0850658 0.809944 0.00757529 0.18167
C_ C_ 0.21163 0.769174 0.133227 0.18167
C_ C_ 0.230767 0.739677 0.175998 -0.15533
C_ C_ 0.228028 0.762717 0.224529 0.02923
C_ C_ 0.205522 0.812228 0.23128 -0.15533
C_ C_ 0.18685 0.839411 0.187396 0.18167
C_ C_ 0.240834 0.866492 0.0438007 0.69207
C_ C_ 0.274262 0.873623 0.510057 0.02923
C_ C_ 0.253075 0.872027 0.459637 -0.15533
C_ C_ 0.284886 0.880737 0.42139 -0.15533
C_ C_ 0.334676 0.892878 0.43124 0.02923
C_ C_ 0.353425 0.895413 0.484138 -0.15533
C_ C_ 0.323158 0.888983 0.522897 0.02923
C_ C_ 0.352879 0.876642 0.0703568 0.69207
C_ C_ 0.350332 0.882936 0.337178 0.69661
C_ C_ 0.317783 0.932403 0.180943 0.18167
C_ C_ 0.27762 0.954226 0.207749 -0.15533
C_ C_ 0.282529 0.993935 0.245321 0.02923
C_ C_ 0.322204 0.523788 0.248331 -0.15533
C_ C_ 0.373567 0.986609 0.229576 0.18167
C_ C_ 0.503487 0.849088 0.196843 0.18167
C_ C_ 0.0172291 0.816316 0.229964 -0.15533
C_ C_ 0.498442 0.771132 0.235527 0.02923
C_ C_ 0.445415 0.781534 0.231413 -0.15533
C_ C_ 0.42128 0.823038 0.208958 0.18167
C_ C_ 0.492915 0.951515 0.120859 0.69207
C_ C_ 0.0224487 0.491936 0.108708 0.02923
C_ C_ 0.0013300000000000534 0.542056 0.105834 -0.15533
C_ C_ 0.0279261 0.580366 0.0902987 -0.15533
C_ C_ 0.0824058 0.570479 0.0884129 0.02923
C_ C_ 0.106009 0.520791 0.0980841 -0.15533
C_ C_ 0.0752499 0.481496 0.104629 0.02923
C_ C_ 0.0992538 0.925662 0.109597 0.69207
C_ C_ 0.0900944 0.669544 0.0916852 0.69661
C_ C_ 0.43096 0.689663 0.417107 0.18167
C_ C_ 0.475209 0.705271 0.443794 -0.15533
C_ C_ 0.472078 0.739337 0.486319 0.02923
C_ C_ 0.430908 0.748257 0.0149367 -0.15533
C_ C_ 0.38581 0.716096 0.487376 0.18167
C_ C_ 0.246574 0.698064 0.350901 0.18167
C_ C_ 0.222063 0.725605 0.309293 -0.15533
C_ C_ 0.251626 0.734758 0.270074 0.02923
C_ C_ 0.305327 0.724644 0.275786 -0.15533
C_ C_ 0.326151 0.696444 0.319761 0.18167
C_ C_ 0.257856 0.625699 0.456865 0.69207
C_ C_ 0.222977 0.628235 0.986888 0.02923
C_ C_ 0.236863 0.635464 0.0395422 -0.15533
C_ C_ 0.206513 0.623502 0.0761317 -0.15533
C_ C_ 0.157701 0.607715 0.0624739 0.02923
C_ C_ 0.142012 0.600599 0.00879688 -0.15533
C_ C_ 0.172654 0.615327 0.97332 0.02923
C_ C_ 0.151511 0.604233 0.421592 0.69207
C_ C_ 0.135648 0.611009 0.157214 0.69661
C_ C_ 0.374615 0.885941 0.392531 -0.30787
C_ C_ 0.117761 0.613593 0.099314 -0.30787
N_ N_ 0.139773 0.561894 0.309925 -0.32189
N_ N_ 0.047193 0.641857 0.3177 -0.32189
N_ N_ 0.0991009 0.812306 0.0582294 -0.32189
N_ N_ 0.186031 0.815774 0.140121 -0.32189
N_ N_ 0.36581 0.948007 0.193945 -0.32189
N_ N_ 0.451213 0.857381 0.192124 -0.32189
N_ N_ 0.386574 0.690817 0.441042 -0.32189
N_ N_ 0.297072 0.683825 0.3529 -0.32189
O_ O_ 0.497576 0.58984 0.38609 -0.63271
O_ O_ 0.0462697 0.52873 0.340472 -0.57982
O_ O_ 0.384802 0.586939 0.336389 -0.63271
O_ O_ 0.371309 0.594256 0.420075 -0.57982
O_ O_ 0.24351 0.888573 0.0900195 -0.63271
O_ O_ 0.201639 0.838496 0.0324869 -0.57982
O_ O_ 0.350558 0.836878 0.0948463 -0.63271
O_ O_ 0.388403 0.904121 0.0882771 -0.57982
O_ O_ 0.993167 0.912772 0.0976048 -0.63271
O_ O_ 0.456906 0.962638 0.151586 -0.57982
O_ O_ 0.0964313 0.89743 0.148467 -0.63271
O_ O_ 0.126357 0.908241 0.0723012 -0.57982
O_ O_ 0.256219 0.59568 0.414463 -0.63271
O_ O_ 0.290011 0.662025 0.461911 -0.57982
O_ O_ 0.156344 0.64218 0.392571 -0.63271
O_ O_ 0.117273 0.574239 0.406181 -0.57982
F_ F_ 0.435687 0.831425 0.44313 -0.20885
F_ F_ 0.427427 0.81079 0.360866 -0.20885
F_ F_ 0.367647 0.798101 0.415369 -0.20885
F_ F_ 0.315628 0.921326 0.327225 -0.20885
F_ F_ 0.328599 0.838089 0.320736 -0.20885
F_ F_ 0.388325 0.8832 0.306636 -0.20885
F_ F_ 0.0607853 0.670908 0.0469152 -0.20885
F_ F_ 0.0637475 0.685409 0.132282 -0.20885
F_ F_ 0.123273 0.706924 0.0916617 -0.20885
F_ F_ 0.176141 0.575787 0.161942 -0.20885
F_ F_ 0.153599 0.656164 0.180309 -0.20885
F_ F_ 0.0988779 0.598593 0.189129 -0.20885
Zn Zn 0.0808703 0.577262 0.849906 0.83971
Zn Zn 0.157708 0.839885 0.582024 0.83971
Zn Zn 0.410343 0.926411 0.658446 0.83971
Zn Zn 0.345073 0.652814 0.912992 0.83971
H_ H_ 0.144979 0.628203 0.790459 0.10394
H_ H_ 0.228204 0.60394 0.761724 0.10394
H_ H_ 0.22127 0.959668 0.795949 0.10394
H_ H_ 0.128217 0.476375 0.819253 0.10394
H_ H_ 0.526136 0.6075 0.748858 0.10394
H_ H_ 0.48252 0.684353 0.705677 0.10394
H_ H_ 0.0165036 0.76182 0.824191 0.10394
H_ H_ 0.0664461 0.698278 0.869768 0.10394
H_ H_ 0.0361501 0.943238 0.870574 0.10394
H_ H_ 0.492516 0.885769 0.902196 0.10394
H_ H_ 0.355327 0.988147 0.905846 0.10394
H_ H_ 0.0797831 0.796125 0.627478 0.10394
H_ H_ 0.499632 0.766789 0.587722 0.10394
H_ H_ 0.0280091 0.794122 0.94811 0.10394
H_ H_ 0.113825 0.826275 0.483636 0.10394
H_ H_ 0.217749 0.744984 0.593629 0.10394
H_ H_ 0.261288 0.703428 0.671692 0.10394
H_ H_ 0.227003 0.842924 0.764481 0.10394
H_ H_ 0.183008 0.877568 0.686259 0.10394
H_ H_ 0.22355 0.851321 0.942165 0.10394
H_ H_ 0.277216 0.869013 0.877203 0.10394
H_ H_ 0.39898 0.893885 0.989251 0.10394
H_ H_ 0.308693 0.920395 0.661732 0.10394
H_ H_ 0.236145 0.969336 0.696527 0.10394
H_ H_ 0.32056 0.558017 0.771094 0.10394
H_ H_ 0.412447 -0.0019919999999999938 0.761187 0.10394
H_ H_ 0.0148592 0.867724 0.684319 0.10394
H_ H_ 0.0511818 0.793152 0.737561 0.10394
H_ H_ 0.403256 0.75891 0.729096 0.10394
H_ H_ 0.367798 0.839628 0.69261 0.10394
H_ H_ 0.461018 0.559671 0.611285 0.10394
H_ H_ 0.012765 0.620403 0.609795 0.10394
H_ H_ 0.138908 0.502538 0.597502 0.10394
H_ H_ 0.452485 0.650903 0.904377 0.10394
H_ H_ 0.0173299 0.702406 0.940212 0.10394
H_ H_ 0.419367 0.770727 0.537321 0.10394
H_ H_ 0.354629 0.730776 0.00314204 0.10394
H_ H_ 0.243875 0.698018 0.882038 0.10394
H_ H_ 0.201738 0.748891 0.809508 0.10394
H_ H_ 0.343771 0.713608 0.739162 0.10394
H_ H_ 0.38404 0.682586 0.819577 0.10394
H_ H_ 0.267875 0.64648 0.55766 0.10394
H_ H_ 0.231351 0.592324 0.61272 0.10394
H_ H_ 0.104927 0.579914 0.50218 0.10394
C_ C_ 0.159907 0.588015 0.789713 0.18167
C_ C_ 0.208782 0.574804 0.775639 -0.15533
C_ C_ 0.230089 0.523908 0.77637 0.02923
C_ C_ 0.211745 1.000942586 0.796288 -0.15533
C_ C_ 0.152332 0.505897 0.811084 0.18167
C_ C_ 0.0257204 0.626441 0.765534 0.18167
C_ C_ 0.502762 0.687102 0.74438 -0.15533
C_ C_ 0.00151259 0.716473 0.75797 0.02923
C_ C_ 0.0166766 0.723765 0.810554 -0.15533
C_ C_ 0.0413448 0.683529 0.838416 0.18167
C_ C_ 0.00683948 0.536003 0.869356 0.69207
C_ C_ 0.47562 0.0106572 0.875292 0.02923
C_ C_ 0.49737 0.96105 0.881031 -0.15533
C_ C_ 0.468971 0.920432 0.893233 -0.15533
C_ C_ 0.416283 0.927699 0.897181 0.02923
C_ C_ 0.394139 0.977704 0.89357 -0.15533
C_ C_ 0.422239 0.0193563 0.884186 0.02923
C_ C_ 0.39609 0.567841 0.874955 0.69207
C_ C_ 0.4074 0.831292 0.885022 0.69661
C_ C_ 0.0691235 0.794051 0.587588 0.18167
C_ C_ 0.0243541 0.776739 0.569553 -0.15533
C_ C_ 0.00791884 0.773973 0.51734 0.02923
C_ C_ 0.0394073 0.794659 0.989799 -0.15533
C_ C_ 0.0868197 0.812028 0.507094 0.18167
C_ C_ 0.216953 0.761987 0.632218 0.18167
C_ C_ 0.242508 0.740397 0.674662 -0.15533
C_ C_ 0.246665 0.765468 0.724584 0.02923
C_ C_ 0.222048 0.817176 0.728681 -0.15533
C_ C_ 0.195547 0.837703 0.685209 0.18167
C_ C_ 0.237489 0.868136 0.546068 0.69207
C_ C_ 0.275824 0.872136 0.00444046 0.02923
C_ C_ 0.259564 0.866581 0.953065 -0.15533
C_ C_ 0.292718 0.872552 0.915493 -0.15533
C_ C_ 0.340159 0.887988 0.928531 0.02923
C_ C_ 0.358456 0.890689 0.979562 -0.15533
C_ C_ 0.327246 0.883738 0.0165232 0.02923
C_ C_ 0.3506 0.888713 0.575797 0.69207
C_ C_ 0.352919 0.890931 0.830311 0.69661
C_ C_ 0.31536 0.952236 0.687542 0.18167
C_ C_ 0.274312 0.979964 0.70756 -0.15533
C_ C_ 0.283459 1.0165028 0.748113 0.02923
C_ C_ 0.317214 0.52152 0.746991 -0.15533
C_ C_ 0.374182 0.991134 0.745893 0.18167
C_ C_ 0.490135 0.861079 0.708066 0.18167
C_ C_ 0.0126985 0.797936 0.72002 -0.15533
C_ C_ 0.477905 0.780752 0.740619 0.02923
C_ C_ 0.427154 0.786618 0.720797 -0.15533
C_ C_ 0.406988 0.83326 0.699888 0.18167
C_ C_ 0.485282 0.957227 0.619555 0.69207
C_ C_ 0.0176379 0.489331 0.617467 0.02923
C_ C_ 0.99805 0.541913 0.619014 -0.15533
C_ C_ 0.0281503 0.579215 0.607395 -0.15533
C_ C_ 0.0796379 0.565118 0.598147 0.02923
C_ C_ 0.0993287 0.513226 0.601932 -0.15533
C_ C_ 0.0688071 0.474041 0.612101 0.02923
C_ C_ 0.0968379 0.918347 0.608923 0.69207
C_ C_ 0.0979524 0.661811 0.595297 0.69661
C_ C_ 0.445638 0.679692 0.934414 0.18167
C_ C_ 0.486121 0.702969 0.95983 -0.15533
C_ C_ 0.480614 0.737895 -0.00034999999999996145 0.02923
C_ C_ 0.425841 0.742801 0.507787 -0.15533
C_ C_ 0.391933 0.722327 0.990331 0.18167
C_ C_ 0.26644 0.708758 0.85388 0.18167
C_ C_ 0.241057 0.733141 0.810381 -0.15533
C_ C_ 0.270031 0.739075 0.769049 0.02923
C_ C_ 0.322626 0.7197 0.770508 -0.15533
C_ C_ 0.343072 0.69426 0.813876 0.18167
C_ C_ 0.263238 0.625009 0.951174 0.69207
C_ C_ 0.219859 0.62345 0.493066 0.02923
C_ C_ 0.23557 0.62681 0.544494 -0.15533
C_ C_ 0.208647 0.605713 0.578609 -0.15533
C_ C_ 0.158152 0.59233 0.564046 0.02923
C_ C_ 0.141556 0.590771 0.513466 -0.15533
C_ C_ 0.171022 0.606775 0.477206 0.02923
C_ C_ 0.150651 0.609145 0.919297 0.69207
C_ C_ 0.143293 0.605037 0.656766 0.69661
C_ C_ 0.378055 0.884286 0.886099 -0.30787
C_ C_ 0.117819 0.605024 0.602612 -0.30787
N_ N_ 0.133162 0.554252 0.807481 -0.32189
N_ N_ 0.0424061 0.634733 0.816016 -0.32189
N_ N_ 0.0999186 0.809824 0.558101 -0.32189
N_ N_ 0.190893 0.808427 0.639845 -0.32189
N_ N_ 0.363545 0.962637 0.700132 -0.32189
N_ N_ 0.439869 0.86795 0.689135 -0.32189
N_ N_ 0.398502 0.689437 0.949424 -0.32189
N_ N_ 0.315453 0.688412 0.853239 -0.32189
O_ O_ 0.509851 0.577702 0.894758 -0.63271
O_ O_ 0.0428613 0.525515 0.839388 -0.57982
O_ O_ 0.39639 0.592625 0.833852 -0.63271
O_ O_ 0.374779 0.586293 0.913791 -0.57982
O_ O_ 0.237541 0.897987 0.5885 -0.63271
O_ O_ 0.20386 0.835035 0.537352 -0.57982
O_ O_ 0.349971 0.848054 0.601717 -0.63271
O_ O_ 0.375241 0.925865 0.594805 -0.57982
O_ O_ 0.991932 0.903311 0.590854 -0.63271
O_ O_ 0.454798 0.968173 0.654813 -0.57982
O_ O_ 0.0962281 0.895898 0.651265 -0.63271
O_ O_ 0.131307 0.90428 0.577205 -0.57982
O_ O_ 0.259622 0.60005 0.907828 -0.63271
O_ O_ 0.301988 0.652774 0.961184 -0.57982
O_ O_ 0.147659 0.648026 0.890873 -0.63271
O_ O_ 0.123511 0.572397 0.905347 -0.57982
F_ F_ 0.440221 0.826889 0.929624 -0.20885
F_ F_ 0.437416 0.819442 0.845943 -0.20885
F_ F_ 0.379941 0.792482 0.882955 -0.20885
F_ F_ 0.309612 0.926781 0.826862 -0.20885
F_ F_ 0.338738 0.846487 0.805967 -0.20885
F_ F_ 0.38728 0.904691 0.799842 -0.20885
F_ F_ 0.0679386 0.664888 0.547943 -0.20885
F_ F_ 0.0710682 0.687217 0.632708 -0.20885
F_ F_ 0.13473 0.693478 0.591438 -0.20885
F_ F_ 0.173989 0.561277 0.671467 -0.20885
F_ F_ 0.168894 0.645939 0.673707 -0.20885
F_ F_ 0.107803 0.606588 0.691253 -0.20885
Zn Zn 0.586691 0.0893807 0.343799 0.83971
Zn Zn 0.650995 0.352958 0.0960693 0.83971
Zn Zn 0.907186 0.420088 0.156076 0.83971
Zn Zn 0.840301 0.145386 0.40764 0.83971
H_ H_ 0.658534 0.135336 0.295675 0.10394
H_ H_ 0.744166 0.10167 0.266341 0.10394
H_ H_ 0.715295 0.448902 0.301966 0.10394
H_ H_ 0.622835 0.985416 0.307455 0.10394
H_ H_ 0.0231747 0.093565 0.254529 0.10394
H_ H_ 0.971689 0.166242 0.216149 0.10394
H_ H_ 0.530257 0.274747 0.340721 0.10394
H_ H_ 0.56349 0.200846 0.383991 0.10394
H_ H_ 0.52406 0.439361 0.354616 0.10394
H_ H_ 0.983795 0.367219 0.379139 0.10394
H_ H_ 0.856083 0.481156 0.408006 0.10394
H_ H_ 0.574267 0.312648 0.147364 0.10394
H_ H_ 1.0160918 0.255042 0.0977766 0.10394
H_ H_ 0.528124 0.298492 0.452493 0.10394
H_ H_ 0.613592 0.322733 0.998836 0.10394
H_ H_ 0.720225 0.263385 0.107489 0.10394
H_ H_ 0.748311 0.207355 0.180328 0.10394
H_ H_ 0.712086 0.334099 0.285765 0.10394
H_ H_ 0.66333 0.381002 0.210405 0.10394
H_ H_ 0.719469 0.369263 0.444778 0.10394
H_ H_ 0.77341 0.370268 0.380671 0.10394
H_ H_ 0.899712 0.397351 0.493659 0.10394
H_ H_ 0.810338 0.395732 0.170079 0.10394
H_ H_ 0.737174 0.441796 0.203826 0.10394
H_ H_ 0.83444 0.0467664 0.288182 0.10394
H_ H_ 0.900744 0.510162 0.22976 0.10394
H_ H_ 0.516579 0.398641 0.209971 0.10394
H_ H_ 0.552388 0.322275 0.255761 0.10394
H_ H_ 0.906069 0.248158 0.218396 0.10394
H_ H_ 0.869971 0.329448 0.181872 0.10394
H_ H_ 0.969436 0.0605309 0.124184 0.10394
H_ H_ 0.52362 0.116808 0.102864 0.10394
H_ H_ 0.65136 0.00704331 0.089318 0.10394
H_ H_ 0.947871 0.14487 0.40064 0.10394
H_ H_ 0.516083 0.198206 0.448718 0.10394
H_ H_ 0.923057 0.283259 0.0483771 0.10394
H_ H_ 0.840736 0.237448 0.487538 0.10394
H_ H_ 0.744227 0.192216 0.387769 0.10394
H_ H_ 0.694532 0.23761 0.318576 0.10394
H_ H_ 0.830807 0.227742 0.241896 0.10394
H_ H_ 0.877517 0.177396 0.314792 0.10394
H_ H_ 0.797908 0.106234 0.0562964 0.10394
H_ H_ 0.740164 0.125414 0.12657 0.10394
H_ H_ 0.614586 0.0923264 0.0106859 0.10394
C_ C_ 0.67422 0.0957247 0.298715 0.18167
C_ C_ 0.720617 0.0757337 0.279868 -0.15533
C_ C_ 0.735193 0.0222214 0.280092 0.02923
C_ C_ 0.701863 0.487562 0.29352 -0.15533
C_ C_ 0.650728 0.00960616 0.299943 0.18167
C_ C_ 0.536086 0.145588 0.268357 0.18167
C_ C_ 0.00214025 0.17473 0.245875 -0.15533
C_ C_ 0.511153 0.236101 0.267976 0.02923
C_ C_ 0.529956 0.239176 0.319126 -0.15533
C_ C_ 0.552836 0.195818 0.343279 0.18167
C_ C_ 0.50665 0.0497805 0.371271 0.69207
C_ C_ 0.976207 0.499307 0.381731 0.02923
C_ C_ 0.996524 0.447559 0.378502 -0.15533
C_ C_ 0.968416 0.407131 0.383561 -0.15533
C_ C_ 0.915521 0.420969 0.393 0.02923
C_ C_ 0.897181 0.472795 0.401092 -0.15533
C_ C_ 0.926113 0.512245 0.39369 0.02923
C_ C_ 0.904256 0.0668571 0.371153 0.69207
C_ C_ 0.898092 0.325343 0.382735 0.69661
C_ C_ 0.56478 0.304555 0.107268 0.18167
C_ C_ 0.5245 0.278532 0.0870639 -0.15533
C_ C_ 0.514845 0.267591 0.0341858 0.02923
C_ C_ 0.539069 0.297217 0.493201 -0.15533
C_ C_ 0.590076 0.306665 0.0210507 0.18167
C_ C_ 0.71665 0.277926 0.147278 0.18167
C_ C_ 0.733473 0.246541 0.186589 -0.15533
C_ C_ 0.732753 0.267902 0.23597 0.02923
C_ C_ 0.710004 0.318023 0.245372 -0.15533
C_ C_ 0.683915 0.342531 0.204709 0.18167
C_ C_ 0.733175 0.374684 0.0553315 0.69207
C_ C_ 0.775743 0.375659 0.508861 0.02923
C_ C_ 0.755821 0.379222 0.456697 -0.15533
C_ C_ 0.788502 0.378974 0.420073 -0.15533
C_ C_ 0.840277 0.387815 0.430862 0.02923
C_ C_ 0.858091 0.390845 0.482118 -0.15533
C_ C_ 0.824994 0.386988 0.521307 0.02923
C_ C_ 0.844959 0.390765 0.0727126 0.69207
C_ C_ 0.849734 0.392314 0.332063 0.69661
C_ C_ 0.814804 0.430671 0.196149 0.18167
C_ C_ 0.772955 0.454405 0.219349 -0.15533
C_ C_ 0.777179 0.49925 0.250101 0.02923
C_ C_ 0.82618 0.0196276 0.256649 -0.15533
C_ C_ 0.865359 0.493679 0.228663 0.18167
C_ C_ 0.985187 0.357536 0.211662 0.18167
C_ C_ 0.514034 0.323919 0.239733 -0.15533
C_ C_ 0.982411 0.27414 0.238664 0.02923
C_ C_ 0.933089 0.275997 0.215656 -0.15533
C_ C_ 0.910163 0.320387 0.193141 0.18167
C_ C_ 0.989263 0.451584 0.122491 0.69207
C_ C_ 0.530592 0.989299 0.120485 0.02923
C_ C_ 0.510062 0.0406879 0.120201 -0.15533
C_ C_ 0.543149 0.0792911 0.112625 -0.15533
C_ C_ 0.594943 0.0666277 0.106782 0.02923
C_ C_ 0.61246 0.0172322 0.100857 -0.15533
C_ C_ 0.582182 0.977583 0.110133 0.02923
C_ C_ 0.600565 0.436416 0.118795 0.69207
C_ C_ 0.602151 0.165207 0.107494 0.69661
C_ C_ 0.937682 0.1714 0.429464 0.18167
C_ C_ 0.97541 0.20071 0.451636 -0.15533
C_ C_ 0.968259 0.234897 0.493841 0.02923
C_ C_ 0.92927 0.25366 0.0215901 -0.15533
C_ C_ 0.879088 0.220697 0.480175 0.18167
C_ C_ 0.761941 0.193588 0.353287 0.18167
C_ C_ 0.734615 0.219268 0.315457 -0.15533
C_ C_ 0.76029 0.23747 0.277755 0.02923
C_ C_ 0.813335 0.219384 0.275006 -0.15533
C_ C_ 0.837185 0.190365 0.313613 0.18167
C_ C_ 0.76555 0.115876 0.44918 0.69207
C_ C_ 0.735193 0.111295 0.996921 0.02923
C_ C_ 0.756354 0.111681 0.0481879 -0.15533
C_ C_ 0.724569 0.112443 0.0861315 -0.15533
C_ C_ 0.671862 0.105815 0.0748626 0.02923
C_ C_ 0.653782 0.0970185 0.0217098 -0.15533
C_ C_ 0.68332 0.107758 0.984015 0.02923
C_ C_ 0.652224 0.10672 0.421124 0.69207
C_ C_ 0.651683 0.110331 0.168518 0.69661
C_ C_ 0.87649 0.381572 0.386779 -0.30787
C_ C_ 0.630369 0.110319 0.113731 -0.30787
N_ N_ 0.640434 0.0615463 0.30685 -0.32189
N_ N_ 0.558373 0.151234 0.317209 -0.32189
N_ N_ 0.596391 0.31839 0.0730609 -0.32189
N_ N_ 0.68696 0.321316 0.155938 -0.32189
N_ N_ 0.859457 0.450943 0.19931 -0.32189
N_ N_ 0.935805 0.359664 0.18991 -0.32189
N_ N_ 0.889365 0.184987 0.439957 -0.32189
N_ N_ 0.810327 0.17489 0.348787 -0.32189
O_ O_ 0.0156287 0.0754844 0.396471 -0.63271
O_ O_ 0.539977 0.0431031 0.338707 -0.57982
O_ O_ 0.90605 0.0944095 0.330261 -0.63271
O_ O_ 0.876252 0.082799 0.40682 -0.57982
O_ O_ 0.745214 0.393308 0.101704 -0.63271
O_ O_ 0.694153 0.344966 0.0469674 -0.57982
O_ O_ 0.849259 0.346563 0.094287 -0.63271
O_ O_ 0.870896 0.427998 0.0952228 -0.57982
O_ O_ 0.495929 0.416525 0.105787 -0.63271
O_ O_ 0.960194 0.461728 0.16007 -0.57982
O_ O_ 0.591802 0.409686 0.156336 -0.63271
O_ O_ 0.636416 0.418481 0.0905772 -0.57982
O_ O_ 0.763084 0.084152 0.408028 -0.63271
O_ O_ 0.798933 0.147725 0.456883 -0.57982
O_ O_ 0.656454 0.144701 0.391697 -0.63271
O_ O_ 0.619248 0.0738069 0.404787 -0.57982
F_ F_ 0.930872 0.314463 0.42588 -0.20885
F_ F_ 0.925061 0.311193 0.341644 -0.20885
F_ F_ 0.859 0.292875 0.381769 -0.20885
F_ F_ 0.81309 0.433727 0.330628 -0.20885
F_ F_ 0.828223 0.349726 0.308233 -0.20885
F_ F_ 0.88241 0.404091 0.297737 -0.20885
F_ F_ 0.574311 0.171837 0.0618136 -0.20885
F_ F_ 0.569864 0.184519 0.143601 -0.20885
F_ F_ 0.632814 0.204349 0.104904 -0.20885
F_ F_ 0.685214 0.0672837 0.177229 -0.20885
F_ F_ 0.676665 0.151039 0.183933 -0.20885
F_ F_ 0.612307 0.110977 0.201847 -0.20885
Zn Zn 0.592825 0.0858221 0.847901 0.83971
Zn Zn 0.660937 0.344687 0.587657 0.83971
Zn Zn 0.907345 0.414352 0.658025 0.83971
Zn Zn 0.847997 0.162279 0.921565 0.83971
H_ H_ 0.684402 0.131666 0.818941 0.10394
H_ H_ 0.752943 0.101066 0.768119 0.10394
H_ H_ 0.694197 0.444886 0.775822 0.10394
H_ H_ 0.629134 0.988998 0.812255 0.10394
H_ H_ 0.0324924 0.0956108 0.755307 0.10394
H_ H_ 0.999758913 0.167168 0.708602 0.10394
H_ H_ 0.528271 0.268803 0.842676 0.10394
H_ H_ 0.568864 0.193174 0.882702 0.10394
H_ H_ 0.53038 0.440171 0.863652 0.10394
H_ H_ 0.973349 0.369968 0.885791 0.10394
H_ H_ 0.84337 0.491388 0.892764 0.10394
H_ H_ 0.576134 0.312157 0.640338 0.10394
H_ H_ -0.007688999999999946 0.26288 0.596127 0.10394
H_ H_ 0.546745 0.266955 0.961561 0.10394
H_ H_ 0.612065 0.325094 0.490821 0.10394
H_ H_ 0.746926 0.26242 0.605517 0.10394
H_ H_ 0.759676 0.203783 0.674238 0.10394
H_ H_ 0.706244 0.326137 0.774613 0.10394
H_ H_ 0.670499 0.375406 0.696432 0.10394
H_ H_ 0.707657 0.361955 0.954471 0.10394
H_ H_ 0.750345 0.385162 0.884057 0.10394
H_ H_ 0.882602 0.417956 0.990746 0.10394
H_ H_ 0.807481 0.383179 0.6675 0.10394
H_ H_ 0.733473 0.431297 0.701367 0.10394
H_ H_ 0.835212 0.0439473 0.772606 0.10394
H_ H_ 0.89886 0.502047 0.720859 0.10394
H_ H_ 0.513484 0.375272 0.677998 0.10394
H_ H_ 0.558344 0.308319 0.728727 0.10394
H_ H_ 0.911206 0.24496 0.732697 0.10394
H_ H_ 0.874809 0.316469 0.684417 0.10394
H_ H_ 0.960567 0.0505734 0.609339 0.10394
H_ H_ 0.515991 0.126081 0.602853 0.10394
H_ H_ 0.639597 0.00882522 0.581292 0.10394
H_ H_ 0.942732 0.159689 0.904818 0.10394
H_ H_ 0.517907 0.179665 0.967509 0.10394
H_ H_ 0.907061 0.275628 0.536588 0.10394
H_ H_ 0.851727 0.23887 0.0100696 0.10394
H_ H_ 0.735814 0.195764 0.887528 0.10394
H_ H_ 0.696276 0.241754 0.811221 0.10394
H_ H_ 0.835525 0.228518 0.745862 0.10394
H_ H_ 0.878238 0.184896 0.824951 0.10394
H_ H_ 0.784105 0.12862 0.548041 0.10394
H_ H_ 0.730427 0.107628 0.615345 0.10394
H_ H_ 0.605005 0.0973814 0.498657 0.10394
C_ C_ 0.686975 0.0937908 0.804182 0.18167
C_ C_ 0.728009 0.0745057 0.776172 -0.15533
C_ C_ 0.735012 0.0210995 0.762558 0.02923
C_ C_ 0.69076 0.484941 0.772973 -0.15533
C_ C_ 0.656379 0.0124409 0.801649 0.18167
C_ C_ 0.535247 0.14047 0.76935 0.18167
C_ C_ 0.0160223 0.175303 0.744466 -0.15533
C_ C_ 0.512913 0.230264 0.766641 0.02923
C_ C_ 0.530691 0.232519 0.819583 -0.15533
C_ C_ 0.550928 0.188765 0.84601 0.18167
C_ C_ 0.510201 0.0513981 0.867471 0.69207
C_ C_ 0.968281 0.499 0.876502 0.02923
C_ C_ 0.983592 0.447217 0.871361 -0.15533
C_ C_ 0.954224 0.410906 0.882801 -0.15533
C_ C_ 0.900088 0.423957 0.890233 0.02923
C_ C_ 0.883202 0.476077 0.890708 -0.15533
C_ C_ 0.916107 0.514656 0.886503 0.02923
C_ C_ 0.897399 0.0731055 0.886502 0.69207
C_ C_ 0.890883 0.326414 0.89822 0.69661
C_ C_ 0.567461 0.302056 0.598344 0.18167
C_ C_ 0.522384 0.281684 0.575926 -0.15533
C_ C_ 0.509532 0.276236 0.523861 0.02923
C_ C_ 0.546975 0.283163 1.0000785039 -0.15533
C_ C_ 0.58557 0.312882 0.514505 0.18167
C_ C_ 0.724389 0.268553 0.637715 0.18167
C_ C_ 0.744279 0.241061 0.681018 -0.15533
C_ C_ 0.738136 0.261969 0.730012 0.02923
C_ C_ 0.709682 0.309885 0.735477 -0.15533
C_ C_ 0.68944 0.337788 0.693964 0.18167
C_ C_ 0.741317 0.36298 0.547222 0.69207
C_ C_ 0.763849 0.385008 1.0141235 0.02923
C_ C_ 0.742989 0.377853 0.962912 -0.15533
C_ C_ 0.771553 0.38531 0.922083 -0.15533
C_ C_ 0.822956 0.396462 0.931158 0.02923
C_ C_ 0.842455 0.408971 0.981673 -0.15533
C_ C_ 0.816058 0.396793 0.0231416 0.02923
C_ C_ 0.849296 0.38599 0.574906 0.69207
C_ C_ 0.836665 0.384089 0.835447 0.69661
C_ C_ 0.81296 0.416886 0.691929 0.18167
C_ C_ 0.77047 0.445628 0.710589 -0.15533
C_ C_ 0.774527 0.492733 0.737831 0.02923
C_ C_ 0.827531 0.0108035 0.746191 -0.15533
C_ C_ 0.862658 0.485989 0.719266 0.18167
C_ C_ 0.991879 0.352253 0.70786 0.18167
C_ C_ 0.515055 0.312968 0.725239 -0.15533
C_ C_ 0.988314 0.267778 0.737189 0.02923
C_ C_ 0.93737 0.272225 0.719939 -0.15533
C_ C_ 0.915709 0.316167 0.694675 0.18167
C_ C_ 0.983297 0.45106 0.62633 0.69207
C_ C_ 0.519954 0.997779 0.611402 0.02923
C_ C_ 0.500275 0.0501916 0.610738 -0.15533
C_ C_ 0.531035 0.0869858 0.602613 -0.15533
C_ C_ 0.583041 0.073431 0.592733 0.02923
C_ C_ 0.599137 0.0196592 0.583772 -0.15533
C_ C_ 0.570595 0.983635 0.600673 0.02923
C_ C_ 0.593424 0.428767 0.610797 0.69207
C_ C_ 0.601323 0.170647 0.595037 0.69661
C_ C_ 0.940617 0.184752 0.939738 0.18167
C_ C_ 0.982297 0.206023 0.962055 -0.15533
C_ C_ 0.975637 0.246713 -0.0006300000000000194 0.02923
C_ C_ 0.918028 0.244703 0.509982 -0.15533
C_ C_ 0.887689 0.233344 0.994221 0.18167
C_ C_ 0.758823 0.20111 0.857906 0.18167
C_ C_ 0.734701 0.226732 0.815318 -0.15533
C_ C_ 0.76249 0.235251 0.774846 0.02923
C_ C_ 0.813966 0.21945 0.777197 -0.15533
C_ C_ 0.835948 0.19313 0.821026 0.18167
C_ C_ 0.769138 0.119575 0.956796 0.69207
C_ C_ 0.727367 0.116433 0.486449 0.02923
C_ C_ 0.746659 0.117566 0.538857 -0.15533
C_ C_ 0.714282 0.110087 0.575903 -0.15533
C_ C_ 0.661622 0.103846 0.562241 0.02923
C_ C_ 0.645231 0.0986892 0.512087 -0.15533
C_ C_ 0.676361 0.106028 0.473438 0.02923
C_ C_ 0.656343 0.114354 0.931062 0.69207
C_ C_ 0.644405 0.109826 0.656646 0.69661
C_ C_ 0.86346 0.382504 0.889129 -0.30787
C_ C_ 0.621933 0.112896 0.601053 -0.30787
N_ N_ 0.650034 0.0625139 0.812579 -0.32189
N_ N_ 0.556297 0.144126 0.819427 -0.32189
N_ N_ 0.601222 0.312561 0.565078 -0.32189
N_ N_ 0.692752 0.313422 0.646309 -0.32189
N_ N_ 0.856862 0.439876 0.695235 -0.32189
N_ N_ 0.942215 0.355517 0.690901 -0.32189
N_ N_ 0.893865 0.201224 0.95376 -0.32189
N_ N_ 0.809777 0.18763 0.861952 -0.32189
O_ O_ 0.00796879 0.0897406 0.901408 -0.63271
O_ O_ 0.547865 0.0388721 0.838581 -0.57982
O_ O_ 0.899321 0.0982045 0.847395 -0.63271
O_ O_ 0.879166 0.0964715 0.925971 -0.57982
O_ O_ 0.744294 0.389862 0.590404 -0.63271
O_ O_ 0.698275 0.341248 0.533943 -0.57982
O_ O_ 0.85402 0.342976 0.599516 -0.63271
O_ O_ 0.879369 0.421362 0.594976 -0.57982
O_ O_ 0.485642 0.4151 0.588921 -0.63271
O_ O_ 0.953705 0.462036 0.661443 -0.57982
O_ O_ 0.588388 0.406673 0.653363 -0.63271
O_ O_ 0.62892 0.409785 0.582318 -0.57982
O_ O_ 0.774575 0.085896 0.917537 -0.63271
O_ O_ 0.797953 0.15774 0.962625 -0.57982
O_ O_ 0.661544 0.156217 0.908528 -0.63271
O_ O_ 0.622094 0.0828116 0.91291 -0.57982
F_ F_ 0.924812 0.32716 0.940208 -0.20885
F_ F_ 0.911513 0.309553 0.853711 -0.20885
F_ F_ 0.855605 0.294699 0.903373 -0.20885
F_ F_ 0.801031 0.427218 0.832655 -0.20885
F_ F_ 0.808205 0.342929 0.823536 -0.20885
F_ F_ 0.865692 0.386219 0.795604 -0.20885
F_ F_ 0.567437 0.175521 0.551169 -0.20885
F_ F_ 0.573864 0.191233 0.635384 -0.20885
F_ F_ 0.638995 0.203724 0.589163 -0.20885
F_ F_ 0.67586 0.0642985 0.664503 -0.20885
F_ F_ 0.673917 0.150457 0.669522 -0.20885
F_ F_ 0.60994 0.113654 0.690825 -0.20885
Zn Zn 0.583381 0.580281 0.344335 0.83971
Zn Zn 0.668931 0.844382 0.0853903 0.83971
Zn Zn 0.910772 0.921949 0.155695 0.83971
Zn Zn 0.836185 0.649902 0.416815 0.83971
H_ H_ 0.657975 0.631806 0.297834 0.10394
H_ H_ 0.747155 0.599684 0.274487 0.10394
H_ H_ 0.709956 0.948293 0.286722 0.10394
H_ H_ 0.634247 0.485933 0.33372 0.10394
H_ H_ 0.0314948 0.600288 0.247461 0.10394
H_ H_ 0.99511368 0.672112 0.201388 0.10394
H_ H_ 0.544789 0.762077 0.336697 0.10394
H_ H_ 0.564097 0.681738 0.377563 0.10394
H_ H_ 0.533012 0.946706 0.378921 0.10394
H_ H_ 0.987302 0.870236 0.373913 0.10394
H_ H_ 0.863316 0.9876 0.397068 0.10394
H_ H_ 0.586032 0.808337 0.127062 0.10394
H_ H_ 0.996697 0.772661 0.103633 0.10394
H_ H_ 0.541129 0.781048 0.434014 0.10394
H_ H_ 0.621262 0.822034 0.97943 0.10394
H_ H_ 0.72783 0.73977 0.0963604 0.10394
H_ H_ 0.763824 0.691114 0.175798 0.10394
H_ H_ 0.731579 0.827454 0.266809 0.10394
H_ H_ 0.679541 0.864355 0.192347 0.10394
H_ H_ 0.723176 0.836068 0.437361 0.10394
H_ H_ 0.779567 0.847053 0.372021 0.10394
H_ H_ 0.883575 0.920964 0.478108 0.10394
H_ H_ 0.808345 0.900875 0.164034 0.10394
H_ H_ 0.73438 0.945028 0.202751 0.10394
H_ H_ 0.836209 0.547898 0.289113 0.10394
H_ H_ 0.903189 1.00474571 0.23667 0.10394
H_ H_ 0.526195 0.878594 0.185901 0.10394
H_ H_ 0.568145 0.805674 0.228434 0.10394
H_ H_ 0.920976 0.743644 0.214465 0.10394
H_ H_ 0.874607 0.820025 0.180484 0.10394
H_ H_ 0.961614 0.549014 0.110524 0.10394
H_ H_ 0.524856 0.630229 0.107547 0.10394
H_ H_ 0.651749 0.510993 0.109737 0.10394
H_ H_ 0.943466 0.647168 0.40585 0.10394
H_ H_ 0.511586 0.689099 0.432784 0.10394
H_ H_ 0.916885 0.766481 0.0566733 0.10394
H_ H_ 0.843366 0.727218 0.504419 0.10394
H_ H_ 0.733422 0.698039 0.390331 0.10394
H_ H_ 0.694756 0.7368 0.310431 0.10394
H_ H_ 0.841219 0.710312 0.246786 0.10394
H_ H_ 0.876591 0.667047 0.326195 0.10394
H_ H_ 0.785132 0.636145 0.0473901 0.10394
H_ H_ 0.740743 0.602199 0.110531 0.10394
H_ H_ 0.619203 0.566746 0.0022800000000000598 0.10394
C_ C_ 0.670863 0.592385 0.297796 0.18167
C_ C_ 0.721819 0.574313 0.287127 -0.15533
C_ C_ 0.733792 0.521284 0.278507 0.02923
C_ C_ 0.698649 0.990143 0.290722 -0.15533
C_ C_ 0.657108 0.509063 0.314912 0.18167
C_ C_ 0.533268 0.631589 0.261032 0.18167
C_ C_ 0.0148157 0.678599 0.238563 -0.15533
C_ C_ 0.52307 0.725173 0.260363 0.02923
C_ C_ 0.539861 0.725832 0.313168 -0.15533
C_ C_ 0.554061 0.68145 0.337623 0.18167
C_ C_ 0.500835 0.544617 0.363262 0.69207
C_ C_ 0.980364 -0.0015969999999999596 0.360452 0.02923
C_ C_ -0.001566999999999985 0.946108 0.358896 -0.15533
C_ C_ 0.967706 0.908578 0.368412 -0.15533
C_ C_ 0.916278 0.922128 0.380494 0.02923
C_ C_ 0.899124 0.975929 0.381883 -0.15533
C_ C_ 0.929497 0.014312 0.372116 0.02923
C_ C_ 0.898226 0.565485 0.387937 0.69207
C_ C_ 0.900433 0.828436 0.374896 0.69661
C_ C_ 0.579196 0.803747 0.0880073 0.18167
C_ C_ 0.535649 0.777644 0.0721393 -0.15533
C_ C_ 0.523616 0.768158 0.0194215 0.02923
C_ C_ 0.546411 0.788027 0.475473 -0.15533
C_ C_ 0.597597 0.810244 0.00639799 0.18167
C_ C_ 0.729177 0.758832 0.133757 0.18167
C_ C_ 0.747367 0.731831 0.177435 -0.15533
C_ C_ 0.742025 0.754907 0.226202 0.02923
C_ C_ 0.721049 0.806873 0.229096 -0.15533
C_ C_ 0.710086 0.834361 0.186417 0.18167
C_ C_ 0.745194 0.87617 0.045569 0.69207
C_ C_ 0.775875 0.867912 0.497796 0.02923
C_ C_ 0.759098 0.855491 0.44551 -0.15533
C_ C_ 0.790675 0.861532 0.407591 -0.15533
C_ C_ 0.837808 0.88672 0.417101 0.02923
C_ C_ 0.850812 0.901895 0.46892 -0.15533
C_ C_ 0.82432 0.886502 0.508418 0.02923
C_ C_ 0.859241 0.886568 0.0692589 0.69207
C_ C_ 0.849018 0.887609 0.32024 0.69661
C_ C_ 0.813365 0.935196 0.189113 0.18167
C_ C_ 0.771258 0.958805 0.214159 -0.15533
C_ C_ 0.778474 1.0000606406 0.250216 0.02923
C_ C_ 0.827505 0.516126 0.260254 -0.15533
C_ C_ 0.866132 0.99443098 0.228651 0.18167
C_ C_ 0.993041 0.859177 0.207093 0.18167
C_ C_ 0.527307 0.806575 0.221714 -0.15533
C_ C_ 0.991439 0.77255 0.231299 0.02923
C_ C_ 0.939818 0.77561 0.212448 -0.15533
C_ C_ 0.915095 0.82126 0.192537 0.18167
C_ C_ 0.991726 0.95653 0.125141 0.69207
C_ C_ 0.524863 0.504003 0.119404 0.02923
C_ C_ 0.50759 0.555043 0.122182 -0.15533
C_ C_ 0.541053 0.59022 0.110253 -0.15533
C_ C_ 0.593232 0.574047 0.104098 0.02923
C_ C_ 0.611979 0.522301 0.108994 -0.15533
C_ C_ 0.578484 0.488346 0.115721 0.02923
C_ C_ 0.608799 0.924857 0.110828 0.69207
C_ C_ 0.610928 0.668454 0.0924316 0.69661
C_ C_ 0.938248 0.675454 0.433819 0.18167
C_ C_ 0.979648 0.700103 0.458941 -0.15533
C_ C_ 0.968952 0.74062 0.495791 0.02923
C_ C_ 0.920432 0.748114 1.0171787 -0.15533
C_ C_ 0.882022 0.721316 0.48997 0.18167
C_ C_ 0.757293 0.702386 0.358788 0.18167
C_ C_ 0.734657 0.726852 0.314306 -0.15533
C_ C_ 0.763658 0.730141 0.273086 0.02923
C_ C_ 0.814452 0.70733 0.277109 -0.15533
C_ C_ 0.835637 0.683899 0.321922 0.18167
C_ C_ 0.762153 0.61045 0.456163 0.69207
C_ C_ 0.728669 0.612794 0.986163 0.02923
C_ C_ 0.746178 0.624844 0.0371577 -0.15533
C_ C_ 0.718761 0.612672 0.0753015 -0.15533
C_ C_ 0.670088 0.597305 0.0641299 0.02923
C_ C_ 0.653745 0.585244 0.0117696 -0.15533
C_ C_ 0.678445 0.601451 0.973071 0.02923
C_ C_ 0.650532 0.601585 0.426167 0.69207
C_ C_ 0.658228 0.61392 0.162034 0.69661
C_ C_ 0.875957 0.883283 0.375409 -0.30787
C_ C_ 0.633263 0.612126 0.105871 -0.30787
N_ N_ 0.641086 0.559621 0.314275 -0.32189
N_ N_ 0.551859 0.635875 0.311344 -0.32189
N_ N_ 0.612868 0.812777 0.0570411 -0.32189
N_ N_ 0.70836 0.809438 0.13864 -0.32189
N_ N_ 0.858899 0.955451 0.193564 -0.32189
N_ N_ 0.942452 0.861004 0.189229 -0.32189
N_ N_ 0.889762 0.686649 0.44975 -0.32189
N_ N_ 0.80685 0.683625 0.361813 -0.32189
O_ O_ 0.00745609 0.583948 0.394947 -0.63271
O_ O_ 0.542057 0.530494 0.339577 -0.57982
O_ O_ 0.897078 0.585839 0.345165 -0.63271
O_ O_ 0.869825 0.585571 0.424097 -0.57982
O_ O_ 0.749527 0.897257 0.091398 -0.63271
O_ O_ 0.712022 0.841284 0.0359378 -0.57982
O_ O_ 0.85699 0.842999 0.0900367 -0.63271
O_ O_ 0.868813 0.927252 0.0961778 -0.57982
O_ O_ 0.50116 0.905563 0.0981458 -0.63271
O_ O_ 0.957406 0.963847 0.157959 -0.57982
O_ O_ 0.609724 0.900456 0.15303 -0.63271
O_ O_ 0.643355 0.908812 0.0805362 -0.57982
O_ O_ 0.757866 0.582658 0.412322 -0.63271
O_ O_ 0.793988 0.643211 0.463993 -0.57982
O_ O_ 0.65366 0.640976 0.39945 -0.63271
O_ O_ 0.612508 0.575343 0.410247 -0.57982
F_ F_ 0.93153 0.818533 0.420216 -0.20885
F_ F_ 0.930443 0.811191 0.336934 -0.20885
F_ F_ 0.868032 0.790316 0.375328 -0.20885
F_ F_ 0.8079 0.924184 0.321004 -0.20885
F_ F_ 0.82299 0.845017 0.302186 -0.20885
F_ F_ 0.878215 0.893208 0.282646 -0.20885
F_ F_ 0.579227 0.662424 0.0482893 -0.20885
F_ F_ 0.586357 0.693146 0.131405 -0.20885
F_ F_ 0.646571 0.70025 0.0826363 -0.20885
F_ F_ 0.689427 0.569256 0.170796 -0.20885
F_ F_ 0.689833 0.653166 0.174175 -0.20885
F_ F_ 0.623243 0.618314 0.199774 -0.20885
Zn Zn 0.587338 0.586252 0.838066 0.83971
Zn Zn 0.6564 0.848067 0.580981 0.83971
Zn Zn 0.907171 0.903517 0.648266 0.83971
Zn Zn 0.841424 0.655773 0.911843 0.83971
H_ H_ 0.677492 0.630299 0.80922 0.10394
H_ H_ 0.75517 0.588411 0.76714 0.10394
H_ H_ 0.706051 0.947857 0.766485 0.10394
H_ H_ 0.616458 0.487269 0.799379 0.10394
H_ H_ 0.0320749 0.587138 0.746525 0.10394
H_ H_ 0.9896231 0.660095 0.698747 0.10394
H_ H_ 0.527474 0.775997 0.839675 0.10394
H_ H_ 0.563207 0.697993 0.880389 0.10394
H_ H_ 0.538841 0.952391 0.877885 0.10394
H_ H_ 0.981925 0.879959 0.893928 0.10394
H_ H_ 0.849691 0.987669 0.882781 0.10394
H_ H_ 0.574216 0.810238 0.621682 0.10394
H_ H_ -0.0009919999999999929 0.77292 0.596562 0.10394
H_ H_ 0.548536 0.778636 0.946338 0.10394
H_ H_ 0.598378 0.844662 0.47709 0.10394
H_ H_ 0.729172 0.756171 0.59052 0.10394
H_ H_ 0.775774 0.712988 0.667511 0.10394
H_ H_ 0.715988 0.83674 0.763468 0.10394
H_ H_ 0.684809 0.883185 0.683868 0.10394
H_ H_ 0.719649 0.895488 0.947771 0.10394
H_ H_ 0.767293 0.901946 0.876418 0.10394
H_ H_ 0.904906 0.892509 0.982415 0.10394
H_ H_ 0.802432 0.898673 0.651412 0.10394
H_ H_ 0.729826 0.951782 0.680089 0.10394
H_ H_ 0.824945 0.546842 0.76615 0.10394
H_ H_ 0.903938 0.999346 0.723633 0.10394
H_ H_ 0.518153 0.886208 0.697739 0.10394
H_ H_ 0.547727 0.818098 0.751962 0.10394
H_ H_ 0.908658 0.733429 0.706986 0.10394
H_ H_ 0.870901 0.814534 0.678079 0.10394
H_ H_ 0.959482 0.554227 0.632261 0.10394
H_ H_ 0.520362 0.622887 0.608956 0.10394
H_ H_ 0.64052 0.506764 0.59137 0.10394
H_ H_ 0.942201 0.661677 0.892579 0.10394
H_ H_ 0.522757 0.690559 0.94678 0.10394
H_ H_ 0.912332 0.774693 0.541163 0.10394
H_ H_ 0.842666 0.732868 0.99901876 0.10394
H_ H_ 0.744878 0.720139 0.890649 0.10394
H_ H_ 0.701136 0.764239 0.813767 0.10394
H_ H_ 0.829353 0.708717 0.731654 0.10394
H_ H_ 0.869075 0.666928 0.809485 0.10394
H_ H_ 0.783575 0.606173 0.554389 0.10394
H_ H_ 0.736036 0.594398 0.620583 0.10394
H_ H_ 0.604966 0.587194 0.510124 0.10394
C_ C_ 0.681628 0.590066 0.794473 0.18167
C_ C_ 0.726996 0.567541 0.780691 -0.15533
C_ C_ 0.730781 0.514661 0.765651 0.02923
C_ C_ 0.699442 0.989118 0.775369 -0.15533
C_ C_ 0.648261 0.509839 0.792369 0.18167
C_ C_ 0.529163 0.644049 0.767488 0.18167
C_ C_ 0.00298826 0.667097 0.738419 -0.15533
C_ C_ 0.499062 0.733244 0.769002 0.02923
C_ C_ 0.523385 0.73889 0.818726 -0.15533
C_ C_ 0.545087 0.69527 0.842174 0.18167
C_ C_ 0.50734 0.540934 0.859265 0.69207
C_ C_ 0.975759 0.00579112 0.87863 0.02923
C_ C_ -0.00475099999999995 0.955054 0.880561 -0.15533
C_ C_ 0.964825 0.915248 0.888713 -0.15533
C_ C_ 0.911794 0.927268 0.885931 0.02923
C_ C_ 0.893068 0.979644 0.88877 -0.15533
C_ C_ 0.923224 0.0194012 0.886655 0.02923
C_ C_ 0.89223 0.565568 0.879444 0.69207
C_ C_ 0.897451 0.827119 0.87969 0.69661
C_ C_ 0.568176 0.803089 0.581701 0.18167
C_ C_ 0.522436 0.781014 0.561721 -0.15533
C_ C_ 0.517029 0.76784 0.508665 0.02923
C_ C_ 0.552973 0.788332 0.986394 -0.15533
C_ C_ 0.586666 0.816732 0.499114 0.18167
C_ C_ 0.726972 0.776418 0.628993 0.18167
C_ C_ 0.753087 0.751227 0.672822 -0.15533
C_ C_ 0.739729 0.76767 0.721284 0.02923
C_ C_ 0.712763 0.817431 0.727056 -0.15533
C_ C_ 0.696914 0.842141 0.683117 0.18167
C_ C_ 0.739801 0.867558 0.537065 0.69207
C_ C_ 0.780674 0.887986 1.00720264 0.02923
C_ C_ 0.757596 0.895674 0.956729 -0.15533
C_ C_ 0.787682 0.897633 0.915956 -0.15533
C_ C_ 0.8421 0.892308 0.924403 0.02923
C_ C_ 0.865289 0.89164 0.97462 -0.15533
C_ C_ 0.833949 0.892936 0.0157896 0.02923
C_ C_ 0.852208 0.881416 0.562045 0.69207
C_ C_ 0.845404 0.889925 0.824614 0.69661
C_ C_ 0.808033 0.931181 0.67712 0.18167
C_ C_ 0.767777 0.963451 0.691633 -0.15533
C_ C_ 0.777033 0.0016000000000000458 0.731297 0.02923
C_ C_ 0.823077 0.510881 0.744925 -0.15533
C_ C_ 0.866479 0.985109 0.719805 0.18167
C_ C_ 0.99132 0.839717 0.692533 0.18167
C_ C_ 0.509513 0.818449 0.734876 -0.15533
C_ C_ 0.981308 0.75978 0.728094 0.02923
C_ C_ 0.931682 0.762376 0.70423 -0.15533
C_ C_ 0.912683 0.806863 0.680807 0.18167
C_ C_ 0.98558 0.944375 0.617759 0.69207
C_ C_ 0.516871 0.496366 0.610699 0.02923
C_ C_ 0.499229 0.547906 0.606386 -0.15533
C_ C_ 0.531974 0.585366 0.601207 -0.15533
C_ C_ 0.583597 0.57219 0.598244 0.02923
C_ C_ 0.601256 0.519013 0.597176 -0.15533
C_ C_ 0.569138 0.480359 0.600823 0.02923
C_ C_ 0.59335 0.929748 0.604414 0.69207
C_ C_ 0.606194 0.670788 0.609788 0.69661
C_ C_ 0.937364 0.687207 0.926618 0.18167
C_ C_ 0.978914 0.710632 0.953931 -0.15533
C_ C_ 0.967999 0.74405 0.997471 0.02923
C_ C_ 0.922709 0.745478 0.516098 -0.15533
C_ C_ 0.880591 0.728751 0.987224 0.18167
C_ C_ 0.762493 0.71995 0.856359 0.18167
C_ C_ 0.740005 0.746621 0.813151 -0.15533
C_ C_ 0.766932 0.744207 0.768869 0.02923
C_ C_ 0.812989 0.712968 0.768824 -0.15533
C_ C_ 0.832461 0.686274 0.810613 0.18167
C_ C_ 0.760929 0.624629 0.947957 0.69207
C_ C_ 0.725546 0.607677 0.494357 0.02923
C_ C_ 0.744645 0.606178 0.545848 -0.15533
C_ C_ 0.713774 0.598021 0.583558 -0.15533
C_ C_ 0.661152 0.597465 0.570958 0.02923
C_ C_ 0.641511 0.595002 0.517821 -0.15533
C_ C_ 0.67412 0.59865 0.480101 0.02923
C_ C_ 0.651959 0.608882 0.920341 0.69207
C_ C_ 0.64875 0.602237 0.665544 0.69661
C_ C_ 0.874161 0.885082 0.879405 -0.30787
C_ C_ 0.623066 0.6123 0.611449 -0.30787
N_ N_ 0.644152 0.560118 0.803068 -0.32189
N_ N_ 0.550918 0.647625 0.815991 -0.32189
N_ N_ 0.600124 0.817721 0.550058 -0.32189
N_ N_ 0.691379 0.817572 0.636505 -0.32189
N_ N_ 0.855787 0.945547 0.686225 -0.32189
N_ N_ 0.941605 0.844423 0.676156 -0.32189
N_ N_ 0.89072 0.694595 0.946017 -0.32189
N_ N_ 0.810221 0.691991 0.855452 -0.32189
O_ O_ 1.00799717 0.578914 0.897895 -0.63271
O_ O_ 0.54315 0.537656 0.828035 -0.57982
O_ O_ 0.896016 0.588159 0.83638 -0.63271
O_ O_ 0.872032 0.590357 0.918818 -0.57982
O_ O_ 0.75074 0.893066 0.57997 -0.63271
O_ O_ 0.697248 0.845192 0.52935 -0.57982
O_ O_ 0.846147 0.840132 0.585997 -0.63271
O_ O_ 0.879948 0.915164 0.583689 -0.57982
O_ O_ 0.487378 0.912618 0.593226 -0.63271
O_ O_ 0.958526 0.946662 0.65697 -0.57982
O_ O_ 0.594926 0.905817 0.645197 -0.63271
O_ O_ 0.627359 0.912449 0.572986 -0.57982
O_ O_ 0.75727 0.601037 0.901538 -0.63271
O_ O_ 0.797615 0.654824 0.957855 -0.57982
O_ O_ 0.650757 0.652619 0.896197 -0.63271
O_ O_ 0.621676 0.575906 0.900441 -0.57982
F_ F_ 0.928774 0.814455 0.921291 -0.20885
F_ F_ 0.929454 0.813771 0.840406 -0.20885
F_ F_ 0.860536 0.792209 0.871488 -0.20885
F_ F_ 0.808439 0.930693 0.819189 -0.20885
F_ F_ 0.817739 0.850266 0.807474 -0.20885
F_ F_ 0.877804 0.894452 0.787789 -0.20885
F_ F_ 0.574598 0.674217 0.564611 -0.20885
F_ F_ 0.57582 0.690051 0.64753 -0.20885
F_ F_ 0.644862 0.69913 0.609795 -0.20885
F_ F_ 0.670711 0.553775 0.673117 -0.20885
F_ F_ 0.68172 0.63694 0.686266 -0.20885
F_ F_ 0.613152 0.605817 0.699258 -0.20885
_cell_length_a 26.508
_cell_length_b 26.37200000322088
_cell_length_c 26.311999743092066
_cell_angle_alpha 93.74100058972084
_cell_angle_beta 96.04100104955006
_cell_angle_gamma 83.6869992558723
_symmetry_space_group_name_H-M         'P 1'
_symmetry_Int_Tables_number            1
loop_
_symmetry_equiv_pos_as_xyz
   'x, y, z'
                         
loop_
_atom_site_label
_atom_site_type_symbol
_atom_site_fract_x 
_atom_site_fract_y
_atom_site_fract_z
_atom_site_charge
Zn Zn 0.0954278 0.0804468 0.348752 0.83971
Zn Zn 0.164667 0.349282 0.0825064 0.83971
Zn Zn 0.407568 0.429481 0.156721 0.83971
Zn Zn 0.338595 0.156372 0.419384 0.83971
H_ H_ 0.17854 0.124936 0.31216 0.10394
H_ H_ 0.256284 0.0940586 0.275211 0.10394
H_ H_ 0.216248 0.45147 0.293045 0.10394
H_ H_ 0.139532 0.975072 0.322747 0.10394
H_ H_ 0.529239 0.107323 0.253392 0.10394
H_ H_ 0.498249 0.184244 0.204586 0.10394
H_ H_ 0.0358519 0.270192 0.330585 0.10394
H_ H_ 0.0802359 0.193277 0.378373 0.10394
H_ H_ 0.0343602 0.439875 0.374627 0.10394
H_ H_ 0.470553 0.375254 0.36332 0.10394
H_ H_ 0.350545 0.48648 0.40547 0.10394
H_ H_ 0.0942856 0.299309 0.128452 0.10394
H_ H_ 0.503362 0.263943 0.116369 0.10394
H_ H_ 0.0431774 0.274427 0.446332 0.10394
H_ H_ 0.11466 0.328602 0.973502 0.10394
H_ H_ 0.217412 0.251971 0.100695 0.10394
H_ H_ 0.24522 0.20149 0.169056 0.10394
H_ H_ 0.23 0.3391 0.264389 0.10394
H_ H_ 0.183356 0.382121 0.190172 0.10394
H_ H_ 0.216359 0.361981 0.443554 0.10394
H_ H_ 0.269385 0.37148 0.375888 0.10394
H_ H_ 0.391343 0.393483 0.489679 0.10394
H_ H_ 0.313073 0.399801 0.168372 0.10394
H_ H_ 0.238293 0.440496 0.208348 0.10394
H_ H_ 0.340533 0.0314669 0.290924 0.10394
H_ H_ 0.394552 0.521373 0.219742 0.10394
H_ H_ 0.00574258 0.388829 0.207009 0.10394
H_ H_ 0.0472502 0.318231 0.252806 0.10394
H_ H_ 0.411379 0.255325 0.227091 0.10394
H_ H_ 0.370683 0.337151 0.192032 0.10394
H_ H_ 0.469658 0.048851 0.121298 0.10394
H_ H_ 0.0290354 0.122097 0.118936 0.10394
H_ H_ 0.148548 0.00391682 0.0962332 0.10394
H_ H_ 0.446677 0.163841 0.401141 0.10394
H_ H_ 0.0111331 0.192081 0.439783 0.10394
H_ H_ 0.415399 0.288499 0.0487516 0.10394
H_ H_ 0.339213 0.235824 0.503191 0.10394
H_ H_ 0.237901 0.207184 0.390357 0.10394
H_ H_ 0.200437 0.254863 0.317785 0.10394
H_ H_ 0.342482 0.20995 0.24555 0.10394
H_ H_ 0.37807 0.178107 0.328311 0.10394
H_ H_ 0.292362 0.125949 0.0629375 0.10394
H_ H_ 0.234115 0.113945 0.131572 0.10394
H_ H_ 0.108367 0.107837 0.0183629 0.10394
C_ C_ 0.187434 0.0860055 0.30845 0.18167
C_ C_ 0.230222 0.0668105 0.283532 -0.15533
C_ C_ 0.239166 0.0147097 0.273523 0.02923
C_ C_ 0.202856 0.492874 0.293013 -0.15533
C_ C_ 0.160333 0.00202112 0.306176 0.18167
C_ C_ 0.0281346 0.133496 0.270961 0.18167
C_ C_ 0.515629 0.188982 0.241798 -0.15533
C_ C_ 0.00963285 0.225073 0.264822 0.02923
C_ C_ 0.0391531 0.231041 0.31306 -0.15533
C_ C_ 0.0625619 0.188675 0.338193 0.18167
C_ C_ 0.016059 0.0386502 0.359518 0.69207
C_ C_ 0.467794 0.50504 0.375607 0.02923
C_ C_ 0.485879 0.451512 0.366109 -0.15533
C_ C_ 0.456356 0.412689 0.372621 -0.15533
C_ C_ 0.409502 0.423065 0.391063 0.02923
C_ C_ 0.389451 0.475645 0.394168 -0.15533
C_ C_ 0.419229 0.516104 0.390205 0.02923
C_ C_ 0.398153 0.073355 0.390772 0.69207
C_ C_ 0.397813 0.326287 0.386645 0.69661
C_ C_ 0.0796504 0.300603 0.0882852 0.18167
C_ C_ 0.0332744 0.280549 0.071872 -0.15533
C_ C_ 0.0193076 0.276394 0.0186498 0.02923
C_ C_ 0.0487335 0.278538 0.487766 -0.15533
C_ C_ 0.094042 0.316188 0.0029992 0.18167
C_ C_ 0.221809 0.270135 0.136406 0.18167
C_ C_ 0.244098 0.242457 0.177559 -0.15533
C_ C_ 0.24373 0.265414 0.225995 0.02923
C_ C_ 0.224048 0.315812 0.231495 -0.15533
C_ C_ 0.1954 0.34025 0.190216 0.18167
C_ C_ 0.246103 0.372345 0.0478126 0.69207
C_ C_ 0.271304 0.368471 0.505981 0.02923
C_ C_ 0.252318 0.368877 0.452912 -0.15533
C_ C_ 0.282255 0.378067 0.415572 -0.15533
C_ C_ 0.333255 0.389093 0.426012 0.02923
C_ C_ 0.350353 0.394491 0.479704 -0.15533
C_ C_ 0.322684 0.381161 0.51727 0.02923
C_ C_ 0.355204 0.397749 0.0709537 0.69207
C_ C_ 0.347416 0.384814 0.328013 0.69661
C_ C_ 0.316087 0.433556 0.192327 0.18167
C_ C_ 0.272683 0.459063 0.211657 -0.15533
C_ C_ 0.273189 0.506597 0.238637 0.02923
C_ C_ 0.332439 0.00713733 0.257035 -0.15533
C_ C_ 0.363786 0.498579 0.228025 0.18167
C_ C_ 0.493248 0.36517 0.207781 0.18167
C_ C_ 0.0078538 0.317521 0.239486 -0.15533
C_ C_ 0.486644 0.281631 0.243295 0.02923
C_ C_ 0.437213 0.284104 0.217303 -0.15533
C_ C_ 0.414062 0.330527 0.196309 0.18167
C_ C_ 0.48783 0.465147 0.122706 0.69207
C_ C_ 0.0267905 0.995486 0.119384 0.02923
C_ C_ 0.00894289 0.0476411 0.120205 -0.15533
C_ C_ 0.0425464 0.0832348 0.117342 -0.15533
C_ C_ 0.0955955 0.069847 0.109633 0.02923
C_ C_ 0.111439 0.0160199 0.104707 -0.15533
C_ C_ 0.0768521 0.98033 0.108294 0.02923
C_ C_ 0.0994157 0.4279 0.107927 0.69207
C_ C_ 0.112718 0.167618 0.130214 0.69661
C_ C_ 0.437478 0.18696 0.434294 0.18167
C_ C_ 0.478329 0.209658 0.460299 -0.15533
C_ C_ 0.468764 0.245501 0.501524 0.02923
C_ C_ 0.420302 0.255528 0.0222592 -0.15533
C_ C_ 0.379684 0.227188 0.492959 0.18167
C_ C_ 0.259835 0.208629 0.358018 0.18167
C_ C_ 0.237383 0.234774 0.31535 -0.15533
C_ C_ 0.266455 0.236611 0.271785 0.02923
C_ C_ 0.319296 0.217388 0.278464 -0.15533
C_ C_ 0.338619 0.191781 0.323201 0.18167
C_ C_ 0.261823 0.123404 0.457262 0.69207
C_ C_ 0.231754 0.112533 1.0011216 0.02923
C_ C_ 0.2522 0.115016 0.0516454 -0.15533
C_ C_ 0.2194 0.116394 0.0925633 -0.15533
C_ C_ 0.168602 0.104888 0.079973 0.02923
C_ C_ 0.1464 0.11458 0.029949 -0.15533
C_ C_ 0.178427 0.115287 0.989823 0.02923
C_ C_ 0.154617 0.10113 0.426888 0.69207
C_ C_ 0.161029 0.0937666 0.176511 0.69661
C_ C_ 0.372429 0.383132 0.38464 -0.30787
C_ C_ 0.134769 0.109902 0.12518 -0.30787
N_ N_ 0.15135 0.0540277 0.312104 -0.32189
N_ N_ 0.0575605 0.140258 0.315977 -0.32189
N_ N_ 0.108757 0.318655 0.053331 -0.32189
N_ N_ 0.194231 0.316056 0.14382 -0.32189
N_ N_ 0.360119 0.452453 0.202572 -0.32189
N_ N_ 0.441384 0.369957 0.191934 -0.32189
N_ N_ 0.387728 0.199103 0.448901 -0.32189
N_ N_ 0.308485 0.185991 0.35912 -0.32189
O_ O_ 0.50899 0.0897598 0.404558 -0.63271
O_ O_ 0.0550729 0.0323944 0.33344 -0.57982
O_ O_ 0.393633 0.0942844 0.347856 -0.63271
O_ O_ 0.374393 0.095702 0.427729 -0.57982
O_ O_ 0.250135 0.394573 0.0937923 -0.63271
O_ O_ 0.210457 0.342333 0.0334929 -0.57982
O_ O_ 0.358444 0.355748 0.0950989 -0.63271
O_ O_ 0.37661 0.435023 0.0937119 -0.57982
O_ O_ 0.979293 0.411921 0.0891284 -0.63271
O_ O_ 0.450818 0.477027 0.152741 -0.57982
O_ O_ 0.0962168 0.404084 0.149073 -0.63271
O_ O_ 0.13925 0.414244 0.0796723 -0.57982
O_ O_ 0.263891 0.100387 0.412228 -0.63271
O_ O_ 0.291366 0.160959 0.466908 -0.57982
O_ O_ 0.159225 0.141062 0.400806 -0.63271
O_ O_ 0.120905 0.0697656 0.410234 -0.57982
F_ F_ 0.434964 0.322912 0.427894 -0.20885
F_ F_ 0.423236 0.304236 0.345859 -0.20885
F_ F_ 0.363178 0.290855 0.391508 -0.20885
F_ F_ 0.313751 0.429946 0.324493 -0.20885
F_ F_ 0.321049 0.342228 0.3088 -0.20885
F_ F_ 0.380331 0.386266 0.292038 -0.20885
F_ F_ 0.0773367 0.181205 0.0897917 -0.20885
F_ F_ 0.0885352 0.18025 0.172955 -0.20885
F_ F_ 0.150348 0.199866 0.129574 -0.20885
F_ F_ 0.190158 0.0482356 0.170601 -0.20885
F_ F_ 0.187525 0.128418 0.204688 -0.20885
F_ F_ 0.123875 0.0864199 0.207447 -0.20885
Zn Zn 0.093561 0.0868957 0.856566 0.83971
Zn Zn 0.152323 0.34186 0.584677 0.83971
Zn Zn 0.404583 0.420364 0.654654 0.83971
Zn Zn 0.340922 0.15464 0.92533 0.83971
H_ H_ 0.164218 0.145633 0.804666 0.10394
H_ H_ 0.247422 0.114669 0.77436 0.10394
H_ H_ 0.212412 0.449418 0.799172 0.10394
H_ H_ 0.139249 0.989401 0.820124 0.10394
H_ H_ 0.535877 0.105068 0.749345 0.10394
H_ H_ 0.493583 0.173053 0.707399 0.10394
H_ H_ 0.0284889 0.271264 0.833887 0.10394
H_ H_ 0.0636278 0.192485 0.885788 0.10394
H_ H_ 0.0217566 0.432672 0.865926 0.10394
H_ H_ 0.477175 0.375078 0.880591 0.10394
H_ H_ 0.34944 0.489121 0.890919 0.10394
H_ H_ 0.0642024 0.306001 0.629152 0.10394
H_ H_ 0.496878 0.270242 0.601766 0.10394
H_ H_ 0.0307662 0.299692 0.946748 0.10394
H_ H_ 0.125687 0.299943 0.487443 0.10394
H_ H_ 0.198722 0.240587 0.613446 0.10394
H_ H_ 0.259445 0.207982 0.691449 0.10394
H_ H_ 0.207446 0.342532 0.774477 0.10394
H_ H_ 0.171645 0.383765 0.695097 0.10394
H_ H_ 0.213136 0.401486 0.949421 0.10394
H_ H_ 0.26546 0.389099 0.881007 0.10394
H_ H_ 0.400073 0.410216 0.984533 0.10394
H_ H_ 0.306157 0.392516 0.671023 0.10394
H_ H_ 0.229175 0.44194 0.70527 0.10394
H_ H_ 0.34205 0.0511052 0.794579 0.10394
H_ H_ 0.395542 0.510906 0.730311 0.10394
H_ H_ 0.0149279 0.38019 0.701797 0.10394
H_ H_ 0.0589856 0.30145 0.730654 0.10394
H_ H_ 0.409305 0.25426 0.744461 0.10394
H_ H_ 0.368161 0.330486 0.696823 0.10394
H_ H_ 0.461082 0.0627753 0.619551 0.10394
H_ H_ 0.013207 0.114413 0.603544 0.10394
H_ H_ 0.143851 -0.000783464 0.599685 0.10394
H_ H_ 0.440838 0.151708 0.915677 0.10394
H_ H_ 0.0187905 0.190033 0.952822 0.10394
H_ H_ 0.408709 0.274554 0.553877 0.10394
H_ H_ 0.339914 0.248785 -0.0016920000000000268 0.10394
H_ H_ 0.234447 0.198641 0.898117 0.10394
H_ H_ 0.195492 0.261887 0.831037 0.10394
H_ H_ 0.331573 0.23418 0.756845 0.10394
H_ H_ 0.374118 0.18997 0.836677 0.10394
H_ H_ 0.286583 0.112116 0.557875 0.10394
H_ H_ 0.235908 0.100506 0.622864 0.10394
H_ H_ 0.113514 0.0691808 0.509497 0.10394
C_ C_ 0.177629 0.105081 0.805123 0.18167
C_ C_ 0.223263 0.0872184 0.784141 -0.15533
C_ C_ 0.241587 0.0352254 0.780356 0.02923
C_ C_ 0.200007 0.490138 0.796376 -0.15533
C_ C_ 0.163885 0.0178243 0.811653 0.18167
C_ C_ 0.0309565 0.133238 0.775195 0.18167
C_ C_ 0.510734 0.181567 0.745265 -0.15533
C_ C_ 0.0146272 0.224903 0.766029 0.02923
C_ C_ 0.0341461 0.233053 0.816528 -0.15533
C_ C_ 0.0513834 0.190554 0.845098 0.18167
C_ C_ 0.0114761 0.0458191 0.873612 0.69207
C_ C_ 0.470785 0.50207 0.861987 0.02923
C_ C_ 0.491211 0.452095 0.867046 -0.15533
C_ C_ 0.461671 0.414555 0.878226 -0.15533
C_ C_ 0.408838 0.427396 0.886435 0.02923
C_ C_ 0.389017 0.478585 0.884641 -0.15533
C_ C_ 0.419359 0.516821 0.874625 0.02923
C_ C_ 0.39608 0.0732421 0.884847 0.69207
C_ C_ 0.399283 0.326189 0.889097 0.69661
C_ C_ 0.0594057 0.298294 0.590488 0.18167
C_ C_ 0.0182717 0.273664 0.570343 -0.15533
C_ C_ 0.0119186 0.261243 0.517626 0.02923
C_ C_ 0.0492948 0.292713 0.984455 -0.15533
C_ C_ 0.0950723 0.292798 0.511921 0.18167
C_ C_ 0.206721 0.265036 0.64415 0.18167
C_ C_ 0.234156 0.245837 0.690369 -0.15533
C_ C_ 0.233445 0.271433 0.739538 0.02923
C_ C_ 0.207588 0.319695 0.739602 -0.15533
C_ C_ 0.185852 0.342759 0.695033 0.18167
C_ C_ 0.234886 0.365422 0.546401 0.69207
C_ C_ 0.27712 0.389096 0.00919007 0.02923
C_ C_ 0.255902 0.395275 0.958649 -0.15533
C_ C_ 0.28646 0.394175 0.919063 -0.15533
C_ C_ 0.339909 0.394187 0.926588 0.02923
C_ C_ 0.361205 0.401476 0.977009 -0.15533
C_ C_ 0.331269 0.395975 0.0176545 0.02923
C_ C_ 0.347424 0.380897 0.570938 0.69207
C_ C_ 0.348485 0.381765 0.830589 0.69661
C_ C_ 0.307318 0.433085 0.688174 0.18167
C_ C_ 0.265873 0.45621 0.712012 -0.15533
C_ C_ 0.270372 0.502724 0.740684 0.02923
C_ C_ 0.332724 0.0192551 0.768747 -0.15533
C_ C_ 0.357569 0.498687 0.722462 0.18167
C_ C_ 0.490648 0.352842 0.697027 0.18167
C_ C_ 0.0172436 0.30723 0.726909 -0.15533
C_ C_ 0.488027 0.275164 0.740143 0.02923
C_ C_ 0.43208 0.282837 0.729304 -0.15533
C_ C_ 0.408501 0.325066 0.70307 0.18167
C_ C_ 0.479493 0.46083 0.613729 0.69207
C_ C_ 0.0188307 0.984387 0.610312 0.02923
C_ C_ 0.0006500000000000394 0.0377393 0.613172 -0.15533
C_ C_ 0.0334216 0.0746483 0.605087 -0.15533
C_ C_ 0.0856189 0.0638075 0.603508 0.02923
C_ C_ 0.104144 0.0109318 0.602948 -0.15533
C_ C_ 0.0721085 0.971806 0.606286 0.02923
C_ C_ 0.0884481 0.422431 0.61431 0.69207
C_ C_ 0.101386 0.159928 0.598573 0.69661
C_ C_ 0.43747 0.180242 0.947216 0.18167
C_ C_ 0.478631 0.200275 0.97282 -0.15533
C_ C_ 0.47079 0.239812 1.00915822 0.02923
C_ C_ 0.419397 0.253236 0.520305 -0.15533
C_ C_ 0.379199 0.234332 0.994515 0.18167
C_ C_ 0.255446 0.210838 0.870309 0.18167
C_ C_ 0.230883 0.240418 0.828861 -0.15533
C_ C_ 0.25734 0.245907 0.785916 0.02923
C_ C_ 0.308144 0.226666 0.787175 -0.15533
C_ C_ 0.331866 0.202191 0.831489 0.18167
C_ C_ 0.265962 0.12259 0.961633 0.69207
C_ C_ 0.226977 0.112616 0.495266 0.02923
C_ C_ 0.246653 0.110198 0.546979 -0.15533
C_ C_ 0.216704 0.101366 0.582693 -0.15533
C_ C_ 0.164995 0.0941271 0.569288 0.02923
C_ C_ 0.150922 0.0810576 0.517215 -0.15533
C_ C_ 0.179928 0.0983352 0.479366 0.02923
C_ C_ 0.154275 0.114455 0.93502 0.69207
C_ C_ 0.147341 0.107323 0.664362 0.69661
C_ C_ 0.375754 0.381903 0.883882 -0.30787
C_ C_ 0.124048 0.106453 0.608111 -0.30787
N_ N_ 0.149749 0.0685643 0.819717 -0.32189
N_ N_ 0.0528699 0.142083 0.823682 -0.32189
N_ N_ 0.0996255 0.303066 0.563058 -0.32189
N_ N_ 0.184811 0.315142 0.648415 -0.32189
N_ N_ 0.353736 0.453665 0.694695 -0.32189
N_ N_ 0.437658 0.359243 0.684286 -0.32189
N_ N_ 0.388807 0.197562 0.95657 -0.32189
N_ N_ 0.305094 0.19441 0.871234 -0.32189
O_ O_ 0.511194 0.0938747 0.895062 -0.63271
O_ O_ 0.0531662 0.0341154 0.850487 -0.57982
O_ O_ 0.395622 0.1023 0.848158 -0.63271
O_ O_ 0.376097 0.0914104 0.927978 -0.57982
O_ O_ 0.242794 0.383266 0.594442 -0.63271
O_ O_ 0.194532 0.343622 0.532879 -0.57982
O_ O_ 0.344333 0.340589 0.599688 -0.63271
O_ O_ 0.369795 0.419479 0.590452 -0.57982
O_ O_ 0.98396 0.405171 0.60212 -0.63271
O_ O_ 0.449989 0.467294 0.650645 -0.57982
O_ O_ 0.0883631 0.397914 0.655594 -0.63271
O_ O_ 0.117672 0.405947 0.580281 -0.57982
O_ O_ 0.26788 0.0969567 0.917761 -0.63271
O_ O_ 0.298855 0.157223 0.973366 -0.57982
O_ O_ 0.151737 0.154557 0.907431 -0.63271
O_ O_ 0.123518 0.0807213 0.918517 -0.57982
F_ F_ 0.427211 0.317628 0.933697 -0.20885
F_ F_ 0.43074 0.308103 0.852081 -0.20885
F_ F_ 0.365093 0.290811 0.888589 -0.20885
F_ F_ 0.314715 0.425309 0.821063 -0.20885
F_ F_ 0.319308 0.341382 0.816204 -0.20885
F_ F_ 0.385689 0.378999 0.796023 -0.20885
F_ F_ 0.0711583 0.163122 0.551658 -0.20885
F_ F_ 0.0696855 0.178531 0.635431 -0.20885
F_ F_ 0.137391 0.194364 0.59642 -0.20885
F_ F_ 0.176689 0.0628349 0.674122 -0.20885
F_ F_ 0.173759 0.149407 0.678877 -0.20885
F_ F_ 0.110502 0.106835 0.700852 -0.20885
Zn Zn 0.0848002 0.584613 0.344662 0.83971
Zn Zn 0.155659 0.84732 0.0809972 0.83971
Zn Zn 0.415673 0.912977 0.155287 0.83971
Zn Zn 0.333901 0.653066 0.412347 0.83971
H_ H_ 0.149584 0.636289 0.285231 0.10394
H_ H_ 0.231213 0.605988 0.250043 0.10394
H_ H_ 0.206231 0.94322 0.274995 0.10394
H_ H_ 0.139429 0.485723 0.334338 0.10394
H_ H_ 0.525276 0.594307 0.243305 0.10394
H_ H_ 0.513404 0.673091 0.19173 0.10394
H_ H_ 0.0341314 0.770237 0.332447 0.10394
H_ H_ 0.0706145 0.695943 0.376621 0.10394
H_ H_ 0.0383947 0.93371 0.35112 0.10394
H_ H_ 0.476468 0.877656 0.378859 0.10394
H_ H_ 0.353837 0.992318 0.413494 0.10394
H_ H_ 0.0743334 0.813096 0.134302 0.10394
H_ H_ 0.509407 0.771486 0.0999629 0.10394
H_ H_ 0.0331401 0.788963 0.442982 0.10394
H_ H_ 0.1111 0.822281 0.981441 0.10394
H_ H_ 0.212709 0.749654 0.0955012 0.10394
H_ H_ 0.253 0.70211 0.171067 0.10394
H_ H_ 0.216379 0.834841 0.266533 0.10394
H_ H_ 0.186006 0.881227 0.190498 0.10394
H_ H_ 0.214635 0.863752 0.448336 0.10394
H_ H_ 0.270121 0.877447 0.380591 0.10394
H_ H_ 0.394906 0.899833 0.49512 0.10394
H_ H_ 0.314395 0.896656 0.159522 0.10394
H_ H_ 0.239285 0.940958 0.194639 0.10394
H_ H_ 0.324217 0.562372 0.264982 0.10394
H_ H_ 0.411949 -0.0043919999999999515 0.240477 0.10394
H_ H_ 0.0163852 0.889738 0.203404 0.10394
H_ H_ 0.0584281 0.8165 0.244789 0.10394
H_ H_ 0.423955 0.759007 0.252663 0.10394
H_ H_ 0.379321 0.830822 0.204433 0.10394
H_ H_ 0.468149 0.568442 0.119121 0.10394
H_ H_ 0.0068864 0.617292 0.0821235 0.10394
H_ H_ 0.148997 0.510066 0.0975326 0.10394
H_ H_ 0.437229 0.66377 0.38694 0.10394
H_ H_ 0.0181411 0.687068 0.448881 0.10394
H_ H_ 0.423703 0.781765 0.0416957 0.10394
H_ H_ 0.35455 0.714688 0.508091 0.10394
H_ H_ 0.225428 0.68977 0.380528 0.10394
H_ H_ 0.179358 0.734334 0.30839 0.10394
H_ H_ 0.327622 0.727048 0.242336 0.10394
H_ H_ 0.365052 0.683468 0.323212 0.10394
H_ H_ 0.273673 0.650882 0.0539725 0.10394
H_ H_ 0.222788 0.631375 0.117322 0.10394
H_ H_ 0.106558 0.584033 -0.0039959999999999996 0.10394
C_ C_ 0.164914 0.5948 0.286493 0.18167
C_ C_ 0.211257 0.578346 0.268291 -0.15533
C_ C_ 0.231314 0.526153 0.271146 0.02923
C_ C_ 0.204198 0.982267 0.286296 -0.15533
C_ C_ 0.158895 0.511361 0.313788 0.18167
C_ C_ 0.0308572 0.63693 0.267147 0.18167
C_ C_ 0.518567 0.677358 0.234596 -0.15533
C_ C_ 0.0132976 0.726559 0.25994 0.02923
C_ C_ 0.0284432 0.732453 0.313838 -0.15533
C_ C_ 0.0471458 0.690684 0.342132 0.18167
C_ C_ 0.0115824 0.537884 0.372729 0.69207
C_ C_ 0.471598 0.00678171 0.379161 0.02923
C_ C_ 0.492831 0.956739 0.382901 -0.15533
C_ C_ 0.461549 0.917956 0.389901 -0.15533
C_ C_ 0.408897 0.930425 0.394487 0.02923
C_ C_ 0.38977 0.982098 0.397505 -0.15533
C_ C_ 0.421231 0.0206606 0.391479 0.02923
C_ C_ 0.391545 0.568209 0.381528 0.69207
C_ C_ 0.399901 0.831734 0.401 0.69661
C_ C_ 0.0654214 0.805436 0.0929703 0.18167
C_ C_ 0.0197576 0.783118 0.0735435 -0.15533
C_ C_ 0.00951186 0.771989 0.0207799 0.02923
C_ C_ 0.04305 0.788873 0.485757 -0.15533
C_ C_ 0.0850658 0.809944 0.00757529 0.18167
C_ C_ 0.21163 0.769174 0.133227 0.18167
C_ C_ 0.230767 0.739677 0.175998 -0.15533
C_ C_ 0.228028 0.762717 0.224529 0.02923
C_ C_ 0.205522 0.812228 0.23128 -0.15533
C_ C_ 0.18685 0.839411 0.187396 0.18167
C_ C_ 0.240834 0.866492 0.0438007 0.69207
C_ C_ 0.274262 0.873623 0.510057 0.02923
C_ C_ 0.253075 0.872027 0.459637 -0.15533
C_ C_ 0.284886 0.880737 0.42139 -0.15533
C_ C_ 0.334676 0.892878 0.43124 0.02923
C_ C_ 0.353425 0.895413 0.484138 -0.15533
C_ C_ 0.323158 0.888983 0.522897 0.02923
C_ C_ 0.352879 0.876642 0.0703568 0.69207
C_ C_ 0.350332 0.882936 0.337178 0.69661
C_ C_ 0.317783 0.932403 0.180943 0.18167
C_ C_ 0.27762 0.954226 0.207749 -0.15533
C_ C_ 0.282529 0.993935 0.245321 0.02923
C_ C_ 0.322204 0.523788 0.248331 -0.15533
C_ C_ 0.373567 0.986609 0.229576 0.18167
C_ C_ 0.503487 0.849088 0.196843 0.18167
C_ C_ 0.0172291 0.816316 0.229964 -0.15533
C_ C_ 0.498442 0.771132 0.235527 0.02923
C_ C_ 0.445415 0.781534 0.231413 -0.15533
C_ C_ 0.42128 0.823038 0.208958 0.18167
C_ C_ 0.492915 0.951515 0.120859 0.69207
C_ C_ 0.0224487 0.491936 0.108708 0.02923
C_ C_ 0.0013300000000000534 0.542056 0.105834 -0.15533
C_ C_ 0.0279261 0.580366 0.0902987 -0.15533
C_ C_ 0.0824058 0.570479 0.0884129 0.02923
C_ C_ 0.106009 0.520791 0.0980841 -0.15533
C_ C_ 0.0752499 0.481496 0.104629 0.02923
C_ C_ 0.0992538 0.925662 0.109597 0.69207
C_ C_ 0.0900944 0.669544 0.0916852 0.69661
C_ C_ 0.43096 0.689663 0.417107 0.18167
C_ C_ 0.475209 0.705271 0.443794 -0.15533
C_ C_ 0.472078 0.739337 0.486319 0.02923
C_ C_ 0.430908 0.748257 0.0149367 -0.15533
C_ C_ 0.38581 0.716096 0.487376 0.18167
C_ C_ 0.246574 0.698064 0.350901 0.18167
C_ C_ 0.222063 0.725605 0.309293 -0.15533
C_ C_ 0.251626 0.734758 0.270074 0.02923
C_ C_ 0.305327 0.724644 0.275786 -0.15533
C_ C_ 0.326151 0.696444 0.319761 0.18167
C_ C_ 0.257856 0.625699 0.456865 0.69207
C_ C_ 0.222977 0.628235 0.986888 0.02923
C_ C_ 0.236863 0.635464 0.0395422 -0.15533
C_ C_ 0.206513 0.623502 0.0761317 -0.15533
C_ C_ 0.157701 0.607715 0.0624739 0.02923
C_ C_ 0.142012 0.600599 0.00879688 -0.15533
C_ C_ 0.172654 0.615327 0.97332 0.02923
C_ C_ 0.151511 0.604233 0.421592 0.69207
C_ C_ 0.135648 0.611009 0.157214 0.69661
C_ C_ 0.374615 0.885941 0.392531 -0.30787
C_ C_ 0.117761 0.613593 0.099314 -0.30787
N_ N_ 0.139773 0.561894 0.309925 -0.32189
N_ N_ 0.047193 0.641857 0.3177 -0.32189
N_ N_ 0.0991009 0.812306 0.0582294 -0.32189
N_ N_ 0.186031 0.815774 0.140121 -0.32189
N_ N_ 0.36581 0.948007 0.193945 -0.32189
N_ N_ 0.451213 0.857381 0.192124 -0.32189
N_ N_ 0.386574 0.690817 0.441042 -0.32189
N_ N_ 0.297072 0.683825 0.3529 -0.32189
O_ O_ 0.497576 0.58984 0.38609 -0.63271
O_ O_ 0.0462697 0.52873 0.340472 -0.57982
O_ O_ 0.384802 0.586939 0.336389 -0.63271
O_ O_ 0.371309 0.594256 0.420075 -0.57982
O_ O_ 0.24351 0.888573 0.0900195 -0.63271
O_ O_ 0.201639 0.838496 0.0324869 -0.57982
O_ O_ 0.350558 0.836878 0.0948463 -0.63271
O_ O_ 0.388403 0.904121 0.0882771 -0.57982
O_ O_ 0.993167 0.912772 0.0976048 -0.63271
O_ O_ 0.456906 0.962638 0.151586 -0.57982
O_ O_ 0.0964313 0.89743 0.148467 -0.63271
O_ O_ 0.126357 0.908241 0.0723012 -0.57982
O_ O_ 0.256219 0.59568 0.414463 -0.63271
O_ O_ 0.290011 0.662025 0.461911 -0.57982
O_ O_ 0.156344 0.64218 0.392571 -0.63271
O_ O_ 0.117273 0.574239 0.406181 -0.57982
F_ F_ 0.435687 0.831425 0.44313 -0.20885
F_ F_ 0.427427 0.81079 0.360866 -0.20885
F_ F_ 0.367647 0.798101 0.415369 -0.20885
F_ F_ 0.315628 0.921326 0.327225 -0.20885
F_ F_ 0.328599 0.838089 0.320736 -0.20885
F_ F_ 0.388325 0.8832 0.306636 -0.20885
F_ F_ 0.0607853 0.670908 0.0469152 -0.20885
F_ F_ 0.0637475 0.685409 0.132282 -0.20885
F_ F_ 0.123273 0.706924 0.0916617 -0.20885
F_ F_ 0.176141 0.575787 0.161942 -0.20885
F_ F_ 0.153599 0.656164 0.180309 -0.20885
F_ F_ 0.0988779 0.598593 0.189129 -0.20885
Zn Zn 0.0808703 0.577262 0.849906 0.83971
Zn Zn 0.157708 0.839885 0.582024 0.83971
Zn Zn 0.410343 0.926411 0.658446 0.83971
Zn Zn 0.345073 0.652814 0.912992 0.83971
H_ H_ 0.144979 0.628203 0.790459 0.10394
H_ H_ 0.228204 0.60394 0.761724 0.10394
H_ H_ 0.22127 0.959668 0.795949 0.10394
H_ H_ 0.128217 0.476375 0.819253 0.10394
H_ H_ 0.526136 0.6075 0.748858 0.10394
H_ H_ 0.48252 0.684353 0.705677 0.10394
H_ H_ 0.0165036 0.76182 0.824191 0.10394
H_ H_ 0.0664461 0.698278 0.869768 0.10394
H_ H_ 0.0361501 0.943238 0.870574 0.10394
H_ H_ 0.492516 0.885769 0.902196 0.10394
H_ H_ 0.355327 0.988147 0.905846 0.10394
H_ H_ 0.0797831 0.796125 0.627478 0.10394
H_ H_ 0.499632 0.766789 0.587722 0.10394
H_ H_ 0.0280091 0.794122 0.94811 0.10394
H_ H_ 0.113825 0.826275 0.483636 0.10394
H_ H_ 0.217749 0.744984 0.593629 0.10394
H_ H_ 0.261288 0.703428 0.671692 0.10394
H_ H_ 0.227003 0.842924 0.764481 0.10394
H_ H_ 0.183008 0.877568 0.686259 0.10394
H_ H_ 0.22355 0.851321 0.942165 0.10394
H_ H_ 0.277216 0.869013 0.877203 0.10394
H_ H_ 0.39898 0.893885 0.989251 0.10394
H_ H_ 0.308693 0.920395 0.661732 0.10394
H_ H_ 0.236145 0.969336 0.696527 0.10394
H_ H_ 0.32056 0.558017 0.771094 0.10394
H_ H_ 0.412447 -0.0019919999999999938 0.761187 0.10394
H_ H_ 0.0148592 0.867724 0.684319 0.10394
H_ H_ 0.0511818 0.793152 0.737561 0.10394
H_ H_ 0.403256 0.75891 0.729096 0.10394
H_ H_ 0.367798 0.839628 0.69261 0.10394
H_ H_ 0.461018 0.559671 0.611285 0.10394
H_ H_ 0.012765 0.620403 0.609795 0.10394
H_ H_ 0.138908 0.502538 0.597502 0.10394
H_ H_ 0.452485 0.650903 0.904377 0.10394
H_ H_ 0.0173299 0.702406 0.940212 0.10394
H_ H_ 0.419367 0.770727 0.537321 0.10394
H_ H_ 0.354629 0.730776 0.00314204 0.10394
H_ H_ 0.243875 0.698018 0.882038 0.10394
H_ H_ 0.201738 0.748891 0.809508 0.10394
H_ H_ 0.343771 0.713608 0.739162 0.10394
H_ H_ 0.38404 0.682586 0.819577 0.10394
H_ H_ 0.267875 0.64648 0.55766 0.10394
H_ H_ 0.231351 0.592324 0.61272 0.10394
H_ H_ 0.104927 0.579914 0.50218 0.10394
C_ C_ 0.159907 0.588015 0.789713 0.18167
C_ C_ 0.208782 0.574804 0.775639 -0.15533
C_ C_ 0.230089 0.523908 0.77637 0.02923
C_ C_ 0.211745 1.000942586 0.796288 -0.15533
C_ C_ 0.152332 0.505897 0.811084 0.18167
C_ C_ 0.0257204 0.626441 0.765534 0.18167
C_ C_ 0.502762 0.687102 0.74438 -0.15533
C_ C_ 0.00151259 0.716473 0.75797 0.02923
C_ C_ 0.0166766 0.723765 0.810554 -0.15533
C_ C_ 0.0413448 0.683529 0.838416 0.18167
C_ C_ 0.00683948 0.536003 0.869356 0.69207
C_ C_ 0.47562 0.0106572 0.875292 0.02923
C_ C_ 0.49737 0.96105 0.881031 -0.15533
C_ C_ 0.468971 0.920432 0.893233 -0.15533
C_ C_ 0.416283 0.927699 0.897181 0.02923
C_ C_ 0.394139 0.977704 0.89357 -0.15533
C_ C_ 0.422239 0.0193563 0.884186 0.02923
C_ C_ 0.39609 0.567841 0.874955 0.69207
C_ C_ 0.4074 0.831292 0.885022 0.69661
C_ C_ 0.0691235 0.794051 0.587588 0.18167
C_ C_ 0.0243541 0.776739 0.569553 -0.15533
C_ C_ 0.00791884 0.773973 0.51734 0.02923
C_ C_ 0.0394073 0.794659 0.989799 -0.15533
C_ C_ 0.0868197 0.812028 0.507094 0.18167
C_ C_ 0.216953 0.761987 0.632218 0.18167
C_ C_ 0.242508 0.740397 0.674662 -0.15533
C_ C_ 0.246665 0.765468 0.724584 0.02923
C_ C_ 0.222048 0.817176 0.728681 -0.15533
C_ C_ 0.195547 0.837703 0.685209 0.18167
C_ C_ 0.237489 0.868136 0.546068 0.69207
C_ C_ 0.275824 0.872136 0.00444046 0.02923
C_ C_ 0.259564 0.866581 0.953065 -0.15533
C_ C_ 0.292718 0.872552 0.915493 -0.15533
C_ C_ 0.340159 0.887988 0.928531 0.02923
C_ C_ 0.358456 0.890689 0.979562 -0.15533
C_ C_ 0.327246 0.883738 0.0165232 0.02923
C_ C_ 0.3506 0.888713 0.575797 0.69207
C_ C_ 0.352919 0.890931 0.830311 0.69661
C_ C_ 0.31536 0.952236 0.687542 0.18167
C_ C_ 0.274312 0.979964 0.70756 -0.15533
C_ C_ 0.283459 1.0165028 0.748113 0.02923
C_ C_ 0.317214 0.52152 0.746991 -0.15533
C_ C_ 0.374182 0.991134 0.745893 0.18167
C_ C_ 0.490135 0.861079 0.708066 0.18167
C_ C_ 0.0126985 0.797936 0.72002 -0.15533
C_ C_ 0.477905 0.780752 0.740619 0.02923
C_ C_ 0.427154 0.786618 0.720797 -0.15533
C_ C_ 0.406988 0.83326 0.699888 0.18167
C_ C_ 0.485282 0.957227 0.619555 0.69207
C_ C_ 0.0176379 0.489331 0.617467 0.02923
C_ C_ 0.99805 0.541913 0.619014 -0.15533
C_ C_ 0.0281503 0.579215 0.607395 -0.15533
C_ C_ 0.0796379 0.565118 0.598147 0.02923
C_ C_ 0.0993287 0.513226 0.601932 -0.15533
C_ C_ 0.0688071 0.474041 0.612101 0.02923
C_ C_ 0.0968379 0.918347 0.608923 0.69207
C_ C_ 0.0979524 0.661811 0.595297 0.69661
C_ C_ 0.445638 0.679692 0.934414 0.18167
C_ C_ 0.486121 0.702969 0.95983 -0.15533
C_ C_ 0.480614 0.737895 -0.00034999999999996145 0.02923
C_ C_ 0.425841 0.742801 0.507787 -0.15533
C_ C_ 0.391933 0.722327 0.990331 0.18167
C_ C_ 0.26644 0.708758 0.85388 0.18167
C_ C_ 0.241057 0.733141 0.810381 -0.15533
C_ C_ 0.270031 0.739075 0.769049 0.02923
C_ C_ 0.322626 0.7197 0.770508 -0.15533
C_ C_ 0.343072 0.69426 0.813876 0.18167
C_ C_ 0.263238 0.625009 0.951174 0.69207
C_ C_ 0.219859 0.62345 0.493066 0.02923
C_ C_ 0.23557 0.62681 0.544494 -0.15533
C_ C_ 0.208647 0.605713 0.578609 -0.15533
C_ C_ 0.158152 0.59233 0.564046 0.02923
C_ C_ 0.141556 0.590771 0.513466 -0.15533
C_ C_ 0.171022 0.606775 0.477206 0.02923
C_ C_ 0.150651 0.609145 0.919297 0.69207
C_ C_ 0.143293 0.605037 0.656766 0.69661
C_ C_ 0.378055 0.884286 0.886099 -0.30787
C_ C_ 0.117819 0.605024 0.602612 -0.30787
N_ N_ 0.133162 0.554252 0.807481 -0.32189
N_ N_ 0.0424061 0.634733 0.816016 -0.32189
N_ N_ 0.0999186 0.809824 0.558101 -0.32189
N_ N_ 0.190893 0.808427 0.639845 -0.32189
N_ N_ 0.363545 0.962637 0.700132 -0.32189
N_ N_ 0.439869 0.86795 0.689135 -0.32189
N_ N_ 0.398502 0.689437 0.949424 -0.32189
N_ N_ 0.315453 0.688412 0.853239 -0.32189
O_ O_ 0.509851 0.577702 0.894758 -0.63271
O_ O_ 0.0428613 0.525515 0.839388 -0.57982
O_ O_ 0.39639 0.592625 0.833852 -0.63271
O_ O_ 0.374779 0.586293 0.913791 -0.57982
O_ O_ 0.237541 0.897987 0.5885 -0.63271
O_ O_ 0.20386 0.835035 0.537352 -0.57982
O_ O_ 0.349971 0.848054 0.601717 -0.63271
O_ O_ 0.375241 0.925865 0.594805 -0.57982
O_ O_ 0.991932 0.903311 0.590854 -0.63271
O_ O_ 0.454798 0.968173 0.654813 -0.57982
O_ O_ 0.0962281 0.895898 0.651265 -0.63271
O_ O_ 0.131307 0.90428 0.577205 -0.57982
O_ O_ 0.259622 0.60005 0.907828 -0.63271
O_ O_ 0.301988 0.652774 0.961184 -0.57982
O_ O_ 0.147659 0.648026 0.890873 -0.63271
O_ O_ 0.123511 0.572397 0.905347 -0.57982
F_ F_ 0.440221 0.826889 0.929624 -0.20885
F_ F_ 0.437416 0.819442 0.845943 -0.20885
F_ F_ 0.379941 0.792482 0.882955 -0.20885
F_ F_ 0.309612 0.926781 0.826862 -0.20885
F_ F_ 0.338738 0.846487 0.805967 -0.20885
F_ F_ 0.38728 0.904691 0.799842 -0.20885
F_ F_ 0.0679386 0.664888 0.547943 -0.20885
F_ F_ 0.0710682 0.687217 0.632708 -0.20885
F_ F_ 0.13473 0.693478 0.591438 -0.20885
F_ F_ 0.173989 0.561277 0.671467 -0.20885
F_ F_ 0.168894 0.645939 0.673707 -0.20885
F_ F_ 0.107803 0.606588 0.691253 -0.20885
Zn Zn 0.586691 0.0893807 0.343799 0.83971
Zn Zn 0.650995 0.352958 0.0960693 0.83971
Zn Zn 0.907186 0.420088 0.156076 0.83971
Zn Zn 0.840301 0.145386 0.40764 0.83971
H_ H_ 0.658534 0.135336 0.295675 0.10394
H_ H_ 0.744166 0.10167 0.266341 0.10394
H_ H_ 0.715295 0.448902 0.301966 0.10394
H_ H_ 0.622835 0.985416 0.307455 0.10394
H_ H_ 0.0231747 0.093565 0.254529 0.10394
H_ H_ 0.971689 0.166242 0.216149 0.10394
H_ H_ 0.530257 0.274747 0.340721 0.10394
H_ H_ 0.56349 0.200846 0.383991 0.10394
H_ H_ 0.52406 0.439361 0.354616 0.10394
H_ H_ 0.983795 0.367219 0.379139 0.10394
H_ H_ 0.856083 0.481156 0.408006 0.10394
H_ H_ 0.574267 0.312648 0.147364 0.10394
H_ H_ 1.0160918 0.255042 0.0977766 0.10394
H_ H_ 0.528124 0.298492 0.452493 0.10394
H_ H_ 0.613592 0.322733 0.998836 0.10394
H_ H_ 0.720225 0.263385 0.107489 0.10394
H_ H_ 0.748311 0.207355 0.180328 0.10394
H_ H_ 0.712086 0.334099 0.285765 0.10394
H_ H_ 0.66333 0.381002 0.210405 0.10394
H_ H_ 0.719469 0.369263 0.444778 0.10394
H_ H_ 0.77341 0.370268 0.380671 0.10394
H_ H_ 0.899712 0.397351 0.493659 0.10394
H_ H_ 0.810338 0.395732 0.170079 0.10394
H_ H_ 0.737174 0.441796 0.203826 0.10394
H_ H_ 0.83444 0.0467664 0.288182 0.10394
H_ H_ 0.900744 0.510162 0.22976 0.10394
H_ H_ 0.516579 0.398641 0.209971 0.10394
H_ H_ 0.552388 0.322275 0.255761 0.10394
H_ H_ 0.906069 0.248158 0.218396 0.10394
H_ H_ 0.869971 0.329448 0.181872 0.10394
H_ H_ 0.969436 0.0605309 0.124184 0.10394
H_ H_ 0.52362 0.116808 0.102864 0.10394
H_ H_ 0.65136 0.00704331 0.089318 0.10394
H_ H_ 0.947871 0.14487 0.40064 0.10394
H_ H_ 0.516083 0.198206 0.448718 0.10394
H_ H_ 0.923057 0.283259 0.0483771 0.10394
H_ H_ 0.840736 0.237448 0.487538 0.10394
H_ H_ 0.744227 0.192216 0.387769 0.10394
H_ H_ 0.694532 0.23761 0.318576 0.10394
H_ H_ 0.830807 0.227742 0.241896 0.10394
H_ H_ 0.877517 0.177396 0.314792 0.10394
H_ H_ 0.797908 0.106234 0.0562964 0.10394
H_ H_ 0.740164 0.125414 0.12657 0.10394
H_ H_ 0.614586 0.0923264 0.0106859 0.10394
C_ C_ 0.67422 0.0957247 0.298715 0.18167
C_ C_ 0.720617 0.0757337 0.279868 -0.15533
C_ C_ 0.735193 0.0222214 0.280092 0.02923
C_ C_ 0.701863 0.487562 0.29352 -0.15533
C_ C_ 0.650728 0.00960616 0.299943 0.18167
C_ C_ 0.536086 0.145588 0.268357 0.18167
C_ C_ 0.00214025 0.17473 0.245875 -0.15533
C_ C_ 0.511153 0.236101 0.267976 0.02923
C_ C_ 0.529956 0.239176 0.319126 -0.15533
C_ C_ 0.552836 0.195818 0.343279 0.18167
C_ C_ 0.50665 0.0497805 0.371271 0.69207
C_ C_ 0.976207 0.499307 0.381731 0.02923
C_ C_ 0.996524 0.447559 0.378502 -0.15533
C_ C_ 0.968416 0.407131 0.383561 -0.15533
C_ C_ 0.915521 0.420969 0.393 0.02923
C_ C_ 0.897181 0.472795 0.401092 -0.15533
C_ C_ 0.926113 0.512245 0.39369 0.02923
C_ C_ 0.904256 0.0668571 0.371153 0.69207
C_ C_ 0.898092 0.325343 0.382735 0.69661
C_ C_ 0.56478 0.304555 0.107268 0.18167
C_ C_ 0.5245 0.278532 0.0870639 -0.15533
C_ C_ 0.514845 0.267591 0.0341858 0.02923
C_ C_ 0.539069 0.297217 0.493201 -0.15533
C_ C_ 0.590076 0.306665 0.0210507 0.18167
C_ C_ 0.71665 0.277926 0.147278 0.18167
C_ C_ 0.733473 0.246541 0.186589 -0.15533
C_ C_ 0.732753 0.267902 0.23597 0.02923
C_ C_ 0.710004 0.318023 0.245372 -0.15533
C_ C_ 0.683915 0.342531 0.204709 0.18167
C_ C_ 0.733175 0.374684 0.0553315 0.69207
C_ C_ 0.775743 0.375659 0.508861 0.02923
C_ C_ 0.755821 0.379222 0.456697 -0.15533
C_ C_ 0.788502 0.378974 0.420073 -0.15533
C_ C_ 0.840277 0.387815 0.430862 0.02923
C_ C_ 0.858091 0.390845 0.482118 -0.15533
C_ C_ 0.824994 0.386988 0.521307 0.02923
C_ C_ 0.844959 0.390765 0.0727126 0.69207
C_ C_ 0.849734 0.392314 0.332063 0.69661
C_ C_ 0.814804 0.430671 0.196149 0.18167
C_ C_ 0.772955 0.454405 0.219349 -0.15533
C_ C_ 0.777179 0.49925 0.250101 0.02923
C_ C_ 0.82618 0.0196276 0.256649 -0.15533
C_ C_ 0.865359 0.493679 0.228663 0.18167
C_ C_ 0.985187 0.357536 0.211662 0.18167
C_ C_ 0.514034 0.323919 0.239733 -0.15533
C_ C_ 0.982411 0.27414 0.238664 0.02923
C_ C_ 0.933089 0.275997 0.215656 -0.15533
C_ C_ 0.910163 0.320387 0.193141 0.18167
C_ C_ 0.989263 0.451584 0.122491 0.69207
C_ C_ 0.530592 0.989299 0.120485 0.02923
C_ C_ 0.510062 0.0406879 0.120201 -0.15533
C_ C_ 0.543149 0.0792911 0.112625 -0.15533
C_ C_ 0.594943 0.0666277 0.106782 0.02923
C_ C_ 0.61246 0.0172322 0.100857 -0.15533
C_ C_ 0.582182 0.977583 0.110133 0.02923
C_ C_ 0.600565 0.436416 0.118795 0.69207
C_ C_ 0.602151 0.165207 0.107494 0.69661
C_ C_ 0.937682 0.1714 0.429464 0.18167
C_ C_ 0.97541 0.20071 0.451636 -0.15533
C_ C_ 0.968259 0.234897 0.493841 0.02923
C_ C_ 0.92927 0.25366 0.0215901 -0.15533
C_ C_ 0.879088 0.220697 0.480175 0.18167
C_ C_ 0.761941 0.193588 0.353287 0.18167
C_ C_ 0.734615 0.219268 0.315457 -0.15533
C_ C_ 0.76029 0.23747 0.277755 0.02923
C_ C_ 0.813335 0.219384 0.275006 -0.15533
C_ C_ 0.837185 0.190365 0.313613 0.18167
C_ C_ 0.76555 0.115876 0.44918 0.69207
C_ C_ 0.735193 0.111295 0.996921 0.02923
C_ C_ 0.756354 0.111681 0.0481879 -0.15533
C_ C_ 0.724569 0.112443 0.0861315 -0.15533
C_ C_ 0.671862 0.105815 0.0748626 0.02923
C_ C_ 0.653782 0.0970185 0.0217098 -0.15533
C_ C_ 0.68332 0.107758 0.984015 0.02923
C_ C_ 0.652224 0.10672 0.421124 0.69207
C_ C_ 0.651683 0.110331 0.168518 0.69661
C_ C_ 0.87649 0.381572 0.386779 -0.30787
C_ C_ 0.630369 0.110319 0.113731 -0.30787
N_ N_ 0.640434 0.0615463 0.30685 -0.32189
N_ N_ 0.558373 0.151234 0.317209 -0.32189
N_ N_ 0.596391 0.31839 0.0730609 -0.32189
N_ N_ 0.68696 0.321316 0.155938 -0.32189
N_ N_ 0.859457 0.450943 0.19931 -0.32189
N_ N_ 0.935805 0.359664 0.18991 -0.32189
N_ N_ 0.889365 0.184987 0.439957 -0.32189
N_ N_ 0.810327 0.17489 0.348787 -0.32189
O_ O_ 0.0156287 0.0754844 0.396471 -0.63271
O_ O_ 0.539977 0.0431031 0.338707 -0.57982
O_ O_ 0.90605 0.0944095 0.330261 -0.63271
O_ O_ 0.876252 0.082799 0.40682 -0.57982
O_ O_ 0.745214 0.393308 0.101704 -0.63271
O_ O_ 0.694153 0.344966 0.0469674 -0.57982
O_ O_ 0.849259 0.346563 0.094287 -0.63271
O_ O_ 0.870896 0.427998 0.0952228 -0.57982
O_ O_ 0.495929 0.416525 0.105787 -0.63271
O_ O_ 0.960194 0.461728 0.16007 -0.57982
O_ O_ 0.591802 0.409686 0.156336 -0.63271
O_ O_ 0.636416 0.418481 0.0905772 -0.57982
O_ O_ 0.763084 0.084152 0.408028 -0.63271
O_ O_ 0.798933 0.147725 0.456883 -0.57982
O_ O_ 0.656454 0.144701 0.391697 -0.63271
O_ O_ 0.619248 0.0738069 0.404787 -0.57982
F_ F_ 0.930872 0.314463 0.42588 -0.20885
F_ F_ 0.925061 0.311193 0.341644 -0.20885
F_ F_ 0.859 0.292875 0.381769 -0.20885
F_ F_ 0.81309 0.433727 0.330628 -0.20885
F_ F_ 0.828223 0.349726 0.308233 -0.20885
F_ F_ 0.88241 0.404091 0.297737 -0.20885
F_ F_ 0.574311 0.171837 0.0618136 -0.20885
F_ F_ 0.569864 0.184519 0.143601 -0.20885
F_ F_ 0.632814 0.204349 0.104904 -0.20885
F_ F_ 0.685214 0.0672837 0.177229 -0.20885
F_ F_ 0.676665 0.151039 0.183933 -0.20885
F_ F_ 0.612307 0.110977 0.201847 -0.20885
Zn Zn 0.592825 0.0858221 0.847901 0.83971
Zn Zn 0.660937 0.344687 0.587657 0.83971
Zn Zn 0.907345 0.414352 0.658025 0.83971
Zn Zn 0.847997 0.162279 0.921565 0.83971
H_ H_ 0.684402 0.131666 0.818941 0.10394
H_ H_ 0.752943 0.101066 0.768119 0.10394
H_ H_ 0.694197 0.444886 0.775822 0.10394
H_ H_ 0.629134 0.988998 0.812255 0.10394
H_ H_ 0.0324924 0.0956108 0.755307 0.10394
H_ H_ 0.999758913 0.167168 0.708602 0.10394
H_ H_ 0.528271 0.268803 0.842676 0.10394
H_ H_ 0.568864 0.193174 0.882702 0.10394
H_ H_ 0.53038 0.440171 0.863652 0.10394
H_ H_ 0.973349 0.369968 0.885791 0.10394
H_ H_ 0.84337 0.491388 0.892764 0.10394
H_ H_ 0.576134 0.312157 0.640338 0.10394
H_ H_ -0.007688999999999946 0.26288 0.596127 0.10394
H_ H_ 0.546745 0.266955 0.961561 0.10394
H_ H_ 0.612065 0.325094 0.490821 0.10394
H_ H_ 0.746926 0.26242 0.605517 0.10394
H_ H_ 0.759676 0.203783 0.674238 0.10394
H_ H_ 0.706244 0.326137 0.774613 0.10394
H_ H_ 0.670499 0.375406 0.696432 0.10394
H_ H_ 0.707657 0.361955 0.954471 0.10394
H_ H_ 0.750345 0.385162 0.884057 0.10394
H_ H_ 0.882602 0.417956 0.990746 0.10394
H_ H_ 0.807481 0.383179 0.6675 0.10394
H_ H_ 0.733473 0.431297 0.701367 0.10394
H_ H_ 0.835212 0.0439473 0.772606 0.10394
H_ H_ 0.89886 0.502047 0.720859 0.10394
H_ H_ 0.513484 0.375272 0.677998 0.10394
H_ H_ 0.558344 0.308319 0.728727 0.10394
H_ H_ 0.911206 0.24496 0.732697 0.10394
H_ H_ 0.874809 0.316469 0.684417 0.10394
H_ H_ 0.960567 0.0505734 0.609339 0.10394
H_ H_ 0.515991 0.126081 0.602853 0.10394
H_ H_ 0.639597 0.00882522 0.581292 0.10394
H_ H_ 0.942732 0.159689 0.904818 0.10394
H_ H_ 0.517907 0.179665 0.967509 0.10394
H_ H_ 0.907061 0.275628 0.536588 0.10394
H_ H_ 0.851727 0.23887 0.0100696 0.10394
H_ H_ 0.735814 0.195764 0.887528 0.10394
H_ H_ 0.696276 0.241754 0.811221 0.10394
H_ H_ 0.835525 0.228518 0.745862 0.10394
H_ H_ 0.878238 0.184896 0.824951 0.10394
H_ H_ 0.784105 0.12862 0.548041 0.10394
H_ H_ 0.730427 0.107628 0.615345 0.10394
H_ H_ 0.605005 0.0973814 0.498657 0.10394
C_ C_ 0.686975 0.0937908 0.804182 0.18167
C_ C_ 0.728009 0.0745057 0.776172 -0.15533
C_ C_ 0.735012 0.0210995 0.762558 0.02923
C_ C_ 0.69076 0.484941 0.772973 -0.15533
C_ C_ 0.656379 0.0124409 0.801649 0.18167
C_ C_ 0.535247 0.14047 0.76935 0.18167
C_ C_ 0.0160223 0.175303 0.744466 -0.15533
C_ C_ 0.512913 0.230264 0.766641 0.02923
C_ C_ 0.530691 0.232519 0.819583 -0.15533
C_ C_ 0.550928 0.188765 0.84601 0.18167
C_ C_ 0.510201 0.0513981 0.867471 0.69207
C_ C_ 0.968281 0.499 0.876502 0.02923
C_ C_ 0.983592 0.447217 0.871361 -0.15533
C_ C_ 0.954224 0.410906 0.882801 -0.15533
C_ C_ 0.900088 0.423957 0.890233 0.02923
C_ C_ 0.883202 0.476077 0.890708 -0.15533
C_ C_ 0.916107 0.514656 0.886503 0.02923
C_ C_ 0.897399 0.0731055 0.886502 0.69207
C_ C_ 0.890883 0.326414 0.89822 0.69661
C_ C_ 0.567461 0.302056 0.598344 0.18167
C_ C_ 0.522384 0.281684 0.575926 -0.15533
C_ C_ 0.509532 0.276236 0.523861 0.02923
C_ C_ 0.546975 0.283163 1.0000785039 -0.15533
C_ C_ 0.58557 0.312882 0.514505 0.18167
C_ C_ 0.724389 0.268553 0.637715 0.18167
C_ C_ 0.744279 0.241061 0.681018 -0.15533
C_ C_ 0.738136 0.261969 0.730012 0.02923
C_ C_ 0.709682 0.309885 0.735477 -0.15533
C_ C_ 0.68944 0.337788 0.693964 0.18167
C_ C_ 0.741317 0.36298 0.547222 0.69207
C_ C_ 0.763849 0.385008 1.0141235 0.02923
C_ C_ 0.742989 0.377853 0.962912 -0.15533
C_ C_ 0.771553 0.38531 0.922083 -0.15533
C_ C_ 0.822956 0.396462 0.931158 0.02923
C_ C_ 0.842455 0.408971 0.981673 -0.15533
C_ C_ 0.816058 0.396793 0.0231416 0.02923
C_ C_ 0.849296 0.38599 0.574906 0.69207
C_ C_ 0.836665 0.384089 0.835447 0.69661
C_ C_ 0.81296 0.416886 0.691929 0.18167
C_ C_ 0.77047 0.445628 0.710589 -0.15533
C_ C_ 0.774527 0.492733 0.737831 0.02923
C_ C_ 0.827531 0.0108035 0.746191 -0.15533
C_ C_ 0.862658 0.485989 0.719266 0.18167
C_ C_ 0.991879 0.352253 0.70786 0.18167
C_ C_ 0.515055 0.312968 0.725239 -0.15533
C_ C_ 0.988314 0.267778 0.737189 0.02923
C_ C_ 0.93737 0.272225 0.719939 -0.15533
C_ C_ 0.915709 0.316167 0.694675 0.18167
C_ C_ 0.983297 0.45106 0.62633 0.69207
C_ C_ 0.519954 0.997779 0.611402 0.02923
C_ C_ 0.500275 0.0501916 0.610738 -0.15533
C_ C_ 0.531035 0.0869858 0.602613 -0.15533
C_ C_ 0.583041 0.073431 0.592733 0.02923
C_ C_ 0.599137 0.0196592 0.583772 -0.15533
C_ C_ 0.570595 0.983635 0.600673 0.02923
C_ C_ 0.593424 0.428767 0.610797 0.69207
C_ C_ 0.601323 0.170647 0.595037 0.69661
C_ C_ 0.940617 0.184752 0.939738 0.18167
C_ C_ 0.982297 0.206023 0.962055 -0.15533
C_ C_ 0.975637 0.246713 -0.0006300000000000194 0.02923
C_ C_ 0.918028 0.244703 0.509982 -0.15533
C_ C_ 0.887689 0.233344 0.994221 0.18167
C_ C_ 0.758823 0.20111 0.857906 0.18167
C_ C_ 0.734701 0.226732 0.815318 -0.15533
C_ C_ 0.76249 0.235251 0.774846 0.02923
C_ C_ 0.813966 0.21945 0.777197 -0.15533
C_ C_ 0.835948 0.19313 0.821026 0.18167
C_ C_ 0.769138 0.119575 0.956796 0.69207
C_ C_ 0.727367 0.116433 0.486449 0.02923
C_ C_ 0.746659 0.117566 0.538857 -0.15533
C_ C_ 0.714282 0.110087 0.575903 -0.15533
C_ C_ 0.661622 0.103846 0.562241 0.02923
C_ C_ 0.645231 0.0986892 0.512087 -0.15533
C_ C_ 0.676361 0.106028 0.473438 0.02923
C_ C_ 0.656343 0.114354 0.931062 0.69207
C_ C_ 0.644405 0.109826 0.656646 0.69661
C_ C_ 0.86346 0.382504 0.889129 -0.30787
C_ C_ 0.621933 0.112896 0.601053 -0.30787
N_ N_ 0.650034 0.0625139 0.812579 -0.32189
N_ N_ 0.556297 0.144126 0.819427 -0.32189
N_ N_ 0.601222 0.312561 0.565078 -0.32189
N_ N_ 0.692752 0.313422 0.646309 -0.32189
N_ N_ 0.856862 0.439876 0.695235 -0.32189
N_ N_ 0.942215 0.355517 0.690901 -0.32189
N_ N_ 0.893865 0.201224 0.95376 -0.32189
N_ N_ 0.809777 0.18763 0.861952 -0.32189
O_ O_ 0.00796879 0.0897406 0.901408 -0.63271
O_ O_ 0.547865 0.0388721 0.838581 -0.57982
O_ O_ 0.899321 0.0982045 0.847395 -0.63271
O_ O_ 0.879166 0.0964715 0.925971 -0.57982
O_ O_ 0.744294 0.389862 0.590404 -0.63271
O_ O_ 0.698275 0.341248 0.533943 -0.57982
O_ O_ 0.85402 0.342976 0.599516 -0.63271
O_ O_ 0.879369 0.421362 0.594976 -0.57982
O_ O_ 0.485642 0.4151 0.588921 -0.63271
O_ O_ 0.953705 0.462036 0.661443 -0.57982
O_ O_ 0.588388 0.406673 0.653363 -0.63271
O_ O_ 0.62892 0.409785 0.582318 -0.57982
O_ O_ 0.774575 0.085896 0.917537 -0.63271
O_ O_ 0.797953 0.15774 0.962625 -0.57982
O_ O_ 0.661544 0.156217 0.908528 -0.63271
O_ O_ 0.622094 0.0828116 0.91291 -0.57982
F_ F_ 0.924812 0.32716 0.940208 -0.20885
F_ F_ 0.911513 0.309553 0.853711 -0.20885
F_ F_ 0.855605 0.294699 0.903373 -0.20885
F_ F_ 0.801031 0.427218 0.832655 -0.20885
F_ F_ 0.808205 0.342929 0.823536 -0.20885
F_ F_ 0.865692 0.386219 0.795604 -0.20885
F_ F_ 0.567437 0.175521 0.551169 -0.20885
F_ F_ 0.573864 0.191233 0.635384 -0.20885
F_ F_ 0.638995 0.203724 0.589163 -0.20885
F_ F_ 0.67586 0.0642985 0.664503 -0.20885
F_ F_ 0.673917 0.150457 0.669522 -0.20885
F_ F_ 0.60994 0.113654 0.690825 -0.20885
Zn Zn 0.583381 0.580281 0.344335 0.83971
Zn Zn 0.668931 0.844382 0.0853903 0.83971
Zn Zn 0.910772 0.921949 0.155695 0.83971
Zn Zn 0.836185 0.649902 0.416815 0.83971
H_ H_ 0.657975 0.631806 0.297834 0.10394
H_ H_ 0.747155 0.599684 0.274487 0.10394
H_ H_ 0.709956 0.948293 0.286722 0.10394
H_ H_ 0.634247 0.485933 0.33372 0.10394
H_ H_ 0.0314948 0.600288 0.247461 0.10394
H_ H_ 0.99511368 0.672112 0.201388 0.10394
H_ H_ 0.544789 0.762077 0.336697 0.10394
H_ H_ 0.564097 0.681738 0.377563 0.10394
H_ H_ 0.533012 0.946706 0.378921 0.10394
H_ H_ 0.987302 0.870236 0.373913 0.10394
H_ H_ 0.863316 0.9876 0.397068 0.10394
H_ H_ 0.586032 0.808337 0.127062 0.10394
H_ H_ 0.996697 0.772661 0.103633 0.10394
H_ H_ 0.541129 0.781048 0.434014 0.10394
H_ H_ 0.621262 0.822034 0.97943 0.10394
H_ H_ 0.72783 0.73977 0.0963604 0.10394
H_ H_ 0.763824 0.691114 0.175798 0.10394
H_ H_ 0.731579 0.827454 0.266809 0.10394
H_ H_ 0.679541 0.864355 0.192347 0.10394
H_ H_ 0.723176 0.836068 0.437361 0.10394
H_ H_ 0.779567 0.847053 0.372021 0.10394
H_ H_ 0.883575 0.920964 0.478108 0.10394
H_ H_ 0.808345 0.900875 0.164034 0.10394
H_ H_ 0.73438 0.945028 0.202751 0.10394
H_ H_ 0.836209 0.547898 0.289113 0.10394
H_ H_ 0.903189 1.00474571 0.23667 0.10394
H_ H_ 0.526195 0.878594 0.185901 0.10394
H_ H_ 0.568145 0.805674 0.228434 0.10394
H_ H_ 0.920976 0.743644 0.214465 0.10394
H_ H_ 0.874607 0.820025 0.180484 0.10394
H_ H_ 0.961614 0.549014 0.110524 0.10394
H_ H_ 0.524856 0.630229 0.107547 0.10394
H_ H_ 0.651749 0.510993 0.109737 0.10394
H_ H_ 0.943466 0.647168 0.40585 0.10394
H_ H_ 0.511586 0.689099 0.432784 0.10394
H_ H_ 0.916885 0.766481 0.0566733 0.10394
H_ H_ 0.843366 0.727218 0.504419 0.10394
H_ H_ 0.733422 0.698039 0.390331 0.10394
H_ H_ 0.694756 0.7368 0.310431 0.10394
H_ H_ 0.841219 0.710312 0.246786 0.10394
H_ H_ 0.876591 0.667047 0.326195 0.10394
H_ H_ 0.785132 0.636145 0.0473901 0.10394
H_ H_ 0.740743 0.602199 0.110531 0.10394
H_ H_ 0.619203 0.566746 0.0022800000000000598 0.10394
C_ C_ 0.670863 0.592385 0.297796 0.18167
C_ C_ 0.721819 0.574313 0.287127 -0.15533
C_ C_ 0.733792 0.521284 0.278507 0.02923
C_ C_ 0.698649 0.990143 0.290722 -0.15533
C_ C_ 0.657108 0.509063 0.314912 0.18167
C_ C_ 0.533268 0.631589 0.261032 0.18167
C_ C_ 0.0148157 0.678599 0.238563 -0.15533
C_ C_ 0.52307 0.725173 0.260363 0.02923
C_ C_ 0.539861 0.725832 0.313168 -0.15533
C_ C_ 0.554061 0.68145 0.337623 0.18167
C_ C_ 0.500835 0.544617 0.363262 0.69207
C_ C_ 0.980364 -0.0015969999999999596 0.360452 0.02923
C_ C_ -0.001566999999999985 0.946108 0.358896 -0.15533
C_ C_ 0.967706 0.908578 0.368412 -0.15533
C_ C_ 0.916278 0.922128 0.380494 0.02923
C_ C_ 0.899124 0.975929 0.381883 -0.15533
C_ C_ 0.929497 0.014312 0.372116 0.02923
C_ C_ 0.898226 0.565485 0.387937 0.69207
C_ C_ 0.900433 0.828436 0.374896 0.69661
C_ C_ 0.579196 0.803747 0.0880073 0.18167
C_ C_ 0.535649 0.777644 0.0721393 -0.15533
C_ C_ 0.523616 0.768158 0.0194215 0.02923
C_ C_ 0.546411 0.788027 0.475473 -0.15533
C_ C_ 0.597597 0.810244 0.00639799 0.18167
C_ C_ 0.729177 0.758832 0.133757 0.18167
C_ C_ 0.747367 0.731831 0.177435 -0.15533
C_ C_ 0.742025 0.754907 0.226202 0.02923
C_ C_ 0.721049 0.806873 0.229096 -0.15533
C_ C_ 0.710086 0.834361 0.186417 0.18167
C_ C_ 0.745194 0.87617 0.045569 0.69207
C_ C_ 0.775875 0.867912 0.497796 0.02923
C_ C_ 0.759098 0.855491 0.44551 -0.15533
C_ C_ 0.790675 0.861532 0.407591 -0.15533
C_ C_ 0.837808 0.88672 0.417101 0.02923
C_ C_ 0.850812 0.901895 0.46892 -0.15533
C_ C_ 0.82432 0.886502 0.508418 0.02923
C_ C_ 0.859241 0.886568 0.0692589 0.69207
C_ C_ 0.849018 0.887609 0.32024 0.69661
C_ C_ 0.813365 0.935196 0.189113 0.18167
C_ C_ 0.771258 0.958805 0.214159 -0.15533
C_ C_ 0.778474 1.0000606406 0.250216 0.02923
C_ C_ 0.827505 0.516126 0.260254 -0.15533
C_ C_ 0.866132 0.99443098 0.228651 0.18167
C_ C_ 0.993041 0.859177 0.207093 0.18167
C_ C_ 0.527307 0.806575 0.221714 -0.15533
C_ C_ 0.991439 0.77255 0.231299 0.02923
C_ C_ 0.939818 0.77561 0.212448 -0.15533
C_ C_ 0.915095 0.82126 0.192537 0.18167
C_ C_ 0.991726 0.95653 0.125141 0.69207
C_ C_ 0.524863 0.504003 0.119404 0.02923
C_ C_ 0.50759 0.555043 0.122182 -0.15533
C_ C_ 0.541053 0.59022 0.110253 -0.15533
C_ C_ 0.593232 0.574047 0.104098 0.02923
C_ C_ 0.611979 0.522301 0.108994 -0.15533
C_ C_ 0.578484 0.488346 0.115721 0.02923
C_ C_ 0.608799 0.924857 0.110828 0.69207
C_ C_ 0.610928 0.668454 0.0924316 0.69661
C_ C_ 0.938248 0.675454 0.433819 0.18167
C_ C_ 0.979648 0.700103 0.458941 -0.15533
C_ C_ 0.968952 0.74062 0.495791 0.02923
C_ C_ 0.920432 0.748114 1.0171787 -0.15533
C_ C_ 0.882022 0.721316 0.48997 0.18167
C_ C_ 0.757293 0.702386 0.358788 0.18167
C_ C_ 0.734657 0.726852 0.314306 -0.15533
C_ C_ 0.763658 0.730141 0.273086 0.02923
C_ C_ 0.814452 0.70733 0.277109 -0.15533
C_ C_ 0.835637 0.683899 0.321922 0.18167
C_ C_ 0.762153 0.61045 0.456163 0.69207
C_ C_ 0.728669 0.612794 0.986163 0.02923
C_ C_ 0.746178 0.624844 0.0371577 -0.15533
C_ C_ 0.718761 0.612672 0.0753015 -0.15533
C_ C_ 0.670088 0.597305 0.0641299 0.02923
C_ C_ 0.653745 0.585244 0.0117696 -0.15533
C_ C_ 0.678445 0.601451 0.973071 0.02923
C_ C_ 0.650532 0.601585 0.426167 0.69207
C_ C_ 0.658228 0.61392 0.162034 0.69661
C_ C_ 0.875957 0.883283 0.375409 -0.30787
C_ C_ 0.633263 0.612126 0.105871 -0.30787
N_ N_ 0.641086 0.559621 0.314275 -0.32189
N_ N_ 0.551859 0.635875 0.311344 -0.32189
N_ N_ 0.612868 0.812777 0.0570411 -0.32189
N_ N_ 0.70836 0.809438 0.13864 -0.32189
N_ N_ 0.858899 0.955451 0.193564 -0.32189
N_ N_ 0.942452 0.861004 0.189229 -0.32189
N_ N_ 0.889762 0.686649 0.44975 -0.32189
N_ N_ 0.80685 0.683625 0.361813 -0.32189
O_ O_ 0.00745609 0.583948 0.394947 -0.63271
O_ O_ 0.542057 0.530494 0.339577 -0.57982
O_ O_ 0.897078 0.585839 0.345165 -0.63271
O_ O_ 0.869825 0.585571 0.424097 -0.57982
O_ O_ 0.749527 0.897257 0.091398 -0.63271
O_ O_ 0.712022 0.841284 0.0359378 -0.57982
O_ O_ 0.85699 0.842999 0.0900367 -0.63271
O_ O_ 0.868813 0.927252 0.0961778 -0.57982
O_ O_ 0.50116 0.905563 0.0981458 -0.63271
O_ O_ 0.957406 0.963847 0.157959 -0.57982
O_ O_ 0.609724 0.900456 0.15303 -0.63271
O_ O_ 0.643355 0.908812 0.0805362 -0.57982
O_ O_ 0.757866 0.582658 0.412322 -0.63271
O_ O_ 0.793988 0.643211 0.463993 -0.57982
O_ O_ 0.65366 0.640976 0.39945 -0.63271
O_ O_ 0.612508 0.575343 0.410247 -0.57982
F_ F_ 0.93153 0.818533 0.420216 -0.20885
F_ F_ 0.930443 0.811191 0.336934 -0.20885
F_ F_ 0.868032 0.790316 0.375328 -0.20885
F_ F_ 0.8079 0.924184 0.321004 -0.20885
F_ F_ 0.82299 0.845017 0.302186 -0.20885
F_ F_ 0.878215 0.893208 0.282646 -0.20885
F_ F_ 0.579227 0.662424 0.0482893 -0.20885
F_ F_ 0.586357 0.693146 0.131405 -0.20885
F_ F_ 0.646571 0.70025 0.0826363 -0.20885
F_ F_ 0.689427 0.569256 0.170796 -0.20885
F_ F_ 0.689833 0.653166 0.174175 -0.20885
F_ F_ 0.623243 0.618314 0.199774 -0.20885
Zn Zn 0.587338 0.586252 0.838066 0.83971
Zn Zn 0.6564 0.848067 0.580981 0.83971
Zn Zn 0.907171 0.903517 0.648266 0.83971
Zn Zn 0.841424 0.655773 0.911843 0.83971
H_ H_ 0.677492 0.630299 0.80922 0.10394
H_ H_ 0.75517 0.588411 0.76714 0.10394
H_ H_ 0.706051 0.947857 0.766485 0.10394
H_ H_ 0.616458 0.487269 0.799379 0.10394
H_ H_ 0.0320749 0.587138 0.746525 0.10394
H_ H_ 0.9896231 0.660095 0.698747 0.10394
H_ H_ 0.527474 0.775997 0.839675 0.10394
H_ H_ 0.563207 0.697993 0.880389 0.10394
H_ H_ 0.538841 0.952391 0.877885 0.10394
H_ H_ 0.981925 0.879959 0.893928 0.10394
H_ H_ 0.849691 0.987669 0.882781 0.10394
H_ H_ 0.574216 0.810238 0.621682 0.10394
H_ H_ -0.0009919999999999929 0.77292 0.596562 0.10394
H_ H_ 0.548536 0.778636 0.946338 0.10394
H_ H_ 0.598378 0.844662 0.47709 0.10394
H_ H_ 0.729172 0.756171 0.59052 0.10394
H_ H_ 0.775774 0.712988 0.667511 0.10394
H_ H_ 0.715988 0.83674 0.763468 0.10394
H_ H_ 0.684809 0.883185 0.683868 0.10394
H_ H_ 0.719649 0.895488 0.947771 0.10394
H_ H_ 0.767293 0.901946 0.876418 0.10394
H_ H_ 0.904906 0.892509 0.982415 0.10394
H_ H_ 0.802432 0.898673 0.651412 0.10394
H_ H_ 0.729826 0.951782 0.680089 0.10394
H_ H_ 0.824945 0.546842 0.76615 0.10394
H_ H_ 0.903938 0.999346 0.723633 0.10394
H_ H_ 0.518153 0.886208 0.697739 0.10394
H_ H_ 0.547727 0.818098 0.751962 0.10394
H_ H_ 0.908658 0.733429 0.706986 0.10394
H_ H_ 0.870901 0.814534 0.678079 0.10394
H_ H_ 0.959482 0.554227 0.632261 0.10394
H_ H_ 0.520362 0.622887 0.608956 0.10394
H_ H_ 0.64052 0.506764 0.59137 0.10394
H_ H_ 0.942201 0.661677 0.892579 0.10394
H_ H_ 0.522757 0.690559 0.94678 0.10394
H_ H_ 0.912332 0.774693 0.541163 0.10394
H_ H_ 0.842666 0.732868 0.99901876 0.10394
H_ H_ 0.744878 0.720139 0.890649 0.10394
H_ H_ 0.701136 0.764239 0.813767 0.10394
H_ H_ 0.829353 0.708717 0.731654 0.10394
H_ H_ 0.869075 0.666928 0.809485 0.10394
H_ H_ 0.783575 0.606173 0.554389 0.10394
H_ H_ 0.736036 0.594398 0.620583 0.10394
H_ H_ 0.604966 0.587194 0.510124 0.10394
C_ C_ 0.681628 0.590066 0.794473 0.18167
C_ C_ 0.726996 0.567541 0.780691 -0.15533
C_ C_ 0.730781 0.514661 0.765651 0.02923
C_ C_ 0.699442 0.989118 0.775369 -0.15533
C_ C_ 0.648261 0.509839 0.792369 0.18167
C_ C_ 0.529163 0.644049 0.767488 0.18167
C_ C_ 0.00298826 0.667097 0.738419 -0.15533
C_ C_ 0.499062 0.733244 0.769002 0.02923
C_ C_ 0.523385 0.73889 0.818726 -0.15533
C_ C_ 0.545087 0.69527 0.842174 0.18167
C_ C_ 0.50734 0.540934 0.859265 0.69207
C_ C_ 0.975759 0.00579112 0.87863 0.02923
C_ C_ -0.00475099999999995 0.955054 0.880561 -0.15533
C_ C_ 0.964825 0.915248 0.888713 -0.15533
C_ C_ 0.911794 0.927268 0.885931 0.02923
C_ C_ 0.893068 0.979644 0.88877 -0.15533
C_ C_ 0.923224 0.0194012 0.886655 0.02923
C_ C_ 0.89223 0.565568 0.879444 0.69207
C_ C_ 0.897451 0.827119 0.87969 0.69661
C_ C_ 0.568176 0.803089 0.581701 0.18167
C_ C_ 0.522436 0.781014 0.561721 -0.15533
C_ C_ 0.517029 0.76784 0.508665 0.02923
C_ C_ 0.552973 0.788332 0.986394 -0.15533
C_ C_ 0.586666 0.816732 0.499114 0.18167
C_ C_ 0.726972 0.776418 0.628993 0.18167
C_ C_ 0.753087 0.751227 0.672822 -0.15533
C_ C_ 0.739729 0.76767 0.721284 0.02923
C_ C_ 0.712763 0.817431 0.727056 -0.15533
C_ C_ 0.696914 0.842141 0.683117 0.18167
C_ C_ 0.739801 0.867558 0.537065 0.69207
C_ C_ 0.780674 0.887986 1.00720264 0.02923
C_ C_ 0.757596 0.895674 0.956729 -0.15533
C_ C_ 0.787682 0.897633 0.915956 -0.15533
C_ C_ 0.8421 0.892308 0.924403 0.02923
C_ C_ 0.865289 0.89164 0.97462 -0.15533
C_ C_ 0.833949 0.892936 0.0157896 0.02923
C_ C_ 0.852208 0.881416 0.562045 0.69207
C_ C_ 0.845404 0.889925 0.824614 0.69661
C_ C_ 0.808033 0.931181 0.67712 0.18167
C_ C_ 0.767777 0.963451 0.691633 -0.15533
C_ C_ 0.777033 0.0016000000000000458 0.731297 0.02923
C_ C_ 0.823077 0.510881 0.744925 -0.15533
C_ C_ 0.866479 0.985109 0.719805 0.18167
C_ C_ 0.99132 0.839717 0.692533 0.18167
C_ C_ 0.509513 0.818449 0.734876 -0.15533
C_ C_ 0.981308 0.75978 0.728094 0.02923
C_ C_ 0.931682 0.762376 0.70423 -0.15533
C_ C_ 0.912683 0.806863 0.680807 0.18167
C_ C_ 0.98558 0.944375 0.617759 0.69207
C_ C_ 0.516871 0.496366 0.610699 0.02923
C_ C_ 0.499229 0.547906 0.606386 -0.15533
C_ C_ 0.531974 0.585366 0.601207 -0.15533
C_ C_ 0.583597 0.57219 0.598244 0.02923
C_ C_ 0.601256 0.519013 0.597176 -0.15533
C_ C_ 0.569138 0.480359 0.600823 0.02923
C_ C_ 0.59335 0.929748 0.604414 0.69207
C_ C_ 0.606194 0.670788 0.609788 0.69661
C_ C_ 0.937364 0.687207 0.926618 0.18167
C_ C_ 0.978914 0.710632 0.953931 -0.15533
C_ C_ 0.967999 0.74405 0.997471 0.02923
C_ C_ 0.922709 0.745478 0.516098 -0.15533
C_ C_ 0.880591 0.728751 0.987224 0.18167
C_ C_ 0.762493 0.71995 0.856359 0.18167
C_ C_ 0.740005 0.746621 0.813151 -0.15533
C_ C_ 0.766932 0.744207 0.768869 0.02923
C_ C_ 0.812989 0.712968 0.768824 -0.15533
C_ C_ 0.832461 0.686274 0.810613 0.18167
C_ C_ 0.760929 0.624629 0.947957 0.69207
C_ C_ 0.725546 0.607677 0.494357 0.02923
C_ C_ 0.744645 0.606178 0.545848 -0.15533
C_ C_ 0.713774 0.598021 0.583558 -0.15533
C_ C_ 0.661152 0.597465 0.570958 0.02923
C_ C_ 0.641511 0.595002 0.517821 -0.15533
C_ C_ 0.67412 0.59865 0.480101 0.02923
C_ C_ 0.651959 0.608882 0.920341 0.69207
C_ C_ 0.64875 0.602237 0.665544 0.69661
C_ C_ 0.874161 0.885082 0.879405 -0.30787
C_ C_ 0.623066 0.6123 0.611449 -0.30787
N_ N_ 0.644152 0.560118 0.803068 -0.32189
N_ N_ 0.550918 0.647625 0.815991 -0.32189
N_ N_ 0.600124 0.817721 0.550058 -0.32189
N_ N_ 0.691379 0.817572 0.636505 -0.32189
N_ N_ 0.855787 0.945547 0.686225 -0.32189
N_ N_ 0.941605 0.844423 0.676156 -0.32189
N_ N_ 0.89072 0.694595 0.946017 -0.32189
N_ N_ 0.810221 0.691991 0.855452 -0.32189
O_ O_ 1.00799717 0.578914 0.897895 -0.63271
O_ O_ 0.54315 0.537656 0.828035 -0.57982
O_ O_ 0.896016 0.588159 0.83638 -0.63271
O_ O_ 0.872032 0.590357 0.918818 -0.57982
O_ O_ 0.75074 0.893066 0.57997 -0.63271
O_ O_ 0.697248 0.845192 0.52935 -0.57982
O_ O_ 0.846147 0.840132 0.585997 -0.63271
O_ O_ 0.879948 0.915164 0.583689 -0.57982
O_ O_ 0.487378 0.912618 0.593226 -0.63271
O_ O_ 0.958526 0.946662 0.65697 -0.57982
O_ O_ 0.594926 0.905817 0.645197 -0.63271
O_ O_ 0.627359 0.912449 0.572986 -0.57982
O_ O_ 0.75727 0.601037 0.901538 -0.63271
O_ O_ 0.797615 0.654824 0.957855 -0.57982
O_ O_ 0.650757 0.652619 0.896197 -0.63271
O_ O_ 0.621676 0.575906 0.900441 -0.57982
F_ F_ 0.928774 0.814455 0.921291 -0.20885
F_ F_ 0.929454 0.813771 0.840406 -0.20885
F_ F_ 0.860536 0.792209 0.871488 -0.20885
F_ F_ 0.808439 0.930693 0.819189 -0.20885
F_ F_ 0.817739 0.850266 0.807474 -0.20885
F_ F_ 0.877804 0.894452 0.787789 -0.20885
F_ F_ 0.574598 0.674217 0.564611 -0.20885
F_ F_ 0.57582 0.690051 0.64753 -0.20885
F_ F_ 0.644862 0.69913 0.609795 -0.20885
F_ F_ 0.670711 0.553775 0.673117 -0.20885
F_ F_ 0.68172 0.63694 0.686266 -0.20885
F_ F_ 0.613152 0.605817 0.699258 -0.20885
