_cell_length_a 26.508
_cell_length_b 26.37200000322088
_cell_length_c 26.311999743092066
_cell_angle_alpha 93.74100058972084
_cell_angle_beta 96.04100104955006
_cell_angle_gamma 83.6869992558723
_symmetry_space_group_name_H-M         'P 1'
_symmetry_Int_Tables_number            1
loop_
_symmetry_equiv_pos_as_xyz
   'x, y, z'
                         
loop_
_atom_site_label
_atom_site_type_symbol
_atom_site_fract_x 
_atom_site_fract_y
_atom_site_fract_z
_atom_site_charge
Zn Zn 0.0860601 0.0851364 0.338457 0.83971
Zn Zn 0.157935 0.350407 0.0831489 0.83971
Zn Zn 0.40591 0.420065 0.151691 0.83971
Zn Zn 0.335395 0.157068 0.410687 0.83971
H_ H_ 0.16971 0.129927 0.299707 0.10394
H_ H_ 0.253339 0.0954045 0.275363 0.10394
H_ H_ 0.218832 0.45584 0.30757 0.10394
H_ H_ 0.127209 0.980433 0.312181 0.10394
H_ H_ 0.516769 0.106514 0.253334 0.10394
H_ H_ 0.473819 0.182013 0.205745 0.10394
H_ H_ 0.0298186 0.265987 0.319379 0.10394
H_ H_ 0.0757966 0.197603 0.360884 0.10394
H_ H_ 0.0283655 0.448908 0.357488 0.10394
H_ H_ 0.48574 0.377854 0.382961 0.10394
H_ H_ 0.362074 0.487104 0.408654 0.10394
H_ H_ 0.0776505 0.31408 0.131788 0.10394
H_ H_ 0.496691 0.272711 0.0965561 0.10394
H_ H_ 0.0321438 0.309767 0.44157 0.10394
H_ H_ 0.117055 0.319146 0.98097 0.10394
H_ H_ 0.213045 0.257557 0.10012 0.10394
H_ H_ 0.234352 0.204372 0.174814 0.10394
H_ H_ 0.210111 0.340493 0.271999 0.10394
H_ H_ 0.170028 0.38709 0.196926 0.10394
H_ H_ 0.217189 0.373261 0.442382 0.10394
H_ H_ 0.267994 0.40348 0.384717 0.10394
H_ H_ 0.401556 0.403507 0.487422 0.10394
H_ H_ 0.296054 0.407602 0.161957 0.10394
H_ H_ 0.230318 0.452116 0.20769 0.10394
H_ H_ 0.334903 0.0460373 0.272588 0.10394
H_ H_ 0.403604 0.502983 0.231888 0.10394
H_ H_ 0.00744335 0.378324 0.191042 0.10394
H_ H_ 0.0496033 0.293917 0.22454 0.10394
H_ H_ 0.395844 0.264399 0.242444 0.10394
H_ H_ 0.359107 0.336413 0.192953 0.10394
H_ H_ 0.471431 0.057581 0.140313 0.10394
H_ H_ 0.0165631 0.11182 0.0834256 0.10394
H_ H_ 0.14887 0.0007664 0.0952077 0.10394
H_ H_ 0.433984 0.164502 0.38765 0.10394
H_ H_ 0.00936964 0.222327 0.42202 0.10394
H_ H_ 0.41405 0.289788 0.0358012 0.10394
H_ H_ 0.339286 0.238124 0.491531 0.10394
H_ H_ 0.227138 0.198005 0.387244 0.10394
H_ H_ 0.182605 0.247349 0.319693 0.10394
H_ H_ 0.319264 0.227885 0.242368 0.10394
H_ H_ 0.364348 0.187993 0.319964 0.10394
H_ H_ 0.285271 0.117405 0.0476468 0.10394
H_ H_ 0.235121 0.1059 0.117345 0.10394
H_ H_ 0.104442 0.0942007 0.00357603 0.10394
C_ C_ 0.178407 0.0887807 0.298964 0.18167
C_ C_ 0.22439 0.0689986 0.278441 -0.15533
C_ C_ 0.235094 0.0175426 0.267283 0.02923
C_ C_ 0.206741 0.49556 0.303855 -0.15533
C_ C_ 0.156699 0.00683772 0.306691 0.18167
C_ C_ 0.0222584 0.13159 0.260519 0.18167
C_ C_ 0.496946 0.185403 0.244143 -0.15533
C_ C_ -0.00128448 0.221324 0.254506 0.02923
C_ C_ 0.0215424 0.228735 0.304823 -0.15533
C_ C_ 0.0483035 0.188109 0.329534 0.18167
C_ C_ 0.00599812 0.052864 0.362734 0.69207
C_ C_ 0.483436 0.507138 0.389478 0.02923
C_ C_ 0.503232 0.45445 0.384517 -0.15533
C_ C_ 0.469713 0.416526 0.384796 -0.15533
C_ C_ 0.418844 0.428181 0.396754 0.02923
C_ C_ 0.40172 0.477234 0.405605 -0.15533
C_ C_ 0.432678 0.517889 0.399396 0.02923
C_ C_ 0.389938 0.0713533 0.375465 0.69207
C_ C_ 0.403465 0.329827 0.391363 0.69661
C_ C_ 0.0693682 0.303984 0.0913703 0.18167
C_ C_ 0.025653 0.279276 0.074627 -0.15533
C_ C_ 0.0147293 0.267509 0.0219524 0.02923
C_ C_ 0.0461596 0.304688 0.480398 -0.15533
C_ C_ 0.0911599 0.307075 0.00786942 0.18167
C_ C_ 0.206288 0.274474 0.138514 0.18167
C_ C_ 0.224337 0.245944 0.180087 -0.15533
C_ C_ 0.222127 0.267393 0.230304 0.02923
C_ C_ 0.203711 0.320394 0.233852 -0.15533
C_ C_ 0.187766 0.348832 0.192407 0.18167
C_ C_ 0.240361 0.368835 0.0444474 0.69207
C_ C_ 0.282479 0.37306 0.505475 0.02923
C_ C_ 0.260856 0.372944 0.453037 -0.15533
C_ C_ 0.289748 0.387047 0.416748 -0.15533
C_ C_ 0.342562 0.393147 0.428377 0.02923
C_ C_ 0.361212 0.397064 0.478799 -0.15533
C_ C_ 0.33173 0.387446 0.517802 0.02923
C_ C_ 0.348164 0.390046 0.0714485 0.69207
C_ C_ 0.354443 0.387945 0.332543 0.69661
C_ C_ 0.307718 0.436447 0.19045 0.18167
C_ C_ 0.268212 0.462699 0.21668 -0.15533
C_ C_ 0.278638 0.500745 0.255587 0.02923
C_ C_ 0.329127 0.0121539 0.247626 -0.15533
C_ C_ 0.364954 0.495252 0.226643 0.18167
C_ C_ 0.481267 0.36096 0.207691 0.18167
C_ C_ 0.00795118 0.304603 0.21866 -0.15533
C_ C_ 0.477097 0.280869 0.243061 0.02923
C_ C_ 0.423266 0.291232 0.232248 -0.15533
C_ C_ 0.40185 0.328098 0.198627 0.18167
C_ C_ 0.488763 0.453149 0.130347 0.69207
C_ C_ 0.0219114 0.986065 0.105395 0.02923
C_ C_ 0.00279117 0.0385235 0.0977301 -0.15533
C_ C_ 0.0347669 0.0744092 0.0911111 -0.15533
C_ C_ 0.0882894 0.0631028 0.0979536 0.02923
C_ C_ 0.107006 0.0120549 0.0971516 -0.15533
C_ C_ 0.0750539 0.973379 0.108004 0.02923
C_ C_ 0.0904204 0.426915 0.101824 0.69207
C_ C_ 0.104037 0.157387 0.109505 0.69661
C_ C_ 0.429873 0.187159 0.420119 0.18167
C_ C_ 0.474211 0.204873 0.447765 -0.15533
C_ C_ 0.468558 0.240063 0.492307 0.02923
C_ C_ 0.420317 0.257488 0.00830274 -0.15533
C_ C_ 0.37624 0.230351 0.479285 0.18167
C_ C_ 0.245049 0.197431 0.353026 0.18167
C_ C_ 0.219845 0.226034 0.31317 -0.15533
C_ C_ 0.248593 0.242478 0.276065 0.02923
C_ C_ 0.299436 0.222092 0.277514 -0.15533
C_ C_ 0.323466 0.193661 0.315966 0.18167
C_ C_ 0.262018 0.112923 0.451102 0.69207
C_ C_ 0.2257 0.126202 0.987888 0.02923
C_ C_ 0.245663 0.125413 0.0393842 -0.15533
C_ C_ 0.218967 0.110088 0.0777498 -0.15533
C_ C_ 0.165984 0.104228 0.0669685 0.02923
C_ C_ 0.144528 0.103434 0.0139027 -0.15533
C_ C_ 0.172897 0.116761 0.974658 0.02923
C_ C_ 0.147433 0.103942 0.418473 0.69207
C_ C_ 0.153497 0.0960602 0.162008 0.69661
C_ C_ 0.381008 0.388161 0.386067 -0.30787
C_ C_ 0.127981 0.101693 0.107488 -0.30787
N_ N_ 0.144773 0.056386 0.310036 -0.32189
N_ N_ 0.052815 0.141942 0.304269 -0.32189
N_ N_ 0.100796 0.3152 0.05756 -0.32189
N_ N_ 0.185072 0.323044 0.145598 -0.32189
N_ N_ 0.354353 0.455176 0.19307 -0.32189
N_ N_ 0.431912 0.363422 0.189448 -0.32189
N_ N_ 0.383516 0.199851 0.434665 -0.32189
N_ N_ 0.29598 0.18002 0.353197 -0.32189
O_ O_ 0.502157 0.0933214 0.396554 -0.63271
O_ O_ 0.0403141 0.0417045 0.329762 -0.57982
O_ O_ 0.386272 0.0971752 0.333857 -0.63271
O_ O_ 0.370058 0.0965347 0.414817 -0.57982
O_ O_ 0.244673 0.390896 0.0893645 -0.63271
O_ O_ 0.199956 0.34522 0.0328244 -0.57982
O_ O_ 0.352358 0.348342 0.0964339 -0.63271
O_ O_ 0.371523 0.42719 0.0916599 -0.57982
O_ O_ 0.977092 0.409924 0.090882 -0.63271
O_ O_ 0.452191 0.467828 0.156667 -0.57982
O_ O_ 0.0901016 0.405626 0.142663 -0.63271
O_ O_ 0.126431 0.411329 0.072318 -0.57982
O_ O_ 0.261662 0.0881905 0.407521 -0.63271
O_ O_ 0.293153 0.150231 0.461293 -0.57982
O_ O_ 0.154024 0.143683 0.391101 -0.63271
O_ O_ 0.109407 0.0768994 0.403599 -0.57982
F_ F_ 0.438859 0.322872 0.433638 -0.20885
F_ F_ 0.43551 0.314858 0.352611 -0.20885
F_ F_ 0.37024 0.291754 0.390316 -0.20885
F_ F_ 0.316354 0.425366 0.324668 -0.20885
F_ F_ 0.330472 0.34412 0.315117 -0.20885
F_ F_ 0.385165 0.391135 0.295346 -0.20885
F_ F_ 0.0718349 0.170026 0.0666963 -0.20885
F_ F_ 0.077019 0.168794 0.151969 -0.20885
F_ F_ 0.139573 0.193137 0.108255 -0.20885
F_ F_ 0.193786 0.054842 0.166248 -0.20885
F_ F_ 0.178383 0.139198 0.183411 -0.20885
F_ F_ 0.122802 0.0833522 0.198006 -0.20885
Zn Zn 0.0834694 0.0896004 0.843988 0.83971
Zn Zn 0.165966 0.350647 0.581022 0.83971
Zn Zn 0.414303 0.410839 0.656851 0.83971
Zn Zn 0.340884 0.158688 0.913292 0.83971
H_ H_ 0.157838 0.135683 0.785599 0.10394
H_ H_ 0.238238 0.1033 0.759641 0.10394
H_ H_ 0.213278 0.444256 0.790899 0.10394
H_ H_ 0.12915 0.988425 0.816967 0.10394
H_ H_ 0.512079 0.0991285 0.772125 0.10394
H_ H_ 0.485923 0.17485 0.714709 0.10394
H_ H_ 0.0465394 0.275055 0.833863 0.10394
H_ H_ 0.0714723 0.194416 0.881344 0.10394
H_ H_ 0.0368353 0.425515 0.874316 0.10394
H_ H_ 0.485977 0.376668 0.899476 0.10394
H_ H_ 0.357595 0.484131 0.89872 0.10394
H_ H_ 0.081807 0.30518 0.62505 0.10394
H_ H_ 0.498408 0.258737 0.592747 0.10394
H_ H_ 0.041411 0.271274 0.948873 0.10394
H_ H_ 0.109519 0.349024 0.481338 0.10394
H_ H_ 0.220283 0.247803 0.59311 0.10394
H_ H_ 0.25349 0.202829 0.662786 0.10394
H_ H_ 0.215751 0.330719 0.76524 0.10394
H_ H_ 0.185259 0.379706 0.685872 0.10394
H_ H_ 0.219477 0.362491 0.942508 0.10394
H_ H_ 0.272846 0.371324 0.873881 0.10394
H_ H_ 0.397202 0.405193 0.989349 0.10394
H_ H_ 0.31276 0.393551 0.667169 0.10394
H_ H_ 0.238482 0.442684 0.703031 0.10394
H_ H_ 0.325514 0.0568298 0.768234 0.10394
H_ H_ 0.406157 0.50353 0.735163 0.10394
H_ H_ 0.0221572 0.384578 0.696926 0.10394
H_ H_ 0.0589779 0.310082 0.747128 0.10394
H_ H_ 0.409755 0.260655 0.745267 0.10394
H_ H_ 0.374866 0.331622 0.69416 0.10394
H_ H_ 0.465083 0.0544808 0.624271 0.10394
H_ H_ 0.00822466 0.12273 0.591632 0.10394
H_ H_ 0.141604 0.00825215 0.591444 0.10394
H_ H_ 0.442541 0.169034 0.890575 0.10394
H_ H_ 0.0220541 0.181827 0.956755 0.10394
H_ H_ 0.414159 0.271273 0.542495 0.10394
H_ H_ 0.341747 0.243691 -0.00651999999999997 0.10394
H_ H_ 0.237739 0.197046 0.878653 0.10394
H_ H_ 0.192281 0.235824 0.804551 0.10394
H_ H_ 0.33777 0.209951 0.735999 0.10394
H_ H_ 0.378849 0.180402 0.815121 0.10394
H_ H_ 0.279016 0.113187 0.550667 0.10394
H_ H_ 0.224384 0.106883 0.614281 0.10394
H_ H_ 0.0959494 0.0941189 0.495895 0.10394
C_ C_ 0.169546 0.0953491 0.790162 0.18167
C_ C_ 0.217018 0.0761428 0.774695 -0.15533
C_ C_ 0.226363 0.0240991 0.762874 0.02923
C_ C_ 0.205073 0.484223 0.796128 -0.15533
C_ C_ 0.15479 0.0142574 0.807546 0.18167
C_ C_ 0.0162914 0.141502 0.773833 0.18167
C_ C_ 0.50081 0.181176 0.754778 -0.15533
C_ C_ 0.00933122 0.23393 0.770741 0.02923
C_ C_ 0.0362785 0.237761 0.817777 -0.15533
C_ C_ 0.0473206 0.193961 0.845702 0.18167
C_ C_ 0.0086073 0.042008 0.875666 0.69207
C_ C_ 0.480133 0.503916 0.887881 0.02923
C_ C_ 0.502171 0.452603 0.885663 -0.15533
C_ C_ 0.469454 0.413867 0.892901 -0.15533
C_ C_ 0.417135 0.42481 0.890018 0.02923
C_ C_ 0.398421 0.476441 0.8979 -0.15533
C_ C_ 0.429115 0.516583 0.893852 0.02923
C_ C_ 0.397751 0.0731799 0.880926 0.69207
C_ C_ 0.406543 0.328022 0.882967 0.69661
C_ C_ 0.0737056 0.301401 0.585052 0.18167
C_ C_ 0.0293016 0.281958 0.563702 -0.15533
C_ C_ 0.0158825 0.281402 0.511394 0.02923
C_ C_ 0.0516718 0.277135 0.988778 -0.15533
C_ C_ 0.086669 0.331289 0.50433 0.18167
C_ C_ 0.222215 0.267222 0.629846 0.18167
C_ C_ 0.245035 0.242221 0.670981 -0.15533
C_ C_ 0.24434 0.264331 0.721141 0.02923
C_ C_ 0.219599 0.314041 0.72796 -0.15533
C_ C_ 0.20168 0.339588 0.683362 0.18167
C_ C_ 0.249366 0.364646 0.544337 0.69207
C_ C_ 0.276019 0.378332 0.00553949 0.02923
C_ C_ 0.257192 0.373138 0.952576 -0.15533
C_ C_ 0.290825 0.377143 0.913307 -0.15533
C_ C_ 0.341892 0.385723 0.925346 0.02923
C_ C_ 0.358957 0.392859 0.977203 -0.15533
C_ C_ 0.327995 0.388157 0.0171228 0.02923
C_ C_ 0.357759 0.38313 0.571207 0.69207
C_ C_ 0.353358 0.3888 0.828157 0.69661
C_ C_ 0.316385 0.431391 0.685807 0.18167
C_ C_ 0.274936 0.454892 0.711842 -0.15533
C_ C_ 0.28179 0.496341 0.748373 0.02923
C_ C_ 0.318986 0.0221367 0.746009 -0.15533
C_ C_ 0.369813 0.48993 0.729601 0.18167
C_ C_ 0.498687 0.349105 0.699615 0.18167
C_ C_ 0.0192275 0.31536 0.733094 -0.15533
C_ C_ 0.490169 0.273182 0.745522 0.02923
C_ C_ 0.436945 0.280489 0.72797 -0.15533
C_ C_ 0.416181 0.32153 0.697703 0.18167
C_ C_ 0.492753 0.449266 0.623028 0.69207
C_ C_ 0.0182233 0.99667 0.619897 0.02923
C_ C_ -0.0037599999999999856 0.0473451 0.614094 -0.15533
C_ C_ 0.0282356 0.0852216 0.603091 -0.15533
C_ C_ 0.0780759 0.0706027 0.594182 0.02923
C_ C_ 0.10029 0.020431 0.596155 -0.15533
C_ C_ 0.0696329 0.982556 0.606269 0.02923
C_ C_ 0.100505 0.428558 0.602737 0.69207
C_ C_ 0.092784 0.171436 0.59199 0.69661
C_ C_ 0.435271 0.194118 0.922351 0.18167
C_ C_ 0.478409 0.206664 0.955409 -0.15533
C_ C_ 0.469229 0.244852 0.99309 0.02923
C_ C_ 0.418291 0.251642 0.506321 -0.15533
C_ C_ 0.38042 0.234284 0.981489 0.18167
C_ C_ 0.260589 0.20362 0.848061 0.18167
C_ C_ 0.235034 0.22538 0.804147 -0.15533
C_ C_ 0.26373 0.233617 0.764339 0.02923
C_ C_ 0.316965 0.214668 0.770281 -0.15533
C_ C_ 0.337144 0.190841 0.812585 0.18167
C_ C_ 0.264041 0.127599 0.951879 0.69207
C_ C_ 0.221489 0.110013 0.486929 0.02923
C_ C_ 0.23911 0.10583 0.538253 -0.15533
C_ C_ 0.206194 0.10498 0.575636 -0.15533
C_ C_ 0.153454 0.102262 0.562596 0.02923
C_ C_ 0.136196 0.0994637 0.508876 -0.15533
C_ C_ 0.168547 0.106995 0.472973 0.02923
C_ C_ 0.152118 0.114615 0.9203 0.69207
C_ C_ 0.13823 0.113717 0.65747 0.69661
C_ C_ 0.37917 0.382039 0.883469 -0.30787
C_ C_ 0.115122 0.113682 0.60126 -0.30787
N_ N_ 0.137585 0.0633036 0.805572 -0.32189
N_ N_ 0.0415091 0.146534 0.822681 -0.32189
N_ N_ 0.102986 0.322065 0.553515 -0.32189
N_ N_ 0.197798 0.315223 0.636423 -0.32189
N_ N_ 0.360819 0.449996 0.694554 -0.32189
N_ N_ 0.448076 0.351493 0.682247 -0.32189
N_ N_ 0.388894 0.203181 0.939567 -0.32189
N_ N_ 0.311181 0.18776 0.852015 -0.32189
O_ O_ 0.507397 0.0881397 0.902486 -0.63271
O_ O_ 0.036263 0.0426011 0.836057 -0.57982
O_ O_ 0.387447 0.0892793 0.836579 -0.63271
O_ O_ 0.381429 0.101148 0.920425 -0.57982
O_ O_ 0.253349 0.388355 0.589491 -0.63271
O_ O_ 0.21016 0.338394 0.533222 -0.57982
O_ O_ 0.357782 0.34013 0.597657 -0.63271
O_ O_ 0.385001 0.417076 0.593082 -0.57982
O_ O_ 0.984064 0.414358 0.590106 -0.63271
O_ O_ 0.461372 0.455815 0.658793 -0.57982
O_ O_ 0.093114 0.401637 0.64176 -0.63271
O_ O_ 0.139475 0.414121 0.574236 -0.57982
O_ O_ 0.266833 0.0948433 0.913356 -0.63271
O_ O_ 0.298528 0.160012 0.961794 -0.57982
O_ O_ 0.153218 0.152994 0.891631 -0.63271
O_ O_ 0.113848 0.0882447 0.90816 -0.57982
F_ F_ 0.438849 0.321543 0.926165 -0.20885
F_ F_ 0.43558 0.321163 0.842379 -0.20885
F_ F_ 0.376136 0.290073 0.883579 -0.20885
F_ F_ 0.31566 0.428858 0.827734 -0.20885
F_ F_ 0.332669 0.34568 0.809824 -0.20885
F_ F_ 0.38407 0.406199 0.793688 -0.20885
F_ F_ 0.0648659 0.17029 0.546935 -0.20885
F_ F_ 0.0638729 0.195142 0.62871 -0.20885
F_ F_ 0.132575 0.20079 0.58522 -0.20885
F_ F_ 0.169633 0.0705541 0.6671 -0.20885
F_ F_ 0.166708 0.152289 0.673032 -0.20885
F_ F_ 0.102043 0.115428 0.690681 -0.20885
Zn Zn 0.084551 0.590676 0.344731 0.83971
Zn Zn 0.162115 0.839055 0.084484 0.83971
Zn Zn 0.413614 0.914284 0.156456 0.83971
Zn Zn 0.348422 0.654685 0.418559 0.83971
H_ H_ 0.158439 0.639328 0.294175 0.10394
H_ H_ 0.238031 0.599511 0.256968 0.10394
H_ H_ 0.215262 0.944895 0.290887 0.10394
H_ H_ 0.138664 0.491826 0.340026 0.10394
H_ H_ 0.530732 0.600958 0.261599 0.10394
H_ H_ 0.488935 0.672778 0.215728 0.10394
H_ H_ 0.0321132 0.774074 0.344483 0.10394
H_ H_ 0.0738236 0.697899 0.379964 0.10394
H_ H_ 0.0379546 0.950975 0.376737 0.10394
H_ H_ 0.485371 0.877736 0.385456 0.10394
H_ H_ 0.349699 0.984139 0.399287 0.10394
H_ H_ 0.073833 0.796664 0.133616 0.10394
H_ H_ 0.496351 0.769597 0.1026 0.10394
H_ H_ 0.0462616 0.793356 0.44877 0.10394
H_ H_ 0.114892 0.822606 0.98712 0.10394
H_ H_ 0.221523 0.744045 0.0918647 0.10394
H_ H_ 0.276065 0.703112 0.162801 0.10394
H_ H_ 0.223206 0.820034 0.269834 0.10394
H_ H_ 0.18006 0.868009 0.195641 0.10394
H_ H_ 0.219843 0.859713 0.443848 0.10394
H_ H_ 0.269835 0.875838 0.375098 0.10394
H_ H_ 0.394158 0.912895 0.484155 0.10394
H_ H_ 0.312234 0.887342 0.169225 0.10394
H_ H_ 0.240279 0.934088 0.204083 0.10394
H_ H_ 0.337299 0.546375 0.289178 0.10394
H_ H_ 0.407325 0.00198527 0.231309 0.10394
H_ H_ -0.0009890000000000176 0.891624 0.206786 0.10394
H_ H_ 0.0374768 0.823217 0.258519 0.10394
H_ H_ 0.4214 0.744061 0.225606 0.10394
H_ H_ 0.379767 0.818958 0.1846 0.10394
H_ H_ 0.457035 0.546886 0.107677 0.10394
H_ H_ 0.00829854 0.620307 0.104482 0.10394
H_ H_ 0.130833 0.507952 0.0747905 0.10394
H_ H_ 0.447466 0.66308 0.394753 0.10394
H_ H_ 0.0106593 0.696375 0.449222 0.10394
H_ H_ 0.418435 0.775201 0.0504487 0.10394
H_ H_ 0.350309 0.741694 0.499882 0.10394
H_ H_ 0.235544 0.692286 0.383157 0.10394
H_ H_ 0.197576 0.724302 0.297247 0.10394
H_ H_ 0.339526 0.72597 0.248962 0.10394
H_ H_ 0.38224 0.68325 0.328207 0.10394
H_ H_ 0.285121 0.596905 0.057678 0.10394
H_ H_ 0.225028 0.613804 0.122958 0.10394
H_ H_ 0.100635 0.598903 0.00141688 0.10394
C_ C_ 0.173066 0.598029 0.29916 0.18167
C_ C_ 0.219164 0.577543 0.27957 -0.15533
C_ C_ 0.23786 0.525589 0.285706 0.02923
C_ C_ 0.200492 0.984153 0.283606 -0.15533
C_ C_ 0.161029 0.515017 0.321277 0.18167
C_ C_ 0.025599 0.645131 0.272473 0.18167
C_ C_ 0.514795 0.680515 0.249422 -0.15533
C_ C_ -0.002685999999999966 0.734974 0.27314 0.02923
C_ C_ 0.030628 0.739776 0.320575 -0.15533
C_ C_ 0.0585506 0.698259 0.34048 0.18167
C_ C_ 0.0017617 0.552272 0.367427 0.69207
C_ C_ 0.470097 0.0073097 0.371804 0.02923
C_ C_ 0.492508 0.955639 0.372293 -0.15533
C_ C_ 0.464051 0.916095 0.381111 -0.15533
C_ C_ 0.412002 0.926885 0.388319 0.02923
C_ C_ 0.388847 0.978082 0.389145 -0.15533
C_ C_ 0.417917 0.0190453 0.381627 0.02923
C_ C_ 0.409298 0.571153 0.395016 0.69207
C_ C_ 0.395572 0.828042 0.383649 0.69661
C_ C_ 0.0666731 0.7929 0.0936949 0.18167
C_ C_ 0.0198755 0.779361 0.0739306 -0.15533
C_ C_ 0.0097979 0.771325 0.0217079 0.02923
C_ C_ 0.0475224 0.799153 0.489811 -0.15533
C_ C_ 0.0906852 0.80713 0.0100912 0.18167
C_ C_ 0.225145 0.762167 0.131304 0.18167
C_ C_ 0.246749 0.733897 0.171213 -0.15533
C_ C_ 0.24197 0.751564 0.221724 0.02923
C_ C_ 0.216616 0.802387 0.230729 -0.15533
C_ C_ 0.196169 0.829444 0.188637 0.18167
C_ C_ 0.246942 0.857838 0.0495029 0.69207
C_ C_ 0.277049 0.873098 0.504357 0.02923
C_ C_ 0.259491 0.867313 0.45237 -0.15533
C_ C_ 0.288643 0.875415 0.413873 -0.15533
C_ C_ 0.338668 0.889877 0.425697 0.02923
C_ C_ 0.355446 0.900805 0.476689 -0.15533
C_ C_ 0.327722 0.88873 0.516366 0.02923
C_ C_ 0.357379 0.884616 0.0738144 0.69207
C_ C_ 0.347358 0.886896 0.329056 0.69661
C_ C_ 0.319395 0.918892 0.195028 0.18167
C_ C_ 0.277295 0.947076 0.211292 -0.15533
C_ C_ 0.279992 0.994842 0.238603 0.02923
C_ C_ 0.328464 0.517512 0.259959 -0.15533
C_ C_ 0.37162 0.985295 0.226712 0.18167
C_ C_ 0.496118 0.855397 0.208461 0.18167
C_ C_ -0.000152000000000041 0.822955 0.243069 -0.15533
C_ C_ 0.495754 0.772993 0.241358 0.02923
C_ C_ 0.443858 0.774607 0.220398 -0.15533
C_ C_ 0.418127 0.818019 0.199081 0.18167
C_ C_ 0.491222 0.954842 0.127218 0.69207
C_ C_ 0.0141843 0.492673 0.114187 0.02923
C_ C_ -0.0035119999999999596 0.543743 0.115794 -0.15533
C_ C_ 0.0258679 0.582018 0.10631 -0.15533
C_ C_ 0.077593 0.570193 0.0961204 0.02923
C_ C_ 0.0944003 0.517624 0.0877253 -0.15533
C_ C_ 0.0639712 0.479301 0.0969384 0.02923
C_ C_ 0.102112 0.922515 0.119471 0.69207
C_ C_ 0.0936268 0.666477 0.103752 0.69661
C_ C_ 0.442145 0.686151 0.430046 0.18167
C_ C_ 0.483566 0.706159 0.456384 -0.15533
C_ C_ 0.478644 0.738103 0.501883 0.02923
C_ C_ 0.423451 0.751766 0.0140966 -0.15533
C_ C_ 0.388271 0.730449 0.488134 0.18167
C_ C_ 0.259506 0.696434 0.352661 0.18167
C_ C_ 0.235914 0.712918 0.304732 -0.15533
C_ C_ 0.266542 0.721088 0.267289 0.02923
C_ C_ 0.318059 0.711433 0.275683 -0.15533
C_ C_ 0.340491 0.690453 0.320002 0.18167
C_ C_ 0.266228 0.619044 0.453476 0.69207
C_ C_ 0.225707 0.610873 0.99222 0.02923
C_ C_ 0.244976 0.604716 0.0449493 -0.15533
C_ C_ 0.209702 0.606044 0.0821538 -0.15533
C_ C_ 0.156349 0.604114 0.0672209 0.02923
C_ C_ 0.140445 0.598675 0.0146234 -0.15533
C_ C_ 0.173247 0.604928 0.978085 0.02923
C_ C_ 0.154462 0.606795 0.422437 0.69207
C_ C_ 0.138814 0.598466 0.163511 0.69661
C_ C_ 0.375764 0.885209 0.382786 -0.30787
C_ C_ 0.116204 0.609562 0.106709 -0.30787
N_ N_ 0.14269 0.563734 0.313675 -0.32189
N_ N_ 0.0536537 0.651689 0.316253 -0.32189
N_ N_ 0.101441 0.806099 0.062878 -0.32189
N_ N_ 0.195671 0.806258 0.141055 -0.32189
N_ N_ 0.363719 0.940799 0.19783 -0.32189
N_ N_ 0.446389 0.857175 0.192877 -0.32189
N_ N_ 0.395661 0.698872 0.445426 -0.32189
N_ N_ 0.311397 0.680669 0.358277 -0.32189
O_ O_ 0.516891 0.588358 0.410923 -0.63271
O_ O_ 0.040475 0.54238 0.341834 -0.57982
O_ O_ 0.408398 0.59245 0.35159 -0.63271
O_ O_ 0.379094 0.592561 0.427819 -0.57982
O_ O_ 0.254919 0.877217 0.0974176 -0.63271
O_ O_ 0.204367 0.836691 0.0355149 -0.57982
O_ O_ 0.354006 0.84858 0.101968 -0.63271
O_ O_ 0.38459 0.92016 0.0913739 -0.57982
O_ O_ 0.986849 0.904412 0.0908919 -0.63271
O_ O_ 0.454476 0.964604 0.156792 -0.57982
O_ O_ 0.0853202 0.892875 0.151779 -0.63271
O_ O_ 0.142613 0.90554 0.0967746 -0.57982
O_ O_ 0.264949 0.58822 0.412059 -0.63271
O_ O_ 0.297574 0.653825 0.462508 -0.57982
O_ O_ 0.1533 0.646678 0.397536 -0.63271
O_ O_ 0.117817 0.579269 0.40744 -0.57982
F_ F_ 0.425703 0.816048 0.428418 -0.20885
F_ F_ 0.420801 0.811836 0.341713 -0.20885
F_ F_ 0.355318 0.798054 0.386846 -0.20885
F_ F_ 0.309786 0.930268 0.322039 -0.20885
F_ F_ 0.319367 0.846545 0.31441 -0.20885
F_ F_ 0.382076 0.889679 0.296391 -0.20885
F_ F_ 0.0639472 0.672609 0.0577675 -0.20885
F_ F_ 0.0621047 0.68188 0.14133 -0.20885
F_ F_ 0.132322 0.700858 0.10828 -0.20885
F_ F_ 0.173134 0.556166 0.170903 -0.20885
F_ F_ 0.164701 0.635981 0.186178 -0.20885
F_ F_ 0.100068 0.596213 0.195967 -0.20885
Zn Zn 0.0856886 0.583117 0.840783 0.83971
Zn Zn 0.162684 0.848774 0.586844 0.83971
Zn Zn 0.403634 0.920678 0.653031 0.83971
Zn Zn 0.342296 0.652255 0.918337 0.83971
H_ H_ 0.162999 0.630648 0.792828 0.10394
H_ H_ 0.246792 0.595804 0.762159 0.10394
H_ H_ 0.203036 0.949573 0.779843 0.10394
H_ H_ 0.136903 0.481291 0.832014 0.10394
H_ H_ 0.526672 0.589436 0.737665 0.10394
H_ H_ 0.47954 0.670442 0.695981 0.10394
H_ H_ 0.0501964 0.775439 0.834606 0.10394
H_ H_ 0.0647079 0.687786 0.882533 0.10394
H_ H_ 0.0313992 0.937845 0.869081 0.10394
H_ H_ 0.482099 0.879999 0.892585 0.10394
H_ H_ 0.353065 0.992003 0.901519 0.10394
H_ H_ 0.0763078 0.806772 0.637262 0.10394
H_ H_ 0.50602 0.766748 0.604447 0.10394
H_ H_ 0.0358778 0.78407 0.947635 0.10394
H_ H_ 0.11067 0.839962 0.492398 0.10394
H_ H_ 0.221006 0.756741 0.602405 0.10394
H_ H_ 0.249402 0.704324 0.680698 0.10394
H_ H_ 0.221534 0.836182 0.776724 0.10394
H_ H_ 0.176425 0.879349 0.703875 0.10394
H_ H_ 0.223143 0.855118 0.953125 0.10394
H_ H_ 0.276008 0.864589 0.881978 0.10394
H_ H_ 0.4004 0.896292 0.989316 0.10394
H_ H_ 0.312417 0.896252 0.663218 0.10394
H_ H_ 0.233421 0.943033 0.694254 0.10394
H_ H_ 0.334162 0.541757 0.790075 0.10394
H_ H_ 0.398857 0.0145638 0.725896 0.10394
H_ H_ 0.00514439 0.907168 0.721582 0.10394
H_ H_ 0.0540819 0.827822 0.756504 0.10394
H_ H_ 0.407704 0.740456 0.70465 0.10394
H_ H_ 0.364367 0.822914 0.679144 0.10394
H_ H_ 0.471432 0.553094 0.621493 0.10394
H_ H_ 0.014561 0.6235 0.601106 0.10394
H_ H_ 0.148382 0.513647 0.59965 0.10394
H_ H_ 0.44491 0.659696 0.898084 0.10394
H_ H_ 0.013526 0.679955 0.954558 0.10394
H_ H_ 0.422095 0.774177 0.550311 0.10394
H_ H_ 0.347247 0.732592 0.00417017 0.10394
H_ H_ 0.23403 0.694034 0.882459 0.10394
H_ H_ 0.201274 0.743001 0.814233 0.10394
H_ H_ 0.348335 0.727243 0.753576 0.10394
H_ H_ 0.384484 0.686196 0.832515 0.10394
H_ H_ 0.277473 0.641501 0.55327 0.10394
H_ H_ 0.228321 0.619629 0.617724 0.10394
H_ H_ 0.105118 0.595305 0.501895 0.10394
C_ C_ 0.175973 0.588753 0.794904 0.18167
C_ C_ 0.224091 0.569571 0.779605 -0.15533
C_ C_ 0.238109 0.51633 0.777648 0.02923
C_ C_ 0.193944 0.992005 0.779361 -0.15533
C_ C_ 0.160933 0.506019 0.817718 0.18167
C_ C_ 0.0258383 0.641707 0.768314 0.18167
C_ C_ 0.503399 0.673256 0.730333 -0.15533
C_ C_ 0.0128574 0.735411 0.766178 0.02923
C_ C_ 0.0420727 0.737804 0.81489 -0.15533
C_ C_ 0.0525463 0.691696 0.841941 0.18167
C_ C_ 0.0127093 0.532219 0.873532 0.69207
C_ C_ 0.474995 0.00581797 0.883752 0.02923
C_ C_ 0.496038 0.954637 0.890949 -0.15533
C_ C_ 0.462353 0.918439 0.89152 -0.15533
C_ C_ 0.409102 0.927142 0.889986 0.02923
C_ C_ 0.389044 0.979746 0.890058 -0.15533
C_ C_ 0.422324 0.0181192 0.88688 0.02923
C_ C_ 0.405874 0.569512 0.891548 0.69207
C_ C_ 0.396894 0.830294 0.883779 0.69661
C_ C_ 0.0697705 0.801597 0.595098 0.18167
C_ C_ 0.0248409 0.780322 0.572396 -0.15533
C_ C_ 0.0146433 0.778113 0.520351 0.02923
C_ C_ 0.043776 0.789129 0.987983 -0.15533
C_ C_ 0.0868987 0.824864 0.514469 0.18167
C_ C_ 0.219097 0.77249 0.640298 0.18167
C_ C_ 0.239778 0.746363 0.68455 -0.15533
C_ C_ 0.248787 0.770561 0.73298 0.02923
C_ C_ 0.223937 0.819654 0.740071 -0.15533
C_ C_ 0.199765 0.844688 0.696387 0.18167
C_ C_ 0.243671 0.868679 0.545027 0.69207
C_ C_ 0.281785 0.867553 0.0102451 0.02923
C_ C_ 0.259523 0.870729 0.960432 -0.15533
C_ C_ 0.288919 0.876972 0.919704 -0.15533
C_ C_ 0.338181 0.890342 0.928949 0.02923
C_ C_ 0.359633 0.894127 0.979336 -0.15533
C_ C_ 0.331385 0.883224 0.0198274 0.02923
C_ C_ 0.353335 0.888116 0.569222 0.69207
C_ C_ 0.346666 0.89336 0.831642 0.69661
C_ C_ 0.312225 0.935008 0.681603 0.18167
C_ C_ 0.268402 0.958663 0.703141 -0.15533
C_ C_ 0.271343 1.00120508 0.738487 0.02923
C_ C_ 0.327984 0.5139 0.756918 -0.15533
C_ C_ 0.362002 0.99765 0.72329 0.18167
C_ C_ 0.479097 0.859175 0.709532 0.18167
C_ C_ 0.0151327 0.826849 0.739099 -0.15533
C_ C_ 0.479729 0.770027 0.729472 0.02923
C_ C_ 0.426555 0.773744 0.711876 -0.15533
C_ C_ 0.40412 0.819076 0.691291 0.18167
C_ C_ 0.482531 0.9529 0.623711 0.69207
C_ C_ 0.0222417 0.495872 0.610681 0.02923
C_ C_ 1.00301442 0.54767 0.608973 -0.15533
C_ C_ 0.0329906 0.584984 0.600607 -0.15533
C_ C_ 0.0842787 0.575102 0.59948 0.02923
C_ C_ 0.106299 0.522705 0.601171 -0.15533
C_ C_ 0.0747827 0.482021 0.602091 0.02923
C_ C_ 0.0964109 0.928628 0.609281 0.69207
C_ C_ 0.0971558 0.67555 0.599864 0.69661
C_ C_ 0.437872 0.688741 0.928887 0.18167
C_ C_ 0.480647 0.709387 0.955209 -0.15533
C_ C_ 0.472418 0.74189 -0.00187808 0.02923
C_ C_ 0.429726 0.746485 0.519627 -0.15533
C_ C_ 0.383622 0.727366 0.98949 0.18167
C_ C_ 0.260583 0.702168 0.856287 0.18167
C_ C_ 0.242031 0.729262 0.814348 -0.15533
C_ C_ 0.271326 0.740771 0.776532 0.02923
C_ C_ 0.322007 0.721436 0.781441 -0.15533
C_ C_ 0.342918 0.695188 0.825839 0.18167
C_ C_ 0.261144 0.620976 0.954119 0.69207
C_ C_ 0.228411 0.616163 0.490058 0.02923
C_ C_ 0.240939 0.627087 0.54218 -0.15533
C_ C_ 0.213209 0.613548 0.580585 -0.15533
C_ C_ 0.160939 0.611418 0.567475 0.02923
C_ C_ 0.145439 0.602284 0.514071 -0.15533
C_ C_ 0.177316 0.608909 0.475777 0.02923
C_ C_ 0.147425 0.609267 0.923643 0.69207
C_ C_ 0.140683 0.619087 0.665081 0.69661
C_ C_ 0.373094 0.884719 0.885151 -0.30787
C_ C_ 0.120255 0.618626 0.6065 -0.30787
N_ N_ 0.143986 0.555862 0.809047 -0.32189
N_ N_ 0.0542059 0.645771 0.813261 -0.32189
N_ N_ 0.10033 0.82134 0.564859 -0.32189
N_ N_ 0.19769 0.822071 0.647937 -0.32189
N_ N_ 0.35551 0.95534 0.6915 -0.32189
N_ N_ 0.430479 0.860305 0.689117 -0.32189
N_ N_ 0.390607 0.696603 0.947628 -0.32189
N_ N_ 0.310163 0.683318 0.859661 -0.32189
O_ O_ 0.511383 0.587269 0.890999 -0.63271
O_ O_ 0.0435318 0.5284 0.837358 -0.57982
O_ O_ 0.401152 0.591107 0.847435 -0.63271
O_ O_ 0.372106 0.585466 0.924312 -0.57982
O_ O_ 0.246947 0.896266 0.588244 -0.63271
O_ O_ 0.202697 0.843432 0.534554 -0.57982
O_ O_ 0.358799 0.846804 0.592438 -0.63271
O_ O_ 0.380531 0.923707 0.587409 -0.57982
O_ O_ 0.988554 0.914501 0.608081 -0.63271
O_ O_ 0.449554 0.963944 0.65819 -0.57982
O_ O_ 0.0959795 0.904118 0.650843 -0.63271
O_ O_ 0.130584 0.913857 0.578462 -0.57982
O_ O_ 0.258471 0.599682 0.908249 -0.63271
O_ O_ 0.297203 0.650965 0.967497 -0.57982
O_ O_ 0.15756 0.645531 0.895653 -0.63271
O_ O_ 0.110631 0.580247 0.907015 -0.57982
F_ F_ 0.432549 0.822923 0.927146 -0.20885
F_ F_ 0.424922 0.815074 0.842514 -0.20885
F_ F_ 0.363882 0.791253 0.88526 -0.20885
F_ F_ 0.310656 0.935695 0.832618 -0.20885
F_ F_ 0.319339 0.853932 0.810393 -0.20885
F_ F_ 0.379818 0.891903 0.795747 -0.20885
F_ F_ 0.0699961 0.682179 0.553258 -0.20885
F_ F_ 0.064176 0.691589 0.63676 -0.20885
F_ F_ 0.133873 0.711283 0.606641 -0.20885
F_ F_ 0.172986 0.57548 0.676126 -0.20885
F_ F_ 0.167272 0.66084 0.683251 -0.20885
F_ F_ 0.100674 0.624292 0.695575 -0.20885
Zn Zn 0.582716 0.0891847 0.343488 0.83971
Zn Zn 0.655697 0.348605 0.0838698 0.83971
Zn Zn 0.902871 0.412258 0.151094 0.83971
Zn Zn 0.8402 0.157136 0.416614 0.83971
H_ H_ 0.661284 0.139451 0.29433 0.10394
H_ H_ 0.75079 0.10913 0.275391 0.10394
H_ H_ 0.70257 0.445566 0.284801 0.10394
H_ H_ 0.632385 0.986638 0.311434 0.10394
H_ H_ 0.0224663 0.0933174 0.246246 0.10394
H_ H_ 0.972049 0.167174 0.197189 0.10394
H_ H_ 0.531895 0.274251 0.328377 0.10394
H_ H_ 0.573718 0.202043 0.37353 0.10394
H_ H_ 0.541231 0.440002 0.375603 0.10394
H_ H_ 0.970431 0.383273 0.357463 0.10394
H_ H_ 0.856371 0.496034 0.421189 0.10394
H_ H_ 0.567291 0.322079 0.128692 0.10394
H_ H_ 1.00516113 0.26628 0.101955 0.10394
H_ H_ 0.524893 0.301579 0.448023 0.10394
H_ H_ 0.622498 0.313335 0.982481 0.10394
H_ H_ 0.712078 0.25784 0.10448 0.10394
H_ H_ 0.751338 0.207426 0.177845 0.10394
H_ H_ 0.71228 0.345101 0.26902 0.10394
H_ H_ 0.676909 0.388436 0.195795 0.10394
H_ H_ 0.71655 0.358787 0.447788 0.10394
H_ H_ 0.766006 0.375641 0.383385 0.10394
H_ H_ 0.891284 0.414022 0.491754 0.10394
H_ H_ 0.793536 0.393528 0.152475 0.10394
H_ H_ 0.725218 0.444035 0.197634 0.10394
H_ H_ 0.843625 0.0468821 0.288291 0.10394
H_ H_ 0.897206 0.492913 0.229707 0.10394
H_ H_ 0.502417 0.391266 0.20689 0.10394
H_ H_ 0.548806 0.314558 0.232122 0.10394
H_ H_ 0.906696 0.242917 0.228805 0.10394
H_ H_ 0.864531 0.322017 0.182801 0.10394
H_ H_ 0.962233 0.0502048 0.0985249 0.10394
H_ H_ 0.525141 0.123502 0.124686 0.10394
H_ H_ 0.644937 0.00724833 0.0888451 0.10394
H_ H_ 0.936271 0.176235 0.381272 0.10394
H_ H_ 0.513865 0.188784 0.440071 0.10394
H_ H_ 0.916022 0.278313 0.0427645 0.10394
H_ H_ 0.854401 0.226489 0.510781 0.10394
H_ H_ 0.740645 0.213801 0.394624 0.10394
H_ H_ 0.696927 0.263217 0.324947 0.10394
H_ H_ 0.825253 0.225862 0.239955 0.10394
H_ H_ 0.871827 0.183734 0.311668 0.10394
H_ H_ 0.785188 0.133659 0.0564469 0.10394
H_ H_ 0.733857 0.118179 0.12069 0.10394
H_ H_ 0.611383 0.0840599 0.00536893 0.10394
C_ C_ 0.676026 0.0987046 0.298259 0.18167
C_ C_ 0.724947 0.0815697 0.281829 -0.15533
C_ C_ 0.739305 0.0298726 0.273836 0.02923
C_ C_ 0.698271 0.487587 0.286566 -0.15533
C_ C_ 0.65655 0.014839 0.301273 0.18167
C_ C_ 0.519728 0.142869 0.269089 0.18167
C_ C_ -0.003966000000000025 0.172148 0.23322 -0.15533
C_ C_ 0.505115 0.23467 0.264449 0.02923
C_ C_ 0.529218 0.237495 0.312946 -0.15533
C_ C_ 0.556638 0.194802 0.335487 0.18167
C_ C_ 0.502398 0.0502687 0.366759 0.69207
C_ C_ 0.96686 0.511606 0.373284 0.02923
C_ C_ 0.985681 0.459559 0.363925 -0.15533
C_ C_ 0.954752 0.421871 0.368208 -0.15533
C_ C_ 0.907302 0.431313 0.390742 0.02923
C_ C_ 0.889783 0.485957 0.402217 -0.15533
C_ C_ 0.918465 0.523231 0.394146 0.02923
C_ C_ 0.901809 0.0749107 0.386264 0.69207
C_ C_ 0.892752 0.334543 0.386332 0.69661
C_ C_ 0.563092 0.309054 0.0900207 0.18167
C_ C_ 0.521295 0.282683 0.0696257 -0.15533
C_ C_ 0.51232 0.272437 0.0159052 0.02923
C_ C_ 0.54194 0.289639 0.486954 -0.15533
C_ C_ 0.590914 0.307121 0.00733242 0.18167
C_ C_ 0.709838 0.274114 0.141131 0.18167
C_ C_ 0.737781 0.249296 0.183369 -0.15533
C_ C_ 0.729822 0.271772 0.230465 0.02923
C_ C_ 0.708142 0.321739 0.235133 -0.15533
C_ C_ 0.689719 0.348967 0.19177 0.18167
C_ C_ 0.735105 0.364412 0.039931 0.69207
C_ C_ 0.774496 0.37538 0.512587 0.02923
C_ C_ 0.755041 0.373611 0.460191 -0.15533
C_ C_ 0.78547 0.378353 0.421542 -0.15533
C_ C_ 0.835652 0.393864 0.431927 0.02923
C_ C_ 0.854803 0.402332 0.483044 -0.15533
C_ C_ 0.82506 0.392008 0.523372 0.02923
C_ C_ 0.846499 0.381222 0.065909 0.69207
C_ C_ 0.839769 0.392353 0.33559 0.69661
C_ C_ 0.800858 0.429792 0.174644 0.18167
C_ C_ 0.761908 0.456057 0.203216 -0.15533
C_ C_ 0.772158 0.493661 0.242042 0.02923
C_ C_ 0.832171 0.0192804 0.25534 -0.15533
C_ C_ 0.858542 0.484744 0.219436 0.18167
C_ C_ 0.985369 0.349078 0.196779 0.18167
C_ C_ 0.506271 0.319442 0.231746 -0.15533
C_ C_ 0.977729 0.26586 0.22597 0.02923
C_ C_ 0.92673 0.269031 0.208449 -0.15533
C_ C_ 0.903778 0.313656 0.187031 0.18167
C_ C_ 0.976751 0.454782 0.119717 0.69207
C_ C_ 0.526399 0.993443 0.123708 0.02923
C_ C_ 0.509565 0.0459007 0.127861 -0.15533
C_ C_ 0.537394 0.0839649 0.114359 -0.15533
C_ C_ 0.586749 0.0715215 0.103429 0.02923
C_ C_ 0.606783 0.0181914 0.10154 -0.15533
C_ C_ 0.577705 0.979099 0.109691 0.02923
C_ C_ 0.595823 0.42673 0.110198 0.69207
C_ C_ 0.601777 0.169751 0.100481 0.69661
C_ C_ 0.936795 0.192884 0.422719 0.18167
C_ C_ 0.97847 0.219623 0.443427 -0.15533
C_ C_ 0.976678 0.248095 0.489958 0.02923
C_ C_ 0.924736 0.246349 0.017262 -0.15533
C_ C_ 0.888812 0.223602 0.493789 0.18167
C_ C_ 0.759367 0.217554 0.361097 0.18167
C_ C_ 0.734229 0.245681 0.319778 -0.15533
C_ C_ 0.760036 0.249792 0.276085 0.02923
C_ C_ 0.809588 0.231216 0.276472 -0.15533
C_ C_ 0.835447 0.203591 0.317447 0.18167
C_ C_ 0.757005 0.128241 0.451441 0.69207
C_ C_ 0.733318 0.112628 0.993374 0.02923
C_ C_ 0.749069 0.117782 0.0439216 -0.15533
C_ C_ 0.716465 0.115124 0.0815726 -0.15533
C_ C_ 0.665497 0.102611 0.0689522 0.02923
C_ C_ 0.649943 0.0930859 0.0169359 -0.15533
C_ C_ 0.68399 0.0966767 0.979378 0.02923
C_ C_ 0.645756 0.114625 0.4276 0.69207
C_ C_ 0.645074 0.112544 0.165361 0.69661
C_ C_ 0.870348 0.39176 0.388299 -0.30787
C_ C_ 0.624236 0.113149 0.108478 -0.30787
N_ N_ 0.642586 0.0660614 0.308727 -0.32189
N_ N_ 0.549494 0.148084 0.314329 -0.32189
N_ N_ 0.597983 0.318755 0.0593832 -0.32189
N_ N_ 0.690139 0.323025 0.143932 -0.32189
N_ N_ 0.848279 0.444265 0.184622 -0.32189
N_ N_ 0.933381 0.351324 0.177684 -0.32189
N_ N_ 0.894308 0.194447 0.448917 -0.32189
N_ N_ 0.807974 0.192482 0.357449 -0.32189
O_ O_ 0.00980468 0.0948171 0.391599 -0.63271
O_ O_ 0.538901 0.0426718 0.335728 -0.57982
O_ O_ 0.900197 0.100049 0.343295 -0.63271
O_ O_ 0.871173 0.0907749 0.419924 -0.57982
O_ O_ 0.732297 0.398514 0.0797252 -0.63271
O_ O_ 0.699877 0.333437 0.033802 -0.57982
O_ O_ 0.843392 0.340623 0.0922512 -0.63271
O_ O_ 0.871777 0.418258 0.0867346 -0.57982
O_ O_ 0.493448 0.406225 0.108492 -0.63271
O_ O_ 0.94689 0.461204 0.155318 -0.57982
O_ O_ 0.594511 0.405471 0.152638 -0.63271
O_ O_ 0.633016 0.412131 0.0819077 -0.57982
O_ O_ 0.758038 0.102639 0.407303 -0.63271
O_ O_ 0.790834 0.161337 0.4615 -0.57982
O_ O_ 0.656836 0.151629 0.400432 -0.63271
O_ O_ 0.615369 0.0804664 0.40627 -0.57982
F_ F_ 0.928128 0.330026 0.426274 -0.20885
F_ F_ 0.91096 0.313595 0.34086 -0.20885
F_ F_ 0.859166 0.300477 0.396237 -0.20885
F_ F_ 0.808195 0.437953 0.33302 -0.20885
F_ F_ 0.813995 0.352846 0.314875 -0.20885
F_ F_ 0.87319 0.393773 0.298281 -0.20885
F_ F_ 0.567493 0.168533 0.0561845 -0.20885
F_ F_ 0.576348 0.191104 0.139301 -0.20885
F_ F_ 0.636483 0.203211 0.0919948 -0.20885
F_ F_ 0.678297 0.0713357 0.172552 -0.20885
F_ F_ 0.667945 0.156629 0.184175 -0.20885
F_ F_ 0.609472 0.108518 0.199019 -0.20885
Zn Zn 0.588783 0.0853466 0.852859 0.83971
Zn Zn 0.656895 0.34225 0.586235 0.83971
Zn Zn 0.917571 0.419735 0.65573 0.83971
Zn Zn 0.845797 0.151017 0.914145 0.83971
H_ H_ 0.66458 0.132984 0.807931 0.10394
H_ H_ 0.7429 0.103084 0.772294 0.10394
H_ H_ 0.715698 0.44237 0.782397 0.10394
H_ H_ 0.625826 0.984373 0.820091 0.10394
H_ H_ 0.0110458 0.10386 0.756379 0.10394
H_ H_ 0.980901 0.181854 0.706743 0.10394
H_ H_ 0.540059 0.271844 0.842498 0.10394
H_ H_ 0.578368 0.196381 0.88718 0.10394
H_ H_ 0.541548 0.439702 0.878484 0.10394
H_ H_ 0.979618 0.361493 0.880412 0.10394
H_ H_ 0.851912 0.480396 0.894426 0.10394
H_ H_ 0.5846 0.285069 0.63269 0.10394
H_ H_ 0.00663655 0.2664 0.590022 0.10394
H_ H_ 0.544198 0.275882 0.9443 0.10394
H_ H_ 0.609924 0.328667 0.488836 0.10394
H_ H_ 0.725429 0.249207 0.594667 0.10394
H_ H_ 0.763144 0.197623 0.669176 0.10394
H_ H_ 0.726779 0.33077 0.766224 0.10394
H_ H_ 0.681 0.374164 0.698598 0.10394
H_ H_ 0.716897 0.343549 0.938248 0.10394
H_ H_ 0.765761 0.361976 0.87198 0.10394
H_ H_ 0.891433 0.398451 0.984969 0.10394
H_ H_ 0.816561 0.396621 0.662673 0.10394
H_ H_ 0.739591 0.453841 0.684216 0.10394
H_ H_ 0.825181 0.0491395 0.782724 0.10394
H_ H_ 0.90723 0.508391 0.727379 0.10394
H_ H_ 0.519225 0.377617 0.685724 0.10394
H_ H_ 0.558587 0.304625 0.742567 0.10394
H_ H_ 0.912856 0.268297 0.74867 0.10394
H_ H_ 0.875679 0.333848 0.689965 0.10394
H_ H_ 0.955001 0.0584718 0.619793 0.10394
H_ H_ 0.516326 0.117537 0.594903 0.10394
H_ H_ 0.645394 0.00372188 0.609577 0.10394
H_ H_ 0.950457 0.150273 0.905164 0.10394
H_ H_ 0.518667 0.185934 0.953991 0.10394
H_ H_ 0.929195 0.267581 0.554216 0.10394
H_ H_ 0.845814 0.237426 -0.0028639999999999777 0.10394
H_ H_ 0.746343 0.190227 0.888285 0.10394
H_ H_ 0.700728 0.244568 0.817005 0.10394
H_ H_ 0.840289 0.21224 0.737642 0.10394
H_ H_ 0.882126 0.17782 0.821912 0.10394
H_ H_ 0.782472 0.126221 0.551653 0.10394
H_ H_ 0.738916 0.092737 0.615701 0.10394
H_ H_ 0.60912 0.0797064 0.506389 0.10394
C_ C_ 0.673502 0.0921156 0.801402 0.18167
C_ C_ 0.718783 0.0743342 0.783066 -0.15533
C_ C_ 0.730674 0.0208869 0.775753 0.02923
C_ C_ 0.709367 0.484008 0.788524 -0.15533
C_ C_ 0.651297 0.0109208 0.809578 0.18167
C_ C_ 0.523541 0.137799 0.784093 0.18167
C_ C_ 0.00045000000000006146 0.185386 0.747925 -0.15533
C_ C_ 0.511383 0.229403 0.773539 0.02923
C_ C_ 0.535646 0.235131 0.824708 -0.15533
C_ C_ 0.559037 0.192926 0.850944 0.18167
C_ C_ 0.508037 0.0446832 0.873623 0.69207
C_ C_ 0.978267 0.489941 0.882471 0.02923
C_ C_ 0.994715 0.438371 0.87269 -0.15533
C_ C_ 0.962175 0.402159 0.881037 -0.15533
C_ C_ 0.909638 0.415754 0.888422 0.02923
C_ C_ 0.892345 0.467312 0.893346 -0.15533
C_ C_ 0.926642 0.506228 0.89216 0.02923
C_ C_ 0.898124 0.062502 0.881667 0.69207
C_ C_ 0.894616 0.317932 0.881792 0.69661
C_ C_ 0.574456 0.282331 0.590515 0.18167
C_ C_ 0.526686 0.266206 0.569715 -0.15533
C_ C_ 0.513869 0.264658 0.516565 0.02923
C_ C_ 0.551096 0.281124 0.985965 -0.15533
C_ C_ 0.585485 0.312117 0.511426 0.18167
C_ C_ 0.722615 0.265409 0.633978 0.18167
C_ C_ 0.747785 0.237781 0.675301 -0.15533
C_ C_ 0.742593 0.255012 0.725066 0.02923
C_ C_ 0.721325 0.306324 0.732145 -0.15533
C_ C_ 0.697629 0.333878 0.689274 0.18167
C_ C_ 0.741833 0.362296 0.553303 0.69207
C_ C_ 0.773061 0.366479 1.00233931 0.02923
C_ C_ 0.754876 0.35572 0.950181 -0.15533
C_ C_ 0.782995 0.370936 0.910375 -0.15533
C_ C_ 0.83274 0.383858 0.92282 0.02923
C_ C_ 0.851197 0.38986 0.975266 -0.15533
C_ C_ 0.820862 0.38249 0.0136545 0.02923
C_ C_ 0.855453 0.388401 0.572898 0.69207
C_ C_ 0.850287 0.379543 0.826991 0.69661
C_ C_ 0.819657 0.431525 0.687567 0.18167
C_ C_ 0.776585 0.458396 0.705586 -0.15533
C_ C_ 0.784257 0.495218 0.744833 0.02923
C_ C_ 0.820846 0.0184396 0.754009 -0.15533
C_ C_ 0.873423 0.490722 0.728637 0.18167
C_ C_ 0.999568428 0.35692 0.704065 0.18167
C_ C_ 0.520838 0.306277 0.729431 -0.15533
C_ C_ 0.987621 0.280153 0.744283 0.02923
C_ C_ 0.936511 0.289069 0.732253 -0.15533
C_ C_ 0.916149 0.328897 0.698946 0.18167
C_ C_ 0.98489 0.459884 0.616331 0.69207
C_ C_ 0.519644 0.989852 0.615389 0.02923
C_ C_ 0.502761 0.0427935 0.612694 -0.15533
C_ C_ 0.533581 0.0783424 0.602724 -0.15533
C_ C_ 0.586945 0.0662396 0.602165 0.02923
C_ C_ 0.604804 0.0153841 0.606439 -0.15533
C_ C_ 0.572703 0.97794 0.614051 0.02923
C_ C_ 0.601199 0.420246 0.610761 0.69207
C_ C_ 0.601025 0.160242 0.599092 0.69661
C_ C_ 0.942766 0.178689 0.935553 0.18167
C_ C_ 0.983439 0.199348 0.96357 -0.15533
C_ C_ 0.976012 0.234325 0.00458462 0.02923
C_ C_ 0.931584 0.248679 0.516859 -0.15533
C_ C_ 0.884716 0.226173 0.987154 0.18167
C_ C_ 0.763694 0.194304 0.853084 0.18167
C_ C_ 0.740244 0.223259 0.813979 -0.15533
C_ C_ 0.766975 0.226086 0.769166 0.02923
C_ C_ 0.818458 0.209463 0.770552 -0.15533
C_ C_ 0.840449 0.180853 0.812778 0.18167
C_ C_ 0.766632 0.116384 0.952925 0.69207
C_ C_ 0.724044 0.116938 0.490388 0.02923
C_ C_ 0.742562 0.118753 0.541552 -0.15533
C_ C_ 0.716095 0.103353 0.581488 -0.15533
C_ C_ 0.663764 0.0961305 0.568505 0.02923
C_ C_ 0.648019 0.0878845 0.516637 -0.15533
C_ C_ 0.673177 0.105064 0.477422 0.02923
C_ C_ 0.660124 0.102204 0.926008 0.69207
C_ C_ 0.649046 0.106986 0.664494 0.69661
C_ C_ 0.872416 0.37491 0.883929 -0.30787
C_ C_ 0.625568 0.106371 0.607718 -0.30787
N_ N_ 0.63896 0.0614264 0.809728 -0.32189
N_ N_ 0.548904 0.146113 0.831533 -0.32189
N_ N_ 0.604836 0.303332 0.560152 -0.32189
N_ N_ 0.693853 0.311274 0.642071 -0.32189
N_ N_ 0.865974 0.448707 0.697925 -0.32189
N_ N_ 0.947997 0.364758 0.691124 -0.32189
N_ N_ 0.894258 0.192371 0.947672 -0.32189
N_ N_ 0.813825 0.176479 0.852554 -0.32189
O_ O_ 0.0124717 0.0772739 0.913505 -0.63271
O_ O_ 0.54489 0.0351528 0.844537 -0.57982
O_ O_ 0.90615 0.0913336 0.844695 -0.63271
O_ O_ 0.873172 0.0842659 0.919598 -0.57982
O_ O_ 0.746957 0.38585 0.599243 -0.63271
O_ O_ 0.700037 0.342467 0.537896 -0.57982
O_ O_ 0.859635 0.345227 0.59732 -0.63271
O_ O_ 0.883016 0.42397 0.592428 -0.57982
O_ O_ 0.492763 0.409297 0.591021 -0.63271
O_ O_ 0.958289 0.469219 0.654453 -0.57982
O_ O_ 0.602218 0.391873 0.650269 -0.63271
O_ O_ 0.629396 0.403268 0.576234 -0.57982
O_ O_ 0.764889 0.0848853 0.911773 -0.63271
O_ O_ 0.797319 0.151863 0.957129 -0.57982
O_ O_ 0.656793 0.146734 0.904343 -0.63271
O_ O_ 0.626959 0.0716671 0.908714 -0.57982
F_ F_ 0.925294 0.308526 0.927325 -0.20885
F_ F_ 0.924754 0.297311 0.843108 -0.20885
F_ F_ 0.854448 0.286199 0.878978 -0.20885
F_ F_ 0.81128 0.41894 0.821482 -0.20885
F_ F_ 0.82189 0.341107 0.8036 -0.20885
F_ F_ 0.885674 0.384471 0.791548 -0.20885
F_ F_ 0.571704 0.159701 0.551534 -0.20885
F_ F_ 0.569971 0.179416 0.63803 -0.20885
F_ F_ 0.634729 0.19672 0.600154 -0.20885
F_ F_ 0.67936 0.0615932 0.674078 -0.20885
F_ F_ 0.674577 0.150788 0.677116 -0.20885
F_ F_ 0.612787 0.10974 0.699213 -0.20885
Zn Zn 0.596734 0.589548 0.358543 0.83971
Zn Zn 0.66228 0.843567 0.0888623 0.83971
Zn Zn 0.90547 0.918704 0.151291 0.83971
Zn Zn 0.836055 0.660642 0.425258 0.83971
H_ H_ 0.675296 0.631973 0.308513 0.10394
H_ H_ 0.750659 0.596693 0.270349 0.10394
H_ H_ 0.718395 0.95647 0.281887 0.10394
H_ H_ 0.629665 0.486051 0.323515 0.10394
H_ H_ 0.0244328 0.60531 0.258682 0.10394
H_ H_ 0.975411 0.679571 0.211341 0.10394
H_ H_ 0.546643 0.778801 0.338123 0.10394
H_ H_ 0.590068 0.697384 0.382949 0.10394
H_ H_ 0.532547 0.942742 0.365876 0.10394
H_ H_ 0.983279 0.882264 0.369855 0.10394
H_ H_ 0.855068 0.993981 0.402491 0.10394
H_ H_ 0.573924 0.812094 0.135296 0.10394
H_ H_ 0.996868 0.767522 0.100367 0.10394
H_ H_ 0.538353 0.798689 0.45426 0.10394
H_ H_ 0.61832 0.826181 0.986905 0.10394
H_ H_ 0.704595 0.749331 0.107823 0.10394
H_ H_ 0.744454 0.705421 0.183385 0.10394
H_ H_ 0.726959 0.845631 0.273207 0.10394
H_ H_ 0.679954 0.885281 0.19946 0.10394
H_ H_ 0.72174 0.882553 0.450446 0.10394
H_ H_ 0.776691 0.889632 0.383522 0.10394
H_ H_ 0.905479 0.901186 0.491447 0.10394
H_ H_ 0.800214 0.924389 0.144746 0.10394
H_ H_ 0.733185 0.974616 0.184367 0.10394
H_ H_ 0.832938 0.535072 0.279215 0.10394
H_ H_ 0.911068 1.00202914 0.237251 0.10394
H_ H_ 0.517905 0.887733 0.202279 0.10394
H_ H_ 0.563259 0.811105 0.23927 0.10394
H_ H_ 0.894855 0.757825 0.241102 0.10394
H_ H_ 0.859565 0.82723 0.188947 0.10394
H_ H_ 0.959257 0.556933 0.127937 0.10394
H_ H_ 0.505923 0.613158 0.0817183 0.10394
H_ H_ 0.63327 0.505326 0.0721832 0.10394
H_ H_ 0.933374 0.673495 0.395494 0.10394
H_ H_ 0.520545 0.689325 0.446479 0.10394
H_ H_ 0.906152 0.777978 0.0372811 0.10394
H_ H_ 0.842358 0.74468 0.51069 0.10394
H_ H_ 0.734963 0.715243 0.401264 0.10394
H_ H_ 0.6952 0.76773 0.327135 0.10394
H_ H_ 0.82871 0.717133 0.250721 0.10394
H_ H_ 0.87205 0.686176 0.332705 0.10394
H_ H_ 0.781547 0.620324 0.0473648 0.10394
H_ H_ 0.724943 0.613713 0.117313 0.10394
H_ H_ 0.599577 0.589286 0.00163026 0.10394
C_ C_ 0.679757 0.59146 0.299415 0.18167
C_ C_ 0.721851 0.572695 0.276351 -0.15533
C_ C_ 0.73081 0.519228 0.269311 0.02923
C_ C_ 0.705626 0.996432 0.285814 -0.15533
C_ C_ 0.655857 0.510113 0.308682 0.18167
C_ C_ 0.536363 0.639988 0.278471 0.18167
C_ C_ -0.0018080000000000318 0.688108 0.247508 -0.15533
C_ C_ 0.516102 0.730597 0.270986 0.02923
C_ C_ 0.541818 0.74058 0.321975 -0.15533
C_ C_ 0.569131 0.695681 0.34563 0.18167
C_ C_ 0.517244 0.546927 0.382599 0.69207
C_ C_ 0.975714 0.0112113 0.375602 0.02923
C_ C_ -0.0017049999999999566 0.958941 0.376957 -0.15533
C_ C_ 0.966238 0.921576 0.377148 -0.15533
C_ C_ 0.916041 0.9333 0.391735 0.02923
C_ C_ 0.896452 0.9847 0.398559 -0.15533
C_ C_ 0.924923 0.023274 0.386235 0.02923
C_ C_ 0.896301 0.577 0.394847 0.69207
C_ C_ 0.902019 0.833434 0.394301 0.69661
C_ C_ 0.566559 0.807025 0.0954603 0.18167
C_ C_ 0.522269 0.781651 0.075753 -0.15533
C_ C_ 0.513676 0.773236 0.0210753 0.02923
C_ C_ 0.552849 0.785111 0.491168 -0.15533
C_ C_ 0.592973 0.809773 0.0101577 0.18167
C_ C_ 0.707263 0.768822 0.146726 0.18167
C_ C_ 0.72989 0.744403 0.18953 -0.15533
C_ C_ 0.737819 0.769047 0.236127 0.02923
C_ C_ 0.720088 0.821267 0.238366 -0.15533
C_ C_ 0.701211 0.848132 0.194399 0.18167
C_ C_ 0.745731 0.849847 0.046079 0.69207
C_ C_ 0.781289 0.879984 0.512865 0.02923
C_ C_ 0.759748 0.887217 0.460785 -0.15533
C_ C_ 0.791646 0.894113 0.422328 -0.15533
C_ C_ 0.844553 0.895859 0.432315 0.02923
C_ C_ 0.864245 0.898562 0.483988 -0.15533
C_ C_ 0.832207 0.894399 0.524517 0.02923
C_ C_ 0.853072 0.8822 0.0705184 0.69207
C_ C_ 0.855034 0.889499 0.33225 0.69661
C_ C_ 0.809475 0.950152 0.17718 0.18167
C_ C_ 0.770468 0.975985 0.201286 -0.15533
C_ C_ 0.782102 1.00770914 0.244026 0.02923
C_ C_ 0.821083 0.507444 0.249478 -0.15533
C_ C_ 0.871416 0.992674 0.230208 0.18167
C_ C_ 0.978022 0.862198 0.213045 0.18167
C_ C_ 0.521652 0.815177 0.234216 -0.15533
C_ C_ 0.972318 0.779413 0.247407 0.02923
C_ C_ 0.921867 0.781194 0.226391 -0.15533
C_ C_ 0.900828 0.822096 0.196559 0.18167
C_ C_ 0.98559 0.949905 0.114587 0.69207
C_ C_ 0.521193 0.490962 0.118036 0.02923
C_ C_ 0.498357 0.539215 0.106394 -0.15533
C_ C_ 0.5256 0.577408 0.0936669 -0.15533
C_ C_ 0.578336 0.568259 0.0943122 0.02923
C_ C_ 0.598562 0.516653 0.0915549 -0.15533
C_ C_ 0.570195 0.478485 0.1052 0.02923
C_ C_ 0.605115 0.927192 0.113508 0.69207
C_ C_ 0.591481 0.66679 0.10038 0.69661
C_ C_ 0.929902 0.695662 0.433601 0.18167
C_ C_ 0.973009 0.717492 0.45653 -0.15533
C_ C_ 0.969056 0.752372 0.499007 0.02923
C_ C_ 0.918317 0.745265 1.0130367 -0.15533
C_ C_ 0.87983 0.737307 0.495747 0.18167
C_ C_ 0.756487 0.718403 0.367552 0.18167
C_ C_ 0.733466 0.746498 0.325378 -0.15533
C_ C_ 0.759068 0.742997 0.28147 0.02923
C_ C_ 0.807277 0.717833 0.281581 -0.15533
C_ C_ 0.830607 0.69435 0.326721 0.18167
C_ C_ 0.764122 0.625313 0.460272 0.69207
C_ C_ 0.725627 0.604699 0.987577 0.02923
C_ C_ 0.74291 0.612217 0.0391447 -0.15533
C_ C_ 0.710003 0.610007 0.0766632 -0.15533
C_ C_ 0.657545 0.602132 0.0662599 0.02923
C_ C_ 0.639836 0.594585 0.0142021 -0.15533
C_ C_ 0.673886 0.595584 0.974387 0.02923
C_ C_ 0.656079 0.602005 0.431632 0.69207
C_ C_ 0.636338 0.609276 0.161904 0.69661
C_ C_ 0.880388 0.891485 0.38926 -0.30787
C_ C_ 0.61691 0.611101 0.105818 -0.30787
N_ N_ 0.647315 0.562322 0.315563 -0.32189
N_ N_ 0.564138 0.647294 0.324066 -0.32189
N_ N_ 0.602045 0.813127 0.06196 -0.32189
N_ N_ 0.692616 0.818677 0.150455 -0.32189
N_ N_ 0.859044 0.955546 0.19475 -0.32189
N_ N_ 0.930464 0.860593 0.19103 -0.32189
N_ N_ 0.884551 0.704491 0.453603 -0.32189
N_ N_ 0.805126 0.696178 0.368269 -0.32189
O_ O_ -0.0025180000000000202 0.597709 0.39028 -0.63271
O_ O_ 0.553127 0.538072 0.352375 -0.57982
O_ O_ 0.893251 0.604898 0.354763 -0.63271
O_ O_ 0.87742 0.596622 0.435851 -0.57982
O_ O_ 0.757632 0.864233 0.0949829 -0.63271
O_ O_ 0.70452 0.826414 0.0381059 -0.57982
O_ O_ 0.858192 0.844484 0.0997303 -0.63271
O_ O_ 0.869768 0.924138 0.0867054 -0.57982
O_ O_ 0.499663 0.908315 0.106488 -0.63271
O_ O_ 0.956556 0.961184 0.151908 -0.57982
O_ O_ 0.598387 0.898579 0.149996 -0.63271
O_ O_ 0.639593 0.908678 0.0818501 -0.57982
O_ O_ 0.764525 0.602388 0.414727 -0.63271
O_ O_ 0.789864 0.665291 0.47099 -0.57982
O_ O_ 0.65696 0.640771 0.402918 -0.63271
O_ O_ 0.622025 0.569584 0.415188 -0.57982
F_ F_ 0.9385 0.829929 0.435744 -0.20885
F_ F_ 0.925117 0.808404 0.352094 -0.20885
F_ F_ 0.86602 0.80141 0.401823 -0.20885
F_ F_ 0.820212 0.931429 0.326834 -0.20885
F_ F_ 0.830884 0.846894 0.322042 -0.20885
F_ F_ 0.88962 0.889576 0.298213 -0.20885
F_ F_ 0.56794 0.672213 0.0513908 -0.20885
F_ F_ 0.557198 0.678472 0.135903 -0.20885
F_ F_ 0.630838 0.698527 0.104389 -0.20885
F_ F_ 0.673949 0.568525 0.168301 -0.20885
F_ F_ 0.664273 0.647996 0.1867 -0.20885
F_ F_ 0.597023 0.604719 0.192639 -0.20885
Zn Zn 0.589293 0.577462 0.836913 0.83971
Zn Zn 0.662045 0.846532 0.590152 0.83971
Zn Zn 0.906714 0.922384 0.661281 0.83971
Zn Zn 0.841821 0.641174 0.908774 0.83971
H_ H_ 0.670509 0.626515 0.801934 0.10394
H_ H_ 0.75528 0.595717 0.768291 0.10394
H_ H_ 0.70362 0.948457 0.788029 0.10394
H_ H_ 0.642154 0.476401 0.823673 0.10394
H_ H_ 0.023869 0.606358 0.749642 0.10394
H_ H_ 0.976873 0.682491 0.708656 0.10394
H_ H_ 0.540519 0.763171 0.822475 0.10394
H_ H_ 0.574731 0.686025 0.865204 0.10394
H_ H_ 0.536005 0.941327 0.888333 0.10394
H_ H_ 0.980265 0.869441 0.876581 0.10394
H_ H_ 0.850004 0.97807 0.89473 0.10394
H_ H_ 0.587264 0.801211 0.636741 0.10394
H_ H_ -0.0010170000000000456 0.764842 0.595745 0.10394
H_ H_ 0.539899 0.7885 0.946829 0.10394
H_ H_ 0.62556 0.814973 0.486458 0.10394
H_ H_ 0.735108 0.756023 0.600693 0.10394
H_ H_ 0.785929 0.713671 0.674011 0.10394
H_ H_ 0.711518 0.828794 0.774139 0.10394
H_ H_ 0.685242 0.877032 0.696943 0.10394
H_ H_ 0.715456 0.855646 0.943294 0.10394
H_ H_ 0.77098 0.856729 0.876303 0.10394
H_ H_ 0.900149 0.888693 0.98686 0.10394
H_ H_ 0.812781 0.891134 0.675766 0.10394
H_ H_ 0.731659 0.944395 0.699727 0.10394
H_ H_ 0.836596 0.542287 0.785703 0.10394
H_ H_ 0.899569 1.00716882 0.740599 0.10394
H_ H_ 0.499052 0.893001 0.706035 0.10394
H_ H_ 0.548363 0.812234 0.738925 0.10394
H_ H_ 0.914351 0.753507 0.720526 0.10394
H_ H_ 0.873918 0.835513 0.693488 0.10394
H_ H_ 0.962422 0.557994 0.613591 0.10394
H_ H_ 0.53122 0.612667 0.606867 0.10394
H_ H_ 0.65481 0.498774 0.606908 0.10394
H_ H_ 0.94442 0.657131 0.895298 0.10394
H_ H_ 0.518801 0.695257 0.946794 0.10394
H_ H_ 0.914912 0.793836 0.544346 0.10394
H_ H_ 0.840345 0.72457 1.00076 0.10394
H_ H_ 0.737886 0.674471 0.871486 0.10394
H_ H_ 0.703661 0.739026 0.806321 0.10394
H_ H_ 0.848828 0.723751 0.749765 0.10394
H_ H_ 0.884957 0.671051 0.823747 0.10394
H_ H_ 0.796648 0.599378 0.557474 0.10394
H_ H_ 0.743145 0.582307 0.621338 0.10394
H_ H_ 0.613052 0.570935 0.510595 0.10394
C_ C_ 0.679721 0.586696 0.794035 0.18167
C_ C_ 0.728877 0.568819 0.778897 -0.15533
C_ C_ 0.742119 0.516996 0.773954 0.02923
C_ C_ 0.697147 0.989134 0.793903 -0.15533
C_ C_ 0.663587 0.502096 0.804151 0.18167
C_ C_ 0.530308 0.629293 0.754936 0.18167
C_ C_ 0.00074836 0.68557 0.744918 -0.15533
C_ C_ 0.5059 0.72161 0.754758 0.02923
C_ C_ 0.538396 0.726991 0.801073 -0.15533
C_ C_ 0.563375 0.683059 0.823447 0.18167
C_ C_ 0.512645 0.540819 0.872051 0.69207
C_ C_ 0.973536 -0.0012780000000000014 0.879257 0.02923
C_ C_ -0.006048000000000053 0.946553 0.877994 -0.15533
C_ C_ 0.962345 0.906243 0.878039 -0.15533
C_ C_ 0.909855 0.916275 0.886348 0.02923
C_ C_ 0.88845 0.969143 0.891522 -0.15533
C_ C_ 0.921509 0.00872011 0.885347 0.02923
C_ C_ 0.902387 0.558539 0.884089 0.69207
C_ C_ 0.901667 0.818411 0.881447 0.69661
C_ C_ 0.580327 0.790291 0.59513 0.18167
C_ C_ 0.531413 0.77483 0.57639 -0.15533
C_ C_ 0.520109 0.766982 0.523712 0.02923
C_ C_ 0.546837 0.79038 0.988243 -0.15533
C_ C_ 0.598022 0.805374 0.513009 0.18167
C_ C_ 0.731436 0.770018 0.638177 0.18167
C_ C_ 0.759795 0.746681 0.680005 -0.15533
C_ C_ 0.754239 0.767323 0.7298 0.02923
C_ C_ 0.724557 0.815153 0.736645 -0.15533
C_ C_ 0.70418 0.840984 0.692968 0.18167
C_ C_ 0.746413 0.873157 0.552012 0.69207
C_ C_ 0.778861 0.860582 1.0052786 0.02923
C_ C_ 0.757655 0.86287 0.953957 -0.15533
C_ C_ 0.786382 0.869797 0.913472 -0.15533
C_ C_ 0.837896 0.877146 0.922339 0.02923
C_ C_ 0.859096 0.877693 0.975348 -0.15533
C_ C_ 0.828323 0.875048 0.0155931 0.02923
C_ C_ 0.858549 0.889587 0.576632 0.69207
C_ C_ 0.849024 0.875442 0.824884 0.69661
C_ C_ 0.812705 0.928945 0.69279 0.18167
C_ C_ 0.768364 0.958877 0.709694 -0.15533
C_ C_ 0.773533 0.0012600000000000389 0.744098 0.02923
C_ C_ 0.832868 0.514255 0.754306 -0.15533
C_ C_ 0.861849 0.992722 0.731945 0.18167
C_ C_ 0.990416 0.870656 0.716016 0.18167
C_ C_ 0.506903 0.812583 0.726968 -0.15533
C_ C_ 0.990839 0.781627 0.738538 0.02923
C_ C_ 0.939805 0.783764 0.715293 -0.15533
C_ C_ 0.915732 0.828342 0.694182 0.18167
C_ C_ 0.985046 0.959666 0.630984 0.69207
C_ C_ 0.530343 0.487352 0.619982 0.02923
C_ C_ 0.513315 0.539962 0.62337 -0.15533
C_ C_ 0.546334 0.576167 0.618792 -0.15533
C_ C_ 0.597318 0.563672 0.610992 0.02923
C_ C_ 0.613949 0.510826 0.607822 -0.15533
C_ C_ 0.579985 0.472942 0.608358 0.02923
C_ C_ 0.595571 0.926366 0.615524 0.69207
C_ C_ 0.610807 0.658779 0.610755 0.69661
C_ C_ 0.936115 0.677348 0.930783 0.18167
C_ C_ 0.975834 0.700334 0.958443 -0.15533
C_ C_ 0.9698 0.736339 1.00008 0.02923
C_ C_ 0.921962 0.760891 0.519125 -0.15533
C_ C_ 0.879217 0.716116 0.98764 0.18167
C_ C_ 0.760916 0.689113 0.845682 0.18167
C_ C_ 0.743243 0.722781 0.808662 -0.15533
C_ C_ 0.776022 0.735881 0.774627 0.02923
C_ C_ 0.825411 0.714462 0.776175 -0.15533
C_ C_ 0.844142 0.683611 0.816414 0.18167
C_ C_ 0.762287 0.608058 0.946171 0.69207
C_ C_ 0.731279 0.60789 0.497777 0.02923
C_ C_ 0.753224 0.601225 0.547507 -0.15533
C_ C_ 0.722365 0.594684 0.586352 -0.15533
C_ C_ 0.671297 0.590105 0.575143 0.02923
C_ C_ 0.65283 0.584881 0.522604 -0.15533
C_ C_ 0.682006 0.597688 0.483365 0.02923
C_ C_ 0.650054 0.601924 0.921572 0.69207
C_ C_ 0.65852 0.603035 0.674312 0.69661
C_ C_ 0.873593 0.873231 0.881102 -0.30787
C_ C_ 0.635057 0.604311 0.616965 -0.30787
N_ N_ 0.64803 0.553606 0.807164 -0.32189
N_ N_ 0.559468 0.635968 0.799238 -0.32189
N_ N_ 0.611799 0.803597 0.563513 -0.32189
N_ N_ 0.70278 0.81658 0.646605 -0.32189
N_ N_ 0.857093 0.950959 0.699612 -0.32189
N_ N_ 0.943442 0.868708 0.689665 -0.32189
N_ N_ 0.889173 0.683225 0.94737 -0.32189
N_ N_ 0.811972 0.671149 0.849291 -0.32189
O_ O_ 1.0104227 0.574603 0.904748 -0.63271
O_ O_ 0.546365 0.527205 0.838313 -0.57982
O_ O_ 0.902897 0.580911 0.842082 -0.63271
O_ O_ 0.869409 0.578233 0.915792 -0.57982
O_ O_ 0.753147 0.890614 0.598709 -0.63271
O_ O_ 0.704171 0.848753 0.54067 -0.57982
O_ O_ 0.863263 0.846571 0.598676 -0.63271
O_ O_ 0.879889 0.92829 0.598248 -0.57982
O_ O_ 0.486377 0.905661 0.6027 -0.63271
O_ O_ 0.948109 0.970747 0.659448 -0.57982
O_ O_ 0.591115 0.901182 0.656184 -0.63271
O_ O_ 0.633365 0.911125 0.587105 -0.57982
O_ O_ 0.754159 0.585583 0.900161 -0.63271
O_ O_ 0.794087 0.644079 0.955072 -0.57982
O_ O_ 0.650064 0.64452 0.896504 -0.63271
O_ O_ 0.620505 0.569163 0.90073 -0.57982
F_ F_ 0.939923 0.815706 0.922155 -0.20885
F_ F_ 0.924553 0.800812 0.839326 -0.20885
F_ F_ 0.868759 0.78277 0.889272 -0.20885
F_ F_ 0.809451 0.914345 0.819492 -0.20885
F_ F_ 0.828511 0.830361 0.808242 -0.20885
F_ F_ 0.883112 0.882753 0.788221 -0.20885
F_ F_ 0.581117 0.661952 0.565743 -0.20885
F_ F_ 0.583415 0.685183 0.64757 -0.20885
F_ F_ 0.648843 0.690289 0.605225 -0.20885
F_ F_ 0.681362 0.553134 0.682028 -0.20885
F_ F_ 0.68943 0.642646 0.687476 -0.20885
F_ F_ 0.619626 0.615847 0.706875 -0.20885
_cell_length_a 26.508
_cell_length_b 26.37200000322088
_cell_length_c 26.311999743092066
_cell_angle_alpha 93.74100058972084
_cell_angle_beta 96.04100104955006
_cell_angle_gamma 83.6869992558723
_symmetry_space_group_name_H-M         'P 1'
_symmetry_Int_Tables_number            1
loop_
_symmetry_equiv_pos_as_xyz
   'x, y, z'
                         
loop_
_atom_site_label
_atom_site_type_symbol
_atom_site_fract_x 
_atom_site_fract_y
_atom_site_fract_z
_atom_site_charge
Zn Zn 0.0860601 0.0851364 0.338457 0.83971
Zn Zn 0.157935 0.350407 0.0831489 0.83971
Zn Zn 0.40591 0.420065 0.151691 0.83971
Zn Zn 0.335395 0.157068 0.410687 0.83971
H_ H_ 0.16971 0.129927 0.299707 0.10394
H_ H_ 0.253339 0.0954045 0.275363 0.10394
H_ H_ 0.218832 0.45584 0.30757 0.10394
H_ H_ 0.127209 0.980433 0.312181 0.10394
H_ H_ 0.516769 0.106514 0.253334 0.10394
H_ H_ 0.473819 0.182013 0.205745 0.10394
H_ H_ 0.0298186 0.265987 0.319379 0.10394
H_ H_ 0.0757966 0.197603 0.360884 0.10394
H_ H_ 0.0283655 0.448908 0.357488 0.10394
H_ H_ 0.48574 0.377854 0.382961 0.10394
H_ H_ 0.362074 0.487104 0.408654 0.10394
H_ H_ 0.0776505 0.31408 0.131788 0.10394
H_ H_ 0.496691 0.272711 0.0965561 0.10394
H_ H_ 0.0321438 0.309767 0.44157 0.10394
H_ H_ 0.117055 0.319146 0.98097 0.10394
H_ H_ 0.213045 0.257557 0.10012 0.10394
H_ H_ 0.234352 0.204372 0.174814 0.10394
H_ H_ 0.210111 0.340493 0.271999 0.10394
H_ H_ 0.170028 0.38709 0.196926 0.10394
H_ H_ 0.217189 0.373261 0.442382 0.10394
H_ H_ 0.267994 0.40348 0.384717 0.10394
H_ H_ 0.401556 0.403507 0.487422 0.10394
H_ H_ 0.296054 0.407602 0.161957 0.10394
H_ H_ 0.230318 0.452116 0.20769 0.10394
H_ H_ 0.334903 0.0460373 0.272588 0.10394
H_ H_ 0.403604 0.502983 0.231888 0.10394
H_ H_ 0.00744335 0.378324 0.191042 0.10394
H_ H_ 0.0496033 0.293917 0.22454 0.10394
H_ H_ 0.395844 0.264399 0.242444 0.10394
H_ H_ 0.359107 0.336413 0.192953 0.10394
H_ H_ 0.471431 0.057581 0.140313 0.10394
H_ H_ 0.0165631 0.11182 0.0834256 0.10394
H_ H_ 0.14887 0.0007664 0.0952077 0.10394
H_ H_ 0.433984 0.164502 0.38765 0.10394
H_ H_ 0.00936964 0.222327 0.42202 0.10394
H_ H_ 0.41405 0.289788 0.0358012 0.10394
H_ H_ 0.339286 0.238124 0.491531 0.10394
H_ H_ 0.227138 0.198005 0.387244 0.10394
H_ H_ 0.182605 0.247349 0.319693 0.10394
H_ H_ 0.319264 0.227885 0.242368 0.10394
H_ H_ 0.364348 0.187993 0.319964 0.10394
H_ H_ 0.285271 0.117405 0.0476468 0.10394
H_ H_ 0.235121 0.1059 0.117345 0.10394
H_ H_ 0.104442 0.0942007 0.00357603 0.10394
C_ C_ 0.178407 0.0887807 0.298964 0.18167
C_ C_ 0.22439 0.0689986 0.278441 -0.15533
C_ C_ 0.235094 0.0175426 0.267283 0.02923
C_ C_ 0.206741 0.49556 0.303855 -0.15533
C_ C_ 0.156699 0.00683772 0.306691 0.18167
C_ C_ 0.0222584 0.13159 0.260519 0.18167
C_ C_ 0.496946 0.185403 0.244143 -0.15533
C_ C_ -0.00128448 0.221324 0.254506 0.02923
C_ C_ 0.0215424 0.228735 0.304823 -0.15533
C_ C_ 0.0483035 0.188109 0.329534 0.18167
C_ C_ 0.00599812 0.052864 0.362734 0.69207
C_ C_ 0.483436 0.507138 0.389478 0.02923
C_ C_ 0.503232 0.45445 0.384517 -0.15533
C_ C_ 0.469713 0.416526 0.384796 -0.15533
C_ C_ 0.418844 0.428181 0.396754 0.02923
C_ C_ 0.40172 0.477234 0.405605 -0.15533
C_ C_ 0.432678 0.517889 0.399396 0.02923
C_ C_ 0.389938 0.0713533 0.375465 0.69207
C_ C_ 0.403465 0.329827 0.391363 0.69661
C_ C_ 0.0693682 0.303984 0.0913703 0.18167
C_ C_ 0.025653 0.279276 0.074627 -0.15533
C_ C_ 0.0147293 0.267509 0.0219524 0.02923
C_ C_ 0.0461596 0.304688 0.480398 -0.15533
C_ C_ 0.0911599 0.307075 0.00786942 0.18167
C_ C_ 0.206288 0.274474 0.138514 0.18167
C_ C_ 0.224337 0.245944 0.180087 -0.15533
C_ C_ 0.222127 0.267393 0.230304 0.02923
C_ C_ 0.203711 0.320394 0.233852 -0.15533
C_ C_ 0.187766 0.348832 0.192407 0.18167
C_ C_ 0.240361 0.368835 0.0444474 0.69207
C_ C_ 0.282479 0.37306 0.505475 0.02923
C_ C_ 0.260856 0.372944 0.453037 -0.15533
C_ C_ 0.289748 0.387047 0.416748 -0.15533
C_ C_ 0.342562 0.393147 0.428377 0.02923
C_ C_ 0.361212 0.397064 0.478799 -0.15533
C_ C_ 0.33173 0.387446 0.517802 0.02923
C_ C_ 0.348164 0.390046 0.0714485 0.69207
C_ C_ 0.354443 0.387945 0.332543 0.69661
C_ C_ 0.307718 0.436447 0.19045 0.18167
C_ C_ 0.268212 0.462699 0.21668 -0.15533
C_ C_ 0.278638 0.500745 0.255587 0.02923
C_ C_ 0.329127 0.0121539 0.247626 -0.15533
C_ C_ 0.364954 0.495252 0.226643 0.18167
C_ C_ 0.481267 0.36096 0.207691 0.18167
C_ C_ 0.00795118 0.304603 0.21866 -0.15533
C_ C_ 0.477097 0.280869 0.243061 0.02923
C_ C_ 0.423266 0.291232 0.232248 -0.15533
C_ C_ 0.40185 0.328098 0.198627 0.18167
C_ C_ 0.488763 0.453149 0.130347 0.69207
C_ C_ 0.0219114 0.986065 0.105395 0.02923
C_ C_ 0.00279117 0.0385235 0.0977301 -0.15533
C_ C_ 0.0347669 0.0744092 0.0911111 -0.15533
C_ C_ 0.0882894 0.0631028 0.0979536 0.02923
C_ C_ 0.107006 0.0120549 0.0971516 -0.15533
C_ C_ 0.0750539 0.973379 0.108004 0.02923
C_ C_ 0.0904204 0.426915 0.101824 0.69207
C_ C_ 0.104037 0.157387 0.109505 0.69661
C_ C_ 0.429873 0.187159 0.420119 0.18167
C_ C_ 0.474211 0.204873 0.447765 -0.15533
C_ C_ 0.468558 0.240063 0.492307 0.02923
C_ C_ 0.420317 0.257488 0.00830274 -0.15533
C_ C_ 0.37624 0.230351 0.479285 0.18167
C_ C_ 0.245049 0.197431 0.353026 0.18167
C_ C_ 0.219845 0.226034 0.31317 -0.15533
C_ C_ 0.248593 0.242478 0.276065 0.02923
C_ C_ 0.299436 0.222092 0.277514 -0.15533
C_ C_ 0.323466 0.193661 0.315966 0.18167
C_ C_ 0.262018 0.112923 0.451102 0.69207
C_ C_ 0.2257 0.126202 0.987888 0.02923
C_ C_ 0.245663 0.125413 0.0393842 -0.15533
C_ C_ 0.218967 0.110088 0.0777498 -0.15533
C_ C_ 0.165984 0.104228 0.0669685 0.02923
C_ C_ 0.144528 0.103434 0.0139027 -0.15533
C_ C_ 0.172897 0.116761 0.974658 0.02923
C_ C_ 0.147433 0.103942 0.418473 0.69207
C_ C_ 0.153497 0.0960602 0.162008 0.69661
C_ C_ 0.381008 0.388161 0.386067 -0.30787
C_ C_ 0.127981 0.101693 0.107488 -0.30787
N_ N_ 0.144773 0.056386 0.310036 -0.32189
N_ N_ 0.052815 0.141942 0.304269 -0.32189
N_ N_ 0.100796 0.3152 0.05756 -0.32189
N_ N_ 0.185072 0.323044 0.145598 -0.32189
N_ N_ 0.354353 0.455176 0.19307 -0.32189
N_ N_ 0.431912 0.363422 0.189448 -0.32189
N_ N_ 0.383516 0.199851 0.434665 -0.32189
N_ N_ 0.29598 0.18002 0.353197 -0.32189
O_ O_ 0.502157 0.0933214 0.396554 -0.63271
O_ O_ 0.0403141 0.0417045 0.329762 -0.57982
O_ O_ 0.386272 0.0971752 0.333857 -0.63271
O_ O_ 0.370058 0.0965347 0.414817 -0.57982
O_ O_ 0.244673 0.390896 0.0893645 -0.63271
O_ O_ 0.199956 0.34522 0.0328244 -0.57982
O_ O_ 0.352358 0.348342 0.0964339 -0.63271
O_ O_ 0.371523 0.42719 0.0916599 -0.57982
O_ O_ 0.977092 0.409924 0.090882 -0.63271
O_ O_ 0.452191 0.467828 0.156667 -0.57982
O_ O_ 0.0901016 0.405626 0.142663 -0.63271
O_ O_ 0.126431 0.411329 0.072318 -0.57982
O_ O_ 0.261662 0.0881905 0.407521 -0.63271
O_ O_ 0.293153 0.150231 0.461293 -0.57982
O_ O_ 0.154024 0.143683 0.391101 -0.63271
O_ O_ 0.109407 0.0768994 0.403599 -0.57982
F_ F_ 0.438859 0.322872 0.433638 -0.20885
F_ F_ 0.43551 0.314858 0.352611 -0.20885
F_ F_ 0.37024 0.291754 0.390316 -0.20885
F_ F_ 0.316354 0.425366 0.324668 -0.20885
F_ F_ 0.330472 0.34412 0.315117 -0.20885
F_ F_ 0.385165 0.391135 0.295346 -0.20885
F_ F_ 0.0718349 0.170026 0.0666963 -0.20885
F_ F_ 0.077019 0.168794 0.151969 -0.20885
F_ F_ 0.139573 0.193137 0.108255 -0.20885
F_ F_ 0.193786 0.054842 0.166248 -0.20885
F_ F_ 0.178383 0.139198 0.183411 -0.20885
F_ F_ 0.122802 0.0833522 0.198006 -0.20885
Zn Zn 0.0834694 0.0896004 0.843988 0.83971
Zn Zn 0.165966 0.350647 0.581022 0.83971
Zn Zn 0.414303 0.410839 0.656851 0.83971
Zn Zn 0.340884 0.158688 0.913292 0.83971
H_ H_ 0.157838 0.135683 0.785599 0.10394
H_ H_ 0.238238 0.1033 0.759641 0.10394
H_ H_ 0.213278 0.444256 0.790899 0.10394
H_ H_ 0.12915 0.988425 0.816967 0.10394
H_ H_ 0.512079 0.0991285 0.772125 0.10394
H_ H_ 0.485923 0.17485 0.714709 0.10394
H_ H_ 0.0465394 0.275055 0.833863 0.10394
H_ H_ 0.0714723 0.194416 0.881344 0.10394
H_ H_ 0.0368353 0.425515 0.874316 0.10394
H_ H_ 0.485977 0.376668 0.899476 0.10394
H_ H_ 0.357595 0.484131 0.89872 0.10394
H_ H_ 0.081807 0.30518 0.62505 0.10394
H_ H_ 0.498408 0.258737 0.592747 0.10394
H_ H_ 0.041411 0.271274 0.948873 0.10394
H_ H_ 0.109519 0.349024 0.481338 0.10394
H_ H_ 0.220283 0.247803 0.59311 0.10394
H_ H_ 0.25349 0.202829 0.662786 0.10394
H_ H_ 0.215751 0.330719 0.76524 0.10394
H_ H_ 0.185259 0.379706 0.685872 0.10394
H_ H_ 0.219477 0.362491 0.942508 0.10394
H_ H_ 0.272846 0.371324 0.873881 0.10394
H_ H_ 0.397202 0.405193 0.989349 0.10394
H_ H_ 0.31276 0.393551 0.667169 0.10394
H_ H_ 0.238482 0.442684 0.703031 0.10394
H_ H_ 0.325514 0.0568298 0.768234 0.10394
H_ H_ 0.406157 0.50353 0.735163 0.10394
H_ H_ 0.0221572 0.384578 0.696926 0.10394
H_ H_ 0.0589779 0.310082 0.747128 0.10394
H_ H_ 0.409755 0.260655 0.745267 0.10394
H_ H_ 0.374866 0.331622 0.69416 0.10394
H_ H_ 0.465083 0.0544808 0.624271 0.10394
H_ H_ 0.00822466 0.12273 0.591632 0.10394
H_ H_ 0.141604 0.00825215 0.591444 0.10394
H_ H_ 0.442541 0.169034 0.890575 0.10394
H_ H_ 0.0220541 0.181827 0.956755 0.10394
H_ H_ 0.414159 0.271273 0.542495 0.10394
H_ H_ 0.341747 0.243691 -0.00651999999999997 0.10394
H_ H_ 0.237739 0.197046 0.878653 0.10394
H_ H_ 0.192281 0.235824 0.804551 0.10394
H_ H_ 0.33777 0.209951 0.735999 0.10394
H_ H_ 0.378849 0.180402 0.815121 0.10394
H_ H_ 0.279016 0.113187 0.550667 0.10394
H_ H_ 0.224384 0.106883 0.614281 0.10394
H_ H_ 0.0959494 0.0941189 0.495895 0.10394
C_ C_ 0.169546 0.0953491 0.790162 0.18167
C_ C_ 0.217018 0.0761428 0.774695 -0.15533
C_ C_ 0.226363 0.0240991 0.762874 0.02923
C_ C_ 0.205073 0.484223 0.796128 -0.15533
C_ C_ 0.15479 0.0142574 0.807546 0.18167
C_ C_ 0.0162914 0.141502 0.773833 0.18167
C_ C_ 0.50081 0.181176 0.754778 -0.15533
C_ C_ 0.00933122 0.23393 0.770741 0.02923
C_ C_ 0.0362785 0.237761 0.817777 -0.15533
C_ C_ 0.0473206 0.193961 0.845702 0.18167
C_ C_ 0.0086073 0.042008 0.875666 0.69207
C_ C_ 0.480133 0.503916 0.887881 0.02923
C_ C_ 0.502171 0.452603 0.885663 -0.15533
C_ C_ 0.469454 0.413867 0.892901 -0.15533
C_ C_ 0.417135 0.42481 0.890018 0.02923
C_ C_ 0.398421 0.476441 0.8979 -0.15533
C_ C_ 0.429115 0.516583 0.893852 0.02923
C_ C_ 0.397751 0.0731799 0.880926 0.69207
C_ C_ 0.406543 0.328022 0.882967 0.69661
C_ C_ 0.0737056 0.301401 0.585052 0.18167
C_ C_ 0.0293016 0.281958 0.563702 -0.15533
C_ C_ 0.0158825 0.281402 0.511394 0.02923
C_ C_ 0.0516718 0.277135 0.988778 -0.15533
C_ C_ 0.086669 0.331289 0.50433 0.18167
C_ C_ 0.222215 0.267222 0.629846 0.18167
C_ C_ 0.245035 0.242221 0.670981 -0.15533
C_ C_ 0.24434 0.264331 0.721141 0.02923
C_ C_ 0.219599 0.314041 0.72796 -0.15533
C_ C_ 0.20168 0.339588 0.683362 0.18167
C_ C_ 0.249366 0.364646 0.544337 0.69207
C_ C_ 0.276019 0.378332 0.00553949 0.02923
C_ C_ 0.257192 0.373138 0.952576 -0.15533
C_ C_ 0.290825 0.377143 0.913307 -0.15533
C_ C_ 0.341892 0.385723 0.925346 0.02923
C_ C_ 0.358957 0.392859 0.977203 -0.15533
C_ C_ 0.327995 0.388157 0.0171228 0.02923
C_ C_ 0.357759 0.38313 0.571207 0.69207
C_ C_ 0.353358 0.3888 0.828157 0.69661
C_ C_ 0.316385 0.431391 0.685807 0.18167
C_ C_ 0.274936 0.454892 0.711842 -0.15533
C_ C_ 0.28179 0.496341 0.748373 0.02923
C_ C_ 0.318986 0.0221367 0.746009 -0.15533
C_ C_ 0.369813 0.48993 0.729601 0.18167
C_ C_ 0.498687 0.349105 0.699615 0.18167
C_ C_ 0.0192275 0.31536 0.733094 -0.15533
C_ C_ 0.490169 0.273182 0.745522 0.02923
C_ C_ 0.436945 0.280489 0.72797 -0.15533
C_ C_ 0.416181 0.32153 0.697703 0.18167
C_ C_ 0.492753 0.449266 0.623028 0.69207
C_ C_ 0.0182233 0.99667 0.619897 0.02923
C_ C_ -0.0037599999999999856 0.0473451 0.614094 -0.15533
C_ C_ 0.0282356 0.0852216 0.603091 -0.15533
C_ C_ 0.0780759 0.0706027 0.594182 0.02923
C_ C_ 0.10029 0.020431 0.596155 -0.15533
C_ C_ 0.0696329 0.982556 0.606269 0.02923
C_ C_ 0.100505 0.428558 0.602737 0.69207
C_ C_ 0.092784 0.171436 0.59199 0.69661
C_ C_ 0.435271 0.194118 0.922351 0.18167
C_ C_ 0.478409 0.206664 0.955409 -0.15533
C_ C_ 0.469229 0.244852 0.99309 0.02923
C_ C_ 0.418291 0.251642 0.506321 -0.15533
C_ C_ 0.38042 0.234284 0.981489 0.18167
C_ C_ 0.260589 0.20362 0.848061 0.18167
C_ C_ 0.235034 0.22538 0.804147 -0.15533
C_ C_ 0.26373 0.233617 0.764339 0.02923
C_ C_ 0.316965 0.214668 0.770281 -0.15533
C_ C_ 0.337144 0.190841 0.812585 0.18167
C_ C_ 0.264041 0.127599 0.951879 0.69207
C_ C_ 0.221489 0.110013 0.486929 0.02923
C_ C_ 0.23911 0.10583 0.538253 -0.15533
C_ C_ 0.206194 0.10498 0.575636 -0.15533
C_ C_ 0.153454 0.102262 0.562596 0.02923
C_ C_ 0.136196 0.0994637 0.508876 -0.15533
C_ C_ 0.168547 0.106995 0.472973 0.02923
C_ C_ 0.152118 0.114615 0.9203 0.69207
C_ C_ 0.13823 0.113717 0.65747 0.69661
C_ C_ 0.37917 0.382039 0.883469 -0.30787
C_ C_ 0.115122 0.113682 0.60126 -0.30787
N_ N_ 0.137585 0.0633036 0.805572 -0.32189
N_ N_ 0.0415091 0.146534 0.822681 -0.32189
N_ N_ 0.102986 0.322065 0.553515 -0.32189
N_ N_ 0.197798 0.315223 0.636423 -0.32189
N_ N_ 0.360819 0.449996 0.694554 -0.32189
N_ N_ 0.448076 0.351493 0.682247 -0.32189
N_ N_ 0.388894 0.203181 0.939567 -0.32189
N_ N_ 0.311181 0.18776 0.852015 -0.32189
O_ O_ 0.507397 0.0881397 0.902486 -0.63271
O_ O_ 0.036263 0.0426011 0.836057 -0.57982
O_ O_ 0.387447 0.0892793 0.836579 -0.63271
O_ O_ 0.381429 0.101148 0.920425 -0.57982
O_ O_ 0.253349 0.388355 0.589491 -0.63271
O_ O_ 0.21016 0.338394 0.533222 -0.57982
O_ O_ 0.357782 0.34013 0.597657 -0.63271
O_ O_ 0.385001 0.417076 0.593082 -0.57982
O_ O_ 0.984064 0.414358 0.590106 -0.63271
O_ O_ 0.461372 0.455815 0.658793 -0.57982
O_ O_ 0.093114 0.401637 0.64176 -0.63271
O_ O_ 0.139475 0.414121 0.574236 -0.57982
O_ O_ 0.266833 0.0948433 0.913356 -0.63271
O_ O_ 0.298528 0.160012 0.961794 -0.57982
O_ O_ 0.153218 0.152994 0.891631 -0.63271
O_ O_ 0.113848 0.0882447 0.90816 -0.57982
F_ F_ 0.438849 0.321543 0.926165 -0.20885
F_ F_ 0.43558 0.321163 0.842379 -0.20885
F_ F_ 0.376136 0.290073 0.883579 -0.20885
F_ F_ 0.31566 0.428858 0.827734 -0.20885
F_ F_ 0.332669 0.34568 0.809824 -0.20885
F_ F_ 0.38407 0.406199 0.793688 -0.20885
F_ F_ 0.0648659 0.17029 0.546935 -0.20885
F_ F_ 0.0638729 0.195142 0.62871 -0.20885
F_ F_ 0.132575 0.20079 0.58522 -0.20885
F_ F_ 0.169633 0.0705541 0.6671 -0.20885
F_ F_ 0.166708 0.152289 0.673032 -0.20885
F_ F_ 0.102043 0.115428 0.690681 -0.20885
Zn Zn 0.084551 0.590676 0.344731 0.83971
Zn Zn 0.162115 0.839055 0.084484 0.83971
Zn Zn 0.413614 0.914284 0.156456 0.83971
Zn Zn 0.348422 0.654685 0.418559 0.83971
H_ H_ 0.158439 0.639328 0.294175 0.10394
H_ H_ 0.238031 0.599511 0.256968 0.10394
H_ H_ 0.215262 0.944895 0.290887 0.10394
H_ H_ 0.138664 0.491826 0.340026 0.10394
H_ H_ 0.530732 0.600958 0.261599 0.10394
H_ H_ 0.488935 0.672778 0.215728 0.10394
H_ H_ 0.0321132 0.774074 0.344483 0.10394
H_ H_ 0.0738236 0.697899 0.379964 0.10394
H_ H_ 0.0379546 0.950975 0.376737 0.10394
H_ H_ 0.485371 0.877736 0.385456 0.10394
H_ H_ 0.349699 0.984139 0.399287 0.10394
H_ H_ 0.073833 0.796664 0.133616 0.10394
H_ H_ 0.496351 0.769597 0.1026 0.10394
H_ H_ 0.0462616 0.793356 0.44877 0.10394
H_ H_ 0.114892 0.822606 0.98712 0.10394
H_ H_ 0.221523 0.744045 0.0918647 0.10394
H_ H_ 0.276065 0.703112 0.162801 0.10394
H_ H_ 0.223206 0.820034 0.269834 0.10394
H_ H_ 0.18006 0.868009 0.195641 0.10394
H_ H_ 0.219843 0.859713 0.443848 0.10394
H_ H_ 0.269835 0.875838 0.375098 0.10394
H_ H_ 0.394158 0.912895 0.484155 0.10394
H_ H_ 0.312234 0.887342 0.169225 0.10394
H_ H_ 0.240279 0.934088 0.204083 0.10394
H_ H_ 0.337299 0.546375 0.289178 0.10394
H_ H_ 0.407325 0.00198527 0.231309 0.10394
H_ H_ -0.0009890000000000176 0.891624 0.206786 0.10394
H_ H_ 0.0374768 0.823217 0.258519 0.10394
H_ H_ 0.4214 0.744061 0.225606 0.10394
H_ H_ 0.379767 0.818958 0.1846 0.10394
H_ H_ 0.457035 0.546886 0.107677 0.10394
H_ H_ 0.00829854 0.620307 0.104482 0.10394
H_ H_ 0.130833 0.507952 0.0747905 0.10394
H_ H_ 0.447466 0.66308 0.394753 0.10394
H_ H_ 0.0106593 0.696375 0.449222 0.10394
H_ H_ 0.418435 0.775201 0.0504487 0.10394
H_ H_ 0.350309 0.741694 0.499882 0.10394
H_ H_ 0.235544 0.692286 0.383157 0.10394
H_ H_ 0.197576 0.724302 0.297247 0.10394
H_ H_ 0.339526 0.72597 0.248962 0.10394
H_ H_ 0.38224 0.68325 0.328207 0.10394
H_ H_ 0.285121 0.596905 0.057678 0.10394
H_ H_ 0.225028 0.613804 0.122958 0.10394
H_ H_ 0.100635 0.598903 0.00141688 0.10394
C_ C_ 0.173066 0.598029 0.29916 0.18167
C_ C_ 0.219164 0.577543 0.27957 -0.15533
C_ C_ 0.23786 0.525589 0.285706 0.02923
C_ C_ 0.200492 0.984153 0.283606 -0.15533
C_ C_ 0.161029 0.515017 0.321277 0.18167
C_ C_ 0.025599 0.645131 0.272473 0.18167
C_ C_ 0.514795 0.680515 0.249422 -0.15533
C_ C_ -0.002685999999999966 0.734974 0.27314 0.02923
C_ C_ 0.030628 0.739776 0.320575 -0.15533
C_ C_ 0.0585506 0.698259 0.34048 0.18167
C_ C_ 0.0017617 0.552272 0.367427 0.69207
C_ C_ 0.470097 0.0073097 0.371804 0.02923
C_ C_ 0.492508 0.955639 0.372293 -0.15533
C_ C_ 0.464051 0.916095 0.381111 -0.15533
C_ C_ 0.412002 0.926885 0.388319 0.02923
C_ C_ 0.388847 0.978082 0.389145 -0.15533
C_ C_ 0.417917 0.0190453 0.381627 0.02923
C_ C_ 0.409298 0.571153 0.395016 0.69207
C_ C_ 0.395572 0.828042 0.383649 0.69661
C_ C_ 0.0666731 0.7929 0.0936949 0.18167
C_ C_ 0.0198755 0.779361 0.0739306 -0.15533
C_ C_ 0.0097979 0.771325 0.0217079 0.02923
C_ C_ 0.0475224 0.799153 0.489811 -0.15533
C_ C_ 0.0906852 0.80713 0.0100912 0.18167
C_ C_ 0.225145 0.762167 0.131304 0.18167
C_ C_ 0.246749 0.733897 0.171213 -0.15533
C_ C_ 0.24197 0.751564 0.221724 0.02923
C_ C_ 0.216616 0.802387 0.230729 -0.15533
C_ C_ 0.196169 0.829444 0.188637 0.18167
C_ C_ 0.246942 0.857838 0.0495029 0.69207
C_ C_ 0.277049 0.873098 0.504357 0.02923
C_ C_ 0.259491 0.867313 0.45237 -0.15533
C_ C_ 0.288643 0.875415 0.413873 -0.15533
C_ C_ 0.338668 0.889877 0.425697 0.02923
C_ C_ 0.355446 0.900805 0.476689 -0.15533
C_ C_ 0.327722 0.88873 0.516366 0.02923
C_ C_ 0.357379 0.884616 0.0738144 0.69207
C_ C_ 0.347358 0.886896 0.329056 0.69661
C_ C_ 0.319395 0.918892 0.195028 0.18167
C_ C_ 0.277295 0.947076 0.211292 -0.15533
C_ C_ 0.279992 0.994842 0.238603 0.02923
C_ C_ 0.328464 0.517512 0.259959 -0.15533
C_ C_ 0.37162 0.985295 0.226712 0.18167
C_ C_ 0.496118 0.855397 0.208461 0.18167
C_ C_ -0.000152000000000041 0.822955 0.243069 -0.15533
C_ C_ 0.495754 0.772993 0.241358 0.02923
C_ C_ 0.443858 0.774607 0.220398 -0.15533
C_ C_ 0.418127 0.818019 0.199081 0.18167
C_ C_ 0.491222 0.954842 0.127218 0.69207
C_ C_ 0.0141843 0.492673 0.114187 0.02923
C_ C_ -0.0035119999999999596 0.543743 0.115794 -0.15533
C_ C_ 0.0258679 0.582018 0.10631 -0.15533
C_ C_ 0.077593 0.570193 0.0961204 0.02923
C_ C_ 0.0944003 0.517624 0.0877253 -0.15533
C_ C_ 0.0639712 0.479301 0.0969384 0.02923
C_ C_ 0.102112 0.922515 0.119471 0.69207
C_ C_ 0.0936268 0.666477 0.103752 0.69661
C_ C_ 0.442145 0.686151 0.430046 0.18167
C_ C_ 0.483566 0.706159 0.456384 -0.15533
C_ C_ 0.478644 0.738103 0.501883 0.02923
C_ C_ 0.423451 0.751766 0.0140966 -0.15533
C_ C_ 0.388271 0.730449 0.488134 0.18167
C_ C_ 0.259506 0.696434 0.352661 0.18167
C_ C_ 0.235914 0.712918 0.304732 -0.15533
C_ C_ 0.266542 0.721088 0.267289 0.02923
C_ C_ 0.318059 0.711433 0.275683 -0.15533
C_ C_ 0.340491 0.690453 0.320002 0.18167
C_ C_ 0.266228 0.619044 0.453476 0.69207
C_ C_ 0.225707 0.610873 0.99222 0.02923
C_ C_ 0.244976 0.604716 0.0449493 -0.15533
C_ C_ 0.209702 0.606044 0.0821538 -0.15533
C_ C_ 0.156349 0.604114 0.0672209 0.02923
C_ C_ 0.140445 0.598675 0.0146234 -0.15533
C_ C_ 0.173247 0.604928 0.978085 0.02923
C_ C_ 0.154462 0.606795 0.422437 0.69207
C_ C_ 0.138814 0.598466 0.163511 0.69661
C_ C_ 0.375764 0.885209 0.382786 -0.30787
C_ C_ 0.116204 0.609562 0.106709 -0.30787
N_ N_ 0.14269 0.563734 0.313675 -0.32189
N_ N_ 0.0536537 0.651689 0.316253 -0.32189
N_ N_ 0.101441 0.806099 0.062878 -0.32189
N_ N_ 0.195671 0.806258 0.141055 -0.32189
N_ N_ 0.363719 0.940799 0.19783 -0.32189
N_ N_ 0.446389 0.857175 0.192877 -0.32189
N_ N_ 0.395661 0.698872 0.445426 -0.32189
N_ N_ 0.311397 0.680669 0.358277 -0.32189
O_ O_ 0.516891 0.588358 0.410923 -0.63271
O_ O_ 0.040475 0.54238 0.341834 -0.57982
O_ O_ 0.408398 0.59245 0.35159 -0.63271
O_ O_ 0.379094 0.592561 0.427819 -0.57982
O_ O_ 0.254919 0.877217 0.0974176 -0.63271
O_ O_ 0.204367 0.836691 0.0355149 -0.57982
O_ O_ 0.354006 0.84858 0.101968 -0.63271
O_ O_ 0.38459 0.92016 0.0913739 -0.57982
O_ O_ 0.986849 0.904412 0.0908919 -0.63271
O_ O_ 0.454476 0.964604 0.156792 -0.57982
O_ O_ 0.0853202 0.892875 0.151779 -0.63271
O_ O_ 0.142613 0.90554 0.0967746 -0.57982
O_ O_ 0.264949 0.58822 0.412059 -0.63271
O_ O_ 0.297574 0.653825 0.462508 -0.57982
O_ O_ 0.1533 0.646678 0.397536 -0.63271
O_ O_ 0.117817 0.579269 0.40744 -0.57982
F_ F_ 0.425703 0.816048 0.428418 -0.20885
F_ F_ 0.420801 0.811836 0.341713 -0.20885
F_ F_ 0.355318 0.798054 0.386846 -0.20885
F_ F_ 0.309786 0.930268 0.322039 -0.20885
F_ F_ 0.319367 0.846545 0.31441 -0.20885
F_ F_ 0.382076 0.889679 0.296391 -0.20885
F_ F_ 0.0639472 0.672609 0.0577675 -0.20885
F_ F_ 0.0621047 0.68188 0.14133 -0.20885
F_ F_ 0.132322 0.700858 0.10828 -0.20885
F_ F_ 0.173134 0.556166 0.170903 -0.20885
F_ F_ 0.164701 0.635981 0.186178 -0.20885
F_ F_ 0.100068 0.596213 0.195967 -0.20885
Zn Zn 0.0856886 0.583117 0.840783 0.83971
Zn Zn 0.162684 0.848774 0.586844 0.83971
Zn Zn 0.403634 0.920678 0.653031 0.83971
Zn Zn 0.342296 0.652255 0.918337 0.83971
H_ H_ 0.162999 0.630648 0.792828 0.10394
H_ H_ 0.246792 0.595804 0.762159 0.10394
H_ H_ 0.203036 0.949573 0.779843 0.10394
H_ H_ 0.136903 0.481291 0.832014 0.10394
H_ H_ 0.526672 0.589436 0.737665 0.10394
H_ H_ 0.47954 0.670442 0.695981 0.10394
H_ H_ 0.0501964 0.775439 0.834606 0.10394
H_ H_ 0.0647079 0.687786 0.882533 0.10394
H_ H_ 0.0313992 0.937845 0.869081 0.10394
H_ H_ 0.482099 0.879999 0.892585 0.10394
H_ H_ 0.353065 0.992003 0.901519 0.10394
H_ H_ 0.0763078 0.806772 0.637262 0.10394
H_ H_ 0.50602 0.766748 0.604447 0.10394
H_ H_ 0.0358778 0.78407 0.947635 0.10394
H_ H_ 0.11067 0.839962 0.492398 0.10394
H_ H_ 0.221006 0.756741 0.602405 0.10394
H_ H_ 0.249402 0.704324 0.680698 0.10394
H_ H_ 0.221534 0.836182 0.776724 0.10394
H_ H_ 0.176425 0.879349 0.703875 0.10394
H_ H_ 0.223143 0.855118 0.953125 0.10394
H_ H_ 0.276008 0.864589 0.881978 0.10394
H_ H_ 0.4004 0.896292 0.989316 0.10394
H_ H_ 0.312417 0.896252 0.663218 0.10394
H_ H_ 0.233421 0.943033 0.694254 0.10394
H_ H_ 0.334162 0.541757 0.790075 0.10394
H_ H_ 0.398857 0.0145638 0.725896 0.10394
H_ H_ 0.00514439 0.907168 0.721582 0.10394
H_ H_ 0.0540819 0.827822 0.756504 0.10394
H_ H_ 0.407704 0.740456 0.70465 0.10394
H_ H_ 0.364367 0.822914 0.679144 0.10394
H_ H_ 0.471432 0.553094 0.621493 0.10394
H_ H_ 0.014561 0.6235 0.601106 0.10394
H_ H_ 0.148382 0.513647 0.59965 0.10394
H_ H_ 0.44491 0.659696 0.898084 0.10394
H_ H_ 0.013526 0.679955 0.954558 0.10394
H_ H_ 0.422095 0.774177 0.550311 0.10394
H_ H_ 0.347247 0.732592 0.00417017 0.10394
H_ H_ 0.23403 0.694034 0.882459 0.10394
H_ H_ 0.201274 0.743001 0.814233 0.10394
H_ H_ 0.348335 0.727243 0.753576 0.10394
H_ H_ 0.384484 0.686196 0.832515 0.10394
H_ H_ 0.277473 0.641501 0.55327 0.10394
H_ H_ 0.228321 0.619629 0.617724 0.10394
H_ H_ 0.105118 0.595305 0.501895 0.10394
C_ C_ 0.175973 0.588753 0.794904 0.18167
C_ C_ 0.224091 0.569571 0.779605 -0.15533
C_ C_ 0.238109 0.51633 0.777648 0.02923
C_ C_ 0.193944 0.992005 0.779361 -0.15533
C_ C_ 0.160933 0.506019 0.817718 0.18167
C_ C_ 0.0258383 0.641707 0.768314 0.18167
C_ C_ 0.503399 0.673256 0.730333 -0.15533
C_ C_ 0.0128574 0.735411 0.766178 0.02923
C_ C_ 0.0420727 0.737804 0.81489 -0.15533
C_ C_ 0.0525463 0.691696 0.841941 0.18167
C_ C_ 0.0127093 0.532219 0.873532 0.69207
C_ C_ 0.474995 0.00581797 0.883752 0.02923
C_ C_ 0.496038 0.954637 0.890949 -0.15533
C_ C_ 0.462353 0.918439 0.89152 -0.15533
C_ C_ 0.409102 0.927142 0.889986 0.02923
C_ C_ 0.389044 0.979746 0.890058 -0.15533
C_ C_ 0.422324 0.0181192 0.88688 0.02923
C_ C_ 0.405874 0.569512 0.891548 0.69207
C_ C_ 0.396894 0.830294 0.883779 0.69661
C_ C_ 0.0697705 0.801597 0.595098 0.18167
C_ C_ 0.0248409 0.780322 0.572396 -0.15533
C_ C_ 0.0146433 0.778113 0.520351 0.02923
C_ C_ 0.043776 0.789129 0.987983 -0.15533
C_ C_ 0.0868987 0.824864 0.514469 0.18167
C_ C_ 0.219097 0.77249 0.640298 0.18167
C_ C_ 0.239778 0.746363 0.68455 -0.15533
C_ C_ 0.248787 0.770561 0.73298 0.02923
C_ C_ 0.223937 0.819654 0.740071 -0.15533
C_ C_ 0.199765 0.844688 0.696387 0.18167
C_ C_ 0.243671 0.868679 0.545027 0.69207
C_ C_ 0.281785 0.867553 0.0102451 0.02923
C_ C_ 0.259523 0.870729 0.960432 -0.15533
C_ C_ 0.288919 0.876972 0.919704 -0.15533
C_ C_ 0.338181 0.890342 0.928949 0.02923
C_ C_ 0.359633 0.894127 0.979336 -0.15533
C_ C_ 0.331385 0.883224 0.0198274 0.02923
C_ C_ 0.353335 0.888116 0.569222 0.69207
C_ C_ 0.346666 0.89336 0.831642 0.69661
C_ C_ 0.312225 0.935008 0.681603 0.18167
C_ C_ 0.268402 0.958663 0.703141 -0.15533
C_ C_ 0.271343 1.00120508 0.738487 0.02923
C_ C_ 0.327984 0.5139 0.756918 -0.15533
C_ C_ 0.362002 0.99765 0.72329 0.18167
C_ C_ 0.479097 0.859175 0.709532 0.18167
C_ C_ 0.0151327 0.826849 0.739099 -0.15533
C_ C_ 0.479729 0.770027 0.729472 0.02923
C_ C_ 0.426555 0.773744 0.711876 -0.15533
C_ C_ 0.40412 0.819076 0.691291 0.18167
C_ C_ 0.482531 0.9529 0.623711 0.69207
C_ C_ 0.0222417 0.495872 0.610681 0.02923
C_ C_ 1.00301442 0.54767 0.608973 -0.15533
C_ C_ 0.0329906 0.584984 0.600607 -0.15533
C_ C_ 0.0842787 0.575102 0.59948 0.02923
C_ C_ 0.106299 0.522705 0.601171 -0.15533
C_ C_ 0.0747827 0.482021 0.602091 0.02923
C_ C_ 0.0964109 0.928628 0.609281 0.69207
C_ C_ 0.0971558 0.67555 0.599864 0.69661
C_ C_ 0.437872 0.688741 0.928887 0.18167
C_ C_ 0.480647 0.709387 0.955209 -0.15533
C_ C_ 0.472418 0.74189 -0.00187808 0.02923
C_ C_ 0.429726 0.746485 0.519627 -0.15533
C_ C_ 0.383622 0.727366 0.98949 0.18167
C_ C_ 0.260583 0.702168 0.856287 0.18167
C_ C_ 0.242031 0.729262 0.814348 -0.15533
C_ C_ 0.271326 0.740771 0.776532 0.02923
C_ C_ 0.322007 0.721436 0.781441 -0.15533
C_ C_ 0.342918 0.695188 0.825839 0.18167
C_ C_ 0.261144 0.620976 0.954119 0.69207
C_ C_ 0.228411 0.616163 0.490058 0.02923
C_ C_ 0.240939 0.627087 0.54218 -0.15533
C_ C_ 0.213209 0.613548 0.580585 -0.15533
C_ C_ 0.160939 0.611418 0.567475 0.02923
C_ C_ 0.145439 0.602284 0.514071 -0.15533
C_ C_ 0.177316 0.608909 0.475777 0.02923
C_ C_ 0.147425 0.609267 0.923643 0.69207
C_ C_ 0.140683 0.619087 0.665081 0.69661
C_ C_ 0.373094 0.884719 0.885151 -0.30787
C_ C_ 0.120255 0.618626 0.6065 -0.30787
N_ N_ 0.143986 0.555862 0.809047 -0.32189
N_ N_ 0.0542059 0.645771 0.813261 -0.32189
N_ N_ 0.10033 0.82134 0.564859 -0.32189
N_ N_ 0.19769 0.822071 0.647937 -0.32189
N_ N_ 0.35551 0.95534 0.6915 -0.32189
N_ N_ 0.430479 0.860305 0.689117 -0.32189
N_ N_ 0.390607 0.696603 0.947628 -0.32189
N_ N_ 0.310163 0.683318 0.859661 -0.32189
O_ O_ 0.511383 0.587269 0.890999 -0.63271
O_ O_ 0.0435318 0.5284 0.837358 -0.57982
O_ O_ 0.401152 0.591107 0.847435 -0.63271
O_ O_ 0.372106 0.585466 0.924312 -0.57982
O_ O_ 0.246947 0.896266 0.588244 -0.63271
O_ O_ 0.202697 0.843432 0.534554 -0.57982
O_ O_ 0.358799 0.846804 0.592438 -0.63271
O_ O_ 0.380531 0.923707 0.587409 -0.57982
O_ O_ 0.988554 0.914501 0.608081 -0.63271
O_ O_ 0.449554 0.963944 0.65819 -0.57982
O_ O_ 0.0959795 0.904118 0.650843 -0.63271
O_ O_ 0.130584 0.913857 0.578462 -0.57982
O_ O_ 0.258471 0.599682 0.908249 -0.63271
O_ O_ 0.297203 0.650965 0.967497 -0.57982
O_ O_ 0.15756 0.645531 0.895653 -0.63271
O_ O_ 0.110631 0.580247 0.907015 -0.57982
F_ F_ 0.432549 0.822923 0.927146 -0.20885
F_ F_ 0.424922 0.815074 0.842514 -0.20885
F_ F_ 0.363882 0.791253 0.88526 -0.20885
F_ F_ 0.310656 0.935695 0.832618 -0.20885
F_ F_ 0.319339 0.853932 0.810393 -0.20885
F_ F_ 0.379818 0.891903 0.795747 -0.20885
F_ F_ 0.0699961 0.682179 0.553258 -0.20885
F_ F_ 0.064176 0.691589 0.63676 -0.20885
F_ F_ 0.133873 0.711283 0.606641 -0.20885
F_ F_ 0.172986 0.57548 0.676126 -0.20885
F_ F_ 0.167272 0.66084 0.683251 -0.20885
F_ F_ 0.100674 0.624292 0.695575 -0.20885
Zn Zn 0.582716 0.0891847 0.343488 0.83971
Zn Zn 0.655697 0.348605 0.0838698 0.83971
Zn Zn 0.902871 0.412258 0.151094 0.83971
Zn Zn 0.8402 0.157136 0.416614 0.83971
H_ H_ 0.661284 0.139451 0.29433 0.10394
H_ H_ 0.75079 0.10913 0.275391 0.10394
H_ H_ 0.70257 0.445566 0.284801 0.10394
H_ H_ 0.632385 0.986638 0.311434 0.10394
H_ H_ 0.0224663 0.0933174 0.246246 0.10394
H_ H_ 0.972049 0.167174 0.197189 0.10394
H_ H_ 0.531895 0.274251 0.328377 0.10394
H_ H_ 0.573718 0.202043 0.37353 0.10394
H_ H_ 0.541231 0.440002 0.375603 0.10394
H_ H_ 0.970431 0.383273 0.357463 0.10394
H_ H_ 0.856371 0.496034 0.421189 0.10394
H_ H_ 0.567291 0.322079 0.128692 0.10394
H_ H_ 1.00516113 0.26628 0.101955 0.10394
H_ H_ 0.524893 0.301579 0.448023 0.10394
H_ H_ 0.622498 0.313335 0.982481 0.10394
H_ H_ 0.712078 0.25784 0.10448 0.10394
H_ H_ 0.751338 0.207426 0.177845 0.10394
H_ H_ 0.71228 0.345101 0.26902 0.10394
H_ H_ 0.676909 0.388436 0.195795 0.10394
H_ H_ 0.71655 0.358787 0.447788 0.10394
H_ H_ 0.766006 0.375641 0.383385 0.10394
H_ H_ 0.891284 0.414022 0.491754 0.10394
H_ H_ 0.793536 0.393528 0.152475 0.10394
H_ H_ 0.725218 0.444035 0.197634 0.10394
H_ H_ 0.843625 0.0468821 0.288291 0.10394
H_ H_ 0.897206 0.492913 0.229707 0.10394
H_ H_ 0.502417 0.391266 0.20689 0.10394
H_ H_ 0.548806 0.314558 0.232122 0.10394
H_ H_ 0.906696 0.242917 0.228805 0.10394
H_ H_ 0.864531 0.322017 0.182801 0.10394
H_ H_ 0.962233 0.0502048 0.0985249 0.10394
H_ H_ 0.525141 0.123502 0.124686 0.10394
H_ H_ 0.644937 0.00724833 0.0888451 0.10394
H_ H_ 0.936271 0.176235 0.381272 0.10394
H_ H_ 0.513865 0.188784 0.440071 0.10394
H_ H_ 0.916022 0.278313 0.0427645 0.10394
H_ H_ 0.854401 0.226489 0.510781 0.10394
H_ H_ 0.740645 0.213801 0.394624 0.10394
H_ H_ 0.696927 0.263217 0.324947 0.10394
H_ H_ 0.825253 0.225862 0.239955 0.10394
H_ H_ 0.871827 0.183734 0.311668 0.10394
H_ H_ 0.785188 0.133659 0.0564469 0.10394
H_ H_ 0.733857 0.118179 0.12069 0.10394
H_ H_ 0.611383 0.0840599 0.00536893 0.10394
C_ C_ 0.676026 0.0987046 0.298259 0.18167
C_ C_ 0.724947 0.0815697 0.281829 -0.15533
C_ C_ 0.739305 0.0298726 0.273836 0.02923
C_ C_ 0.698271 0.487587 0.286566 -0.15533
C_ C_ 0.65655 0.014839 0.301273 0.18167
C_ C_ 0.519728 0.142869 0.269089 0.18167
C_ C_ -0.003966000000000025 0.172148 0.23322 -0.15533
C_ C_ 0.505115 0.23467 0.264449 0.02923
C_ C_ 0.529218 0.237495 0.312946 -0.15533
C_ C_ 0.556638 0.194802 0.335487 0.18167
C_ C_ 0.502398 0.0502687 0.366759 0.69207
C_ C_ 0.96686 0.511606 0.373284 0.02923
C_ C_ 0.985681 0.459559 0.363925 -0.15533
C_ C_ 0.954752 0.421871 0.368208 -0.15533
C_ C_ 0.907302 0.431313 0.390742 0.02923
C_ C_ 0.889783 0.485957 0.402217 -0.15533
C_ C_ 0.918465 0.523231 0.394146 0.02923
C_ C_ 0.901809 0.0749107 0.386264 0.69207
C_ C_ 0.892752 0.334543 0.386332 0.69661
C_ C_ 0.563092 0.309054 0.0900207 0.18167
C_ C_ 0.521295 0.282683 0.0696257 -0.15533
C_ C_ 0.51232 0.272437 0.0159052 0.02923
C_ C_ 0.54194 0.289639 0.486954 -0.15533
C_ C_ 0.590914 0.307121 0.00733242 0.18167
C_ C_ 0.709838 0.274114 0.141131 0.18167
C_ C_ 0.737781 0.249296 0.183369 -0.15533
C_ C_ 0.729822 0.271772 0.230465 0.02923
C_ C_ 0.708142 0.321739 0.235133 -0.15533
C_ C_ 0.689719 0.348967 0.19177 0.18167
C_ C_ 0.735105 0.364412 0.039931 0.69207
C_ C_ 0.774496 0.37538 0.512587 0.02923
C_ C_ 0.755041 0.373611 0.460191 -0.15533
C_ C_ 0.78547 0.378353 0.421542 -0.15533
C_ C_ 0.835652 0.393864 0.431927 0.02923
C_ C_ 0.854803 0.402332 0.483044 -0.15533
C_ C_ 0.82506 0.392008 0.523372 0.02923
C_ C_ 0.846499 0.381222 0.065909 0.69207
C_ C_ 0.839769 0.392353 0.33559 0.69661
C_ C_ 0.800858 0.429792 0.174644 0.18167
C_ C_ 0.761908 0.456057 0.203216 -0.15533
C_ C_ 0.772158 0.493661 0.242042 0.02923
C_ C_ 0.832171 0.0192804 0.25534 -0.15533
C_ C_ 0.858542 0.484744 0.219436 0.18167
C_ C_ 0.985369 0.349078 0.196779 0.18167
C_ C_ 0.506271 0.319442 0.231746 -0.15533
C_ C_ 0.977729 0.26586 0.22597 0.02923
C_ C_ 0.92673 0.269031 0.208449 -0.15533
C_ C_ 0.903778 0.313656 0.187031 0.18167
C_ C_ 0.976751 0.454782 0.119717 0.69207
C_ C_ 0.526399 0.993443 0.123708 0.02923
C_ C_ 0.509565 0.0459007 0.127861 -0.15533
C_ C_ 0.537394 0.0839649 0.114359 -0.15533
C_ C_ 0.586749 0.0715215 0.103429 0.02923
C_ C_ 0.606783 0.0181914 0.10154 -0.15533
C_ C_ 0.577705 0.979099 0.109691 0.02923
C_ C_ 0.595823 0.42673 0.110198 0.69207
C_ C_ 0.601777 0.169751 0.100481 0.69661
C_ C_ 0.936795 0.192884 0.422719 0.18167
C_ C_ 0.97847 0.219623 0.443427 -0.15533
C_ C_ 0.976678 0.248095 0.489958 0.02923
C_ C_ 0.924736 0.246349 0.017262 -0.15533
C_ C_ 0.888812 0.223602 0.493789 0.18167
C_ C_ 0.759367 0.217554 0.361097 0.18167
C_ C_ 0.734229 0.245681 0.319778 -0.15533
C_ C_ 0.760036 0.249792 0.276085 0.02923
C_ C_ 0.809588 0.231216 0.276472 -0.15533
C_ C_ 0.835447 0.203591 0.317447 0.18167
C_ C_ 0.757005 0.128241 0.451441 0.69207
C_ C_ 0.733318 0.112628 0.993374 0.02923
C_ C_ 0.749069 0.117782 0.0439216 -0.15533
C_ C_ 0.716465 0.115124 0.0815726 -0.15533
C_ C_ 0.665497 0.102611 0.0689522 0.02923
C_ C_ 0.649943 0.0930859 0.0169359 -0.15533
C_ C_ 0.68399 0.0966767 0.979378 0.02923
C_ C_ 0.645756 0.114625 0.4276 0.69207
C_ C_ 0.645074 0.112544 0.165361 0.69661
C_ C_ 0.870348 0.39176 0.388299 -0.30787
C_ C_ 0.624236 0.113149 0.108478 -0.30787
N_ N_ 0.642586 0.0660614 0.308727 -0.32189
N_ N_ 0.549494 0.148084 0.314329 -0.32189
N_ N_ 0.597983 0.318755 0.0593832 -0.32189
N_ N_ 0.690139 0.323025 0.143932 -0.32189
N_ N_ 0.848279 0.444265 0.184622 -0.32189
N_ N_ 0.933381 0.351324 0.177684 -0.32189
N_ N_ 0.894308 0.194447 0.448917 -0.32189
N_ N_ 0.807974 0.192482 0.357449 -0.32189
O_ O_ 0.00980468 0.0948171 0.391599 -0.63271
O_ O_ 0.538901 0.0426718 0.335728 -0.57982
O_ O_ 0.900197 0.100049 0.343295 -0.63271
O_ O_ 0.871173 0.0907749 0.419924 -0.57982
O_ O_ 0.732297 0.398514 0.0797252 -0.63271
O_ O_ 0.699877 0.333437 0.033802 -0.57982
O_ O_ 0.843392 0.340623 0.0922512 -0.63271
O_ O_ 0.871777 0.418258 0.0867346 -0.57982
O_ O_ 0.493448 0.406225 0.108492 -0.63271
O_ O_ 0.94689 0.461204 0.155318 -0.57982
O_ O_ 0.594511 0.405471 0.152638 -0.63271
O_ O_ 0.633016 0.412131 0.0819077 -0.57982
O_ O_ 0.758038 0.102639 0.407303 -0.63271
O_ O_ 0.790834 0.161337 0.4615 -0.57982
O_ O_ 0.656836 0.151629 0.400432 -0.63271
O_ O_ 0.615369 0.0804664 0.40627 -0.57982
F_ F_ 0.928128 0.330026 0.426274 -0.20885
F_ F_ 0.91096 0.313595 0.34086 -0.20885
F_ F_ 0.859166 0.300477 0.396237 -0.20885
F_ F_ 0.808195 0.437953 0.33302 -0.20885
F_ F_ 0.813995 0.352846 0.314875 -0.20885
F_ F_ 0.87319 0.393773 0.298281 -0.20885
F_ F_ 0.567493 0.168533 0.0561845 -0.20885
F_ F_ 0.576348 0.191104 0.139301 -0.20885
F_ F_ 0.636483 0.203211 0.0919948 -0.20885
F_ F_ 0.678297 0.0713357 0.172552 -0.20885
F_ F_ 0.667945 0.156629 0.184175 -0.20885
F_ F_ 0.609472 0.108518 0.199019 -0.20885
Zn Zn 0.588783 0.0853466 0.852859 0.83971
Zn Zn 0.656895 0.34225 0.586235 0.83971
Zn Zn 0.917571 0.419735 0.65573 0.83971
Zn Zn 0.845797 0.151017 0.914145 0.83971
H_ H_ 0.66458 0.132984 0.807931 0.10394
H_ H_ 0.7429 0.103084 0.772294 0.10394
H_ H_ 0.715698 0.44237 0.782397 0.10394
H_ H_ 0.625826 0.984373 0.820091 0.10394
H_ H_ 0.0110458 0.10386 0.756379 0.10394
H_ H_ 0.980901 0.181854 0.706743 0.10394
H_ H_ 0.540059 0.271844 0.842498 0.10394
H_ H_ 0.578368 0.196381 0.88718 0.10394
H_ H_ 0.541548 0.439702 0.878484 0.10394
H_ H_ 0.979618 0.361493 0.880412 0.10394
H_ H_ 0.851912 0.480396 0.894426 0.10394
H_ H_ 0.5846 0.285069 0.63269 0.10394
H_ H_ 0.00663655 0.2664 0.590022 0.10394
H_ H_ 0.544198 0.275882 0.9443 0.10394
H_ H_ 0.609924 0.328667 0.488836 0.10394
H_ H_ 0.725429 0.249207 0.594667 0.10394
H_ H_ 0.763144 0.197623 0.669176 0.10394
H_ H_ 0.726779 0.33077 0.766224 0.10394
H_ H_ 0.681 0.374164 0.698598 0.10394
H_ H_ 0.716897 0.343549 0.938248 0.10394
H_ H_ 0.765761 0.361976 0.87198 0.10394
H_ H_ 0.891433 0.398451 0.984969 0.10394
H_ H_ 0.816561 0.396621 0.662673 0.10394
H_ H_ 0.739591 0.453841 0.684216 0.10394
H_ H_ 0.825181 0.0491395 0.782724 0.10394
H_ H_ 0.90723 0.508391 0.727379 0.10394
H_ H_ 0.519225 0.377617 0.685724 0.10394
H_ H_ 0.558587 0.304625 0.742567 0.10394
H_ H_ 0.912856 0.268297 0.74867 0.10394
H_ H_ 0.875679 0.333848 0.689965 0.10394
H_ H_ 0.955001 0.0584718 0.619793 0.10394
H_ H_ 0.516326 0.117537 0.594903 0.10394
H_ H_ 0.645394 0.00372188 0.609577 0.10394
H_ H_ 0.950457 0.150273 0.905164 0.10394
H_ H_ 0.518667 0.185934 0.953991 0.10394
H_ H_ 0.929195 0.267581 0.554216 0.10394
H_ H_ 0.845814 0.237426 -0.0028639999999999777 0.10394
H_ H_ 0.746343 0.190227 0.888285 0.10394
H_ H_ 0.700728 0.244568 0.817005 0.10394
H_ H_ 0.840289 0.21224 0.737642 0.10394
H_ H_ 0.882126 0.17782 0.821912 0.10394
H_ H_ 0.782472 0.126221 0.551653 0.10394
H_ H_ 0.738916 0.092737 0.615701 0.10394
H_ H_ 0.60912 0.0797064 0.506389 0.10394
C_ C_ 0.673502 0.0921156 0.801402 0.18167
C_ C_ 0.718783 0.0743342 0.783066 -0.15533
C_ C_ 0.730674 0.0208869 0.775753 0.02923
C_ C_ 0.709367 0.484008 0.788524 -0.15533
C_ C_ 0.651297 0.0109208 0.809578 0.18167
C_ C_ 0.523541 0.137799 0.784093 0.18167
C_ C_ 0.00045000000000006146 0.185386 0.747925 -0.15533
C_ C_ 0.511383 0.229403 0.773539 0.02923
C_ C_ 0.535646 0.235131 0.824708 -0.15533
C_ C_ 0.559037 0.192926 0.850944 0.18167
C_ C_ 0.508037 0.0446832 0.873623 0.69207
C_ C_ 0.978267 0.489941 0.882471 0.02923
C_ C_ 0.994715 0.438371 0.87269 -0.15533
C_ C_ 0.962175 0.402159 0.881037 -0.15533
C_ C_ 0.909638 0.415754 0.888422 0.02923
C_ C_ 0.892345 0.467312 0.893346 -0.15533
C_ C_ 0.926642 0.506228 0.89216 0.02923
C_ C_ 0.898124 0.062502 0.881667 0.69207
C_ C_ 0.894616 0.317932 0.881792 0.69661
C_ C_ 0.574456 0.282331 0.590515 0.18167
C_ C_ 0.526686 0.266206 0.569715 -0.15533
C_ C_ 0.513869 0.264658 0.516565 0.02923
C_ C_ 0.551096 0.281124 0.985965 -0.15533
C_ C_ 0.585485 0.312117 0.511426 0.18167
C_ C_ 0.722615 0.265409 0.633978 0.18167
C_ C_ 0.747785 0.237781 0.675301 -0.15533
C_ C_ 0.742593 0.255012 0.725066 0.02923
C_ C_ 0.721325 0.306324 0.732145 -0.15533
C_ C_ 0.697629 0.333878 0.689274 0.18167
C_ C_ 0.741833 0.362296 0.553303 0.69207
C_ C_ 0.773061 0.366479 1.00233931 0.02923
C_ C_ 0.754876 0.35572 0.950181 -0.15533
C_ C_ 0.782995 0.370936 0.910375 -0.15533
C_ C_ 0.83274 0.383858 0.92282 0.02923
C_ C_ 0.851197 0.38986 0.975266 -0.15533
C_ C_ 0.820862 0.38249 0.0136545 0.02923
C_ C_ 0.855453 0.388401 0.572898 0.69207
C_ C_ 0.850287 0.379543 0.826991 0.69661
C_ C_ 0.819657 0.431525 0.687567 0.18167
C_ C_ 0.776585 0.458396 0.705586 -0.15533
C_ C_ 0.784257 0.495218 0.744833 0.02923
C_ C_ 0.820846 0.0184396 0.754009 -0.15533
C_ C_ 0.873423 0.490722 0.728637 0.18167
C_ C_ 0.999568428 0.35692 0.704065 0.18167
C_ C_ 0.520838 0.306277 0.729431 -0.15533
C_ C_ 0.987621 0.280153 0.744283 0.02923
C_ C_ 0.936511 0.289069 0.732253 -0.15533
C_ C_ 0.916149 0.328897 0.698946 0.18167
C_ C_ 0.98489 0.459884 0.616331 0.69207
C_ C_ 0.519644 0.989852 0.615389 0.02923
C_ C_ 0.502761 0.0427935 0.612694 -0.15533
C_ C_ 0.533581 0.0783424 0.602724 -0.15533
C_ C_ 0.586945 0.0662396 0.602165 0.02923
C_ C_ 0.604804 0.0153841 0.606439 -0.15533
C_ C_ 0.572703 0.97794 0.614051 0.02923
C_ C_ 0.601199 0.420246 0.610761 0.69207
C_ C_ 0.601025 0.160242 0.599092 0.69661
C_ C_ 0.942766 0.178689 0.935553 0.18167
C_ C_ 0.983439 0.199348 0.96357 -0.15533
C_ C_ 0.976012 0.234325 0.00458462 0.02923
C_ C_ 0.931584 0.248679 0.516859 -0.15533
C_ C_ 0.884716 0.226173 0.987154 0.18167
C_ C_ 0.763694 0.194304 0.853084 0.18167
C_ C_ 0.740244 0.223259 0.813979 -0.15533
C_ C_ 0.766975 0.226086 0.769166 0.02923
C_ C_ 0.818458 0.209463 0.770552 -0.15533
C_ C_ 0.840449 0.180853 0.812778 0.18167
C_ C_ 0.766632 0.116384 0.952925 0.69207
C_ C_ 0.724044 0.116938 0.490388 0.02923
C_ C_ 0.742562 0.118753 0.541552 -0.15533
C_ C_ 0.716095 0.103353 0.581488 -0.15533
C_ C_ 0.663764 0.0961305 0.568505 0.02923
C_ C_ 0.648019 0.0878845 0.516637 -0.15533
C_ C_ 0.673177 0.105064 0.477422 0.02923
C_ C_ 0.660124 0.102204 0.926008 0.69207
C_ C_ 0.649046 0.106986 0.664494 0.69661
C_ C_ 0.872416 0.37491 0.883929 -0.30787
C_ C_ 0.625568 0.106371 0.607718 -0.30787
N_ N_ 0.63896 0.0614264 0.809728 -0.32189
N_ N_ 0.548904 0.146113 0.831533 -0.32189
N_ N_ 0.604836 0.303332 0.560152 -0.32189
N_ N_ 0.693853 0.311274 0.642071 -0.32189
N_ N_ 0.865974 0.448707 0.697925 -0.32189
N_ N_ 0.947997 0.364758 0.691124 -0.32189
N_ N_ 0.894258 0.192371 0.947672 -0.32189
N_ N_ 0.813825 0.176479 0.852554 -0.32189
O_ O_ 0.0124717 0.0772739 0.913505 -0.63271
O_ O_ 0.54489 0.0351528 0.844537 -0.57982
O_ O_ 0.90615 0.0913336 0.844695 -0.63271
O_ O_ 0.873172 0.0842659 0.919598 -0.57982
O_ O_ 0.746957 0.38585 0.599243 -0.63271
O_ O_ 0.700037 0.342467 0.537896 -0.57982
O_ O_ 0.859635 0.345227 0.59732 -0.63271
O_ O_ 0.883016 0.42397 0.592428 -0.57982
O_ O_ 0.492763 0.409297 0.591021 -0.63271
O_ O_ 0.958289 0.469219 0.654453 -0.57982
O_ O_ 0.602218 0.391873 0.650269 -0.63271
O_ O_ 0.629396 0.403268 0.576234 -0.57982
O_ O_ 0.764889 0.0848853 0.911773 -0.63271
O_ O_ 0.797319 0.151863 0.957129 -0.57982
O_ O_ 0.656793 0.146734 0.904343 -0.63271
O_ O_ 0.626959 0.0716671 0.908714 -0.57982
F_ F_ 0.925294 0.308526 0.927325 -0.20885
F_ F_ 0.924754 0.297311 0.843108 -0.20885
F_ F_ 0.854448 0.286199 0.878978 -0.20885
F_ F_ 0.81128 0.41894 0.821482 -0.20885
F_ F_ 0.82189 0.341107 0.8036 -0.20885
F_ F_ 0.885674 0.384471 0.791548 -0.20885
F_ F_ 0.571704 0.159701 0.551534 -0.20885
F_ F_ 0.569971 0.179416 0.63803 -0.20885
F_ F_ 0.634729 0.19672 0.600154 -0.20885
F_ F_ 0.67936 0.0615932 0.674078 -0.20885
F_ F_ 0.674577 0.150788 0.677116 -0.20885
F_ F_ 0.612787 0.10974 0.699213 -0.20885
Zn Zn 0.596734 0.589548 0.358543 0.83971
Zn Zn 0.66228 0.843567 0.0888623 0.83971
Zn Zn 0.90547 0.918704 0.151291 0.83971
Zn Zn 0.836055 0.660642 0.425258 0.83971
H_ H_ 0.675296 0.631973 0.308513 0.10394
H_ H_ 0.750659 0.596693 0.270349 0.10394
H_ H_ 0.718395 0.95647 0.281887 0.10394
H_ H_ 0.629665 0.486051 0.323515 0.10394
H_ H_ 0.0244328 0.60531 0.258682 0.10394
H_ H_ 0.975411 0.679571 0.211341 0.10394
H_ H_ 0.546643 0.778801 0.338123 0.10394
H_ H_ 0.590068 0.697384 0.382949 0.10394
H_ H_ 0.532547 0.942742 0.365876 0.10394
H_ H_ 0.983279 0.882264 0.369855 0.10394
H_ H_ 0.855068 0.993981 0.402491 0.10394
H_ H_ 0.573924 0.812094 0.135296 0.10394
H_ H_ 0.996868 0.767522 0.100367 0.10394
H_ H_ 0.538353 0.798689 0.45426 0.10394
H_ H_ 0.61832 0.826181 0.986905 0.10394
H_ H_ 0.704595 0.749331 0.107823 0.10394
H_ H_ 0.744454 0.705421 0.183385 0.10394
H_ H_ 0.726959 0.845631 0.273207 0.10394
H_ H_ 0.679954 0.885281 0.19946 0.10394
H_ H_ 0.72174 0.882553 0.450446 0.10394
H_ H_ 0.776691 0.889632 0.383522 0.10394
H_ H_ 0.905479 0.901186 0.491447 0.10394
H_ H_ 0.800214 0.924389 0.144746 0.10394
H_ H_ 0.733185 0.974616 0.184367 0.10394
H_ H_ 0.832938 0.535072 0.279215 0.10394
H_ H_ 0.911068 1.00202914 0.237251 0.10394
H_ H_ 0.517905 0.887733 0.202279 0.10394
H_ H_ 0.563259 0.811105 0.23927 0.10394
H_ H_ 0.894855 0.757825 0.241102 0.10394
H_ H_ 0.859565 0.82723 0.188947 0.10394
H_ H_ 0.959257 0.556933 0.127937 0.10394
H_ H_ 0.505923 0.613158 0.0817183 0.10394
H_ H_ 0.63327 0.505326 0.0721832 0.10394
H_ H_ 0.933374 0.673495 0.395494 0.10394
H_ H_ 0.520545 0.689325 0.446479 0.10394
H_ H_ 0.906152 0.777978 0.0372811 0.10394
H_ H_ 0.842358 0.74468 0.51069 0.10394
H_ H_ 0.734963 0.715243 0.401264 0.10394
H_ H_ 0.6952 0.76773 0.327135 0.10394
H_ H_ 0.82871 0.717133 0.250721 0.10394
H_ H_ 0.87205 0.686176 0.332705 0.10394
H_ H_ 0.781547 0.620324 0.0473648 0.10394
H_ H_ 0.724943 0.613713 0.117313 0.10394
H_ H_ 0.599577 0.589286 0.00163026 0.10394
C_ C_ 0.679757 0.59146 0.299415 0.18167
C_ C_ 0.721851 0.572695 0.276351 -0.15533
C_ C_ 0.73081 0.519228 0.269311 0.02923
C_ C_ 0.705626 0.996432 0.285814 -0.15533
C_ C_ 0.655857 0.510113 0.308682 0.18167
C_ C_ 0.536363 0.639988 0.278471 0.18167
C_ C_ -0.0018080000000000318 0.688108 0.247508 -0.15533
C_ C_ 0.516102 0.730597 0.270986 0.02923
C_ C_ 0.541818 0.74058 0.321975 -0.15533
C_ C_ 0.569131 0.695681 0.34563 0.18167
C_ C_ 0.517244 0.546927 0.382599 0.69207
C_ C_ 0.975714 0.0112113 0.375602 0.02923
C_ C_ -0.0017049999999999566 0.958941 0.376957 -0.15533
C_ C_ 0.966238 0.921576 0.377148 -0.15533
C_ C_ 0.916041 0.9333 0.391735 0.02923
C_ C_ 0.896452 0.9847 0.398559 -0.15533
C_ C_ 0.924923 0.023274 0.386235 0.02923
C_ C_ 0.896301 0.577 0.394847 0.69207
C_ C_ 0.902019 0.833434 0.394301 0.69661
C_ C_ 0.566559 0.807025 0.0954603 0.18167
C_ C_ 0.522269 0.781651 0.075753 -0.15533
C_ C_ 0.513676 0.773236 0.0210753 0.02923
C_ C_ 0.552849 0.785111 0.491168 -0.15533
C_ C_ 0.592973 0.809773 0.0101577 0.18167
C_ C_ 0.707263 0.768822 0.146726 0.18167
C_ C_ 0.72989 0.744403 0.18953 -0.15533
C_ C_ 0.737819 0.769047 0.236127 0.02923
C_ C_ 0.720088 0.821267 0.238366 -0.15533
C_ C_ 0.701211 0.848132 0.194399 0.18167
C_ C_ 0.745731 0.849847 0.046079 0.69207
C_ C_ 0.781289 0.879984 0.512865 0.02923
C_ C_ 0.759748 0.887217 0.460785 -0.15533
C_ C_ 0.791646 0.894113 0.422328 -0.15533
C_ C_ 0.844553 0.895859 0.432315 0.02923
C_ C_ 0.864245 0.898562 0.483988 -0.15533
C_ C_ 0.832207 0.894399 0.524517 0.02923
C_ C_ 0.853072 0.8822 0.0705184 0.69207
C_ C_ 0.855034 0.889499 0.33225 0.69661
C_ C_ 0.809475 0.950152 0.17718 0.18167
C_ C_ 0.770468 0.975985 0.201286 -0.15533
C_ C_ 0.782102 1.00770914 0.244026 0.02923
C_ C_ 0.821083 0.507444 0.249478 -0.15533
C_ C_ 0.871416 0.992674 0.230208 0.18167
C_ C_ 0.978022 0.862198 0.213045 0.18167
C_ C_ 0.521652 0.815177 0.234216 -0.15533
C_ C_ 0.972318 0.779413 0.247407 0.02923
C_ C_ 0.921867 0.781194 0.226391 -0.15533
C_ C_ 0.900828 0.822096 0.196559 0.18167
C_ C_ 0.98559 0.949905 0.114587 0.69207
C_ C_ 0.521193 0.490962 0.118036 0.02923
C_ C_ 0.498357 0.539215 0.106394 -0.15533
C_ C_ 0.5256 0.577408 0.0936669 -0.15533
C_ C_ 0.578336 0.568259 0.0943122 0.02923
C_ C_ 0.598562 0.516653 0.0915549 -0.15533
C_ C_ 0.570195 0.478485 0.1052 0.02923
C_ C_ 0.605115 0.927192 0.113508 0.69207
C_ C_ 0.591481 0.66679 0.10038 0.69661
C_ C_ 0.929902 0.695662 0.433601 0.18167
C_ C_ 0.973009 0.717492 0.45653 -0.15533
C_ C_ 0.969056 0.752372 0.499007 0.02923
C_ C_ 0.918317 0.745265 1.0130367 -0.15533
C_ C_ 0.87983 0.737307 0.495747 0.18167
C_ C_ 0.756487 0.718403 0.367552 0.18167
C_ C_ 0.733466 0.746498 0.325378 -0.15533
C_ C_ 0.759068 0.742997 0.28147 0.02923
C_ C_ 0.807277 0.717833 0.281581 -0.15533
C_ C_ 0.830607 0.69435 0.326721 0.18167
C_ C_ 0.764122 0.625313 0.460272 0.69207
C_ C_ 0.725627 0.604699 0.987577 0.02923
C_ C_ 0.74291 0.612217 0.0391447 -0.15533
C_ C_ 0.710003 0.610007 0.0766632 -0.15533
C_ C_ 0.657545 0.602132 0.0662599 0.02923
C_ C_ 0.639836 0.594585 0.0142021 -0.15533
C_ C_ 0.673886 0.595584 0.974387 0.02923
C_ C_ 0.656079 0.602005 0.431632 0.69207
C_ C_ 0.636338 0.609276 0.161904 0.69661
C_ C_ 0.880388 0.891485 0.38926 -0.30787
C_ C_ 0.61691 0.611101 0.105818 -0.30787
N_ N_ 0.647315 0.562322 0.315563 -0.32189
N_ N_ 0.564138 0.647294 0.324066 -0.32189
N_ N_ 0.602045 0.813127 0.06196 -0.32189
N_ N_ 0.692616 0.818677 0.150455 -0.32189
N_ N_ 0.859044 0.955546 0.19475 -0.32189
N_ N_ 0.930464 0.860593 0.19103 -0.32189
N_ N_ 0.884551 0.704491 0.453603 -0.32189
N_ N_ 0.805126 0.696178 0.368269 -0.32189
O_ O_ -0.0025180000000000202 0.597709 0.39028 -0.63271
O_ O_ 0.553127 0.538072 0.352375 -0.57982
O_ O_ 0.893251 0.604898 0.354763 -0.63271
O_ O_ 0.87742 0.596622 0.435851 -0.57982
O_ O_ 0.757632 0.864233 0.0949829 -0.63271
O_ O_ 0.70452 0.826414 0.0381059 -0.57982
O_ O_ 0.858192 0.844484 0.0997303 -0.63271
O_ O_ 0.869768 0.924138 0.0867054 -0.57982
O_ O_ 0.499663 0.908315 0.106488 -0.63271
O_ O_ 0.956556 0.961184 0.151908 -0.57982
O_ O_ 0.598387 0.898579 0.149996 -0.63271
O_ O_ 0.639593 0.908678 0.0818501 -0.57982
O_ O_ 0.764525 0.602388 0.414727 -0.63271
O_ O_ 0.789864 0.665291 0.47099 -0.57982
O_ O_ 0.65696 0.640771 0.402918 -0.63271
O_ O_ 0.622025 0.569584 0.415188 -0.57982
F_ F_ 0.9385 0.829929 0.435744 -0.20885
F_ F_ 0.925117 0.808404 0.352094 -0.20885
F_ F_ 0.86602 0.80141 0.401823 -0.20885
F_ F_ 0.820212 0.931429 0.326834 -0.20885
F_ F_ 0.830884 0.846894 0.322042 -0.20885
F_ F_ 0.88962 0.889576 0.298213 -0.20885
F_ F_ 0.56794 0.672213 0.0513908 -0.20885
F_ F_ 0.557198 0.678472 0.135903 -0.20885
F_ F_ 0.630838 0.698527 0.104389 -0.20885
F_ F_ 0.673949 0.568525 0.168301 -0.20885
F_ F_ 0.664273 0.647996 0.1867 -0.20885
F_ F_ 0.597023 0.604719 0.192639 -0.20885
Zn Zn 0.589293 0.577462 0.836913 0.83971
Zn Zn 0.662045 0.846532 0.590152 0.83971
Zn Zn 0.906714 0.922384 0.661281 0.83971
Zn Zn 0.841821 0.641174 0.908774 0.83971
H_ H_ 0.670509 0.626515 0.801934 0.10394
H_ H_ 0.75528 0.595717 0.768291 0.10394
H_ H_ 0.70362 0.948457 0.788029 0.10394
H_ H_ 0.642154 0.476401 0.823673 0.10394
H_ H_ 0.023869 0.606358 0.749642 0.10394
H_ H_ 0.976873 0.682491 0.708656 0.10394
H_ H_ 0.540519 0.763171 0.822475 0.10394
H_ H_ 0.574731 0.686025 0.865204 0.10394
H_ H_ 0.536005 0.941327 0.888333 0.10394
H_ H_ 0.980265 0.869441 0.876581 0.10394
H_ H_ 0.850004 0.97807 0.89473 0.10394
H_ H_ 0.587264 0.801211 0.636741 0.10394
H_ H_ -0.0010170000000000456 0.764842 0.595745 0.10394
H_ H_ 0.539899 0.7885 0.946829 0.10394
H_ H_ 0.62556 0.814973 0.486458 0.10394
H_ H_ 0.735108 0.756023 0.600693 0.10394
H_ H_ 0.785929 0.713671 0.674011 0.10394
H_ H_ 0.711518 0.828794 0.774139 0.10394
H_ H_ 0.685242 0.877032 0.696943 0.10394
H_ H_ 0.715456 0.855646 0.943294 0.10394
H_ H_ 0.77098 0.856729 0.876303 0.10394
H_ H_ 0.900149 0.888693 0.98686 0.10394
H_ H_ 0.812781 0.891134 0.675766 0.10394
H_ H_ 0.731659 0.944395 0.699727 0.10394
H_ H_ 0.836596 0.542287 0.785703 0.10394
H_ H_ 0.899569 1.00716882 0.740599 0.10394
H_ H_ 0.499052 0.893001 0.706035 0.10394
H_ H_ 0.548363 0.812234 0.738925 0.10394
H_ H_ 0.914351 0.753507 0.720526 0.10394
H_ H_ 0.873918 0.835513 0.693488 0.10394
H_ H_ 0.962422 0.557994 0.613591 0.10394
H_ H_ 0.53122 0.612667 0.606867 0.10394
H_ H_ 0.65481 0.498774 0.606908 0.10394
H_ H_ 0.94442 0.657131 0.895298 0.10394
H_ H_ 0.518801 0.695257 0.946794 0.10394
H_ H_ 0.914912 0.793836 0.544346 0.10394
H_ H_ 0.840345 0.72457 1.00076 0.10394
H_ H_ 0.737886 0.674471 0.871486 0.10394
H_ H_ 0.703661 0.739026 0.806321 0.10394
H_ H_ 0.848828 0.723751 0.749765 0.10394
H_ H_ 0.884957 0.671051 0.823747 0.10394
H_ H_ 0.796648 0.599378 0.557474 0.10394
H_ H_ 0.743145 0.582307 0.621338 0.10394
H_ H_ 0.613052 0.570935 0.510595 0.10394
C_ C_ 0.679721 0.586696 0.794035 0.18167
C_ C_ 0.728877 0.568819 0.778897 -0.15533
C_ C_ 0.742119 0.516996 0.773954 0.02923
C_ C_ 0.697147 0.989134 0.793903 -0.15533
C_ C_ 0.663587 0.502096 0.804151 0.18167
C_ C_ 0.530308 0.629293 0.754936 0.18167
C_ C_ 0.00074836 0.68557 0.744918 -0.15533
C_ C_ 0.5059 0.72161 0.754758 0.02923
C_ C_ 0.538396 0.726991 0.801073 -0.15533
C_ C_ 0.563375 0.683059 0.823447 0.18167
C_ C_ 0.512645 0.540819 0.872051 0.69207
C_ C_ 0.973536 -0.0012780000000000014 0.879257 0.02923
C_ C_ -0.006048000000000053 0.946553 0.877994 -0.15533
C_ C_ 0.962345 0.906243 0.878039 -0.15533
C_ C_ 0.909855 0.916275 0.886348 0.02923
C_ C_ 0.88845 0.969143 0.891522 -0.15533
C_ C_ 0.921509 0.00872011 0.885347 0.02923
C_ C_ 0.902387 0.558539 0.884089 0.69207
C_ C_ 0.901667 0.818411 0.881447 0.69661
C_ C_ 0.580327 0.790291 0.59513 0.18167
C_ C_ 0.531413 0.77483 0.57639 -0.15533
C_ C_ 0.520109 0.766982 0.523712 0.02923
C_ C_ 0.546837 0.79038 0.988243 -0.15533
C_ C_ 0.598022 0.805374 0.513009 0.18167
C_ C_ 0.731436 0.770018 0.638177 0.18167
C_ C_ 0.759795 0.746681 0.680005 -0.15533
C_ C_ 0.754239 0.767323 0.7298 0.02923
C_ C_ 0.724557 0.815153 0.736645 -0.15533
C_ C_ 0.70418 0.840984 0.692968 0.18167
C_ C_ 0.746413 0.873157 0.552012 0.69207
C_ C_ 0.778861 0.860582 1.0052786 0.02923
C_ C_ 0.757655 0.86287 0.953957 -0.15533
C_ C_ 0.786382 0.869797 0.913472 -0.15533
C_ C_ 0.837896 0.877146 0.922339 0.02923
C_ C_ 0.859096 0.877693 0.975348 -0.15533
C_ C_ 0.828323 0.875048 0.0155931 0.02923
C_ C_ 0.858549 0.889587 0.576632 0.69207
C_ C_ 0.849024 0.875442 0.824884 0.69661
C_ C_ 0.812705 0.928945 0.69279 0.18167
C_ C_ 0.768364 0.958877 0.709694 -0.15533
C_ C_ 0.773533 0.0012600000000000389 0.744098 0.02923
C_ C_ 0.832868 0.514255 0.754306 -0.15533
C_ C_ 0.861849 0.992722 0.731945 0.18167
C_ C_ 0.990416 0.870656 0.716016 0.18167
C_ C_ 0.506903 0.812583 0.726968 -0.15533
C_ C_ 0.990839 0.781627 0.738538 0.02923
C_ C_ 0.939805 0.783764 0.715293 -0.15533
C_ C_ 0.915732 0.828342 0.694182 0.18167
C_ C_ 0.985046 0.959666 0.630984 0.69207
C_ C_ 0.530343 0.487352 0.619982 0.02923
C_ C_ 0.513315 0.539962 0.62337 -0.15533
C_ C_ 0.546334 0.576167 0.618792 -0.15533
C_ C_ 0.597318 0.563672 0.610992 0.02923
C_ C_ 0.613949 0.510826 0.607822 -0.15533
C_ C_ 0.579985 0.472942 0.608358 0.02923
C_ C_ 0.595571 0.926366 0.615524 0.69207
C_ C_ 0.610807 0.658779 0.610755 0.69661
C_ C_ 0.936115 0.677348 0.930783 0.18167
C_ C_ 0.975834 0.700334 0.958443 -0.15533
C_ C_ 0.9698 0.736339 1.00008 0.02923
C_ C_ 0.921962 0.760891 0.519125 -0.15533
C_ C_ 0.879217 0.716116 0.98764 0.18167
C_ C_ 0.760916 0.689113 0.845682 0.18167
C_ C_ 0.743243 0.722781 0.808662 -0.15533
C_ C_ 0.776022 0.735881 0.774627 0.02923
C_ C_ 0.825411 0.714462 0.776175 -0.15533
C_ C_ 0.844142 0.683611 0.816414 0.18167
C_ C_ 0.762287 0.608058 0.946171 0.69207
C_ C_ 0.731279 0.60789 0.497777 0.02923
C_ C_ 0.753224 0.601225 0.547507 -0.15533
C_ C_ 0.722365 0.594684 0.586352 -0.15533
C_ C_ 0.671297 0.590105 0.575143 0.02923
C_ C_ 0.65283 0.584881 0.522604 -0.15533
C_ C_ 0.682006 0.597688 0.483365 0.02923
C_ C_ 0.650054 0.601924 0.921572 0.69207
C_ C_ 0.65852 0.603035 0.674312 0.69661
C_ C_ 0.873593 0.873231 0.881102 -0.30787
C_ C_ 0.635057 0.604311 0.616965 -0.30787
N_ N_ 0.64803 0.553606 0.807164 -0.32189
N_ N_ 0.559468 0.635968 0.799238 -0.32189
N_ N_ 0.611799 0.803597 0.563513 -0.32189
N_ N_ 0.70278 0.81658 0.646605 -0.32189
N_ N_ 0.857093 0.950959 0.699612 -0.32189
N_ N_ 0.943442 0.868708 0.689665 -0.32189
N_ N_ 0.889173 0.683225 0.94737 -0.32189
N_ N_ 0.811972 0.671149 0.849291 -0.32189
O_ O_ 1.0104227 0.574603 0.904748 -0.63271
O_ O_ 0.546365 0.527205 0.838313 -0.57982
O_ O_ 0.902897 0.580911 0.842082 -0.63271
O_ O_ 0.869409 0.578233 0.915792 -0.57982
O_ O_ 0.753147 0.890614 0.598709 -0.63271
O_ O_ 0.704171 0.848753 0.54067 -0.57982
O_ O_ 0.863263 0.846571 0.598676 -0.63271
O_ O_ 0.879889 0.92829 0.598248 -0.57982
O_ O_ 0.486377 0.905661 0.6027 -0.63271
O_ O_ 0.948109 0.970747 0.659448 -0.57982
O_ O_ 0.591115 0.901182 0.656184 -0.63271
O_ O_ 0.633365 0.911125 0.587105 -0.57982
O_ O_ 0.754159 0.585583 0.900161 -0.63271
O_ O_ 0.794087 0.644079 0.955072 -0.57982
O_ O_ 0.650064 0.64452 0.896504 -0.63271
O_ O_ 0.620505 0.569163 0.90073 -0.57982
F_ F_ 0.939923 0.815706 0.922155 -0.20885
F_ F_ 0.924553 0.800812 0.839326 -0.20885
F_ F_ 0.868759 0.78277 0.889272 -0.20885
F_ F_ 0.809451 0.914345 0.819492 -0.20885
F_ F_ 0.828511 0.830361 0.808242 -0.20885
F_ F_ 0.883112 0.882753 0.788221 -0.20885
F_ F_ 0.581117 0.661952 0.565743 -0.20885
F_ F_ 0.583415 0.685183 0.64757 -0.20885
F_ F_ 0.648843 0.690289 0.605225 -0.20885
F_ F_ 0.681362 0.553134 0.682028 -0.20885
F_ F_ 0.68943 0.642646 0.687476 -0.20885
F_ F_ 0.619626 0.615847 0.706875 -0.20885
