_cell_length_a 26.508
_cell_length_b 26.37200000322088
_cell_length_c 26.311999743092066
_cell_angle_alpha 93.74100058972084
_cell_angle_beta 96.04100104955006
_cell_angle_gamma 83.6869992558723
_symmetry_space_group_name_H-M         'P 1'
_symmetry_Int_Tables_number            1
loop_
_symmetry_equiv_pos_as_xyz
   'x, y, z'
                         
loop_
_atom_site_label
_atom_site_type_symbol
_atom_site_fract_x 
_atom_site_fract_y
_atom_site_fract_z
_atom_site_charge
Zn Zn 0.0850349 0.0796587 0.348972 0.83971
Zn Zn 0.163149 0.341747 0.0821739 0.83971
Zn Zn 0.406512 0.417137 0.157021 0.83971
Zn Zn 0.336491 0.14655 0.41474 0.83971
H_ H_ 0.161215 0.128091 0.300582 0.10394
H_ H_ 0.241417 0.097004 0.266567 0.10394
H_ H_ 0.216091 0.449787 0.303072 0.10394
H_ H_ 0.141235 0.975866 0.333836 0.10394
H_ H_ 0.54665 0.098052 0.237413 0.10394
H_ H_ 0.493547 0.171357 0.196143 0.10394
H_ H_ 0.0186581 0.258338 0.347561 0.10394
H_ H_ 0.0722778 0.186 0.380793 0.10394
H_ H_ 0.0341816 0.448837 0.366401 0.10394
H_ H_ 0.488295 0.377749 0.404583 0.10394
H_ H_ 0.35233 0.484693 0.406651 0.10394
H_ H_ 0.0832718 0.299379 0.130364 0.10394
H_ H_ 0.50179 0.276051 0.105049 0.10394
H_ H_ 0.0282932 0.274441 0.455229 0.10394
H_ H_ 0.125013 0.315309 0.985208 0.10394
H_ H_ 0.226577 0.248361 0.0897815 0.10394
H_ H_ 0.26898 0.200574 0.15785 0.10394
H_ H_ 0.237521 0.332614 0.258276 0.10394
H_ H_ 0.194487 0.378111 0.187394 0.10394
H_ H_ 0.226914 0.334477 0.439451 0.10394
H_ H_ 0.274472 0.355482 0.375547 0.10394
H_ H_ 0.397738 0.389764 0.486511 0.10394
H_ H_ 0.31038 0.394479 0.17334 0.10394
H_ H_ 0.235404 0.446962 0.202565 0.10394
H_ H_ 0.324017 0.0503641 0.268899 0.10394
H_ H_ 0.399295 0.513609 0.225246 0.10394
H_ H_ 0.0227159 0.368253 0.187771 0.10394
H_ H_ 0.0553483 0.304498 0.247075 0.10394
H_ H_ 0.418864 0.235434 0.209129 0.10394
H_ H_ 0.369369 0.319608 0.178859 0.10394
H_ H_ 0.47163 0.0578454 0.132441 0.10394
H_ H_ 0.00985293 0.124706 0.107958 0.10394
H_ H_ 0.1314 0.0104124 0.0809171 0.10394
H_ H_ 0.443464 0.119952 0.44539 0.10394
H_ H_ 0.0147013 0.186507 0.454541 0.10394
H_ H_ 0.424116 0.271958 0.0593783 0.10394
H_ H_ 0.335278 0.244406 0.474106 0.10394
H_ H_ 0.234738 0.171941 0.368153 0.10394
H_ H_ 0.201107 0.206928 0.281991 0.10394
H_ H_ 0.353942 0.229052 0.254114 0.10394
H_ H_ 0.385725 0.184704 0.337605 0.10394
H_ H_ 0.280226 0.134077 0.0632044 0.10394
H_ H_ 0.226858 0.106638 0.124185 0.10394
H_ H_ 0.106385 0.104197 0.00516955 0.10394
C_ C_ 0.171141 0.0858577 0.297586 0.18167
C_ C_ 0.217192 0.0692502 0.276853 -0.15533
C_ C_ 0.230326 0.0170573 0.269156 0.02923
C_ C_ 0.202186 0.490931 0.297941 -0.15533
C_ C_ 0.157648 0.00135324 0.313594 0.18167
C_ C_ 0.027273 0.131828 0.269852 0.18167
C_ C_ 0.512742 0.175648 0.235072 -0.15533
C_ C_ 0.00587265 0.222642 0.272859 0.02923
C_ C_ 0.0275721 0.225184 0.322697 -0.15533
C_ C_ 0.0537373 0.181295 0.343892 0.18167
C_ C_ 0.00320896 0.0419568 0.371137 0.69207
C_ C_ 0.471644 0.501538 0.375761 0.02923
C_ C_ 0.49406 0.449845 0.378716 -0.15533
C_ C_ 0.466807 0.41285 0.39351 -0.15533
C_ C_ 0.413074 0.4217 0.393262 0.02923
C_ C_ 0.392362 0.47289 0.399646 -0.15533
C_ C_ 0.4208 0.51239 0.390097 0.02923
C_ C_ 0.389965 0.0635412 0.373334 0.69207
C_ C_ 0.399074 0.327805 0.375093 0.69661
C_ C_ 0.0763732 0.292015 0.0890896 0.18167
C_ C_ 0.0256075 0.287629 0.0709372 -0.15533
C_ C_ 0.0129973 0.280667 0.0184458 0.02923
C_ C_ 0.040329 0.283228 0.494849 -0.15533
C_ C_ 0.0977471 0.305398 0.00818976 0.18167
C_ C_ 0.225545 0.26385 0.130083 0.18167
C_ C_ 0.24895 0.235086 0.168787 -0.15533
C_ C_ 0.254346 0.258821 0.219098 0.02923
C_ C_ 0.234601 0.311185 0.222876 -0.15533
C_ C_ 0.210571 0.338368 0.181832 0.18167
C_ C_ 0.245628 0.363041 0.0443227 0.69207
C_ C_ 0.279986 0.355914 0.502628 0.02923
C_ C_ 0.262487 0.348882 0.45029 -0.15533
C_ C_ 0.289711 0.367631 0.41405 -0.15533
C_ C_ 0.338934 0.38087 0.423887 0.02923
C_ C_ 0.357518 0.387783 0.475598 -0.15533
C_ C_ 0.3297 0.375179 0.515858 0.02923
C_ C_ 0.351944 0.391833 0.0708819 0.69207
C_ C_ 0.351926 0.392205 0.326175 0.69661
C_ C_ 0.313564 0.433608 0.188134 0.18167
C_ C_ 0.271383 0.460227 0.209721 -0.15533
C_ C_ 0.277858 0.501917 0.244879 0.02923
C_ C_ 0.321367 0.0142062 0.249266 -0.15533
C_ C_ 0.363054 0.498792 0.221453 0.18167
C_ C_ 0.481473 0.359948 0.217278 0.18167
C_ C_ 0.0155142 0.309585 0.240328 -0.15533
C_ C_ 0.485667 0.272329 0.236786 0.02923
C_ C_ 0.436105 0.272376 0.213228 -0.15533
C_ C_ 0.408463 0.316714 0.193313 0.18167
C_ C_ 0.489366 0.448473 0.131995 0.69207
C_ C_ 0.0118086 0.995261 0.110035 0.02923
C_ C_ -0.008283999999999958 0.0475087 0.108514 -0.15533
C_ C_ 0.027171 0.086369 0.111194 -0.15533
C_ C_ 0.0771105 0.072915 0.0991159 0.02923
C_ C_ 0.091767 0.021875 0.088514 -0.15533
C_ C_ 0.0612359 0.983176 0.094895 0.02923
C_ C_ 0.105345 0.42081 0.107078 0.69207
C_ C_ 0.0995405 0.165585 0.114582 0.69661
C_ C_ 0.435636 0.15912 0.453391 0.18167
C_ C_ 0.476842 0.186722 0.474035 -0.15533
C_ C_ 0.468721 0.23428 0.49993 0.02923
C_ C_ 0.431024 0.246476 0.0244317 -0.15533
C_ C_ 0.376052 0.228685 0.477022 0.18167
C_ C_ 0.259001 0.186443 0.341858 0.18167
C_ C_ 0.239528 0.207656 0.294484 -0.15533
C_ C_ 0.273502 0.227812 0.265105 0.02923
C_ C_ 0.324697 0.219981 0.280069 -0.15533
C_ C_ 0.344495 0.191336 0.32481 0.18167
C_ C_ 0.264598 0.11184 0.450625 0.69207
C_ C_ 0.228671 0.123856 0.996178 0.02923
C_ C_ 0.245285 0.118342 0.0480522 -0.15533
C_ C_ 0.21156 0.111213 0.0842608 -0.15533
C_ C_ 0.158791 0.105527 0.0693219 0.02923
C_ C_ 0.142857 0.114078 0.0185463 -0.15533
C_ C_ 0.178144 0.117028 0.980837 0.02923
C_ C_ 0.154771 0.102846 0.420827 0.69207
C_ C_ 0.143717 0.0995806 0.16267 0.69661
C_ C_ 0.374693 0.382093 0.38064 -0.30787
C_ C_ 0.118395 0.109708 0.10841 -0.30787
N_ N_ 0.142091 0.0517756 0.313552 -0.32189
N_ N_ 0.0555764 0.137415 0.315988 -0.32189
N_ N_ 0.108066 0.307866 0.0589557 -0.32189
N_ N_ 0.201761 0.311896 0.137818 -0.32189
N_ N_ 0.358872 0.45203 0.194779 -0.32189
N_ N_ 0.43337 0.357882 0.191851 -0.32189
N_ N_ 0.385654 0.181239 0.453019 -0.32189
N_ N_ 0.311166 0.176859 0.353654 -0.32189
O_ O_ 0.498507 0.0833665 0.385834 -0.63271
O_ O_ 0.0435775 0.0302893 0.343999 -0.57982
O_ O_ 0.395223 0.0944676 0.337796 -0.63271
O_ O_ 0.362012 0.0791152 0.409795 -0.57982
O_ O_ 0.248713 0.385935 0.0908519 -0.63271
O_ O_ 0.205523 0.337928 0.0313052 -0.57982
O_ O_ 0.353549 0.350498 0.0955033 -0.63271
O_ O_ 0.375796 0.428187 0.0934813 -0.57982
O_ O_ 0.994344 0.403609 0.0988987 -0.63271
O_ O_ 0.456361 0.462771 0.163822 -0.57982
O_ O_ 0.101642 0.390743 0.144735 -0.63271
O_ O_ 0.141198 0.409459 0.0782815 -0.57982
O_ O_ 0.259965 0.0863771 0.406474 -0.63271
O_ O_ 0.284432 0.155004 0.451433 -0.57982
O_ O_ 0.157814 0.144679 0.396312 -0.63271
O_ O_ 0.114546 0.0787461 0.408865 -0.57982
F_ F_ 0.425151 0.315365 0.422473 -0.20885
F_ F_ 0.431947 0.322154 0.335486 -0.20885
F_ F_ 0.365065 0.292488 0.366236 -0.20885
F_ F_ 0.315584 0.434027 0.330485 -0.20885
F_ F_ 0.327076 0.354284 0.30033 -0.20885
F_ F_ 0.385111 0.405398 0.29402 -0.20885
F_ F_ 0.0718848 0.179102 0.0690602 -0.20885
F_ F_ 0.0679929 0.176015 0.155831 -0.20885
F_ F_ 0.13605 0.198971 0.122052 -0.20885
F_ F_ 0.178212 0.0559642 0.16325 -0.20885
F_ F_ 0.174945 0.13762 0.185856 -0.20885
F_ F_ 0.107259 0.093788 0.19582 -0.20885
Zn Zn 0.0948451 0.0851321 0.853176 0.83971
Zn Zn 0.157742 0.34287 0.578054 0.83971
Zn Zn 0.409596 0.417405 0.655348 0.83971
Zn Zn 0.344867 0.158844 0.919913 0.83971
H_ H_ 0.17308 0.139296 0.811531 0.10394
H_ H_ 0.243521 0.105854 0.762821 0.10394
H_ H_ 0.213458 0.445765 0.799948 0.10394
H_ H_ 0.129609 0.991037 0.815147 0.10394
H_ H_ 0.521892 0.100849 0.751817 0.10394
H_ H_ 0.48926 0.179346 0.702326 0.10394
H_ H_ 0.0280159 0.267891 0.845803 0.10394
H_ H_ 0.0692786 0.197097 0.887476 0.10394
H_ H_ 0.0390257 0.458389 0.907636 0.10394
H_ H_ 0.491299 0.389408 0.90078 0.10394
H_ H_ 0.357105 0.49188 0.917882 0.10394
H_ H_ 0.0783148 0.305045 0.636373 0.10394
H_ H_ 0.505788 0.262396 0.601014 0.10394
H_ H_ 0.0394716 0.291387 0.944577 0.10394
H_ H_ 0.11056 0.306442 0.481718 0.10394
H_ H_ 0.212789 0.245331 0.584601 0.10394
H_ H_ 0.260849 0.195489 0.663599 0.10394
H_ H_ 0.216565 0.326609 0.761186 0.10394
H_ H_ 0.185084 0.373423 0.687786 0.10394
H_ H_ 0.22575 0.35486 0.941056 0.10394
H_ H_ 0.282276 0.366409 0.87691 0.10394
H_ H_ 0.402692 0.399228 0.987743 0.10394
H_ H_ 0.306165 0.39505 0.658644 0.10394
H_ H_ 0.229903 0.440568 0.697904 0.10394
H_ H_ 0.333958 0.0346001 0.787542 0.10394
H_ H_ 0.394241 0.512084 0.716383 0.10394
H_ H_ 0.0220602 0.372663 0.682276 0.10394
H_ H_ 0.0624523 0.298328 0.736174 0.10394
H_ H_ 0.401067 0.264884 0.743688 0.10394
H_ H_ 0.368577 0.33122 0.687138 0.10394
H_ H_ 0.455708 0.0473116 0.620669 0.10394
H_ H_ 0.0138619 0.116369 0.626138 0.10394
H_ H_ 0.142435 0.0117532 0.585893 0.10394
H_ H_ 0.441784 0.172477 0.897417 0.10394
H_ H_ 0.0155612 0.199927 0.95025 0.10394
H_ H_ 0.409754 0.295052 0.517349 0.10394
H_ H_ 0.355824 0.215089 0.0203344 0.10394
H_ H_ 0.235278 0.199345 0.882595 0.10394
H_ H_ 0.192396 0.223406 0.798292 0.10394
H_ H_ 0.33435 0.214146 0.739731 0.10394
H_ H_ 0.382366 0.178081 0.8119 0.10394
H_ H_ 0.289195 0.0872465 0.554664 0.10394
H_ H_ 0.231666 0.0857175 0.617289 0.10394
H_ H_ 0.10575 0.0966223 0.500621 0.10394
C_ C_ 0.17784 0.0984319 0.798993 0.18167
C_ C_ 0.223308 0.0794619 0.778505 -0.15533
C_ C_ 0.235135 0.0251336 0.770713 0.02923
C_ C_ 0.200423 0.487879 0.79753 -0.15533
C_ C_ 0.150499 0.0161919 0.796753 0.18167
C_ C_ 0.0377578 0.137035 0.774449 0.18167
C_ C_ 0.506326 0.18199 0.740422 -0.15533
C_ C_ 0.00933725 0.227477 0.774605 0.02923
C_ C_ 0.0248299 0.232221 0.825548 -0.15533
C_ C_ 0.0507816 0.188075 0.850722 0.18167
C_ C_ 0.0126943 0.0488268 0.876498 0.69207
C_ C_ 0.473674 0.515203 0.880936 0.02923
C_ C_ 0.496381 0.464599 0.882179 -0.15533
C_ C_ 0.470088 0.425469 0.893587 -0.15533
C_ C_ 0.41789 0.432578 0.9022 0.02923
C_ C_ 0.395062 0.485293 0.903897 -0.15533
C_ C_ 0.423111 0.526497 0.896501 0.02923
C_ C_ 0.395436 0.0752268 0.888028 0.69207
C_ C_ 0.408042 0.333863 0.884624 0.69661
C_ C_ 0.0709498 0.295226 0.597258 0.18167
C_ C_ 0.0236429 0.277564 0.580648 -0.15533
C_ C_ 0.0127817 0.265833 0.52918 0.02923
C_ C_ 0.0482957 0.29618 0.985664 -0.15533
C_ C_ 0.0859317 0.301052 0.510454 0.18167
C_ C_ 0.214834 0.260785 0.625807 0.18167
C_ C_ 0.238593 0.232096 0.668653 -0.15533
C_ C_ 0.233942 0.253686 0.718331 0.02923
C_ C_ 0.215999 0.304445 0.724065 -0.15533
C_ C_ 0.192768 0.33062 0.683565 0.18167
C_ C_ 0.244966 0.354594 0.542472 0.69207
C_ C_ 0.279586 0.375732 0.00483532 0.02923
C_ C_ 0.262197 0.371575 0.952894 -0.15533
C_ C_ 0.295199 0.376396 0.915103 -0.15533
C_ C_ 0.342431 0.392919 0.925924 0.02923
C_ C_ 0.36304 0.396142 0.978801 -0.15533
C_ C_ 0.329804 0.395324 0.0171788 0.02923
C_ C_ 0.355905 0.373357 0.569527 0.69207
C_ C_ 0.355719 0.398801 0.827693 0.69661
C_ C_ 0.309911 0.427142 0.687529 0.18167
C_ C_ 0.26734 0.451434 0.708639 -0.15533
C_ C_ 0.272379 0.494833 0.742617 0.02923
C_ C_ 0.326407 0.0161122 0.752325 -0.15533
C_ C_ 0.359514 0.493364 0.718586 0.18167
C_ C_ 0.491247 0.353485 0.699817 0.18167
C_ C_ 0.021193 0.30514 0.727292 -0.15533
C_ C_ 0.480876 0.277822 0.741481 0.02923
C_ C_ 0.427935 0.287939 0.729525 -0.15533
C_ C_ 0.408352 0.327523 0.699562 0.18167
C_ C_ 0.484157 0.454894 0.62026 0.69207
C_ C_ 0.0217761 0.99117 0.612915 0.02923
C_ C_ 0.00118509 0.0415173 0.609495 -0.15533
C_ C_ 0.0322401 0.0807478 0.611947 -0.15533
C_ C_ 0.0813921 0.0701421 0.596389 0.02923
C_ C_ 0.100905 0.0187108 0.589686 -0.15533
C_ C_ 0.0731745 0.980092 0.602034 0.02923
C_ C_ 0.102615 0.425057 0.608352 0.69207
C_ C_ 0.0977235 0.162871 0.596734 0.69661
C_ C_ 0.438481 0.193404 0.932501 0.18167
C_ C_ 0.480198 0.215055 0.955078 -0.15533
C_ C_ 0.47924 0.240619 1.00423799 0.02923
C_ C_ 0.418066 0.254857 0.503269 -0.15533
C_ C_ 0.391653 0.218327 1.00324174 0.18167
C_ C_ 0.25891 0.205596 0.851537 0.18167
C_ C_ 0.232188 0.222983 0.806861 -0.15533
C_ C_ 0.259559 0.227124 0.763935 0.02923
C_ C_ 0.313419 0.21341 0.771578 -0.15533
C_ C_ 0.339742 0.190773 0.812382 0.18167
C_ C_ 0.268451 0.128597 0.961409 0.69207
C_ C_ 0.230152 0.102962 0.489854 0.02923
C_ C_ 0.250384 0.0994212 0.5434 -0.15533
C_ C_ 0.216853 0.097117 0.580842 -0.15533
C_ C_ 0.164334 0.0990935 0.56656 0.02923
C_ C_ 0.145742 0.0968232 0.513381 -0.15533
C_ C_ 0.178496 0.0983978 0.475709 0.02923
C_ C_ 0.161679 0.112903 0.926083 0.69207
C_ C_ 0.144838 0.10617 0.660569 0.69661
C_ C_ 0.38195 0.389057 0.885111 -0.30787
C_ C_ 0.123131 0.106738 0.605114 -0.30787
N_ N_ 0.144184 0.0670216 0.807789 -0.32189
N_ N_ 0.061492 0.144423 0.823659 -0.32189
N_ N_ 0.101398 0.306258 0.560864 -0.32189
N_ N_ 0.191428 0.30893 0.634912 -0.32189
N_ N_ 0.357177 0.445705 0.69699 -0.32189
N_ N_ 0.440882 0.361382 0.687825 -0.32189
N_ N_ 0.394536 0.199331 0.954583 -0.32189
N_ N_ 0.310844 0.186802 0.853862 -0.32189
O_ O_ 0.506548 0.089436 0.88659 -0.63271
O_ O_ 0.0497757 0.0390359 0.845807 -0.57982
O_ O_ 0.392109 0.103339 0.850625 -0.63271
O_ O_ 0.376381 0.0959252 0.930726 -0.57982
O_ O_ 0.25116 0.38061 0.583881 -0.63271
O_ O_ 0.203357 0.33231 0.532651 -0.57982
O_ O_ 0.365318 0.330133 0.595147 -0.63271
O_ O_ 0.371765 0.415142 0.592234 -0.57982
O_ O_ 0.988933 0.411231 0.594031 -0.63271
O_ O_ 0.453076 0.463109 0.654768 -0.57982
O_ O_ 0.102686 0.403765 0.652515 -0.63271
O_ O_ 0.137286 0.40806 0.578487 -0.57982
O_ O_ 0.26367 0.10593 0.915031 -0.63271
O_ O_ 0.298802 0.164371 0.970743 -0.57982
O_ O_ 0.155712 0.155508 0.902327 -0.63271
O_ O_ 0.136335 0.0756503 0.909321 -0.57982
F_ F_ 0.437163 0.320442 0.929945 -0.20885
F_ F_ 0.442782 0.322717 0.847783 -0.20885
F_ F_ 0.372963 0.29856 0.877124 -0.20885
F_ F_ 0.321698 0.443158 0.827933 -0.20885
F_ F_ 0.331529 0.357265 0.801355 -0.20885
F_ F_ 0.39322 0.407264 0.798575 -0.20885
F_ F_ 0.0620393 0.166364 0.556151 -0.20885
F_ F_ 0.0746691 0.18376 0.63891 -0.20885
F_ F_ 0.130578 0.19788 0.586547 -0.20885
F_ F_ 0.166774 0.0583651 0.675492 -0.20885
F_ F_ 0.182357 0.140091 0.67458 -0.20885
F_ F_ 0.1079 0.118389 0.695536 -0.20885
Zn Zn 0.0877031 0.588147 0.347621 0.83971
Zn Zn 0.156579 0.854055 0.0804173 0.83971
Zn Zn 0.415216 0.916941 0.161868 0.83971
Zn Zn 0.343439 0.655487 0.408785 0.83971
H_ H_ 0.158966 0.636172 0.292932 0.10394
H_ H_ 0.242052 0.60436 0.271758 0.10394
H_ H_ 0.214113 0.942396 0.288972 0.10394
H_ H_ 0.137454 0.49124 0.342031 0.10394
H_ H_ 0.525025 0.592166 0.260528 0.10394
H_ H_ 0.488233 0.668572 0.209271 0.10394
H_ H_ 0.0399512 0.774386 0.34325 0.10394
H_ H_ 0.0723911 0.697267 0.387214 0.10394
H_ H_ 0.0306736 0.941732 0.381578 0.10394
H_ H_ 0.479435 0.873952 0.371455 0.10394
H_ H_ 0.350217 0.983105 0.394159 0.10394
H_ H_ 0.0797875 0.807689 0.12595 0.10394
H_ H_ 0.505019 0.77536 0.100998 0.10394
H_ H_ 0.037561 0.783365 0.450597 0.10394
H_ H_ 0.1146 0.8267 0.979209 0.10394
H_ H_ 0.207518 0.75738 0.0908704 0.10394
H_ H_ 0.254292 0.704735 0.162862 0.10394
H_ H_ 0.218808 0.836474 0.262631 0.10394
H_ H_ 0.172504 0.88378 0.193294 0.10394
H_ H_ 0.212578 0.867198 0.440772 0.10394
H_ H_ 0.267176 0.875742 0.367065 0.10394
H_ H_ 0.396478 0.888809 0.478694 0.10394
H_ H_ 0.311776 0.892371 0.165309 0.10394
H_ H_ 0.228967 0.939895 0.197241 0.10394
H_ H_ 0.324371 0.56105 0.266547 0.10394
H_ H_ 0.400616 0.00592967 0.231085 0.10394
H_ H_ 0.0194684 0.88855 0.190151 0.10394
H_ H_ 0.0596253 0.816173 0.239615 0.10394
H_ H_ 0.410346 0.748625 0.230029 0.10394
H_ H_ 0.372227 0.821103 0.183009 0.10394
H_ H_ 0.456541 0.539238 0.0975938 0.10394
H_ H_ 0.0169276 0.61315 0.0999666 0.10394
H_ H_ 0.149185 0.507542 0.0959349 0.10394
H_ H_ 0.4387 0.660488 0.388885 0.10394
H_ H_ 0.0176733 0.692374 0.45134 0.10394
H_ H_ 0.413341 0.800596 0.0422599 0.10394
H_ H_ 0.343611 0.743803 0.488205 0.10394
H_ H_ 0.246222 0.713532 0.386686 0.10394
H_ H_ 0.200926 0.76684 0.314001 0.10394
H_ H_ 0.332443 0.710745 0.23264 0.10394
H_ H_ 0.368812 0.664295 0.307531 0.10394
H_ H_ 0.274287 0.654263 0.0615906 0.10394
H_ H_ 0.226589 0.630873 0.123352 0.10394
H_ H_ 0.114299 0.573522 0.00588811 0.10394
C_ C_ 0.170865 0.594559 0.295395 0.18167
C_ C_ 0.218829 0.576565 0.282216 -0.15533
C_ C_ 0.234313 0.522771 0.278076 0.02923
C_ C_ 0.201257 0.98276 0.290928 -0.15533
C_ C_ 0.157259 0.51249 0.318589 0.18167
C_ C_ 0.0307129 0.643795 0.272356 0.18167
C_ C_ 0.501865 0.67331 0.24744 -0.15533
C_ C_ 0.012606 0.735944 0.272808 0.02923
C_ C_ 0.0395063 0.737976 0.321377 -0.15533
C_ C_ 0.0625933 0.694706 0.346482 0.18167
C_ C_ 0.00916246 0.552518 0.367119 0.69207
C_ C_ 0.464933 0.00244207 0.36163 0.02923
C_ C_ 0.48635 0.950108 0.36248 -0.15533
C_ C_ 0.45815 0.910283 0.369597 -0.15533
C_ C_ 0.407763 0.9196 0.379994 0.02923
C_ C_ 0.387274 0.972378 0.379981 -0.15533
C_ C_ 0.412935 0.0116584 0.367284 0.02923
C_ C_ 0.394394 0.564178 0.382208 0.69207
C_ C_ 0.39917 0.82337 0.376032 0.69661
C_ C_ 0.0719735 0.798797 0.0869033 0.18167
C_ C_ 0.0241629 0.778552 0.0677287 -0.15533
C_ C_ 0.0102524 0.775032 0.0159081 0.02923
C_ C_ 0.0462221 0.789491 0.491078 -0.15533
C_ C_ 0.0895225 0.813213 0.00395943 0.18167
C_ C_ 0.212087 0.773406 0.128903 0.18167
C_ C_ 0.236035 0.742328 0.169416 -0.15533
C_ C_ 0.235048 0.765141 0.219369 0.02923
C_ C_ 0.212199 0.815004 0.227691 -0.15533
C_ C_ 0.184469 0.840999 0.186106 0.18167
C_ C_ 0.237704 0.884492 0.048726 0.69207
C_ C_ 0.275549 0.874967 0.49664 0.02923
C_ C_ 0.253197 0.874501 0.4464 -0.15533
C_ C_ 0.28486 0.879915 0.406208 -0.15533
C_ C_ 0.336608 0.887134 0.417822 0.02923
C_ C_ 0.357634 0.88595 0.469469 -0.15533
C_ C_ 0.328087 0.879861 0.50915 0.02923
C_ C_ 0.352318 0.889438 0.0739522 0.69207
C_ C_ 0.346458 0.879349 0.319038 0.69661
C_ C_ 0.312152 0.929158 0.183153 0.18167
C_ C_ 0.267222 0.953268 0.20391 -0.15533
C_ C_ 0.273208 0.997426 0.239005 0.02923
C_ C_ 0.324973 0.521478 0.250964 -0.15533
C_ C_ 0.363647 0.987902 0.228495 0.18167
C_ C_ 0.493028 0.85298 0.210885 0.18167
C_ C_ 0.0170231 0.819336 0.231474 -0.15533
C_ C_ 0.487378 0.770426 0.239398 0.02923
C_ C_ 0.43534 0.773717 0.218248 -0.15533
C_ C_ 0.414102 0.818739 0.194363 0.18167
C_ C_ 0.491716 0.957675 0.129001 0.69207
C_ C_ 0.0296466 0.485016 0.119491 0.02923
C_ C_ 0.00730325 0.537707 0.118126 -0.15533
C_ C_ 0.0354594 0.575319 0.105618 -0.15533
C_ C_ 0.0878023 0.566115 0.100442 0.02923
C_ C_ 0.10818 0.514355 0.0983304 -0.15533
C_ C_ 0.082015 0.473466 0.10847 0.02923
C_ C_ 0.0880554 0.932971 0.101264 0.69207
C_ C_ 0.0972848 0.665323 0.104383 0.69661
C_ C_ 0.435453 0.681628 0.424452 0.18167
C_ C_ 0.477728 0.697438 0.455246 -0.15533
C_ C_ 0.471617 0.736161 0.49511 0.02923
C_ C_ 0.421137 0.765185 0.0187915 -0.15533
C_ C_ 0.382306 0.730531 0.478591 0.18167
C_ C_ 0.26201 0.712906 0.350278 0.18167
C_ C_ 0.238938 0.742263 0.311079 -0.15533
C_ C_ 0.260704 0.737161 0.264335 0.02923
C_ C_ 0.308768 0.708818 0.263283 -0.15533
C_ C_ 0.332632 0.687388 0.306366 0.18167
C_ C_ 0.271805 0.618356 0.452708 0.69207
C_ C_ 0.221287 0.632778 0.996477 0.02923
C_ C_ 0.237247 0.641664 0.0495935 -0.15533
C_ C_ 0.208697 0.625611 0.0859793 -0.15533
C_ C_ 0.16394 0.60387 0.0709136 0.02923
C_ C_ 0.148127 0.595543 0.0182119 -0.15533
C_ C_ 0.1743 0.613078 0.98087 0.02923
C_ C_ 0.161009 0.605122 0.421019 0.69207
C_ C_ 0.147224 0.605203 0.166252 0.69661
C_ C_ 0.37223 0.879352 0.374271 -0.30787
C_ C_ 0.122958 0.610237 0.109748 -0.30787
N_ N_ 0.141772 0.561838 0.312166 -0.32189
N_ N_ 0.0561713 0.647367 0.320946 -0.32189
N_ N_ 0.103368 0.815099 0.0546803 -0.32189
N_ N_ 0.185582 0.819959 0.137823 -0.32189
N_ N_ 0.357021 0.945883 0.194377 -0.32189
N_ N_ 0.442819 0.857319 0.19123 -0.32189
N_ N_ 0.389824 0.6942 0.439373 -0.32189
N_ N_ 0.309023 0.690141 0.349826 -0.32189
O_ O_ 0.50079 0.5864 0.393873 -0.63271
O_ O_ 0.0463917 0.541674 0.337405 -0.57982
O_ O_ 0.390276 0.58379 0.336655 -0.63271
O_ O_ 0.374578 0.592008 0.417761 -0.57982
O_ O_ 0.240003 0.907947 0.0943497 -0.63271
O_ O_ 0.200947 0.852866 0.034599 -0.57982
O_ O_ 0.344757 0.847092 0.0947344 -0.63271
O_ O_ 0.384308 0.921287 0.0953893 -0.57982
O_ O_ 0.983053 0.91003 0.0977614 -0.63271
O_ O_ 0.460931 0.96497 0.165278 -0.57982
O_ O_ 0.0878189 0.907025 0.142408 -0.63271
O_ O_ 0.120615 0.915023 0.0700729 -0.57982
O_ O_ 0.263799 0.60281 0.405538 -0.63271
O_ O_ 0.299232 0.655916 0.457306 -0.57982
O_ O_ 0.156689 0.652169 0.405142 -0.63271
O_ O_ 0.123954 0.575858 0.405306 -0.57982
F_ F_ 0.432683 0.817635 0.417976 -0.20885
F_ F_ 0.424568 0.803395 0.334644 -0.20885
F_ F_ 0.365254 0.791692 0.384368 -0.20885
F_ F_ 0.307722 0.917558 0.313308 -0.20885
F_ F_ 0.323642 0.833484 0.30457 -0.20885
F_ F_ 0.378737 0.883573 0.281409 -0.20885
F_ F_ 0.0645856 0.664851 0.0596566 -0.20885
F_ F_ 0.0722482 0.682643 0.145757 -0.20885
F_ F_ 0.130213 0.70281 0.0971085 -0.20885
F_ F_ 0.185386 0.565224 0.17006 -0.20885
F_ F_ 0.167951 0.64885 0.184217 -0.20885
F_ F_ 0.108185 0.599708 0.195685 -0.20885
Zn Zn 0.0876505 0.587253 0.847604 0.83971
Zn Zn 0.163361 0.848472 0.58499 0.83971
Zn Zn 0.405061 0.914166 0.652118 0.83971
Zn Zn 0.339382 0.663685 0.924098 0.83971
H_ H_ 0.159823 0.63295 0.794156 0.10394
H_ H_ 0.23563 0.594133 0.754164 0.10394
H_ H_ 0.208533 0.954308 0.783349 0.10394
H_ H_ 0.134057 0.484534 0.834691 0.10394
H_ H_ 0.527368 0.598646 0.742406 0.10394
H_ H_ 0.478377 0.667269 0.700891 0.10394
H_ H_ 0.0327533 0.771752 0.835284 0.10394
H_ H_ 0.0659375 0.693958 0.877638 0.10394
H_ H_ 0.0399647 0.946165 0.873497 0.10394
H_ H_ 0.474389 0.881193 0.860065 0.10394
H_ H_ 0.352177 0.993049 0.908925 0.10394
H_ H_ 0.0867741 0.808329 0.636195 0.10394
H_ H_ 0.50628 0.753478 0.596001 0.10394
H_ H_ 0.0313805 0.795673 0.943831 0.10394
H_ H_ 0.119134 0.815768 0.480223 0.10394
H_ H_ 0.225559 0.749563 0.601595 0.10394
H_ H_ 0.252935 0.70243 0.676732 0.10394
H_ H_ 0.220472 0.842366 0.769763 0.10394
H_ H_ 0.192727 0.885126 0.687361 0.10394
H_ H_ 0.20999 0.895195 0.952183 0.10394
H_ H_ 0.262352 0.891478 0.879683 0.10394
H_ H_ 0.395016 0.901475 0.984999 0.10394
H_ H_ 0.302609 0.907575 0.649023 0.10394
H_ H_ 0.229044 0.961686 0.686922 0.10394
H_ H_ 0.322566 0.554011 0.766908 0.10394
H_ H_ 0.405575 -0.004958000000000018 0.738625 0.10394
H_ H_ 0.0108907 0.886247 0.700136 0.10394
H_ H_ 0.049382 0.811457 0.738651 0.10394
H_ H_ 0.399138 0.760823 0.747487 0.10394
H_ H_ 0.362662 0.839481 0.702724 0.10394
H_ H_ 0.470801 0.55694 0.623454 0.10394
H_ H_ 0.0171723 0.615166 0.586182 0.10394
H_ H_ 0.143291 0.502811 0.57612 0.10394
H_ H_ 0.441331 0.663053 0.914127 0.10394
H_ H_ 0.010296 0.710611 0.93695 0.10394
H_ H_ 0.417453 0.784863 0.53288 0.10394
H_ H_ 0.34199 0.749111 0.00903868 0.10394
H_ H_ 0.230973 0.691479 0.884198 0.10394
H_ H_ 0.192679 0.743251 0.812522 0.10394
H_ H_ 0.3369 0.715397 0.747688 0.10394
H_ H_ 0.376466 0.685529 0.827271 0.10394
H_ H_ 0.286965 0.63039 0.556342 0.10394
H_ H_ 0.223736 0.631989 0.615386 0.10394
H_ H_ 0.11104 0.587122 0.501593 0.10394
C_ C_ 0.169892 0.592304 0.794314 0.18167
C_ C_ 0.213314 0.571191 0.771371 -0.15533
C_ C_ 0.23023 0.519162 0.772796 0.02923
C_ C_ 0.19699 0.993783 0.782709 -0.15533
C_ C_ 0.155696 0.509083 0.815528 0.18167
C_ C_ 0.0343467 0.637992 0.768975 0.18167
C_ C_ 0.500442 0.675582 0.738072 -0.15533
C_ C_ 0.00855988 0.730066 0.767189 0.02923
C_ C_ 0.0314616 0.73612 0.817057 -0.15533
C_ C_ 0.0564127 0.692891 0.840055 0.18167
C_ C_ 0.0103763 0.554257 0.880084 0.69207
C_ C_ 0.472293 0.00903982 0.870212 0.02923
C_ C_ 0.486012 0.958155 0.856161 -0.15533
C_ C_ 0.456602 0.919532 0.868662 -0.15533
C_ C_ 0.407953 0.930527 0.886842 0.02923
C_ C_ 0.391982 0.98128 0.896663 -0.15533
C_ C_ 0.419252 0.0201371 0.882367 0.02923
C_ C_ 0.396041 0.579451 0.892789 0.69207
C_ C_ 0.3912 0.836877 0.882843 0.69661
C_ C_ 0.0758284 0.804315 0.595185 0.18167
C_ C_ 0.0308217 0.779653 0.57835 -0.15533
C_ C_ 0.0151741 0.776623 0.525727 0.02923
C_ C_ 0.0444098 0.79141 0.983883 -0.15533
C_ C_ 0.092691 0.809614 0.509347 0.18167
C_ C_ 0.21866 0.766883 0.638428 0.18167
C_ C_ 0.240516 0.742562 0.680374 -0.15533
C_ C_ 0.241631 0.768501 0.728665 0.02923
C_ C_ 0.220228 0.820085 0.731728 -0.15533
C_ C_ 0.204375 0.843149 0.685587 0.18167
C_ C_ 0.239218 0.875971 0.538139 0.69207
C_ C_ 0.271402 0.898962 0.0102435 0.02923
C_ C_ 0.250955 0.89853 0.960306 -0.15533
C_ C_ 0.279718 0.899286 0.917975 -0.15533
C_ C_ 0.332653 0.899416 0.925409 0.02923
C_ C_ 0.354418 0.901863 0.97787 -0.15533
C_ C_ 0.326107 0.900894 0.0210815 0.02923
C_ C_ 0.351775 0.878957 0.564965 0.69207
C_ C_ 0.340542 0.895985 0.825994 0.69661
C_ C_ 0.307996 0.942711 0.673813 0.18167
C_ C_ 0.267234 0.965747 0.699744 -0.15533
C_ C_ 0.276313 1.0016889 0.739463 0.02923
C_ C_ 0.318685 0.517471 0.743633 -0.15533
C_ C_ 0.367629 0.987317 0.728915 0.18167
C_ C_ 0.48329 0.834911 0.676307 0.18167
C_ C_ 0.00867507 0.815307 0.732384 -0.15533
C_ C_ 0.47539 0.770523 0.731992 0.02923
C_ C_ 0.422926 0.783381 0.730005 -0.15533
C_ C_ 0.402674 0.825819 0.702186 0.18167
C_ C_ 0.475746 0.950798 0.609665 0.69207
C_ C_ 0.0284592 0.491084 0.616927 0.02923
C_ C_ 1.00620798 0.540938 0.607469 -0.15533
C_ C_ 0.0355746 0.578639 0.593566 -0.15533
C_ C_ 0.087888 0.566174 0.5869 0.02923
C_ C_ 0.107472 0.513852 0.585453 -0.15533
C_ C_ 0.0814754 0.478134 0.606666 0.02923
C_ C_ 0.100687 0.928417 0.606356 0.69207
C_ C_ 0.0983618 0.669605 0.599935 0.69661
C_ C_ 0.433609 0.694942 0.940055 0.18167
C_ C_ 0.475875 0.713512 0.964247 -0.15533
C_ C_ 0.469317 0.750965 0.00268949 0.02923
C_ C_ 0.424314 0.750676 0.507505 -0.15533
C_ C_ 0.380008 0.739104 0.998004 0.18167
C_ C_ 0.253931 0.702672 0.855536 0.18167
C_ C_ 0.232479 0.732624 0.814024 -0.15533
C_ C_ 0.263453 0.742817 0.77497 0.02923
C_ C_ 0.316061 0.721089 0.780125 -0.15533
C_ C_ 0.335927 0.699178 0.824607 0.18167
C_ C_ 0.259725 0.635342 0.960774 0.69207
C_ C_ 0.232225 0.617176 0.490209 0.02923
C_ C_ 0.248655 0.626158 0.542528 -0.15533
C_ C_ 0.21386 0.619131 0.577109 -0.15533
C_ C_ 0.165524 0.606347 0.563654 0.02923
C_ C_ 0.149992 0.595082 0.512561 -0.15533
C_ C_ 0.182092 0.603501 0.47469 0.02923
C_ C_ 0.148072 0.61947 0.929314 0.69207
C_ C_ 0.145381 0.599139 0.655554 0.69661
C_ C_ 0.367923 0.892973 0.882055 -0.30787
C_ C_ 0.124134 0.612012 0.59945 -0.30787
N_ N_ 0.139103 0.560115 0.812211 -0.32189
N_ N_ 0.0569042 0.645222 0.817112 -0.32189
N_ N_ 0.109028 0.812353 0.560945 -0.32189
N_ N_ 0.20108 0.816379 0.639531 -0.32189
N_ N_ 0.3576 0.95155 0.692183 -0.32189
N_ N_ 0.43253 0.849647 0.674604 -0.32189
N_ N_ 0.386642 0.706461 0.955732 -0.32189
N_ N_ 0.305052 0.691986 0.863323 -0.32189
O_ O_ 0.505241 0.599465 0.897013 -0.63271
O_ O_ 0.0419598 0.54127 0.846144 -0.57982
O_ O_ 0.384977 0.596667 0.848103 -0.63271
O_ O_ 0.378204 0.605188 0.932723 -0.57982
O_ O_ 0.244437 0.905918 0.580345 -0.63271
O_ O_ 0.199071 0.850064 0.530425 -0.57982
O_ O_ 0.341809 0.840566 0.591764 -0.63271
O_ O_ 0.368083 0.92035 0.587474 -0.57982
O_ O_ 0.991261 0.903452 0.601305 -0.63271
O_ O_ 0.459093 0.951442 0.654799 -0.57982
O_ O_ 0.0981883 0.901462 0.647405 -0.63271
O_ O_ 0.132839 0.912606 0.573622 -0.57982
O_ O_ 0.260811 0.605135 0.919536 -0.63271
O_ O_ 0.289381 0.671898 0.967264 -0.57982
O_ O_ 0.15221 0.659804 0.904909 -0.63271
O_ O_ 0.120468 0.584241 0.907958 -0.57982
F_ F_ 0.42996 0.831518 0.923815 -0.20885
F_ F_ 0.413218 0.815059 0.839351 -0.20885
F_ F_ 0.354988 0.804723 0.889713 -0.20885
F_ F_ 0.305723 0.938567 0.824079 -0.20885
F_ F_ 0.312607 0.855358 0.812216 -0.20885
F_ F_ 0.374152 0.89532 0.790706 -0.20885
F_ F_ 0.0678037 0.67301 0.554427 -0.20885
F_ F_ 0.0645801 0.680846 0.639672 -0.20885
F_ F_ 0.133563 0.707553 0.608838 -0.20885
F_ F_ 0.182483 0.55793 0.659498 -0.20885
F_ F_ 0.171648 0.63723 0.676603 -0.20885
F_ F_ 0.107446 0.598427 0.68903 -0.20885
Zn Zn 0.582828 0.0802483 0.343718 0.83971
Zn Zn 0.665344 0.347835 0.0936729 0.83971
Zn Zn 0.913128 0.412092 0.15762 0.83971
Zn Zn 0.837474 0.150787 0.425855 0.83971
H_ H_ 0.664987 0.127545 0.319704 0.10394
H_ H_ 0.75063 0.0968881 0.295399 0.10394
H_ H_ 0.719781 0.448211 0.30633 0.10394
H_ H_ 0.628646 0.975694 0.313778 0.10394
H_ H_ 0.0251559 0.0935587 0.254407 0.10394
H_ H_ 0.984659 0.169703 0.206537 0.10394
H_ H_ 0.526195 0.264698 0.337022 0.10394
H_ H_ 0.559285 0.187298 0.37808 0.10394
H_ H_ 0.535864 0.438678 0.380766 0.10394
H_ H_ 0.996375 0.386306 0.410285 0.10394
H_ H_ 0.857493 0.494041 0.413809 0.10394
H_ H_ 0.58402 0.307228 0.138722 0.10394
H_ H_ 0.999202 0.279722 0.099995 0.10394
H_ H_ 0.541092 0.264515 0.443587 0.10394
H_ H_ 0.622141 0.325089 0.991269 0.10394
H_ H_ 0.734403 0.255663 0.110666 0.10394
H_ H_ 0.766511 0.206551 0.184863 0.10394
H_ H_ 0.713757 0.334042 0.281202 0.10394
H_ H_ 0.685132 0.38147 0.205595 0.10394
H_ H_ 0.723362 0.385007 0.453605 0.10394
H_ H_ 0.779011 0.380456 0.385793 0.10394
H_ H_ 0.906192 0.397093 0.500076 0.10394
H_ H_ 0.812316 0.390995 0.164031 0.10394
H_ H_ 0.738836 0.438846 0.197139 0.10394
H_ H_ 0.836102 0.023066 0.301612 0.10394
H_ H_ 0.907713 0.500906 0.232462 0.10394
H_ H_ 0.500737 0.391679 0.220316 0.10394
H_ H_ 0.548612 0.314599 0.249166 0.10394
H_ H_ 0.908155 0.250763 0.243308 0.10394
H_ H_ 0.872106 0.326278 0.199069 0.10394
H_ H_ 0.951738 0.0558096 0.114887 0.10394
H_ H_ 0.52463 0.125624 0.117568 0.10394
H_ H_ 0.651259 0.00762547 0.103679 0.10394
H_ H_ 0.938167 0.156588 0.407079 0.10394
H_ H_ 0.51581 0.168913 0.4771 0.10394
H_ H_ 0.911855 0.2919 0.0438391 0.10394
H_ H_ 0.842284 0.231715 0.51027 0.10394
H_ H_ 0.730403 0.198387 0.397274 0.10394
H_ H_ 0.693922 0.248133 0.325363 0.10394
H_ H_ 0.837542 0.237821 0.266085 0.10394
H_ H_ 0.874141 0.188224 0.341089 0.10394
H_ H_ 0.787272 0.117736 0.0487995 0.10394
H_ H_ 0.735441 0.117111 0.11767 0.10394
H_ H_ 0.605605 0.0928106 0.012377 0.10394
C_ C_ 0.673282 0.0866588 0.308532 0.18167
C_ C_ 0.719903 0.0720391 0.290866 -0.15533
C_ C_ 0.730686 0.0200582 0.273239 0.02923
C_ C_ 0.708371 0.487504 0.300233 -0.15533
C_ C_ 0.649899 0.00359787 0.299637 0.18167
C_ C_ 0.538527 0.133995 0.258815 0.18167
C_ C_ 0.00164829 0.17589 0.24577 -0.15533
C_ C_ 0.510666 0.225967 0.261503 0.02923
C_ C_ 0.53218 0.22809 0.314296 -0.15533
C_ C_ 0.552312 0.185204 0.337657 0.18167
C_ C_ 0.499914 0.042787 0.354005 0.69207
C_ C_ 0.97395 0.511572 0.373903 0.02923
C_ C_ 0.998669 0.459321 0.379133 -0.15533
C_ C_ 0.973464 0.424125 0.400639 -0.15533
C_ C_ 0.920556 0.433158 0.40504 0.02923
C_ C_ 0.896396 0.485223 0.404962 -0.15533
C_ C_ 0.924693 0.524532 0.390498 0.02923
C_ C_ 0.890863 0.0678334 0.389273 0.69207
C_ C_ 0.917171 0.330495 0.398566 0.69661
C_ C_ 0.575534 0.302201 0.0975023 0.18167
C_ C_ 0.526567 0.289718 0.07695 -0.15533
C_ C_ 0.51721 0.27725 0.0227535 0.02923
C_ C_ 0.549079 0.271319 0.484673 -0.15533
C_ C_ 0.59761 0.311397 0.0150489 0.18167
C_ C_ 0.731728 0.272774 0.147795 0.18167
C_ C_ 0.747117 0.243767 0.189137 -0.15533
C_ C_ 0.741054 0.265336 0.238062 0.02923
C_ C_ 0.714196 0.313038 0.244379 -0.15533
C_ C_ 0.696591 0.340113 0.201136 0.18167
C_ C_ 0.742937 0.369223 0.051436 0.69207
C_ C_ 0.781982 0.371242 0.51467 0.02923
C_ C_ 0.763329 0.377957 0.462633 -0.15533
C_ C_ 0.796713 0.380764 0.424695 -0.15533
C_ C_ 0.848921 0.38866 0.439163 0.02923
C_ C_ 0.865989 0.389931 0.49035 -0.15533
C_ C_ 0.833628 0.377834 0.529758 0.02923
C_ C_ 0.853672 0.382097 0.0804968 0.69207
C_ C_ 0.866216 0.391999 0.342906 0.69661
C_ C_ 0.818828 0.421776 0.191942 0.18167
C_ C_ 0.775776 0.451358 0.20847 -0.15533
C_ C_ 0.780828 0.494039 0.244991 0.02923
C_ C_ 0.826944 0.00667648 0.264186 -0.15533
C_ C_ 0.871613 0.483446 0.233474 0.18167
C_ C_ 0.99508 0.34483 0.204136 0.18167
C_ C_ 0.510151 0.313705 0.233999 -0.15533
C_ C_ 0.984292 0.272745 0.252614 0.02923
C_ C_ 0.933058 0.280313 0.238761 -0.15533
C_ C_ 0.912408 0.324905 0.209444 0.18167
C_ C_ 0.996739 0.445935 0.129277 0.69207
C_ C_ 0.52997 0.995624 0.125497 0.02923
C_ C_ 0.510178 0.0468156 0.122451 -0.15533
C_ C_ 0.540536 0.0854364 0.117992 -0.15533
C_ C_ 0.593689 0.0729445 0.110833 0.02923
C_ C_ 0.611335 0.01908 0.109083 -0.15533
C_ C_ 0.580587 0.980939 0.116353 0.02923
C_ C_ 0.603876 0.426152 0.116657 0.69207
C_ C_ 0.609538 0.169604 0.108943 0.69661
C_ C_ 0.934725 0.176904 0.441256 0.18167
C_ C_ 0.978125 0.195918 0.467768 -0.15533
C_ C_ 0.971133 0.232794 0.509879 0.02923
C_ C_ 0.919837 0.261473 0.0145215 -0.15533
C_ C_ 0.880097 0.225402 0.494524 0.18167
C_ C_ 0.755092 0.207071 0.367829 0.18167
C_ C_ 0.734716 0.234145 0.325428 -0.15533
C_ C_ 0.760896 0.237099 0.283663 0.02923
C_ C_ 0.813808 0.221408 0.289142 -0.15533
C_ C_ 0.834645 0.198553 0.335906 0.18167
C_ C_ 0.761111 0.117468 0.45674 0.69207
C_ C_ 0.726616 0.115149 0.98862 0.02923
C_ C_ 0.749037 0.111308 0.0388577 -0.15533
C_ C_ 0.719876 0.104321 0.0812245 -0.15533
C_ C_ 0.6673 0.102364 0.0719216 0.02923
C_ C_ 0.646508 0.100527 0.0201238 -0.15533
C_ C_ 0.674472 0.107459 0.978361 0.02923
C_ C_ 0.650177 0.100524 0.424034 0.69207
C_ C_ 0.657906 0.108997 0.168479 0.69661
C_ C_ 0.889194 0.38738 0.397832 -0.30787
C_ C_ 0.631459 0.114159 0.113824 -0.30787
N_ N_ 0.637896 0.0535318 0.307997 -0.32189
N_ N_ 0.554405 0.139846 0.309653 -0.32189
N_ N_ 0.609252 0.31402 0.0662961 -0.32189
N_ N_ 0.703091 0.319016 0.153652 -0.32189
N_ N_ 0.864175 0.441974 0.199837 -0.32189
N_ N_ 0.945451 0.351815 0.188529 -0.32189
N_ N_ 0.888757 0.187727 0.459524 -0.32189
N_ N_ 0.804995 0.18605 0.368523 -0.32189
O_ O_ -0.008442999999999978 0.0886356 0.385832 -0.63271
O_ O_ 0.538868 0.0347523 0.326765 -0.57982
O_ O_ 0.885759 0.0964429 0.348741 -0.63271
O_ O_ 0.865124 0.0832611 0.427034 -0.57982
O_ O_ 0.745392 0.397224 0.0935673 -0.63271
O_ O_ 0.707428 0.339021 0.0436853 -0.57982
O_ O_ 0.861219 0.338453 0.101404 -0.63271
O_ O_ 0.883933 0.416248 0.0944801 -0.57982
O_ O_ 0.487475 0.403602 0.110042 -0.63271
O_ O_ 0.964053 0.453988 0.164027 -0.57982
O_ O_ 0.603687 0.402903 0.157928 -0.63271
O_ O_ 0.638899 0.411158 0.0854802 -0.57982
O_ O_ 0.758198 0.0994462 0.410396 -0.63271
O_ O_ 0.792932 0.148775 0.470759 -0.57982
O_ O_ 0.644894 0.147763 0.406757 -0.63271
O_ O_ 0.613011 0.0734639 0.407504 -0.57982
F_ F_ 0.945426 0.3288 0.444771 -0.20885
F_ F_ 0.944815 0.317273 0.357065 -0.20885
F_ F_ 0.884255 0.294825 0.400518 -0.20885
F_ F_ 0.826528 0.427083 0.336175 -0.20885
F_ F_ 0.849682 0.34682 0.320944 -0.20885
F_ F_ 0.902954 0.404047 0.312086 -0.20885
F_ F_ 0.57554 0.175641 0.0674775 -0.20885
F_ F_ 0.582399 0.188497 0.151887 -0.20885
F_ F_ 0.647947 0.202101 0.106173 -0.20885
F_ F_ 0.686621 0.0621485 0.173527 -0.20885
F_ F_ 0.689065 0.146867 0.18263 -0.20885
F_ F_ 0.623485 0.114177 0.203171 -0.20885
Zn Zn 0.587344 0.0870371 0.843013 0.83971
Zn Zn 0.660629 0.336536 0.582039 0.83971
Zn Zn 0.915966 0.416068 0.662766 0.83971
Zn Zn 0.841254 0.15479 0.917374 0.83971
H_ H_ 0.659389 0.138233 0.79029 0.10394
H_ H_ 0.738369 0.1032 0.750211 0.10394
H_ H_ 0.71571 0.453884 0.791557 0.10394
H_ H_ 0.646816 0.991323 0.842331 0.10394
H_ H_ 0.045404 0.101536 0.75644 0.10394
H_ H_ 0.99612 0.17424 0.710428 0.10394
H_ H_ 0.534218 0.274813 0.83389 0.10394
H_ H_ 0.58539 0.199925 0.865866 0.10394
H_ H_ 0.536714 0.455323 0.88499 0.10394
H_ H_ 0.985354 0.386388 0.898163 0.10394
H_ H_ 0.853502 0.496559 0.91 0.10394
H_ H_ 0.576563 0.304253 0.632251 0.10394
H_ H_ 0.00444074 0.261904 0.608358 0.10394
H_ H_ 0.548247 0.284176 0.951156 0.10394
H_ H_ 0.615507 0.309075 0.480036 0.10394
H_ H_ 0.722733 0.237914 0.595916 0.10394
H_ H_ 0.757572 0.188424 0.667792 0.10394
H_ H_ 0.723118 0.329454 0.764769 0.10394
H_ H_ 0.680498 0.370112 0.687665 0.10394
H_ H_ 0.726452 0.351464 0.949926 0.10394
H_ H_ 0.774807 0.372233 0.884057 0.10394
H_ H_ 0.899445 0.39636 0.995845 0.10394
H_ H_ 0.807913 0.397115 0.665723 0.10394
H_ H_ 0.735819 0.445786 0.69965 0.10394
H_ H_ 0.830121 0.0529501 0.775323 0.10394
H_ H_ 0.910509 0.495993 0.742328 0.10394
H_ H_ 0.517067 0.374144 0.682589 0.10394
H_ H_ 0.556148 0.302007 0.726034 0.10394
H_ H_ 0.911456 0.25794 0.743858 0.10394
H_ H_ 0.875312 0.3394 0.705483 0.10394
H_ H_ 0.960857 0.0508016 0.608805 0.10394
H_ H_ 0.510935 0.118486 0.613705 0.10394
H_ H_ 0.63249 0.00444226 0.577188 0.10394
H_ H_ 0.942154 0.165181 0.905056 0.10394
H_ H_ 0.518869 0.206935 0.940573 0.10394
H_ H_ 0.915445 0.274888 0.553825 0.10394
H_ H_ 0.840354 0.24946 -0.002593999999999985 0.10394
H_ H_ 0.736567 0.20494 0.887229 0.10394
H_ H_ 0.697536 0.238192 0.809826 0.10394
H_ H_ 0.838542 0.222661 0.748955 0.10394
H_ H_ 0.880436 0.181488 0.825127 0.10394
H_ H_ 0.783567 0.0855917 0.556665 0.10394
H_ H_ 0.728598 0.107316 0.618808 0.10394
H_ H_ 0.60093 0.0924279 0.506463 0.10394
C_ C_ 0.673741 0.0986399 0.791768 0.18167
C_ C_ 0.719441 0.0794569 0.770784 -0.15533
C_ C_ 0.737233 0.0271962 0.773158 0.02923
C_ C_ 0.709453 0.494464 0.797305 -0.15533
C_ C_ 0.662911 0.0145914 0.81616 0.18167
C_ C_ 0.524235 0.140358 0.768999 0.18167
C_ C_ 0.0111029 0.17825 0.747867 -0.15533
C_ C_ 0.505178 0.230389 0.765109 0.02923
C_ C_ 0.529854 0.235797 0.815802 -0.15533
C_ C_ 0.556812 0.193798 0.837945 0.18167
C_ C_ 0.505065 0.0473904 0.859494 0.69207
C_ C_ 0.977776 0.514611 0.892722 0.02923
C_ C_ 0.999034 0.467182 0.909011 -0.15533
C_ C_ 0.968986 0.426548 0.907819 -0.15533
C_ C_ 0.914522 0.436376 0.905212 0.02923
C_ C_ 0.893147 0.486803 0.901618 -0.15533
C_ C_ 0.92267 0.525807 0.887944 0.02923
C_ C_ 0.901093 0.0692718 0.887775 0.69207
C_ C_ 0.90742 0.336431 0.888491 0.69661
C_ C_ 0.567628 0.297227 0.590092 0.18167
C_ C_ 0.526501 0.273396 0.571727 -0.15533
C_ C_ 0.514937 0.262304 0.520451 0.02923
C_ C_ 0.553486 0.292022 0.99064 -0.15533
C_ C_ 0.592436 0.292982 0.504104 0.18167
C_ C_ 0.719283 0.256517 0.633004 0.18167
C_ C_ 0.741662 0.228494 0.674551 -0.15533
C_ C_ 0.739167 0.254124 0.722262 0.02923
C_ C_ 0.71947 0.307755 0.727439 -0.15533
C_ C_ 0.69888 0.33099 0.683515 0.18167
C_ C_ 0.74647 0.361482 0.55169 0.69207
C_ C_ 0.780487 0.370096 1.0134912 0.02923
C_ C_ 0.764097 0.364955 0.96142 -0.15533
C_ C_ 0.792614 0.379524 0.923349 -0.15533
C_ C_ 0.842724 0.394553 0.933851 0.02923
C_ C_ 0.861462 0.392283 0.987652 -0.15533
C_ C_ 0.831091 0.384409 0.027734 0.02923
C_ C_ 0.854225 0.379773 0.581518 0.69207
C_ C_ 0.858066 0.400626 0.837036 0.69661
C_ C_ 0.814918 0.432181 0.688816 0.18167
C_ C_ 0.772197 0.461271 0.707858 -0.15533
C_ C_ 0.781269 0.502883 0.743227 0.02923
C_ C_ 0.826553 0.0163348 0.754414 -0.15533
C_ C_ 0.872126 0.491493 0.725275 0.18167
C_ C_ 0.99804 0.345798 0.696244 0.18167
C_ C_ 0.5125 0.310275 0.722655 -0.15533
C_ C_ 0.988304 0.273824 0.745975 0.02923
C_ C_ 0.935256 0.284555 0.735788 -0.15533
C_ C_ 0.91567 0.328811 0.712817 0.18167
C_ C_ 0.992657 0.452862 0.62475 0.69207
C_ C_ 0.510923 0.988005 0.5989 0.02923
C_ C_ 0.492607 0.0401381 0.606375 -0.15533
C_ C_ 0.5258 0.0774471 0.610154 -0.15533
C_ C_ 0.577153 0.0656021 0.595657 0.02923
C_ C_ 0.591966 0.0144131 0.583108 -0.15533
C_ C_ 0.562218 0.974465 0.587055 0.02923
C_ C_ 0.595513 0.417687 0.605274 0.69207
C_ C_ 0.593108 0.159517 0.600767 0.69661
C_ C_ 0.936573 0.190231 0.937367 0.18167
C_ C_ 0.977991 0.212098 0.960114 -0.15533
C_ C_ 0.969816 0.250065 -0.0034399999999999986 0.02923
C_ C_ 0.920203 0.248281 0.522228 -0.15533
C_ C_ 0.879942 0.234797 0.992485 0.18167
C_ C_ 0.758899 0.205926 0.85572 0.18167
C_ C_ 0.734957 0.222723 0.809467 -0.15533
C_ C_ 0.763267 0.228825 0.768429 0.02923
C_ C_ 0.815428 0.216341 0.777076 -0.15533
C_ C_ 0.84004 0.196011 0.823091 0.18167
C_ C_ 0.761866 0.125562 0.950377 0.69207
C_ C_ 0.727606 0.0980788 0.493186 0.02923
C_ C_ 0.74486 0.0955759 0.543855 -0.15533
C_ C_ 0.710745 0.102276 0.580821 -0.15533
C_ C_ 0.65844 0.099233 0.568943 0.02923
C_ C_ 0.641003 0.0936492 0.515832 -0.15533
C_ C_ 0.674301 0.0957359 0.478047 0.02923
C_ C_ 0.650321 0.109428 0.924563 0.69207
C_ C_ 0.6399 0.0994357 0.662468 0.69661
C_ C_ 0.878756 0.393278 0.894307 -0.30787
C_ C_ 0.616851 0.104378 0.60624 -0.30787
N_ N_ 0.647005 0.0646311 0.812232 -0.32189
N_ N_ 0.546731 0.146173 0.818838 -0.32189
N_ N_ 0.602615 0.303535 0.555605 -0.32189
N_ N_ 0.696141 0.30465 0.639201 -0.32189
N_ N_ 0.863168 0.447895 0.698443 -0.32189
N_ N_ 0.946605 0.357264 0.690438 -0.32189
N_ N_ 0.88977 0.195944 0.954578 -0.32189
N_ N_ 0.809956 0.191867 0.861448 -0.32189
O_ O_ 0.0106767 0.08932 0.906282 -0.63271
O_ O_ 0.547537 0.0327598 0.836126 -0.57982
O_ O_ 0.904611 0.0925794 0.846677 -0.63271
O_ O_ 0.875043 0.0933924 0.923561 -0.57982
O_ O_ 0.74575 0.384768 0.595555 -0.63271
O_ O_ 0.710234 0.329811 0.538667 -0.57982
O_ O_ 0.858396 0.338665 0.60918 -0.63271
O_ O_ 0.875594 0.420399 0.600799 -0.57982
O_ O_ 0.486563 0.411809 0.596959 -0.63271
O_ O_ 0.968737 0.458296 0.666483 -0.57982
O_ O_ 0.594592 0.395428 0.64885 -0.63271
O_ O_ 0.628162 0.397222 0.573889 -0.57982
O_ O_ 0.767404 0.096874 0.908193 -0.63271
O_ O_ 0.795609 0.158753 0.963491 -0.57982
O_ O_ 0.654093 0.149523 0.899171 -0.63271
O_ O_ 0.611091 0.0852133 0.909066 -0.57982
F_ F_ 0.936068 0.325118 0.934733 -0.20885
F_ F_ 0.942195 0.326994 0.85179 -0.20885
F_ F_ 0.872901 0.300485 0.879329 -0.20885
F_ F_ 0.82306 0.442489 0.830533 -0.20885
F_ F_ 0.830601 0.361333 0.813433 -0.20885
F_ F_ 0.895448 0.406494 0.80432 -0.20885
F_ F_ 0.557738 0.160953 0.557924 -0.20885
F_ F_ 0.565331 0.179423 0.6398 -0.20885
F_ F_ 0.628226 0.194142 0.599172 -0.20885
F_ F_ 0.669081 0.0522599 0.664964 -0.20885
F_ F_ 0.66844 0.139175 0.680837 -0.20885
F_ F_ 0.601793 0.100041 0.694621 -0.20885
Zn Zn 0.588842 0.579683 0.348478 0.83971
Zn Zn 0.659559 0.850038 0.0832648 0.83971
Zn Zn 0.90305 0.921828 0.157731 0.83971
Zn Zn 0.841724 0.662177 0.419083 0.83971
H_ H_ 0.656838 0.627834 0.286239 0.10394
H_ H_ 0.738311 0.590996 0.250443 0.10394
H_ H_ 0.704287 0.943132 0.272352 0.10394
H_ H_ 0.643535 0.484327 0.344132 0.10394
H_ H_ 0.0260114 0.606792 0.252269 0.10394
H_ H_ 0.987409 0.680932 0.21309 0.10394
H_ H_ 0.546275 0.763103 0.331991 0.10394
H_ H_ 0.5716 0.690584 0.384869 0.10394
H_ H_ 0.525567 0.939859 0.356239 0.10394
H_ H_ 0.978544 0.874573 0.395888 0.10394
H_ H_ 0.849699 0.982993 0.403499 0.10394
H_ H_ 0.58165 0.809293 0.132985 0.10394
H_ H_ 0.99278 0.778958 0.0929261 0.10394
H_ H_ 0.528627 0.796245 0.44435 0.10394
H_ H_ 0.615925 0.826225 0.98079 0.10394
H_ H_ 0.707333 0.74854 0.0973852 0.10394
H_ H_ 0.757337 0.700167 0.167846 0.10394
H_ H_ 0.726186 0.837126 0.263396 0.10394
H_ H_ 0.703162 0.887057 0.187007 0.10394
H_ H_ 0.713285 0.860797 0.436736 0.10394
H_ H_ 0.765551 0.88622 0.373036 0.10394
H_ H_ 0.892261 0.900493 0.48661 0.10394
H_ H_ 0.806016 0.959907 0.124703 0.10394
H_ H_ 0.730059 0.979982 0.174498 0.10394
H_ H_ 0.834433 0.54294 0.281189 0.10394
H_ H_ 0.908082 0.987759 0.253919 0.10394
H_ H_ 0.514529 0.884202 0.205287 0.10394
H_ H_ 0.552564 0.811295 0.257971 0.10394
H_ H_ 0.915837 0.756434 0.236567 0.10394
H_ H_ 0.876926 0.827617 0.185996 0.10394
H_ H_ 0.967046 0.5493 0.12372 0.10394
H_ H_ 0.507658 0.605423 0.0674609 0.10394
H_ H_ 0.640051 0.505738 0.0865917 0.10394
H_ H_ 0.945028 0.669514 0.395837 0.10394
H_ H_ 0.516107 0.682771 0.448588 0.10394
H_ H_ 0.908718 0.776894 0.0461363 0.10394
H_ H_ 0.845274 0.740351 0.500829 0.10394
H_ H_ 0.731309 0.696384 0.380161 0.10394
H_ H_ 0.692903 0.749359 0.309484 0.10394
H_ H_ 0.831435 0.733643 0.24009 0.10394
H_ H_ 0.877342 0.702579 0.324334 0.10394
H_ H_ 0.781094 0.61816 0.0522246 0.10394
H_ H_ 0.723154 0.608864 0.119341 0.10394
H_ H_ 0.600714 0.591295 0.000766351 0.10394
C_ C_ 0.671721 0.587904 0.292758 0.18167
C_ C_ 0.717959 0.56848 0.273865 -0.15533
C_ C_ 0.734395 0.516345 0.27176 0.02923
C_ C_ 0.693824 0.984896 0.276537 -0.15533
C_ C_ 0.663767 0.507301 0.32293 0.18167
C_ C_ 0.523765 0.631331 0.276151 0.18167
C_ C_ 0.00784647 0.685413 0.249515 -0.15533
C_ C_ 0.510243 0.723374 0.267027 0.02923
C_ C_ 0.533509 0.726971 0.317363 -0.15533
C_ C_ 0.554209 0.685793 0.345646 0.18167
C_ C_ 0.505095 0.541165 0.368792 0.69207
C_ C_ 0.9675 0.0029453 0.383142 0.02923
C_ C_ -0.012071000000000054 0.949345 0.382011 -0.15533
C_ C_ 0.958616 0.909325 0.381174 -0.15533
C_ C_ 0.907034 0.920507 0.387707 0.02923
C_ C_ 0.886573 0.973444 0.390127 -0.15533
C_ C_ 0.915221 0.0150359 0.38498 0.02923
C_ C_ 0.900517 0.578634 0.391308 0.69207
C_ C_ 0.898729 0.820994 0.38726 0.69661
C_ C_ 0.570673 0.807351 0.0920583 0.18167
C_ C_ 0.524426 0.790222 0.0731852 -0.15533
C_ C_ 0.511645 0.782376 0.0210678 0.02923
C_ C_ 0.544347 0.78848 0.484338 -0.15533
C_ C_ 0.59154 0.812675 0.00814043 0.18167
C_ C_ 0.718421 0.769302 0.131425 0.18167
C_ C_ 0.741029 0.739301 0.173172 -0.15533
C_ C_ 0.736038 0.764248 0.221998 0.02923
C_ C_ 0.722684 0.818183 0.22764 -0.15533
C_ C_ 0.709069 0.845247 0.184668 0.18167
C_ C_ 0.741666 0.872228 0.0478338 0.69207
C_ C_ 0.774068 0.866338 0.499705 0.02923
C_ C_ 0.754517 0.866276 0.448025 -0.15533
C_ C_ 0.78189 0.882117 0.412209 -0.15533
C_ C_ 0.834419 0.886576 0.421554 0.02923
C_ C_ 0.853098 0.892286 0.474558 -0.15533
C_ C_ 0.824593 0.882353 0.513704 0.02923
C_ C_ 0.856012 0.886268 0.0724784 0.69207
C_ C_ 0.846363 0.880778 0.32604 0.69661
C_ C_ 0.810346 0.966063 0.166725 0.18167
C_ C_ 0.769314 0.983746 0.192562 -0.15533
C_ C_ 0.776376 1.00527175 0.242892 0.02923
C_ C_ 0.829549 0.509622 0.257798 -0.15533
C_ C_ 0.868989 0.987282 0.238154 0.18167
C_ C_ 0.994379 0.858213 0.199388 0.18167
C_ C_ 0.515886 0.811032 0.238176 -0.15533
C_ C_ 0.988054 0.782112 0.246121 0.02923
C_ C_ 0.936596 0.784349 0.224726 -0.15533
C_ C_ 0.916564 0.824765 0.196728 0.18167
C_ C_ 0.977137 0.956001 0.1199 0.69207
C_ C_ 0.520678 0.486365 0.114943 0.02923
C_ C_ 0.497414 0.537038 0.106089 -0.15533
C_ C_ 0.525827 0.573958 0.0904197 -0.15533
C_ C_ 0.578813 0.562872 0.0884819 0.02923
C_ C_ 0.599697 0.513198 0.089398 -0.15533
C_ C_ 0.574253 0.475443 0.108758 0.02923
C_ C_ 0.601711 0.92897 0.111938 0.69207
C_ C_ 0.585927 0.659253 0.0985599 0.69661
C_ C_ 0.938453 0.691407 0.433608 0.18167
C_ C_ 0.979145 0.71173 0.458998 -0.15533
C_ C_ 0.971849 0.746735 0.503084 0.02923
C_ C_ 0.918009 0.754276 1.0118077 -0.15533
C_ C_ 0.8844 0.730852 0.492731 0.18167
C_ C_ 0.754049 0.701758 0.35061 0.18167
C_ C_ 0.73116 0.732198 0.309198 -0.15533
C_ C_ 0.757588 0.736469 0.266547 0.02923
C_ C_ 0.812383 0.724973 0.274579 -0.15533
C_ C_ 0.835526 0.703974 0.319187 0.18167
C_ C_ 0.761357 0.626153 0.449404 0.69207
C_ C_ 0.722877 0.613913 0.99093 0.02923
C_ C_ 0.739451 0.613979 0.0422903 -0.15533
C_ C_ 0.707993 0.60298 0.07988 -0.15533
C_ C_ 0.655381 0.601114 0.0665137 0.02923
C_ C_ 0.639638 0.597687 0.0145059 -0.15533
C_ C_ 0.671014 0.605178 0.976376 0.02923
C_ C_ 0.653335 0.593515 0.423781 0.69207
C_ C_ 0.636599 0.603852 0.161193 0.69661
C_ C_ 0.871282 0.877475 0.380967 -0.30787
C_ C_ 0.61462 0.606111 0.104014 -0.30787
N_ N_ 0.642086 0.555453 0.310445 -0.32189
N_ N_ 0.550946 0.638493 0.322978 -0.32189
N_ N_ 0.604534 0.815458 0.0581328 -0.32189
N_ N_ 0.701421 0.81935 0.137541 -0.32189
N_ N_ 0.857498 0.965226 0.190599 -0.32189
N_ N_ 0.943018 0.863313 0.186318 -0.32189
N_ N_ 0.891806 0.702274 0.448363 -0.32189
N_ N_ 0.806553 0.694209 0.35753 -0.32189
O_ O_ 0.00591487 0.595825 0.39486 -0.63271
O_ O_ 0.543754 0.530836 0.343039 -0.57982
O_ O_ 0.895024 0.603236 0.347731 -0.63271
O_ O_ 0.875535 0.600054 0.428589 -0.57982
O_ O_ 0.746931 0.896585 0.0923432 -0.63271
O_ O_ 0.701145 0.848289 0.0369107 -0.57982
O_ O_ 0.853117 0.847453 0.0994946 -0.63271
O_ O_ 0.882845 0.92312 0.0903037 -0.57982
O_ O_ 0.49763 0.911115 0.107138 -0.63271
O_ O_ 0.950136 0.964071 0.159154 -0.57982
O_ O_ 0.604079 0.899047 0.15032 -0.63271
O_ O_ 0.632 0.917054 0.076188 -0.57982
O_ O_ 0.767136 0.593146 0.409192 -0.63271
O_ O_ 0.793689 0.660882 0.461459 -0.57982
O_ O_ 0.655104 0.637121 0.400446 -0.63271
O_ O_ 0.618263 0.56396 0.407967 -0.57982
F_ F_ 0.93022 0.821742 0.434302 -0.20885
F_ F_ 0.926396 0.803397 0.348499 -0.20885
F_ F_ 0.860926 0.789754 0.389692 -0.20885
F_ F_ 0.810635 0.921581 0.322303 -0.20885
F_ F_ 0.82087 0.83946 0.304471 -0.20885
F_ F_ 0.877266 0.889862 0.290533 -0.20885
F_ F_ 0.561866 0.666581 0.049682 -0.20885
F_ F_ 0.551861 0.67506 0.135001 -0.20885
F_ F_ 0.619346 0.696835 0.105964 -0.20885
F_ F_ 0.672891 0.562781 0.168985 -0.20885
F_ F_ 0.662739 0.645189 0.181229 -0.20885
F_ F_ 0.598198 0.596141 0.190746 -0.20885
Zn Zn 0.590688 0.585034 0.841211 0.83971
Zn Zn 0.65616 0.843905 0.578797 0.83971
Zn Zn 0.906091 0.912382 0.653987 0.83971
Zn Zn 0.832574 0.661863 0.914033 0.83971
H_ H_ 0.667768 0.636348 0.80034 0.10394
H_ H_ 0.745551 0.603878 0.764335 0.10394
H_ H_ 0.720378 0.952591 0.795382 0.10394
H_ H_ 0.634349 0.48656 0.820589 0.10394
H_ H_ 0.0329537 0.599328 0.752733 0.10394
H_ H_ 0.983468 0.675519 0.70693 0.10394
H_ H_ 0.514171 0.767574 0.8301 0.10394
H_ H_ 0.57205 0.695075 0.871367 0.10394
H_ H_ 0.524464 0.943332 0.846499 0.10394
H_ H_ 0.98394 0.878625 0.874025 0.10394
H_ H_ 0.857751 0.989608 0.913966 0.10394
H_ H_ 0.587353 0.779373 0.628458 0.10394
H_ H_ 0.00317257 0.774075 0.602657 0.10394
H_ H_ 0.53221 0.799975 0.948198 0.10394
H_ H_ 0.607908 0.831822 0.479907 0.10394
H_ H_ 0.722848 0.754095 0.590863 0.10394
H_ H_ 0.746628 0.700194 0.666709 0.10394
H_ H_ 0.700898 0.830737 0.764478 0.10394
H_ H_ 0.670008 0.878462 0.689199 0.10394
H_ H_ 0.721906 0.861921 0.947658 0.10394
H_ H_ 0.772192 0.872222 0.87927 0.10394
H_ H_ 0.893583 0.909651 0.991236 0.10394
H_ H_ 0.802213 0.906969 0.653878 0.10394
H_ H_ 0.732043 0.953948 0.690743 0.10394
H_ H_ 0.839239 0.550197 0.77681 0.10394
H_ H_ 0.905272 0.998126 0.735641 0.10394
H_ H_ 0.508715 0.855359 0.659472 0.10394
H_ H_ 0.544343 0.783631 0.709068 0.10394
H_ H_ 0.908715 0.749039 0.727137 0.10394
H_ H_ 0.867401 0.823563 0.683178 0.10394
H_ H_ 0.968647 0.552664 0.618849 0.10394
H_ H_ 0.522974 0.617678 0.601937 0.10394
H_ H_ 0.648077 0.499203 0.585173 0.10394
H_ H_ 0.940553 0.667143 0.89136 0.10394
H_ H_ 0.510292 0.707925 0.944261 0.10394
H_ H_ 0.917084 0.781762 0.550889 0.10394
H_ H_ 0.84259 0.734149 1.000274242 0.10394
H_ H_ 0.726586 0.701133 0.883487 0.10394
H_ H_ 0.681652 0.744667 0.807838 0.10394
H_ H_ 0.82688 0.734908 0.74352 0.10394
H_ H_ 0.866948 0.69382 0.816638 0.10394
H_ H_ 0.780647 0.63496 0.550242 0.10394
H_ H_ 0.739791 0.605407 0.616908 0.10394
H_ H_ 0.615605 0.5706 0.504937 0.10394
C_ C_ 0.679668 0.596729 0.799693 0.18167
C_ C_ 0.726149 0.578264 0.781184 -0.15533
C_ C_ 0.740866 0.526077 0.777492 0.02923
C_ C_ 0.707672 0.994766 0.795591 -0.15533
C_ C_ 0.660988 0.511443 0.814603 0.18167
C_ C_ 0.526768 0.635237 0.762756 0.18167
C_ C_ 0.00368186 0.680637 0.745242 -0.15533
C_ C_ 0.49965 0.725103 0.760207 0.02923
C_ C_ 0.524135 0.730957 0.810248 -0.15533
C_ C_ 0.549903 0.688333 0.835246 0.18167
C_ C_ 0.506513 0.555575 0.86883 0.69207
C_ C_ 0.979102 0.0082548 0.883608 0.02923
C_ C_ -0.0010829999999999451 0.955933 0.880068 -0.15533
C_ C_ 0.967513 0.916145 0.882212 -0.15533
C_ C_ 0.915272 0.928094 0.894646 0.02923
C_ C_ 0.898339 0.978451 0.903729 -0.15533
C_ C_ 0.927696 0.0185628 0.895192 0.02923
C_ C_ 0.900154 0.578652 0.886777 0.69207
C_ C_ 0.902846 0.83146 0.887385 0.69661
C_ C_ 0.574161 0.786535 0.588181 0.18167
C_ C_ 0.52874 0.76668 0.568238 -0.15533
C_ C_ 0.514412 0.766697 0.516197 0.02923
C_ C_ 0.543076 0.797184 0.987905 -0.15533
C_ C_ 0.58937 0.806922 0.503734 0.18167
C_ C_ 0.713208 0.767676 0.630704 0.18167
C_ C_ 0.727744 0.739177 0.672469 -0.15533
C_ C_ 0.722926 0.761104 0.722024 0.02923
C_ C_ 0.701698 0.811874 0.727392 -0.15533
C_ C_ 0.683434 0.83863 0.68293 0.18167
C_ C_ 0.735551 0.86566 0.538095 0.69207
C_ C_ 0.775899 0.878796 1.00795914 0.02923
C_ C_ 0.758755 0.869545 0.957756 -0.15533
C_ C_ 0.790331 0.87747 0.917947 -0.15533
C_ C_ 0.83916 0.892255 0.928797 0.02923
C_ C_ 0.85812 0.89744 0.980739 -0.15533
C_ C_ 0.827749 0.889876 0.0201725 0.02923
C_ C_ 0.84959 0.881841 0.570609 0.69207
C_ C_ 0.850738 0.892762 0.832048 0.69661
C_ C_ 0.81089 0.937601 0.682336 0.18167
C_ C_ 0.771067 0.96519 0.703757 -0.15533
C_ C_ 0.777756 0.000544733 0.742241 0.02923
C_ C_ 0.831453 0.517427 0.751505 -0.15533
C_ C_ 0.867758 0.987869 0.729047 0.18167
C_ C_ 0.987185 0.854831 0.703418 0.18167
C_ C_ 0.50539 0.79768 0.707774 -0.15533
C_ C_ 0.981699 0.777548 0.742678 0.02923
C_ C_ 0.930724 0.778164 0.722623 -0.15533
C_ C_ 0.907578 0.818994 0.695688 0.18167
C_ C_ 0.989425 0.94947 0.623111 0.69207
C_ C_ 0.523337 0.489717 0.616158 0.02923
C_ C_ 0.508806 0.542506 0.620413 -0.15533
C_ C_ 0.53859 0.577176 0.604296 -0.15533
C_ C_ 0.590413 0.561138 0.596493 0.02923
C_ C_ 0.608428 0.508777 0.592603 -0.15533
C_ C_ 0.574767 0.472585 0.602621 0.02923
C_ C_ 0.586782 0.920521 0.589178 0.69207
C_ C_ 0.609825 0.655296 0.597464 0.69661
C_ C_ 0.934878 0.688196 0.927471 0.18167
C_ C_ 0.972276 0.717425 0.94936 -0.15533
C_ C_ 0.965785 0.750843 0.993367 0.02923
C_ C_ 0.923074 0.757044 0.519264 -0.15533
C_ C_ 0.878245 0.73211 0.984421 0.18167
C_ C_ 0.748257 0.704002 0.851302 0.18167
C_ C_ 0.721958 0.730953 0.809592 -0.15533
C_ C_ 0.749158 0.732947 0.766394 0.02923
C_ C_ 0.800716 0.724467 0.772391 -0.15533
C_ C_ 0.823807 0.696906 0.813321 0.18167
C_ C_ 0.758662 0.626506 0.953697 0.69207
C_ C_ 0.728227 0.612142 0.487913 0.02923
C_ C_ 0.747145 0.618475 0.540218 -0.15533
C_ C_ 0.719517 0.603175 0.578312 -0.15533
C_ C_ 0.670198 0.588397 0.566922 0.02923
C_ C_ 0.654374 0.576827 0.51523 -0.15533
C_ C_ 0.680811 0.588578 0.474534 0.02923
C_ C_ 0.650672 0.60808 0.923556 0.69207
C_ C_ 0.650286 0.595262 0.663661 0.69661
C_ C_ 0.878088 0.885871 0.887496 -0.30787
C_ C_ 0.630047 0.598858 0.605714 -0.30787
N_ N_ 0.64676 0.562853 0.810724 -0.32189
N_ N_ 0.548303 0.641444 0.811468 -0.32189
N_ N_ 0.602213 0.807017 0.556141 -0.32189
N_ N_ 0.69353 0.817036 0.636519 -0.32189
N_ N_ 0.859207 0.945764 0.698923 -0.32189
N_ N_ 0.937906 0.855067 0.684529 -0.32189
N_ N_ 0.885749 0.702005 0.93962 -0.32189
N_ N_ 0.797626 0.689767 0.852797 -0.32189
O_ O_ 1.011512 0.596589 0.909904 -0.63271
O_ O_ 0.53781 0.543803 0.834201 -0.57982
O_ O_ 0.896766 0.603168 0.845613 -0.63271
O_ O_ 0.866921 0.596785 0.91939 -0.57982
O_ O_ 0.738037 0.8925 0.581665 -0.63271
O_ O_ 0.702403 0.832403 0.532112 -0.57982
O_ O_ 0.849415 0.841421 0.596674 -0.63271
O_ O_ 0.871483 0.92052 0.59217 -0.57982
O_ O_ 0.461995 0.914787 0.573828 -0.63271
O_ O_ 0.955607 0.9593 0.656476 -0.57982
O_ O_ 0.578917 0.894076 0.6288 -0.63271
O_ O_ 0.629125 0.907095 0.567487 -0.57982
O_ O_ 0.753682 0.606379 0.907229 -0.63271
O_ O_ 0.787693 0.664421 0.965814 -0.57982
O_ O_ 0.654171 0.648121 0.897788 -0.63271
O_ O_ 0.616459 0.579033 0.90635 -0.57982
F_ F_ 0.930051 0.82608 0.932596 -0.20885
F_ F_ 0.93311 0.813141 0.847273 -0.20885
F_ F_ 0.866971 0.796654 0.882607 -0.20885
F_ F_ 0.818177 0.937043 0.829517 -0.20885
F_ F_ 0.824804 0.852895 0.812517 -0.20885
F_ F_ 0.885114 0.893592 0.796727 -0.20885
F_ F_ 0.579999 0.659622 0.549944 -0.20885
F_ F_ 0.579867 0.675498 0.635759 -0.20885
F_ F_ 0.648954 0.688757 0.592639 -0.20885
F_ F_ 0.682072 0.55007 0.671078 -0.20885
F_ F_ 0.678488 0.635509 0.68437 -0.20885
F_ F_ 0.60924 0.595459 0.693311 -0.20885
_cell_length_a 26.508
_cell_length_b 26.37200000322088
_cell_length_c 26.311999743092066
_cell_angle_alpha 93.74100058972084
_cell_angle_beta 96.04100104955006
_cell_angle_gamma 83.6869992558723
_symmetry_space_group_name_H-M         'P 1'
_symmetry_Int_Tables_number            1
loop_
_symmetry_equiv_pos_as_xyz
   'x, y, z'
                         
loop_
_atom_site_label
_atom_site_type_symbol
_atom_site_fract_x 
_atom_site_fract_y
_atom_site_fract_z
_atom_site_charge
Zn Zn 0.0850349 0.0796587 0.348972 0.83971
Zn Zn 0.163149 0.341747 0.0821739 0.83971
Zn Zn 0.406512 0.417137 0.157021 0.83971
Zn Zn 0.336491 0.14655 0.41474 0.83971
H_ H_ 0.161215 0.128091 0.300582 0.10394
H_ H_ 0.241417 0.097004 0.266567 0.10394
H_ H_ 0.216091 0.449787 0.303072 0.10394
H_ H_ 0.141235 0.975866 0.333836 0.10394
H_ H_ 0.54665 0.098052 0.237413 0.10394
H_ H_ 0.493547 0.171357 0.196143 0.10394
H_ H_ 0.0186581 0.258338 0.347561 0.10394
H_ H_ 0.0722778 0.186 0.380793 0.10394
H_ H_ 0.0341816 0.448837 0.366401 0.10394
H_ H_ 0.488295 0.377749 0.404583 0.10394
H_ H_ 0.35233 0.484693 0.406651 0.10394
H_ H_ 0.0832718 0.299379 0.130364 0.10394
H_ H_ 0.50179 0.276051 0.105049 0.10394
H_ H_ 0.0282932 0.274441 0.455229 0.10394
H_ H_ 0.125013 0.315309 0.985208 0.10394
H_ H_ 0.226577 0.248361 0.0897815 0.10394
H_ H_ 0.26898 0.200574 0.15785 0.10394
H_ H_ 0.237521 0.332614 0.258276 0.10394
H_ H_ 0.194487 0.378111 0.187394 0.10394
H_ H_ 0.226914 0.334477 0.439451 0.10394
H_ H_ 0.274472 0.355482 0.375547 0.10394
H_ H_ 0.397738 0.389764 0.486511 0.10394
H_ H_ 0.31038 0.394479 0.17334 0.10394
H_ H_ 0.235404 0.446962 0.202565 0.10394
H_ H_ 0.324017 0.0503641 0.268899 0.10394
H_ H_ 0.399295 0.513609 0.225246 0.10394
H_ H_ 0.0227159 0.368253 0.187771 0.10394
H_ H_ 0.0553483 0.304498 0.247075 0.10394
H_ H_ 0.418864 0.235434 0.209129 0.10394
H_ H_ 0.369369 0.319608 0.178859 0.10394
H_ H_ 0.47163 0.0578454 0.132441 0.10394
H_ H_ 0.00985293 0.124706 0.107958 0.10394
H_ H_ 0.1314 0.0104124 0.0809171 0.10394
H_ H_ 0.443464 0.119952 0.44539 0.10394
H_ H_ 0.0147013 0.186507 0.454541 0.10394
H_ H_ 0.424116 0.271958 0.0593783 0.10394
H_ H_ 0.335278 0.244406 0.474106 0.10394
H_ H_ 0.234738 0.171941 0.368153 0.10394
H_ H_ 0.201107 0.206928 0.281991 0.10394
H_ H_ 0.353942 0.229052 0.254114 0.10394
H_ H_ 0.385725 0.184704 0.337605 0.10394
H_ H_ 0.280226 0.134077 0.0632044 0.10394
H_ H_ 0.226858 0.106638 0.124185 0.10394
H_ H_ 0.106385 0.104197 0.00516955 0.10394
C_ C_ 0.171141 0.0858577 0.297586 0.18167
C_ C_ 0.217192 0.0692502 0.276853 -0.15533
C_ C_ 0.230326 0.0170573 0.269156 0.02923
C_ C_ 0.202186 0.490931 0.297941 -0.15533
C_ C_ 0.157648 0.00135324 0.313594 0.18167
C_ C_ 0.027273 0.131828 0.269852 0.18167
C_ C_ 0.512742 0.175648 0.235072 -0.15533
C_ C_ 0.00587265 0.222642 0.272859 0.02923
C_ C_ 0.0275721 0.225184 0.322697 -0.15533
C_ C_ 0.0537373 0.181295 0.343892 0.18167
C_ C_ 0.00320896 0.0419568 0.371137 0.69207
C_ C_ 0.471644 0.501538 0.375761 0.02923
C_ C_ 0.49406 0.449845 0.378716 -0.15533
C_ C_ 0.466807 0.41285 0.39351 -0.15533
C_ C_ 0.413074 0.4217 0.393262 0.02923
C_ C_ 0.392362 0.47289 0.399646 -0.15533
C_ C_ 0.4208 0.51239 0.390097 0.02923
C_ C_ 0.389965 0.0635412 0.373334 0.69207
C_ C_ 0.399074 0.327805 0.375093 0.69661
C_ C_ 0.0763732 0.292015 0.0890896 0.18167
C_ C_ 0.0256075 0.287629 0.0709372 -0.15533
C_ C_ 0.0129973 0.280667 0.0184458 0.02923
C_ C_ 0.040329 0.283228 0.494849 -0.15533
C_ C_ 0.0977471 0.305398 0.00818976 0.18167
C_ C_ 0.225545 0.26385 0.130083 0.18167
C_ C_ 0.24895 0.235086 0.168787 -0.15533
C_ C_ 0.254346 0.258821 0.219098 0.02923
C_ C_ 0.234601 0.311185 0.222876 -0.15533
C_ C_ 0.210571 0.338368 0.181832 0.18167
C_ C_ 0.245628 0.363041 0.0443227 0.69207
C_ C_ 0.279986 0.355914 0.502628 0.02923
C_ C_ 0.262487 0.348882 0.45029 -0.15533
C_ C_ 0.289711 0.367631 0.41405 -0.15533
C_ C_ 0.338934 0.38087 0.423887 0.02923
C_ C_ 0.357518 0.387783 0.475598 -0.15533
C_ C_ 0.3297 0.375179 0.515858 0.02923
C_ C_ 0.351944 0.391833 0.0708819 0.69207
C_ C_ 0.351926 0.392205 0.326175 0.69661
C_ C_ 0.313564 0.433608 0.188134 0.18167
C_ C_ 0.271383 0.460227 0.209721 -0.15533
C_ C_ 0.277858 0.501917 0.244879 0.02923
C_ C_ 0.321367 0.0142062 0.249266 -0.15533
C_ C_ 0.363054 0.498792 0.221453 0.18167
C_ C_ 0.481473 0.359948 0.217278 0.18167
C_ C_ 0.0155142 0.309585 0.240328 -0.15533
C_ C_ 0.485667 0.272329 0.236786 0.02923
C_ C_ 0.436105 0.272376 0.213228 -0.15533
C_ C_ 0.408463 0.316714 0.193313 0.18167
C_ C_ 0.489366 0.448473 0.131995 0.69207
C_ C_ 0.0118086 0.995261 0.110035 0.02923
C_ C_ -0.008283999999999958 0.0475087 0.108514 -0.15533
C_ C_ 0.027171 0.086369 0.111194 -0.15533
C_ C_ 0.0771105 0.072915 0.0991159 0.02923
C_ C_ 0.091767 0.021875 0.088514 -0.15533
C_ C_ 0.0612359 0.983176 0.094895 0.02923
C_ C_ 0.105345 0.42081 0.107078 0.69207
C_ C_ 0.0995405 0.165585 0.114582 0.69661
C_ C_ 0.435636 0.15912 0.453391 0.18167
C_ C_ 0.476842 0.186722 0.474035 -0.15533
C_ C_ 0.468721 0.23428 0.49993 0.02923
C_ C_ 0.431024 0.246476 0.0244317 -0.15533
C_ C_ 0.376052 0.228685 0.477022 0.18167
C_ C_ 0.259001 0.186443 0.341858 0.18167
C_ C_ 0.239528 0.207656 0.294484 -0.15533
C_ C_ 0.273502 0.227812 0.265105 0.02923
C_ C_ 0.324697 0.219981 0.280069 -0.15533
C_ C_ 0.344495 0.191336 0.32481 0.18167
C_ C_ 0.264598 0.11184 0.450625 0.69207
C_ C_ 0.228671 0.123856 0.996178 0.02923
C_ C_ 0.245285 0.118342 0.0480522 -0.15533
C_ C_ 0.21156 0.111213 0.0842608 -0.15533
C_ C_ 0.158791 0.105527 0.0693219 0.02923
C_ C_ 0.142857 0.114078 0.0185463 -0.15533
C_ C_ 0.178144 0.117028 0.980837 0.02923
C_ C_ 0.154771 0.102846 0.420827 0.69207
C_ C_ 0.143717 0.0995806 0.16267 0.69661
C_ C_ 0.374693 0.382093 0.38064 -0.30787
C_ C_ 0.118395 0.109708 0.10841 -0.30787
N_ N_ 0.142091 0.0517756 0.313552 -0.32189
N_ N_ 0.0555764 0.137415 0.315988 -0.32189
N_ N_ 0.108066 0.307866 0.0589557 -0.32189
N_ N_ 0.201761 0.311896 0.137818 -0.32189
N_ N_ 0.358872 0.45203 0.194779 -0.32189
N_ N_ 0.43337 0.357882 0.191851 -0.32189
N_ N_ 0.385654 0.181239 0.453019 -0.32189
N_ N_ 0.311166 0.176859 0.353654 -0.32189
O_ O_ 0.498507 0.0833665 0.385834 -0.63271
O_ O_ 0.0435775 0.0302893 0.343999 -0.57982
O_ O_ 0.395223 0.0944676 0.337796 -0.63271
O_ O_ 0.362012 0.0791152 0.409795 -0.57982
O_ O_ 0.248713 0.385935 0.0908519 -0.63271
O_ O_ 0.205523 0.337928 0.0313052 -0.57982
O_ O_ 0.353549 0.350498 0.0955033 -0.63271
O_ O_ 0.375796 0.428187 0.0934813 -0.57982
O_ O_ 0.994344 0.403609 0.0988987 -0.63271
O_ O_ 0.456361 0.462771 0.163822 -0.57982
O_ O_ 0.101642 0.390743 0.144735 -0.63271
O_ O_ 0.141198 0.409459 0.0782815 -0.57982
O_ O_ 0.259965 0.0863771 0.406474 -0.63271
O_ O_ 0.284432 0.155004 0.451433 -0.57982
O_ O_ 0.157814 0.144679 0.396312 -0.63271
O_ O_ 0.114546 0.0787461 0.408865 -0.57982
F_ F_ 0.425151 0.315365 0.422473 -0.20885
F_ F_ 0.431947 0.322154 0.335486 -0.20885
F_ F_ 0.365065 0.292488 0.366236 -0.20885
F_ F_ 0.315584 0.434027 0.330485 -0.20885
F_ F_ 0.327076 0.354284 0.30033 -0.20885
F_ F_ 0.385111 0.405398 0.29402 -0.20885
F_ F_ 0.0718848 0.179102 0.0690602 -0.20885
F_ F_ 0.0679929 0.176015 0.155831 -0.20885
F_ F_ 0.13605 0.198971 0.122052 -0.20885
F_ F_ 0.178212 0.0559642 0.16325 -0.20885
F_ F_ 0.174945 0.13762 0.185856 -0.20885
F_ F_ 0.107259 0.093788 0.19582 -0.20885
Zn Zn 0.0948451 0.0851321 0.853176 0.83971
Zn Zn 0.157742 0.34287 0.578054 0.83971
Zn Zn 0.409596 0.417405 0.655348 0.83971
Zn Zn 0.344867 0.158844 0.919913 0.83971
H_ H_ 0.17308 0.139296 0.811531 0.10394
H_ H_ 0.243521 0.105854 0.762821 0.10394
H_ H_ 0.213458 0.445765 0.799948 0.10394
H_ H_ 0.129609 0.991037 0.815147 0.10394
H_ H_ 0.521892 0.100849 0.751817 0.10394
H_ H_ 0.48926 0.179346 0.702326 0.10394
H_ H_ 0.0280159 0.267891 0.845803 0.10394
H_ H_ 0.0692786 0.197097 0.887476 0.10394
H_ H_ 0.0390257 0.458389 0.907636 0.10394
H_ H_ 0.491299 0.389408 0.90078 0.10394
H_ H_ 0.357105 0.49188 0.917882 0.10394
H_ H_ 0.0783148 0.305045 0.636373 0.10394
H_ H_ 0.505788 0.262396 0.601014 0.10394
H_ H_ 0.0394716 0.291387 0.944577 0.10394
H_ H_ 0.11056 0.306442 0.481718 0.10394
H_ H_ 0.212789 0.245331 0.584601 0.10394
H_ H_ 0.260849 0.195489 0.663599 0.10394
H_ H_ 0.216565 0.326609 0.761186 0.10394
H_ H_ 0.185084 0.373423 0.687786 0.10394
H_ H_ 0.22575 0.35486 0.941056 0.10394
H_ H_ 0.282276 0.366409 0.87691 0.10394
H_ H_ 0.402692 0.399228 0.987743 0.10394
H_ H_ 0.306165 0.39505 0.658644 0.10394
H_ H_ 0.229903 0.440568 0.697904 0.10394
H_ H_ 0.333958 0.0346001 0.787542 0.10394
H_ H_ 0.394241 0.512084 0.716383 0.10394
H_ H_ 0.0220602 0.372663 0.682276 0.10394
H_ H_ 0.0624523 0.298328 0.736174 0.10394
H_ H_ 0.401067 0.264884 0.743688 0.10394
H_ H_ 0.368577 0.33122 0.687138 0.10394
H_ H_ 0.455708 0.0473116 0.620669 0.10394
H_ H_ 0.0138619 0.116369 0.626138 0.10394
H_ H_ 0.142435 0.0117532 0.585893 0.10394
H_ H_ 0.441784 0.172477 0.897417 0.10394
H_ H_ 0.0155612 0.199927 0.95025 0.10394
H_ H_ 0.409754 0.295052 0.517349 0.10394
H_ H_ 0.355824 0.215089 0.0203344 0.10394
H_ H_ 0.235278 0.199345 0.882595 0.10394
H_ H_ 0.192396 0.223406 0.798292 0.10394
H_ H_ 0.33435 0.214146 0.739731 0.10394
H_ H_ 0.382366 0.178081 0.8119 0.10394
H_ H_ 0.289195 0.0872465 0.554664 0.10394
H_ H_ 0.231666 0.0857175 0.617289 0.10394
H_ H_ 0.10575 0.0966223 0.500621 0.10394
C_ C_ 0.17784 0.0984319 0.798993 0.18167
C_ C_ 0.223308 0.0794619 0.778505 -0.15533
C_ C_ 0.235135 0.0251336 0.770713 0.02923
C_ C_ 0.200423 0.487879 0.79753 -0.15533
C_ C_ 0.150499 0.0161919 0.796753 0.18167
C_ C_ 0.0377578 0.137035 0.774449 0.18167
C_ C_ 0.506326 0.18199 0.740422 -0.15533
C_ C_ 0.00933725 0.227477 0.774605 0.02923
C_ C_ 0.0248299 0.232221 0.825548 -0.15533
C_ C_ 0.0507816 0.188075 0.850722 0.18167
C_ C_ 0.0126943 0.0488268 0.876498 0.69207
C_ C_ 0.473674 0.515203 0.880936 0.02923
C_ C_ 0.496381 0.464599 0.882179 -0.15533
C_ C_ 0.470088 0.425469 0.893587 -0.15533
C_ C_ 0.41789 0.432578 0.9022 0.02923
C_ C_ 0.395062 0.485293 0.903897 -0.15533
C_ C_ 0.423111 0.526497 0.896501 0.02923
C_ C_ 0.395436 0.0752268 0.888028 0.69207
C_ C_ 0.408042 0.333863 0.884624 0.69661
C_ C_ 0.0709498 0.295226 0.597258 0.18167
C_ C_ 0.0236429 0.277564 0.580648 -0.15533
C_ C_ 0.0127817 0.265833 0.52918 0.02923
C_ C_ 0.0482957 0.29618 0.985664 -0.15533
C_ C_ 0.0859317 0.301052 0.510454 0.18167
C_ C_ 0.214834 0.260785 0.625807 0.18167
C_ C_ 0.238593 0.232096 0.668653 -0.15533
C_ C_ 0.233942 0.253686 0.718331 0.02923
C_ C_ 0.215999 0.304445 0.724065 -0.15533
C_ C_ 0.192768 0.33062 0.683565 0.18167
C_ C_ 0.244966 0.354594 0.542472 0.69207
C_ C_ 0.279586 0.375732 0.00483532 0.02923
C_ C_ 0.262197 0.371575 0.952894 -0.15533
C_ C_ 0.295199 0.376396 0.915103 -0.15533
C_ C_ 0.342431 0.392919 0.925924 0.02923
C_ C_ 0.36304 0.396142 0.978801 -0.15533
C_ C_ 0.329804 0.395324 0.0171788 0.02923
C_ C_ 0.355905 0.373357 0.569527 0.69207
C_ C_ 0.355719 0.398801 0.827693 0.69661
C_ C_ 0.309911 0.427142 0.687529 0.18167
C_ C_ 0.26734 0.451434 0.708639 -0.15533
C_ C_ 0.272379 0.494833 0.742617 0.02923
C_ C_ 0.326407 0.0161122 0.752325 -0.15533
C_ C_ 0.359514 0.493364 0.718586 0.18167
C_ C_ 0.491247 0.353485 0.699817 0.18167
C_ C_ 0.021193 0.30514 0.727292 -0.15533
C_ C_ 0.480876 0.277822 0.741481 0.02923
C_ C_ 0.427935 0.287939 0.729525 -0.15533
C_ C_ 0.408352 0.327523 0.699562 0.18167
C_ C_ 0.484157 0.454894 0.62026 0.69207
C_ C_ 0.0217761 0.99117 0.612915 0.02923
C_ C_ 0.00118509 0.0415173 0.609495 -0.15533
C_ C_ 0.0322401 0.0807478 0.611947 -0.15533
C_ C_ 0.0813921 0.0701421 0.596389 0.02923
C_ C_ 0.100905 0.0187108 0.589686 -0.15533
C_ C_ 0.0731745 0.980092 0.602034 0.02923
C_ C_ 0.102615 0.425057 0.608352 0.69207
C_ C_ 0.0977235 0.162871 0.596734 0.69661
C_ C_ 0.438481 0.193404 0.932501 0.18167
C_ C_ 0.480198 0.215055 0.955078 -0.15533
C_ C_ 0.47924 0.240619 1.00423799 0.02923
C_ C_ 0.418066 0.254857 0.503269 -0.15533
C_ C_ 0.391653 0.218327 1.00324174 0.18167
C_ C_ 0.25891 0.205596 0.851537 0.18167
C_ C_ 0.232188 0.222983 0.806861 -0.15533
C_ C_ 0.259559 0.227124 0.763935 0.02923
C_ C_ 0.313419 0.21341 0.771578 -0.15533
C_ C_ 0.339742 0.190773 0.812382 0.18167
C_ C_ 0.268451 0.128597 0.961409 0.69207
C_ C_ 0.230152 0.102962 0.489854 0.02923
C_ C_ 0.250384 0.0994212 0.5434 -0.15533
C_ C_ 0.216853 0.097117 0.580842 -0.15533
C_ C_ 0.164334 0.0990935 0.56656 0.02923
C_ C_ 0.145742 0.0968232 0.513381 -0.15533
C_ C_ 0.178496 0.0983978 0.475709 0.02923
C_ C_ 0.161679 0.112903 0.926083 0.69207
C_ C_ 0.144838 0.10617 0.660569 0.69661
C_ C_ 0.38195 0.389057 0.885111 -0.30787
C_ C_ 0.123131 0.106738 0.605114 -0.30787
N_ N_ 0.144184 0.0670216 0.807789 -0.32189
N_ N_ 0.061492 0.144423 0.823659 -0.32189
N_ N_ 0.101398 0.306258 0.560864 -0.32189
N_ N_ 0.191428 0.30893 0.634912 -0.32189
N_ N_ 0.357177 0.445705 0.69699 -0.32189
N_ N_ 0.440882 0.361382 0.687825 -0.32189
N_ N_ 0.394536 0.199331 0.954583 -0.32189
N_ N_ 0.310844 0.186802 0.853862 -0.32189
O_ O_ 0.506548 0.089436 0.88659 -0.63271
O_ O_ 0.0497757 0.0390359 0.845807 -0.57982
O_ O_ 0.392109 0.103339 0.850625 -0.63271
O_ O_ 0.376381 0.0959252 0.930726 -0.57982
O_ O_ 0.25116 0.38061 0.583881 -0.63271
O_ O_ 0.203357 0.33231 0.532651 -0.57982
O_ O_ 0.365318 0.330133 0.595147 -0.63271
O_ O_ 0.371765 0.415142 0.592234 -0.57982
O_ O_ 0.988933 0.411231 0.594031 -0.63271
O_ O_ 0.453076 0.463109 0.654768 -0.57982
O_ O_ 0.102686 0.403765 0.652515 -0.63271
O_ O_ 0.137286 0.40806 0.578487 -0.57982
O_ O_ 0.26367 0.10593 0.915031 -0.63271
O_ O_ 0.298802 0.164371 0.970743 -0.57982
O_ O_ 0.155712 0.155508 0.902327 -0.63271
O_ O_ 0.136335 0.0756503 0.909321 -0.57982
F_ F_ 0.437163 0.320442 0.929945 -0.20885
F_ F_ 0.442782 0.322717 0.847783 -0.20885
F_ F_ 0.372963 0.29856 0.877124 -0.20885
F_ F_ 0.321698 0.443158 0.827933 -0.20885
F_ F_ 0.331529 0.357265 0.801355 -0.20885
F_ F_ 0.39322 0.407264 0.798575 -0.20885
F_ F_ 0.0620393 0.166364 0.556151 -0.20885
F_ F_ 0.0746691 0.18376 0.63891 -0.20885
F_ F_ 0.130578 0.19788 0.586547 -0.20885
F_ F_ 0.166774 0.0583651 0.675492 -0.20885
F_ F_ 0.182357 0.140091 0.67458 -0.20885
F_ F_ 0.1079 0.118389 0.695536 -0.20885
Zn Zn 0.0877031 0.588147 0.347621 0.83971
Zn Zn 0.156579 0.854055 0.0804173 0.83971
Zn Zn 0.415216 0.916941 0.161868 0.83971
Zn Zn 0.343439 0.655487 0.408785 0.83971
H_ H_ 0.158966 0.636172 0.292932 0.10394
H_ H_ 0.242052 0.60436 0.271758 0.10394
H_ H_ 0.214113 0.942396 0.288972 0.10394
H_ H_ 0.137454 0.49124 0.342031 0.10394
H_ H_ 0.525025 0.592166 0.260528 0.10394
H_ H_ 0.488233 0.668572 0.209271 0.10394
H_ H_ 0.0399512 0.774386 0.34325 0.10394
H_ H_ 0.0723911 0.697267 0.387214 0.10394
H_ H_ 0.0306736 0.941732 0.381578 0.10394
H_ H_ 0.479435 0.873952 0.371455 0.10394
H_ H_ 0.350217 0.983105 0.394159 0.10394
H_ H_ 0.0797875 0.807689 0.12595 0.10394
H_ H_ 0.505019 0.77536 0.100998 0.10394
H_ H_ 0.037561 0.783365 0.450597 0.10394
H_ H_ 0.1146 0.8267 0.979209 0.10394
H_ H_ 0.207518 0.75738 0.0908704 0.10394
H_ H_ 0.254292 0.704735 0.162862 0.10394
H_ H_ 0.218808 0.836474 0.262631 0.10394
H_ H_ 0.172504 0.88378 0.193294 0.10394
H_ H_ 0.212578 0.867198 0.440772 0.10394
H_ H_ 0.267176 0.875742 0.367065 0.10394
H_ H_ 0.396478 0.888809 0.478694 0.10394
H_ H_ 0.311776 0.892371 0.165309 0.10394
H_ H_ 0.228967 0.939895 0.197241 0.10394
H_ H_ 0.324371 0.56105 0.266547 0.10394
H_ H_ 0.400616 0.00592967 0.231085 0.10394
H_ H_ 0.0194684 0.88855 0.190151 0.10394
H_ H_ 0.0596253 0.816173 0.239615 0.10394
H_ H_ 0.410346 0.748625 0.230029 0.10394
H_ H_ 0.372227 0.821103 0.183009 0.10394
H_ H_ 0.456541 0.539238 0.0975938 0.10394
H_ H_ 0.0169276 0.61315 0.0999666 0.10394
H_ H_ 0.149185 0.507542 0.0959349 0.10394
H_ H_ 0.4387 0.660488 0.388885 0.10394
H_ H_ 0.0176733 0.692374 0.45134 0.10394
H_ H_ 0.413341 0.800596 0.0422599 0.10394
H_ H_ 0.343611 0.743803 0.488205 0.10394
H_ H_ 0.246222 0.713532 0.386686 0.10394
H_ H_ 0.200926 0.76684 0.314001 0.10394
H_ H_ 0.332443 0.710745 0.23264 0.10394
H_ H_ 0.368812 0.664295 0.307531 0.10394
H_ H_ 0.274287 0.654263 0.0615906 0.10394
H_ H_ 0.226589 0.630873 0.123352 0.10394
H_ H_ 0.114299 0.573522 0.00588811 0.10394
C_ C_ 0.170865 0.594559 0.295395 0.18167
C_ C_ 0.218829 0.576565 0.282216 -0.15533
C_ C_ 0.234313 0.522771 0.278076 0.02923
C_ C_ 0.201257 0.98276 0.290928 -0.15533
C_ C_ 0.157259 0.51249 0.318589 0.18167
C_ C_ 0.0307129 0.643795 0.272356 0.18167
C_ C_ 0.501865 0.67331 0.24744 -0.15533
C_ C_ 0.012606 0.735944 0.272808 0.02923
C_ C_ 0.0395063 0.737976 0.321377 -0.15533
C_ C_ 0.0625933 0.694706 0.346482 0.18167
C_ C_ 0.00916246 0.552518 0.367119 0.69207
C_ C_ 0.464933 0.00244207 0.36163 0.02923
C_ C_ 0.48635 0.950108 0.36248 -0.15533
C_ C_ 0.45815 0.910283 0.369597 -0.15533
C_ C_ 0.407763 0.9196 0.379994 0.02923
C_ C_ 0.387274 0.972378 0.379981 -0.15533
C_ C_ 0.412935 0.0116584 0.367284 0.02923
C_ C_ 0.394394 0.564178 0.382208 0.69207
C_ C_ 0.39917 0.82337 0.376032 0.69661
C_ C_ 0.0719735 0.798797 0.0869033 0.18167
C_ C_ 0.0241629 0.778552 0.0677287 -0.15533
C_ C_ 0.0102524 0.775032 0.0159081 0.02923
C_ C_ 0.0462221 0.789491 0.491078 -0.15533
C_ C_ 0.0895225 0.813213 0.00395943 0.18167
C_ C_ 0.212087 0.773406 0.128903 0.18167
C_ C_ 0.236035 0.742328 0.169416 -0.15533
C_ C_ 0.235048 0.765141 0.219369 0.02923
C_ C_ 0.212199 0.815004 0.227691 -0.15533
C_ C_ 0.184469 0.840999 0.186106 0.18167
C_ C_ 0.237704 0.884492 0.048726 0.69207
C_ C_ 0.275549 0.874967 0.49664 0.02923
C_ C_ 0.253197 0.874501 0.4464 -0.15533
C_ C_ 0.28486 0.879915 0.406208 -0.15533
C_ C_ 0.336608 0.887134 0.417822 0.02923
C_ C_ 0.357634 0.88595 0.469469 -0.15533
C_ C_ 0.328087 0.879861 0.50915 0.02923
C_ C_ 0.352318 0.889438 0.0739522 0.69207
C_ C_ 0.346458 0.879349 0.319038 0.69661
C_ C_ 0.312152 0.929158 0.183153 0.18167
C_ C_ 0.267222 0.953268 0.20391 -0.15533
C_ C_ 0.273208 0.997426 0.239005 0.02923
C_ C_ 0.324973 0.521478 0.250964 -0.15533
C_ C_ 0.363647 0.987902 0.228495 0.18167
C_ C_ 0.493028 0.85298 0.210885 0.18167
C_ C_ 0.0170231 0.819336 0.231474 -0.15533
C_ C_ 0.487378 0.770426 0.239398 0.02923
C_ C_ 0.43534 0.773717 0.218248 -0.15533
C_ C_ 0.414102 0.818739 0.194363 0.18167
C_ C_ 0.491716 0.957675 0.129001 0.69207
C_ C_ 0.0296466 0.485016 0.119491 0.02923
C_ C_ 0.00730325 0.537707 0.118126 -0.15533
C_ C_ 0.0354594 0.575319 0.105618 -0.15533
C_ C_ 0.0878023 0.566115 0.100442 0.02923
C_ C_ 0.10818 0.514355 0.0983304 -0.15533
C_ C_ 0.082015 0.473466 0.10847 0.02923
C_ C_ 0.0880554 0.932971 0.101264 0.69207
C_ C_ 0.0972848 0.665323 0.104383 0.69661
C_ C_ 0.435453 0.681628 0.424452 0.18167
C_ C_ 0.477728 0.697438 0.455246 -0.15533
C_ C_ 0.471617 0.736161 0.49511 0.02923
C_ C_ 0.421137 0.765185 0.0187915 -0.15533
C_ C_ 0.382306 0.730531 0.478591 0.18167
C_ C_ 0.26201 0.712906 0.350278 0.18167
C_ C_ 0.238938 0.742263 0.311079 -0.15533
C_ C_ 0.260704 0.737161 0.264335 0.02923
C_ C_ 0.308768 0.708818 0.263283 -0.15533
C_ C_ 0.332632 0.687388 0.306366 0.18167
C_ C_ 0.271805 0.618356 0.452708 0.69207
C_ C_ 0.221287 0.632778 0.996477 0.02923
C_ C_ 0.237247 0.641664 0.0495935 -0.15533
C_ C_ 0.208697 0.625611 0.0859793 -0.15533
C_ C_ 0.16394 0.60387 0.0709136 0.02923
C_ C_ 0.148127 0.595543 0.0182119 -0.15533
C_ C_ 0.1743 0.613078 0.98087 0.02923
C_ C_ 0.161009 0.605122 0.421019 0.69207
C_ C_ 0.147224 0.605203 0.166252 0.69661
C_ C_ 0.37223 0.879352 0.374271 -0.30787
C_ C_ 0.122958 0.610237 0.109748 -0.30787
N_ N_ 0.141772 0.561838 0.312166 -0.32189
N_ N_ 0.0561713 0.647367 0.320946 -0.32189
N_ N_ 0.103368 0.815099 0.0546803 -0.32189
N_ N_ 0.185582 0.819959 0.137823 -0.32189
N_ N_ 0.357021 0.945883 0.194377 -0.32189
N_ N_ 0.442819 0.857319 0.19123 -0.32189
N_ N_ 0.389824 0.6942 0.439373 -0.32189
N_ N_ 0.309023 0.690141 0.349826 -0.32189
O_ O_ 0.50079 0.5864 0.393873 -0.63271
O_ O_ 0.0463917 0.541674 0.337405 -0.57982
O_ O_ 0.390276 0.58379 0.336655 -0.63271
O_ O_ 0.374578 0.592008 0.417761 -0.57982
O_ O_ 0.240003 0.907947 0.0943497 -0.63271
O_ O_ 0.200947 0.852866 0.034599 -0.57982
O_ O_ 0.344757 0.847092 0.0947344 -0.63271
O_ O_ 0.384308 0.921287 0.0953893 -0.57982
O_ O_ 0.983053 0.91003 0.0977614 -0.63271
O_ O_ 0.460931 0.96497 0.165278 -0.57982
O_ O_ 0.0878189 0.907025 0.142408 -0.63271
O_ O_ 0.120615 0.915023 0.0700729 -0.57982
O_ O_ 0.263799 0.60281 0.405538 -0.63271
O_ O_ 0.299232 0.655916 0.457306 -0.57982
O_ O_ 0.156689 0.652169 0.405142 -0.63271
O_ O_ 0.123954 0.575858 0.405306 -0.57982
F_ F_ 0.432683 0.817635 0.417976 -0.20885
F_ F_ 0.424568 0.803395 0.334644 -0.20885
F_ F_ 0.365254 0.791692 0.384368 -0.20885
F_ F_ 0.307722 0.917558 0.313308 -0.20885
F_ F_ 0.323642 0.833484 0.30457 -0.20885
F_ F_ 0.378737 0.883573 0.281409 -0.20885
F_ F_ 0.0645856 0.664851 0.0596566 -0.20885
F_ F_ 0.0722482 0.682643 0.145757 -0.20885
F_ F_ 0.130213 0.70281 0.0971085 -0.20885
F_ F_ 0.185386 0.565224 0.17006 -0.20885
F_ F_ 0.167951 0.64885 0.184217 -0.20885
F_ F_ 0.108185 0.599708 0.195685 -0.20885
Zn Zn 0.0876505 0.587253 0.847604 0.83971
Zn Zn 0.163361 0.848472 0.58499 0.83971
Zn Zn 0.405061 0.914166 0.652118 0.83971
Zn Zn 0.339382 0.663685 0.924098 0.83971
H_ H_ 0.159823 0.63295 0.794156 0.10394
H_ H_ 0.23563 0.594133 0.754164 0.10394
H_ H_ 0.208533 0.954308 0.783349 0.10394
H_ H_ 0.134057 0.484534 0.834691 0.10394
H_ H_ 0.527368 0.598646 0.742406 0.10394
H_ H_ 0.478377 0.667269 0.700891 0.10394
H_ H_ 0.0327533 0.771752 0.835284 0.10394
H_ H_ 0.0659375 0.693958 0.877638 0.10394
H_ H_ 0.0399647 0.946165 0.873497 0.10394
H_ H_ 0.474389 0.881193 0.860065 0.10394
H_ H_ 0.352177 0.993049 0.908925 0.10394
H_ H_ 0.0867741 0.808329 0.636195 0.10394
H_ H_ 0.50628 0.753478 0.596001 0.10394
H_ H_ 0.0313805 0.795673 0.943831 0.10394
H_ H_ 0.119134 0.815768 0.480223 0.10394
H_ H_ 0.225559 0.749563 0.601595 0.10394
H_ H_ 0.252935 0.70243 0.676732 0.10394
H_ H_ 0.220472 0.842366 0.769763 0.10394
H_ H_ 0.192727 0.885126 0.687361 0.10394
H_ H_ 0.20999 0.895195 0.952183 0.10394
H_ H_ 0.262352 0.891478 0.879683 0.10394
H_ H_ 0.395016 0.901475 0.984999 0.10394
H_ H_ 0.302609 0.907575 0.649023 0.10394
H_ H_ 0.229044 0.961686 0.686922 0.10394
H_ H_ 0.322566 0.554011 0.766908 0.10394
H_ H_ 0.405575 -0.004958000000000018 0.738625 0.10394
H_ H_ 0.0108907 0.886247 0.700136 0.10394
H_ H_ 0.049382 0.811457 0.738651 0.10394
H_ H_ 0.399138 0.760823 0.747487 0.10394
H_ H_ 0.362662 0.839481 0.702724 0.10394
H_ H_ 0.470801 0.55694 0.623454 0.10394
H_ H_ 0.0171723 0.615166 0.586182 0.10394
H_ H_ 0.143291 0.502811 0.57612 0.10394
H_ H_ 0.441331 0.663053 0.914127 0.10394
H_ H_ 0.010296 0.710611 0.93695 0.10394
H_ H_ 0.417453 0.784863 0.53288 0.10394
H_ H_ 0.34199 0.749111 0.00903868 0.10394
H_ H_ 0.230973 0.691479 0.884198 0.10394
H_ H_ 0.192679 0.743251 0.812522 0.10394
H_ H_ 0.3369 0.715397 0.747688 0.10394
H_ H_ 0.376466 0.685529 0.827271 0.10394
H_ H_ 0.286965 0.63039 0.556342 0.10394
H_ H_ 0.223736 0.631989 0.615386 0.10394
H_ H_ 0.11104 0.587122 0.501593 0.10394
C_ C_ 0.169892 0.592304 0.794314 0.18167
C_ C_ 0.213314 0.571191 0.771371 -0.15533
C_ C_ 0.23023 0.519162 0.772796 0.02923
C_ C_ 0.19699 0.993783 0.782709 -0.15533
C_ C_ 0.155696 0.509083 0.815528 0.18167
C_ C_ 0.0343467 0.637992 0.768975 0.18167
C_ C_ 0.500442 0.675582 0.738072 -0.15533
C_ C_ 0.00855988 0.730066 0.767189 0.02923
C_ C_ 0.0314616 0.73612 0.817057 -0.15533
C_ C_ 0.0564127 0.692891 0.840055 0.18167
C_ C_ 0.0103763 0.554257 0.880084 0.69207
C_ C_ 0.472293 0.00903982 0.870212 0.02923
C_ C_ 0.486012 0.958155 0.856161 -0.15533
C_ C_ 0.456602 0.919532 0.868662 -0.15533
C_ C_ 0.407953 0.930527 0.886842 0.02923
C_ C_ 0.391982 0.98128 0.896663 -0.15533
C_ C_ 0.419252 0.0201371 0.882367 0.02923
C_ C_ 0.396041 0.579451 0.892789 0.69207
C_ C_ 0.3912 0.836877 0.882843 0.69661
C_ C_ 0.0758284 0.804315 0.595185 0.18167
C_ C_ 0.0308217 0.779653 0.57835 -0.15533
C_ C_ 0.0151741 0.776623 0.525727 0.02923
C_ C_ 0.0444098 0.79141 0.983883 -0.15533
C_ C_ 0.092691 0.809614 0.509347 0.18167
C_ C_ 0.21866 0.766883 0.638428 0.18167
C_ C_ 0.240516 0.742562 0.680374 -0.15533
C_ C_ 0.241631 0.768501 0.728665 0.02923
C_ C_ 0.220228 0.820085 0.731728 -0.15533
C_ C_ 0.204375 0.843149 0.685587 0.18167
C_ C_ 0.239218 0.875971 0.538139 0.69207
C_ C_ 0.271402 0.898962 0.0102435 0.02923
C_ C_ 0.250955 0.89853 0.960306 -0.15533
C_ C_ 0.279718 0.899286 0.917975 -0.15533
C_ C_ 0.332653 0.899416 0.925409 0.02923
C_ C_ 0.354418 0.901863 0.97787 -0.15533
C_ C_ 0.326107 0.900894 0.0210815 0.02923
C_ C_ 0.351775 0.878957 0.564965 0.69207
C_ C_ 0.340542 0.895985 0.825994 0.69661
C_ C_ 0.307996 0.942711 0.673813 0.18167
C_ C_ 0.267234 0.965747 0.699744 -0.15533
C_ C_ 0.276313 1.0016889 0.739463 0.02923
C_ C_ 0.318685 0.517471 0.743633 -0.15533
C_ C_ 0.367629 0.987317 0.728915 0.18167
C_ C_ 0.48329 0.834911 0.676307 0.18167
C_ C_ 0.00867507 0.815307 0.732384 -0.15533
C_ C_ 0.47539 0.770523 0.731992 0.02923
C_ C_ 0.422926 0.783381 0.730005 -0.15533
C_ C_ 0.402674 0.825819 0.702186 0.18167
C_ C_ 0.475746 0.950798 0.609665 0.69207
C_ C_ 0.0284592 0.491084 0.616927 0.02923
C_ C_ 1.00620798 0.540938 0.607469 -0.15533
C_ C_ 0.0355746 0.578639 0.593566 -0.15533
C_ C_ 0.087888 0.566174 0.5869 0.02923
C_ C_ 0.107472 0.513852 0.585453 -0.15533
C_ C_ 0.0814754 0.478134 0.606666 0.02923
C_ C_ 0.100687 0.928417 0.606356 0.69207
C_ C_ 0.0983618 0.669605 0.599935 0.69661
C_ C_ 0.433609 0.694942 0.940055 0.18167
C_ C_ 0.475875 0.713512 0.964247 -0.15533
C_ C_ 0.469317 0.750965 0.00268949 0.02923
C_ C_ 0.424314 0.750676 0.507505 -0.15533
C_ C_ 0.380008 0.739104 0.998004 0.18167
C_ C_ 0.253931 0.702672 0.855536 0.18167
C_ C_ 0.232479 0.732624 0.814024 -0.15533
C_ C_ 0.263453 0.742817 0.77497 0.02923
C_ C_ 0.316061 0.721089 0.780125 -0.15533
C_ C_ 0.335927 0.699178 0.824607 0.18167
C_ C_ 0.259725 0.635342 0.960774 0.69207
C_ C_ 0.232225 0.617176 0.490209 0.02923
C_ C_ 0.248655 0.626158 0.542528 -0.15533
C_ C_ 0.21386 0.619131 0.577109 -0.15533
C_ C_ 0.165524 0.606347 0.563654 0.02923
C_ C_ 0.149992 0.595082 0.512561 -0.15533
C_ C_ 0.182092 0.603501 0.47469 0.02923
C_ C_ 0.148072 0.61947 0.929314 0.69207
C_ C_ 0.145381 0.599139 0.655554 0.69661
C_ C_ 0.367923 0.892973 0.882055 -0.30787
C_ C_ 0.124134 0.612012 0.59945 -0.30787
N_ N_ 0.139103 0.560115 0.812211 -0.32189
N_ N_ 0.0569042 0.645222 0.817112 -0.32189
N_ N_ 0.109028 0.812353 0.560945 -0.32189
N_ N_ 0.20108 0.816379 0.639531 -0.32189
N_ N_ 0.3576 0.95155 0.692183 -0.32189
N_ N_ 0.43253 0.849647 0.674604 -0.32189
N_ N_ 0.386642 0.706461 0.955732 -0.32189
N_ N_ 0.305052 0.691986 0.863323 -0.32189
O_ O_ 0.505241 0.599465 0.897013 -0.63271
O_ O_ 0.0419598 0.54127 0.846144 -0.57982
O_ O_ 0.384977 0.596667 0.848103 -0.63271
O_ O_ 0.378204 0.605188 0.932723 -0.57982
O_ O_ 0.244437 0.905918 0.580345 -0.63271
O_ O_ 0.199071 0.850064 0.530425 -0.57982
O_ O_ 0.341809 0.840566 0.591764 -0.63271
O_ O_ 0.368083 0.92035 0.587474 -0.57982
O_ O_ 0.991261 0.903452 0.601305 -0.63271
O_ O_ 0.459093 0.951442 0.654799 -0.57982
O_ O_ 0.0981883 0.901462 0.647405 -0.63271
O_ O_ 0.132839 0.912606 0.573622 -0.57982
O_ O_ 0.260811 0.605135 0.919536 -0.63271
O_ O_ 0.289381 0.671898 0.967264 -0.57982
O_ O_ 0.15221 0.659804 0.904909 -0.63271
O_ O_ 0.120468 0.584241 0.907958 -0.57982
F_ F_ 0.42996 0.831518 0.923815 -0.20885
F_ F_ 0.413218 0.815059 0.839351 -0.20885
F_ F_ 0.354988 0.804723 0.889713 -0.20885
F_ F_ 0.305723 0.938567 0.824079 -0.20885
F_ F_ 0.312607 0.855358 0.812216 -0.20885
F_ F_ 0.374152 0.89532 0.790706 -0.20885
F_ F_ 0.0678037 0.67301 0.554427 -0.20885
F_ F_ 0.0645801 0.680846 0.639672 -0.20885
F_ F_ 0.133563 0.707553 0.608838 -0.20885
F_ F_ 0.182483 0.55793 0.659498 -0.20885
F_ F_ 0.171648 0.63723 0.676603 -0.20885
F_ F_ 0.107446 0.598427 0.68903 -0.20885
Zn Zn 0.582828 0.0802483 0.343718 0.83971
Zn Zn 0.665344 0.347835 0.0936729 0.83971
Zn Zn 0.913128 0.412092 0.15762 0.83971
Zn Zn 0.837474 0.150787 0.425855 0.83971
H_ H_ 0.664987 0.127545 0.319704 0.10394
H_ H_ 0.75063 0.0968881 0.295399 0.10394
H_ H_ 0.719781 0.448211 0.30633 0.10394
H_ H_ 0.628646 0.975694 0.313778 0.10394
H_ H_ 0.0251559 0.0935587 0.254407 0.10394
H_ H_ 0.984659 0.169703 0.206537 0.10394
H_ H_ 0.526195 0.264698 0.337022 0.10394
H_ H_ 0.559285 0.187298 0.37808 0.10394
H_ H_ 0.535864 0.438678 0.380766 0.10394
H_ H_ 0.996375 0.386306 0.410285 0.10394
H_ H_ 0.857493 0.494041 0.413809 0.10394
H_ H_ 0.58402 0.307228 0.138722 0.10394
H_ H_ 0.999202 0.279722 0.099995 0.10394
H_ H_ 0.541092 0.264515 0.443587 0.10394
H_ H_ 0.622141 0.325089 0.991269 0.10394
H_ H_ 0.734403 0.255663 0.110666 0.10394
H_ H_ 0.766511 0.206551 0.184863 0.10394
H_ H_ 0.713757 0.334042 0.281202 0.10394
H_ H_ 0.685132 0.38147 0.205595 0.10394
H_ H_ 0.723362 0.385007 0.453605 0.10394
H_ H_ 0.779011 0.380456 0.385793 0.10394
H_ H_ 0.906192 0.397093 0.500076 0.10394
H_ H_ 0.812316 0.390995 0.164031 0.10394
H_ H_ 0.738836 0.438846 0.197139 0.10394
H_ H_ 0.836102 0.023066 0.301612 0.10394
H_ H_ 0.907713 0.500906 0.232462 0.10394
H_ H_ 0.500737 0.391679 0.220316 0.10394
H_ H_ 0.548612 0.314599 0.249166 0.10394
H_ H_ 0.908155 0.250763 0.243308 0.10394
H_ H_ 0.872106 0.326278 0.199069 0.10394
H_ H_ 0.951738 0.0558096 0.114887 0.10394
H_ H_ 0.52463 0.125624 0.117568 0.10394
H_ H_ 0.651259 0.00762547 0.103679 0.10394
H_ H_ 0.938167 0.156588 0.407079 0.10394
H_ H_ 0.51581 0.168913 0.4771 0.10394
H_ H_ 0.911855 0.2919 0.0438391 0.10394
H_ H_ 0.842284 0.231715 0.51027 0.10394
H_ H_ 0.730403 0.198387 0.397274 0.10394
H_ H_ 0.693922 0.248133 0.325363 0.10394
H_ H_ 0.837542 0.237821 0.266085 0.10394
H_ H_ 0.874141 0.188224 0.341089 0.10394
H_ H_ 0.787272 0.117736 0.0487995 0.10394
H_ H_ 0.735441 0.117111 0.11767 0.10394
H_ H_ 0.605605 0.0928106 0.012377 0.10394
C_ C_ 0.673282 0.0866588 0.308532 0.18167
C_ C_ 0.719903 0.0720391 0.290866 -0.15533
C_ C_ 0.730686 0.0200582 0.273239 0.02923
C_ C_ 0.708371 0.487504 0.300233 -0.15533
C_ C_ 0.649899 0.00359787 0.299637 0.18167
C_ C_ 0.538527 0.133995 0.258815 0.18167
C_ C_ 0.00164829 0.17589 0.24577 -0.15533
C_ C_ 0.510666 0.225967 0.261503 0.02923
C_ C_ 0.53218 0.22809 0.314296 -0.15533
C_ C_ 0.552312 0.185204 0.337657 0.18167
C_ C_ 0.499914 0.042787 0.354005 0.69207
C_ C_ 0.97395 0.511572 0.373903 0.02923
C_ C_ 0.998669 0.459321 0.379133 -0.15533
C_ C_ 0.973464 0.424125 0.400639 -0.15533
C_ C_ 0.920556 0.433158 0.40504 0.02923
C_ C_ 0.896396 0.485223 0.404962 -0.15533
C_ C_ 0.924693 0.524532 0.390498 0.02923
C_ C_ 0.890863 0.0678334 0.389273 0.69207
C_ C_ 0.917171 0.330495 0.398566 0.69661
C_ C_ 0.575534 0.302201 0.0975023 0.18167
C_ C_ 0.526567 0.289718 0.07695 -0.15533
C_ C_ 0.51721 0.27725 0.0227535 0.02923
C_ C_ 0.549079 0.271319 0.484673 -0.15533
C_ C_ 0.59761 0.311397 0.0150489 0.18167
C_ C_ 0.731728 0.272774 0.147795 0.18167
C_ C_ 0.747117 0.243767 0.189137 -0.15533
C_ C_ 0.741054 0.265336 0.238062 0.02923
C_ C_ 0.714196 0.313038 0.244379 -0.15533
C_ C_ 0.696591 0.340113 0.201136 0.18167
C_ C_ 0.742937 0.369223 0.051436 0.69207
C_ C_ 0.781982 0.371242 0.51467 0.02923
C_ C_ 0.763329 0.377957 0.462633 -0.15533
C_ C_ 0.796713 0.380764 0.424695 -0.15533
C_ C_ 0.848921 0.38866 0.439163 0.02923
C_ C_ 0.865989 0.389931 0.49035 -0.15533
C_ C_ 0.833628 0.377834 0.529758 0.02923
C_ C_ 0.853672 0.382097 0.0804968 0.69207
C_ C_ 0.866216 0.391999 0.342906 0.69661
C_ C_ 0.818828 0.421776 0.191942 0.18167
C_ C_ 0.775776 0.451358 0.20847 -0.15533
C_ C_ 0.780828 0.494039 0.244991 0.02923
C_ C_ 0.826944 0.00667648 0.264186 -0.15533
C_ C_ 0.871613 0.483446 0.233474 0.18167
C_ C_ 0.99508 0.34483 0.204136 0.18167
C_ C_ 0.510151 0.313705 0.233999 -0.15533
C_ C_ 0.984292 0.272745 0.252614 0.02923
C_ C_ 0.933058 0.280313 0.238761 -0.15533
C_ C_ 0.912408 0.324905 0.209444 0.18167
C_ C_ 0.996739 0.445935 0.129277 0.69207
C_ C_ 0.52997 0.995624 0.125497 0.02923
C_ C_ 0.510178 0.0468156 0.122451 -0.15533
C_ C_ 0.540536 0.0854364 0.117992 -0.15533
C_ C_ 0.593689 0.0729445 0.110833 0.02923
C_ C_ 0.611335 0.01908 0.109083 -0.15533
C_ C_ 0.580587 0.980939 0.116353 0.02923
C_ C_ 0.603876 0.426152 0.116657 0.69207
C_ C_ 0.609538 0.169604 0.108943 0.69661
C_ C_ 0.934725 0.176904 0.441256 0.18167
C_ C_ 0.978125 0.195918 0.467768 -0.15533
C_ C_ 0.971133 0.232794 0.509879 0.02923
C_ C_ 0.919837 0.261473 0.0145215 -0.15533
C_ C_ 0.880097 0.225402 0.494524 0.18167
C_ C_ 0.755092 0.207071 0.367829 0.18167
C_ C_ 0.734716 0.234145 0.325428 -0.15533
C_ C_ 0.760896 0.237099 0.283663 0.02923
C_ C_ 0.813808 0.221408 0.289142 -0.15533
C_ C_ 0.834645 0.198553 0.335906 0.18167
C_ C_ 0.761111 0.117468 0.45674 0.69207
C_ C_ 0.726616 0.115149 0.98862 0.02923
C_ C_ 0.749037 0.111308 0.0388577 -0.15533
C_ C_ 0.719876 0.104321 0.0812245 -0.15533
C_ C_ 0.6673 0.102364 0.0719216 0.02923
C_ C_ 0.646508 0.100527 0.0201238 -0.15533
C_ C_ 0.674472 0.107459 0.978361 0.02923
C_ C_ 0.650177 0.100524 0.424034 0.69207
C_ C_ 0.657906 0.108997 0.168479 0.69661
C_ C_ 0.889194 0.38738 0.397832 -0.30787
C_ C_ 0.631459 0.114159 0.113824 -0.30787
N_ N_ 0.637896 0.0535318 0.307997 -0.32189
N_ N_ 0.554405 0.139846 0.309653 -0.32189
N_ N_ 0.609252 0.31402 0.0662961 -0.32189
N_ N_ 0.703091 0.319016 0.153652 -0.32189
N_ N_ 0.864175 0.441974 0.199837 -0.32189
N_ N_ 0.945451 0.351815 0.188529 -0.32189
N_ N_ 0.888757 0.187727 0.459524 -0.32189
N_ N_ 0.804995 0.18605 0.368523 -0.32189
O_ O_ -0.008442999999999978 0.0886356 0.385832 -0.63271
O_ O_ 0.538868 0.0347523 0.326765 -0.57982
O_ O_ 0.885759 0.0964429 0.348741 -0.63271
O_ O_ 0.865124 0.0832611 0.427034 -0.57982
O_ O_ 0.745392 0.397224 0.0935673 -0.63271
O_ O_ 0.707428 0.339021 0.0436853 -0.57982
O_ O_ 0.861219 0.338453 0.101404 -0.63271
O_ O_ 0.883933 0.416248 0.0944801 -0.57982
O_ O_ 0.487475 0.403602 0.110042 -0.63271
O_ O_ 0.964053 0.453988 0.164027 -0.57982
O_ O_ 0.603687 0.402903 0.157928 -0.63271
O_ O_ 0.638899 0.411158 0.0854802 -0.57982
O_ O_ 0.758198 0.0994462 0.410396 -0.63271
O_ O_ 0.792932 0.148775 0.470759 -0.57982
O_ O_ 0.644894 0.147763 0.406757 -0.63271
O_ O_ 0.613011 0.0734639 0.407504 -0.57982
F_ F_ 0.945426 0.3288 0.444771 -0.20885
F_ F_ 0.944815 0.317273 0.357065 -0.20885
F_ F_ 0.884255 0.294825 0.400518 -0.20885
F_ F_ 0.826528 0.427083 0.336175 -0.20885
F_ F_ 0.849682 0.34682 0.320944 -0.20885
F_ F_ 0.902954 0.404047 0.312086 -0.20885
F_ F_ 0.57554 0.175641 0.0674775 -0.20885
F_ F_ 0.582399 0.188497 0.151887 -0.20885
F_ F_ 0.647947 0.202101 0.106173 -0.20885
F_ F_ 0.686621 0.0621485 0.173527 -0.20885
F_ F_ 0.689065 0.146867 0.18263 -0.20885
F_ F_ 0.623485 0.114177 0.203171 -0.20885
Zn Zn 0.587344 0.0870371 0.843013 0.83971
Zn Zn 0.660629 0.336536 0.582039 0.83971
Zn Zn 0.915966 0.416068 0.662766 0.83971
Zn Zn 0.841254 0.15479 0.917374 0.83971
H_ H_ 0.659389 0.138233 0.79029 0.10394
H_ H_ 0.738369 0.1032 0.750211 0.10394
H_ H_ 0.71571 0.453884 0.791557 0.10394
H_ H_ 0.646816 0.991323 0.842331 0.10394
H_ H_ 0.045404 0.101536 0.75644 0.10394
H_ H_ 0.99612 0.17424 0.710428 0.10394
H_ H_ 0.534218 0.274813 0.83389 0.10394
H_ H_ 0.58539 0.199925 0.865866 0.10394
H_ H_ 0.536714 0.455323 0.88499 0.10394
H_ H_ 0.985354 0.386388 0.898163 0.10394
H_ H_ 0.853502 0.496559 0.91 0.10394
H_ H_ 0.576563 0.304253 0.632251 0.10394
H_ H_ 0.00444074 0.261904 0.608358 0.10394
H_ H_ 0.548247 0.284176 0.951156 0.10394
H_ H_ 0.615507 0.309075 0.480036 0.10394
H_ H_ 0.722733 0.237914 0.595916 0.10394
H_ H_ 0.757572 0.188424 0.667792 0.10394
H_ H_ 0.723118 0.329454 0.764769 0.10394
H_ H_ 0.680498 0.370112 0.687665 0.10394
H_ H_ 0.726452 0.351464 0.949926 0.10394
H_ H_ 0.774807 0.372233 0.884057 0.10394
H_ H_ 0.899445 0.39636 0.995845 0.10394
H_ H_ 0.807913 0.397115 0.665723 0.10394
H_ H_ 0.735819 0.445786 0.69965 0.10394
H_ H_ 0.830121 0.0529501 0.775323 0.10394
H_ H_ 0.910509 0.495993 0.742328 0.10394
H_ H_ 0.517067 0.374144 0.682589 0.10394
H_ H_ 0.556148 0.302007 0.726034 0.10394
H_ H_ 0.911456 0.25794 0.743858 0.10394
H_ H_ 0.875312 0.3394 0.705483 0.10394
H_ H_ 0.960857 0.0508016 0.608805 0.10394
H_ H_ 0.510935 0.118486 0.613705 0.10394
H_ H_ 0.63249 0.00444226 0.577188 0.10394
H_ H_ 0.942154 0.165181 0.905056 0.10394
H_ H_ 0.518869 0.206935 0.940573 0.10394
H_ H_ 0.915445 0.274888 0.553825 0.10394
H_ H_ 0.840354 0.24946 -0.002593999999999985 0.10394
H_ H_ 0.736567 0.20494 0.887229 0.10394
H_ H_ 0.697536 0.238192 0.809826 0.10394
H_ H_ 0.838542 0.222661 0.748955 0.10394
H_ H_ 0.880436 0.181488 0.825127 0.10394
H_ H_ 0.783567 0.0855917 0.556665 0.10394
H_ H_ 0.728598 0.107316 0.618808 0.10394
H_ H_ 0.60093 0.0924279 0.506463 0.10394
C_ C_ 0.673741 0.0986399 0.791768 0.18167
C_ C_ 0.719441 0.0794569 0.770784 -0.15533
C_ C_ 0.737233 0.0271962 0.773158 0.02923
C_ C_ 0.709453 0.494464 0.797305 -0.15533
C_ C_ 0.662911 0.0145914 0.81616 0.18167
C_ C_ 0.524235 0.140358 0.768999 0.18167
C_ C_ 0.0111029 0.17825 0.747867 -0.15533
C_ C_ 0.505178 0.230389 0.765109 0.02923
C_ C_ 0.529854 0.235797 0.815802 -0.15533
C_ C_ 0.556812 0.193798 0.837945 0.18167
C_ C_ 0.505065 0.0473904 0.859494 0.69207
C_ C_ 0.977776 0.514611 0.892722 0.02923
C_ C_ 0.999034 0.467182 0.909011 -0.15533
C_ C_ 0.968986 0.426548 0.907819 -0.15533
C_ C_ 0.914522 0.436376 0.905212 0.02923
C_ C_ 0.893147 0.486803 0.901618 -0.15533
C_ C_ 0.92267 0.525807 0.887944 0.02923
C_ C_ 0.901093 0.0692718 0.887775 0.69207
C_ C_ 0.90742 0.336431 0.888491 0.69661
C_ C_ 0.567628 0.297227 0.590092 0.18167
C_ C_ 0.526501 0.273396 0.571727 -0.15533
C_ C_ 0.514937 0.262304 0.520451 0.02923
C_ C_ 0.553486 0.292022 0.99064 -0.15533
C_ C_ 0.592436 0.292982 0.504104 0.18167
C_ C_ 0.719283 0.256517 0.633004 0.18167
C_ C_ 0.741662 0.228494 0.674551 -0.15533
C_ C_ 0.739167 0.254124 0.722262 0.02923
C_ C_ 0.71947 0.307755 0.727439 -0.15533
C_ C_ 0.69888 0.33099 0.683515 0.18167
C_ C_ 0.74647 0.361482 0.55169 0.69207
C_ C_ 0.780487 0.370096 1.0134912 0.02923
C_ C_ 0.764097 0.364955 0.96142 -0.15533
C_ C_ 0.792614 0.379524 0.923349 -0.15533
C_ C_ 0.842724 0.394553 0.933851 0.02923
C_ C_ 0.861462 0.392283 0.987652 -0.15533
C_ C_ 0.831091 0.384409 0.027734 0.02923
C_ C_ 0.854225 0.379773 0.581518 0.69207
C_ C_ 0.858066 0.400626 0.837036 0.69661
C_ C_ 0.814918 0.432181 0.688816 0.18167
C_ C_ 0.772197 0.461271 0.707858 -0.15533
C_ C_ 0.781269 0.502883 0.743227 0.02923
C_ C_ 0.826553 0.0163348 0.754414 -0.15533
C_ C_ 0.872126 0.491493 0.725275 0.18167
C_ C_ 0.99804 0.345798 0.696244 0.18167
C_ C_ 0.5125 0.310275 0.722655 -0.15533
C_ C_ 0.988304 0.273824 0.745975 0.02923
C_ C_ 0.935256 0.284555 0.735788 -0.15533
C_ C_ 0.91567 0.328811 0.712817 0.18167
C_ C_ 0.992657 0.452862 0.62475 0.69207
C_ C_ 0.510923 0.988005 0.5989 0.02923
C_ C_ 0.492607 0.0401381 0.606375 -0.15533
C_ C_ 0.5258 0.0774471 0.610154 -0.15533
C_ C_ 0.577153 0.0656021 0.595657 0.02923
C_ C_ 0.591966 0.0144131 0.583108 -0.15533
C_ C_ 0.562218 0.974465 0.587055 0.02923
C_ C_ 0.595513 0.417687 0.605274 0.69207
C_ C_ 0.593108 0.159517 0.600767 0.69661
C_ C_ 0.936573 0.190231 0.937367 0.18167
C_ C_ 0.977991 0.212098 0.960114 -0.15533
C_ C_ 0.969816 0.250065 -0.0034399999999999986 0.02923
C_ C_ 0.920203 0.248281 0.522228 -0.15533
C_ C_ 0.879942 0.234797 0.992485 0.18167
C_ C_ 0.758899 0.205926 0.85572 0.18167
C_ C_ 0.734957 0.222723 0.809467 -0.15533
C_ C_ 0.763267 0.228825 0.768429 0.02923
C_ C_ 0.815428 0.216341 0.777076 -0.15533
C_ C_ 0.84004 0.196011 0.823091 0.18167
C_ C_ 0.761866 0.125562 0.950377 0.69207
C_ C_ 0.727606 0.0980788 0.493186 0.02923
C_ C_ 0.74486 0.0955759 0.543855 -0.15533
C_ C_ 0.710745 0.102276 0.580821 -0.15533
C_ C_ 0.65844 0.099233 0.568943 0.02923
C_ C_ 0.641003 0.0936492 0.515832 -0.15533
C_ C_ 0.674301 0.0957359 0.478047 0.02923
C_ C_ 0.650321 0.109428 0.924563 0.69207
C_ C_ 0.6399 0.0994357 0.662468 0.69661
C_ C_ 0.878756 0.393278 0.894307 -0.30787
C_ C_ 0.616851 0.104378 0.60624 -0.30787
N_ N_ 0.647005 0.0646311 0.812232 -0.32189
N_ N_ 0.546731 0.146173 0.818838 -0.32189
N_ N_ 0.602615 0.303535 0.555605 -0.32189
N_ N_ 0.696141 0.30465 0.639201 -0.32189
N_ N_ 0.863168 0.447895 0.698443 -0.32189
N_ N_ 0.946605 0.357264 0.690438 -0.32189
N_ N_ 0.88977 0.195944 0.954578 -0.32189
N_ N_ 0.809956 0.191867 0.861448 -0.32189
O_ O_ 0.0106767 0.08932 0.906282 -0.63271
O_ O_ 0.547537 0.0327598 0.836126 -0.57982
O_ O_ 0.904611 0.0925794 0.846677 -0.63271
O_ O_ 0.875043 0.0933924 0.923561 -0.57982
O_ O_ 0.74575 0.384768 0.595555 -0.63271
O_ O_ 0.710234 0.329811 0.538667 -0.57982
O_ O_ 0.858396 0.338665 0.60918 -0.63271
O_ O_ 0.875594 0.420399 0.600799 -0.57982
O_ O_ 0.486563 0.411809 0.596959 -0.63271
O_ O_ 0.968737 0.458296 0.666483 -0.57982
O_ O_ 0.594592 0.395428 0.64885 -0.63271
O_ O_ 0.628162 0.397222 0.573889 -0.57982
O_ O_ 0.767404 0.096874 0.908193 -0.63271
O_ O_ 0.795609 0.158753 0.963491 -0.57982
O_ O_ 0.654093 0.149523 0.899171 -0.63271
O_ O_ 0.611091 0.0852133 0.909066 -0.57982
F_ F_ 0.936068 0.325118 0.934733 -0.20885
F_ F_ 0.942195 0.326994 0.85179 -0.20885
F_ F_ 0.872901 0.300485 0.879329 -0.20885
F_ F_ 0.82306 0.442489 0.830533 -0.20885
F_ F_ 0.830601 0.361333 0.813433 -0.20885
F_ F_ 0.895448 0.406494 0.80432 -0.20885
F_ F_ 0.557738 0.160953 0.557924 -0.20885
F_ F_ 0.565331 0.179423 0.6398 -0.20885
F_ F_ 0.628226 0.194142 0.599172 -0.20885
F_ F_ 0.669081 0.0522599 0.664964 -0.20885
F_ F_ 0.66844 0.139175 0.680837 -0.20885
F_ F_ 0.601793 0.100041 0.694621 -0.20885
Zn Zn 0.588842 0.579683 0.348478 0.83971
Zn Zn 0.659559 0.850038 0.0832648 0.83971
Zn Zn 0.90305 0.921828 0.157731 0.83971
Zn Zn 0.841724 0.662177 0.419083 0.83971
H_ H_ 0.656838 0.627834 0.286239 0.10394
H_ H_ 0.738311 0.590996 0.250443 0.10394
H_ H_ 0.704287 0.943132 0.272352 0.10394
H_ H_ 0.643535 0.484327 0.344132 0.10394
H_ H_ 0.0260114 0.606792 0.252269 0.10394
H_ H_ 0.987409 0.680932 0.21309 0.10394
H_ H_ 0.546275 0.763103 0.331991 0.10394
H_ H_ 0.5716 0.690584 0.384869 0.10394
H_ H_ 0.525567 0.939859 0.356239 0.10394
H_ H_ 0.978544 0.874573 0.395888 0.10394
H_ H_ 0.849699 0.982993 0.403499 0.10394
H_ H_ 0.58165 0.809293 0.132985 0.10394
H_ H_ 0.99278 0.778958 0.0929261 0.10394
H_ H_ 0.528627 0.796245 0.44435 0.10394
H_ H_ 0.615925 0.826225 0.98079 0.10394
H_ H_ 0.707333 0.74854 0.0973852 0.10394
H_ H_ 0.757337 0.700167 0.167846 0.10394
H_ H_ 0.726186 0.837126 0.263396 0.10394
H_ H_ 0.703162 0.887057 0.187007 0.10394
H_ H_ 0.713285 0.860797 0.436736 0.10394
H_ H_ 0.765551 0.88622 0.373036 0.10394
H_ H_ 0.892261 0.900493 0.48661 0.10394
H_ H_ 0.806016 0.959907 0.124703 0.10394
H_ H_ 0.730059 0.979982 0.174498 0.10394
H_ H_ 0.834433 0.54294 0.281189 0.10394
H_ H_ 0.908082 0.987759 0.253919 0.10394
H_ H_ 0.514529 0.884202 0.205287 0.10394
H_ H_ 0.552564 0.811295 0.257971 0.10394
H_ H_ 0.915837 0.756434 0.236567 0.10394
H_ H_ 0.876926 0.827617 0.185996 0.10394
H_ H_ 0.967046 0.5493 0.12372 0.10394
H_ H_ 0.507658 0.605423 0.0674609 0.10394
H_ H_ 0.640051 0.505738 0.0865917 0.10394
H_ H_ 0.945028 0.669514 0.395837 0.10394
H_ H_ 0.516107 0.682771 0.448588 0.10394
H_ H_ 0.908718 0.776894 0.0461363 0.10394
H_ H_ 0.845274 0.740351 0.500829 0.10394
H_ H_ 0.731309 0.696384 0.380161 0.10394
H_ H_ 0.692903 0.749359 0.309484 0.10394
H_ H_ 0.831435 0.733643 0.24009 0.10394
H_ H_ 0.877342 0.702579 0.324334 0.10394
H_ H_ 0.781094 0.61816 0.0522246 0.10394
H_ H_ 0.723154 0.608864 0.119341 0.10394
H_ H_ 0.600714 0.591295 0.000766351 0.10394
C_ C_ 0.671721 0.587904 0.292758 0.18167
C_ C_ 0.717959 0.56848 0.273865 -0.15533
C_ C_ 0.734395 0.516345 0.27176 0.02923
C_ C_ 0.693824 0.984896 0.276537 -0.15533
C_ C_ 0.663767 0.507301 0.32293 0.18167
C_ C_ 0.523765 0.631331 0.276151 0.18167
C_ C_ 0.00784647 0.685413 0.249515 -0.15533
C_ C_ 0.510243 0.723374 0.267027 0.02923
C_ C_ 0.533509 0.726971 0.317363 -0.15533
C_ C_ 0.554209 0.685793 0.345646 0.18167
C_ C_ 0.505095 0.541165 0.368792 0.69207
C_ C_ 0.9675 0.0029453 0.383142 0.02923
C_ C_ -0.012071000000000054 0.949345 0.382011 -0.15533
C_ C_ 0.958616 0.909325 0.381174 -0.15533
C_ C_ 0.907034 0.920507 0.387707 0.02923
C_ C_ 0.886573 0.973444 0.390127 -0.15533
C_ C_ 0.915221 0.0150359 0.38498 0.02923
C_ C_ 0.900517 0.578634 0.391308 0.69207
C_ C_ 0.898729 0.820994 0.38726 0.69661
C_ C_ 0.570673 0.807351 0.0920583 0.18167
C_ C_ 0.524426 0.790222 0.0731852 -0.15533
C_ C_ 0.511645 0.782376 0.0210678 0.02923
C_ C_ 0.544347 0.78848 0.484338 -0.15533
C_ C_ 0.59154 0.812675 0.00814043 0.18167
C_ C_ 0.718421 0.769302 0.131425 0.18167
C_ C_ 0.741029 0.739301 0.173172 -0.15533
C_ C_ 0.736038 0.764248 0.221998 0.02923
C_ C_ 0.722684 0.818183 0.22764 -0.15533
C_ C_ 0.709069 0.845247 0.184668 0.18167
C_ C_ 0.741666 0.872228 0.0478338 0.69207
C_ C_ 0.774068 0.866338 0.499705 0.02923
C_ C_ 0.754517 0.866276 0.448025 -0.15533
C_ C_ 0.78189 0.882117 0.412209 -0.15533
C_ C_ 0.834419 0.886576 0.421554 0.02923
C_ C_ 0.853098 0.892286 0.474558 -0.15533
C_ C_ 0.824593 0.882353 0.513704 0.02923
C_ C_ 0.856012 0.886268 0.0724784 0.69207
C_ C_ 0.846363 0.880778 0.32604 0.69661
C_ C_ 0.810346 0.966063 0.166725 0.18167
C_ C_ 0.769314 0.983746 0.192562 -0.15533
C_ C_ 0.776376 1.00527175 0.242892 0.02923
C_ C_ 0.829549 0.509622 0.257798 -0.15533
C_ C_ 0.868989 0.987282 0.238154 0.18167
C_ C_ 0.994379 0.858213 0.199388 0.18167
C_ C_ 0.515886 0.811032 0.238176 -0.15533
C_ C_ 0.988054 0.782112 0.246121 0.02923
C_ C_ 0.936596 0.784349 0.224726 -0.15533
C_ C_ 0.916564 0.824765 0.196728 0.18167
C_ C_ 0.977137 0.956001 0.1199 0.69207
C_ C_ 0.520678 0.486365 0.114943 0.02923
C_ C_ 0.497414 0.537038 0.106089 -0.15533
C_ C_ 0.525827 0.573958 0.0904197 -0.15533
C_ C_ 0.578813 0.562872 0.0884819 0.02923
C_ C_ 0.599697 0.513198 0.089398 -0.15533
C_ C_ 0.574253 0.475443 0.108758 0.02923
C_ C_ 0.601711 0.92897 0.111938 0.69207
C_ C_ 0.585927 0.659253 0.0985599 0.69661
C_ C_ 0.938453 0.691407 0.433608 0.18167
C_ C_ 0.979145 0.71173 0.458998 -0.15533
C_ C_ 0.971849 0.746735 0.503084 0.02923
C_ C_ 0.918009 0.754276 1.0118077 -0.15533
C_ C_ 0.8844 0.730852 0.492731 0.18167
C_ C_ 0.754049 0.701758 0.35061 0.18167
C_ C_ 0.73116 0.732198 0.309198 -0.15533
C_ C_ 0.757588 0.736469 0.266547 0.02923
C_ C_ 0.812383 0.724973 0.274579 -0.15533
C_ C_ 0.835526 0.703974 0.319187 0.18167
C_ C_ 0.761357 0.626153 0.449404 0.69207
C_ C_ 0.722877 0.613913 0.99093 0.02923
C_ C_ 0.739451 0.613979 0.0422903 -0.15533
C_ C_ 0.707993 0.60298 0.07988 -0.15533
C_ C_ 0.655381 0.601114 0.0665137 0.02923
C_ C_ 0.639638 0.597687 0.0145059 -0.15533
C_ C_ 0.671014 0.605178 0.976376 0.02923
C_ C_ 0.653335 0.593515 0.423781 0.69207
C_ C_ 0.636599 0.603852 0.161193 0.69661
C_ C_ 0.871282 0.877475 0.380967 -0.30787
C_ C_ 0.61462 0.606111 0.104014 -0.30787
N_ N_ 0.642086 0.555453 0.310445 -0.32189
N_ N_ 0.550946 0.638493 0.322978 -0.32189
N_ N_ 0.604534 0.815458 0.0581328 -0.32189
N_ N_ 0.701421 0.81935 0.137541 -0.32189
N_ N_ 0.857498 0.965226 0.190599 -0.32189
N_ N_ 0.943018 0.863313 0.186318 -0.32189
N_ N_ 0.891806 0.702274 0.448363 -0.32189
N_ N_ 0.806553 0.694209 0.35753 -0.32189
O_ O_ 0.00591487 0.595825 0.39486 -0.63271
O_ O_ 0.543754 0.530836 0.343039 -0.57982
O_ O_ 0.895024 0.603236 0.347731 -0.63271
O_ O_ 0.875535 0.600054 0.428589 -0.57982
O_ O_ 0.746931 0.896585 0.0923432 -0.63271
O_ O_ 0.701145 0.848289 0.0369107 -0.57982
O_ O_ 0.853117 0.847453 0.0994946 -0.63271
O_ O_ 0.882845 0.92312 0.0903037 -0.57982
O_ O_ 0.49763 0.911115 0.107138 -0.63271
O_ O_ 0.950136 0.964071 0.159154 -0.57982
O_ O_ 0.604079 0.899047 0.15032 -0.63271
O_ O_ 0.632 0.917054 0.076188 -0.57982
O_ O_ 0.767136 0.593146 0.409192 -0.63271
O_ O_ 0.793689 0.660882 0.461459 -0.57982
O_ O_ 0.655104 0.637121 0.400446 -0.63271
O_ O_ 0.618263 0.56396 0.407967 -0.57982
F_ F_ 0.93022 0.821742 0.434302 -0.20885
F_ F_ 0.926396 0.803397 0.348499 -0.20885
F_ F_ 0.860926 0.789754 0.389692 -0.20885
F_ F_ 0.810635 0.921581 0.322303 -0.20885
F_ F_ 0.82087 0.83946 0.304471 -0.20885
F_ F_ 0.877266 0.889862 0.290533 -0.20885
F_ F_ 0.561866 0.666581 0.049682 -0.20885
F_ F_ 0.551861 0.67506 0.135001 -0.20885
F_ F_ 0.619346 0.696835 0.105964 -0.20885
F_ F_ 0.672891 0.562781 0.168985 -0.20885
F_ F_ 0.662739 0.645189 0.181229 -0.20885
F_ F_ 0.598198 0.596141 0.190746 -0.20885
Zn Zn 0.590688 0.585034 0.841211 0.83971
Zn Zn 0.65616 0.843905 0.578797 0.83971
Zn Zn 0.906091 0.912382 0.653987 0.83971
Zn Zn 0.832574 0.661863 0.914033 0.83971
H_ H_ 0.667768 0.636348 0.80034 0.10394
H_ H_ 0.745551 0.603878 0.764335 0.10394
H_ H_ 0.720378 0.952591 0.795382 0.10394
H_ H_ 0.634349 0.48656 0.820589 0.10394
H_ H_ 0.0329537 0.599328 0.752733 0.10394
H_ H_ 0.983468 0.675519 0.70693 0.10394
H_ H_ 0.514171 0.767574 0.8301 0.10394
H_ H_ 0.57205 0.695075 0.871367 0.10394
H_ H_ 0.524464 0.943332 0.846499 0.10394
H_ H_ 0.98394 0.878625 0.874025 0.10394
H_ H_ 0.857751 0.989608 0.913966 0.10394
H_ H_ 0.587353 0.779373 0.628458 0.10394
H_ H_ 0.00317257 0.774075 0.602657 0.10394
H_ H_ 0.53221 0.799975 0.948198 0.10394
H_ H_ 0.607908 0.831822 0.479907 0.10394
H_ H_ 0.722848 0.754095 0.590863 0.10394
H_ H_ 0.746628 0.700194 0.666709 0.10394
H_ H_ 0.700898 0.830737 0.764478 0.10394
H_ H_ 0.670008 0.878462 0.689199 0.10394
H_ H_ 0.721906 0.861921 0.947658 0.10394
H_ H_ 0.772192 0.872222 0.87927 0.10394
H_ H_ 0.893583 0.909651 0.991236 0.10394
H_ H_ 0.802213 0.906969 0.653878 0.10394
H_ H_ 0.732043 0.953948 0.690743 0.10394
H_ H_ 0.839239 0.550197 0.77681 0.10394
H_ H_ 0.905272 0.998126 0.735641 0.10394
H_ H_ 0.508715 0.855359 0.659472 0.10394
H_ H_ 0.544343 0.783631 0.709068 0.10394
H_ H_ 0.908715 0.749039 0.727137 0.10394
H_ H_ 0.867401 0.823563 0.683178 0.10394
H_ H_ 0.968647 0.552664 0.618849 0.10394
H_ H_ 0.522974 0.617678 0.601937 0.10394
H_ H_ 0.648077 0.499203 0.585173 0.10394
H_ H_ 0.940553 0.667143 0.89136 0.10394
H_ H_ 0.510292 0.707925 0.944261 0.10394
H_ H_ 0.917084 0.781762 0.550889 0.10394
H_ H_ 0.84259 0.734149 1.000274242 0.10394
H_ H_ 0.726586 0.701133 0.883487 0.10394
H_ H_ 0.681652 0.744667 0.807838 0.10394
H_ H_ 0.82688 0.734908 0.74352 0.10394
H_ H_ 0.866948 0.69382 0.816638 0.10394
H_ H_ 0.780647 0.63496 0.550242 0.10394
H_ H_ 0.739791 0.605407 0.616908 0.10394
H_ H_ 0.615605 0.5706 0.504937 0.10394
C_ C_ 0.679668 0.596729 0.799693 0.18167
C_ C_ 0.726149 0.578264 0.781184 -0.15533
C_ C_ 0.740866 0.526077 0.777492 0.02923
C_ C_ 0.707672 0.994766 0.795591 -0.15533
C_ C_ 0.660988 0.511443 0.814603 0.18167
C_ C_ 0.526768 0.635237 0.762756 0.18167
C_ C_ 0.00368186 0.680637 0.745242 -0.15533
C_ C_ 0.49965 0.725103 0.760207 0.02923
C_ C_ 0.524135 0.730957 0.810248 -0.15533
C_ C_ 0.549903 0.688333 0.835246 0.18167
C_ C_ 0.506513 0.555575 0.86883 0.69207
C_ C_ 0.979102 0.0082548 0.883608 0.02923
C_ C_ -0.0010829999999999451 0.955933 0.880068 -0.15533
C_ C_ 0.967513 0.916145 0.882212 -0.15533
C_ C_ 0.915272 0.928094 0.894646 0.02923
C_ C_ 0.898339 0.978451 0.903729 -0.15533
C_ C_ 0.927696 0.0185628 0.895192 0.02923
C_ C_ 0.900154 0.578652 0.886777 0.69207
C_ C_ 0.902846 0.83146 0.887385 0.69661
C_ C_ 0.574161 0.786535 0.588181 0.18167
C_ C_ 0.52874 0.76668 0.568238 -0.15533
C_ C_ 0.514412 0.766697 0.516197 0.02923
C_ C_ 0.543076 0.797184 0.987905 -0.15533
C_ C_ 0.58937 0.806922 0.503734 0.18167
C_ C_ 0.713208 0.767676 0.630704 0.18167
C_ C_ 0.727744 0.739177 0.672469 -0.15533
C_ C_ 0.722926 0.761104 0.722024 0.02923
C_ C_ 0.701698 0.811874 0.727392 -0.15533
C_ C_ 0.683434 0.83863 0.68293 0.18167
C_ C_ 0.735551 0.86566 0.538095 0.69207
C_ C_ 0.775899 0.878796 1.00795914 0.02923
C_ C_ 0.758755 0.869545 0.957756 -0.15533
C_ C_ 0.790331 0.87747 0.917947 -0.15533
C_ C_ 0.83916 0.892255 0.928797 0.02923
C_ C_ 0.85812 0.89744 0.980739 -0.15533
C_ C_ 0.827749 0.889876 0.0201725 0.02923
C_ C_ 0.84959 0.881841 0.570609 0.69207
C_ C_ 0.850738 0.892762 0.832048 0.69661
C_ C_ 0.81089 0.937601 0.682336 0.18167
C_ C_ 0.771067 0.96519 0.703757 -0.15533
C_ C_ 0.777756 0.000544733 0.742241 0.02923
C_ C_ 0.831453 0.517427 0.751505 -0.15533
C_ C_ 0.867758 0.987869 0.729047 0.18167
C_ C_ 0.987185 0.854831 0.703418 0.18167
C_ C_ 0.50539 0.79768 0.707774 -0.15533
C_ C_ 0.981699 0.777548 0.742678 0.02923
C_ C_ 0.930724 0.778164 0.722623 -0.15533
C_ C_ 0.907578 0.818994 0.695688 0.18167
C_ C_ 0.989425 0.94947 0.623111 0.69207
C_ C_ 0.523337 0.489717 0.616158 0.02923
C_ C_ 0.508806 0.542506 0.620413 -0.15533
C_ C_ 0.53859 0.577176 0.604296 -0.15533
C_ C_ 0.590413 0.561138 0.596493 0.02923
C_ C_ 0.608428 0.508777 0.592603 -0.15533
C_ C_ 0.574767 0.472585 0.602621 0.02923
C_ C_ 0.586782 0.920521 0.589178 0.69207
C_ C_ 0.609825 0.655296 0.597464 0.69661
C_ C_ 0.934878 0.688196 0.927471 0.18167
C_ C_ 0.972276 0.717425 0.94936 -0.15533
C_ C_ 0.965785 0.750843 0.993367 0.02923
C_ C_ 0.923074 0.757044 0.519264 -0.15533
C_ C_ 0.878245 0.73211 0.984421 0.18167
C_ C_ 0.748257 0.704002 0.851302 0.18167
C_ C_ 0.721958 0.730953 0.809592 -0.15533
C_ C_ 0.749158 0.732947 0.766394 0.02923
C_ C_ 0.800716 0.724467 0.772391 -0.15533
C_ C_ 0.823807 0.696906 0.813321 0.18167
C_ C_ 0.758662 0.626506 0.953697 0.69207
C_ C_ 0.728227 0.612142 0.487913 0.02923
C_ C_ 0.747145 0.618475 0.540218 -0.15533
C_ C_ 0.719517 0.603175 0.578312 -0.15533
C_ C_ 0.670198 0.588397 0.566922 0.02923
C_ C_ 0.654374 0.576827 0.51523 -0.15533
C_ C_ 0.680811 0.588578 0.474534 0.02923
C_ C_ 0.650672 0.60808 0.923556 0.69207
C_ C_ 0.650286 0.595262 0.663661 0.69661
C_ C_ 0.878088 0.885871 0.887496 -0.30787
C_ C_ 0.630047 0.598858 0.605714 -0.30787
N_ N_ 0.64676 0.562853 0.810724 -0.32189
N_ N_ 0.548303 0.641444 0.811468 -0.32189
N_ N_ 0.602213 0.807017 0.556141 -0.32189
N_ N_ 0.69353 0.817036 0.636519 -0.32189
N_ N_ 0.859207 0.945764 0.698923 -0.32189
N_ N_ 0.937906 0.855067 0.684529 -0.32189
N_ N_ 0.885749 0.702005 0.93962 -0.32189
N_ N_ 0.797626 0.689767 0.852797 -0.32189
O_ O_ 1.011512 0.596589 0.909904 -0.63271
O_ O_ 0.53781 0.543803 0.834201 -0.57982
O_ O_ 0.896766 0.603168 0.845613 -0.63271
O_ O_ 0.866921 0.596785 0.91939 -0.57982
O_ O_ 0.738037 0.8925 0.581665 -0.63271
O_ O_ 0.702403 0.832403 0.532112 -0.57982
O_ O_ 0.849415 0.841421 0.596674 -0.63271
O_ O_ 0.871483 0.92052 0.59217 -0.57982
O_ O_ 0.461995 0.914787 0.573828 -0.63271
O_ O_ 0.955607 0.9593 0.656476 -0.57982
O_ O_ 0.578917 0.894076 0.6288 -0.63271
O_ O_ 0.629125 0.907095 0.567487 -0.57982
O_ O_ 0.753682 0.606379 0.907229 -0.63271
O_ O_ 0.787693 0.664421 0.965814 -0.57982
O_ O_ 0.654171 0.648121 0.897788 -0.63271
O_ O_ 0.616459 0.579033 0.90635 -0.57982
F_ F_ 0.930051 0.82608 0.932596 -0.20885
F_ F_ 0.93311 0.813141 0.847273 -0.20885
F_ F_ 0.866971 0.796654 0.882607 -0.20885
F_ F_ 0.818177 0.937043 0.829517 -0.20885
F_ F_ 0.824804 0.852895 0.812517 -0.20885
F_ F_ 0.885114 0.893592 0.796727 -0.20885
F_ F_ 0.579999 0.659622 0.549944 -0.20885
F_ F_ 0.579867 0.675498 0.635759 -0.20885
F_ F_ 0.648954 0.688757 0.592639 -0.20885
F_ F_ 0.682072 0.55007 0.671078 -0.20885
F_ F_ 0.678488 0.635509 0.68437 -0.20885
F_ F_ 0.60924 0.595459 0.693311 -0.20885
