_cell_length_a 26.508
_cell_length_b 26.37200000322088
_cell_length_c 26.311999743092066
_cell_angle_alpha 93.74100058972084
_cell_angle_beta 96.04100104955006
_cell_angle_gamma 83.6869992558723
_symmetry_space_group_name_H-M         'P 1'
_symmetry_Int_Tables_number            1
loop_
_symmetry_equiv_pos_as_xyz
   'x, y, z'
                         
loop_
_atom_site_label
_atom_site_type_symbol
_atom_site_fract_x 
_atom_site_fract_y
_atom_site_fract_z
_atom_site_charge
Zn Zn 0.0831684 0.082073 0.349955 0.83971
Zn Zn 0.160626 0.343125 0.082515 0.83971
Zn Zn 0.417689 0.415678 0.153748 0.83971
Zn Zn 0.334288 0.157697 0.41591 0.83971
H_ H_ 0.164156 0.132161 0.306557 0.10394
H_ H_ 0.242449 0.0954827 0.271497 0.10394
H_ H_ 0.226217 0.446132 0.296879 0.10394
H_ H_ 0.125215 0.979621 0.32047 0.10394
H_ H_ 0.530726 0.0982453 0.255726 0.10394
H_ H_ 0.487781 0.16467 0.207556 0.10394
H_ H_ 0.0388271 0.269081 0.335505 0.10394
H_ H_ 0.0741796 0.186641 0.37677 0.10394
H_ H_ 0.0358748 0.441355 0.39443 0.10394
H_ H_ 0.493736 0.393698 0.410741 0.10394
H_ H_ 0.354515 0.487721 0.404784 0.10394
H_ H_ 0.0873237 0.298568 0.135047 0.10394
H_ H_ 0.505668 0.263284 0.106165 0.10394
H_ H_ 0.0330997 0.275937 0.442419 0.10394
H_ H_ 0.114983 0.33044 0.986818 0.10394
H_ H_ 0.217827 0.248478 0.0900971 0.10394
H_ H_ 0.253909 0.197679 0.161078 0.10394
H_ H_ 0.209939 0.327821 0.262238 0.10394
H_ H_ 0.172308 0.376154 0.188944 0.10394
H_ H_ 0.233693 0.327467 0.433214 0.10394
H_ H_ 0.290597 0.346833 0.36789 0.10394
H_ H_ 0.393822 0.410703 0.487372 0.10394
H_ H_ 0.312529 0.39215 0.162831 0.10394
H_ H_ 0.237895 0.440737 0.199464 0.10394
H_ H_ 0.326855 0.0270493 0.299321 0.10394
H_ H_ 0.407221 0.500576 0.231988 0.10394
H_ H_ 0.0184073 0.36961 0.174998 0.10394
H_ H_ 0.062556 0.298379 0.222772 0.10394
H_ H_ 0.416773 0.25221 0.244725 0.10394
H_ H_ 0.376385 0.326205 0.19312 0.10394
H_ H_ 0.456988 0.0633172 0.105624 0.10394
H_ H_ 0.0185487 0.117231 0.107085 0.10394
H_ H_ 0.141519 0.00264843 0.0809873 0.10394
H_ H_ 0.431752 0.162915 0.403598 0.10394
H_ H_ 0.0189237 0.187746 0.453576 0.10394
H_ H_ 0.415531 0.278508 0.0561947 0.10394
H_ H_ 0.337183 0.243757 0.504879 0.10394
H_ H_ 0.2266 0.198639 0.378142 0.10394
H_ H_ 0.186156 0.23784 0.299908 0.10394
H_ H_ 0.331801 0.211039 0.238182 0.10394
H_ H_ 0.37342 0.184334 0.321259 0.10394
H_ H_ 0.28949 0.124854 0.0602974 0.10394
H_ H_ 0.230537 0.107216 0.121691 0.10394
H_ H_ 0.111236 0.0977598 0.00272986 0.10394
C_ C_ 0.172283 0.0890981 0.301659 0.18167
C_ C_ 0.215884 0.0700611 0.278147 -0.15533
C_ C_ 0.227083 0.0168322 0.269248 0.02923
C_ C_ 0.212336 0.484898 0.293702 -0.15533
C_ C_ 0.149381 0.00546000000000002 0.305852 0.18167
C_ C_ 0.0260461 0.129929 0.269329 0.18167
C_ C_ 0.507422 0.17373 0.243728 -0.15533
C_ C_ 0.0131142 0.222329 0.263687 0.02923
C_ C_ 0.0342152 0.22936 0.314138 -0.15533
C_ C_ 0.0502131 0.185343 0.340215 0.18167
C_ C_ 0.00444297 0.0406077 0.36713 0.69207
C_ C_ 0.470951 0.514211 0.371839 0.02923
C_ C_ 0.495346 0.464216 0.377812 -0.15533
C_ C_ 0.470665 0.427577 0.398149 -0.15533
C_ C_ 0.417115 0.43483 0.399668 0.02923
C_ C_ 0.393307 0.484685 0.39535 -0.15533
C_ C_ 0.419458 0.525246 0.384017 0.02923
C_ C_ 0.38804 0.0733717 0.396269 0.69207
C_ C_ 0.41838 0.337647 0.383289 0.69661
C_ C_ 0.076812 0.293494 0.0940529 0.18167
C_ C_ 0.0333736 0.268617 0.074224 -0.15533
C_ C_ 0.02412 0.261159 0.0209649 0.02923
C_ C_ 0.0456575 0.28094 0.483266 -0.15533
C_ C_ 0.0945785 0.309755 0.00812682 0.18167
C_ C_ 0.219955 0.267479 0.127586 0.18167
C_ C_ 0.236504 0.236681 0.168125 -0.15533
C_ C_ 0.237638 0.259518 0.218774 0.02923
C_ C_ 0.21943 0.311931 0.224805 -0.15533
C_ C_ 0.197991 0.339172 0.182516 0.18167
C_ C_ 0.246134 0.363282 0.0482257 0.69207
C_ C_ 0.277905 0.366131 0.496919 0.02923
C_ C_ 0.267446 0.348308 0.445387 -0.15533
C_ C_ 0.299282 0.359646 0.408661 -0.15533
C_ C_ 0.346263 0.381646 0.421964 0.02923
C_ C_ 0.357508 0.395395 0.47576 -0.15533
C_ C_ 0.325883 0.384029 0.512995 0.02923
C_ C_ 0.35371 0.386163 0.0723908 0.69207
C_ C_ 0.363776 0.391496 0.327369 0.69661
C_ C_ 0.316025 0.427766 0.183356 0.18167
C_ C_ 0.273266 0.455886 0.202368 -0.15533
C_ C_ 0.279444 0.49814 0.236236 0.02923
C_ C_ 0.322143 0.00454999 0.263107 -0.15533
C_ C_ 0.369419 0.488496 0.222263 0.18167
C_ C_ 0.497701 0.347424 0.193985 0.18167
C_ C_ 0.0218871 0.300704 0.216503 -0.15533
C_ C_ 0.491897 0.269322 0.231765 0.02923
C_ C_ 0.440279 0.278268 0.228092 -0.15533
C_ C_ 0.416837 0.3193 0.199603 0.18167
C_ C_ 0.493989 0.454876 0.126898 0.69207
C_ C_ 0.0286289 0.990104 0.12226 0.02923
C_ C_ 0.0100671 0.042014 0.123046 -0.15533
C_ C_ 0.037654 0.0785968 0.10634 -0.15533
C_ C_ 0.0870791 0.0661933 0.0978395 0.02923
C_ C_ 0.10348 0.0142025 0.0927742 -0.15533
C_ C_ 0.076846 0.976069 0.109074 0.02923
C_ C_ 0.0999211 0.423925 0.0985209 0.69207
C_ C_ 0.103765 0.161881 0.109695 0.69661
C_ C_ 0.425899 0.192613 0.428976 0.18167
C_ C_ 0.469917 0.21276 0.453443 -0.15533
C_ C_ 0.461561 0.250748 0.492069 0.02923
C_ C_ 0.424747 0.251662 0.0250093 -0.15533
C_ C_ 0.372008 0.240846 0.485655 0.18167
C_ C_ 0.251077 0.202982 0.349557 0.18167
C_ C_ 0.228623 0.228475 0.305783 -0.15533
C_ C_ 0.256749 0.228391 0.263422 0.02923
C_ C_ 0.309085 0.212922 0.270686 -0.15533
C_ C_ 0.332766 0.195619 0.318539 0.18167
C_ C_ 0.259355 0.128091 0.452136 0.69207
C_ C_ 0.231527 0.113947 0.990524 0.02923
C_ C_ 0.25024 0.11736 0.0451273 -0.15533
C_ C_ 0.216254 0.109769 0.081943 -0.15533
C_ C_ 0.166388 0.100823 0.0683045 0.02923
C_ C_ 0.149164 0.0967169 0.016051 -0.15533
C_ C_ 0.179354 0.105861 0.977477 0.02923
C_ C_ 0.151039 0.101902 0.425823 0.69207
C_ C_ 0.151952 0.0969697 0.166029 0.69661
C_ C_ 0.384847 0.388314 0.384914 -0.30787
C_ C_ 0.1278 0.105306 0.109795 -0.30787
N_ N_ 0.137709 0.056755 0.3086 -0.32189
N_ N_ 0.048288 0.137664 0.318302 -0.32189
N_ N_ 0.105824 0.309828 0.0592984 -0.32189
N_ N_ 0.195889 0.315289 0.135926 -0.32189
N_ N_ 0.361802 0.447922 0.191311 -0.32189
N_ N_ 0.446536 0.354135 0.183973 -0.32189
N_ N_ 0.378977 0.205703 0.446248 -0.32189
N_ N_ 0.301651 0.184385 0.354679 -0.32189
O_ O_ 0.498027 0.0927404 0.398958 -0.63271
O_ O_ 0.0390465 0.0301918 0.336011 -0.57982
O_ O_ 0.379339 0.0993274 0.353194 -0.63271
O_ O_ 0.364311 0.0950563 0.433961 -0.57982
O_ O_ 0.247654 0.390221 0.0919535 -0.63271
O_ O_ 0.209939 0.335517 0.0373731 -0.57982
O_ O_ 0.355466 0.342586 0.0950784 -0.63271
O_ O_ 0.385478 0.420891 0.0908646 -0.57982
O_ O_ 0.984081 0.398941 0.0796375 -0.63271
O_ O_ 0.459888 0.461287 0.15952 -0.57982
O_ O_ 0.0953854 0.396465 0.136179 -0.63271
O_ O_ 0.134788 0.40848 0.0711052 -0.57982
O_ O_ 0.259637 0.104235 0.407813 -0.63271
O_ O_ 0.28864 0.165562 0.45977 -0.57982
O_ O_ 0.160403 0.138174 0.398098 -0.63271
O_ O_ 0.110776 0.0774587 0.412473 -0.57982
F_ F_ 0.44876 0.330122 0.428543 -0.20885
F_ F_ 0.453026 0.331996 0.345863 -0.20885
F_ F_ 0.389509 0.296251 0.376295 -0.20885
F_ F_ 0.321801 0.426439 0.324748 -0.20885
F_ F_ 0.34579 0.348205 0.30283 -0.20885
F_ F_ 0.395468 0.407874 0.296183 -0.20885
F_ F_ 0.0760508 0.174281 0.0645401 -0.20885
F_ F_ 0.0738135 0.177537 0.14908 -0.20885
F_ F_ 0.142409 0.193858 0.120091 -0.20885
F_ F_ 0.182868 0.0520363 0.169631 -0.20885
F_ F_ 0.178433 0.138192 0.187964 -0.20885
F_ F_ 0.114483 0.0908335 0.198545 -0.20885
Zn Zn 0.0835437 0.0870283 0.842973 0.83971
Zn Zn 0.157712 0.347326 0.575752 0.83971
Zn Zn 0.408334 0.415877 0.650173 0.83971
Zn Zn 0.343799 0.15752 0.915072 0.83971
H_ H_ 0.155077 0.137637 0.793489 0.10394
H_ H_ 0.230266 0.101116 0.7472 0.10394
H_ H_ 0.215699 0.449956 0.798737 0.10394
H_ H_ 0.139938 0.99046 0.844725 0.10394
H_ H_ 0.520306 0.105379 0.754161 0.10394
H_ H_ 0.47923 0.180225 0.708888 0.10394
H_ H_ 0.0454564 0.272307 0.837553 0.10394
H_ H_ 0.0746305 0.197032 0.881098 0.10394
H_ H_ 0.0329419 0.45181 0.868968 0.10394
H_ H_ 0.469455 0.376882 0.849966 0.10394
H_ H_ 0.360965 0.4889 0.916647 0.10394
H_ H_ 0.0803017 0.305362 0.627512 0.10394
H_ H_ 0.49092 0.280299 0.598904 0.10394
H_ H_ 0.0426061 0.285583 0.946494 0.10394
H_ H_ 0.117975 0.310537 0.475946 0.10394
H_ H_ 0.218142 0.253567 0.595184 0.10394
H_ H_ 0.253713 0.213922 0.671502 0.10394
H_ H_ 0.22096 0.344408 0.767963 0.10394
H_ H_ 0.172121 0.383127 0.690045 0.10394
H_ H_ 0.207988 0.378747 0.951176 0.10394
H_ H_ 0.261988 0.397219 0.881528 0.10394
H_ H_ 0.396709 0.399668 0.985268 0.10394
H_ H_ 0.306335 0.399769 0.657309 0.10394
H_ H_ 0.234469 0.448351 0.694472 0.10394
H_ H_ 0.328371 0.0437991 0.785703 0.10394
H_ H_ 0.411691 0.494565 0.726715 0.10394
H_ H_ 0.0158623 0.392798 0.70321 0.10394
H_ H_ 0.0526042 0.316192 0.749612 0.10394
H_ H_ 0.404871 0.254779 0.736692 0.10394
H_ H_ 0.367963 0.327785 0.689665 0.10394
H_ H_ 0.452212 0.0490858 0.603259 0.10394
H_ H_ 0.0171227 0.117417 0.616114 0.10394
H_ H_ 0.140612 0.00184941 0.579139 0.10394
H_ H_ 0.439393 0.179574 0.892993 0.10394
H_ H_ 0.0196359 0.178301 0.95153 0.10394
H_ H_ 0.408886 0.29109 0.542484 0.10394
H_ H_ 0.346654 0.237622 0.00949407 0.10394
H_ H_ 0.240408 0.191872 0.881498 0.10394
H_ H_ 0.194514 0.239457 0.807692 0.10394
H_ H_ 0.334637 0.223349 0.737057 0.10394
H_ H_ 0.377835 0.17958 0.808203 0.10394
H_ H_ 0.288009 0.114193 0.555408 0.10394
H_ H_ 0.236771 0.0965265 0.617142 0.10394
H_ H_ 0.111024 0.0758617 0.504756 0.10394
C_ C_ 0.167856 0.0965494 0.795516 0.18167
C_ C_ 0.213143 0.0773034 0.77412 -0.15533
C_ C_ 0.229721 0.0236967 0.771152 0.02923
C_ C_ 0.207563 0.48992 0.794881 -0.15533
C_ C_ 0.161158 0.0120775 0.821327 0.18167
C_ C_ 0.0272955 0.142927 0.768126 0.18167
C_ C_ 0.509877 0.183878 0.742735 -0.15533
C_ C_ 0.011274 0.233487 0.772176 0.02923
C_ C_ 0.0357005 0.235756 0.82086 -0.15533
C_ C_ 0.0573158 0.192066 0.84151 0.18167
C_ C_ -8.66851e-05 0.0475227 0.860654 0.69207
C_ C_ 0.471916 0.506076 0.867458 0.02923
C_ C_ 0.490713 0.454169 0.860838 -0.15533
C_ C_ 0.45767 0.415481 0.866447 -0.15533
C_ C_ 0.409724 0.427005 0.88749 0.02923
C_ C_ 0.396102 0.478798 0.900005 -0.15533
C_ C_ 0.423211 0.519511 0.883857 0.02923
C_ C_ 0.401434 0.0720551 0.874563 0.69207
C_ C_ 0.392654 0.3307 0.881105 0.69661
C_ C_ 0.0713061 0.298078 0.586047 0.18167
C_ C_ 0.0259509 0.275001 0.570623 -0.15533
C_ C_ 0.0113776 0.267714 0.518371 0.02923
C_ C_ 0.0516294 0.286382 0.987937 -0.15533
C_ C_ 0.0910904 0.302799 0.502108 0.18167
C_ C_ 0.214336 0.274513 0.632745 0.18167
C_ C_ 0.231535 0.247759 0.676524 -0.15533
C_ C_ 0.237385 0.272116 0.72462 0.02923
C_ C_ 0.218013 0.323598 0.7301 -0.15533
C_ C_ 0.191298 0.34475 0.685106 0.18167
C_ C_ 0.240682 0.360657 0.536792 0.69207
C_ C_ 0.276717 0.373854 0.00807617 0.02923
C_ C_ 0.251058 0.380006 0.959193 -0.15533
C_ C_ 0.279932 0.393682 0.920158 -0.15533
C_ C_ 0.334349 0.393272 0.927708 0.02923
C_ C_ 0.356237 0.396052 0.977418 -0.15533
C_ C_ 0.328869 0.386115 0.0176973 0.02923
C_ C_ 0.34632 0.381627 0.566758 0.69207
C_ C_ 0.341218 0.393747 0.83071 0.69661
C_ C_ 0.312456 0.432997 0.680643 0.18167
C_ C_ 0.273347 0.454403 0.707661 -0.15533
C_ C_ 0.283886 0.496998 0.743772 0.02923
C_ C_ 0.321057 0.019224 0.753623 -0.15533
C_ C_ 0.373489 0.484372 0.723567 0.18167
C_ C_ 0.489473 0.353226 0.698784 0.18167
C_ C_ 0.0129246 0.322474 0.740017 -0.15533
C_ C_ 0.481794 0.276946 0.741767 0.02923
C_ C_ 0.428633 0.281553 0.722246 -0.15533
C_ C_ 0.407308 0.32453 0.698069 0.18167
C_ C_ 0.48384 0.453176 0.616464 0.69207
C_ C_ 0.0235611 0.988189 0.612559 0.02923
C_ C_ 0.00407831 0.0388436 0.618177 -0.15533
C_ C_ 0.0351504 0.0770837 0.612327 -0.15533
C_ C_ 0.0856389 0.0643613 0.599633 0.02923
C_ C_ 0.102246 0.0128241 0.58999 -0.15533
C_ C_ 0.0739481 0.97527 0.601759 0.02923
C_ C_ 0.0940978 0.425744 0.604147 0.69207
C_ C_ 0.103093 0.160165 0.603108 0.69661
C_ C_ 0.435829 0.195448 0.932198 0.18167
C_ C_ 0.47578 0.219131 0.957135 -0.15533
C_ C_ 0.470657 0.250829 1.00206302 0.02923
C_ C_ 0.413134 0.264094 0.509282 -0.15533
C_ C_ 0.384933 0.226343 0.998252 0.18167
C_ C_ 0.26042 0.200679 0.849298 0.18167
C_ C_ 0.235114 0.229846 0.809905 -0.15533
C_ C_ 0.262762 0.240202 0.768395 0.02923
C_ C_ 0.312741 0.218966 0.768883 -0.15533
C_ C_ 0.338197 0.194606 0.812179 0.18167
C_ C_ 0.265942 0.120341 0.950828 0.69207
C_ C_ 0.227025 0.1136 0.48994 0.02923
C_ C_ 0.247449 0.112259 0.542761 -0.15533
C_ C_ 0.21671 0.1051 0.579476 -0.15533
C_ C_ 0.164252 0.096035 0.568875 0.02923
C_ C_ 0.146798 0.0905638 0.516098 -0.15533
C_ C_ 0.176974 0.100541 0.476865 0.02923
C_ C_ 0.152097 0.11149 0.92472 0.69207
C_ C_ 0.146949 0.0977381 0.664408 0.69661
C_ C_ 0.369908 0.387183 0.882865 -0.30787
C_ C_ 0.12501 0.104164 0.608608 -0.30787
N_ N_ 0.138699 0.0607457 0.810439 -0.32189
N_ N_ 0.054068 0.145847 0.81638 -0.32189
N_ N_ 0.102296 0.309862 0.552383 -0.32189
N_ N_ 0.188089 0.319408 0.638078 -0.32189
N_ N_ 0.359984 0.447817 0.687765 -0.32189
N_ N_ 0.43908 0.358357 0.686291 -0.32189
N_ N_ 0.391839 0.196938 0.953754 -0.32189
N_ N_ 0.311658 0.186552 0.8527 -0.32189
O_ O_ 0.508963 0.0920559 0.888833 -0.63271
O_ O_ 0.0372765 0.0393566 0.834106 -0.57982
O_ O_ 0.398138 0.0937235 0.831777 -0.63271
O_ O_ 0.378462 0.0945409 0.912406 -0.57982
O_ O_ 0.242028 0.387747 0.580115 -0.63271
O_ O_ 0.20317 0.333836 0.527461 -0.57982
O_ O_ 0.35295 0.337713 0.589607 -0.63271
O_ O_ 0.371211 0.418586 0.587472 -0.57982
O_ O_ 0.991565 0.409777 0.604852 -0.63271
O_ O_ 0.454408 0.461474 0.653902 -0.57982
O_ O_ 0.0924711 0.399642 0.644418 -0.63271
O_ O_ 0.125055 0.407959 0.570657 -0.57982
O_ O_ 0.26552 0.0964497 0.906728 -0.63271
O_ O_ 0.297069 0.155453 0.961971 -0.57982
O_ O_ 0.160584 0.149981 0.898238 -0.63271
O_ O_ 0.111222 0.0881312 0.911903 -0.57982
F_ F_ 0.428348 0.320861 0.920878 -0.20885
F_ F_ 0.414094 0.318798 0.835454 -0.20885
F_ F_ 0.35647 0.294612 0.876273 -0.20885
F_ F_ 0.310005 0.437942 0.82623 -0.20885
F_ F_ 0.310927 0.355772 0.816265 -0.20885
F_ F_ 0.375013 0.393366 0.790132 -0.20885
F_ F_ 0.0731148 0.167533 0.557954 -0.20885
F_ F_ 0.0763637 0.177969 0.644971 -0.20885
F_ F_ 0.139565 0.19195 0.603808 -0.20885
F_ F_ 0.17552 0.0526411 0.665638 -0.20885
F_ F_ 0.17727 0.135864 0.679864 -0.20885
F_ F_ 0.112793 0.101415 0.700153 -0.20885
Zn Zn 0.0881598 0.573636 0.342705 0.83971
Zn Zn 0.16636 0.846163 0.0767918 0.83971
Zn Zn 0.410106 0.928307 0.157109 0.83971
Zn Zn 0.337744 0.65764 0.414543 0.83971
H_ H_ 0.164516 0.628295 0.296444 0.10394
H_ H_ 0.24408 0.597673 0.257254 0.10394
H_ H_ 0.197197 0.942606 0.268513 0.10394
H_ H_ 0.14755 0.47776 0.334668 0.10394
H_ H_ 0.524837 0.604476 0.250589 0.10394
H_ H_ 0.499874 0.682768 0.205049 0.10394
H_ H_ 0.0240632 0.767504 0.332075 0.10394
H_ H_ 0.068791 0.692816 0.380256 0.10394
H_ H_ 0.0315496 0.940786 0.373711 0.10394
H_ H_ 0.468249 0.878832 0.380756 0.10394
H_ H_ 0.344083 0.992542 0.412533 0.10394
H_ H_ 0.0911276 0.799954 0.126839 0.10394
H_ H_ 0.505067 0.772248 0.106382 0.10394
H_ H_ 0.0281388 0.788087 0.457116 0.10394
H_ H_ 0.124526 0.80675 0.972601 0.10394
H_ H_ 0.202866 0.735927 0.0995601 0.10394
H_ H_ 0.240675 0.695326 0.175843 0.10394
H_ H_ 0.214618 0.837734 0.259993 0.10394
H_ H_ 0.189151 0.881209 0.182432 0.10394
H_ H_ 0.211785 0.852099 0.44869 0.10394
H_ H_ 0.25238 0.88541 0.381712 0.10394
H_ H_ 0.384724 0.902374 0.485786 0.10394
H_ H_ 0.306644 0.925882 0.137135 0.10394
H_ H_ 0.227663 0.956986 0.179961 0.10394
H_ H_ 0.335053 0.54778 0.272196 0.10394
H_ H_ 0.40246 -0.0044680000000000275 0.251647 0.10394
H_ H_ 0.0228862 0.869276 0.190174 0.10394
H_ H_ 0.0573083 0.78407 0.225412 0.10394
H_ H_ 0.41001 0.757399 0.225011 0.10394
H_ H_ 0.369568 0.828948 0.182454 0.10394
H_ H_ 0.476756 0.554955 0.152256 0.10394
H_ H_ 0.0040800000000000836 0.611547 0.088907 0.10394
H_ H_ 0.137606 0.507601 0.0644592 0.10394
H_ H_ 0.43638 0.678651 0.382506 0.10394
H_ H_ 0.0153102 0.688325 0.462779 0.10394
H_ H_ 0.422106 0.782357 0.0526093 0.10394
H_ H_ 0.348225 0.713359 0.50877 0.10394
H_ H_ 0.236557 0.702805 0.383443 0.10394
H_ H_ 0.191407 0.74486 0.310401 0.10394
H_ H_ 0.330441 0.741452 0.246496 0.10394
H_ H_ 0.373662 0.698772 0.318431 0.10394
H_ H_ 0.276309 0.62556 0.063097 0.10394
H_ H_ 0.218567 0.607811 0.119669 0.10394
H_ H_ 0.101846 0.593084 -0.00021899999999996922 0.10394
C_ C_ 0.177217 0.587764 0.292781 0.18167
C_ C_ 0.221134 0.571603 0.270217 -0.15533
C_ C_ 0.23808 0.517568 0.267168 0.02923
C_ C_ 0.192442 0.983619 0.281003 -0.15533
C_ C_ 0.166357 0.503083 0.311936 0.18167
C_ C_ 0.017079 0.627979 0.276142 0.18167
C_ C_ 0.511976 0.685675 0.244425 -0.15533
C_ C_ -0.0007270000000000332 0.718668 0.267071 0.02923
C_ C_ 0.022562 0.728391 0.315815 -0.15533
C_ C_ 0.0452367 0.68536 0.344257 0.18167
C_ C_ 0.00944404 0.537659 0.366974 0.69207
C_ C_ 0.46485 0.00964075 0.382241 0.02923
C_ C_ 0.481867 0.957682 0.37915 -0.15533
C_ C_ 0.448539 0.918926 0.377551 -0.15533
C_ C_ 0.397807 0.930007 0.3895 0.02923
C_ C_ 0.381958 0.982595 0.401793 -0.15533
C_ C_ 0.413472 0.022689 0.396601 0.02923
C_ C_ 0.392842 0.575626 0.380042 0.69207
C_ C_ 0.384247 0.8346 0.384657 0.69661
C_ C_ 0.0775317 0.802038 0.0857984 0.18167
C_ C_ 0.0292881 0.788711 0.06977 -0.15533
C_ C_ 0.01686 0.779542 0.0175325 0.02923
C_ C_ 0.041026 0.787556 0.499251 -0.15533
C_ C_ 0.0980483 0.805686 0.00108647 0.18167
C_ C_ 0.214171 0.760462 0.134571 0.18167
C_ C_ 0.232941 0.735588 0.178729 -0.15533
C_ C_ 0.231607 0.764415 0.226059 0.02923
C_ C_ 0.2236 0.817583 0.223863 -0.15533
C_ C_ 0.200659 0.839125 0.179359 0.18167
C_ C_ 0.247334 0.870542 0.042195 0.69207
C_ C_ 0.272861 0.864695 0.507547 0.02923
C_ C_ 0.251217 0.858659 0.456603 -0.15533
C_ C_ 0.272729 0.879373 0.419228 -0.15533
C_ C_ 0.321824 0.89697 0.427925 0.02923
C_ C_ 0.3441 0.899121 0.479166 -0.15533
C_ C_ 0.321638 0.882081 0.519081 0.02923
C_ C_ 0.359044 0.883406 0.0673219 0.69207
C_ C_ 0.332697 0.894782 0.327383 0.69661
C_ C_ 0.30917 0.946198 0.171033 0.18167
C_ C_ 0.265745 0.96873 0.193465 -0.15533
C_ C_ 0.272257 0.998468 0.241523 0.02923
C_ C_ 0.32901 0.514032 0.246797 -0.15533
C_ C_ 0.36522 0.985228 0.237683 0.18167
C_ C_ 0.488968 0.86481 0.205851 0.18167
C_ C_ 0.015365 0.793058 0.218188 -0.15533
C_ C_ 0.48736 0.782124 0.239429 0.02923
C_ C_ 0.43496 0.784986 0.219369 -0.15533
C_ C_ 0.411029 0.827922 0.195837 0.18167
C_ C_ 0.482542 0.965419 0.126832 0.69207
C_ C_ 0.0169601 0.481662 0.0960887 0.02923
C_ C_ -0.006189 0.531266 0.0896081 -0.15533
C_ C_ 0.0227352 0.574066 0.0900799 -0.15533
C_ C_ 0.0753405 0.564172 0.0861156 0.02923
C_ C_ 0.09493 0.514304 0.0732895 -0.15533
C_ C_ 0.0696531 0.472877 0.0903672 0.02923
C_ C_ 0.103529 0.924193 0.108314 0.69207
C_ C_ 0.0840699 0.661491 0.106318 0.69661
C_ C_ 0.432891 0.690416 0.421968 0.18167
C_ C_ 0.476492 0.70836 0.450062 -0.15533
C_ C_ 0.470492 0.736933 0.4972 0.02923
C_ C_ 0.42815 0.751842 0.0223676 -0.15533
C_ C_ 0.383205 0.717415 0.491469 0.18167
C_ C_ 0.256781 0.706954 0.352438 0.18167
C_ C_ 0.230678 0.733306 0.311591 -0.15533
C_ C_ 0.257239 0.740233 0.270022 0.02923
C_ C_ 0.308433 0.726535 0.273309 -0.15533
C_ C_ 0.33336 0.698696 0.315354 0.18167
C_ C_ 0.261449 0.623552 0.44613 0.69207
C_ C_ 0.21986 0.628825 0.996863 0.02923
C_ C_ 0.23556 0.628646 0.0485151 -0.15533
C_ C_ 0.20135 0.617627 0.0827641 -0.15533
C_ C_ 0.151328 0.608091 0.0656288 0.02923
C_ C_ 0.136338 0.607528 0.01228 -0.15533
C_ C_ 0.170709 0.612662 0.976849 0.02923
C_ C_ 0.152337 0.602426 0.41837 0.69207
C_ C_ 0.135063 0.592846 0.158844 0.69661
C_ C_ 0.359462 0.889626 0.384503 -0.30787
C_ C_ 0.111526 0.605141 0.103434 -0.30787
N_ N_ 0.147597 0.553395 0.308901 -0.32189
N_ N_ 0.0499312 0.637386 0.318897 -0.32189
N_ N_ 0.110479 0.810221 0.0530326 -0.32189
N_ N_ 0.1966 0.810446 0.134892 -0.32189
N_ N_ 0.357414 0.956704 0.191567 -0.32189
N_ N_ 0.438274 0.869201 0.190243 -0.32189
N_ N_ 0.388762 0.695222 0.443464 -0.32189
N_ N_ 0.305333 0.688848 0.352805 -0.32189
O_ O_ 0.502348 0.59921 0.375561 -0.63271
O_ O_ 0.0454749 0.523575 0.335917 -0.57982
O_ O_ 0.395169 0.603335 0.341178 -0.63271
O_ O_ 0.372794 0.596477 0.421615 -0.57982
O_ O_ 0.242524 0.900592 0.0827833 -0.63271
O_ O_ 0.212221 0.840126 0.0301381 -0.57982
O_ O_ 0.354624 0.843823 0.0929351 -0.63271
O_ O_ 0.385442 0.920886 0.0894199 -0.57982
O_ O_ 0.998443 0.904691 0.107113 -0.63271
O_ O_ 0.450741 0.977058 0.161735 -0.57982
O_ O_ 0.104034 0.8957 0.147298 -0.63271
O_ O_ 0.138244 0.909578 0.074614 -0.57982
O_ O_ 0.263967 0.599352 0.400933 -0.63271
O_ O_ 0.294078 0.656202 0.459114 -0.57982
O_ O_ 0.149322 0.640917 0.388953 -0.63271
O_ O_ 0.121035 0.566673 0.404743 -0.57982
F_ F_ 0.4194 0.825795 0.426917 -0.20885
F_ F_ 0.41328 0.820372 0.343881 -0.20885
F_ F_ 0.349644 0.795864 0.387231 -0.20885
F_ F_ 0.298954 0.936675 0.32621 -0.20885
F_ F_ 0.308366 0.853902 0.313966 -0.20885
F_ F_ 0.368916 0.899249 0.292563 -0.20885
F_ F_ 0.0470213 0.67538 0.0653009 -0.20885
F_ F_ 0.0547951 0.673728 0.147986 -0.20885
F_ F_ 0.118298 0.694873 0.116197 -0.20885
F_ F_ 0.167918 0.551242 0.15802 -0.20885
F_ F_ 0.160411 0.630189 0.18435 -0.20885
F_ F_ 0.0997106 0.584418 0.191168 -0.20885
Zn Zn 0.0914038 0.585425 0.838669 0.83971
Zn Zn 0.161396 0.841919 0.59137 0.83971
Zn Zn 0.402691 0.913006 0.656712 0.83971
Zn Zn 0.345667 0.65164 0.923137 0.83971
H_ H_ 0.173184 0.632813 0.809111 0.10394
H_ H_ 0.253686 0.598445 0.764496 0.10394
H_ H_ 0.22651 0.95403 0.81211 0.10394
H_ H_ 0.136917 0.486868 0.820609 0.10394
H_ H_ 0.534516 0.595059 0.748515 0.10394
H_ H_ 0.502148 0.669118 0.697771 0.10394
H_ H_ 0.0446765 0.766989 0.839188 0.10394
H_ H_ 0.0679098 0.686316 0.877115 0.10394
H_ H_ 0.0058421 0.94879 0.819009 0.10394
H_ H_ 0.482679 0.877435 0.863879 0.10394
H_ H_ 0.363905 0.99177 0.908584 0.10394
H_ H_ 0.0745748 0.805133 0.644113 0.10394
H_ H_ 0.507138 0.753813 0.597165 0.10394
H_ H_ 0.0370581 0.791703 0.944211 0.10394
H_ H_ 0.106195 0.832628 0.498522 0.10394
H_ H_ 0.221306 0.744217 0.607204 0.10394
H_ H_ 0.252684 0.697037 0.685329 0.10394
H_ H_ 0.210711 0.832284 0.779052 0.10394
H_ H_ 0.193504 0.877553 0.698905 0.10394
H_ H_ 0.227267 0.856673 0.942863 0.10394
H_ H_ 0.273653 0.874966 0.873194 0.10394
H_ H_ 0.402307 0.904518 0.986403 0.10394
H_ H_ 0.303935 0.900378 0.664814 0.10394
H_ H_ 0.227693 0.945915 0.70038 0.10394
H_ H_ 0.346512 0.536577 0.784181 0.10394
H_ H_ 0.397954 0.0106498 0.733037 0.10394
H_ H_ 0.0086385 0.89558 0.709867 0.10394
H_ H_ 0.056015 0.822592 0.754678 0.10394
H_ H_ 0.410156 0.739811 0.717149 0.10394
H_ H_ 0.36717 0.824113 0.696356 0.10394
H_ H_ 0.465405 0.552987 0.624599 0.10394
H_ H_ 0.0189212 0.624314 0.604796 0.10394
H_ H_ 0.144928 0.504072 0.588986 0.10394
H_ H_ 0.445631 0.668669 0.899969 0.10394
H_ H_ 0.0111887 0.717366 0.934264 0.10394
H_ H_ 0.420782 0.754569 0.557885 0.10394
H_ H_ 0.360068 0.712653 0.0258046 0.10394
H_ H_ 0.239619 0.69915 0.897072 0.10394
H_ H_ 0.19089 0.732343 0.819 0.10394
H_ H_ 0.33319 0.723903 0.74934 0.10394
H_ H_ 0.377519 0.691872 0.830808 0.10394
H_ H_ 0.287908 0.607528 0.551331 0.10394
H_ H_ 0.236483 0.592606 0.612202 0.10394
H_ H_ 0.105877 0.588676 0.49867 0.10394
C_ C_ 0.180916 0.593794 0.795155 0.18167
C_ C_ 0.228358 0.57392 0.778333 -0.15533
C_ C_ 0.242342 0.519735 0.776086 0.02923
C_ C_ 0.206573 0.99275 0.800886 -0.15533
C_ C_ 0.163815 0.512335 0.813915 0.18167
C_ C_ 0.0233066 0.639266 0.762794 0.18167
C_ C_ 0.515744 0.673873 0.738839 -0.15533
C_ C_ 0.014841 0.731135 0.76536 0.02923
C_ C_ 0.0428338 0.731417 0.815497 -0.15533
C_ C_ 0.058038 0.686699 0.83705 0.18167
C_ C_ 0.00638787 0.552038 0.868262 0.69207
C_ C_ 0.480504 0.00731391 0.870572 0.02923
C_ C_ 0.50006 0.955441 0.868649 -0.15533
C_ C_ 0.470465 0.915982 0.874971 -0.15533
C_ C_ 0.419845 0.926229 0.888757 0.02923
C_ C_ 0.401053 0.980251 0.894985 -0.15533
C_ C_ 0.429038 0.0200125 0.881251 0.02923
C_ C_ 0.399921 0.572982 0.889136 0.69207
C_ C_ 0.400998 0.829401 0.888423 0.69661
C_ C_ 0.0696964 0.792807 0.602738 0.18167
C_ C_ 0.0208918 0.777881 0.58354 -0.15533
C_ C_ 0.00644714 0.77302 0.529449 0.02923
C_ C_ 0.0484251 0.794237 0.983314 -0.15533
C_ C_ 0.0855061 0.809701 0.519719 0.18167
C_ C_ 0.217118 0.763327 0.644768 0.18167
C_ C_ 0.233935 0.735799 0.68828 -0.15533
C_ C_ 0.232052 0.761349 0.736104 0.02923
C_ C_ 0.21441 0.812398 0.741875 -0.15533
C_ C_ 0.196119 0.836244 0.696102 0.18167
C_ C_ 0.244479 0.849593 0.549788 0.69207
C_ C_ 0.282328 0.878486 0.00357964 0.02923
C_ C_ 0.2604 0.876645 0.952486 -0.15533
C_ C_ 0.288682 0.884581 0.912739 -0.15533
C_ C_ 0.339434 0.894964 0.923286 0.02923
C_ C_ 0.362832 0.898915 0.976078 -0.15533
C_ C_ 0.333303 0.888296 0.015407 0.02923
C_ C_ 0.352103 0.877774 0.568532 0.69207
C_ C_ 0.353702 0.890145 0.82629 0.69661
C_ C_ 0.308504 0.934255 0.689084 0.18167
C_ C_ 0.264996 0.959767 0.707646 -0.15533
C_ C_ 0.272408 1.00134 0.742745 0.02923
C_ C_ 0.334731 0.50952 0.752572 -0.15533
C_ C_ 0.361456 0.993619 0.730304 0.18167
C_ C_ 0.48824 0.845573 0.692709 0.18167
C_ C_ 0.0173122 0.818955 0.735519 -0.15533
C_ C_ 0.484246 0.766666 0.73075 0.02923
C_ C_ 0.429591 0.773299 0.720295 -0.15533
C_ C_ 0.408797 0.81611 0.69474 0.18167
C_ C_ 0.480493 0.951458 0.623881 0.69207
C_ C_ 0.0200357 0.495129 0.61069 0.02923
C_ C_ 1.00166296 0.548082 0.614742 -0.15533
C_ C_ 0.0342334 0.58428 0.600665 -0.15533
C_ C_ 0.0856941 0.567556 0.593236 0.02923
C_ C_ 0.104451 0.514633 0.595162 -0.15533
C_ C_ 0.0726345 0.4791 0.60256 0.02923
C_ C_ 0.0995167 0.922108 0.606406 0.69207
C_ C_ 0.107005 0.663657 0.599284 0.69661
C_ C_ 0.442986 0.686846 0.93746 0.18167
C_ C_ 0.483217 0.71346 0.960022 -0.15533
C_ C_ 0.477584 0.745253 0.0045399999999999885 0.02923
C_ C_ 0.422511 0.74293 0.518182 -0.15533
C_ C_ 0.392261 0.718202 1.00458 0.18167
C_ C_ 0.260118 0.705135 0.865243 0.18167
C_ C_ 0.233446 0.727206 0.821788 -0.15533
C_ C_ 0.259333 0.735767 0.780701 0.02923
C_ C_ 0.312247 0.722257 0.783009 -0.15533
C_ C_ 0.336402 0.698676 0.827291 0.18167
C_ C_ 0.26383 0.622903 0.964055 0.69207
C_ C_ 0.228431 0.611254 0.486077 0.02923
C_ C_ 0.248365 0.608237 0.538347 -0.15533
C_ C_ 0.217553 0.598348 0.575045 -0.15533
C_ C_ 0.165507 0.59668 0.561148 0.02923
C_ C_ 0.145856 0.595023 0.509631 -0.15533
C_ C_ 0.17536 0.608098 0.471746 0.02923
C_ C_ 0.151978 0.61219 0.921221 0.69207
C_ C_ 0.150666 0.598197 0.66044 0.69661
C_ C_ 0.378525 0.886075 0.882006 -0.30787
C_ C_ 0.12902 0.605728 0.603352 -0.30787
N_ N_ 0.146962 0.562006 0.806709 -0.32189
N_ N_ 0.049645 0.642309 0.809419 -0.32189
N_ N_ 0.0988025 0.811478 0.569732 -0.32189
N_ N_ 0.192416 0.811402 0.650007 -0.32189
N_ N_ 0.354839 0.950637 0.701289 -0.32189
N_ N_ 0.43584 0.854215 0.687286 -0.32189
N_ N_ 0.39742 0.690877 0.959102 -0.32189
N_ N_ 0.308382 0.686238 0.864983 -0.32189
O_ O_ 0.508461 0.584912 0.898576 -0.63271
O_ O_ 0.0417274 0.541269 0.837787 -0.57982
O_ O_ 0.40291 0.605521 0.853874 -0.63271
O_ O_ 0.372846 0.587663 0.928023 -0.57982
O_ O_ 0.248632 0.875134 0.593881 -0.63271
O_ O_ 0.204443 0.823774 0.54058 -0.57982
O_ O_ 0.356701 0.835314 0.588742 -0.63271
O_ O_ 0.362707 0.919592 0.595703 -0.57982
O_ O_ 0.99441 0.903503 0.600242 -0.63271
O_ O_ 0.450641 0.961002 0.661989 -0.57982
O_ O_ 0.10317 0.901712 0.649314 -0.63271
O_ O_ 0.131922 0.905103 0.576476 -0.57982
O_ O_ 0.265785 0.587865 0.92737 -0.63271
O_ O_ 0.294004 0.657628 0.965449 -0.57982
O_ O_ 0.161958 0.649341 0.892681 -0.63271
O_ O_ 0.116183 0.583156 0.905456 -0.57982
F_ F_ 0.432691 0.825265 0.932094 -0.20885
F_ F_ 0.424534 0.802577 0.848067 -0.20885
F_ F_ 0.360468 0.80271 0.896442 -0.20885
F_ F_ 0.321437 0.932061 0.824946 -0.20885
F_ F_ 0.326107 0.850976 0.807994 -0.20885
F_ F_ 0.388889 0.899003 0.792707 -0.20885
F_ F_ 0.0784599 0.676151 0.553565 -0.20885
F_ F_ 0.0758101 0.684485 0.636402 -0.20885
F_ F_ 0.149854 0.692354 0.606058 -0.20885
F_ F_ 0.176347 0.549813 0.668362 -0.20885
F_ F_ 0.184347 0.634154 0.678815 -0.20885
F_ F_ 0.112241 0.608741 0.691338 -0.20885
Zn Zn 0.586609 0.0806038 0.353312 0.83971
Zn Zn 0.663261 0.347213 0.0862755 0.83971
Zn Zn 0.910818 0.408612 0.150909 0.83971
Zn Zn 0.835517 0.154132 0.416729 0.83971
H_ H_ 0.65937 0.126178 0.290733 0.10394
H_ H_ 0.743721 0.0975291 0.262614 0.10394
H_ H_ 0.711799 0.441508 0.294332 0.10394
H_ H_ 0.63776 0.983361 0.337025 0.10394
H_ H_ 0.0193548 0.0911877 0.25382 0.10394
H_ H_ 0.994532 0.166054 0.19957 0.10394
H_ H_ 0.541059 0.267321 0.329947 0.10394
H_ H_ 0.566492 0.192999 0.382591 0.10394
H_ H_ 0.534052 0.450755 0.365072 0.10394
H_ H_ 0.980779 0.381026 0.422488 0.10394
H_ H_ 0.851404 0.482911 0.40185 0.10394
H_ H_ 0.586669 0.301027 0.137185 0.10394
H_ H_ 1.00936489 0.253545 0.0981663 0.10394
H_ H_ 0.540873 0.273942 0.444767 0.10394
H_ H_ 0.602083 0.351295 0.994757 0.10394
H_ H_ 0.728317 0.260745 0.0933615 0.10394
H_ H_ 0.778092 0.208824 0.161856 0.10394
H_ H_ 0.726205 0.330306 0.270283 0.10394
H_ H_ 0.676134 0.375422 0.202094 0.10394
H_ H_ 0.722715 0.340913 0.442332 0.10394
H_ H_ 0.779887 0.342477 0.376911 0.10394
H_ H_ 0.894723 0.396529 0.490307 0.10394
H_ H_ 0.80444 0.394782 0.157981 0.10394
H_ H_ 0.735424 0.439327 0.205663 0.10394
H_ H_ 0.842715 0.0314319 0.303056 0.10394
H_ H_ 0.906498 0.49122 0.23105 0.10394
H_ H_ 0.519848 0.37858 0.187907 0.10394
H_ H_ 0.563187 0.305013 0.2312 0.10394
H_ H_ 0.911687 0.258808 0.244142 0.10394
H_ H_ 0.873837 0.326686 0.19595 0.10394
H_ H_ 0.972088 0.0518799 0.130089 0.10394
H_ H_ 0.517964 0.131485 0.110654 0.10394
H_ H_ 0.641998 0.0130611 0.09208 0.10394
H_ H_ 0.946402 0.148396 0.402741 0.10394
H_ H_ 0.506814 0.193474 0.445847 0.10394
H_ H_ 0.920517 0.292223 0.0357839 0.10394
H_ H_ 0.843479 0.235629 0.496351 0.10394
H_ H_ 0.73996 0.19842 0.380008 0.10394
H_ H_ 0.700729 0.241571 0.304484 0.10394
H_ H_ 0.842927 0.218076 0.238468 0.10394
H_ H_ 0.882617 0.177775 0.322203 0.10394
H_ H_ 0.789578 0.110965 0.058757 0.10394
H_ H_ 0.731167 0.101184 0.125176 0.10394
H_ H_ 0.611921 0.0858477 0.00532017 0.10394
C_ C_ 0.67544 0.0884259 0.299718 0.18167
C_ C_ 0.720509 0.0701197 0.279389 -0.15533
C_ C_ 0.735284 0.0176668 0.28069 0.02923
C_ C_ 0.706586 0.483431 0.297506 -0.15533
C_ C_ 0.660468 0.00533081 0.318805 0.18167
C_ C_ 0.528164 0.133786 0.27242 0.18167
C_ C_ 0.0073006 0.172679 0.24006 -0.15533
C_ C_ 0.515663 0.223198 0.261066 0.02923
C_ C_ 0.539984 0.23153 0.310702 -0.15533
C_ C_ 0.553906 0.188424 0.340858 0.18167
C_ C_ 0.501958 0.0476647 0.375919 0.69207
C_ C_ 0.973034 0.501269 0.377882 0.02923
C_ C_ 0.994505 0.449968 0.388266 -0.15533
C_ C_ 0.963492 0.413664 0.403206 -0.15533
C_ C_ 0.909847 0.423231 0.400962 0.02923
C_ C_ 0.891902 0.475978 0.398465 -0.15533
C_ C_ 0.922915 0.514139 0.387892 0.02923
C_ C_ 0.893717 0.0662972 0.391814 0.69207
C_ C_ 0.906031 0.328081 0.38393 0.69661
C_ C_ 0.574497 0.297652 0.0965584 0.18167
C_ C_ 0.529011 0.280503 0.0799739 -0.15533
C_ C_ 0.51161 0.280787 0.0276439 0.02923
C_ C_ 0.545181 0.284079 0.485087 -0.15533
C_ C_ 0.585644 0.323705 0.0167686 0.18167
C_ C_ 0.726875 0.275553 0.132326 0.18167
C_ C_ 0.753677 0.247331 0.172436 -0.15533
C_ C_ 0.74709 0.264095 0.222735 0.02923
C_ C_ 0.723231 0.311754 0.233021 -0.15533
C_ C_ 0.699543 0.339032 0.1932 0.18167
C_ C_ 0.740559 0.36956 0.0401453 0.69207
C_ C_ 0.778737 0.360425 0.507228 0.02923
C_ C_ 0.761321 0.349768 0.454741 -0.15533
C_ C_ 0.790913 0.357234 0.415986 -0.15533
C_ C_ 0.838058 0.380101 0.428613 0.02923
C_ C_ 0.854683 0.388211 0.480444 -0.15533
C_ C_ 0.828804 0.374131 0.520283 0.02923
C_ C_ 0.852344 0.380081 0.0699964 0.69207
C_ C_ 0.851071 0.386252 0.332929 0.69661
C_ C_ 0.812071 0.429879 0.180482 0.18167
C_ C_ 0.773144 0.452585 0.209582 -0.15533
C_ C_ 0.782976 0.491757 0.245763 0.02923
C_ C_ 0.831656 0.00956855 0.266386 -0.15533
C_ C_ 0.86834 0.485034 0.221987 0.18167
C_ C_ 0.99526 0.344084 0.191314 0.18167
C_ C_ 0.522337 0.305176 0.216153 -0.15533
C_ C_ 0.99215 0.267376 0.234544 0.02923
C_ C_ 0.937053 0.280038 0.228755 -0.15533
C_ C_ 0.915257 0.31777 0.198924 0.18167
C_ C_ 0.984641 0.442467 0.104269 0.69207
C_ C_ 0.518452 1.003343 0.118601 0.02923
C_ C_ 0.497452 0.0529253 0.109265 -0.15533
C_ C_ 0.5317 0.0900348 0.108777 -0.15533
C_ C_ 0.583108 0.0762077 0.10382 0.02923
C_ C_ 0.603291 0.0243607 0.102825 -0.15533
C_ C_ 0.572556 0.988162 0.110094 0.02923
C_ C_ 0.603867 0.429346 0.10839 0.69207
C_ C_ 0.600977 0.172773 0.098395 0.69661
C_ C_ 0.940259 0.17472 0.434677 0.18167
C_ C_ 0.98166 0.195416 0.463082 -0.15533
C_ C_ 0.971657 0.235659 0.499113 0.02923
C_ C_ 0.928861 0.258224 0.00780381 -0.15533
C_ C_ 0.881731 0.226602 0.485937 0.18167
C_ C_ 0.760933 0.202625 0.34889 0.18167
C_ C_ 0.740451 0.224845 0.30536 -0.15533
C_ C_ 0.771138 0.233596 0.266995 0.02923
C_ C_ 0.821819 0.211212 0.270498 -0.15533
C_ C_ 0.843095 0.189194 0.316041 0.18167
C_ C_ 0.752908 0.127405 0.453262 0.69207
C_ C_ 0.732725 0.113583 0.995966 0.02923
C_ C_ 0.750047 0.110461 0.0480222 -0.15533
C_ C_ 0.716327 0.107027 0.0837375 -0.15533
C_ C_ 0.663415 0.10388 0.0692201 0.02923
C_ C_ 0.648891 0.0972788 0.0177733 -0.15533
C_ C_ 0.681968 0.103474 0.980503 0.02923
C_ C_ 0.643132 0.112885 0.424259 0.69207
C_ C_ 0.643016 0.118079 0.166191 0.69661
C_ C_ 0.876619 0.380083 0.388914 -0.30787
C_ C_ 0.621842 0.11691 0.108057 -0.30787
N_ N_ 0.64812 0.0567334 0.322438 -0.32189
N_ N_ 0.55592 0.140734 0.318557 -0.32189
N_ N_ 0.602604 0.317711 0.0654945 -0.32189
N_ N_ 0.695883 0.317288 0.145815 -0.32189
N_ N_ 0.859269 0.446839 0.186505 -0.32189
N_ N_ 0.944814 0.3508 0.180872 -0.32189
N_ N_ 0.891486 0.189637 0.447956 -0.32189
N_ N_ 0.809778 0.185527 0.354291 -0.32189
O_ O_ 0.00467076 0.0838747 0.394244 -0.63271
O_ O_ 0.534345 0.0382109 0.34082 -0.57982
O_ O_ 0.896158 0.0906735 0.350535 -0.63271
O_ O_ 0.871512 0.0903316 0.430658 -0.57982
O_ O_ 0.746007 0.400194 0.0812046 -0.63271
O_ O_ 0.699923 0.346226 0.0302399 -0.57982
O_ O_ 0.855864 0.336572 0.0936323 -0.63271
O_ O_ 0.874123 0.419624 0.0899338 -0.57982
O_ O_ 0.494049 0.415236 0.0942631 -0.63271
O_ O_ 0.954544 0.451984 0.13961 -0.57982
O_ O_ 0.600588 0.399305 0.147239 -0.63271
O_ O_ 0.636399 0.413601 0.0778706 -0.57982
O_ O_ 0.754667 0.0952685 0.415245 -0.63271
O_ O_ 0.786455 0.162268 0.460131 -0.57982
O_ O_ 0.647841 0.149919 0.391769 -0.63271
O_ O_ 0.604879 0.0877922 0.414951 -0.57982
F_ F_ 0.931516 0.320077 0.430407 -0.20885
F_ F_ 0.940216 0.318065 0.345325 -0.20885
F_ F_ 0.87522 0.28766 0.375471 -0.20885
F_ F_ 0.81115 0.423609 0.332449 -0.20885
F_ F_ 0.829333 0.345902 0.307229 -0.20885
F_ F_ 0.880835 0.401614 0.298914 -0.20885
F_ F_ 0.571576 0.174929 0.0517405 -0.20885
F_ F_ 0.56934 0.192189 0.134992 -0.20885
F_ F_ 0.639504 0.202974 0.0996373 -0.20885
F_ F_ 0.668861 0.0706316 0.174887 -0.20885
F_ F_ 0.675672 0.153742 0.181274 -0.20885
F_ F_ 0.602602 0.127065 0.196028 -0.20885
Zn Zn 0.597007 0.0875872 0.846802 0.83971
Zn Zn 0.653033 0.344018 0.581279 0.83971
Zn Zn 0.908519 0.418522 0.654489 0.83971
Zn Zn 0.842759 0.156975 0.917297 0.83971
H_ H_ 0.669174 0.133548 0.790892 0.10394
H_ H_ 0.750435 0.102823 0.758681 0.10394
H_ H_ 0.714548 0.445528 0.792045 0.10394
H_ H_ 0.6472 0.990855 0.834032 0.10394
H_ H_ 0.0239942 0.106108 0.747834 0.10394
H_ H_ 0.99212 0.185844 0.705125 0.10394
H_ H_ 0.5298 0.271456 0.845202 0.10394
H_ H_ 0.577455 0.190378 0.877011 0.10394
H_ H_ 0.523185 0.444117 0.840331 0.10394
H_ H_ 0.978981 0.38322 0.861144 0.10394
H_ H_ 0.863786 0.489643 0.917712 0.10394
H_ H_ 0.574696 0.302727 0.629604 0.10394
H_ H_ 0.00132538 0.270522 0.599099 0.10394
H_ H_ 0.531282 0.299647 0.954675 0.10394
H_ H_ 0.614951 0.313308 0.47952 0.10394
H_ H_ 0.700304 0.24127 0.601735 0.10394
H_ H_ 0.760637 0.201834 0.675981 0.10394
H_ H_ 0.7158 0.336866 0.769165 0.10394
H_ H_ 0.680789 0.380419 0.691575 0.10394
H_ H_ 0.721351 0.366596 0.939595 0.10394
H_ H_ 0.770581 0.375956 0.874571 0.10394
H_ H_ 0.902295 0.383367 0.987108 0.10394
H_ H_ 0.806621 0.392876 0.671154 0.10394
H_ H_ 0.730494 0.452271 0.696297 0.10394
H_ H_ 0.835699 0.0419431 0.772772 0.10394
H_ H_ 0.904235 0.507844 0.725024 0.10394
H_ H_ 0.512727 0.38329 0.693163 0.10394
H_ H_ 0.552177 0.303475 0.731364 0.10394
H_ H_ 0.913887 0.251498 0.72518 0.10394
H_ H_ 0.873745 0.324587 0.687066 0.10394
H_ H_ 0.966559 0.0505916 0.62711 0.10394
H_ H_ 0.5081 0.11692 0.587147 0.10394
H_ H_ 0.629891 0.00673637 0.571535 0.10394
H_ H_ 0.941708 0.156112 0.898949 0.10394
H_ H_ 0.51449 0.209606 0.944846 0.10394
H_ H_ 0.917107 0.277803 0.542861 0.10394
H_ H_ 0.849064 0.245978 -0.0069069999999999965 0.10394
H_ H_ 0.739489 0.191809 0.880818 0.10394
H_ H_ 0.696716 0.227715 0.802957 0.10394
H_ H_ 0.843949 0.234697 0.750802 0.10394
H_ H_ 0.882384 0.187881 0.822573 0.10394
H_ H_ 0.776211 0.124424 0.553021 0.10394
H_ H_ 0.728067 0.106709 0.619067 0.10394
H_ H_ 0.600161 0.0863806 0.506464 0.10394
C_ C_ 0.681413 0.0961284 0.794063 0.18167
C_ C_ 0.726908 0.0762531 0.771163 -0.15533
C_ C_ 0.736693 0.0231594 0.76305 0.02923
C_ C_ 0.702656 0.486437 0.789231 -0.15533
C_ C_ 0.669352 0.0148377 0.815901 0.18167
C_ C_ 0.52847 0.141828 0.77121 0.18167
C_ C_ 0.00969566 0.186467 0.743659 -0.15533
C_ C_ 0.50639 0.232966 0.769207 0.02923
C_ C_ 0.528891 0.235986 0.82088 -0.15533
C_ C_ 0.555264 0.190941 0.841493 0.18167
C_ C_ 0.51452 0.0464114 0.865911 0.69207
C_ C_ 0.972845 0.512682 0.876548 0.02923
C_ C_ 0.994728 0.461106 0.871916 -0.15533
C_ C_ 0.966008 0.42135 0.875928 -0.15533
C_ C_ 0.917093 0.430991 0.893177 0.02923
C_ C_ 0.899935 0.48152 0.907125 -0.15533
C_ C_ 0.923144 0.522658 0.892321 0.02923
C_ C_ 0.894589 0.074325 0.884956 0.69207
C_ C_ 0.910633 0.329775 0.880373 0.69661
C_ C_ 0.566493 0.293732 0.59042 0.18167
C_ C_ 0.51956 0.280261 0.571749 -0.15533
C_ C_ 0.507578 0.274796 0.517503 0.02923
C_ C_ 0.542877 0.299934 0.995682 -0.15533
C_ C_ 0.590344 0.299437 0.505762 0.18167
C_ C_ 0.712061 0.264586 0.635476 0.18167
C_ C_ 0.740281 0.239701 0.678026 -0.15533
C_ C_ 0.739967 0.266065 0.726811 0.02923
C_ C_ 0.715561 0.317091 0.731143 -0.15533
C_ C_ 0.695951 0.340548 0.687615 0.18167
C_ C_ 0.740547 0.358326 0.54573 0.69207
C_ C_ 0.778728 0.364368 1.00135 0.02923
C_ C_ 0.761717 0.3628 0.950045 -0.15533
C_ C_ 0.790558 0.375473 0.913365 -0.15533
C_ C_ 0.84316 0.38368 0.924844 0.02923
C_ C_ 0.861456 0.386058 0.977096 -0.15533
C_ C_ 0.830369 0.378902 0.0154225 0.02923
C_ C_ 0.85267 0.374841 0.573017 0.69207
C_ C_ 0.855109 0.394086 0.828033 0.69661
C_ C_ 0.810009 0.433561 0.687786 0.18167
C_ C_ 0.768238 0.462638 0.705224 -0.15533
C_ C_ 0.77753 0.498766 0.743436 0.02923
C_ C_ 0.826771 0.0134583 0.744177 -0.15533
C_ C_ 0.866246 0.491194 0.72531 0.18167
C_ C_ 0.989415 0.364646 0.714523 0.18167
C_ C_ 0.511253 0.309219 0.723294 -0.15533
C_ C_ 0.985742 0.280762 0.747166 0.02923
C_ C_ 0.934477 0.283915 0.727673 -0.15533
C_ C_ 0.910729 0.326505 0.704033 0.18167
C_ C_ 0.982555 0.458313 0.618101 0.69207
C_ C_ 0.516135 0.989853 0.611621 0.02923
C_ C_ 0.493665 0.0413735 0.610738 -0.15533
C_ C_ 0.523893 0.0794542 0.599722 -0.15533
C_ C_ 0.57824 0.0668552 0.599178 0.02923
C_ C_ 0.595145 0.0146446 0.58924 -0.15533
C_ C_ 0.566549 0.977844 0.603683 0.02923
C_ C_ 0.592793 0.421134 0.599037 0.69207
C_ C_ 0.593945 0.162944 0.614651 0.69661
C_ C_ 0.93946 0.184696 0.928624 0.18167
C_ C_ 0.983846 0.198868 0.958189 -0.15533
C_ C_ 0.977778 0.238665 -0.00209339 0.02923
C_ C_ 0.92249 0.249448 0.513581 -0.15533
C_ C_ 0.886199 0.233722 0.984529 0.18167
C_ C_ 0.760996 0.200217 0.85263 0.18167
C_ C_ 0.738571 0.228439 0.811177 -0.15533
C_ C_ 0.766838 0.239978 0.771786 0.02923
C_ C_ 0.819464 0.224247 0.778836 -0.15533
C_ C_ 0.840674 0.195442 0.820404 0.18167
C_ C_ 0.770653 0.119275 0.959868 0.69207
C_ C_ 0.717474 0.121033 0.492368 0.02923
C_ C_ 0.735812 0.122657 0.54494 -0.15533
C_ C_ 0.707488 0.111242 0.58244 -0.15533
C_ C_ 0.655558 0.103198 0.570125 0.02923
C_ C_ 0.638818 0.0968549 0.51785 -0.15533
C_ C_ 0.666865 0.112189 0.47835 0.02923
C_ C_ 0.66055 0.105967 0.926696 0.69207
C_ C_ 0.639439 0.0929319 0.665827 0.69661
C_ C_ 0.880226 0.385781 0.885305 -0.30787
C_ C_ 0.616706 0.105973 0.611147 -0.30787
N_ N_ 0.65075 0.0648249 0.811254 -0.32189
N_ N_ 0.554581 0.145643 0.817254 -0.32189
N_ N_ 0.599156 0.305092 0.557207 -0.32189
N_ N_ 0.68792 0.312166 0.641956 -0.32189
N_ N_ 0.856902 0.450232 0.69338 -0.32189
N_ N_ 0.939525 0.363617 0.693325 -0.32189
N_ N_ 0.893925 0.197158 0.945349 -0.32189
N_ N_ 0.811534 0.185518 0.855746 -0.32189
O_ O_ 0.00344525 0.0846802 0.893952 -0.63271
O_ O_ 0.554509 0.0365025 0.842034 -0.57982
O_ O_ 0.890333 0.101774 0.845328 -0.63271
O_ O_ 0.874583 0.093472 0.92615 -0.57982
O_ O_ 0.740896 0.391408 0.584168 -0.63271
O_ O_ 0.699934 0.333219 0.534824 -0.57982
O_ O_ 0.856762 0.333519 0.598633 -0.63271
O_ O_ 0.873453 0.416108 0.59279 -0.57982
O_ O_ 0.482867 0.409975 0.590004 -0.63271
O_ O_ 0.950155 0.469554 0.652818 -0.57982
O_ O_ 0.596918 0.396185 0.641849 -0.63271
O_ O_ 0.622127 0.404106 0.56428 -0.57982
O_ O_ 0.76675 0.10056 0.911949 -0.63271
O_ O_ 0.800651 0.156639 0.968606 -0.57982
O_ O_ 0.664567 0.14543 0.899799 -0.63271
O_ O_ 0.620647 0.0824294 0.91373 -0.57982
F_ F_ 0.947583 0.326342 0.919739 -0.20885
F_ F_ 0.933415 0.313424 0.837634 -0.20885
F_ F_ 0.879142 0.292548 0.885155 -0.20885
F_ F_ 0.820064 0.43843 0.829891 -0.20885
F_ F_ 0.827977 0.353934 0.806367 -0.20885
F_ F_ 0.891483 0.402296 0.795196 -0.20885
F_ F_ 0.568089 0.179979 0.567919 -0.20885
F_ F_ 0.562922 0.172497 0.654779 -0.20885
F_ F_ 0.634262 0.192719 0.62781 -0.20885
F_ F_ 0.669871 0.0476027 0.660791 -0.20885
F_ F_ 0.668144 0.128124 0.689565 -0.20885
F_ F_ 0.605831 0.0879558 0.703398 -0.20885
Zn Zn 0.5888 0.585877 0.344467 0.83971
Zn Zn 0.659473 0.858443 0.0890661 0.83971
Zn Zn 0.912168 0.919023 0.163376 0.83971
Zn Zn 0.839232 0.654973 0.41405 0.83971
H_ H_ 0.67925 0.629487 0.310386 0.10394
H_ H_ 0.752911 0.590227 0.269963 0.10394
H_ H_ 0.71965 0.945208 0.307008 0.10394
H_ H_ 0.636904 0.483947 0.332856 0.10394
H_ H_ 0.0157279 0.589557 0.257739 0.10394
H_ H_ 0.981531 0.662001 0.210076 0.10394
H_ H_ 0.541927 0.776421 0.332141 0.10394
H_ H_ 0.567996 0.698269 0.382547 0.10394
H_ H_ 0.522994 0.945421 0.375998 0.10394
H_ H_ 0.984731 0.87576 0.395116 0.10394
H_ H_ 0.851507 0.984569 0.406832 0.10394
H_ H_ 0.587783 0.806556 0.141135 0.10394
H_ H_ 1.00540746 0.77532 0.0977314 0.10394
H_ H_ 0.52684 0.795284 0.44557 0.10394
H_ H_ 0.618143 0.831109 0.99186 0.10394
H_ H_ 0.720181 0.7724 0.100424 0.10394
H_ H_ 0.7572 0.712716 0.169151 0.10394
H_ H_ 0.731904 0.844859 0.275202 0.10394
H_ H_ 0.684229 0.894832 0.200013 0.10394
H_ H_ 0.713953 0.862933 0.44296 0.10394
H_ H_ 0.770277 0.88063 0.377197 0.10394
H_ H_ 0.893912 0.897729 0.489897 0.10394
H_ H_ 0.811652 0.899396 0.16696 0.10394
H_ H_ 0.734539 0.956405 0.194408 0.10394
H_ H_ 0.839068 0.536469 0.280915 0.10394
H_ H_ 0.906346 1.0032651 0.243959 0.10394
H_ H_ 0.510359 0.897263 0.203368 0.10394
H_ H_ 0.558486 0.814064 0.227731 0.10394
H_ H_ 0.901285 0.758262 0.237942 0.10394
H_ H_ 0.869803 0.835254 0.191447 0.10394
H_ H_ 0.951735 0.537923 0.0893204 0.10394
H_ H_ 0.520208 0.621756 0.130993 0.10394
H_ H_ 0.645102 0.510799 0.0830849 0.10394
H_ H_ 0.948703 0.663733 0.397626 0.10394
H_ H_ 0.511333 0.703264 0.431305 0.10394
H_ H_ 0.922372 0.779724 0.0572551 0.10394
H_ H_ 0.840248 0.726781 0.504186 0.10394
H_ H_ 0.740736 0.700405 0.385916 0.10394
H_ H_ 0.710889 0.766592 0.324325 0.10394
H_ H_ 0.834684 0.714041 0.237623 0.10394
H_ H_ 0.881601 0.695661 0.318846 0.10394
H_ H_ 0.788774 0.610089 0.0525941 0.10394
H_ H_ 0.733109 0.612793 0.124357 0.10394
H_ H_ 0.605776 0.60114 0.015243 0.10394
C_ C_ 0.684337 0.588175 0.301658 0.18167
C_ C_ 0.728126 0.566685 0.282207 -0.15533
C_ C_ 0.740726 0.514708 0.278673 0.02923
C_ C_ 0.707926 0.985965 0.305071 -0.15533
C_ C_ 0.659233 0.506393 0.312387 0.18167
C_ C_ 0.528877 0.642611 0.271127 0.18167
C_ C_ -0.0060989999999999656 0.66917 0.248994 -0.15533
C_ C_ 0.51614 0.735932 0.265587 0.02923
C_ C_ 0.536799 0.738955 0.315203 -0.15533
C_ C_ 0.556765 0.695313 0.341655 0.18167
C_ C_ 0.503181 0.553124 0.356229 0.69207
C_ C_ 0.971187 0.00186752 0.378747 0.02923
C_ C_ -0.007935000000000025 0.95144 0.379501 -0.15533
C_ C_ 0.961778 0.913679 0.389738 -0.15533
C_ C_ 0.91113 0.925113 0.401248 0.02923
C_ C_ 0.892263 0.976044 0.400343 -0.15533
C_ C_ 0.922124 0.0146899 0.395827 0.02923
C_ C_ 0.898222 0.567104 0.380604 0.69207
C_ C_ 0.900071 0.825697 0.392677 0.69661
C_ C_ 0.579642 0.797453 0.0987668 0.18167
C_ C_ 0.531535 0.781095 0.0784478 -0.15533
C_ C_ 0.520856 0.774713 0.0264551 0.02923
C_ C_ 0.541363 0.791192 0.483529 -0.15533
C_ C_ 0.599917 0.810369 0.0156727 0.18167
C_ C_ 0.718066 0.78441 0.141367 0.18167
C_ C_ 0.738348 0.752442 0.179551 -0.15533
C_ C_ 0.741459 0.773643 0.229033 0.02923
C_ C_ 0.724426 0.825619 0.239438 -0.15533
C_ C_ 0.699023 0.854887 0.198807 0.18167
C_ C_ 0.738898 0.885912 0.0487203 0.69207
C_ C_ 0.77145 0.877246 0.506893 0.02923
C_ C_ 0.753562 0.873056 0.45614 -0.15533
C_ C_ 0.784429 0.88326 0.417361 -0.15533
C_ C_ 0.835906 0.890444 0.430156 0.02923
C_ C_ 0.854548 0.887977 0.479751 -0.15533
C_ C_ 0.822866 0.888802 0.518994 0.02923
C_ C_ 0.852717 0.896182 0.0732181 0.69207
C_ C_ 0.854503 0.884887 0.332019 0.69661
C_ C_ 0.81492 0.935757 0.187283 0.18167
C_ C_ 0.773954 0.960514 0.210209 -0.15533
C_ C_ 0.780431 0.996683 0.251568 0.02923
C_ C_ 0.829246 0.51187 0.247688 -0.15533
C_ C_ 0.868376 0.990374 0.235356 0.18167
C_ C_ 0.996126 0.841553 0.196866 0.18167
C_ C_ 0.515417 0.823046 0.230838 -0.15533
C_ C_ 0.981596 0.76311 0.235931 0.02923
C_ C_ 0.928432 0.777663 0.225547 -0.15533
C_ C_ 0.910496 0.824883 0.203271 0.18167
C_ C_ 0.993679 0.951079 0.129802 0.69207
C_ C_ 0.530869 0.492392 0.126792 0.02923
C_ C_ 0.514078 0.544134 0.13719 -0.15533
C_ C_ 0.542523 0.583516 0.128768 -0.15533
C_ C_ 0.589917 0.571394 0.109709 0.02923
C_ C_ 0.607772 0.520248 0.100791 -0.15533
C_ C_ 0.577688 0.480907 0.107518 0.02923
C_ C_ 0.595538 0.93424 0.113582 0.69207
C_ C_ 0.606907 0.667886 0.114826 0.69661
C_ C_ 0.937334 0.680773 0.435346 0.18167
C_ C_ 0.977403 0.698942 0.469337 -0.15533
C_ C_ 0.966869 0.741031 0.504777 0.02923
C_ C_ 0.928333 0.755108 1.0223812 -0.15533
C_ C_ 0.879891 0.720444 0.492549 0.18167
C_ C_ 0.763305 0.708231 0.356125 0.18167
C_ C_ 0.742948 0.742358 0.318847 -0.15533
C_ C_ 0.765523 0.741352 0.271966 0.02923
C_ C_ 0.815181 0.716665 0.271398 -0.15533
C_ C_ 0.840659 0.691163 0.313089 0.18167
C_ C_ 0.756395 0.622189 0.449003 0.69207
C_ C_ 0.727814 0.616239 0.99519 0.02923
C_ C_ 0.747178 0.610045 0.0451242 -0.15533
C_ C_ 0.717914 0.605778 0.0856975 -0.15533
C_ C_ 0.665921 0.604132 0.0745073 0.02923
C_ C_ 0.646874 0.603469 0.0234342 -0.15533
C_ C_ 0.674417 0.610291 0.983384 0.02923
C_ C_ 0.644652 0.613375 0.428778 0.69207
C_ C_ 0.650945 0.609084 0.172367 0.69661
C_ C_ 0.87539 0.883231 0.390594 -0.30787
C_ C_ 0.629433 0.611393 0.116034 -0.30787
N_ N_ 0.65051 0.558687 0.316075 -0.32189
N_ N_ 0.555435 0.647917 0.317724 -0.32189
N_ N_ 0.609182 0.816819 0.066231 -0.32189
N_ N_ 0.692912 0.831 0.151827 -0.32189
N_ N_ 0.860794 0.951451 0.200004 -0.32189
N_ N_ 0.944786 0.856133 0.191632 -0.32189
N_ N_ 0.888651 0.692254 0.448397 -0.32189
N_ N_ 0.81384 0.688115 0.355416 -0.32189
O_ O_ 0.0125397 0.581977 0.392795 -0.63271
O_ O_ 0.543279 0.536187 0.332419 -0.57982
O_ O_ 0.904767 0.591764 0.339449 -0.63271
O_ O_ 0.873522 0.590988 0.416898 -0.57982
O_ O_ 0.747861 0.898242 0.0966569 -0.63271
O_ O_ 0.697968 0.86298 0.0366483 -0.57982
O_ O_ 0.856277 0.851153 0.090836 -0.63271
O_ O_ 0.878946 0.931843 0.0965693 -0.57982
O_ O_ 0.489292 0.919116 0.107703 -0.63271
O_ O_ 0.965876 0.957623 0.168973 -0.57982
O_ O_ 0.59669 0.910767 0.156728 -0.63271
O_ O_ 0.624062 0.913976 0.0788244 -0.57982
O_ O_ 0.749508 0.600758 0.401271 -0.63271
O_ O_ 0.790533 0.655023 0.459032 -0.57982
O_ O_ 0.650888 0.65137 0.400631 -0.63271
O_ O_ 0.612567 0.580947 0.41201 -0.57982
F_ F_ 0.931571 0.82311 0.439854 -0.20885
F_ F_ 0.931528 0.809048 0.355505 -0.20885
F_ F_ 0.865872 0.790708 0.399048 -0.20885
F_ F_ 0.819103 0.92649 0.32819 -0.20885
F_ F_ 0.830488 0.844684 0.306579 -0.20885
F_ F_ 0.890217 0.893625 0.300594 -0.20885
F_ F_ 0.574002 0.672705 0.0704087 -0.20885
F_ F_ 0.577328 0.686605 0.154214 -0.20885
F_ F_ 0.643438 0.700443 0.116471 -0.20885
F_ F_ 0.679332 0.561289 0.179544 -0.20885
F_ F_ 0.679346 0.647891 0.191319 -0.20885
F_ F_ 0.615576 0.608609 0.206201 -0.20885
Zn Zn 0.589034 0.587183 0.850381 0.83971
Zn Zn 0.658234 0.843902 0.582665 0.83971
Zn Zn 0.908165 0.90971 0.649255 0.83971
Zn Zn 0.84221 0.656693 0.923578 0.83971
H_ H_ 0.677169 0.630386 0.82582 0.10394
H_ H_ 0.750413 0.598461 0.773318 0.10394
H_ H_ 0.716969 0.950476 0.787863 0.10394
H_ H_ 0.628275 0.482949 0.816507 0.10394
H_ H_ 0.0170351 0.604012 0.742337 0.10394
H_ H_ 0.987234 0.683884 0.701572 0.10394
H_ H_ 0.533608 0.771456 0.827006 0.10394
H_ H_ 0.571281 0.701025 0.876209 0.10394
H_ H_ 0.541283 0.947358 0.867698 0.10394
H_ H_ 0.959789 0.880434 0.845667 0.10394
H_ H_ 0.84861 0.992488 0.906117 0.10394
H_ H_ 0.58387 0.795504 0.628674 0.10394
H_ H_ -0.00175387 0.760457 0.609402 0.10394
H_ H_ 0.54711 0.786773 0.950711 0.10394
H_ H_ 0.609422 0.828821 0.476916 0.10394
H_ H_ 0.711884 0.749439 0.599347 0.10394
H_ H_ 0.755029 0.703176 0.674451 0.10394
H_ H_ 0.715289 0.840136 0.771193 0.10394
H_ H_ 0.673427 0.878485 0.694643 0.10394
H_ H_ 0.70764 0.909702 0.953646 0.10394
H_ H_ 0.759372 0.907923 0.880462 0.10394
H_ H_ 0.893257 0.907729 0.98405 0.10394
H_ H_ 0.800639 0.895276 0.654266 0.10394
H_ H_ 0.731878 0.945836 0.686367 0.10394
H_ H_ 0.839259 0.536856 0.787849 0.10394
H_ H_ 0.904116 0.979889 0.746811 0.10394
H_ H_ 0.506922 0.87803 0.686556 0.10394
H_ H_ 0.553944 0.797528 0.723964 0.10394
H_ H_ 0.916736 0.749346 0.733673 0.10394
H_ H_ 0.874512 0.821331 0.686098 0.10394
H_ H_ 0.962554 0.559768 0.626217 0.10394
H_ H_ 0.52575 0.618634 0.625876 0.10394
H_ H_ 0.64425 0.502778 0.583129 0.10394
H_ H_ 0.940396 0.671155 0.896927 0.10394
H_ H_ 0.518346 0.707472 0.94221 0.10394
H_ H_ 0.904868 0.771431 0.552048 0.10394
H_ H_ 0.853616 0.726815 1.0187666 0.10394
H_ H_ 0.732211 0.708352 0.892385 0.10394
H_ H_ 0.687999 0.741096 0.812474 0.10394
H_ H_ 0.836917 0.742512 0.758337 0.10394
H_ H_ 0.874135 0.696436 0.833286 0.10394
H_ H_ 0.791703 0.600945 0.546316 0.10394
H_ H_ 0.737856 0.600141 0.616148 0.10394
H_ H_ 0.603807 0.595664 0.51097 0.10394
C_ C_ 0.68182 0.591536 0.813667 0.18167
C_ C_ 0.724365 0.573381 0.786442 -0.15533
C_ C_ 0.736894 0.519628 0.777965 0.02923
C_ C_ 0.708581 0.992059 0.788063 -0.15533
C_ C_ 0.654108 0.50838 0.803885 0.18167
C_ C_ 0.533434 0.632883 0.767574 0.18167
C_ C_ 0.00633949 0.683511 0.739382 -0.15533
C_ C_ 0.508989 0.723839 0.761344 0.02923
C_ C_ 0.531231 0.731849 0.811615 -0.15533
C_ C_ 0.549352 0.689552 0.840278 0.18167
C_ C_ 0.507559 0.545094 0.863513 0.69207
C_ C_ 0.963474 0.00864224 0.863448 0.02923
C_ C_ -0.025913999999999993 0.958357 0.843066 -0.15533
C_ C_ 0.946973 0.917368 0.856264 -0.15533
C_ C_ 0.900705 0.929111 0.881526 0.02923
C_ C_ 0.884899 0.98148 0.889187 -0.15533
C_ C_ 0.916916 0.0215178 0.884128 0.02923
C_ C_ 0.898607 0.574077 0.894984 0.69207
C_ C_ 0.891724 0.834856 0.8952 0.69661
C_ C_ 0.574012 0.791053 0.587823 0.18167
C_ C_ 0.531458 0.765366 0.570351 -0.15533
C_ C_ 0.512877 0.768514 0.518195 0.02923
C_ C_ 0.556343 0.78822 0.993048 -0.15533
C_ C_ 0.586256 0.812459 0.501717 0.18167
C_ C_ 0.711353 0.76756 0.636247 0.18167
C_ C_ 0.738041 0.742692 0.679368 -0.15533
C_ C_ 0.737509 0.767535 0.727973 0.02923
C_ C_ 0.715231 0.817004 0.733539 -0.15533
C_ C_ 0.689227 0.839872 0.690674 0.18167
C_ C_ 0.737701 0.871338 0.546111 0.69207
C_ C_ 0.773275 0.894262 1.00925638 0.02923
C_ C_ 0.748145 0.905858 0.961073 -0.15533
C_ C_ 0.775719 0.902783 0.918114 -0.15533
C_ C_ 0.829095 0.900085 0.927133 0.02923
C_ C_ 0.851743 0.910312 0.977977 -0.15533
C_ C_ 0.82623 0.903219 0.0203873 0.02923
C_ C_ 0.848951 0.886403 0.571023 0.69207
C_ C_ 0.840248 0.887695 0.83022 0.69661
C_ C_ 0.810592 0.927257 0.681152 0.18167
C_ C_ 0.76973 0.95781 0.697973 -0.15533
C_ C_ 0.77762 -3.04967e-05 0.731083 0.02923
C_ C_ 0.82757 0.513905 0.7527 -0.15533
C_ C_ 0.867657 0.981068 0.725888 0.18167
C_ C_ 0.992531 0.859697 0.707575 0.18167
C_ C_ 0.514052 0.802305 0.716055 -0.15533
C_ C_ 0.990294 0.778701 0.743794 0.02923
C_ C_ 0.937381 0.780197 0.726283 -0.15533
C_ C_ 0.914414 0.819887 0.696066 0.18167
C_ C_ 0.98855 0.94883 0.622154 0.69207
C_ C_ 0.521548 0.489119 0.608342 0.02923
C_ C_ 0.504231 0.541036 0.616912 -0.15533
C_ C_ 0.538244 0.578624 0.615866 -0.15533
C_ C_ 0.590708 0.565348 0.605424 0.02923
C_ C_ 0.604963 0.513827 0.589977 -0.15533
C_ C_ 0.574466 0.475924 0.60328 0.02923
C_ C_ 0.592915 0.92455 0.609222 0.69207
C_ C_ 0.607247 0.659718 0.61216 0.69661
C_ C_ 0.939092 0.689378 0.9347 0.18167
C_ C_ 0.977162 0.719835 0.952908 -0.15533
C_ C_ 0.972147 0.752146 0.99744302 0.02923
C_ C_ 0.917721 0.745113 0.522695 -0.15533
C_ C_ 0.889288 0.725611 1.00170241 0.18167
C_ C_ 0.755904 0.710914 0.859915 0.18167
C_ C_ 0.730596 0.733004 0.814703 -0.15533
C_ C_ 0.759125 0.741331 0.774583 0.02923
C_ C_ 0.812166 0.730931 0.783757 -0.15533
C_ C_ 0.835346 0.707148 0.828416 0.18167
C_ C_ 0.761578 0.627935 0.95877 0.69207
C_ C_ 0.724571 0.610565 0.488379 0.02923
C_ C_ 0.749722 0.604261 0.539454 -0.15533
C_ C_ 0.718744 0.601619 0.579822 -0.15533
C_ C_ 0.666169 0.597627 0.572533 0.02923
C_ C_ 0.644678 0.599358 0.520436 -0.15533
C_ C_ 0.672017 0.605588 0.479266 0.02923
C_ C_ 0.644589 0.614793 0.931682 0.69207
C_ C_ 0.660219 0.59846 0.667189 0.69661
C_ C_ 0.864047 0.888907 0.885147 -0.30787
C_ C_ 0.631235 0.604309 0.61414 -0.30787
N_ N_ 0.646546 0.559109 0.818991 -0.32189
N_ N_ 0.55753 0.642292 0.817053 -0.32189
N_ N_ 0.602213 0.809791 0.553464 -0.32189
N_ N_ 0.688754 0.814695 0.643393 -0.32189
N_ N_ 0.858185 0.943018 0.687703 -0.32189
N_ N_ 0.944107 0.855494 0.683013 -0.32189
N_ N_ 0.894017 0.698131 0.95726 -0.32189
N_ N_ 0.806105 0.695796 0.864839 -0.32189
O_ O_ 1.0135017 0.590125 0.901459 -0.63271
O_ O_ 0.547539 0.536425 0.834417 -0.57982
O_ O_ 0.896708 0.605292 0.85741 -0.63271
O_ O_ 0.877205 0.594955 0.936677 -0.57982
O_ O_ 0.73928 0.898308 0.590925 -0.63271
O_ O_ 0.704921 0.837248 0.538467 -0.57982
O_ O_ 0.853044 0.84311 0.59453 -0.63271
O_ O_ 0.873275 0.923893 0.589179 -0.57982
O_ O_ 0.472879 0.909247 0.594963 -0.63271
O_ O_ 0.949117 0.961993 0.650526 -0.57982
O_ O_ 0.579916 0.896359 0.643348 -0.63271
O_ O_ 0.625868 0.905431 0.579865 -0.57982
O_ O_ 0.757292 0.607974 0.91146 -0.63271
O_ O_ 0.793063 0.661187 0.970173 -0.57982
O_ O_ 0.644398 0.657112 0.907467 -0.63271
O_ O_ 0.618503 0.580097 0.911023 -0.57982
F_ F_ 0.922492 0.834431 0.93944 -0.20885
F_ F_ 0.92175 0.811355 0.858584 -0.20885
F_ F_ 0.857679 0.796815 0.901039 -0.20885
F_ F_ 0.816037 0.935984 0.820154 -0.20885
F_ F_ 0.804707 0.85412 0.820885 -0.20885
F_ F_ 0.87313 0.875086 0.792921 -0.20885
F_ F_ 0.569634 0.664347 0.572872 -0.20885
F_ F_ 0.582456 0.67591 0.654936 -0.20885
F_ F_ 0.643994 0.694452 0.608058 -0.20885
F_ F_ 0.695637 0.554727 0.66941 -0.20885
F_ F_ 0.684757 0.638273 0.692088 -0.20885
F_ F_ 0.626196 0.59246 0.70175 -0.20885
_cell_length_a 26.508
_cell_length_b 26.37200000322088
_cell_length_c 26.311999743092066
_cell_angle_alpha 93.74100058972084
_cell_angle_beta 96.04100104955006
_cell_angle_gamma 83.6869992558723
_symmetry_space_group_name_H-M         'P 1'
_symmetry_Int_Tables_number            1
loop_
_symmetry_equiv_pos_as_xyz
   'x, y, z'
                         
loop_
_atom_site_label
_atom_site_type_symbol
_atom_site_fract_x 
_atom_site_fract_y
_atom_site_fract_z
_atom_site_charge
Zn Zn 0.0831684 0.082073 0.349955 0.83971
Zn Zn 0.160626 0.343125 0.082515 0.83971
Zn Zn 0.417689 0.415678 0.153748 0.83971
Zn Zn 0.334288 0.157697 0.41591 0.83971
H_ H_ 0.164156 0.132161 0.306557 0.10394
H_ H_ 0.242449 0.0954827 0.271497 0.10394
H_ H_ 0.226217 0.446132 0.296879 0.10394
H_ H_ 0.125215 0.979621 0.32047 0.10394
H_ H_ 0.530726 0.0982453 0.255726 0.10394
H_ H_ 0.487781 0.16467 0.207556 0.10394
H_ H_ 0.0388271 0.269081 0.335505 0.10394
H_ H_ 0.0741796 0.186641 0.37677 0.10394
H_ H_ 0.0358748 0.441355 0.39443 0.10394
H_ H_ 0.493736 0.393698 0.410741 0.10394
H_ H_ 0.354515 0.487721 0.404784 0.10394
H_ H_ 0.0873237 0.298568 0.135047 0.10394
H_ H_ 0.505668 0.263284 0.106165 0.10394
H_ H_ 0.0330997 0.275937 0.442419 0.10394
H_ H_ 0.114983 0.33044 0.986818 0.10394
H_ H_ 0.217827 0.248478 0.0900971 0.10394
H_ H_ 0.253909 0.197679 0.161078 0.10394
H_ H_ 0.209939 0.327821 0.262238 0.10394
H_ H_ 0.172308 0.376154 0.188944 0.10394
H_ H_ 0.233693 0.327467 0.433214 0.10394
H_ H_ 0.290597 0.346833 0.36789 0.10394
H_ H_ 0.393822 0.410703 0.487372 0.10394
H_ H_ 0.312529 0.39215 0.162831 0.10394
H_ H_ 0.237895 0.440737 0.199464 0.10394
H_ H_ 0.326855 0.0270493 0.299321 0.10394
H_ H_ 0.407221 0.500576 0.231988 0.10394
H_ H_ 0.0184073 0.36961 0.174998 0.10394
H_ H_ 0.062556 0.298379 0.222772 0.10394
H_ H_ 0.416773 0.25221 0.244725 0.10394
H_ H_ 0.376385 0.326205 0.19312 0.10394
H_ H_ 0.456988 0.0633172 0.105624 0.10394
H_ H_ 0.0185487 0.117231 0.107085 0.10394
H_ H_ 0.141519 0.00264843 0.0809873 0.10394
H_ H_ 0.431752 0.162915 0.403598 0.10394
H_ H_ 0.0189237 0.187746 0.453576 0.10394
H_ H_ 0.415531 0.278508 0.0561947 0.10394
H_ H_ 0.337183 0.243757 0.504879 0.10394
H_ H_ 0.2266 0.198639 0.378142 0.10394
H_ H_ 0.186156 0.23784 0.299908 0.10394
H_ H_ 0.331801 0.211039 0.238182 0.10394
H_ H_ 0.37342 0.184334 0.321259 0.10394
H_ H_ 0.28949 0.124854 0.0602974 0.10394
H_ H_ 0.230537 0.107216 0.121691 0.10394
H_ H_ 0.111236 0.0977598 0.00272986 0.10394
C_ C_ 0.172283 0.0890981 0.301659 0.18167
C_ C_ 0.215884 0.0700611 0.278147 -0.15533
C_ C_ 0.227083 0.0168322 0.269248 0.02923
C_ C_ 0.212336 0.484898 0.293702 -0.15533
C_ C_ 0.149381 0.00546000000000002 0.305852 0.18167
C_ C_ 0.0260461 0.129929 0.269329 0.18167
C_ C_ 0.507422 0.17373 0.243728 -0.15533
C_ C_ 0.0131142 0.222329 0.263687 0.02923
C_ C_ 0.0342152 0.22936 0.314138 -0.15533
C_ C_ 0.0502131 0.185343 0.340215 0.18167
C_ C_ 0.00444297 0.0406077 0.36713 0.69207
C_ C_ 0.470951 0.514211 0.371839 0.02923
C_ C_ 0.495346 0.464216 0.377812 -0.15533
C_ C_ 0.470665 0.427577 0.398149 -0.15533
C_ C_ 0.417115 0.43483 0.399668 0.02923
C_ C_ 0.393307 0.484685 0.39535 -0.15533
C_ C_ 0.419458 0.525246 0.384017 0.02923
C_ C_ 0.38804 0.0733717 0.396269 0.69207
C_ C_ 0.41838 0.337647 0.383289 0.69661
C_ C_ 0.076812 0.293494 0.0940529 0.18167
C_ C_ 0.0333736 0.268617 0.074224 -0.15533
C_ C_ 0.02412 0.261159 0.0209649 0.02923
C_ C_ 0.0456575 0.28094 0.483266 -0.15533
C_ C_ 0.0945785 0.309755 0.00812682 0.18167
C_ C_ 0.219955 0.267479 0.127586 0.18167
C_ C_ 0.236504 0.236681 0.168125 -0.15533
C_ C_ 0.237638 0.259518 0.218774 0.02923
C_ C_ 0.21943 0.311931 0.224805 -0.15533
C_ C_ 0.197991 0.339172 0.182516 0.18167
C_ C_ 0.246134 0.363282 0.0482257 0.69207
C_ C_ 0.277905 0.366131 0.496919 0.02923
C_ C_ 0.267446 0.348308 0.445387 -0.15533
C_ C_ 0.299282 0.359646 0.408661 -0.15533
C_ C_ 0.346263 0.381646 0.421964 0.02923
C_ C_ 0.357508 0.395395 0.47576 -0.15533
C_ C_ 0.325883 0.384029 0.512995 0.02923
C_ C_ 0.35371 0.386163 0.0723908 0.69207
C_ C_ 0.363776 0.391496 0.327369 0.69661
C_ C_ 0.316025 0.427766 0.183356 0.18167
C_ C_ 0.273266 0.455886 0.202368 -0.15533
C_ C_ 0.279444 0.49814 0.236236 0.02923
C_ C_ 0.322143 0.00454999 0.263107 -0.15533
C_ C_ 0.369419 0.488496 0.222263 0.18167
C_ C_ 0.497701 0.347424 0.193985 0.18167
C_ C_ 0.0218871 0.300704 0.216503 -0.15533
C_ C_ 0.491897 0.269322 0.231765 0.02923
C_ C_ 0.440279 0.278268 0.228092 -0.15533
C_ C_ 0.416837 0.3193 0.199603 0.18167
C_ C_ 0.493989 0.454876 0.126898 0.69207
C_ C_ 0.0286289 0.990104 0.12226 0.02923
C_ C_ 0.0100671 0.042014 0.123046 -0.15533
C_ C_ 0.037654 0.0785968 0.10634 -0.15533
C_ C_ 0.0870791 0.0661933 0.0978395 0.02923
C_ C_ 0.10348 0.0142025 0.0927742 -0.15533
C_ C_ 0.076846 0.976069 0.109074 0.02923
C_ C_ 0.0999211 0.423925 0.0985209 0.69207
C_ C_ 0.103765 0.161881 0.109695 0.69661
C_ C_ 0.425899 0.192613 0.428976 0.18167
C_ C_ 0.469917 0.21276 0.453443 -0.15533
C_ C_ 0.461561 0.250748 0.492069 0.02923
C_ C_ 0.424747 0.251662 0.0250093 -0.15533
C_ C_ 0.372008 0.240846 0.485655 0.18167
C_ C_ 0.251077 0.202982 0.349557 0.18167
C_ C_ 0.228623 0.228475 0.305783 -0.15533
C_ C_ 0.256749 0.228391 0.263422 0.02923
C_ C_ 0.309085 0.212922 0.270686 -0.15533
C_ C_ 0.332766 0.195619 0.318539 0.18167
C_ C_ 0.259355 0.128091 0.452136 0.69207
C_ C_ 0.231527 0.113947 0.990524 0.02923
C_ C_ 0.25024 0.11736 0.0451273 -0.15533
C_ C_ 0.216254 0.109769 0.081943 -0.15533
C_ C_ 0.166388 0.100823 0.0683045 0.02923
C_ C_ 0.149164 0.0967169 0.016051 -0.15533
C_ C_ 0.179354 0.105861 0.977477 0.02923
C_ C_ 0.151039 0.101902 0.425823 0.69207
C_ C_ 0.151952 0.0969697 0.166029 0.69661
C_ C_ 0.384847 0.388314 0.384914 -0.30787
C_ C_ 0.1278 0.105306 0.109795 -0.30787
N_ N_ 0.137709 0.056755 0.3086 -0.32189
N_ N_ 0.048288 0.137664 0.318302 -0.32189
N_ N_ 0.105824 0.309828 0.0592984 -0.32189
N_ N_ 0.195889 0.315289 0.135926 -0.32189
N_ N_ 0.361802 0.447922 0.191311 -0.32189
N_ N_ 0.446536 0.354135 0.183973 -0.32189
N_ N_ 0.378977 0.205703 0.446248 -0.32189
N_ N_ 0.301651 0.184385 0.354679 -0.32189
O_ O_ 0.498027 0.0927404 0.398958 -0.63271
O_ O_ 0.0390465 0.0301918 0.336011 -0.57982
O_ O_ 0.379339 0.0993274 0.353194 -0.63271
O_ O_ 0.364311 0.0950563 0.433961 -0.57982
O_ O_ 0.247654 0.390221 0.0919535 -0.63271
O_ O_ 0.209939 0.335517 0.0373731 -0.57982
O_ O_ 0.355466 0.342586 0.0950784 -0.63271
O_ O_ 0.385478 0.420891 0.0908646 -0.57982
O_ O_ 0.984081 0.398941 0.0796375 -0.63271
O_ O_ 0.459888 0.461287 0.15952 -0.57982
O_ O_ 0.0953854 0.396465 0.136179 -0.63271
O_ O_ 0.134788 0.40848 0.0711052 -0.57982
O_ O_ 0.259637 0.104235 0.407813 -0.63271
O_ O_ 0.28864 0.165562 0.45977 -0.57982
O_ O_ 0.160403 0.138174 0.398098 -0.63271
O_ O_ 0.110776 0.0774587 0.412473 -0.57982
F_ F_ 0.44876 0.330122 0.428543 -0.20885
F_ F_ 0.453026 0.331996 0.345863 -0.20885
F_ F_ 0.389509 0.296251 0.376295 -0.20885
F_ F_ 0.321801 0.426439 0.324748 -0.20885
F_ F_ 0.34579 0.348205 0.30283 -0.20885
F_ F_ 0.395468 0.407874 0.296183 -0.20885
F_ F_ 0.0760508 0.174281 0.0645401 -0.20885
F_ F_ 0.0738135 0.177537 0.14908 -0.20885
F_ F_ 0.142409 0.193858 0.120091 -0.20885
F_ F_ 0.182868 0.0520363 0.169631 -0.20885
F_ F_ 0.178433 0.138192 0.187964 -0.20885
F_ F_ 0.114483 0.0908335 0.198545 -0.20885
Zn Zn 0.0835437 0.0870283 0.842973 0.83971
Zn Zn 0.157712 0.347326 0.575752 0.83971
Zn Zn 0.408334 0.415877 0.650173 0.83971
Zn Zn 0.343799 0.15752 0.915072 0.83971
H_ H_ 0.155077 0.137637 0.793489 0.10394
H_ H_ 0.230266 0.101116 0.7472 0.10394
H_ H_ 0.215699 0.449956 0.798737 0.10394
H_ H_ 0.139938 0.99046 0.844725 0.10394
H_ H_ 0.520306 0.105379 0.754161 0.10394
H_ H_ 0.47923 0.180225 0.708888 0.10394
H_ H_ 0.0454564 0.272307 0.837553 0.10394
H_ H_ 0.0746305 0.197032 0.881098 0.10394
H_ H_ 0.0329419 0.45181 0.868968 0.10394
H_ H_ 0.469455 0.376882 0.849966 0.10394
H_ H_ 0.360965 0.4889 0.916647 0.10394
H_ H_ 0.0803017 0.305362 0.627512 0.10394
H_ H_ 0.49092 0.280299 0.598904 0.10394
H_ H_ 0.0426061 0.285583 0.946494 0.10394
H_ H_ 0.117975 0.310537 0.475946 0.10394
H_ H_ 0.218142 0.253567 0.595184 0.10394
H_ H_ 0.253713 0.213922 0.671502 0.10394
H_ H_ 0.22096 0.344408 0.767963 0.10394
H_ H_ 0.172121 0.383127 0.690045 0.10394
H_ H_ 0.207988 0.378747 0.951176 0.10394
H_ H_ 0.261988 0.397219 0.881528 0.10394
H_ H_ 0.396709 0.399668 0.985268 0.10394
H_ H_ 0.306335 0.399769 0.657309 0.10394
H_ H_ 0.234469 0.448351 0.694472 0.10394
H_ H_ 0.328371 0.0437991 0.785703 0.10394
H_ H_ 0.411691 0.494565 0.726715 0.10394
H_ H_ 0.0158623 0.392798 0.70321 0.10394
H_ H_ 0.0526042 0.316192 0.749612 0.10394
H_ H_ 0.404871 0.254779 0.736692 0.10394
H_ H_ 0.367963 0.327785 0.689665 0.10394
H_ H_ 0.452212 0.0490858 0.603259 0.10394
H_ H_ 0.0171227 0.117417 0.616114 0.10394
H_ H_ 0.140612 0.00184941 0.579139 0.10394
H_ H_ 0.439393 0.179574 0.892993 0.10394
H_ H_ 0.0196359 0.178301 0.95153 0.10394
H_ H_ 0.408886 0.29109 0.542484 0.10394
H_ H_ 0.346654 0.237622 0.00949407 0.10394
H_ H_ 0.240408 0.191872 0.881498 0.10394
H_ H_ 0.194514 0.239457 0.807692 0.10394
H_ H_ 0.334637 0.223349 0.737057 0.10394
H_ H_ 0.377835 0.17958 0.808203 0.10394
H_ H_ 0.288009 0.114193 0.555408 0.10394
H_ H_ 0.236771 0.0965265 0.617142 0.10394
H_ H_ 0.111024 0.0758617 0.504756 0.10394
C_ C_ 0.167856 0.0965494 0.795516 0.18167
C_ C_ 0.213143 0.0773034 0.77412 -0.15533
C_ C_ 0.229721 0.0236967 0.771152 0.02923
C_ C_ 0.207563 0.48992 0.794881 -0.15533
C_ C_ 0.161158 0.0120775 0.821327 0.18167
C_ C_ 0.0272955 0.142927 0.768126 0.18167
C_ C_ 0.509877 0.183878 0.742735 -0.15533
C_ C_ 0.011274 0.233487 0.772176 0.02923
C_ C_ 0.0357005 0.235756 0.82086 -0.15533
C_ C_ 0.0573158 0.192066 0.84151 0.18167
C_ C_ -8.66851e-05 0.0475227 0.860654 0.69207
C_ C_ 0.471916 0.506076 0.867458 0.02923
C_ C_ 0.490713 0.454169 0.860838 -0.15533
C_ C_ 0.45767 0.415481 0.866447 -0.15533
C_ C_ 0.409724 0.427005 0.88749 0.02923
C_ C_ 0.396102 0.478798 0.900005 -0.15533
C_ C_ 0.423211 0.519511 0.883857 0.02923
C_ C_ 0.401434 0.0720551 0.874563 0.69207
C_ C_ 0.392654 0.3307 0.881105 0.69661
C_ C_ 0.0713061 0.298078 0.586047 0.18167
C_ C_ 0.0259509 0.275001 0.570623 -0.15533
C_ C_ 0.0113776 0.267714 0.518371 0.02923
C_ C_ 0.0516294 0.286382 0.987937 -0.15533
C_ C_ 0.0910904 0.302799 0.502108 0.18167
C_ C_ 0.214336 0.274513 0.632745 0.18167
C_ C_ 0.231535 0.247759 0.676524 -0.15533
C_ C_ 0.237385 0.272116 0.72462 0.02923
C_ C_ 0.218013 0.323598 0.7301 -0.15533
C_ C_ 0.191298 0.34475 0.685106 0.18167
C_ C_ 0.240682 0.360657 0.536792 0.69207
C_ C_ 0.276717 0.373854 0.00807617 0.02923
C_ C_ 0.251058 0.380006 0.959193 -0.15533
C_ C_ 0.279932 0.393682 0.920158 -0.15533
C_ C_ 0.334349 0.393272 0.927708 0.02923
C_ C_ 0.356237 0.396052 0.977418 -0.15533
C_ C_ 0.328869 0.386115 0.0176973 0.02923
C_ C_ 0.34632 0.381627 0.566758 0.69207
C_ C_ 0.341218 0.393747 0.83071 0.69661
C_ C_ 0.312456 0.432997 0.680643 0.18167
C_ C_ 0.273347 0.454403 0.707661 -0.15533
C_ C_ 0.283886 0.496998 0.743772 0.02923
C_ C_ 0.321057 0.019224 0.753623 -0.15533
C_ C_ 0.373489 0.484372 0.723567 0.18167
C_ C_ 0.489473 0.353226 0.698784 0.18167
C_ C_ 0.0129246 0.322474 0.740017 -0.15533
C_ C_ 0.481794 0.276946 0.741767 0.02923
C_ C_ 0.428633 0.281553 0.722246 -0.15533
C_ C_ 0.407308 0.32453 0.698069 0.18167
C_ C_ 0.48384 0.453176 0.616464 0.69207
C_ C_ 0.0235611 0.988189 0.612559 0.02923
C_ C_ 0.00407831 0.0388436 0.618177 -0.15533
C_ C_ 0.0351504 0.0770837 0.612327 -0.15533
C_ C_ 0.0856389 0.0643613 0.599633 0.02923
C_ C_ 0.102246 0.0128241 0.58999 -0.15533
C_ C_ 0.0739481 0.97527 0.601759 0.02923
C_ C_ 0.0940978 0.425744 0.604147 0.69207
C_ C_ 0.103093 0.160165 0.603108 0.69661
C_ C_ 0.435829 0.195448 0.932198 0.18167
C_ C_ 0.47578 0.219131 0.957135 -0.15533
C_ C_ 0.470657 0.250829 1.00206302 0.02923
C_ C_ 0.413134 0.264094 0.509282 -0.15533
C_ C_ 0.384933 0.226343 0.998252 0.18167
C_ C_ 0.26042 0.200679 0.849298 0.18167
C_ C_ 0.235114 0.229846 0.809905 -0.15533
C_ C_ 0.262762 0.240202 0.768395 0.02923
C_ C_ 0.312741 0.218966 0.768883 -0.15533
C_ C_ 0.338197 0.194606 0.812179 0.18167
C_ C_ 0.265942 0.120341 0.950828 0.69207
C_ C_ 0.227025 0.1136 0.48994 0.02923
C_ C_ 0.247449 0.112259 0.542761 -0.15533
C_ C_ 0.21671 0.1051 0.579476 -0.15533
C_ C_ 0.164252 0.096035 0.568875 0.02923
C_ C_ 0.146798 0.0905638 0.516098 -0.15533
C_ C_ 0.176974 0.100541 0.476865 0.02923
C_ C_ 0.152097 0.11149 0.92472 0.69207
C_ C_ 0.146949 0.0977381 0.664408 0.69661
C_ C_ 0.369908 0.387183 0.882865 -0.30787
C_ C_ 0.12501 0.104164 0.608608 -0.30787
N_ N_ 0.138699 0.0607457 0.810439 -0.32189
N_ N_ 0.054068 0.145847 0.81638 -0.32189
N_ N_ 0.102296 0.309862 0.552383 -0.32189
N_ N_ 0.188089 0.319408 0.638078 -0.32189
N_ N_ 0.359984 0.447817 0.687765 -0.32189
N_ N_ 0.43908 0.358357 0.686291 -0.32189
N_ N_ 0.391839 0.196938 0.953754 -0.32189
N_ N_ 0.311658 0.186552 0.8527 -0.32189
O_ O_ 0.508963 0.0920559 0.888833 -0.63271
O_ O_ 0.0372765 0.0393566 0.834106 -0.57982
O_ O_ 0.398138 0.0937235 0.831777 -0.63271
O_ O_ 0.378462 0.0945409 0.912406 -0.57982
O_ O_ 0.242028 0.387747 0.580115 -0.63271
O_ O_ 0.20317 0.333836 0.527461 -0.57982
O_ O_ 0.35295 0.337713 0.589607 -0.63271
O_ O_ 0.371211 0.418586 0.587472 -0.57982
O_ O_ 0.991565 0.409777 0.604852 -0.63271
O_ O_ 0.454408 0.461474 0.653902 -0.57982
O_ O_ 0.0924711 0.399642 0.644418 -0.63271
O_ O_ 0.125055 0.407959 0.570657 -0.57982
O_ O_ 0.26552 0.0964497 0.906728 -0.63271
O_ O_ 0.297069 0.155453 0.961971 -0.57982
O_ O_ 0.160584 0.149981 0.898238 -0.63271
O_ O_ 0.111222 0.0881312 0.911903 -0.57982
F_ F_ 0.428348 0.320861 0.920878 -0.20885
F_ F_ 0.414094 0.318798 0.835454 -0.20885
F_ F_ 0.35647 0.294612 0.876273 -0.20885
F_ F_ 0.310005 0.437942 0.82623 -0.20885
F_ F_ 0.310927 0.355772 0.816265 -0.20885
F_ F_ 0.375013 0.393366 0.790132 -0.20885
F_ F_ 0.0731148 0.167533 0.557954 -0.20885
F_ F_ 0.0763637 0.177969 0.644971 -0.20885
F_ F_ 0.139565 0.19195 0.603808 -0.20885
F_ F_ 0.17552 0.0526411 0.665638 -0.20885
F_ F_ 0.17727 0.135864 0.679864 -0.20885
F_ F_ 0.112793 0.101415 0.700153 -0.20885
Zn Zn 0.0881598 0.573636 0.342705 0.83971
Zn Zn 0.16636 0.846163 0.0767918 0.83971
Zn Zn 0.410106 0.928307 0.157109 0.83971
Zn Zn 0.337744 0.65764 0.414543 0.83971
H_ H_ 0.164516 0.628295 0.296444 0.10394
H_ H_ 0.24408 0.597673 0.257254 0.10394
H_ H_ 0.197197 0.942606 0.268513 0.10394
H_ H_ 0.14755 0.47776 0.334668 0.10394
H_ H_ 0.524837 0.604476 0.250589 0.10394
H_ H_ 0.499874 0.682768 0.205049 0.10394
H_ H_ 0.0240632 0.767504 0.332075 0.10394
H_ H_ 0.068791 0.692816 0.380256 0.10394
H_ H_ 0.0315496 0.940786 0.373711 0.10394
H_ H_ 0.468249 0.878832 0.380756 0.10394
H_ H_ 0.344083 0.992542 0.412533 0.10394
H_ H_ 0.0911276 0.799954 0.126839 0.10394
H_ H_ 0.505067 0.772248 0.106382 0.10394
H_ H_ 0.0281388 0.788087 0.457116 0.10394
H_ H_ 0.124526 0.80675 0.972601 0.10394
H_ H_ 0.202866 0.735927 0.0995601 0.10394
H_ H_ 0.240675 0.695326 0.175843 0.10394
H_ H_ 0.214618 0.837734 0.259993 0.10394
H_ H_ 0.189151 0.881209 0.182432 0.10394
H_ H_ 0.211785 0.852099 0.44869 0.10394
H_ H_ 0.25238 0.88541 0.381712 0.10394
H_ H_ 0.384724 0.902374 0.485786 0.10394
H_ H_ 0.306644 0.925882 0.137135 0.10394
H_ H_ 0.227663 0.956986 0.179961 0.10394
H_ H_ 0.335053 0.54778 0.272196 0.10394
H_ H_ 0.40246 -0.0044680000000000275 0.251647 0.10394
H_ H_ 0.0228862 0.869276 0.190174 0.10394
H_ H_ 0.0573083 0.78407 0.225412 0.10394
H_ H_ 0.41001 0.757399 0.225011 0.10394
H_ H_ 0.369568 0.828948 0.182454 0.10394
H_ H_ 0.476756 0.554955 0.152256 0.10394
H_ H_ 0.0040800000000000836 0.611547 0.088907 0.10394
H_ H_ 0.137606 0.507601 0.0644592 0.10394
H_ H_ 0.43638 0.678651 0.382506 0.10394
H_ H_ 0.0153102 0.688325 0.462779 0.10394
H_ H_ 0.422106 0.782357 0.0526093 0.10394
H_ H_ 0.348225 0.713359 0.50877 0.10394
H_ H_ 0.236557 0.702805 0.383443 0.10394
H_ H_ 0.191407 0.74486 0.310401 0.10394
H_ H_ 0.330441 0.741452 0.246496 0.10394
H_ H_ 0.373662 0.698772 0.318431 0.10394
H_ H_ 0.276309 0.62556 0.063097 0.10394
H_ H_ 0.218567 0.607811 0.119669 0.10394
H_ H_ 0.101846 0.593084 -0.00021899999999996922 0.10394
C_ C_ 0.177217 0.587764 0.292781 0.18167
C_ C_ 0.221134 0.571603 0.270217 -0.15533
C_ C_ 0.23808 0.517568 0.267168 0.02923
C_ C_ 0.192442 0.983619 0.281003 -0.15533
C_ C_ 0.166357 0.503083 0.311936 0.18167
C_ C_ 0.017079 0.627979 0.276142 0.18167
C_ C_ 0.511976 0.685675 0.244425 -0.15533
C_ C_ -0.0007270000000000332 0.718668 0.267071 0.02923
C_ C_ 0.022562 0.728391 0.315815 -0.15533
C_ C_ 0.0452367 0.68536 0.344257 0.18167
C_ C_ 0.00944404 0.537659 0.366974 0.69207
C_ C_ 0.46485 0.00964075 0.382241 0.02923
C_ C_ 0.481867 0.957682 0.37915 -0.15533
C_ C_ 0.448539 0.918926 0.377551 -0.15533
C_ C_ 0.397807 0.930007 0.3895 0.02923
C_ C_ 0.381958 0.982595 0.401793 -0.15533
C_ C_ 0.413472 0.022689 0.396601 0.02923
C_ C_ 0.392842 0.575626 0.380042 0.69207
C_ C_ 0.384247 0.8346 0.384657 0.69661
C_ C_ 0.0775317 0.802038 0.0857984 0.18167
C_ C_ 0.0292881 0.788711 0.06977 -0.15533
C_ C_ 0.01686 0.779542 0.0175325 0.02923
C_ C_ 0.041026 0.787556 0.499251 -0.15533
C_ C_ 0.0980483 0.805686 0.00108647 0.18167
C_ C_ 0.214171 0.760462 0.134571 0.18167
C_ C_ 0.232941 0.735588 0.178729 -0.15533
C_ C_ 0.231607 0.764415 0.226059 0.02923
C_ C_ 0.2236 0.817583 0.223863 -0.15533
C_ C_ 0.200659 0.839125 0.179359 0.18167
C_ C_ 0.247334 0.870542 0.042195 0.69207
C_ C_ 0.272861 0.864695 0.507547 0.02923
C_ C_ 0.251217 0.858659 0.456603 -0.15533
C_ C_ 0.272729 0.879373 0.419228 -0.15533
C_ C_ 0.321824 0.89697 0.427925 0.02923
C_ C_ 0.3441 0.899121 0.479166 -0.15533
C_ C_ 0.321638 0.882081 0.519081 0.02923
C_ C_ 0.359044 0.883406 0.0673219 0.69207
C_ C_ 0.332697 0.894782 0.327383 0.69661
C_ C_ 0.30917 0.946198 0.171033 0.18167
C_ C_ 0.265745 0.96873 0.193465 -0.15533
C_ C_ 0.272257 0.998468 0.241523 0.02923
C_ C_ 0.32901 0.514032 0.246797 -0.15533
C_ C_ 0.36522 0.985228 0.237683 0.18167
C_ C_ 0.488968 0.86481 0.205851 0.18167
C_ C_ 0.015365 0.793058 0.218188 -0.15533
C_ C_ 0.48736 0.782124 0.239429 0.02923
C_ C_ 0.43496 0.784986 0.219369 -0.15533
C_ C_ 0.411029 0.827922 0.195837 0.18167
C_ C_ 0.482542 0.965419 0.126832 0.69207
C_ C_ 0.0169601 0.481662 0.0960887 0.02923
C_ C_ -0.006189 0.531266 0.0896081 -0.15533
C_ C_ 0.0227352 0.574066 0.0900799 -0.15533
C_ C_ 0.0753405 0.564172 0.0861156 0.02923
C_ C_ 0.09493 0.514304 0.0732895 -0.15533
C_ C_ 0.0696531 0.472877 0.0903672 0.02923
C_ C_ 0.103529 0.924193 0.108314 0.69207
C_ C_ 0.0840699 0.661491 0.106318 0.69661
C_ C_ 0.432891 0.690416 0.421968 0.18167
C_ C_ 0.476492 0.70836 0.450062 -0.15533
C_ C_ 0.470492 0.736933 0.4972 0.02923
C_ C_ 0.42815 0.751842 0.0223676 -0.15533
C_ C_ 0.383205 0.717415 0.491469 0.18167
C_ C_ 0.256781 0.706954 0.352438 0.18167
C_ C_ 0.230678 0.733306 0.311591 -0.15533
C_ C_ 0.257239 0.740233 0.270022 0.02923
C_ C_ 0.308433 0.726535 0.273309 -0.15533
C_ C_ 0.33336 0.698696 0.315354 0.18167
C_ C_ 0.261449 0.623552 0.44613 0.69207
C_ C_ 0.21986 0.628825 0.996863 0.02923
C_ C_ 0.23556 0.628646 0.0485151 -0.15533
C_ C_ 0.20135 0.617627 0.0827641 -0.15533
C_ C_ 0.151328 0.608091 0.0656288 0.02923
C_ C_ 0.136338 0.607528 0.01228 -0.15533
C_ C_ 0.170709 0.612662 0.976849 0.02923
C_ C_ 0.152337 0.602426 0.41837 0.69207
C_ C_ 0.135063 0.592846 0.158844 0.69661
C_ C_ 0.359462 0.889626 0.384503 -0.30787
C_ C_ 0.111526 0.605141 0.103434 -0.30787
N_ N_ 0.147597 0.553395 0.308901 -0.32189
N_ N_ 0.0499312 0.637386 0.318897 -0.32189
N_ N_ 0.110479 0.810221 0.0530326 -0.32189
N_ N_ 0.1966 0.810446 0.134892 -0.32189
N_ N_ 0.357414 0.956704 0.191567 -0.32189
N_ N_ 0.438274 0.869201 0.190243 -0.32189
N_ N_ 0.388762 0.695222 0.443464 -0.32189
N_ N_ 0.305333 0.688848 0.352805 -0.32189
O_ O_ 0.502348 0.59921 0.375561 -0.63271
O_ O_ 0.0454749 0.523575 0.335917 -0.57982
O_ O_ 0.395169 0.603335 0.341178 -0.63271
O_ O_ 0.372794 0.596477 0.421615 -0.57982
O_ O_ 0.242524 0.900592 0.0827833 -0.63271
O_ O_ 0.212221 0.840126 0.0301381 -0.57982
O_ O_ 0.354624 0.843823 0.0929351 -0.63271
O_ O_ 0.385442 0.920886 0.0894199 -0.57982
O_ O_ 0.998443 0.904691 0.107113 -0.63271
O_ O_ 0.450741 0.977058 0.161735 -0.57982
O_ O_ 0.104034 0.8957 0.147298 -0.63271
O_ O_ 0.138244 0.909578 0.074614 -0.57982
O_ O_ 0.263967 0.599352 0.400933 -0.63271
O_ O_ 0.294078 0.656202 0.459114 -0.57982
O_ O_ 0.149322 0.640917 0.388953 -0.63271
O_ O_ 0.121035 0.566673 0.404743 -0.57982
F_ F_ 0.4194 0.825795 0.426917 -0.20885
F_ F_ 0.41328 0.820372 0.343881 -0.20885
F_ F_ 0.349644 0.795864 0.387231 -0.20885
F_ F_ 0.298954 0.936675 0.32621 -0.20885
F_ F_ 0.308366 0.853902 0.313966 -0.20885
F_ F_ 0.368916 0.899249 0.292563 -0.20885
F_ F_ 0.0470213 0.67538 0.0653009 -0.20885
F_ F_ 0.0547951 0.673728 0.147986 -0.20885
F_ F_ 0.118298 0.694873 0.116197 -0.20885
F_ F_ 0.167918 0.551242 0.15802 -0.20885
F_ F_ 0.160411 0.630189 0.18435 -0.20885
F_ F_ 0.0997106 0.584418 0.191168 -0.20885
Zn Zn 0.0914038 0.585425 0.838669 0.83971
Zn Zn 0.161396 0.841919 0.59137 0.83971
Zn Zn 0.402691 0.913006 0.656712 0.83971
Zn Zn 0.345667 0.65164 0.923137 0.83971
H_ H_ 0.173184 0.632813 0.809111 0.10394
H_ H_ 0.253686 0.598445 0.764496 0.10394
H_ H_ 0.22651 0.95403 0.81211 0.10394
H_ H_ 0.136917 0.486868 0.820609 0.10394
H_ H_ 0.534516 0.595059 0.748515 0.10394
H_ H_ 0.502148 0.669118 0.697771 0.10394
H_ H_ 0.0446765 0.766989 0.839188 0.10394
H_ H_ 0.0679098 0.686316 0.877115 0.10394
H_ H_ 0.0058421 0.94879 0.819009 0.10394
H_ H_ 0.482679 0.877435 0.863879 0.10394
H_ H_ 0.363905 0.99177 0.908584 0.10394
H_ H_ 0.0745748 0.805133 0.644113 0.10394
H_ H_ 0.507138 0.753813 0.597165 0.10394
H_ H_ 0.0370581 0.791703 0.944211 0.10394
H_ H_ 0.106195 0.832628 0.498522 0.10394
H_ H_ 0.221306 0.744217 0.607204 0.10394
H_ H_ 0.252684 0.697037 0.685329 0.10394
H_ H_ 0.210711 0.832284 0.779052 0.10394
H_ H_ 0.193504 0.877553 0.698905 0.10394
H_ H_ 0.227267 0.856673 0.942863 0.10394
H_ H_ 0.273653 0.874966 0.873194 0.10394
H_ H_ 0.402307 0.904518 0.986403 0.10394
H_ H_ 0.303935 0.900378 0.664814 0.10394
H_ H_ 0.227693 0.945915 0.70038 0.10394
H_ H_ 0.346512 0.536577 0.784181 0.10394
H_ H_ 0.397954 0.0106498 0.733037 0.10394
H_ H_ 0.0086385 0.89558 0.709867 0.10394
H_ H_ 0.056015 0.822592 0.754678 0.10394
H_ H_ 0.410156 0.739811 0.717149 0.10394
H_ H_ 0.36717 0.824113 0.696356 0.10394
H_ H_ 0.465405 0.552987 0.624599 0.10394
H_ H_ 0.0189212 0.624314 0.604796 0.10394
H_ H_ 0.144928 0.504072 0.588986 0.10394
H_ H_ 0.445631 0.668669 0.899969 0.10394
H_ H_ 0.0111887 0.717366 0.934264 0.10394
H_ H_ 0.420782 0.754569 0.557885 0.10394
H_ H_ 0.360068 0.712653 0.0258046 0.10394
H_ H_ 0.239619 0.69915 0.897072 0.10394
H_ H_ 0.19089 0.732343 0.819 0.10394
H_ H_ 0.33319 0.723903 0.74934 0.10394
H_ H_ 0.377519 0.691872 0.830808 0.10394
H_ H_ 0.287908 0.607528 0.551331 0.10394
H_ H_ 0.236483 0.592606 0.612202 0.10394
H_ H_ 0.105877 0.588676 0.49867 0.10394
C_ C_ 0.180916 0.593794 0.795155 0.18167
C_ C_ 0.228358 0.57392 0.778333 -0.15533
C_ C_ 0.242342 0.519735 0.776086 0.02923
C_ C_ 0.206573 0.99275 0.800886 -0.15533
C_ C_ 0.163815 0.512335 0.813915 0.18167
C_ C_ 0.0233066 0.639266 0.762794 0.18167
C_ C_ 0.515744 0.673873 0.738839 -0.15533
C_ C_ 0.014841 0.731135 0.76536 0.02923
C_ C_ 0.0428338 0.731417 0.815497 -0.15533
C_ C_ 0.058038 0.686699 0.83705 0.18167
C_ C_ 0.00638787 0.552038 0.868262 0.69207
C_ C_ 0.480504 0.00731391 0.870572 0.02923
C_ C_ 0.50006 0.955441 0.868649 -0.15533
C_ C_ 0.470465 0.915982 0.874971 -0.15533
C_ C_ 0.419845 0.926229 0.888757 0.02923
C_ C_ 0.401053 0.980251 0.894985 -0.15533
C_ C_ 0.429038 0.0200125 0.881251 0.02923
C_ C_ 0.399921 0.572982 0.889136 0.69207
C_ C_ 0.400998 0.829401 0.888423 0.69661
C_ C_ 0.0696964 0.792807 0.602738 0.18167
C_ C_ 0.0208918 0.777881 0.58354 -0.15533
C_ C_ 0.00644714 0.77302 0.529449 0.02923
C_ C_ 0.0484251 0.794237 0.983314 -0.15533
C_ C_ 0.0855061 0.809701 0.519719 0.18167
C_ C_ 0.217118 0.763327 0.644768 0.18167
C_ C_ 0.233935 0.735799 0.68828 -0.15533
C_ C_ 0.232052 0.761349 0.736104 0.02923
C_ C_ 0.21441 0.812398 0.741875 -0.15533
C_ C_ 0.196119 0.836244 0.696102 0.18167
C_ C_ 0.244479 0.849593 0.549788 0.69207
C_ C_ 0.282328 0.878486 0.00357964 0.02923
C_ C_ 0.2604 0.876645 0.952486 -0.15533
C_ C_ 0.288682 0.884581 0.912739 -0.15533
C_ C_ 0.339434 0.894964 0.923286 0.02923
C_ C_ 0.362832 0.898915 0.976078 -0.15533
C_ C_ 0.333303 0.888296 0.015407 0.02923
C_ C_ 0.352103 0.877774 0.568532 0.69207
C_ C_ 0.353702 0.890145 0.82629 0.69661
C_ C_ 0.308504 0.934255 0.689084 0.18167
C_ C_ 0.264996 0.959767 0.707646 -0.15533
C_ C_ 0.272408 1.00134 0.742745 0.02923
C_ C_ 0.334731 0.50952 0.752572 -0.15533
C_ C_ 0.361456 0.993619 0.730304 0.18167
C_ C_ 0.48824 0.845573 0.692709 0.18167
C_ C_ 0.0173122 0.818955 0.735519 -0.15533
C_ C_ 0.484246 0.766666 0.73075 0.02923
C_ C_ 0.429591 0.773299 0.720295 -0.15533
C_ C_ 0.408797 0.81611 0.69474 0.18167
C_ C_ 0.480493 0.951458 0.623881 0.69207
C_ C_ 0.0200357 0.495129 0.61069 0.02923
C_ C_ 1.00166296 0.548082 0.614742 -0.15533
C_ C_ 0.0342334 0.58428 0.600665 -0.15533
C_ C_ 0.0856941 0.567556 0.593236 0.02923
C_ C_ 0.104451 0.514633 0.595162 -0.15533
C_ C_ 0.0726345 0.4791 0.60256 0.02923
C_ C_ 0.0995167 0.922108 0.606406 0.69207
C_ C_ 0.107005 0.663657 0.599284 0.69661
C_ C_ 0.442986 0.686846 0.93746 0.18167
C_ C_ 0.483217 0.71346 0.960022 -0.15533
C_ C_ 0.477584 0.745253 0.0045399999999999885 0.02923
C_ C_ 0.422511 0.74293 0.518182 -0.15533
C_ C_ 0.392261 0.718202 1.00458 0.18167
C_ C_ 0.260118 0.705135 0.865243 0.18167
C_ C_ 0.233446 0.727206 0.821788 -0.15533
C_ C_ 0.259333 0.735767 0.780701 0.02923
C_ C_ 0.312247 0.722257 0.783009 -0.15533
C_ C_ 0.336402 0.698676 0.827291 0.18167
C_ C_ 0.26383 0.622903 0.964055 0.69207
C_ C_ 0.228431 0.611254 0.486077 0.02923
C_ C_ 0.248365 0.608237 0.538347 -0.15533
C_ C_ 0.217553 0.598348 0.575045 -0.15533
C_ C_ 0.165507 0.59668 0.561148 0.02923
C_ C_ 0.145856 0.595023 0.509631 -0.15533
C_ C_ 0.17536 0.608098 0.471746 0.02923
C_ C_ 0.151978 0.61219 0.921221 0.69207
C_ C_ 0.150666 0.598197 0.66044 0.69661
C_ C_ 0.378525 0.886075 0.882006 -0.30787
C_ C_ 0.12902 0.605728 0.603352 -0.30787
N_ N_ 0.146962 0.562006 0.806709 -0.32189
N_ N_ 0.049645 0.642309 0.809419 -0.32189
N_ N_ 0.0988025 0.811478 0.569732 -0.32189
N_ N_ 0.192416 0.811402 0.650007 -0.32189
N_ N_ 0.354839 0.950637 0.701289 -0.32189
N_ N_ 0.43584 0.854215 0.687286 -0.32189
N_ N_ 0.39742 0.690877 0.959102 -0.32189
N_ N_ 0.308382 0.686238 0.864983 -0.32189
O_ O_ 0.508461 0.584912 0.898576 -0.63271
O_ O_ 0.0417274 0.541269 0.837787 -0.57982
O_ O_ 0.40291 0.605521 0.853874 -0.63271
O_ O_ 0.372846 0.587663 0.928023 -0.57982
O_ O_ 0.248632 0.875134 0.593881 -0.63271
O_ O_ 0.204443 0.823774 0.54058 -0.57982
O_ O_ 0.356701 0.835314 0.588742 -0.63271
O_ O_ 0.362707 0.919592 0.595703 -0.57982
O_ O_ 0.99441 0.903503 0.600242 -0.63271
O_ O_ 0.450641 0.961002 0.661989 -0.57982
O_ O_ 0.10317 0.901712 0.649314 -0.63271
O_ O_ 0.131922 0.905103 0.576476 -0.57982
O_ O_ 0.265785 0.587865 0.92737 -0.63271
O_ O_ 0.294004 0.657628 0.965449 -0.57982
O_ O_ 0.161958 0.649341 0.892681 -0.63271
O_ O_ 0.116183 0.583156 0.905456 -0.57982
F_ F_ 0.432691 0.825265 0.932094 -0.20885
F_ F_ 0.424534 0.802577 0.848067 -0.20885
F_ F_ 0.360468 0.80271 0.896442 -0.20885
F_ F_ 0.321437 0.932061 0.824946 -0.20885
F_ F_ 0.326107 0.850976 0.807994 -0.20885
F_ F_ 0.388889 0.899003 0.792707 -0.20885
F_ F_ 0.0784599 0.676151 0.553565 -0.20885
F_ F_ 0.0758101 0.684485 0.636402 -0.20885
F_ F_ 0.149854 0.692354 0.606058 -0.20885
F_ F_ 0.176347 0.549813 0.668362 -0.20885
F_ F_ 0.184347 0.634154 0.678815 -0.20885
F_ F_ 0.112241 0.608741 0.691338 -0.20885
Zn Zn 0.586609 0.0806038 0.353312 0.83971
Zn Zn 0.663261 0.347213 0.0862755 0.83971
Zn Zn 0.910818 0.408612 0.150909 0.83971
Zn Zn 0.835517 0.154132 0.416729 0.83971
H_ H_ 0.65937 0.126178 0.290733 0.10394
H_ H_ 0.743721 0.0975291 0.262614 0.10394
H_ H_ 0.711799 0.441508 0.294332 0.10394
H_ H_ 0.63776 0.983361 0.337025 0.10394
H_ H_ 0.0193548 0.0911877 0.25382 0.10394
H_ H_ 0.994532 0.166054 0.19957 0.10394
H_ H_ 0.541059 0.267321 0.329947 0.10394
H_ H_ 0.566492 0.192999 0.382591 0.10394
H_ H_ 0.534052 0.450755 0.365072 0.10394
H_ H_ 0.980779 0.381026 0.422488 0.10394
H_ H_ 0.851404 0.482911 0.40185 0.10394
H_ H_ 0.586669 0.301027 0.137185 0.10394
H_ H_ 1.00936489 0.253545 0.0981663 0.10394
H_ H_ 0.540873 0.273942 0.444767 0.10394
H_ H_ 0.602083 0.351295 0.994757 0.10394
H_ H_ 0.728317 0.260745 0.0933615 0.10394
H_ H_ 0.778092 0.208824 0.161856 0.10394
H_ H_ 0.726205 0.330306 0.270283 0.10394
H_ H_ 0.676134 0.375422 0.202094 0.10394
H_ H_ 0.722715 0.340913 0.442332 0.10394
H_ H_ 0.779887 0.342477 0.376911 0.10394
H_ H_ 0.894723 0.396529 0.490307 0.10394
H_ H_ 0.80444 0.394782 0.157981 0.10394
H_ H_ 0.735424 0.439327 0.205663 0.10394
H_ H_ 0.842715 0.0314319 0.303056 0.10394
H_ H_ 0.906498 0.49122 0.23105 0.10394
H_ H_ 0.519848 0.37858 0.187907 0.10394
H_ H_ 0.563187 0.305013 0.2312 0.10394
H_ H_ 0.911687 0.258808 0.244142 0.10394
H_ H_ 0.873837 0.326686 0.19595 0.10394
H_ H_ 0.972088 0.0518799 0.130089 0.10394
H_ H_ 0.517964 0.131485 0.110654 0.10394
H_ H_ 0.641998 0.0130611 0.09208 0.10394
H_ H_ 0.946402 0.148396 0.402741 0.10394
H_ H_ 0.506814 0.193474 0.445847 0.10394
H_ H_ 0.920517 0.292223 0.0357839 0.10394
H_ H_ 0.843479 0.235629 0.496351 0.10394
H_ H_ 0.73996 0.19842 0.380008 0.10394
H_ H_ 0.700729 0.241571 0.304484 0.10394
H_ H_ 0.842927 0.218076 0.238468 0.10394
H_ H_ 0.882617 0.177775 0.322203 0.10394
H_ H_ 0.789578 0.110965 0.058757 0.10394
H_ H_ 0.731167 0.101184 0.125176 0.10394
H_ H_ 0.611921 0.0858477 0.00532017 0.10394
C_ C_ 0.67544 0.0884259 0.299718 0.18167
C_ C_ 0.720509 0.0701197 0.279389 -0.15533
C_ C_ 0.735284 0.0176668 0.28069 0.02923
C_ C_ 0.706586 0.483431 0.297506 -0.15533
C_ C_ 0.660468 0.00533081 0.318805 0.18167
C_ C_ 0.528164 0.133786 0.27242 0.18167
C_ C_ 0.0073006 0.172679 0.24006 -0.15533
C_ C_ 0.515663 0.223198 0.261066 0.02923
C_ C_ 0.539984 0.23153 0.310702 -0.15533
C_ C_ 0.553906 0.188424 0.340858 0.18167
C_ C_ 0.501958 0.0476647 0.375919 0.69207
C_ C_ 0.973034 0.501269 0.377882 0.02923
C_ C_ 0.994505 0.449968 0.388266 -0.15533
C_ C_ 0.963492 0.413664 0.403206 -0.15533
C_ C_ 0.909847 0.423231 0.400962 0.02923
C_ C_ 0.891902 0.475978 0.398465 -0.15533
C_ C_ 0.922915 0.514139 0.387892 0.02923
C_ C_ 0.893717 0.0662972 0.391814 0.69207
C_ C_ 0.906031 0.328081 0.38393 0.69661
C_ C_ 0.574497 0.297652 0.0965584 0.18167
C_ C_ 0.529011 0.280503 0.0799739 -0.15533
C_ C_ 0.51161 0.280787 0.0276439 0.02923
C_ C_ 0.545181 0.284079 0.485087 -0.15533
C_ C_ 0.585644 0.323705 0.0167686 0.18167
C_ C_ 0.726875 0.275553 0.132326 0.18167
C_ C_ 0.753677 0.247331 0.172436 -0.15533
C_ C_ 0.74709 0.264095 0.222735 0.02923
C_ C_ 0.723231 0.311754 0.233021 -0.15533
C_ C_ 0.699543 0.339032 0.1932 0.18167
C_ C_ 0.740559 0.36956 0.0401453 0.69207
C_ C_ 0.778737 0.360425 0.507228 0.02923
C_ C_ 0.761321 0.349768 0.454741 -0.15533
C_ C_ 0.790913 0.357234 0.415986 -0.15533
C_ C_ 0.838058 0.380101 0.428613 0.02923
C_ C_ 0.854683 0.388211 0.480444 -0.15533
C_ C_ 0.828804 0.374131 0.520283 0.02923
C_ C_ 0.852344 0.380081 0.0699964 0.69207
C_ C_ 0.851071 0.386252 0.332929 0.69661
C_ C_ 0.812071 0.429879 0.180482 0.18167
C_ C_ 0.773144 0.452585 0.209582 -0.15533
C_ C_ 0.782976 0.491757 0.245763 0.02923
C_ C_ 0.831656 0.00956855 0.266386 -0.15533
C_ C_ 0.86834 0.485034 0.221987 0.18167
C_ C_ 0.99526 0.344084 0.191314 0.18167
C_ C_ 0.522337 0.305176 0.216153 -0.15533
C_ C_ 0.99215 0.267376 0.234544 0.02923
C_ C_ 0.937053 0.280038 0.228755 -0.15533
C_ C_ 0.915257 0.31777 0.198924 0.18167
C_ C_ 0.984641 0.442467 0.104269 0.69207
C_ C_ 0.518452 1.003343 0.118601 0.02923
C_ C_ 0.497452 0.0529253 0.109265 -0.15533
C_ C_ 0.5317 0.0900348 0.108777 -0.15533
C_ C_ 0.583108 0.0762077 0.10382 0.02923
C_ C_ 0.603291 0.0243607 0.102825 -0.15533
C_ C_ 0.572556 0.988162 0.110094 0.02923
C_ C_ 0.603867 0.429346 0.10839 0.69207
C_ C_ 0.600977 0.172773 0.098395 0.69661
C_ C_ 0.940259 0.17472 0.434677 0.18167
C_ C_ 0.98166 0.195416 0.463082 -0.15533
C_ C_ 0.971657 0.235659 0.499113 0.02923
C_ C_ 0.928861 0.258224 0.00780381 -0.15533
C_ C_ 0.881731 0.226602 0.485937 0.18167
C_ C_ 0.760933 0.202625 0.34889 0.18167
C_ C_ 0.740451 0.224845 0.30536 -0.15533
C_ C_ 0.771138 0.233596 0.266995 0.02923
C_ C_ 0.821819 0.211212 0.270498 -0.15533
C_ C_ 0.843095 0.189194 0.316041 0.18167
C_ C_ 0.752908 0.127405 0.453262 0.69207
C_ C_ 0.732725 0.113583 0.995966 0.02923
C_ C_ 0.750047 0.110461 0.0480222 -0.15533
C_ C_ 0.716327 0.107027 0.0837375 -0.15533
C_ C_ 0.663415 0.10388 0.0692201 0.02923
C_ C_ 0.648891 0.0972788 0.0177733 -0.15533
C_ C_ 0.681968 0.103474 0.980503 0.02923
C_ C_ 0.643132 0.112885 0.424259 0.69207
C_ C_ 0.643016 0.118079 0.166191 0.69661
C_ C_ 0.876619 0.380083 0.388914 -0.30787
C_ C_ 0.621842 0.11691 0.108057 -0.30787
N_ N_ 0.64812 0.0567334 0.322438 -0.32189
N_ N_ 0.55592 0.140734 0.318557 -0.32189
N_ N_ 0.602604 0.317711 0.0654945 -0.32189
N_ N_ 0.695883 0.317288 0.145815 -0.32189
N_ N_ 0.859269 0.446839 0.186505 -0.32189
N_ N_ 0.944814 0.3508 0.180872 -0.32189
N_ N_ 0.891486 0.189637 0.447956 -0.32189
N_ N_ 0.809778 0.185527 0.354291 -0.32189
O_ O_ 0.00467076 0.0838747 0.394244 -0.63271
O_ O_ 0.534345 0.0382109 0.34082 -0.57982
O_ O_ 0.896158 0.0906735 0.350535 -0.63271
O_ O_ 0.871512 0.0903316 0.430658 -0.57982
O_ O_ 0.746007 0.400194 0.0812046 -0.63271
O_ O_ 0.699923 0.346226 0.0302399 -0.57982
O_ O_ 0.855864 0.336572 0.0936323 -0.63271
O_ O_ 0.874123 0.419624 0.0899338 -0.57982
O_ O_ 0.494049 0.415236 0.0942631 -0.63271
O_ O_ 0.954544 0.451984 0.13961 -0.57982
O_ O_ 0.600588 0.399305 0.147239 -0.63271
O_ O_ 0.636399 0.413601 0.0778706 -0.57982
O_ O_ 0.754667 0.0952685 0.415245 -0.63271
O_ O_ 0.786455 0.162268 0.460131 -0.57982
O_ O_ 0.647841 0.149919 0.391769 -0.63271
O_ O_ 0.604879 0.0877922 0.414951 -0.57982
F_ F_ 0.931516 0.320077 0.430407 -0.20885
F_ F_ 0.940216 0.318065 0.345325 -0.20885
F_ F_ 0.87522 0.28766 0.375471 -0.20885
F_ F_ 0.81115 0.423609 0.332449 -0.20885
F_ F_ 0.829333 0.345902 0.307229 -0.20885
F_ F_ 0.880835 0.401614 0.298914 -0.20885
F_ F_ 0.571576 0.174929 0.0517405 -0.20885
F_ F_ 0.56934 0.192189 0.134992 -0.20885
F_ F_ 0.639504 0.202974 0.0996373 -0.20885
F_ F_ 0.668861 0.0706316 0.174887 -0.20885
F_ F_ 0.675672 0.153742 0.181274 -0.20885
F_ F_ 0.602602 0.127065 0.196028 -0.20885
Zn Zn 0.597007 0.0875872 0.846802 0.83971
Zn Zn 0.653033 0.344018 0.581279 0.83971
Zn Zn 0.908519 0.418522 0.654489 0.83971
Zn Zn 0.842759 0.156975 0.917297 0.83971
H_ H_ 0.669174 0.133548 0.790892 0.10394
H_ H_ 0.750435 0.102823 0.758681 0.10394
H_ H_ 0.714548 0.445528 0.792045 0.10394
H_ H_ 0.6472 0.990855 0.834032 0.10394
H_ H_ 0.0239942 0.106108 0.747834 0.10394
H_ H_ 0.99212 0.185844 0.705125 0.10394
H_ H_ 0.5298 0.271456 0.845202 0.10394
H_ H_ 0.577455 0.190378 0.877011 0.10394
H_ H_ 0.523185 0.444117 0.840331 0.10394
H_ H_ 0.978981 0.38322 0.861144 0.10394
H_ H_ 0.863786 0.489643 0.917712 0.10394
H_ H_ 0.574696 0.302727 0.629604 0.10394
H_ H_ 0.00132538 0.270522 0.599099 0.10394
H_ H_ 0.531282 0.299647 0.954675 0.10394
H_ H_ 0.614951 0.313308 0.47952 0.10394
H_ H_ 0.700304 0.24127 0.601735 0.10394
H_ H_ 0.760637 0.201834 0.675981 0.10394
H_ H_ 0.7158 0.336866 0.769165 0.10394
H_ H_ 0.680789 0.380419 0.691575 0.10394
H_ H_ 0.721351 0.366596 0.939595 0.10394
H_ H_ 0.770581 0.375956 0.874571 0.10394
H_ H_ 0.902295 0.383367 0.987108 0.10394
H_ H_ 0.806621 0.392876 0.671154 0.10394
H_ H_ 0.730494 0.452271 0.696297 0.10394
H_ H_ 0.835699 0.0419431 0.772772 0.10394
H_ H_ 0.904235 0.507844 0.725024 0.10394
H_ H_ 0.512727 0.38329 0.693163 0.10394
H_ H_ 0.552177 0.303475 0.731364 0.10394
H_ H_ 0.913887 0.251498 0.72518 0.10394
H_ H_ 0.873745 0.324587 0.687066 0.10394
H_ H_ 0.966559 0.0505916 0.62711 0.10394
H_ H_ 0.5081 0.11692 0.587147 0.10394
H_ H_ 0.629891 0.00673637 0.571535 0.10394
H_ H_ 0.941708 0.156112 0.898949 0.10394
H_ H_ 0.51449 0.209606 0.944846 0.10394
H_ H_ 0.917107 0.277803 0.542861 0.10394
H_ H_ 0.849064 0.245978 -0.0069069999999999965 0.10394
H_ H_ 0.739489 0.191809 0.880818 0.10394
H_ H_ 0.696716 0.227715 0.802957 0.10394
H_ H_ 0.843949 0.234697 0.750802 0.10394
H_ H_ 0.882384 0.187881 0.822573 0.10394
H_ H_ 0.776211 0.124424 0.553021 0.10394
H_ H_ 0.728067 0.106709 0.619067 0.10394
H_ H_ 0.600161 0.0863806 0.506464 0.10394
C_ C_ 0.681413 0.0961284 0.794063 0.18167
C_ C_ 0.726908 0.0762531 0.771163 -0.15533
C_ C_ 0.736693 0.0231594 0.76305 0.02923
C_ C_ 0.702656 0.486437 0.789231 -0.15533
C_ C_ 0.669352 0.0148377 0.815901 0.18167
C_ C_ 0.52847 0.141828 0.77121 0.18167
C_ C_ 0.00969566 0.186467 0.743659 -0.15533
C_ C_ 0.50639 0.232966 0.769207 0.02923
C_ C_ 0.528891 0.235986 0.82088 -0.15533
C_ C_ 0.555264 0.190941 0.841493 0.18167
C_ C_ 0.51452 0.0464114 0.865911 0.69207
C_ C_ 0.972845 0.512682 0.876548 0.02923
C_ C_ 0.994728 0.461106 0.871916 -0.15533
C_ C_ 0.966008 0.42135 0.875928 -0.15533
C_ C_ 0.917093 0.430991 0.893177 0.02923
C_ C_ 0.899935 0.48152 0.907125 -0.15533
C_ C_ 0.923144 0.522658 0.892321 0.02923
C_ C_ 0.894589 0.074325 0.884956 0.69207
C_ C_ 0.910633 0.329775 0.880373 0.69661
C_ C_ 0.566493 0.293732 0.59042 0.18167
C_ C_ 0.51956 0.280261 0.571749 -0.15533
C_ C_ 0.507578 0.274796 0.517503 0.02923
C_ C_ 0.542877 0.299934 0.995682 -0.15533
C_ C_ 0.590344 0.299437 0.505762 0.18167
C_ C_ 0.712061 0.264586 0.635476 0.18167
C_ C_ 0.740281 0.239701 0.678026 -0.15533
C_ C_ 0.739967 0.266065 0.726811 0.02923
C_ C_ 0.715561 0.317091 0.731143 -0.15533
C_ C_ 0.695951 0.340548 0.687615 0.18167
C_ C_ 0.740547 0.358326 0.54573 0.69207
C_ C_ 0.778728 0.364368 1.00135 0.02923
C_ C_ 0.761717 0.3628 0.950045 -0.15533
C_ C_ 0.790558 0.375473 0.913365 -0.15533
C_ C_ 0.84316 0.38368 0.924844 0.02923
C_ C_ 0.861456 0.386058 0.977096 -0.15533
C_ C_ 0.830369 0.378902 0.0154225 0.02923
C_ C_ 0.85267 0.374841 0.573017 0.69207
C_ C_ 0.855109 0.394086 0.828033 0.69661
C_ C_ 0.810009 0.433561 0.687786 0.18167
C_ C_ 0.768238 0.462638 0.705224 -0.15533
C_ C_ 0.77753 0.498766 0.743436 0.02923
C_ C_ 0.826771 0.0134583 0.744177 -0.15533
C_ C_ 0.866246 0.491194 0.72531 0.18167
C_ C_ 0.989415 0.364646 0.714523 0.18167
C_ C_ 0.511253 0.309219 0.723294 -0.15533
C_ C_ 0.985742 0.280762 0.747166 0.02923
C_ C_ 0.934477 0.283915 0.727673 -0.15533
C_ C_ 0.910729 0.326505 0.704033 0.18167
C_ C_ 0.982555 0.458313 0.618101 0.69207
C_ C_ 0.516135 0.989853 0.611621 0.02923
C_ C_ 0.493665 0.0413735 0.610738 -0.15533
C_ C_ 0.523893 0.0794542 0.599722 -0.15533
C_ C_ 0.57824 0.0668552 0.599178 0.02923
C_ C_ 0.595145 0.0146446 0.58924 -0.15533
C_ C_ 0.566549 0.977844 0.603683 0.02923
C_ C_ 0.592793 0.421134 0.599037 0.69207
C_ C_ 0.593945 0.162944 0.614651 0.69661
C_ C_ 0.93946 0.184696 0.928624 0.18167
C_ C_ 0.983846 0.198868 0.958189 -0.15533
C_ C_ 0.977778 0.238665 -0.00209339 0.02923
C_ C_ 0.92249 0.249448 0.513581 -0.15533
C_ C_ 0.886199 0.233722 0.984529 0.18167
C_ C_ 0.760996 0.200217 0.85263 0.18167
C_ C_ 0.738571 0.228439 0.811177 -0.15533
C_ C_ 0.766838 0.239978 0.771786 0.02923
C_ C_ 0.819464 0.224247 0.778836 -0.15533
C_ C_ 0.840674 0.195442 0.820404 0.18167
C_ C_ 0.770653 0.119275 0.959868 0.69207
C_ C_ 0.717474 0.121033 0.492368 0.02923
C_ C_ 0.735812 0.122657 0.54494 -0.15533
C_ C_ 0.707488 0.111242 0.58244 -0.15533
C_ C_ 0.655558 0.103198 0.570125 0.02923
C_ C_ 0.638818 0.0968549 0.51785 -0.15533
C_ C_ 0.666865 0.112189 0.47835 0.02923
C_ C_ 0.66055 0.105967 0.926696 0.69207
C_ C_ 0.639439 0.0929319 0.665827 0.69661
C_ C_ 0.880226 0.385781 0.885305 -0.30787
C_ C_ 0.616706 0.105973 0.611147 -0.30787
N_ N_ 0.65075 0.0648249 0.811254 -0.32189
N_ N_ 0.554581 0.145643 0.817254 -0.32189
N_ N_ 0.599156 0.305092 0.557207 -0.32189
N_ N_ 0.68792 0.312166 0.641956 -0.32189
N_ N_ 0.856902 0.450232 0.69338 -0.32189
N_ N_ 0.939525 0.363617 0.693325 -0.32189
N_ N_ 0.893925 0.197158 0.945349 -0.32189
N_ N_ 0.811534 0.185518 0.855746 -0.32189
O_ O_ 0.00344525 0.0846802 0.893952 -0.63271
O_ O_ 0.554509 0.0365025 0.842034 -0.57982
O_ O_ 0.890333 0.101774 0.845328 -0.63271
O_ O_ 0.874583 0.093472 0.92615 -0.57982
O_ O_ 0.740896 0.391408 0.584168 -0.63271
O_ O_ 0.699934 0.333219 0.534824 -0.57982
O_ O_ 0.856762 0.333519 0.598633 -0.63271
O_ O_ 0.873453 0.416108 0.59279 -0.57982
O_ O_ 0.482867 0.409975 0.590004 -0.63271
O_ O_ 0.950155 0.469554 0.652818 -0.57982
O_ O_ 0.596918 0.396185 0.641849 -0.63271
O_ O_ 0.622127 0.404106 0.56428 -0.57982
O_ O_ 0.76675 0.10056 0.911949 -0.63271
O_ O_ 0.800651 0.156639 0.968606 -0.57982
O_ O_ 0.664567 0.14543 0.899799 -0.63271
O_ O_ 0.620647 0.0824294 0.91373 -0.57982
F_ F_ 0.947583 0.326342 0.919739 -0.20885
F_ F_ 0.933415 0.313424 0.837634 -0.20885
F_ F_ 0.879142 0.292548 0.885155 -0.20885
F_ F_ 0.820064 0.43843 0.829891 -0.20885
F_ F_ 0.827977 0.353934 0.806367 -0.20885
F_ F_ 0.891483 0.402296 0.795196 -0.20885
F_ F_ 0.568089 0.179979 0.567919 -0.20885
F_ F_ 0.562922 0.172497 0.654779 -0.20885
F_ F_ 0.634262 0.192719 0.62781 -0.20885
F_ F_ 0.669871 0.0476027 0.660791 -0.20885
F_ F_ 0.668144 0.128124 0.689565 -0.20885
F_ F_ 0.605831 0.0879558 0.703398 -0.20885
Zn Zn 0.5888 0.585877 0.344467 0.83971
Zn Zn 0.659473 0.858443 0.0890661 0.83971
Zn Zn 0.912168 0.919023 0.163376 0.83971
Zn Zn 0.839232 0.654973 0.41405 0.83971
H_ H_ 0.67925 0.629487 0.310386 0.10394
H_ H_ 0.752911 0.590227 0.269963 0.10394
H_ H_ 0.71965 0.945208 0.307008 0.10394
H_ H_ 0.636904 0.483947 0.332856 0.10394
H_ H_ 0.0157279 0.589557 0.257739 0.10394
H_ H_ 0.981531 0.662001 0.210076 0.10394
H_ H_ 0.541927 0.776421 0.332141 0.10394
H_ H_ 0.567996 0.698269 0.382547 0.10394
H_ H_ 0.522994 0.945421 0.375998 0.10394
H_ H_ 0.984731 0.87576 0.395116 0.10394
H_ H_ 0.851507 0.984569 0.406832 0.10394
H_ H_ 0.587783 0.806556 0.141135 0.10394
H_ H_ 1.00540746 0.77532 0.0977314 0.10394
H_ H_ 0.52684 0.795284 0.44557 0.10394
H_ H_ 0.618143 0.831109 0.99186 0.10394
H_ H_ 0.720181 0.7724 0.100424 0.10394
H_ H_ 0.7572 0.712716 0.169151 0.10394
H_ H_ 0.731904 0.844859 0.275202 0.10394
H_ H_ 0.684229 0.894832 0.200013 0.10394
H_ H_ 0.713953 0.862933 0.44296 0.10394
H_ H_ 0.770277 0.88063 0.377197 0.10394
H_ H_ 0.893912 0.897729 0.489897 0.10394
H_ H_ 0.811652 0.899396 0.16696 0.10394
H_ H_ 0.734539 0.956405 0.194408 0.10394
H_ H_ 0.839068 0.536469 0.280915 0.10394
H_ H_ 0.906346 1.0032651 0.243959 0.10394
H_ H_ 0.510359 0.897263 0.203368 0.10394
H_ H_ 0.558486 0.814064 0.227731 0.10394
H_ H_ 0.901285 0.758262 0.237942 0.10394
H_ H_ 0.869803 0.835254 0.191447 0.10394
H_ H_ 0.951735 0.537923 0.0893204 0.10394
H_ H_ 0.520208 0.621756 0.130993 0.10394
H_ H_ 0.645102 0.510799 0.0830849 0.10394
H_ H_ 0.948703 0.663733 0.397626 0.10394
H_ H_ 0.511333 0.703264 0.431305 0.10394
H_ H_ 0.922372 0.779724 0.0572551 0.10394
H_ H_ 0.840248 0.726781 0.504186 0.10394
H_ H_ 0.740736 0.700405 0.385916 0.10394
H_ H_ 0.710889 0.766592 0.324325 0.10394
H_ H_ 0.834684 0.714041 0.237623 0.10394
H_ H_ 0.881601 0.695661 0.318846 0.10394
H_ H_ 0.788774 0.610089 0.0525941 0.10394
H_ H_ 0.733109 0.612793 0.124357 0.10394
H_ H_ 0.605776 0.60114 0.015243 0.10394
C_ C_ 0.684337 0.588175 0.301658 0.18167
C_ C_ 0.728126 0.566685 0.282207 -0.15533
C_ C_ 0.740726 0.514708 0.278673 0.02923
C_ C_ 0.707926 0.985965 0.305071 -0.15533
C_ C_ 0.659233 0.506393 0.312387 0.18167
C_ C_ 0.528877 0.642611 0.271127 0.18167
C_ C_ -0.0060989999999999656 0.66917 0.248994 -0.15533
C_ C_ 0.51614 0.735932 0.265587 0.02923
C_ C_ 0.536799 0.738955 0.315203 -0.15533
C_ C_ 0.556765 0.695313 0.341655 0.18167
C_ C_ 0.503181 0.553124 0.356229 0.69207
C_ C_ 0.971187 0.00186752 0.378747 0.02923
C_ C_ -0.007935000000000025 0.95144 0.379501 -0.15533
C_ C_ 0.961778 0.913679 0.389738 -0.15533
C_ C_ 0.91113 0.925113 0.401248 0.02923
C_ C_ 0.892263 0.976044 0.400343 -0.15533
C_ C_ 0.922124 0.0146899 0.395827 0.02923
C_ C_ 0.898222 0.567104 0.380604 0.69207
C_ C_ 0.900071 0.825697 0.392677 0.69661
C_ C_ 0.579642 0.797453 0.0987668 0.18167
C_ C_ 0.531535 0.781095 0.0784478 -0.15533
C_ C_ 0.520856 0.774713 0.0264551 0.02923
C_ C_ 0.541363 0.791192 0.483529 -0.15533
C_ C_ 0.599917 0.810369 0.0156727 0.18167
C_ C_ 0.718066 0.78441 0.141367 0.18167
C_ C_ 0.738348 0.752442 0.179551 -0.15533
C_ C_ 0.741459 0.773643 0.229033 0.02923
C_ C_ 0.724426 0.825619 0.239438 -0.15533
C_ C_ 0.699023 0.854887 0.198807 0.18167
C_ C_ 0.738898 0.885912 0.0487203 0.69207
C_ C_ 0.77145 0.877246 0.506893 0.02923
C_ C_ 0.753562 0.873056 0.45614 -0.15533
C_ C_ 0.784429 0.88326 0.417361 -0.15533
C_ C_ 0.835906 0.890444 0.430156 0.02923
C_ C_ 0.854548 0.887977 0.479751 -0.15533
C_ C_ 0.822866 0.888802 0.518994 0.02923
C_ C_ 0.852717 0.896182 0.0732181 0.69207
C_ C_ 0.854503 0.884887 0.332019 0.69661
C_ C_ 0.81492 0.935757 0.187283 0.18167
C_ C_ 0.773954 0.960514 0.210209 -0.15533
C_ C_ 0.780431 0.996683 0.251568 0.02923
C_ C_ 0.829246 0.51187 0.247688 -0.15533
C_ C_ 0.868376 0.990374 0.235356 0.18167
C_ C_ 0.996126 0.841553 0.196866 0.18167
C_ C_ 0.515417 0.823046 0.230838 -0.15533
C_ C_ 0.981596 0.76311 0.235931 0.02923
C_ C_ 0.928432 0.777663 0.225547 -0.15533
C_ C_ 0.910496 0.824883 0.203271 0.18167
C_ C_ 0.993679 0.951079 0.129802 0.69207
C_ C_ 0.530869 0.492392 0.126792 0.02923
C_ C_ 0.514078 0.544134 0.13719 -0.15533
C_ C_ 0.542523 0.583516 0.128768 -0.15533
C_ C_ 0.589917 0.571394 0.109709 0.02923
C_ C_ 0.607772 0.520248 0.100791 -0.15533
C_ C_ 0.577688 0.480907 0.107518 0.02923
C_ C_ 0.595538 0.93424 0.113582 0.69207
C_ C_ 0.606907 0.667886 0.114826 0.69661
C_ C_ 0.937334 0.680773 0.435346 0.18167
C_ C_ 0.977403 0.698942 0.469337 -0.15533
C_ C_ 0.966869 0.741031 0.504777 0.02923
C_ C_ 0.928333 0.755108 1.0223812 -0.15533
C_ C_ 0.879891 0.720444 0.492549 0.18167
C_ C_ 0.763305 0.708231 0.356125 0.18167
C_ C_ 0.742948 0.742358 0.318847 -0.15533
C_ C_ 0.765523 0.741352 0.271966 0.02923
C_ C_ 0.815181 0.716665 0.271398 -0.15533
C_ C_ 0.840659 0.691163 0.313089 0.18167
C_ C_ 0.756395 0.622189 0.449003 0.69207
C_ C_ 0.727814 0.616239 0.99519 0.02923
C_ C_ 0.747178 0.610045 0.0451242 -0.15533
C_ C_ 0.717914 0.605778 0.0856975 -0.15533
C_ C_ 0.665921 0.604132 0.0745073 0.02923
C_ C_ 0.646874 0.603469 0.0234342 -0.15533
C_ C_ 0.674417 0.610291 0.983384 0.02923
C_ C_ 0.644652 0.613375 0.428778 0.69207
C_ C_ 0.650945 0.609084 0.172367 0.69661
C_ C_ 0.87539 0.883231 0.390594 -0.30787
C_ C_ 0.629433 0.611393 0.116034 -0.30787
N_ N_ 0.65051 0.558687 0.316075 -0.32189
N_ N_ 0.555435 0.647917 0.317724 -0.32189
N_ N_ 0.609182 0.816819 0.066231 -0.32189
N_ N_ 0.692912 0.831 0.151827 -0.32189
N_ N_ 0.860794 0.951451 0.200004 -0.32189
N_ N_ 0.944786 0.856133 0.191632 -0.32189
N_ N_ 0.888651 0.692254 0.448397 -0.32189
N_ N_ 0.81384 0.688115 0.355416 -0.32189
O_ O_ 0.0125397 0.581977 0.392795 -0.63271
O_ O_ 0.543279 0.536187 0.332419 -0.57982
O_ O_ 0.904767 0.591764 0.339449 -0.63271
O_ O_ 0.873522 0.590988 0.416898 -0.57982
O_ O_ 0.747861 0.898242 0.0966569 -0.63271
O_ O_ 0.697968 0.86298 0.0366483 -0.57982
O_ O_ 0.856277 0.851153 0.090836 -0.63271
O_ O_ 0.878946 0.931843 0.0965693 -0.57982
O_ O_ 0.489292 0.919116 0.107703 -0.63271
O_ O_ 0.965876 0.957623 0.168973 -0.57982
O_ O_ 0.59669 0.910767 0.156728 -0.63271
O_ O_ 0.624062 0.913976 0.0788244 -0.57982
O_ O_ 0.749508 0.600758 0.401271 -0.63271
O_ O_ 0.790533 0.655023 0.459032 -0.57982
O_ O_ 0.650888 0.65137 0.400631 -0.63271
O_ O_ 0.612567 0.580947 0.41201 -0.57982
F_ F_ 0.931571 0.82311 0.439854 -0.20885
F_ F_ 0.931528 0.809048 0.355505 -0.20885
F_ F_ 0.865872 0.790708 0.399048 -0.20885
F_ F_ 0.819103 0.92649 0.32819 -0.20885
F_ F_ 0.830488 0.844684 0.306579 -0.20885
F_ F_ 0.890217 0.893625 0.300594 -0.20885
F_ F_ 0.574002 0.672705 0.0704087 -0.20885
F_ F_ 0.577328 0.686605 0.154214 -0.20885
F_ F_ 0.643438 0.700443 0.116471 -0.20885
F_ F_ 0.679332 0.561289 0.179544 -0.20885
F_ F_ 0.679346 0.647891 0.191319 -0.20885
F_ F_ 0.615576 0.608609 0.206201 -0.20885
Zn Zn 0.589034 0.587183 0.850381 0.83971
Zn Zn 0.658234 0.843902 0.582665 0.83971
Zn Zn 0.908165 0.90971 0.649255 0.83971
Zn Zn 0.84221 0.656693 0.923578 0.83971
H_ H_ 0.677169 0.630386 0.82582 0.10394
H_ H_ 0.750413 0.598461 0.773318 0.10394
H_ H_ 0.716969 0.950476 0.787863 0.10394
H_ H_ 0.628275 0.482949 0.816507 0.10394
H_ H_ 0.0170351 0.604012 0.742337 0.10394
H_ H_ 0.987234 0.683884 0.701572 0.10394
H_ H_ 0.533608 0.771456 0.827006 0.10394
H_ H_ 0.571281 0.701025 0.876209 0.10394
H_ H_ 0.541283 0.947358 0.867698 0.10394
H_ H_ 0.959789 0.880434 0.845667 0.10394
H_ H_ 0.84861 0.992488 0.906117 0.10394
H_ H_ 0.58387 0.795504 0.628674 0.10394
H_ H_ -0.00175387 0.760457 0.609402 0.10394
H_ H_ 0.54711 0.786773 0.950711 0.10394
H_ H_ 0.609422 0.828821 0.476916 0.10394
H_ H_ 0.711884 0.749439 0.599347 0.10394
H_ H_ 0.755029 0.703176 0.674451 0.10394
H_ H_ 0.715289 0.840136 0.771193 0.10394
H_ H_ 0.673427 0.878485 0.694643 0.10394
H_ H_ 0.70764 0.909702 0.953646 0.10394
H_ H_ 0.759372 0.907923 0.880462 0.10394
H_ H_ 0.893257 0.907729 0.98405 0.10394
H_ H_ 0.800639 0.895276 0.654266 0.10394
H_ H_ 0.731878 0.945836 0.686367 0.10394
H_ H_ 0.839259 0.536856 0.787849 0.10394
H_ H_ 0.904116 0.979889 0.746811 0.10394
H_ H_ 0.506922 0.87803 0.686556 0.10394
H_ H_ 0.553944 0.797528 0.723964 0.10394
H_ H_ 0.916736 0.749346 0.733673 0.10394
H_ H_ 0.874512 0.821331 0.686098 0.10394
H_ H_ 0.962554 0.559768 0.626217 0.10394
H_ H_ 0.52575 0.618634 0.625876 0.10394
H_ H_ 0.64425 0.502778 0.583129 0.10394
H_ H_ 0.940396 0.671155 0.896927 0.10394
H_ H_ 0.518346 0.707472 0.94221 0.10394
H_ H_ 0.904868 0.771431 0.552048 0.10394
H_ H_ 0.853616 0.726815 1.0187666 0.10394
H_ H_ 0.732211 0.708352 0.892385 0.10394
H_ H_ 0.687999 0.741096 0.812474 0.10394
H_ H_ 0.836917 0.742512 0.758337 0.10394
H_ H_ 0.874135 0.696436 0.833286 0.10394
H_ H_ 0.791703 0.600945 0.546316 0.10394
H_ H_ 0.737856 0.600141 0.616148 0.10394
H_ H_ 0.603807 0.595664 0.51097 0.10394
C_ C_ 0.68182 0.591536 0.813667 0.18167
C_ C_ 0.724365 0.573381 0.786442 -0.15533
C_ C_ 0.736894 0.519628 0.777965 0.02923
C_ C_ 0.708581 0.992059 0.788063 -0.15533
C_ C_ 0.654108 0.50838 0.803885 0.18167
C_ C_ 0.533434 0.632883 0.767574 0.18167
C_ C_ 0.00633949 0.683511 0.739382 -0.15533
C_ C_ 0.508989 0.723839 0.761344 0.02923
C_ C_ 0.531231 0.731849 0.811615 -0.15533
C_ C_ 0.549352 0.689552 0.840278 0.18167
C_ C_ 0.507559 0.545094 0.863513 0.69207
C_ C_ 0.963474 0.00864224 0.863448 0.02923
C_ C_ -0.025913999999999993 0.958357 0.843066 -0.15533
C_ C_ 0.946973 0.917368 0.856264 -0.15533
C_ C_ 0.900705 0.929111 0.881526 0.02923
C_ C_ 0.884899 0.98148 0.889187 -0.15533
C_ C_ 0.916916 0.0215178 0.884128 0.02923
C_ C_ 0.898607 0.574077 0.894984 0.69207
C_ C_ 0.891724 0.834856 0.8952 0.69661
C_ C_ 0.574012 0.791053 0.587823 0.18167
C_ C_ 0.531458 0.765366 0.570351 -0.15533
C_ C_ 0.512877 0.768514 0.518195 0.02923
C_ C_ 0.556343 0.78822 0.993048 -0.15533
C_ C_ 0.586256 0.812459 0.501717 0.18167
C_ C_ 0.711353 0.76756 0.636247 0.18167
C_ C_ 0.738041 0.742692 0.679368 -0.15533
C_ C_ 0.737509 0.767535 0.727973 0.02923
C_ C_ 0.715231 0.817004 0.733539 -0.15533
C_ C_ 0.689227 0.839872 0.690674 0.18167
C_ C_ 0.737701 0.871338 0.546111 0.69207
C_ C_ 0.773275 0.894262 1.00925638 0.02923
C_ C_ 0.748145 0.905858 0.961073 -0.15533
C_ C_ 0.775719 0.902783 0.918114 -0.15533
C_ C_ 0.829095 0.900085 0.927133 0.02923
C_ C_ 0.851743 0.910312 0.977977 -0.15533
C_ C_ 0.82623 0.903219 0.0203873 0.02923
C_ C_ 0.848951 0.886403 0.571023 0.69207
C_ C_ 0.840248 0.887695 0.83022 0.69661
C_ C_ 0.810592 0.927257 0.681152 0.18167
C_ C_ 0.76973 0.95781 0.697973 -0.15533
C_ C_ 0.77762 -3.04967e-05 0.731083 0.02923
C_ C_ 0.82757 0.513905 0.7527 -0.15533
C_ C_ 0.867657 0.981068 0.725888 0.18167
C_ C_ 0.992531 0.859697 0.707575 0.18167
C_ C_ 0.514052 0.802305 0.716055 -0.15533
C_ C_ 0.990294 0.778701 0.743794 0.02923
C_ C_ 0.937381 0.780197 0.726283 -0.15533
C_ C_ 0.914414 0.819887 0.696066 0.18167
C_ C_ 0.98855 0.94883 0.622154 0.69207
C_ C_ 0.521548 0.489119 0.608342 0.02923
C_ C_ 0.504231 0.541036 0.616912 -0.15533
C_ C_ 0.538244 0.578624 0.615866 -0.15533
C_ C_ 0.590708 0.565348 0.605424 0.02923
C_ C_ 0.604963 0.513827 0.589977 -0.15533
C_ C_ 0.574466 0.475924 0.60328 0.02923
C_ C_ 0.592915 0.92455 0.609222 0.69207
C_ C_ 0.607247 0.659718 0.61216 0.69661
C_ C_ 0.939092 0.689378 0.9347 0.18167
C_ C_ 0.977162 0.719835 0.952908 -0.15533
C_ C_ 0.972147 0.752146 0.99744302 0.02923
C_ C_ 0.917721 0.745113 0.522695 -0.15533
C_ C_ 0.889288 0.725611 1.00170241 0.18167
C_ C_ 0.755904 0.710914 0.859915 0.18167
C_ C_ 0.730596 0.733004 0.814703 -0.15533
C_ C_ 0.759125 0.741331 0.774583 0.02923
C_ C_ 0.812166 0.730931 0.783757 -0.15533
C_ C_ 0.835346 0.707148 0.828416 0.18167
C_ C_ 0.761578 0.627935 0.95877 0.69207
C_ C_ 0.724571 0.610565 0.488379 0.02923
C_ C_ 0.749722 0.604261 0.539454 -0.15533
C_ C_ 0.718744 0.601619 0.579822 -0.15533
C_ C_ 0.666169 0.597627 0.572533 0.02923
C_ C_ 0.644678 0.599358 0.520436 -0.15533
C_ C_ 0.672017 0.605588 0.479266 0.02923
C_ C_ 0.644589 0.614793 0.931682 0.69207
C_ C_ 0.660219 0.59846 0.667189 0.69661
C_ C_ 0.864047 0.888907 0.885147 -0.30787
C_ C_ 0.631235 0.604309 0.61414 -0.30787
N_ N_ 0.646546 0.559109 0.818991 -0.32189
N_ N_ 0.55753 0.642292 0.817053 -0.32189
N_ N_ 0.602213 0.809791 0.553464 -0.32189
N_ N_ 0.688754 0.814695 0.643393 -0.32189
N_ N_ 0.858185 0.943018 0.687703 -0.32189
N_ N_ 0.944107 0.855494 0.683013 -0.32189
N_ N_ 0.894017 0.698131 0.95726 -0.32189
N_ N_ 0.806105 0.695796 0.864839 -0.32189
O_ O_ 1.0135017 0.590125 0.901459 -0.63271
O_ O_ 0.547539 0.536425 0.834417 -0.57982
O_ O_ 0.896708 0.605292 0.85741 -0.63271
O_ O_ 0.877205 0.594955 0.936677 -0.57982
O_ O_ 0.73928 0.898308 0.590925 -0.63271
O_ O_ 0.704921 0.837248 0.538467 -0.57982
O_ O_ 0.853044 0.84311 0.59453 -0.63271
O_ O_ 0.873275 0.923893 0.589179 -0.57982
O_ O_ 0.472879 0.909247 0.594963 -0.63271
O_ O_ 0.949117 0.961993 0.650526 -0.57982
O_ O_ 0.579916 0.896359 0.643348 -0.63271
O_ O_ 0.625868 0.905431 0.579865 -0.57982
O_ O_ 0.757292 0.607974 0.91146 -0.63271
O_ O_ 0.793063 0.661187 0.970173 -0.57982
O_ O_ 0.644398 0.657112 0.907467 -0.63271
O_ O_ 0.618503 0.580097 0.911023 -0.57982
F_ F_ 0.922492 0.834431 0.93944 -0.20885
F_ F_ 0.92175 0.811355 0.858584 -0.20885
F_ F_ 0.857679 0.796815 0.901039 -0.20885
F_ F_ 0.816037 0.935984 0.820154 -0.20885
F_ F_ 0.804707 0.85412 0.820885 -0.20885
F_ F_ 0.87313 0.875086 0.792921 -0.20885
F_ F_ 0.569634 0.664347 0.572872 -0.20885
F_ F_ 0.582456 0.67591 0.654936 -0.20885
F_ F_ 0.643994 0.694452 0.608058 -0.20885
F_ F_ 0.695637 0.554727 0.66941 -0.20885
F_ F_ 0.684757 0.638273 0.692088 -0.20885
F_ F_ 0.626196 0.59246 0.70175 -0.20885
