_cell_length_a 26.508
_cell_length_b 26.37200000322088
_cell_length_c 26.311999743092066
_cell_angle_alpha 93.74100058972084
_cell_angle_beta 96.04100104955006
_cell_angle_gamma 83.6869992558723
_symmetry_space_group_name_H-M         'P 1'
_symmetry_Int_Tables_number            1
loop_
_symmetry_equiv_pos_as_xyz
   'x, y, z'
                         
loop_
_atom_site_label
_atom_site_type_symbol
_atom_site_fract_x 
_atom_site_fract_y
_atom_site_fract_z
_atom_site_charge
Zn Zn 0.0956192 0.0827441 0.348016 0.83971
Zn Zn 0.158001 0.34459 0.0883779 0.83971
Zn Zn 0.405426 0.417736 0.152001 0.83971
Zn Zn 0.336268 0.160017 0.421693 0.83971
H_ H_ 0.178408 0.132778 0.304668 0.10394
H_ H_ 0.259256 0.102245 0.279216 0.10394
H_ H_ 0.214268 0.445826 0.293643 0.10394
H_ H_ 0.147295 0.98332 0.332842 0.10394
H_ H_ 0.557393 0.106483 0.253457 0.10394
H_ H_ 0.514 0.174002 0.20611 0.10394
H_ H_ 0.0363663 0.26651 0.335673 0.10394
H_ H_ 0.073507 0.191526 0.382483 0.10394
H_ H_ 0.0207109 0.444317 0.349894 0.10394
H_ H_ 0.481985 0.385921 0.38076 0.10394
H_ H_ 0.35128 0.492556 0.398393 0.10394
H_ H_ 0.0656982 0.308376 0.133578 0.10394
H_ H_ 0.50072 0.27049 0.103513 0.10394
H_ H_ 0.0446809 0.28085 0.447232 0.10394
H_ H_ 0.118558 0.319275 0.988989 0.10394
H_ H_ 0.218377 0.249587 0.10594 0.10394
H_ H_ 0.272114 0.21213 0.177284 0.10394
H_ H_ 0.220741 0.339693 0.272344 0.10394
H_ H_ 0.178252 0.381575 0.200325 0.10394
H_ H_ 0.21562 0.367381 0.437358 0.10394
H_ H_ 0.267669 0.383943 0.374753 0.10394
H_ H_ 0.394879 0.403643 0.489712 0.10394
H_ H_ 0.305704 0.392242 0.172097 0.10394
H_ H_ 0.230671 0.445065 0.198408 0.10394
H_ H_ 0.351443 0.0185493 0.297841 0.10394
H_ H_ 0.391089 0.520905 0.209722 0.10394
H_ H_ 0.016712 0.388856 0.201625 0.10394
H_ H_ 0.0624396 0.309261 0.244686 0.10394
H_ H_ 0.417002 0.251922 0.236002 0.10394
H_ H_ 0.373156 0.322937 0.183634 0.10394
H_ H_ 0.465823 0.0623376 0.115272 0.10394
H_ H_ 0.0243962 0.123165 0.131239 0.10394
H_ H_ 0.14417 0.0151284 0.08718 0.10394
H_ H_ 0.445817 0.122012 0.464369 0.10394
H_ H_ 0.0220882 0.193073 0.445164 0.10394
H_ H_ 0.413643 0.272649 0.0569314 0.10394
H_ H_ 0.345734 0.260487 0.465614 0.10394
H_ H_ 0.236312 0.211894 0.392135 0.10394
H_ H_ 0.193939 0.249352 0.308868 0.10394
H_ H_ 0.341816 0.23884 0.256823 0.10394
H_ H_ 0.381567 0.197065 0.337078 0.10394
H_ H_ 0.285861 0.142845 0.0530084 0.10394
H_ H_ 0.228866 0.132376 0.114758 0.10394
H_ H_ 0.106876 0.108322 0.00215595 0.10394
C_ C_ 0.188825 0.0921036 0.305202 0.18167
C_ C_ 0.236272 0.0746463 0.289296 -0.15533
C_ C_ 0.245956 0.0224516 0.279867 0.02923
C_ C_ 0.204067 0.486014 0.296119 -0.15533
C_ C_ 0.167778 0.00793928 0.314035 0.18167
C_ C_ 0.0371613 0.132003 0.269793 0.18167
C_ C_ 0.528166 0.184167 0.243978 -0.15533
C_ C_ 0.0194834 0.223472 0.263112 0.02923
C_ C_ 0.038738 0.228365 0.315295 -0.15533
C_ C_ 0.0598675 0.184683 0.342258 0.18167
C_ C_ 0.00851753 0.0460921 0.365976 0.69207
C_ C_ 0.469171 0.515692 0.376746 0.02923
C_ C_ 0.491595 0.465053 0.380506 -0.15533
C_ C_ 0.465177 0.423966 0.387593 -0.15533
C_ C_ 0.411356 0.43191 0.391496 0.02923
C_ C_ 0.391623 0.483701 0.396011 -0.15533
C_ C_ 0.421308 0.524408 0.394175 0.02923
C_ C_ 0.389385 0.0751015 0.382872 0.69207
C_ C_ 0.400995 0.335298 0.380172 0.69661
C_ C_ 0.0613845 0.303206 0.0922181 0.18167
C_ C_ 0.0232705 0.273786 0.0691076 -0.15533
C_ C_ 0.0167176 0.265024 0.0166809 0.02923
C_ C_ 0.0528051 0.281046 0.488837 -0.15533
C_ C_ 0.0925578 0.302592 0.0105117 0.18167
C_ C_ 0.214209 0.267803 0.143371 0.18167
C_ C_ 0.243983 0.245612 0.184775 -0.15533
C_ C_ 0.246959 0.272973 0.23069 0.02923
C_ C_ 0.21872 0.319131 0.234573 -0.15533
C_ C_ 0.193488 0.341223 0.19355 0.18167
C_ C_ 0.237426 0.363847 0.0492286 0.69207
C_ C_ 0.274536 0.377058 0.503027 0.02923
C_ C_ 0.25509 0.374302 0.45082 -0.15533
C_ C_ 0.28572 0.388518 0.41327 -0.15533
C_ C_ 0.338089 0.395718 0.42462 0.02923
C_ C_ 0.357231 0.391836 0.476447 -0.15533
C_ C_ 0.324921 0.385162 0.517113 0.02923
C_ C_ 0.34584 0.383509 0.0720617 0.69207
C_ C_ 0.351096 0.39765 0.32435 0.69661
C_ C_ 0.308785 0.432165 0.184137 0.18167
C_ C_ 0.266672 0.459488 0.205495 -0.15533
C_ C_ 0.27349 0.49995 0.242356 0.02923
C_ C_ 0.336648 0.00755182 0.260449 -0.15533
C_ C_ 0.360016 0.499308 0.216807 0.18167
C_ C_ 0.491462 0.360044 0.201411 0.18167
C_ C_ 0.0204076 0.31175 0.233778 -0.15533
C_ C_ 0.491427 0.276018 0.239046 0.02923
C_ C_ 0.438646 0.278245 0.222 -0.15533
C_ C_ 0.413392 0.324029 0.20085 0.18167
C_ C_ 0.475483 0.458308 0.111522 0.69207
C_ C_ 0.0239722 0.994589 0.107245 0.02923
C_ C_ 0.00619426 0.0443981 0.118296 -0.15533
C_ C_ 0.0375305 0.084141 0.115979 -0.15533
C_ C_ 0.0887104 0.0740842 0.10495 0.02923
C_ C_ 0.105122 0.0234641 0.0906378 -0.15533
C_ C_ 0.0746861 0.982477 0.0903518 0.02923
C_ C_ 0.0963943 0.423399 0.109912 0.69207
C_ C_ 0.10214 0.172145 0.105869 0.69661
C_ C_ 0.437409 0.164652 0.462304 0.18167
C_ C_ 0.480957 0.190729 0.477961 -0.15533
C_ C_ 0.471713 0.242297 0.496632 0.02923
C_ C_ 0.419974 0.25317 0.0177867 -0.15533
C_ C_ 0.382632 0.240503 0.471878 0.18167
C_ C_ 0.257113 0.213382 0.359579 0.18167
C_ C_ 0.235708 0.236327 0.313523 -0.15533
C_ C_ 0.268177 0.24823 0.277668 0.02923
C_ C_ 0.319874 0.230959 0.286282 -0.15533
C_ C_ 0.339803 0.206588 0.331015 0.18167
C_ C_ 0.265202 0.117282 0.459751 0.69207
C_ C_ 0.235082 0.116865 0.991751 0.02923
C_ C_ 0.248475 0.127875 0.0424693 -0.15533
C_ C_ 0.215986 0.121208 0.0776575 -0.15533
C_ C_ 0.164522 0.107992 0.0664996 0.02923
C_ C_ 0.147756 0.10653 0.0152806 -0.15533
C_ C_ 0.182766 0.107832 0.977304 0.02923
C_ C_ 0.151002 0.102945 0.428728 0.69207
C_ C_ 0.149165 0.113938 0.166498 0.69661
C_ C_ 0.374884 0.389053 0.380631 -0.30787
C_ C_ 0.124694 0.116202 0.108608 -0.30787
N_ N_ 0.158613 0.0594049 0.320238 -0.32189
N_ N_ 0.0614758 0.137589 0.319159 -0.32189
N_ N_ 0.098217 0.310588 0.0622306 -0.32189
N_ N_ 0.186482 0.314372 0.147653 -0.32189
N_ N_ 0.354267 0.453176 0.190398 -0.32189
N_ N_ 0.441592 0.357499 0.183076 -0.32189
N_ N_ 0.390696 0.188082 0.457362 -0.32189
N_ N_ 0.309203 0.201054 0.366602 -0.32189
O_ O_ 0.496224 0.0979174 0.391702 -0.63271
O_ O_ 0.0489762 0.0333633 0.338438 -0.57982
O_ O_ 0.387444 0.10095 0.342082 -0.63271
O_ O_ 0.368254 0.0972462 0.421715 -0.57982
O_ O_ 0.242946 0.386387 0.0968854 -0.63271
O_ O_ 0.198577 0.33715 0.0369923 -0.57982
O_ O_ 0.347497 0.343157 0.0963586 -0.63271
O_ O_ 0.36862 0.422483 0.0889129 -0.57982
O_ O_ 0.994246 0.400628 0.103713 -0.63271
O_ O_ 0.448424 0.465297 0.150201 -0.57982
O_ O_ 0.101609 0.400351 0.155339 -0.63271
O_ O_ 0.128082 0.407503 0.0768 -0.57982
O_ O_ 0.261187 0.0942884 0.414192 -0.63271
O_ O_ 0.293666 0.156192 0.468087 -0.57982
O_ O_ 0.154264 0.142844 0.402947 -0.63271
O_ O_ 0.119109 0.0692145 0.412481 -0.57982
F_ F_ 0.438914 0.329714 0.419851 -0.20885
F_ F_ 0.425759 0.322738 0.336115 -0.20885
F_ F_ 0.366483 0.301497 0.386277 -0.20885
F_ F_ 0.314984 0.439339 0.32247 -0.20885
F_ F_ 0.326913 0.354875 0.305787 -0.20885
F_ F_ 0.386689 0.401621 0.292616 -0.20885
F_ F_ 0.0670294 0.175823 0.0636828 -0.20885
F_ F_ 0.0746947 0.190189 0.148625 -0.20885
F_ F_ 0.136727 0.204117 0.102067 -0.20885
F_ F_ 0.188316 0.0749434 0.173701 -0.20885
F_ F_ 0.176383 0.158231 0.182346 -0.20885
F_ F_ 0.111188 0.106032 0.200487 -0.20885
Zn Zn 0.095893 0.0856345 0.841925 0.83971
Zn Zn 0.159378 0.346024 0.583188 0.83971
Zn Zn 0.409146 0.413325 0.656301 0.83971
Zn Zn 0.348463 0.154537 0.913565 0.83971
H_ H_ 0.178404 0.129988 0.809918 0.10394
H_ H_ 0.259441 0.0963016 0.776251 0.10394
H_ H_ 0.210531 0.435092 0.786185 0.10394
H_ H_ 0.144886 0.9749 0.82507 0.10394
H_ H_ 0.529887 0.0974083 0.756022 0.10394
H_ H_ 0.493855 0.166961 0.705822 0.10394
H_ H_ 0.017209 0.271039 0.832475 0.10394
H_ H_ 0.0763599 0.196921 0.878153 0.10394
H_ H_ 0.0413482 0.435842 0.879594 0.10394
H_ H_ 0.47677 0.371604 0.876044 0.10394
H_ H_ 0.353964 0.478695 0.914391 0.10394
H_ H_ 0.0691802 0.309162 0.634145 0.10394
H_ H_ 0.500229 0.273179 0.592569 0.10394
H_ H_ 0.0481389 0.268752 0.945002 0.10394
H_ H_ 0.122973 0.313337 0.490179 0.10394
H_ H_ 0.230224 0.2557 0.594828 0.10394
H_ H_ 0.28058 0.21744 0.663614 0.10394
H_ H_ 0.19894 0.322298 0.767328 0.10394
H_ H_ 0.168705 0.375835 0.694063 0.10394
H_ H_ 0.215538 0.356733 0.949137 0.10394
H_ H_ 0.268931 0.359527 0.878132 0.10394
H_ H_ 0.392937 0.388515 0.984551 0.10394
H_ H_ 0.307942 0.391847 0.661937 0.10394
H_ H_ 0.232415 0.440927 0.692071 0.10394
H_ H_ 0.336649 0.0468752 0.782758 0.10394
H_ H_ 0.401049 0.497275 0.742062 0.10394
H_ H_ 0.00841092 0.386338 0.700655 0.10394
H_ H_ 0.0500123 0.303751 0.73074 0.10394
H_ H_ 0.415623 0.242197 0.722854 0.10394
H_ H_ 0.37316 0.321471 0.683517 0.10394
H_ H_ 0.467687 0.05351 0.634135 0.10394
H_ H_ 0.00433225 0.112036 0.594923 0.10394
H_ H_ 0.139467 0.00433934 0.588429 0.10394
H_ H_ 0.445788 0.166991 0.898308 0.10394
H_ H_ 0.012477 0.19584 0.938815 0.10394
H_ H_ 0.414904 0.30516 0.514605 0.10394
H_ H_ 0.34433 0.229815 0.00119403 0.10394
H_ H_ 0.242995 0.183312 0.873373 0.10394
H_ H_ 0.197417 0.221894 0.801281 0.10394
H_ H_ 0.342511 0.242215 0.746753 0.10394
H_ H_ 0.383657 0.193763 0.824981 0.10394
H_ H_ 0.280168 0.134336 0.56322 0.10394
H_ H_ 0.217563 0.132743 0.624914 0.10394
H_ H_ 0.10849 0.0786996 0.508303 0.10394
C_ C_ 0.183666 0.0890513 0.798559 0.18167
C_ C_ 0.230849 0.0697817 0.781572 -0.15533
C_ C_ 0.241135 0.0150136 0.771075 0.02923
C_ C_ 0.1975 0.475146 0.788176 -0.15533
C_ C_ 0.162743 0.00227073 0.805027 0.18167
C_ C_ 0.0332165 0.135334 0.770828 0.18167
C_ C_ 0.508168 0.175623 0.745446 -0.15533
C_ C_ 0.00538353 0.225204 0.765564 0.02923
C_ C_ 0.0298853 0.233076 0.81411 -0.15533
C_ C_ 0.0582424 0.191481 0.838983 0.18167
C_ C_ 0.0108975 0.0492657 0.869371 0.69207
C_ C_ 0.465238 0.501555 0.87183 0.02923
C_ C_ 0.486081 0.450761 0.8698 -0.15533
C_ C_ 0.459896 0.410571 0.884013 -0.15533
C_ C_ 0.408256 0.419862 0.89583 0.02923
C_ C_ 0.391727 0.469788 0.905387 -0.15533
C_ C_ 0.417871 0.511917 0.893571 0.02923
C_ C_ 0.406356 0.0728263 0.882005 0.69207
C_ C_ 0.392034 0.322744 0.874639 0.69661
C_ C_ 0.0657256 0.299698 0.593245 0.18167
C_ C_ 0.0205648 0.28095 0.571238 -0.15533
C_ C_ 0.0159931 0.269022 0.518263 0.02923
C_ C_ 0.0537195 0.276065 0.986564 -0.15533
C_ C_ 0.0947089 0.301731 0.51273 0.18167
C_ C_ 0.226214 0.273371 0.632229 0.18167
C_ C_ 0.253234 0.250548 0.672046 -0.15533
C_ C_ 0.238857 0.260728 0.722541 0.02923
C_ C_ 0.20256 0.304167 0.730141 -0.15533
C_ C_ 0.188166 0.335507 0.688856 0.18167
C_ C_ 0.235815 0.37364 0.540605 0.69207
C_ C_ 0.271843 0.372059 0.00789314 0.02923
C_ C_ 0.255501 0.358459 0.957301 -0.15533
C_ C_ 0.284708 0.36258 0.916887 -0.15533
C_ C_ 0.332787 0.379762 0.927262 0.02923
C_ C_ 0.353173 0.383296 0.977777 -0.15533
C_ C_ 0.323501 0.380331 0.0183148 0.02923
C_ C_ 0.351528 0.380259 0.569876 0.69207
C_ C_ 0.340927 0.389725 0.832574 0.69661
C_ C_ 0.312895 0.423833 0.689635 0.18167
C_ C_ 0.269617 0.450022 0.707792 -0.15533
C_ C_ 0.274852 0.488646 0.746095 0.02923
C_ C_ 0.335548 0.0146079 0.757825 -0.15533
C_ C_ 0.36585 0.483451 0.7308 0.18167
C_ C_ 0.492003 0.346143 0.692657 0.18167
C_ C_ 0.00962964 0.308864 0.722589 -0.15533
C_ C_ 0.486862 0.269586 0.736293 0.02923
C_ C_ 0.436498 0.27229 0.719617 -0.15533
C_ C_ 0.413066 0.316206 0.693049 0.18167
C_ C_ 0.479716 0.458668 0.617323 0.69207
C_ C_ 0.0219051 0.989287 0.623739 0.02923
C_ C_ -0.0018019999999999703 0.0383391 0.612743 -0.15533
C_ C_ 0.026059 0.0774916 0.600967 -0.15533
C_ C_ 0.0792422 0.0662848 0.594607 0.02923
C_ C_ 0.10108 0.0152445 0.600657 -0.15533
C_ C_ 0.0734719 0.97701 0.617906 0.02923
C_ C_ 0.0937483 0.422457 0.609767 0.69207
C_ C_ 0.0904963 0.164146 0.598807 0.69661
C_ C_ 0.437108 0.192842 0.930146 0.18167
C_ C_ 0.477841 0.215158 0.958665 -0.15533
C_ C_ 0.468473 0.248178 1.00198838 0.02923
C_ C_ 0.422098 0.266729 0.495106 -0.15533
C_ C_ 0.381818 0.226881 0.991034 0.18167
C_ C_ 0.267222 0.192673 0.845456 0.18167
C_ C_ 0.240456 0.215589 0.801785 -0.15533
C_ C_ 0.267662 0.235724 0.767258 0.02923
C_ C_ 0.322266 0.228483 0.7755 -0.15533
C_ C_ 0.345702 0.200714 0.817003 0.18167
C_ C_ 0.271811 0.119895 0.953651 0.69207
C_ C_ 0.226464 0.113691 0.496026 0.02923
C_ C_ 0.242601 0.123086 0.548413 -0.15533
C_ C_ 0.209095 0.116598 0.587036 -0.15533
C_ C_ 0.159962 0.1003 0.57087 0.02923
C_ C_ 0.146604 0.0900295 0.519901 -0.15533
C_ C_ 0.178077 0.0967005 0.481309 0.02923
C_ C_ 0.163837 0.108556 0.923375 0.69207
C_ C_ 0.135236 0.104664 0.663679 0.69661
C_ C_ 0.368487 0.378458 0.883417 -0.30787
C_ C_ 0.116083 0.109377 0.606903 -0.30787
N_ N_ 0.150459 0.0560141 0.807102 -0.32189
N_ N_ 0.0621287 0.145106 0.81444 -0.32189
N_ N_ 0.102262 0.306405 0.563724 -0.32189
N_ N_ 0.194954 0.316415 0.640535 -0.32189
N_ N_ 0.359287 0.441169 0.699732 -0.32189
N_ N_ 0.441014 0.352122 0.682698 -0.32189
N_ N_ 0.391731 0.197017 0.947757 -0.32189
N_ N_ 0.318441 0.185037 0.852662 -0.32189
O_ O_ 0.516912 0.0915589 0.891422 -0.63271
O_ O_ 0.0529869 0.0353254 0.847257 -0.57982
O_ O_ 0.402629 0.0975334 0.840855 -0.63271
O_ O_ 0.383843 0.0924925 0.920567 -0.57982
O_ O_ 0.240386 0.397238 0.584956 -0.63271
O_ O_ 0.203318 0.339007 0.532048 -0.57982
O_ O_ 0.34403 0.341708 0.595861 -0.63271
O_ O_ 0.381 0.415598 0.590708 -0.57982
O_ O_ 0.986703 0.405447 0.603899 -0.63271
O_ O_ 0.451136 0.464552 0.655507 -0.57982
O_ O_ 0.0908875 0.397197 0.650233 -0.63271
O_ O_ 0.130692 0.407001 0.581837 -0.57982
O_ O_ 0.2651 0.0968373 0.907627 -0.63271
O_ O_ 0.303709 0.155049 0.960859 -0.57982
O_ O_ 0.164348 0.150108 0.9 -0.63271
O_ O_ 0.127622 0.0785858 0.904934 -0.57982
F_ F_ 0.431725 0.30858 0.910699 -0.20885
F_ F_ 0.416637 0.308841 0.831355 -0.20885
F_ F_ 0.355916 0.287341 0.880382 -0.20885
F_ F_ 0.31046 0.434018 0.83162 -0.20885
F_ F_ 0.312445 0.35152 0.808468 -0.20885
F_ F_ 0.374922 0.39561 0.800571 -0.20885
F_ F_ 0.0646067 0.164449 0.549569 -0.20885
F_ F_ 0.055309 0.180458 0.633665 -0.20885
F_ F_ 0.125385 0.1995 0.600411 -0.20885
F_ F_ 0.169997 0.063375 0.672142 -0.20885
F_ F_ 0.155014 0.147939 0.683756 -0.20885
F_ F_ 0.097789 0.096953 0.69388 -0.20885
Zn Zn 0.0806444 0.587208 0.344841 0.83971
Zn Zn 0.16297 0.846227 0.0742276 0.83971
Zn Zn 0.409085 0.923232 0.145107 0.83971
Zn Zn 0.33089 0.658093 0.414814 0.83971
H_ H_ 0.161472 0.630446 0.300919 0.10394
H_ H_ 0.244331 0.601195 0.274257 0.10394
H_ H_ 0.223989 0.947597 0.293795 0.10394
H_ H_ 0.142549 0.481815 0.342372 0.10394
H_ H_ 0.513842 0.594564 0.246346 0.10394
H_ H_ 0.470981 0.667744 0.194969 0.10394
H_ H_ 0.0475077 0.773226 0.326476 0.10394
H_ H_ 0.0865726 0.69278 0.3663 0.10394
H_ H_ 0.027538 0.945388 0.359349 0.10394
H_ H_ 0.480743 0.884098 0.374489 0.10394
H_ H_ 0.344053 0.990016 0.393471 0.10394
H_ H_ 0.0875635 0.798821 0.122999 0.10394
H_ H_ 0.503029 0.780496 0.10654 0.10394
H_ H_ 0.0351422 0.801873 0.454247 0.10394
H_ H_ 0.120027 0.821576 0.971228 0.10394
H_ H_ 0.20887 0.746947 0.0955792 0.10394
H_ H_ 0.242551 0.700916 0.171367 0.10394
H_ H_ 0.210817 0.842568 0.263305 0.10394
H_ H_ 0.184306 0.88953 0.182379 0.10394
H_ H_ 0.217342 0.870725 0.450359 0.10394
H_ H_ 0.263022 0.894688 0.384949 0.10394
H_ H_ 0.397161 0.906946 0.490461 0.10394
H_ H_ 0.297507 0.939559 0.132423 0.10394
H_ H_ 0.230156 0.969023 0.191446 0.10394
H_ H_ 0.326609 0.553128 0.272803 0.10394
H_ H_ 0.412477 -0.016623000000000054 0.238788 0.10394
H_ H_ 0.0113927 0.887663 0.19068 0.10394
H_ H_ 0.0536545 0.815164 0.236172 0.10394
H_ H_ 0.395679 0.752102 0.209135 0.10394
H_ H_ 0.36158 0.839517 0.179229 0.10394
H_ H_ 0.456157 0.561762 0.113231 0.10394
H_ H_ 0.0139927 0.616101 0.125497 0.10394
H_ H_ 0.139973 0.506106 0.0977732 0.10394
H_ H_ 0.431465 0.675026 0.38306 0.10394
H_ H_ 0.0174927 0.697401 0.455409 0.10394
H_ H_ 0.417912 0.781412 0.051558 0.10394
H_ H_ 0.345115 0.733123 0.507249 0.10394
H_ H_ 0.226085 0.70308 0.383413 0.10394
H_ H_ 0.186915 0.741098 0.306986 0.10394
H_ H_ 0.323964 0.727483 0.240894 0.10394
H_ H_ 0.36649 0.680517 0.315463 0.10394
H_ H_ 0.286451 0.600844 0.0635315 0.10394
H_ H_ 0.226736 0.592059 0.124086 0.10394
H_ H_ 0.103017 0.59517 0.010898 0.10394
C_ C_ 0.172378 0.589013 0.29865 0.18167
C_ C_ 0.219715 0.571799 0.28175 -0.15533
C_ C_ 0.235224 0.519436 0.278269 0.02923
C_ C_ 0.215208 0.989424 0.299432 -0.15533
C_ C_ 0.15972 0.506687 0.319047 0.18167
C_ C_ 0.0204953 0.639082 0.269394 0.18167
C_ C_ 0.486652 0.67323 0.23617 -0.15533
C_ C_ 0.012681 0.731016 0.262496 0.02923
C_ C_ 0.0406301 0.734751 0.310351 -0.15533
C_ C_ 0.0583797 0.689953 0.337232 0.18167
C_ C_ -0.0005939999999999834 0.550445 0.366152 0.69207
C_ C_ 0.466072 0.0129083 0.375782 0.02923
C_ C_ 0.490615 0.960867 0.3799 -0.15533
C_ C_ 0.462485 0.920849 0.383553 -0.15533
C_ C_ 0.40849 0.930403 0.391717 0.02923
C_ C_ 0.38543 0.982384 0.391501 -0.15533
C_ C_ 0.41421 0.0235033 0.384602 0.02923
C_ C_ 0.39211 0.576525 0.389118 0.69207
C_ C_ 0.400283 0.832503 0.399815 0.69661
C_ C_ 0.0775953 0.793145 0.081585 0.18167
C_ C_ 0.0291082 0.780332 0.0653319 -0.15533
C_ C_ 0.0154988 0.773194 0.0119874 0.02923
C_ C_ 0.0491304 0.791286 0.493527 -0.15533
C_ C_ 0.0953103 0.803848 -0.003534000000000037 0.18167
C_ C_ 0.209256 0.769001 0.132702 0.18167
C_ C_ 0.230288 0.742546 0.174443 -0.15533
C_ C_ 0.226363 0.766406 0.223546 0.02923
C_ C_ 0.209351 0.819444 0.227026 -0.15533
C_ C_ 0.193432 0.846538 0.181737 0.18167
C_ C_ 0.247635 0.862402 0.0395504 0.69207
C_ C_ 0.275665 0.881324 0.513662 0.02923
C_ C_ 0.255336 0.88042 0.462038 -0.15533
C_ C_ 0.282245 0.893274 0.422871 -0.15533
C_ C_ 0.333857 0.898489 0.432405 0.02923
C_ C_ 0.355191 0.902835 0.483748 -0.15533
C_ C_ 0.325368 0.893039 0.525018 0.02923
C_ C_ 0.357404 0.891025 0.0616219 0.69207
C_ C_ 0.352953 0.876297 0.333175 0.69661
C_ C_ 0.307482 0.957628 0.168334 0.18167
C_ C_ 0.271013 0.976177 0.199782 -0.15533
C_ C_ 0.285336 1.00134627 0.245626 0.02923
C_ C_ 0.320111 0.521974 0.244516 -0.15533
C_ C_ 0.373055 0.985938 0.226709 0.18167
C_ C_ 0.48708 0.854652 0.197333 0.18167
C_ C_ 0.0143557 0.817857 0.226496 -0.15533
C_ C_ 0.47252 0.772977 0.230838 0.02923
C_ C_ 0.41974 0.783102 0.213039 -0.15533
C_ C_ 0.401576 0.830545 0.192198 0.18167
C_ C_ 0.486825 0.960252 0.121138 0.69207
C_ C_ 0.020587 0.48623 0.118993 0.02923
C_ C_ -0.0004549999999999832 0.539004 0.123164 -0.15533
C_ C_ 0.0288841 0.577639 0.115968 -0.15533
C_ C_ 0.0802392 0.567031 0.108251 0.02923
C_ C_ 0.0996405 0.514432 0.101368 -0.15533
C_ C_ 0.0689459 0.475609 0.107256 0.02923
C_ C_ 0.101913 0.931031 0.0980625 0.69207
C_ C_ 0.0953279 0.66593 0.106803 0.69661
C_ C_ 0.427783 0.695266 0.420851 0.18167
C_ C_ 0.471744 0.710574 0.449042 -0.15533
C_ C_ 0.467764 0.746747 0.488279 0.02923
C_ C_ 0.426831 0.750052 0.0251623 -0.15533
C_ C_ 0.379752 0.729043 0.48864 0.18167
C_ C_ 0.248418 0.704439 0.352436 0.18167
C_ C_ 0.226034 0.734823 0.313153 -0.15533
C_ C_ 0.251961 0.739025 0.271375 0.02923
C_ C_ 0.305011 0.722546 0.273379 -0.15533
C_ C_ 0.327995 0.695028 0.313385 0.18167
C_ C_ 0.256345 0.620105 0.453565 0.69207
C_ C_ 0.227819 0.608008 1.000843645 0.02923
C_ C_ 0.245947 0.600008 0.0519601 -0.15533
C_ C_ 0.211204 0.594316 0.0867334 -0.15533
C_ C_ 0.15862 0.59941 0.0715158 0.02923
C_ C_ 0.140768 0.60331 0.0202265 -0.15533
C_ C_ 0.174505 0.607072 0.984022 0.02923
C_ C_ 0.148024 0.605438 0.425518 0.69207
C_ C_ 0.142215 0.60484 0.167698 0.69661
C_ C_ 0.373091 0.886426 0.390339 -0.30787
C_ C_ 0.118057 0.60756 0.110476 -0.30787
N_ N_ 0.14095 0.556145 0.311686 -0.32189
N_ N_ 0.0484182 0.644861 0.316121 -0.32189
N_ N_ 0.110533 0.802565 0.0460083 -0.32189
N_ N_ 0.190012 0.818181 0.137148 -0.32189
N_ N_ 0.358746 0.959844 0.183925 -0.32189
N_ N_ 0.434948 0.862782 0.179764 -0.32189
N_ N_ 0.382629 0.702911 0.442445 -0.32189
N_ N_ 0.299557 0.686197 0.352984 -0.32189
O_ O_ 0.499333 0.598617 0.390129 -0.63271
O_ O_ 0.0386873 0.537834 0.339623 -0.57982
O_ O_ 0.382403 0.595154 0.343412 -0.63271
O_ O_ 0.364003 0.595115 0.425329 -0.57982
O_ O_ 0.243294 0.894974 0.0794067 -0.63271
O_ O_ 0.210364 0.830638 0.0333054 -0.57982
O_ O_ 0.357341 0.854809 0.0917198 -0.63271
O_ O_ 0.384059 0.926676 0.0772275 -0.57982
O_ O_ 0.993035 0.911546 0.0935433 -0.63271
O_ O_ 0.45749 0.965984 0.15817 -0.57982
O_ O_ 0.101449 0.908679 0.142213 -0.63271
O_ O_ 0.135565 0.911721 0.0656038 -0.57982
O_ O_ 0.255185 0.592132 0.410698 -0.63271
O_ O_ 0.289695 0.653199 0.461613 -0.57982
O_ O_ 0.157011 0.645169 0.401186 -0.63271
O_ O_ 0.108449 0.581312 0.410469 -0.57982
F_ F_ 0.43471 0.83527 0.443406 -0.20885
F_ F_ 0.429236 0.808973 0.361501 -0.20885
F_ F_ 0.36503 0.801457 0.411501 -0.20885
F_ F_ 0.321355 0.917538 0.315823 -0.20885
F_ F_ 0.32567 0.834014 0.318857 -0.20885
F_ F_ 0.389144 0.878171 0.301195 -0.20885
F_ F_ 0.0711257 0.67396 0.0581838 -0.20885
F_ F_ 0.0619277 0.684833 0.143034 -0.20885
F_ F_ 0.133179 0.69782 0.112782 -0.20885
F_ F_ 0.164156 0.556446 0.172218 -0.20885
F_ F_ 0.174613 0.641325 0.187944 -0.20885
F_ F_ 0.104458 0.609669 0.200139 -0.20885
Zn Zn 0.0856777 0.576486 0.849746 0.83971
Zn Zn 0.161555 0.84637 0.594435 0.83971
Zn Zn 0.41654 0.916015 0.658252 0.83971
Zn Zn 0.339948 0.652219 0.932413 0.83971
H_ H_ 0.167381 0.616316 0.82141 0.10394
H_ H_ 0.244247 0.588935 0.775209 0.10394
H_ H_ 0.224826 0.94264 0.787844 0.10394
H_ H_ 0.132552 0.471642 0.827939 0.10394
H_ H_ 0.527307 0.594522 0.744571 0.10394
H_ H_ 0.489374 0.674097 0.693841 0.10394
H_ H_ 0.0248894 0.765897 0.831736 0.10394
H_ H_ 0.073808 0.691269 0.877722 0.10394
H_ H_ 0.0365938 0.95531 0.910169 0.10394
H_ H_ 0.497819 0.882181 0.893241 0.10394
H_ H_ 0.364187 0.988599 0.890329 0.10394
H_ H_ 0.0870445 0.795155 0.639473 0.10394
H_ H_ 0.499719 0.767542 0.591392 0.10394
H_ H_ 0.0356483 0.794386 0.938454 0.10394
H_ H_ 0.120648 0.826279 0.490419 0.10394
H_ H_ 0.222222 0.748464 0.604576 0.10394
H_ H_ 0.262673 0.701666 0.680675 0.10394
H_ H_ 0.216512 0.82406 0.783376 0.10394
H_ H_ 0.179245 0.874039 0.711732 0.10394
H_ H_ 0.239036 0.828793 0.936176 0.10394
H_ H_ 0.284987 0.852284 0.869281 0.10394
H_ H_ 0.388852 0.925882 0.979033 0.10394
H_ H_ 0.320369 0.891268 0.671312 0.10394
H_ H_ 0.246513 0.943729 0.693233 0.10394
H_ H_ 0.327524 0.539976 0.782434 0.10394
H_ H_ 0.413355 0.00395241 0.742747 0.10394
H_ H_ 0.0114579 0.873315 0.690882 0.10394
H_ H_ 0.0529416 0.796983 0.738819 0.10394
H_ H_ 0.414203 0.74799 0.720548 0.10394
H_ H_ 0.381403 0.824108 0.679366 0.10394
H_ H_ 0.465937 0.558039 0.640549 0.10394
H_ H_ 0.0251135 0.615508 0.62992 0.10394
H_ H_ 0.146018 0.500562 0.596806 0.10394
H_ H_ 0.439955 0.654314 0.90764 0.10394
H_ H_ 0.0212609 0.687007 0.943811 0.10394
H_ H_ 0.416756 0.783483 0.541864 0.10394
H_ H_ 0.348023 0.732955 0.0159284 0.10394
H_ H_ 0.238374 0.687476 0.891567 0.10394
H_ H_ 0.197511 0.717225 0.811555 0.10394
H_ H_ 0.34493 0.725026 0.760442 0.10394
H_ H_ 0.383182 0.689503 0.84316 0.10394
H_ H_ 0.28735 0.599298 0.553397 0.10394
H_ H_ 0.236012 0.583759 0.61987 0.10394
H_ H_ 0.103563 0.595385 0.513356 0.10394
C_ C_ 0.172895 0.578761 0.804843 0.18167
C_ C_ 0.218775 0.561309 0.7841 -0.15533
C_ C_ 0.228831 0.50946 0.769313 0.02923
C_ C_ 0.207469 0.983078 0.785363 -0.15533
C_ C_ 0.154381 0.495594 0.810032 0.18167
C_ C_ 0.0201593 0.627929 0.773675 0.18167
C_ C_ 0.505693 0.675902 0.734437 -0.15533
C_ C_ 0.00561815 0.719072 0.76304 0.02923
C_ C_ 0.0311639 0.726121 0.81338 -0.15533
C_ C_ 0.0567855 0.684168 0.837888 0.18167
C_ C_ 0.015678 0.535195 0.881944 0.69207
C_ C_ 0.482491 0.00919536 0.873201 0.02923
C_ C_ 0.506314 0.959308 0.879257 -0.15533
C_ C_ 0.476917 0.91883 0.887279 -0.15533
C_ C_ 0.423258 0.927749 0.886575 0.02923
C_ C_ 0.403679 0.978825 0.890312 -0.15533
C_ C_ 0.432802 0.0192516 0.88276 0.02923
C_ C_ 0.392558 0.565404 0.893109 0.69207
C_ C_ 0.416384 0.830164 0.89164 0.69661
C_ C_ 0.0747819 0.795329 0.598297 0.18167
C_ C_ 0.0286003 0.778841 0.579426 -0.15533
C_ C_ 0.0153876 0.774384 0.526661 0.02923
C_ C_ 0.0467991 0.792682 0.978344 -0.15533
C_ C_ 0.0932437 0.812884 0.515422 0.18167
C_ C_ 0.221047 0.766225 0.645015 0.18167
C_ C_ 0.241405 0.738089 0.687569 -0.15533
C_ C_ 0.239422 0.756974 0.738517 0.02923
C_ C_ 0.215885 0.80628 0.746025 -0.15533
C_ C_ 0.195857 0.835925 0.704306 0.18167
C_ C_ 0.243901 0.86561 0.553663 0.69207
C_ C_ 0.283832 0.866223 -0.00220448 0.02923
C_ C_ 0.271995 0.848986 0.947791 -0.15533
C_ C_ 0.299438 0.862528 0.909385 -0.15533
C_ C_ 0.345805 0.887059 0.919617 0.02923
C_ C_ 0.356604 0.903228 0.969436 -0.15533
C_ C_ 0.329324 0.889114 0.00918385 0.02923
C_ C_ 0.354746 0.886458 0.574986 0.69207
C_ C_ 0.366321 0.879653 0.825885 0.69661
C_ C_ 0.325215 0.928057 0.692666 0.18167
C_ C_ 0.281733 0.955939 0.706921 -0.15533
C_ C_ 0.287467 0.997193 0.74315 0.02923
C_ C_ 0.323029 0.506665 0.755593 -0.15533
C_ C_ 0.37756 0.987812 0.73529 0.18167
C_ C_ 0.49828 0.857861 0.711488 0.18167
C_ C_ 0.0127926 0.802851 0.724694 -0.15533
C_ C_ 0.49156 0.771373 0.733953 0.02923
C_ C_ 0.438773 0.779886 0.723154 -0.15533
C_ C_ 0.420786 0.820391 0.6961 0.18167
C_ C_ 0.492986 0.953334 0.622134 0.69207
C_ C_ 0.020614 0.48956 0.61918 0.02923
C_ C_ 1.00269065 0.541152 0.62278 -0.15533
C_ C_ 0.0342546 0.5783 0.61499 -0.15533
C_ C_ 0.0851814 0.5649 0.603164 0.02923
C_ C_ 0.103565 0.512663 0.601052 -0.15533
C_ C_ 0.0711589 0.475508 0.606642 0.02923
C_ C_ 0.099023 0.92401 0.620489 0.69207
C_ C_ 0.103473 0.659668 0.605286 0.69661
C_ C_ 0.437745 0.676851 0.942664 0.18167
C_ C_ 0.481755 0.699259 0.967386 -0.15533
C_ C_ 0.47628 0.739363 0.00755161 0.02923
C_ C_ 0.421309 0.756546 0.508779 -0.15533
C_ C_ 0.386609 0.724284 1.00243951 0.18167
C_ C_ 0.263659 0.693879 0.862946 0.18167
C_ C_ 0.239376 0.715874 0.819387 -0.15533
C_ C_ 0.267453 0.729773 0.78227 0.02923
C_ C_ 0.320494 0.715273 0.787901 -0.15533
C_ C_ 0.34435 0.693949 0.834201 0.18167
C_ C_ 0.265283 0.618007 0.967312 0.69207
C_ C_ 0.22437 0.609169 0.492547 0.02923
C_ C_ 0.244958 0.601509 0.543926 -0.15533
C_ C_ 0.216258 0.589487 0.580844 -0.15533
C_ C_ 0.163844 0.590414 0.570172 0.02923
C_ C_ 0.143092 0.596418 0.521101 -0.15533
C_ C_ 0.171636 0.603267 0.479487 0.02923
C_ C_ 0.154372 0.605951 0.928404 0.69207
C_ C_ 0.148447 0.600165 0.668211 0.69661
C_ C_ 0.386804 0.883492 0.882557 -0.30787
C_ C_ 0.12634 0.602997 0.611505 -0.30787
N_ N_ 0.140495 0.546678 0.811801 -0.32189
N_ N_ 0.0515911 0.635334 0.817047 -0.32189
N_ N_ 0.105318 0.81056 0.566538 -0.32189
N_ N_ 0.193364 0.812743 0.654427 -0.32189
N_ N_ 0.370243 0.946557 0.701475 -0.32189
N_ N_ 0.44949 0.858682 0.690541 -0.32189
N_ N_ 0.393008 0.688783 0.961881 -0.32189
N_ N_ 0.314708 0.681115 0.868188 -0.32189
O_ O_ 0.500683 0.583793 0.893736 -0.63271
O_ O_ 0.0507669 0.52251 0.853374 -0.57982
O_ O_ 0.382068 0.588184 0.850799 -0.63271
O_ O_ 0.375551 0.588984 0.933844 -0.57982
O_ O_ 0.2547 0.87665 0.602228 -0.63271
O_ O_ 0.201199 0.845482 0.540639 -0.57982
O_ O_ 0.363103 0.842381 0.593897 -0.63271
O_ O_ 0.376035 0.923554 0.600807 -0.57982
O_ O_ 0.986401 0.911791 0.593751 -0.63271
O_ O_ 0.460911 0.958859 0.656111 -0.57982
O_ O_ 0.0873472 0.892344 0.654113 -0.63271
O_ O_ 0.139836 0.909846 0.59555 -0.57982
O_ O_ 0.264117 0.597127 0.920895 -0.63271
O_ O_ 0.295291 0.653233 0.980348 -0.57982
O_ O_ 0.15165 0.649041 0.904927 -0.63271
O_ O_ 0.126269 0.570661 0.907949 -0.57982
F_ F_ 0.44788 0.830238 0.937727 -0.20885
F_ F_ 0.4427 0.812176 0.850398 -0.20885
F_ F_ 0.388259 0.790852 0.899763 -0.20885
F_ F_ 0.322631 0.914588 0.820627 -0.20885
F_ F_ 0.352871 0.831868 0.810137 -0.20885
F_ F_ 0.401378 0.888517 0.791675 -0.20885
F_ F_ 0.0601817 0.666087 0.569083 -0.20885
F_ F_ 0.0808376 0.679916 0.64734 -0.20885
F_ F_ 0.1383 0.694269 0.595936 -0.20885
F_ F_ 0.180544 0.555753 0.674048 -0.20885
F_ F_ 0.180671 0.636688 0.684154 -0.20885
F_ F_ 0.106518 0.601047 0.700262 -0.20885
Zn Zn 0.58858 0.0884 0.357337 0.83971
Zn Zn 0.658414 0.348331 0.0795917 0.83971
Zn Zn 0.908397 0.407349 0.160769 0.83971
Zn Zn 0.837161 0.157695 0.41412 0.83971
H_ H_ 0.662145 0.132994 0.301003 0.10394
H_ H_ 0.745516 0.0971611 0.275303 0.10394
H_ H_ 0.709498 0.444049 0.290291 0.10394
H_ H_ 0.629215 0.984815 0.326209 0.10394
H_ H_ 0.0360282 0.0920122 0.250966 0.10394
H_ H_ 1.00434614 0.171201 0.202192 0.10394
H_ H_ 0.528695 0.273303 0.340621 0.10394
H_ H_ 0.554725 0.198105 0.388501 0.10394
H_ H_ 0.527978 0.457628 0.365937 0.10394
H_ H_ 0.966297 0.381202 0.364384 0.10394
H_ H_ 0.844376 0.495233 0.403677 0.10394
H_ H_ 0.581208 0.299755 0.13405 0.10394
H_ H_ 0.993531 0.268171 0.0891172 0.10394
H_ H_ 0.542825 0.274511 0.443707 0.10394
H_ H_ 0.616938 0.310903 0.983006 0.10394
H_ H_ 0.730973 0.264218 0.094087 0.10394
H_ H_ 0.775074 0.222814 0.167787 0.10394
H_ H_ 0.69834 0.33578 0.268596 0.10394
H_ H_ 0.669704 0.386232 0.19142 0.10394
H_ H_ 0.712401 0.36492 0.450379 0.10394
H_ H_ 0.756828 0.394606 0.383232 0.10394
H_ H_ 0.886361 0.419849 0.485995 0.10394
H_ H_ 0.807837 0.39025 0.170972 0.10394
H_ H_ 0.734115 0.435122 0.201351 0.10394
H_ H_ 0.825028 0.0526161 0.275421 0.10394
H_ H_ 0.900245 0.501629 0.231997 0.10394
H_ H_ 0.512289 0.38516 0.186838 0.10394
H_ H_ 0.560372 0.309532 0.230229 0.10394
H_ H_ 0.920202 0.237274 0.219082 0.10394
H_ H_ 0.878568 0.314121 0.190721 0.10394
H_ H_ 0.965409 0.0539709 0.123153 0.10394
H_ H_ 0.527228 0.126603 0.111249 0.10394
H_ H_ 0.650492 0.0100094 0.0990072 0.10394
H_ H_ 0.941627 0.161544 0.394073 0.10394
H_ H_ 0.519604 0.169337 0.481921 0.10394
H_ H_ 0.910719 0.286562 0.0348913 0.10394
H_ H_ 0.843806 0.239598 0.493547 0.10394
H_ H_ 0.736174 0.197312 0.383262 0.10394
H_ H_ 0.694401 0.244574 0.302479 0.10394
H_ H_ 0.844279 0.241116 0.253047 0.10394
H_ H_ 0.877594 0.191257 0.321241 0.10394
H_ H_ 0.793279 0.110612 0.0503728 0.10394
H_ H_ 0.735273 0.1078 0.117788 0.10394
H_ H_ 0.608116 0.0951844 0.00891055 0.10394
C_ C_ 0.676264 0.0940125 0.310926 0.18167
C_ C_ 0.71883 0.073293 0.286109 -0.15533
C_ C_ 0.726449 0.0211318 0.269496 0.02923
C_ C_ 0.699636 0.485009 0.291513 -0.15533
C_ C_ 0.653894 0.0101611 0.314634 0.18167
C_ C_ 0.553232 0.145003 0.27354 0.18167
C_ C_ 0.0203079 0.173714 0.240623 -0.15533
C_ C_ 0.517406 0.231829 0.268494 0.02923
C_ C_ 0.532418 0.237581 0.319716 -0.15533
C_ C_ 0.548129 0.194695 0.34743 0.18167
C_ C_ 0.502408 0.0524731 0.370551 0.69207
C_ C_ 0.964268 0.511273 0.370161 0.02923
C_ C_ 0.980363 0.457292 0.360426 -0.15533
C_ C_ 0.951369 0.42017 0.369555 -0.15533
C_ C_ 0.902425 0.431654 0.386629 0.02923
C_ C_ 0.884856 0.48393 0.394986 -0.15533
C_ C_ 0.913237 0.524621 0.384934 0.02923
C_ C_ 0.896709 0.0725665 0.384118 0.69207
C_ C_ 0.891149 0.334017 0.387473 0.69661
C_ C_ 0.571795 0.299105 0.0943212 0.18167
C_ C_ 0.525629 0.280945 0.0774143 -0.15533
C_ C_ 0.508455 0.281998 0.0243212 0.02923
C_ C_ 0.553549 0.279281 0.483339 -0.15533
C_ C_ 0.592869 0.301326 0.0103537 0.18167
C_ C_ 0.726982 0.281662 0.135454 0.18167
C_ C_ 0.747776 0.253783 0.176681 -0.15533
C_ C_ 0.739421 0.274024 0.227846 0.02923
C_ C_ 0.709652 0.322467 0.231263 -0.15533
C_ C_ 0.691035 0.348828 0.188978 0.18167
C_ C_ 0.741878 0.368111 0.0449424 0.69207
C_ C_ 0.77537 0.376741 0.508239 0.02923
C_ C_ 0.750694 0.377199 0.458553 -0.15533
C_ C_ 0.77762 0.391412 0.419581 -0.15533
C_ C_ 0.829586 0.39625 0.426582 0.02923
C_ C_ 0.850512 0.401778 0.478981 -0.15533
C_ C_ 0.825236 0.390611 0.520993 0.02923
C_ C_ 0.85332 0.37926 0.0751834 0.69207
C_ C_ 0.839316 0.388933 0.329264 0.69661
C_ C_ 0.813444 0.42432 0.193049 0.18167
C_ C_ 0.770034 0.450686 0.210576 -0.15533
C_ C_ 0.776137 0.492609 0.246461 0.02923
C_ C_ 0.819805 0.0195299 0.251819 -0.15533
C_ C_ 0.866271 0.484161 0.233607 0.18167
C_ C_ 0.994679 0.355979 0.210402 0.18167
C_ C_ 0.519048 0.315205 0.222667 -0.15533
C_ C_ 0.994159 0.267036 0.234922 0.02923
C_ C_ 0.943677 0.268456 0.214551 -0.15533
C_ C_ 0.917918 0.315649 0.202144 0.18167
C_ C_ 0.985682 0.446493 0.124163 0.69207
C_ C_ 0.523705 0.998817 0.115849 0.02923
C_ C_ 0.505853 0.0497603 0.111628 -0.15533
C_ C_ 0.540746 0.0846948 0.110792 -0.15533
C_ C_ 0.593228 0.0717803 0.10833 0.02923
C_ C_ 0.610618 0.0210362 0.106102 -0.15533
C_ C_ 0.576012 0.984129 0.112167 0.02923
C_ C_ 0.586273 0.427013 0.102498 0.69207
C_ C_ 0.610168 0.169552 0.103654 0.69661
C_ C_ 0.939374 0.180259 0.428839 0.18167
C_ C_ 0.981167 0.203269 0.456063 -0.15533
C_ C_ 0.972403 0.241767 0.495884 0.02923
C_ C_ 0.922795 0.249423 0.0122352 -0.15533
C_ C_ 0.881979 0.229132 0.481554 0.18167
C_ C_ 0.756624 0.202939 0.351061 0.18167
C_ C_ 0.73313 0.228908 0.306598 -0.15533
C_ C_ 0.763746 0.244681 0.270712 0.02923
C_ C_ 0.816231 0.225352 0.274103 -0.15533
C_ C_ 0.836702 0.199516 0.316932 0.18167
C_ C_ 0.762095 0.125216 0.455673 0.69207
C_ C_ 0.731253 0.106622 0.988798 0.02923
C_ C_ 0.751295 0.1084 0.0408295 -0.15533
C_ C_ 0.720364 0.103331 0.0798686 -0.15533
C_ C_ 0.668087 0.100599 0.0681228 0.02923
C_ C_ 0.648311 0.0945132 0.0170744 -0.15533
C_ C_ 0.679252 0.0978787 0.975895 0.02923
C_ C_ 0.648551 0.120055 0.435454 0.69207
C_ C_ 0.655593 0.112339 0.164753 0.69661
C_ C_ 0.865807 0.389737 0.383456 -0.30787
C_ C_ 0.63085 0.112386 0.109153 -0.30787
N_ N_ 0.644295 0.0612654 0.322482 -0.32189
N_ N_ 0.55712 0.147937 0.324035 -0.32189
N_ N_ 0.60709 0.305399 0.0607179 -0.32189
N_ N_ 0.692794 0.323951 0.142463 -0.32189
N_ N_ 0.859866 0.440908 0.203278 -0.32189
N_ N_ 0.943786 0.35657 0.198353 -0.32189
N_ N_ 0.891326 0.192784 0.445022 -0.32189
N_ N_ 0.806399 0.18883 0.354505 -0.32189
O_ O_ 0.00358282 0.0902318 0.389921 -0.63271
O_ O_ 0.544633 0.0392511 0.349244 -0.57982
O_ O_ 0.894027 0.100848 0.341434 -0.63271
O_ O_ 0.868685 0.0920928 0.421408 -0.57982
O_ O_ 0.742901 0.39706 0.0886188 -0.63271
O_ O_ 0.70467 0.338779 0.0343495 -0.57982
O_ O_ 0.854257 0.339475 0.101259 -0.63271
O_ O_ 0.879069 0.416952 0.0955074 -0.57982
O_ O_ 0.479262 0.413995 0.0845653 -0.63271
O_ O_ 0.954599 0.454338 0.16014 -0.57982
O_ O_ 0.580089 0.402628 0.142831 -0.63271
O_ O_ 0.621181 0.407317 0.0755887 -0.57982
O_ O_ 0.759718 0.0986507 0.412874 -0.63271
O_ O_ 0.794044 0.16026 0.462213 -0.57982
O_ O_ 0.654887 0.155225 0.405073 -0.63271
O_ O_ 0.614234 0.0910289 0.420485 -0.57982
F_ F_ 0.921111 0.332095 0.430466 -0.20885
F_ F_ 0.916634 0.314793 0.347932 -0.20885
F_ F_ 0.858848 0.294724 0.391063 -0.20885
F_ F_ 0.810298 0.434822 0.323721 -0.20885
F_ F_ 0.804727 0.354019 0.315113 -0.20885
F_ F_ 0.874707 0.387529 0.293549 -0.20885
F_ F_ 0.571688 0.168202 0.0631016 -0.20885
F_ F_ 0.586322 0.191184 0.145081 -0.20885
F_ F_ 0.645445 0.200102 0.0895651 -0.20885
F_ F_ 0.686666 0.0663064 0.17164 -0.20885
F_ F_ 0.682941 0.152672 0.179031 -0.20885
F_ F_ 0.624313 0.113361 0.202943 -0.20885
Zn Zn 0.592664 0.0858705 0.843945 0.83971
Zn Zn 0.661526 0.349721 0.583902 0.83971
Zn Zn 0.903663 0.418236 0.653953 0.83971
Zn Zn 0.839901 0.153405 0.910759 0.83971
H_ H_ 0.676809 0.131368 0.812334 0.10394
H_ H_ 0.754496 0.0956343 0.766911 0.10394
H_ H_ 0.705453 0.444589 0.801652 0.10394
H_ H_ 0.642966 0.981241 0.831529 0.10394
H_ H_ 0.0283367 0.0963549 0.751611 0.10394
H_ H_ 0.972122 0.165045 0.711584 0.10394
H_ H_ 0.524646 0.269269 0.833318 0.10394
H_ H_ 0.573765 0.200321 0.879874 0.10394
H_ H_ 0.525705 0.438884 0.863019 0.10394
H_ H_ 0.983246 0.36814 0.878664 0.10394
H_ H_ 0.860049 0.479925 0.914296 0.10394
H_ H_ 0.589446 0.300475 0.628452 0.10394
H_ H_ -0.00583800000000001 0.273627 0.599053 0.10394
H_ H_ 0.530945 0.303332 0.949788 0.10394
H_ H_ 0.626113 0.308582 0.475635 0.10394
H_ H_ 0.717834 0.253848 0.600776 0.10394
H_ H_ 0.758101 0.209906 0.679138 0.10394
H_ H_ 0.718259 0.345418 0.769268 0.10394
H_ H_ 0.660014 0.380319 0.697881 0.10394
H_ H_ 0.717666 0.386338 0.948209 0.10394
H_ H_ 0.776746 0.366078 0.876497 0.10394
H_ H_ 0.903122 0.396374 0.990392 0.10394
H_ H_ 0.80527 0.384042 0.677953 0.10394
H_ H_ 0.731552 0.429727 0.709496 0.10394
H_ H_ 0.838993 0.0402812 0.776068 0.10394
H_ H_ 0.88966 0.511168 0.724549 0.10394
H_ H_ 0.516776 0.376666 0.68783 0.10394
H_ H_ 0.552112 0.305182 0.738682 0.10394
H_ H_ 0.907021 0.245662 0.725948 0.10394
H_ H_ 0.868133 0.320716 0.677503 0.10394
H_ H_ 0.958882 0.0477244 0.613355 0.10394
H_ H_ 0.520034 0.124752 0.61399 0.10394
H_ H_ 0.646913 0.00723561 0.587091 0.10394
H_ H_ 0.933395 0.164664 0.88963 0.10394
H_ H_ 0.517456 0.2033 0.950317 0.10394
H_ H_ 0.915976 0.288488 0.532794 0.10394
H_ H_ 0.84458 0.231121 0.00131984 0.10394
H_ H_ 0.742953 0.210096 0.895083 0.10394
H_ H_ 0.697136 0.262627 0.824892 0.10394
H_ H_ 0.835684 0.236305 0.748299 0.10394
H_ H_ 0.877639 0.20027 0.820986 0.10394
H_ H_ 0.793979 0.121141 0.555758 0.10394
H_ H_ 0.74223 0.117501 0.625428 0.10394
H_ H_ 0.607334 0.10088 0.520177 0.10394
C_ C_ 0.683788 0.0907853 0.802451 0.18167
C_ C_ 0.730048 0.0704135 0.783125 -0.15533
C_ C_ 0.741241 0.0164521 0.777615 0.02923
C_ C_ 0.694046 0.484088 0.790318 -0.15533
C_ C_ 0.665011 0.00670431 0.817827 0.18167
C_ C_ 0.534914 0.136358 0.771712 0.18167
C_ C_ -0.000899351 0.17406 0.747141 -0.15533
C_ C_ 0.508966 0.224801 0.76532 0.02923
C_ C_ 0.537054 0.233714 0.813518 -0.15533
C_ C_ 0.558127 0.192748 0.842327 0.18167
C_ C_ 0.515064 0.0477835 0.860684 0.69207
C_ C_ 0.979493 0.497597 0.888143 0.02923
C_ C_ 1.000551652 0.446911 0.884819 -0.15533
C_ C_ 0.969046 0.407392 0.888279 -0.15533
C_ C_ 0.918162 0.418558 0.899384 0.02923
C_ C_ 0.899782 0.46915 0.907714 -0.15533
C_ C_ 0.927835 0.509984 0.897061 0.02923
C_ C_ 0.895005 0.0735345 0.878472 0.69207
C_ C_ 0.904777 0.321799 0.884929 0.69661
C_ C_ 0.575518 0.300175 0.586162 0.18167
C_ C_ 0.52738 0.282334 0.567544 -0.15533
C_ C_ 0.515887 0.270314 0.51519 0.02923
C_ C_ 0.540281 0.301834 0.993104 -0.15533
C_ C_ 0.596618 0.303708 0.50225 0.18167
C_ C_ 0.715345 0.273127 0.639305 0.18167
C_ C_ 0.737903 0.247146 0.682257 -0.15533
C_ C_ 0.736743 0.272302 0.731363 0.02923
C_ C_ 0.710697 0.321396 0.735801 -0.15533
C_ C_ 0.684746 0.34552 0.692387 0.18167
C_ C_ 0.744209 0.363602 0.549152 0.69207
C_ C_ 0.779777 0.374135 1.00673186 0.02923
C_ C_ 0.759233 0.376608 0.954343 -0.15533
C_ C_ 0.791995 0.371498 0.915814 -0.15533
C_ C_ 0.843771 0.381295 0.926409 0.02923
C_ C_ 0.861247 0.38989 0.9803 -0.15533
C_ C_ 0.831648 0.377042 0.0203872 0.02923
C_ C_ 0.852171 0.388302 0.573069 0.69207
C_ C_ 0.856112 0.391415 0.831075 0.69661
C_ C_ 0.806442 0.423152 0.692859 0.18167
C_ C_ 0.764178 0.449177 0.71323 -0.15533
C_ C_ 0.766342 0.496644 0.740309 0.02923
C_ C_ 0.831319 0.00802586 0.749281 -0.15533
C_ C_ 0.855077 0.491504 0.722196 0.18167
C_ C_ 0.986562 0.350684 0.695315 0.18167
C_ C_ 0.514279 0.308442 0.726503 -0.15533
C_ C_ 0.980898 0.271103 0.736346 0.02923
C_ C_ 0.927654 0.278107 0.722883 -0.15533
C_ C_ 0.906089 0.319625 0.693854 0.18167
C_ C_ 0.983316 0.452016 0.624683 0.69207
C_ C_ 0.526963 0.995263 0.61747 0.02923
C_ C_ 0.508328 0.0469503 0.62685 -0.15533
C_ C_ 0.537732 0.0854374 0.617466 -0.15533
C_ C_ 0.589133 0.0723015 0.605588 0.02923
C_ C_ 0.608113 0.0201927 0.594008 -0.15533
C_ C_ 0.579208 0.981606 0.608459 0.02923
C_ C_ 0.59378 0.427201 0.599417 0.69207
C_ C_ 0.607684 0.167106 0.617577 0.69661
C_ C_ 0.932958 0.179778 0.929173 0.18167
C_ C_ 0.974866 0.204046 0.953021 -0.15533
C_ C_ 0.970556 0.238063 -0.005036999999999958 0.02923
C_ C_ 0.921815 0.258364 0.506522 -0.15533
C_ C_ 0.88264 0.222863 0.990446 0.18167
C_ C_ 0.760384 0.209401 0.859391 0.18167
C_ C_ 0.733099 0.238047 0.818155 -0.15533
C_ C_ 0.76054 0.245833 0.777232 0.02923
C_ C_ 0.81344 0.22782 0.777963 -0.15533
C_ C_ 0.837524 0.207244 0.820889 0.18167
C_ C_ 0.766918 0.118206 0.949142 0.69207
C_ C_ 0.72879 0.118944 0.496075 0.02923
C_ C_ 0.751902 0.121464 0.547998 -0.15533
C_ C_ 0.720642 0.120463 0.587852 -0.15533
C_ C_ 0.669103 0.108078 0.577536 0.02923
C_ C_ 0.648969 0.10642 0.526351 -0.15533
C_ C_ 0.67682 0.114577 0.485627 0.02923
C_ C_ 0.653866 0.10573 0.923566 0.69207
C_ C_ 0.653335 0.0984094 0.6702 0.69661
C_ C_ 0.882381 0.377587 0.886496 -0.30787
C_ C_ 0.629893 0.110432 0.618662 -0.30787
N_ N_ 0.65043 0.0580177 0.81589 -0.32189
N_ N_ 0.561742 0.146314 0.818014 -0.32189
N_ N_ 0.606389 0.313155 0.553363 -0.32189
N_ N_ 0.691512 0.322485 0.646141 -0.32189
N_ N_ 0.850403 0.447618 0.693074 -0.32189
N_ N_ 0.934515 0.35767 0.683992 -0.32189
N_ N_ 0.889516 0.188609 0.949104 -0.32189
N_ N_ 0.81038 0.192423 0.857619 -0.32189
O_ O_ 0.000106219 0.0977667 0.887585 -0.63271
O_ O_ 0.548582 0.0392216 0.827652 -0.57982
O_ O_ 0.889633 0.0991948 0.836942 -0.63271
O_ O_ 0.868609 0.0892513 0.915034 -0.57982
O_ O_ 0.742669 0.394835 0.58958 -0.63271
O_ O_ 0.707657 0.33554 0.539107 -0.57982
O_ O_ 0.858664 0.34286 0.595398 -0.63271
O_ O_ 0.874219 0.42681 0.59127 -0.57982
O_ O_ 0.484786 0.414725 0.593717 -0.63271
O_ O_ 0.94709 0.465517 0.653659 -0.57982
O_ O_ 0.583537 0.399516 0.636916 -0.63271
O_ O_ 0.637563 0.417273 0.580117 -0.57982
O_ O_ 0.762567 0.0972065 0.902913 -0.63271
O_ O_ 0.794419 0.155932 0.958078 -0.57982
O_ O_ 0.656458 0.149597 0.901629 -0.63271
O_ O_ 0.6146 0.0807473 0.909896 -0.57982
F_ F_ 0.938917 0.315505 0.927767 -0.20885
F_ F_ 0.923434 0.306051 0.838031 -0.20885
F_ F_ 0.869026 0.289198 0.889379 -0.20885
F_ F_ 0.825457 0.437075 0.829684 -0.20885
F_ F_ 0.828969 0.35437 0.80797 -0.20885
F_ F_ 0.893449 0.396146 0.800226 -0.20885
F_ F_ 0.579098 0.176607 0.572585 -0.20885
F_ F_ 0.580011 0.183692 0.658642 -0.20885
F_ F_ 0.644865 0.20003 0.622533 -0.20885
F_ F_ 0.682297 0.0523588 0.673249 -0.20885
F_ F_ 0.685947 0.132154 0.691193 -0.20885
F_ F_ 0.61599 0.100748 0.70361 -0.20885
Zn Zn 0.58286 0.589345 0.337433 0.83971
Zn Zn 0.661545 0.84701 0.0863648 0.83971
Zn Zn 0.9111 0.923306 0.154271 0.83971
Zn Zn 0.838953 0.664702 0.4192 0.83971
H_ H_ 0.666916 0.628966 0.298224 0.10394
H_ H_ 0.749613 0.591815 0.272027 0.10394
H_ H_ 0.702206 0.948334 0.284417 0.10394
H_ H_ 0.633081 0.483094 0.331267 0.10394
H_ H_ 0.0152907 0.600405 0.254601 0.10394
H_ H_ 0.997297 0.674864 0.196695 0.10394
H_ H_ 0.509839 0.768158 0.327161 0.10394
H_ H_ 0.554902 0.691349 0.369677 0.10394
H_ H_ 0.532486 0.954807 0.382716 0.10394
H_ H_ 0.977361 0.876509 0.365927 0.10394
H_ H_ 0.851207 0.990742 0.395435 0.10394
H_ H_ 0.5909 0.80533 0.139305 0.10394
H_ H_ 1.00159628 0.776554 0.0918476 0.10394
H_ H_ 0.541013 0.78501 0.439347 0.10394
H_ H_ 0.618135 0.820844 0.985375 0.10394
H_ H_ 0.718832 0.752802 0.102378 0.10394
H_ H_ 0.755666 0.706215 0.177824 0.10394
H_ H_ 0.711935 0.841671 0.271184 0.10394
H_ H_ 0.674919 0.886227 0.192487 0.10394
H_ H_ 0.719478 0.865786 0.440594 0.10394
H_ H_ 0.766406 0.89725 0.377346 0.10394
H_ H_ 0.897606 0.895503 0.485742 0.10394
H_ H_ 0.812103 0.897245 0.163435 0.10394
H_ H_ 0.734189 0.938223 0.200636 0.10394
H_ H_ 0.827226 0.543838 0.281845 0.10394
H_ H_ 0.901126 1.0101623 0.23623 0.10394
H_ H_ 0.511937 0.880322 0.184724 0.10394
H_ H_ 0.546271 0.804792 0.24001 0.10394
H_ H_ 0.908927 0.747656 0.219557 0.10394
H_ H_ 0.869656 0.827468 0.181032 0.10394
H_ H_ 0.964 0.548275 0.13919 0.10394
H_ H_ 0.520572 0.622755 0.118238 0.10394
H_ H_ 0.637676 0.505149 0.0943342 0.10394
H_ H_ 0.942311 0.667126 0.403172 0.10394
H_ H_ 0.510944 0.695184 0.44053 0.10394
H_ H_ 0.916955 0.766428 0.0454629 0.10394
H_ H_ 0.843551 0.742355 0.507655 0.10394
H_ H_ 0.731582 0.706479 0.388384 0.10394
H_ H_ 0.687566 0.751708 0.316229 0.10394
H_ H_ 0.833845 0.73497 0.255885 0.10394
H_ H_ 0.870777 0.694797 0.330621 0.10394
H_ H_ 0.784277 0.611969 0.0472303 0.10394
H_ H_ 0.733136 0.59615 0.112372 0.10394
H_ H_ 0.60572 0.588882 0.000279938 0.10394
C_ C_ 0.674304 0.588284 0.293664 0.18167
C_ C_ 0.720385 0.568587 0.275924 -0.15533
C_ C_ 0.733621 0.515774 0.275611 0.02923
C_ C_ 0.693628 0.989565 0.287043 -0.15533
C_ C_ 0.656765 0.505496 0.312209 0.18167
C_ C_ 0.513125 0.633587 0.26125 0.18167
C_ C_ 0.00370212 0.68335 0.238635 -0.15533
C_ C_ 0.489403 0.724097 0.258005 0.02923
C_ C_ 0.51356 0.730068 0.308302 -0.15533
C_ C_ 0.541875 0.68764 0.33048 0.18167
C_ C_ 0.497902 0.556456 0.360286 0.69207
C_ C_ 0.973305 0.00653318 0.375492 0.02923
C_ C_ -0.00906499999999999 0.954292 0.370162 -0.15533
C_ C_ 0.96005 0.915897 0.372085 -0.15533
C_ C_ 0.90991 0.929712 0.390703 0.02923
C_ C_ 0.892916 0.981601 0.39697 -0.15533
C_ C_ 0.923316 0.0205174 0.386837 0.02923
C_ C_ 0.888404 0.577066 0.384713 0.69207
C_ C_ 0.899035 0.828854 0.383827 0.69661
C_ C_ 0.57888 0.799022 0.0967547 0.18167
C_ C_ 0.529749 0.785724 0.0775503 -0.15533
C_ C_ 0.521308 0.770322 0.0257605 0.02923
C_ C_ 0.548995 0.785586 0.481171 -0.15533
C_ C_ 0.598497 0.803789 0.0112304 0.18167
C_ C_ 0.718672 0.770684 0.139739 0.18167
C_ C_ 0.738838 0.746826 0.182144 -0.15533
C_ C_ 0.73261 0.771209 0.228613 0.02923
C_ C_ 0.710467 0.820544 0.23324 -0.15533
C_ C_ 0.692164 0.845736 0.187949 0.18167
C_ C_ 0.742853 0.869783 0.0456265 0.69207
C_ C_ 0.779767 0.871904 0.504645 0.02923
C_ C_ 0.756395 0.876981 0.45308 -0.15533
C_ C_ 0.784681 0.886771 0.415134 -0.15533
C_ C_ 0.838235 0.891463 0.424934 0.02923
C_ C_ 0.859671 0.890896 0.474845 -0.15533
C_ C_ 0.831116 0.883356 0.515723 0.02923
C_ C_ 0.855782 0.891525 0.0689919 0.69207
C_ C_ 0.848055 0.890217 0.330479 0.69661
C_ C_ 0.814261 0.932356 0.187152 0.18167
C_ C_ 0.770164 0.955163 0.208304 -0.15533
C_ C_ 0.772869 0.997816 0.243096 0.02923
C_ C_ 0.824314 0.511409 0.257095 -0.15533
C_ C_ 0.86161 0.998974 0.22521 0.18167
C_ C_ 0.99044 0.858278 0.197747 0.18167
C_ C_ 0.504928 0.81148 0.227855 -0.15533
C_ C_ 0.987312 0.776236 0.233951 0.02923
C_ C_ 0.934149 0.779293 0.218779 -0.15533
C_ C_ 0.910177 0.821916 0.192127 0.18167
C_ C_ 0.992254 0.955299 0.119866 0.69207
C_ C_ 0.511555 0.495344 0.104003 0.02923
C_ C_ 0.495565 0.547803 0.106461 -0.15533
C_ C_ 0.531174 0.584025 0.107385 -0.15533
C_ C_ 0.581489 0.570437 0.0932954 0.02923
C_ C_ 0.597366 0.517356 0.0957439 -0.15533
C_ C_ 0.564674 0.480192 0.099091 0.02923
C_ C_ 0.596536 0.93173 0.115368 0.69207
C_ C_ 0.606721 0.665443 0.0972493 0.69661
C_ C_ 0.936381 0.689005 0.43756 0.18167
C_ C_ 0.978878 0.707498 0.467655 -0.15533
C_ C_ 0.971887 0.746283 0.506486 0.02923
C_ C_ 0.926066 0.742384 1.0132415 -0.15533
C_ C_ 0.882236 0.735187 0.492848 0.18167
C_ C_ 0.753051 0.71469 0.360037 0.18167
C_ C_ 0.728045 0.737249 0.31702 -0.15533
C_ C_ 0.756094 0.746964 0.277441 0.02923
C_ C_ 0.807416 0.734889 0.282939 -0.15533
C_ C_ 0.831673 0.707243 0.326395 0.18167
C_ C_ 0.756724 0.629445 0.449417 0.69207
C_ C_ 0.725129 0.61656 0.983847 0.02923
C_ C_ 0.744473 0.613662 0.036399 -0.15533
C_ C_ 0.715387 0.604643 0.0753001 -0.15533
C_ C_ 0.664299 0.596024 0.0621303 0.02923
C_ C_ 0.645201 0.595983 0.0094406 -0.15533
C_ C_ 0.675332 0.604389 0.971585 0.02923
C_ C_ 0.649407 0.609749 0.415128 0.69207
C_ C_ 0.646304 0.607118 0.16171 0.69661
C_ C_ 0.873755 0.886025 0.383094 -0.30787
C_ C_ 0.624573 0.608589 0.102404 -0.30787
N_ N_ 0.640664 0.555922 0.305257 -0.32189
N_ N_ 0.544246 0.641814 0.304551 -0.32189
N_ N_ 0.610715 0.807339 0.0626558 -0.32189
N_ N_ 0.69264 0.818526 0.142943 -0.32189
N_ N_ 0.85807 0.956085 0.192778 -0.32189
N_ N_ 0.93971 0.860879 0.184519 -0.32189
N_ N_ 0.889406 0.700831 0.451465 -0.32189
N_ N_ 0.80422 0.701124 0.36483 -0.32189
O_ O_ -0.006182000000000021 0.594838 0.390269 -0.63271
O_ O_ 0.536467 0.54404 0.3318 -0.57982
O_ O_ 0.887509 0.600084 0.341929 -0.63271
O_ O_ 0.863504 0.599819 0.419292 -0.57982
O_ O_ 0.751314 0.891965 0.0895809 -0.63271
O_ O_ 0.702401 0.845147 0.0341828 -0.57982
O_ O_ 0.858211 0.846647 0.0914097 -0.63271
O_ O_ 0.884844 0.925899 0.0868069 -0.57982
O_ O_ 0.488348 0.918382 0.0916983 -0.63271
O_ O_ 0.959768 0.966285 0.154511 -0.57982
O_ O_ 0.593086 0.905878 0.156776 -0.63271
O_ O_ 0.632306 0.914994 0.0870742 -0.57982
O_ O_ 0.758229 0.604403 0.404813 -0.63271
O_ O_ 0.792317 0.658693 0.464864 -0.57982
O_ O_ 0.654533 0.650352 0.39086 -0.63271
O_ O_ 0.609132 0.586835 0.400685 -0.57982
F_ F_ 0.935071 0.82119 0.423878 -0.20885
F_ F_ 0.923442 0.81022 0.339596 -0.20885
F_ F_ 0.865059 0.792147 0.385551 -0.20885
F_ F_ 0.822934 0.939296 0.321442 -0.20885
F_ F_ 0.813073 0.856944 0.316286 -0.20885
F_ F_ 0.880132 0.885577 0.292315 -0.20885
F_ F_ 0.581765 0.67798 0.0509569 -0.20885
F_ F_ 0.574658 0.686276 0.1331 -0.20885
F_ F_ 0.647128 0.695114 0.105458 -0.20885
F_ F_ 0.669941 0.560392 0.170196 -0.20885
F_ F_ 0.678399 0.643668 0.183086 -0.20885
F_ F_ 0.608363 0.607587 0.194251 -0.20885
Zn Zn 0.578481 0.578671 0.838233 0.83971
Zn Zn 0.660442 0.843749 0.5827 0.83971
Zn Zn 0.910394 0.907741 0.65272 0.83971
Zn Zn 0.840483 0.644723 0.913056 0.83971
H_ H_ 0.65238 0.627945 0.797463 0.10394
H_ H_ 0.72861 0.600805 0.758617 0.10394
H_ H_ 0.718212 0.945565 0.792192 0.10394
H_ H_ 0.619439 0.479644 0.811197 0.10394
H_ H_ 0.0160711 0.589266 0.758643 0.10394
H_ H_ 0.979247 0.66106 0.708675 0.10394
H_ H_ 0.539572 0.766581 0.829651 0.10394
H_ H_ 0.567244 0.687818 0.872342 0.10394
H_ H_ 0.546981 0.950818 0.881619 0.10394
H_ H_ 0.987305 0.888603 0.908179 0.10394
H_ H_ 0.850709 0.989473 0.88987 0.10394
H_ H_ 0.574431 0.808714 0.628411 0.10394
H_ H_ 0.00387513 0.768472 0.609079 0.10394
H_ H_ 0.545559 0.775509 0.949148 0.10394
H_ H_ 0.618677 0.818741 0.479214 0.10394
H_ H_ 0.704756 0.732917 0.59323 0.10394
H_ H_ 0.743574 0.687428 0.670496 0.10394
H_ H_ 0.723103 0.827407 0.76089 0.10394
H_ H_ 0.683655 0.870519 0.682776 0.10394
H_ H_ 0.723016 0.850864 0.942413 0.10394
H_ H_ 0.779225 0.864212 0.875633 0.10394
H_ H_ 0.893219 0.919444 0.988469 0.10394
H_ H_ 0.803255 0.891465 0.664194 0.10394
H_ H_ 0.730859 0.943831 0.695865 0.10394
H_ H_ 0.82367 0.5437 0.775599 0.10394
H_ H_ 0.905145 0.99912 0.722881 0.10394
H_ H_ 0.518699 0.891493 0.709566 0.10394
H_ H_ 0.561854 0.808684 0.748984 0.10394
H_ H_ 0.902984 0.747256 0.73645 0.10394
H_ H_ 0.870092 0.821492 0.684861 0.10394
H_ H_ 0.962199 0.552979 0.629481 0.10394
H_ H_ 0.509296 0.623304 0.606388 0.10394
H_ H_ 0.635545 0.509902 0.578754 0.10394
H_ H_ 0.950648 0.657102 0.894417 0.10394
H_ H_ 0.519999 0.691316 0.952747 0.10394
H_ H_ 0.916199 0.786722 0.550383 0.10394
H_ H_ 0.851376 0.711562 1.00681518 0.10394
H_ H_ 0.757721 0.7157 0.893425 0.10394
H_ H_ 0.711182 0.756273 0.818401 0.10394
H_ H_ 0.831188 0.6951 0.728116 0.10394
H_ H_ 0.880161 0.65735 0.802812 0.10394
H_ H_ 0.78204 0.609617 0.550449 0.10394
H_ H_ 0.720699 0.607891 0.613134 0.10394
H_ H_ 0.599392 0.591184 0.496486 0.10394
C_ C_ 0.665017 0.588457 0.794583 0.18167
C_ C_ 0.708161 0.571686 0.772988 -0.15533
C_ C_ 0.724653 0.517211 0.770304 0.02923
C_ C_ 0.707874 0.985039 0.795222 -0.15533
C_ C_ 0.646196 0.50429 0.804441 0.18167
C_ C_ 0.526953 0.632111 0.761202 0.18167
C_ C_ 0.0001500000000000945 0.667686 0.744798 -0.15533
C_ C_ 0.510193 0.724294 0.759489 0.02923
C_ C_ 0.537594 0.730001 0.80858 -0.15533
C_ C_ 0.554624 0.68534 0.833225 0.18167
C_ C_ 0.503478 0.539176 0.867484 0.69207
C_ C_ 0.975473 0.0117766 0.8821 0.02923
C_ C_ -0.0025479999999999947 0.962854 0.89616 -0.15533
C_ C_ 0.966063 0.925647 0.898964 -0.15533
C_ C_ 0.912522 0.933423 0.896299 0.02923
C_ C_ 0.890927 0.983754 0.891489 -0.15533
C_ C_ 0.92084 0.0222614 0.880206 0.02923
C_ C_ 0.904274 0.562422 0.891902 0.69207
C_ C_ 0.908663 0.835448 0.893748 0.69661
C_ C_ 0.566978 0.805725 0.585222 0.18167
C_ C_ 0.524612 0.780383 0.565967 -0.15533
C_ C_ 0.51263 0.77367 0.513858 0.02923
C_ C_ 0.553249 0.782665 0.991369 -0.15533
C_ C_ 0.595184 0.802652 0.501676 0.18167
C_ C_ 0.712639 0.75306 0.629163 0.18167
C_ C_ 0.733852 0.72749 0.672612 -0.15533
C_ C_ 0.74143 0.754962 0.720224 0.02923
C_ C_ 0.721305 0.806192 0.723465 -0.15533
C_ C_ 0.700925 0.830736 0.678533 0.18167
C_ C_ 0.746153 0.862704 0.547185 0.69207
C_ C_ 0.775386 0.880366 1.00408933 0.02923
C_ C_ 0.759921 0.869644 0.951903 -0.15533
C_ C_ 0.79183 0.873279 0.913431 -0.15533
C_ C_ 0.838326 0.892848 0.926138 0.02923
C_ C_ 0.85314 0.910388 0.977426 -0.15533
C_ C_ 0.826146 0.898258 0.0172863 0.02923
C_ C_ 0.85504 0.879734 0.569196 0.69207
C_ C_ 0.856638 0.89005 0.829616 0.69661
C_ C_ 0.809369 0.926208 0.683816 0.18167
C_ C_ 0.768768 0.953965 0.706162 -0.15533
C_ C_ 0.780958 -0.005264000000000046 0.741976 0.02923
C_ C_ 0.814439 0.514706 0.745431 -0.15533
C_ C_ 0.867333 0.982576 0.722969 0.18167
C_ C_ 0.988972 0.845453 0.701741 0.18167
C_ C_ 0.521052 0.812929 0.733655 -0.15533
C_ C_ 0.981506 0.766072 0.73718 0.02923
C_ C_ 0.928238 0.77412 0.723338 -0.15533
C_ C_ 0.909493 0.815267 0.695977 0.18167
C_ C_ 0.98517 0.950343 0.625116 0.69207
C_ C_ 0.51865 0.494612 0.613264 0.02923
C_ C_ 0.500728 0.546171 0.618329 -0.15533
C_ C_ 0.526413 0.58278 0.600957 -0.15533
C_ C_ 0.576794 0.570691 0.587194 0.02923
C_ C_ 0.595807 0.518161 0.586747 -0.15533
C_ C_ 0.569034 0.480414 0.6011 0.02923
C_ C_ 0.601655 0.927567 0.612594 0.69207
C_ C_ 0.589621 0.666568 0.585956 0.69661
C_ C_ 0.943685 0.677388 0.929751 0.18167
C_ C_ 0.983494 0.70033 0.955025 -0.15533
C_ C_ 0.972667 0.739949 0.991829 0.02923
C_ C_ 0.923427 0.759693 0.51922 -0.15533
C_ C_ 0.889239 0.708844 0.99129 0.18167
C_ C_ 0.775598 0.712155 0.856596 0.18167
C_ C_ 0.747989 0.734611 0.814231 -0.15533
C_ C_ 0.76723 0.729119 0.767197 0.02923
C_ C_ 0.816303 0.700853 0.763273 -0.15533
C_ C_ 0.841453 0.673686 0.805953 0.18167
C_ C_ 0.760504 0.628393 0.947408 0.69207
C_ C_ 0.721703 0.616182 0.485546 0.02923
C_ C_ 0.738858 0.614032 0.538173 -0.15533
C_ C_ 0.705979 0.611627 0.573708 -0.15533
C_ C_ 0.654963 0.60162 0.558148 0.02923
C_ C_ 0.638657 0.596144 0.50577 -0.15533
C_ C_ 0.669173 0.607761 0.468631 0.02923
C_ C_ 0.649317 0.601057 0.918637 0.69207
C_ C_ 0.631925 0.60937 0.654334 0.69661
C_ C_ 0.878495 0.888905 0.886197 -0.30787
C_ C_ 0.613213 0.611545 0.596583 -0.30787
N_ N_ 0.632081 0.554494 0.803354 -0.32189
N_ N_ 0.547483 0.63873 0.809908 -0.32189
N_ N_ 0.604074 0.810512 0.554023 -0.32189
N_ N_ 0.696031 0.804234 0.632867 -0.32189
N_ N_ 0.856893 0.941094 0.690668 -0.32189
N_ N_ 0.940736 0.848767 0.685077 -0.32189
N_ N_ 0.897055 0.680011 0.948037 -0.32189
N_ N_ 0.820667 0.681859 0.851634 -0.32189
O_ O_ 1.00920824 0.584016 0.900114 -0.63271
O_ O_ 0.534374 0.531649 0.829148 -0.57982
O_ O_ 0.905431 0.583358 0.849074 -0.63271
O_ O_ 0.874095 0.584153 0.925135 -0.57982
O_ O_ 0.747402 0.89214 0.589858 -0.63271
O_ O_ 0.703094 0.8421 0.533556 -0.57982
O_ O_ 0.848232 0.840385 0.595511 -0.63271
O_ O_ 0.877766 0.917473 0.59192 -0.57982
O_ O_ 0.499915 0.908782 0.597707 -0.63271
O_ O_ 0.947898 0.95717 0.654684 -0.57982
O_ O_ 0.596248 0.902206 0.652635 -0.63271
O_ O_ 0.638697 0.90994 0.583538 -0.57982
O_ O_ 0.760836 0.603582 0.902765 -0.63271
O_ O_ 0.79742 0.655514 0.958254 -0.57982
O_ O_ 0.650658 0.641639 0.892656 -0.63271
O_ O_ 0.612572 0.572429 0.903163 -0.57982
F_ F_ 0.930371 0.83124 0.944079 -0.20885
F_ F_ 0.946699 0.823832 0.862086 -0.20885
F_ F_ 0.877709 0.795757 0.887916 -0.20885
F_ F_ 0.816036 0.926689 0.826549 -0.20885
F_ F_ 0.838784 0.844506 0.808736 -0.20885
F_ F_ 0.893009 0.901166 0.79829 -0.20885
F_ F_ 0.559592 0.669962 0.540238 -0.20885
F_ F_ 0.562171 0.686629 0.623584 -0.20885
F_ F_ 0.627327 0.697887 0.582929 -0.20885
F_ F_ 0.661699 0.567831 0.670851 -0.20885
F_ F_ 0.661336 0.647161 0.670481 -0.20885
F_ F_ 0.591659 0.618129 0.686626 -0.20885
_cell_length_a 26.508
_cell_length_b 26.37200000322088
_cell_length_c 26.311999743092066
_cell_angle_alpha 93.74100058972084
_cell_angle_beta 96.04100104955006
_cell_angle_gamma 83.6869992558723
_symmetry_space_group_name_H-M         'P 1'
_symmetry_Int_Tables_number            1
loop_
_symmetry_equiv_pos_as_xyz
   'x, y, z'
                         
loop_
_atom_site_label
_atom_site_type_symbol
_atom_site_fract_x 
_atom_site_fract_y
_atom_site_fract_z
_atom_site_charge
Zn Zn 0.0956192 0.0827441 0.348016 0.83971
Zn Zn 0.158001 0.34459 0.0883779 0.83971
Zn Zn 0.405426 0.417736 0.152001 0.83971
Zn Zn 0.336268 0.160017 0.421693 0.83971
H_ H_ 0.178408 0.132778 0.304668 0.10394
H_ H_ 0.259256 0.102245 0.279216 0.10394
H_ H_ 0.214268 0.445826 0.293643 0.10394
H_ H_ 0.147295 0.98332 0.332842 0.10394
H_ H_ 0.557393 0.106483 0.253457 0.10394
H_ H_ 0.514 0.174002 0.20611 0.10394
H_ H_ 0.0363663 0.26651 0.335673 0.10394
H_ H_ 0.073507 0.191526 0.382483 0.10394
H_ H_ 0.0207109 0.444317 0.349894 0.10394
H_ H_ 0.481985 0.385921 0.38076 0.10394
H_ H_ 0.35128 0.492556 0.398393 0.10394
H_ H_ 0.0656982 0.308376 0.133578 0.10394
H_ H_ 0.50072 0.27049 0.103513 0.10394
H_ H_ 0.0446809 0.28085 0.447232 0.10394
H_ H_ 0.118558 0.319275 0.988989 0.10394
H_ H_ 0.218377 0.249587 0.10594 0.10394
H_ H_ 0.272114 0.21213 0.177284 0.10394
H_ H_ 0.220741 0.339693 0.272344 0.10394
H_ H_ 0.178252 0.381575 0.200325 0.10394
H_ H_ 0.21562 0.367381 0.437358 0.10394
H_ H_ 0.267669 0.383943 0.374753 0.10394
H_ H_ 0.394879 0.403643 0.489712 0.10394
H_ H_ 0.305704 0.392242 0.172097 0.10394
H_ H_ 0.230671 0.445065 0.198408 0.10394
H_ H_ 0.351443 0.0185493 0.297841 0.10394
H_ H_ 0.391089 0.520905 0.209722 0.10394
H_ H_ 0.016712 0.388856 0.201625 0.10394
H_ H_ 0.0624396 0.309261 0.244686 0.10394
H_ H_ 0.417002 0.251922 0.236002 0.10394
H_ H_ 0.373156 0.322937 0.183634 0.10394
H_ H_ 0.465823 0.0623376 0.115272 0.10394
H_ H_ 0.0243962 0.123165 0.131239 0.10394
H_ H_ 0.14417 0.0151284 0.08718 0.10394
H_ H_ 0.445817 0.122012 0.464369 0.10394
H_ H_ 0.0220882 0.193073 0.445164 0.10394
H_ H_ 0.413643 0.272649 0.0569314 0.10394
H_ H_ 0.345734 0.260487 0.465614 0.10394
H_ H_ 0.236312 0.211894 0.392135 0.10394
H_ H_ 0.193939 0.249352 0.308868 0.10394
H_ H_ 0.341816 0.23884 0.256823 0.10394
H_ H_ 0.381567 0.197065 0.337078 0.10394
H_ H_ 0.285861 0.142845 0.0530084 0.10394
H_ H_ 0.228866 0.132376 0.114758 0.10394
H_ H_ 0.106876 0.108322 0.00215595 0.10394
C_ C_ 0.188825 0.0921036 0.305202 0.18167
C_ C_ 0.236272 0.0746463 0.289296 -0.15533
C_ C_ 0.245956 0.0224516 0.279867 0.02923
C_ C_ 0.204067 0.486014 0.296119 -0.15533
C_ C_ 0.167778 0.00793928 0.314035 0.18167
C_ C_ 0.0371613 0.132003 0.269793 0.18167
C_ C_ 0.528166 0.184167 0.243978 -0.15533
C_ C_ 0.0194834 0.223472 0.263112 0.02923
C_ C_ 0.038738 0.228365 0.315295 -0.15533
C_ C_ 0.0598675 0.184683 0.342258 0.18167
C_ C_ 0.00851753 0.0460921 0.365976 0.69207
C_ C_ 0.469171 0.515692 0.376746 0.02923
C_ C_ 0.491595 0.465053 0.380506 -0.15533
C_ C_ 0.465177 0.423966 0.387593 -0.15533
C_ C_ 0.411356 0.43191 0.391496 0.02923
C_ C_ 0.391623 0.483701 0.396011 -0.15533
C_ C_ 0.421308 0.524408 0.394175 0.02923
C_ C_ 0.389385 0.0751015 0.382872 0.69207
C_ C_ 0.400995 0.335298 0.380172 0.69661
C_ C_ 0.0613845 0.303206 0.0922181 0.18167
C_ C_ 0.0232705 0.273786 0.0691076 -0.15533
C_ C_ 0.0167176 0.265024 0.0166809 0.02923
C_ C_ 0.0528051 0.281046 0.488837 -0.15533
C_ C_ 0.0925578 0.302592 0.0105117 0.18167
C_ C_ 0.214209 0.267803 0.143371 0.18167
C_ C_ 0.243983 0.245612 0.184775 -0.15533
C_ C_ 0.246959 0.272973 0.23069 0.02923
C_ C_ 0.21872 0.319131 0.234573 -0.15533
C_ C_ 0.193488 0.341223 0.19355 0.18167
C_ C_ 0.237426 0.363847 0.0492286 0.69207
C_ C_ 0.274536 0.377058 0.503027 0.02923
C_ C_ 0.25509 0.374302 0.45082 -0.15533
C_ C_ 0.28572 0.388518 0.41327 -0.15533
C_ C_ 0.338089 0.395718 0.42462 0.02923
C_ C_ 0.357231 0.391836 0.476447 -0.15533
C_ C_ 0.324921 0.385162 0.517113 0.02923
C_ C_ 0.34584 0.383509 0.0720617 0.69207
C_ C_ 0.351096 0.39765 0.32435 0.69661
C_ C_ 0.308785 0.432165 0.184137 0.18167
C_ C_ 0.266672 0.459488 0.205495 -0.15533
C_ C_ 0.27349 0.49995 0.242356 0.02923
C_ C_ 0.336648 0.00755182 0.260449 -0.15533
C_ C_ 0.360016 0.499308 0.216807 0.18167
C_ C_ 0.491462 0.360044 0.201411 0.18167
C_ C_ 0.0204076 0.31175 0.233778 -0.15533
C_ C_ 0.491427 0.276018 0.239046 0.02923
C_ C_ 0.438646 0.278245 0.222 -0.15533
C_ C_ 0.413392 0.324029 0.20085 0.18167
C_ C_ 0.475483 0.458308 0.111522 0.69207
C_ C_ 0.0239722 0.994589 0.107245 0.02923
C_ C_ 0.00619426 0.0443981 0.118296 -0.15533
C_ C_ 0.0375305 0.084141 0.115979 -0.15533
C_ C_ 0.0887104 0.0740842 0.10495 0.02923
C_ C_ 0.105122 0.0234641 0.0906378 -0.15533
C_ C_ 0.0746861 0.982477 0.0903518 0.02923
C_ C_ 0.0963943 0.423399 0.109912 0.69207
C_ C_ 0.10214 0.172145 0.105869 0.69661
C_ C_ 0.437409 0.164652 0.462304 0.18167
C_ C_ 0.480957 0.190729 0.477961 -0.15533
C_ C_ 0.471713 0.242297 0.496632 0.02923
C_ C_ 0.419974 0.25317 0.0177867 -0.15533
C_ C_ 0.382632 0.240503 0.471878 0.18167
C_ C_ 0.257113 0.213382 0.359579 0.18167
C_ C_ 0.235708 0.236327 0.313523 -0.15533
C_ C_ 0.268177 0.24823 0.277668 0.02923
C_ C_ 0.319874 0.230959 0.286282 -0.15533
C_ C_ 0.339803 0.206588 0.331015 0.18167
C_ C_ 0.265202 0.117282 0.459751 0.69207
C_ C_ 0.235082 0.116865 0.991751 0.02923
C_ C_ 0.248475 0.127875 0.0424693 -0.15533
C_ C_ 0.215986 0.121208 0.0776575 -0.15533
C_ C_ 0.164522 0.107992 0.0664996 0.02923
C_ C_ 0.147756 0.10653 0.0152806 -0.15533
C_ C_ 0.182766 0.107832 0.977304 0.02923
C_ C_ 0.151002 0.102945 0.428728 0.69207
C_ C_ 0.149165 0.113938 0.166498 0.69661
C_ C_ 0.374884 0.389053 0.380631 -0.30787
C_ C_ 0.124694 0.116202 0.108608 -0.30787
N_ N_ 0.158613 0.0594049 0.320238 -0.32189
N_ N_ 0.0614758 0.137589 0.319159 -0.32189
N_ N_ 0.098217 0.310588 0.0622306 -0.32189
N_ N_ 0.186482 0.314372 0.147653 -0.32189
N_ N_ 0.354267 0.453176 0.190398 -0.32189
N_ N_ 0.441592 0.357499 0.183076 -0.32189
N_ N_ 0.390696 0.188082 0.457362 -0.32189
N_ N_ 0.309203 0.201054 0.366602 -0.32189
O_ O_ 0.496224 0.0979174 0.391702 -0.63271
O_ O_ 0.0489762 0.0333633 0.338438 -0.57982
O_ O_ 0.387444 0.10095 0.342082 -0.63271
O_ O_ 0.368254 0.0972462 0.421715 -0.57982
O_ O_ 0.242946 0.386387 0.0968854 -0.63271
O_ O_ 0.198577 0.33715 0.0369923 -0.57982
O_ O_ 0.347497 0.343157 0.0963586 -0.63271
O_ O_ 0.36862 0.422483 0.0889129 -0.57982
O_ O_ 0.994246 0.400628 0.103713 -0.63271
O_ O_ 0.448424 0.465297 0.150201 -0.57982
O_ O_ 0.101609 0.400351 0.155339 -0.63271
O_ O_ 0.128082 0.407503 0.0768 -0.57982
O_ O_ 0.261187 0.0942884 0.414192 -0.63271
O_ O_ 0.293666 0.156192 0.468087 -0.57982
O_ O_ 0.154264 0.142844 0.402947 -0.63271
O_ O_ 0.119109 0.0692145 0.412481 -0.57982
F_ F_ 0.438914 0.329714 0.419851 -0.20885
F_ F_ 0.425759 0.322738 0.336115 -0.20885
F_ F_ 0.366483 0.301497 0.386277 -0.20885
F_ F_ 0.314984 0.439339 0.32247 -0.20885
F_ F_ 0.326913 0.354875 0.305787 -0.20885
F_ F_ 0.386689 0.401621 0.292616 -0.20885
F_ F_ 0.0670294 0.175823 0.0636828 -0.20885
F_ F_ 0.0746947 0.190189 0.148625 -0.20885
F_ F_ 0.136727 0.204117 0.102067 -0.20885
F_ F_ 0.188316 0.0749434 0.173701 -0.20885
F_ F_ 0.176383 0.158231 0.182346 -0.20885
F_ F_ 0.111188 0.106032 0.200487 -0.20885
Zn Zn 0.095893 0.0856345 0.841925 0.83971
Zn Zn 0.159378 0.346024 0.583188 0.83971
Zn Zn 0.409146 0.413325 0.656301 0.83971
Zn Zn 0.348463 0.154537 0.913565 0.83971
H_ H_ 0.178404 0.129988 0.809918 0.10394
H_ H_ 0.259441 0.0963016 0.776251 0.10394
H_ H_ 0.210531 0.435092 0.786185 0.10394
H_ H_ 0.144886 0.9749 0.82507 0.10394
H_ H_ 0.529887 0.0974083 0.756022 0.10394
H_ H_ 0.493855 0.166961 0.705822 0.10394
H_ H_ 0.017209 0.271039 0.832475 0.10394
H_ H_ 0.0763599 0.196921 0.878153 0.10394
H_ H_ 0.0413482 0.435842 0.879594 0.10394
H_ H_ 0.47677 0.371604 0.876044 0.10394
H_ H_ 0.353964 0.478695 0.914391 0.10394
H_ H_ 0.0691802 0.309162 0.634145 0.10394
H_ H_ 0.500229 0.273179 0.592569 0.10394
H_ H_ 0.0481389 0.268752 0.945002 0.10394
H_ H_ 0.122973 0.313337 0.490179 0.10394
H_ H_ 0.230224 0.2557 0.594828 0.10394
H_ H_ 0.28058 0.21744 0.663614 0.10394
H_ H_ 0.19894 0.322298 0.767328 0.10394
H_ H_ 0.168705 0.375835 0.694063 0.10394
H_ H_ 0.215538 0.356733 0.949137 0.10394
H_ H_ 0.268931 0.359527 0.878132 0.10394
H_ H_ 0.392937 0.388515 0.984551 0.10394
H_ H_ 0.307942 0.391847 0.661937 0.10394
H_ H_ 0.232415 0.440927 0.692071 0.10394
H_ H_ 0.336649 0.0468752 0.782758 0.10394
H_ H_ 0.401049 0.497275 0.742062 0.10394
H_ H_ 0.00841092 0.386338 0.700655 0.10394
H_ H_ 0.0500123 0.303751 0.73074 0.10394
H_ H_ 0.415623 0.242197 0.722854 0.10394
H_ H_ 0.37316 0.321471 0.683517 0.10394
H_ H_ 0.467687 0.05351 0.634135 0.10394
H_ H_ 0.00433225 0.112036 0.594923 0.10394
H_ H_ 0.139467 0.00433934 0.588429 0.10394
H_ H_ 0.445788 0.166991 0.898308 0.10394
H_ H_ 0.012477 0.19584 0.938815 0.10394
H_ H_ 0.414904 0.30516 0.514605 0.10394
H_ H_ 0.34433 0.229815 0.00119403 0.10394
H_ H_ 0.242995 0.183312 0.873373 0.10394
H_ H_ 0.197417 0.221894 0.801281 0.10394
H_ H_ 0.342511 0.242215 0.746753 0.10394
H_ H_ 0.383657 0.193763 0.824981 0.10394
H_ H_ 0.280168 0.134336 0.56322 0.10394
H_ H_ 0.217563 0.132743 0.624914 0.10394
H_ H_ 0.10849 0.0786996 0.508303 0.10394
C_ C_ 0.183666 0.0890513 0.798559 0.18167
C_ C_ 0.230849 0.0697817 0.781572 -0.15533
C_ C_ 0.241135 0.0150136 0.771075 0.02923
C_ C_ 0.1975 0.475146 0.788176 -0.15533
C_ C_ 0.162743 0.00227073 0.805027 0.18167
C_ C_ 0.0332165 0.135334 0.770828 0.18167
C_ C_ 0.508168 0.175623 0.745446 -0.15533
C_ C_ 0.00538353 0.225204 0.765564 0.02923
C_ C_ 0.0298853 0.233076 0.81411 -0.15533
C_ C_ 0.0582424 0.191481 0.838983 0.18167
C_ C_ 0.0108975 0.0492657 0.869371 0.69207
C_ C_ 0.465238 0.501555 0.87183 0.02923
C_ C_ 0.486081 0.450761 0.8698 -0.15533
C_ C_ 0.459896 0.410571 0.884013 -0.15533
C_ C_ 0.408256 0.419862 0.89583 0.02923
C_ C_ 0.391727 0.469788 0.905387 -0.15533
C_ C_ 0.417871 0.511917 0.893571 0.02923
C_ C_ 0.406356 0.0728263 0.882005 0.69207
C_ C_ 0.392034 0.322744 0.874639 0.69661
C_ C_ 0.0657256 0.299698 0.593245 0.18167
C_ C_ 0.0205648 0.28095 0.571238 -0.15533
C_ C_ 0.0159931 0.269022 0.518263 0.02923
C_ C_ 0.0537195 0.276065 0.986564 -0.15533
C_ C_ 0.0947089 0.301731 0.51273 0.18167
C_ C_ 0.226214 0.273371 0.632229 0.18167
C_ C_ 0.253234 0.250548 0.672046 -0.15533
C_ C_ 0.238857 0.260728 0.722541 0.02923
C_ C_ 0.20256 0.304167 0.730141 -0.15533
C_ C_ 0.188166 0.335507 0.688856 0.18167
C_ C_ 0.235815 0.37364 0.540605 0.69207
C_ C_ 0.271843 0.372059 0.00789314 0.02923
C_ C_ 0.255501 0.358459 0.957301 -0.15533
C_ C_ 0.284708 0.36258 0.916887 -0.15533
C_ C_ 0.332787 0.379762 0.927262 0.02923
C_ C_ 0.353173 0.383296 0.977777 -0.15533
C_ C_ 0.323501 0.380331 0.0183148 0.02923
C_ C_ 0.351528 0.380259 0.569876 0.69207
C_ C_ 0.340927 0.389725 0.832574 0.69661
C_ C_ 0.312895 0.423833 0.689635 0.18167
C_ C_ 0.269617 0.450022 0.707792 -0.15533
C_ C_ 0.274852 0.488646 0.746095 0.02923
C_ C_ 0.335548 0.0146079 0.757825 -0.15533
C_ C_ 0.36585 0.483451 0.7308 0.18167
C_ C_ 0.492003 0.346143 0.692657 0.18167
C_ C_ 0.00962964 0.308864 0.722589 -0.15533
C_ C_ 0.486862 0.269586 0.736293 0.02923
C_ C_ 0.436498 0.27229 0.719617 -0.15533
C_ C_ 0.413066 0.316206 0.693049 0.18167
C_ C_ 0.479716 0.458668 0.617323 0.69207
C_ C_ 0.0219051 0.989287 0.623739 0.02923
C_ C_ -0.0018019999999999703 0.0383391 0.612743 -0.15533
C_ C_ 0.026059 0.0774916 0.600967 -0.15533
C_ C_ 0.0792422 0.0662848 0.594607 0.02923
C_ C_ 0.10108 0.0152445 0.600657 -0.15533
C_ C_ 0.0734719 0.97701 0.617906 0.02923
C_ C_ 0.0937483 0.422457 0.609767 0.69207
C_ C_ 0.0904963 0.164146 0.598807 0.69661
C_ C_ 0.437108 0.192842 0.930146 0.18167
C_ C_ 0.477841 0.215158 0.958665 -0.15533
C_ C_ 0.468473 0.248178 1.00198838 0.02923
C_ C_ 0.422098 0.266729 0.495106 -0.15533
C_ C_ 0.381818 0.226881 0.991034 0.18167
C_ C_ 0.267222 0.192673 0.845456 0.18167
C_ C_ 0.240456 0.215589 0.801785 -0.15533
C_ C_ 0.267662 0.235724 0.767258 0.02923
C_ C_ 0.322266 0.228483 0.7755 -0.15533
C_ C_ 0.345702 0.200714 0.817003 0.18167
C_ C_ 0.271811 0.119895 0.953651 0.69207
C_ C_ 0.226464 0.113691 0.496026 0.02923
C_ C_ 0.242601 0.123086 0.548413 -0.15533
C_ C_ 0.209095 0.116598 0.587036 -0.15533
C_ C_ 0.159962 0.1003 0.57087 0.02923
C_ C_ 0.146604 0.0900295 0.519901 -0.15533
C_ C_ 0.178077 0.0967005 0.481309 0.02923
C_ C_ 0.163837 0.108556 0.923375 0.69207
C_ C_ 0.135236 0.104664 0.663679 0.69661
C_ C_ 0.368487 0.378458 0.883417 -0.30787
C_ C_ 0.116083 0.109377 0.606903 -0.30787
N_ N_ 0.150459 0.0560141 0.807102 -0.32189
N_ N_ 0.0621287 0.145106 0.81444 -0.32189
N_ N_ 0.102262 0.306405 0.563724 -0.32189
N_ N_ 0.194954 0.316415 0.640535 -0.32189
N_ N_ 0.359287 0.441169 0.699732 -0.32189
N_ N_ 0.441014 0.352122 0.682698 -0.32189
N_ N_ 0.391731 0.197017 0.947757 -0.32189
N_ N_ 0.318441 0.185037 0.852662 -0.32189
O_ O_ 0.516912 0.0915589 0.891422 -0.63271
O_ O_ 0.0529869 0.0353254 0.847257 -0.57982
O_ O_ 0.402629 0.0975334 0.840855 -0.63271
O_ O_ 0.383843 0.0924925 0.920567 -0.57982
O_ O_ 0.240386 0.397238 0.584956 -0.63271
O_ O_ 0.203318 0.339007 0.532048 -0.57982
O_ O_ 0.34403 0.341708 0.595861 -0.63271
O_ O_ 0.381 0.415598 0.590708 -0.57982
O_ O_ 0.986703 0.405447 0.603899 -0.63271
O_ O_ 0.451136 0.464552 0.655507 -0.57982
O_ O_ 0.0908875 0.397197 0.650233 -0.63271
O_ O_ 0.130692 0.407001 0.581837 -0.57982
O_ O_ 0.2651 0.0968373 0.907627 -0.63271
O_ O_ 0.303709 0.155049 0.960859 -0.57982
O_ O_ 0.164348 0.150108 0.9 -0.63271
O_ O_ 0.127622 0.0785858 0.904934 -0.57982
F_ F_ 0.431725 0.30858 0.910699 -0.20885
F_ F_ 0.416637 0.308841 0.831355 -0.20885
F_ F_ 0.355916 0.287341 0.880382 -0.20885
F_ F_ 0.31046 0.434018 0.83162 -0.20885
F_ F_ 0.312445 0.35152 0.808468 -0.20885
F_ F_ 0.374922 0.39561 0.800571 -0.20885
F_ F_ 0.0646067 0.164449 0.549569 -0.20885
F_ F_ 0.055309 0.180458 0.633665 -0.20885
F_ F_ 0.125385 0.1995 0.600411 -0.20885
F_ F_ 0.169997 0.063375 0.672142 -0.20885
F_ F_ 0.155014 0.147939 0.683756 -0.20885
F_ F_ 0.097789 0.096953 0.69388 -0.20885
Zn Zn 0.0806444 0.587208 0.344841 0.83971
Zn Zn 0.16297 0.846227 0.0742276 0.83971
Zn Zn 0.409085 0.923232 0.145107 0.83971
Zn Zn 0.33089 0.658093 0.414814 0.83971
H_ H_ 0.161472 0.630446 0.300919 0.10394
H_ H_ 0.244331 0.601195 0.274257 0.10394
H_ H_ 0.223989 0.947597 0.293795 0.10394
H_ H_ 0.142549 0.481815 0.342372 0.10394
H_ H_ 0.513842 0.594564 0.246346 0.10394
H_ H_ 0.470981 0.667744 0.194969 0.10394
H_ H_ 0.0475077 0.773226 0.326476 0.10394
H_ H_ 0.0865726 0.69278 0.3663 0.10394
H_ H_ 0.027538 0.945388 0.359349 0.10394
H_ H_ 0.480743 0.884098 0.374489 0.10394
H_ H_ 0.344053 0.990016 0.393471 0.10394
H_ H_ 0.0875635 0.798821 0.122999 0.10394
H_ H_ 0.503029 0.780496 0.10654 0.10394
H_ H_ 0.0351422 0.801873 0.454247 0.10394
H_ H_ 0.120027 0.821576 0.971228 0.10394
H_ H_ 0.20887 0.746947 0.0955792 0.10394
H_ H_ 0.242551 0.700916 0.171367 0.10394
H_ H_ 0.210817 0.842568 0.263305 0.10394
H_ H_ 0.184306 0.88953 0.182379 0.10394
H_ H_ 0.217342 0.870725 0.450359 0.10394
H_ H_ 0.263022 0.894688 0.384949 0.10394
H_ H_ 0.397161 0.906946 0.490461 0.10394
H_ H_ 0.297507 0.939559 0.132423 0.10394
H_ H_ 0.230156 0.969023 0.191446 0.10394
H_ H_ 0.326609 0.553128 0.272803 0.10394
H_ H_ 0.412477 -0.016623000000000054 0.238788 0.10394
H_ H_ 0.0113927 0.887663 0.19068 0.10394
H_ H_ 0.0536545 0.815164 0.236172 0.10394
H_ H_ 0.395679 0.752102 0.209135 0.10394
H_ H_ 0.36158 0.839517 0.179229 0.10394
H_ H_ 0.456157 0.561762 0.113231 0.10394
H_ H_ 0.0139927 0.616101 0.125497 0.10394
H_ H_ 0.139973 0.506106 0.0977732 0.10394
H_ H_ 0.431465 0.675026 0.38306 0.10394
H_ H_ 0.0174927 0.697401 0.455409 0.10394
H_ H_ 0.417912 0.781412 0.051558 0.10394
H_ H_ 0.345115 0.733123 0.507249 0.10394
H_ H_ 0.226085 0.70308 0.383413 0.10394
H_ H_ 0.186915 0.741098 0.306986 0.10394
H_ H_ 0.323964 0.727483 0.240894 0.10394
H_ H_ 0.36649 0.680517 0.315463 0.10394
H_ H_ 0.286451 0.600844 0.0635315 0.10394
H_ H_ 0.226736 0.592059 0.124086 0.10394
H_ H_ 0.103017 0.59517 0.010898 0.10394
C_ C_ 0.172378 0.589013 0.29865 0.18167
C_ C_ 0.219715 0.571799 0.28175 -0.15533
C_ C_ 0.235224 0.519436 0.278269 0.02923
C_ C_ 0.215208 0.989424 0.299432 -0.15533
C_ C_ 0.15972 0.506687 0.319047 0.18167
C_ C_ 0.0204953 0.639082 0.269394 0.18167
C_ C_ 0.486652 0.67323 0.23617 -0.15533
C_ C_ 0.012681 0.731016 0.262496 0.02923
C_ C_ 0.0406301 0.734751 0.310351 -0.15533
C_ C_ 0.0583797 0.689953 0.337232 0.18167
C_ C_ -0.0005939999999999834 0.550445 0.366152 0.69207
C_ C_ 0.466072 0.0129083 0.375782 0.02923
C_ C_ 0.490615 0.960867 0.3799 -0.15533
C_ C_ 0.462485 0.920849 0.383553 -0.15533
C_ C_ 0.40849 0.930403 0.391717 0.02923
C_ C_ 0.38543 0.982384 0.391501 -0.15533
C_ C_ 0.41421 0.0235033 0.384602 0.02923
C_ C_ 0.39211 0.576525 0.389118 0.69207
C_ C_ 0.400283 0.832503 0.399815 0.69661
C_ C_ 0.0775953 0.793145 0.081585 0.18167
C_ C_ 0.0291082 0.780332 0.0653319 -0.15533
C_ C_ 0.0154988 0.773194 0.0119874 0.02923
C_ C_ 0.0491304 0.791286 0.493527 -0.15533
C_ C_ 0.0953103 0.803848 -0.003534000000000037 0.18167
C_ C_ 0.209256 0.769001 0.132702 0.18167
C_ C_ 0.230288 0.742546 0.174443 -0.15533
C_ C_ 0.226363 0.766406 0.223546 0.02923
C_ C_ 0.209351 0.819444 0.227026 -0.15533
C_ C_ 0.193432 0.846538 0.181737 0.18167
C_ C_ 0.247635 0.862402 0.0395504 0.69207
C_ C_ 0.275665 0.881324 0.513662 0.02923
C_ C_ 0.255336 0.88042 0.462038 -0.15533
C_ C_ 0.282245 0.893274 0.422871 -0.15533
C_ C_ 0.333857 0.898489 0.432405 0.02923
C_ C_ 0.355191 0.902835 0.483748 -0.15533
C_ C_ 0.325368 0.893039 0.525018 0.02923
C_ C_ 0.357404 0.891025 0.0616219 0.69207
C_ C_ 0.352953 0.876297 0.333175 0.69661
C_ C_ 0.307482 0.957628 0.168334 0.18167
C_ C_ 0.271013 0.976177 0.199782 -0.15533
C_ C_ 0.285336 1.00134627 0.245626 0.02923
C_ C_ 0.320111 0.521974 0.244516 -0.15533
C_ C_ 0.373055 0.985938 0.226709 0.18167
C_ C_ 0.48708 0.854652 0.197333 0.18167
C_ C_ 0.0143557 0.817857 0.226496 -0.15533
C_ C_ 0.47252 0.772977 0.230838 0.02923
C_ C_ 0.41974 0.783102 0.213039 -0.15533
C_ C_ 0.401576 0.830545 0.192198 0.18167
C_ C_ 0.486825 0.960252 0.121138 0.69207
C_ C_ 0.020587 0.48623 0.118993 0.02923
C_ C_ -0.0004549999999999832 0.539004 0.123164 -0.15533
C_ C_ 0.0288841 0.577639 0.115968 -0.15533
C_ C_ 0.0802392 0.567031 0.108251 0.02923
C_ C_ 0.0996405 0.514432 0.101368 -0.15533
C_ C_ 0.0689459 0.475609 0.107256 0.02923
C_ C_ 0.101913 0.931031 0.0980625 0.69207
C_ C_ 0.0953279 0.66593 0.106803 0.69661
C_ C_ 0.427783 0.695266 0.420851 0.18167
C_ C_ 0.471744 0.710574 0.449042 -0.15533
C_ C_ 0.467764 0.746747 0.488279 0.02923
C_ C_ 0.426831 0.750052 0.0251623 -0.15533
C_ C_ 0.379752 0.729043 0.48864 0.18167
C_ C_ 0.248418 0.704439 0.352436 0.18167
C_ C_ 0.226034 0.734823 0.313153 -0.15533
C_ C_ 0.251961 0.739025 0.271375 0.02923
C_ C_ 0.305011 0.722546 0.273379 -0.15533
C_ C_ 0.327995 0.695028 0.313385 0.18167
C_ C_ 0.256345 0.620105 0.453565 0.69207
C_ C_ 0.227819 0.608008 1.000843645 0.02923
C_ C_ 0.245947 0.600008 0.0519601 -0.15533
C_ C_ 0.211204 0.594316 0.0867334 -0.15533
C_ C_ 0.15862 0.59941 0.0715158 0.02923
C_ C_ 0.140768 0.60331 0.0202265 -0.15533
C_ C_ 0.174505 0.607072 0.984022 0.02923
C_ C_ 0.148024 0.605438 0.425518 0.69207
C_ C_ 0.142215 0.60484 0.167698 0.69661
C_ C_ 0.373091 0.886426 0.390339 -0.30787
C_ C_ 0.118057 0.60756 0.110476 -0.30787
N_ N_ 0.14095 0.556145 0.311686 -0.32189
N_ N_ 0.0484182 0.644861 0.316121 -0.32189
N_ N_ 0.110533 0.802565 0.0460083 -0.32189
N_ N_ 0.190012 0.818181 0.137148 -0.32189
N_ N_ 0.358746 0.959844 0.183925 -0.32189
N_ N_ 0.434948 0.862782 0.179764 -0.32189
N_ N_ 0.382629 0.702911 0.442445 -0.32189
N_ N_ 0.299557 0.686197 0.352984 -0.32189
O_ O_ 0.499333 0.598617 0.390129 -0.63271
O_ O_ 0.0386873 0.537834 0.339623 -0.57982
O_ O_ 0.382403 0.595154 0.343412 -0.63271
O_ O_ 0.364003 0.595115 0.425329 -0.57982
O_ O_ 0.243294 0.894974 0.0794067 -0.63271
O_ O_ 0.210364 0.830638 0.0333054 -0.57982
O_ O_ 0.357341 0.854809 0.0917198 -0.63271
O_ O_ 0.384059 0.926676 0.0772275 -0.57982
O_ O_ 0.993035 0.911546 0.0935433 -0.63271
O_ O_ 0.45749 0.965984 0.15817 -0.57982
O_ O_ 0.101449 0.908679 0.142213 -0.63271
O_ O_ 0.135565 0.911721 0.0656038 -0.57982
O_ O_ 0.255185 0.592132 0.410698 -0.63271
O_ O_ 0.289695 0.653199 0.461613 -0.57982
O_ O_ 0.157011 0.645169 0.401186 -0.63271
O_ O_ 0.108449 0.581312 0.410469 -0.57982
F_ F_ 0.43471 0.83527 0.443406 -0.20885
F_ F_ 0.429236 0.808973 0.361501 -0.20885
F_ F_ 0.36503 0.801457 0.411501 -0.20885
F_ F_ 0.321355 0.917538 0.315823 -0.20885
F_ F_ 0.32567 0.834014 0.318857 -0.20885
F_ F_ 0.389144 0.878171 0.301195 -0.20885
F_ F_ 0.0711257 0.67396 0.0581838 -0.20885
F_ F_ 0.0619277 0.684833 0.143034 -0.20885
F_ F_ 0.133179 0.69782 0.112782 -0.20885
F_ F_ 0.164156 0.556446 0.172218 -0.20885
F_ F_ 0.174613 0.641325 0.187944 -0.20885
F_ F_ 0.104458 0.609669 0.200139 -0.20885
Zn Zn 0.0856777 0.576486 0.849746 0.83971
Zn Zn 0.161555 0.84637 0.594435 0.83971
Zn Zn 0.41654 0.916015 0.658252 0.83971
Zn Zn 0.339948 0.652219 0.932413 0.83971
H_ H_ 0.167381 0.616316 0.82141 0.10394
H_ H_ 0.244247 0.588935 0.775209 0.10394
H_ H_ 0.224826 0.94264 0.787844 0.10394
H_ H_ 0.132552 0.471642 0.827939 0.10394
H_ H_ 0.527307 0.594522 0.744571 0.10394
H_ H_ 0.489374 0.674097 0.693841 0.10394
H_ H_ 0.0248894 0.765897 0.831736 0.10394
H_ H_ 0.073808 0.691269 0.877722 0.10394
H_ H_ 0.0365938 0.95531 0.910169 0.10394
H_ H_ 0.497819 0.882181 0.893241 0.10394
H_ H_ 0.364187 0.988599 0.890329 0.10394
H_ H_ 0.0870445 0.795155 0.639473 0.10394
H_ H_ 0.499719 0.767542 0.591392 0.10394
H_ H_ 0.0356483 0.794386 0.938454 0.10394
H_ H_ 0.120648 0.826279 0.490419 0.10394
H_ H_ 0.222222 0.748464 0.604576 0.10394
H_ H_ 0.262673 0.701666 0.680675 0.10394
H_ H_ 0.216512 0.82406 0.783376 0.10394
H_ H_ 0.179245 0.874039 0.711732 0.10394
H_ H_ 0.239036 0.828793 0.936176 0.10394
H_ H_ 0.284987 0.852284 0.869281 0.10394
H_ H_ 0.388852 0.925882 0.979033 0.10394
H_ H_ 0.320369 0.891268 0.671312 0.10394
H_ H_ 0.246513 0.943729 0.693233 0.10394
H_ H_ 0.327524 0.539976 0.782434 0.10394
H_ H_ 0.413355 0.00395241 0.742747 0.10394
H_ H_ 0.0114579 0.873315 0.690882 0.10394
H_ H_ 0.0529416 0.796983 0.738819 0.10394
H_ H_ 0.414203 0.74799 0.720548 0.10394
H_ H_ 0.381403 0.824108 0.679366 0.10394
H_ H_ 0.465937 0.558039 0.640549 0.10394
H_ H_ 0.0251135 0.615508 0.62992 0.10394
H_ H_ 0.146018 0.500562 0.596806 0.10394
H_ H_ 0.439955 0.654314 0.90764 0.10394
H_ H_ 0.0212609 0.687007 0.943811 0.10394
H_ H_ 0.416756 0.783483 0.541864 0.10394
H_ H_ 0.348023 0.732955 0.0159284 0.10394
H_ H_ 0.238374 0.687476 0.891567 0.10394
H_ H_ 0.197511 0.717225 0.811555 0.10394
H_ H_ 0.34493 0.725026 0.760442 0.10394
H_ H_ 0.383182 0.689503 0.84316 0.10394
H_ H_ 0.28735 0.599298 0.553397 0.10394
H_ H_ 0.236012 0.583759 0.61987 0.10394
H_ H_ 0.103563 0.595385 0.513356 0.10394
C_ C_ 0.172895 0.578761 0.804843 0.18167
C_ C_ 0.218775 0.561309 0.7841 -0.15533
C_ C_ 0.228831 0.50946 0.769313 0.02923
C_ C_ 0.207469 0.983078 0.785363 -0.15533
C_ C_ 0.154381 0.495594 0.810032 0.18167
C_ C_ 0.0201593 0.627929 0.773675 0.18167
C_ C_ 0.505693 0.675902 0.734437 -0.15533
C_ C_ 0.00561815 0.719072 0.76304 0.02923
C_ C_ 0.0311639 0.726121 0.81338 -0.15533
C_ C_ 0.0567855 0.684168 0.837888 0.18167
C_ C_ 0.015678 0.535195 0.881944 0.69207
C_ C_ 0.482491 0.00919536 0.873201 0.02923
C_ C_ 0.506314 0.959308 0.879257 -0.15533
C_ C_ 0.476917 0.91883 0.887279 -0.15533
C_ C_ 0.423258 0.927749 0.886575 0.02923
C_ C_ 0.403679 0.978825 0.890312 -0.15533
C_ C_ 0.432802 0.0192516 0.88276 0.02923
C_ C_ 0.392558 0.565404 0.893109 0.69207
C_ C_ 0.416384 0.830164 0.89164 0.69661
C_ C_ 0.0747819 0.795329 0.598297 0.18167
C_ C_ 0.0286003 0.778841 0.579426 -0.15533
C_ C_ 0.0153876 0.774384 0.526661 0.02923
C_ C_ 0.0467991 0.792682 0.978344 -0.15533
C_ C_ 0.0932437 0.812884 0.515422 0.18167
C_ C_ 0.221047 0.766225 0.645015 0.18167
C_ C_ 0.241405 0.738089 0.687569 -0.15533
C_ C_ 0.239422 0.756974 0.738517 0.02923
C_ C_ 0.215885 0.80628 0.746025 -0.15533
C_ C_ 0.195857 0.835925 0.704306 0.18167
C_ C_ 0.243901 0.86561 0.553663 0.69207
C_ C_ 0.283832 0.866223 -0.00220448 0.02923
C_ C_ 0.271995 0.848986 0.947791 -0.15533
C_ C_ 0.299438 0.862528 0.909385 -0.15533
C_ C_ 0.345805 0.887059 0.919617 0.02923
C_ C_ 0.356604 0.903228 0.969436 -0.15533
C_ C_ 0.329324 0.889114 0.00918385 0.02923
C_ C_ 0.354746 0.886458 0.574986 0.69207
C_ C_ 0.366321 0.879653 0.825885 0.69661
C_ C_ 0.325215 0.928057 0.692666 0.18167
C_ C_ 0.281733 0.955939 0.706921 -0.15533
C_ C_ 0.287467 0.997193 0.74315 0.02923
C_ C_ 0.323029 0.506665 0.755593 -0.15533
C_ C_ 0.37756 0.987812 0.73529 0.18167
C_ C_ 0.49828 0.857861 0.711488 0.18167
C_ C_ 0.0127926 0.802851 0.724694 -0.15533
C_ C_ 0.49156 0.771373 0.733953 0.02923
C_ C_ 0.438773 0.779886 0.723154 -0.15533
C_ C_ 0.420786 0.820391 0.6961 0.18167
C_ C_ 0.492986 0.953334 0.622134 0.69207
C_ C_ 0.020614 0.48956 0.61918 0.02923
C_ C_ 1.00269065 0.541152 0.62278 -0.15533
C_ C_ 0.0342546 0.5783 0.61499 -0.15533
C_ C_ 0.0851814 0.5649 0.603164 0.02923
C_ C_ 0.103565 0.512663 0.601052 -0.15533
C_ C_ 0.0711589 0.475508 0.606642 0.02923
C_ C_ 0.099023 0.92401 0.620489 0.69207
C_ C_ 0.103473 0.659668 0.605286 0.69661
C_ C_ 0.437745 0.676851 0.942664 0.18167
C_ C_ 0.481755 0.699259 0.967386 -0.15533
C_ C_ 0.47628 0.739363 0.00755161 0.02923
C_ C_ 0.421309 0.756546 0.508779 -0.15533
C_ C_ 0.386609 0.724284 1.00243951 0.18167
C_ C_ 0.263659 0.693879 0.862946 0.18167
C_ C_ 0.239376 0.715874 0.819387 -0.15533
C_ C_ 0.267453 0.729773 0.78227 0.02923
C_ C_ 0.320494 0.715273 0.787901 -0.15533
C_ C_ 0.34435 0.693949 0.834201 0.18167
C_ C_ 0.265283 0.618007 0.967312 0.69207
C_ C_ 0.22437 0.609169 0.492547 0.02923
C_ C_ 0.244958 0.601509 0.543926 -0.15533
C_ C_ 0.216258 0.589487 0.580844 -0.15533
C_ C_ 0.163844 0.590414 0.570172 0.02923
C_ C_ 0.143092 0.596418 0.521101 -0.15533
C_ C_ 0.171636 0.603267 0.479487 0.02923
C_ C_ 0.154372 0.605951 0.928404 0.69207
C_ C_ 0.148447 0.600165 0.668211 0.69661
C_ C_ 0.386804 0.883492 0.882557 -0.30787
C_ C_ 0.12634 0.602997 0.611505 -0.30787
N_ N_ 0.140495 0.546678 0.811801 -0.32189
N_ N_ 0.0515911 0.635334 0.817047 -0.32189
N_ N_ 0.105318 0.81056 0.566538 -0.32189
N_ N_ 0.193364 0.812743 0.654427 -0.32189
N_ N_ 0.370243 0.946557 0.701475 -0.32189
N_ N_ 0.44949 0.858682 0.690541 -0.32189
N_ N_ 0.393008 0.688783 0.961881 -0.32189
N_ N_ 0.314708 0.681115 0.868188 -0.32189
O_ O_ 0.500683 0.583793 0.893736 -0.63271
O_ O_ 0.0507669 0.52251 0.853374 -0.57982
O_ O_ 0.382068 0.588184 0.850799 -0.63271
O_ O_ 0.375551 0.588984 0.933844 -0.57982
O_ O_ 0.2547 0.87665 0.602228 -0.63271
O_ O_ 0.201199 0.845482 0.540639 -0.57982
O_ O_ 0.363103 0.842381 0.593897 -0.63271
O_ O_ 0.376035 0.923554 0.600807 -0.57982
O_ O_ 0.986401 0.911791 0.593751 -0.63271
O_ O_ 0.460911 0.958859 0.656111 -0.57982
O_ O_ 0.0873472 0.892344 0.654113 -0.63271
O_ O_ 0.139836 0.909846 0.59555 -0.57982
O_ O_ 0.264117 0.597127 0.920895 -0.63271
O_ O_ 0.295291 0.653233 0.980348 -0.57982
O_ O_ 0.15165 0.649041 0.904927 -0.63271
O_ O_ 0.126269 0.570661 0.907949 -0.57982
F_ F_ 0.44788 0.830238 0.937727 -0.20885
F_ F_ 0.4427 0.812176 0.850398 -0.20885
F_ F_ 0.388259 0.790852 0.899763 -0.20885
F_ F_ 0.322631 0.914588 0.820627 -0.20885
F_ F_ 0.352871 0.831868 0.810137 -0.20885
F_ F_ 0.401378 0.888517 0.791675 -0.20885
F_ F_ 0.0601817 0.666087 0.569083 -0.20885
F_ F_ 0.0808376 0.679916 0.64734 -0.20885
F_ F_ 0.1383 0.694269 0.595936 -0.20885
F_ F_ 0.180544 0.555753 0.674048 -0.20885
F_ F_ 0.180671 0.636688 0.684154 -0.20885
F_ F_ 0.106518 0.601047 0.700262 -0.20885
Zn Zn 0.58858 0.0884 0.357337 0.83971
Zn Zn 0.658414 0.348331 0.0795917 0.83971
Zn Zn 0.908397 0.407349 0.160769 0.83971
Zn Zn 0.837161 0.157695 0.41412 0.83971
H_ H_ 0.662145 0.132994 0.301003 0.10394
H_ H_ 0.745516 0.0971611 0.275303 0.10394
H_ H_ 0.709498 0.444049 0.290291 0.10394
H_ H_ 0.629215 0.984815 0.326209 0.10394
H_ H_ 0.0360282 0.0920122 0.250966 0.10394
H_ H_ 1.00434614 0.171201 0.202192 0.10394
H_ H_ 0.528695 0.273303 0.340621 0.10394
H_ H_ 0.554725 0.198105 0.388501 0.10394
H_ H_ 0.527978 0.457628 0.365937 0.10394
H_ H_ 0.966297 0.381202 0.364384 0.10394
H_ H_ 0.844376 0.495233 0.403677 0.10394
H_ H_ 0.581208 0.299755 0.13405 0.10394
H_ H_ 0.993531 0.268171 0.0891172 0.10394
H_ H_ 0.542825 0.274511 0.443707 0.10394
H_ H_ 0.616938 0.310903 0.983006 0.10394
H_ H_ 0.730973 0.264218 0.094087 0.10394
H_ H_ 0.775074 0.222814 0.167787 0.10394
H_ H_ 0.69834 0.33578 0.268596 0.10394
H_ H_ 0.669704 0.386232 0.19142 0.10394
H_ H_ 0.712401 0.36492 0.450379 0.10394
H_ H_ 0.756828 0.394606 0.383232 0.10394
H_ H_ 0.886361 0.419849 0.485995 0.10394
H_ H_ 0.807837 0.39025 0.170972 0.10394
H_ H_ 0.734115 0.435122 0.201351 0.10394
H_ H_ 0.825028 0.0526161 0.275421 0.10394
H_ H_ 0.900245 0.501629 0.231997 0.10394
H_ H_ 0.512289 0.38516 0.186838 0.10394
H_ H_ 0.560372 0.309532 0.230229 0.10394
H_ H_ 0.920202 0.237274 0.219082 0.10394
H_ H_ 0.878568 0.314121 0.190721 0.10394
H_ H_ 0.965409 0.0539709 0.123153 0.10394
H_ H_ 0.527228 0.126603 0.111249 0.10394
H_ H_ 0.650492 0.0100094 0.0990072 0.10394
H_ H_ 0.941627 0.161544 0.394073 0.10394
H_ H_ 0.519604 0.169337 0.481921 0.10394
H_ H_ 0.910719 0.286562 0.0348913 0.10394
H_ H_ 0.843806 0.239598 0.493547 0.10394
H_ H_ 0.736174 0.197312 0.383262 0.10394
H_ H_ 0.694401 0.244574 0.302479 0.10394
H_ H_ 0.844279 0.241116 0.253047 0.10394
H_ H_ 0.877594 0.191257 0.321241 0.10394
H_ H_ 0.793279 0.110612 0.0503728 0.10394
H_ H_ 0.735273 0.1078 0.117788 0.10394
H_ H_ 0.608116 0.0951844 0.00891055 0.10394
C_ C_ 0.676264 0.0940125 0.310926 0.18167
C_ C_ 0.71883 0.073293 0.286109 -0.15533
C_ C_ 0.726449 0.0211318 0.269496 0.02923
C_ C_ 0.699636 0.485009 0.291513 -0.15533
C_ C_ 0.653894 0.0101611 0.314634 0.18167
C_ C_ 0.553232 0.145003 0.27354 0.18167
C_ C_ 0.0203079 0.173714 0.240623 -0.15533
C_ C_ 0.517406 0.231829 0.268494 0.02923
C_ C_ 0.532418 0.237581 0.319716 -0.15533
C_ C_ 0.548129 0.194695 0.34743 0.18167
C_ C_ 0.502408 0.0524731 0.370551 0.69207
C_ C_ 0.964268 0.511273 0.370161 0.02923
C_ C_ 0.980363 0.457292 0.360426 -0.15533
C_ C_ 0.951369 0.42017 0.369555 -0.15533
C_ C_ 0.902425 0.431654 0.386629 0.02923
C_ C_ 0.884856 0.48393 0.394986 -0.15533
C_ C_ 0.913237 0.524621 0.384934 0.02923
C_ C_ 0.896709 0.0725665 0.384118 0.69207
C_ C_ 0.891149 0.334017 0.387473 0.69661
C_ C_ 0.571795 0.299105 0.0943212 0.18167
C_ C_ 0.525629 0.280945 0.0774143 -0.15533
C_ C_ 0.508455 0.281998 0.0243212 0.02923
C_ C_ 0.553549 0.279281 0.483339 -0.15533
C_ C_ 0.592869 0.301326 0.0103537 0.18167
C_ C_ 0.726982 0.281662 0.135454 0.18167
C_ C_ 0.747776 0.253783 0.176681 -0.15533
C_ C_ 0.739421 0.274024 0.227846 0.02923
C_ C_ 0.709652 0.322467 0.231263 -0.15533
C_ C_ 0.691035 0.348828 0.188978 0.18167
C_ C_ 0.741878 0.368111 0.0449424 0.69207
C_ C_ 0.77537 0.376741 0.508239 0.02923
C_ C_ 0.750694 0.377199 0.458553 -0.15533
C_ C_ 0.77762 0.391412 0.419581 -0.15533
C_ C_ 0.829586 0.39625 0.426582 0.02923
C_ C_ 0.850512 0.401778 0.478981 -0.15533
C_ C_ 0.825236 0.390611 0.520993 0.02923
C_ C_ 0.85332 0.37926 0.0751834 0.69207
C_ C_ 0.839316 0.388933 0.329264 0.69661
C_ C_ 0.813444 0.42432 0.193049 0.18167
C_ C_ 0.770034 0.450686 0.210576 -0.15533
C_ C_ 0.776137 0.492609 0.246461 0.02923
C_ C_ 0.819805 0.0195299 0.251819 -0.15533
C_ C_ 0.866271 0.484161 0.233607 0.18167
C_ C_ 0.994679 0.355979 0.210402 0.18167
C_ C_ 0.519048 0.315205 0.222667 -0.15533
C_ C_ 0.994159 0.267036 0.234922 0.02923
C_ C_ 0.943677 0.268456 0.214551 -0.15533
C_ C_ 0.917918 0.315649 0.202144 0.18167
C_ C_ 0.985682 0.446493 0.124163 0.69207
C_ C_ 0.523705 0.998817 0.115849 0.02923
C_ C_ 0.505853 0.0497603 0.111628 -0.15533
C_ C_ 0.540746 0.0846948 0.110792 -0.15533
C_ C_ 0.593228 0.0717803 0.10833 0.02923
C_ C_ 0.610618 0.0210362 0.106102 -0.15533
C_ C_ 0.576012 0.984129 0.112167 0.02923
C_ C_ 0.586273 0.427013 0.102498 0.69207
C_ C_ 0.610168 0.169552 0.103654 0.69661
C_ C_ 0.939374 0.180259 0.428839 0.18167
C_ C_ 0.981167 0.203269 0.456063 -0.15533
C_ C_ 0.972403 0.241767 0.495884 0.02923
C_ C_ 0.922795 0.249423 0.0122352 -0.15533
C_ C_ 0.881979 0.229132 0.481554 0.18167
C_ C_ 0.756624 0.202939 0.351061 0.18167
C_ C_ 0.73313 0.228908 0.306598 -0.15533
C_ C_ 0.763746 0.244681 0.270712 0.02923
C_ C_ 0.816231 0.225352 0.274103 -0.15533
C_ C_ 0.836702 0.199516 0.316932 0.18167
C_ C_ 0.762095 0.125216 0.455673 0.69207
C_ C_ 0.731253 0.106622 0.988798 0.02923
C_ C_ 0.751295 0.1084 0.0408295 -0.15533
C_ C_ 0.720364 0.103331 0.0798686 -0.15533
C_ C_ 0.668087 0.100599 0.0681228 0.02923
C_ C_ 0.648311 0.0945132 0.0170744 -0.15533
C_ C_ 0.679252 0.0978787 0.975895 0.02923
C_ C_ 0.648551 0.120055 0.435454 0.69207
C_ C_ 0.655593 0.112339 0.164753 0.69661
C_ C_ 0.865807 0.389737 0.383456 -0.30787
C_ C_ 0.63085 0.112386 0.109153 -0.30787
N_ N_ 0.644295 0.0612654 0.322482 -0.32189
N_ N_ 0.55712 0.147937 0.324035 -0.32189
N_ N_ 0.60709 0.305399 0.0607179 -0.32189
N_ N_ 0.692794 0.323951 0.142463 -0.32189
N_ N_ 0.859866 0.440908 0.203278 -0.32189
N_ N_ 0.943786 0.35657 0.198353 -0.32189
N_ N_ 0.891326 0.192784 0.445022 -0.32189
N_ N_ 0.806399 0.18883 0.354505 -0.32189
O_ O_ 0.00358282 0.0902318 0.389921 -0.63271
O_ O_ 0.544633 0.0392511 0.349244 -0.57982
O_ O_ 0.894027 0.100848 0.341434 -0.63271
O_ O_ 0.868685 0.0920928 0.421408 -0.57982
O_ O_ 0.742901 0.39706 0.0886188 -0.63271
O_ O_ 0.70467 0.338779 0.0343495 -0.57982
O_ O_ 0.854257 0.339475 0.101259 -0.63271
O_ O_ 0.879069 0.416952 0.0955074 -0.57982
O_ O_ 0.479262 0.413995 0.0845653 -0.63271
O_ O_ 0.954599 0.454338 0.16014 -0.57982
O_ O_ 0.580089 0.402628 0.142831 -0.63271
O_ O_ 0.621181 0.407317 0.0755887 -0.57982
O_ O_ 0.759718 0.0986507 0.412874 -0.63271
O_ O_ 0.794044 0.16026 0.462213 -0.57982
O_ O_ 0.654887 0.155225 0.405073 -0.63271
O_ O_ 0.614234 0.0910289 0.420485 -0.57982
F_ F_ 0.921111 0.332095 0.430466 -0.20885
F_ F_ 0.916634 0.314793 0.347932 -0.20885
F_ F_ 0.858848 0.294724 0.391063 -0.20885
F_ F_ 0.810298 0.434822 0.323721 -0.20885
F_ F_ 0.804727 0.354019 0.315113 -0.20885
F_ F_ 0.874707 0.387529 0.293549 -0.20885
F_ F_ 0.571688 0.168202 0.0631016 -0.20885
F_ F_ 0.586322 0.191184 0.145081 -0.20885
F_ F_ 0.645445 0.200102 0.0895651 -0.20885
F_ F_ 0.686666 0.0663064 0.17164 -0.20885
F_ F_ 0.682941 0.152672 0.179031 -0.20885
F_ F_ 0.624313 0.113361 0.202943 -0.20885
Zn Zn 0.592664 0.0858705 0.843945 0.83971
Zn Zn 0.661526 0.349721 0.583902 0.83971
Zn Zn 0.903663 0.418236 0.653953 0.83971
Zn Zn 0.839901 0.153405 0.910759 0.83971
H_ H_ 0.676809 0.131368 0.812334 0.10394
H_ H_ 0.754496 0.0956343 0.766911 0.10394
H_ H_ 0.705453 0.444589 0.801652 0.10394
H_ H_ 0.642966 0.981241 0.831529 0.10394
H_ H_ 0.0283367 0.0963549 0.751611 0.10394
H_ H_ 0.972122 0.165045 0.711584 0.10394
H_ H_ 0.524646 0.269269 0.833318 0.10394
H_ H_ 0.573765 0.200321 0.879874 0.10394
H_ H_ 0.525705 0.438884 0.863019 0.10394
H_ H_ 0.983246 0.36814 0.878664 0.10394
H_ H_ 0.860049 0.479925 0.914296 0.10394
H_ H_ 0.589446 0.300475 0.628452 0.10394
H_ H_ -0.00583800000000001 0.273627 0.599053 0.10394
H_ H_ 0.530945 0.303332 0.949788 0.10394
H_ H_ 0.626113 0.308582 0.475635 0.10394
H_ H_ 0.717834 0.253848 0.600776 0.10394
H_ H_ 0.758101 0.209906 0.679138 0.10394
H_ H_ 0.718259 0.345418 0.769268 0.10394
H_ H_ 0.660014 0.380319 0.697881 0.10394
H_ H_ 0.717666 0.386338 0.948209 0.10394
H_ H_ 0.776746 0.366078 0.876497 0.10394
H_ H_ 0.903122 0.396374 0.990392 0.10394
H_ H_ 0.80527 0.384042 0.677953 0.10394
H_ H_ 0.731552 0.429727 0.709496 0.10394
H_ H_ 0.838993 0.0402812 0.776068 0.10394
H_ H_ 0.88966 0.511168 0.724549 0.10394
H_ H_ 0.516776 0.376666 0.68783 0.10394
H_ H_ 0.552112 0.305182 0.738682 0.10394
H_ H_ 0.907021 0.245662 0.725948 0.10394
H_ H_ 0.868133 0.320716 0.677503 0.10394
H_ H_ 0.958882 0.0477244 0.613355 0.10394
H_ H_ 0.520034 0.124752 0.61399 0.10394
H_ H_ 0.646913 0.00723561 0.587091 0.10394
H_ H_ 0.933395 0.164664 0.88963 0.10394
H_ H_ 0.517456 0.2033 0.950317 0.10394
H_ H_ 0.915976 0.288488 0.532794 0.10394
H_ H_ 0.84458 0.231121 0.00131984 0.10394
H_ H_ 0.742953 0.210096 0.895083 0.10394
H_ H_ 0.697136 0.262627 0.824892 0.10394
H_ H_ 0.835684 0.236305 0.748299 0.10394
H_ H_ 0.877639 0.20027 0.820986 0.10394
H_ H_ 0.793979 0.121141 0.555758 0.10394
H_ H_ 0.74223 0.117501 0.625428 0.10394
H_ H_ 0.607334 0.10088 0.520177 0.10394
C_ C_ 0.683788 0.0907853 0.802451 0.18167
C_ C_ 0.730048 0.0704135 0.783125 -0.15533
C_ C_ 0.741241 0.0164521 0.777615 0.02923
C_ C_ 0.694046 0.484088 0.790318 -0.15533
C_ C_ 0.665011 0.00670431 0.817827 0.18167
C_ C_ 0.534914 0.136358 0.771712 0.18167
C_ C_ -0.000899351 0.17406 0.747141 -0.15533
C_ C_ 0.508966 0.224801 0.76532 0.02923
C_ C_ 0.537054 0.233714 0.813518 -0.15533
C_ C_ 0.558127 0.192748 0.842327 0.18167
C_ C_ 0.515064 0.0477835 0.860684 0.69207
C_ C_ 0.979493 0.497597 0.888143 0.02923
C_ C_ 1.000551652 0.446911 0.884819 -0.15533
C_ C_ 0.969046 0.407392 0.888279 -0.15533
C_ C_ 0.918162 0.418558 0.899384 0.02923
C_ C_ 0.899782 0.46915 0.907714 -0.15533
C_ C_ 0.927835 0.509984 0.897061 0.02923
C_ C_ 0.895005 0.0735345 0.878472 0.69207
C_ C_ 0.904777 0.321799 0.884929 0.69661
C_ C_ 0.575518 0.300175 0.586162 0.18167
C_ C_ 0.52738 0.282334 0.567544 -0.15533
C_ C_ 0.515887 0.270314 0.51519 0.02923
C_ C_ 0.540281 0.301834 0.993104 -0.15533
C_ C_ 0.596618 0.303708 0.50225 0.18167
C_ C_ 0.715345 0.273127 0.639305 0.18167
C_ C_ 0.737903 0.247146 0.682257 -0.15533
C_ C_ 0.736743 0.272302 0.731363 0.02923
C_ C_ 0.710697 0.321396 0.735801 -0.15533
C_ C_ 0.684746 0.34552 0.692387 0.18167
C_ C_ 0.744209 0.363602 0.549152 0.69207
C_ C_ 0.779777 0.374135 1.00673186 0.02923
C_ C_ 0.759233 0.376608 0.954343 -0.15533
C_ C_ 0.791995 0.371498 0.915814 -0.15533
C_ C_ 0.843771 0.381295 0.926409 0.02923
C_ C_ 0.861247 0.38989 0.9803 -0.15533
C_ C_ 0.831648 0.377042 0.0203872 0.02923
C_ C_ 0.852171 0.388302 0.573069 0.69207
C_ C_ 0.856112 0.391415 0.831075 0.69661
C_ C_ 0.806442 0.423152 0.692859 0.18167
C_ C_ 0.764178 0.449177 0.71323 -0.15533
C_ C_ 0.766342 0.496644 0.740309 0.02923
C_ C_ 0.831319 0.00802586 0.749281 -0.15533
C_ C_ 0.855077 0.491504 0.722196 0.18167
C_ C_ 0.986562 0.350684 0.695315 0.18167
C_ C_ 0.514279 0.308442 0.726503 -0.15533
C_ C_ 0.980898 0.271103 0.736346 0.02923
C_ C_ 0.927654 0.278107 0.722883 -0.15533
C_ C_ 0.906089 0.319625 0.693854 0.18167
C_ C_ 0.983316 0.452016 0.624683 0.69207
C_ C_ 0.526963 0.995263 0.61747 0.02923
C_ C_ 0.508328 0.0469503 0.62685 -0.15533
C_ C_ 0.537732 0.0854374 0.617466 -0.15533
C_ C_ 0.589133 0.0723015 0.605588 0.02923
C_ C_ 0.608113 0.0201927 0.594008 -0.15533
C_ C_ 0.579208 0.981606 0.608459 0.02923
C_ C_ 0.59378 0.427201 0.599417 0.69207
C_ C_ 0.607684 0.167106 0.617577 0.69661
C_ C_ 0.932958 0.179778 0.929173 0.18167
C_ C_ 0.974866 0.204046 0.953021 -0.15533
C_ C_ 0.970556 0.238063 -0.005036999999999958 0.02923
C_ C_ 0.921815 0.258364 0.506522 -0.15533
C_ C_ 0.88264 0.222863 0.990446 0.18167
C_ C_ 0.760384 0.209401 0.859391 0.18167
C_ C_ 0.733099 0.238047 0.818155 -0.15533
C_ C_ 0.76054 0.245833 0.777232 0.02923
C_ C_ 0.81344 0.22782 0.777963 -0.15533
C_ C_ 0.837524 0.207244 0.820889 0.18167
C_ C_ 0.766918 0.118206 0.949142 0.69207
C_ C_ 0.72879 0.118944 0.496075 0.02923
C_ C_ 0.751902 0.121464 0.547998 -0.15533
C_ C_ 0.720642 0.120463 0.587852 -0.15533
C_ C_ 0.669103 0.108078 0.577536 0.02923
C_ C_ 0.648969 0.10642 0.526351 -0.15533
C_ C_ 0.67682 0.114577 0.485627 0.02923
C_ C_ 0.653866 0.10573 0.923566 0.69207
C_ C_ 0.653335 0.0984094 0.6702 0.69661
C_ C_ 0.882381 0.377587 0.886496 -0.30787
C_ C_ 0.629893 0.110432 0.618662 -0.30787
N_ N_ 0.65043 0.0580177 0.81589 -0.32189
N_ N_ 0.561742 0.146314 0.818014 -0.32189
N_ N_ 0.606389 0.313155 0.553363 -0.32189
N_ N_ 0.691512 0.322485 0.646141 -0.32189
N_ N_ 0.850403 0.447618 0.693074 -0.32189
N_ N_ 0.934515 0.35767 0.683992 -0.32189
N_ N_ 0.889516 0.188609 0.949104 -0.32189
N_ N_ 0.81038 0.192423 0.857619 -0.32189
O_ O_ 0.000106219 0.0977667 0.887585 -0.63271
O_ O_ 0.548582 0.0392216 0.827652 -0.57982
O_ O_ 0.889633 0.0991948 0.836942 -0.63271
O_ O_ 0.868609 0.0892513 0.915034 -0.57982
O_ O_ 0.742669 0.394835 0.58958 -0.63271
O_ O_ 0.707657 0.33554 0.539107 -0.57982
O_ O_ 0.858664 0.34286 0.595398 -0.63271
O_ O_ 0.874219 0.42681 0.59127 -0.57982
O_ O_ 0.484786 0.414725 0.593717 -0.63271
O_ O_ 0.94709 0.465517 0.653659 -0.57982
O_ O_ 0.583537 0.399516 0.636916 -0.63271
O_ O_ 0.637563 0.417273 0.580117 -0.57982
O_ O_ 0.762567 0.0972065 0.902913 -0.63271
O_ O_ 0.794419 0.155932 0.958078 -0.57982
O_ O_ 0.656458 0.149597 0.901629 -0.63271
O_ O_ 0.6146 0.0807473 0.909896 -0.57982
F_ F_ 0.938917 0.315505 0.927767 -0.20885
F_ F_ 0.923434 0.306051 0.838031 -0.20885
F_ F_ 0.869026 0.289198 0.889379 -0.20885
F_ F_ 0.825457 0.437075 0.829684 -0.20885
F_ F_ 0.828969 0.35437 0.80797 -0.20885
F_ F_ 0.893449 0.396146 0.800226 -0.20885
F_ F_ 0.579098 0.176607 0.572585 -0.20885
F_ F_ 0.580011 0.183692 0.658642 -0.20885
F_ F_ 0.644865 0.20003 0.622533 -0.20885
F_ F_ 0.682297 0.0523588 0.673249 -0.20885
F_ F_ 0.685947 0.132154 0.691193 -0.20885
F_ F_ 0.61599 0.100748 0.70361 -0.20885
Zn Zn 0.58286 0.589345 0.337433 0.83971
Zn Zn 0.661545 0.84701 0.0863648 0.83971
Zn Zn 0.9111 0.923306 0.154271 0.83971
Zn Zn 0.838953 0.664702 0.4192 0.83971
H_ H_ 0.666916 0.628966 0.298224 0.10394
H_ H_ 0.749613 0.591815 0.272027 0.10394
H_ H_ 0.702206 0.948334 0.284417 0.10394
H_ H_ 0.633081 0.483094 0.331267 0.10394
H_ H_ 0.0152907 0.600405 0.254601 0.10394
H_ H_ 0.997297 0.674864 0.196695 0.10394
H_ H_ 0.509839 0.768158 0.327161 0.10394
H_ H_ 0.554902 0.691349 0.369677 0.10394
H_ H_ 0.532486 0.954807 0.382716 0.10394
H_ H_ 0.977361 0.876509 0.365927 0.10394
H_ H_ 0.851207 0.990742 0.395435 0.10394
H_ H_ 0.5909 0.80533 0.139305 0.10394
H_ H_ 1.00159628 0.776554 0.0918476 0.10394
H_ H_ 0.541013 0.78501 0.439347 0.10394
H_ H_ 0.618135 0.820844 0.985375 0.10394
H_ H_ 0.718832 0.752802 0.102378 0.10394
H_ H_ 0.755666 0.706215 0.177824 0.10394
H_ H_ 0.711935 0.841671 0.271184 0.10394
H_ H_ 0.674919 0.886227 0.192487 0.10394
H_ H_ 0.719478 0.865786 0.440594 0.10394
H_ H_ 0.766406 0.89725 0.377346 0.10394
H_ H_ 0.897606 0.895503 0.485742 0.10394
H_ H_ 0.812103 0.897245 0.163435 0.10394
H_ H_ 0.734189 0.938223 0.200636 0.10394
H_ H_ 0.827226 0.543838 0.281845 0.10394
H_ H_ 0.901126 1.0101623 0.23623 0.10394
H_ H_ 0.511937 0.880322 0.184724 0.10394
H_ H_ 0.546271 0.804792 0.24001 0.10394
H_ H_ 0.908927 0.747656 0.219557 0.10394
H_ H_ 0.869656 0.827468 0.181032 0.10394
H_ H_ 0.964 0.548275 0.13919 0.10394
H_ H_ 0.520572 0.622755 0.118238 0.10394
H_ H_ 0.637676 0.505149 0.0943342 0.10394
H_ H_ 0.942311 0.667126 0.403172 0.10394
H_ H_ 0.510944 0.695184 0.44053 0.10394
H_ H_ 0.916955 0.766428 0.0454629 0.10394
H_ H_ 0.843551 0.742355 0.507655 0.10394
H_ H_ 0.731582 0.706479 0.388384 0.10394
H_ H_ 0.687566 0.751708 0.316229 0.10394
H_ H_ 0.833845 0.73497 0.255885 0.10394
H_ H_ 0.870777 0.694797 0.330621 0.10394
H_ H_ 0.784277 0.611969 0.0472303 0.10394
H_ H_ 0.733136 0.59615 0.112372 0.10394
H_ H_ 0.60572 0.588882 0.000279938 0.10394
C_ C_ 0.674304 0.588284 0.293664 0.18167
C_ C_ 0.720385 0.568587 0.275924 -0.15533
C_ C_ 0.733621 0.515774 0.275611 0.02923
C_ C_ 0.693628 0.989565 0.287043 -0.15533
C_ C_ 0.656765 0.505496 0.312209 0.18167
C_ C_ 0.513125 0.633587 0.26125 0.18167
C_ C_ 0.00370212 0.68335 0.238635 -0.15533
C_ C_ 0.489403 0.724097 0.258005 0.02923
C_ C_ 0.51356 0.730068 0.308302 -0.15533
C_ C_ 0.541875 0.68764 0.33048 0.18167
C_ C_ 0.497902 0.556456 0.360286 0.69207
C_ C_ 0.973305 0.00653318 0.375492 0.02923
C_ C_ -0.00906499999999999 0.954292 0.370162 -0.15533
C_ C_ 0.96005 0.915897 0.372085 -0.15533
C_ C_ 0.90991 0.929712 0.390703 0.02923
C_ C_ 0.892916 0.981601 0.39697 -0.15533
C_ C_ 0.923316 0.0205174 0.386837 0.02923
C_ C_ 0.888404 0.577066 0.384713 0.69207
C_ C_ 0.899035 0.828854 0.383827 0.69661
C_ C_ 0.57888 0.799022 0.0967547 0.18167
C_ C_ 0.529749 0.785724 0.0775503 -0.15533
C_ C_ 0.521308 0.770322 0.0257605 0.02923
C_ C_ 0.548995 0.785586 0.481171 -0.15533
C_ C_ 0.598497 0.803789 0.0112304 0.18167
C_ C_ 0.718672 0.770684 0.139739 0.18167
C_ C_ 0.738838 0.746826 0.182144 -0.15533
C_ C_ 0.73261 0.771209 0.228613 0.02923
C_ C_ 0.710467 0.820544 0.23324 -0.15533
C_ C_ 0.692164 0.845736 0.187949 0.18167
C_ C_ 0.742853 0.869783 0.0456265 0.69207
C_ C_ 0.779767 0.871904 0.504645 0.02923
C_ C_ 0.756395 0.876981 0.45308 -0.15533
C_ C_ 0.784681 0.886771 0.415134 -0.15533
C_ C_ 0.838235 0.891463 0.424934 0.02923
C_ C_ 0.859671 0.890896 0.474845 -0.15533
C_ C_ 0.831116 0.883356 0.515723 0.02923
C_ C_ 0.855782 0.891525 0.0689919 0.69207
C_ C_ 0.848055 0.890217 0.330479 0.69661
C_ C_ 0.814261 0.932356 0.187152 0.18167
C_ C_ 0.770164 0.955163 0.208304 -0.15533
C_ C_ 0.772869 0.997816 0.243096 0.02923
C_ C_ 0.824314 0.511409 0.257095 -0.15533
C_ C_ 0.86161 0.998974 0.22521 0.18167
C_ C_ 0.99044 0.858278 0.197747 0.18167
C_ C_ 0.504928 0.81148 0.227855 -0.15533
C_ C_ 0.987312 0.776236 0.233951 0.02923
C_ C_ 0.934149 0.779293 0.218779 -0.15533
C_ C_ 0.910177 0.821916 0.192127 0.18167
C_ C_ 0.992254 0.955299 0.119866 0.69207
C_ C_ 0.511555 0.495344 0.104003 0.02923
C_ C_ 0.495565 0.547803 0.106461 -0.15533
C_ C_ 0.531174 0.584025 0.107385 -0.15533
C_ C_ 0.581489 0.570437 0.0932954 0.02923
C_ C_ 0.597366 0.517356 0.0957439 -0.15533
C_ C_ 0.564674 0.480192 0.099091 0.02923
C_ C_ 0.596536 0.93173 0.115368 0.69207
C_ C_ 0.606721 0.665443 0.0972493 0.69661
C_ C_ 0.936381 0.689005 0.43756 0.18167
C_ C_ 0.978878 0.707498 0.467655 -0.15533
C_ C_ 0.971887 0.746283 0.506486 0.02923
C_ C_ 0.926066 0.742384 1.0132415 -0.15533
C_ C_ 0.882236 0.735187 0.492848 0.18167
C_ C_ 0.753051 0.71469 0.360037 0.18167
C_ C_ 0.728045 0.737249 0.31702 -0.15533
C_ C_ 0.756094 0.746964 0.277441 0.02923
C_ C_ 0.807416 0.734889 0.282939 -0.15533
C_ C_ 0.831673 0.707243 0.326395 0.18167
C_ C_ 0.756724 0.629445 0.449417 0.69207
C_ C_ 0.725129 0.61656 0.983847 0.02923
C_ C_ 0.744473 0.613662 0.036399 -0.15533
C_ C_ 0.715387 0.604643 0.0753001 -0.15533
C_ C_ 0.664299 0.596024 0.0621303 0.02923
C_ C_ 0.645201 0.595983 0.0094406 -0.15533
C_ C_ 0.675332 0.604389 0.971585 0.02923
C_ C_ 0.649407 0.609749 0.415128 0.69207
C_ C_ 0.646304 0.607118 0.16171 0.69661
C_ C_ 0.873755 0.886025 0.383094 -0.30787
C_ C_ 0.624573 0.608589 0.102404 -0.30787
N_ N_ 0.640664 0.555922 0.305257 -0.32189
N_ N_ 0.544246 0.641814 0.304551 -0.32189
N_ N_ 0.610715 0.807339 0.0626558 -0.32189
N_ N_ 0.69264 0.818526 0.142943 -0.32189
N_ N_ 0.85807 0.956085 0.192778 -0.32189
N_ N_ 0.93971 0.860879 0.184519 -0.32189
N_ N_ 0.889406 0.700831 0.451465 -0.32189
N_ N_ 0.80422 0.701124 0.36483 -0.32189
O_ O_ -0.006182000000000021 0.594838 0.390269 -0.63271
O_ O_ 0.536467 0.54404 0.3318 -0.57982
O_ O_ 0.887509 0.600084 0.341929 -0.63271
O_ O_ 0.863504 0.599819 0.419292 -0.57982
O_ O_ 0.751314 0.891965 0.0895809 -0.63271
O_ O_ 0.702401 0.845147 0.0341828 -0.57982
O_ O_ 0.858211 0.846647 0.0914097 -0.63271
O_ O_ 0.884844 0.925899 0.0868069 -0.57982
O_ O_ 0.488348 0.918382 0.0916983 -0.63271
O_ O_ 0.959768 0.966285 0.154511 -0.57982
O_ O_ 0.593086 0.905878 0.156776 -0.63271
O_ O_ 0.632306 0.914994 0.0870742 -0.57982
O_ O_ 0.758229 0.604403 0.404813 -0.63271
O_ O_ 0.792317 0.658693 0.464864 -0.57982
O_ O_ 0.654533 0.650352 0.39086 -0.63271
O_ O_ 0.609132 0.586835 0.400685 -0.57982
F_ F_ 0.935071 0.82119 0.423878 -0.20885
F_ F_ 0.923442 0.81022 0.339596 -0.20885
F_ F_ 0.865059 0.792147 0.385551 -0.20885
F_ F_ 0.822934 0.939296 0.321442 -0.20885
F_ F_ 0.813073 0.856944 0.316286 -0.20885
F_ F_ 0.880132 0.885577 0.292315 -0.20885
F_ F_ 0.581765 0.67798 0.0509569 -0.20885
F_ F_ 0.574658 0.686276 0.1331 -0.20885
F_ F_ 0.647128 0.695114 0.105458 -0.20885
F_ F_ 0.669941 0.560392 0.170196 -0.20885
F_ F_ 0.678399 0.643668 0.183086 -0.20885
F_ F_ 0.608363 0.607587 0.194251 -0.20885
Zn Zn 0.578481 0.578671 0.838233 0.83971
Zn Zn 0.660442 0.843749 0.5827 0.83971
Zn Zn 0.910394 0.907741 0.65272 0.83971
Zn Zn 0.840483 0.644723 0.913056 0.83971
H_ H_ 0.65238 0.627945 0.797463 0.10394
H_ H_ 0.72861 0.600805 0.758617 0.10394
H_ H_ 0.718212 0.945565 0.792192 0.10394
H_ H_ 0.619439 0.479644 0.811197 0.10394
H_ H_ 0.0160711 0.589266 0.758643 0.10394
H_ H_ 0.979247 0.66106 0.708675 0.10394
H_ H_ 0.539572 0.766581 0.829651 0.10394
H_ H_ 0.567244 0.687818 0.872342 0.10394
H_ H_ 0.546981 0.950818 0.881619 0.10394
H_ H_ 0.987305 0.888603 0.908179 0.10394
H_ H_ 0.850709 0.989473 0.88987 0.10394
H_ H_ 0.574431 0.808714 0.628411 0.10394
H_ H_ 0.00387513 0.768472 0.609079 0.10394
H_ H_ 0.545559 0.775509 0.949148 0.10394
H_ H_ 0.618677 0.818741 0.479214 0.10394
H_ H_ 0.704756 0.732917 0.59323 0.10394
H_ H_ 0.743574 0.687428 0.670496 0.10394
H_ H_ 0.723103 0.827407 0.76089 0.10394
H_ H_ 0.683655 0.870519 0.682776 0.10394
H_ H_ 0.723016 0.850864 0.942413 0.10394
H_ H_ 0.779225 0.864212 0.875633 0.10394
H_ H_ 0.893219 0.919444 0.988469 0.10394
H_ H_ 0.803255 0.891465 0.664194 0.10394
H_ H_ 0.730859 0.943831 0.695865 0.10394
H_ H_ 0.82367 0.5437 0.775599 0.10394
H_ H_ 0.905145 0.99912 0.722881 0.10394
H_ H_ 0.518699 0.891493 0.709566 0.10394
H_ H_ 0.561854 0.808684 0.748984 0.10394
H_ H_ 0.902984 0.747256 0.73645 0.10394
H_ H_ 0.870092 0.821492 0.684861 0.10394
H_ H_ 0.962199 0.552979 0.629481 0.10394
H_ H_ 0.509296 0.623304 0.606388 0.10394
H_ H_ 0.635545 0.509902 0.578754 0.10394
H_ H_ 0.950648 0.657102 0.894417 0.10394
H_ H_ 0.519999 0.691316 0.952747 0.10394
H_ H_ 0.916199 0.786722 0.550383 0.10394
H_ H_ 0.851376 0.711562 1.00681518 0.10394
H_ H_ 0.757721 0.7157 0.893425 0.10394
H_ H_ 0.711182 0.756273 0.818401 0.10394
H_ H_ 0.831188 0.6951 0.728116 0.10394
H_ H_ 0.880161 0.65735 0.802812 0.10394
H_ H_ 0.78204 0.609617 0.550449 0.10394
H_ H_ 0.720699 0.607891 0.613134 0.10394
H_ H_ 0.599392 0.591184 0.496486 0.10394
C_ C_ 0.665017 0.588457 0.794583 0.18167
C_ C_ 0.708161 0.571686 0.772988 -0.15533
C_ C_ 0.724653 0.517211 0.770304 0.02923
C_ C_ 0.707874 0.985039 0.795222 -0.15533
C_ C_ 0.646196 0.50429 0.804441 0.18167
C_ C_ 0.526953 0.632111 0.761202 0.18167
C_ C_ 0.0001500000000000945 0.667686 0.744798 -0.15533
C_ C_ 0.510193 0.724294 0.759489 0.02923
C_ C_ 0.537594 0.730001 0.80858 -0.15533
C_ C_ 0.554624 0.68534 0.833225 0.18167
C_ C_ 0.503478 0.539176 0.867484 0.69207
C_ C_ 0.975473 0.0117766 0.8821 0.02923
C_ C_ -0.0025479999999999947 0.962854 0.89616 -0.15533
C_ C_ 0.966063 0.925647 0.898964 -0.15533
C_ C_ 0.912522 0.933423 0.896299 0.02923
C_ C_ 0.890927 0.983754 0.891489 -0.15533
C_ C_ 0.92084 0.0222614 0.880206 0.02923
C_ C_ 0.904274 0.562422 0.891902 0.69207
C_ C_ 0.908663 0.835448 0.893748 0.69661
C_ C_ 0.566978 0.805725 0.585222 0.18167
C_ C_ 0.524612 0.780383 0.565967 -0.15533
C_ C_ 0.51263 0.77367 0.513858 0.02923
C_ C_ 0.553249 0.782665 0.991369 -0.15533
C_ C_ 0.595184 0.802652 0.501676 0.18167
C_ C_ 0.712639 0.75306 0.629163 0.18167
C_ C_ 0.733852 0.72749 0.672612 -0.15533
C_ C_ 0.74143 0.754962 0.720224 0.02923
C_ C_ 0.721305 0.806192 0.723465 -0.15533
C_ C_ 0.700925 0.830736 0.678533 0.18167
C_ C_ 0.746153 0.862704 0.547185 0.69207
C_ C_ 0.775386 0.880366 1.00408933 0.02923
C_ C_ 0.759921 0.869644 0.951903 -0.15533
C_ C_ 0.79183 0.873279 0.913431 -0.15533
C_ C_ 0.838326 0.892848 0.926138 0.02923
C_ C_ 0.85314 0.910388 0.977426 -0.15533
C_ C_ 0.826146 0.898258 0.0172863 0.02923
C_ C_ 0.85504 0.879734 0.569196 0.69207
C_ C_ 0.856638 0.89005 0.829616 0.69661
C_ C_ 0.809369 0.926208 0.683816 0.18167
C_ C_ 0.768768 0.953965 0.706162 -0.15533
C_ C_ 0.780958 -0.005264000000000046 0.741976 0.02923
C_ C_ 0.814439 0.514706 0.745431 -0.15533
C_ C_ 0.867333 0.982576 0.722969 0.18167
C_ C_ 0.988972 0.845453 0.701741 0.18167
C_ C_ 0.521052 0.812929 0.733655 -0.15533
C_ C_ 0.981506 0.766072 0.73718 0.02923
C_ C_ 0.928238 0.77412 0.723338 -0.15533
C_ C_ 0.909493 0.815267 0.695977 0.18167
C_ C_ 0.98517 0.950343 0.625116 0.69207
C_ C_ 0.51865 0.494612 0.613264 0.02923
C_ C_ 0.500728 0.546171 0.618329 -0.15533
C_ C_ 0.526413 0.58278 0.600957 -0.15533
C_ C_ 0.576794 0.570691 0.587194 0.02923
C_ C_ 0.595807 0.518161 0.586747 -0.15533
C_ C_ 0.569034 0.480414 0.6011 0.02923
C_ C_ 0.601655 0.927567 0.612594 0.69207
C_ C_ 0.589621 0.666568 0.585956 0.69661
C_ C_ 0.943685 0.677388 0.929751 0.18167
C_ C_ 0.983494 0.70033 0.955025 -0.15533
C_ C_ 0.972667 0.739949 0.991829 0.02923
C_ C_ 0.923427 0.759693 0.51922 -0.15533
C_ C_ 0.889239 0.708844 0.99129 0.18167
C_ C_ 0.775598 0.712155 0.856596 0.18167
C_ C_ 0.747989 0.734611 0.814231 -0.15533
C_ C_ 0.76723 0.729119 0.767197 0.02923
C_ C_ 0.816303 0.700853 0.763273 -0.15533
C_ C_ 0.841453 0.673686 0.805953 0.18167
C_ C_ 0.760504 0.628393 0.947408 0.69207
C_ C_ 0.721703 0.616182 0.485546 0.02923
C_ C_ 0.738858 0.614032 0.538173 -0.15533
C_ C_ 0.705979 0.611627 0.573708 -0.15533
C_ C_ 0.654963 0.60162 0.558148 0.02923
C_ C_ 0.638657 0.596144 0.50577 -0.15533
C_ C_ 0.669173 0.607761 0.468631 0.02923
C_ C_ 0.649317 0.601057 0.918637 0.69207
C_ C_ 0.631925 0.60937 0.654334 0.69661
C_ C_ 0.878495 0.888905 0.886197 -0.30787
C_ C_ 0.613213 0.611545 0.596583 -0.30787
N_ N_ 0.632081 0.554494 0.803354 -0.32189
N_ N_ 0.547483 0.63873 0.809908 -0.32189
N_ N_ 0.604074 0.810512 0.554023 -0.32189
N_ N_ 0.696031 0.804234 0.632867 -0.32189
N_ N_ 0.856893 0.941094 0.690668 -0.32189
N_ N_ 0.940736 0.848767 0.685077 -0.32189
N_ N_ 0.897055 0.680011 0.948037 -0.32189
N_ N_ 0.820667 0.681859 0.851634 -0.32189
O_ O_ 1.00920824 0.584016 0.900114 -0.63271
O_ O_ 0.534374 0.531649 0.829148 -0.57982
O_ O_ 0.905431 0.583358 0.849074 -0.63271
O_ O_ 0.874095 0.584153 0.925135 -0.57982
O_ O_ 0.747402 0.89214 0.589858 -0.63271
O_ O_ 0.703094 0.8421 0.533556 -0.57982
O_ O_ 0.848232 0.840385 0.595511 -0.63271
O_ O_ 0.877766 0.917473 0.59192 -0.57982
O_ O_ 0.499915 0.908782 0.597707 -0.63271
O_ O_ 0.947898 0.95717 0.654684 -0.57982
O_ O_ 0.596248 0.902206 0.652635 -0.63271
O_ O_ 0.638697 0.90994 0.583538 -0.57982
O_ O_ 0.760836 0.603582 0.902765 -0.63271
O_ O_ 0.79742 0.655514 0.958254 -0.57982
O_ O_ 0.650658 0.641639 0.892656 -0.63271
O_ O_ 0.612572 0.572429 0.903163 -0.57982
F_ F_ 0.930371 0.83124 0.944079 -0.20885
F_ F_ 0.946699 0.823832 0.862086 -0.20885
F_ F_ 0.877709 0.795757 0.887916 -0.20885
F_ F_ 0.816036 0.926689 0.826549 -0.20885
F_ F_ 0.838784 0.844506 0.808736 -0.20885
F_ F_ 0.893009 0.901166 0.79829 -0.20885
F_ F_ 0.559592 0.669962 0.540238 -0.20885
F_ F_ 0.562171 0.686629 0.623584 -0.20885
F_ F_ 0.627327 0.697887 0.582929 -0.20885
F_ F_ 0.661699 0.567831 0.670851 -0.20885
F_ F_ 0.661336 0.647161 0.670481 -0.20885
F_ F_ 0.591659 0.618129 0.686626 -0.20885
