_cell_length_a 26.508
_cell_length_b 26.37200000322088
_cell_length_c 26.311999743092066
_cell_angle_alpha 93.74100058972084
_cell_angle_beta 96.04100104955006
_cell_angle_gamma 83.6869992558723
_symmetry_space_group_name_H-M         'P 1'
_symmetry_Int_Tables_number            1
loop_
_symmetry_equiv_pos_as_xyz
   'x, y, z'
                         
loop_
_atom_site_label
_atom_site_type_symbol
_atom_site_fract_x 
_atom_site_fract_y
_atom_site_fract_z
_atom_site_charge
Zn Zn 0.0853121 0.0801403 0.34552 0.83971
Zn Zn 0.162784 0.342024 0.0868373 0.83971
Zn Zn 0.409607 0.418333 0.153144 0.83971
Zn Zn 0.34701 0.149822 0.419999 0.83971
H_ H_ 0.159265 0.131694 0.30405 0.10394
H_ H_ 0.238512 0.105589 0.259728 0.10394
H_ H_ 0.233407 0.452683 0.316515 0.10394
H_ H_ 0.136973 0.981562 0.328531 0.10394
H_ H_ 0.536883 0.098391 0.24512 0.10394
H_ H_ 0.492251 0.169452 0.197 0.10394
H_ H_ 0.0246424 0.263109 0.335247 0.10394
H_ H_ 0.0580428 0.182611 0.378744 0.10394
H_ H_ 0.022347 0.441717 0.351629 0.10394
H_ H_ 0.48811 0.378402 0.390086 0.10394
H_ H_ 0.355951 0.484762 0.402626 0.10394
H_ H_ 0.0752072 0.315479 0.128567 0.10394
H_ H_ 0.495484 0.265297 0.0986633 0.10394
H_ H_ 0.0422841 0.283976 0.445322 0.10394
H_ H_ 0.136431 0.286732 0.983964 0.10394
H_ H_ 0.223748 0.247571 0.096422 0.10394
H_ H_ 0.271838 0.196575 0.169442 0.10394
H_ H_ 0.227425 0.325621 0.268318 0.10394
H_ H_ 0.177369 0.360601 0.202374 0.10394
H_ H_ 0.227276 0.339133 0.439855 0.10394
H_ H_ 0.279207 0.357081 0.372351 0.10394
H_ H_ 0.396366 0.409068 0.486454 0.10394
H_ H_ 0.30915 0.397416 0.166849 0.10394
H_ H_ 0.241718 0.436274 0.2175 0.10394
H_ H_ 0.33777 0.0447067 0.288554 0.10394
H_ H_ 0.394871 0.519217 0.211602 0.10394
H_ H_ 0.000199772 0.391968 0.227856 0.10394
H_ H_ 0.0464521 0.315134 0.255487 0.10394
H_ H_ 0.421962 0.243485 0.201573 0.10394
H_ H_ 0.376914 0.323101 0.181263 0.10394
H_ H_ 0.461719 0.0657708 0.132773 0.10394
H_ H_ 0.0168506 0.122325 0.107182 0.10394
H_ H_ 0.14597 0.0109436 0.104962 0.10394
H_ H_ 0.452885 0.118147 0.463834 0.10394
H_ H_ 0.0173567 0.182438 0.461565 0.10394
H_ H_ 0.418658 0.283852 0.0470005 0.10394
H_ H_ 0.341418 0.242836 0.487919 0.10394
H_ H_ 0.242621 0.190627 0.384178 0.10394
H_ H_ 0.208053 0.243581 0.307694 0.10394
H_ H_ 0.351985 0.222412 0.253431 0.10394
H_ H_ 0.389338 0.190851 0.335125 0.10394
H_ H_ 0.281048 0.119932 0.0538816 0.10394
H_ H_ 0.234482 0.0809979 0.112836 0.10394
H_ H_ 0.102918 0.0889724 -0.000617231 0.10394
C_ C_ 0.168643 0.0919479 0.292242 0.18167
C_ C_ 0.219195 0.075708 0.277665 -0.15533
C_ C_ 0.235265 0.0235679 0.276277 0.02923
C_ C_ 0.214205 0.488275 0.302606 -0.15533
C_ C_ 0.157699 0.00930573 0.311947 0.18167
C_ C_ 0.02487 0.129879 0.262986 0.18167
C_ C_ 0.511914 0.178085 0.235504 -0.15533
C_ C_ 0.00849134 0.222462 0.261058 0.02923
C_ C_ 0.0289323 0.226978 0.314647 -0.15533
C_ C_ 0.045488 0.182401 0.339525 0.18167
C_ C_ 0.00797947 0.0405697 0.371847 0.69207
C_ C_ 0.476264 0.505261 0.382627 0.02923
C_ C_ 0.499158 0.457609 0.39297 -0.15533
C_ C_ 0.470148 0.417278 0.395337 -0.15533
C_ C_ 0.41614 0.42444 0.397565 0.02923
C_ C_ 0.394565 0.474367 0.393587 -0.15533
C_ C_ 0.423245 0.515286 0.388448 0.02923
C_ C_ 0.395635 0.067151 0.382388 0.69207
C_ C_ 0.411431 0.327542 0.384936 0.69661
C_ C_ 0.0717772 0.30312 0.087257 0.18167
C_ C_ 0.0272089 0.286681 0.0669069 -0.15533
C_ C_ 0.0219337 0.265298 0.0145784 0.02923
C_ C_ 0.0484889 0.290514 0.486072 -0.15533
C_ C_ 0.106235 0.284358 0.00817952 0.18167
C_ C_ 0.228118 0.26278 0.134469 0.18167
C_ C_ 0.25513 0.235279 0.176191 -0.15533
C_ C_ 0.255192 0.257271 0.224434 0.02923
C_ C_ 0.232506 0.305803 0.232262 -0.15533
C_ C_ 0.20567 0.3318 0.19155 0.18167
C_ C_ 0.247644 0.363015 0.0474884 0.69207
C_ C_ 0.279302 0.367956 0.502115 0.02923
C_ C_ 0.262281 0.357945 0.450111 -0.15533
C_ C_ 0.294342 0.360076 0.411116 -0.15533
C_ C_ 0.342419 0.383007 0.422582 0.02923
C_ C_ 0.357962 0.394856 0.475908 -0.15533
C_ C_ 0.330418 0.380862 0.515307 0.02923
C_ C_ 0.3529 0.390209 0.0701658 0.69207
C_ C_ 0.358851 0.390089 0.327946 0.69661
C_ C_ 0.316237 0.429007 0.194162 0.18167
C_ C_ 0.277525 0.452433 0.221463 -0.15533
C_ C_ 0.283472 0.498484 0.250225 0.02923
C_ C_ 0.326995 0.013976 0.260445 -0.15533
C_ C_ 0.361595 0.501728 0.213809 0.18167
C_ C_ 0.49559 0.359869 0.205755 0.18167
C_ C_ 0.011064 0.311891 0.235948 -0.15533
C_ C_ 0.491688 0.272036 0.230232 0.02923
C_ C_ 0.441939 0.276389 0.212879 -0.15533
C_ C_ 0.417401 0.32057 0.19221 0.18167
C_ C_ 0.484043 0.455739 0.118484 0.69207
C_ C_ 0.0234223 0.992985 0.115214 0.02923
C_ C_ 0.0011900000000000244 0.0437047 0.114661 -0.15533
C_ C_ 0.0314212 0.081446 0.107914 -0.15533
C_ C_ 0.0835685 0.0708249 0.106245 0.02923
C_ C_ 0.104292 0.0193328 0.105017 -0.15533
C_ C_ 0.0751333 0.980084 0.111517 0.02923
C_ C_ 0.106192 0.423703 0.108684 0.69207
C_ C_ 0.0960674 0.165332 0.0909629 0.69661
C_ C_ 0.443824 0.158585 0.467616 0.18167
C_ C_ 0.481245 0.186887 0.490188 -0.15533
C_ C_ 0.471883 0.236796 0.511095 0.02923
C_ C_ 0.424099 0.250789 0.0176614 -0.15533
C_ C_ 0.380731 0.227469 0.493696 0.18167
C_ C_ 0.265767 0.197132 0.353889 0.18167
C_ C_ 0.244938 0.224196 0.310372 -0.15533
C_ C_ 0.27507 0.229436 0.272248 0.02923
C_ C_ 0.326975 0.218912 0.282513 -0.15533
C_ C_ 0.346964 0.19535 0.328241 0.18167
C_ C_ 0.266535 0.11264 0.451307 0.69207
C_ C_ 0.223013 0.115138 0.991572 0.02923
C_ C_ 0.245034 0.109624 0.0419967 -0.15533
C_ C_ 0.214804 0.0947295 0.0775901 -0.15533
C_ C_ 0.161644 0.0947575 0.0655531 0.02923
C_ C_ 0.143852 0.088082 0.0134046 -0.15533
C_ C_ 0.17398 0.100084 0.97532 0.02923
C_ C_ 0.150685 0.101401 0.422981 0.69207
C_ C_ 0.144078 0.11978 0.16033 0.69661
C_ C_ 0.381023 0.38237 0.383508 -0.30787
C_ C_ 0.120686 0.111771 0.103226 -0.30787
N_ N_ 0.139864 0.058742 0.311288 -0.32189
N_ N_ 0.0481112 0.137177 0.312839 -0.32189
N_ N_ 0.109757 0.306824 0.0581325 -0.32189
N_ N_ 0.203487 0.310392 0.143731 -0.32189
N_ N_ 0.359799 0.452925 0.192831 -0.32189
N_ N_ 0.445708 0.360678 0.189272 -0.32189
N_ N_ 0.393635 0.182708 0.465237 -0.32189
N_ N_ 0.316695 0.184305 0.363204 -0.32189
O_ O_ 0.494406 0.0935172 0.381621 -0.63271
O_ O_ 0.0429016 0.0324318 0.339424 -0.57982
O_ O_ 0.392079 0.0987754 0.344636 -0.63271
O_ O_ 0.369245 0.0822787 0.420137 -0.57982
O_ O_ 0.244715 0.397464 0.0866537 -0.63271
O_ O_ 0.211021 0.332764 0.0383461 -0.57982
O_ O_ 0.356275 0.349235 0.094311 -0.63271
O_ O_ 0.375534 0.427888 0.0910559 -0.57982
O_ O_ 1.00411986 0.408398 0.109889 -0.63271
O_ O_ 0.449522 0.466933 0.15152 -0.57982
O_ O_ 0.110021 0.402274 0.150807 -0.63271
O_ O_ 0.137324 0.406892 0.0762915 -0.57982
O_ O_ 0.261447 0.0919798 0.405012 -0.63271
O_ O_ 0.298754 0.146386 0.461415 -0.57982
O_ O_ 0.149532 0.143383 0.398268 -0.63271
O_ O_ 0.120661 0.0675776 0.407884 -0.57982
F_ F_ 0.444126 0.32441 0.429371 -0.20885
F_ F_ 0.442443 0.314995 0.346331 -0.20885
F_ F_ 0.38592 0.285569 0.387151 -0.20885
F_ F_ 0.324628 0.434167 0.321836 -0.20885
F_ F_ 0.33189 0.350616 0.308024 -0.20885
F_ F_ 0.394785 0.392098 0.294492 -0.20885
F_ F_ 0.0654314 0.161971 0.0420527 -0.20885
F_ F_ 0.067146 0.191801 0.129039 -0.20885
F_ F_ 0.134459 0.197037 0.0895342 -0.20885
F_ F_ 0.171571 0.0748566 0.178857 -0.20885
F_ F_ 0.180999 0.15421 0.164017 -0.20885
F_ F_ 0.108791 0.128643 0.193734 -0.20885
Zn Zn 0.0851981 0.0835333 0.841073 0.83971
Zn Zn 0.160825 0.344733 0.582721 0.83971
Zn Zn 0.409508 0.420659 0.653245 0.83971
Zn Zn 0.337333 0.152708 0.920203 0.83971
H_ H_ 0.174602 0.135618 0.808442 0.10394
H_ H_ 0.252359 0.0964675 0.775702 0.10394
H_ H_ 0.216456 0.453754 0.780374 0.10394
H_ H_ 0.135897 0.984378 0.827301 0.10394
H_ H_ 0.525886 0.10599 0.757619 0.10394
H_ H_ 0.477947 0.176099 0.709078 0.10394
H_ H_ 0.0330513 0.270234 0.824822 0.10394
H_ H_ 0.0637515 0.19579 0.874537 0.10394
H_ H_ 0.0266617 0.441259 0.860363 0.10394
H_ H_ 0.49035 0.383042 0.893911 0.10394
H_ H_ 0.35058 0.490557 0.894849 0.10394
H_ H_ 0.0824367 0.300547 0.632453 0.10394
H_ H_ 0.49456 0.27935 0.602989 0.10394
H_ H_ 0.0526986 0.263359 0.946296 0.10394
H_ H_ 0.125202 0.307814 0.48099 0.10394
H_ H_ 0.223553 0.251159 0.607479 0.10394
H_ H_ 0.258803 0.209465 0.686228 0.10394
H_ H_ 0.20157 0.336769 0.775473 0.10394
H_ H_ 0.172309 0.382899 0.694217 0.10394
H_ H_ 0.220761 0.359906 0.940665 0.10394
H_ H_ 0.281422 0.357408 0.87637 0.10394
H_ H_ 0.390045 0.422333 0.987154 0.10394
H_ H_ 0.303681 0.401084 0.657133 0.10394
H_ H_ 0.232565 0.441778 0.698332 0.10394
H_ H_ 0.332756 0.0440193 0.772642 0.10394
H_ H_ 0.394826 0.512585 0.73004 0.10394
H_ H_ 0.0100664 0.374974 0.681019 0.10394
H_ H_ 0.0511619 0.298605 0.728036 0.10394
H_ H_ 0.408258 0.253837 0.737852 0.10394
H_ H_ 0.365602 0.331294 0.692078 0.10394
H_ H_ 0.469936 0.056275 0.642127 0.10394
H_ H_ 0.0221348 0.122452 0.621633 0.10394
H_ H_ 0.141834 0.00689734 0.593721 0.10394
H_ H_ 0.43854 0.156322 0.902943 0.10394
H_ H_ 0.0173986 0.187206 0.945067 0.10394
H_ H_ 0.409555 0.295876 0.524862 0.10394
H_ H_ 0.346004 0.228448 0.0121131 0.10394
H_ H_ 0.234186 0.208254 0.899667 0.10394
H_ H_ 0.191642 0.251919 0.824481 0.10394
H_ H_ 0.332152 0.242771 0.759563 0.10394
H_ H_ 0.374237 0.191957 0.828891 0.10394
H_ H_ 0.284292 0.118049 0.555257 0.10394
H_ H_ 0.23306 0.104554 0.619329 0.10394
H_ H_ 0.10553 0.0905933 0.502359 0.10394
C_ C_ 0.181799 0.0933214 0.80415 0.18167
C_ C_ 0.225597 0.0732188 0.78251 -0.15533
C_ C_ 0.233719 0.0209912 0.77174 0.02923
C_ C_ 0.198662 0.491552 0.779855 -0.15533
C_ C_ 0.160709 0.00977703 0.813728 0.18167
C_ C_ 0.026421 0.134206 0.762679 0.18167
C_ C_ 0.499507 0.182951 0.745772 -0.15533
C_ C_ -0.000857684 0.22495 0.761062 0.02923
C_ C_ 0.0267053 0.232111 0.808744 -0.15533
C_ C_ 0.0494917 0.18828 0.834704 0.18167
C_ C_ 0.00750966 0.0421157 0.866409 0.69207
C_ C_ 0.472839 0.511183 0.882307 0.02923
C_ C_ 0.496424 0.460911 0.885539 -0.15533
C_ C_ 0.470877 0.420432 0.896642 -0.15533
C_ C_ 0.416679 0.428911 0.894161 0.02923
C_ C_ 0.393 0.480353 0.89782 -0.15533
C_ C_ 0.421942 0.519987 0.889025 0.02923
C_ C_ 0.392698 0.0746362 0.882106 0.69207
C_ C_ 0.407972 0.334208 0.878406 0.69661
C_ C_ 0.0743446 0.298362 0.589692 0.18167
C_ C_ 0.0275086 0.280431 0.570803 -0.15533
C_ C_ 0.0148198 0.274856 0.518114 0.02923
C_ C_ 0.0588037 0.273368 0.985349 -0.15533
C_ C_ 0.0974958 0.300289 0.506521 0.18167
C_ C_ 0.215717 0.269648 0.642942 0.18167
C_ C_ 0.237232 0.24569 0.689809 -0.15533
C_ C_ 0.232361 0.271706 0.737102 0.02923
C_ C_ 0.204242 0.319832 0.738084 -0.15533
C_ C_ 0.183085 0.342719 0.692734 0.18167
C_ C_ 0.244135 0.365422 0.543763 0.69207
C_ C_ 0.278788 0.370781 0.00463574 0.02923
C_ C_ 0.26104 0.362143 0.953036 -0.15533
C_ C_ 0.293112 0.367117 0.914703 -0.15533
C_ C_ 0.341376 0.384867 0.924993 0.02923
C_ C_ 0.355813 0.40198 0.976753 -0.15533
C_ C_ 0.328469 0.390922 0.0162368 0.02923
C_ C_ 0.351009 0.386379 0.57054 0.69207
C_ C_ 0.354312 0.393544 0.826628 0.69661
C_ C_ 0.305716 0.438075 0.676285 0.18167
C_ C_ 0.263442 0.4629 0.697511 -0.15533
C_ C_ 0.268148 0.510952 0.72816 0.02923
C_ C_ 0.325895 0.0113719 0.750239 -0.15533
C_ C_ 0.357581 0.497431 0.71898 0.18167
C_ C_ 0.487251 0.357081 0.698157 0.18167
C_ C_ 0.00917729 0.305351 0.722079 -0.15533
C_ C_ 0.483727 0.27605 0.734833 0.02923
C_ C_ 0.430562 0.280456 0.721256 -0.15533
C_ C_ 0.407843 0.322609 0.696447 0.18167
C_ C_ 0.488737 0.460475 0.629473 0.69207
C_ C_ 0.0219651 0.992934 0.615221 0.02923
C_ C_ 0.00350248 0.0447967 0.623381 -0.15533
C_ C_ 0.0334366 0.0826191 0.611119 -0.15533
C_ C_ 0.0847081 0.0703539 0.599812 0.02923
C_ C_ 0.101868 0.0184987 0.59713 -0.15533
C_ C_ 0.072629 0.979065 0.606686 0.02923
C_ C_ 0.0996733 0.426472 0.603287 0.69207
C_ C_ 0.0997369 0.165026 0.594763 0.69661
C_ C_ 0.433376 0.180081 0.936054 0.18167
C_ C_ 0.476586 0.204531 0.957397 -0.15533
C_ C_ 0.471576 0.238373 1.00025 0.02923
C_ C_ 0.418003 0.258187 0.511268 -0.15533
C_ C_ 0.384127 0.221807 0.998489 0.18167
C_ C_ 0.255247 0.210704 0.865458 0.18167
C_ C_ 0.228703 0.234564 0.823174 -0.15533
C_ C_ 0.256909 0.247245 0.784332 0.02923
C_ C_ 0.308859 0.232811 0.78595 -0.15533
C_ C_ 0.332692 0.20595 0.826349 0.18167
C_ C_ 0.256958 0.130239 0.956066 0.69207
C_ C_ 0.229998 0.105838 0.490367 0.02923
C_ C_ 0.244947 0.113361 0.541014 -0.15533
C_ C_ 0.212511 0.112821 0.58048 -0.15533
C_ C_ 0.162741 0.100147 0.567727 0.02923
C_ C_ 0.145518 0.0912205 0.515251 -0.15533
C_ C_ 0.175965 0.0980409 0.477075 0.02923
C_ C_ 0.149225 0.105043 0.923481 0.69207
C_ C_ 0.145138 0.114805 0.663701 0.69661
C_ C_ 0.378101 0.387215 0.883125 -0.30787
C_ C_ 0.12354 0.11135 0.606344 -0.30787
N_ N_ 0.146737 0.0597472 0.813253 -0.32189
N_ N_ 0.0482637 0.141636 0.811583 -0.32189
N_ N_ 0.106925 0.311129 0.557629 -0.32189
N_ N_ 0.188997 0.316393 0.646666 -0.32189
N_ N_ 0.353912 0.454537 0.688286 -0.32189
N_ N_ 0.435957 0.360743 0.686426 -0.32189
N_ N_ 0.388705 0.189812 0.954941 -0.32189
N_ N_ 0.304381 0.189934 0.862664 -0.32189
O_ O_ 0.505986 0.0891812 0.902865 -0.63271
O_ O_ 0.0476708 0.0320918 0.839649 -0.57982
O_ O_ 0.398487 0.104116 0.844429 -0.63271
O_ O_ 0.361794 0.0918894 0.916018 -0.57982
O_ O_ 0.247495 0.393434 0.586339 -0.63271
O_ O_ 0.210312 0.330934 0.538508 -0.57982
O_ O_ 0.361368 0.344347 0.594625 -0.63271
O_ O_ 0.375833 0.424455 0.588675 -0.57982
O_ O_ 0.993551 0.403793 0.594354 -0.63271
O_ O_ 0.455347 0.469123 0.663845 -0.57982
O_ O_ 0.087292 0.40387 0.642059 -0.63271
O_ O_ 0.138791 0.409155 0.577222 -0.57982
O_ O_ 0.256982 0.104973 0.911763 -0.63271
O_ O_ 0.294419 0.156983 0.971486 -0.57982
O_ O_ 0.153789 0.148234 0.902293 -0.63271
O_ O_ 0.107174 0.0828472 0.909232 -0.57982
F_ F_ 0.434441 0.318927 0.92352 -0.20885
F_ F_ 0.444469 0.327993 0.841299 -0.20885
F_ F_ 0.375022 0.297409 0.873016 -0.20885
F_ F_ 0.312343 0.429239 0.822461 -0.20885
F_ F_ 0.339218 0.350759 0.802495 -0.20885
F_ F_ 0.388764 0.411887 0.799958 -0.20885
F_ F_ 0.0625087 0.160807 0.553281 -0.20885
F_ F_ 0.0760775 0.192817 0.634109 -0.20885
F_ F_ 0.136088 0.19453 0.582176 -0.20885
F_ F_ 0.176404 0.0717322 0.675238 -0.20885
F_ F_ 0.173041 0.154054 0.679009 -0.20885
F_ F_ 0.108599 0.117374 0.697105 -0.20885
Zn Zn 0.0880213 0.580054 0.341388 0.83971
Zn Zn 0.162101 0.846236 0.0873649 0.83971
Zn Zn 0.407293 0.916821 0.160397 0.83971
Zn Zn 0.341711 0.652256 0.417118 0.83971
H_ H_ 0.166522 0.629105 0.300966 0.10394
H_ H_ 0.252201 0.600738 0.27922 0.10394
H_ H_ 0.221846 0.948886 0.295617 0.10394
H_ H_ 0.141 0.476956 0.329793 0.10394
H_ H_ 0.512631 0.599764 0.25682 0.10394
H_ H_ 0.487606 0.672996 0.204757 0.10394
H_ H_ 0.0214582 0.761506 0.333833 0.10394
H_ H_ 0.0532668 0.681764 0.382555 0.10394
H_ H_ 0.0251018 0.938251 0.351029 0.10394
H_ H_ 0.489902 0.874724 0.37401 0.10394
H_ H_ 0.362225 0.980361 0.409698 0.10394
H_ H_ 0.0827529 0.806315 0.132106 0.10394
H_ H_ 0.498903 0.779181 0.0933063 0.10394
H_ H_ 0.0399302 0.781066 0.445194 0.10394
H_ H_ 0.115561 0.830018 0.984505 0.10394
H_ H_ 0.229199 0.753618 0.0997534 0.10394
H_ H_ 0.274722 0.709235 0.174775 0.10394
H_ H_ 0.213919 0.827411 0.274741 0.10394
H_ H_ 0.164483 0.868965 0.203737 0.10394
H_ H_ 0.223478 0.860379 0.432017 0.10394
H_ H_ 0.277362 0.883445 0.373552 0.10394
H_ H_ 0.403479 0.894362 0.486646 0.10394
H_ H_ 0.304117 0.903492 0.163021 0.10394
H_ H_ 0.231186 0.959584 0.195751 0.10394
H_ H_ 0.334974 0.558321 0.267082 0.10394
H_ H_ 0.403972 0.004050000000000109 0.239054 0.10394
H_ H_ 0.011286 0.883376 0.211861 0.10394
H_ H_ 0.0544721 0.806481 0.248482 0.10394
H_ H_ 0.416503 0.740074 0.208428 0.10394
H_ H_ 0.377445 0.815854 0.173737 0.10394
H_ H_ 0.468101 0.561119 0.125202 0.10394
H_ H_ 0.0280692 0.619203 0.131197 0.10394
H_ H_ 0.150528 0.503073 0.0916198 0.10394
H_ H_ 0.444335 0.670612 0.391248 0.10394
H_ H_ 0.0113618 0.697756 0.451733 0.10394
H_ H_ 0.416788 0.775333 0.0444345 0.10394
H_ H_ 0.347051 0.722605 0.502153 0.10394
H_ H_ 0.242488 0.689143 0.380168 0.10394
H_ H_ 0.199897 0.734316 0.307165 0.10394
H_ H_ 0.347056 0.735965 0.255199 0.10394
H_ H_ 0.382628 0.68358 0.323629 0.10394
H_ H_ 0.289189 0.623867 0.0482096 0.10394
H_ H_ 0.242315 0.601696 0.113828 0.10394
H_ H_ 0.113044 0.582776 0.00618611 0.10394
C_ C_ 0.177034 0.588937 0.297265 0.18167
C_ C_ 0.228014 0.571905 0.284352 -0.15533
C_ C_ 0.244158 0.520623 0.282141 0.02923
C_ C_ 0.206195 0.991034 0.297613 -0.15533
C_ C_ 0.164375 0.505557 0.315385 0.18167
C_ C_ 0.0400481 0.63294 0.262371 0.18167
C_ C_ 0.504549 0.676765 0.242331 -0.15533
C_ C_ 0.0125587 0.72043 0.260748 0.02923
C_ C_ 0.0255293 0.725305 0.31447 -0.15533
C_ C_ 0.0463387 0.680349 0.340397 0.18167
C_ C_ 0.00152219 0.545471 0.3557 0.69207
C_ C_ 0.472693 0.0034885 0.367702 0.02923
C_ C_ 0.494628 0.952969 0.364623 -0.15533
C_ C_ 0.469916 0.911963 0.377905 -0.15533
C_ C_ 0.419307 0.922581 0.389539 0.02923
C_ C_ 0.397056 0.973659 0.392667 -0.15533
C_ C_ 0.421201 0.0134631 0.378322 0.02923
C_ C_ 0.397481 0.568548 0.385885 0.69207
C_ C_ 0.413205 0.822795 0.390234 0.69661
C_ C_ 0.0753378 0.800517 0.089423 0.18167
C_ C_ 0.0283433 0.781431 0.0706252 -0.15533
C_ C_ 0.0173519 0.769882 0.0179172 0.02923
C_ C_ 0.0431384 0.790576 0.485113 -0.15533
C_ C_ 0.095902 0.808925 0.0061249 0.18167
C_ C_ 0.224015 0.769983 0.1384 0.18167
C_ C_ 0.24849 0.741592 0.182187 -0.15533
C_ C_ 0.248023 0.766137 0.229669 0.02923
C_ C_ 0.219079 0.812931 0.236279 -0.15533
C_ C_ 0.191564 0.83585 0.19459 0.18167
C_ C_ 0.243152 0.877829 0.0506863 0.69207
C_ C_ 0.280278 0.87176 0.498881 0.02923
C_ C_ 0.262071 0.869782 0.445294 -0.15533
C_ C_ 0.295588 0.878615 0.411184 -0.15533
C_ C_ 0.348987 0.884069 0.423981 0.02923
C_ C_ 0.364626 0.887251 0.475794 -0.15533
C_ C_ 0.332464 0.884799 0.514478 0.02923
C_ C_ 0.353255 0.881295 0.0714936 0.69207
C_ C_ 0.362549 0.878567 0.326494 0.69661
C_ C_ 0.309905 0.936028 0.188709 0.18167
C_ C_ 0.269661 0.96246 0.210188 -0.15533
C_ C_ 0.278937 1.000939346 0.248514 0.02923
C_ C_ 0.329761 0.519683 0.250804 -0.15533
C_ C_ 0.366917 0.988036 0.233694 0.18167
C_ C_ 0.490347 0.85672 0.21009 0.18167
C_ C_ 0.01351 0.805846 0.232873 -0.15533
C_ C_ 0.490759 0.768729 0.233016 0.02923
C_ C_ 0.441964 0.767345 0.203664 -0.15533
C_ C_ 0.418285 0.813276 0.185056 0.18167
C_ C_ 0.477322 0.959899 0.122148 0.69207
C_ C_ 0.0330648 0.492498 0.127292 0.02923
C_ C_ 0.0183569 0.54391 0.136363 -0.15533
C_ C_ 0.0476423 0.580666 0.125415 -0.15533
C_ C_ 0.0965019 0.568138 0.105807 0.02923
C_ C_ 0.111692 0.514345 0.0982355 -0.15533
C_ C_ 0.0808012 0.477393 0.108841 0.02923
C_ C_ 0.103083 0.928939 0.11837 0.69207
C_ C_ 0.110812 0.664161 0.10662 0.69661
C_ C_ 0.442001 0.683356 0.430634 0.18167
C_ C_ 0.484241 0.697484 0.462183 -0.15533
C_ C_ 0.475036 0.731395 0.50581 0.02923
C_ C_ 0.427417 0.749109 0.0139005 -0.15533
C_ C_ 0.386045 0.71865 0.491485 0.18167
C_ C_ 0.265142 0.696961 0.350536 0.18167
C_ C_ 0.241693 0.724888 0.309498 -0.15533
C_ C_ 0.27085 0.739566 0.273996 0.02923
C_ C_ 0.321063 0.718955 0.275911 -0.15533
C_ C_ 0.342929 0.6931 0.319417 0.18167
C_ C_ 0.258339 0.630003 0.454072 0.69207
C_ C_ 0.22727 0.620642 0.98809 0.02923
C_ C_ 0.249032 0.619217 0.0382133 -0.15533
C_ C_ 0.222829 0.60404 0.0766838 -0.15533
C_ C_ 0.170096 0.600691 0.0677008 0.02923
C_ C_ 0.151344 0.593228 0.0156931 -0.15533
C_ C_ 0.176567 0.607488 0.975542 0.02923
C_ C_ 0.148673 0.611046 0.424467 0.69207
C_ C_ 0.163837 0.607761 0.161867 0.69661
C_ C_ 0.387077 0.876445 0.383599 -0.30787
C_ C_ 0.134999 0.608659 0.111185 -0.30787
N_ N_ 0.144835 0.554783 0.308294 -0.32189
N_ N_ 0.0538609 0.636565 0.31373 -0.32189
N_ N_ 0.108321 0.810932 0.057518 -0.32189
N_ N_ 0.199599 0.816965 0.146839 -0.32189
N_ N_ 0.357695 0.949156 0.200248 -0.32189
N_ N_ 0.442671 0.85593 0.186495 -0.32189
N_ N_ 0.39525 0.688414 0.448727 -0.32189
N_ N_ 0.314889 0.684601 0.356685 -0.32189
O_ O_ 0.507254 0.589706 0.391729 -0.63271
O_ O_ 0.0439516 0.531897 0.332288 -0.57982
O_ O_ 0.397232 0.591955 0.343795 -0.63271
O_ O_ 0.363361 0.582826 0.416398 -0.57982
O_ O_ 0.242183 0.909517 0.0917569 -0.63271
O_ O_ 0.205997 0.846383 0.0418295 -0.57982
O_ O_ 0.349184 0.83856 0.0923342 -0.63271
O_ O_ 0.380528 0.913837 0.0967421 -0.57982
O_ O_ 0.986414 0.91225 0.096865 -0.63271
O_ O_ 0.446558 0.967289 0.157902 -0.57982
O_ O_ 0.0938914 0.902717 0.155937 -0.63271
O_ O_ 0.131371 0.907859 0.083314 -0.57982
O_ O_ 0.253898 0.60262 0.410791 -0.63271
O_ O_ 0.30071 0.650339 0.469138 -0.57982
O_ O_ 0.14618 0.655704 0.403516 -0.63271
O_ O_ 0.116873 0.576015 0.405756 -0.57982
F_ F_ 0.447403 0.820271 0.434346 -0.20885
F_ F_ 0.440942 0.803524 0.34863 -0.20885
F_ F_ 0.381234 0.786745 0.395853 -0.20885
F_ F_ 0.329627 0.920779 0.316228 -0.20885
F_ F_ 0.337675 0.837906 0.309879 -0.20885
F_ F_ 0.398215 0.880778 0.292859 -0.20885
F_ F_ 0.0748878 0.663413 0.0629877 -0.20885
F_ F_ 0.086276 0.68495 0.150621 -0.20885
F_ F_ 0.142612 0.700647 0.0955544 -0.20885
F_ F_ 0.194268 0.561118 0.172107 -0.20885
F_ F_ 0.193164 0.647624 0.17294 -0.20885
F_ F_ 0.132142 0.60988 0.199249 -0.20885
Zn Zn 0.0860896 0.588744 0.846041 0.83971
Zn Zn 0.158295 0.846927 0.579793 0.83971
Zn Zn 0.405398 0.911271 0.653985 0.83971
Zn Zn 0.34523 0.655621 0.90847 0.83971
H_ H_ 0.160363 0.634944 0.807767 0.10394
H_ H_ 0.239126 0.607302 0.767911 0.10394
H_ H_ 0.209301 0.94888 0.780275 0.10394
H_ H_ 0.137902 0.481915 0.828061 0.10394
H_ H_ 0.526008 0.59358 0.750387 0.10394
H_ H_ 0.477771 0.67045 0.710273 0.10394
H_ H_ 0.0560736 0.774771 0.819155 0.10394
H_ H_ 0.0819745 0.706313 0.871633 0.10394
H_ H_ 0.0352252 0.940883 0.874444 0.10394
H_ H_ 0.477962 0.87971 0.876538 0.10394
H_ H_ 0.349375 0.990285 0.903562 0.10394
H_ H_ 0.0731726 0.811022 0.631194 0.10394
H_ H_ 0.503257 0.762138 0.603793 0.10394
H_ H_ 0.039762 0.788404 0.94443 0.10394
H_ H_ 0.110794 0.823015 0.4784 0.10394
H_ H_ 0.21232 0.753583 0.589571 0.10394
H_ H_ 0.260236 0.700905 0.652975 0.10394
H_ H_ 0.217239 0.829226 0.765064 0.10394
H_ H_ 0.188307 0.880502 0.688975 0.10394
H_ H_ 0.214817 0.87582 0.945244 0.10394
H_ H_ 0.263386 0.89596 0.880995 0.10394
H_ H_ 0.398836 0.897176 0.989925 0.10394
H_ H_ 0.301439 0.886483 0.67339 0.10394
H_ H_ 0.22734 0.949005 0.694008 0.10394
H_ H_ 0.322473 0.557736 0.76585 0.10394
H_ H_ 0.407997 -0.009067000000000047 0.738003 0.10394
H_ H_ 0.0110799 0.888489 0.693799 0.10394
H_ H_ 0.054881 0.809893 0.727823 0.10394
H_ H_ 0.410724 0.757167 0.751187 0.10394
H_ H_ 0.368679 0.823179 0.694655 0.10394
H_ H_ 0.465747 0.557104 0.622069 0.10394
H_ H_ 0.00405669 0.612217 0.577607 0.10394
H_ H_ 0.139472 0.511414 0.58837 0.10394
H_ H_ 0.452216 0.671442 0.890062 0.10394
H_ H_ 0.0165544 0.7021 0.934807 0.10394
H_ H_ 0.420455 0.774018 0.548258 0.10394
H_ H_ 0.350434 0.728976 -0.0015159999999999618 0.10394
H_ H_ 0.241412 0.70192 0.880426 0.10394
H_ H_ 0.192327 0.731516 0.800005 0.10394
H_ H_ 0.331536 0.702307 0.726838 0.10394
H_ H_ 0.37717 0.683163 0.816994 0.10394
H_ H_ 0.275902 0.637744 0.559435 0.10394
H_ H_ 0.216282 0.625048 0.62625 0.10394
H_ H_ 0.0995417 0.587657 0.504473 0.10394
C_ C_ 0.166217 0.595522 0.793218 0.18167
C_ C_ 0.21327 0.579718 0.773044 -0.15533
C_ C_ 0.227251 0.527845 0.762508 0.02923
C_ C_ 0.203777 0.988279 0.791372 -0.15533
C_ C_ 0.155902 0.508778 0.806481 0.18167
C_ C_ 0.0247182 0.640382 0.772648 0.18167
C_ C_ 0.502683 0.675199 0.744786 -0.15533
C_ C_ 0.0106282 0.731391 0.760806 0.02923
C_ C_ 0.0403849 0.73977 0.806385 -0.15533
C_ C_ 0.0573973 0.698398 0.837274 0.18167
C_ C_ 0.0115399 0.545275 0.869488 0.69207
C_ C_ 0.468279 0.00770173 0.873002 0.02923
C_ C_ 0.487558 0.956572 0.870571 -0.15533
C_ C_ 0.457745 0.9167 0.873476 -0.15533
C_ C_ 0.406615 0.928383 0.883954 0.02923
C_ C_ 0.385539 0.98116 0.887658 -0.15533
C_ C_ 0.415116 0.0213584 0.883892 0.02923
C_ C_ 0.397945 0.573141 0.887093 0.69207
C_ C_ 0.402231 0.830084 0.886468 0.69661
C_ C_ 0.0670105 0.804757 0.589882 0.18167
C_ C_ 0.021074 0.784969 0.571179 -0.15533
C_ C_ 0.00827122 0.776602 0.518771 0.02923
C_ C_ 0.0501695 0.78965 0.986009 -0.15533
C_ C_ 0.0895686 0.808212 0.504565 0.18167
C_ C_ 0.218839 0.76959 0.626463 0.18167
C_ C_ 0.245035 0.740174 0.665262 -0.15533
C_ C_ 0.24226 0.757817 0.717397 0.02923
C_ C_ 0.219675 0.809981 0.726972 -0.15533
C_ C_ 0.198005 0.838089 0.685313 0.18167
C_ C_ 0.24059 0.872887 0.537471 0.69207
C_ C_ 0.274695 0.887496 0.00800582 0.02923
C_ C_ 0.254353 0.885017 0.956676 -0.15533
C_ C_ 0.284215 0.889056 0.919454 -0.15533
C_ C_ 0.337465 0.894122 0.928151 0.02923
C_ C_ 0.358889 0.893702 0.979158 -0.15533
C_ C_ 0.327545 0.891852 0.017808 0.02923
C_ C_ 0.356428 0.879281 0.569446 0.69207
C_ C_ 0.342906 0.88379 0.829053 0.69661
C_ C_ 0.309203 0.923294 0.689884 0.18167
C_ C_ 0.266967 0.956946 0.705435 -0.15533
C_ C_ 0.275012 0.99646947 0.741839 0.02923
C_ C_ 0.316527 0.525294 0.73905 -0.15533
C_ C_ 0.367427 0.980207 0.732247 0.18167
C_ C_ 0.492127 0.842631 0.691969 0.18167
C_ C_ 0.0139665 0.812723 0.71847 -0.15533
C_ C_ 0.484888 0.772 0.743153 0.02923
C_ C_ 0.433031 0.777151 0.729906 -0.15533
C_ C_ 0.410699 0.816978 0.700122 0.18167
C_ C_ 0.484796 0.952997 0.628228 0.69207
C_ C_ 0.0196233 0.488762 0.603104 0.02923
C_ C_ 0.996828 0.53821 0.599926 -0.15533
C_ C_ 0.0256214 0.579292 0.594513 -0.15533
C_ C_ 0.0779199 0.570302 0.591973 0.02923
C_ C_ 0.0992777 0.518757 0.589834 -0.15533
C_ C_ 0.07104 0.477148 0.59615 0.02923
C_ C_ 0.0963636 0.926593 0.608085 0.69207
C_ C_ 0.0856759 0.668435 0.600488 0.69661
C_ C_ 0.445396 0.690464 0.92672 0.18167
C_ C_ 0.483641 0.714435 0.950971 -0.15533
C_ C_ 0.475963 0.745104 -0.004541000000000017 0.02923
C_ C_ 0.425597 0.742153 0.519501 -0.15533
C_ C_ 0.389191 0.723793 0.986827 0.18167
C_ C_ 0.260743 0.704087 0.847879 0.18167
C_ C_ 0.232809 0.724008 0.802624 -0.15533
C_ C_ 0.261836 0.724135 0.759619 0.02923
C_ C_ 0.312855 0.702913 0.762021 -0.15533
C_ C_ 0.337747 0.687489 0.808603 0.18167
C_ C_ 0.265021 0.624544 0.948253 0.69207
C_ C_ 0.222537 0.622573 0.493486 0.02923
C_ C_ 0.238377 0.628006 0.546893 -0.15533
C_ C_ 0.203753 0.622605 0.58499 -0.15533
C_ C_ 0.154533 0.606422 0.569431 0.02923
C_ C_ 0.138424 0.601454 0.516105 -0.15533
C_ C_ 0.170808 0.609677 0.47911 0.02923
C_ C_ 0.150036 0.610869 0.925074 0.69207
C_ C_ 0.130133 0.607932 0.663445 0.69661
C_ C_ 0.371961 0.885656 0.88304 -0.30787
C_ C_ 0.11193 0.613972 0.605568 -0.30787
N_ N_ 0.138336 0.559992 0.809733 -0.32189
N_ N_ 0.0497707 0.651011 0.818787 -0.32189
N_ N_ 0.100474 0.816344 0.556183 -0.32189
N_ N_ 0.191432 0.813493 0.637953 -0.32189
N_ N_ 0.356953 0.940252 0.698183 -0.32189
N_ N_ 0.440791 0.850933 0.685427 -0.32189
N_ N_ 0.397131 0.697975 0.941434 -0.32189
N_ N_ 0.310949 0.6852 0.849585 -0.32189
O_ O_ 0.507877 0.594467 0.894778 -0.63271
O_ O_ 0.0477692 0.535949 0.839358 -0.57982
O_ O_ 0.401829 0.601207 0.848967 -0.63271
O_ O_ 0.362613 0.591719 0.916434 -0.57982
O_ O_ 0.247651 0.896029 0.581601 -0.63271
O_ O_ 0.199883 0.847292 0.526993 -0.57982
O_ O_ 0.347258 0.842247 0.597294 -0.63271
O_ O_ 0.38206 0.914836 0.591028 -0.57982
O_ O_ 0.987913 0.913357 0.598272 -0.63271
O_ O_ 0.450765 0.961332 0.659374 -0.57982
O_ O_ 0.09601 0.89831 0.647862 -0.63271
O_ O_ 0.132111 0.911867 0.578713 -0.57982
O_ O_ 0.252912 0.608218 0.900069 -0.63271
O_ O_ 0.297211 0.659899 0.956876 -0.57982
O_ O_ 0.152033 0.652471 0.899166 -0.63271
O_ O_ 0.114922 0.581235 0.910724 -0.57982
F_ F_ 0.434738 0.83242 0.931628 -0.20885
F_ F_ 0.430735 0.818465 0.843402 -0.20885
F_ F_ 0.367484 0.795295 0.885337 -0.20885
F_ F_ 0.30697 0.925693 0.822018 -0.20885
F_ F_ 0.317403 0.842172 0.811633 -0.20885
F_ F_ 0.377197 0.885551 0.793062 -0.20885
F_ F_ 0.0690355 0.674767 0.549158 -0.20885
F_ F_ 0.0495478 0.676923 0.634339 -0.20885
F_ F_ 0.116234 0.707915 0.615605 -0.20885
F_ F_ 0.162519 0.564004 0.670387 -0.20885
F_ F_ 0.154935 0.649163 0.681374 -0.20885
F_ F_ 0.0887054 0.608119 0.693656 -0.20885
Zn Zn 0.584238 0.090084 0.348853 0.83971
Zn Zn 0.661303 0.342184 0.0847691 0.83971
Zn Zn 0.913513 0.416549 0.157716 0.83971
Zn Zn 0.838687 0.153055 0.419356 0.83971
H_ H_ 0.670023 0.135491 0.307257 0.10394
H_ H_ 0.743079 0.0962443 0.261602 0.10394
H_ H_ 0.715313 0.445488 0.281508 0.10394
H_ H_ 0.624085 0.985304 0.318414 0.10394
H_ H_ 0.0228186 0.0916106 0.247028 0.10394
H_ H_ 0.986638 0.165199 0.198408 0.10394
H_ H_ 0.546403 0.275443 0.319491 0.10394
H_ H_ 0.567163 0.201197 0.374536 0.10394
H_ H_ 0.539253 0.450155 0.406086 0.10394
H_ H_ 0.962424 0.378948 0.346334 0.10394
H_ H_ 0.848547 0.489678 0.399122 0.10394
H_ H_ 0.574386 0.309021 0.1331 0.10394
H_ H_ 0.997396 0.282135 0.0927958 0.10394
H_ H_ 0.546558 0.259567 0.451476 0.10394
H_ H_ 0.61206 0.322819 0.981393 0.10394
H_ H_ 0.735871 0.243955 0.0996673 0.10394
H_ H_ 0.770433 0.198951 0.17263 0.10394
H_ H_ 0.713955 0.328344 0.266799 0.10394
H_ H_ 0.677246 0.371327 0.187988 0.10394
H_ H_ 0.714531 0.359933 0.435225 0.10394
H_ H_ 0.761309 0.3815 0.368386 0.10394
H_ H_ 0.884562 0.416162 0.476882 0.10394
H_ H_ 0.811672 0.403673 0.156065 0.10394
H_ H_ 0.736351 0.448922 0.18768 0.10394
H_ H_ 0.834983 0.0469575 0.283758 0.10394
H_ H_ 0.903623 0.510827 0.234591 0.10394
H_ H_ 0.516512 0.394154 0.204749 0.10394
H_ H_ 0.561893 0.312656 0.233553 0.10394
H_ H_ 0.914872 0.237238 0.213105 0.10394
H_ H_ 0.872518 0.323495 0.176689 0.10394
H_ H_ 0.960667 0.0549239 0.117357 0.10394
H_ H_ 0.511563 0.121624 0.101301 0.10394
H_ H_ 0.641461 0.0110515 0.109182 0.10394
H_ H_ 0.943169 0.152559 0.409273 0.10394
H_ H_ 0.518976 0.170143 0.48944 0.10394
H_ H_ 0.919825 0.291109 0.0353362 0.10394
H_ H_ 0.843638 0.24171 0.500809 0.10394
H_ H_ 0.735591 0.181965 0.373983 0.10394
H_ H_ 0.695746 0.216332 0.298424 0.10394
H_ H_ 0.848423 0.235704 0.258914 0.10394
H_ H_ 0.883713 0.187709 0.332843 0.10394
H_ H_ 0.77949 0.128143 0.0502517 0.10394
H_ H_ 0.729924 0.0961546 0.110428 0.10394
H_ H_ 0.604721 0.0850204 0.00418095 0.10394
C_ C_ 0.677342 0.0933394 0.301719 0.18167
C_ C_ 0.719652 0.0719225 0.278437 -0.15533
C_ C_ 0.732462 0.0195023 0.275841 0.02923
C_ C_ 0.701074 0.485876 0.283059 -0.15533
C_ C_ 0.652068 0.00967838 0.308672 0.18167
C_ C_ 0.536475 0.137247 0.261902 0.18167
C_ C_ 0.00346038 0.172762 0.237526 -0.15533
C_ C_ 0.517287 0.227075 0.257994 0.02923
C_ C_ 0.544353 0.236795 0.303395 -0.15533
C_ C_ 0.555171 0.196394 0.334326 0.18167
C_ C_ 0.500503 0.048569 0.357611 0.69207
C_ C_ 0.965966 0.506126 0.361809 0.02923
C_ C_ 0.985802 0.453105 0.36213 -0.15533
C_ C_ 0.951929 0.416703 0.363023 -0.15533
C_ C_ 0.901756 0.429147 0.37756 0.02923
C_ C_ 0.885119 0.479099 0.387098 -0.15533
C_ C_ 0.916837 0.519659 0.377133 0.02923
C_ C_ 0.898531 0.0688958 0.395149 0.69207
C_ C_ 0.896757 0.329251 0.385645 0.69661
C_ C_ 0.568778 0.298467 0.0930951 0.18167
C_ C_ 0.522258 0.27886 0.0742036 -0.15533
C_ C_ 0.515366 0.265121 0.0214906 0.02923
C_ C_ 0.551936 0.270669 0.491878 -0.15533
C_ C_ 0.589508 0.30809 0.00810546 0.18167
C_ C_ 0.725265 0.25731 0.135866 0.18167
C_ C_ 0.749124 0.235643 0.178473 -0.15533
C_ C_ 0.747613 0.261357 0.226459 0.02923
C_ C_ 0.718457 0.306517 0.230709 -0.15533
C_ C_ 0.696652 0.332445 0.186098 0.18167
C_ C_ 0.739455 0.373664 0.0513554 0.69207
C_ C_ 0.771444 0.379936 0.49817 0.02923
C_ C_ 0.752031 0.373407 0.44672 -0.15533
C_ C_ 0.781583 0.380493 0.40656 -0.15533
C_ C_ 0.829216 0.393665 0.41727 0.02923
C_ C_ 0.849928 0.399842 0.470165 -0.15533
C_ C_ 0.823319 0.38767 0.51081 0.02923
C_ C_ 0.856312 0.389679 0.0743564 0.69207
C_ C_ 0.840563 0.382041 0.318626 0.69661
C_ C_ 0.815406 0.43733 0.178538 0.18167
C_ C_ 0.772368 0.46503 0.197117 -0.15533
C_ C_ 0.775765 0.504187 0.236293 0.02923
C_ C_ 0.825971 0.0169489 0.255205 -0.15533
C_ C_ 0.865884 0.495656 0.222378 0.18167
C_ C_ 0.986441 0.358084 0.220386 0.18167
C_ C_ 0.520626 0.315862 0.225616 -0.15533
C_ C_ 0.985246 0.267711 0.234735 0.02923
C_ C_ 0.932797 0.271888 0.215597 -0.15533
C_ C_ 0.912091 0.317328 0.191073 0.18167
C_ C_ 0.999692 0.450456 0.135627 0.69207
C_ C_ 0.514583 0.998331 0.116132 0.02923
C_ C_ 0.50159 0.0506938 0.1252 -0.15533
C_ C_ 0.530503 0.0841951 0.10685 -0.15533
C_ C_ 0.583812 0.073059 0.100428 0.02923
C_ C_ 0.60167 0.0207745 0.104961 -0.15533
C_ C_ 0.569181 0.982529 0.114882 0.02923
C_ C_ 0.597209 0.425089 0.108971 0.69207
C_ C_ 0.600674 0.16719 0.100332 0.69661
C_ C_ 0.938716 0.178433 0.440308 0.18167
C_ C_ 0.979383 0.204903 0.463472 -0.15533
C_ C_ 0.971367 0.247652 0.496098 0.02923
C_ C_ 0.925797 0.257899 0.00873502 -0.15533
C_ C_ 0.881119 0.230505 0.488943 0.18167
C_ C_ 0.7601 0.190677 0.34772 0.18167
C_ C_ 0.738206 0.215995 0.304676 -0.15533
C_ C_ 0.76829 0.234169 0.272616 0.02923
C_ C_ 0.82208 0.222553 0.283351 -0.15533
C_ C_ 0.84362 0.190216 0.323389 0.18167
C_ C_ 0.756508 0.120822 0.455349 0.69207
C_ C_ 0.720437 0.120847 0.988244 0.02923
C_ C_ 0.741135 0.121073 0.0404637 -0.15533
C_ C_ 0.710647 0.112015 0.0782588 -0.15533
C_ C_ 0.65991 0.100522 0.0662753 0.02923
C_ C_ 0.640754 0.101568 0.0146188 -0.15533
C_ C_ 0.669581 0.109546 0.975428 0.02923
C_ C_ 0.645664 0.114773 0.431525 0.69207
C_ C_ 0.647461 0.112263 0.164487 0.69661
C_ C_ 0.865255 0.384299 0.376358 -0.30787
C_ C_ 0.622508 0.112412 0.107027 -0.30787
N_ N_ 0.644066 0.0625825 0.315616 -0.32189
N_ N_ 0.553489 0.147139 0.312267 -0.32189
N_ N_ 0.602324 0.308522 0.0595185 -0.32189
N_ N_ 0.69552 0.304447 0.140922 -0.32189
N_ N_ 0.861198 0.456103 0.188269 -0.32189
N_ N_ 0.939906 0.358678 0.192968 -0.32189
N_ N_ 0.889118 0.194246 0.450654 -0.32189
N_ N_ 0.811385 0.177414 0.356249 -0.32189
O_ O_ 0.00793703 0.0804609 0.402033 -0.63271
O_ O_ 0.541874 0.036313 0.335037 -0.57982
O_ O_ 0.899912 0.0966669 0.353209 -0.63271
O_ O_ 0.868942 0.0890506 0.42956 -0.57982
O_ O_ 0.745097 0.393902 0.0980981 -0.63271
O_ O_ 0.710132 0.337065 0.0423859 -0.57982
O_ O_ 0.859815 0.347264 0.0970406 -0.63271
O_ O_ 0.889155 0.422351 0.0925893 -0.57982
O_ O_ 0.488853 0.409809 0.094517 -0.63271
O_ O_ 0.961379 0.461125 0.163892 -0.57982
O_ O_ 0.593427 0.397112 0.148364 -0.63271
O_ O_ 0.635492 0.410734 0.0811935 -0.57982
O_ O_ 0.748152 0.0952602 0.410552 -0.63271
O_ O_ 0.789561 0.155667 0.462072 -0.57982
O_ O_ 0.651653 0.156246 0.408358 -0.63271
O_ O_ 0.605335 0.0901673 0.416346 -0.57982
F_ F_ 0.929943 0.329097 0.428553 -0.20885
F_ F_ 0.921725 0.312311 0.344448 -0.20885
F_ F_ 0.861265 0.296739 0.392566 -0.20885
F_ F_ 0.807392 0.424084 0.312117 -0.20885
F_ F_ 0.8115 0.340127 0.308834 -0.20885
F_ F_ 0.876104 0.38218 0.281738 -0.20885
F_ F_ 0.572367 0.172583 0.0545895 -0.20885
F_ F_ 0.572054 0.179661 0.14016 -0.20885
F_ F_ 0.640202 0.195984 0.10258 -0.20885
F_ F_ 0.680118 0.0696187 0.173228 -0.20885
F_ F_ 0.67784 0.153662 0.178255 -0.20885
F_ F_ 0.612915 0.11271 0.200264 -0.20885
Zn Zn 0.580008 0.0904319 0.845182 0.83971
Zn Zn 0.659844 0.347163 0.576742 0.83971
Zn Zn 0.900845 0.417039 0.650454 0.83971
Zn Zn 0.838994 0.15704 0.912422 0.83971
H_ H_ 0.66632 0.134562 0.801803 0.10394
H_ H_ 0.750828 0.0969476 0.780573 0.10394
H_ H_ 0.693388 0.442938 0.771392 0.10394
H_ H_ 0.621446 0.99334 0.825826 0.10394
H_ H_ 0.0221081 0.0949611 0.750321 0.10394
H_ H_ 0.983928 0.172266 0.69872 0.10394
H_ H_ 0.545702 0.275045 0.825484 0.10394
H_ H_ 0.571691 0.204585 0.879822 0.10394
H_ H_ 0.538398 0.451895 0.889351 0.10394
H_ H_ 0.979178 0.380153 0.878264 0.10394
H_ H_ 0.85389 0.495121 0.907915 0.10394
H_ H_ 0.575075 0.319515 0.630977 0.10394
H_ H_ 0.000426145 0.2796 0.598404 0.10394
H_ H_ 0.544536 0.273219 0.950227 0.10394
H_ H_ 0.626155 0.298023 0.482881 0.10394
H_ H_ 0.72283 0.248835 0.587599 0.10394
H_ H_ 0.757552 0.201131 0.667778 0.10394
H_ H_ 0.719855 0.340412 0.758047 0.10394
H_ H_ 0.68502 0.379121 0.676625 0.10394
H_ H_ 0.72579 0.351078 0.952877 0.10394
H_ H_ 0.777091 0.364427 0.884692 0.10394
H_ H_ 0.891176 0.418303 0.98799 0.10394
H_ H_ 0.798363 0.398515 0.659124 0.10394
H_ H_ 0.727094 0.448156 0.690913 0.10394
H_ H_ 0.830247 0.0482015 0.78195 0.10394
H_ H_ 0.894548 0.507574 0.725023 0.10394
H_ H_ 0.507505 0.386459 0.68741 0.10394
H_ H_ 0.553923 0.319625 0.742468 0.10394
H_ H_ 0.902061 0.249206 0.719451 0.10394
H_ H_ 0.863418 0.325781 0.68042 0.10394
H_ H_ 0.964138 0.0573578 0.634317 0.10394
H_ H_ 0.529218 0.118712 0.645856 0.10394
H_ H_ 0.639248 0.0072774 0.586659 0.10394
H_ H_ 0.94311 0.155918 0.897425 0.10394
H_ H_ 0.51553 0.187254 0.94886 0.10394
H_ H_ 0.913167 0.293891 0.534707 0.10394
H_ H_ 0.842874 0.241759 -0.005086999999999953 0.10394
H_ H_ 0.728684 0.199502 0.876417 0.10394
H_ H_ 0.69019 0.238124 0.796235 0.10394
H_ H_ 0.83621 0.217602 0.741288 0.10394
H_ H_ 0.874367 0.18951 0.825089 0.10394
H_ H_ 0.784347 0.116909 0.5533 0.10394
H_ H_ 0.731869 0.102877 0.622457 0.10394
H_ H_ 0.599631 0.0989663 0.516614 0.10394
C_ C_ 0.675752 0.0938777 0.800162 0.18167
C_ C_ 0.722448 0.0721344 0.785884 -0.15533
C_ C_ 0.733754 0.018945 0.781937 0.02923
C_ C_ 0.691249 0.481557 0.783773 -0.15533
C_ C_ 0.651752 0.0141704 0.815281 0.18167
C_ C_ 0.524322 0.142492 0.774745 0.18167
C_ C_ 0.00280071 0.175855 0.734846 -0.15533
C_ C_ 0.510811 0.232268 0.762961 0.02923
C_ C_ 0.537609 0.238362 0.810592 -0.15533
C_ C_ 0.551265 0.197895 0.842797 0.18167
C_ C_ 0.503586 0.0478798 0.871797 0.69207
C_ C_ 0.975026 0.508055 0.878061 0.02923
C_ C_ 0.991188 0.456274 0.875076 -0.15533
C_ C_ 0.961555 0.419321 0.883692 -0.15533
C_ C_ 0.909752 0.43051 0.893663 0.02923
C_ C_ 0.892661 0.483139 0.898876 -0.15533
C_ C_ 0.923855 0.523289 0.89231 0.02923
C_ C_ 0.899253 0.0678037 0.885323 0.69207
C_ C_ 0.897866 0.333871 0.884175 0.69661
C_ C_ 0.567378 0.306968 0.590559 0.18167
C_ C_ 0.524764 0.280446 0.577791 -0.15533
C_ C_ 0.516664 0.26485 0.525668 0.02923
C_ C_ 0.548301 0.280407 0.989312 -0.15533
C_ C_ 0.59685 0.294976 0.509787 0.18167
C_ C_ 0.71948 0.265018 0.626545 0.18167
C_ C_ 0.740104 0.239757 0.671166 -0.15533
C_ C_ 0.740125 0.265523 0.718907 0.02923
C_ C_ 0.71772 0.317223 0.721965 -0.15533
C_ C_ 0.697777 0.340116 0.676944 0.18167
C_ C_ 0.737775 0.371133 0.537985 0.69207
C_ C_ 0.777277 0.377326 1.0128214 0.02923
C_ C_ 0.760453 0.367165 0.962204 -0.15533
C_ C_ 0.790174 0.373626 0.923537 -0.15533
C_ C_ 0.835983 0.394269 0.93202 0.02923
C_ C_ 0.854739 0.405107 0.983125 -0.15533
C_ C_ 0.827227 0.393994 0.0240771 0.02923
C_ C_ 0.852031 0.381848 0.563669 0.69207
C_ C_ 0.842753 0.392837 0.831557 0.69661
C_ C_ 0.803244 0.432793 0.683713 0.18167
C_ C_ 0.76283 0.455342 0.707566 -0.15533
C_ C_ 0.769572 0.493758 0.746078 0.02923
C_ C_ 0.824404 0.0115773 0.764533 -0.15533
C_ C_ 0.859519 0.490524 0.723434 0.18167
C_ C_ 0.986515 0.348416 0.692774 0.18167
C_ C_ 0.51218 0.316388 0.72526 -0.15533
C_ C_ 0.977251 0.270154 0.732134 0.02923
C_ C_ 0.925488 0.278573 0.719427 -0.15533
C_ C_ 0.905077 0.322227 0.693676 0.18167
C_ C_ 0.984222 0.450449 0.610977 0.69207
C_ C_ 0.523375 0.989917 0.625485 0.02923
C_ C_ 0.508216 0.0424287 0.635714 -0.15533
C_ C_ 0.540117 0.0804464 0.633664 -0.15533
C_ C_ 0.586049 0.0671511 0.613413 0.02923
C_ C_ 0.602178 0.01667 0.601872 -0.15533
C_ C_ 0.572394 0.977562 0.605969 0.02923
C_ C_ 0.600024 0.429403 0.611297 0.69207
C_ C_ 0.599532 0.16337 0.619172 0.69661
C_ C_ 0.936872 0.182781 0.930536 0.18167
C_ C_ 0.979309 0.204422 0.951791 -0.15533
C_ C_ 0.974214 0.242712 -0.008767999999999998 0.02923
C_ C_ 0.920567 0.261034 0.508049 -0.15533
C_ C_ 0.881623 0.23621 0.982623 0.18167
C_ C_ 0.751225 0.207165 0.846408 0.18167
C_ C_ 0.72968 0.232181 0.80384 -0.15533
C_ C_ 0.761412 0.240212 0.76582 0.02923
C_ C_ 0.814311 0.225182 0.773681 -0.15533
C_ C_ 0.833674 0.201578 0.819478 0.18167
C_ C_ 0.755129 0.127522 0.949062 0.69207
C_ C_ 0.723567 0.114358 0.494267 0.02923
C_ C_ 0.744014 0.114231 0.545576 -0.15533
C_ C_ 0.712967 0.109242 0.584094 -0.15533
C_ C_ 0.659774 0.102784 0.573396 0.02923
C_ C_ 0.63937 0.0991132 0.522975 -0.15533
C_ C_ 0.670699 0.105378 0.483551 0.02923
C_ C_ 0.644031 0.111551 0.923211 0.69207
C_ C_ 0.651958 0.0982477 0.671717 0.69661
C_ C_ 0.871926 0.389456 0.887279 -0.30787
C_ C_ 0.625288 0.105833 0.617183 -0.30787
N_ N_ 0.640444 0.0632626 0.811523 -0.32189
N_ N_ 0.55323 0.151568 0.818079 -0.32189
N_ N_ 0.603332 0.311945 0.558549 -0.32189
N_ N_ 0.693755 0.311936 0.632894 -0.32189
N_ N_ 0.849993 0.44972 0.688678 -0.32189
N_ N_ 0.934985 0.358639 0.683749 -0.32189
N_ N_ 0.889166 0.199608 0.943784 -0.32189
N_ N_ 0.802642 0.193086 0.856834 -0.32189
O_ O_ 0.00350463 0.0887376 0.887987 -0.63271
O_ O_ 0.535279 0.0450904 0.835911 -0.57982
O_ O_ 0.898652 0.0905169 0.842897 -0.63271
O_ O_ 0.871503 0.0894363 0.920883 -0.57982
O_ O_ 0.743111 0.39003 0.583899 -0.63271
O_ O_ 0.702043 0.341721 0.527714 -0.57982
O_ O_ 0.851385 0.341227 0.589532 -0.63271
O_ O_ 0.877588 0.418355 0.587041 -0.57982
O_ O_ 0.482161 0.4214 0.597043 -0.63271
O_ O_ 0.944612 0.462016 0.638945 -0.57982
O_ O_ 0.593734 0.401679 0.649131 -0.63271
O_ O_ 0.634971 0.413473 0.579629 -0.57982
O_ O_ 0.757848 0.0951274 0.91001 -0.63271
O_ O_ 0.787782 0.162059 0.956341 -0.57982
O_ O_ 0.649024 0.147861 0.891726 -0.63271
O_ O_ 0.608751 0.0809163 0.907214 -0.57982
F_ F_ 0.932934 0.326093 0.924725 -0.20885
F_ F_ 0.923214 0.317733 0.842012 -0.20885
F_ F_ 0.866491 0.29741 0.887898 -0.20885
F_ F_ 0.803226 0.428541 0.835502 -0.20885
F_ F_ 0.818328 0.350466 0.809828 -0.20885
F_ F_ 0.869931 0.40598 0.794543 -0.20885
F_ F_ 0.559615 0.166644 0.580875 -0.20885
F_ F_ 0.583736 0.186922 0.664384 -0.20885
F_ F_ 0.633813 0.195475 0.606045 -0.20885
F_ F_ 0.685835 0.0546242 0.669897 -0.20885
F_ F_ 0.680801 0.13733 0.692736 -0.20885
F_ F_ 0.619393 0.0950375 0.708032 -0.20885
Zn Zn 0.589741 0.581181 0.342654 0.83971
Zn Zn 0.65985 0.849349 0.0907501 0.83971
Zn Zn 0.909119 0.91557 0.162009 0.83971
Zn Zn 0.841662 0.653348 0.415873 0.83971
H_ H_ 0.667667 0.627818 0.308477 0.10394
H_ H_ 0.747905 0.599515 0.271727 0.10394
H_ H_ 0.708076 0.946142 0.28904 0.10394
H_ H_ 0.627081 0.484774 0.314479 0.10394
H_ H_ 0.0499392 0.597448 0.242355 0.10394
H_ H_ 1.00805456 0.671669 0.194222 0.10394
H_ H_ 0.530795 0.770271 0.329233 0.10394
H_ H_ 0.561063 0.696958 0.382201 0.10394
H_ H_ 0.532128 0.94421 0.353166 0.10394
H_ H_ 0.965798 0.873566 0.362389 0.10394
H_ H_ 0.851109 0.989146 0.408502 0.10394
H_ H_ 0.57094 0.821491 0.13292 0.10394
H_ H_ 1.00435762 0.770132 0.0980112 0.10394
H_ H_ 0.539632 0.778441 0.447504 0.10394
H_ H_ 0.628426 0.81349 0.986949 0.10394
H_ H_ 0.706579 0.751035 0.095094 0.10394
H_ H_ 0.747506 0.699757 0.172278 0.10394
H_ H_ 0.719864 0.83163 0.27204 0.10394
H_ H_ 0.671731 0.874742 0.205426 0.10394
H_ H_ 0.71137 0.882789 0.448446 0.10394
H_ H_ 0.760809 0.884087 0.382417 0.10394
H_ H_ 0.897869 0.902989 0.490758 0.10394
H_ H_ 0.804257 0.893397 0.174857 0.10394
H_ H_ 0.730749 0.948292 0.198643 0.10394
H_ H_ 0.829255 0.551333 0.271991 0.10394
H_ H_ 0.905079 0.99634495 0.240271 0.10394
H_ H_ 0.505862 0.893695 0.217947 0.10394
H_ H_ 0.553486 0.814921 0.249946 0.10394
H_ H_ 0.914438 0.736602 0.223915 0.10394
H_ H_ 0.870083 0.816918 0.190401 0.10394
H_ H_ 0.979061 0.555201 0.148135 0.10394
H_ H_ 0.52505 0.622181 0.119966 0.10394
H_ H_ 0.644372 0.50739 0.0914075 0.10394
H_ H_ 0.935299 0.666001 0.400061 0.10394
H_ H_ 0.522359 0.686588 0.451222 0.10394
H_ H_ 0.920644 0.778676 0.0430675 0.10394
H_ H_ 0.844175 0.733349 0.513559 0.10394
H_ H_ 0.737183 0.682454 0.379511 0.10394
H_ H_ 0.691827 0.729326 0.305297 0.10394
H_ H_ 0.829149 0.705846 0.234182 0.10394
H_ H_ 0.877712 0.690266 0.323903 0.10394
H_ H_ 0.789741 0.625855 0.0641816 0.10394
H_ H_ 0.733793 0.618219 0.129545 0.10394
H_ H_ 0.606018 0.607806 0.0128823 0.10394
C_ C_ 0.679348 0.587983 0.306443 0.18167
C_ C_ 0.725056 0.571007 0.284708 -0.15533
C_ C_ 0.732726 0.520655 0.266837 0.02923
C_ C_ 0.697819 0.987746 0.291124 -0.15533
C_ C_ 0.652325 0.506374 0.296392 0.18167
C_ C_ 0.525698 0.634856 0.271187 0.18167
C_ C_ 0.0195985 0.67215 0.233481 -0.15533
C_ C_ 0.509182 0.725157 0.264669 0.02923
C_ C_ 0.524775 0.733218 0.315416 -0.15533
C_ C_ 0.543951 0.690321 0.342044 0.18167
C_ C_ 0.509202 0.544763 0.367445 0.69207
C_ C_ 0.970085 0.00238935 0.375839 0.02923
C_ C_ -0.013149999999999995 0.950921 0.365489 -0.15533
C_ C_ 0.955463 0.912415 0.37595 -0.15533
C_ C_ 0.90583 0.924747 0.391229 0.02923
C_ C_ 0.889397 0.978022 0.398534 -0.15533
C_ C_ 0.921863 0.0156742 0.392912 0.02923
C_ C_ 0.893805 0.572045 0.378486 0.69207
C_ C_ 0.889675 0.823175 0.388777 0.69661
C_ C_ 0.567787 0.809073 0.091102 0.18167
C_ C_ 0.523868 0.788609 0.0697755 -0.15533
C_ C_ 0.517464 0.77691 0.018455 0.02923
C_ C_ 0.546205 0.783566 0.48867 -0.15533
C_ C_ 0.597041 0.810324 0.01032 0.18167
C_ C_ 0.708451 0.767818 0.136591 0.18167
C_ C_ 0.733906 0.738186 0.17694 -0.15533
C_ C_ 0.73881 0.76007 0.227406 0.02923
C_ C_ 0.718704 0.812327 0.234563 -0.15533
C_ C_ 0.690782 0.837369 0.195939 0.18167
C_ C_ 0.74096 0.874272 0.0524966 0.69207
C_ C_ 0.774733 0.883939 0.510333 0.02923
C_ C_ 0.752557 0.884933 0.459341 -0.15533
C_ C_ 0.780104 0.883044 0.419829 -0.15533
C_ C_ 0.83317 0.889369 0.427539 0.02923
C_ C_ 0.856652 0.893395 0.479591 -0.15533
C_ C_ 0.82748 0.891703 0.520631 0.02923
C_ C_ 0.856169 0.884959 0.0736035 0.69207
C_ C_ 0.842151 0.88576 0.330923 0.69661
C_ C_ 0.810249 0.929433 0.192768 0.18167
C_ C_ 0.767494 0.958036 0.211612 -0.15533
C_ C_ 0.776588 0.998585 0.248931 0.02923
C_ C_ 0.824414 0.521243 0.245018 -0.15533
C_ C_ 0.866101 0.988806 0.231508 0.18167
C_ C_ 0.989447 0.851731 0.213126 0.18167
C_ C_ 0.514247 0.813721 0.236764 -0.15533
C_ C_ 0.987851 0.764483 0.231768 0.02923
C_ C_ 0.93539 0.768597 0.213557 -0.15533
C_ C_ 0.910744 0.814963 0.196698 0.18167
C_ C_ 0.988469 0.954557 0.126065 0.69207
C_ C_ 0.523277 0.494266 0.118239 0.02923
C_ C_ 0.507205 0.547325 0.122555 -0.15533
C_ C_ 0.540297 0.583517 0.118223 -0.15533
C_ C_ 0.589384 0.570802 0.104561 0.02923
C_ C_ 0.605229 0.517699 0.0977175 -0.15533
C_ C_ 0.573107 0.47828 0.106433 0.02923
C_ C_ 0.59156 0.929318 0.120899 0.69207
C_ C_ 0.601546 0.666939 0.114478 0.69661
C_ C_ 0.93254 0.686812 0.434605 0.18167
C_ C_ 0.972334 0.712076 0.455997 -0.15533
C_ C_ 0.966412 0.746479 0.498504 0.02923
C_ C_ 0.927504 0.74782 1.0166353 -0.15533
C_ C_ 0.878543 0.729398 0.494735 0.18167
C_ C_ 0.75854 0.69064 0.350855 0.18167
C_ C_ 0.732317 0.719127 0.308871 -0.15533
C_ C_ 0.762585 0.731015 0.271075 0.02923
C_ C_ 0.813544 0.71 0.272394 -0.15533
C_ C_ 0.837558 0.697544 0.319094 0.18167
C_ C_ 0.762645 0.617732 0.448077 0.69207
C_ C_ 0.731446 0.621122 0.999582 0.02923
C_ C_ 0.748952 0.626366 0.052103 -0.15533
C_ C_ 0.718697 0.617108 0.0906814 -0.15533
C_ C_ 0.667363 0.604519 0.0760881 0.02923
C_ C_ 0.647263 0.606619 0.0248371 -0.15533
C_ C_ 0.677798 0.615469 0.986941 0.02923
C_ C_ 0.650978 0.605362 0.428318 0.69207
C_ C_ 0.652473 0.60136 0.170504 0.69661
C_ C_ 0.869598 0.883698 0.385483 -0.30787
C_ C_ 0.626819 0.611927 0.114724 -0.30787
N_ N_ 0.643656 0.556655 0.307024 -0.32189
N_ N_ 0.55036 0.641725 0.317696 -0.32189
N_ N_ 0.604074 0.817972 0.0619573 -0.32189
N_ N_ 0.68559 0.81466 0.148911 -0.32189
N_ N_ 0.857617 0.943969 0.201637 -0.32189
N_ N_ 0.937511 0.857205 0.198611 -0.32189
N_ N_ 0.886808 0.694807 0.454645 -0.32189
N_ N_ 0.810711 0.685204 0.357068 -0.32189
O_ O_ -0.003383000000000025 0.590467 0.377975 -0.63271
O_ O_ 0.54413 0.52984 0.338012 -0.57982
O_ O_ 0.887887 0.599439 0.336503 -0.63271
O_ O_ 0.876978 0.591069 0.418355 -0.57982
O_ O_ 0.734003 0.910524 0.0879675 -0.63271
O_ O_ 0.704283 0.842629 0.0420643 -0.57982
O_ O_ 0.846189 0.848609 0.102504 -0.63271
O_ O_ 0.879674 0.920815 0.0960134 -0.57982
O_ O_ 0.486605 0.913431 0.10284 -0.63271
O_ O_ 0.956016 0.961432 0.161339 -0.57982
O_ O_ 0.58441 0.905449 0.161425 -0.63271
O_ O_ 0.628705 0.911625 0.0949403 -0.57982
O_ O_ 0.764436 0.585975 0.408194 -0.63271
O_ O_ 0.792489 0.654017 0.454331 -0.57982
O_ O_ 0.659576 0.642866 0.400034 -0.63271
O_ O_ 0.61388 0.575691 0.409476 -0.57982
F_ F_ 0.933261 0.818799 0.424897 -0.20885
F_ F_ 0.907568 0.797997 0.3457 -0.20885
F_ F_ 0.853497 0.79154 0.399591 -0.20885
F_ F_ 0.812113 0.931046 0.32961 -0.20885
F_ F_ 0.808288 0.849142 0.315719 -0.20885
F_ F_ 0.87897 0.882569 0.295624 -0.20885
F_ F_ 0.569921 0.675131 0.0678857 -0.20885
F_ F_ 0.574178 0.679701 0.157847 -0.20885
F_ F_ 0.638595 0.700639 0.116151 -0.20885
F_ F_ 0.683512 0.555525 0.178698 -0.20885
F_ F_ 0.675885 0.644688 0.191882 -0.20885
F_ F_ 0.614305 0.592386 0.201876 -0.20885
Zn Zn 0.588055 0.583284 0.854496 0.83971
Zn Zn 0.658627 0.844115 0.582556 0.83971
Zn Zn 0.905208 0.922453 0.658018 0.83971
Zn Zn 0.838639 0.660157 0.915929 0.83971
H_ H_ 0.663522 0.62756 0.815783 0.10394
H_ H_ 0.745492 0.592735 0.775052 0.10394
H_ H_ 0.708557 0.945574 0.79836 0.10394
H_ H_ 0.617251 0.478104 0.811789 0.10394
H_ H_ 0.0221246 0.599469 0.759281 0.10394
H_ H_ 0.98732 0.675016 0.703977 0.10394
H_ H_ 0.529421 0.765948 0.842261 0.10394
H_ H_ 0.577555 0.690285 0.87812 0.10394
H_ H_ 0.524291 0.947087 0.85653 0.10394
H_ H_ 0.983544 0.87483 0.876716 0.10394
H_ H_ 0.85538 0.98417 0.910362 0.10394
H_ H_ 0.58531 0.803749 0.635332 0.10394
H_ H_ -0.00299868 0.777147 0.597237 0.10394
H_ H_ 0.54743 0.788569 0.945653 0.10394
H_ H_ 0.606355 0.831547 0.481931 0.10394
H_ H_ 0.720615 0.746229 0.590314 0.10394
H_ H_ 0.749285 0.69205 0.666388 0.10394
H_ H_ 0.728845 0.827176 0.761393 0.10394
H_ H_ 0.678368 0.871653 0.687129 0.10394
H_ H_ 0.71793 0.86821 0.949641 0.10394
H_ H_ 0.769456 0.889314 0.888537 0.10394
H_ H_ 0.898543 0.899091 0.991544 0.10394
H_ H_ 0.803581 0.896594 0.673265 0.10394
H_ H_ 0.731589 0.944856 0.707791 0.10394
H_ H_ 0.828789 0.541254 0.783016 0.10394
H_ H_ 0.900385 1.00306896 0.73879 0.10394
H_ H_ 0.515309 0.86935 0.67924 0.10394
H_ H_ 0.554204 0.800838 0.728888 0.10394
H_ H_ 0.911803 0.751387 0.722627 0.10394
H_ H_ 0.870969 0.826748 0.682582 0.10394
H_ H_ 0.957598 0.544047 0.596945 0.10394
H_ H_ 0.517295 0.623144 0.606731 0.10394
H_ H_ 0.644294 0.508959 0.589172 0.10394
H_ H_ 0.935103 0.672819 0.884816 0.10394
H_ H_ 0.524256 0.704636 0.943507 0.10394
H_ H_ 0.910815 0.779799 0.54773 0.10394
H_ H_ 0.851514 0.727734 1.00941086 0.10394
H_ H_ 0.736836 0.694873 0.881436 0.10394
H_ H_ 0.693104 0.728566 0.799441 0.10394
H_ H_ 0.836573 0.724226 0.74237 0.10394
H_ H_ 0.87561 0.680452 0.817763 0.10394
H_ H_ 0.780334 0.6336 0.551269 0.10394
H_ H_ 0.734838 0.618418 0.622921 0.10394
H_ H_ 0.607656 0.583907 0.512208 0.10394
C_ C_ 0.674087 0.586354 0.80742 0.18167
C_ C_ 0.719192 0.566599 0.785772 -0.15533
C_ C_ 0.727817 0.512705 0.773371 0.02923
C_ C_ 0.699014 0.988411 0.798591 -0.15533
C_ C_ 0.64465 0.504586 0.798884 0.18167
C_ C_ 0.527704 0.631868 0.77006 0.18167
C_ C_ 0.00530063 0.682529 0.742871 -0.15533
C_ C_ 0.507594 0.723989 0.768122 0.02923
C_ C_ 0.532219 0.72984 0.818229 -0.15533
C_ C_ 0.561865 0.686433 0.839216 0.18167
C_ C_ 0.50529 0.549288 0.869364 0.69207
C_ C_ 0.974679 0.00360608 0.88082 0.02923
C_ C_ -0.004665999999999948 0.953055 0.884845 -0.15533
C_ C_ 0.964637 0.914267 0.884598 -0.15533
C_ C_ 0.914635 0.924595 0.89636 0.02923
C_ C_ 0.895715 0.977154 0.903893 -0.15533
C_ C_ 0.923853 0.0174659 0.892246 0.02923
C_ C_ 0.902579 0.576775 0.892808 0.69207
C_ C_ 0.903598 0.828961 0.893953 0.69661
C_ C_ 0.571082 0.801975 0.593765 0.18167
C_ C_ 0.527676 0.774492 0.577991 -0.15533
C_ C_ 0.516893 0.763463 0.524367 0.02923
C_ C_ 0.555252 0.785841 0.987338 -0.15533
C_ C_ 0.586857 0.812111 0.508228 0.18167
C_ C_ 0.71778 0.762397 0.628947 0.18167
C_ C_ 0.7362 0.732447 0.670881 -0.15533
C_ C_ 0.734649 0.754945 0.720419 0.02923
C_ C_ 0.717157 0.807206 0.727123 -0.15533
C_ C_ 0.693246 0.832288 0.684258 0.18167
C_ C_ 0.741767 0.874088 0.550931 0.69207
C_ C_ 0.777016 0.878389 1.0135801 0.02923
C_ C_ 0.756273 0.873658 0.962219 -0.15533
C_ C_ 0.788427 0.879856 0.924418 -0.15533
C_ C_ 0.838084 0.88953 0.935245 0.02923
C_ C_ 0.857896 0.895604 0.984182 -0.15533
C_ C_ 0.828396 0.888519 0.0236389 0.02923
C_ C_ 0.852172 0.889926 0.572664 0.69207
C_ C_ 0.85294 0.885847 0.835038 0.69661
C_ C_ 0.80833 0.934306 0.687461 0.18167
C_ C_ 0.767789 0.959876 0.713865 -0.15533
C_ C_ 0.775256 -0.003502000000000005 0.75438 0.02923
C_ C_ 0.820572 0.511473 0.753702 -0.15533
C_ C_ 0.863957 0.988723 0.736263 0.18167
C_ C_ 0.989644 0.856518 0.695662 0.18167
C_ C_ 0.514327 0.803013 0.721472 -0.15533
C_ C_ 0.985917 0.775056 0.728343 0.02923
C_ C_ 0.933951 0.778947 0.714308 -0.15533
C_ C_ 0.911176 0.821907 0.688633 0.18167
C_ C_ 0.984088 0.958247 0.622561 0.69207
C_ C_ 0.526811 0.497087 0.626365 0.02923
C_ C_ 0.505799 0.548346 0.620495 -0.15533
C_ C_ 0.538269 0.585478 0.615891 -0.15533
C_ C_ 0.587661 0.573539 0.603603 0.02923
C_ C_ 0.605106 0.520265 0.597042 -0.15533
C_ C_ 0.576001 0.482663 0.611762 0.02923
C_ C_ 0.596457 0.926556 0.607847 0.69207
C_ C_ 0.60249 0.671844 0.605587 0.69661
C_ C_ 0.934565 0.69239 0.922816 0.18167
C_ C_ 0.979775 0.709334 0.951053 -0.15533
C_ C_ 0.974674 0.738492 0.998025 0.02923
C_ C_ 0.920355 0.751284 0.519682 -0.15533
C_ C_ 0.887218 0.720353 0.993847 0.18167
C_ C_ 0.757251 0.700693 0.847509 0.18167
C_ C_ 0.734095 0.723516 0.804408 -0.15533
C_ C_ 0.760471 0.730245 0.765001 0.02923
C_ C_ 0.815682 0.719141 0.771383 -0.15533
C_ C_ 0.838196 0.696326 0.814794 0.18167
C_ C_ 0.767066 0.624631 0.959995 0.69207
C_ C_ 0.728578 0.610951 0.489815 0.02923
C_ C_ 0.747354 0.61686 0.54212 -0.15533
C_ C_ 0.717035 0.613611 0.5838 -0.15533
C_ C_ 0.665002 0.60452 0.571988 0.02923
C_ C_ 0.647363 0.596922 0.519293 -0.15533
C_ C_ 0.679615 0.597292 0.479972 0.02923
C_ C_ 0.653736 0.618028 0.934709 0.69207
C_ C_ 0.646303 0.605824 0.669605 0.69661
C_ C_ 0.87641 0.884634 0.891979 -0.30787
C_ C_ 0.62643 0.614673 0.61286 -0.30787
N_ N_ 0.639551 0.554887 0.816432 -0.32189
N_ N_ 0.558935 0.638406 0.815481 -0.32189
N_ N_ 0.601095 0.815342 0.55973 -0.32189
N_ N_ 0.692297 0.80823 0.637921 -0.32189
N_ N_ 0.855884 0.95076 0.69882 -0.32189
N_ N_ 0.937516 0.862002 0.684484 -0.32189
N_ N_ 0.890385 0.696964 0.946004 -0.32189
N_ N_ 0.808922 0.685565 0.851506 -0.32189
O_ O_ 1.0140964 0.589729 0.895864 -0.63271
O_ O_ 0.54657 0.533387 0.847412 -0.57982
O_ O_ 0.89438 0.599051 0.848541 -0.63271
O_ O_ 0.877013 0.597462 0.931147 -0.57982
O_ O_ 0.745005 0.894871 0.596393 -0.63271
O_ O_ 0.70497 0.844866 0.537385 -0.57982
O_ O_ 0.856118 0.846012 0.595174 -0.63271
O_ O_ 0.873206 0.929351 0.595678 -0.57982
O_ O_ 0.488355 0.910192 0.600666 -0.63271
O_ O_ 0.949666 0.968326 0.653332 -0.57982
O_ O_ 0.596326 0.89883 0.647413 -0.63271
O_ O_ 0.630699 0.911296 0.577985 -0.57982
O_ O_ 0.76309 0.59881 0.915662 -0.63271
O_ O_ 0.792736 0.667316 0.962172 -0.57982
O_ O_ 0.659464 0.654431 0.905498 -0.63271
O_ O_ 0.6196 0.58594 0.917688 -0.57982
F_ F_ 0.937085 0.823658 0.936208 -0.20885
F_ F_ 0.933648 0.814389 0.853942 -0.20885
F_ F_ 0.869798 0.792225 0.895699 -0.20885
F_ F_ 0.820817 0.931108 0.828909 -0.20885
F_ F_ 0.824204 0.844733 0.822453 -0.20885
F_ F_ 0.887423 0.88655 0.797697 -0.20885
F_ F_ 0.576434 0.672419 0.559149 -0.20885
F_ F_ 0.571469 0.691696 0.642867 -0.20885
F_ F_ 0.642219 0.704632 0.612113 -0.20885
F_ F_ 0.678232 0.561105 0.668478 -0.20885
F_ F_ 0.676776 0.639501 0.690594 -0.20885
F_ F_ 0.609603 0.607959 0.704189 -0.20885
_cell_length_a 26.508
_cell_length_b 26.37200000322088
_cell_length_c 26.311999743092066
_cell_angle_alpha 93.74100058972084
_cell_angle_beta 96.04100104955006
_cell_angle_gamma 83.6869992558723
_symmetry_space_group_name_H-M         'P 1'
_symmetry_Int_Tables_number            1
loop_
_symmetry_equiv_pos_as_xyz
   'x, y, z'
                         
loop_
_atom_site_label
_atom_site_type_symbol
_atom_site_fract_x 
_atom_site_fract_y
_atom_site_fract_z
_atom_site_charge
Zn Zn 0.0853121 0.0801403 0.34552 0.83971
Zn Zn 0.162784 0.342024 0.0868373 0.83971
Zn Zn 0.409607 0.418333 0.153144 0.83971
Zn Zn 0.34701 0.149822 0.419999 0.83971
H_ H_ 0.159265 0.131694 0.30405 0.10394
H_ H_ 0.238512 0.105589 0.259728 0.10394
H_ H_ 0.233407 0.452683 0.316515 0.10394
H_ H_ 0.136973 0.981562 0.328531 0.10394
H_ H_ 0.536883 0.098391 0.24512 0.10394
H_ H_ 0.492251 0.169452 0.197 0.10394
H_ H_ 0.0246424 0.263109 0.335247 0.10394
H_ H_ 0.0580428 0.182611 0.378744 0.10394
H_ H_ 0.022347 0.441717 0.351629 0.10394
H_ H_ 0.48811 0.378402 0.390086 0.10394
H_ H_ 0.355951 0.484762 0.402626 0.10394
H_ H_ 0.0752072 0.315479 0.128567 0.10394
H_ H_ 0.495484 0.265297 0.0986633 0.10394
H_ H_ 0.0422841 0.283976 0.445322 0.10394
H_ H_ 0.136431 0.286732 0.983964 0.10394
H_ H_ 0.223748 0.247571 0.096422 0.10394
H_ H_ 0.271838 0.196575 0.169442 0.10394
H_ H_ 0.227425 0.325621 0.268318 0.10394
H_ H_ 0.177369 0.360601 0.202374 0.10394
H_ H_ 0.227276 0.339133 0.439855 0.10394
H_ H_ 0.279207 0.357081 0.372351 0.10394
H_ H_ 0.396366 0.409068 0.486454 0.10394
H_ H_ 0.30915 0.397416 0.166849 0.10394
H_ H_ 0.241718 0.436274 0.2175 0.10394
H_ H_ 0.33777 0.0447067 0.288554 0.10394
H_ H_ 0.394871 0.519217 0.211602 0.10394
H_ H_ 0.000199772 0.391968 0.227856 0.10394
H_ H_ 0.0464521 0.315134 0.255487 0.10394
H_ H_ 0.421962 0.243485 0.201573 0.10394
H_ H_ 0.376914 0.323101 0.181263 0.10394
H_ H_ 0.461719 0.0657708 0.132773 0.10394
H_ H_ 0.0168506 0.122325 0.107182 0.10394
H_ H_ 0.14597 0.0109436 0.104962 0.10394
H_ H_ 0.452885 0.118147 0.463834 0.10394
H_ H_ 0.0173567 0.182438 0.461565 0.10394
H_ H_ 0.418658 0.283852 0.0470005 0.10394
H_ H_ 0.341418 0.242836 0.487919 0.10394
H_ H_ 0.242621 0.190627 0.384178 0.10394
H_ H_ 0.208053 0.243581 0.307694 0.10394
H_ H_ 0.351985 0.222412 0.253431 0.10394
H_ H_ 0.389338 0.190851 0.335125 0.10394
H_ H_ 0.281048 0.119932 0.0538816 0.10394
H_ H_ 0.234482 0.0809979 0.112836 0.10394
H_ H_ 0.102918 0.0889724 -0.000617231 0.10394
C_ C_ 0.168643 0.0919479 0.292242 0.18167
C_ C_ 0.219195 0.075708 0.277665 -0.15533
C_ C_ 0.235265 0.0235679 0.276277 0.02923
C_ C_ 0.214205 0.488275 0.302606 -0.15533
C_ C_ 0.157699 0.00930573 0.311947 0.18167
C_ C_ 0.02487 0.129879 0.262986 0.18167
C_ C_ 0.511914 0.178085 0.235504 -0.15533
C_ C_ 0.00849134 0.222462 0.261058 0.02923
C_ C_ 0.0289323 0.226978 0.314647 -0.15533
C_ C_ 0.045488 0.182401 0.339525 0.18167
C_ C_ 0.00797947 0.0405697 0.371847 0.69207
C_ C_ 0.476264 0.505261 0.382627 0.02923
C_ C_ 0.499158 0.457609 0.39297 -0.15533
C_ C_ 0.470148 0.417278 0.395337 -0.15533
C_ C_ 0.41614 0.42444 0.397565 0.02923
C_ C_ 0.394565 0.474367 0.393587 -0.15533
C_ C_ 0.423245 0.515286 0.388448 0.02923
C_ C_ 0.395635 0.067151 0.382388 0.69207
C_ C_ 0.411431 0.327542 0.384936 0.69661
C_ C_ 0.0717772 0.30312 0.087257 0.18167
C_ C_ 0.0272089 0.286681 0.0669069 -0.15533
C_ C_ 0.0219337 0.265298 0.0145784 0.02923
C_ C_ 0.0484889 0.290514 0.486072 -0.15533
C_ C_ 0.106235 0.284358 0.00817952 0.18167
C_ C_ 0.228118 0.26278 0.134469 0.18167
C_ C_ 0.25513 0.235279 0.176191 -0.15533
C_ C_ 0.255192 0.257271 0.224434 0.02923
C_ C_ 0.232506 0.305803 0.232262 -0.15533
C_ C_ 0.20567 0.3318 0.19155 0.18167
C_ C_ 0.247644 0.363015 0.0474884 0.69207
C_ C_ 0.279302 0.367956 0.502115 0.02923
C_ C_ 0.262281 0.357945 0.450111 -0.15533
C_ C_ 0.294342 0.360076 0.411116 -0.15533
C_ C_ 0.342419 0.383007 0.422582 0.02923
C_ C_ 0.357962 0.394856 0.475908 -0.15533
C_ C_ 0.330418 0.380862 0.515307 0.02923
C_ C_ 0.3529 0.390209 0.0701658 0.69207
C_ C_ 0.358851 0.390089 0.327946 0.69661
C_ C_ 0.316237 0.429007 0.194162 0.18167
C_ C_ 0.277525 0.452433 0.221463 -0.15533
C_ C_ 0.283472 0.498484 0.250225 0.02923
C_ C_ 0.326995 0.013976 0.260445 -0.15533
C_ C_ 0.361595 0.501728 0.213809 0.18167
C_ C_ 0.49559 0.359869 0.205755 0.18167
C_ C_ 0.011064 0.311891 0.235948 -0.15533
C_ C_ 0.491688 0.272036 0.230232 0.02923
C_ C_ 0.441939 0.276389 0.212879 -0.15533
C_ C_ 0.417401 0.32057 0.19221 0.18167
C_ C_ 0.484043 0.455739 0.118484 0.69207
C_ C_ 0.0234223 0.992985 0.115214 0.02923
C_ C_ 0.0011900000000000244 0.0437047 0.114661 -0.15533
C_ C_ 0.0314212 0.081446 0.107914 -0.15533
C_ C_ 0.0835685 0.0708249 0.106245 0.02923
C_ C_ 0.104292 0.0193328 0.105017 -0.15533
C_ C_ 0.0751333 0.980084 0.111517 0.02923
C_ C_ 0.106192 0.423703 0.108684 0.69207
C_ C_ 0.0960674 0.165332 0.0909629 0.69661
C_ C_ 0.443824 0.158585 0.467616 0.18167
C_ C_ 0.481245 0.186887 0.490188 -0.15533
C_ C_ 0.471883 0.236796 0.511095 0.02923
C_ C_ 0.424099 0.250789 0.0176614 -0.15533
C_ C_ 0.380731 0.227469 0.493696 0.18167
C_ C_ 0.265767 0.197132 0.353889 0.18167
C_ C_ 0.244938 0.224196 0.310372 -0.15533
C_ C_ 0.27507 0.229436 0.272248 0.02923
C_ C_ 0.326975 0.218912 0.282513 -0.15533
C_ C_ 0.346964 0.19535 0.328241 0.18167
C_ C_ 0.266535 0.11264 0.451307 0.69207
C_ C_ 0.223013 0.115138 0.991572 0.02923
C_ C_ 0.245034 0.109624 0.0419967 -0.15533
C_ C_ 0.214804 0.0947295 0.0775901 -0.15533
C_ C_ 0.161644 0.0947575 0.0655531 0.02923
C_ C_ 0.143852 0.088082 0.0134046 -0.15533
C_ C_ 0.17398 0.100084 0.97532 0.02923
C_ C_ 0.150685 0.101401 0.422981 0.69207
C_ C_ 0.144078 0.11978 0.16033 0.69661
C_ C_ 0.381023 0.38237 0.383508 -0.30787
C_ C_ 0.120686 0.111771 0.103226 -0.30787
N_ N_ 0.139864 0.058742 0.311288 -0.32189
N_ N_ 0.0481112 0.137177 0.312839 -0.32189
N_ N_ 0.109757 0.306824 0.0581325 -0.32189
N_ N_ 0.203487 0.310392 0.143731 -0.32189
N_ N_ 0.359799 0.452925 0.192831 -0.32189
N_ N_ 0.445708 0.360678 0.189272 -0.32189
N_ N_ 0.393635 0.182708 0.465237 -0.32189
N_ N_ 0.316695 0.184305 0.363204 -0.32189
O_ O_ 0.494406 0.0935172 0.381621 -0.63271
O_ O_ 0.0429016 0.0324318 0.339424 -0.57982
O_ O_ 0.392079 0.0987754 0.344636 -0.63271
O_ O_ 0.369245 0.0822787 0.420137 -0.57982
O_ O_ 0.244715 0.397464 0.0866537 -0.63271
O_ O_ 0.211021 0.332764 0.0383461 -0.57982
O_ O_ 0.356275 0.349235 0.094311 -0.63271
O_ O_ 0.375534 0.427888 0.0910559 -0.57982
O_ O_ 1.00411986 0.408398 0.109889 -0.63271
O_ O_ 0.449522 0.466933 0.15152 -0.57982
O_ O_ 0.110021 0.402274 0.150807 -0.63271
O_ O_ 0.137324 0.406892 0.0762915 -0.57982
O_ O_ 0.261447 0.0919798 0.405012 -0.63271
O_ O_ 0.298754 0.146386 0.461415 -0.57982
O_ O_ 0.149532 0.143383 0.398268 -0.63271
O_ O_ 0.120661 0.0675776 0.407884 -0.57982
F_ F_ 0.444126 0.32441 0.429371 -0.20885
F_ F_ 0.442443 0.314995 0.346331 -0.20885
F_ F_ 0.38592 0.285569 0.387151 -0.20885
F_ F_ 0.324628 0.434167 0.321836 -0.20885
F_ F_ 0.33189 0.350616 0.308024 -0.20885
F_ F_ 0.394785 0.392098 0.294492 -0.20885
F_ F_ 0.0654314 0.161971 0.0420527 -0.20885
F_ F_ 0.067146 0.191801 0.129039 -0.20885
F_ F_ 0.134459 0.197037 0.0895342 -0.20885
F_ F_ 0.171571 0.0748566 0.178857 -0.20885
F_ F_ 0.180999 0.15421 0.164017 -0.20885
F_ F_ 0.108791 0.128643 0.193734 -0.20885
Zn Zn 0.0851981 0.0835333 0.841073 0.83971
Zn Zn 0.160825 0.344733 0.582721 0.83971
Zn Zn 0.409508 0.420659 0.653245 0.83971
Zn Zn 0.337333 0.152708 0.920203 0.83971
H_ H_ 0.174602 0.135618 0.808442 0.10394
H_ H_ 0.252359 0.0964675 0.775702 0.10394
H_ H_ 0.216456 0.453754 0.780374 0.10394
H_ H_ 0.135897 0.984378 0.827301 0.10394
H_ H_ 0.525886 0.10599 0.757619 0.10394
H_ H_ 0.477947 0.176099 0.709078 0.10394
H_ H_ 0.0330513 0.270234 0.824822 0.10394
H_ H_ 0.0637515 0.19579 0.874537 0.10394
H_ H_ 0.0266617 0.441259 0.860363 0.10394
H_ H_ 0.49035 0.383042 0.893911 0.10394
H_ H_ 0.35058 0.490557 0.894849 0.10394
H_ H_ 0.0824367 0.300547 0.632453 0.10394
H_ H_ 0.49456 0.27935 0.602989 0.10394
H_ H_ 0.0526986 0.263359 0.946296 0.10394
H_ H_ 0.125202 0.307814 0.48099 0.10394
H_ H_ 0.223553 0.251159 0.607479 0.10394
H_ H_ 0.258803 0.209465 0.686228 0.10394
H_ H_ 0.20157 0.336769 0.775473 0.10394
H_ H_ 0.172309 0.382899 0.694217 0.10394
H_ H_ 0.220761 0.359906 0.940665 0.10394
H_ H_ 0.281422 0.357408 0.87637 0.10394
H_ H_ 0.390045 0.422333 0.987154 0.10394
H_ H_ 0.303681 0.401084 0.657133 0.10394
H_ H_ 0.232565 0.441778 0.698332 0.10394
H_ H_ 0.332756 0.0440193 0.772642 0.10394
H_ H_ 0.394826 0.512585 0.73004 0.10394
H_ H_ 0.0100664 0.374974 0.681019 0.10394
H_ H_ 0.0511619 0.298605 0.728036 0.10394
H_ H_ 0.408258 0.253837 0.737852 0.10394
H_ H_ 0.365602 0.331294 0.692078 0.10394
H_ H_ 0.469936 0.056275 0.642127 0.10394
H_ H_ 0.0221348 0.122452 0.621633 0.10394
H_ H_ 0.141834 0.00689734 0.593721 0.10394
H_ H_ 0.43854 0.156322 0.902943 0.10394
H_ H_ 0.0173986 0.187206 0.945067 0.10394
H_ H_ 0.409555 0.295876 0.524862 0.10394
H_ H_ 0.346004 0.228448 0.0121131 0.10394
H_ H_ 0.234186 0.208254 0.899667 0.10394
H_ H_ 0.191642 0.251919 0.824481 0.10394
H_ H_ 0.332152 0.242771 0.759563 0.10394
H_ H_ 0.374237 0.191957 0.828891 0.10394
H_ H_ 0.284292 0.118049 0.555257 0.10394
H_ H_ 0.23306 0.104554 0.619329 0.10394
H_ H_ 0.10553 0.0905933 0.502359 0.10394
C_ C_ 0.181799 0.0933214 0.80415 0.18167
C_ C_ 0.225597 0.0732188 0.78251 -0.15533
C_ C_ 0.233719 0.0209912 0.77174 0.02923
C_ C_ 0.198662 0.491552 0.779855 -0.15533
C_ C_ 0.160709 0.00977703 0.813728 0.18167
C_ C_ 0.026421 0.134206 0.762679 0.18167
C_ C_ 0.499507 0.182951 0.745772 -0.15533
C_ C_ -0.000857684 0.22495 0.761062 0.02923
C_ C_ 0.0267053 0.232111 0.808744 -0.15533
C_ C_ 0.0494917 0.18828 0.834704 0.18167
C_ C_ 0.00750966 0.0421157 0.866409 0.69207
C_ C_ 0.472839 0.511183 0.882307 0.02923
C_ C_ 0.496424 0.460911 0.885539 -0.15533
C_ C_ 0.470877 0.420432 0.896642 -0.15533
C_ C_ 0.416679 0.428911 0.894161 0.02923
C_ C_ 0.393 0.480353 0.89782 -0.15533
C_ C_ 0.421942 0.519987 0.889025 0.02923
C_ C_ 0.392698 0.0746362 0.882106 0.69207
C_ C_ 0.407972 0.334208 0.878406 0.69661
C_ C_ 0.0743446 0.298362 0.589692 0.18167
C_ C_ 0.0275086 0.280431 0.570803 -0.15533
C_ C_ 0.0148198 0.274856 0.518114 0.02923
C_ C_ 0.0588037 0.273368 0.985349 -0.15533
C_ C_ 0.0974958 0.300289 0.506521 0.18167
C_ C_ 0.215717 0.269648 0.642942 0.18167
C_ C_ 0.237232 0.24569 0.689809 -0.15533
C_ C_ 0.232361 0.271706 0.737102 0.02923
C_ C_ 0.204242 0.319832 0.738084 -0.15533
C_ C_ 0.183085 0.342719 0.692734 0.18167
C_ C_ 0.244135 0.365422 0.543763 0.69207
C_ C_ 0.278788 0.370781 0.00463574 0.02923
C_ C_ 0.26104 0.362143 0.953036 -0.15533
C_ C_ 0.293112 0.367117 0.914703 -0.15533
C_ C_ 0.341376 0.384867 0.924993 0.02923
C_ C_ 0.355813 0.40198 0.976753 -0.15533
C_ C_ 0.328469 0.390922 0.0162368 0.02923
C_ C_ 0.351009 0.386379 0.57054 0.69207
C_ C_ 0.354312 0.393544 0.826628 0.69661
C_ C_ 0.305716 0.438075 0.676285 0.18167
C_ C_ 0.263442 0.4629 0.697511 -0.15533
C_ C_ 0.268148 0.510952 0.72816 0.02923
C_ C_ 0.325895 0.0113719 0.750239 -0.15533
C_ C_ 0.357581 0.497431 0.71898 0.18167
C_ C_ 0.487251 0.357081 0.698157 0.18167
C_ C_ 0.00917729 0.305351 0.722079 -0.15533
C_ C_ 0.483727 0.27605 0.734833 0.02923
C_ C_ 0.430562 0.280456 0.721256 -0.15533
C_ C_ 0.407843 0.322609 0.696447 0.18167
C_ C_ 0.488737 0.460475 0.629473 0.69207
C_ C_ 0.0219651 0.992934 0.615221 0.02923
C_ C_ 0.00350248 0.0447967 0.623381 -0.15533
C_ C_ 0.0334366 0.0826191 0.611119 -0.15533
C_ C_ 0.0847081 0.0703539 0.599812 0.02923
C_ C_ 0.101868 0.0184987 0.59713 -0.15533
C_ C_ 0.072629 0.979065 0.606686 0.02923
C_ C_ 0.0996733 0.426472 0.603287 0.69207
C_ C_ 0.0997369 0.165026 0.594763 0.69661
C_ C_ 0.433376 0.180081 0.936054 0.18167
C_ C_ 0.476586 0.204531 0.957397 -0.15533
C_ C_ 0.471576 0.238373 1.00025 0.02923
C_ C_ 0.418003 0.258187 0.511268 -0.15533
C_ C_ 0.384127 0.221807 0.998489 0.18167
C_ C_ 0.255247 0.210704 0.865458 0.18167
C_ C_ 0.228703 0.234564 0.823174 -0.15533
C_ C_ 0.256909 0.247245 0.784332 0.02923
C_ C_ 0.308859 0.232811 0.78595 -0.15533
C_ C_ 0.332692 0.20595 0.826349 0.18167
C_ C_ 0.256958 0.130239 0.956066 0.69207
C_ C_ 0.229998 0.105838 0.490367 0.02923
C_ C_ 0.244947 0.113361 0.541014 -0.15533
C_ C_ 0.212511 0.112821 0.58048 -0.15533
C_ C_ 0.162741 0.100147 0.567727 0.02923
C_ C_ 0.145518 0.0912205 0.515251 -0.15533
C_ C_ 0.175965 0.0980409 0.477075 0.02923
C_ C_ 0.149225 0.105043 0.923481 0.69207
C_ C_ 0.145138 0.114805 0.663701 0.69661
C_ C_ 0.378101 0.387215 0.883125 -0.30787
C_ C_ 0.12354 0.11135 0.606344 -0.30787
N_ N_ 0.146737 0.0597472 0.813253 -0.32189
N_ N_ 0.0482637 0.141636 0.811583 -0.32189
N_ N_ 0.106925 0.311129 0.557629 -0.32189
N_ N_ 0.188997 0.316393 0.646666 -0.32189
N_ N_ 0.353912 0.454537 0.688286 -0.32189
N_ N_ 0.435957 0.360743 0.686426 -0.32189
N_ N_ 0.388705 0.189812 0.954941 -0.32189
N_ N_ 0.304381 0.189934 0.862664 -0.32189
O_ O_ 0.505986 0.0891812 0.902865 -0.63271
O_ O_ 0.0476708 0.0320918 0.839649 -0.57982
O_ O_ 0.398487 0.104116 0.844429 -0.63271
O_ O_ 0.361794 0.0918894 0.916018 -0.57982
O_ O_ 0.247495 0.393434 0.586339 -0.63271
O_ O_ 0.210312 0.330934 0.538508 -0.57982
O_ O_ 0.361368 0.344347 0.594625 -0.63271
O_ O_ 0.375833 0.424455 0.588675 -0.57982
O_ O_ 0.993551 0.403793 0.594354 -0.63271
O_ O_ 0.455347 0.469123 0.663845 -0.57982
O_ O_ 0.087292 0.40387 0.642059 -0.63271
O_ O_ 0.138791 0.409155 0.577222 -0.57982
O_ O_ 0.256982 0.104973 0.911763 -0.63271
O_ O_ 0.294419 0.156983 0.971486 -0.57982
O_ O_ 0.153789 0.148234 0.902293 -0.63271
O_ O_ 0.107174 0.0828472 0.909232 -0.57982
F_ F_ 0.434441 0.318927 0.92352 -0.20885
F_ F_ 0.444469 0.327993 0.841299 -0.20885
F_ F_ 0.375022 0.297409 0.873016 -0.20885
F_ F_ 0.312343 0.429239 0.822461 -0.20885
F_ F_ 0.339218 0.350759 0.802495 -0.20885
F_ F_ 0.388764 0.411887 0.799958 -0.20885
F_ F_ 0.0625087 0.160807 0.553281 -0.20885
F_ F_ 0.0760775 0.192817 0.634109 -0.20885
F_ F_ 0.136088 0.19453 0.582176 -0.20885
F_ F_ 0.176404 0.0717322 0.675238 -0.20885
F_ F_ 0.173041 0.154054 0.679009 -0.20885
F_ F_ 0.108599 0.117374 0.697105 -0.20885
Zn Zn 0.0880213 0.580054 0.341388 0.83971
Zn Zn 0.162101 0.846236 0.0873649 0.83971
Zn Zn 0.407293 0.916821 0.160397 0.83971
Zn Zn 0.341711 0.652256 0.417118 0.83971
H_ H_ 0.166522 0.629105 0.300966 0.10394
H_ H_ 0.252201 0.600738 0.27922 0.10394
H_ H_ 0.221846 0.948886 0.295617 0.10394
H_ H_ 0.141 0.476956 0.329793 0.10394
H_ H_ 0.512631 0.599764 0.25682 0.10394
H_ H_ 0.487606 0.672996 0.204757 0.10394
H_ H_ 0.0214582 0.761506 0.333833 0.10394
H_ H_ 0.0532668 0.681764 0.382555 0.10394
H_ H_ 0.0251018 0.938251 0.351029 0.10394
H_ H_ 0.489902 0.874724 0.37401 0.10394
H_ H_ 0.362225 0.980361 0.409698 0.10394
H_ H_ 0.0827529 0.806315 0.132106 0.10394
H_ H_ 0.498903 0.779181 0.0933063 0.10394
H_ H_ 0.0399302 0.781066 0.445194 0.10394
H_ H_ 0.115561 0.830018 0.984505 0.10394
H_ H_ 0.229199 0.753618 0.0997534 0.10394
H_ H_ 0.274722 0.709235 0.174775 0.10394
H_ H_ 0.213919 0.827411 0.274741 0.10394
H_ H_ 0.164483 0.868965 0.203737 0.10394
H_ H_ 0.223478 0.860379 0.432017 0.10394
H_ H_ 0.277362 0.883445 0.373552 0.10394
H_ H_ 0.403479 0.894362 0.486646 0.10394
H_ H_ 0.304117 0.903492 0.163021 0.10394
H_ H_ 0.231186 0.959584 0.195751 0.10394
H_ H_ 0.334974 0.558321 0.267082 0.10394
H_ H_ 0.403972 0.004050000000000109 0.239054 0.10394
H_ H_ 0.011286 0.883376 0.211861 0.10394
H_ H_ 0.0544721 0.806481 0.248482 0.10394
H_ H_ 0.416503 0.740074 0.208428 0.10394
H_ H_ 0.377445 0.815854 0.173737 0.10394
H_ H_ 0.468101 0.561119 0.125202 0.10394
H_ H_ 0.0280692 0.619203 0.131197 0.10394
H_ H_ 0.150528 0.503073 0.0916198 0.10394
H_ H_ 0.444335 0.670612 0.391248 0.10394
H_ H_ 0.0113618 0.697756 0.451733 0.10394
H_ H_ 0.416788 0.775333 0.0444345 0.10394
H_ H_ 0.347051 0.722605 0.502153 0.10394
H_ H_ 0.242488 0.689143 0.380168 0.10394
H_ H_ 0.199897 0.734316 0.307165 0.10394
H_ H_ 0.347056 0.735965 0.255199 0.10394
H_ H_ 0.382628 0.68358 0.323629 0.10394
H_ H_ 0.289189 0.623867 0.0482096 0.10394
H_ H_ 0.242315 0.601696 0.113828 0.10394
H_ H_ 0.113044 0.582776 0.00618611 0.10394
C_ C_ 0.177034 0.588937 0.297265 0.18167
C_ C_ 0.228014 0.571905 0.284352 -0.15533
C_ C_ 0.244158 0.520623 0.282141 0.02923
C_ C_ 0.206195 0.991034 0.297613 -0.15533
C_ C_ 0.164375 0.505557 0.315385 0.18167
C_ C_ 0.0400481 0.63294 0.262371 0.18167
C_ C_ 0.504549 0.676765 0.242331 -0.15533
C_ C_ 0.0125587 0.72043 0.260748 0.02923
C_ C_ 0.0255293 0.725305 0.31447 -0.15533
C_ C_ 0.0463387 0.680349 0.340397 0.18167
C_ C_ 0.00152219 0.545471 0.3557 0.69207
C_ C_ 0.472693 0.0034885 0.367702 0.02923
C_ C_ 0.494628 0.952969 0.364623 -0.15533
C_ C_ 0.469916 0.911963 0.377905 -0.15533
C_ C_ 0.419307 0.922581 0.389539 0.02923
C_ C_ 0.397056 0.973659 0.392667 -0.15533
C_ C_ 0.421201 0.0134631 0.378322 0.02923
C_ C_ 0.397481 0.568548 0.385885 0.69207
C_ C_ 0.413205 0.822795 0.390234 0.69661
C_ C_ 0.0753378 0.800517 0.089423 0.18167
C_ C_ 0.0283433 0.781431 0.0706252 -0.15533
C_ C_ 0.0173519 0.769882 0.0179172 0.02923
C_ C_ 0.0431384 0.790576 0.485113 -0.15533
C_ C_ 0.095902 0.808925 0.0061249 0.18167
C_ C_ 0.224015 0.769983 0.1384 0.18167
C_ C_ 0.24849 0.741592 0.182187 -0.15533
C_ C_ 0.248023 0.766137 0.229669 0.02923
C_ C_ 0.219079 0.812931 0.236279 -0.15533
C_ C_ 0.191564 0.83585 0.19459 0.18167
C_ C_ 0.243152 0.877829 0.0506863 0.69207
C_ C_ 0.280278 0.87176 0.498881 0.02923
C_ C_ 0.262071 0.869782 0.445294 -0.15533
C_ C_ 0.295588 0.878615 0.411184 -0.15533
C_ C_ 0.348987 0.884069 0.423981 0.02923
C_ C_ 0.364626 0.887251 0.475794 -0.15533
C_ C_ 0.332464 0.884799 0.514478 0.02923
C_ C_ 0.353255 0.881295 0.0714936 0.69207
C_ C_ 0.362549 0.878567 0.326494 0.69661
C_ C_ 0.309905 0.936028 0.188709 0.18167
C_ C_ 0.269661 0.96246 0.210188 -0.15533
C_ C_ 0.278937 1.000939346 0.248514 0.02923
C_ C_ 0.329761 0.519683 0.250804 -0.15533
C_ C_ 0.366917 0.988036 0.233694 0.18167
C_ C_ 0.490347 0.85672 0.21009 0.18167
C_ C_ 0.01351 0.805846 0.232873 -0.15533
C_ C_ 0.490759 0.768729 0.233016 0.02923
C_ C_ 0.441964 0.767345 0.203664 -0.15533
C_ C_ 0.418285 0.813276 0.185056 0.18167
C_ C_ 0.477322 0.959899 0.122148 0.69207
C_ C_ 0.0330648 0.492498 0.127292 0.02923
C_ C_ 0.0183569 0.54391 0.136363 -0.15533
C_ C_ 0.0476423 0.580666 0.125415 -0.15533
C_ C_ 0.0965019 0.568138 0.105807 0.02923
C_ C_ 0.111692 0.514345 0.0982355 -0.15533
C_ C_ 0.0808012 0.477393 0.108841 0.02923
C_ C_ 0.103083 0.928939 0.11837 0.69207
C_ C_ 0.110812 0.664161 0.10662 0.69661
C_ C_ 0.442001 0.683356 0.430634 0.18167
C_ C_ 0.484241 0.697484 0.462183 -0.15533
C_ C_ 0.475036 0.731395 0.50581 0.02923
C_ C_ 0.427417 0.749109 0.0139005 -0.15533
C_ C_ 0.386045 0.71865 0.491485 0.18167
C_ C_ 0.265142 0.696961 0.350536 0.18167
C_ C_ 0.241693 0.724888 0.309498 -0.15533
C_ C_ 0.27085 0.739566 0.273996 0.02923
C_ C_ 0.321063 0.718955 0.275911 -0.15533
C_ C_ 0.342929 0.6931 0.319417 0.18167
C_ C_ 0.258339 0.630003 0.454072 0.69207
C_ C_ 0.22727 0.620642 0.98809 0.02923
C_ C_ 0.249032 0.619217 0.0382133 -0.15533
C_ C_ 0.222829 0.60404 0.0766838 -0.15533
C_ C_ 0.170096 0.600691 0.0677008 0.02923
C_ C_ 0.151344 0.593228 0.0156931 -0.15533
C_ C_ 0.176567 0.607488 0.975542 0.02923
C_ C_ 0.148673 0.611046 0.424467 0.69207
C_ C_ 0.163837 0.607761 0.161867 0.69661
C_ C_ 0.387077 0.876445 0.383599 -0.30787
C_ C_ 0.134999 0.608659 0.111185 -0.30787
N_ N_ 0.144835 0.554783 0.308294 -0.32189
N_ N_ 0.0538609 0.636565 0.31373 -0.32189
N_ N_ 0.108321 0.810932 0.057518 -0.32189
N_ N_ 0.199599 0.816965 0.146839 -0.32189
N_ N_ 0.357695 0.949156 0.200248 -0.32189
N_ N_ 0.442671 0.85593 0.186495 -0.32189
N_ N_ 0.39525 0.688414 0.448727 -0.32189
N_ N_ 0.314889 0.684601 0.356685 -0.32189
O_ O_ 0.507254 0.589706 0.391729 -0.63271
O_ O_ 0.0439516 0.531897 0.332288 -0.57982
O_ O_ 0.397232 0.591955 0.343795 -0.63271
O_ O_ 0.363361 0.582826 0.416398 -0.57982
O_ O_ 0.242183 0.909517 0.0917569 -0.63271
O_ O_ 0.205997 0.846383 0.0418295 -0.57982
O_ O_ 0.349184 0.83856 0.0923342 -0.63271
O_ O_ 0.380528 0.913837 0.0967421 -0.57982
O_ O_ 0.986414 0.91225 0.096865 -0.63271
O_ O_ 0.446558 0.967289 0.157902 -0.57982
O_ O_ 0.0938914 0.902717 0.155937 -0.63271
O_ O_ 0.131371 0.907859 0.083314 -0.57982
O_ O_ 0.253898 0.60262 0.410791 -0.63271
O_ O_ 0.30071 0.650339 0.469138 -0.57982
O_ O_ 0.14618 0.655704 0.403516 -0.63271
O_ O_ 0.116873 0.576015 0.405756 -0.57982
F_ F_ 0.447403 0.820271 0.434346 -0.20885
F_ F_ 0.440942 0.803524 0.34863 -0.20885
F_ F_ 0.381234 0.786745 0.395853 -0.20885
F_ F_ 0.329627 0.920779 0.316228 -0.20885
F_ F_ 0.337675 0.837906 0.309879 -0.20885
F_ F_ 0.398215 0.880778 0.292859 -0.20885
F_ F_ 0.0748878 0.663413 0.0629877 -0.20885
F_ F_ 0.086276 0.68495 0.150621 -0.20885
F_ F_ 0.142612 0.700647 0.0955544 -0.20885
F_ F_ 0.194268 0.561118 0.172107 -0.20885
F_ F_ 0.193164 0.647624 0.17294 -0.20885
F_ F_ 0.132142 0.60988 0.199249 -0.20885
Zn Zn 0.0860896 0.588744 0.846041 0.83971
Zn Zn 0.158295 0.846927 0.579793 0.83971
Zn Zn 0.405398 0.911271 0.653985 0.83971
Zn Zn 0.34523 0.655621 0.90847 0.83971
H_ H_ 0.160363 0.634944 0.807767 0.10394
H_ H_ 0.239126 0.607302 0.767911 0.10394
H_ H_ 0.209301 0.94888 0.780275 0.10394
H_ H_ 0.137902 0.481915 0.828061 0.10394
H_ H_ 0.526008 0.59358 0.750387 0.10394
H_ H_ 0.477771 0.67045 0.710273 0.10394
H_ H_ 0.0560736 0.774771 0.819155 0.10394
H_ H_ 0.0819745 0.706313 0.871633 0.10394
H_ H_ 0.0352252 0.940883 0.874444 0.10394
H_ H_ 0.477962 0.87971 0.876538 0.10394
H_ H_ 0.349375 0.990285 0.903562 0.10394
H_ H_ 0.0731726 0.811022 0.631194 0.10394
H_ H_ 0.503257 0.762138 0.603793 0.10394
H_ H_ 0.039762 0.788404 0.94443 0.10394
H_ H_ 0.110794 0.823015 0.4784 0.10394
H_ H_ 0.21232 0.753583 0.589571 0.10394
H_ H_ 0.260236 0.700905 0.652975 0.10394
H_ H_ 0.217239 0.829226 0.765064 0.10394
H_ H_ 0.188307 0.880502 0.688975 0.10394
H_ H_ 0.214817 0.87582 0.945244 0.10394
H_ H_ 0.263386 0.89596 0.880995 0.10394
H_ H_ 0.398836 0.897176 0.989925 0.10394
H_ H_ 0.301439 0.886483 0.67339 0.10394
H_ H_ 0.22734 0.949005 0.694008 0.10394
H_ H_ 0.322473 0.557736 0.76585 0.10394
H_ H_ 0.407997 -0.009067000000000047 0.738003 0.10394
H_ H_ 0.0110799 0.888489 0.693799 0.10394
H_ H_ 0.054881 0.809893 0.727823 0.10394
H_ H_ 0.410724 0.757167 0.751187 0.10394
H_ H_ 0.368679 0.823179 0.694655 0.10394
H_ H_ 0.465747 0.557104 0.622069 0.10394
H_ H_ 0.00405669 0.612217 0.577607 0.10394
H_ H_ 0.139472 0.511414 0.58837 0.10394
H_ H_ 0.452216 0.671442 0.890062 0.10394
H_ H_ 0.0165544 0.7021 0.934807 0.10394
H_ H_ 0.420455 0.774018 0.548258 0.10394
H_ H_ 0.350434 0.728976 -0.0015159999999999618 0.10394
H_ H_ 0.241412 0.70192 0.880426 0.10394
H_ H_ 0.192327 0.731516 0.800005 0.10394
H_ H_ 0.331536 0.702307 0.726838 0.10394
H_ H_ 0.37717 0.683163 0.816994 0.10394
H_ H_ 0.275902 0.637744 0.559435 0.10394
H_ H_ 0.216282 0.625048 0.62625 0.10394
H_ H_ 0.0995417 0.587657 0.504473 0.10394
C_ C_ 0.166217 0.595522 0.793218 0.18167
C_ C_ 0.21327 0.579718 0.773044 -0.15533
C_ C_ 0.227251 0.527845 0.762508 0.02923
C_ C_ 0.203777 0.988279 0.791372 -0.15533
C_ C_ 0.155902 0.508778 0.806481 0.18167
C_ C_ 0.0247182 0.640382 0.772648 0.18167
C_ C_ 0.502683 0.675199 0.744786 -0.15533
C_ C_ 0.0106282 0.731391 0.760806 0.02923
C_ C_ 0.0403849 0.73977 0.806385 -0.15533
C_ C_ 0.0573973 0.698398 0.837274 0.18167
C_ C_ 0.0115399 0.545275 0.869488 0.69207
C_ C_ 0.468279 0.00770173 0.873002 0.02923
C_ C_ 0.487558 0.956572 0.870571 -0.15533
C_ C_ 0.457745 0.9167 0.873476 -0.15533
C_ C_ 0.406615 0.928383 0.883954 0.02923
C_ C_ 0.385539 0.98116 0.887658 -0.15533
C_ C_ 0.415116 0.0213584 0.883892 0.02923
C_ C_ 0.397945 0.573141 0.887093 0.69207
C_ C_ 0.402231 0.830084 0.886468 0.69661
C_ C_ 0.0670105 0.804757 0.589882 0.18167
C_ C_ 0.021074 0.784969 0.571179 -0.15533
C_ C_ 0.00827122 0.776602 0.518771 0.02923
C_ C_ 0.0501695 0.78965 0.986009 -0.15533
C_ C_ 0.0895686 0.808212 0.504565 0.18167
C_ C_ 0.218839 0.76959 0.626463 0.18167
C_ C_ 0.245035 0.740174 0.665262 -0.15533
C_ C_ 0.24226 0.757817 0.717397 0.02923
C_ C_ 0.219675 0.809981 0.726972 -0.15533
C_ C_ 0.198005 0.838089 0.685313 0.18167
C_ C_ 0.24059 0.872887 0.537471 0.69207
C_ C_ 0.274695 0.887496 0.00800582 0.02923
C_ C_ 0.254353 0.885017 0.956676 -0.15533
C_ C_ 0.284215 0.889056 0.919454 -0.15533
C_ C_ 0.337465 0.894122 0.928151 0.02923
C_ C_ 0.358889 0.893702 0.979158 -0.15533
C_ C_ 0.327545 0.891852 0.017808 0.02923
C_ C_ 0.356428 0.879281 0.569446 0.69207
C_ C_ 0.342906 0.88379 0.829053 0.69661
C_ C_ 0.309203 0.923294 0.689884 0.18167
C_ C_ 0.266967 0.956946 0.705435 -0.15533
C_ C_ 0.275012 0.99646947 0.741839 0.02923
C_ C_ 0.316527 0.525294 0.73905 -0.15533
C_ C_ 0.367427 0.980207 0.732247 0.18167
C_ C_ 0.492127 0.842631 0.691969 0.18167
C_ C_ 0.0139665 0.812723 0.71847 -0.15533
C_ C_ 0.484888 0.772 0.743153 0.02923
C_ C_ 0.433031 0.777151 0.729906 -0.15533
C_ C_ 0.410699 0.816978 0.700122 0.18167
C_ C_ 0.484796 0.952997 0.628228 0.69207
C_ C_ 0.0196233 0.488762 0.603104 0.02923
C_ C_ 0.996828 0.53821 0.599926 -0.15533
C_ C_ 0.0256214 0.579292 0.594513 -0.15533
C_ C_ 0.0779199 0.570302 0.591973 0.02923
C_ C_ 0.0992777 0.518757 0.589834 -0.15533
C_ C_ 0.07104 0.477148 0.59615 0.02923
C_ C_ 0.0963636 0.926593 0.608085 0.69207
C_ C_ 0.0856759 0.668435 0.600488 0.69661
C_ C_ 0.445396 0.690464 0.92672 0.18167
C_ C_ 0.483641 0.714435 0.950971 -0.15533
C_ C_ 0.475963 0.745104 -0.004541000000000017 0.02923
C_ C_ 0.425597 0.742153 0.519501 -0.15533
C_ C_ 0.389191 0.723793 0.986827 0.18167
C_ C_ 0.260743 0.704087 0.847879 0.18167
C_ C_ 0.232809 0.724008 0.802624 -0.15533
C_ C_ 0.261836 0.724135 0.759619 0.02923
C_ C_ 0.312855 0.702913 0.762021 -0.15533
C_ C_ 0.337747 0.687489 0.808603 0.18167
C_ C_ 0.265021 0.624544 0.948253 0.69207
C_ C_ 0.222537 0.622573 0.493486 0.02923
C_ C_ 0.238377 0.628006 0.546893 -0.15533
C_ C_ 0.203753 0.622605 0.58499 -0.15533
C_ C_ 0.154533 0.606422 0.569431 0.02923
C_ C_ 0.138424 0.601454 0.516105 -0.15533
C_ C_ 0.170808 0.609677 0.47911 0.02923
C_ C_ 0.150036 0.610869 0.925074 0.69207
C_ C_ 0.130133 0.607932 0.663445 0.69661
C_ C_ 0.371961 0.885656 0.88304 -0.30787
C_ C_ 0.11193 0.613972 0.605568 -0.30787
N_ N_ 0.138336 0.559992 0.809733 -0.32189
N_ N_ 0.0497707 0.651011 0.818787 -0.32189
N_ N_ 0.100474 0.816344 0.556183 -0.32189
N_ N_ 0.191432 0.813493 0.637953 -0.32189
N_ N_ 0.356953 0.940252 0.698183 -0.32189
N_ N_ 0.440791 0.850933 0.685427 -0.32189
N_ N_ 0.397131 0.697975 0.941434 -0.32189
N_ N_ 0.310949 0.6852 0.849585 -0.32189
O_ O_ 0.507877 0.594467 0.894778 -0.63271
O_ O_ 0.0477692 0.535949 0.839358 -0.57982
O_ O_ 0.401829 0.601207 0.848967 -0.63271
O_ O_ 0.362613 0.591719 0.916434 -0.57982
O_ O_ 0.247651 0.896029 0.581601 -0.63271
O_ O_ 0.199883 0.847292 0.526993 -0.57982
O_ O_ 0.347258 0.842247 0.597294 -0.63271
O_ O_ 0.38206 0.914836 0.591028 -0.57982
O_ O_ 0.987913 0.913357 0.598272 -0.63271
O_ O_ 0.450765 0.961332 0.659374 -0.57982
O_ O_ 0.09601 0.89831 0.647862 -0.63271
O_ O_ 0.132111 0.911867 0.578713 -0.57982
O_ O_ 0.252912 0.608218 0.900069 -0.63271
O_ O_ 0.297211 0.659899 0.956876 -0.57982
O_ O_ 0.152033 0.652471 0.899166 -0.63271
O_ O_ 0.114922 0.581235 0.910724 -0.57982
F_ F_ 0.434738 0.83242 0.931628 -0.20885
F_ F_ 0.430735 0.818465 0.843402 -0.20885
F_ F_ 0.367484 0.795295 0.885337 -0.20885
F_ F_ 0.30697 0.925693 0.822018 -0.20885
F_ F_ 0.317403 0.842172 0.811633 -0.20885
F_ F_ 0.377197 0.885551 0.793062 -0.20885
F_ F_ 0.0690355 0.674767 0.549158 -0.20885
F_ F_ 0.0495478 0.676923 0.634339 -0.20885
F_ F_ 0.116234 0.707915 0.615605 -0.20885
F_ F_ 0.162519 0.564004 0.670387 -0.20885
F_ F_ 0.154935 0.649163 0.681374 -0.20885
F_ F_ 0.0887054 0.608119 0.693656 -0.20885
Zn Zn 0.584238 0.090084 0.348853 0.83971
Zn Zn 0.661303 0.342184 0.0847691 0.83971
Zn Zn 0.913513 0.416549 0.157716 0.83971
Zn Zn 0.838687 0.153055 0.419356 0.83971
H_ H_ 0.670023 0.135491 0.307257 0.10394
H_ H_ 0.743079 0.0962443 0.261602 0.10394
H_ H_ 0.715313 0.445488 0.281508 0.10394
H_ H_ 0.624085 0.985304 0.318414 0.10394
H_ H_ 0.0228186 0.0916106 0.247028 0.10394
H_ H_ 0.986638 0.165199 0.198408 0.10394
H_ H_ 0.546403 0.275443 0.319491 0.10394
H_ H_ 0.567163 0.201197 0.374536 0.10394
H_ H_ 0.539253 0.450155 0.406086 0.10394
H_ H_ 0.962424 0.378948 0.346334 0.10394
H_ H_ 0.848547 0.489678 0.399122 0.10394
H_ H_ 0.574386 0.309021 0.1331 0.10394
H_ H_ 0.997396 0.282135 0.0927958 0.10394
H_ H_ 0.546558 0.259567 0.451476 0.10394
H_ H_ 0.61206 0.322819 0.981393 0.10394
H_ H_ 0.735871 0.243955 0.0996673 0.10394
H_ H_ 0.770433 0.198951 0.17263 0.10394
H_ H_ 0.713955 0.328344 0.266799 0.10394
H_ H_ 0.677246 0.371327 0.187988 0.10394
H_ H_ 0.714531 0.359933 0.435225 0.10394
H_ H_ 0.761309 0.3815 0.368386 0.10394
H_ H_ 0.884562 0.416162 0.476882 0.10394
H_ H_ 0.811672 0.403673 0.156065 0.10394
H_ H_ 0.736351 0.448922 0.18768 0.10394
H_ H_ 0.834983 0.0469575 0.283758 0.10394
H_ H_ 0.903623 0.510827 0.234591 0.10394
H_ H_ 0.516512 0.394154 0.204749 0.10394
H_ H_ 0.561893 0.312656 0.233553 0.10394
H_ H_ 0.914872 0.237238 0.213105 0.10394
H_ H_ 0.872518 0.323495 0.176689 0.10394
H_ H_ 0.960667 0.0549239 0.117357 0.10394
H_ H_ 0.511563 0.121624 0.101301 0.10394
H_ H_ 0.641461 0.0110515 0.109182 0.10394
H_ H_ 0.943169 0.152559 0.409273 0.10394
H_ H_ 0.518976 0.170143 0.48944 0.10394
H_ H_ 0.919825 0.291109 0.0353362 0.10394
H_ H_ 0.843638 0.24171 0.500809 0.10394
H_ H_ 0.735591 0.181965 0.373983 0.10394
H_ H_ 0.695746 0.216332 0.298424 0.10394
H_ H_ 0.848423 0.235704 0.258914 0.10394
H_ H_ 0.883713 0.187709 0.332843 0.10394
H_ H_ 0.77949 0.128143 0.0502517 0.10394
H_ H_ 0.729924 0.0961546 0.110428 0.10394
H_ H_ 0.604721 0.0850204 0.00418095 0.10394
C_ C_ 0.677342 0.0933394 0.301719 0.18167
C_ C_ 0.719652 0.0719225 0.278437 -0.15533
C_ C_ 0.732462 0.0195023 0.275841 0.02923
C_ C_ 0.701074 0.485876 0.283059 -0.15533
C_ C_ 0.652068 0.00967838 0.308672 0.18167
C_ C_ 0.536475 0.137247 0.261902 0.18167
C_ C_ 0.00346038 0.172762 0.237526 -0.15533
C_ C_ 0.517287 0.227075 0.257994 0.02923
C_ C_ 0.544353 0.236795 0.303395 -0.15533
C_ C_ 0.555171 0.196394 0.334326 0.18167
C_ C_ 0.500503 0.048569 0.357611 0.69207
C_ C_ 0.965966 0.506126 0.361809 0.02923
C_ C_ 0.985802 0.453105 0.36213 -0.15533
C_ C_ 0.951929 0.416703 0.363023 -0.15533
C_ C_ 0.901756 0.429147 0.37756 0.02923
C_ C_ 0.885119 0.479099 0.387098 -0.15533
C_ C_ 0.916837 0.519659 0.377133 0.02923
C_ C_ 0.898531 0.0688958 0.395149 0.69207
C_ C_ 0.896757 0.329251 0.385645 0.69661
C_ C_ 0.568778 0.298467 0.0930951 0.18167
C_ C_ 0.522258 0.27886 0.0742036 -0.15533
C_ C_ 0.515366 0.265121 0.0214906 0.02923
C_ C_ 0.551936 0.270669 0.491878 -0.15533
C_ C_ 0.589508 0.30809 0.00810546 0.18167
C_ C_ 0.725265 0.25731 0.135866 0.18167
C_ C_ 0.749124 0.235643 0.178473 -0.15533
C_ C_ 0.747613 0.261357 0.226459 0.02923
C_ C_ 0.718457 0.306517 0.230709 -0.15533
C_ C_ 0.696652 0.332445 0.186098 0.18167
C_ C_ 0.739455 0.373664 0.0513554 0.69207
C_ C_ 0.771444 0.379936 0.49817 0.02923
C_ C_ 0.752031 0.373407 0.44672 -0.15533
C_ C_ 0.781583 0.380493 0.40656 -0.15533
C_ C_ 0.829216 0.393665 0.41727 0.02923
C_ C_ 0.849928 0.399842 0.470165 -0.15533
C_ C_ 0.823319 0.38767 0.51081 0.02923
C_ C_ 0.856312 0.389679 0.0743564 0.69207
C_ C_ 0.840563 0.382041 0.318626 0.69661
C_ C_ 0.815406 0.43733 0.178538 0.18167
C_ C_ 0.772368 0.46503 0.197117 -0.15533
C_ C_ 0.775765 0.504187 0.236293 0.02923
C_ C_ 0.825971 0.0169489 0.255205 -0.15533
C_ C_ 0.865884 0.495656 0.222378 0.18167
C_ C_ 0.986441 0.358084 0.220386 0.18167
C_ C_ 0.520626 0.315862 0.225616 -0.15533
C_ C_ 0.985246 0.267711 0.234735 0.02923
C_ C_ 0.932797 0.271888 0.215597 -0.15533
C_ C_ 0.912091 0.317328 0.191073 0.18167
C_ C_ 0.999692 0.450456 0.135627 0.69207
C_ C_ 0.514583 0.998331 0.116132 0.02923
C_ C_ 0.50159 0.0506938 0.1252 -0.15533
C_ C_ 0.530503 0.0841951 0.10685 -0.15533
C_ C_ 0.583812 0.073059 0.100428 0.02923
C_ C_ 0.60167 0.0207745 0.104961 -0.15533
C_ C_ 0.569181 0.982529 0.114882 0.02923
C_ C_ 0.597209 0.425089 0.108971 0.69207
C_ C_ 0.600674 0.16719 0.100332 0.69661
C_ C_ 0.938716 0.178433 0.440308 0.18167
C_ C_ 0.979383 0.204903 0.463472 -0.15533
C_ C_ 0.971367 0.247652 0.496098 0.02923
C_ C_ 0.925797 0.257899 0.00873502 -0.15533
C_ C_ 0.881119 0.230505 0.488943 0.18167
C_ C_ 0.7601 0.190677 0.34772 0.18167
C_ C_ 0.738206 0.215995 0.304676 -0.15533
C_ C_ 0.76829 0.234169 0.272616 0.02923
C_ C_ 0.82208 0.222553 0.283351 -0.15533
C_ C_ 0.84362 0.190216 0.323389 0.18167
C_ C_ 0.756508 0.120822 0.455349 0.69207
C_ C_ 0.720437 0.120847 0.988244 0.02923
C_ C_ 0.741135 0.121073 0.0404637 -0.15533
C_ C_ 0.710647 0.112015 0.0782588 -0.15533
C_ C_ 0.65991 0.100522 0.0662753 0.02923
C_ C_ 0.640754 0.101568 0.0146188 -0.15533
C_ C_ 0.669581 0.109546 0.975428 0.02923
C_ C_ 0.645664 0.114773 0.431525 0.69207
C_ C_ 0.647461 0.112263 0.164487 0.69661
C_ C_ 0.865255 0.384299 0.376358 -0.30787
C_ C_ 0.622508 0.112412 0.107027 -0.30787
N_ N_ 0.644066 0.0625825 0.315616 -0.32189
N_ N_ 0.553489 0.147139 0.312267 -0.32189
N_ N_ 0.602324 0.308522 0.0595185 -0.32189
N_ N_ 0.69552 0.304447 0.140922 -0.32189
N_ N_ 0.861198 0.456103 0.188269 -0.32189
N_ N_ 0.939906 0.358678 0.192968 -0.32189
N_ N_ 0.889118 0.194246 0.450654 -0.32189
N_ N_ 0.811385 0.177414 0.356249 -0.32189
O_ O_ 0.00793703 0.0804609 0.402033 -0.63271
O_ O_ 0.541874 0.036313 0.335037 -0.57982
O_ O_ 0.899912 0.0966669 0.353209 -0.63271
O_ O_ 0.868942 0.0890506 0.42956 -0.57982
O_ O_ 0.745097 0.393902 0.0980981 -0.63271
O_ O_ 0.710132 0.337065 0.0423859 -0.57982
O_ O_ 0.859815 0.347264 0.0970406 -0.63271
O_ O_ 0.889155 0.422351 0.0925893 -0.57982
O_ O_ 0.488853 0.409809 0.094517 -0.63271
O_ O_ 0.961379 0.461125 0.163892 -0.57982
O_ O_ 0.593427 0.397112 0.148364 -0.63271
O_ O_ 0.635492 0.410734 0.0811935 -0.57982
O_ O_ 0.748152 0.0952602 0.410552 -0.63271
O_ O_ 0.789561 0.155667 0.462072 -0.57982
O_ O_ 0.651653 0.156246 0.408358 -0.63271
O_ O_ 0.605335 0.0901673 0.416346 -0.57982
F_ F_ 0.929943 0.329097 0.428553 -0.20885
F_ F_ 0.921725 0.312311 0.344448 -0.20885
F_ F_ 0.861265 0.296739 0.392566 -0.20885
F_ F_ 0.807392 0.424084 0.312117 -0.20885
F_ F_ 0.8115 0.340127 0.308834 -0.20885
F_ F_ 0.876104 0.38218 0.281738 -0.20885
F_ F_ 0.572367 0.172583 0.0545895 -0.20885
F_ F_ 0.572054 0.179661 0.14016 -0.20885
F_ F_ 0.640202 0.195984 0.10258 -0.20885
F_ F_ 0.680118 0.0696187 0.173228 -0.20885
F_ F_ 0.67784 0.153662 0.178255 -0.20885
F_ F_ 0.612915 0.11271 0.200264 -0.20885
Zn Zn 0.580008 0.0904319 0.845182 0.83971
Zn Zn 0.659844 0.347163 0.576742 0.83971
Zn Zn 0.900845 0.417039 0.650454 0.83971
Zn Zn 0.838994 0.15704 0.912422 0.83971
H_ H_ 0.66632 0.134562 0.801803 0.10394
H_ H_ 0.750828 0.0969476 0.780573 0.10394
H_ H_ 0.693388 0.442938 0.771392 0.10394
H_ H_ 0.621446 0.99334 0.825826 0.10394
H_ H_ 0.0221081 0.0949611 0.750321 0.10394
H_ H_ 0.983928 0.172266 0.69872 0.10394
H_ H_ 0.545702 0.275045 0.825484 0.10394
H_ H_ 0.571691 0.204585 0.879822 0.10394
H_ H_ 0.538398 0.451895 0.889351 0.10394
H_ H_ 0.979178 0.380153 0.878264 0.10394
H_ H_ 0.85389 0.495121 0.907915 0.10394
H_ H_ 0.575075 0.319515 0.630977 0.10394
H_ H_ 0.000426145 0.2796 0.598404 0.10394
H_ H_ 0.544536 0.273219 0.950227 0.10394
H_ H_ 0.626155 0.298023 0.482881 0.10394
H_ H_ 0.72283 0.248835 0.587599 0.10394
H_ H_ 0.757552 0.201131 0.667778 0.10394
H_ H_ 0.719855 0.340412 0.758047 0.10394
H_ H_ 0.68502 0.379121 0.676625 0.10394
H_ H_ 0.72579 0.351078 0.952877 0.10394
H_ H_ 0.777091 0.364427 0.884692 0.10394
H_ H_ 0.891176 0.418303 0.98799 0.10394
H_ H_ 0.798363 0.398515 0.659124 0.10394
H_ H_ 0.727094 0.448156 0.690913 0.10394
H_ H_ 0.830247 0.0482015 0.78195 0.10394
H_ H_ 0.894548 0.507574 0.725023 0.10394
H_ H_ 0.507505 0.386459 0.68741 0.10394
H_ H_ 0.553923 0.319625 0.742468 0.10394
H_ H_ 0.902061 0.249206 0.719451 0.10394
H_ H_ 0.863418 0.325781 0.68042 0.10394
H_ H_ 0.964138 0.0573578 0.634317 0.10394
H_ H_ 0.529218 0.118712 0.645856 0.10394
H_ H_ 0.639248 0.0072774 0.586659 0.10394
H_ H_ 0.94311 0.155918 0.897425 0.10394
H_ H_ 0.51553 0.187254 0.94886 0.10394
H_ H_ 0.913167 0.293891 0.534707 0.10394
H_ H_ 0.842874 0.241759 -0.005086999999999953 0.10394
H_ H_ 0.728684 0.199502 0.876417 0.10394
H_ H_ 0.69019 0.238124 0.796235 0.10394
H_ H_ 0.83621 0.217602 0.741288 0.10394
H_ H_ 0.874367 0.18951 0.825089 0.10394
H_ H_ 0.784347 0.116909 0.5533 0.10394
H_ H_ 0.731869 0.102877 0.622457 0.10394
H_ H_ 0.599631 0.0989663 0.516614 0.10394
C_ C_ 0.675752 0.0938777 0.800162 0.18167
C_ C_ 0.722448 0.0721344 0.785884 -0.15533
C_ C_ 0.733754 0.018945 0.781937 0.02923
C_ C_ 0.691249 0.481557 0.783773 -0.15533
C_ C_ 0.651752 0.0141704 0.815281 0.18167
C_ C_ 0.524322 0.142492 0.774745 0.18167
C_ C_ 0.00280071 0.175855 0.734846 -0.15533
C_ C_ 0.510811 0.232268 0.762961 0.02923
C_ C_ 0.537609 0.238362 0.810592 -0.15533
C_ C_ 0.551265 0.197895 0.842797 0.18167
C_ C_ 0.503586 0.0478798 0.871797 0.69207
C_ C_ 0.975026 0.508055 0.878061 0.02923
C_ C_ 0.991188 0.456274 0.875076 -0.15533
C_ C_ 0.961555 0.419321 0.883692 -0.15533
C_ C_ 0.909752 0.43051 0.893663 0.02923
C_ C_ 0.892661 0.483139 0.898876 -0.15533
C_ C_ 0.923855 0.523289 0.89231 0.02923
C_ C_ 0.899253 0.0678037 0.885323 0.69207
C_ C_ 0.897866 0.333871 0.884175 0.69661
C_ C_ 0.567378 0.306968 0.590559 0.18167
C_ C_ 0.524764 0.280446 0.577791 -0.15533
C_ C_ 0.516664 0.26485 0.525668 0.02923
C_ C_ 0.548301 0.280407 0.989312 -0.15533
C_ C_ 0.59685 0.294976 0.509787 0.18167
C_ C_ 0.71948 0.265018 0.626545 0.18167
C_ C_ 0.740104 0.239757 0.671166 -0.15533
C_ C_ 0.740125 0.265523 0.718907 0.02923
C_ C_ 0.71772 0.317223 0.721965 -0.15533
C_ C_ 0.697777 0.340116 0.676944 0.18167
C_ C_ 0.737775 0.371133 0.537985 0.69207
C_ C_ 0.777277 0.377326 1.0128214 0.02923
C_ C_ 0.760453 0.367165 0.962204 -0.15533
C_ C_ 0.790174 0.373626 0.923537 -0.15533
C_ C_ 0.835983 0.394269 0.93202 0.02923
C_ C_ 0.854739 0.405107 0.983125 -0.15533
C_ C_ 0.827227 0.393994 0.0240771 0.02923
C_ C_ 0.852031 0.381848 0.563669 0.69207
C_ C_ 0.842753 0.392837 0.831557 0.69661
C_ C_ 0.803244 0.432793 0.683713 0.18167
C_ C_ 0.76283 0.455342 0.707566 -0.15533
C_ C_ 0.769572 0.493758 0.746078 0.02923
C_ C_ 0.824404 0.0115773 0.764533 -0.15533
C_ C_ 0.859519 0.490524 0.723434 0.18167
C_ C_ 0.986515 0.348416 0.692774 0.18167
C_ C_ 0.51218 0.316388 0.72526 -0.15533
C_ C_ 0.977251 0.270154 0.732134 0.02923
C_ C_ 0.925488 0.278573 0.719427 -0.15533
C_ C_ 0.905077 0.322227 0.693676 0.18167
C_ C_ 0.984222 0.450449 0.610977 0.69207
C_ C_ 0.523375 0.989917 0.625485 0.02923
C_ C_ 0.508216 0.0424287 0.635714 -0.15533
C_ C_ 0.540117 0.0804464 0.633664 -0.15533
C_ C_ 0.586049 0.0671511 0.613413 0.02923
C_ C_ 0.602178 0.01667 0.601872 -0.15533
C_ C_ 0.572394 0.977562 0.605969 0.02923
C_ C_ 0.600024 0.429403 0.611297 0.69207
C_ C_ 0.599532 0.16337 0.619172 0.69661
C_ C_ 0.936872 0.182781 0.930536 0.18167
C_ C_ 0.979309 0.204422 0.951791 -0.15533
C_ C_ 0.974214 0.242712 -0.008767999999999998 0.02923
C_ C_ 0.920567 0.261034 0.508049 -0.15533
C_ C_ 0.881623 0.23621 0.982623 0.18167
C_ C_ 0.751225 0.207165 0.846408 0.18167
C_ C_ 0.72968 0.232181 0.80384 -0.15533
C_ C_ 0.761412 0.240212 0.76582 0.02923
C_ C_ 0.814311 0.225182 0.773681 -0.15533
C_ C_ 0.833674 0.201578 0.819478 0.18167
C_ C_ 0.755129 0.127522 0.949062 0.69207
C_ C_ 0.723567 0.114358 0.494267 0.02923
C_ C_ 0.744014 0.114231 0.545576 -0.15533
C_ C_ 0.712967 0.109242 0.584094 -0.15533
C_ C_ 0.659774 0.102784 0.573396 0.02923
C_ C_ 0.63937 0.0991132 0.522975 -0.15533
C_ C_ 0.670699 0.105378 0.483551 0.02923
C_ C_ 0.644031 0.111551 0.923211 0.69207
C_ C_ 0.651958 0.0982477 0.671717 0.69661
C_ C_ 0.871926 0.389456 0.887279 -0.30787
C_ C_ 0.625288 0.105833 0.617183 -0.30787
N_ N_ 0.640444 0.0632626 0.811523 -0.32189
N_ N_ 0.55323 0.151568 0.818079 -0.32189
N_ N_ 0.603332 0.311945 0.558549 -0.32189
N_ N_ 0.693755 0.311936 0.632894 -0.32189
N_ N_ 0.849993 0.44972 0.688678 -0.32189
N_ N_ 0.934985 0.358639 0.683749 -0.32189
N_ N_ 0.889166 0.199608 0.943784 -0.32189
N_ N_ 0.802642 0.193086 0.856834 -0.32189
O_ O_ 0.00350463 0.0887376 0.887987 -0.63271
O_ O_ 0.535279 0.0450904 0.835911 -0.57982
O_ O_ 0.898652 0.0905169 0.842897 -0.63271
O_ O_ 0.871503 0.0894363 0.920883 -0.57982
O_ O_ 0.743111 0.39003 0.583899 -0.63271
O_ O_ 0.702043 0.341721 0.527714 -0.57982
O_ O_ 0.851385 0.341227 0.589532 -0.63271
O_ O_ 0.877588 0.418355 0.587041 -0.57982
O_ O_ 0.482161 0.4214 0.597043 -0.63271
O_ O_ 0.944612 0.462016 0.638945 -0.57982
O_ O_ 0.593734 0.401679 0.649131 -0.63271
O_ O_ 0.634971 0.413473 0.579629 -0.57982
O_ O_ 0.757848 0.0951274 0.91001 -0.63271
O_ O_ 0.787782 0.162059 0.956341 -0.57982
O_ O_ 0.649024 0.147861 0.891726 -0.63271
O_ O_ 0.608751 0.0809163 0.907214 -0.57982
F_ F_ 0.932934 0.326093 0.924725 -0.20885
F_ F_ 0.923214 0.317733 0.842012 -0.20885
F_ F_ 0.866491 0.29741 0.887898 -0.20885
F_ F_ 0.803226 0.428541 0.835502 -0.20885
F_ F_ 0.818328 0.350466 0.809828 -0.20885
F_ F_ 0.869931 0.40598 0.794543 -0.20885
F_ F_ 0.559615 0.166644 0.580875 -0.20885
F_ F_ 0.583736 0.186922 0.664384 -0.20885
F_ F_ 0.633813 0.195475 0.606045 -0.20885
F_ F_ 0.685835 0.0546242 0.669897 -0.20885
F_ F_ 0.680801 0.13733 0.692736 -0.20885
F_ F_ 0.619393 0.0950375 0.708032 -0.20885
Zn Zn 0.589741 0.581181 0.342654 0.83971
Zn Zn 0.65985 0.849349 0.0907501 0.83971
Zn Zn 0.909119 0.91557 0.162009 0.83971
Zn Zn 0.841662 0.653348 0.415873 0.83971
H_ H_ 0.667667 0.627818 0.308477 0.10394
H_ H_ 0.747905 0.599515 0.271727 0.10394
H_ H_ 0.708076 0.946142 0.28904 0.10394
H_ H_ 0.627081 0.484774 0.314479 0.10394
H_ H_ 0.0499392 0.597448 0.242355 0.10394
H_ H_ 1.00805456 0.671669 0.194222 0.10394
H_ H_ 0.530795 0.770271 0.329233 0.10394
H_ H_ 0.561063 0.696958 0.382201 0.10394
H_ H_ 0.532128 0.94421 0.353166 0.10394
H_ H_ 0.965798 0.873566 0.362389 0.10394
H_ H_ 0.851109 0.989146 0.408502 0.10394
H_ H_ 0.57094 0.821491 0.13292 0.10394
H_ H_ 1.00435762 0.770132 0.0980112 0.10394
H_ H_ 0.539632 0.778441 0.447504 0.10394
H_ H_ 0.628426 0.81349 0.986949 0.10394
H_ H_ 0.706579 0.751035 0.095094 0.10394
H_ H_ 0.747506 0.699757 0.172278 0.10394
H_ H_ 0.719864 0.83163 0.27204 0.10394
H_ H_ 0.671731 0.874742 0.205426 0.10394
H_ H_ 0.71137 0.882789 0.448446 0.10394
H_ H_ 0.760809 0.884087 0.382417 0.10394
H_ H_ 0.897869 0.902989 0.490758 0.10394
H_ H_ 0.804257 0.893397 0.174857 0.10394
H_ H_ 0.730749 0.948292 0.198643 0.10394
H_ H_ 0.829255 0.551333 0.271991 0.10394
H_ H_ 0.905079 0.99634495 0.240271 0.10394
H_ H_ 0.505862 0.893695 0.217947 0.10394
H_ H_ 0.553486 0.814921 0.249946 0.10394
H_ H_ 0.914438 0.736602 0.223915 0.10394
H_ H_ 0.870083 0.816918 0.190401 0.10394
H_ H_ 0.979061 0.555201 0.148135 0.10394
H_ H_ 0.52505 0.622181 0.119966 0.10394
H_ H_ 0.644372 0.50739 0.0914075 0.10394
H_ H_ 0.935299 0.666001 0.400061 0.10394
H_ H_ 0.522359 0.686588 0.451222 0.10394
H_ H_ 0.920644 0.778676 0.0430675 0.10394
H_ H_ 0.844175 0.733349 0.513559 0.10394
H_ H_ 0.737183 0.682454 0.379511 0.10394
H_ H_ 0.691827 0.729326 0.305297 0.10394
H_ H_ 0.829149 0.705846 0.234182 0.10394
H_ H_ 0.877712 0.690266 0.323903 0.10394
H_ H_ 0.789741 0.625855 0.0641816 0.10394
H_ H_ 0.733793 0.618219 0.129545 0.10394
H_ H_ 0.606018 0.607806 0.0128823 0.10394
C_ C_ 0.679348 0.587983 0.306443 0.18167
C_ C_ 0.725056 0.571007 0.284708 -0.15533
C_ C_ 0.732726 0.520655 0.266837 0.02923
C_ C_ 0.697819 0.987746 0.291124 -0.15533
C_ C_ 0.652325 0.506374 0.296392 0.18167
C_ C_ 0.525698 0.634856 0.271187 0.18167
C_ C_ 0.0195985 0.67215 0.233481 -0.15533
C_ C_ 0.509182 0.725157 0.264669 0.02923
C_ C_ 0.524775 0.733218 0.315416 -0.15533
C_ C_ 0.543951 0.690321 0.342044 0.18167
C_ C_ 0.509202 0.544763 0.367445 0.69207
C_ C_ 0.970085 0.00238935 0.375839 0.02923
C_ C_ -0.013149999999999995 0.950921 0.365489 -0.15533
C_ C_ 0.955463 0.912415 0.37595 -0.15533
C_ C_ 0.90583 0.924747 0.391229 0.02923
C_ C_ 0.889397 0.978022 0.398534 -0.15533
C_ C_ 0.921863 0.0156742 0.392912 0.02923
C_ C_ 0.893805 0.572045 0.378486 0.69207
C_ C_ 0.889675 0.823175 0.388777 0.69661
C_ C_ 0.567787 0.809073 0.091102 0.18167
C_ C_ 0.523868 0.788609 0.0697755 -0.15533
C_ C_ 0.517464 0.77691 0.018455 0.02923
C_ C_ 0.546205 0.783566 0.48867 -0.15533
C_ C_ 0.597041 0.810324 0.01032 0.18167
C_ C_ 0.708451 0.767818 0.136591 0.18167
C_ C_ 0.733906 0.738186 0.17694 -0.15533
C_ C_ 0.73881 0.76007 0.227406 0.02923
C_ C_ 0.718704 0.812327 0.234563 -0.15533
C_ C_ 0.690782 0.837369 0.195939 0.18167
C_ C_ 0.74096 0.874272 0.0524966 0.69207
C_ C_ 0.774733 0.883939 0.510333 0.02923
C_ C_ 0.752557 0.884933 0.459341 -0.15533
C_ C_ 0.780104 0.883044 0.419829 -0.15533
C_ C_ 0.83317 0.889369 0.427539 0.02923
C_ C_ 0.856652 0.893395 0.479591 -0.15533
C_ C_ 0.82748 0.891703 0.520631 0.02923
C_ C_ 0.856169 0.884959 0.0736035 0.69207
C_ C_ 0.842151 0.88576 0.330923 0.69661
C_ C_ 0.810249 0.929433 0.192768 0.18167
C_ C_ 0.767494 0.958036 0.211612 -0.15533
C_ C_ 0.776588 0.998585 0.248931 0.02923
C_ C_ 0.824414 0.521243 0.245018 -0.15533
C_ C_ 0.866101 0.988806 0.231508 0.18167
C_ C_ 0.989447 0.851731 0.213126 0.18167
C_ C_ 0.514247 0.813721 0.236764 -0.15533
C_ C_ 0.987851 0.764483 0.231768 0.02923
C_ C_ 0.93539 0.768597 0.213557 -0.15533
C_ C_ 0.910744 0.814963 0.196698 0.18167
C_ C_ 0.988469 0.954557 0.126065 0.69207
C_ C_ 0.523277 0.494266 0.118239 0.02923
C_ C_ 0.507205 0.547325 0.122555 -0.15533
C_ C_ 0.540297 0.583517 0.118223 -0.15533
C_ C_ 0.589384 0.570802 0.104561 0.02923
C_ C_ 0.605229 0.517699 0.0977175 -0.15533
C_ C_ 0.573107 0.47828 0.106433 0.02923
C_ C_ 0.59156 0.929318 0.120899 0.69207
C_ C_ 0.601546 0.666939 0.114478 0.69661
C_ C_ 0.93254 0.686812 0.434605 0.18167
C_ C_ 0.972334 0.712076 0.455997 -0.15533
C_ C_ 0.966412 0.746479 0.498504 0.02923
C_ C_ 0.927504 0.74782 1.0166353 -0.15533
C_ C_ 0.878543 0.729398 0.494735 0.18167
C_ C_ 0.75854 0.69064 0.350855 0.18167
C_ C_ 0.732317 0.719127 0.308871 -0.15533
C_ C_ 0.762585 0.731015 0.271075 0.02923
C_ C_ 0.813544 0.71 0.272394 -0.15533
C_ C_ 0.837558 0.697544 0.319094 0.18167
C_ C_ 0.762645 0.617732 0.448077 0.69207
C_ C_ 0.731446 0.621122 0.999582 0.02923
C_ C_ 0.748952 0.626366 0.052103 -0.15533
C_ C_ 0.718697 0.617108 0.0906814 -0.15533
C_ C_ 0.667363 0.604519 0.0760881 0.02923
C_ C_ 0.647263 0.606619 0.0248371 -0.15533
C_ C_ 0.677798 0.615469 0.986941 0.02923
C_ C_ 0.650978 0.605362 0.428318 0.69207
C_ C_ 0.652473 0.60136 0.170504 0.69661
C_ C_ 0.869598 0.883698 0.385483 -0.30787
C_ C_ 0.626819 0.611927 0.114724 -0.30787
N_ N_ 0.643656 0.556655 0.307024 -0.32189
N_ N_ 0.55036 0.641725 0.317696 -0.32189
N_ N_ 0.604074 0.817972 0.0619573 -0.32189
N_ N_ 0.68559 0.81466 0.148911 -0.32189
N_ N_ 0.857617 0.943969 0.201637 -0.32189
N_ N_ 0.937511 0.857205 0.198611 -0.32189
N_ N_ 0.886808 0.694807 0.454645 -0.32189
N_ N_ 0.810711 0.685204 0.357068 -0.32189
O_ O_ -0.003383000000000025 0.590467 0.377975 -0.63271
O_ O_ 0.54413 0.52984 0.338012 -0.57982
O_ O_ 0.887887 0.599439 0.336503 -0.63271
O_ O_ 0.876978 0.591069 0.418355 -0.57982
O_ O_ 0.734003 0.910524 0.0879675 -0.63271
O_ O_ 0.704283 0.842629 0.0420643 -0.57982
O_ O_ 0.846189 0.848609 0.102504 -0.63271
O_ O_ 0.879674 0.920815 0.0960134 -0.57982
O_ O_ 0.486605 0.913431 0.10284 -0.63271
O_ O_ 0.956016 0.961432 0.161339 -0.57982
O_ O_ 0.58441 0.905449 0.161425 -0.63271
O_ O_ 0.628705 0.911625 0.0949403 -0.57982
O_ O_ 0.764436 0.585975 0.408194 -0.63271
O_ O_ 0.792489 0.654017 0.454331 -0.57982
O_ O_ 0.659576 0.642866 0.400034 -0.63271
O_ O_ 0.61388 0.575691 0.409476 -0.57982
F_ F_ 0.933261 0.818799 0.424897 -0.20885
F_ F_ 0.907568 0.797997 0.3457 -0.20885
F_ F_ 0.853497 0.79154 0.399591 -0.20885
F_ F_ 0.812113 0.931046 0.32961 -0.20885
F_ F_ 0.808288 0.849142 0.315719 -0.20885
F_ F_ 0.87897 0.882569 0.295624 -0.20885
F_ F_ 0.569921 0.675131 0.0678857 -0.20885
F_ F_ 0.574178 0.679701 0.157847 -0.20885
F_ F_ 0.638595 0.700639 0.116151 -0.20885
F_ F_ 0.683512 0.555525 0.178698 -0.20885
F_ F_ 0.675885 0.644688 0.191882 -0.20885
F_ F_ 0.614305 0.592386 0.201876 -0.20885
Zn Zn 0.588055 0.583284 0.854496 0.83971
Zn Zn 0.658627 0.844115 0.582556 0.83971
Zn Zn 0.905208 0.922453 0.658018 0.83971
Zn Zn 0.838639 0.660157 0.915929 0.83971
H_ H_ 0.663522 0.62756 0.815783 0.10394
H_ H_ 0.745492 0.592735 0.775052 0.10394
H_ H_ 0.708557 0.945574 0.79836 0.10394
H_ H_ 0.617251 0.478104 0.811789 0.10394
H_ H_ 0.0221246 0.599469 0.759281 0.10394
H_ H_ 0.98732 0.675016 0.703977 0.10394
H_ H_ 0.529421 0.765948 0.842261 0.10394
H_ H_ 0.577555 0.690285 0.87812 0.10394
H_ H_ 0.524291 0.947087 0.85653 0.10394
H_ H_ 0.983544 0.87483 0.876716 0.10394
H_ H_ 0.85538 0.98417 0.910362 0.10394
H_ H_ 0.58531 0.803749 0.635332 0.10394
H_ H_ -0.00299868 0.777147 0.597237 0.10394
H_ H_ 0.54743 0.788569 0.945653 0.10394
H_ H_ 0.606355 0.831547 0.481931 0.10394
H_ H_ 0.720615 0.746229 0.590314 0.10394
H_ H_ 0.749285 0.69205 0.666388 0.10394
H_ H_ 0.728845 0.827176 0.761393 0.10394
H_ H_ 0.678368 0.871653 0.687129 0.10394
H_ H_ 0.71793 0.86821 0.949641 0.10394
H_ H_ 0.769456 0.889314 0.888537 0.10394
H_ H_ 0.898543 0.899091 0.991544 0.10394
H_ H_ 0.803581 0.896594 0.673265 0.10394
H_ H_ 0.731589 0.944856 0.707791 0.10394
H_ H_ 0.828789 0.541254 0.783016 0.10394
H_ H_ 0.900385 1.00306896 0.73879 0.10394
H_ H_ 0.515309 0.86935 0.67924 0.10394
H_ H_ 0.554204 0.800838 0.728888 0.10394
H_ H_ 0.911803 0.751387 0.722627 0.10394
H_ H_ 0.870969 0.826748 0.682582 0.10394
H_ H_ 0.957598 0.544047 0.596945 0.10394
H_ H_ 0.517295 0.623144 0.606731 0.10394
H_ H_ 0.644294 0.508959 0.589172 0.10394
H_ H_ 0.935103 0.672819 0.884816 0.10394
H_ H_ 0.524256 0.704636 0.943507 0.10394
H_ H_ 0.910815 0.779799 0.54773 0.10394
H_ H_ 0.851514 0.727734 1.00941086 0.10394
H_ H_ 0.736836 0.694873 0.881436 0.10394
H_ H_ 0.693104 0.728566 0.799441 0.10394
H_ H_ 0.836573 0.724226 0.74237 0.10394
H_ H_ 0.87561 0.680452 0.817763 0.10394
H_ H_ 0.780334 0.6336 0.551269 0.10394
H_ H_ 0.734838 0.618418 0.622921 0.10394
H_ H_ 0.607656 0.583907 0.512208 0.10394
C_ C_ 0.674087 0.586354 0.80742 0.18167
C_ C_ 0.719192 0.566599 0.785772 -0.15533
C_ C_ 0.727817 0.512705 0.773371 0.02923
C_ C_ 0.699014 0.988411 0.798591 -0.15533
C_ C_ 0.64465 0.504586 0.798884 0.18167
C_ C_ 0.527704 0.631868 0.77006 0.18167
C_ C_ 0.00530063 0.682529 0.742871 -0.15533
C_ C_ 0.507594 0.723989 0.768122 0.02923
C_ C_ 0.532219 0.72984 0.818229 -0.15533
C_ C_ 0.561865 0.686433 0.839216 0.18167
C_ C_ 0.50529 0.549288 0.869364 0.69207
C_ C_ 0.974679 0.00360608 0.88082 0.02923
C_ C_ -0.004665999999999948 0.953055 0.884845 -0.15533
C_ C_ 0.964637 0.914267 0.884598 -0.15533
C_ C_ 0.914635 0.924595 0.89636 0.02923
C_ C_ 0.895715 0.977154 0.903893 -0.15533
C_ C_ 0.923853 0.0174659 0.892246 0.02923
C_ C_ 0.902579 0.576775 0.892808 0.69207
C_ C_ 0.903598 0.828961 0.893953 0.69661
C_ C_ 0.571082 0.801975 0.593765 0.18167
C_ C_ 0.527676 0.774492 0.577991 -0.15533
C_ C_ 0.516893 0.763463 0.524367 0.02923
C_ C_ 0.555252 0.785841 0.987338 -0.15533
C_ C_ 0.586857 0.812111 0.508228 0.18167
C_ C_ 0.71778 0.762397 0.628947 0.18167
C_ C_ 0.7362 0.732447 0.670881 -0.15533
C_ C_ 0.734649 0.754945 0.720419 0.02923
C_ C_ 0.717157 0.807206 0.727123 -0.15533
C_ C_ 0.693246 0.832288 0.684258 0.18167
C_ C_ 0.741767 0.874088 0.550931 0.69207
C_ C_ 0.777016 0.878389 1.0135801 0.02923
C_ C_ 0.756273 0.873658 0.962219 -0.15533
C_ C_ 0.788427 0.879856 0.924418 -0.15533
C_ C_ 0.838084 0.88953 0.935245 0.02923
C_ C_ 0.857896 0.895604 0.984182 -0.15533
C_ C_ 0.828396 0.888519 0.0236389 0.02923
C_ C_ 0.852172 0.889926 0.572664 0.69207
C_ C_ 0.85294 0.885847 0.835038 0.69661
C_ C_ 0.80833 0.934306 0.687461 0.18167
C_ C_ 0.767789 0.959876 0.713865 -0.15533
C_ C_ 0.775256 -0.003502000000000005 0.75438 0.02923
C_ C_ 0.820572 0.511473 0.753702 -0.15533
C_ C_ 0.863957 0.988723 0.736263 0.18167
C_ C_ 0.989644 0.856518 0.695662 0.18167
C_ C_ 0.514327 0.803013 0.721472 -0.15533
C_ C_ 0.985917 0.775056 0.728343 0.02923
C_ C_ 0.933951 0.778947 0.714308 -0.15533
C_ C_ 0.911176 0.821907 0.688633 0.18167
C_ C_ 0.984088 0.958247 0.622561 0.69207
C_ C_ 0.526811 0.497087 0.626365 0.02923
C_ C_ 0.505799 0.548346 0.620495 -0.15533
C_ C_ 0.538269 0.585478 0.615891 -0.15533
C_ C_ 0.587661 0.573539 0.603603 0.02923
C_ C_ 0.605106 0.520265 0.597042 -0.15533
C_ C_ 0.576001 0.482663 0.611762 0.02923
C_ C_ 0.596457 0.926556 0.607847 0.69207
C_ C_ 0.60249 0.671844 0.605587 0.69661
C_ C_ 0.934565 0.69239 0.922816 0.18167
C_ C_ 0.979775 0.709334 0.951053 -0.15533
C_ C_ 0.974674 0.738492 0.998025 0.02923
C_ C_ 0.920355 0.751284 0.519682 -0.15533
C_ C_ 0.887218 0.720353 0.993847 0.18167
C_ C_ 0.757251 0.700693 0.847509 0.18167
C_ C_ 0.734095 0.723516 0.804408 -0.15533
C_ C_ 0.760471 0.730245 0.765001 0.02923
C_ C_ 0.815682 0.719141 0.771383 -0.15533
C_ C_ 0.838196 0.696326 0.814794 0.18167
C_ C_ 0.767066 0.624631 0.959995 0.69207
C_ C_ 0.728578 0.610951 0.489815 0.02923
C_ C_ 0.747354 0.61686 0.54212 -0.15533
C_ C_ 0.717035 0.613611 0.5838 -0.15533
C_ C_ 0.665002 0.60452 0.571988 0.02923
C_ C_ 0.647363 0.596922 0.519293 -0.15533
C_ C_ 0.679615 0.597292 0.479972 0.02923
C_ C_ 0.653736 0.618028 0.934709 0.69207
C_ C_ 0.646303 0.605824 0.669605 0.69661
C_ C_ 0.87641 0.884634 0.891979 -0.30787
C_ C_ 0.62643 0.614673 0.61286 -0.30787
N_ N_ 0.639551 0.554887 0.816432 -0.32189
N_ N_ 0.558935 0.638406 0.815481 -0.32189
N_ N_ 0.601095 0.815342 0.55973 -0.32189
N_ N_ 0.692297 0.80823 0.637921 -0.32189
N_ N_ 0.855884 0.95076 0.69882 -0.32189
N_ N_ 0.937516 0.862002 0.684484 -0.32189
N_ N_ 0.890385 0.696964 0.946004 -0.32189
N_ N_ 0.808922 0.685565 0.851506 -0.32189
O_ O_ 1.0140964 0.589729 0.895864 -0.63271
O_ O_ 0.54657 0.533387 0.847412 -0.57982
O_ O_ 0.89438 0.599051 0.848541 -0.63271
O_ O_ 0.877013 0.597462 0.931147 -0.57982
O_ O_ 0.745005 0.894871 0.596393 -0.63271
O_ O_ 0.70497 0.844866 0.537385 -0.57982
O_ O_ 0.856118 0.846012 0.595174 -0.63271
O_ O_ 0.873206 0.929351 0.595678 -0.57982
O_ O_ 0.488355 0.910192 0.600666 -0.63271
O_ O_ 0.949666 0.968326 0.653332 -0.57982
O_ O_ 0.596326 0.89883 0.647413 -0.63271
O_ O_ 0.630699 0.911296 0.577985 -0.57982
O_ O_ 0.76309 0.59881 0.915662 -0.63271
O_ O_ 0.792736 0.667316 0.962172 -0.57982
O_ O_ 0.659464 0.654431 0.905498 -0.63271
O_ O_ 0.6196 0.58594 0.917688 -0.57982
F_ F_ 0.937085 0.823658 0.936208 -0.20885
F_ F_ 0.933648 0.814389 0.853942 -0.20885
F_ F_ 0.869798 0.792225 0.895699 -0.20885
F_ F_ 0.820817 0.931108 0.828909 -0.20885
F_ F_ 0.824204 0.844733 0.822453 -0.20885
F_ F_ 0.887423 0.88655 0.797697 -0.20885
F_ F_ 0.576434 0.672419 0.559149 -0.20885
F_ F_ 0.571469 0.691696 0.642867 -0.20885
F_ F_ 0.642219 0.704632 0.612113 -0.20885
F_ F_ 0.678232 0.561105 0.668478 -0.20885
F_ F_ 0.676776 0.639501 0.690594 -0.20885
F_ F_ 0.609603 0.607959 0.704189 -0.20885
