_cell_length_a 26.508
_cell_length_b 26.37200000322088
_cell_length_c 26.311999743092066
_cell_angle_alpha 93.74100058972084
_cell_angle_beta 96.04100104955006
_cell_angle_gamma 83.6869992558723
_symmetry_space_group_name_H-M         'P 1'
_symmetry_Int_Tables_number            1
loop_
_symmetry_equiv_pos_as_xyz
   'x, y, z'
                         
loop_
_atom_site_label
_atom_site_type_symbol
_atom_site_fract_x 
_atom_site_fract_y
_atom_site_fract_z
_atom_site_charge
Zn Zn 0.0864912 0.0826828 0.350236 0.83971
Zn Zn 0.158183 0.35256 0.085614 0.83971
Zn Zn 0.410617 0.421124 0.157016 0.83971
Zn Zn 0.337734 0.159214 0.421884 0.83971
H_ H_ 0.157254 0.12874 0.288894 0.10394
H_ H_ 0.237656 0.0926221 0.256802 0.10394
H_ H_ 0.205152 0.448112 0.285086 0.10394
H_ H_ 0.12977 0.982697 0.331978 0.10394
H_ H_ 0.53831 0.10173 0.253147 0.10394
H_ H_ 0.499333 0.174442 0.203843 0.10394
H_ H_ 0.0491339 0.26789 0.334057 0.10394
H_ H_ 0.070227 0.195139 0.383873 0.10394
H_ H_ 0.0378824 0.442938 0.359818 0.10394
H_ H_ 0.481391 0.376743 0.390532 0.10394
H_ H_ 0.351981 0.489723 0.408806 0.10394
H_ H_ 0.0746713 0.304451 0.130024 0.10394
H_ H_ 0.504626 0.278548 0.10134 0.10394
H_ H_ 0.0442513 0.279634 0.450421 0.10394
H_ H_ 0.119104 0.326352 0.984984 0.10394
H_ H_ 0.223671 0.260167 0.0955989 0.10394
H_ H_ 0.273011 0.214392 0.166801 0.10394
H_ H_ 0.209962 0.325696 0.273642 0.10394
H_ H_ 0.161411 0.372804 0.199983 0.10394
H_ H_ 0.217624 0.398047 0.460704 0.10394
H_ H_ 0.267242 0.383943 0.39325 0.10394
H_ H_ 0.400347 0.405226 0.497869 0.10394
H_ H_ 0.311138 0.390731 0.170102 0.10394
H_ H_ 0.235923 0.44059 0.191822 0.10394
H_ H_ 0.33113 0.0505652 0.277089 0.10394
H_ H_ 0.404673 0.502924 0.236228 0.10394
H_ H_ 0.0226819 0.383383 0.181238 0.10394
H_ H_ 0.0655896 0.313823 0.245781 0.10394
H_ H_ 0.423925 0.239327 0.209464 0.10394
H_ H_ 0.37582 0.319965 0.180652 0.10394
H_ H_ 0.459238 0.051135 0.111293 0.10394
H_ H_ 0.0179796 0.126855 0.122769 0.10394
H_ H_ 0.139624 0.0125967 0.0924199 0.10394
H_ H_ 0.439604 0.165938 0.404294 0.10394
H_ H_ 0.0191731 0.189031 0.451377 0.10394
H_ H_ 0.428725 0.27288 0.0536159 0.10394
H_ H_ 0.336668 0.248805 0.500948 0.10394
H_ H_ 0.235745 0.168809 0.365891 0.10394
H_ H_ 0.194495 0.210162 0.28977 0.10394
H_ H_ 0.342986 0.257155 0.266079 0.10394
H_ H_ 0.380294 0.212722 0.342915 0.10394
H_ H_ 0.292122 0.113152 0.0587743 0.10394
H_ H_ 0.227241 0.120435 0.125739 0.10394
H_ H_ 0.11097 0.0892096 0.0120161 0.10394
C_ C_ 0.169161 0.0884555 0.289549 0.18167
C_ C_ 0.218093 0.068442 0.277132 -0.15533
C_ C_ 0.229941 0.0153284 0.275163 0.02923
C_ C_ 0.202584 0.489169 0.292042 -0.15533
C_ C_ 0.152627 0.00706808 0.313261 0.18167
C_ C_ 0.02913 0.134755 0.27117 0.18167
C_ C_ 0.519691 0.180097 0.241741 -0.15533
C_ C_ 0.0215324 0.227161 0.261608 0.02923
C_ C_ 0.0382431 0.232767 0.31455 -0.15533
C_ C_ 0.0518228 0.190243 0.344832 0.18167
C_ C_ 0.00482315 0.0449165 0.369134 0.69207
C_ C_ 0.471127 0.506697 0.378202 0.02923
C_ C_ 0.4939 0.456383 0.384964 -0.15533
C_ C_ 0.464178 0.416794 0.388981 -0.15533
C_ C_ 0.411903 0.427024 0.397284 0.02923
C_ C_ 0.392001 0.479373 0.400118 -0.15533
C_ C_ 0.421094 0.519268 0.389621 0.02923
C_ C_ 0.393851 0.0760767 0.386105 0.69207
C_ C_ 0.39962 0.329552 0.395919 0.69661
C_ C_ 0.0663145 0.303921 0.0901243 0.18167
C_ C_ 0.0244893 0.279021 0.0676725 -0.15533
C_ C_ 0.0161437 0.27035 0.0128431 0.02923
C_ C_ 0.0507801 0.286271 0.492434 -0.15533
C_ C_ 0.0904988 0.313465 0.00857867 0.18167
C_ C_ 0.221662 0.27361 0.135789 0.18167
C_ C_ 0.249077 0.248965 0.174668 -0.15533
C_ C_ 0.241341 0.264376 0.22626 0.02923
C_ C_ 0.213035 0.311433 0.233962 -0.15533
C_ C_ 0.187903 0.33898 0.193244 0.18167
C_ C_ 0.244384 0.364494 0.0464574 0.69207
C_ C_ 0.279687 0.378422 0.518437 0.02923
C_ C_ 0.25753 0.389905 0.47046 -0.15533
C_ C_ 0.286593 0.395865 0.429619 -0.15533
C_ C_ 0.340695 0.392888 0.438114 0.02923
C_ C_ 0.361216 0.398268 0.48904 -0.15533
C_ C_ 0.329998 0.388224 0.530207 0.02923
C_ C_ 0.350801 0.387372 0.0741721 0.69207
C_ C_ 0.348833 0.392667 0.339092 0.69661
C_ C_ 0.316187 0.422911 0.196608 0.18167
C_ C_ 0.272525 0.450829 0.210927 -0.15533
C_ C_ 0.27708 0.495941 0.240689 0.02923
C_ C_ 0.323321 0.0165426 0.250648 -0.15533
C_ C_ 0.367337 0.487011 0.230516 0.18167
C_ C_ 0.488743 0.363619 0.214543 0.18167
C_ C_ 0.0270586 0.311708 0.221015 -0.15533
C_ C_ 0.48936 0.27709 0.23874 0.02923
C_ C_ 0.44173 0.274853 0.210923 -0.15533
C_ C_ 0.416002 0.320154 0.192315 0.18167
C_ C_ 0.480562 0.460359 0.126772 0.69207
C_ C_ 0.0187263 0.997899 0.118302 0.02923
C_ C_ 0.000317339 0.049411 0.125009 -0.15533
C_ C_ 0.0309135 0.0867693 0.116455 -0.15533
C_ C_ 0.0831681 0.0724579 0.106334 0.02923
C_ C_ 0.100021 0.0207741 0.0991171 -0.15533
C_ C_ 0.0704389 0.98295 0.107061 0.02923
C_ C_ 0.0926264 0.428189 0.104442 0.69207
C_ C_ 0.0957261 0.165756 0.100273 0.69661
C_ C_ 0.433079 0.19 0.437571 0.18167
C_ C_ 0.475803 0.207997 0.467176 -0.15533
C_ C_ 0.470017 0.241572 0.508822 0.02923
C_ C_ 0.434073 0.244972 0.0231421 -0.15533
C_ C_ 0.377359 0.231683 0.495013 0.18167
C_ C_ 0.260196 0.184698 0.342542 0.18167
C_ C_ 0.236533 0.207002 0.298538 -0.15533
C_ C_ 0.266743 0.23354 0.27 0.02923
C_ C_ 0.320636 0.235048 0.286373 -0.15533
C_ C_ 0.342152 0.209246 0.32836 0.18167
C_ C_ 0.258761 0.120258 0.456485 0.69207
C_ C_ 0.230151 0.112095 0.995471 0.02923
C_ C_ 0.248467 0.115016 0.0479563 -0.15533
C_ C_ 0.214461 0.11804 0.0851519 -0.15533
C_ C_ 0.165277 0.10224 0.0724789 0.02923
C_ C_ 0.149471 0.0915581 0.0222376 -0.15533
C_ C_ 0.178778 0.101419 0.982296 0.02923
C_ C_ 0.150998 0.101946 0.428344 0.69207
C_ C_ 0.144124 0.118549 0.168432 0.69661
C_ C_ 0.375504 0.386611 0.394626 -0.30787
C_ C_ 0.122516 0.112473 0.110443 -0.30787
N_ N_ 0.139552 0.0577111 0.311276 -0.32189
N_ N_ 0.0510395 0.14101 0.320642 -0.32189
N_ N_ 0.100775 0.314453 0.0601012 -0.32189
N_ N_ 0.190265 0.318179 0.145096 -0.32189
N_ N_ 0.360519 0.443144 0.202006 -0.32189
N_ N_ 0.442438 0.360589 0.188015 -0.32189
N_ N_ 0.386099 0.199332 0.453611 -0.32189
N_ N_ 0.309856 0.189504 0.358578 -0.32189
O_ O_ 0.512272 0.0827852 0.411591 -0.63271
O_ O_ 0.0461337 0.032255 0.344978 -0.57982
O_ O_ 0.392694 0.103177 0.344596 -0.63271
O_ O_ 0.366378 0.0962677 0.423273 -0.57982
O_ O_ 0.249591 0.387356 0.091171 -0.63271
O_ O_ 0.203849 0.338448 0.0374645 -0.57982
O_ O_ 0.354275 0.344795 0.0971249 -0.63271
O_ O_ 0.379238 0.422589 0.0941887 -0.57982
O_ O_ 0.984749 0.413784 0.089591 -0.63271
O_ O_ 0.446782 0.472784 0.158433 -0.57982
O_ O_ 0.0917354 0.401763 0.143719 -0.63271
O_ O_ 0.133092 0.418799 0.0786599 -0.57982
O_ O_ 0.256924 0.0958735 0.410027 -0.63271
O_ O_ 0.286885 0.160405 0.464172 -0.57982
O_ O_ 0.154822 0.14116 0.399897 -0.63271
O_ O_ 0.116113 0.0717783 0.412297 -0.57982
F_ F_ 0.434728 0.326285 0.437897 -0.20885
F_ F_ 0.428392 0.315 0.355956 -0.20885
F_ F_ 0.363469 0.295301 0.396561 -0.20885
F_ F_ 0.315507 0.436257 0.335708 -0.20885
F_ F_ 0.320172 0.351867 0.322887 -0.20885
F_ F_ 0.381611 0.398458 0.303608 -0.20885
F_ F_ 0.0606512 0.165446 0.0551683 -0.20885
F_ F_ 0.0723081 0.189586 0.141989 -0.20885
F_ F_ 0.128662 0.198874 0.0923756 -0.20885
F_ F_ 0.179996 0.0757435 0.177657 -0.20885
F_ F_ 0.168758 0.164216 0.178933 -0.20885
F_ F_ 0.106345 0.120036 0.200545 -0.20885
Zn Zn 0.0881364 0.0843663 0.855678 0.83971
Zn Zn 0.160404 0.349579 0.591974 0.83971
Zn Zn 0.415763 0.416751 0.662422 0.83971
Zn Zn 0.34232 0.153311 0.920318 0.83971
H_ H_ 0.173518 0.12851 0.810707 0.10394
H_ H_ 0.245823 0.0969648 0.771947 0.10394
H_ H_ 0.207355 0.442527 0.796716 0.10394
H_ H_ 0.14095 0.982541 0.844591 0.10394
H_ H_ 0.537676 0.0953522 0.74792 0.10394
H_ H_ 0.498614 0.170742 0.702824 0.10394
H_ H_ 0.0362465 0.272286 0.83086 0.10394
H_ H_ 0.076631 0.200856 0.886386 0.10394
H_ H_ 0.0340183 0.450529 0.877349 0.10394
H_ H_ 0.480588 0.380669 0.869093 0.10394
H_ H_ 0.356193 0.488063 0.907984 0.10394
H_ H_ 0.072894 0.309889 0.639146 0.10394
H_ H_ 0.503166 0.277986 0.611229 0.10394
H_ H_ 0.0494662 0.285221 0.941655 0.10394
H_ H_ 0.118523 0.322218 0.487578 0.10394
H_ H_ 0.232241 0.251457 0.60135 0.10394
H_ H_ 0.27216 0.204554 0.677561 0.10394
H_ H_ 0.222432 0.336899 0.778023 0.10394
H_ H_ 0.174162 0.374286 0.700286 0.10394
H_ H_ 0.22682 0.344239 0.943999 0.10394
H_ H_ 0.278703 0.358439 0.880143 0.10394
H_ H_ 0.390889 0.416814 0.995888 0.10394
H_ H_ 0.311001 0.384953 0.678979 0.10394
H_ H_ 0.234361 0.439412 0.694475 0.10394
H_ H_ 0.333692 0.0475211 0.779825 0.10394
H_ H_ 0.403083 0.50349 0.738814 0.10394
H_ H_ 0.0168373 0.380407 0.70011 0.10394
H_ H_ 0.0607828 0.304228 0.740712 0.10394
H_ H_ 0.420271 0.242259 0.724998 0.10394
H_ H_ 0.375594 0.32454 0.692411 0.10394
H_ H_ 0.462676 0.0540087 0.617253 0.10394
H_ H_ 0.0172881 0.123757 0.606037 0.10394
H_ H_ 0.146866 0.0133353 0.598887 0.10394
H_ H_ 0.448189 0.158956 0.902102 0.10394
H_ H_ 0.0196617 0.191502 0.939995 0.10394
H_ H_ 0.413963 0.284892 0.553295 0.10394
H_ H_ 0.351421 0.242931 0.00316219 0.10394
H_ H_ 0.236912 0.184497 0.879536 0.10394
H_ H_ 0.193267 0.230311 0.800928 0.10394
H_ H_ 0.345009 0.245523 0.762763 0.10394
H_ H_ 0.383281 0.196977 0.837547 0.10394
H_ H_ 0.283765 0.11831 0.556948 0.10394
H_ H_ 0.230166 0.110856 0.626684 0.10394
H_ H_ 0.102352 0.0922282 0.512546 0.10394
C_ C_ 0.180459 0.0874403 0.806805 0.18167
C_ C_ 0.226048 0.0677644 0.789096 -0.15533
C_ C_ 0.23296 0.0148904 0.776039 0.02923
C_ C_ 0.200314 0.484803 0.800066 -0.15533
C_ C_ 0.161472 0.00662284 0.823906 0.18167
C_ C_ 0.0331925 0.133188 0.778889 0.18167
C_ C_ 0.518144 0.175039 0.74123 -0.15533
C_ C_ 0.016697 0.224211 0.764846 0.02923
C_ C_ 0.0369221 0.233802 0.816412 -0.15533
C_ C_ 0.0585923 0.19383 0.845975 0.18167
C_ C_ 0.0134287 0.0390265 0.872487 0.69207
C_ C_ 0.471021 0.508618 0.875831 0.02923
C_ C_ 0.493359 0.458225 0.877596 -0.15533
C_ C_ 0.463277 0.41751 0.878016 -0.15533
C_ C_ 0.411626 0.428746 0.89284 0.02923
C_ C_ 0.391311 0.47961 0.895021 -0.15533
C_ C_ 0.41872 0.519374 0.886125 0.02923
C_ C_ 0.393239 0.0697248 0.888127 0.69207
C_ C_ 0.402442 0.331122 0.890076 0.69661
C_ C_ 0.0664975 0.304699 0.596901 0.18167
C_ C_ 0.0258911 0.277404 0.576006 -0.15533
C_ C_ 0.0152112 0.270652 0.523882 0.02923
C_ C_ 0.0507154 0.288524 0.984341 -0.15533
C_ C_ 0.0917703 0.312932 0.512677 0.18167
C_ C_ 0.228697 0.270148 0.640905 0.18167
C_ C_ 0.251735 0.245122 0.681404 -0.15533
C_ C_ 0.246879 0.269237 0.73088 0.02923
C_ C_ 0.224959 0.317573 0.738957 -0.15533
C_ C_ 0.19929 0.339432 0.694254 0.18167
C_ C_ 0.244189 0.370559 0.557936 0.69207
C_ C_ 0.279921 0.367708 0.00678392 0.02923
C_ C_ 0.262744 0.359944 0.955428 -0.15533
C_ C_ 0.292807 0.367206 0.91834 -0.15533
C_ C_ 0.341145 0.387669 0.930398 0.02923
C_ C_ 0.356832 0.40027 0.983441 -0.15533
C_ C_ 0.325751 0.389941 0.0209223 0.02923
C_ C_ 0.3502 0.39072 0.582923 0.69207
C_ C_ 0.351523 0.389636 0.832379 0.69661
C_ C_ 0.316927 0.421617 0.698116 0.18167
C_ C_ 0.273773 0.452305 0.709354 -0.15533
C_ C_ 0.277793 0.490231 0.749066 0.02923
C_ C_ 0.327241 0.0138231 0.756458 -0.15533
C_ C_ 0.366994 0.487255 0.73201 0.18167
C_ C_ 0.495959 0.353421 0.711841 0.18167
C_ C_ 0.0204393 0.30782 0.727104 -0.15533
C_ C_ 0.489957 0.269483 0.741276 0.02923
C_ C_ 0.439329 0.273362 0.721962 -0.15533
C_ C_ 0.416561 0.318576 0.701137 0.18167
C_ C_ 0.493994 0.454739 0.634669 0.69207
C_ C_ 0.022653 0.9954 0.61154 0.02923
C_ C_ 0.00310455 0.0473799 0.613646 -0.15533
C_ C_ 0.0349756 0.0840757 0.609193 -0.15533
C_ C_ 0.0879275 0.0731997 0.606366 0.02923
C_ C_ 0.107463 0.0222076 0.602938 -0.15533
C_ C_ 0.0772983 0.981937 0.603845 0.02923
C_ C_ 0.109244 0.433736 0.618349 0.69207
C_ C_ 0.102822 0.168365 0.613752 0.69661
C_ C_ 0.441884 0.18005 0.937742 0.18167
C_ C_ 0.486168 0.198545 0.963381 -0.15533
C_ C_ 0.483056 0.231934 1.00643644 0.02923
C_ C_ 0.418016 0.257506 0.519356 -0.15533
C_ C_ 0.390849 0.227833 0.995204 0.18167
C_ C_ 0.258838 0.193856 0.850837 0.18167
C_ C_ 0.236722 0.223704 0.809701 -0.15533
C_ C_ 0.26743 0.24087 0.775875 0.02923
C_ C_ 0.318909 0.231047 0.785979 -0.15533
C_ C_ 0.33987 0.203571 0.828926 0.18167
C_ C_ 0.266003 0.115214 0.955616 0.69207
C_ C_ 0.22441 0.111389 0.494649 0.02923
C_ C_ 0.243299 0.117684 0.546553 -0.15533
C_ C_ 0.215537 0.108839 0.586035 -0.15533
C_ C_ 0.162998 0.107951 0.574706 0.02923
C_ C_ 0.142429 0.0976641 0.523264 -0.15533
C_ C_ 0.175505 0.0983626 0.481883 0.02923
C_ C_ 0.154786 0.103672 0.930651 0.69207
C_ C_ 0.147176 0.111485 0.672872 0.69661
C_ C_ 0.377474 0.38577 0.888384 -0.30787
C_ C_ 0.124589 0.113081 0.615638 -0.30787
N_ N_ 0.148302 0.0566893 0.822066 -0.32189
N_ N_ 0.0551269 0.143802 0.827079 -0.32189
N_ N_ 0.101266 0.315835 0.564524 -0.32189
N_ N_ 0.19755 0.312742 0.647138 -0.32189
N_ N_ 0.362264 0.44192 0.703916 -0.32189
N_ N_ 0.44497 0.356706 0.692297 -0.32189
N_ N_ 0.395478 0.193278 0.955413 -0.32189
N_ N_ 0.310329 0.18549 0.860147 -0.32189
O_ O_ 0.490816 0.0872856 0.865028 -0.63271
O_ O_ 0.0538669 0.0274904 0.850176 -0.57982
O_ O_ 0.38438 0.0969915 0.849286 -0.63271
O_ O_ 0.375381 0.0878282 0.93098 -0.57982
O_ O_ 0.253912 0.385058 0.604989 -0.63271
O_ O_ 0.205252 0.342262 0.547344 -0.57982
O_ O_ 0.362142 0.347757 0.605642 -0.63271
O_ O_ 0.377524 0.427169 0.599107 -0.57982
O_ O_ 0.998027 0.409468 0.603092 -0.63271
O_ O_ 0.458369 0.466368 0.664182 -0.57982
O_ O_ 0.0941887 0.403138 0.648901 -0.63271
O_ O_ 0.147542 0.417559 0.592303 -0.57982
O_ O_ 0.270868 0.0822527 0.915729 -0.63271
O_ O_ 0.292403 0.153186 0.959109 -0.57982
O_ O_ 0.156076 0.146089 0.906637 -0.63271
O_ O_ 0.118637 0.0745652 0.917079 -0.57982
F_ F_ 0.433453 0.32261 0.933522 -0.20885
F_ F_ 0.431974 0.317868 0.851637 -0.20885
F_ F_ 0.371375 0.292415 0.891916 -0.20885
F_ F_ 0.310343 0.425522 0.826908 -0.20885
F_ F_ 0.331552 0.344728 0.815543 -0.20885
F_ F_ 0.382137 0.397504 0.795772 -0.20885
F_ F_ 0.0750178 0.177691 0.567516 -0.20885
F_ F_ 0.0692904 0.184054 0.650854 -0.20885
F_ F_ 0.137936 0.203319 0.619608 -0.20885
F_ F_ 0.169368 0.0639508 0.681978 -0.20885
F_ F_ 0.185093 0.144257 0.688194 -0.20885
F_ F_ 0.11116 0.119624 0.707732 -0.20885
Zn Zn 0.0870441 0.591332 0.342847 0.83971
Zn Zn 0.152383 0.849048 0.0843904 0.83971
Zn Zn 0.406812 0.916698 0.15283 0.83971
Zn Zn 0.336806 0.654208 0.411639 0.83971
H_ H_ 0.169823 0.635323 0.295201 0.10394
H_ H_ 0.24283 0.600074 0.253286 0.10394
H_ H_ 0.212652 0.948579 0.30507 0.10394
H_ H_ 0.135616 0.492613 0.334889 0.10394
H_ H_ 0.530094 0.599857 0.248562 0.10394
H_ H_ 0.495218 0.673895 0.199796 0.10394
H_ H_ 0.037153 0.779079 0.325634 0.10394
H_ H_ 0.064753 0.704536 0.376 0.10394
H_ H_ 0.0354116 0.943964 0.378179 0.10394
H_ H_ 0.473888 0.882143 0.380809 0.10394
H_ H_ 0.346375 0.992733 0.396874 0.10394
H_ H_ 0.0700919 0.810647 0.1333 0.10394
H_ H_ 0.513175 0.75257 0.1006 0.10394
H_ H_ 0.0479455 0.777908 0.440481 0.10394
H_ H_ 0.103153 0.829657 0.980813 0.10394
H_ H_ 0.211168 0.746755 0.095693 0.10394
H_ H_ 0.244096 0.698811 0.169069 0.10394
H_ H_ 0.215455 0.836538 0.265709 0.10394
H_ H_ 0.165712 0.875712 0.196201 0.10394
H_ H_ 0.214975 0.871035 0.449584 0.10394
H_ H_ 0.261331 0.89101 0.38172 0.10394
H_ H_ 0.394391 0.90899 0.48934 0.10394
H_ H_ 0.312662 0.888611 0.172715 0.10394
H_ H_ 0.233005 0.933773 0.211874 0.10394
H_ H_ 0.331613 0.547949 0.277852 0.10394
H_ H_ 0.397661 0.0119685 0.223529 0.10394
H_ H_ 0.00671856 0.892688 0.187592 0.10394
H_ H_ 0.0477743 0.81591 0.237296 0.10394
H_ H_ 0.413278 0.755214 0.229198 0.10394
H_ H_ 0.377549 0.827766 0.186842 0.10394
H_ H_ 0.46632 0.561359 0.132661 0.10394
H_ H_ 0.0062428 0.623178 0.099817 0.10394
H_ H_ 0.138515 0.510497 0.0951162 0.10394
H_ H_ 0.438247 0.664752 0.389035 0.10394
H_ H_ 0.0162118 0.687776 0.439342 0.10394
H_ H_ 0.421133 0.762487 0.0595688 0.10394
H_ H_ 0.339497 0.736713 0.489513 0.10394
H_ H_ 0.225316 0.703488 0.387278 0.10394
H_ H_ 0.187033 0.738712 0.305744 0.10394
H_ H_ 0.334151 0.725354 0.248608 0.10394
H_ H_ 0.369093 0.673565 0.318104 0.10394
H_ H_ 0.283157 0.615782 0.0553778 0.10394
H_ H_ 0.226607 0.593883 0.120355 0.10394
H_ H_ 0.0974789 0.60039 0.00172711 0.10394
C_ C_ 0.181529 0.59491 0.297972 0.18167
C_ C_ 0.225186 0.573877 0.275005 -0.15533
C_ C_ 0.234142 0.519762 0.268164 0.02923
C_ C_ 0.197694 0.98448 0.296696 -0.15533
C_ C_ 0.157187 0.51243 0.312831 0.18167
C_ C_ 0.0262794 0.641106 0.267715 0.18167
C_ C_ 0.514989 0.68012 0.238939 -0.15533
C_ C_ 0.00355285 0.735025 0.260481 0.02923
C_ C_ 0.0337 0.740437 0.306881 -0.15533
C_ C_ 0.0540794 0.699855 0.334768 0.18167
C_ C_ 0.0117773 0.543876 0.370822 0.69207
C_ C_ 0.46962 0.00945835 0.377584 0.02923
C_ C_ 0.49114 0.95847 0.382334 -0.15533
C_ C_ 0.457434 0.919972 0.382693 -0.15533
C_ C_ 0.40679 0.93193 0.39262 0.02923
C_ C_ 0.387434 0.983674 0.393448 -0.15533
C_ C_ 0.418294 0.0222693 0.386231 0.02923
C_ C_ 0.394427 0.571659 0.386495 0.69207
C_ C_ 0.395015 0.832931 0.388602 0.69661
C_ C_ 0.0637499 0.805099 0.0910922 0.18167
C_ C_ 0.0232041 0.778928 0.0738716 -0.15533
C_ C_ 0.0105984 0.771312 0.0221907 0.02923
C_ C_ 0.0576964 0.778937 0.482698 -0.15533
C_ C_ 0.0806178 0.816116 0.00710228 0.18167
C_ C_ 0.209382 0.766313 0.133607 0.18167
C_ C_ 0.232355 0.73939 0.174964 -0.15533
C_ C_ 0.232955 0.764065 0.224419 0.02923
C_ C_ 0.210067 0.814579 0.230323 -0.15533
C_ C_ 0.184084 0.838653 0.18754 0.18167
C_ C_ 0.23669 0.867279 0.0507641 0.69207
C_ C_ 0.277378 0.880785 0.5108 0.02923
C_ C_ 0.25379 0.881687 0.457817 -0.15533
C_ C_ 0.279498 0.894844 0.419277 -0.15533
C_ C_ 0.333211 0.895836 0.428143 0.02923
C_ C_ 0.354063 0.903369 0.480449 -0.15533
C_ C_ 0.32839 0.890839 0.519892 0.02923
C_ C_ 0.34804 0.882536 0.0727591 0.69207
C_ C_ 0.346869 0.893596 0.327771 0.69661
C_ C_ 0.31406 0.922239 0.196835 0.18167
C_ C_ 0.272385 0.947611 0.218104 -0.15533
C_ C_ 0.277291 0.993017 0.249689 0.02923
C_ C_ 0.326162 0.512357 0.255074 -0.15533
C_ C_ 0.362199 0.994208 0.223233 0.18167
C_ C_ 0.498086 0.85565 0.196693 0.18167
C_ C_ 0.0087679 0.820631 0.223549 -0.15533
C_ C_ 0.492032 0.774326 0.228844 0.02923
C_ C_ 0.440141 0.779325 0.21646 -0.15533
C_ C_ 0.419065 0.822501 0.191509 0.18167
C_ C_ 0.479218 0.954681 0.116579 0.69207
C_ C_ 0.0140769 0.495156 0.113491 0.02923
C_ C_ -0.007203999999999988 0.546756 0.108829 -0.15533
C_ C_ 0.0253288 0.583982 0.101217 -0.15533
C_ C_ 0.0784104 0.571324 0.100568 0.02923
C_ C_ 0.0976403 0.520754 0.0997985 -0.15533
C_ C_ 0.0658774 0.4829 0.104922 0.02923
C_ C_ 0.0951947 0.929797 0.109004 0.69207
C_ C_ 0.0904266 0.668876 0.100335 0.69661
C_ C_ 0.433901 0.683142 0.427409 0.18167
C_ C_ 0.476541 0.703022 0.456035 -0.15533
C_ C_ 0.466677 0.745296 0.491291 0.02923
C_ C_ 0.425754 0.747799 0.0211623 -0.15533
C_ C_ 0.377794 0.727257 0.48111 0.18167
C_ C_ 0.248667 0.702518 0.35277 0.18167
C_ C_ 0.22626 0.727649 0.309394 -0.15533
C_ C_ 0.257784 0.738726 0.270711 0.02923
C_ C_ 0.309533 0.723418 0.277884 -0.15533
C_ C_ 0.329449 0.693441 0.317861 0.18167
C_ C_ 0.260272 0.619441 0.447298 0.69207
C_ C_ 0.223745 0.616644 0.991418 0.02923
C_ C_ 0.243991 0.609391 0.0422158 -0.15533
C_ C_ 0.210554 0.598369 0.0794009 -0.15533
C_ C_ 0.156609 0.601112 0.0654314 0.02923
C_ C_ 0.139768 0.601076 0.0130833 -0.15533
C_ C_ 0.173188 0.608128 0.976798 0.02923
C_ C_ 0.147089 0.611834 0.423617 0.69207
C_ C_ 0.137849 0.613248 0.162625 0.69661
C_ C_ 0.36831 0.889579 0.384733 -0.30787
C_ C_ 0.118273 0.611223 0.105489 -0.30787
N_ N_ 0.146294 0.563171 0.310159 -0.32189
N_ N_ 0.0561143 0.651523 0.312751 -0.32189
N_ N_ 0.0962033 0.817893 0.0592851 -0.32189
N_ N_ 0.185235 0.814381 0.140218 -0.32189
N_ N_ 0.355343 0.948359 0.194775 -0.32189
N_ N_ 0.447478 0.860741 0.185774 -0.32189
N_ N_ 0.386111 0.693804 0.4416 -0.32189
N_ N_ 0.300682 0.688994 0.357448 -0.32189
O_ O_ 0.505436 0.591724 0.386177 -0.63271
O_ O_ 0.0486197 0.538135 0.339853 -0.57982
O_ O_ 0.382369 0.592333 0.343426 -0.63271
O_ O_ 0.375704 0.595689 0.426787 -0.57982
O_ O_ 0.246851 0.878219 0.0986761 -0.63271
O_ O_ 0.194557 0.843572 0.0359421 -0.57982
O_ O_ 0.363143 0.837563 0.0885827 -0.63271
O_ O_ 0.368563 0.921926 0.0957811 -0.57982
O_ O_ 0.981868 0.917337 0.0965128 -0.63271
O_ O_ 0.446637 0.966643 0.149886 -0.57982
O_ O_ 0.088894 0.901783 0.145448 -0.63271
O_ O_ 0.128674 0.915066 0.0779313 -0.57982
O_ O_ 0.259916 0.591989 0.403914 -0.63271
O_ O_ 0.28775 0.657457 0.455859 -0.57982
O_ O_ 0.160074 0.641585 0.391465 -0.63271
O_ O_ 0.106824 0.590549 0.408304 -0.57982
F_ F_ 0.426208 0.831755 0.433283 -0.20885
F_ F_ 0.42326 0.811783 0.351381 -0.20885
F_ F_ 0.355294 0.800841 0.391816 -0.20885
F_ F_ 0.303608 0.929127 0.322807 -0.20885
F_ F_ 0.327229 0.848673 0.3097 -0.20885
F_ F_ 0.383059 0.902287 0.294843 -0.20885
F_ F_ 0.0582293 0.666481 0.0556668 -0.20885
F_ F_ 0.0611172 0.692202 0.140059 -0.20885
F_ F_ 0.128143 0.700317 0.0950989 -0.20885
F_ F_ 0.165811 0.568159 0.173357 -0.20885
F_ F_ 0.168242 0.653436 0.176361 -0.20885
F_ F_ 0.0999933 0.615143 0.191853 -0.20885
Zn Zn 0.0824074 0.582525 0.841998 0.83971
Zn Zn 0.164497 0.844318 0.584728 0.83971
Zn Zn 0.412583 0.917283 0.659514 0.83971
Zn Zn 0.342784 0.656314 0.920057 0.83971
H_ H_ 0.160945 0.627828 0.790519 0.10394
H_ H_ 0.24475 0.590582 0.764856 0.10394
H_ H_ 0.212223 0.94199 0.799377 0.10394
H_ H_ 0.12469 0.483709 0.824397 0.10394
H_ H_ 0.53395 0.591196 0.740184 0.10394
H_ H_ 0.47984 0.662304 0.700068 0.10394
H_ H_ 0.0321671 0.780001 0.821482 0.10394
H_ H_ 0.0657871 0.70449 0.879034 0.10394
H_ H_ 0.0317914 0.940549 0.871153 0.10394
H_ H_ 0.461159 0.871105 0.861653 0.10394
H_ H_ 0.340118 0.987846 0.893416 0.10394
H_ H_ 0.0791269 0.806921 0.625566 0.10394
H_ H_ 0.494122 0.771644 0.593747 0.10394
H_ H_ 0.0232412 0.797727 0.945651 0.10394
H_ H_ 0.121914 0.819772 0.477945 0.10394
H_ H_ 0.232067 0.753537 0.603152 0.10394
H_ H_ 0.257799 0.702182 0.676923 0.10394
H_ H_ 0.213733 0.831394 0.772665 0.10394
H_ H_ 0.176592 0.877021 0.695779 0.10394
H_ H_ 0.202853 0.888749 0.9545 0.10394
H_ H_ 0.254832 0.889315 0.882171 0.10394
H_ H_ 0.385585 0.909349 0.988323 0.10394
H_ H_ 0.310027 0.905732 0.660986 0.10394
H_ H_ 0.231862 0.941743 0.700279 0.10394
H_ H_ 0.329039 0.541411 0.783852 0.10394
H_ H_ 0.405301 0.00473222 0.734 0.10394
H_ H_ 0.0138016 0.889671 0.694646 0.10394
H_ H_ 0.054492 0.812669 0.734582 0.10394
H_ H_ 0.395798 0.753428 0.727426 0.10394
H_ H_ 0.367388 0.83613 0.690785 0.10394
H_ H_ 0.476317 0.559374 0.645308 0.10394
H_ H_ 0.0219382 0.622226 0.609678 0.10394
H_ H_ 0.147985 0.507516 0.585692 0.10394
H_ H_ 0.443932 0.673086 0.89109 0.10394
H_ H_ 0.0175789 0.68889 0.953008 0.10394
H_ H_ 0.412385 0.78764 0.532054 0.10394
H_ H_ 0.346451 0.730443 0.00723626 0.10394
H_ H_ 0.238107 0.711954 0.897397 0.10394
H_ H_ 0.191723 0.746338 0.815914 0.10394
H_ H_ 0.325975 0.717515 0.746325 0.10394
H_ H_ 0.375591 0.688289 0.826113 0.10394
H_ H_ 0.285046 0.620692 0.545689 0.10394
H_ H_ 0.234091 0.613292 0.61445 0.10394
H_ H_ 0.101681 0.598631 0.50706 0.10394
C_ C_ 0.174788 0.588552 0.798614 0.18167
C_ C_ 0.219384 0.565868 0.777714 -0.15533
C_ C_ 0.232807 0.514727 0.777631 0.02923
C_ C_ 0.201897 0.984235 0.796958 -0.15533
C_ C_ 0.153337 0.506205 0.814892 0.18167
C_ C_ 0.0346814 0.641303 0.763876 0.18167
C_ C_ 0.498682 0.670598 0.736978 -0.15533
C_ C_ 0.0131072 0.731354 0.755002 0.02923
C_ C_ 0.0311354 0.740419 0.807591 -0.15533
C_ C_ 0.0502664 0.697184 0.837931 0.18167
C_ C_ 0.00209597 0.547475 0.863873 0.69207
C_ C_ 0.464213 -0.000347317 0.866996 0.02923
C_ C_ 0.478122 0.945799 0.858434 -0.15533
C_ C_ 0.448231 0.909889 0.871815 -0.15533
C_ C_ 0.398995 0.924174 0.886067 0.02923
C_ C_ 0.380512 0.976358 0.888398 -0.15533
C_ C_ 0.414079 0.0144734 0.881737 0.02923
C_ C_ 0.396359 0.574435 0.887775 0.69207
C_ C_ 0.390428 0.826861 0.897272 0.69661
C_ C_ 0.0730149 0.799235 0.585168 0.18167
C_ C_ 0.0278424 0.778299 0.565744 -0.15533
C_ C_ 0.0198402 0.770045 0.513372 0.02923
C_ C_ 0.0359378 0.796217 0.988695 -0.15533
C_ C_ 0.0979222 0.806669 0.503597 0.18167
C_ C_ 0.220792 0.768672 0.640099 0.18167
C_ C_ 0.233215 0.737903 0.682488 -0.15533
C_ C_ 0.232538 0.762836 0.729929 0.02923
C_ C_ 0.208671 0.812065 0.736187 -0.15533
C_ C_ 0.186098 0.837578 0.69289 0.18167
C_ C_ 0.247234 0.867519 0.550387 0.69207
C_ C_ 0.267011 0.884049 0.011778 0.02923
C_ C_ 0.243256 0.889994 0.961672 -0.15533
C_ C_ 0.274501 0.886959 0.921917 -0.15533
C_ C_ 0.325179 0.894553 0.930262 0.02923
C_ C_ 0.346456 0.899719 0.981623 -0.15533
C_ C_ 0.320159 0.886537 0.0204593 0.02923
C_ C_ 0.36078 0.884201 0.570134 0.69207
C_ C_ 0.337782 0.87597 0.835613 0.69661
C_ C_ 0.313804 0.93401 0.687611 0.18167
C_ C_ 0.271918 0.954537 0.711642 -0.15533
C_ C_ 0.278111 0.994283 0.74849 0.02923
C_ C_ 0.324872 0.511201 0.756261 -0.15533
C_ C_ 0.368448 0.991687 0.730199 0.18167
C_ C_ 0.490217 0.844894 0.702474 0.18167
C_ C_ 0.0145325 0.817013 0.724687 -0.15533
C_ C_ 0.47341 0.764778 0.735684 0.02923
C_ C_ 0.42275 0.779406 0.721929 -0.15533
C_ C_ 0.405976 0.827607 0.704571 0.18167
C_ C_ 0.493701 0.952875 0.630272 0.69207
C_ C_ 0.0271521 0.493145 0.613035 0.02923
C_ C_ 1.00699948 0.544842 0.609614 -0.15533
C_ C_ 0.0376276 0.582355 0.605614 -0.15533
C_ C_ 0.0903196 0.569229 0.599165 0.02923
C_ C_ 0.107765 0.516784 0.589562 -0.15533
C_ C_ 0.0789017 0.480357 0.60422 0.02923
C_ C_ 0.0999546 0.928812 0.609257 0.69207
C_ C_ 0.107539 0.664333 0.613749 0.69661
C_ C_ 0.437686 0.694604 0.928437 0.18167
C_ C_ 0.479313 0.71633 0.955236 -0.15533
C_ C_ 0.473538 0.743683 0.0005900000000000905 0.02923
C_ C_ 0.418176 0.755019 0.505172 -0.15533
C_ C_ 0.383906 0.725985 0.994166 0.18167
C_ C_ 0.256023 0.707163 0.862253 0.18167
C_ C_ 0.232649 0.731575 0.819359 -0.15533
C_ C_ 0.25871 0.734852 0.775339 0.02923
C_ C_ 0.308096 0.710155 0.777143 -0.15533
C_ C_ 0.335143 0.69574 0.823802 0.18167
C_ C_ 0.260414 0.624521 0.954359 0.69207
C_ C_ 0.225818 0.611064 0.486087 0.02923
C_ C_ 0.245736 0.614195 0.536431 -0.15533
C_ C_ 0.215338 0.612497 0.576731 -0.15533
C_ C_ 0.163397 0.606288 0.566968 0.02923
C_ C_ 0.140966 0.604071 0.516398 -0.15533
C_ C_ 0.172871 0.60938 0.475813 0.02923
C_ C_ 0.149339 0.612573 0.92275 0.69207
C_ C_ 0.158638 0.597391 0.661977 0.69661
C_ C_ 0.36384 0.881968 0.888059 -0.30787
C_ C_ 0.129006 0.607518 0.609501 -0.30787
N_ N_ 0.141268 0.557104 0.811917 -0.32189
N_ N_ 0.052498 0.648075 0.815098 -0.32189
N_ N_ 0.109299 0.808374 0.55439 -0.32189
N_ N_ 0.188891 0.813637 0.644876 -0.32189
N_ N_ 0.360869 0.950718 0.69631 -0.32189
N_ N_ 0.439735 0.859291 0.694172 -0.32189
N_ N_ 0.391824 0.697812 0.948718 -0.32189
N_ N_ 0.308471 0.691534 0.863709 -0.32189
O_ O_ 0.507276 0.590318 0.887289 -0.63271
O_ O_ 0.0347812 0.540973 0.829185 -0.57982
O_ O_ 0.388232 0.597866 0.845748 -0.63271
O_ O_ 0.379019 0.597985 0.92861 -0.57982
O_ O_ 0.245044 0.899212 0.592152 -0.63271
O_ O_ 0.214565 0.831458 0.542382 -0.57982
O_ O_ 0.355977 0.845167 0.598962 -0.63271
O_ O_ 0.379529 0.924033 0.593203 -0.57982
O_ O_ 0.990445 0.91408 0.590038 -0.63271
O_ O_ 0.458059 0.966152 0.661436 -0.57982
O_ O_ 0.0909882 0.901663 0.647683 -0.63271
O_ O_ 0.137948 0.910441 0.579986 -0.57982
O_ O_ 0.255143 0.599299 0.909848 -0.63271
O_ O_ 0.296693 0.653405 0.966259 -0.57982
O_ O_ 0.15041 0.653105 0.896682 -0.63271
O_ O_ 0.114447 0.581836 0.905087 -0.57982
F_ F_ 0.431257 0.831725 0.931897 -0.20885
F_ F_ 0.409459 0.799245 0.85565 -0.20885
F_ F_ 0.360624 0.795713 0.917084 -0.20885
F_ F_ 0.305499 0.918291 0.820873 -0.20885
F_ F_ 0.308288 0.835015 0.830036 -0.20885
F_ F_ 0.371107 0.872544 0.800477 -0.20885
F_ F_ 0.0721507 0.675494 0.572593 -0.20885
F_ F_ 0.0892638 0.681695 0.661323 -0.20885
F_ F_ 0.141483 0.70101 0.615436 -0.20885
F_ F_ 0.186705 0.5492 0.658631 -0.20885
F_ F_ 0.187693 0.637031 0.68146 -0.20885
F_ F_ 0.121591 0.594017 0.695191 -0.20885
Zn Zn 0.581035 0.0870596 0.351315 0.83971
Zn Zn 0.664168 0.34453 0.0850067 0.83971
Zn Zn 0.908146 0.415651 0.160335 0.83971
Zn Zn 0.838347 0.153553 0.419859 0.83971
H_ H_ 0.661521 0.140648 0.313264 0.10394
H_ H_ 0.742802 0.105225 0.280591 0.10394
H_ H_ 0.697815 0.441062 0.279621 0.10394
H_ H_ 0.625415 0.990755 0.324316 0.10394
H_ H_ 0.0269901 0.0971473 0.255003 0.10394
H_ H_ 0.997307 0.170719 0.201033 0.10394
H_ H_ 0.530819 0.271553 0.343301 0.10394
H_ H_ 0.559634 0.196323 0.38729 0.10394
H_ H_ 0.533543 0.444899 0.379355 0.10394
H_ H_ 0.989969 0.375815 0.383495 0.10394
H_ H_ 0.854699 0.483129 0.382019 0.10394
H_ H_ 0.586197 0.307099 0.135952 0.10394
H_ H_ 1.00091 0.260408 0.0893266 0.10394
H_ H_ 0.529112 0.286806 0.451842 0.10394
H_ H_ 0.622331 0.318001 0.981657 0.10394
H_ H_ 0.725553 0.24816 0.103725 0.10394
H_ H_ 0.761841 0.201437 0.178482 0.10394
H_ H_ 0.698505 0.325686 0.274995 0.10394
H_ H_ 0.671346 0.372299 0.196355 0.10394
H_ H_ 0.723372 0.36209 0.436974 0.10394
H_ H_ 0.775799 0.374595 0.371312 0.10394
H_ H_ 0.900082 0.403849 0.486002 0.10394
H_ H_ 0.801092 0.391207 0.16458 0.10394
H_ H_ 0.727305 0.435401 0.196731 0.10394
H_ H_ 0.819863 0.0591552 0.270136 0.10394
H_ H_ 0.897875 0.495147 0.242548 0.10394
H_ H_ 0.504215 0.397823 0.222324 0.10394
H_ H_ 0.554025 0.322715 0.253111 0.10394
H_ H_ 0.921569 0.24977 0.232016 0.10394
H_ H_ 0.878711 0.322688 0.191124 0.10394
H_ H_ 0.961798 0.0601737 0.134652 0.10394
H_ H_ 0.507212 0.115427 0.0936557 0.10394
H_ H_ 0.637495 0.00328693 0.0792775 0.10394
H_ H_ 0.944809 0.160319 0.395998 0.10394
H_ H_ 0.512807 0.194021 0.458583 0.10394
H_ H_ 0.916795 0.274854 0.0401586 0.10394
H_ H_ 0.846158 0.228653 0.504463 0.10394
H_ H_ 0.732589 0.193541 0.391138 0.10394
H_ H_ 0.690781 0.240003 0.3177 0.10394
H_ H_ 0.833815 0.227948 0.257371 0.10394
H_ H_ 0.873634 0.196909 0.333169 0.10394
H_ H_ 0.778573 0.12579 0.0548092 0.10394
H_ H_ 0.722453 0.120568 0.117772 0.10394
H_ H_ 0.599862 0.100928 0.00616638 0.10394
C_ C_ 0.670002 0.098854 0.306482 0.18167
C_ C_ 0.715058 0.0793686 0.28563 -0.15533
C_ C_ 0.723704 0.0274281 0.270619 0.02923
C_ C_ 0.692515 0.480899 0.286055 -0.15533
C_ C_ 0.646364 0.016456 0.306649 0.18167
C_ C_ 0.539676 0.138293 0.269224 0.18167
C_ C_ 0.0119224 0.17768 0.241597 -0.15533
C_ C_ 0.517259 0.231945 0.264685 0.02923
C_ C_ 0.537378 0.236299 0.318732 -0.15533
C_ C_ 0.551913 0.192112 0.344673 0.18167
C_ C_ 0.504762 0.0484688 0.37378 0.69207
C_ C_ 0.979091 0.500792 0.374901 0.02923
C_ C_ 1.00113097 0.45196 0.378939 -0.15533
C_ C_ 0.97142 0.414029 0.383867 -0.15533
C_ C_ 0.91954 0.424588 0.389922 0.02923
C_ C_ 0.897625 0.475406 0.38976 -0.15533
C_ C_ 0.926069 0.515567 0.379737 0.02923
C_ C_ 0.888701 0.0670952 0.380963 0.69207
C_ C_ 0.912863 0.328897 0.39189 0.69661
C_ C_ 0.578561 0.301003 0.0941467 0.18167
C_ C_ 0.534868 0.27851 0.0772167 -0.15533
C_ C_ 0.525319 0.264108 0.0259605 0.02923
C_ C_ 0.536865 0.295819 0.492692 -0.15533
C_ C_ 0.59839 0.304852 0.0107488 0.18167
C_ C_ 0.716748 0.263646 0.14011 0.18167
C_ C_ 0.738192 0.237831 0.183981 -0.15533
C_ C_ 0.732737 0.260115 0.232353 0.02923
C_ C_ 0.706632 0.31058 0.237672 -0.15533
C_ C_ 0.691762 0.335547 0.193106 0.18167
C_ C_ 0.74294 0.372371 0.0452535 0.69207
C_ C_ 0.780687 0.370214 0.500467 0.02923
C_ C_ 0.762379 0.368212 0.447033 -0.15533
C_ C_ 0.794201 0.374457 0.41 -0.15533
C_ C_ 0.844462 0.387862 0.42096 0.02923
C_ C_ 0.859443 0.397724 0.473909 -0.15533
C_ C_ 0.830954 0.386326 0.512882 0.02923
C_ C_ 0.853687 0.382014 0.0756877 0.69207
C_ C_ 0.860302 0.376063 0.326546 0.69661
C_ C_ 0.806854 0.421472 0.19011 0.18167
C_ C_ 0.765268 0.444626 0.212043 -0.15533
C_ C_ 0.772214 0.486972 0.24615 0.02923
C_ C_ 0.813655 0.0236696 0.247204 -0.15533
C_ C_ 0.861583 0.479481 0.235087 0.18167
C_ C_ 1.00063 0.352387 0.192388 0.18167
C_ C_ 0.513782 0.322834 0.240862 -0.15533
C_ C_ 0.996622 0.272266 0.232416 0.02923
C_ C_ 0.944554 0.28013 0.226499 -0.15533
C_ C_ 0.920776 0.320646 0.199164 0.18167
C_ C_ 0.979854 0.456787 0.118256 0.69207
C_ C_ 0.516598 0.990572 0.108459 0.02923
C_ C_ 0.497029 0.0410679 0.106373 -0.15533
C_ C_ 0.527417 0.0796089 0.101531 -0.15533
C_ C_ 0.581796 0.0669211 0.0990859 0.02923
C_ C_ 0.600116 0.0155929 0.0953293 -0.15533
C_ C_ 0.568947 0.977842 0.103898 0.02923
C_ C_ 0.594545 0.423369 0.110457 0.69207
C_ C_ 0.596173 0.164685 0.103099 0.69661
C_ C_ 0.939587 0.185746 0.428175 0.18167
C_ C_ 0.980734 0.206841 0.456668 -0.15533
C_ C_ 0.972501 0.242751 0.498653 0.02923
C_ C_ 0.923081 0.251719 0.00722021 -0.15533
C_ C_ 0.883993 0.22499 0.488317 0.18167
C_ C_ 0.752639 0.197391 0.358773 0.18167
C_ C_ 0.727198 0.219454 0.316309 -0.15533
C_ C_ 0.756695 0.233172 0.277304 0.02923
C_ C_ 0.808797 0.214557 0.281704 -0.15533
C_ C_ 0.832633 0.200051 0.328327 0.18167
C_ C_ 0.760768 0.116475 0.453838 0.69207
C_ C_ 0.72018 0.117774 0.989913 0.02923
C_ C_ 0.738722 0.121414 0.0431908 -0.15533
C_ C_ 0.707405 0.115771 0.0802425 -0.15533
C_ C_ 0.656236 0.102777 0.0659222 0.02923
C_ C_ 0.639549 0.102616 0.015722 -0.15533
C_ C_ 0.671109 0.106855 0.977604 0.02923
C_ C_ 0.649704 0.101327 0.42905 0.69207
C_ C_ 0.64344 0.104203 0.162317 0.69661
C_ C_ 0.883358 0.379997 0.383268 -0.30787
C_ C_ 0.620295 0.107993 0.106243 -0.30787
N_ N_ 0.635578 0.0670965 0.315979 -0.32189
N_ N_ 0.557127 0.146764 0.318222 -0.32189
N_ N_ 0.6107 0.311709 0.0614851 -0.32189
N_ N_ 0.697508 0.313197 0.146563 -0.32189
N_ N_ 0.855164 0.437207 0.20212 -0.32189
N_ N_ 0.949353 0.355379 0.181903 -0.32189
N_ N_ 0.894141 0.19187 0.448525 -0.32189
N_ N_ 0.80498 0.186141 0.361313 -0.32189
O_ O_ 0.00228127 0.0886578 0.395229 -0.63271
O_ O_ 0.535975 0.0441999 0.337565 -0.57982
O_ O_ 0.894372 0.0960362 0.343278 -0.63271
O_ O_ 0.866959 0.0881076 0.420902 -0.57982
O_ O_ 0.749652 0.390133 0.0926296 -0.63271
O_ O_ 0.70475 0.344206 0.0332512 -0.57982
O_ O_ 0.862561 0.339085 0.100877 -0.63271
O_ O_ 0.877367 0.419663 0.0928415 -0.57982
O_ O_ 0.483615 0.414945 0.104461 -0.63271
O_ O_ 0.953792 0.460418 0.158068 -0.57982
O_ O_ 0.585743 0.395936 0.146983 -0.63271
O_ O_ 0.635125 0.408509 0.0867073 -0.57982
O_ O_ 0.751415 0.102877 0.404791 -0.63271
O_ O_ 0.791494 0.151476 0.464009 -0.57982
O_ O_ 0.647099 0.145602 0.408806 -0.63271
O_ O_ 0.616369 0.0705648 0.411565 -0.57982
F_ F_ 0.940675 0.329667 0.43812 -0.20885
F_ F_ 0.943645 0.310554 0.355517 -0.20885
F_ F_ 0.88085 0.291121 0.390722 -0.20885
F_ F_ 0.825828 0.417381 0.310572 -0.20885
F_ F_ 0.840052 0.331661 0.313155 -0.20885
F_ F_ 0.902522 0.380009 0.297787 -0.20885
F_ F_ 0.563158 0.172601 0.0624885 -0.20885
F_ F_ 0.569325 0.182979 0.143678 -0.20885
F_ F_ 0.631908 0.198092 0.101366 -0.20885
F_ F_ 0.680771 0.0640612 0.168489 -0.20885
F_ F_ 0.664236 0.146273 0.181087 -0.20885
F_ F_ 0.611174 0.1005 0.19937 -0.20885
Zn Zn 0.585359 0.0769882 0.846948 0.83971
Zn Zn 0.663345 0.345675 0.578916 0.83971
Zn Zn 0.917478 0.412309 0.654109 0.83971
Zn Zn 0.839133 0.153072 0.912406 0.83971
H_ H_ 0.664454 0.127545 0.808168 0.10394
H_ H_ 0.742966 0.0964846 0.768498 0.10394
H_ H_ 0.706277 0.444537 0.768242 0.10394
H_ H_ 0.626156 0.973492 0.809713 0.10394
H_ H_ 0.0374569 0.0940418 0.763885 0.10394
H_ H_ 1.00726 0.166079 0.704225 0.10394
H_ H_ 0.522544 0.264784 0.842417 0.10394
H_ H_ 0.566171 0.189419 0.885034 0.10394
H_ H_ 0.530493 0.450537 0.867105 0.10394
H_ H_ 0.9849 0.383747 0.886347 0.10394
H_ H_ 0.850753 0.491514 0.89795 0.10394
H_ H_ 0.585276 0.311398 0.63521 0.10394
H_ H_ -0.003039000000000014 0.267585 0.599126 0.10394
H_ H_ 0.546746 0.276035 0.949899 0.10394
H_ H_ 0.604295 0.330735 0.480535 0.10394
H_ H_ 0.724636 0.24435 0.586811 0.10394
H_ H_ 0.76008 0.194307 0.661686 0.10394
H_ H_ 0.726052 0.328448 0.758596 0.10394
H_ H_ 0.691744 0.376062 0.683098 0.10394
H_ H_ 0.726502 0.350681 0.945322 0.10394
H_ H_ 0.777401 0.369039 0.881397 0.10394
H_ H_ 0.899574 0.406467 0.992368 0.10394
H_ H_ 0.809105 0.39898 0.653736 0.10394
H_ H_ 0.736559 0.443221 0.692367 0.10394
H_ H_ 0.83289 0.0321193 0.78265 0.10394
H_ H_ 0.907897 0.494313 0.735125 0.10394
H_ H_ 0.5173 0.384056 0.707059 0.10394
H_ H_ 0.556963 0.308218 0.744698 0.10394
H_ H_ 0.9155 0.247171 0.730043 0.10394
H_ H_ 0.878788 0.318511 0.67671 0.10394
H_ H_ 0.963305 0.0562049 0.617249 0.10394
H_ H_ 0.516442 0.119962 0.611586 0.10394
H_ H_ 0.646036 0.00910181 0.593708 0.10394
H_ H_ 0.943475 0.154001 0.892143 0.10394
H_ H_ 0.524286 0.184067 0.952022 0.10394
H_ H_ 0.913173 0.278355 0.547511 0.10394
H_ H_ 0.842606 0.236531 -0.006812999999999958 0.10394
H_ H_ 0.732468 0.186201 0.870184 0.10394
H_ H_ 0.6922 0.227586 0.788841 0.10394
H_ H_ 0.838223 0.205525 0.732354 0.10394
H_ H_ 0.880137 0.185211 0.815872 0.10394
H_ H_ 0.784179 0.11943 0.552877 0.10394
H_ H_ 0.725971 0.130049 0.617558 0.10394
H_ H_ 0.606833 0.0803291 0.506535 0.10394
C_ C_ 0.673444 0.0861656 0.799585 0.18167
C_ C_ 0.719895 0.0683717 0.778874 -0.15533
C_ C_ 0.730876 0.0140769 0.76657 0.02923
C_ C_ 0.69954 0.485099 0.777905 -0.15533
C_ C_ 0.654031 0.00045000000000006146 0.802727 0.18167
C_ C_ 0.539285 0.133827 0.767708 0.18167
C_ C_ 0.0143043 0.173322 0.746836 -0.15533
C_ C_ 0.515578 0.223558 0.768648 0.02923
C_ C_ 0.526078 0.227688 0.820822 -0.15533
C_ C_ 0.550871 0.185623 0.84573 0.18167
C_ C_ 0.504283 0.036613 0.863757 0.69207
C_ C_ 0.967743 0.508429 0.8703 0.02923
C_ C_ 0.993016 0.458244 0.875417 -0.15533
C_ C_ 0.965997 0.420563 0.884514 -0.15533
C_ C_ 0.912154 0.429635 0.890251 0.02923
C_ C_ 0.890231 0.480915 0.892276 -0.15533
C_ C_ 0.918684 0.520695 0.88523 0.02923
C_ C_ 0.896719 0.0707922 0.877091 0.69207
C_ C_ 0.905071 0.331895 0.887553 0.69661
C_ C_ 0.570458 0.30626 0.594383 0.18167
C_ C_ 0.524123 0.285972 0.579874 -0.15533
C_ C_ 0.509518 0.276441 0.52662 0.02923
C_ C_ 0.555203 0.281157 0.991768 -0.15533
C_ C_ 0.582945 0.317506 0.50798 0.18167
C_ C_ 0.721043 0.263805 0.623871 0.18167
C_ C_ 0.748928 0.235956 0.66483 -0.15533
C_ C_ 0.747652 0.25797 0.712755 0.02923
C_ C_ 0.727837 0.309118 0.720904 -0.15533
C_ C_ 0.71137 0.337514 0.678852 0.18167
C_ C_ 0.744476 0.369272 0.539716 0.69207
C_ C_ 0.78132 0.374629 1.00780778 0.02923
C_ C_ 0.764255 0.364959 0.958452 -0.15533
C_ C_ 0.791543 0.374617 0.919791 -0.15533
C_ C_ 0.840531 0.394523 0.93189 0.02923
C_ C_ 0.860549 0.397228 0.982933 -0.15533
C_ C_ 0.833775 0.381072 0.021253 0.02923
C_ C_ 0.858105 0.379963 0.566961 0.69207
C_ C_ 0.850086 0.385897 0.83117 0.69661
C_ C_ 0.81435 0.435656 0.67405 0.18167
C_ C_ 0.775121 0.453499 0.703999 -0.15533
C_ C_ 0.781533 0.494774 0.740047 0.02923
C_ C_ 0.825912 0.00377503 0.754004 -0.15533
C_ C_ 0.871091 0.482771 0.724616 0.18167
C_ C_ 0.996023 0.352632 0.707919 0.18167
C_ C_ 0.518272 0.311119 0.736 -0.15533
C_ C_ 0.993024 0.268051 0.734342 0.02923
C_ C_ 0.941081 0.272141 0.71886 -0.15533
C_ C_ 0.918676 0.315236 0.691809 0.18167
C_ C_ 0.992627 0.455168 0.623044 0.69207
C_ C_ 0.526497 0.991096 0.61829 0.02923
C_ C_ 0.503739 0.0423478 0.615585 -0.15533
C_ C_ 0.533882 0.0819389 0.608575 -0.15533
C_ C_ 0.586764 0.0701662 0.603436 0.02923
C_ C_ 0.606093 0.0182437 0.598276 -0.15533
C_ C_ 0.578004 0.978442 0.608165 0.02923
C_ C_ 0.603177 0.429205 0.607534 0.69207
C_ C_ 0.602963 0.164453 0.600594 0.69661
C_ C_ 0.93811 0.182985 0.924695 0.18167
C_ C_ 0.981601 0.204787 0.951232 -0.15533
C_ C_ 0.973746 0.241191 -0.009275000000000033 0.02923
C_ C_ 0.921994 0.251389 0.51461 -0.15533
C_ C_ 0.882067 0.227025 0.982943 0.18167
C_ C_ 0.755509 0.193525 0.840609 0.18167
C_ C_ 0.734666 0.215655 0.794397 -0.15533
C_ C_ 0.766679 0.230022 0.758313 0.02923
C_ C_ 0.818166 0.211691 0.76604 -0.15533
C_ C_ 0.83877 0.189826 0.810311 0.18167
C_ C_ 0.756218 0.121788 0.950306 0.69207
C_ C_ 0.727612 0.102394 0.492625 0.02923
C_ C_ 0.747511 0.104876 0.543578 -0.15533
C_ C_ 0.714279 0.110942 0.581838 -0.15533
C_ C_ 0.664464 0.0990686 0.57186 0.02923
C_ C_ 0.647135 0.0884974 0.518842 -0.15533
C_ C_ 0.675716 0.0964006 0.480828 0.02923
C_ C_ 0.648395 0.108958 0.92695 0.69207
C_ C_ 0.648526 0.109874 0.665917 0.69661
C_ C_ 0.876938 0.388266 0.886769 -0.30787
C_ C_ 0.624239 0.112165 0.609371 -0.30787
N_ N_ 0.642157 0.0532035 0.81226 -0.32189
N_ N_ 0.55946 0.139094 0.81814 -0.32189
N_ N_ 0.601568 0.316275 0.559526 -0.32189
N_ N_ 0.706527 0.313282 0.630889 -0.32189
N_ N_ 0.862576 0.448398 0.686152 -0.32189
N_ N_ 0.947371 0.353374 0.687008 -0.32189
N_ N_ 0.890719 0.195861 0.940769 -0.32189
N_ N_ 0.808622 0.179557 0.84718 -0.32189
O_ O_ 0.00945411 0.0857419 0.896759 -0.63271
O_ O_ 0.547062 0.0241964 0.846617 -0.57982
O_ O_ 0.889722 0.0921157 0.832454 -0.63271
O_ O_ 0.868882 0.0878711 0.913866 -0.57982
O_ O_ 0.747077 0.401313 0.581111 -0.63271
O_ O_ 0.705286 0.343547 0.528621 -0.57982
O_ O_ 0.857625 0.336721 0.588528 -0.63271
O_ O_ 0.891149 0.410472 0.585519 -0.57982
O_ O_ 0.497664 0.408219 0.612774 -0.63271
O_ O_ 0.958271 0.462698 0.656289 -0.57982
O_ O_ 0.602916 0.402347 0.647793 -0.63271
O_ O_ 0.63771 0.414163 0.57626 -0.57982
O_ O_ 0.747186 0.100515 0.903358 -0.63271
O_ O_ 0.791446 0.153554 0.959159 -0.57982
O_ O_ 0.65185 0.14699 0.896061 -0.63271
O_ O_ 0.61161 0.0803016 0.913319 -0.57982
F_ F_ 0.934836 0.328172 0.933687 -0.20885
F_ F_ 0.935645 0.319108 0.848445 -0.20885
F_ F_ 0.872809 0.292164 0.886301 -0.20885
F_ F_ 0.809749 0.425423 0.825107 -0.20885
F_ F_ 0.829333 0.34169 0.816312 -0.20885
F_ F_ 0.88296 0.390247 0.792649 -0.20885
F_ F_ 0.571509 0.17075 0.554984 -0.20885
F_ F_ 0.570013 0.183139 0.638027 -0.20885
F_ F_ 0.636789 0.201822 0.600721 -0.20885
F_ F_ 0.680866 0.0672905 0.670615 -0.20885
F_ F_ 0.67543 0.149346 0.688647 -0.20885
F_ F_ 0.61069 0.108325 0.699467 -0.20885
Zn Zn 0.589273 0.582196 0.34854 0.83971
Zn Zn 0.661782 0.848449 0.0816508 0.83971
Zn Zn 0.901084 0.925908 0.156121 0.83971
Zn Zn 0.843185 0.653581 0.410665 0.83971
H_ H_ 0.66296 0.627886 0.301668 0.10394
H_ H_ 0.744957 0.591319 0.270841 0.10394
H_ H_ 0.697295 0.955544 0.278505 0.10394
H_ H_ 0.629452 0.482111 0.331079 0.10394
H_ H_ 0.0149261 0.601983 0.256818 0.10394
H_ H_ 0.977744 0.674353 0.204431 0.10394
H_ H_ 0.543234 0.775569 0.326616 0.10394
H_ H_ 0.576222 0.69889 0.377292 0.10394
H_ H_ 0.530584 0.947601 0.374886 0.10394
H_ H_ 0.983952 0.877402 0.383856 0.10394
H_ H_ 0.850635 0.981779 0.399936 0.10394
H_ H_ 0.597716 0.787622 0.132884 0.10394
H_ H_ 1.00074 0.765481 0.0996094 0.10394
H_ H_ 0.537031 0.786998 0.439795 0.10394
H_ H_ 0.602431 0.857003 0.993582 0.10394
H_ H_ 0.733985 0.756085 0.0948163 0.10394
H_ H_ 0.762488 0.706184 0.16407 0.10394
H_ H_ 0.699084 0.827277 0.268286 0.10394
H_ H_ 0.667785 0.876444 0.192245 0.10394
H_ H_ 0.720295 0.849034 0.436125 0.10394
H_ H_ 0.780607 0.838546 0.369327 0.10394
H_ H_ 0.893874 0.892096 0.478354 0.10394
H_ H_ 0.794115 0.900504 0.163511 0.10394
H_ H_ 0.721207 0.952773 0.193451 0.10394
H_ H_ 0.826016 0.537266 0.283049 0.10394
H_ H_ 0.890678 1.0122662 0.222366 0.10394
H_ H_ 0.520338 0.887942 0.19492 0.10394
H_ H_ 0.564515 0.801767 0.223281 0.10394
H_ H_ 0.902595 0.763047 0.23034 0.10394
H_ H_ 0.864938 0.837439 0.178295 0.10394
H_ H_ 0.95306 0.560144 0.107569 0.10394
H_ H_ 0.52477 0.621964 0.116061 0.10394
H_ H_ 0.635547 0.499551 0.0752486 0.10394
H_ H_ 0.936816 0.66773 0.388009 0.10394
H_ H_ 0.511544 0.695841 0.438851 0.10394
H_ H_ 0.915491 0.775404 0.0469789 0.10394
H_ H_ 0.844972 0.740692 0.495595 0.10394
H_ H_ 0.730561 0.682547 0.376591 0.10394
H_ H_ 0.68579 0.728152 0.30129 0.10394
H_ H_ 0.830599 0.735269 0.246274 0.10394
H_ H_ 0.873903 0.690602 0.323166 0.10394
H_ H_ 0.79459 0.603544 0.0436996 0.10394
H_ H_ 0.74033 0.591188 0.108689 0.10394
H_ H_ 0.607385 0.602296 0.00252967 0.10394
C_ C_ 0.672555 0.58643 0.297072 0.18167
C_ C_ 0.719562 0.564689 0.277705 -0.15533
C_ C_ 0.729418 0.511169 0.272038 0.02923
C_ C_ 0.690475 0.996345 0.285989 -0.15533
C_ C_ 0.654011 0.504196 0.312598 0.18167
C_ C_ 0.528386 0.638602 0.270097 0.18167
C_ C_ 0.0015899999999999803 0.684692 0.240574 -0.15533
C_ C_ 0.514827 0.730394 0.259872 0.02923
C_ C_ 0.540618 0.735965 0.309873 -0.15533
C_ C_ 0.558072 0.694137 0.338576 0.18167
C_ C_ 0.505306 0.546109 0.364081 0.69207
C_ C_ 0.9705 0.00498436 0.377664 0.02923
C_ C_ -0.005337000000000036 0.953247 0.380095 -0.15533
C_ C_ 0.963011 0.913857 0.377803 -0.15533
C_ C_ 0.909882 0.921429 0.387394 0.02923
C_ C_ 0.888857 0.974184 0.392208 -0.15533
C_ C_ 0.917313 0.0155414 0.382663 0.02923
C_ C_ 0.900541 0.569975 0.380855 0.69207
C_ C_ 0.903101 0.822953 0.376663 0.69661
C_ C_ 0.5814 0.791294 0.0920653 0.18167
C_ C_ 0.534224 0.772156 0.0735342 -0.15533
C_ C_ 0.513477 0.777568 0.0227519 0.02923
C_ C_ 0.543844 0.78936 0.481503 -0.15533
C_ C_ 0.582931 0.831745 0.0138336 0.18167
C_ C_ 0.725624 0.773695 0.131791 0.18167
C_ C_ 0.742851 0.743718 0.173907 -0.15533
C_ C_ 0.733679 0.762012 0.222232 0.02923
C_ C_ 0.706046 0.80966 0.230111 -0.15533
C_ C_ 0.689266 0.83919 0.187581 0.18167
C_ C_ 0.738517 0.873615 0.0416058 0.69207
C_ C_ 0.773229 0.871461 0.497106 0.02923
C_ C_ 0.758392 0.857564 0.444284 -0.15533
C_ C_ 0.788628 0.858482 0.405492 -0.15533
C_ C_ 0.837973 0.877503 0.417391 0.02923
C_ C_ 0.855914 0.885493 0.468612 -0.15533
C_ C_ 0.823604 0.881526 0.5086 0.02923
C_ C_ 0.847016 0.891675 0.0698416 0.69207
C_ C_ 0.852099 0.882462 0.321356 0.69661
C_ C_ 0.80061 0.936997 0.182937 0.18167
C_ C_ 0.757787 0.964813 0.203916 -0.15533
C_ C_ 0.76573 1.00514849 0.241516 0.02923
C_ C_ 0.821257 0.506423 0.256575 -0.15533
C_ C_ 0.854183 0.999279084 0.220294 0.18167
C_ C_ 0.984375 0.860972 0.194415 0.18167
C_ C_ 0.52259 0.81112 0.219051 -0.15533
C_ C_ 0.978828 0.7813 0.231115 0.02923
C_ C_ 0.926938 0.785901 0.215182 -0.15533
C_ C_ 0.904826 0.830669 0.190562 0.18167
C_ C_ 0.983821 0.959957 0.123929 0.69207
C_ C_ 0.520326 0.495457 0.122204 0.02923
C_ C_ 0.506536 0.547612 0.126215 -0.15533
C_ C_ 0.539838 0.582627 0.115325 -0.15533
C_ C_ 0.587714 0.565894 0.0985185 0.02923
C_ C_ 0.599277 0.513254 0.0899558 -0.15533
C_ C_ 0.568129 0.477737 0.103701 0.02923
C_ C_ 0.59209 0.926908 0.107691 0.69207
C_ C_ 0.612641 0.656267 0.111316 0.69661
C_ C_ 0.936171 0.686159 0.424075 0.18167
C_ C_ 0.980634 0.701744 0.450413 -0.15533
C_ C_ 0.97574 0.742658 0.49056 0.02923
C_ C_ 0.920789 0.752419 1.012912 -0.15533
C_ C_ 0.882991 0.728279 0.484677 0.18167
C_ C_ 0.751454 0.695191 0.347802 0.18167
C_ C_ 0.726819 0.719207 0.306796 -0.15533
C_ C_ 0.757083 0.735958 0.269652 0.02923
C_ C_ 0.808236 0.723995 0.275259 -0.15533
C_ C_ 0.832984 0.698326 0.319259 0.18167
C_ C_ 0.759818 0.620353 0.447806 0.69207
C_ C_ 0.729675 0.616747 0.984756 0.02923
C_ C_ 0.75317 0.602471 0.0329041 -0.15533
C_ C_ 0.723552 0.590154 0.0707449 -0.15533
C_ C_ 0.66853 0.594695 0.0625114 0.02923
C_ C_ 0.647497 0.600055 0.0133752 -0.15533
C_ C_ 0.677723 0.609772 0.974749 0.02923
C_ C_ 0.645917 0.607081 0.428081 0.69207
C_ C_ 0.659051 0.586499 0.158041 0.69661
C_ C_ 0.874935 0.877081 0.377722 -0.30787
C_ C_ 0.630739 0.600618 0.105519 -0.30787
N_ N_ 0.640085 0.555144 0.311481 -0.32189
N_ N_ 0.554225 0.645781 0.31621 -0.32189
N_ N_ 0.604941 0.816957 0.0605111 -0.32189
N_ N_ 0.691631 0.816034 0.139255 -0.32189
N_ N_ 0.846583 0.956666 0.189364 -0.32189
N_ N_ 0.933393 0.867463 0.183373 -0.32189
N_ N_ 0.890384 0.698236 0.44116 -0.32189
N_ N_ 0.802782 0.683566 0.35358 -0.32189
O_ O_ 0.0008200000000000429 0.588637 0.391244 -0.63271
O_ O_ 0.547674 0.530726 0.343213 -0.57982
O_ O_ 0.897083 0.595511 0.340073 -0.63271
O_ O_ 0.870834 0.587305 0.414156 -0.57982
O_ O_ 0.742408 0.898794 0.0867367 -0.63271
O_ O_ 0.700117 0.845004 0.0281893 -0.57982
O_ O_ 0.843295 0.849162 0.0929359 -0.63271
O_ O_ 0.874126 0.9265 0.0897634 -0.57982
O_ O_ 0.4887 0.905937 0.102001 -0.63271
O_ O_ 0.951243 0.969224 0.158325 -0.57982
O_ O_ 0.589564 0.901621 0.148833 -0.63271
O_ O_ 0.625294 0.910114 0.0740689 -0.57982
O_ O_ 0.762726 0.586956 0.409417 -0.63271
O_ O_ 0.794666 0.651354 0.456562 -0.57982
O_ O_ 0.651959 0.644463 0.39919 -0.63271
O_ O_ 0.610606 0.577697 0.413041 -0.57982
F_ F_ 0.93952 0.815219 0.420269 -0.20885
F_ F_ 0.9263 0.814298 0.329761 -0.20885
F_ F_ 0.872245 0.783494 0.373683 -0.20885
F_ F_ 0.808075 0.916402 0.317034 -0.20885
F_ F_ 0.835433 0.838107 0.298278 -0.20885
F_ F_ 0.883858 0.8978 0.287214 -0.20885
F_ F_ 0.583134 0.67062 0.0679158 -0.20885
F_ F_ 0.584508 0.671686 0.152038 -0.20885
F_ F_ 0.650917 0.687091 0.112852 -0.20885
F_ F_ 0.678433 0.536389 0.153223 -0.20885
F_ F_ 0.697857 0.619134 0.177218 -0.20885
F_ F_ 0.625679 0.585359 0.194778 -0.20885
Zn Zn 0.590651 0.582734 0.840215 0.83971
Zn Zn 0.658543 0.84208 0.578497 0.83971
Zn Zn 0.908949 0.918041 0.643585 0.83971
Zn Zn 0.838994 0.657988 0.914639 0.83971
H_ H_ 0.67611 0.633888 0.79721 0.10394
H_ H_ 0.752385 0.590829 0.763972 0.10394
H_ H_ 0.707012 0.941119 0.780817 0.10394
H_ H_ 0.624958 0.486226 0.80571 0.10394
H_ H_ 0.0318733 0.604566 0.749761 0.10394
H_ H_ 0.99564043 0.672994 0.696614 0.10394
H_ H_ 0.510923 0.759173 0.834645 0.10394
H_ H_ 0.573382 0.690318 0.869173 0.10394
H_ H_ 0.519201 0.931992 0.854854 0.10394
H_ H_ 0.978194 0.876339 0.884971 0.10394
H_ H_ 0.855711 0.993858 0.912009 0.10394
H_ H_ 0.57983 0.80336 0.625242 0.10394
H_ H_ -0.002291 0.771361 0.59076 0.10394
H_ H_ 0.520315 0.820937 0.954892 0.10394
H_ H_ 0.616758 0.818314 0.474867 0.10394
H_ H_ 0.735263 0.750999 0.590842 0.10394
H_ H_ 0.781929 0.715267 0.664995 0.10394
H_ H_ 0.721767 0.841874 0.761999 0.10394
H_ H_ 0.680214 0.880779 0.682679 0.10394
H_ H_ 0.718986 0.858922 0.940566 0.10394
H_ H_ 0.765348 0.884959 0.879011 0.10394
H_ H_ 0.892887 0.90491 0.986514 0.10394
H_ H_ 0.804938 0.893812 0.656215 0.10394
H_ H_ 0.73177 0.953484 0.672088 0.10394
H_ H_ 0.844866 0.532595 0.78482 0.10394
H_ H_ 0.897832 1.00272043 0.725179 0.10394
H_ H_ 0.517712 0.868136 0.692804 0.10394
H_ H_ 0.550367 0.781814 0.726713 0.10394
H_ H_ 0.917209 0.743986 0.70289 0.10394
H_ H_ 0.878452 0.823709 0.666236 0.10394
H_ H_ 0.963425 0.556248 0.611805 0.10394
H_ H_ 0.521526 0.622625 0.620995 0.10394
H_ H_ 0.647903 0.510678 0.588211 0.10394
H_ H_ 0.947256 0.670212 0.892458 0.10394
H_ H_ 0.515039 0.718693 0.939154 0.10394
H_ H_ 0.921391 0.777636 0.543331 0.10394
H_ H_ 0.849082 0.721013 1.00691004 0.10394
H_ H_ 0.736804 0.707643 0.875556 0.10394
H_ H_ 0.699759 0.751411 0.798113 0.10394
H_ H_ 0.850756 0.723426 0.749097 0.10394
H_ H_ 0.882857 0.689672 0.825498 0.10394
H_ H_ 0.791562 0.613577 0.548499 0.10394
H_ H_ 0.738131 0.61869 0.616116 0.10394
H_ H_ 0.61025 0.588556 0.509163 0.10394
C_ C_ 0.683091 0.591288 0.796094 0.18167
C_ C_ 0.727975 0.567569 0.778559 -0.15533
C_ C_ 0.737851 0.515375 0.770692 0.02923
C_ C_ 0.697296 0.979572 0.780813 -0.15533
C_ C_ 0.65645 0.507257 0.799578 0.18167
C_ C_ 0.529671 0.629584 0.760644 0.18167
C_ C_ 0.015623 0.683299 0.733824 -0.15533
C_ C_ 0.490006 0.718749 0.762734 0.02923
C_ C_ 0.517439 0.723907 0.811789 -0.15533
C_ C_ 0.551307 0.683997 0.832439 0.18167
C_ C_ 0.505648 0.545544 0.862668 0.69207
C_ C_ 0.97568 0.00322047 0.879666 0.02923
C_ C_ -0.005147000000000013 0.95242 0.88444 -0.15533
C_ C_ 0.963246 0.916942 0.892718 -0.15533
C_ C_ 0.91035 0.92967 0.894384 0.02923
C_ C_ 0.891957 0.981072 0.894858 -0.15533
C_ C_ 0.922 0.0178741 0.882906 0.02923
C_ C_ 0.892793 0.573489 0.881335 0.69207
C_ C_ 0.897001 0.832258 0.883528 0.69661
C_ C_ 0.568168 0.801403 0.585162 0.18167
C_ C_ 0.51973 0.784461 0.567363 -0.15533
C_ C_ 0.509005 0.775913 0.513716 0.02923
C_ C_ 0.537313 0.810639 0.992717 -0.15533
C_ C_ 0.58979 0.8069 0.501561 0.18167
C_ C_ 0.72748 0.768801 0.628039 0.18167
C_ C_ 0.752822 0.746427 0.671956 -0.15533
C_ C_ 0.750309 0.771578 0.72005 0.02923
C_ C_ 0.722379 0.819678 0.724462 -0.15533
C_ C_ 0.697559 0.840513 0.681003 0.18167
C_ C_ 0.73919 0.86733 0.536968 0.69207
C_ C_ 0.774238 0.879513 1.0031766 0.02923
C_ C_ 0.757925 0.870099 0.952663 -0.15533
C_ C_ 0.786468 0.882576 0.915722 -0.15533
C_ C_ 0.836359 0.895154 0.925771 0.02923
C_ C_ 0.855112 0.894526 0.976916 -0.15533
C_ C_ 0.823809 0.8915 0.0159932 0.02923
C_ C_ 0.848831 0.885914 0.562182 0.69207
C_ C_ 0.847515 0.895769 0.827529 0.69661
C_ C_ 0.811071 0.927355 0.678272 0.18167
C_ C_ 0.768784 0.957239 0.695156 -0.15533
C_ C_ 0.774975 -0.0061189999999999856 0.735535 0.02923
C_ C_ 0.832367 0.510442 0.75106 -0.15533
C_ C_ 0.863833 0.985784 0.721988 0.18167
C_ C_ 0.991237 0.860258 0.701689 0.18167
C_ C_ 0.509006 0.796017 0.722284 -0.15533
C_ C_ 0.987615 0.775032 0.726591 0.02923
C_ C_ 0.93825 0.777102 0.704672 -0.15533
C_ C_ 0.915898 0.821583 0.684282 0.18167
C_ C_ 0.9893 0.956199 0.619852 0.69207
C_ C_ 0.527967 0.494755 0.622315 0.02923
C_ C_ 0.512584 0.547377 0.63046 -0.15533
C_ C_ 0.540563 0.585561 0.617571 -0.15533
C_ C_ 0.591078 0.572886 0.606566 0.02923
C_ C_ 0.608393 0.520937 0.597101 -0.15533
C_ C_ 0.577531 0.482316 0.607045 0.02923
C_ C_ 0.602269 0.926101 0.608319 0.69207
C_ C_ 0.607304 0.669823 0.604818 0.69661
C_ C_ 0.938937 0.691922 0.927279 0.18167
C_ C_ 0.979159 0.709643 0.958307 -0.15533
C_ C_ 0.970838 0.74044 1.00099 0.02923
C_ C_ 0.926429 0.753184 0.508067 -0.15533
C_ C_ 0.882619 0.724934 0.986875 0.18167
C_ C_ 0.75845 0.708361 0.845043 0.18167
C_ C_ 0.73969 0.734779 0.800461 -0.15533
C_ C_ 0.773342 0.742873 0.765549 0.02923
C_ C_ 0.823612 0.71813 0.771125 -0.15533
C_ C_ 0.840431 0.694319 0.817112 0.18167
C_ C_ 0.759826 0.635605 0.947247 0.69207
C_ C_ 0.728918 0.609753 0.488765 0.02923
C_ C_ 0.750658 0.60953 0.539571 -0.15533
C_ C_ 0.719865 0.609344 0.578858 -0.15533
C_ C_ 0.668682 0.603756 0.570817 0.02923
C_ C_ 0.649343 0.592172 0.518852 -0.15533
C_ C_ 0.676144 0.602696 0.479289 0.02923
C_ C_ 0.650399 0.61243 0.921372 0.69207
C_ C_ 0.655962 0.610832 0.669006 0.69661
C_ C_ 0.872594 0.889987 0.882288 -0.30787
C_ C_ 0.630795 0.613869 0.612193 -0.30787
N_ N_ 0.647122 0.55955 0.805177 -0.32189
N_ N_ 0.553986 0.637792 0.808551 -0.32189
N_ N_ 0.603165 0.807907 0.552865 -0.32189
N_ N_ 0.699209 0.813535 0.633887 -0.32189
N_ N_ 0.857187 0.9439 0.686593 -0.32189
N_ N_ 0.943639 0.861658 0.681116 -0.32189
N_ N_ 0.894113 0.69195 0.947761 -0.32189
N_ N_ 0.807319 0.688399 0.853289 -0.32189
O_ O_ 1.00483081 0.587614 0.897278 -0.63271
O_ O_ 0.543987 0.531255 0.833689 -0.57982
O_ O_ 0.899566 0.602387 0.843828 -0.63271
O_ O_ 0.863588 0.594021 0.917116 -0.57982
O_ O_ 0.747384 0.88969 0.580995 -0.63271
O_ O_ 0.704512 0.83612 0.531847 -0.57982
O_ O_ 0.855856 0.844541 0.587454 -0.63271
O_ O_ 0.877445 0.923378 0.576615 -0.57982
O_ O_ 0.488106 0.91377 0.596225 -0.63271
O_ O_ 0.952874 0.965271 0.649959 -0.57982
O_ O_ 0.593294 0.894606 0.642711 -0.63271
O_ O_ 0.637983 0.910564 0.578142 -0.57982
O_ O_ 0.758184 0.611978 0.902242 -0.63271
O_ O_ 0.795801 0.660921 0.963967 -0.57982
O_ O_ 0.652561 0.653733 0.897229 -0.63271
O_ O_ 0.622837 0.577231 0.901889 -0.57982
F_ F_ 0.930727 0.831012 0.927649 -0.20885
F_ F_ 0.928354 0.815526 0.845824 -0.20885
F_ F_ 0.861103 0.794702 0.884525 -0.20885
F_ F_ 0.80955 0.936903 0.827155 -0.20885
F_ F_ 0.824549 0.854857 0.803022 -0.20885
F_ F_ 0.885958 0.906162 0.800018 -0.20885
F_ F_ 0.57523 0.668171 0.557196 -0.20885
F_ F_ 0.579615 0.694778 0.641779 -0.20885
F_ F_ 0.645123 0.702031 0.601483 -0.20885
F_ F_ 0.686799 0.565973 0.676013 -0.20885
F_ F_ 0.685154 0.648157 0.685124 -0.20885
F_ F_ 0.617862 0.612944 0.705017 -0.20885
_cell_length_a 26.508
_cell_length_b 26.37200000322088
_cell_length_c 26.311999743092066
_cell_angle_alpha 93.74100058972084
_cell_angle_beta 96.04100104955006
_cell_angle_gamma 83.6869992558723
_symmetry_space_group_name_H-M         'P 1'
_symmetry_Int_Tables_number            1
loop_
_symmetry_equiv_pos_as_xyz
   'x, y, z'
                         
loop_
_atom_site_label
_atom_site_type_symbol
_atom_site_fract_x 
_atom_site_fract_y
_atom_site_fract_z
_atom_site_charge
Zn Zn 0.0864912 0.0826828 0.350236 0.83971
Zn Zn 0.158183 0.35256 0.085614 0.83971
Zn Zn 0.410617 0.421124 0.157016 0.83971
Zn Zn 0.337734 0.159214 0.421884 0.83971
H_ H_ 0.157254 0.12874 0.288894 0.10394
H_ H_ 0.237656 0.0926221 0.256802 0.10394
H_ H_ 0.205152 0.448112 0.285086 0.10394
H_ H_ 0.12977 0.982697 0.331978 0.10394
H_ H_ 0.53831 0.10173 0.253147 0.10394
H_ H_ 0.499333 0.174442 0.203843 0.10394
H_ H_ 0.0491339 0.26789 0.334057 0.10394
H_ H_ 0.070227 0.195139 0.383873 0.10394
H_ H_ 0.0378824 0.442938 0.359818 0.10394
H_ H_ 0.481391 0.376743 0.390532 0.10394
H_ H_ 0.351981 0.489723 0.408806 0.10394
H_ H_ 0.0746713 0.304451 0.130024 0.10394
H_ H_ 0.504626 0.278548 0.10134 0.10394
H_ H_ 0.0442513 0.279634 0.450421 0.10394
H_ H_ 0.119104 0.326352 0.984984 0.10394
H_ H_ 0.223671 0.260167 0.0955989 0.10394
H_ H_ 0.273011 0.214392 0.166801 0.10394
H_ H_ 0.209962 0.325696 0.273642 0.10394
H_ H_ 0.161411 0.372804 0.199983 0.10394
H_ H_ 0.217624 0.398047 0.460704 0.10394
H_ H_ 0.267242 0.383943 0.39325 0.10394
H_ H_ 0.400347 0.405226 0.497869 0.10394
H_ H_ 0.311138 0.390731 0.170102 0.10394
H_ H_ 0.235923 0.44059 0.191822 0.10394
H_ H_ 0.33113 0.0505652 0.277089 0.10394
H_ H_ 0.404673 0.502924 0.236228 0.10394
H_ H_ 0.0226819 0.383383 0.181238 0.10394
H_ H_ 0.0655896 0.313823 0.245781 0.10394
H_ H_ 0.423925 0.239327 0.209464 0.10394
H_ H_ 0.37582 0.319965 0.180652 0.10394
H_ H_ 0.459238 0.051135 0.111293 0.10394
H_ H_ 0.0179796 0.126855 0.122769 0.10394
H_ H_ 0.139624 0.0125967 0.0924199 0.10394
H_ H_ 0.439604 0.165938 0.404294 0.10394
H_ H_ 0.0191731 0.189031 0.451377 0.10394
H_ H_ 0.428725 0.27288 0.0536159 0.10394
H_ H_ 0.336668 0.248805 0.500948 0.10394
H_ H_ 0.235745 0.168809 0.365891 0.10394
H_ H_ 0.194495 0.210162 0.28977 0.10394
H_ H_ 0.342986 0.257155 0.266079 0.10394
H_ H_ 0.380294 0.212722 0.342915 0.10394
H_ H_ 0.292122 0.113152 0.0587743 0.10394
H_ H_ 0.227241 0.120435 0.125739 0.10394
H_ H_ 0.11097 0.0892096 0.0120161 0.10394
C_ C_ 0.169161 0.0884555 0.289549 0.18167
C_ C_ 0.218093 0.068442 0.277132 -0.15533
C_ C_ 0.229941 0.0153284 0.275163 0.02923
C_ C_ 0.202584 0.489169 0.292042 -0.15533
C_ C_ 0.152627 0.00706808 0.313261 0.18167
C_ C_ 0.02913 0.134755 0.27117 0.18167
C_ C_ 0.519691 0.180097 0.241741 -0.15533
C_ C_ 0.0215324 0.227161 0.261608 0.02923
C_ C_ 0.0382431 0.232767 0.31455 -0.15533
C_ C_ 0.0518228 0.190243 0.344832 0.18167
C_ C_ 0.00482315 0.0449165 0.369134 0.69207
C_ C_ 0.471127 0.506697 0.378202 0.02923
C_ C_ 0.4939 0.456383 0.384964 -0.15533
C_ C_ 0.464178 0.416794 0.388981 -0.15533
C_ C_ 0.411903 0.427024 0.397284 0.02923
C_ C_ 0.392001 0.479373 0.400118 -0.15533
C_ C_ 0.421094 0.519268 0.389621 0.02923
C_ C_ 0.393851 0.0760767 0.386105 0.69207
C_ C_ 0.39962 0.329552 0.395919 0.69661
C_ C_ 0.0663145 0.303921 0.0901243 0.18167
C_ C_ 0.0244893 0.279021 0.0676725 -0.15533
C_ C_ 0.0161437 0.27035 0.0128431 0.02923
C_ C_ 0.0507801 0.286271 0.492434 -0.15533
C_ C_ 0.0904988 0.313465 0.00857867 0.18167
C_ C_ 0.221662 0.27361 0.135789 0.18167
C_ C_ 0.249077 0.248965 0.174668 -0.15533
C_ C_ 0.241341 0.264376 0.22626 0.02923
C_ C_ 0.213035 0.311433 0.233962 -0.15533
C_ C_ 0.187903 0.33898 0.193244 0.18167
C_ C_ 0.244384 0.364494 0.0464574 0.69207
C_ C_ 0.279687 0.378422 0.518437 0.02923
C_ C_ 0.25753 0.389905 0.47046 -0.15533
C_ C_ 0.286593 0.395865 0.429619 -0.15533
C_ C_ 0.340695 0.392888 0.438114 0.02923
C_ C_ 0.361216 0.398268 0.48904 -0.15533
C_ C_ 0.329998 0.388224 0.530207 0.02923
C_ C_ 0.350801 0.387372 0.0741721 0.69207
C_ C_ 0.348833 0.392667 0.339092 0.69661
C_ C_ 0.316187 0.422911 0.196608 0.18167
C_ C_ 0.272525 0.450829 0.210927 -0.15533
C_ C_ 0.27708 0.495941 0.240689 0.02923
C_ C_ 0.323321 0.0165426 0.250648 -0.15533
C_ C_ 0.367337 0.487011 0.230516 0.18167
C_ C_ 0.488743 0.363619 0.214543 0.18167
C_ C_ 0.0270586 0.311708 0.221015 -0.15533
C_ C_ 0.48936 0.27709 0.23874 0.02923
C_ C_ 0.44173 0.274853 0.210923 -0.15533
C_ C_ 0.416002 0.320154 0.192315 0.18167
C_ C_ 0.480562 0.460359 0.126772 0.69207
C_ C_ 0.0187263 0.997899 0.118302 0.02923
C_ C_ 0.000317339 0.049411 0.125009 -0.15533
C_ C_ 0.0309135 0.0867693 0.116455 -0.15533
C_ C_ 0.0831681 0.0724579 0.106334 0.02923
C_ C_ 0.100021 0.0207741 0.0991171 -0.15533
C_ C_ 0.0704389 0.98295 0.107061 0.02923
C_ C_ 0.0926264 0.428189 0.104442 0.69207
C_ C_ 0.0957261 0.165756 0.100273 0.69661
C_ C_ 0.433079 0.19 0.437571 0.18167
C_ C_ 0.475803 0.207997 0.467176 -0.15533
C_ C_ 0.470017 0.241572 0.508822 0.02923
C_ C_ 0.434073 0.244972 0.0231421 -0.15533
C_ C_ 0.377359 0.231683 0.495013 0.18167
C_ C_ 0.260196 0.184698 0.342542 0.18167
C_ C_ 0.236533 0.207002 0.298538 -0.15533
C_ C_ 0.266743 0.23354 0.27 0.02923
C_ C_ 0.320636 0.235048 0.286373 -0.15533
C_ C_ 0.342152 0.209246 0.32836 0.18167
C_ C_ 0.258761 0.120258 0.456485 0.69207
C_ C_ 0.230151 0.112095 0.995471 0.02923
C_ C_ 0.248467 0.115016 0.0479563 -0.15533
C_ C_ 0.214461 0.11804 0.0851519 -0.15533
C_ C_ 0.165277 0.10224 0.0724789 0.02923
C_ C_ 0.149471 0.0915581 0.0222376 -0.15533
C_ C_ 0.178778 0.101419 0.982296 0.02923
C_ C_ 0.150998 0.101946 0.428344 0.69207
C_ C_ 0.144124 0.118549 0.168432 0.69661
C_ C_ 0.375504 0.386611 0.394626 -0.30787
C_ C_ 0.122516 0.112473 0.110443 -0.30787
N_ N_ 0.139552 0.0577111 0.311276 -0.32189
N_ N_ 0.0510395 0.14101 0.320642 -0.32189
N_ N_ 0.100775 0.314453 0.0601012 -0.32189
N_ N_ 0.190265 0.318179 0.145096 -0.32189
N_ N_ 0.360519 0.443144 0.202006 -0.32189
N_ N_ 0.442438 0.360589 0.188015 -0.32189
N_ N_ 0.386099 0.199332 0.453611 -0.32189
N_ N_ 0.309856 0.189504 0.358578 -0.32189
O_ O_ 0.512272 0.0827852 0.411591 -0.63271
O_ O_ 0.0461337 0.032255 0.344978 -0.57982
O_ O_ 0.392694 0.103177 0.344596 -0.63271
O_ O_ 0.366378 0.0962677 0.423273 -0.57982
O_ O_ 0.249591 0.387356 0.091171 -0.63271
O_ O_ 0.203849 0.338448 0.0374645 -0.57982
O_ O_ 0.354275 0.344795 0.0971249 -0.63271
O_ O_ 0.379238 0.422589 0.0941887 -0.57982
O_ O_ 0.984749 0.413784 0.089591 -0.63271
O_ O_ 0.446782 0.472784 0.158433 -0.57982
O_ O_ 0.0917354 0.401763 0.143719 -0.63271
O_ O_ 0.133092 0.418799 0.0786599 -0.57982
O_ O_ 0.256924 0.0958735 0.410027 -0.63271
O_ O_ 0.286885 0.160405 0.464172 -0.57982
O_ O_ 0.154822 0.14116 0.399897 -0.63271
O_ O_ 0.116113 0.0717783 0.412297 -0.57982
F_ F_ 0.434728 0.326285 0.437897 -0.20885
F_ F_ 0.428392 0.315 0.355956 -0.20885
F_ F_ 0.363469 0.295301 0.396561 -0.20885
F_ F_ 0.315507 0.436257 0.335708 -0.20885
F_ F_ 0.320172 0.351867 0.322887 -0.20885
F_ F_ 0.381611 0.398458 0.303608 -0.20885
F_ F_ 0.0606512 0.165446 0.0551683 -0.20885
F_ F_ 0.0723081 0.189586 0.141989 -0.20885
F_ F_ 0.128662 0.198874 0.0923756 -0.20885
F_ F_ 0.179996 0.0757435 0.177657 -0.20885
F_ F_ 0.168758 0.164216 0.178933 -0.20885
F_ F_ 0.106345 0.120036 0.200545 -0.20885
Zn Zn 0.0881364 0.0843663 0.855678 0.83971
Zn Zn 0.160404 0.349579 0.591974 0.83971
Zn Zn 0.415763 0.416751 0.662422 0.83971
Zn Zn 0.34232 0.153311 0.920318 0.83971
H_ H_ 0.173518 0.12851 0.810707 0.10394
H_ H_ 0.245823 0.0969648 0.771947 0.10394
H_ H_ 0.207355 0.442527 0.796716 0.10394
H_ H_ 0.14095 0.982541 0.844591 0.10394
H_ H_ 0.537676 0.0953522 0.74792 0.10394
H_ H_ 0.498614 0.170742 0.702824 0.10394
H_ H_ 0.0362465 0.272286 0.83086 0.10394
H_ H_ 0.076631 0.200856 0.886386 0.10394
H_ H_ 0.0340183 0.450529 0.877349 0.10394
H_ H_ 0.480588 0.380669 0.869093 0.10394
H_ H_ 0.356193 0.488063 0.907984 0.10394
H_ H_ 0.072894 0.309889 0.639146 0.10394
H_ H_ 0.503166 0.277986 0.611229 0.10394
H_ H_ 0.0494662 0.285221 0.941655 0.10394
H_ H_ 0.118523 0.322218 0.487578 0.10394
H_ H_ 0.232241 0.251457 0.60135 0.10394
H_ H_ 0.27216 0.204554 0.677561 0.10394
H_ H_ 0.222432 0.336899 0.778023 0.10394
H_ H_ 0.174162 0.374286 0.700286 0.10394
H_ H_ 0.22682 0.344239 0.943999 0.10394
H_ H_ 0.278703 0.358439 0.880143 0.10394
H_ H_ 0.390889 0.416814 0.995888 0.10394
H_ H_ 0.311001 0.384953 0.678979 0.10394
H_ H_ 0.234361 0.439412 0.694475 0.10394
H_ H_ 0.333692 0.0475211 0.779825 0.10394
H_ H_ 0.403083 0.50349 0.738814 0.10394
H_ H_ 0.0168373 0.380407 0.70011 0.10394
H_ H_ 0.0607828 0.304228 0.740712 0.10394
H_ H_ 0.420271 0.242259 0.724998 0.10394
H_ H_ 0.375594 0.32454 0.692411 0.10394
H_ H_ 0.462676 0.0540087 0.617253 0.10394
H_ H_ 0.0172881 0.123757 0.606037 0.10394
H_ H_ 0.146866 0.0133353 0.598887 0.10394
H_ H_ 0.448189 0.158956 0.902102 0.10394
H_ H_ 0.0196617 0.191502 0.939995 0.10394
H_ H_ 0.413963 0.284892 0.553295 0.10394
H_ H_ 0.351421 0.242931 0.00316219 0.10394
H_ H_ 0.236912 0.184497 0.879536 0.10394
H_ H_ 0.193267 0.230311 0.800928 0.10394
H_ H_ 0.345009 0.245523 0.762763 0.10394
H_ H_ 0.383281 0.196977 0.837547 0.10394
H_ H_ 0.283765 0.11831 0.556948 0.10394
H_ H_ 0.230166 0.110856 0.626684 0.10394
H_ H_ 0.102352 0.0922282 0.512546 0.10394
C_ C_ 0.180459 0.0874403 0.806805 0.18167
C_ C_ 0.226048 0.0677644 0.789096 -0.15533
C_ C_ 0.23296 0.0148904 0.776039 0.02923
C_ C_ 0.200314 0.484803 0.800066 -0.15533
C_ C_ 0.161472 0.00662284 0.823906 0.18167
C_ C_ 0.0331925 0.133188 0.778889 0.18167
C_ C_ 0.518144 0.175039 0.74123 -0.15533
C_ C_ 0.016697 0.224211 0.764846 0.02923
C_ C_ 0.0369221 0.233802 0.816412 -0.15533
C_ C_ 0.0585923 0.19383 0.845975 0.18167
C_ C_ 0.0134287 0.0390265 0.872487 0.69207
C_ C_ 0.471021 0.508618 0.875831 0.02923
C_ C_ 0.493359 0.458225 0.877596 -0.15533
C_ C_ 0.463277 0.41751 0.878016 -0.15533
C_ C_ 0.411626 0.428746 0.89284 0.02923
C_ C_ 0.391311 0.47961 0.895021 -0.15533
C_ C_ 0.41872 0.519374 0.886125 0.02923
C_ C_ 0.393239 0.0697248 0.888127 0.69207
C_ C_ 0.402442 0.331122 0.890076 0.69661
C_ C_ 0.0664975 0.304699 0.596901 0.18167
C_ C_ 0.0258911 0.277404 0.576006 -0.15533
C_ C_ 0.0152112 0.270652 0.523882 0.02923
C_ C_ 0.0507154 0.288524 0.984341 -0.15533
C_ C_ 0.0917703 0.312932 0.512677 0.18167
C_ C_ 0.228697 0.270148 0.640905 0.18167
C_ C_ 0.251735 0.245122 0.681404 -0.15533
C_ C_ 0.246879 0.269237 0.73088 0.02923
C_ C_ 0.224959 0.317573 0.738957 -0.15533
C_ C_ 0.19929 0.339432 0.694254 0.18167
C_ C_ 0.244189 0.370559 0.557936 0.69207
C_ C_ 0.279921 0.367708 0.00678392 0.02923
C_ C_ 0.262744 0.359944 0.955428 -0.15533
C_ C_ 0.292807 0.367206 0.91834 -0.15533
C_ C_ 0.341145 0.387669 0.930398 0.02923
C_ C_ 0.356832 0.40027 0.983441 -0.15533
C_ C_ 0.325751 0.389941 0.0209223 0.02923
C_ C_ 0.3502 0.39072 0.582923 0.69207
C_ C_ 0.351523 0.389636 0.832379 0.69661
C_ C_ 0.316927 0.421617 0.698116 0.18167
C_ C_ 0.273773 0.452305 0.709354 -0.15533
C_ C_ 0.277793 0.490231 0.749066 0.02923
C_ C_ 0.327241 0.0138231 0.756458 -0.15533
C_ C_ 0.366994 0.487255 0.73201 0.18167
C_ C_ 0.495959 0.353421 0.711841 0.18167
C_ C_ 0.0204393 0.30782 0.727104 -0.15533
C_ C_ 0.489957 0.269483 0.741276 0.02923
C_ C_ 0.439329 0.273362 0.721962 -0.15533
C_ C_ 0.416561 0.318576 0.701137 0.18167
C_ C_ 0.493994 0.454739 0.634669 0.69207
C_ C_ 0.022653 0.9954 0.61154 0.02923
C_ C_ 0.00310455 0.0473799 0.613646 -0.15533
C_ C_ 0.0349756 0.0840757 0.609193 -0.15533
C_ C_ 0.0879275 0.0731997 0.606366 0.02923
C_ C_ 0.107463 0.0222076 0.602938 -0.15533
C_ C_ 0.0772983 0.981937 0.603845 0.02923
C_ C_ 0.109244 0.433736 0.618349 0.69207
C_ C_ 0.102822 0.168365 0.613752 0.69661
C_ C_ 0.441884 0.18005 0.937742 0.18167
C_ C_ 0.486168 0.198545 0.963381 -0.15533
C_ C_ 0.483056 0.231934 1.00643644 0.02923
C_ C_ 0.418016 0.257506 0.519356 -0.15533
C_ C_ 0.390849 0.227833 0.995204 0.18167
C_ C_ 0.258838 0.193856 0.850837 0.18167
C_ C_ 0.236722 0.223704 0.809701 -0.15533
C_ C_ 0.26743 0.24087 0.775875 0.02923
C_ C_ 0.318909 0.231047 0.785979 -0.15533
C_ C_ 0.33987 0.203571 0.828926 0.18167
C_ C_ 0.266003 0.115214 0.955616 0.69207
C_ C_ 0.22441 0.111389 0.494649 0.02923
C_ C_ 0.243299 0.117684 0.546553 -0.15533
C_ C_ 0.215537 0.108839 0.586035 -0.15533
C_ C_ 0.162998 0.107951 0.574706 0.02923
C_ C_ 0.142429 0.0976641 0.523264 -0.15533
C_ C_ 0.175505 0.0983626 0.481883 0.02923
C_ C_ 0.154786 0.103672 0.930651 0.69207
C_ C_ 0.147176 0.111485 0.672872 0.69661
C_ C_ 0.377474 0.38577 0.888384 -0.30787
C_ C_ 0.124589 0.113081 0.615638 -0.30787
N_ N_ 0.148302 0.0566893 0.822066 -0.32189
N_ N_ 0.0551269 0.143802 0.827079 -0.32189
N_ N_ 0.101266 0.315835 0.564524 -0.32189
N_ N_ 0.19755 0.312742 0.647138 -0.32189
N_ N_ 0.362264 0.44192 0.703916 -0.32189
N_ N_ 0.44497 0.356706 0.692297 -0.32189
N_ N_ 0.395478 0.193278 0.955413 -0.32189
N_ N_ 0.310329 0.18549 0.860147 -0.32189
O_ O_ 0.490816 0.0872856 0.865028 -0.63271
O_ O_ 0.0538669 0.0274904 0.850176 -0.57982
O_ O_ 0.38438 0.0969915 0.849286 -0.63271
O_ O_ 0.375381 0.0878282 0.93098 -0.57982
O_ O_ 0.253912 0.385058 0.604989 -0.63271
O_ O_ 0.205252 0.342262 0.547344 -0.57982
O_ O_ 0.362142 0.347757 0.605642 -0.63271
O_ O_ 0.377524 0.427169 0.599107 -0.57982
O_ O_ 0.998027 0.409468 0.603092 -0.63271
O_ O_ 0.458369 0.466368 0.664182 -0.57982
O_ O_ 0.0941887 0.403138 0.648901 -0.63271
O_ O_ 0.147542 0.417559 0.592303 -0.57982
O_ O_ 0.270868 0.0822527 0.915729 -0.63271
O_ O_ 0.292403 0.153186 0.959109 -0.57982
O_ O_ 0.156076 0.146089 0.906637 -0.63271
O_ O_ 0.118637 0.0745652 0.917079 -0.57982
F_ F_ 0.433453 0.32261 0.933522 -0.20885
F_ F_ 0.431974 0.317868 0.851637 -0.20885
F_ F_ 0.371375 0.292415 0.891916 -0.20885
F_ F_ 0.310343 0.425522 0.826908 -0.20885
F_ F_ 0.331552 0.344728 0.815543 -0.20885
F_ F_ 0.382137 0.397504 0.795772 -0.20885
F_ F_ 0.0750178 0.177691 0.567516 -0.20885
F_ F_ 0.0692904 0.184054 0.650854 -0.20885
F_ F_ 0.137936 0.203319 0.619608 -0.20885
F_ F_ 0.169368 0.0639508 0.681978 -0.20885
F_ F_ 0.185093 0.144257 0.688194 -0.20885
F_ F_ 0.11116 0.119624 0.707732 -0.20885
Zn Zn 0.0870441 0.591332 0.342847 0.83971
Zn Zn 0.152383 0.849048 0.0843904 0.83971
Zn Zn 0.406812 0.916698 0.15283 0.83971
Zn Zn 0.336806 0.654208 0.411639 0.83971
H_ H_ 0.169823 0.635323 0.295201 0.10394
H_ H_ 0.24283 0.600074 0.253286 0.10394
H_ H_ 0.212652 0.948579 0.30507 0.10394
H_ H_ 0.135616 0.492613 0.334889 0.10394
H_ H_ 0.530094 0.599857 0.248562 0.10394
H_ H_ 0.495218 0.673895 0.199796 0.10394
H_ H_ 0.037153 0.779079 0.325634 0.10394
H_ H_ 0.064753 0.704536 0.376 0.10394
H_ H_ 0.0354116 0.943964 0.378179 0.10394
H_ H_ 0.473888 0.882143 0.380809 0.10394
H_ H_ 0.346375 0.992733 0.396874 0.10394
H_ H_ 0.0700919 0.810647 0.1333 0.10394
H_ H_ 0.513175 0.75257 0.1006 0.10394
H_ H_ 0.0479455 0.777908 0.440481 0.10394
H_ H_ 0.103153 0.829657 0.980813 0.10394
H_ H_ 0.211168 0.746755 0.095693 0.10394
H_ H_ 0.244096 0.698811 0.169069 0.10394
H_ H_ 0.215455 0.836538 0.265709 0.10394
H_ H_ 0.165712 0.875712 0.196201 0.10394
H_ H_ 0.214975 0.871035 0.449584 0.10394
H_ H_ 0.261331 0.89101 0.38172 0.10394
H_ H_ 0.394391 0.90899 0.48934 0.10394
H_ H_ 0.312662 0.888611 0.172715 0.10394
H_ H_ 0.233005 0.933773 0.211874 0.10394
H_ H_ 0.331613 0.547949 0.277852 0.10394
H_ H_ 0.397661 0.0119685 0.223529 0.10394
H_ H_ 0.00671856 0.892688 0.187592 0.10394
H_ H_ 0.0477743 0.81591 0.237296 0.10394
H_ H_ 0.413278 0.755214 0.229198 0.10394
H_ H_ 0.377549 0.827766 0.186842 0.10394
H_ H_ 0.46632 0.561359 0.132661 0.10394
H_ H_ 0.0062428 0.623178 0.099817 0.10394
H_ H_ 0.138515 0.510497 0.0951162 0.10394
H_ H_ 0.438247 0.664752 0.389035 0.10394
H_ H_ 0.0162118 0.687776 0.439342 0.10394
H_ H_ 0.421133 0.762487 0.0595688 0.10394
H_ H_ 0.339497 0.736713 0.489513 0.10394
H_ H_ 0.225316 0.703488 0.387278 0.10394
H_ H_ 0.187033 0.738712 0.305744 0.10394
H_ H_ 0.334151 0.725354 0.248608 0.10394
H_ H_ 0.369093 0.673565 0.318104 0.10394
H_ H_ 0.283157 0.615782 0.0553778 0.10394
H_ H_ 0.226607 0.593883 0.120355 0.10394
H_ H_ 0.0974789 0.60039 0.00172711 0.10394
C_ C_ 0.181529 0.59491 0.297972 0.18167
C_ C_ 0.225186 0.573877 0.275005 -0.15533
C_ C_ 0.234142 0.519762 0.268164 0.02923
C_ C_ 0.197694 0.98448 0.296696 -0.15533
C_ C_ 0.157187 0.51243 0.312831 0.18167
C_ C_ 0.0262794 0.641106 0.267715 0.18167
C_ C_ 0.514989 0.68012 0.238939 -0.15533
C_ C_ 0.00355285 0.735025 0.260481 0.02923
C_ C_ 0.0337 0.740437 0.306881 -0.15533
C_ C_ 0.0540794 0.699855 0.334768 0.18167
C_ C_ 0.0117773 0.543876 0.370822 0.69207
C_ C_ 0.46962 0.00945835 0.377584 0.02923
C_ C_ 0.49114 0.95847 0.382334 -0.15533
C_ C_ 0.457434 0.919972 0.382693 -0.15533
C_ C_ 0.40679 0.93193 0.39262 0.02923
C_ C_ 0.387434 0.983674 0.393448 -0.15533
C_ C_ 0.418294 0.0222693 0.386231 0.02923
C_ C_ 0.394427 0.571659 0.386495 0.69207
C_ C_ 0.395015 0.832931 0.388602 0.69661
C_ C_ 0.0637499 0.805099 0.0910922 0.18167
C_ C_ 0.0232041 0.778928 0.0738716 -0.15533
C_ C_ 0.0105984 0.771312 0.0221907 0.02923
C_ C_ 0.0576964 0.778937 0.482698 -0.15533
C_ C_ 0.0806178 0.816116 0.00710228 0.18167
C_ C_ 0.209382 0.766313 0.133607 0.18167
C_ C_ 0.232355 0.73939 0.174964 -0.15533
C_ C_ 0.232955 0.764065 0.224419 0.02923
C_ C_ 0.210067 0.814579 0.230323 -0.15533
C_ C_ 0.184084 0.838653 0.18754 0.18167
C_ C_ 0.23669 0.867279 0.0507641 0.69207
C_ C_ 0.277378 0.880785 0.5108 0.02923
C_ C_ 0.25379 0.881687 0.457817 -0.15533
C_ C_ 0.279498 0.894844 0.419277 -0.15533
C_ C_ 0.333211 0.895836 0.428143 0.02923
C_ C_ 0.354063 0.903369 0.480449 -0.15533
C_ C_ 0.32839 0.890839 0.519892 0.02923
C_ C_ 0.34804 0.882536 0.0727591 0.69207
C_ C_ 0.346869 0.893596 0.327771 0.69661
C_ C_ 0.31406 0.922239 0.196835 0.18167
C_ C_ 0.272385 0.947611 0.218104 -0.15533
C_ C_ 0.277291 0.993017 0.249689 0.02923
C_ C_ 0.326162 0.512357 0.255074 -0.15533
C_ C_ 0.362199 0.994208 0.223233 0.18167
C_ C_ 0.498086 0.85565 0.196693 0.18167
C_ C_ 0.0087679 0.820631 0.223549 -0.15533
C_ C_ 0.492032 0.774326 0.228844 0.02923
C_ C_ 0.440141 0.779325 0.21646 -0.15533
C_ C_ 0.419065 0.822501 0.191509 0.18167
C_ C_ 0.479218 0.954681 0.116579 0.69207
C_ C_ 0.0140769 0.495156 0.113491 0.02923
C_ C_ -0.007203999999999988 0.546756 0.108829 -0.15533
C_ C_ 0.0253288 0.583982 0.101217 -0.15533
C_ C_ 0.0784104 0.571324 0.100568 0.02923
C_ C_ 0.0976403 0.520754 0.0997985 -0.15533
C_ C_ 0.0658774 0.4829 0.104922 0.02923
C_ C_ 0.0951947 0.929797 0.109004 0.69207
C_ C_ 0.0904266 0.668876 0.100335 0.69661
C_ C_ 0.433901 0.683142 0.427409 0.18167
C_ C_ 0.476541 0.703022 0.456035 -0.15533
C_ C_ 0.466677 0.745296 0.491291 0.02923
C_ C_ 0.425754 0.747799 0.0211623 -0.15533
C_ C_ 0.377794 0.727257 0.48111 0.18167
C_ C_ 0.248667 0.702518 0.35277 0.18167
C_ C_ 0.22626 0.727649 0.309394 -0.15533
C_ C_ 0.257784 0.738726 0.270711 0.02923
C_ C_ 0.309533 0.723418 0.277884 -0.15533
C_ C_ 0.329449 0.693441 0.317861 0.18167
C_ C_ 0.260272 0.619441 0.447298 0.69207
C_ C_ 0.223745 0.616644 0.991418 0.02923
C_ C_ 0.243991 0.609391 0.0422158 -0.15533
C_ C_ 0.210554 0.598369 0.0794009 -0.15533
C_ C_ 0.156609 0.601112 0.0654314 0.02923
C_ C_ 0.139768 0.601076 0.0130833 -0.15533
C_ C_ 0.173188 0.608128 0.976798 0.02923
C_ C_ 0.147089 0.611834 0.423617 0.69207
C_ C_ 0.137849 0.613248 0.162625 0.69661
C_ C_ 0.36831 0.889579 0.384733 -0.30787
C_ C_ 0.118273 0.611223 0.105489 -0.30787
N_ N_ 0.146294 0.563171 0.310159 -0.32189
N_ N_ 0.0561143 0.651523 0.312751 -0.32189
N_ N_ 0.0962033 0.817893 0.0592851 -0.32189
N_ N_ 0.185235 0.814381 0.140218 -0.32189
N_ N_ 0.355343 0.948359 0.194775 -0.32189
N_ N_ 0.447478 0.860741 0.185774 -0.32189
N_ N_ 0.386111 0.693804 0.4416 -0.32189
N_ N_ 0.300682 0.688994 0.357448 -0.32189
O_ O_ 0.505436 0.591724 0.386177 -0.63271
O_ O_ 0.0486197 0.538135 0.339853 -0.57982
O_ O_ 0.382369 0.592333 0.343426 -0.63271
O_ O_ 0.375704 0.595689 0.426787 -0.57982
O_ O_ 0.246851 0.878219 0.0986761 -0.63271
O_ O_ 0.194557 0.843572 0.0359421 -0.57982
O_ O_ 0.363143 0.837563 0.0885827 -0.63271
O_ O_ 0.368563 0.921926 0.0957811 -0.57982
O_ O_ 0.981868 0.917337 0.0965128 -0.63271
O_ O_ 0.446637 0.966643 0.149886 -0.57982
O_ O_ 0.088894 0.901783 0.145448 -0.63271
O_ O_ 0.128674 0.915066 0.0779313 -0.57982
O_ O_ 0.259916 0.591989 0.403914 -0.63271
O_ O_ 0.28775 0.657457 0.455859 -0.57982
O_ O_ 0.160074 0.641585 0.391465 -0.63271
O_ O_ 0.106824 0.590549 0.408304 -0.57982
F_ F_ 0.426208 0.831755 0.433283 -0.20885
F_ F_ 0.42326 0.811783 0.351381 -0.20885
F_ F_ 0.355294 0.800841 0.391816 -0.20885
F_ F_ 0.303608 0.929127 0.322807 -0.20885
F_ F_ 0.327229 0.848673 0.3097 -0.20885
F_ F_ 0.383059 0.902287 0.294843 -0.20885
F_ F_ 0.0582293 0.666481 0.0556668 -0.20885
F_ F_ 0.0611172 0.692202 0.140059 -0.20885
F_ F_ 0.128143 0.700317 0.0950989 -0.20885
F_ F_ 0.165811 0.568159 0.173357 -0.20885
F_ F_ 0.168242 0.653436 0.176361 -0.20885
F_ F_ 0.0999933 0.615143 0.191853 -0.20885
Zn Zn 0.0824074 0.582525 0.841998 0.83971
Zn Zn 0.164497 0.844318 0.584728 0.83971
Zn Zn 0.412583 0.917283 0.659514 0.83971
Zn Zn 0.342784 0.656314 0.920057 0.83971
H_ H_ 0.160945 0.627828 0.790519 0.10394
H_ H_ 0.24475 0.590582 0.764856 0.10394
H_ H_ 0.212223 0.94199 0.799377 0.10394
H_ H_ 0.12469 0.483709 0.824397 0.10394
H_ H_ 0.53395 0.591196 0.740184 0.10394
H_ H_ 0.47984 0.662304 0.700068 0.10394
H_ H_ 0.0321671 0.780001 0.821482 0.10394
H_ H_ 0.0657871 0.70449 0.879034 0.10394
H_ H_ 0.0317914 0.940549 0.871153 0.10394
H_ H_ 0.461159 0.871105 0.861653 0.10394
H_ H_ 0.340118 0.987846 0.893416 0.10394
H_ H_ 0.0791269 0.806921 0.625566 0.10394
H_ H_ 0.494122 0.771644 0.593747 0.10394
H_ H_ 0.0232412 0.797727 0.945651 0.10394
H_ H_ 0.121914 0.819772 0.477945 0.10394
H_ H_ 0.232067 0.753537 0.603152 0.10394
H_ H_ 0.257799 0.702182 0.676923 0.10394
H_ H_ 0.213733 0.831394 0.772665 0.10394
H_ H_ 0.176592 0.877021 0.695779 0.10394
H_ H_ 0.202853 0.888749 0.9545 0.10394
H_ H_ 0.254832 0.889315 0.882171 0.10394
H_ H_ 0.385585 0.909349 0.988323 0.10394
H_ H_ 0.310027 0.905732 0.660986 0.10394
H_ H_ 0.231862 0.941743 0.700279 0.10394
H_ H_ 0.329039 0.541411 0.783852 0.10394
H_ H_ 0.405301 0.00473222 0.734 0.10394
H_ H_ 0.0138016 0.889671 0.694646 0.10394
H_ H_ 0.054492 0.812669 0.734582 0.10394
H_ H_ 0.395798 0.753428 0.727426 0.10394
H_ H_ 0.367388 0.83613 0.690785 0.10394
H_ H_ 0.476317 0.559374 0.645308 0.10394
H_ H_ 0.0219382 0.622226 0.609678 0.10394
H_ H_ 0.147985 0.507516 0.585692 0.10394
H_ H_ 0.443932 0.673086 0.89109 0.10394
H_ H_ 0.0175789 0.68889 0.953008 0.10394
H_ H_ 0.412385 0.78764 0.532054 0.10394
H_ H_ 0.346451 0.730443 0.00723626 0.10394
H_ H_ 0.238107 0.711954 0.897397 0.10394
H_ H_ 0.191723 0.746338 0.815914 0.10394
H_ H_ 0.325975 0.717515 0.746325 0.10394
H_ H_ 0.375591 0.688289 0.826113 0.10394
H_ H_ 0.285046 0.620692 0.545689 0.10394
H_ H_ 0.234091 0.613292 0.61445 0.10394
H_ H_ 0.101681 0.598631 0.50706 0.10394
C_ C_ 0.174788 0.588552 0.798614 0.18167
C_ C_ 0.219384 0.565868 0.777714 -0.15533
C_ C_ 0.232807 0.514727 0.777631 0.02923
C_ C_ 0.201897 0.984235 0.796958 -0.15533
C_ C_ 0.153337 0.506205 0.814892 0.18167
C_ C_ 0.0346814 0.641303 0.763876 0.18167
C_ C_ 0.498682 0.670598 0.736978 -0.15533
C_ C_ 0.0131072 0.731354 0.755002 0.02923
C_ C_ 0.0311354 0.740419 0.807591 -0.15533
C_ C_ 0.0502664 0.697184 0.837931 0.18167
C_ C_ 0.00209597 0.547475 0.863873 0.69207
C_ C_ 0.464213 -0.000347317 0.866996 0.02923
C_ C_ 0.478122 0.945799 0.858434 -0.15533
C_ C_ 0.448231 0.909889 0.871815 -0.15533
C_ C_ 0.398995 0.924174 0.886067 0.02923
C_ C_ 0.380512 0.976358 0.888398 -0.15533
C_ C_ 0.414079 0.0144734 0.881737 0.02923
C_ C_ 0.396359 0.574435 0.887775 0.69207
C_ C_ 0.390428 0.826861 0.897272 0.69661
C_ C_ 0.0730149 0.799235 0.585168 0.18167
C_ C_ 0.0278424 0.778299 0.565744 -0.15533
C_ C_ 0.0198402 0.770045 0.513372 0.02923
C_ C_ 0.0359378 0.796217 0.988695 -0.15533
C_ C_ 0.0979222 0.806669 0.503597 0.18167
C_ C_ 0.220792 0.768672 0.640099 0.18167
C_ C_ 0.233215 0.737903 0.682488 -0.15533
C_ C_ 0.232538 0.762836 0.729929 0.02923
C_ C_ 0.208671 0.812065 0.736187 -0.15533
C_ C_ 0.186098 0.837578 0.69289 0.18167
C_ C_ 0.247234 0.867519 0.550387 0.69207
C_ C_ 0.267011 0.884049 0.011778 0.02923
C_ C_ 0.243256 0.889994 0.961672 -0.15533
C_ C_ 0.274501 0.886959 0.921917 -0.15533
C_ C_ 0.325179 0.894553 0.930262 0.02923
C_ C_ 0.346456 0.899719 0.981623 -0.15533
C_ C_ 0.320159 0.886537 0.0204593 0.02923
C_ C_ 0.36078 0.884201 0.570134 0.69207
C_ C_ 0.337782 0.87597 0.835613 0.69661
C_ C_ 0.313804 0.93401 0.687611 0.18167
C_ C_ 0.271918 0.954537 0.711642 -0.15533
C_ C_ 0.278111 0.994283 0.74849 0.02923
C_ C_ 0.324872 0.511201 0.756261 -0.15533
C_ C_ 0.368448 0.991687 0.730199 0.18167
C_ C_ 0.490217 0.844894 0.702474 0.18167
C_ C_ 0.0145325 0.817013 0.724687 -0.15533
C_ C_ 0.47341 0.764778 0.735684 0.02923
C_ C_ 0.42275 0.779406 0.721929 -0.15533
C_ C_ 0.405976 0.827607 0.704571 0.18167
C_ C_ 0.493701 0.952875 0.630272 0.69207
C_ C_ 0.0271521 0.493145 0.613035 0.02923
C_ C_ 1.00699948 0.544842 0.609614 -0.15533
C_ C_ 0.0376276 0.582355 0.605614 -0.15533
C_ C_ 0.0903196 0.569229 0.599165 0.02923
C_ C_ 0.107765 0.516784 0.589562 -0.15533
C_ C_ 0.0789017 0.480357 0.60422 0.02923
C_ C_ 0.0999546 0.928812 0.609257 0.69207
C_ C_ 0.107539 0.664333 0.613749 0.69661
C_ C_ 0.437686 0.694604 0.928437 0.18167
C_ C_ 0.479313 0.71633 0.955236 -0.15533
C_ C_ 0.473538 0.743683 0.0005900000000000905 0.02923
C_ C_ 0.418176 0.755019 0.505172 -0.15533
C_ C_ 0.383906 0.725985 0.994166 0.18167
C_ C_ 0.256023 0.707163 0.862253 0.18167
C_ C_ 0.232649 0.731575 0.819359 -0.15533
C_ C_ 0.25871 0.734852 0.775339 0.02923
C_ C_ 0.308096 0.710155 0.777143 -0.15533
C_ C_ 0.335143 0.69574 0.823802 0.18167
C_ C_ 0.260414 0.624521 0.954359 0.69207
C_ C_ 0.225818 0.611064 0.486087 0.02923
C_ C_ 0.245736 0.614195 0.536431 -0.15533
C_ C_ 0.215338 0.612497 0.576731 -0.15533
C_ C_ 0.163397 0.606288 0.566968 0.02923
C_ C_ 0.140966 0.604071 0.516398 -0.15533
C_ C_ 0.172871 0.60938 0.475813 0.02923
C_ C_ 0.149339 0.612573 0.92275 0.69207
C_ C_ 0.158638 0.597391 0.661977 0.69661
C_ C_ 0.36384 0.881968 0.888059 -0.30787
C_ C_ 0.129006 0.607518 0.609501 -0.30787
N_ N_ 0.141268 0.557104 0.811917 -0.32189
N_ N_ 0.052498 0.648075 0.815098 -0.32189
N_ N_ 0.109299 0.808374 0.55439 -0.32189
N_ N_ 0.188891 0.813637 0.644876 -0.32189
N_ N_ 0.360869 0.950718 0.69631 -0.32189
N_ N_ 0.439735 0.859291 0.694172 -0.32189
N_ N_ 0.391824 0.697812 0.948718 -0.32189
N_ N_ 0.308471 0.691534 0.863709 -0.32189
O_ O_ 0.507276 0.590318 0.887289 -0.63271
O_ O_ 0.0347812 0.540973 0.829185 -0.57982
O_ O_ 0.388232 0.597866 0.845748 -0.63271
O_ O_ 0.379019 0.597985 0.92861 -0.57982
O_ O_ 0.245044 0.899212 0.592152 -0.63271
O_ O_ 0.214565 0.831458 0.542382 -0.57982
O_ O_ 0.355977 0.845167 0.598962 -0.63271
O_ O_ 0.379529 0.924033 0.593203 -0.57982
O_ O_ 0.990445 0.91408 0.590038 -0.63271
O_ O_ 0.458059 0.966152 0.661436 -0.57982
O_ O_ 0.0909882 0.901663 0.647683 -0.63271
O_ O_ 0.137948 0.910441 0.579986 -0.57982
O_ O_ 0.255143 0.599299 0.909848 -0.63271
O_ O_ 0.296693 0.653405 0.966259 -0.57982
O_ O_ 0.15041 0.653105 0.896682 -0.63271
O_ O_ 0.114447 0.581836 0.905087 -0.57982
F_ F_ 0.431257 0.831725 0.931897 -0.20885
F_ F_ 0.409459 0.799245 0.85565 -0.20885
F_ F_ 0.360624 0.795713 0.917084 -0.20885
F_ F_ 0.305499 0.918291 0.820873 -0.20885
F_ F_ 0.308288 0.835015 0.830036 -0.20885
F_ F_ 0.371107 0.872544 0.800477 -0.20885
F_ F_ 0.0721507 0.675494 0.572593 -0.20885
F_ F_ 0.0892638 0.681695 0.661323 -0.20885
F_ F_ 0.141483 0.70101 0.615436 -0.20885
F_ F_ 0.186705 0.5492 0.658631 -0.20885
F_ F_ 0.187693 0.637031 0.68146 -0.20885
F_ F_ 0.121591 0.594017 0.695191 -0.20885
Zn Zn 0.581035 0.0870596 0.351315 0.83971
Zn Zn 0.664168 0.34453 0.0850067 0.83971
Zn Zn 0.908146 0.415651 0.160335 0.83971
Zn Zn 0.838347 0.153553 0.419859 0.83971
H_ H_ 0.661521 0.140648 0.313264 0.10394
H_ H_ 0.742802 0.105225 0.280591 0.10394
H_ H_ 0.697815 0.441062 0.279621 0.10394
H_ H_ 0.625415 0.990755 0.324316 0.10394
H_ H_ 0.0269901 0.0971473 0.255003 0.10394
H_ H_ 0.997307 0.170719 0.201033 0.10394
H_ H_ 0.530819 0.271553 0.343301 0.10394
H_ H_ 0.559634 0.196323 0.38729 0.10394
H_ H_ 0.533543 0.444899 0.379355 0.10394
H_ H_ 0.989969 0.375815 0.383495 0.10394
H_ H_ 0.854699 0.483129 0.382019 0.10394
H_ H_ 0.586197 0.307099 0.135952 0.10394
H_ H_ 1.00091 0.260408 0.0893266 0.10394
H_ H_ 0.529112 0.286806 0.451842 0.10394
H_ H_ 0.622331 0.318001 0.981657 0.10394
H_ H_ 0.725553 0.24816 0.103725 0.10394
H_ H_ 0.761841 0.201437 0.178482 0.10394
H_ H_ 0.698505 0.325686 0.274995 0.10394
H_ H_ 0.671346 0.372299 0.196355 0.10394
H_ H_ 0.723372 0.36209 0.436974 0.10394
H_ H_ 0.775799 0.374595 0.371312 0.10394
H_ H_ 0.900082 0.403849 0.486002 0.10394
H_ H_ 0.801092 0.391207 0.16458 0.10394
H_ H_ 0.727305 0.435401 0.196731 0.10394
H_ H_ 0.819863 0.0591552 0.270136 0.10394
H_ H_ 0.897875 0.495147 0.242548 0.10394
H_ H_ 0.504215 0.397823 0.222324 0.10394
H_ H_ 0.554025 0.322715 0.253111 0.10394
H_ H_ 0.921569 0.24977 0.232016 0.10394
H_ H_ 0.878711 0.322688 0.191124 0.10394
H_ H_ 0.961798 0.0601737 0.134652 0.10394
H_ H_ 0.507212 0.115427 0.0936557 0.10394
H_ H_ 0.637495 0.00328693 0.0792775 0.10394
H_ H_ 0.944809 0.160319 0.395998 0.10394
H_ H_ 0.512807 0.194021 0.458583 0.10394
H_ H_ 0.916795 0.274854 0.0401586 0.10394
H_ H_ 0.846158 0.228653 0.504463 0.10394
H_ H_ 0.732589 0.193541 0.391138 0.10394
H_ H_ 0.690781 0.240003 0.3177 0.10394
H_ H_ 0.833815 0.227948 0.257371 0.10394
H_ H_ 0.873634 0.196909 0.333169 0.10394
H_ H_ 0.778573 0.12579 0.0548092 0.10394
H_ H_ 0.722453 0.120568 0.117772 0.10394
H_ H_ 0.599862 0.100928 0.00616638 0.10394
C_ C_ 0.670002 0.098854 0.306482 0.18167
C_ C_ 0.715058 0.0793686 0.28563 -0.15533
C_ C_ 0.723704 0.0274281 0.270619 0.02923
C_ C_ 0.692515 0.480899 0.286055 -0.15533
C_ C_ 0.646364 0.016456 0.306649 0.18167
C_ C_ 0.539676 0.138293 0.269224 0.18167
C_ C_ 0.0119224 0.17768 0.241597 -0.15533
C_ C_ 0.517259 0.231945 0.264685 0.02923
C_ C_ 0.537378 0.236299 0.318732 -0.15533
C_ C_ 0.551913 0.192112 0.344673 0.18167
C_ C_ 0.504762 0.0484688 0.37378 0.69207
C_ C_ 0.979091 0.500792 0.374901 0.02923
C_ C_ 1.00113097 0.45196 0.378939 -0.15533
C_ C_ 0.97142 0.414029 0.383867 -0.15533
C_ C_ 0.91954 0.424588 0.389922 0.02923
C_ C_ 0.897625 0.475406 0.38976 -0.15533
C_ C_ 0.926069 0.515567 0.379737 0.02923
C_ C_ 0.888701 0.0670952 0.380963 0.69207
C_ C_ 0.912863 0.328897 0.39189 0.69661
C_ C_ 0.578561 0.301003 0.0941467 0.18167
C_ C_ 0.534868 0.27851 0.0772167 -0.15533
C_ C_ 0.525319 0.264108 0.0259605 0.02923
C_ C_ 0.536865 0.295819 0.492692 -0.15533
C_ C_ 0.59839 0.304852 0.0107488 0.18167
C_ C_ 0.716748 0.263646 0.14011 0.18167
C_ C_ 0.738192 0.237831 0.183981 -0.15533
C_ C_ 0.732737 0.260115 0.232353 0.02923
C_ C_ 0.706632 0.31058 0.237672 -0.15533
C_ C_ 0.691762 0.335547 0.193106 0.18167
C_ C_ 0.74294 0.372371 0.0452535 0.69207
C_ C_ 0.780687 0.370214 0.500467 0.02923
C_ C_ 0.762379 0.368212 0.447033 -0.15533
C_ C_ 0.794201 0.374457 0.41 -0.15533
C_ C_ 0.844462 0.387862 0.42096 0.02923
C_ C_ 0.859443 0.397724 0.473909 -0.15533
C_ C_ 0.830954 0.386326 0.512882 0.02923
C_ C_ 0.853687 0.382014 0.0756877 0.69207
C_ C_ 0.860302 0.376063 0.326546 0.69661
C_ C_ 0.806854 0.421472 0.19011 0.18167
C_ C_ 0.765268 0.444626 0.212043 -0.15533
C_ C_ 0.772214 0.486972 0.24615 0.02923
C_ C_ 0.813655 0.0236696 0.247204 -0.15533
C_ C_ 0.861583 0.479481 0.235087 0.18167
C_ C_ 1.00063 0.352387 0.192388 0.18167
C_ C_ 0.513782 0.322834 0.240862 -0.15533
C_ C_ 0.996622 0.272266 0.232416 0.02923
C_ C_ 0.944554 0.28013 0.226499 -0.15533
C_ C_ 0.920776 0.320646 0.199164 0.18167
C_ C_ 0.979854 0.456787 0.118256 0.69207
C_ C_ 0.516598 0.990572 0.108459 0.02923
C_ C_ 0.497029 0.0410679 0.106373 -0.15533
C_ C_ 0.527417 0.0796089 0.101531 -0.15533
C_ C_ 0.581796 0.0669211 0.0990859 0.02923
C_ C_ 0.600116 0.0155929 0.0953293 -0.15533
C_ C_ 0.568947 0.977842 0.103898 0.02923
C_ C_ 0.594545 0.423369 0.110457 0.69207
C_ C_ 0.596173 0.164685 0.103099 0.69661
C_ C_ 0.939587 0.185746 0.428175 0.18167
C_ C_ 0.980734 0.206841 0.456668 -0.15533
C_ C_ 0.972501 0.242751 0.498653 0.02923
C_ C_ 0.923081 0.251719 0.00722021 -0.15533
C_ C_ 0.883993 0.22499 0.488317 0.18167
C_ C_ 0.752639 0.197391 0.358773 0.18167
C_ C_ 0.727198 0.219454 0.316309 -0.15533
C_ C_ 0.756695 0.233172 0.277304 0.02923
C_ C_ 0.808797 0.214557 0.281704 -0.15533
C_ C_ 0.832633 0.200051 0.328327 0.18167
C_ C_ 0.760768 0.116475 0.453838 0.69207
C_ C_ 0.72018 0.117774 0.989913 0.02923
C_ C_ 0.738722 0.121414 0.0431908 -0.15533
C_ C_ 0.707405 0.115771 0.0802425 -0.15533
C_ C_ 0.656236 0.102777 0.0659222 0.02923
C_ C_ 0.639549 0.102616 0.015722 -0.15533
C_ C_ 0.671109 0.106855 0.977604 0.02923
C_ C_ 0.649704 0.101327 0.42905 0.69207
C_ C_ 0.64344 0.104203 0.162317 0.69661
C_ C_ 0.883358 0.379997 0.383268 -0.30787
C_ C_ 0.620295 0.107993 0.106243 -0.30787
N_ N_ 0.635578 0.0670965 0.315979 -0.32189
N_ N_ 0.557127 0.146764 0.318222 -0.32189
N_ N_ 0.6107 0.311709 0.0614851 -0.32189
N_ N_ 0.697508 0.313197 0.146563 -0.32189
N_ N_ 0.855164 0.437207 0.20212 -0.32189
N_ N_ 0.949353 0.355379 0.181903 -0.32189
N_ N_ 0.894141 0.19187 0.448525 -0.32189
N_ N_ 0.80498 0.186141 0.361313 -0.32189
O_ O_ 0.00228127 0.0886578 0.395229 -0.63271
O_ O_ 0.535975 0.0441999 0.337565 -0.57982
O_ O_ 0.894372 0.0960362 0.343278 -0.63271
O_ O_ 0.866959 0.0881076 0.420902 -0.57982
O_ O_ 0.749652 0.390133 0.0926296 -0.63271
O_ O_ 0.70475 0.344206 0.0332512 -0.57982
O_ O_ 0.862561 0.339085 0.100877 -0.63271
O_ O_ 0.877367 0.419663 0.0928415 -0.57982
O_ O_ 0.483615 0.414945 0.104461 -0.63271
O_ O_ 0.953792 0.460418 0.158068 -0.57982
O_ O_ 0.585743 0.395936 0.146983 -0.63271
O_ O_ 0.635125 0.408509 0.0867073 -0.57982
O_ O_ 0.751415 0.102877 0.404791 -0.63271
O_ O_ 0.791494 0.151476 0.464009 -0.57982
O_ O_ 0.647099 0.145602 0.408806 -0.63271
O_ O_ 0.616369 0.0705648 0.411565 -0.57982
F_ F_ 0.940675 0.329667 0.43812 -0.20885
F_ F_ 0.943645 0.310554 0.355517 -0.20885
F_ F_ 0.88085 0.291121 0.390722 -0.20885
F_ F_ 0.825828 0.417381 0.310572 -0.20885
F_ F_ 0.840052 0.331661 0.313155 -0.20885
F_ F_ 0.902522 0.380009 0.297787 -0.20885
F_ F_ 0.563158 0.172601 0.0624885 -0.20885
F_ F_ 0.569325 0.182979 0.143678 -0.20885
F_ F_ 0.631908 0.198092 0.101366 -0.20885
F_ F_ 0.680771 0.0640612 0.168489 -0.20885
F_ F_ 0.664236 0.146273 0.181087 -0.20885
F_ F_ 0.611174 0.1005 0.19937 -0.20885
Zn Zn 0.585359 0.0769882 0.846948 0.83971
Zn Zn 0.663345 0.345675 0.578916 0.83971
Zn Zn 0.917478 0.412309 0.654109 0.83971
Zn Zn 0.839133 0.153072 0.912406 0.83971
H_ H_ 0.664454 0.127545 0.808168 0.10394
H_ H_ 0.742966 0.0964846 0.768498 0.10394
H_ H_ 0.706277 0.444537 0.768242 0.10394
H_ H_ 0.626156 0.973492 0.809713 0.10394
H_ H_ 0.0374569 0.0940418 0.763885 0.10394
H_ H_ 1.00726 0.166079 0.704225 0.10394
H_ H_ 0.522544 0.264784 0.842417 0.10394
H_ H_ 0.566171 0.189419 0.885034 0.10394
H_ H_ 0.530493 0.450537 0.867105 0.10394
H_ H_ 0.9849 0.383747 0.886347 0.10394
H_ H_ 0.850753 0.491514 0.89795 0.10394
H_ H_ 0.585276 0.311398 0.63521 0.10394
H_ H_ -0.003039000000000014 0.267585 0.599126 0.10394
H_ H_ 0.546746 0.276035 0.949899 0.10394
H_ H_ 0.604295 0.330735 0.480535 0.10394
H_ H_ 0.724636 0.24435 0.586811 0.10394
H_ H_ 0.76008 0.194307 0.661686 0.10394
H_ H_ 0.726052 0.328448 0.758596 0.10394
H_ H_ 0.691744 0.376062 0.683098 0.10394
H_ H_ 0.726502 0.350681 0.945322 0.10394
H_ H_ 0.777401 0.369039 0.881397 0.10394
H_ H_ 0.899574 0.406467 0.992368 0.10394
H_ H_ 0.809105 0.39898 0.653736 0.10394
H_ H_ 0.736559 0.443221 0.692367 0.10394
H_ H_ 0.83289 0.0321193 0.78265 0.10394
H_ H_ 0.907897 0.494313 0.735125 0.10394
H_ H_ 0.5173 0.384056 0.707059 0.10394
H_ H_ 0.556963 0.308218 0.744698 0.10394
H_ H_ 0.9155 0.247171 0.730043 0.10394
H_ H_ 0.878788 0.318511 0.67671 0.10394
H_ H_ 0.963305 0.0562049 0.617249 0.10394
H_ H_ 0.516442 0.119962 0.611586 0.10394
H_ H_ 0.646036 0.00910181 0.593708 0.10394
H_ H_ 0.943475 0.154001 0.892143 0.10394
H_ H_ 0.524286 0.184067 0.952022 0.10394
H_ H_ 0.913173 0.278355 0.547511 0.10394
H_ H_ 0.842606 0.236531 -0.006812999999999958 0.10394
H_ H_ 0.732468 0.186201 0.870184 0.10394
H_ H_ 0.6922 0.227586 0.788841 0.10394
H_ H_ 0.838223 0.205525 0.732354 0.10394
H_ H_ 0.880137 0.185211 0.815872 0.10394
H_ H_ 0.784179 0.11943 0.552877 0.10394
H_ H_ 0.725971 0.130049 0.617558 0.10394
H_ H_ 0.606833 0.0803291 0.506535 0.10394
C_ C_ 0.673444 0.0861656 0.799585 0.18167
C_ C_ 0.719895 0.0683717 0.778874 -0.15533
C_ C_ 0.730876 0.0140769 0.76657 0.02923
C_ C_ 0.69954 0.485099 0.777905 -0.15533
C_ C_ 0.654031 0.00045000000000006146 0.802727 0.18167
C_ C_ 0.539285 0.133827 0.767708 0.18167
C_ C_ 0.0143043 0.173322 0.746836 -0.15533
C_ C_ 0.515578 0.223558 0.768648 0.02923
C_ C_ 0.526078 0.227688 0.820822 -0.15533
C_ C_ 0.550871 0.185623 0.84573 0.18167
C_ C_ 0.504283 0.036613 0.863757 0.69207
C_ C_ 0.967743 0.508429 0.8703 0.02923
C_ C_ 0.993016 0.458244 0.875417 -0.15533
C_ C_ 0.965997 0.420563 0.884514 -0.15533
C_ C_ 0.912154 0.429635 0.890251 0.02923
C_ C_ 0.890231 0.480915 0.892276 -0.15533
C_ C_ 0.918684 0.520695 0.88523 0.02923
C_ C_ 0.896719 0.0707922 0.877091 0.69207
C_ C_ 0.905071 0.331895 0.887553 0.69661
C_ C_ 0.570458 0.30626 0.594383 0.18167
C_ C_ 0.524123 0.285972 0.579874 -0.15533
C_ C_ 0.509518 0.276441 0.52662 0.02923
C_ C_ 0.555203 0.281157 0.991768 -0.15533
C_ C_ 0.582945 0.317506 0.50798 0.18167
C_ C_ 0.721043 0.263805 0.623871 0.18167
C_ C_ 0.748928 0.235956 0.66483 -0.15533
C_ C_ 0.747652 0.25797 0.712755 0.02923
C_ C_ 0.727837 0.309118 0.720904 -0.15533
C_ C_ 0.71137 0.337514 0.678852 0.18167
C_ C_ 0.744476 0.369272 0.539716 0.69207
C_ C_ 0.78132 0.374629 1.00780778 0.02923
C_ C_ 0.764255 0.364959 0.958452 -0.15533
C_ C_ 0.791543 0.374617 0.919791 -0.15533
C_ C_ 0.840531 0.394523 0.93189 0.02923
C_ C_ 0.860549 0.397228 0.982933 -0.15533
C_ C_ 0.833775 0.381072 0.021253 0.02923
C_ C_ 0.858105 0.379963 0.566961 0.69207
C_ C_ 0.850086 0.385897 0.83117 0.69661
C_ C_ 0.81435 0.435656 0.67405 0.18167
C_ C_ 0.775121 0.453499 0.703999 -0.15533
C_ C_ 0.781533 0.494774 0.740047 0.02923
C_ C_ 0.825912 0.00377503 0.754004 -0.15533
C_ C_ 0.871091 0.482771 0.724616 0.18167
C_ C_ 0.996023 0.352632 0.707919 0.18167
C_ C_ 0.518272 0.311119 0.736 -0.15533
C_ C_ 0.993024 0.268051 0.734342 0.02923
C_ C_ 0.941081 0.272141 0.71886 -0.15533
C_ C_ 0.918676 0.315236 0.691809 0.18167
C_ C_ 0.992627 0.455168 0.623044 0.69207
C_ C_ 0.526497 0.991096 0.61829 0.02923
C_ C_ 0.503739 0.0423478 0.615585 -0.15533
C_ C_ 0.533882 0.0819389 0.608575 -0.15533
C_ C_ 0.586764 0.0701662 0.603436 0.02923
C_ C_ 0.606093 0.0182437 0.598276 -0.15533
C_ C_ 0.578004 0.978442 0.608165 0.02923
C_ C_ 0.603177 0.429205 0.607534 0.69207
C_ C_ 0.602963 0.164453 0.600594 0.69661
C_ C_ 0.93811 0.182985 0.924695 0.18167
C_ C_ 0.981601 0.204787 0.951232 -0.15533
C_ C_ 0.973746 0.241191 -0.009275000000000033 0.02923
C_ C_ 0.921994 0.251389 0.51461 -0.15533
C_ C_ 0.882067 0.227025 0.982943 0.18167
C_ C_ 0.755509 0.193525 0.840609 0.18167
C_ C_ 0.734666 0.215655 0.794397 -0.15533
C_ C_ 0.766679 0.230022 0.758313 0.02923
C_ C_ 0.818166 0.211691 0.76604 -0.15533
C_ C_ 0.83877 0.189826 0.810311 0.18167
C_ C_ 0.756218 0.121788 0.950306 0.69207
C_ C_ 0.727612 0.102394 0.492625 0.02923
C_ C_ 0.747511 0.104876 0.543578 -0.15533
C_ C_ 0.714279 0.110942 0.581838 -0.15533
C_ C_ 0.664464 0.0990686 0.57186 0.02923
C_ C_ 0.647135 0.0884974 0.518842 -0.15533
C_ C_ 0.675716 0.0964006 0.480828 0.02923
C_ C_ 0.648395 0.108958 0.92695 0.69207
C_ C_ 0.648526 0.109874 0.665917 0.69661
C_ C_ 0.876938 0.388266 0.886769 -0.30787
C_ C_ 0.624239 0.112165 0.609371 -0.30787
N_ N_ 0.642157 0.0532035 0.81226 -0.32189
N_ N_ 0.55946 0.139094 0.81814 -0.32189
N_ N_ 0.601568 0.316275 0.559526 -0.32189
N_ N_ 0.706527 0.313282 0.630889 -0.32189
N_ N_ 0.862576 0.448398 0.686152 -0.32189
N_ N_ 0.947371 0.353374 0.687008 -0.32189
N_ N_ 0.890719 0.195861 0.940769 -0.32189
N_ N_ 0.808622 0.179557 0.84718 -0.32189
O_ O_ 0.00945411 0.0857419 0.896759 -0.63271
O_ O_ 0.547062 0.0241964 0.846617 -0.57982
O_ O_ 0.889722 0.0921157 0.832454 -0.63271
O_ O_ 0.868882 0.0878711 0.913866 -0.57982
O_ O_ 0.747077 0.401313 0.581111 -0.63271
O_ O_ 0.705286 0.343547 0.528621 -0.57982
O_ O_ 0.857625 0.336721 0.588528 -0.63271
O_ O_ 0.891149 0.410472 0.585519 -0.57982
O_ O_ 0.497664 0.408219 0.612774 -0.63271
O_ O_ 0.958271 0.462698 0.656289 -0.57982
O_ O_ 0.602916 0.402347 0.647793 -0.63271
O_ O_ 0.63771 0.414163 0.57626 -0.57982
O_ O_ 0.747186 0.100515 0.903358 -0.63271
O_ O_ 0.791446 0.153554 0.959159 -0.57982
O_ O_ 0.65185 0.14699 0.896061 -0.63271
O_ O_ 0.61161 0.0803016 0.913319 -0.57982
F_ F_ 0.934836 0.328172 0.933687 -0.20885
F_ F_ 0.935645 0.319108 0.848445 -0.20885
F_ F_ 0.872809 0.292164 0.886301 -0.20885
F_ F_ 0.809749 0.425423 0.825107 -0.20885
F_ F_ 0.829333 0.34169 0.816312 -0.20885
F_ F_ 0.88296 0.390247 0.792649 -0.20885
F_ F_ 0.571509 0.17075 0.554984 -0.20885
F_ F_ 0.570013 0.183139 0.638027 -0.20885
F_ F_ 0.636789 0.201822 0.600721 -0.20885
F_ F_ 0.680866 0.0672905 0.670615 -0.20885
F_ F_ 0.67543 0.149346 0.688647 -0.20885
F_ F_ 0.61069 0.108325 0.699467 -0.20885
Zn Zn 0.589273 0.582196 0.34854 0.83971
Zn Zn 0.661782 0.848449 0.0816508 0.83971
Zn Zn 0.901084 0.925908 0.156121 0.83971
Zn Zn 0.843185 0.653581 0.410665 0.83971
H_ H_ 0.66296 0.627886 0.301668 0.10394
H_ H_ 0.744957 0.591319 0.270841 0.10394
H_ H_ 0.697295 0.955544 0.278505 0.10394
H_ H_ 0.629452 0.482111 0.331079 0.10394
H_ H_ 0.0149261 0.601983 0.256818 0.10394
H_ H_ 0.977744 0.674353 0.204431 0.10394
H_ H_ 0.543234 0.775569 0.326616 0.10394
H_ H_ 0.576222 0.69889 0.377292 0.10394
H_ H_ 0.530584 0.947601 0.374886 0.10394
H_ H_ 0.983952 0.877402 0.383856 0.10394
H_ H_ 0.850635 0.981779 0.399936 0.10394
H_ H_ 0.597716 0.787622 0.132884 0.10394
H_ H_ 1.00074 0.765481 0.0996094 0.10394
H_ H_ 0.537031 0.786998 0.439795 0.10394
H_ H_ 0.602431 0.857003 0.993582 0.10394
H_ H_ 0.733985 0.756085 0.0948163 0.10394
H_ H_ 0.762488 0.706184 0.16407 0.10394
H_ H_ 0.699084 0.827277 0.268286 0.10394
H_ H_ 0.667785 0.876444 0.192245 0.10394
H_ H_ 0.720295 0.849034 0.436125 0.10394
H_ H_ 0.780607 0.838546 0.369327 0.10394
H_ H_ 0.893874 0.892096 0.478354 0.10394
H_ H_ 0.794115 0.900504 0.163511 0.10394
H_ H_ 0.721207 0.952773 0.193451 0.10394
H_ H_ 0.826016 0.537266 0.283049 0.10394
H_ H_ 0.890678 1.0122662 0.222366 0.10394
H_ H_ 0.520338 0.887942 0.19492 0.10394
H_ H_ 0.564515 0.801767 0.223281 0.10394
H_ H_ 0.902595 0.763047 0.23034 0.10394
H_ H_ 0.864938 0.837439 0.178295 0.10394
H_ H_ 0.95306 0.560144 0.107569 0.10394
H_ H_ 0.52477 0.621964 0.116061 0.10394
H_ H_ 0.635547 0.499551 0.0752486 0.10394
H_ H_ 0.936816 0.66773 0.388009 0.10394
H_ H_ 0.511544 0.695841 0.438851 0.10394
H_ H_ 0.915491 0.775404 0.0469789 0.10394
H_ H_ 0.844972 0.740692 0.495595 0.10394
H_ H_ 0.730561 0.682547 0.376591 0.10394
H_ H_ 0.68579 0.728152 0.30129 0.10394
H_ H_ 0.830599 0.735269 0.246274 0.10394
H_ H_ 0.873903 0.690602 0.323166 0.10394
H_ H_ 0.79459 0.603544 0.0436996 0.10394
H_ H_ 0.74033 0.591188 0.108689 0.10394
H_ H_ 0.607385 0.602296 0.00252967 0.10394
C_ C_ 0.672555 0.58643 0.297072 0.18167
C_ C_ 0.719562 0.564689 0.277705 -0.15533
C_ C_ 0.729418 0.511169 0.272038 0.02923
C_ C_ 0.690475 0.996345 0.285989 -0.15533
C_ C_ 0.654011 0.504196 0.312598 0.18167
C_ C_ 0.528386 0.638602 0.270097 0.18167
C_ C_ 0.0015899999999999803 0.684692 0.240574 -0.15533
C_ C_ 0.514827 0.730394 0.259872 0.02923
C_ C_ 0.540618 0.735965 0.309873 -0.15533
C_ C_ 0.558072 0.694137 0.338576 0.18167
C_ C_ 0.505306 0.546109 0.364081 0.69207
C_ C_ 0.9705 0.00498436 0.377664 0.02923
C_ C_ -0.005337000000000036 0.953247 0.380095 -0.15533
C_ C_ 0.963011 0.913857 0.377803 -0.15533
C_ C_ 0.909882 0.921429 0.387394 0.02923
C_ C_ 0.888857 0.974184 0.392208 -0.15533
C_ C_ 0.917313 0.0155414 0.382663 0.02923
C_ C_ 0.900541 0.569975 0.380855 0.69207
C_ C_ 0.903101 0.822953 0.376663 0.69661
C_ C_ 0.5814 0.791294 0.0920653 0.18167
C_ C_ 0.534224 0.772156 0.0735342 -0.15533
C_ C_ 0.513477 0.777568 0.0227519 0.02923
C_ C_ 0.543844 0.78936 0.481503 -0.15533
C_ C_ 0.582931 0.831745 0.0138336 0.18167
C_ C_ 0.725624 0.773695 0.131791 0.18167
C_ C_ 0.742851 0.743718 0.173907 -0.15533
C_ C_ 0.733679 0.762012 0.222232 0.02923
C_ C_ 0.706046 0.80966 0.230111 -0.15533
C_ C_ 0.689266 0.83919 0.187581 0.18167
C_ C_ 0.738517 0.873615 0.0416058 0.69207
C_ C_ 0.773229 0.871461 0.497106 0.02923
C_ C_ 0.758392 0.857564 0.444284 -0.15533
C_ C_ 0.788628 0.858482 0.405492 -0.15533
C_ C_ 0.837973 0.877503 0.417391 0.02923
C_ C_ 0.855914 0.885493 0.468612 -0.15533
C_ C_ 0.823604 0.881526 0.5086 0.02923
C_ C_ 0.847016 0.891675 0.0698416 0.69207
C_ C_ 0.852099 0.882462 0.321356 0.69661
C_ C_ 0.80061 0.936997 0.182937 0.18167
C_ C_ 0.757787 0.964813 0.203916 -0.15533
C_ C_ 0.76573 1.00514849 0.241516 0.02923
C_ C_ 0.821257 0.506423 0.256575 -0.15533
C_ C_ 0.854183 0.999279084 0.220294 0.18167
C_ C_ 0.984375 0.860972 0.194415 0.18167
C_ C_ 0.52259 0.81112 0.219051 -0.15533
C_ C_ 0.978828 0.7813 0.231115 0.02923
C_ C_ 0.926938 0.785901 0.215182 -0.15533
C_ C_ 0.904826 0.830669 0.190562 0.18167
C_ C_ 0.983821 0.959957 0.123929 0.69207
C_ C_ 0.520326 0.495457 0.122204 0.02923
C_ C_ 0.506536 0.547612 0.126215 -0.15533
C_ C_ 0.539838 0.582627 0.115325 -0.15533
C_ C_ 0.587714 0.565894 0.0985185 0.02923
C_ C_ 0.599277 0.513254 0.0899558 -0.15533
C_ C_ 0.568129 0.477737 0.103701 0.02923
C_ C_ 0.59209 0.926908 0.107691 0.69207
C_ C_ 0.612641 0.656267 0.111316 0.69661
C_ C_ 0.936171 0.686159 0.424075 0.18167
C_ C_ 0.980634 0.701744 0.450413 -0.15533
C_ C_ 0.97574 0.742658 0.49056 0.02923
C_ C_ 0.920789 0.752419 1.012912 -0.15533
C_ C_ 0.882991 0.728279 0.484677 0.18167
C_ C_ 0.751454 0.695191 0.347802 0.18167
C_ C_ 0.726819 0.719207 0.306796 -0.15533
C_ C_ 0.757083 0.735958 0.269652 0.02923
C_ C_ 0.808236 0.723995 0.275259 -0.15533
C_ C_ 0.832984 0.698326 0.319259 0.18167
C_ C_ 0.759818 0.620353 0.447806 0.69207
C_ C_ 0.729675 0.616747 0.984756 0.02923
C_ C_ 0.75317 0.602471 0.0329041 -0.15533
C_ C_ 0.723552 0.590154 0.0707449 -0.15533
C_ C_ 0.66853 0.594695 0.0625114 0.02923
C_ C_ 0.647497 0.600055 0.0133752 -0.15533
C_ C_ 0.677723 0.609772 0.974749 0.02923
C_ C_ 0.645917 0.607081 0.428081 0.69207
C_ C_ 0.659051 0.586499 0.158041 0.69661
C_ C_ 0.874935 0.877081 0.377722 -0.30787
C_ C_ 0.630739 0.600618 0.105519 -0.30787
N_ N_ 0.640085 0.555144 0.311481 -0.32189
N_ N_ 0.554225 0.645781 0.31621 -0.32189
N_ N_ 0.604941 0.816957 0.0605111 -0.32189
N_ N_ 0.691631 0.816034 0.139255 -0.32189
N_ N_ 0.846583 0.956666 0.189364 -0.32189
N_ N_ 0.933393 0.867463 0.183373 -0.32189
N_ N_ 0.890384 0.698236 0.44116 -0.32189
N_ N_ 0.802782 0.683566 0.35358 -0.32189
O_ O_ 0.0008200000000000429 0.588637 0.391244 -0.63271
O_ O_ 0.547674 0.530726 0.343213 -0.57982
O_ O_ 0.897083 0.595511 0.340073 -0.63271
O_ O_ 0.870834 0.587305 0.414156 -0.57982
O_ O_ 0.742408 0.898794 0.0867367 -0.63271
O_ O_ 0.700117 0.845004 0.0281893 -0.57982
O_ O_ 0.843295 0.849162 0.0929359 -0.63271
O_ O_ 0.874126 0.9265 0.0897634 -0.57982
O_ O_ 0.4887 0.905937 0.102001 -0.63271
O_ O_ 0.951243 0.969224 0.158325 -0.57982
O_ O_ 0.589564 0.901621 0.148833 -0.63271
O_ O_ 0.625294 0.910114 0.0740689 -0.57982
O_ O_ 0.762726 0.586956 0.409417 -0.63271
O_ O_ 0.794666 0.651354 0.456562 -0.57982
O_ O_ 0.651959 0.644463 0.39919 -0.63271
O_ O_ 0.610606 0.577697 0.413041 -0.57982
F_ F_ 0.93952 0.815219 0.420269 -0.20885
F_ F_ 0.9263 0.814298 0.329761 -0.20885
F_ F_ 0.872245 0.783494 0.373683 -0.20885
F_ F_ 0.808075 0.916402 0.317034 -0.20885
F_ F_ 0.835433 0.838107 0.298278 -0.20885
F_ F_ 0.883858 0.8978 0.287214 -0.20885
F_ F_ 0.583134 0.67062 0.0679158 -0.20885
F_ F_ 0.584508 0.671686 0.152038 -0.20885
F_ F_ 0.650917 0.687091 0.112852 -0.20885
F_ F_ 0.678433 0.536389 0.153223 -0.20885
F_ F_ 0.697857 0.619134 0.177218 -0.20885
F_ F_ 0.625679 0.585359 0.194778 -0.20885
Zn Zn 0.590651 0.582734 0.840215 0.83971
Zn Zn 0.658543 0.84208 0.578497 0.83971
Zn Zn 0.908949 0.918041 0.643585 0.83971
Zn Zn 0.838994 0.657988 0.914639 0.83971
H_ H_ 0.67611 0.633888 0.79721 0.10394
H_ H_ 0.752385 0.590829 0.763972 0.10394
H_ H_ 0.707012 0.941119 0.780817 0.10394
H_ H_ 0.624958 0.486226 0.80571 0.10394
H_ H_ 0.0318733 0.604566 0.749761 0.10394
H_ H_ 0.99564043 0.672994 0.696614 0.10394
H_ H_ 0.510923 0.759173 0.834645 0.10394
H_ H_ 0.573382 0.690318 0.869173 0.10394
H_ H_ 0.519201 0.931992 0.854854 0.10394
H_ H_ 0.978194 0.876339 0.884971 0.10394
H_ H_ 0.855711 0.993858 0.912009 0.10394
H_ H_ 0.57983 0.80336 0.625242 0.10394
H_ H_ -0.002291 0.771361 0.59076 0.10394
H_ H_ 0.520315 0.820937 0.954892 0.10394
H_ H_ 0.616758 0.818314 0.474867 0.10394
H_ H_ 0.735263 0.750999 0.590842 0.10394
H_ H_ 0.781929 0.715267 0.664995 0.10394
H_ H_ 0.721767 0.841874 0.761999 0.10394
H_ H_ 0.680214 0.880779 0.682679 0.10394
H_ H_ 0.718986 0.858922 0.940566 0.10394
H_ H_ 0.765348 0.884959 0.879011 0.10394
H_ H_ 0.892887 0.90491 0.986514 0.10394
H_ H_ 0.804938 0.893812 0.656215 0.10394
H_ H_ 0.73177 0.953484 0.672088 0.10394
H_ H_ 0.844866 0.532595 0.78482 0.10394
H_ H_ 0.897832 1.00272043 0.725179 0.10394
H_ H_ 0.517712 0.868136 0.692804 0.10394
H_ H_ 0.550367 0.781814 0.726713 0.10394
H_ H_ 0.917209 0.743986 0.70289 0.10394
H_ H_ 0.878452 0.823709 0.666236 0.10394
H_ H_ 0.963425 0.556248 0.611805 0.10394
H_ H_ 0.521526 0.622625 0.620995 0.10394
H_ H_ 0.647903 0.510678 0.588211 0.10394
H_ H_ 0.947256 0.670212 0.892458 0.10394
H_ H_ 0.515039 0.718693 0.939154 0.10394
H_ H_ 0.921391 0.777636 0.543331 0.10394
H_ H_ 0.849082 0.721013 1.00691004 0.10394
H_ H_ 0.736804 0.707643 0.875556 0.10394
H_ H_ 0.699759 0.751411 0.798113 0.10394
H_ H_ 0.850756 0.723426 0.749097 0.10394
H_ H_ 0.882857 0.689672 0.825498 0.10394
H_ H_ 0.791562 0.613577 0.548499 0.10394
H_ H_ 0.738131 0.61869 0.616116 0.10394
H_ H_ 0.61025 0.588556 0.509163 0.10394
C_ C_ 0.683091 0.591288 0.796094 0.18167
C_ C_ 0.727975 0.567569 0.778559 -0.15533
C_ C_ 0.737851 0.515375 0.770692 0.02923
C_ C_ 0.697296 0.979572 0.780813 -0.15533
C_ C_ 0.65645 0.507257 0.799578 0.18167
C_ C_ 0.529671 0.629584 0.760644 0.18167
C_ C_ 0.015623 0.683299 0.733824 -0.15533
C_ C_ 0.490006 0.718749 0.762734 0.02923
C_ C_ 0.517439 0.723907 0.811789 -0.15533
C_ C_ 0.551307 0.683997 0.832439 0.18167
C_ C_ 0.505648 0.545544 0.862668 0.69207
C_ C_ 0.97568 0.00322047 0.879666 0.02923
C_ C_ -0.005147000000000013 0.95242 0.88444 -0.15533
C_ C_ 0.963246 0.916942 0.892718 -0.15533
C_ C_ 0.91035 0.92967 0.894384 0.02923
C_ C_ 0.891957 0.981072 0.894858 -0.15533
C_ C_ 0.922 0.0178741 0.882906 0.02923
C_ C_ 0.892793 0.573489 0.881335 0.69207
C_ C_ 0.897001 0.832258 0.883528 0.69661
C_ C_ 0.568168 0.801403 0.585162 0.18167
C_ C_ 0.51973 0.784461 0.567363 -0.15533
C_ C_ 0.509005 0.775913 0.513716 0.02923
C_ C_ 0.537313 0.810639 0.992717 -0.15533
C_ C_ 0.58979 0.8069 0.501561 0.18167
C_ C_ 0.72748 0.768801 0.628039 0.18167
C_ C_ 0.752822 0.746427 0.671956 -0.15533
C_ C_ 0.750309 0.771578 0.72005 0.02923
C_ C_ 0.722379 0.819678 0.724462 -0.15533
C_ C_ 0.697559 0.840513 0.681003 0.18167
C_ C_ 0.73919 0.86733 0.536968 0.69207
C_ C_ 0.774238 0.879513 1.0031766 0.02923
C_ C_ 0.757925 0.870099 0.952663 -0.15533
C_ C_ 0.786468 0.882576 0.915722 -0.15533
C_ C_ 0.836359 0.895154 0.925771 0.02923
C_ C_ 0.855112 0.894526 0.976916 -0.15533
C_ C_ 0.823809 0.8915 0.0159932 0.02923
C_ C_ 0.848831 0.885914 0.562182 0.69207
C_ C_ 0.847515 0.895769 0.827529 0.69661
C_ C_ 0.811071 0.927355 0.678272 0.18167
C_ C_ 0.768784 0.957239 0.695156 -0.15533
C_ C_ 0.774975 -0.0061189999999999856 0.735535 0.02923
C_ C_ 0.832367 0.510442 0.75106 -0.15533
C_ C_ 0.863833 0.985784 0.721988 0.18167
C_ C_ 0.991237 0.860258 0.701689 0.18167
C_ C_ 0.509006 0.796017 0.722284 -0.15533
C_ C_ 0.987615 0.775032 0.726591 0.02923
C_ C_ 0.93825 0.777102 0.704672 -0.15533
C_ C_ 0.915898 0.821583 0.684282 0.18167
C_ C_ 0.9893 0.956199 0.619852 0.69207
C_ C_ 0.527967 0.494755 0.622315 0.02923
C_ C_ 0.512584 0.547377 0.63046 -0.15533
C_ C_ 0.540563 0.585561 0.617571 -0.15533
C_ C_ 0.591078 0.572886 0.606566 0.02923
C_ C_ 0.608393 0.520937 0.597101 -0.15533
C_ C_ 0.577531 0.482316 0.607045 0.02923
C_ C_ 0.602269 0.926101 0.608319 0.69207
C_ C_ 0.607304 0.669823 0.604818 0.69661
C_ C_ 0.938937 0.691922 0.927279 0.18167
C_ C_ 0.979159 0.709643 0.958307 -0.15533
C_ C_ 0.970838 0.74044 1.00099 0.02923
C_ C_ 0.926429 0.753184 0.508067 -0.15533
C_ C_ 0.882619 0.724934 0.986875 0.18167
C_ C_ 0.75845 0.708361 0.845043 0.18167
C_ C_ 0.73969 0.734779 0.800461 -0.15533
C_ C_ 0.773342 0.742873 0.765549 0.02923
C_ C_ 0.823612 0.71813 0.771125 -0.15533
C_ C_ 0.840431 0.694319 0.817112 0.18167
C_ C_ 0.759826 0.635605 0.947247 0.69207
C_ C_ 0.728918 0.609753 0.488765 0.02923
C_ C_ 0.750658 0.60953 0.539571 -0.15533
C_ C_ 0.719865 0.609344 0.578858 -0.15533
C_ C_ 0.668682 0.603756 0.570817 0.02923
C_ C_ 0.649343 0.592172 0.518852 -0.15533
C_ C_ 0.676144 0.602696 0.479289 0.02923
C_ C_ 0.650399 0.61243 0.921372 0.69207
C_ C_ 0.655962 0.610832 0.669006 0.69661
C_ C_ 0.872594 0.889987 0.882288 -0.30787
C_ C_ 0.630795 0.613869 0.612193 -0.30787
N_ N_ 0.647122 0.55955 0.805177 -0.32189
N_ N_ 0.553986 0.637792 0.808551 -0.32189
N_ N_ 0.603165 0.807907 0.552865 -0.32189
N_ N_ 0.699209 0.813535 0.633887 -0.32189
N_ N_ 0.857187 0.9439 0.686593 -0.32189
N_ N_ 0.943639 0.861658 0.681116 -0.32189
N_ N_ 0.894113 0.69195 0.947761 -0.32189
N_ N_ 0.807319 0.688399 0.853289 -0.32189
O_ O_ 1.00483081 0.587614 0.897278 -0.63271
O_ O_ 0.543987 0.531255 0.833689 -0.57982
O_ O_ 0.899566 0.602387 0.843828 -0.63271
O_ O_ 0.863588 0.594021 0.917116 -0.57982
O_ O_ 0.747384 0.88969 0.580995 -0.63271
O_ O_ 0.704512 0.83612 0.531847 -0.57982
O_ O_ 0.855856 0.844541 0.587454 -0.63271
O_ O_ 0.877445 0.923378 0.576615 -0.57982
O_ O_ 0.488106 0.91377 0.596225 -0.63271
O_ O_ 0.952874 0.965271 0.649959 -0.57982
O_ O_ 0.593294 0.894606 0.642711 -0.63271
O_ O_ 0.637983 0.910564 0.578142 -0.57982
O_ O_ 0.758184 0.611978 0.902242 -0.63271
O_ O_ 0.795801 0.660921 0.963967 -0.57982
O_ O_ 0.652561 0.653733 0.897229 -0.63271
O_ O_ 0.622837 0.577231 0.901889 -0.57982
F_ F_ 0.930727 0.831012 0.927649 -0.20885
F_ F_ 0.928354 0.815526 0.845824 -0.20885
F_ F_ 0.861103 0.794702 0.884525 -0.20885
F_ F_ 0.80955 0.936903 0.827155 -0.20885
F_ F_ 0.824549 0.854857 0.803022 -0.20885
F_ F_ 0.885958 0.906162 0.800018 -0.20885
F_ F_ 0.57523 0.668171 0.557196 -0.20885
F_ F_ 0.579615 0.694778 0.641779 -0.20885
F_ F_ 0.645123 0.702031 0.601483 -0.20885
F_ F_ 0.686799 0.565973 0.676013 -0.20885
F_ F_ 0.685154 0.648157 0.685124 -0.20885
F_ F_ 0.617862 0.612944 0.705017 -0.20885
