_cell_length_a 26.508
_cell_length_b 26.37200000322088
_cell_length_c 26.311999743092066
_cell_angle_alpha 93.74100058972084
_cell_angle_beta 96.04100104955006
_cell_angle_gamma 83.6869992558723
_symmetry_space_group_name_H-M         'P 1'
_symmetry_Int_Tables_number            1
loop_
_symmetry_equiv_pos_as_xyz
   'x, y, z'
                         
loop_
_atom_site_label
_atom_site_type_symbol
_atom_site_fract_x 
_atom_site_fract_y
_atom_site_fract_z
_atom_site_charge
Zn Zn 0.0862826 0.0856478 0.346924 0.83971
Zn Zn 0.15837 0.345091 0.0842032 0.83971
Zn Zn 0.400899 0.416186 0.15084 0.83971
Zn Zn 0.339637 0.157294 0.415393 0.83971
H_ H_ 0.16909 0.133231 0.307739 0.10394
H_ H_ 0.24637 0.103554 0.268313 0.10394
H_ H_ 0.215645 0.448978 0.294355 0.10394
H_ H_ 0.13169 0.983168 0.319363 0.10394
H_ H_ 0.514313 0.0898369 0.256442 0.10394
H_ H_ 0.472317 0.163888 0.209992 0.10394
H_ H_ 0.0232438 0.27578 0.331653 0.10394
H_ H_ 0.0668818 0.196666 0.377805 0.10394
H_ H_ 0.0230831 0.444471 0.365976 0.10394
H_ H_ 0.47997 0.377895 0.379804 0.10394
H_ H_ 0.345885 0.48624 0.377694 0.10394
H_ H_ 0.0777682 0.295856 0.137399 0.10394
H_ H_ 0.48801 0.281958 0.0951998 0.10394
H_ H_ 0.0241882 0.306587 0.447517 0.10394
H_ H_ 0.113684 0.314706 0.989619 0.10394
H_ H_ 0.219892 0.253476 0.097304 0.10394
H_ H_ 0.268581 0.212504 0.169998 0.10394
H_ H_ 0.216788 0.340269 0.26694 0.10394
H_ H_ 0.174826 0.378349 0.190048 0.10394
H_ H_ 0.224558 0.343154 0.440749 0.10394
H_ H_ 0.269223 0.365234 0.372425 0.10394
H_ H_ 0.391236 0.403364 0.479881 0.10394
H_ H_ 0.300604 0.410215 0.149013 0.10394
H_ H_ 0.229875 0.451716 0.197167 0.10394
H_ H_ 0.338354 0.0275801 0.294554 0.10394
H_ H_ 0.40785 0.492964 0.240629 0.10394
H_ H_ 0.00348873 0.398588 0.205708 0.10394
H_ H_ 0.0488555 0.323118 0.23854 0.10394
H_ H_ 0.402444 0.243553 0.214702 0.10394
H_ H_ 0.363638 0.326898 0.186103 0.10394
H_ H_ 0.458035 0.0512608 0.101711 0.10394
H_ H_ 0.0320151 0.110765 0.119073 0.10394
H_ H_ 0.153261 -0.009434999999999971 0.104033 0.10394
H_ H_ 0.441342 0.159203 0.40301 0.10394
H_ H_ 0.0114819 0.19097 0.449633 0.10394
H_ H_ 0.417699 0.299518 0.00448449 0.10394
H_ H_ 0.342423 0.243622 0.490375 0.10394
H_ H_ 0.232504 0.209751 0.388549 0.10394
H_ H_ 0.190973 0.240951 0.311142 0.10394
H_ H_ 0.335549 0.217649 0.247663 0.10394
H_ H_ 0.376648 0.187519 0.33085 0.10394
H_ H_ 0.296441 0.0944485 0.0469472 0.10394
H_ H_ 0.246347 0.0899935 0.116681 0.10394
H_ H_ 0.111337 0.0807923 0.0126249 0.10394
C_ C_ 0.175186 0.0938301 0.29931 0.18167
C_ C_ 0.222008 0.0748569 0.280188 -0.15533
C_ C_ 0.236122 0.0230206 0.273068 0.02923
C_ C_ 0.206724 0.490324 0.293733 -0.15533
C_ C_ 0.156617 0.00815488 0.306196 0.18167
C_ C_ 0.0361426 0.140067 0.26558 0.18167
C_ C_ 0.490202 0.17419 0.245539 -0.15533
C_ C_ 0.0124743 0.230265 0.261632 0.02923
C_ C_ 0.0270905 0.234925 0.315906 -0.15533
C_ C_ 0.050311 0.192626 0.340909 0.18167
C_ C_ 0.00532613 0.0509168 0.370889 0.69207
C_ C_ 0.471942 0.506776 0.378217 0.02923
C_ C_ 0.492551 0.456119 0.377696 -0.15533
C_ C_ 0.4619 0.417651 0.37861 -0.15533
C_ C_ 0.408654 0.426735 0.383954 0.02923
C_ C_ 0.38623 0.478068 0.382454 -0.15533
C_ C_ 0.41677 0.518619 0.378934 0.02923
C_ C_ 0.396251 0.0746885 0.385632 0.69207
C_ C_ 0.400696 0.328183 0.384589 0.69661
C_ C_ 0.0665956 0.295503 0.0971914 0.18167
C_ C_ 0.0241352 0.272701 0.0791081 -0.15533
C_ C_ 0.012573 0.263462 0.0255895 0.02923
C_ C_ 0.0385327 0.301351 0.486805 -0.15533
C_ C_ 0.0880982 0.304284 0.0130812 0.18167
C_ C_ 0.22129 0.272597 0.135702 0.18167
C_ C_ 0.250781 0.251011 0.176452 -0.15533
C_ C_ 0.241527 0.269454 0.22504 0.02923
C_ C_ 0.215956 0.319389 0.230457 -0.15533
C_ C_ 0.19379 0.34261 0.188581 0.18167
C_ C_ 0.237478 0.365145 0.0370549 0.69207
C_ C_ 0.276517 0.368186 0.502219 0.02923
C_ C_ 0.259251 0.362148 0.450351 -0.15533
C_ C_ 0.289171 0.367917 0.409964 -0.15533
C_ C_ 0.336263 0.387727 0.421283 0.02923
C_ C_ 0.352664 0.396769 0.473386 -0.15533
C_ C_ 0.326935 0.382794 0.513824 0.02923
C_ C_ 0.346782 0.385435 0.0695663 0.69207
C_ C_ 0.34844 0.380504 0.324778 0.69661
C_ C_ 0.307146 0.437569 0.180109 0.18167
C_ C_ 0.268821 0.463506 0.205718 -0.15533
C_ C_ 0.278767 0.500863 0.244063 0.02923
C_ C_ 0.328089 -0.000532619 0.262119 -0.15533
C_ C_ 0.367627 0.48707 0.22759 0.18167
C_ C_ 0.485486 0.348558 0.200561 0.18167
C_ C_ 0.0110382 0.319314 0.229435 -0.15533
C_ C_ 0.475819 0.267295 0.232383 0.02923
C_ C_ 0.425735 0.274046 0.212925 -0.15533
C_ C_ 0.402554 0.320741 0.196465 0.18167
C_ C_ 0.484515 0.448673 0.12356 0.69207
C_ C_ 0.0317517 0.981503 0.120366 0.02923
C_ C_ 0.0144275 0.0335364 0.126366 -0.15533
C_ C_ 0.0463156 0.0703334 0.122866 -0.15533
C_ C_ 0.096855 0.0581082 0.109947 0.02923
C_ C_ 0.114897 0.00356029 0.109966 -0.15533
C_ C_ 0.0810998 0.965787 0.107948 0.02923
C_ C_ 0.0896684 0.42213 0.114438 0.69207
C_ C_ 0.109576 0.154539 0.101929 0.69661
C_ C_ 0.435702 0.18706 0.431952 0.18167
C_ C_ 0.476977 0.209797 0.456334 -0.15533
C_ C_ 0.470415 0.240162 0.500393 0.02923
C_ C_ 0.422137 0.26058 -0.00112977 -0.15533
C_ C_ 0.38011 0.232056 0.487052 0.18167
C_ C_ 0.256211 0.212473 0.357024 0.18167
C_ C_ 0.230866 0.233227 0.311387 -0.15533
C_ C_ 0.260417 0.242431 0.272186 0.02923
C_ C_ 0.312817 0.222924 0.279703 -0.15533
C_ C_ 0.33584 0.195916 0.321884 0.18167
C_ C_ 0.261998 0.129008 0.453187 0.69207
C_ C_ 0.234618 0.100807 0.988048 0.02923
C_ C_ 0.257974 0.0916344 0.0374231 -0.15533
C_ C_ 0.227327 0.0885744 0.0779445 -0.15533
C_ C_ 0.174298 0.0845021 0.0683715 0.02923
C_ C_ 0.15246 0.0834327 0.0179815 -0.15533
C_ C_ 0.180033 0.0952694 0.977302 0.02923
C_ C_ 0.150633 0.106352 0.423871 0.69207
C_ C_ 0.162398 0.099808 0.163481 0.69661
C_ C_ 0.373431 0.383879 0.381776 -0.30787
C_ C_ 0.136256 0.0983643 0.109425 -0.30787
N_ N_ 0.144724 0.0589687 0.314605 -0.32189
N_ N_ 0.0586847 0.146724 0.313175 -0.32189
N_ N_ 0.101312 0.304387 0.0647827 -0.32189
N_ N_ 0.192065 0.316205 0.142748 -0.32189
N_ N_ 0.355912 0.449942 0.19162 -0.32189
N_ N_ 0.433044 0.356171 0.188645 -0.32189
N_ N_ 0.390234 0.194251 0.45167 -0.32189
N_ N_ 0.306295 0.193377 0.360449 -0.32189
O_ O_ 0.505129 0.0877521 0.396176 -0.63271
O_ O_ 0.0407652 0.0380975 0.340649 -0.57982
O_ O_ 0.395441 0.10066 0.344467 -0.63271
O_ O_ 0.364208 0.0908787 0.41848 -0.57982
O_ O_ 0.241659 0.396304 0.07788 -0.63271
O_ O_ 0.203571 0.330729 0.0342396 -0.57982
O_ O_ 0.347406 0.346321 0.0976945 -0.63271
O_ O_ 0.373606 0.422393 0.0877833 -0.57982
O_ O_ 0.971966 0.411565 0.101095 -0.63271
O_ O_ 0.453607 0.457843 0.158789 -0.57982
O_ O_ 0.0891302 0.397924 0.156928 -0.63271
O_ O_ 0.119622 0.404433 0.0801256 -0.57982
O_ O_ 0.255655 0.112134 0.406869 -0.63271
O_ O_ 0.302846 0.15377 0.468024 -0.57982
O_ O_ 0.152277 0.145489 0.395719 -0.63271
O_ O_ 0.115965 0.0779784 0.409808 -0.57982
F_ F_ 0.433254 0.324324 0.42825 -0.20885
F_ F_ 0.429116 0.308244 0.345412 -0.20885
F_ F_ 0.369255 0.290975 0.386671 -0.20885
F_ F_ 0.314483 0.422186 0.313157 -0.20885
F_ F_ 0.323067 0.338147 0.309437 -0.20885
F_ F_ 0.384509 0.379403 0.290337 -0.20885
F_ F_ 0.0778524 0.157251 0.0574672 -0.20885
F_ F_ 0.08062 0.179175 0.137458 -0.20885
F_ F_ 0.143638 0.185899 0.0959734 -0.20885
F_ F_ 0.184772 0.0516873 0.173833 -0.20885
F_ F_ 0.200164 0.135213 0.173159 -0.20885
F_ F_ 0.128741 0.112677 0.200131 -0.20885
Zn Zn 0.0861949 0.0862464 0.84502 0.83971
Zn Zn 0.158581 0.341204 0.582406 0.83971
Zn Zn 0.402834 0.412931 0.646815 0.83971
Zn Zn 0.343639 0.149688 0.917414 0.83971
H_ H_ 0.173697 0.13289 0.805449 0.10394
H_ H_ 0.25075 0.0967064 0.771803 0.10394
H_ H_ 0.211018 0.445919 0.78335 0.10394
H_ H_ 0.13419 0.986897 0.834967 0.10394
H_ H_ 0.537554 0.0917043 0.746405 0.10394
H_ H_ 0.506182 0.166565 0.693971 0.10394
H_ H_ 0.0243192 0.268328 0.82581 0.10394
H_ H_ 0.0820153 0.195829 0.864976 0.10394
H_ H_ 0.040902 0.451428 0.889524 0.10394
H_ H_ 0.478594 0.380899 0.8681 0.10394
H_ H_ 0.347747 0.489595 0.905505 0.10394
H_ H_ 0.0862996 0.288213 0.626282 0.10394
H_ H_ 0.497163 0.273081 0.602872 0.10394
H_ H_ 0.035995 0.27832 0.950687 0.10394
H_ H_ 0.102255 0.339924 0.480438 0.10394
H_ H_ 0.214065 0.239794 0.597562 0.10394
H_ H_ 0.267159 0.200603 0.673336 0.10394
H_ H_ 0.233596 0.334855 0.763956 0.10394
H_ H_ 0.195733 0.375323 0.683849 0.10394
H_ H_ 0.218567 0.35839 0.935326 0.10394
H_ H_ 0.266141 0.392587 0.877211 0.10394
H_ H_ 0.396601 0.394162 0.989288 0.10394
H_ H_ 0.304148 0.39962 0.659306 0.10394
H_ H_ 0.232794 0.460656 0.684091 0.10394
H_ H_ 0.341545 0.0424359 0.787391 0.10394
H_ H_ 0.408556 0.500019 0.733799 0.10394
H_ H_ 0.0138641 0.367462 0.670237 0.10394
H_ H_ 0.0509258 0.286823 0.709426 0.10394
H_ H_ 0.419274 0.234093 0.705604 0.10394
H_ H_ 0.374206 0.311383 0.66736 0.10394
H_ H_ 0.464996 0.050616 0.632391 0.10394
H_ H_ 0.0172046 0.12652 0.625552 0.10394
H_ H_ 0.142436 0.0137661 0.600783 0.10394
H_ H_ 0.444395 0.121056 0.956691 0.10394
H_ H_ 0.0143868 0.190247 0.943609 0.10394
H_ H_ 0.412177 0.287811 0.544198 0.10394
H_ H_ 0.34492 0.253489 -0.02551899999999996 0.10394
H_ H_ 0.240529 0.183512 0.87365 0.10394
H_ H_ 0.207005 0.244494 0.808522 0.10394
H_ H_ 0.350356 0.235371 0.750568 0.10394
H_ H_ 0.389578 0.190155 0.82978 0.10394
H_ H_ 0.279114 0.141122 0.555867 0.10394
H_ H_ 0.227936 0.111491 0.62303 0.10394
H_ H_ 0.110235 0.079983 0.505201 0.10394
C_ C_ 0.179596 0.0917816 0.801886 0.18167
C_ C_ 0.226454 0.0706282 0.783774 -0.15533
C_ C_ 0.237052 0.0169276 0.778148 0.02923
C_ C_ 0.199854 0.486558 0.77993 -0.15533
C_ C_ 0.1566 0.0097341 0.814779 0.18167
C_ C_ 0.0133743 0.132957 0.77149 0.18167
C_ C_ 0.513945 0.17371 0.733968 -0.15533
C_ C_ 0.00038999999999989043 0.222383 0.75854 0.02923
C_ C_ 0.0277046 0.229924 0.807174 -0.15533
C_ C_ 0.0551144 0.190726 0.829614 0.18167
C_ C_ 0.00477266 0.0490009 0.860625 0.69207
C_ C_ 0.467432 0.510523 0.870116 0.02923
C_ C_ 0.485692 0.458195 0.861331 -0.15533
C_ C_ 0.4605 0.419082 0.874207 -0.15533
C_ C_ 0.410779 0.430396 0.88974 0.02923
C_ C_ 0.389789 0.481505 0.896336 -0.15533
C_ C_ 0.419142 0.522487 0.890693 0.02923
C_ C_ 0.399145 0.0688957 0.889224 0.69207
C_ C_ 0.400537 0.332865 0.878304 0.69661
C_ C_ 0.0700549 0.295107 0.587699 0.18167
C_ C_ 0.0253019 0.275758 0.570604 -0.15533
C_ C_ 0.0125789 0.272842 0.51738 0.02923
C_ C_ 0.0448415 0.279481 0.990355 -0.15533
C_ C_ 0.0832211 0.319769 0.507028 0.18167
C_ C_ 0.21947 0.259613 0.633356 0.18167
C_ C_ 0.24731 0.235303 0.676306 -0.15533
C_ C_ 0.25175 0.262074 0.724223 0.02923
C_ C_ 0.233378 0.313831 0.726822 -0.15533
C_ C_ 0.21078 0.337081 0.681116 0.18167
C_ C_ 0.23764 0.361597 0.541271 0.69207
C_ C_ 0.27692 0.363853 -0.000159539 0.02923
C_ C_ 0.25735 0.362648 0.948069 -0.15533
C_ C_ 0.285369 0.379971 0.913264 -0.15533
C_ C_ 0.337189 0.389616 0.924289 0.02923
C_ C_ 0.356584 0.389038 0.975621 -0.15533
C_ C_ 0.32606 0.379644 0.0131369 0.02923
C_ C_ 0.353517 0.380527 0.564371 0.69207
C_ C_ 0.347187 0.391931 0.825769 0.69661
C_ C_ 0.31263 0.429163 0.688265 0.18167
C_ C_ 0.271076 0.461081 0.706095 -0.15533
C_ C_ 0.28038 0.499079 0.743354 0.02923
C_ C_ 0.329745 0.0153135 0.755727 -0.15533
C_ C_ 0.36909 0.488772 0.727351 0.18167
C_ C_ 0.487856 0.35682 0.699464 0.18167
C_ C_ 0.00991094 0.294979 0.703103 -0.15533
C_ C_ 0.488011 0.269349 0.728954 0.02923
C_ C_ 0.439964 0.267856 0.704515 -0.15533
C_ C_ 0.415125 0.311135 0.678837 0.18167
C_ C_ 0.479364 0.45382 0.622072 0.69207
C_ C_ 0.0192743 0.99859 0.620116 0.02923
C_ C_ -0.0009029999999999871 0.0485867 0.620588 -0.15533
C_ C_ 0.0300397 0.0873796 0.615617 -0.15533
C_ C_ 0.0803467 0.0745015 0.604791 0.02923
C_ C_ 0.100752 0.0223299 0.606693 -0.15533
C_ C_ 0.0674788 0.983072 0.604858 0.02923
C_ C_ 0.0989337 0.421564 0.608819 0.69207
C_ C_ 0.0934745 0.167312 0.595735 0.69661
C_ C_ 0.437363 0.162154 0.965659 0.18167
C_ C_ 0.478078 0.185157 0.987926 -0.15533
C_ C_ 0.472202 0.236918 0.999547 0.02923
C_ C_ 0.420432 0.25748 0.513408 -0.15533
C_ C_ 0.382371 0.235638 0.979405 0.18167
C_ C_ 0.264894 0.198928 0.84975 0.18167
C_ C_ 0.245737 0.2313 0.811314 -0.15533
C_ C_ 0.276649 0.235101 0.771582 0.02923
C_ C_ 0.330195 0.223417 0.778845 -0.15533
C_ C_ 0.349029 0.201191 0.825048 0.18167
C_ C_ 0.266473 0.110902 0.948821 0.69207
C_ C_ 0.225419 0.120046 0.492678 0.02923
C_ C_ 0.242526 0.125045 0.545801 -0.15533
C_ C_ 0.211158 0.11698 0.584194 -0.15533
C_ C_ 0.160762 0.102376 0.569941 0.02923
C_ C_ 0.145858 0.0957982 0.517516 -0.15533
C_ C_ 0.173353 0.108325 0.478289 0.02923
C_ C_ 0.15058 0.107847 0.927061 0.69207
C_ C_ 0.140211 0.119344 0.664062 0.69661
C_ C_ 0.37326 0.388726 0.881216 -0.30787
C_ C_ 0.119232 0.114572 0.606787 -0.30787
N_ N_ 0.147703 0.0618958 0.817599 -0.32189
N_ N_ 0.0476121 0.140538 0.811744 -0.32189
N_ N_ 0.0998837 0.313602 0.55618 -0.32189
N_ N_ 0.198084 0.308663 0.638818 -0.32189
N_ N_ 0.360773 0.444191 0.697149 -0.32189
N_ N_ 0.437105 0.354438 0.679235 -0.32189
N_ N_ 0.391615 0.187973 0.956735 -0.32189
N_ N_ 0.315926 0.182217 0.853838 -0.32189
O_ O_ 0.510151 0.0895307 0.895318 -0.63271
O_ O_ 0.0468508 0.0317424 0.839766 -0.57982
O_ O_ 0.403283 0.0987316 0.852375 -0.63271
O_ O_ 0.365286 0.0833434 0.919841 -0.57982
O_ O_ 0.241713 0.384935 0.586196 -0.63271
O_ O_ 0.20244 0.330365 0.530764 -0.57982
O_ O_ 0.355229 0.339628 0.590037 -0.63271
O_ O_ 0.366761 0.42176 0.586306 -0.57982
O_ O_ 0.989935 0.411429 0.596273 -0.63271
O_ O_ 0.441182 0.464079 0.651236 -0.57982
O_ O_ 0.0961585 0.393073 0.645671 -0.63271
O_ O_ 0.138744 0.410355 0.584296 -0.57982
O_ O_ 0.259249 0.0910009 0.901368 -0.63271
O_ O_ 0.296754 0.146417 0.958835 -0.57982
O_ O_ 0.157802 0.147628 0.902957 -0.63271
O_ O_ 0.110217 0.0833873 0.909332 -0.57982
F_ F_ 0.434552 0.324062 0.922274 -0.20885
F_ F_ 0.427363 0.316739 0.832951 -0.20885
F_ F_ 0.363507 0.301358 0.882995 -0.20885
F_ F_ 0.311578 0.432845 0.824185 -0.20885
F_ F_ 0.318879 0.352184 0.807905 -0.20885
F_ F_ 0.382653 0.39645 0.789857 -0.20885
F_ F_ 0.0605969 0.166246 0.551434 -0.20885
F_ F_ 0.0646152 0.19302 0.63055 -0.20885
F_ F_ 0.128941 0.199437 0.590884 -0.20885
F_ F_ 0.177457 0.0811259 0.679932 -0.20885
F_ F_ 0.162118 0.163226 0.679118 -0.20885
F_ F_ 0.102957 0.119398 0.696379 -0.20885
Zn Zn 0.0877512 0.581491 0.351897 0.83971
Zn Zn 0.163988 0.836047 0.0777672 0.83971
Zn Zn 0.4084 0.91618 0.151759 0.83971
Zn Zn 0.339911 0.65451 0.40984 0.83971
H_ H_ 0.165591 0.631641 0.307019 0.10394
H_ H_ 0.244975 0.602986 0.271982 0.10394
H_ H_ 0.210028 0.947112 0.274677 0.10394
H_ H_ 0.132677 0.482688 0.314822 0.10394
H_ H_ 0.520849 0.599299 0.25888 0.10394
H_ H_ 0.489412 0.674648 0.208921 0.10394
H_ H_ 0.0323678 0.771066 0.336402 0.10394
H_ H_ 0.0670302 0.694855 0.387012 0.10394
H_ H_ 0.0355241 0.957801 0.396932 0.10394
H_ H_ 0.471502 0.880891 0.354145 0.10394
H_ H_ 0.351749 0.992968 0.405676 0.10394
H_ H_ 0.088641 0.788594 0.128477 0.10394
H_ H_ 0.506623 0.783369 0.100086 0.10394
H_ H_ 0.0384669 0.793096 0.45694 0.10394
H_ H_ 0.132267 0.802346 0.9754 0.10394
H_ H_ 0.216732 0.742779 0.0916536 0.10394
H_ H_ 0.254058 0.69419 0.169302 0.10394
H_ H_ 0.224548 0.834916 0.260992 0.10394
H_ H_ 0.195165 0.876437 0.181391 0.10394
H_ H_ 0.208405 0.886031 0.450833 0.10394
H_ H_ 0.254595 0.91494 0.387964 0.10394
H_ H_ 0.390857 0.906042 0.488968 0.10394
H_ H_ 0.300295 0.942502 0.127396 0.10394
H_ H_ 0.230356 0.973471 0.175663 0.10394
H_ H_ 0.335724 0.552329 0.269496 0.10394
H_ H_ 0.409809 -0.018538999999999972 0.245132 0.10394
H_ H_ 0.0077781 0.885807 0.213405 0.10394
H_ H_ 0.0501238 0.816632 0.254157 0.10394
H_ H_ 0.411432 0.753199 0.237367 0.10394
H_ H_ 0.372171 0.833697 0.193912 0.10394
H_ H_ 0.459334 0.548842 0.119605 0.10394
H_ H_ 0.0123083 0.618543 0.103936 0.10394
H_ H_ 0.135744 0.499329 0.0886743 0.10394
H_ H_ 0.445189 0.659477 0.388149 0.10394
H_ H_ 0.018311 0.687743 0.466444 0.10394
H_ H_ 0.425906 0.784717 0.050267 0.10394
H_ H_ 0.344937 0.731665 0.496031 0.10394
H_ H_ 0.24304 0.712821 0.388876 0.10394
H_ H_ 0.197488 0.74048 0.306889 0.10394
H_ H_ 0.338413 0.721763 0.237951 0.10394
H_ H_ 0.381197 0.682195 0.318841 0.10394
H_ H_ 0.290455 0.596127 0.0563423 0.10394
H_ H_ 0.236275 0.576034 0.11693 0.10394
H_ H_ 0.110687 0.580773 0.0059528 0.10394
C_ C_ 0.179283 0.592379 0.305344 0.18167
C_ C_ 0.221347 0.575984 0.280232 -0.15533
C_ C_ 0.237478 0.523169 0.276811 0.02923
C_ C_ 0.2022 0.989093 0.286168 -0.15533
C_ C_ 0.160644 0.508949 0.311113 0.18167
C_ C_ 0.0355878 0.63461 0.273475 0.18167
C_ C_ 0.50494 0.680335 0.248001 -0.15533
C_ C_ 0.0131569 0.725362 0.266102 0.02923
C_ C_ 0.0279536 0.732914 0.318713 -0.15533
C_ C_ 0.053417 0.69021 0.346618 0.18167
C_ C_ 0.00230703 0.544536 0.366374 0.69207
C_ C_ 0.468421 0.00839058 0.369021 0.02923
C_ C_ 0.482634 0.956576 0.359212 -0.15533
C_ C_ 0.452469 0.919485 0.364162 -0.15533
C_ C_ 0.404498 0.92992 0.385832 0.02923
C_ C_ 0.390082 0.982881 0.397694 -0.15533
C_ C_ 0.41944 0.0216482 0.384661 0.02923
C_ C_ 0.394479 0.570918 0.375992 0.69207
C_ C_ 0.396297 0.832524 0.390475 0.69661
C_ C_ 0.0796535 0.786007 0.0853682 0.18167
C_ C_ 0.0334162 0.764396 0.0627108 -0.15533
C_ C_ 0.0191137 0.764697 0.00813725 0.02923
C_ C_ 0.0512811 0.788085 0.496705 -0.15533
C_ C_ 0.101761 0.796684 0.00012999999999996348 0.18167
C_ C_ 0.219912 0.762293 0.127686 0.18167
C_ C_ 0.239806 0.734947 0.171642 -0.15533
C_ C_ 0.242292 0.758652 0.221003 0.02923
C_ C_ 0.223577 0.812862 0.223413 -0.15533
C_ C_ 0.207939 0.838831 0.178042 0.18167
C_ C_ 0.246804 0.860441 0.0429282 0.69207
C_ C_ 0.269472 0.883573 0.509102 0.02923
C_ C_ 0.248336 0.884739 0.458729 -0.15533
C_ C_ 0.276774 0.896415 0.419872 -0.15533
C_ C_ 0.330785 0.894016 0.428565 0.02923
C_ C_ 0.350162 0.899359 0.480101 -0.15533
C_ C_ 0.322618 0.891095 0.519031 0.02923
C_ C_ 0.359179 0.8829 0.0718992 0.69207
C_ C_ 0.337867 0.887743 0.334374 0.69661
C_ C_ 0.310041 0.955561 0.165935 0.18167
C_ C_ 0.268373 0.973412 0.194136 -0.15533
C_ C_ 0.276966 0.9981236 0.241564 0.02923
C_ C_ 0.328799 0.516272 0.250485 -0.15533
C_ C_ 0.370257 0.976512 0.233754 0.18167
C_ C_ 0.493295 0.851959 0.197779 0.18167
C_ C_ 0.00905722 0.813462 0.238969 -0.15533
C_ C_ 0.48709 0.773811 0.237918 0.02923
C_ C_ 0.43541 0.779149 0.22273 -0.15533
C_ C_ 0.413424 0.825327 0.201776 0.18167
C_ C_ 0.488194 0.951187 0.11856 0.69207
C_ C_ 0.012707 0.491171 0.116958 0.02923
C_ C_ -0.0036530000000000173 0.5444 0.116957 -0.15533
C_ C_ 0.0292623 0.579865 0.105128 -0.15533
C_ C_ 0.0812301 0.564402 0.0976813 0.02923
C_ C_ 0.0960873 0.512618 0.0947076 -0.15533
C_ C_ 0.0662586 0.47637 0.10947 0.02923
C_ C_ 0.104503 0.912299 0.107244 0.69207
C_ C_ 0.103806 0.656346 0.103155 0.69661
C_ C_ 0.437919 0.684068 0.423082 0.18167
C_ C_ 0.478057 0.709105 0.445678 -0.15533
C_ C_ 0.471559 0.74164 0.489286 0.02923
C_ C_ 0.433586 0.756593 0.0188273 -0.15533
C_ C_ 0.383954 0.723813 0.484576 0.18167
C_ C_ 0.263464 0.708216 0.353466 0.18167
C_ C_ 0.239183 0.727507 0.308886 -0.15533
C_ C_ 0.264525 0.72908 0.264555 0.02923
C_ C_ 0.315857 0.711826 0.26777 -0.15533
C_ C_ 0.339903 0.692009 0.313605 0.18167
C_ C_ 0.260249 0.631801 0.45409 0.69207
C_ C_ 0.229602 0.604603 0.992757 0.02923
C_ C_ 0.250186 0.598092 0.0443072 -0.15533
C_ C_ 0.216553 0.594847 0.0812415 -0.15533
C_ C_ 0.163869 0.591211 0.0699182 0.02923
C_ C_ 0.146896 0.5919 0.0170659 -0.15533
C_ C_ 0.176883 0.604465 0.979579 0.02923
C_ C_ 0.147236 0.612534 0.432246 0.69207
C_ C_ 0.147716 0.598269 0.164888 0.69661
C_ C_ 0.368507 0.887038 0.387142 -0.30787
C_ C_ 0.125656 0.600633 0.109158 -0.30787
N_ N_ 0.147798 0.558514 0.3185 -0.32189
N_ N_ 0.0548987 0.641825 0.323033 -0.32189
N_ N_ 0.113907 0.798296 0.0524817 -0.32189
N_ N_ 0.206073 0.812814 0.132249 -0.32189
N_ N_ 0.358378 0.950486 0.187523 -0.32189
N_ N_ 0.442726 0.857634 0.185088 -0.32189
N_ N_ 0.391396 0.693005 0.441123 -0.32189
N_ N_ 0.312323 0.685949 0.354086 -0.32189
O_ O_ 0.502472 0.587728 0.400864 -0.63271
O_ O_ 0.047571 0.528809 0.348917 -0.57982
O_ O_ 0.398235 0.593472 0.334282 -0.63271
O_ O_ 0.367567 0.591459 0.411457 -0.57982
O_ O_ 0.243385 0.897046 0.0786017 -0.63271
O_ O_ 0.209855 0.831198 0.0305854 -0.57982
O_ O_ 0.347186 0.851756 0.104023 -0.63271
O_ O_ 0.386136 0.919239 0.0863698 -0.57982
O_ O_ 0.999428 0.897454 0.101787 -0.63271
O_ O_ 0.455609 0.961098 0.15206 -0.57982
O_ O_ 0.106808 0.887277 0.150009 -0.63271
O_ O_ 0.133214 0.895598 0.0706055 -0.57982
O_ O_ 0.255036 0.604784 0.409415 -0.63271
O_ O_ 0.29957 0.659695 0.462738 -0.57982
O_ O_ 0.155056 0.647509 0.401179 -0.63271
O_ O_ 0.113014 0.581624 0.41764 -0.57982
F_ F_ 0.436216 0.829171 0.428582 -0.20885
F_ F_ 0.418304 0.814617 0.344158 -0.20885
F_ F_ 0.365769 0.795006 0.396935 -0.20885
F_ F_ 0.306985 0.932687 0.329024 -0.20885
F_ F_ 0.309244 0.848448 0.323893 -0.20885
F_ F_ 0.368275 0.881927 0.293032 -0.20885
F_ F_ 0.0708855 0.659181 0.057936 -0.20885
F_ F_ 0.074605 0.675375 0.142773 -0.20885
F_ F_ 0.138243 0.688106 0.0951587 -0.20885
F_ F_ 0.174048 0.550491 0.171443 -0.20885
F_ F_ 0.181486 0.634451 0.184118 -0.20885
F_ F_ 0.107795 0.596717 0.194591 -0.20885
Zn Zn 0.0894651 0.585918 0.846235 0.83971
Zn Zn 0.160737 0.851441 0.595313 0.83971
Zn Zn 0.411599 0.916774 0.652576 0.83971
Zn Zn 0.342659 0.657876 0.925937 0.83971
H_ H_ 0.181239 0.628022 0.82352 0.10394
H_ H_ 0.260455 0.596196 0.788537 0.10394
H_ H_ 0.210235 0.947391 0.795507 0.10394
H_ H_ 0.130134 0.483589 0.810928 0.10394
H_ H_ 0.516114 0.599574 0.75967 0.10394
H_ H_ 0.48196 0.6751 0.711649 0.10394
H_ H_ 0.0416735 0.776725 0.82102 0.10394
H_ H_ 0.0811193 0.706988 0.869696 0.10394
H_ H_ 0.039713 0.955267 0.886883 0.10394
H_ H_ 0.485357 0.879542 0.874441 0.10394
H_ H_ 0.36245 0.990152 0.919986 0.10394
H_ H_ 0.0939281 0.790931 0.6409 0.10394
H_ H_ 0.494357 0.77848 0.588021 0.10394
H_ H_ 0.0533115 0.773284 0.937566 0.10394
H_ H_ 0.113775 0.836425 0.493351 0.10394
H_ H_ 0.225575 0.760718 0.604985 0.10394
H_ H_ 0.261404 0.710814 0.68078 0.10394
H_ H_ 0.213126 0.843919 0.781943 0.10394
H_ H_ 0.16747 0.879483 0.703662 0.10394
H_ H_ 0.226967 0.855501 0.939745 0.10394
H_ H_ 0.27656 0.881923 0.875139 0.10394
H_ H_ 0.404938 0.896512 0.991512 0.10394
H_ H_ 0.310789 0.895658 0.667462 0.10394
H_ H_ 0.235711 0.941456 0.707763 0.10394
H_ H_ 0.335263 0.546817 0.776347 0.10394
H_ H_ 0.404874 0.00597563 0.730306 0.10394
H_ H_ 0.0127118 0.889833 0.704687 0.10394
H_ H_ 0.0586022 0.804993 0.725859 0.10394
H_ H_ 0.412012 0.75868 0.740807 0.10394
H_ H_ 0.375564 0.820326 0.681153 0.10394
H_ H_ 0.457884 0.558884 0.630307 0.10394
H_ H_ 0.0270397 0.621082 0.623236 0.10394
H_ H_ 0.151058 0.502008 0.604458 0.10394
H_ H_ 0.444114 0.660396 0.902512 0.10394
H_ H_ 0.0160747 0.693124 0.932023 0.10394
H_ H_ 0.42125 0.769293 0.546015 0.10394
H_ H_ 0.355254 0.744271 0.00887195 0.10394
H_ H_ 0.238228 0.688374 0.889798 0.10394
H_ H_ 0.194261 0.724001 0.81468 0.10394
H_ H_ 0.33733 0.734377 0.755169 0.10394
H_ H_ 0.379807 0.704846 0.837476 0.10394
H_ H_ 0.292949 0.620098 0.550943 0.10394
H_ H_ 0.250515 0.61122 0.622186 0.10394
H_ H_ 0.109992 0.590449 0.516629 0.10394
C_ C_ 0.185986 0.588968 0.808228 0.18167
C_ C_ 0.232035 0.569863 0.789997 -0.15533
C_ C_ 0.238567 0.520213 0.773529 0.02923
C_ C_ 0.203229 0.987714 0.794751 -0.15533
C_ C_ 0.156936 0.507299 0.801598 0.18167
C_ C_ 0.029015 0.635622 0.773855 0.18167
C_ C_ 0.503365 0.680835 0.748545 -0.15533
C_ C_ 0.0143574 0.72619 0.756218 0.02923
C_ C_ 0.0392205 0.737193 0.805401 -0.15533
C_ C_ 0.0627101 0.6966 0.834097 0.18167
C_ C_ 0.00865275 0.550281 0.869969 0.69207
C_ C_ 0.476399 0.00824288 0.875252 0.02923
C_ C_ 0.497745 0.95562 0.875042 -0.15533
C_ C_ 0.469456 0.91826 0.883653 -0.15533
C_ C_ 0.420512 0.927991 0.898689 0.02923
C_ C_ 0.399618 0.979548 0.904814 -0.15533
C_ C_ 0.427317 0.0189085 0.888891 0.02923
C_ C_ 0.394109 0.57584 0.892788 0.69207
C_ C_ 0.409277 0.829206 0.885098 0.69661
C_ C_ 0.0791357 0.79311 0.601202 0.18167
C_ C_ 0.0311342 0.7768 0.583431 -0.15533
C_ C_ 0.0206692 0.768232 0.530577 0.02923
C_ C_ 0.0555173 0.780661 0.976799 -0.15533
C_ C_ 0.0949598 0.812724 0.518999 0.18167
C_ C_ 0.218559 0.773613 0.645109 0.18167
C_ C_ 0.243467 0.747282 0.686617 -0.15533
C_ C_ 0.236176 0.769897 0.73682 0.02923
C_ C_ 0.211442 0.819163 0.744807 -0.15533
C_ C_ 0.183812 0.83931 0.700945 0.18167
C_ C_ 0.238533 0.874539 0.549469 0.69207
C_ C_ 0.285677 0.865136 0.00396665 0.02923
C_ C_ 0.265123 0.868348 0.952161 -0.15533
C_ C_ 0.294239 0.881414 0.914783 -0.15533
C_ C_ 0.34577 0.887738 0.927221 0.02923
C_ C_ 0.364415 0.89082 0.980136 -0.15533
C_ C_ 0.334407 0.882427 0.0180127 0.02923
C_ C_ 0.350131 0.887142 0.5707 0.69207
C_ C_ 0.362067 0.891388 0.832351 0.69661
C_ C_ 0.316772 0.92683 0.691243 0.18167
C_ C_ 0.27528 0.952255 0.716849 -0.15533
C_ C_ 0.281678 0.996619 0.749535 0.02923
C_ C_ 0.33001 0.514085 0.752649 -0.15533
C_ C_ 0.365584 0.993682 0.722005 0.18167
C_ C_ 0.495361 0.854068 0.703089 0.18167
C_ C_ 0.0170017 0.809309 0.717935 -0.15533
C_ C_ 0.48828 0.775107 0.741673 0.02923
C_ C_ 0.435989 0.779256 0.725511 -0.15533
C_ C_ 0.415311 0.818822 0.694345 0.18167
C_ C_ 0.491046 0.952481 0.631011 0.69207
C_ C_ 0.0251853 0.491128 0.620496 0.02923
C_ C_ 1.0084151 0.542956 0.620673 -0.15533
C_ C_ 0.0433358 0.579948 0.618914 -0.15533
C_ C_ 0.0947645 0.565308 0.612826 0.02923
C_ C_ 0.109473 0.512904 0.606628 -0.15533
C_ C_ 0.0766265 0.476104 0.611196 0.02923
C_ C_ 0.0896425 0.929936 0.607808 0.69207
C_ C_ 0.115043 0.662175 0.621062 0.69661
C_ C_ 0.438809 0.689988 0.934302 0.18167
C_ C_ 0.482045 0.711027 0.956179 -0.15533
C_ C_ 0.479811 0.746065 -0.00022900000000003473 0.02923
C_ C_ 0.423816 0.75004 0.508906 -0.15533
C_ C_ 0.391135 0.735762 0.993669 0.18167
C_ C_ 0.260549 0.700982 0.86203 0.18167
C_ C_ 0.234738 0.721128 0.819027 -0.15533
C_ C_ 0.263137 0.740375 0.782344 0.02923
C_ C_ 0.315259 0.728682 0.785113 -0.15533
C_ C_ 0.339465 0.706475 0.831402 0.18167
C_ C_ 0.262426 0.617256 0.955412 0.69207
C_ C_ 0.225667 0.625774 0.495729 0.02923
C_ C_ 0.250193 0.62378 0.545255 -0.15533
C_ C_ 0.2249 0.613121 0.585928 -0.15533
C_ C_ 0.172002 0.601826 0.576674 0.02923
C_ C_ 0.1504 0.596238 0.526197 -0.15533
C_ C_ 0.174953 0.609176 0.483981 0.02923
C_ C_ 0.154314 0.610886 0.928308 0.69207
C_ C_ 0.163933 0.601863 0.673065 0.69661
C_ C_ 0.385393 0.88432 0.887598 -0.30787
C_ C_ 0.136361 0.604661 0.618768 -0.30787
N_ N_ 0.146783 0.559493 0.807201 -0.32189
N_ N_ 0.0597516 0.646852 0.816137 -0.32189
N_ N_ 0.108779 0.811289 0.569648 -0.32189
N_ N_ 0.193574 0.82067 0.653867 -0.32189
N_ N_ 0.361093 0.948874 0.692748 -0.32189
N_ N_ 0.44598 0.85434 0.680323 -0.32189
N_ N_ 0.394392 0.701835 0.952671 -0.32189
N_ N_ 0.311901 0.692192 0.867232 -0.32189
O_ O_ 0.502633 0.593131 0.887081 -0.63271
O_ O_ 0.0435227 0.536744 0.840773 -0.57982
O_ O_ 0.380615 0.595737 0.848877 -0.63271
O_ O_ 0.375655 0.596301 0.934323 -0.57982
O_ O_ 0.243469 0.899961 0.592888 -0.63271
O_ O_ 0.200512 0.844468 0.542187 -0.57982
O_ O_ 0.354478 0.842 0.592976 -0.63271
O_ O_ 0.379371 0.923334 0.588658 -0.57982
O_ O_ 0.978103 0.92214 0.594286 -0.63271
O_ O_ 0.455881 0.962031 0.662907 -0.57982
O_ O_ 0.0871435 0.904356 0.649026 -0.63271
O_ O_ 0.126854 0.91158 0.57902 -0.57982
O_ O_ 0.272108 0.584487 0.916048 -0.63271
O_ O_ 0.294125 0.652382 0.965949 -0.57982
O_ O_ 0.152795 0.654602 0.907799 -0.63271
O_ O_ 0.122518 0.579031 0.905591 -0.57982
F_ F_ 0.449091 0.82089 0.925371 -0.20885
F_ F_ 0.432014 0.81107 0.840718 -0.20885
F_ F_ 0.374613 0.796238 0.890817 -0.20885
F_ F_ 0.332835 0.93516 0.828168 -0.20885
F_ F_ 0.331552 0.852533 0.812286 -0.20885
F_ F_ 0.398056 0.895723 0.80019 -0.20885
F_ F_ 0.080712 0.670142 0.577687 -0.20885
F_ F_ 0.0897479 0.678897 0.662271 -0.20885
F_ F_ 0.153641 0.695168 0.617483 -0.20885
F_ F_ 0.199759 0.558926 0.671166 -0.20885
F_ F_ 0.188299 0.643224 0.694885 -0.20885
F_ F_ 0.129806 0.590689 0.707776 -0.20885
Zn Zn 0.583969 0.0844896 0.341462 0.83971
Zn Zn 0.66066 0.343945 0.0780045 0.83971
Zn Zn 0.902299 0.420711 0.155659 0.83971
Zn Zn 0.835518 0.158697 0.41909 0.83971
H_ H_ 0.663404 0.134498 0.294672 0.10394
H_ H_ 0.745993 0.102421 0.270959 0.10394
H_ H_ 0.715796 0.45746 0.282807 0.10394
H_ H_ 0.629115 0.985548 0.318279 0.10394
H_ H_ 0.0368728 0.101037 0.245809 0.10394
H_ H_ 0.990766 0.17607 0.202509 0.10394
H_ H_ 0.516683 0.266595 0.33491 0.10394
H_ H_ 0.560305 0.193619 0.378376 0.10394
H_ H_ 0.531711 0.447279 0.371576 0.10394
H_ H_ 0.970471 0.376816 0.384391 0.10394
H_ H_ 0.84336 0.492931 0.391575 0.10394
H_ H_ 0.567778 0.315342 0.129112 0.10394
H_ H_ 0.996393 0.266865 0.105317 0.10394
H_ H_ 0.529776 0.298943 0.452726 0.10394
H_ H_ 0.629608 0.291911 0.98662 0.10394
H_ H_ 0.708826 0.244148 0.100174 0.10394
H_ H_ 0.745334 0.203668 0.180579 0.10394
H_ H_ 0.724503 0.344602 0.262679 0.10394
H_ H_ 0.686366 0.385202 0.186041 0.10394
H_ H_ 0.707846 0.364103 0.443347 0.10394
H_ H_ 0.756315 0.38056 0.377075 0.10394
H_ H_ 0.887057 0.403115 0.486664 0.10394
H_ H_ 0.794888 0.408395 0.159888 0.10394
H_ H_ 0.723553 0.475173 0.179385 0.10394
H_ H_ 0.834939 0.0507174 0.282655 0.10394
H_ H_ 0.899586 0.508483 0.235689 0.10394
H_ H_ 0.508128 0.379654 0.194248 0.10394
H_ H_ 0.541326 0.311652 0.250497 0.10394
H_ H_ 0.914327 0.245711 0.219951 0.10394
H_ H_ 0.867032 0.328223 0.184465 0.10394
H_ H_ 0.975046 0.0427809 0.13561 0.10394
H_ H_ 0.51488 0.115298 0.0992076 0.10394
H_ H_ 0.644292 0.00479927 0.103353 0.10394
H_ H_ 0.936275 0.170535 0.39564 0.10394
H_ H_ 0.514758 0.19293 0.45298 0.10394
H_ H_ 0.915124 0.264103 0.0507976 0.10394
H_ H_ 0.846136 0.230462 0.510727 0.10394
H_ H_ 0.733823 0.207358 0.394132 0.10394
H_ H_ 0.686365 0.241959 0.317277 0.10394
H_ H_ 0.82349 0.23642 0.249381 0.10394
H_ H_ 0.870747 0.188225 0.324131 0.10394
H_ H_ 0.788992 0.117065 0.0526765 0.10394
H_ H_ 0.738916 0.109886 0.119963 0.10394
H_ H_ 0.608454 0.0978385 0.012896 0.10394
C_ C_ 0.67583 0.0935805 0.295777 0.18167
C_ C_ 0.721024 0.0758169 0.279167 -0.15533
C_ C_ 0.732251 0.0223805 0.271417 0.02923
C_ C_ 0.700404 0.498507 0.28173 -0.15533
C_ C_ 0.657267 0.00953084 0.311069 0.18167
C_ C_ 0.516159 0.131771 0.271191 0.18167
C_ C_ 0.0116569 0.181098 0.237962 -0.15533
C_ C_ 0.495408 0.222764 0.26371 0.02923
C_ C_ 0.517567 0.230501 0.31317 -0.15533
C_ C_ 0.542685 0.187932 0.338858 0.18167
C_ C_ 0.505915 0.0460733 0.365898 0.69207
C_ C_ 0.966876 0.504893 0.376999 0.02923
C_ C_ 0.984959 0.455035 0.372836 -0.15533
C_ C_ 0.952994 0.415787 0.380993 -0.15533
C_ C_ 0.901426 0.42945 0.386827 0.02923
C_ C_ 0.882271 0.481432 0.389225 -0.15533
C_ C_ 0.91908 0.520521 0.391558 0.02923
C_ C_ 0.896312 0.0733512 0.39114 0.69207
C_ C_ 0.890029 0.329455 0.389307 0.69661
C_ C_ 0.56444 0.302952 0.0894574 0.18167
C_ C_ 0.519799 0.28021 0.0692109 -0.15533
C_ C_ 0.516648 0.26408 0.0180599 0.02923
C_ C_ 0.541954 0.29125 0.491214 -0.15533
C_ C_ 0.599665 0.287848 0.0103165 0.18167
C_ C_ 0.714547 0.26667 0.137119 0.18167
C_ C_ 0.730485 0.241487 0.18078 -0.15533
C_ C_ 0.729693 0.267532 0.229641 0.02923
C_ C_ 0.712391 0.319268 0.229591 -0.15533
C_ C_ 0.697665 0.343391 0.183531 0.18167
C_ C_ 0.737884 0.368034 0.0385487 0.69207
C_ C_ 0.769662 0.374353 0.507689 0.02923
C_ C_ 0.748211 0.372701 0.453946 -0.15533
C_ C_ 0.7756 0.38267 0.415244 -0.15533
C_ C_ 0.827831 0.39236 0.426342 0.02923
C_ C_ 0.849501 0.393263 0.47838 -0.15533
C_ C_ 0.818918 0.386599 0.517677 0.02923
C_ C_ 0.848259 0.387167 0.0722346 0.69207
C_ C_ 0.840059 0.384231 0.328076 0.69661
C_ C_ 0.804303 0.44358 0.18263 0.18167
C_ C_ 0.763694 0.479675 0.193801 -0.15533
C_ C_ 0.772762 0.515425 0.234811 0.02923
C_ C_ 0.828124 0.0154466 0.256901 -0.15533
C_ C_ 0.862126 0.496184 0.228145 0.18167
C_ C_ 0.984986 0.360222 0.202484 0.18167
C_ C_ 0.506188 0.306869 0.226488 -0.15533
C_ C_ 0.985959 0.275402 0.235695 0.02923
C_ C_ 0.932835 0.278587 0.219851 -0.15533
C_ C_ 0.907055 0.323648 0.195927 0.18167
C_ C_ 0.976493 0.456134 0.126098 0.69207
C_ C_ 0.521827 0.989019 0.106128 0.02923
C_ C_ 0.500359 0.039518 0.102613 -0.15533
C_ C_ 0.533004 0.0780175 0.10651 -0.15533
C_ C_ 0.586016 0.0680397 0.103203 0.02923
C_ C_ 0.605008 0.0169727 0.101917 -0.15533
C_ C_ 0.574357 0.976214 0.100673 0.02923
C_ C_ 0.593419 0.421651 0.101088 0.69207
C_ C_ 0.600262 0.165627 0.112577 0.69661
C_ C_ 0.932243 0.193584 0.42817 0.18167
C_ C_ 0.974467 0.211078 0.454324 -0.15533
C_ C_ 0.968937 0.245156 0.49538 0.02923
C_ C_ 0.922912 0.240231 0.0187551 -0.15533
C_ C_ 0.882556 0.223771 0.49362 0.18167
C_ C_ 0.753517 0.216848 0.362462 0.18167
C_ C_ 0.728512 0.238564 0.318595 -0.15533
C_ C_ 0.754749 0.2417 0.276658 0.02923
C_ C_ 0.804938 0.229309 0.280608 -0.15533
C_ C_ 0.830922 0.201963 0.322786 0.18167
C_ C_ 0.761445 0.128875 0.454215 0.69207
C_ C_ 0.727788 0.112142 0.991516 0.02923
C_ C_ 0.749135 0.110581 0.0428142 -0.15533
C_ C_ 0.719954 0.108724 0.082411 -0.15533
C_ C_ 0.666407 0.104233 0.0747129 0.02923
C_ C_ 0.648902 0.0998601 0.0225859 -0.15533
C_ C_ 0.677802 0.10496 0.979971 0.02923
C_ C_ 0.648391 0.111203 0.420841 0.69207
C_ C_ 0.648117 0.105736 0.170497 0.69661
C_ C_ 0.865515 0.385966 0.384673 -0.30787
C_ C_ 0.625025 0.109269 0.114065 -0.30787
N_ N_ 0.642739 0.0606366 0.308016 -0.32189
N_ N_ 0.547074 0.141364 0.315055 -0.32189
N_ N_ 0.603188 0.304025 0.0605563 -0.32189
N_ N_ 0.695047 0.315139 0.138492 -0.32189
N_ N_ 0.85274 0.453448 0.199806 -0.32189
N_ N_ 0.933361 0.361619 0.189276 -0.32189
N_ N_ 0.886856 0.195478 0.449517 -0.32189
N_ N_ 0.802892 0.193589 0.360934 -0.32189
O_ O_ 0.00834004 0.0931129 0.39857 -0.63271
O_ O_ 0.54058 0.038354 0.332801 -0.57982
O_ O_ 0.892879 0.0960842 0.347274 -0.63271
O_ O_ 0.867361 0.0930908 0.426709 -0.57982
O_ O_ 0.746503 0.383109 0.0867019 -0.63271
O_ O_ 0.70224 0.336518 0.0255124 -0.57982
O_ O_ 0.858277 0.342362 0.0964385 -0.63271
O_ O_ 0.866799 0.428477 0.0922494 -0.57982
O_ O_ 0.484463 0.403938 0.0999844 -0.63271
O_ O_ 0.945054 0.46629 0.162223 -0.57982
O_ O_ 0.596634 0.398582 0.144873 -0.63271
O_ O_ 0.629706 0.408524 0.0704843 -0.57982
O_ O_ 0.762586 0.109742 0.409091 -0.63271
O_ O_ 0.794487 0.160901 0.469047 -0.57982
O_ O_ 0.648861 0.150925 0.391193 -0.63271
O_ O_ 0.611934 0.081467 0.408324 -0.57982
F_ F_ 0.921711 0.326282 0.43271 -0.20885
F_ F_ 0.915325 0.309083 0.348298 -0.20885
F_ F_ 0.853632 0.29577 0.39347 -0.20885
F_ F_ 0.809339 0.427485 0.318865 -0.20885
F_ F_ 0.813861 0.340379 0.314634 -0.20885
F_ F_ 0.876041 0.378887 0.293005 -0.20885
F_ F_ 0.571225 0.170103 0.0642797 -0.20885
F_ F_ 0.567672 0.180699 0.149176 -0.20885
F_ F_ 0.637956 0.200906 0.111881 -0.20885
F_ F_ 0.676964 0.0581634 0.176274 -0.20885
F_ F_ 0.682059 0.140603 0.187716 -0.20885
F_ F_ 0.6124 0.113293 0.206347 -0.20885
Zn Zn 0.589092 0.0851547 0.851928 0.83971
Zn Zn 0.654095 0.351038 0.58653 0.83971
Zn Zn 0.906224 0.41431 0.65204 0.83971
Zn Zn 0.835963 0.157402 0.91407 0.83971
H_ H_ 0.667507 0.13293 0.803927 0.10394
H_ H_ 0.746808 0.0956032 0.766203 0.10394
H_ H_ 0.710655 0.441312 0.7832 0.10394
H_ H_ 0.63311 0.982617 0.831078 0.10394
H_ H_ 0.000837945 0.0970514 0.766082 0.10394
H_ H_ 0.964695 0.162961 0.708999 0.10394
H_ H_ 0.518243 0.264243 0.829309 0.10394
H_ H_ 0.559656 0.187279 0.875025 0.10394
H_ H_ 0.524087 0.448016 0.846665 0.10394
H_ H_ 0.988471 0.382456 0.896964 0.10394
H_ H_ 0.858169 0.494131 0.908796 0.10394
H_ H_ 0.566237 0.318288 0.636517 0.10394
H_ H_ -0.00115387 0.264533 0.594251 0.10394
H_ H_ 0.554532 0.249878 0.949161 0.10394
H_ H_ 0.615759 0.321111 0.488526 0.10394
H_ H_ 0.707924 0.266682 0.595719 0.10394
H_ H_ 0.760495 0.214616 0.660549 0.10394
H_ H_ 0.715706 0.336486 0.770799 0.10394
H_ H_ 0.670433 0.381452 0.702412 0.10394
H_ H_ 0.720657 0.371356 0.939541 0.10394
H_ H_ 0.779568 0.371063 0.875926 0.10394
H_ H_ 0.89664 0.403082 0.994994 0.10394
H_ H_ 0.802934 0.400525 0.658206 0.10394
H_ H_ 0.728794 0.465113 0.683062 0.10394
H_ H_ 0.831023 0.0444845 0.775323 0.10394
H_ H_ 0.909083 0.490741 0.74867 0.10394
H_ H_ 0.502917 0.392646 0.698761 0.10394
H_ H_ 0.550369 0.316544 0.751531 0.10394
H_ H_ 0.904883 0.256879 0.741931 0.10394
H_ H_ 0.8665 0.328799 0.691514 0.10394
H_ H_ 0.962905 0.0555054 0.638164 0.10394
H_ H_ 0.514672 0.119711 0.614184 0.10394
H_ H_ 0.643734 0.00948337 0.589736 0.10394
H_ H_ 0.937597 0.165617 0.893514 0.10394
H_ H_ 0.516117 0.167012 0.985318 0.10394
H_ H_ 0.919312 0.274671 0.55102 0.10394
H_ H_ 0.847163 0.224079 0.00763767 0.10394
H_ H_ 0.727445 0.178009 0.865881 0.10394
H_ H_ 0.689547 0.223167 0.791276 0.10394
H_ H_ 0.835351 0.217902 0.740256 0.10394
H_ H_ 0.874512 0.184394 0.826295 0.10394
H_ H_ 0.785621 0.108278 0.553691 0.10394
H_ H_ 0.732939 0.093437 0.615579 0.10394
H_ H_ 0.600261 0.103687 0.50451 0.10394
C_ C_ 0.675919 0.0915377 0.799543 0.18167
C_ C_ 0.719959 0.0710514 0.776883 -0.15533
C_ C_ 0.732063 0.0175683 0.770888 0.02923
C_ C_ 0.699582 0.484057 0.787339 -0.15533
C_ C_ 0.656591 0.00493891 0.809639 0.18167
C_ C_ 0.530766 0.130074 0.764343 0.18167
C_ C_ -0.009990000000000054 0.172621 0.742652 -0.15533
C_ C_ 0.51296 0.223943 0.757036 0.02923
C_ C_ 0.527695 0.228278 0.808612 -0.15533
C_ C_ 0.545849 0.184995 0.836206 0.18167
C_ C_ 0.509493 0.0478738 0.864981 0.69207
C_ C_ 0.976385 0.509468 0.88062 0.02923
C_ C_ 1.000086798 0.458075 0.888703 -0.15533
C_ C_ 0.97032 0.419641 0.895232 -0.15533
C_ C_ 0.915895 0.430891 0.900132 0.02923
C_ C_ 0.895972 0.482721 0.895643 -0.15533
C_ C_ 0.924042 0.521188 0.885532 0.02923
C_ C_ 0.89236 0.071584 0.879712 0.69207
C_ C_ 0.907309 0.333716 0.897257 0.69661
C_ C_ 0.564869 0.304832 0.596536 0.18167
C_ C_ 0.52444 0.278135 0.576684 -0.15533
C_ C_ 0.513304 0.269179 0.522478 0.02923
C_ C_ 0.556279 0.267278 0.987749 -0.15533
C_ C_ 0.588037 0.311993 0.512167 0.18167
C_ C_ 0.715172 0.278725 0.63454 0.18167
C_ C_ 0.740692 0.250891 0.67336 -0.15533
C_ C_ 0.739731 0.268966 0.723225 0.02923
C_ C_ 0.715506 0.318291 0.732782 -0.15533
C_ C_ 0.689391 0.34579 0.692701 0.18167
C_ C_ 0.73433 0.371443 0.547601 0.69207
C_ C_ 0.775937 0.376679 1.00281408 0.02923
C_ C_ 0.759707 0.368284 0.950968 -0.15533
C_ C_ 0.790141 0.379384 0.914698 -0.15533
C_ C_ 0.839763 0.394025 0.928831 0.02923
C_ C_ 0.856118 0.402555 0.981223 -0.15533
C_ C_ 0.826098 0.388609 0.0178762 0.02923
C_ C_ 0.844248 0.384879 0.570343 0.69207
C_ C_ 0.858133 0.389906 0.831986 0.69661
C_ C_ 0.809413 0.434918 0.682377 0.18167
C_ C_ 0.767416 0.462683 0.70186 -0.15533
C_ C_ 0.776347 0.497268 0.742332 0.02923
C_ C_ 0.823943 0.0126861 0.749547 -0.15533
C_ C_ 0.869071 0.481108 0.737654 0.18167
C_ C_ 0.988466 0.338082 0.678421 0.18167
C_ C_ 0.51217 0.315469 0.727537 -0.15533
C_ C_ 0.979935 0.266423 0.728491 0.02923
C_ C_ 0.927906 0.27944 0.722491 -0.15533
C_ C_ 0.90756 0.321807 0.697706 0.18167
C_ C_ 0.985155 0.454675 0.622715 0.69207
C_ C_ 0.525265 0.990933 0.621109 0.02923
C_ C_ 0.505757 0.0427484 0.626517 -0.15533
C_ C_ 0.534802 0.0817866 0.617062 -0.15533
C_ C_ 0.58453 0.07036 0.601545 0.02923
C_ C_ 0.605447 0.0183203 0.599084 -0.15533
C_ C_ 0.577375 0.979181 0.612124 0.02923
C_ C_ 0.589646 0.428179 0.600319 0.69207
C_ C_ 0.596437 0.166104 0.601861 0.69661
C_ C_ 0.935087 0.18243 0.929826 0.18167
C_ C_ 0.977242 0.19873 0.957673 -0.15533
C_ C_ 0.971681 0.230464 0.0016799999999999038 0.02923
C_ C_ 0.922752 0.251519 0.516002 -0.15533
C_ C_ 0.881183 0.222585 0.989423 0.18167
C_ C_ 0.752172 0.195967 0.846065 0.18167
C_ C_ 0.729659 0.221779 0.801892 -0.15533
C_ C_ 0.760143 0.237994 0.767691 0.02923
C_ C_ 0.811396 0.216855 0.771706 -0.15533
C_ C_ 0.833387 0.196217 0.818824 0.18167
C_ C_ 0.761697 0.120838 0.953191 0.69207
C_ C_ 0.727713 0.112504 0.490238 0.02923
C_ C_ 0.745594 0.112947 0.542037 -0.15533
C_ C_ 0.714665 0.100225 0.577533 -0.15533
C_ C_ 0.660846 0.102225 0.565439 0.02923
C_ C_ 0.641311 0.105133 0.514749 -0.15533
C_ C_ 0.67434 0.113158 0.476741 0.02923
C_ C_ 0.652191 0.105236 0.929478 0.69207
C_ C_ 0.649349 0.112255 0.664059 0.69661
C_ C_ 0.879764 0.389481 0.890577 -0.30787
C_ C_ 0.622541 0.110608 0.608816 -0.30787
N_ N_ 0.644556 0.0572438 0.811949 -0.32189
N_ N_ 0.549209 0.138658 0.813862 -0.32189
N_ N_ 0.601863 0.312593 0.564403 -0.32189
N_ N_ 0.685331 0.322731 0.64464 -0.32189
N_ N_ 0.858056 0.445161 0.698506 -0.32189
N_ N_ 0.937522 0.350213 0.676309 -0.32189
N_ N_ 0.887033 0.196059 0.944508 -0.32189
N_ N_ 0.802081 0.185165 0.852947 -0.32189
O_ O_ -0.00105583 0.0968219 0.878646 -0.63271
O_ O_ 0.549382 0.0335535 0.842074 -0.57982
O_ O_ 0.88941 0.0949229 0.836606 -0.63271
O_ O_ 0.870225 0.0945594 0.920087 -0.57982
O_ O_ 0.735533 0.403059 0.588799 -0.63271
O_ O_ 0.69847 0.33979 0.540111 -0.57982
O_ O_ 0.847975 0.341582 0.594484 -0.63271
O_ O_ 0.869715 0.420856 0.592975 -0.57982
O_ O_ 0.481041 0.411827 0.593621 -0.63271
O_ O_ 0.954435 0.459935 0.659171 -0.57982
O_ O_ 0.59095 0.404051 0.642652 -0.63271
O_ O_ 0.627418 0.413605 0.573881 -0.57982
O_ O_ 0.758104 0.0935817 0.909257 -0.63271
O_ O_ 0.785599 0.161582 0.9568 -0.57982
O_ O_ 0.652615 0.1438 0.899509 -0.63271
O_ O_ 0.614628 0.0766112 0.917301 -0.57982
F_ F_ 0.934536 0.327863 0.94267 -0.20885
F_ F_ 0.939948 0.314181 0.859465 -0.20885
F_ F_ 0.872948 0.298362 0.894832 -0.20885
F_ F_ 0.818599 0.426674 0.825837 -0.20885
F_ F_ 0.83688 0.345523 0.813497 -0.20885
F_ F_ 0.89606 0.39514 0.798303 -0.20885
F_ F_ 0.559138 0.162648 0.559549 -0.20885
F_ F_ 0.571702 0.190815 0.641205 -0.20885
F_ F_ 0.631878 0.198061 0.588701 -0.20885
F_ F_ 0.677074 0.064644 0.671042 -0.20885
F_ F_ 0.684453 0.147149 0.671102 -0.20885
F_ F_ 0.613948 0.120682 0.69722 -0.20885
Zn Zn 0.588376 0.587598 0.34866 0.83971
Zn Zn 0.670429 0.84636 0.0861681 0.83971
Zn Zn 0.911851 0.913744 0.159908 0.83971
Zn Zn 0.843071 0.656801 0.425174 0.83971
H_ H_ 0.660918 0.642845 0.3041 0.10394
H_ H_ 0.745864 0.610975 0.272779 0.10394
H_ H_ 0.717255 0.94986 0.297976 0.10394
H_ H_ 0.632171 0.487725 0.318595 0.10394
H_ H_ 0.0262721 0.5978 0.258612 0.10394
H_ H_ 1.00613709 0.669404 0.202969 0.10394
H_ H_ 0.542632 0.775768 0.331916 0.10394
H_ H_ 0.581084 0.699776 0.379839 0.10394
H_ H_ 0.519908 0.945902 0.348 0.10394
H_ H_ 0.983137 0.88789 0.38778 0.10394
H_ H_ 0.847231 0.99139 0.391099 0.10394
H_ H_ 0.593928 0.793646 0.131748 0.10394
H_ H_ 1.00536444 0.748347 0.0835107 0.10394
H_ H_ 0.540181 0.790366 0.441078 0.10394
H_ H_ 0.6348 0.802805 0.982834 0.10394
H_ H_ 0.728471 0.758214 0.102295 0.10394
H_ H_ 0.780096 0.712522 0.172726 0.10394
H_ H_ 0.717225 0.834556 0.275045 0.10394
H_ H_ 0.67465 0.876853 0.197893 0.10394
H_ H_ 0.723853 0.854589 0.440273 0.10394
H_ H_ 0.771544 0.880365 0.373987 0.10394
H_ H_ 0.897812 0.9028 0.489768 0.10394
H_ H_ 0.809747 0.895525 0.170225 0.10394
H_ H_ 0.732767 0.952845 0.189453 0.10394
H_ H_ 0.832122 0.561879 0.267577 0.10394
H_ H_ 0.907488 1.00323226 0.238631 0.10394
H_ H_ 0.514869 0.878697 0.185092 0.10394
H_ H_ 0.554665 0.812293 0.237296 0.10394
H_ H_ 0.918743 0.733192 0.215085 0.10394
H_ H_ 0.871461 0.816086 0.18266 0.10394
H_ H_ 0.956313 0.558213 0.121415 0.10394
H_ H_ 0.509752 0.615054 0.104145 0.10394
H_ H_ 0.641266 0.50451 0.102012 0.10394
H_ H_ 0.946694 0.659447 0.414212 0.10394
H_ H_ 0.512561 0.705159 0.427583 0.10394
H_ H_ 0.922881 0.777157 0.0344942 0.10394
H_ H_ 0.846894 0.741995 0.509691 0.10394
H_ H_ 0.742417 0.719695 0.39638 0.10394
H_ H_ 0.706641 0.756464 0.314935 0.10394
H_ H_ 0.846269 0.725087 0.253183 0.10394
H_ H_ 0.884236 0.68927 0.335718 0.10394
H_ H_ 0.776765 0.625071 0.0591266 0.10394
H_ H_ 0.720403 0.627574 0.121812 0.10394
H_ H_ 0.607006 0.570736 0.00592785 0.10394
C_ C_ 0.671941 0.602014 0.295695 0.18167
C_ C_ 0.718427 0.58456 0.276631 -0.15533
C_ C_ 0.730476 0.534334 0.266149 0.02923
C_ C_ 0.700359 0.988464 0.290176 -0.15533
C_ C_ 0.656493 0.513874 0.3057 0.18167
C_ C_ 0.524559 0.63788 0.276229 0.18167
C_ C_ 0.0169116 0.675753 0.242964 -0.15533
C_ C_ 0.509041 0.729116 0.268453 0.02923
C_ C_ 0.538942 0.737559 0.314793 -0.15533
C_ C_ 0.561575 0.694209 0.340162 0.18167
C_ C_ 0.505488 0.545824 0.370412 0.69207
C_ C_ 0.972018 0.0111597 0.385078 0.02923
C_ C_ -0.005233000000000043 0.962763 0.396741 -0.15533
C_ C_ 0.964988 0.923546 0.399241 -0.15533
C_ C_ 0.910888 0.930654 0.398111 0.02923
C_ C_ 0.890003 0.982188 0.398059 -0.15533
C_ C_ 0.919481 0.0212715 0.392185 0.02923
C_ C_ 0.896383 0.57596 0.394177 0.69207
C_ C_ 0.907344 0.831798 0.3933 0.69661
C_ C_ 0.582663 0.796871 0.0928564 0.18167
C_ C_ 0.53407 0.786398 0.0749827 -0.15533
C_ C_ 0.525871 0.770672 0.0217309 0.02923
C_ C_ 0.548635 0.785125 0.480493 -0.15533
C_ C_ 0.607417 0.795738 0.00942578 0.18167
C_ C_ 0.730744 0.776197 0.13971 0.18167
C_ C_ 0.759031 0.750647 0.180645 -0.15533
C_ C_ 0.751163 0.771903 0.230748 0.02923
C_ C_ 0.724032 0.818475 0.238282 -0.15533
C_ C_ 0.699924 0.84249 0.195178 0.18167
C_ C_ 0.746165 0.874121 0.0463774 0.69207
C_ C_ 0.775924 0.877902 0.506244 0.02923
C_ C_ 0.759703 0.870572 0.453155 -0.15533
C_ C_ 0.787755 0.882947 0.41264 -0.15533
C_ C_ 0.83908 0.894414 0.426556 0.02923
C_ C_ 0.855952 0.901471 0.480217 -0.15533
C_ C_ 0.826418 0.893833 0.520009 0.02923
C_ C_ 0.858053 0.879774 0.0710032 0.69207
C_ C_ 0.856549 0.887546 0.329758 0.69661
C_ C_ 0.814271 0.930181 0.192582 0.18167
C_ C_ 0.769998 0.96047 0.206653 -0.15533
C_ C_ 0.776866 1.00029 0.24473 0.02923
C_ C_ 0.822303 0.527282 0.247623 -0.15533
C_ C_ 0.869163 0.990287 0.232177 0.18167
C_ C_ 0.984936 0.855017 0.213561 0.18167
C_ C_ 0.516002 0.807944 0.2214 -0.15533
C_ C_ 0.986796 0.768152 0.239138 0.02923
C_ C_ 0.937513 0.7688 0.213762 -0.15533
C_ C_ 0.912293 0.812523 0.190502 0.18167
C_ C_ 0.993609 0.945147 0.123312 0.69207
C_ C_ 0.517417 0.486672 0.110132 0.02923
C_ C_ 0.497477 0.538536 0.109742 -0.15533
C_ C_ 0.52792 0.576451 0.0997033 -0.15533
C_ C_ 0.580291 0.566789 0.0967278 0.02923
C_ C_ 0.60053 0.514399 0.0975171 -0.15533
C_ C_ 0.568755 0.475204 0.10075 0.02923
C_ C_ 0.598965 0.921605 0.102812 0.69207
C_ C_ 0.590107 0.667797 0.104334 0.69661
C_ C_ 0.94074 0.676 0.451384 0.18167
C_ C_ 0.981008 0.699819 0.474629 -0.15533
C_ C_ 0.97259 0.742484 0.5113 0.02923
C_ C_ 0.925688 0.751081 1.00250476 -0.15533
C_ C_ 0.884303 0.730062 0.499403 0.18167
C_ C_ 0.765323 0.718717 0.364339 0.18167
C_ C_ 0.746383 0.744108 0.31936 -0.15533
C_ C_ 0.774142 0.743463 0.27684 0.02923
C_ C_ 0.824644 0.719509 0.282425 -0.15533
C_ C_ 0.844374 0.699342 0.328572 0.18167
C_ C_ 0.759254 0.63397 0.45804 0.69207
C_ C_ 0.723224 0.613898 0.995345 0.02923
C_ C_ 0.737071 0.624277 0.0474842 -0.15533
C_ C_ 0.703821 0.623436 0.082596 -0.15533
C_ C_ 0.65532 0.60509 0.070209 0.02923
C_ C_ 0.642812 0.587219 0.0173125 -0.15533
C_ C_ 0.673386 0.598086 0.97926 0.02923
C_ C_ 0.654631 0.604472 0.42498 0.69207
C_ C_ 0.632461 0.606344 0.165362 0.69661
C_ C_ 0.87773 0.886365 0.387993 -0.30787
C_ C_ 0.614256 0.610443 0.108122 -0.30787
N_ N_ 0.640991 0.565287 0.30723 -0.32189
N_ N_ 0.553616 0.644957 0.320702 -0.32189
N_ N_ 0.617646 0.807101 0.0604388 -0.32189
N_ N_ 0.700554 0.819673 0.148106 -0.32189
N_ N_ 0.86189 0.948189 0.201941 -0.32189
N_ N_ 0.937023 0.85459 0.189936 -0.32189
N_ N_ 0.892679 0.695087 0.460489 -0.32189
N_ N_ 0.814121 0.692488 0.365695 -0.32189
O_ O_ -0.00040317 0.588413 0.390819 -0.63271
O_ O_ 0.545797 0.536864 0.343692 -0.57982
O_ O_ 0.886987 0.599526 0.350837 -0.63271
O_ O_ 0.869817 0.592878 0.430616 -0.57982
O_ O_ 0.748205 0.900124 0.0900843 -0.63271
O_ O_ 0.711204 0.84288 0.0358692 -0.57982
O_ O_ 0.86227 0.835428 0.0919154 -0.63271
O_ O_ 0.878689 0.917388 0.0956088 -0.57982
O_ O_ 0.491547 0.904508 0.0945745 -0.63271
O_ O_ 0.959821 0.957483 0.1574 -0.57982
O_ O_ 0.597392 0.894203 0.143081 -0.63271
O_ O_ 0.638106 0.90885 0.0761272 -0.57982
O_ O_ 0.759538 0.612354 0.41152 -0.63271
O_ O_ 0.795781 0.664789 0.470896 -0.57982
O_ O_ 0.654686 0.645696 0.399262 -0.63271
O_ O_ 0.621791 0.571901 0.409617 -0.57982
F_ F_ 0.940053 0.828311 0.440307 -0.20885
F_ F_ 0.932542 0.812703 0.349519 -0.20885
F_ F_ 0.872614 0.798086 0.390795 -0.20885
F_ F_ 0.816334 0.927597 0.325435 -0.20885
F_ F_ 0.836087 0.843667 0.309474 -0.20885
F_ F_ 0.892703 0.900031 0.30099 -0.20885
F_ F_ 0.567051 0.674992 0.0561712 -0.20885
F_ F_ 0.555259 0.684709 0.139801 -0.20885
F_ F_ 0.62744 0.701596 0.113362 -0.20885
F_ F_ 0.670341 0.566734 0.172854 -0.20885
F_ F_ 0.651509 0.650998 0.189328 -0.20885
F_ F_ 0.599252 0.592299 0.196969 -0.20885
Zn Zn 0.587355 0.581525 0.844671 0.83971
Zn Zn 0.658932 0.85067 0.579257 0.83971
Zn Zn 0.909644 0.916245 0.658595 0.83971
Zn Zn 0.833748 0.656291 0.910453 0.83971
H_ H_ 0.66085 0.628834 0.794968 0.10394
H_ H_ 0.739493 0.594059 0.755245 0.10394
H_ H_ 0.720804 0.944165 0.797631 0.10394
H_ H_ 0.637221 0.486852 0.831003 0.10394
H_ H_ 0.0150472 0.596915 0.767294 0.10394
H_ H_ 0.976035 0.667936 0.709215 0.10394
H_ H_ 0.551736 0.769768 0.833522 0.10394
H_ H_ 0.593096 0.693003 0.87438 0.10394
H_ H_ 0.530881 0.946344 0.85705 0.10394
H_ H_ 0.989193 0.884178 0.889128 0.10394
H_ H_ 0.863533 0.987115 0.918397 0.10394
H_ H_ 0.576975 0.801537 0.624555 0.10394
H_ H_ 0.0103553 0.756787 0.606988 0.10394
H_ H_ 0.553789 0.776147 0.949177 0.10394
H_ H_ 0.611123 0.828998 0.478221 0.10394
H_ H_ 0.718819 0.753722 0.589385 0.10394
H_ H_ 0.750375 0.704266 0.664043 0.10394
H_ H_ 0.722162 0.835683 0.76327 0.10394
H_ H_ 0.673814 0.879092 0.690178 0.10394
H_ H_ 0.719191 0.876584 0.944238 0.10394
H_ H_ 0.772703 0.892587 0.87903 0.10394
H_ H_ 0.907375 0.898482 0.98765 0.10394
H_ H_ 0.80733 0.887993 0.671138 0.10394
H_ H_ 0.734443 0.939497 0.702457 0.10394
H_ H_ 0.829782 0.539546 0.788253 0.10394
H_ H_ 0.901101 1.00231243 0.724511 0.10394
H_ H_ 0.519174 0.882736 0.695289 0.10394
H_ H_ 0.557438 0.807759 0.741042 0.10394
H_ H_ 0.9177 0.742456 0.720486 0.10394
H_ H_ 0.873508 0.819139 0.683382 0.10394
H_ H_ 0.973345 0.554895 0.634477 0.10394
H_ H_ 0.516 0.621892 0.622597 0.10394
H_ H_ 0.634572 0.512036 0.588367 0.10394
H_ H_ 0.936415 0.663845 0.88049 0.10394
H_ H_ 0.517671 0.698135 0.943743 0.10394
H_ H_ 0.915266 0.78823 0.55321 0.10394
H_ H_ 0.84607 0.733915 0.996139 0.10394
H_ H_ 0.733049 0.691454 0.874659 0.10394
H_ H_ 0.692328 0.716274 0.790804 0.10394
H_ H_ 0.838707 0.744047 0.74469 0.10394
H_ H_ 0.879254 0.696817 0.819981 0.10394
H_ H_ 0.786469 0.622308 0.563065 0.10394
H_ H_ 0.73026 0.602379 0.623943 0.10394
H_ H_ 0.600952 0.590636 0.503436 0.10394
C_ C_ 0.672598 0.587957 0.792627 0.18167
C_ C_ 0.719078 0.570534 0.774981 -0.15533
C_ C_ 0.732101 0.517295 0.773457 0.02923
C_ C_ 0.706743 0.985472 0.795788 -0.15533
C_ C_ 0.656952 0.505052 0.808184 0.18167
C_ C_ 0.523844 0.63678 0.774235 0.18167
C_ C_ 0.00599973 0.67443 0.740945 -0.15533
C_ C_ 0.511626 0.72971 0.770259 0.02923
C_ C_ 0.545141 0.733134 0.815398 -0.15533
C_ C_ 0.568066 0.689234 0.838713 0.18167
C_ C_ 0.504371 0.548726 0.862576 0.69207
C_ C_ 0.975484 0.0128129 0.879916 0.02923
C_ C_ -0.002179000000000042 0.963109 0.885043 -0.15533
C_ C_ 0.96995 0.922362 0.891361 -0.15533
C_ C_ 0.91691 0.931077 0.891509 0.02923
C_ C_ 0.898521 0.981206 0.904146 -0.15533
C_ C_ 0.921996 0.0216154 0.887009 0.02923
C_ C_ 0.899186 0.575741 0.880096 0.69207
C_ C_ 0.908545 0.832507 0.882208 0.69661
C_ C_ 0.569531 0.797592 0.584878 0.18167
C_ C_ 0.523522 0.781163 0.563139 -0.15533
C_ C_ 0.514329 0.770575 0.511605 0.02923
C_ C_ 0.561478 0.781263 0.989753 -0.15533
C_ C_ 0.591951 0.808618 0.50115 0.18167
C_ C_ 0.716622 0.772152 0.627975 0.18167
C_ C_ 0.73958 0.744455 0.668908 -0.15533
C_ C_ 0.736057 0.764247 0.719296 0.02923
C_ C_ 0.718112 0.81602 0.72687 -0.15533
C_ C_ 0.689068 0.840953 0.685174 0.18167
C_ C_ 0.737374 0.873046 0.543089 0.69207
C_ C_ 0.779784 0.879313 1.00530325 0.02923
C_ C_ 0.760127 0.876585 0.952939 -0.15533
C_ C_ 0.790859 0.889795 0.916639 -0.15533
C_ C_ 0.845466 0.888352 0.927282 0.02923
C_ C_ 0.864876 0.895624 0.978852 -0.15533
C_ C_ 0.831991 0.884853 0.0176655 0.02923
C_ C_ 0.85054 0.888167 0.573293 0.69207
C_ C_ 0.853706 0.899149 0.831544 0.69661
C_ C_ 0.811874 0.923115 0.689711 0.18167
C_ C_ 0.769928 0.950479 0.713414 -0.15533
C_ C_ 0.776487 -0.006178000000000017 0.74541 0.02923
C_ C_ 0.826507 0.508565 0.759109 -0.15533
C_ C_ 0.862245 0.988084 0.721772 0.18167
C_ C_ 0.992256 0.855354 0.699804 0.18167
C_ C_ 0.518323 0.812244 0.728449 -0.15533
C_ C_ 0.991397 0.767691 0.725501 0.02923
C_ C_ 0.938625 0.770838 0.70953 -0.15533
C_ C_ 0.914109 0.817308 0.689873 0.18167
C_ C_ 0.984106 0.960427 0.628406 0.69207
C_ C_ 0.515137 0.49382 0.613919 0.02923
C_ C_ 0.496945 0.546864 0.621137 -0.15533
C_ C_ 0.527166 0.585601 0.609196 -0.15533
C_ C_ 0.577866 0.570808 0.596538 0.02923
C_ C_ 0.595196 0.521056 0.592382 -0.15533
C_ C_ 0.565633 0.482048 0.601131 0.02923
C_ C_ 0.601289 0.925924 0.606986 0.69207
C_ C_ 0.595956 0.665978 0.605209 0.69661
C_ C_ 0.933851 0.688189 0.916081 0.18167
C_ C_ 0.978405 0.707487 0.940913 -0.15533
C_ C_ 0.973847 0.740849 0.984033 0.02923
C_ C_ 0.924133 0.754669 0.527208 -0.15533
C_ C_ 0.883119 0.728322 0.980517 0.18167
C_ C_ 0.757414 0.696097 0.842266 0.18167
C_ C_ 0.732731 0.71866 0.799519 -0.15533
C_ C_ 0.761028 0.733597 0.7625 0.02923
C_ C_ 0.815868 0.730515 0.774368 -0.15533
C_ C_ 0.838106 0.704845 0.816859 0.18167
C_ C_ 0.759496 0.621679 0.956724 0.69207
C_ C_ 0.725973 0.620015 0.497222 0.02923
C_ C_ 0.745016 0.617207 0.549939 -0.15533
C_ C_ 0.711282 0.609314 0.586022 -0.15533
C_ C_ 0.658495 0.602558 0.570021 0.02923
C_ C_ 0.642984 0.595639 0.517809 -0.15533
C_ C_ 0.675859 0.60543 0.479841 0.02923
C_ C_ 0.65133 0.600636 0.924756 0.69207
C_ C_ 0.639613 0.605656 0.665433 0.69661
C_ C_ 0.881325 0.8887 0.883844 -0.30787
C_ C_ 0.617137 0.60976 0.608507 -0.30787
N_ N_ 0.644289 0.555897 0.811069 -0.32189
N_ N_ 0.553449 0.642138 0.819654 -0.32189
N_ N_ 0.602239 0.813564 0.552735 -0.32189
N_ N_ 0.689984 0.817815 0.637459 -0.32189
N_ N_ 0.856782 0.943045 0.697072 -0.32189
N_ N_ 0.940542 0.85886 0.688373 -0.32189
N_ N_ 0.887724 0.698211 0.936738 -0.32189
N_ N_ 0.809453 0.693697 0.851812 -0.32189
O_ O_ 1.00677169 0.593828 0.895808 -0.63271
O_ O_ 0.541983 0.535959 0.83723 -0.57982
O_ O_ 0.894179 0.596815 0.835799 -0.63271
O_ O_ 0.868423 0.595407 0.914391 -0.57982
O_ O_ 0.742139 0.891624 0.590774 -0.63271
O_ O_ 0.699892 0.844324 0.529246 -0.57982
O_ O_ 0.848224 0.84518 0.594654 -0.63271
O_ O_ 0.875456 0.925434 0.595929 -0.57982
O_ O_ 0.486948 0.913591 0.600232 -0.63271
O_ O_ 0.956461 0.964232 0.6661 -0.57982
O_ O_ 0.593064 0.891188 0.63915 -0.63271
O_ O_ 0.63666 0.91411 0.575212 -0.57982
O_ O_ 0.76014 0.595445 0.914006 -0.63271
O_ O_ 0.787844 0.661358 0.959914 -0.57982
O_ O_ 0.664823 0.635687 0.897043 -0.63271
O_ O_ 0.611364 0.576794 0.908902 -0.57982
F_ F_ 0.946414 0.827139 0.922163 -0.20885
F_ F_ 0.937761 0.823908 0.839316 -0.20885
F_ F_ 0.877635 0.794451 0.879942 -0.20885
F_ F_ 0.826521 0.94644 0.830339 -0.20885
F_ F_ 0.827922 0.856171 0.815411 -0.20885
F_ F_ 0.890564 0.896564 0.797431 -0.20885
F_ F_ 0.566678 0.672287 0.559359 -0.20885
F_ F_ 0.571258 0.688118 0.645393 -0.20885
F_ F_ 0.636109 0.698164 0.607972 -0.20885
F_ F_ 0.666914 0.561791 0.676619 -0.20885
F_ F_ 0.670878 0.643204 0.685791 -0.20885
F_ F_ 0.603254 0.611886 0.699219 -0.20885
_cell_length_a 26.508
_cell_length_b 26.37200000322088
_cell_length_c 26.311999743092066
_cell_angle_alpha 93.74100058972084
_cell_angle_beta 96.04100104955006
_cell_angle_gamma 83.6869992558723
_symmetry_space_group_name_H-M         'P 1'
_symmetry_Int_Tables_number            1
loop_
_symmetry_equiv_pos_as_xyz
   'x, y, z'
                         
loop_
_atom_site_label
_atom_site_type_symbol
_atom_site_fract_x 
_atom_site_fract_y
_atom_site_fract_z
_atom_site_charge
Zn Zn 0.0862826 0.0856478 0.346924 0.83971
Zn Zn 0.15837 0.345091 0.0842032 0.83971
Zn Zn 0.400899 0.416186 0.15084 0.83971
Zn Zn 0.339637 0.157294 0.415393 0.83971
H_ H_ 0.16909 0.133231 0.307739 0.10394
H_ H_ 0.24637 0.103554 0.268313 0.10394
H_ H_ 0.215645 0.448978 0.294355 0.10394
H_ H_ 0.13169 0.983168 0.319363 0.10394
H_ H_ 0.514313 0.0898369 0.256442 0.10394
H_ H_ 0.472317 0.163888 0.209992 0.10394
H_ H_ 0.0232438 0.27578 0.331653 0.10394
H_ H_ 0.0668818 0.196666 0.377805 0.10394
H_ H_ 0.0230831 0.444471 0.365976 0.10394
H_ H_ 0.47997 0.377895 0.379804 0.10394
H_ H_ 0.345885 0.48624 0.377694 0.10394
H_ H_ 0.0777682 0.295856 0.137399 0.10394
H_ H_ 0.48801 0.281958 0.0951998 0.10394
H_ H_ 0.0241882 0.306587 0.447517 0.10394
H_ H_ 0.113684 0.314706 0.989619 0.10394
H_ H_ 0.219892 0.253476 0.097304 0.10394
H_ H_ 0.268581 0.212504 0.169998 0.10394
H_ H_ 0.216788 0.340269 0.26694 0.10394
H_ H_ 0.174826 0.378349 0.190048 0.10394
H_ H_ 0.224558 0.343154 0.440749 0.10394
H_ H_ 0.269223 0.365234 0.372425 0.10394
H_ H_ 0.391236 0.403364 0.479881 0.10394
H_ H_ 0.300604 0.410215 0.149013 0.10394
H_ H_ 0.229875 0.451716 0.197167 0.10394
H_ H_ 0.338354 0.0275801 0.294554 0.10394
H_ H_ 0.40785 0.492964 0.240629 0.10394
H_ H_ 0.00348873 0.398588 0.205708 0.10394
H_ H_ 0.0488555 0.323118 0.23854 0.10394
H_ H_ 0.402444 0.243553 0.214702 0.10394
H_ H_ 0.363638 0.326898 0.186103 0.10394
H_ H_ 0.458035 0.0512608 0.101711 0.10394
H_ H_ 0.0320151 0.110765 0.119073 0.10394
H_ H_ 0.153261 -0.009434999999999971 0.104033 0.10394
H_ H_ 0.441342 0.159203 0.40301 0.10394
H_ H_ 0.0114819 0.19097 0.449633 0.10394
H_ H_ 0.417699 0.299518 0.00448449 0.10394
H_ H_ 0.342423 0.243622 0.490375 0.10394
H_ H_ 0.232504 0.209751 0.388549 0.10394
H_ H_ 0.190973 0.240951 0.311142 0.10394
H_ H_ 0.335549 0.217649 0.247663 0.10394
H_ H_ 0.376648 0.187519 0.33085 0.10394
H_ H_ 0.296441 0.0944485 0.0469472 0.10394
H_ H_ 0.246347 0.0899935 0.116681 0.10394
H_ H_ 0.111337 0.0807923 0.0126249 0.10394
C_ C_ 0.175186 0.0938301 0.29931 0.18167
C_ C_ 0.222008 0.0748569 0.280188 -0.15533
C_ C_ 0.236122 0.0230206 0.273068 0.02923
C_ C_ 0.206724 0.490324 0.293733 -0.15533
C_ C_ 0.156617 0.00815488 0.306196 0.18167
C_ C_ 0.0361426 0.140067 0.26558 0.18167
C_ C_ 0.490202 0.17419 0.245539 -0.15533
C_ C_ 0.0124743 0.230265 0.261632 0.02923
C_ C_ 0.0270905 0.234925 0.315906 -0.15533
C_ C_ 0.050311 0.192626 0.340909 0.18167
C_ C_ 0.00532613 0.0509168 0.370889 0.69207
C_ C_ 0.471942 0.506776 0.378217 0.02923
C_ C_ 0.492551 0.456119 0.377696 -0.15533
C_ C_ 0.4619 0.417651 0.37861 -0.15533
C_ C_ 0.408654 0.426735 0.383954 0.02923
C_ C_ 0.38623 0.478068 0.382454 -0.15533
C_ C_ 0.41677 0.518619 0.378934 0.02923
C_ C_ 0.396251 0.0746885 0.385632 0.69207
C_ C_ 0.400696 0.328183 0.384589 0.69661
C_ C_ 0.0665956 0.295503 0.0971914 0.18167
C_ C_ 0.0241352 0.272701 0.0791081 -0.15533
C_ C_ 0.012573 0.263462 0.0255895 0.02923
C_ C_ 0.0385327 0.301351 0.486805 -0.15533
C_ C_ 0.0880982 0.304284 0.0130812 0.18167
C_ C_ 0.22129 0.272597 0.135702 0.18167
C_ C_ 0.250781 0.251011 0.176452 -0.15533
C_ C_ 0.241527 0.269454 0.22504 0.02923
C_ C_ 0.215956 0.319389 0.230457 -0.15533
C_ C_ 0.19379 0.34261 0.188581 0.18167
C_ C_ 0.237478 0.365145 0.0370549 0.69207
C_ C_ 0.276517 0.368186 0.502219 0.02923
C_ C_ 0.259251 0.362148 0.450351 -0.15533
C_ C_ 0.289171 0.367917 0.409964 -0.15533
C_ C_ 0.336263 0.387727 0.421283 0.02923
C_ C_ 0.352664 0.396769 0.473386 -0.15533
C_ C_ 0.326935 0.382794 0.513824 0.02923
C_ C_ 0.346782 0.385435 0.0695663 0.69207
C_ C_ 0.34844 0.380504 0.324778 0.69661
C_ C_ 0.307146 0.437569 0.180109 0.18167
C_ C_ 0.268821 0.463506 0.205718 -0.15533
C_ C_ 0.278767 0.500863 0.244063 0.02923
C_ C_ 0.328089 -0.000532619 0.262119 -0.15533
C_ C_ 0.367627 0.48707 0.22759 0.18167
C_ C_ 0.485486 0.348558 0.200561 0.18167
C_ C_ 0.0110382 0.319314 0.229435 -0.15533
C_ C_ 0.475819 0.267295 0.232383 0.02923
C_ C_ 0.425735 0.274046 0.212925 -0.15533
C_ C_ 0.402554 0.320741 0.196465 0.18167
C_ C_ 0.484515 0.448673 0.12356 0.69207
C_ C_ 0.0317517 0.981503 0.120366 0.02923
C_ C_ 0.0144275 0.0335364 0.126366 -0.15533
C_ C_ 0.0463156 0.0703334 0.122866 -0.15533
C_ C_ 0.096855 0.0581082 0.109947 0.02923
C_ C_ 0.114897 0.00356029 0.109966 -0.15533
C_ C_ 0.0810998 0.965787 0.107948 0.02923
C_ C_ 0.0896684 0.42213 0.114438 0.69207
C_ C_ 0.109576 0.154539 0.101929 0.69661
C_ C_ 0.435702 0.18706 0.431952 0.18167
C_ C_ 0.476977 0.209797 0.456334 -0.15533
C_ C_ 0.470415 0.240162 0.500393 0.02923
C_ C_ 0.422137 0.26058 -0.00112977 -0.15533
C_ C_ 0.38011 0.232056 0.487052 0.18167
C_ C_ 0.256211 0.212473 0.357024 0.18167
C_ C_ 0.230866 0.233227 0.311387 -0.15533
C_ C_ 0.260417 0.242431 0.272186 0.02923
C_ C_ 0.312817 0.222924 0.279703 -0.15533
C_ C_ 0.33584 0.195916 0.321884 0.18167
C_ C_ 0.261998 0.129008 0.453187 0.69207
C_ C_ 0.234618 0.100807 0.988048 0.02923
C_ C_ 0.257974 0.0916344 0.0374231 -0.15533
C_ C_ 0.227327 0.0885744 0.0779445 -0.15533
C_ C_ 0.174298 0.0845021 0.0683715 0.02923
C_ C_ 0.15246 0.0834327 0.0179815 -0.15533
C_ C_ 0.180033 0.0952694 0.977302 0.02923
C_ C_ 0.150633 0.106352 0.423871 0.69207
C_ C_ 0.162398 0.099808 0.163481 0.69661
C_ C_ 0.373431 0.383879 0.381776 -0.30787
C_ C_ 0.136256 0.0983643 0.109425 -0.30787
N_ N_ 0.144724 0.0589687 0.314605 -0.32189
N_ N_ 0.0586847 0.146724 0.313175 -0.32189
N_ N_ 0.101312 0.304387 0.0647827 -0.32189
N_ N_ 0.192065 0.316205 0.142748 -0.32189
N_ N_ 0.355912 0.449942 0.19162 -0.32189
N_ N_ 0.433044 0.356171 0.188645 -0.32189
N_ N_ 0.390234 0.194251 0.45167 -0.32189
N_ N_ 0.306295 0.193377 0.360449 -0.32189
O_ O_ 0.505129 0.0877521 0.396176 -0.63271
O_ O_ 0.0407652 0.0380975 0.340649 -0.57982
O_ O_ 0.395441 0.10066 0.344467 -0.63271
O_ O_ 0.364208 0.0908787 0.41848 -0.57982
O_ O_ 0.241659 0.396304 0.07788 -0.63271
O_ O_ 0.203571 0.330729 0.0342396 -0.57982
O_ O_ 0.347406 0.346321 0.0976945 -0.63271
O_ O_ 0.373606 0.422393 0.0877833 -0.57982
O_ O_ 0.971966 0.411565 0.101095 -0.63271
O_ O_ 0.453607 0.457843 0.158789 -0.57982
O_ O_ 0.0891302 0.397924 0.156928 -0.63271
O_ O_ 0.119622 0.404433 0.0801256 -0.57982
O_ O_ 0.255655 0.112134 0.406869 -0.63271
O_ O_ 0.302846 0.15377 0.468024 -0.57982
O_ O_ 0.152277 0.145489 0.395719 -0.63271
O_ O_ 0.115965 0.0779784 0.409808 -0.57982
F_ F_ 0.433254 0.324324 0.42825 -0.20885
F_ F_ 0.429116 0.308244 0.345412 -0.20885
F_ F_ 0.369255 0.290975 0.386671 -0.20885
F_ F_ 0.314483 0.422186 0.313157 -0.20885
F_ F_ 0.323067 0.338147 0.309437 -0.20885
F_ F_ 0.384509 0.379403 0.290337 -0.20885
F_ F_ 0.0778524 0.157251 0.0574672 -0.20885
F_ F_ 0.08062 0.179175 0.137458 -0.20885
F_ F_ 0.143638 0.185899 0.0959734 -0.20885
F_ F_ 0.184772 0.0516873 0.173833 -0.20885
F_ F_ 0.200164 0.135213 0.173159 -0.20885
F_ F_ 0.128741 0.112677 0.200131 -0.20885
Zn Zn 0.0861949 0.0862464 0.84502 0.83971
Zn Zn 0.158581 0.341204 0.582406 0.83971
Zn Zn 0.402834 0.412931 0.646815 0.83971
Zn Zn 0.343639 0.149688 0.917414 0.83971
H_ H_ 0.173697 0.13289 0.805449 0.10394
H_ H_ 0.25075 0.0967064 0.771803 0.10394
H_ H_ 0.211018 0.445919 0.78335 0.10394
H_ H_ 0.13419 0.986897 0.834967 0.10394
H_ H_ 0.537554 0.0917043 0.746405 0.10394
H_ H_ 0.506182 0.166565 0.693971 0.10394
H_ H_ 0.0243192 0.268328 0.82581 0.10394
H_ H_ 0.0820153 0.195829 0.864976 0.10394
H_ H_ 0.040902 0.451428 0.889524 0.10394
H_ H_ 0.478594 0.380899 0.8681 0.10394
H_ H_ 0.347747 0.489595 0.905505 0.10394
H_ H_ 0.0862996 0.288213 0.626282 0.10394
H_ H_ 0.497163 0.273081 0.602872 0.10394
H_ H_ 0.035995 0.27832 0.950687 0.10394
H_ H_ 0.102255 0.339924 0.480438 0.10394
H_ H_ 0.214065 0.239794 0.597562 0.10394
H_ H_ 0.267159 0.200603 0.673336 0.10394
H_ H_ 0.233596 0.334855 0.763956 0.10394
H_ H_ 0.195733 0.375323 0.683849 0.10394
H_ H_ 0.218567 0.35839 0.935326 0.10394
H_ H_ 0.266141 0.392587 0.877211 0.10394
H_ H_ 0.396601 0.394162 0.989288 0.10394
H_ H_ 0.304148 0.39962 0.659306 0.10394
H_ H_ 0.232794 0.460656 0.684091 0.10394
H_ H_ 0.341545 0.0424359 0.787391 0.10394
H_ H_ 0.408556 0.500019 0.733799 0.10394
H_ H_ 0.0138641 0.367462 0.670237 0.10394
H_ H_ 0.0509258 0.286823 0.709426 0.10394
H_ H_ 0.419274 0.234093 0.705604 0.10394
H_ H_ 0.374206 0.311383 0.66736 0.10394
H_ H_ 0.464996 0.050616 0.632391 0.10394
H_ H_ 0.0172046 0.12652 0.625552 0.10394
H_ H_ 0.142436 0.0137661 0.600783 0.10394
H_ H_ 0.444395 0.121056 0.956691 0.10394
H_ H_ 0.0143868 0.190247 0.943609 0.10394
H_ H_ 0.412177 0.287811 0.544198 0.10394
H_ H_ 0.34492 0.253489 -0.02551899999999996 0.10394
H_ H_ 0.240529 0.183512 0.87365 0.10394
H_ H_ 0.207005 0.244494 0.808522 0.10394
H_ H_ 0.350356 0.235371 0.750568 0.10394
H_ H_ 0.389578 0.190155 0.82978 0.10394
H_ H_ 0.279114 0.141122 0.555867 0.10394
H_ H_ 0.227936 0.111491 0.62303 0.10394
H_ H_ 0.110235 0.079983 0.505201 0.10394
C_ C_ 0.179596 0.0917816 0.801886 0.18167
C_ C_ 0.226454 0.0706282 0.783774 -0.15533
C_ C_ 0.237052 0.0169276 0.778148 0.02923
C_ C_ 0.199854 0.486558 0.77993 -0.15533
C_ C_ 0.1566 0.0097341 0.814779 0.18167
C_ C_ 0.0133743 0.132957 0.77149 0.18167
C_ C_ 0.513945 0.17371 0.733968 -0.15533
C_ C_ 0.00038999999999989043 0.222383 0.75854 0.02923
C_ C_ 0.0277046 0.229924 0.807174 -0.15533
C_ C_ 0.0551144 0.190726 0.829614 0.18167
C_ C_ 0.00477266 0.0490009 0.860625 0.69207
C_ C_ 0.467432 0.510523 0.870116 0.02923
C_ C_ 0.485692 0.458195 0.861331 -0.15533
C_ C_ 0.4605 0.419082 0.874207 -0.15533
C_ C_ 0.410779 0.430396 0.88974 0.02923
C_ C_ 0.389789 0.481505 0.896336 -0.15533
C_ C_ 0.419142 0.522487 0.890693 0.02923
C_ C_ 0.399145 0.0688957 0.889224 0.69207
C_ C_ 0.400537 0.332865 0.878304 0.69661
C_ C_ 0.0700549 0.295107 0.587699 0.18167
C_ C_ 0.0253019 0.275758 0.570604 -0.15533
C_ C_ 0.0125789 0.272842 0.51738 0.02923
C_ C_ 0.0448415 0.279481 0.990355 -0.15533
C_ C_ 0.0832211 0.319769 0.507028 0.18167
C_ C_ 0.21947 0.259613 0.633356 0.18167
C_ C_ 0.24731 0.235303 0.676306 -0.15533
C_ C_ 0.25175 0.262074 0.724223 0.02923
C_ C_ 0.233378 0.313831 0.726822 -0.15533
C_ C_ 0.21078 0.337081 0.681116 0.18167
C_ C_ 0.23764 0.361597 0.541271 0.69207
C_ C_ 0.27692 0.363853 -0.000159539 0.02923
C_ C_ 0.25735 0.362648 0.948069 -0.15533
C_ C_ 0.285369 0.379971 0.913264 -0.15533
C_ C_ 0.337189 0.389616 0.924289 0.02923
C_ C_ 0.356584 0.389038 0.975621 -0.15533
C_ C_ 0.32606 0.379644 0.0131369 0.02923
C_ C_ 0.353517 0.380527 0.564371 0.69207
C_ C_ 0.347187 0.391931 0.825769 0.69661
C_ C_ 0.31263 0.429163 0.688265 0.18167
C_ C_ 0.271076 0.461081 0.706095 -0.15533
C_ C_ 0.28038 0.499079 0.743354 0.02923
C_ C_ 0.329745 0.0153135 0.755727 -0.15533
C_ C_ 0.36909 0.488772 0.727351 0.18167
C_ C_ 0.487856 0.35682 0.699464 0.18167
C_ C_ 0.00991094 0.294979 0.703103 -0.15533
C_ C_ 0.488011 0.269349 0.728954 0.02923
C_ C_ 0.439964 0.267856 0.704515 -0.15533
C_ C_ 0.415125 0.311135 0.678837 0.18167
C_ C_ 0.479364 0.45382 0.622072 0.69207
C_ C_ 0.0192743 0.99859 0.620116 0.02923
C_ C_ -0.0009029999999999871 0.0485867 0.620588 -0.15533
C_ C_ 0.0300397 0.0873796 0.615617 -0.15533
C_ C_ 0.0803467 0.0745015 0.604791 0.02923
C_ C_ 0.100752 0.0223299 0.606693 -0.15533
C_ C_ 0.0674788 0.983072 0.604858 0.02923
C_ C_ 0.0989337 0.421564 0.608819 0.69207
C_ C_ 0.0934745 0.167312 0.595735 0.69661
C_ C_ 0.437363 0.162154 0.965659 0.18167
C_ C_ 0.478078 0.185157 0.987926 -0.15533
C_ C_ 0.472202 0.236918 0.999547 0.02923
C_ C_ 0.420432 0.25748 0.513408 -0.15533
C_ C_ 0.382371 0.235638 0.979405 0.18167
C_ C_ 0.264894 0.198928 0.84975 0.18167
C_ C_ 0.245737 0.2313 0.811314 -0.15533
C_ C_ 0.276649 0.235101 0.771582 0.02923
C_ C_ 0.330195 0.223417 0.778845 -0.15533
C_ C_ 0.349029 0.201191 0.825048 0.18167
C_ C_ 0.266473 0.110902 0.948821 0.69207
C_ C_ 0.225419 0.120046 0.492678 0.02923
C_ C_ 0.242526 0.125045 0.545801 -0.15533
C_ C_ 0.211158 0.11698 0.584194 -0.15533
C_ C_ 0.160762 0.102376 0.569941 0.02923
C_ C_ 0.145858 0.0957982 0.517516 -0.15533
C_ C_ 0.173353 0.108325 0.478289 0.02923
C_ C_ 0.15058 0.107847 0.927061 0.69207
C_ C_ 0.140211 0.119344 0.664062 0.69661
C_ C_ 0.37326 0.388726 0.881216 -0.30787
C_ C_ 0.119232 0.114572 0.606787 -0.30787
N_ N_ 0.147703 0.0618958 0.817599 -0.32189
N_ N_ 0.0476121 0.140538 0.811744 -0.32189
N_ N_ 0.0998837 0.313602 0.55618 -0.32189
N_ N_ 0.198084 0.308663 0.638818 -0.32189
N_ N_ 0.360773 0.444191 0.697149 -0.32189
N_ N_ 0.437105 0.354438 0.679235 -0.32189
N_ N_ 0.391615 0.187973 0.956735 -0.32189
N_ N_ 0.315926 0.182217 0.853838 -0.32189
O_ O_ 0.510151 0.0895307 0.895318 -0.63271
O_ O_ 0.0468508 0.0317424 0.839766 -0.57982
O_ O_ 0.403283 0.0987316 0.852375 -0.63271
O_ O_ 0.365286 0.0833434 0.919841 -0.57982
O_ O_ 0.241713 0.384935 0.586196 -0.63271
O_ O_ 0.20244 0.330365 0.530764 -0.57982
O_ O_ 0.355229 0.339628 0.590037 -0.63271
O_ O_ 0.366761 0.42176 0.586306 -0.57982
O_ O_ 0.989935 0.411429 0.596273 -0.63271
O_ O_ 0.441182 0.464079 0.651236 -0.57982
O_ O_ 0.0961585 0.393073 0.645671 -0.63271
O_ O_ 0.138744 0.410355 0.584296 -0.57982
O_ O_ 0.259249 0.0910009 0.901368 -0.63271
O_ O_ 0.296754 0.146417 0.958835 -0.57982
O_ O_ 0.157802 0.147628 0.902957 -0.63271
O_ O_ 0.110217 0.0833873 0.909332 -0.57982
F_ F_ 0.434552 0.324062 0.922274 -0.20885
F_ F_ 0.427363 0.316739 0.832951 -0.20885
F_ F_ 0.363507 0.301358 0.882995 -0.20885
F_ F_ 0.311578 0.432845 0.824185 -0.20885
F_ F_ 0.318879 0.352184 0.807905 -0.20885
F_ F_ 0.382653 0.39645 0.789857 -0.20885
F_ F_ 0.0605969 0.166246 0.551434 -0.20885
F_ F_ 0.0646152 0.19302 0.63055 -0.20885
F_ F_ 0.128941 0.199437 0.590884 -0.20885
F_ F_ 0.177457 0.0811259 0.679932 -0.20885
F_ F_ 0.162118 0.163226 0.679118 -0.20885
F_ F_ 0.102957 0.119398 0.696379 -0.20885
Zn Zn 0.0877512 0.581491 0.351897 0.83971
Zn Zn 0.163988 0.836047 0.0777672 0.83971
Zn Zn 0.4084 0.91618 0.151759 0.83971
Zn Zn 0.339911 0.65451 0.40984 0.83971
H_ H_ 0.165591 0.631641 0.307019 0.10394
H_ H_ 0.244975 0.602986 0.271982 0.10394
H_ H_ 0.210028 0.947112 0.274677 0.10394
H_ H_ 0.132677 0.482688 0.314822 0.10394
H_ H_ 0.520849 0.599299 0.25888 0.10394
H_ H_ 0.489412 0.674648 0.208921 0.10394
H_ H_ 0.0323678 0.771066 0.336402 0.10394
H_ H_ 0.0670302 0.694855 0.387012 0.10394
H_ H_ 0.0355241 0.957801 0.396932 0.10394
H_ H_ 0.471502 0.880891 0.354145 0.10394
H_ H_ 0.351749 0.992968 0.405676 0.10394
H_ H_ 0.088641 0.788594 0.128477 0.10394
H_ H_ 0.506623 0.783369 0.100086 0.10394
H_ H_ 0.0384669 0.793096 0.45694 0.10394
H_ H_ 0.132267 0.802346 0.9754 0.10394
H_ H_ 0.216732 0.742779 0.0916536 0.10394
H_ H_ 0.254058 0.69419 0.169302 0.10394
H_ H_ 0.224548 0.834916 0.260992 0.10394
H_ H_ 0.195165 0.876437 0.181391 0.10394
H_ H_ 0.208405 0.886031 0.450833 0.10394
H_ H_ 0.254595 0.91494 0.387964 0.10394
H_ H_ 0.390857 0.906042 0.488968 0.10394
H_ H_ 0.300295 0.942502 0.127396 0.10394
H_ H_ 0.230356 0.973471 0.175663 0.10394
H_ H_ 0.335724 0.552329 0.269496 0.10394
H_ H_ 0.409809 -0.018538999999999972 0.245132 0.10394
H_ H_ 0.0077781 0.885807 0.213405 0.10394
H_ H_ 0.0501238 0.816632 0.254157 0.10394
H_ H_ 0.411432 0.753199 0.237367 0.10394
H_ H_ 0.372171 0.833697 0.193912 0.10394
H_ H_ 0.459334 0.548842 0.119605 0.10394
H_ H_ 0.0123083 0.618543 0.103936 0.10394
H_ H_ 0.135744 0.499329 0.0886743 0.10394
H_ H_ 0.445189 0.659477 0.388149 0.10394
H_ H_ 0.018311 0.687743 0.466444 0.10394
H_ H_ 0.425906 0.784717 0.050267 0.10394
H_ H_ 0.344937 0.731665 0.496031 0.10394
H_ H_ 0.24304 0.712821 0.388876 0.10394
H_ H_ 0.197488 0.74048 0.306889 0.10394
H_ H_ 0.338413 0.721763 0.237951 0.10394
H_ H_ 0.381197 0.682195 0.318841 0.10394
H_ H_ 0.290455 0.596127 0.0563423 0.10394
H_ H_ 0.236275 0.576034 0.11693 0.10394
H_ H_ 0.110687 0.580773 0.0059528 0.10394
C_ C_ 0.179283 0.592379 0.305344 0.18167
C_ C_ 0.221347 0.575984 0.280232 -0.15533
C_ C_ 0.237478 0.523169 0.276811 0.02923
C_ C_ 0.2022 0.989093 0.286168 -0.15533
C_ C_ 0.160644 0.508949 0.311113 0.18167
C_ C_ 0.0355878 0.63461 0.273475 0.18167
C_ C_ 0.50494 0.680335 0.248001 -0.15533
C_ C_ 0.0131569 0.725362 0.266102 0.02923
C_ C_ 0.0279536 0.732914 0.318713 -0.15533
C_ C_ 0.053417 0.69021 0.346618 0.18167
C_ C_ 0.00230703 0.544536 0.366374 0.69207
C_ C_ 0.468421 0.00839058 0.369021 0.02923
C_ C_ 0.482634 0.956576 0.359212 -0.15533
C_ C_ 0.452469 0.919485 0.364162 -0.15533
C_ C_ 0.404498 0.92992 0.385832 0.02923
C_ C_ 0.390082 0.982881 0.397694 -0.15533
C_ C_ 0.41944 0.0216482 0.384661 0.02923
C_ C_ 0.394479 0.570918 0.375992 0.69207
C_ C_ 0.396297 0.832524 0.390475 0.69661
C_ C_ 0.0796535 0.786007 0.0853682 0.18167
C_ C_ 0.0334162 0.764396 0.0627108 -0.15533
C_ C_ 0.0191137 0.764697 0.00813725 0.02923
C_ C_ 0.0512811 0.788085 0.496705 -0.15533
C_ C_ 0.101761 0.796684 0.00012999999999996348 0.18167
C_ C_ 0.219912 0.762293 0.127686 0.18167
C_ C_ 0.239806 0.734947 0.171642 -0.15533
C_ C_ 0.242292 0.758652 0.221003 0.02923
C_ C_ 0.223577 0.812862 0.223413 -0.15533
C_ C_ 0.207939 0.838831 0.178042 0.18167
C_ C_ 0.246804 0.860441 0.0429282 0.69207
C_ C_ 0.269472 0.883573 0.509102 0.02923
C_ C_ 0.248336 0.884739 0.458729 -0.15533
C_ C_ 0.276774 0.896415 0.419872 -0.15533
C_ C_ 0.330785 0.894016 0.428565 0.02923
C_ C_ 0.350162 0.899359 0.480101 -0.15533
C_ C_ 0.322618 0.891095 0.519031 0.02923
C_ C_ 0.359179 0.8829 0.0718992 0.69207
C_ C_ 0.337867 0.887743 0.334374 0.69661
C_ C_ 0.310041 0.955561 0.165935 0.18167
C_ C_ 0.268373 0.973412 0.194136 -0.15533
C_ C_ 0.276966 0.9981236 0.241564 0.02923
C_ C_ 0.328799 0.516272 0.250485 -0.15533
C_ C_ 0.370257 0.976512 0.233754 0.18167
C_ C_ 0.493295 0.851959 0.197779 0.18167
C_ C_ 0.00905722 0.813462 0.238969 -0.15533
C_ C_ 0.48709 0.773811 0.237918 0.02923
C_ C_ 0.43541 0.779149 0.22273 -0.15533
C_ C_ 0.413424 0.825327 0.201776 0.18167
C_ C_ 0.488194 0.951187 0.11856 0.69207
C_ C_ 0.012707 0.491171 0.116958 0.02923
C_ C_ -0.0036530000000000173 0.5444 0.116957 -0.15533
C_ C_ 0.0292623 0.579865 0.105128 -0.15533
C_ C_ 0.0812301 0.564402 0.0976813 0.02923
C_ C_ 0.0960873 0.512618 0.0947076 -0.15533
C_ C_ 0.0662586 0.47637 0.10947 0.02923
C_ C_ 0.104503 0.912299 0.107244 0.69207
C_ C_ 0.103806 0.656346 0.103155 0.69661
C_ C_ 0.437919 0.684068 0.423082 0.18167
C_ C_ 0.478057 0.709105 0.445678 -0.15533
C_ C_ 0.471559 0.74164 0.489286 0.02923
C_ C_ 0.433586 0.756593 0.0188273 -0.15533
C_ C_ 0.383954 0.723813 0.484576 0.18167
C_ C_ 0.263464 0.708216 0.353466 0.18167
C_ C_ 0.239183 0.727507 0.308886 -0.15533
C_ C_ 0.264525 0.72908 0.264555 0.02923
C_ C_ 0.315857 0.711826 0.26777 -0.15533
C_ C_ 0.339903 0.692009 0.313605 0.18167
C_ C_ 0.260249 0.631801 0.45409 0.69207
C_ C_ 0.229602 0.604603 0.992757 0.02923
C_ C_ 0.250186 0.598092 0.0443072 -0.15533
C_ C_ 0.216553 0.594847 0.0812415 -0.15533
C_ C_ 0.163869 0.591211 0.0699182 0.02923
C_ C_ 0.146896 0.5919 0.0170659 -0.15533
C_ C_ 0.176883 0.604465 0.979579 0.02923
C_ C_ 0.147236 0.612534 0.432246 0.69207
C_ C_ 0.147716 0.598269 0.164888 0.69661
C_ C_ 0.368507 0.887038 0.387142 -0.30787
C_ C_ 0.125656 0.600633 0.109158 -0.30787
N_ N_ 0.147798 0.558514 0.3185 -0.32189
N_ N_ 0.0548987 0.641825 0.323033 -0.32189
N_ N_ 0.113907 0.798296 0.0524817 -0.32189
N_ N_ 0.206073 0.812814 0.132249 -0.32189
N_ N_ 0.358378 0.950486 0.187523 -0.32189
N_ N_ 0.442726 0.857634 0.185088 -0.32189
N_ N_ 0.391396 0.693005 0.441123 -0.32189
N_ N_ 0.312323 0.685949 0.354086 -0.32189
O_ O_ 0.502472 0.587728 0.400864 -0.63271
O_ O_ 0.047571 0.528809 0.348917 -0.57982
O_ O_ 0.398235 0.593472 0.334282 -0.63271
O_ O_ 0.367567 0.591459 0.411457 -0.57982
O_ O_ 0.243385 0.897046 0.0786017 -0.63271
O_ O_ 0.209855 0.831198 0.0305854 -0.57982
O_ O_ 0.347186 0.851756 0.104023 -0.63271
O_ O_ 0.386136 0.919239 0.0863698 -0.57982
O_ O_ 0.999428 0.897454 0.101787 -0.63271
O_ O_ 0.455609 0.961098 0.15206 -0.57982
O_ O_ 0.106808 0.887277 0.150009 -0.63271
O_ O_ 0.133214 0.895598 0.0706055 -0.57982
O_ O_ 0.255036 0.604784 0.409415 -0.63271
O_ O_ 0.29957 0.659695 0.462738 -0.57982
O_ O_ 0.155056 0.647509 0.401179 -0.63271
O_ O_ 0.113014 0.581624 0.41764 -0.57982
F_ F_ 0.436216 0.829171 0.428582 -0.20885
F_ F_ 0.418304 0.814617 0.344158 -0.20885
F_ F_ 0.365769 0.795006 0.396935 -0.20885
F_ F_ 0.306985 0.932687 0.329024 -0.20885
F_ F_ 0.309244 0.848448 0.323893 -0.20885
F_ F_ 0.368275 0.881927 0.293032 -0.20885
F_ F_ 0.0708855 0.659181 0.057936 -0.20885
F_ F_ 0.074605 0.675375 0.142773 -0.20885
F_ F_ 0.138243 0.688106 0.0951587 -0.20885
F_ F_ 0.174048 0.550491 0.171443 -0.20885
F_ F_ 0.181486 0.634451 0.184118 -0.20885
F_ F_ 0.107795 0.596717 0.194591 -0.20885
Zn Zn 0.0894651 0.585918 0.846235 0.83971
Zn Zn 0.160737 0.851441 0.595313 0.83971
Zn Zn 0.411599 0.916774 0.652576 0.83971
Zn Zn 0.342659 0.657876 0.925937 0.83971
H_ H_ 0.181239 0.628022 0.82352 0.10394
H_ H_ 0.260455 0.596196 0.788537 0.10394
H_ H_ 0.210235 0.947391 0.795507 0.10394
H_ H_ 0.130134 0.483589 0.810928 0.10394
H_ H_ 0.516114 0.599574 0.75967 0.10394
H_ H_ 0.48196 0.6751 0.711649 0.10394
H_ H_ 0.0416735 0.776725 0.82102 0.10394
H_ H_ 0.0811193 0.706988 0.869696 0.10394
H_ H_ 0.039713 0.955267 0.886883 0.10394
H_ H_ 0.485357 0.879542 0.874441 0.10394
H_ H_ 0.36245 0.990152 0.919986 0.10394
H_ H_ 0.0939281 0.790931 0.6409 0.10394
H_ H_ 0.494357 0.77848 0.588021 0.10394
H_ H_ 0.0533115 0.773284 0.937566 0.10394
H_ H_ 0.113775 0.836425 0.493351 0.10394
H_ H_ 0.225575 0.760718 0.604985 0.10394
H_ H_ 0.261404 0.710814 0.68078 0.10394
H_ H_ 0.213126 0.843919 0.781943 0.10394
H_ H_ 0.16747 0.879483 0.703662 0.10394
H_ H_ 0.226967 0.855501 0.939745 0.10394
H_ H_ 0.27656 0.881923 0.875139 0.10394
H_ H_ 0.404938 0.896512 0.991512 0.10394
H_ H_ 0.310789 0.895658 0.667462 0.10394
H_ H_ 0.235711 0.941456 0.707763 0.10394
H_ H_ 0.335263 0.546817 0.776347 0.10394
H_ H_ 0.404874 0.00597563 0.730306 0.10394
H_ H_ 0.0127118 0.889833 0.704687 0.10394
H_ H_ 0.0586022 0.804993 0.725859 0.10394
H_ H_ 0.412012 0.75868 0.740807 0.10394
H_ H_ 0.375564 0.820326 0.681153 0.10394
H_ H_ 0.457884 0.558884 0.630307 0.10394
H_ H_ 0.0270397 0.621082 0.623236 0.10394
H_ H_ 0.151058 0.502008 0.604458 0.10394
H_ H_ 0.444114 0.660396 0.902512 0.10394
H_ H_ 0.0160747 0.693124 0.932023 0.10394
H_ H_ 0.42125 0.769293 0.546015 0.10394
H_ H_ 0.355254 0.744271 0.00887195 0.10394
H_ H_ 0.238228 0.688374 0.889798 0.10394
H_ H_ 0.194261 0.724001 0.81468 0.10394
H_ H_ 0.33733 0.734377 0.755169 0.10394
H_ H_ 0.379807 0.704846 0.837476 0.10394
H_ H_ 0.292949 0.620098 0.550943 0.10394
H_ H_ 0.250515 0.61122 0.622186 0.10394
H_ H_ 0.109992 0.590449 0.516629 0.10394
C_ C_ 0.185986 0.588968 0.808228 0.18167
C_ C_ 0.232035 0.569863 0.789997 -0.15533
C_ C_ 0.238567 0.520213 0.773529 0.02923
C_ C_ 0.203229 0.987714 0.794751 -0.15533
C_ C_ 0.156936 0.507299 0.801598 0.18167
C_ C_ 0.029015 0.635622 0.773855 0.18167
C_ C_ 0.503365 0.680835 0.748545 -0.15533
C_ C_ 0.0143574 0.72619 0.756218 0.02923
C_ C_ 0.0392205 0.737193 0.805401 -0.15533
C_ C_ 0.0627101 0.6966 0.834097 0.18167
C_ C_ 0.00865275 0.550281 0.869969 0.69207
C_ C_ 0.476399 0.00824288 0.875252 0.02923
C_ C_ 0.497745 0.95562 0.875042 -0.15533
C_ C_ 0.469456 0.91826 0.883653 -0.15533
C_ C_ 0.420512 0.927991 0.898689 0.02923
C_ C_ 0.399618 0.979548 0.904814 -0.15533
C_ C_ 0.427317 0.0189085 0.888891 0.02923
C_ C_ 0.394109 0.57584 0.892788 0.69207
C_ C_ 0.409277 0.829206 0.885098 0.69661
C_ C_ 0.0791357 0.79311 0.601202 0.18167
C_ C_ 0.0311342 0.7768 0.583431 -0.15533
C_ C_ 0.0206692 0.768232 0.530577 0.02923
C_ C_ 0.0555173 0.780661 0.976799 -0.15533
C_ C_ 0.0949598 0.812724 0.518999 0.18167
C_ C_ 0.218559 0.773613 0.645109 0.18167
C_ C_ 0.243467 0.747282 0.686617 -0.15533
C_ C_ 0.236176 0.769897 0.73682 0.02923
C_ C_ 0.211442 0.819163 0.744807 -0.15533
C_ C_ 0.183812 0.83931 0.700945 0.18167
C_ C_ 0.238533 0.874539 0.549469 0.69207
C_ C_ 0.285677 0.865136 0.00396665 0.02923
C_ C_ 0.265123 0.868348 0.952161 -0.15533
C_ C_ 0.294239 0.881414 0.914783 -0.15533
C_ C_ 0.34577 0.887738 0.927221 0.02923
C_ C_ 0.364415 0.89082 0.980136 -0.15533
C_ C_ 0.334407 0.882427 0.0180127 0.02923
C_ C_ 0.350131 0.887142 0.5707 0.69207
C_ C_ 0.362067 0.891388 0.832351 0.69661
C_ C_ 0.316772 0.92683 0.691243 0.18167
C_ C_ 0.27528 0.952255 0.716849 -0.15533
C_ C_ 0.281678 0.996619 0.749535 0.02923
C_ C_ 0.33001 0.514085 0.752649 -0.15533
C_ C_ 0.365584 0.993682 0.722005 0.18167
C_ C_ 0.495361 0.854068 0.703089 0.18167
C_ C_ 0.0170017 0.809309 0.717935 -0.15533
C_ C_ 0.48828 0.775107 0.741673 0.02923
C_ C_ 0.435989 0.779256 0.725511 -0.15533
C_ C_ 0.415311 0.818822 0.694345 0.18167
C_ C_ 0.491046 0.952481 0.631011 0.69207
C_ C_ 0.0251853 0.491128 0.620496 0.02923
C_ C_ 1.0084151 0.542956 0.620673 -0.15533
C_ C_ 0.0433358 0.579948 0.618914 -0.15533
C_ C_ 0.0947645 0.565308 0.612826 0.02923
C_ C_ 0.109473 0.512904 0.606628 -0.15533
C_ C_ 0.0766265 0.476104 0.611196 0.02923
C_ C_ 0.0896425 0.929936 0.607808 0.69207
C_ C_ 0.115043 0.662175 0.621062 0.69661
C_ C_ 0.438809 0.689988 0.934302 0.18167
C_ C_ 0.482045 0.711027 0.956179 -0.15533
C_ C_ 0.479811 0.746065 -0.00022900000000003473 0.02923
C_ C_ 0.423816 0.75004 0.508906 -0.15533
C_ C_ 0.391135 0.735762 0.993669 0.18167
C_ C_ 0.260549 0.700982 0.86203 0.18167
C_ C_ 0.234738 0.721128 0.819027 -0.15533
C_ C_ 0.263137 0.740375 0.782344 0.02923
C_ C_ 0.315259 0.728682 0.785113 -0.15533
C_ C_ 0.339465 0.706475 0.831402 0.18167
C_ C_ 0.262426 0.617256 0.955412 0.69207
C_ C_ 0.225667 0.625774 0.495729 0.02923
C_ C_ 0.250193 0.62378 0.545255 -0.15533
C_ C_ 0.2249 0.613121 0.585928 -0.15533
C_ C_ 0.172002 0.601826 0.576674 0.02923
C_ C_ 0.1504 0.596238 0.526197 -0.15533
C_ C_ 0.174953 0.609176 0.483981 0.02923
C_ C_ 0.154314 0.610886 0.928308 0.69207
C_ C_ 0.163933 0.601863 0.673065 0.69661
C_ C_ 0.385393 0.88432 0.887598 -0.30787
C_ C_ 0.136361 0.604661 0.618768 -0.30787
N_ N_ 0.146783 0.559493 0.807201 -0.32189
N_ N_ 0.0597516 0.646852 0.816137 -0.32189
N_ N_ 0.108779 0.811289 0.569648 -0.32189
N_ N_ 0.193574 0.82067 0.653867 -0.32189
N_ N_ 0.361093 0.948874 0.692748 -0.32189
N_ N_ 0.44598 0.85434 0.680323 -0.32189
N_ N_ 0.394392 0.701835 0.952671 -0.32189
N_ N_ 0.311901 0.692192 0.867232 -0.32189
O_ O_ 0.502633 0.593131 0.887081 -0.63271
O_ O_ 0.0435227 0.536744 0.840773 -0.57982
O_ O_ 0.380615 0.595737 0.848877 -0.63271
O_ O_ 0.375655 0.596301 0.934323 -0.57982
O_ O_ 0.243469 0.899961 0.592888 -0.63271
O_ O_ 0.200512 0.844468 0.542187 -0.57982
O_ O_ 0.354478 0.842 0.592976 -0.63271
O_ O_ 0.379371 0.923334 0.588658 -0.57982
O_ O_ 0.978103 0.92214 0.594286 -0.63271
O_ O_ 0.455881 0.962031 0.662907 -0.57982
O_ O_ 0.0871435 0.904356 0.649026 -0.63271
O_ O_ 0.126854 0.91158 0.57902 -0.57982
O_ O_ 0.272108 0.584487 0.916048 -0.63271
O_ O_ 0.294125 0.652382 0.965949 -0.57982
O_ O_ 0.152795 0.654602 0.907799 -0.63271
O_ O_ 0.122518 0.579031 0.905591 -0.57982
F_ F_ 0.449091 0.82089 0.925371 -0.20885
F_ F_ 0.432014 0.81107 0.840718 -0.20885
F_ F_ 0.374613 0.796238 0.890817 -0.20885
F_ F_ 0.332835 0.93516 0.828168 -0.20885
F_ F_ 0.331552 0.852533 0.812286 -0.20885
F_ F_ 0.398056 0.895723 0.80019 -0.20885
F_ F_ 0.080712 0.670142 0.577687 -0.20885
F_ F_ 0.0897479 0.678897 0.662271 -0.20885
F_ F_ 0.153641 0.695168 0.617483 -0.20885
F_ F_ 0.199759 0.558926 0.671166 -0.20885
F_ F_ 0.188299 0.643224 0.694885 -0.20885
F_ F_ 0.129806 0.590689 0.707776 -0.20885
Zn Zn 0.583969 0.0844896 0.341462 0.83971
Zn Zn 0.66066 0.343945 0.0780045 0.83971
Zn Zn 0.902299 0.420711 0.155659 0.83971
Zn Zn 0.835518 0.158697 0.41909 0.83971
H_ H_ 0.663404 0.134498 0.294672 0.10394
H_ H_ 0.745993 0.102421 0.270959 0.10394
H_ H_ 0.715796 0.45746 0.282807 0.10394
H_ H_ 0.629115 0.985548 0.318279 0.10394
H_ H_ 0.0368728 0.101037 0.245809 0.10394
H_ H_ 0.990766 0.17607 0.202509 0.10394
H_ H_ 0.516683 0.266595 0.33491 0.10394
H_ H_ 0.560305 0.193619 0.378376 0.10394
H_ H_ 0.531711 0.447279 0.371576 0.10394
H_ H_ 0.970471 0.376816 0.384391 0.10394
H_ H_ 0.84336 0.492931 0.391575 0.10394
H_ H_ 0.567778 0.315342 0.129112 0.10394
H_ H_ 0.996393 0.266865 0.105317 0.10394
H_ H_ 0.529776 0.298943 0.452726 0.10394
H_ H_ 0.629608 0.291911 0.98662 0.10394
H_ H_ 0.708826 0.244148 0.100174 0.10394
H_ H_ 0.745334 0.203668 0.180579 0.10394
H_ H_ 0.724503 0.344602 0.262679 0.10394
H_ H_ 0.686366 0.385202 0.186041 0.10394
H_ H_ 0.707846 0.364103 0.443347 0.10394
H_ H_ 0.756315 0.38056 0.377075 0.10394
H_ H_ 0.887057 0.403115 0.486664 0.10394
H_ H_ 0.794888 0.408395 0.159888 0.10394
H_ H_ 0.723553 0.475173 0.179385 0.10394
H_ H_ 0.834939 0.0507174 0.282655 0.10394
H_ H_ 0.899586 0.508483 0.235689 0.10394
H_ H_ 0.508128 0.379654 0.194248 0.10394
H_ H_ 0.541326 0.311652 0.250497 0.10394
H_ H_ 0.914327 0.245711 0.219951 0.10394
H_ H_ 0.867032 0.328223 0.184465 0.10394
H_ H_ 0.975046 0.0427809 0.13561 0.10394
H_ H_ 0.51488 0.115298 0.0992076 0.10394
H_ H_ 0.644292 0.00479927 0.103353 0.10394
H_ H_ 0.936275 0.170535 0.39564 0.10394
H_ H_ 0.514758 0.19293 0.45298 0.10394
H_ H_ 0.915124 0.264103 0.0507976 0.10394
H_ H_ 0.846136 0.230462 0.510727 0.10394
H_ H_ 0.733823 0.207358 0.394132 0.10394
H_ H_ 0.686365 0.241959 0.317277 0.10394
H_ H_ 0.82349 0.23642 0.249381 0.10394
H_ H_ 0.870747 0.188225 0.324131 0.10394
H_ H_ 0.788992 0.117065 0.0526765 0.10394
H_ H_ 0.738916 0.109886 0.119963 0.10394
H_ H_ 0.608454 0.0978385 0.012896 0.10394
C_ C_ 0.67583 0.0935805 0.295777 0.18167
C_ C_ 0.721024 0.0758169 0.279167 -0.15533
C_ C_ 0.732251 0.0223805 0.271417 0.02923
C_ C_ 0.700404 0.498507 0.28173 -0.15533
C_ C_ 0.657267 0.00953084 0.311069 0.18167
C_ C_ 0.516159 0.131771 0.271191 0.18167
C_ C_ 0.0116569 0.181098 0.237962 -0.15533
C_ C_ 0.495408 0.222764 0.26371 0.02923
C_ C_ 0.517567 0.230501 0.31317 -0.15533
C_ C_ 0.542685 0.187932 0.338858 0.18167
C_ C_ 0.505915 0.0460733 0.365898 0.69207
C_ C_ 0.966876 0.504893 0.376999 0.02923
C_ C_ 0.984959 0.455035 0.372836 -0.15533
C_ C_ 0.952994 0.415787 0.380993 -0.15533
C_ C_ 0.901426 0.42945 0.386827 0.02923
C_ C_ 0.882271 0.481432 0.389225 -0.15533
C_ C_ 0.91908 0.520521 0.391558 0.02923
C_ C_ 0.896312 0.0733512 0.39114 0.69207
C_ C_ 0.890029 0.329455 0.389307 0.69661
C_ C_ 0.56444 0.302952 0.0894574 0.18167
C_ C_ 0.519799 0.28021 0.0692109 -0.15533
C_ C_ 0.516648 0.26408 0.0180599 0.02923
C_ C_ 0.541954 0.29125 0.491214 -0.15533
C_ C_ 0.599665 0.287848 0.0103165 0.18167
C_ C_ 0.714547 0.26667 0.137119 0.18167
C_ C_ 0.730485 0.241487 0.18078 -0.15533
C_ C_ 0.729693 0.267532 0.229641 0.02923
C_ C_ 0.712391 0.319268 0.229591 -0.15533
C_ C_ 0.697665 0.343391 0.183531 0.18167
C_ C_ 0.737884 0.368034 0.0385487 0.69207
C_ C_ 0.769662 0.374353 0.507689 0.02923
C_ C_ 0.748211 0.372701 0.453946 -0.15533
C_ C_ 0.7756 0.38267 0.415244 -0.15533
C_ C_ 0.827831 0.39236 0.426342 0.02923
C_ C_ 0.849501 0.393263 0.47838 -0.15533
C_ C_ 0.818918 0.386599 0.517677 0.02923
C_ C_ 0.848259 0.387167 0.0722346 0.69207
C_ C_ 0.840059 0.384231 0.328076 0.69661
C_ C_ 0.804303 0.44358 0.18263 0.18167
C_ C_ 0.763694 0.479675 0.193801 -0.15533
C_ C_ 0.772762 0.515425 0.234811 0.02923
C_ C_ 0.828124 0.0154466 0.256901 -0.15533
C_ C_ 0.862126 0.496184 0.228145 0.18167
C_ C_ 0.984986 0.360222 0.202484 0.18167
C_ C_ 0.506188 0.306869 0.226488 -0.15533
C_ C_ 0.985959 0.275402 0.235695 0.02923
C_ C_ 0.932835 0.278587 0.219851 -0.15533
C_ C_ 0.907055 0.323648 0.195927 0.18167
C_ C_ 0.976493 0.456134 0.126098 0.69207
C_ C_ 0.521827 0.989019 0.106128 0.02923
C_ C_ 0.500359 0.039518 0.102613 -0.15533
C_ C_ 0.533004 0.0780175 0.10651 -0.15533
C_ C_ 0.586016 0.0680397 0.103203 0.02923
C_ C_ 0.605008 0.0169727 0.101917 -0.15533
C_ C_ 0.574357 0.976214 0.100673 0.02923
C_ C_ 0.593419 0.421651 0.101088 0.69207
C_ C_ 0.600262 0.165627 0.112577 0.69661
C_ C_ 0.932243 0.193584 0.42817 0.18167
C_ C_ 0.974467 0.211078 0.454324 -0.15533
C_ C_ 0.968937 0.245156 0.49538 0.02923
C_ C_ 0.922912 0.240231 0.0187551 -0.15533
C_ C_ 0.882556 0.223771 0.49362 0.18167
C_ C_ 0.753517 0.216848 0.362462 0.18167
C_ C_ 0.728512 0.238564 0.318595 -0.15533
C_ C_ 0.754749 0.2417 0.276658 0.02923
C_ C_ 0.804938 0.229309 0.280608 -0.15533
C_ C_ 0.830922 0.201963 0.322786 0.18167
C_ C_ 0.761445 0.128875 0.454215 0.69207
C_ C_ 0.727788 0.112142 0.991516 0.02923
C_ C_ 0.749135 0.110581 0.0428142 -0.15533
C_ C_ 0.719954 0.108724 0.082411 -0.15533
C_ C_ 0.666407 0.104233 0.0747129 0.02923
C_ C_ 0.648902 0.0998601 0.0225859 -0.15533
C_ C_ 0.677802 0.10496 0.979971 0.02923
C_ C_ 0.648391 0.111203 0.420841 0.69207
C_ C_ 0.648117 0.105736 0.170497 0.69661
C_ C_ 0.865515 0.385966 0.384673 -0.30787
C_ C_ 0.625025 0.109269 0.114065 -0.30787
N_ N_ 0.642739 0.0606366 0.308016 -0.32189
N_ N_ 0.547074 0.141364 0.315055 -0.32189
N_ N_ 0.603188 0.304025 0.0605563 -0.32189
N_ N_ 0.695047 0.315139 0.138492 -0.32189
N_ N_ 0.85274 0.453448 0.199806 -0.32189
N_ N_ 0.933361 0.361619 0.189276 -0.32189
N_ N_ 0.886856 0.195478 0.449517 -0.32189
N_ N_ 0.802892 0.193589 0.360934 -0.32189
O_ O_ 0.00834004 0.0931129 0.39857 -0.63271
O_ O_ 0.54058 0.038354 0.332801 -0.57982
O_ O_ 0.892879 0.0960842 0.347274 -0.63271
O_ O_ 0.867361 0.0930908 0.426709 -0.57982
O_ O_ 0.746503 0.383109 0.0867019 -0.63271
O_ O_ 0.70224 0.336518 0.0255124 -0.57982
O_ O_ 0.858277 0.342362 0.0964385 -0.63271
O_ O_ 0.866799 0.428477 0.0922494 -0.57982
O_ O_ 0.484463 0.403938 0.0999844 -0.63271
O_ O_ 0.945054 0.46629 0.162223 -0.57982
O_ O_ 0.596634 0.398582 0.144873 -0.63271
O_ O_ 0.629706 0.408524 0.0704843 -0.57982
O_ O_ 0.762586 0.109742 0.409091 -0.63271
O_ O_ 0.794487 0.160901 0.469047 -0.57982
O_ O_ 0.648861 0.150925 0.391193 -0.63271
O_ O_ 0.611934 0.081467 0.408324 -0.57982
F_ F_ 0.921711 0.326282 0.43271 -0.20885
F_ F_ 0.915325 0.309083 0.348298 -0.20885
F_ F_ 0.853632 0.29577 0.39347 -0.20885
F_ F_ 0.809339 0.427485 0.318865 -0.20885
F_ F_ 0.813861 0.340379 0.314634 -0.20885
F_ F_ 0.876041 0.378887 0.293005 -0.20885
F_ F_ 0.571225 0.170103 0.0642797 -0.20885
F_ F_ 0.567672 0.180699 0.149176 -0.20885
F_ F_ 0.637956 0.200906 0.111881 -0.20885
F_ F_ 0.676964 0.0581634 0.176274 -0.20885
F_ F_ 0.682059 0.140603 0.187716 -0.20885
F_ F_ 0.6124 0.113293 0.206347 -0.20885
Zn Zn 0.589092 0.0851547 0.851928 0.83971
Zn Zn 0.654095 0.351038 0.58653 0.83971
Zn Zn 0.906224 0.41431 0.65204 0.83971
Zn Zn 0.835963 0.157402 0.91407 0.83971
H_ H_ 0.667507 0.13293 0.803927 0.10394
H_ H_ 0.746808 0.0956032 0.766203 0.10394
H_ H_ 0.710655 0.441312 0.7832 0.10394
H_ H_ 0.63311 0.982617 0.831078 0.10394
H_ H_ 0.000837945 0.0970514 0.766082 0.10394
H_ H_ 0.964695 0.162961 0.708999 0.10394
H_ H_ 0.518243 0.264243 0.829309 0.10394
H_ H_ 0.559656 0.187279 0.875025 0.10394
H_ H_ 0.524087 0.448016 0.846665 0.10394
H_ H_ 0.988471 0.382456 0.896964 0.10394
H_ H_ 0.858169 0.494131 0.908796 0.10394
H_ H_ 0.566237 0.318288 0.636517 0.10394
H_ H_ -0.00115387 0.264533 0.594251 0.10394
H_ H_ 0.554532 0.249878 0.949161 0.10394
H_ H_ 0.615759 0.321111 0.488526 0.10394
H_ H_ 0.707924 0.266682 0.595719 0.10394
H_ H_ 0.760495 0.214616 0.660549 0.10394
H_ H_ 0.715706 0.336486 0.770799 0.10394
H_ H_ 0.670433 0.381452 0.702412 0.10394
H_ H_ 0.720657 0.371356 0.939541 0.10394
H_ H_ 0.779568 0.371063 0.875926 0.10394
H_ H_ 0.89664 0.403082 0.994994 0.10394
H_ H_ 0.802934 0.400525 0.658206 0.10394
H_ H_ 0.728794 0.465113 0.683062 0.10394
H_ H_ 0.831023 0.0444845 0.775323 0.10394
H_ H_ 0.909083 0.490741 0.74867 0.10394
H_ H_ 0.502917 0.392646 0.698761 0.10394
H_ H_ 0.550369 0.316544 0.751531 0.10394
H_ H_ 0.904883 0.256879 0.741931 0.10394
H_ H_ 0.8665 0.328799 0.691514 0.10394
H_ H_ 0.962905 0.0555054 0.638164 0.10394
H_ H_ 0.514672 0.119711 0.614184 0.10394
H_ H_ 0.643734 0.00948337 0.589736 0.10394
H_ H_ 0.937597 0.165617 0.893514 0.10394
H_ H_ 0.516117 0.167012 0.985318 0.10394
H_ H_ 0.919312 0.274671 0.55102 0.10394
H_ H_ 0.847163 0.224079 0.00763767 0.10394
H_ H_ 0.727445 0.178009 0.865881 0.10394
H_ H_ 0.689547 0.223167 0.791276 0.10394
H_ H_ 0.835351 0.217902 0.740256 0.10394
H_ H_ 0.874512 0.184394 0.826295 0.10394
H_ H_ 0.785621 0.108278 0.553691 0.10394
H_ H_ 0.732939 0.093437 0.615579 0.10394
H_ H_ 0.600261 0.103687 0.50451 0.10394
C_ C_ 0.675919 0.0915377 0.799543 0.18167
C_ C_ 0.719959 0.0710514 0.776883 -0.15533
C_ C_ 0.732063 0.0175683 0.770888 0.02923
C_ C_ 0.699582 0.484057 0.787339 -0.15533
C_ C_ 0.656591 0.00493891 0.809639 0.18167
C_ C_ 0.530766 0.130074 0.764343 0.18167
C_ C_ -0.009990000000000054 0.172621 0.742652 -0.15533
C_ C_ 0.51296 0.223943 0.757036 0.02923
C_ C_ 0.527695 0.228278 0.808612 -0.15533
C_ C_ 0.545849 0.184995 0.836206 0.18167
C_ C_ 0.509493 0.0478738 0.864981 0.69207
C_ C_ 0.976385 0.509468 0.88062 0.02923
C_ C_ 1.000086798 0.458075 0.888703 -0.15533
C_ C_ 0.97032 0.419641 0.895232 -0.15533
C_ C_ 0.915895 0.430891 0.900132 0.02923
C_ C_ 0.895972 0.482721 0.895643 -0.15533
C_ C_ 0.924042 0.521188 0.885532 0.02923
C_ C_ 0.89236 0.071584 0.879712 0.69207
C_ C_ 0.907309 0.333716 0.897257 0.69661
C_ C_ 0.564869 0.304832 0.596536 0.18167
C_ C_ 0.52444 0.278135 0.576684 -0.15533
C_ C_ 0.513304 0.269179 0.522478 0.02923
C_ C_ 0.556279 0.267278 0.987749 -0.15533
C_ C_ 0.588037 0.311993 0.512167 0.18167
C_ C_ 0.715172 0.278725 0.63454 0.18167
C_ C_ 0.740692 0.250891 0.67336 -0.15533
C_ C_ 0.739731 0.268966 0.723225 0.02923
C_ C_ 0.715506 0.318291 0.732782 -0.15533
C_ C_ 0.689391 0.34579 0.692701 0.18167
C_ C_ 0.73433 0.371443 0.547601 0.69207
C_ C_ 0.775937 0.376679 1.00281408 0.02923
C_ C_ 0.759707 0.368284 0.950968 -0.15533
C_ C_ 0.790141 0.379384 0.914698 -0.15533
C_ C_ 0.839763 0.394025 0.928831 0.02923
C_ C_ 0.856118 0.402555 0.981223 -0.15533
C_ C_ 0.826098 0.388609 0.0178762 0.02923
C_ C_ 0.844248 0.384879 0.570343 0.69207
C_ C_ 0.858133 0.389906 0.831986 0.69661
C_ C_ 0.809413 0.434918 0.682377 0.18167
C_ C_ 0.767416 0.462683 0.70186 -0.15533
C_ C_ 0.776347 0.497268 0.742332 0.02923
C_ C_ 0.823943 0.0126861 0.749547 -0.15533
C_ C_ 0.869071 0.481108 0.737654 0.18167
C_ C_ 0.988466 0.338082 0.678421 0.18167
C_ C_ 0.51217 0.315469 0.727537 -0.15533
C_ C_ 0.979935 0.266423 0.728491 0.02923
C_ C_ 0.927906 0.27944 0.722491 -0.15533
C_ C_ 0.90756 0.321807 0.697706 0.18167
C_ C_ 0.985155 0.454675 0.622715 0.69207
C_ C_ 0.525265 0.990933 0.621109 0.02923
C_ C_ 0.505757 0.0427484 0.626517 -0.15533
C_ C_ 0.534802 0.0817866 0.617062 -0.15533
C_ C_ 0.58453 0.07036 0.601545 0.02923
C_ C_ 0.605447 0.0183203 0.599084 -0.15533
C_ C_ 0.577375 0.979181 0.612124 0.02923
C_ C_ 0.589646 0.428179 0.600319 0.69207
C_ C_ 0.596437 0.166104 0.601861 0.69661
C_ C_ 0.935087 0.18243 0.929826 0.18167
C_ C_ 0.977242 0.19873 0.957673 -0.15533
C_ C_ 0.971681 0.230464 0.0016799999999999038 0.02923
C_ C_ 0.922752 0.251519 0.516002 -0.15533
C_ C_ 0.881183 0.222585 0.989423 0.18167
C_ C_ 0.752172 0.195967 0.846065 0.18167
C_ C_ 0.729659 0.221779 0.801892 -0.15533
C_ C_ 0.760143 0.237994 0.767691 0.02923
C_ C_ 0.811396 0.216855 0.771706 -0.15533
C_ C_ 0.833387 0.196217 0.818824 0.18167
C_ C_ 0.761697 0.120838 0.953191 0.69207
C_ C_ 0.727713 0.112504 0.490238 0.02923
C_ C_ 0.745594 0.112947 0.542037 -0.15533
C_ C_ 0.714665 0.100225 0.577533 -0.15533
C_ C_ 0.660846 0.102225 0.565439 0.02923
C_ C_ 0.641311 0.105133 0.514749 -0.15533
C_ C_ 0.67434 0.113158 0.476741 0.02923
C_ C_ 0.652191 0.105236 0.929478 0.69207
C_ C_ 0.649349 0.112255 0.664059 0.69661
C_ C_ 0.879764 0.389481 0.890577 -0.30787
C_ C_ 0.622541 0.110608 0.608816 -0.30787
N_ N_ 0.644556 0.0572438 0.811949 -0.32189
N_ N_ 0.549209 0.138658 0.813862 -0.32189
N_ N_ 0.601863 0.312593 0.564403 -0.32189
N_ N_ 0.685331 0.322731 0.64464 -0.32189
N_ N_ 0.858056 0.445161 0.698506 -0.32189
N_ N_ 0.937522 0.350213 0.676309 -0.32189
N_ N_ 0.887033 0.196059 0.944508 -0.32189
N_ N_ 0.802081 0.185165 0.852947 -0.32189
O_ O_ -0.00105583 0.0968219 0.878646 -0.63271
O_ O_ 0.549382 0.0335535 0.842074 -0.57982
O_ O_ 0.88941 0.0949229 0.836606 -0.63271
O_ O_ 0.870225 0.0945594 0.920087 -0.57982
O_ O_ 0.735533 0.403059 0.588799 -0.63271
O_ O_ 0.69847 0.33979 0.540111 -0.57982
O_ O_ 0.847975 0.341582 0.594484 -0.63271
O_ O_ 0.869715 0.420856 0.592975 -0.57982
O_ O_ 0.481041 0.411827 0.593621 -0.63271
O_ O_ 0.954435 0.459935 0.659171 -0.57982
O_ O_ 0.59095 0.404051 0.642652 -0.63271
O_ O_ 0.627418 0.413605 0.573881 -0.57982
O_ O_ 0.758104 0.0935817 0.909257 -0.63271
O_ O_ 0.785599 0.161582 0.9568 -0.57982
O_ O_ 0.652615 0.1438 0.899509 -0.63271
O_ O_ 0.614628 0.0766112 0.917301 -0.57982
F_ F_ 0.934536 0.327863 0.94267 -0.20885
F_ F_ 0.939948 0.314181 0.859465 -0.20885
F_ F_ 0.872948 0.298362 0.894832 -0.20885
F_ F_ 0.818599 0.426674 0.825837 -0.20885
F_ F_ 0.83688 0.345523 0.813497 -0.20885
F_ F_ 0.89606 0.39514 0.798303 -0.20885
F_ F_ 0.559138 0.162648 0.559549 -0.20885
F_ F_ 0.571702 0.190815 0.641205 -0.20885
F_ F_ 0.631878 0.198061 0.588701 -0.20885
F_ F_ 0.677074 0.064644 0.671042 -0.20885
F_ F_ 0.684453 0.147149 0.671102 -0.20885
F_ F_ 0.613948 0.120682 0.69722 -0.20885
Zn Zn 0.588376 0.587598 0.34866 0.83971
Zn Zn 0.670429 0.84636 0.0861681 0.83971
Zn Zn 0.911851 0.913744 0.159908 0.83971
Zn Zn 0.843071 0.656801 0.425174 0.83971
H_ H_ 0.660918 0.642845 0.3041 0.10394
H_ H_ 0.745864 0.610975 0.272779 0.10394
H_ H_ 0.717255 0.94986 0.297976 0.10394
H_ H_ 0.632171 0.487725 0.318595 0.10394
H_ H_ 0.0262721 0.5978 0.258612 0.10394
H_ H_ 1.00613709 0.669404 0.202969 0.10394
H_ H_ 0.542632 0.775768 0.331916 0.10394
H_ H_ 0.581084 0.699776 0.379839 0.10394
H_ H_ 0.519908 0.945902 0.348 0.10394
H_ H_ 0.983137 0.88789 0.38778 0.10394
H_ H_ 0.847231 0.99139 0.391099 0.10394
H_ H_ 0.593928 0.793646 0.131748 0.10394
H_ H_ 1.00536444 0.748347 0.0835107 0.10394
H_ H_ 0.540181 0.790366 0.441078 0.10394
H_ H_ 0.6348 0.802805 0.982834 0.10394
H_ H_ 0.728471 0.758214 0.102295 0.10394
H_ H_ 0.780096 0.712522 0.172726 0.10394
H_ H_ 0.717225 0.834556 0.275045 0.10394
H_ H_ 0.67465 0.876853 0.197893 0.10394
H_ H_ 0.723853 0.854589 0.440273 0.10394
H_ H_ 0.771544 0.880365 0.373987 0.10394
H_ H_ 0.897812 0.9028 0.489768 0.10394
H_ H_ 0.809747 0.895525 0.170225 0.10394
H_ H_ 0.732767 0.952845 0.189453 0.10394
H_ H_ 0.832122 0.561879 0.267577 0.10394
H_ H_ 0.907488 1.00323226 0.238631 0.10394
H_ H_ 0.514869 0.878697 0.185092 0.10394
H_ H_ 0.554665 0.812293 0.237296 0.10394
H_ H_ 0.918743 0.733192 0.215085 0.10394
H_ H_ 0.871461 0.816086 0.18266 0.10394
H_ H_ 0.956313 0.558213 0.121415 0.10394
H_ H_ 0.509752 0.615054 0.104145 0.10394
H_ H_ 0.641266 0.50451 0.102012 0.10394
H_ H_ 0.946694 0.659447 0.414212 0.10394
H_ H_ 0.512561 0.705159 0.427583 0.10394
H_ H_ 0.922881 0.777157 0.0344942 0.10394
H_ H_ 0.846894 0.741995 0.509691 0.10394
H_ H_ 0.742417 0.719695 0.39638 0.10394
H_ H_ 0.706641 0.756464 0.314935 0.10394
H_ H_ 0.846269 0.725087 0.253183 0.10394
H_ H_ 0.884236 0.68927 0.335718 0.10394
H_ H_ 0.776765 0.625071 0.0591266 0.10394
H_ H_ 0.720403 0.627574 0.121812 0.10394
H_ H_ 0.607006 0.570736 0.00592785 0.10394
C_ C_ 0.671941 0.602014 0.295695 0.18167
C_ C_ 0.718427 0.58456 0.276631 -0.15533
C_ C_ 0.730476 0.534334 0.266149 0.02923
C_ C_ 0.700359 0.988464 0.290176 -0.15533
C_ C_ 0.656493 0.513874 0.3057 0.18167
C_ C_ 0.524559 0.63788 0.276229 0.18167
C_ C_ 0.0169116 0.675753 0.242964 -0.15533
C_ C_ 0.509041 0.729116 0.268453 0.02923
C_ C_ 0.538942 0.737559 0.314793 -0.15533
C_ C_ 0.561575 0.694209 0.340162 0.18167
C_ C_ 0.505488 0.545824 0.370412 0.69207
C_ C_ 0.972018 0.0111597 0.385078 0.02923
C_ C_ -0.005233000000000043 0.962763 0.396741 -0.15533
C_ C_ 0.964988 0.923546 0.399241 -0.15533
C_ C_ 0.910888 0.930654 0.398111 0.02923
C_ C_ 0.890003 0.982188 0.398059 -0.15533
C_ C_ 0.919481 0.0212715 0.392185 0.02923
C_ C_ 0.896383 0.57596 0.394177 0.69207
C_ C_ 0.907344 0.831798 0.3933 0.69661
C_ C_ 0.582663 0.796871 0.0928564 0.18167
C_ C_ 0.53407 0.786398 0.0749827 -0.15533
C_ C_ 0.525871 0.770672 0.0217309 0.02923
C_ C_ 0.548635 0.785125 0.480493 -0.15533
C_ C_ 0.607417 0.795738 0.00942578 0.18167
C_ C_ 0.730744 0.776197 0.13971 0.18167
C_ C_ 0.759031 0.750647 0.180645 -0.15533
C_ C_ 0.751163 0.771903 0.230748 0.02923
C_ C_ 0.724032 0.818475 0.238282 -0.15533
C_ C_ 0.699924 0.84249 0.195178 0.18167
C_ C_ 0.746165 0.874121 0.0463774 0.69207
C_ C_ 0.775924 0.877902 0.506244 0.02923
C_ C_ 0.759703 0.870572 0.453155 -0.15533
C_ C_ 0.787755 0.882947 0.41264 -0.15533
C_ C_ 0.83908 0.894414 0.426556 0.02923
C_ C_ 0.855952 0.901471 0.480217 -0.15533
C_ C_ 0.826418 0.893833 0.520009 0.02923
C_ C_ 0.858053 0.879774 0.0710032 0.69207
C_ C_ 0.856549 0.887546 0.329758 0.69661
C_ C_ 0.814271 0.930181 0.192582 0.18167
C_ C_ 0.769998 0.96047 0.206653 -0.15533
C_ C_ 0.776866 1.00029 0.24473 0.02923
C_ C_ 0.822303 0.527282 0.247623 -0.15533
C_ C_ 0.869163 0.990287 0.232177 0.18167
C_ C_ 0.984936 0.855017 0.213561 0.18167
C_ C_ 0.516002 0.807944 0.2214 -0.15533
C_ C_ 0.986796 0.768152 0.239138 0.02923
C_ C_ 0.937513 0.7688 0.213762 -0.15533
C_ C_ 0.912293 0.812523 0.190502 0.18167
C_ C_ 0.993609 0.945147 0.123312 0.69207
C_ C_ 0.517417 0.486672 0.110132 0.02923
C_ C_ 0.497477 0.538536 0.109742 -0.15533
C_ C_ 0.52792 0.576451 0.0997033 -0.15533
C_ C_ 0.580291 0.566789 0.0967278 0.02923
C_ C_ 0.60053 0.514399 0.0975171 -0.15533
C_ C_ 0.568755 0.475204 0.10075 0.02923
C_ C_ 0.598965 0.921605 0.102812 0.69207
C_ C_ 0.590107 0.667797 0.104334 0.69661
C_ C_ 0.94074 0.676 0.451384 0.18167
C_ C_ 0.981008 0.699819 0.474629 -0.15533
C_ C_ 0.97259 0.742484 0.5113 0.02923
C_ C_ 0.925688 0.751081 1.00250476 -0.15533
C_ C_ 0.884303 0.730062 0.499403 0.18167
C_ C_ 0.765323 0.718717 0.364339 0.18167
C_ C_ 0.746383 0.744108 0.31936 -0.15533
C_ C_ 0.774142 0.743463 0.27684 0.02923
C_ C_ 0.824644 0.719509 0.282425 -0.15533
C_ C_ 0.844374 0.699342 0.328572 0.18167
C_ C_ 0.759254 0.63397 0.45804 0.69207
C_ C_ 0.723224 0.613898 0.995345 0.02923
C_ C_ 0.737071 0.624277 0.0474842 -0.15533
C_ C_ 0.703821 0.623436 0.082596 -0.15533
C_ C_ 0.65532 0.60509 0.070209 0.02923
C_ C_ 0.642812 0.587219 0.0173125 -0.15533
C_ C_ 0.673386 0.598086 0.97926 0.02923
C_ C_ 0.654631 0.604472 0.42498 0.69207
C_ C_ 0.632461 0.606344 0.165362 0.69661
C_ C_ 0.87773 0.886365 0.387993 -0.30787
C_ C_ 0.614256 0.610443 0.108122 -0.30787
N_ N_ 0.640991 0.565287 0.30723 -0.32189
N_ N_ 0.553616 0.644957 0.320702 -0.32189
N_ N_ 0.617646 0.807101 0.0604388 -0.32189
N_ N_ 0.700554 0.819673 0.148106 -0.32189
N_ N_ 0.86189 0.948189 0.201941 -0.32189
N_ N_ 0.937023 0.85459 0.189936 -0.32189
N_ N_ 0.892679 0.695087 0.460489 -0.32189
N_ N_ 0.814121 0.692488 0.365695 -0.32189
O_ O_ -0.00040317 0.588413 0.390819 -0.63271
O_ O_ 0.545797 0.536864 0.343692 -0.57982
O_ O_ 0.886987 0.599526 0.350837 -0.63271
O_ O_ 0.869817 0.592878 0.430616 -0.57982
O_ O_ 0.748205 0.900124 0.0900843 -0.63271
O_ O_ 0.711204 0.84288 0.0358692 -0.57982
O_ O_ 0.86227 0.835428 0.0919154 -0.63271
O_ O_ 0.878689 0.917388 0.0956088 -0.57982
O_ O_ 0.491547 0.904508 0.0945745 -0.63271
O_ O_ 0.959821 0.957483 0.1574 -0.57982
O_ O_ 0.597392 0.894203 0.143081 -0.63271
O_ O_ 0.638106 0.90885 0.0761272 -0.57982
O_ O_ 0.759538 0.612354 0.41152 -0.63271
O_ O_ 0.795781 0.664789 0.470896 -0.57982
O_ O_ 0.654686 0.645696 0.399262 -0.63271
O_ O_ 0.621791 0.571901 0.409617 -0.57982
F_ F_ 0.940053 0.828311 0.440307 -0.20885
F_ F_ 0.932542 0.812703 0.349519 -0.20885
F_ F_ 0.872614 0.798086 0.390795 -0.20885
F_ F_ 0.816334 0.927597 0.325435 -0.20885
F_ F_ 0.836087 0.843667 0.309474 -0.20885
F_ F_ 0.892703 0.900031 0.30099 -0.20885
F_ F_ 0.567051 0.674992 0.0561712 -0.20885
F_ F_ 0.555259 0.684709 0.139801 -0.20885
F_ F_ 0.62744 0.701596 0.113362 -0.20885
F_ F_ 0.670341 0.566734 0.172854 -0.20885
F_ F_ 0.651509 0.650998 0.189328 -0.20885
F_ F_ 0.599252 0.592299 0.196969 -0.20885
Zn Zn 0.587355 0.581525 0.844671 0.83971
Zn Zn 0.658932 0.85067 0.579257 0.83971
Zn Zn 0.909644 0.916245 0.658595 0.83971
Zn Zn 0.833748 0.656291 0.910453 0.83971
H_ H_ 0.66085 0.628834 0.794968 0.10394
H_ H_ 0.739493 0.594059 0.755245 0.10394
H_ H_ 0.720804 0.944165 0.797631 0.10394
H_ H_ 0.637221 0.486852 0.831003 0.10394
H_ H_ 0.0150472 0.596915 0.767294 0.10394
H_ H_ 0.976035 0.667936 0.709215 0.10394
H_ H_ 0.551736 0.769768 0.833522 0.10394
H_ H_ 0.593096 0.693003 0.87438 0.10394
H_ H_ 0.530881 0.946344 0.85705 0.10394
H_ H_ 0.989193 0.884178 0.889128 0.10394
H_ H_ 0.863533 0.987115 0.918397 0.10394
H_ H_ 0.576975 0.801537 0.624555 0.10394
H_ H_ 0.0103553 0.756787 0.606988 0.10394
H_ H_ 0.553789 0.776147 0.949177 0.10394
H_ H_ 0.611123 0.828998 0.478221 0.10394
H_ H_ 0.718819 0.753722 0.589385 0.10394
H_ H_ 0.750375 0.704266 0.664043 0.10394
H_ H_ 0.722162 0.835683 0.76327 0.10394
H_ H_ 0.673814 0.879092 0.690178 0.10394
H_ H_ 0.719191 0.876584 0.944238 0.10394
H_ H_ 0.772703 0.892587 0.87903 0.10394
H_ H_ 0.907375 0.898482 0.98765 0.10394
H_ H_ 0.80733 0.887993 0.671138 0.10394
H_ H_ 0.734443 0.939497 0.702457 0.10394
H_ H_ 0.829782 0.539546 0.788253 0.10394
H_ H_ 0.901101 1.00231243 0.724511 0.10394
H_ H_ 0.519174 0.882736 0.695289 0.10394
H_ H_ 0.557438 0.807759 0.741042 0.10394
H_ H_ 0.9177 0.742456 0.720486 0.10394
H_ H_ 0.873508 0.819139 0.683382 0.10394
H_ H_ 0.973345 0.554895 0.634477 0.10394
H_ H_ 0.516 0.621892 0.622597 0.10394
H_ H_ 0.634572 0.512036 0.588367 0.10394
H_ H_ 0.936415 0.663845 0.88049 0.10394
H_ H_ 0.517671 0.698135 0.943743 0.10394
H_ H_ 0.915266 0.78823 0.55321 0.10394
H_ H_ 0.84607 0.733915 0.996139 0.10394
H_ H_ 0.733049 0.691454 0.874659 0.10394
H_ H_ 0.692328 0.716274 0.790804 0.10394
H_ H_ 0.838707 0.744047 0.74469 0.10394
H_ H_ 0.879254 0.696817 0.819981 0.10394
H_ H_ 0.786469 0.622308 0.563065 0.10394
H_ H_ 0.73026 0.602379 0.623943 0.10394
H_ H_ 0.600952 0.590636 0.503436 0.10394
C_ C_ 0.672598 0.587957 0.792627 0.18167
C_ C_ 0.719078 0.570534 0.774981 -0.15533
C_ C_ 0.732101 0.517295 0.773457 0.02923
C_ C_ 0.706743 0.985472 0.795788 -0.15533
C_ C_ 0.656952 0.505052 0.808184 0.18167
C_ C_ 0.523844 0.63678 0.774235 0.18167
C_ C_ 0.00599973 0.67443 0.740945 -0.15533
C_ C_ 0.511626 0.72971 0.770259 0.02923
C_ C_ 0.545141 0.733134 0.815398 -0.15533
C_ C_ 0.568066 0.689234 0.838713 0.18167
C_ C_ 0.504371 0.548726 0.862576 0.69207
C_ C_ 0.975484 0.0128129 0.879916 0.02923
C_ C_ -0.002179000000000042 0.963109 0.885043 -0.15533
C_ C_ 0.96995 0.922362 0.891361 -0.15533
C_ C_ 0.91691 0.931077 0.891509 0.02923
C_ C_ 0.898521 0.981206 0.904146 -0.15533
C_ C_ 0.921996 0.0216154 0.887009 0.02923
C_ C_ 0.899186 0.575741 0.880096 0.69207
C_ C_ 0.908545 0.832507 0.882208 0.69661
C_ C_ 0.569531 0.797592 0.584878 0.18167
C_ C_ 0.523522 0.781163 0.563139 -0.15533
C_ C_ 0.514329 0.770575 0.511605 0.02923
C_ C_ 0.561478 0.781263 0.989753 -0.15533
C_ C_ 0.591951 0.808618 0.50115 0.18167
C_ C_ 0.716622 0.772152 0.627975 0.18167
C_ C_ 0.73958 0.744455 0.668908 -0.15533
C_ C_ 0.736057 0.764247 0.719296 0.02923
C_ C_ 0.718112 0.81602 0.72687 -0.15533
C_ C_ 0.689068 0.840953 0.685174 0.18167
C_ C_ 0.737374 0.873046 0.543089 0.69207
C_ C_ 0.779784 0.879313 1.00530325 0.02923
C_ C_ 0.760127 0.876585 0.952939 -0.15533
C_ C_ 0.790859 0.889795 0.916639 -0.15533
C_ C_ 0.845466 0.888352 0.927282 0.02923
C_ C_ 0.864876 0.895624 0.978852 -0.15533
C_ C_ 0.831991 0.884853 0.0176655 0.02923
C_ C_ 0.85054 0.888167 0.573293 0.69207
C_ C_ 0.853706 0.899149 0.831544 0.69661
C_ C_ 0.811874 0.923115 0.689711 0.18167
C_ C_ 0.769928 0.950479 0.713414 -0.15533
C_ C_ 0.776487 -0.006178000000000017 0.74541 0.02923
C_ C_ 0.826507 0.508565 0.759109 -0.15533
C_ C_ 0.862245 0.988084 0.721772 0.18167
C_ C_ 0.992256 0.855354 0.699804 0.18167
C_ C_ 0.518323 0.812244 0.728449 -0.15533
C_ C_ 0.991397 0.767691 0.725501 0.02923
C_ C_ 0.938625 0.770838 0.70953 -0.15533
C_ C_ 0.914109 0.817308 0.689873 0.18167
C_ C_ 0.984106 0.960427 0.628406 0.69207
C_ C_ 0.515137 0.49382 0.613919 0.02923
C_ C_ 0.496945 0.546864 0.621137 -0.15533
C_ C_ 0.527166 0.585601 0.609196 -0.15533
C_ C_ 0.577866 0.570808 0.596538 0.02923
C_ C_ 0.595196 0.521056 0.592382 -0.15533
C_ C_ 0.565633 0.482048 0.601131 0.02923
C_ C_ 0.601289 0.925924 0.606986 0.69207
C_ C_ 0.595956 0.665978 0.605209 0.69661
C_ C_ 0.933851 0.688189 0.916081 0.18167
C_ C_ 0.978405 0.707487 0.940913 -0.15533
C_ C_ 0.973847 0.740849 0.984033 0.02923
C_ C_ 0.924133 0.754669 0.527208 -0.15533
C_ C_ 0.883119 0.728322 0.980517 0.18167
C_ C_ 0.757414 0.696097 0.842266 0.18167
C_ C_ 0.732731 0.71866 0.799519 -0.15533
C_ C_ 0.761028 0.733597 0.7625 0.02923
C_ C_ 0.815868 0.730515 0.774368 -0.15533
C_ C_ 0.838106 0.704845 0.816859 0.18167
C_ C_ 0.759496 0.621679 0.956724 0.69207
C_ C_ 0.725973 0.620015 0.497222 0.02923
C_ C_ 0.745016 0.617207 0.549939 -0.15533
C_ C_ 0.711282 0.609314 0.586022 -0.15533
C_ C_ 0.658495 0.602558 0.570021 0.02923
C_ C_ 0.642984 0.595639 0.517809 -0.15533
C_ C_ 0.675859 0.60543 0.479841 0.02923
C_ C_ 0.65133 0.600636 0.924756 0.69207
C_ C_ 0.639613 0.605656 0.665433 0.69661
C_ C_ 0.881325 0.8887 0.883844 -0.30787
C_ C_ 0.617137 0.60976 0.608507 -0.30787
N_ N_ 0.644289 0.555897 0.811069 -0.32189
N_ N_ 0.553449 0.642138 0.819654 -0.32189
N_ N_ 0.602239 0.813564 0.552735 -0.32189
N_ N_ 0.689984 0.817815 0.637459 -0.32189
N_ N_ 0.856782 0.943045 0.697072 -0.32189
N_ N_ 0.940542 0.85886 0.688373 -0.32189
N_ N_ 0.887724 0.698211 0.936738 -0.32189
N_ N_ 0.809453 0.693697 0.851812 -0.32189
O_ O_ 1.00677169 0.593828 0.895808 -0.63271
O_ O_ 0.541983 0.535959 0.83723 -0.57982
O_ O_ 0.894179 0.596815 0.835799 -0.63271
O_ O_ 0.868423 0.595407 0.914391 -0.57982
O_ O_ 0.742139 0.891624 0.590774 -0.63271
O_ O_ 0.699892 0.844324 0.529246 -0.57982
O_ O_ 0.848224 0.84518 0.594654 -0.63271
O_ O_ 0.875456 0.925434 0.595929 -0.57982
O_ O_ 0.486948 0.913591 0.600232 -0.63271
O_ O_ 0.956461 0.964232 0.6661 -0.57982
O_ O_ 0.593064 0.891188 0.63915 -0.63271
O_ O_ 0.63666 0.91411 0.575212 -0.57982
O_ O_ 0.76014 0.595445 0.914006 -0.63271
O_ O_ 0.787844 0.661358 0.959914 -0.57982
O_ O_ 0.664823 0.635687 0.897043 -0.63271
O_ O_ 0.611364 0.576794 0.908902 -0.57982
F_ F_ 0.946414 0.827139 0.922163 -0.20885
F_ F_ 0.937761 0.823908 0.839316 -0.20885
F_ F_ 0.877635 0.794451 0.879942 -0.20885
F_ F_ 0.826521 0.94644 0.830339 -0.20885
F_ F_ 0.827922 0.856171 0.815411 -0.20885
F_ F_ 0.890564 0.896564 0.797431 -0.20885
F_ F_ 0.566678 0.672287 0.559359 -0.20885
F_ F_ 0.571258 0.688118 0.645393 -0.20885
F_ F_ 0.636109 0.698164 0.607972 -0.20885
F_ F_ 0.666914 0.561791 0.676619 -0.20885
F_ F_ 0.670878 0.643204 0.685791 -0.20885
F_ F_ 0.603254 0.611886 0.699219 -0.20885
