_cell_length_a 26.508
_cell_length_b 26.37200000322088
_cell_length_c 26.311999743092066
_cell_angle_alpha 93.74100058972084
_cell_angle_beta 96.04100104955006
_cell_angle_gamma 83.6869992558723
_symmetry_space_group_name_H-M         'P 1'
_symmetry_Int_Tables_number            1
loop_
_symmetry_equiv_pos_as_xyz
   'x, y, z'
                         
loop_
_atom_site_label
_atom_site_type_symbol
_atom_site_fract_x 
_atom_site_fract_y
_atom_site_fract_z
_atom_site_charge
Zn Zn 0.0831509 0.0813868 0.346457 0.83971
Zn Zn 0.159036 0.34806 0.0776329 0.83971
Zn Zn 0.408931 0.416826 0.153973 0.83971
Zn Zn 0.339151 0.153149 0.410799 0.83971
H_ H_ 0.160611 0.125354 0.296189 0.10394
H_ H_ 0.233461 0.0966873 0.257058 0.10394
H_ H_ 0.199109 0.451049 0.271462 0.10394
H_ H_ 0.138694 0.976144 0.334048 0.10394
H_ H_ 0.516695 0.0965562 0.255888 0.10394
H_ H_ 0.459579 0.171437 0.215364 0.10394
H_ H_ 0.030957 0.260726 0.33523 0.10394
H_ H_ 0.0707888 0.187556 0.377475 0.10394
H_ H_ 0.0277767 0.441914 0.360466 0.10394
H_ H_ 0.468821 0.372984 0.351013 0.10394
H_ H_ 0.350043 0.481504 0.402728 0.10394
H_ H_ 0.0874258 0.312513 0.126271 0.10394
H_ H_ 0.5095 0.264578 0.104558 0.10394
H_ H_ 0.0398607 0.283369 0.452518 0.10394
H_ H_ 0.126561 0.310196 0.975032 0.10394
H_ H_ 0.207805 0.245977 0.0925113 0.10394
H_ H_ 0.254835 0.199596 0.167716 0.10394
H_ H_ 0.217347 0.334136 0.260426 0.10394
H_ H_ 0.192258 0.382375 0.182696 0.10394
H_ H_ 0.213944 0.364904 0.445317 0.10394
H_ H_ 0.261675 0.376561 0.377375 0.10394
H_ H_ 0.400036 0.389138 0.476514 0.10394
H_ H_ 0.302634 0.40935 0.155533 0.10394
H_ H_ 0.231396 0.456058 0.195349 0.10394
H_ H_ 0.32865 0.0461285 0.278312 0.10394
H_ H_ 0.407024 0.499559 0.244245 0.10394
H_ H_ 0.0249072 0.386638 0.201742 0.10394
H_ H_ 0.0635941 0.314837 0.254022 0.10394
H_ H_ 0.403928 0.255577 0.219941 0.10394
H_ H_ 0.37231 0.332504 0.18304 0.10394
H_ H_ 0.462395 0.054255 0.115011 0.10394
H_ H_ 0.0143302 0.118247 0.0965881 0.10394
H_ H_ 0.143543 0.00349316 0.101663 0.10394
H_ H_ 0.436417 0.159847 0.394545 0.10394
H_ H_ 0.0212544 0.194796 0.456972 0.10394
H_ H_ 0.421533 0.27448 0.0651202 0.10394
H_ H_ 0.34112 0.243095 0.500028 0.10394
H_ H_ 0.234921 0.19625 0.377123 0.10394
H_ H_ 0.19507 0.251365 0.307821 0.10394
H_ H_ 0.338949 0.215638 0.239541 0.10394
H_ H_ 0.377843 0.180081 0.31584 0.10394
H_ H_ 0.289578 0.117285 0.0556404 0.10394
H_ H_ 0.22824 0.110748 0.124204 0.10394
H_ H_ 0.110842 0.0788725 0.000903753 0.10394
C_ C_ 0.168801 0.0844133 0.292245 0.18167
C_ C_ 0.215466 0.0671951 0.271758 -0.15533
C_ C_ 0.232627 0.0133034 0.271242 0.02923
C_ C_ 0.199791 0.488302 0.289169 -0.15533
C_ C_ 0.157307 7.63497e-05 0.312625 0.18167
C_ C_ 0.0303715 0.132493 0.263363 0.18167
C_ C_ 0.49202 0.175908 0.244755 -0.15533
C_ C_ 0.0203796 0.224362 0.260643 0.02923
C_ C_ 0.0408999 0.227809 0.31128 -0.15533
C_ C_ 0.0590849 0.184067 0.335548 0.18167
C_ C_ 0.0036465 0.0383955 0.365283 0.69207
C_ C_ 0.470967 0.500934 0.374392 0.02923
C_ C_ 0.48873 0.448441 0.365982 -0.15533
C_ C_ 0.457369 0.410104 0.366037 -0.15533
C_ C_ 0.406058 0.42168 0.37963 0.02923
C_ C_ 0.389563 0.471318 0.393639 -0.15533
C_ C_ 0.419303 0.512218 0.38624 0.02923
C_ C_ 0.395271 0.0689505 0.385506 0.69207
C_ C_ 0.396514 0.322479 0.374555 0.69661
C_ C_ 0.0759417 0.30471 0.0876843 0.18167
C_ C_ 0.0300954 0.281814 0.0691247 -0.15533
C_ C_ 0.021315 0.270185 0.0169683 0.02923
C_ C_ 0.0490155 0.289505 0.493617 -0.15533
C_ C_ 0.0995461 0.302668 0.00180417 0.18167
C_ C_ 0.210951 0.264394 0.128449 0.18167
C_ C_ 0.233847 0.237144 0.170229 -0.15533
C_ C_ 0.235841 0.263195 0.219812 0.02923
C_ C_ 0.220824 0.31495 0.222749 -0.15533
C_ C_ 0.200549 0.341412 0.180794 0.18167
C_ C_ 0.239514 0.372606 0.0410641 0.69207
C_ C_ 0.27581 0.372134 0.507037 0.02923
C_ C_ 0.254153 0.365777 0.455882 -0.15533
C_ C_ 0.282201 0.374758 0.415174 -0.15533
C_ C_ 0.33427 0.381493 0.421817 0.02923
C_ C_ 0.356988 0.385239 0.473507 -0.15533
C_ C_ 0.328007 0.380651 0.516764 0.02923
C_ C_ 0.349036 0.387303 0.0698271 0.69207
C_ C_ 0.339605 0.382995 0.324906 0.69661
C_ C_ 0.309913 0.442427 0.179087 0.18167
C_ C_ 0.269816 0.465244 0.206055 -0.15533
C_ C_ 0.278148 0.501235 0.246725 0.02923
C_ C_ 0.322752 0.0128986 0.249909 -0.15533
C_ C_ 0.370974 0.483123 0.237302 0.18167
C_ C_ 0.492147 0.353634 0.199507 0.18167
C_ C_ 0.0245073 0.313879 0.230636 -0.15533
C_ C_ 0.481319 0.272 0.232434 0.02923
C_ C_ 0.430458 0.281898 0.215769 -0.15533
C_ C_ 0.413032 0.322627 0.186566 0.18167
C_ C_ 0.480574 0.459058 0.1197 0.69207
C_ C_ 0.0153397 0.990607 0.0970253 0.02923
C_ C_ -0.00048599999999998644 0.0427643 0.0984614 -0.15533
C_ C_ 0.0303391 0.079467 0.0952179 -0.15533
C_ C_ 0.08334 0.0655648 0.0947013 0.02923
C_ C_ 0.101323 0.0145459 0.094114 -0.15533
C_ C_ 0.0686434 0.976321 0.0950076 0.02923
C_ C_ 0.10023 0.425622 0.0998735 0.69207
C_ C_ 0.0985428 0.161833 0.0994427 0.69661
C_ C_ 0.431468 0.184822 0.429633 0.18167
C_ C_ 0.473548 0.210921 0.45241 -0.15533
C_ C_ 0.465454 0.252494 0.487105 0.02923
C_ C_ 0.425875 0.252997 0.0265869 -0.15533
C_ C_ 0.377489 0.23198 0.486607 0.18167
C_ C_ 0.253966 0.19492 0.343356 0.18167
C_ C_ 0.233485 0.229242 0.306004 -0.15533
C_ C_ 0.261575 0.23739 0.265189 0.02923
C_ C_ 0.315537 0.219752 0.271214 -0.15533
C_ C_ 0.337148 0.192375 0.313228 0.18167
C_ C_ 0.261283 0.117224 0.448205 0.69207
C_ C_ 0.230938 0.109719 0.993448 0.02923
C_ C_ 0.247841 0.116291 0.0449507 -0.15533
C_ C_ 0.214424 0.109797 0.0837697 -0.15533
C_ C_ 0.163598 0.0991418 0.0682393 0.02923
C_ C_ 0.149325 0.091981 0.0164492 -0.15533
C_ C_ 0.182719 0.0963098 0.978914 0.02923
C_ C_ 0.151664 0.1 0.421714 0.69207
C_ C_ 0.143802 0.100821 0.158466 0.69661
C_ C_ 0.370073 0.378135 0.376703 -0.30787
C_ C_ 0.121297 0.105506 0.104077 -0.30787
N_ N_ 0.139341 0.0491474 0.30866 -0.32189
N_ N_ 0.0524056 0.137784 0.311772 -0.32189
N_ N_ 0.107415 0.3139 0.0523185 -0.32189
N_ N_ 0.195014 0.315678 0.134151 -0.32189
N_ N_ 0.359296 0.449985 0.196728 -0.32189
N_ N_ 0.445963 0.354764 0.175939 -0.32189
N_ N_ 0.386439 0.197706 0.445283 -0.32189
N_ N_ 0.306726 0.180057 0.347937 -0.32189
O_ O_ 0.504517 0.0962843 0.398597 -0.63271
O_ O_ 0.0412889 0.032108 0.336893 -0.57982
O_ O_ 0.389731 0.0885206 0.340279 -0.63271
O_ O_ 0.370796 0.091572 0.422437 -0.57982
O_ O_ 0.243419 0.396217 0.0847535 -0.63271
O_ O_ 0.204771 0.34036 0.0314073 -0.57982
O_ O_ 0.359262 0.343321 0.0896243 -0.63271
O_ O_ 0.376803 0.423213 0.0898471 -0.57982
O_ O_ 0.993398 0.416171 0.0968158 -0.63271
O_ O_ 0.454847 0.461363 0.158988 -0.57982
O_ O_ 0.0980098 0.402401 0.141185 -0.63271
O_ O_ 0.133232 0.410173 0.0674949 -0.57982
O_ O_ 0.257454 0.0922824 0.403125 -0.63271
O_ O_ 0.291973 0.152201 0.459343 -0.57982
O_ O_ 0.152156 0.143356 0.397495 -0.63271
O_ O_ 0.116817 0.0708193 0.408201 -0.57982
F_ F_ 0.437064 0.317749 0.411225 -0.20885
F_ F_ 0.413374 0.311869 0.327135 -0.20885
F_ F_ 0.364014 0.286225 0.381316 -0.20885
F_ F_ 0.303125 0.425934 0.325027 -0.20885
F_ F_ 0.311808 0.341213 0.309971 -0.20885
F_ F_ 0.373082 0.390724 0.289211 -0.20885
F_ F_ 0.0753336 0.171392 0.0538283 -0.20885
F_ F_ 0.0640624 0.176291 0.136241 -0.20885
F_ F_ 0.135453 0.194498 0.105031 -0.20885
F_ F_ 0.179784 0.0579258 0.169363 -0.20885
F_ F_ 0.168457 0.142032 0.180177 -0.20885
F_ F_ 0.107982 0.097104 0.191065 -0.20885
Zn Zn 0.0899605 0.0880043 0.855474 0.83971
Zn Zn 0.162362 0.343783 0.588422 0.83971
Zn Zn 0.409154 0.425003 0.650561 0.83971
Zn Zn 0.343887 0.155033 0.924054 0.83971
H_ H_ 0.163718 0.130252 0.806694 0.10394
H_ H_ 0.233005 0.10071 0.753459 0.10394
H_ H_ 0.218159 0.445137 0.7966 0.10394
H_ H_ 0.135596 0.978026 0.823988 0.10394
H_ H_ 0.518517 0.103801 0.751512 0.10394
H_ H_ 0.472713 0.176684 0.709299 0.10394
H_ H_ 0.0337995 0.273143 0.842398 0.10394
H_ H_ 0.0819223 0.201748 0.885453 0.10394
H_ H_ 0.0270379 0.441613 0.856063 0.10394
H_ H_ 0.487002 0.381755 0.900501 0.10394
H_ H_ 0.351665 0.488365 0.885758 0.10394
H_ H_ 0.0868695 0.306384 0.638337 0.10394
H_ H_ 0.490801 0.280049 0.588919 0.10394
H_ H_ 0.0502024 0.267038 0.944054 0.10394
H_ H_ 0.120232 0.320992 0.490823 0.10394
H_ H_ 0.221189 0.246455 0.610145 0.10394
H_ H_ 0.268059 0.210179 0.688831 0.10394
H_ H_ 0.216971 0.34487 0.776864 0.10394
H_ H_ 0.18434 0.383404 0.699754 0.10394
H_ H_ 0.221801 0.354506 0.937452 0.10394
H_ H_ 0.272753 0.373129 0.871413 0.10394
H_ H_ 0.387369 0.419357 0.988952 0.10394
H_ H_ 0.309775 0.406453 0.655859 0.10394
H_ H_ 0.23528 0.452664 0.693541 0.10394
H_ H_ 0.332378 0.0399738 0.785689 0.10394
H_ H_ 0.407083 0.506523 0.725048 0.10394
H_ H_ 0.0225595 0.387124 0.701777 0.10394
H_ H_ 0.06067 0.312608 0.745787 0.10394
H_ H_ 0.401379 0.265943 0.737804 0.10394
H_ H_ 0.369571 0.346349 0.699363 0.10394
H_ H_ 0.454003 0.0564881 0.601998 0.10394
H_ H_ 0.0100935 0.125855 0.615165 0.10394
H_ H_ 0.136566 0.00589894 0.586886 0.10394
H_ H_ 0.444117 0.165713 0.906155 0.10394
H_ H_ 0.0252313 0.177829 0.967635 0.10394
H_ H_ 0.408735 0.291702 0.535493 0.10394
H_ H_ 0.346949 0.236577 0.0140668 0.10394
H_ H_ 0.239045 0.194942 0.89259 0.10394
H_ H_ 0.195784 0.250364 0.82169 0.10394
H_ H_ 0.337393 0.228748 0.753899 0.10394
H_ H_ 0.375281 0.204604 0.838175 0.10394
H_ H_ 0.285919 0.10394 0.550518 0.10394
H_ H_ 0.226097 0.113848 0.61389 0.10394
H_ H_ 0.103769 0.0868936 0.502675 0.10394
C_ C_ 0.172325 0.0916104 0.798536 0.18167
C_ C_ 0.213127 0.0733421 0.772062 -0.15533
C_ C_ 0.23022 0.0206627 0.771234 0.02923
C_ C_ 0.208186 0.484703 0.796327 -0.15533
C_ C_ 0.157942 0.00526575 0.810764 0.18167
C_ C_ 0.0410233 0.139037 0.778922 0.18167
C_ C_ 0.497816 0.183342 0.745063 -0.15533
C_ C_ 0.0155029 0.230387 0.771253 0.02923
C_ C_ 0.0347639 0.237449 0.821626 -0.15533
C_ C_ 0.0650182 0.197283 0.847153 0.18167
C_ C_ 0.0046499 0.0487827 0.870835 0.69207
C_ C_ 0.475327 0.510416 0.878059 0.02923
C_ C_ 0.498184 0.458938 0.886188 -0.15533
C_ C_ 0.467135 0.420443 0.892256 -0.15533
C_ C_ 0.415016 0.430182 0.897101 0.02923
C_ C_ 0.391493 0.482011 0.888814 -0.15533
C_ C_ 0.422186 0.522716 0.881623 0.02923
C_ C_ 0.395109 0.0744222 0.889502 0.69207
C_ C_ 0.407823 0.334069 0.896786 0.69661
C_ C_ 0.0756333 0.298943 0.598214 0.18167
C_ C_ 0.0264204 0.282526 0.579449 -0.15533
C_ C_ 0.0138774 0.275023 0.525898 0.02923
C_ C_ 0.0559097 0.281907 0.983387 -0.15533
C_ C_ 0.0972698 0.305098 0.515693 0.18167
C_ C_ 0.220106 0.268268 0.646822 0.18167
C_ C_ 0.242657 0.247692 0.692402 -0.15533
C_ C_ 0.237734 0.271825 0.738207 0.02923
C_ C_ 0.215708 0.321963 0.741541 -0.15533
C_ C_ 0.200417 0.345081 0.696338 0.18167
C_ C_ 0.243175 0.365076 0.547718 0.69207
C_ C_ 0.274237 0.379392 0.00308715 0.02923
C_ C_ 0.255643 0.375732 0.950062 -0.15533
C_ C_ 0.286565 0.38143 0.911973 -0.15533
C_ C_ 0.337426 0.393551 0.925644 0.02923
C_ C_ 0.352197 0.403158 0.977518 -0.15533
C_ C_ 0.324188 0.390753 0.0163797 0.02923
C_ C_ 0.357839 0.379969 0.568787 0.69207
C_ C_ 0.357846 0.385053 0.83008 0.69661
C_ C_ 0.311161 0.441254 0.678394 0.18167
C_ C_ 0.272666 0.460268 0.707794 -0.15533
C_ C_ 0.282194 0.49649 0.748618 0.02923
C_ C_ 0.320995 0.0173611 0.750341 -0.15533
C_ C_ 0.368462 0.493912 0.72304 0.18167
C_ C_ 0.493164 0.354573 0.694497 0.18167
C_ C_ 0.0200121 0.315362 0.736131 -0.15533
C_ C_ 0.480224 0.279986 0.738776 0.02923
C_ C_ 0.427993 0.291973 0.727335 -0.15533
C_ C_ 0.410448 0.337212 0.703134 0.18167
C_ C_ 0.483721 0.458526 0.608651 0.69207
C_ C_ 0.0120633 0.997521 0.602372 0.02923
C_ C_ -0.005623999999999962 0.0487036 0.607094 -0.15533
C_ C_ 0.0270679 0.0870731 0.603728 -0.15533
C_ C_ 0.0805802 0.0735355 0.597022 0.02923
C_ C_ 0.0980217 0.0200478 0.592172 -0.15533
C_ C_ 0.0648692 0.98168 0.596349 0.02923
C_ C_ 0.100887 0.423302 0.609521 0.69207
C_ C_ 0.104198 0.170109 0.604184 0.69661
C_ C_ 0.439059 0.186519 0.941564 0.18167
C_ C_ 0.479687 0.210338 0.965189 -0.15533
C_ C_ 0.472888 0.244691 1.00646962 0.02923
C_ C_ 0.416312 0.260239 0.504943 -0.15533
C_ C_ 0.382781 0.23447 0.997675 0.18167
C_ C_ 0.261067 0.207009 0.863485 0.18167
C_ C_ 0.237223 0.236036 0.823941 -0.15533
C_ C_ 0.264606 0.246138 0.784316 0.02923
C_ C_ 0.313716 0.22512 0.785257 -0.15533
C_ C_ 0.337139 0.196936 0.825443 0.18167
C_ C_ 0.26742 0.118881 0.956861 0.69207
C_ C_ 0.227291 0.106278 0.48722 0.02923
C_ C_ 0.246173 0.105175 0.540566 -0.15533
C_ C_ 0.212561 0.108137 0.577892 -0.15533
C_ C_ 0.160277 0.101774 0.566071 0.02923
C_ C_ 0.143628 0.0919063 0.514486 -0.15533
C_ C_ 0.176316 0.098407 0.474303 0.02923
C_ C_ 0.157273 0.0997183 0.927971 0.69207
C_ C_ 0.146297 0.102182 0.660755 0.69661
C_ C_ 0.378017 0.387932 0.887955 -0.30787
C_ C_ 0.122218 0.111961 0.605929 -0.30787
N_ N_ 0.143739 0.0563734 0.816655 -0.32189
N_ N_ 0.0658548 0.148663 0.824622 -0.32189
N_ N_ 0.109296 0.307515 0.565683 -0.32189
N_ N_ 0.195178 0.316743 0.652131 -0.32189
N_ N_ 0.358452 0.457219 0.688915 -0.32189
N_ N_ 0.442666 0.366105 0.685167 -0.32189
N_ N_ 0.391481 0.198152 0.958777 -0.32189
N_ N_ 0.309179 0.186858 0.863672 -0.32189
O_ O_ 0.502088 0.0850116 0.908544 -0.63271
O_ O_ 0.0399333 0.0424639 0.841053 -0.57982
O_ O_ 0.385419 0.103477 0.850151 -0.63271
O_ O_ 0.376776 0.0932126 0.931127 -0.57982
O_ O_ 0.247282 0.39171 0.591749 -0.63271
O_ O_ 0.208037 0.334696 0.540422 -0.57982
O_ O_ 0.354533 0.343993 0.601661 -0.63271
O_ O_ 0.380666 0.420627 0.586076 -0.57982
O_ O_ 0.982102 0.409969 0.599737 -0.63271
O_ O_ 0.452265 0.471947 0.643477 -0.57982
O_ O_ 0.0981093 0.400377 0.651052 -0.63271
O_ O_ 0.131514 0.40522 0.576428 -0.57982
O_ O_ 0.262491 0.100562 0.908986 -0.63271
O_ O_ 0.299009 0.151048 0.968688 -0.57982
O_ O_ 0.152962 0.142068 0.903922 -0.63271
O_ O_ 0.128156 0.0655206 0.910439 -0.57982
F_ F_ 0.437504 0.327464 0.943349 -0.20885
F_ F_ 0.437432 0.317714 0.857867 -0.20885
F_ F_ 0.371958 0.296852 0.897412 -0.20885
F_ F_ 0.317036 0.422334 0.821698 -0.20885
F_ F_ 0.340115 0.336523 0.816023 -0.20885
F_ F_ 0.391003 0.393569 0.797344 -0.20885
F_ F_ 0.0703457 0.182286 0.56453 -0.20885
F_ F_ 0.0785218 0.184767 0.648159 -0.20885
F_ F_ 0.143425 0.200416 0.605011 -0.20885
F_ F_ 0.17931 0.0566408 0.663039 -0.20885
F_ F_ 0.175615 0.141438 0.682294 -0.20885
F_ F_ 0.109346 0.100161 0.693886 -0.20885
Zn Zn 0.0857869 0.588086 0.345261 0.83971
Zn Zn 0.161147 0.844085 0.0839466 0.83971
Zn Zn 0.410526 0.91513 0.154359 0.83971
Zn Zn 0.338418 0.646127 0.41415 0.83971
H_ H_ 0.163899 0.635451 0.299155 0.10394
H_ H_ 0.252697 0.600943 0.27792 0.10394
H_ H_ 0.224376 0.94707 0.307896 0.10394
H_ H_ 0.133431 0.484099 0.329004 0.10394
H_ H_ 0.52388 0.593551 0.261633 0.10394
H_ H_ 0.498707 0.666562 0.199075 0.10394
H_ H_ 0.0421451 0.775522 0.334516 0.10394
H_ H_ 0.0738248 0.705106 0.379191 0.10394
H_ H_ 0.0303371 0.940409 0.357157 0.10394
H_ H_ 0.496947 0.88378 0.40351 0.10394
H_ H_ 0.355503 0.985889 0.396374 0.10394
H_ H_ 0.086017 0.804166 0.130634 0.10394
H_ H_ 0.496899 0.772214 0.0969323 0.10394
H_ H_ 0.0370436 0.790824 0.4419 0.10394
H_ H_ 0.121124 0.812171 0.977437 0.10394
H_ H_ 0.225037 0.752367 0.0987176 0.10394
H_ H_ 0.255105 0.705097 0.174965 0.10394
H_ H_ 0.221079 0.84113 0.270187 0.10394
H_ H_ 0.165323 0.878368 0.196306 0.10394
H_ H_ 0.224153 0.860823 0.434357 0.10394
H_ H_ 0.2826 0.877542 0.367534 0.10394
H_ H_ 0.400047 0.905537 0.486383 0.10394
H_ H_ 0.311082 0.887967 0.168104 0.10394
H_ H_ 0.235749 0.929841 0.205141 0.10394
H_ H_ 0.337599 0.536187 0.29495 0.10394
H_ H_ 0.398001 0.00609176 0.234485 0.10394
H_ H_ 0.0143092 0.885095 0.181654 0.10394
H_ H_ 0.0577031 0.811652 0.230322 0.10394
H_ H_ 0.424866 0.741863 0.217212 0.10394
H_ H_ 0.379954 0.823869 0.192175 0.10394
H_ H_ 0.454861 0.564828 0.119406 0.10394
H_ H_ 0.0304551 0.622057 0.118569 0.10394
H_ H_ 0.146498 0.503371 0.0781601 0.10394
H_ H_ 0.437735 0.649958 0.396002 0.10394
H_ H_ 0.0191814 0.691551 0.446848 0.10394
H_ H_ 0.410863 0.784759 0.0441495 0.10394
H_ H_ 0.343702 0.725136 0.504289 0.10394
H_ H_ 0.23663 0.686106 0.3797 0.10394
H_ H_ 0.1964 0.718117 0.298262 0.10394
H_ H_ 0.347459 0.74372 0.261834 0.10394
H_ H_ 0.377213 0.685347 0.32652 0.10394
H_ H_ 0.296898 0.605479 0.0383105 0.10394
H_ H_ 0.247782 0.599588 0.114139 0.10394
H_ H_ 0.109587 0.58774 0.0050331 0.10394
C_ C_ 0.175891 0.594578 0.298906 0.18167
C_ C_ 0.223853 0.574895 0.285522 -0.15533
C_ C_ 0.234723 0.521073 0.277623 0.02923
C_ C_ 0.205515 0.981624 0.29603 -0.15533
C_ C_ 0.156801 0.510245 0.313881 0.18167
C_ C_ 0.0360127 0.641481 0.271739 0.18167
C_ C_ 0.513669 0.672426 0.238039 -0.15533
C_ C_ 0.0136348 0.732708 0.265357 0.02923
C_ C_ 0.0420996 0.739899 0.313726 -0.15533
C_ C_ 0.0631948 0.69741 0.340184 0.18167
C_ C_ 0.00827166 0.546896 0.370633 0.69207
C_ C_ 0.476429 0.0110099 0.381545 0.02923
C_ C_ 0.501972 0.962433 0.39021 -0.15533
C_ C_ 0.474093 0.922532 0.401005 -0.15533
C_ C_ 0.420115 0.928165 0.395662 0.02923
C_ C_ 0.397145 0.978819 0.394507 -0.15533
C_ C_ 0.425526 0.019872 0.392172 0.02923
C_ C_ 0.391268 0.56324 0.386835 0.69207
C_ C_ 0.417125 0.828611 0.382921 0.69661
C_ C_ 0.0770433 0.794765 0.0899945 0.18167
C_ C_ 0.032688 0.775722 0.073863 -0.15533
C_ C_ 0.0185464 0.766739 0.0210169 0.02923
C_ C_ 0.0504163 0.787383 0.481934 -0.15533
C_ C_ 0.097715 0.797834 0.00534352 0.18167
C_ C_ 0.221583 0.772319 0.137194 0.18167
C_ C_ 0.246799 0.74684 0.181352 -0.15533
C_ C_ 0.244438 0.771152 0.229982 0.02923
C_ C_ 0.221425 0.821884 0.23322 -0.15533
C_ C_ 0.19155 0.84244 0.190641 0.18167
C_ C_ 0.238602 0.87484 0.0478384 0.69207
C_ C_ 0.282675 0.869158 0.495998 0.02923
C_ C_ 0.265056 0.867886 0.444305 -0.15533
C_ C_ 0.299032 0.874556 0.406916 -0.15533
C_ C_ 0.348841 0.887174 0.4227 0.02923
C_ C_ 0.364183 0.892678 0.473929 -0.15533
C_ C_ 0.332348 0.880243 0.509916 0.02923
C_ C_ 0.352087 0.883959 0.0712299 0.69207
C_ C_ 0.363845 0.891445 0.327361 0.69661
C_ C_ 0.313941 0.925064 0.189682 0.18167
C_ C_ 0.27167 0.94769 0.210751 -0.15533
C_ C_ 0.27698 0.99333 0.244243 0.02923
C_ C_ 0.329041 0.511497 0.262797 -0.15533
C_ C_ 0.365108 0.984395 0.233992 0.18167
C_ C_ 0.498718 0.857386 0.20748 0.18167
C_ C_ 0.0187671 0.812594 0.219443 -0.15533
C_ C_ 0.499386 0.76772 0.225629 0.02923
C_ C_ 0.447263 0.77185 0.208977 -0.15533
C_ C_ 0.42226 0.81793 0.193601 0.18167
C_ C_ 0.484356 0.950975 0.124069 0.69207
C_ C_ 0.0322821 0.494718 0.116889 0.02923
C_ C_ 0.0126583 0.54587 0.116577 -0.15533
C_ C_ 0.0473703 0.582867 0.115148 -0.15533
C_ C_ 0.0943726 0.568451 0.0969389 0.02923
C_ C_ 0.108052 0.515613 0.0835065 -0.15533
C_ C_ 0.0775088 0.479735 0.0967092 0.02923
C_ C_ 0.0939501 0.924053 0.103808 0.69207
C_ C_ 0.119853 0.662309 0.106102 0.69661
C_ C_ 0.432821 0.677717 0.42905 0.18167
C_ C_ 0.47525 0.695385 0.456303 -0.15533
C_ C_ 0.472126 0.729045 0.499118 0.02923
C_ C_ 0.421084 0.751894 0.0171251 -0.15533
C_ C_ 0.38252 0.716414 0.492405 0.18167
C_ C_ 0.256382 0.694522 0.349993 0.18167
C_ C_ 0.234923 0.722978 0.308312 -0.15533
C_ C_ 0.266108 0.743299 0.276769 0.02923
C_ C_ 0.318821 0.728959 0.28417 -0.15533
C_ C_ 0.336842 0.697199 0.323759 0.18167
C_ C_ 0.264042 0.618792 0.455638 0.69207
C_ C_ 0.228797 0.615256 0.984816 0.02923
C_ C_ 0.253918 0.603851 0.0324947 -0.15533
C_ C_ 0.226004 0.599995 0.0745107 -0.15533
C_ C_ 0.173378 0.592298 0.0661334 0.02923
C_ C_ 0.150871 0.590234 0.014753 -0.15533
C_ C_ 0.175618 0.604655 0.973368 0.02923
C_ C_ 0.150488 0.61692 0.428952 0.69207
C_ C_ 0.160071 0.597438 0.163674 0.69661
C_ C_ 0.389217 0.883307 0.383584 -0.30787
C_ C_ 0.136247 0.604364 0.108325 -0.30787
N_ N_ 0.140929 0.562177 0.308284 -0.32189
N_ N_ 0.0593564 0.648822 0.319327 -0.32189
N_ N_ 0.108645 0.806927 0.0564233 -0.32189
N_ N_ 0.199222 0.820456 0.143225 -0.32189
N_ N_ 0.360661 0.942939 0.20112 -0.32189
N_ N_ 0.449426 0.857387 0.18584 -0.32189
N_ N_ 0.386951 0.686928 0.447606 -0.32189
N_ N_ 0.305487 0.679591 0.354592 -0.32189
O_ O_ 0.503694 0.581189 0.407859 -0.63271
O_ O_ 0.0389013 0.54125 0.33497 -0.57982
O_ O_ 0.39245 0.592655 0.349307 -0.63271
O_ O_ 0.369203 0.583163 0.427034 -0.57982
O_ O_ 0.242323 0.901118 0.0897825 -0.63271
O_ O_ 0.20574 0.839577 0.0382492 -0.57982
O_ O_ 0.353713 0.842884 0.098137 -0.63271
O_ O_ 0.375482 0.922025 0.0926225 -0.57982
O_ O_ 0.981234 0.908833 0.0967368 -0.63271
O_ O_ 0.44992 0.962263 0.155068 -0.57982
O_ O_ 0.0872423 0.903047 0.145961 -0.63271
O_ O_ 0.129484 0.903421 0.074375 -0.57982
O_ O_ 0.264775 0.590686 0.412816 -0.63271
O_ O_ 0.302986 0.64539 0.466778 -0.57982
O_ O_ 0.159436 0.656225 0.403134 -0.63271
O_ O_ 0.116337 0.585722 0.40854 -0.57982
F_ F_ 0.444101 0.820443 0.429989 -0.20885
F_ F_ 0.449913 0.820874 0.345685 -0.20885
F_ F_ 0.381947 0.791143 0.375212 -0.20885
F_ F_ 0.327798 0.932905 0.318472 -0.20885
F_ F_ 0.341461 0.851194 0.301658 -0.20885
F_ F_ 0.402603 0.894482 0.298972 -0.20885
F_ F_ 0.0866178 0.673969 0.0620339 -0.20885
F_ F_ 0.0935744 0.682841 0.14847 -0.20885
F_ F_ 0.161013 0.690436 0.102624 -0.20885
F_ F_ 0.193374 0.553605 0.16635 -0.20885
F_ F_ 0.191111 0.633374 0.180385 -0.20885
F_ F_ 0.124084 0.592121 0.194686 -0.20885
Zn Zn 0.0856531 0.579077 0.840866 0.83971
Zn Zn 0.163228 0.853225 0.577034 0.83971
Zn Zn 0.405339 0.92423 0.649871 0.83971
Zn Zn 0.339209 0.661455 0.910173 0.83971
H_ H_ 0.164067 0.628472 0.796489 0.10394
H_ H_ 0.247522 0.596738 0.769359 0.10394
H_ H_ 0.208626 0.946505 0.779928 0.10394
H_ H_ 0.134 0.476986 0.818681 0.10394
H_ H_ 0.518357 0.605951 0.748441 0.10394
H_ H_ 0.483273 0.676249 0.69963 0.10394
H_ H_ 0.0293815 0.76514 0.818221 0.10394
H_ H_ 0.0713809 0.693192 0.868305 0.10394
H_ H_ 0.0307288 0.944594 0.870757 0.10394
H_ H_ 0.471411 0.87917 0.875759 0.10394
H_ H_ 0.346794 0.992522 0.902816 0.10394
H_ H_ 0.083066 0.806468 0.625994 0.10394
H_ H_ 0.497767 0.764812 0.601213 0.10394
H_ H_ 0.0432099 0.771688 0.943127 0.10394
H_ H_ 0.107238 0.837054 0.477821 0.10394
H_ H_ 0.228839 0.762248 0.586957 0.10394
H_ H_ 0.262939 0.71374 0.66619 0.10394
H_ H_ 0.208849 0.83674 0.76077 0.10394
H_ H_ 0.179501 0.885047 0.682378 0.10394
H_ H_ 0.210334 0.884794 0.950289 0.10394
H_ H_ 0.263982 0.883534 0.880072 0.10394
H_ H_ 0.392915 0.907553 0.989565 0.10394
H_ H_ 0.301786 0.901969 0.65744 0.10394
H_ H_ 0.225654 0.960133 0.683698 0.10394
H_ H_ 0.335665 0.545888 0.782704 0.10394
H_ H_ 0.398433 0.006480000000000041 0.729198 0.10394
H_ H_ 0.00288919 0.8777 0.690207 0.10394
H_ H_ 0.0411349 0.802609 0.73623 0.10394
H_ H_ 0.405305 0.744517 0.701787 0.10394
H_ H_ 0.361631 0.825732 0.671127 0.10394
H_ H_ 0.470845 0.556251 0.585838 0.10394
H_ H_ 0.0128314 0.614803 0.601599 0.10394
H_ H_ 0.14293 0.503891 0.592856 0.10394
H_ H_ 0.444623 0.660011 0.897446 0.10394
H_ H_ 0.0198908 0.673975 0.96347 0.10394
H_ H_ 0.417423 0.76562 0.54731 0.10394
H_ H_ 0.34278 0.731168 0.0007600000000000939 0.10394
H_ H_ 0.238765 0.724085 0.884182 0.10394
H_ H_ 0.194939 0.757702 0.803059 0.10394
H_ H_ 0.334974 0.736284 0.741369 0.10394
H_ H_ 0.377061 0.696475 0.82037 0.10394
H_ H_ 0.286922 0.613966 0.557653 0.10394
H_ H_ 0.234158 0.60052 0.620974 0.10394
H_ H_ 0.110099 0.57852 0.505521 0.10394
C_ C_ 0.178936 0.588437 0.800353 0.18167
C_ C_ 0.221827 0.569017 0.774485 -0.15533
C_ C_ 0.238786 0.516574 0.77597 0.02923
C_ C_ 0.203711 0.9862 0.789957 -0.15533
C_ C_ 0.160638 0.503499 0.808787 0.18167
C_ C_ 0.017427 0.628066 0.767179 0.18167
C_ C_ 0.504573 0.685144 0.736401 -0.15533
C_ C_ -0.005406000000000022 0.719638 0.757272 0.02923
C_ C_ 0.020128 0.726819 0.805317 -0.15533
C_ C_ 0.0457019 0.685781 0.833341 0.18167
C_ C_ 0.0112016 0.54315 0.867888 0.69207
C_ C_ 0.466199 0.00757506 0.875506 0.02923
C_ C_ 0.485671 0.955673 0.869298 -0.15533
C_ C_ 0.452694 0.917925 0.874976 -0.15533
C_ C_ 0.40483 0.930205 0.892715 0.02923
C_ C_ 0.385359 0.982427 0.893786 -0.15533
C_ C_ 0.415468 0.021602 0.886746 0.02923
C_ C_ 0.397393 0.574886 0.877432 0.69207
C_ C_ 0.393178 0.832678 0.888461 0.69661
C_ C_ 0.0733134 0.799744 0.585387 0.18167
C_ C_ 0.0325478 0.77193 0.567478 -0.15533
C_ C_ 0.0175602 0.769766 0.515055 0.02923
C_ C_ 0.0527161 0.775803 0.986748 -0.15533
C_ C_ 0.09612 0.808695 0.501482 0.18167
C_ C_ 0.228623 0.779851 0.626061 0.18167
C_ C_ 0.247146 0.753837 0.669504 -0.15533
C_ C_ 0.241533 0.773362 0.718657 0.02923
C_ C_ 0.215093 0.820522 0.723622 -0.15533
C_ C_ 0.19316 0.846794 0.679456 0.18167
C_ C_ 0.245549 0.864477 0.534356 0.69207
C_ C_ 0.271725 0.882947 0.00757443 0.02923
C_ C_ 0.250012 0.891008 0.957384 -0.15533
C_ C_ 0.280847 0.892633 0.91727 -0.15533
C_ C_ 0.334229 0.894526 0.929258 0.02923
C_ C_ 0.354557 0.900551 0.980739 -0.15533
C_ C_ 0.324982 0.888826 0.0191024 0.02923
C_ C_ 0.355997 0.877859 0.563598 0.69207
C_ C_ 0.344198 0.892637 0.827131 0.69661
C_ C_ 0.305419 0.941208 0.674115 0.18167
C_ C_ 0.263709 0.968793 0.695125 -0.15533
C_ C_ 0.27163 1.00048 0.739115 0.02923
C_ C_ 0.329055 0.516893 0.753582 -0.15533
C_ C_ 0.360515 0.996389 0.719621 0.18167
C_ C_ 0.476278 0.865212 0.704925 0.18167
C_ C_ 0.00303729 0.802583 0.72044 -0.15533
C_ C_ 0.475469 0.777678 0.734088 0.02923
C_ C_ 0.425879 0.778785 0.707288 -0.15533
C_ C_ 0.4028 0.823606 0.684641 0.18167
C_ C_ 0.480148 0.958021 0.61738 0.69207
C_ C_ 0.0243301 0.487334 0.616446 0.02923
C_ C_ 1.00385382 0.53761 0.614848 -0.15533
C_ C_ 0.0350935 0.576706 0.607076 -0.15533
C_ C_ 0.085406 0.564586 0.594269 0.02923
C_ C_ 0.102952 0.512905 0.588661 -0.15533
C_ C_ 0.0743784 0.474816 0.603626 0.02923
C_ C_ 0.0875573 0.929117 0.599363 0.69207
C_ C_ 0.101608 0.661065 0.604055 0.69661
C_ C_ 0.439301 0.683586 0.932697 0.18167
C_ C_ 0.480224 0.701988 0.961664 -0.15533
C_ C_ 0.469653 0.744318 -0.0024849999999999595 0.02923
C_ C_ 0.424395 0.736399 0.518081 -0.15533
C_ C_ 0.38095 0.72698 0.988688 0.18167
C_ C_ 0.258169 0.718576 0.849901 0.18167
C_ C_ 0.234639 0.73925 0.804607 -0.15533
C_ C_ 0.264317 0.743394 0.764811 0.02923
C_ C_ 0.313829 0.726176 0.769353 -0.15533
C_ C_ 0.335317 0.703663 0.813805 0.18167
C_ C_ 0.259673 0.629701 0.9439 0.69207
C_ C_ 0.230253 0.607674 0.493307 0.02923
C_ C_ 0.25159 0.602615 0.545607 -0.15533
C_ C_ 0.217404 0.601529 0.581727 -0.15533
C_ C_ 0.165265 0.595374 0.567967 0.02923
C_ C_ 0.148442 0.589466 0.516657 -0.15533
C_ C_ 0.177983 0.604964 0.479863 0.02923
C_ C_ 0.148856 0.606852 0.921552 0.69207
C_ C_ 0.146593 0.599279 0.664244 0.69661
C_ C_ 0.368445 0.887224 0.884726 -0.30787
C_ C_ 0.126236 0.604522 0.606636 -0.30787
N_ N_ 0.146065 0.55533 0.811973 -0.32189
N_ N_ 0.0479044 0.638511 0.810091 -0.32189
N_ N_ 0.107059 0.812064 0.553208 -0.32189
N_ N_ 0.198616 0.824449 0.633123 -0.32189
N_ N_ 0.351453 0.960195 0.683702 -0.32189
N_ N_ 0.428787 0.863988 0.681058 -0.32189
N_ N_ 0.391941 0.694988 0.946993 -0.32189
N_ N_ 0.306541 0.695978 0.85292 -0.32189
O_ O_ 0.510771 0.587285 0.901777 -0.63271
O_ O_ 0.0389248 0.532157 0.832072 -0.57982
O_ O_ 0.405825 0.602254 0.84087 -0.63271
O_ O_ 0.366875 0.595754 0.911582 -0.57982
O_ O_ 0.249681 0.892069 0.576636 -0.63271
O_ O_ 0.204429 0.844456 0.524813 -0.57982
O_ O_ 0.358303 0.836131 0.58574 -0.63271
O_ O_ 0.377438 0.916354 0.585463 -0.57982
O_ O_ 0.977913 0.915219 0.574906 -0.63271
O_ O_ 0.452931 0.966592 0.655428 -0.57982
O_ O_ 0.089968 0.908538 0.645099 -0.63271
O_ O_ 0.123865 0.913814 0.570496 -0.57982
O_ O_ 0.256524 0.608129 0.897217 -0.63271
O_ O_ 0.290564 0.665121 0.955711 -0.57982
O_ O_ 0.150784 0.646654 0.89282 -0.63271
O_ O_ 0.113146 0.575835 0.906981 -0.57982
F_ F_ 0.423716 0.824496 0.933446 -0.20885
F_ F_ 0.421342 0.814874 0.846125 -0.20885
F_ F_ 0.354329 0.799936 0.888348 -0.20885
F_ F_ 0.30877 0.9357 0.824733 -0.20885
F_ F_ 0.314931 0.852958 0.81041 -0.20885
F_ F_ 0.377912 0.901625 0.79588 -0.20885
F_ F_ 0.0717961 0.666326 0.55864 -0.20885
F_ F_ 0.0732816 0.679419 0.644164 -0.20885
F_ F_ 0.140704 0.693075 0.606477 -0.20885
F_ F_ 0.177525 0.554318 0.669568 -0.20885
F_ F_ 0.178416 0.636075 0.683062 -0.20885
F_ F_ 0.111473 0.598437 0.70004 -0.20885
Zn Zn 0.594694 0.092024 0.345618 0.83971
Zn Zn 0.658557 0.355053 0.0939469 0.83971
Zn Zn 0.914138 0.423881 0.163036 0.83971
Zn Zn 0.84315 0.147946 0.425208 0.83971
H_ H_ 0.676814 0.135806 0.30598 0.10394
H_ H_ 0.755396 0.0996686 0.270321 0.10394
H_ H_ 0.707011 0.44678 0.286178 0.10394
H_ H_ 0.641822 0.98964 0.334342 0.10394
H_ H_ 0.0250525 0.0957929 0.245132 0.10394
H_ H_ 0.987597 0.174743 0.199149 0.10394
H_ H_ 0.526066 0.271053 0.331274 0.10394
H_ H_ 0.57255 0.196797 0.371498 0.10394
H_ H_ 0.529917 0.438454 0.365068 0.10394
H_ H_ 0.974807 0.375811 0.36702 0.10394
H_ H_ 0.857057 0.494248 0.415234 0.10394
H_ H_ 0.578394 0.31169 0.138767 0.10394
H_ H_ 1.00098 0.278458 0.0925176 0.10394
H_ H_ 0.538791 0.284717 0.437159 0.10394
H_ H_ 0.607383 0.342739 0.990037 0.10394
H_ H_ 0.705279 0.251961 0.109994 0.10394
H_ H_ 0.747574 0.202475 0.183928 0.10394
H_ H_ 0.720814 0.334888 0.284877 0.10394
H_ H_ 0.682218 0.384118 0.206047 0.10394
H_ H_ 0.712192 0.373227 0.452664 0.10394
H_ H_ 0.763801 0.388727 0.389164 0.10394
H_ H_ 0.89667 0.383711 0.498203 0.10394
H_ H_ 0.816427 0.403029 0.169394 0.10394
H_ H_ 0.737641 0.450779 0.202867 0.10394
H_ H_ 0.836478 0.0521802 0.269573 0.10394
H_ H_ 0.908523 0.502722 0.250284 0.10394
H_ H_ 0.512684 0.388534 0.202302 0.10394
H_ H_ 0.548761 0.310196 0.243287 0.10394
H_ H_ 0.919801 0.251029 0.222225 0.10394
H_ H_ 0.885492 0.325817 0.187572 0.10394
H_ H_ 0.961626 0.0540697 0.108947 0.10394
H_ H_ 0.517665 0.120623 0.117285 0.10394
H_ H_ 0.636402 0.0057093 0.0782245 0.10394
H_ H_ 0.946764 0.146025 0.421217 0.10394
H_ H_ 0.51266 0.199748 0.441063 0.10394
H_ H_ 0.917196 0.292027 0.021649 0.10394
H_ H_ 0.844996 0.243413 0.499157 0.10394
H_ H_ 0.747233 0.193224 0.399022 0.10394
H_ H_ 0.698675 0.236872 0.324671 0.10394
H_ H_ 0.83873 0.225528 0.252334 0.10394
H_ H_ 0.881138 0.189297 0.328188 0.10394
H_ H_ 0.78181 0.135789 0.0515132 0.10394
H_ H_ 0.736592 0.118453 0.121517 0.10394
H_ H_ 0.599117 0.103065 0.0115235 0.10394
C_ C_ 0.688632 0.0952549 0.307794 0.18167
C_ C_ 0.732824 0.0728593 0.285674 -0.15533
C_ C_ 0.742165 0.0206672 0.275355 0.02923
C_ C_ 0.700517 0.487643 0.293844 -0.15533
C_ C_ 0.66457 0.0121443 0.314444 0.18167
C_ C_ 0.522287 0.13512 0.267644 0.18167
C_ C_ 0.0127202 0.176413 0.237107 -0.15533
C_ C_ 0.502437 0.226658 0.262006 0.02923
C_ C_ 0.531857 0.232492 0.30907 -0.15533
C_ C_ 0.553891 0.190722 0.334094 0.18167
C_ C_ 0.506862 0.0539712 0.370215 0.69207
C_ C_ 0.975231 0.504516 0.376212 0.02923
C_ C_ 0.987546 0.453461 0.364591 -0.15533
C_ C_ 0.959186 0.413968 0.375112 -0.15533
C_ C_ 0.909558 0.426077 0.391946 0.02923
C_ C_ 0.895906 0.479045 0.405046 -0.15533
C_ C_ 0.926441 0.517921 0.394478 0.02923
C_ C_ 0.889352 0.0625186 0.382397 0.69207
C_ C_ 0.896491 0.330427 0.389286 0.69661
C_ C_ 0.572279 0.304997 0.0975496 0.18167
C_ C_ 0.531124 0.27707 0.0778881 -0.15533
C_ C_ 0.516254 0.275356 0.0255308 0.02923
C_ C_ 0.54378 0.294851 0.478751 -0.15533
C_ C_ 0.584514 0.325095 0.0125764 0.18167
C_ C_ 0.706073 0.269743 0.148981 0.18167
C_ C_ 0.733093 0.243883 0.190925 -0.15533
C_ C_ 0.736061 0.267199 0.240276 0.02923
C_ C_ 0.714979 0.318132 0.244987 -0.15533
C_ C_ 0.692979 0.344086 0.202045 0.18167
C_ C_ 0.739571 0.373831 0.0564999 0.69207
C_ C_ 0.771735 0.374825 0.515647 0.02923
C_ C_ 0.751481 0.377544 0.465246 -0.15533
C_ C_ 0.782721 0.385031 0.427469 -0.15533
C_ C_ 0.835125 0.388211 0.437381 0.02923
C_ C_ 0.855424 0.384455 0.490281 -0.15533
C_ C_ 0.823072 0.383858 0.528694 0.02923
C_ C_ 0.848518 0.391324 0.0804064 0.69207
C_ C_ 0.84107 0.38955 0.336715 0.69661
C_ C_ 0.818849 0.432156 0.199355 0.18167
C_ C_ 0.775883 0.457541 0.219209 -0.15533
C_ C_ 0.779213 0.502265 0.252707 0.02923
C_ C_ 0.828965 0.0195113 0.242976 -0.15533
C_ C_ 0.86924 0.492187 0.240388 0.18167
C_ C_ 1.00337 0.35733 0.205149 0.18167
C_ C_ 0.512714 0.310231 0.222848 -0.15533
C_ C_ 0.995822 0.273224 0.23526 0.02923
C_ C_ 0.945936 0.279788 0.224457 -0.15533
C_ C_ 0.924075 0.323144 0.200644 0.18167
C_ C_ 0.995449 0.459882 0.125595 0.69207
C_ C_ 0.520869 0.990331 0.116623 0.02923
C_ C_ 0.502374 0.0432241 0.120531 -0.15533
C_ C_ 0.533608 0.0803757 0.115484 -0.15533
C_ C_ 0.585229 0.0681991 0.10313 0.02923
C_ C_ 0.597673 0.0165536 0.08656 -0.15533
C_ C_ 0.571112 0.977778 0.103789 0.02923
C_ C_ 0.591671 0.435052 0.114491 0.69207
C_ C_ 0.60387 0.164018 0.118614 0.69661
C_ C_ 0.941031 0.179157 0.44375 0.18167
C_ C_ 0.980278 0.206913 0.465989 -0.15533
C_ C_ 0.971173 0.245739 0.504479 0.02923
C_ C_ 0.927297 0.25627 0.0049698 -0.15533
C_ C_ 0.88326 0.22964 0.493469 0.18167
C_ C_ 0.764786 0.199326 0.364846 0.18167
C_ C_ 0.737659 0.226293 0.325325 -0.15533
C_ C_ 0.764233 0.235715 0.283791 0.02923
C_ C_ 0.815288 0.215699 0.282715 -0.15533
C_ C_ 0.840255 0.193275 0.325908 0.18167
C_ C_ 0.770259 0.115625 0.468893 0.69207
C_ C_ 0.72239 0.125167 0.992342 0.02923
C_ C_ 0.742535 0.130067 0.0430032 -0.15533
C_ C_ 0.716356 0.116389 0.0825441 -0.15533
C_ C_ 0.66344 0.105413 0.0733558 0.02923
C_ C_ 0.641136 0.103414 0.0218618 -0.15533
C_ C_ 0.671588 0.111204 0.980698 0.02923
C_ C_ 0.657295 0.112763 0.429762 0.69207
C_ C_ 0.654298 0.0925941 0.170414 0.69661
C_ C_ 0.869803 0.385285 0.391475 -0.30787
C_ C_ 0.626365 0.106387 0.116883 -0.30787
N_ N_ 0.651984 0.0644492 0.31566 -0.32189
N_ N_ 0.554674 0.144181 0.309801 -0.32189
N_ N_ 0.601883 0.321291 0.0631086 -0.32189
N_ N_ 0.691166 0.31992 0.15543 -0.32189
N_ N_ 0.864446 0.451109 0.20742 -0.32189
N_ N_ 0.949757 0.364991 0.198199 -0.32189
N_ N_ 0.893713 0.190517 0.459942 -0.32189
N_ N_ 0.814896 0.185541 0.36565 -0.32189
O_ O_ 0.00437853 0.078311 0.397824 -0.63271
O_ O_ 0.547318 0.0450036 0.345651 -0.57982
O_ O_ 0.894686 0.0933999 0.346145 -0.63271
O_ O_ 0.870201 0.0825579 0.424306 -0.57982
O_ O_ 0.746158 0.397847 0.099201 -0.63271
O_ O_ 0.696303 0.353826 0.04352 -0.57982
O_ O_ 0.8643 0.346191 0.0994272 -0.63271
O_ O_ 0.873179 0.4305 0.099817 -0.57982
O_ O_ 0.482296 0.416455 0.0917943 -0.63271
O_ O_ 0.96365 0.469436 0.162462 -0.57982
O_ O_ 0.585665 0.410748 0.156774 -0.63271
O_ O_ 0.630742 0.419466 0.0889105 -0.57982
O_ O_ 0.76524 0.0917352 0.425573 -0.63271
O_ O_ 0.801725 0.15221 0.473852 -0.57982
O_ O_ 0.666532 0.155516 0.410587 -0.63271
O_ O_ 0.618232 0.0892776 0.41137 -0.57982
F_ F_ 0.939172 0.325346 0.423128 -0.20885
F_ F_ 0.914064 0.312091 0.344178 -0.20885
F_ F_ 0.866068 0.294311 0.401509 -0.20885
F_ F_ 0.809376 0.435348 0.333145 -0.20885
F_ F_ 0.810848 0.352799 0.3173 -0.20885
F_ F_ 0.875262 0.394558 0.299226 -0.20885
F_ F_ 0.568552 0.173214 0.0770801 -0.20885
F_ F_ 0.582353 0.182248 0.162825 -0.20885
F_ F_ 0.638699 0.197574 0.116344 -0.20885
F_ F_ 0.684489 0.048286 0.161192 -0.20885
F_ F_ 0.683616 0.129769 0.199188 -0.20885
F_ F_ 0.618597 0.0829499 0.203674 -0.20885
Zn Zn 0.582902 0.0863944 0.849093 0.83971
Zn Zn 0.654787 0.340991 0.583155 0.83971
Zn Zn 0.909771 0.415339 0.66091 0.83971
Zn Zn 0.8432 0.156131 0.918875 0.83971
H_ H_ 0.655753 0.133421 0.799598 0.10394
H_ H_ 0.733993 0.105163 0.7631 0.10394
H_ H_ 0.705656 0.450064 0.788126 0.10394
H_ H_ 0.633782 0.983202 0.832234 0.10394
H_ H_ 0.0366881 0.0985595 0.77041 0.10394
H_ H_ 0.998479 0.171633 0.71076 0.10394
H_ H_ 0.53691 0.275161 0.828013 0.10394
H_ H_ 0.567226 0.199681 0.877724 0.10394
H_ H_ 0.536572 0.448793 0.879565 0.10394
H_ H_ 0.972457 0.3788 0.867384 0.10394
H_ H_ 0.853209 0.48924 0.898685 0.10394
H_ H_ 0.568104 0.302974 0.624523 0.10394
H_ H_ -0.006406000000000023 0.28392 0.603395 0.10394
H_ H_ 0.533898 0.298657 0.952764 0.10394
H_ H_ 0.612522 0.330236 0.483312 0.10394
H_ H_ 0.711223 0.240978 0.597157 0.10394
H_ H_ 0.753955 0.197416 0.674296 0.10394
H_ H_ 0.727435 0.34099 0.760166 0.10394
H_ H_ 0.677822 0.375697 0.687234 0.10394
H_ H_ 0.711214 0.39608 0.958607 0.10394
H_ H_ 0.756316 0.400596 0.892139 0.10394
H_ H_ 0.892489 0.405856 0.993501 0.10394
H_ H_ 0.807261 0.393557 0.668384 0.10394
H_ H_ 0.73081 0.448552 0.701649 0.10394
H_ H_ 0.821363 0.048572 0.770695 0.10394
H_ H_ 0.906884 0.491815 0.744611 0.10394
H_ H_ 0.52176 0.37676 0.682569 0.10394
H_ H_ 0.553149 0.307065 0.730946 0.10394
H_ H_ 0.916592 0.249771 0.728408 0.10394
H_ H_ 0.878944 0.326096 0.688858 0.10394
H_ H_ 0.955653 0.0599527 0.61156 0.10394
H_ H_ 0.510521 0.123874 0.600091 0.10394
H_ H_ 0.638245 0.00534829 0.589645 0.10394
H_ H_ 0.953428 0.14974 0.907456 0.10394
H_ H_ 0.515126 0.207579 0.948427 0.10394
H_ H_ 0.913225 0.29226 0.539725 0.10394
H_ H_ 0.849412 0.251956 -0.016441999999999957 0.10394
H_ H_ 0.740335 0.205466 0.885041 0.10394
H_ H_ 0.699349 0.238945 0.799517 0.10394
H_ H_ 0.846213 0.226829 0.744715 0.10394
H_ H_ 0.888612 0.192517 0.827749 0.10394
H_ H_ 0.786795 0.11985 0.571462 0.10394
H_ H_ 0.727079 0.107062 0.630825 0.10394
H_ H_ 0.609352 0.0881871 0.509813 0.10394
C_ C_ 0.665796 0.0920518 0.796509 0.18167
C_ C_ 0.712 0.0767677 0.776924 -0.15533
C_ C_ 0.728602 0.0230265 0.773436 0.02923
C_ C_ 0.698449 0.489586 0.789015 -0.15533
C_ C_ 0.656474 0.00832942 0.817594 0.18167
C_ C_ 0.516034 0.139805 0.772458 0.18167
C_ C_ 0.0168922 0.179565 0.748532 -0.15533
C_ C_ 0.50138 0.233211 0.767427 0.02923
C_ C_ 0.52688 0.237358 0.815258 -0.15533
C_ C_ 0.545578 0.194065 0.841112 0.18167
C_ C_ 0.501734 0.0450673 0.876893 0.69207
C_ C_ 0.973635 0.507138 0.874602 0.02923
C_ C_ 0.99039 0.454093 0.870111 -0.15533
C_ C_ 0.958884 0.417168 0.876475 -0.15533
C_ C_ 0.90975 0.429369 0.894418 0.02923
C_ C_ 0.893127 0.482013 0.899195 -0.15533
C_ C_ 0.924904 0.52078 0.892806 0.02923
C_ C_ 0.891312 0.0667423 0.881728 0.69207
C_ C_ 0.89858 0.334048 0.895078 0.69661
C_ C_ 0.564926 0.294335 0.5846 0.18167
C_ C_ 0.518829 0.282491 0.561918 -0.15533
C_ C_ 0.506492 0.283123 0.508763 0.02923
C_ C_ 0.544556 0.296379 0.993185 -0.15533
C_ C_ 0.587606 0.310969 0.505134 0.18167
C_ C_ 0.718641 0.262243 0.633653 0.18167
C_ C_ 0.741376 0.237435 0.677803 -0.15533
C_ C_ 0.749236 0.267249 0.723935 0.02923
C_ C_ 0.72527 0.317873 0.725335 -0.15533
C_ C_ 0.698923 0.338457 0.683998 0.18167
C_ C_ 0.737075 0.363279 0.553615 0.69207
C_ C_ 0.772034 0.382024 1.0165158 0.02923
C_ C_ 0.75117 0.386499 0.964975 -0.15533
C_ C_ 0.779401 0.390549 0.924958 -0.15533
C_ C_ 0.831284 0.399071 0.934912 0.02923
C_ C_ 0.851875 0.40502 0.987381 -0.15533
C_ C_ 0.822118 0.396187 0.0277344 0.02923
C_ C_ 0.846634 0.381477 0.580682 0.69207
C_ C_ 0.845163 0.389377 0.838523 0.69661
C_ C_ 0.811348 0.428648 0.689105 0.18167
C_ C_ 0.771254 0.452268 0.7165 -0.15533
C_ C_ 0.779322 0.493286 0.752005 0.02923
C_ C_ 0.816247 0.0171585 0.743746 -0.15533
C_ C_ 0.867891 0.483751 0.734336 0.18167
C_ C_ 0.99707 0.35753 0.710232 0.18167
C_ C_ 0.513972 0.313594 0.723456 -0.15533
C_ C_ 0.991833 0.274937 0.741207 0.02923
C_ C_ 0.941425 0.27855 0.721795 -0.15533
C_ C_ 0.91871 0.322576 0.701918 0.18167
C_ C_ 0.990316 0.449675 0.63003 0.69207
C_ C_ 0.514654 0.995157 0.605705 0.02923
C_ C_ 0.495062 0.0463089 0.602958 -0.15533
C_ C_ 0.528366 0.0841276 0.601959 -0.15533
C_ C_ 0.580427 0.07081 0.597833 0.02923
C_ C_ 0.59845 0.0178817 0.596316 -0.15533
C_ C_ 0.565953 0.979902 0.599751 0.02923
C_ C_ 0.594192 0.419877 0.602548 0.69207
C_ C_ 0.597045 0.16641 0.605108 0.69661
C_ C_ 0.946975 0.175917 0.937453 0.18167
C_ C_ 0.988698 0.192489 0.969479 -0.15533
C_ C_ 0.977314 0.238478 -0.001422999999999952 0.02923
C_ C_ 0.922436 0.257509 0.51763 -0.15533
C_ C_ 0.887162 0.229938 0.984125 0.18167
C_ C_ 0.76519 0.208866 0.853375 0.18167
C_ C_ 0.741164 0.232209 0.808005 -0.15533
C_ C_ 0.770157 0.241937 0.771482 0.02923
C_ C_ 0.825124 0.227838 0.778912 -0.15533
C_ C_ 0.846658 0.202873 0.822284 0.18167
C_ C_ 0.757853 0.132231 0.953052 0.69207
C_ C_ 0.730377 0.118307 0.504067 0.02923
C_ C_ 0.745705 0.122278 0.558282 -0.15533
C_ C_ 0.711251 0.112463 0.591866 -0.15533
C_ C_ 0.660469 0.103028 0.575812 0.02923
C_ C_ 0.646838 0.0970591 0.522457 -0.15533
C_ C_ 0.678394 0.107596 0.48573 0.02923
C_ C_ 0.649023 0.110876 0.928057 0.69207
C_ C_ 0.638966 0.10449 0.668711 0.69661
C_ C_ 0.870494 0.387996 0.893566 -0.30787
C_ C_ 0.617969 0.109798 0.612332 -0.30787
N_ N_ 0.636581 0.0577783 0.812606 -0.32189
N_ N_ 0.544448 0.145108 0.818727 -0.32189
N_ N_ 0.597838 0.309113 0.554876 -0.32189
N_ N_ 0.693539 0.310158 0.639011 -0.32189
N_ N_ 0.857986 0.445031 0.699265 -0.32189
N_ N_ 0.946499 0.35989 0.694618 -0.32189
N_ N_ 0.897526 0.189706 0.949602 -0.32189
N_ N_ 0.81666 0.193586 0.859388 -0.32189
O_ O_ 0.0131016 0.0792738 0.911291 -0.63271
O_ O_ 0.533153 0.0405251 0.840096 -0.57982
O_ O_ 0.894934 0.093134 0.843297 -0.63271
O_ O_ 0.868512 0.0902044 0.919171 -0.57982
O_ O_ 0.73832 0.387836 0.598811 -0.63271
O_ O_ 0.698761 0.334973 0.539159 -0.57982
O_ O_ 0.852161 0.336023 0.600673 -0.63271
O_ O_ 0.874606 0.416708 0.599655 -0.57982
O_ O_ 0.484046 0.41458 0.584612 -0.63271
O_ O_ 0.9603 0.461289 0.665959 -0.57982
O_ O_ 0.595429 0.395543 0.646399 -0.63271
O_ O_ 0.629429 0.405023 0.572297 -0.57982
O_ O_ 0.75932 0.0986013 0.914719 -0.63271
O_ O_ 0.793503 0.164067 0.960198 -0.57982
O_ O_ 0.655054 0.146741 0.898618 -0.63271
O_ O_ 0.613511 0.0803563 0.913061 -0.57982
F_ F_ 0.936678 0.326041 0.936528 -0.20885
F_ F_ 0.920083 0.313782 0.851315 -0.20885
F_ F_ 0.857969 0.302774 0.899811 -0.20885
F_ F_ 0.811007 0.433314 0.833247 -0.20885
F_ F_ 0.816836 0.349638 0.822721 -0.20885
F_ F_ 0.878563 0.39065 0.801914 -0.20885
F_ F_ 0.572392 0.174212 0.55733 -0.20885
F_ F_ 0.561586 0.184646 0.640945 -0.20885
F_ F_ 0.633253 0.202159 0.616142 -0.20885
F_ F_ 0.667306 0.0596524 0.673598 -0.20885
F_ F_ 0.666319 0.144981 0.690563 -0.20885
F_ F_ 0.597936 0.105862 0.696737 -0.20885
Zn Zn 0.586116 0.584766 0.350939 0.83971
Zn Zn 0.659718 0.844337 0.0837524 0.83971
Zn Zn 0.908526 0.918931 0.14833 0.83971
Zn Zn 0.843868 0.654564 0.416913 0.83971
H_ H_ 0.662022 0.631073 0.307956 0.10394
H_ H_ 0.736156 0.601047 0.262325 0.10394
H_ H_ 0.709999 0.94985 0.277546 0.10394
H_ H_ 0.631852 0.481815 0.328605 0.10394
H_ H_ 0.0290038 0.603274 0.259995 0.10394
H_ H_ 0.987263 0.675242 0.209909 0.10394
H_ H_ 0.53769 0.764892 0.325755 0.10394
H_ H_ 0.572942 0.696618 0.373434 0.10394
H_ H_ 0.544583 0.957141 0.391606 0.10394
H_ H_ 0.976127 0.872466 0.362621 0.10394
H_ H_ 0.857343 0.980394 0.414957 0.10394
H_ H_ 0.575876 0.809373 0.127125 0.10394
H_ H_ 1.00910636 0.762914 0.10172 0.10394
H_ H_ 0.55104 0.763171 0.449994 0.10394
H_ H_ 0.607224 0.836644 0.980731 0.10394
H_ H_ 0.735447 0.761145 0.0972036 0.10394
H_ H_ 0.771392 0.708191 0.169458 0.10394
H_ H_ 0.700654 0.818119 0.273677 0.10394
H_ H_ 0.661232 0.866879 0.197409 0.10394
H_ H_ 0.708359 0.895396 0.44013 0.10394
H_ H_ 0.762981 0.895968 0.374505 0.10394
H_ H_ 0.894601 0.893802 0.481501 0.10394
H_ H_ 0.808609 0.89936 0.157374 0.10394
H_ H_ 0.731503 0.954819 0.187863 0.10394
H_ H_ 0.828229 0.553084 0.288522 0.10394
H_ H_ 0.903517 1.00834052 0.223212 0.10394
H_ H_ 0.521123 0.890111 0.205049 0.10394
H_ H_ 0.565545 0.806604 0.238758 0.10394
H_ H_ 0.914108 0.7567 0.235897 0.10394
H_ H_ 0.870681 0.827366 0.191817 0.10394
H_ H_ 0.975032 0.559057 0.128256 0.10394
H_ H_ 0.509332 0.628915 0.112163 0.10394
H_ H_ 0.635419 0.516139 0.0903856 0.10394
H_ H_ 0.948615 0.6594 0.394619 0.10394
H_ H_ 0.511564 0.680193 0.44528 0.10394
H_ H_ 0.916056 0.780975 0.0433145 0.10394
H_ H_ 0.849322 0.738362 0.495892 0.10394
H_ H_ 0.733676 0.686 0.382792 0.10394
H_ H_ 0.69124 0.726809 0.3023 0.10394
H_ H_ 0.839724 0.736318 0.255858 0.10394
H_ H_ 0.879821 0.697026 0.335092 0.10394
H_ H_ 0.782063 0.610274 0.0551483 0.10394
H_ H_ 0.726261 0.59531 0.118599 0.10394
H_ H_ 0.598971 0.597292 -0.000534875 0.10394
C_ C_ 0.673621 0.590577 0.304104 0.18167
C_ C_ 0.717531 0.574834 0.281749 -0.15533
C_ C_ 0.732039 0.522316 0.278087 0.02923
C_ C_ 0.707999 0.990748 0.291766 -0.15533
C_ C_ 0.654715 0.507029 0.313421 0.18167
C_ C_ 0.529014 0.631705 0.271941 0.18167
C_ C_ 0.0118339 0.682812 0.243571 -0.15533
C_ C_ 0.523319 0.722086 0.255804 0.02923
C_ C_ 0.545185 0.729983 0.306479 -0.15533
C_ C_ 0.563461 0.688156 0.332597 0.18167
C_ C_ 0.506838 0.540255 0.37534 0.69207
C_ C_ 0.967201 0.0006099999999999994 0.365371 0.02923
C_ C_ -0.011378 0.948275 0.363523 -0.15533
C_ C_ 0.958436 0.910324 0.370596 -0.15533
C_ C_ 0.90914 0.919273 0.389764 0.02923
C_ C_ 0.891537 0.970598 0.398457 -0.15533
C_ C_ 0.917712 0.0112269 0.380902 0.02923
C_ C_ 0.89995 0.570431 0.39407 0.69207
C_ C_ 0.894207 0.822571 0.380482 0.69661
C_ C_ 0.568093 0.803588 0.0886812 0.18167
C_ C_ 0.521706 0.786163 0.0695701 -0.15533
C_ C_ 0.510138 0.775603 0.0151916 0.02923
C_ C_ 0.554611 0.768292 0.491455 -0.15533
C_ C_ 0.582677 0.821304 0.00394621 0.18167
C_ C_ 0.722547 0.76944 0.135469 0.18167
C_ C_ 0.746144 0.74173 0.177371 -0.15533
C_ C_ 0.739111 0.761188 0.228733 0.02923
C_ C_ 0.7054 0.802679 0.234353 -0.15533
C_ C_ 0.685332 0.831907 0.19212 0.18167
C_ C_ 0.740042 0.858412 0.0432075 0.69207
C_ C_ 0.770848 0.878709 0.50042 0.02923
C_ C_ 0.748609 0.892876 0.451805 -0.15533
C_ C_ 0.780307 0.889935 0.412432 -0.15533
C_ C_ 0.833629 0.887125 0.420963 0.02923
C_ C_ 0.854018 0.890567 0.472593 -0.15533
C_ C_ 0.823523 0.88114 0.512216 0.02923
C_ C_ 0.849192 0.883077 0.0710535 0.69207
C_ C_ 0.846024 0.88573 0.324944 0.69661
C_ C_ 0.813825 0.93119 0.182188 0.18167
C_ C_ 0.771916 0.959661 0.204405 -0.15533
C_ C_ 0.781449 0.9987756 0.241883 0.02923
C_ C_ 0.825457 0.520737 0.259911 -0.15533
C_ C_ 0.869233 0.992057 0.220533 0.18167
C_ C_ 0.993958 0.856953 0.194259 0.18167
C_ C_ 0.525942 0.811155 0.222347 -0.15533
C_ C_ 0.990671 0.777982 0.238131 0.02923
C_ C_ 0.937352 0.786149 0.22481 -0.15533
C_ C_ 0.912297 0.825584 0.198245 0.18167
C_ C_ 0.977065 0.957002 0.110698 0.69207
C_ C_ 0.515537 0.499005 0.118039 0.02923
C_ C_ 0.494927 0.551308 0.113516 -0.15533
C_ C_ 0.525751 0.590108 0.108036 -0.15533
C_ C_ 0.576182 0.577679 0.0961476 0.02923
C_ C_ 0.595316 0.525992 0.0968392 -0.15533
C_ C_ 0.565453 0.486244 0.106311 0.02923
C_ C_ 0.601457 0.927167 0.113523 0.69207
C_ C_ 0.593657 0.676854 0.10296 0.69661
C_ C_ 0.940213 0.686256 0.427154 0.18167
C_ C_ 0.980207 0.709749 0.449593 -0.15533
C_ C_ 0.973807 0.740856 0.493636 0.02923
C_ C_ 0.9247 0.752738 1.0118297 -0.15533
C_ C_ 0.887029 0.727756 0.484304 0.18167
C_ C_ 0.757032 0.693999 0.354531 0.18167
C_ C_ 0.732841 0.715625 0.309403 -0.15533
C_ C_ 0.761926 0.728219 0.270994 0.02923
C_ C_ 0.814678 0.717627 0.279821 -0.15533
C_ C_ 0.838676 0.699428 0.326112 0.18167
C_ C_ 0.772141 0.617672 0.456644 0.69207
C_ C_ 0.723198 0.616507 0.99398 0.02923
C_ C_ 0.741521 0.605783 0.0436088 -0.15533
C_ C_ 0.70773 0.601368 0.0807482 -0.15533
C_ C_ 0.654858 0.606545 0.0676933 0.02923
C_ C_ 0.638458 0.603436 0.014895 -0.15533
C_ C_ 0.672559 0.608049 0.977916 0.02923
C_ C_ 0.656601 0.606811 0.431601 0.69207
C_ C_ 0.639665 0.615323 0.162649 0.69661
C_ C_ 0.869847 0.878606 0.379969 -0.30787
C_ C_ 0.615228 0.617947 0.107131 -0.30787
N_ N_ 0.64318 0.558185 0.321168 -0.32189
N_ N_ 0.555402 0.641284 0.316011 -0.32189
N_ N_ 0.599061 0.818582 0.0553457 -0.32189
N_ N_ 0.689348 0.811451 0.143297 -0.32189
N_ N_ 0.861522 0.946106 0.193335 -0.32189
N_ N_ 0.941368 0.860783 0.183393 -0.32189
N_ N_ 0.89301 0.698037 0.440654 -0.32189
N_ N_ 0.808993 0.684971 0.359982 -0.32189
O_ O_ 0.00877068 0.586382 0.399819 -0.63271
O_ O_ 0.539113 0.540889 0.340481 -0.57982
O_ O_ 0.898724 0.59667 0.352133 -0.63271
O_ O_ 0.876056 0.59042 0.430583 -0.57982
O_ O_ 0.747841 0.877062 0.0887612 -0.63271
O_ O_ 0.698743 0.83654 0.0308917 -0.57982
O_ O_ 0.856755 0.844229 0.10097 -0.63271
O_ O_ 0.867203 0.925638 0.0885947 -0.57982
O_ O_ 0.488398 0.906176 0.101531 -0.63271
O_ O_ 0.949839 0.970055 0.149659 -0.57982
O_ O_ 0.590195 0.89943 0.148888 -0.63271
O_ O_ 0.6405 0.909059 0.0872023 -0.57982
O_ O_ 0.769982 0.593854 0.410132 -0.63271
O_ O_ 0.801474 0.654896 0.468404 -0.57982
O_ O_ 0.665746 0.647452 0.408358 -0.63271
O_ O_ 0.615341 0.584503 0.415957 -0.57982
F_ F_ 0.930871 0.813543 0.421658 -0.20885
F_ F_ 0.920607 0.812554 0.339646 -0.20885
F_ F_ 0.860357 0.787347 0.377696 -0.20885
F_ F_ 0.814104 0.931144 0.32105 -0.20885
F_ F_ 0.81361 0.844667 0.308656 -0.20885
F_ F_ 0.879752 0.886485 0.28966 -0.20885
F_ F_ 0.559071 0.68296 0.0607876 -0.20885
F_ F_ 0.56336 0.695649 0.142057 -0.20885
F_ F_ 0.630562 0.708103 0.0945742 -0.20885
F_ F_ 0.66578 0.568201 0.174405 -0.20885
F_ F_ 0.66973 0.653136 0.17661 -0.20885
F_ F_ 0.604114 0.615816 0.198066 -0.20885
Zn Zn 0.585462 0.589403 0.843561 0.83971
Zn Zn 0.654105 0.843773 0.582502 0.83971
Zn Zn 0.900907 0.911756 0.650945 0.83971
Zn Zn 0.839478 0.656964 0.919943 0.83971
H_ H_ 0.669625 0.636486 0.802976 0.10394
H_ H_ 0.751614 0.59824 0.769356 0.10394
H_ H_ 0.717504 0.950216 0.800517 0.10394
H_ H_ 0.62523 0.489149 0.819212 0.10394
H_ H_ 0.0191382 0.590001 0.746491 0.10394
H_ H_ 0.974789 0.663258 0.700128 0.10394
H_ H_ 0.517579 0.774707 0.837033 0.10394
H_ H_ 0.563156 0.69948 0.876691 0.10394
H_ H_ 0.52832 0.944753 0.875494 0.10394
H_ H_ 0.986557 0.876037 0.895613 0.10394
H_ H_ 0.850405 0.982837 0.904767 0.10394
H_ H_ 0.57876 0.799898 0.637112 0.10394
H_ H_ 0.00896862 0.756048 0.592996 0.10394
H_ H_ 0.531226 0.793721 0.942571 0.10394
H_ H_ 0.624273 0.803938 0.489401 0.10394
H_ H_ 0.73016 0.758744 0.600987 0.10394
H_ H_ 0.765475 0.711613 0.6761 0.10394
H_ H_ 0.696849 0.838361 0.770692 0.10394
H_ H_ 0.657422 0.873744 0.692385 0.10394
H_ H_ 0.728488 0.823999 0.944763 0.10394
H_ H_ 0.777047 0.846135 0.877982 0.10394
H_ H_ 0.892265 0.886302 0.986543 0.10394
H_ H_ 0.796978 0.888045 0.671184 0.10394
H_ H_ 0.724988 0.940603 0.700585 0.10394
H_ H_ 0.835447 0.538641 0.789257 0.10394
H_ H_ 0.892314 1.00284722 0.725962 0.10394
H_ H_ 0.494694 0.899552 0.708301 0.10394
H_ H_ 0.539616 0.826003 0.748043 0.10394
H_ H_ 0.900289 0.733738 0.707024 0.10394
H_ H_ 0.862172 0.813664 0.671333 0.10394
H_ H_ 0.967068 0.549073 0.629233 0.10394
H_ H_ 0.530558 0.61239 0.577793 0.10394
H_ H_ 0.653177 0.495502 0.594371 0.10394
H_ H_ 0.94955 0.652669 0.904589 0.10394
H_ H_ 0.518275 0.690496 0.95283 0.10394
H_ H_ 0.918292 0.78848 0.535942 0.10394
H_ H_ 0.846248 0.735915 0.99604441 0.10394
H_ H_ 0.729397 0.716725 0.891622 0.10394
H_ H_ 0.686642 0.753366 0.816817 0.10394
H_ H_ 0.826522 0.721834 0.748072 0.10394
H_ H_ 0.86848 0.68524 0.826338 0.10394
H_ H_ 0.796291 0.612186 0.55918 0.10394
H_ H_ 0.744373 0.59656 0.62486 0.10394
H_ H_ 0.619923 0.577161 0.51417 0.10394
C_ C_ 0.680582 0.594559 0.80223 0.18167
C_ C_ 0.725394 0.573539 0.782841 -0.15533
C_ C_ 0.735154 0.520148 0.776984 0.02923
C_ C_ 0.702638 0.989472 0.797201 -0.15533
C_ C_ 0.651759 0.51325 0.805101 0.18167
C_ C_ 0.527438 0.644206 0.762763 0.18167
C_ C_ -0.009207999999999994 0.66924 0.738416 -0.15533
C_ C_ 0.499147 0.733201 0.763346 0.02923
C_ C_ 0.521643 0.739344 0.81402 -0.15533
C_ C_ 0.546207 0.69614 0.837333 0.18167
C_ C_ 0.506569 0.550381 0.867807 0.69207
C_ C_ 0.969654 0.00656367 0.875541 0.02923
C_ C_ -0.007430999999999965 0.954388 0.879973 -0.15533
C_ C_ 0.965875 0.914274 0.89061 -0.15533
C_ C_ 0.913812 0.92326 0.8991 0.02923
C_ C_ 0.893073 0.975417 0.900521 -0.15533
C_ C_ 0.918159 0.0164021 0.887374 0.02923
C_ C_ 0.898348 0.572364 0.889636 0.69207
C_ C_ 0.906738 0.826295 0.874468 0.69661
C_ C_ 0.571191 0.789797 0.597149 0.18167
C_ C_ 0.527149 0.766568 0.576522 -0.15533
C_ C_ 0.518792 0.752942 0.524156 0.02923
C_ C_ 0.539416 0.799632 0.982552 -0.15533
C_ C_ 0.598596 0.789124 0.513521 0.18167
C_ C_ 0.721282 0.773954 0.637619 0.18167
C_ C_ 0.743392 0.749119 0.682165 -0.15533
C_ C_ 0.732845 0.77034 0.730774 0.02923
C_ C_ 0.703855 0.816767 0.734225 -0.15533
C_ C_ 0.679294 0.836825 0.689563 0.18167
C_ C_ 0.736329 0.871223 0.54028 0.69207
C_ C_ 0.777147 0.858205 1.00504 0.02923
C_ C_ 0.76425 0.841454 0.954382 -0.15533
C_ C_ 0.793037 0.854044 0.915207 -0.15533
C_ C_ 0.837732 0.877567 0.924797 0.02923
C_ C_ 0.854815 0.88283 0.975879 -0.15533
C_ C_ 0.824839 0.87516 0.0164435 0.02923
C_ C_ 0.848452 0.879355 0.56519 0.69207
C_ C_ 0.850064 0.890794 0.831453 0.69661
C_ C_ 0.804673 0.925164 0.694147 0.18167
C_ C_ 0.762123 0.952698 0.712781 -0.15533
C_ C_ 0.767961 0.0004900000000001015 0.737406 0.02923
C_ C_ 0.829071 0.508692 0.761321 -0.15533
C_ C_ 0.857424 0.988129 0.721714 0.18167
C_ C_ 0.980609 0.846847 0.698082 0.18167
C_ C_ 0.50011 0.821947 0.729509 -0.15533
C_ C_ 0.973334 0.762621 0.725579 0.02923
C_ C_ 0.924224 0.766153 0.703997 -0.15533
C_ C_ 0.902107 0.810448 0.684624 0.18167
C_ C_ 0.977381 0.956614 0.606828 0.69207
C_ C_ 0.5245 0.491696 0.604863 0.02923
C_ C_ 0.509504 0.542749 0.595766 -0.15533
C_ C_ 0.544234 0.578174 0.597089 -0.15533
C_ C_ 0.595967 0.56356 0.602728 0.02923
C_ C_ 0.613214 0.510205 0.602149 -0.15533
C_ C_ 0.576753 0.472441 0.600723 0.02923
C_ C_ 0.590078 0.925046 0.604149 0.69207
C_ C_ 0.61703 0.659737 0.604801 0.69661
C_ C_ 0.940885 0.678736 0.936145 0.18167
C_ C_ 0.981412 0.694391 0.966517 -0.15533
C_ C_ 0.974432 0.73673 1.00298 0.02923
C_ C_ 0.92666 0.754348 0.508205 -0.15533
C_ C_ 0.884539 0.72886 0.984481 0.18167
C_ C_ 0.749772 0.709935 0.859524 0.18167
C_ C_ 0.725376 0.737368 0.818199 -0.15533
C_ C_ 0.755993 0.74561 0.778919 0.02923
C_ C_ 0.805222 0.721679 0.780858 -0.15533
C_ C_ 0.82863 0.692779 0.821901 0.18167
C_ C_ 0.762292 0.624147 0.958893 0.69207
C_ C_ 0.738797 0.605088 0.49586 0.02923
C_ C_ 0.759135 0.608573 0.548855 -0.15533
C_ C_ 0.725911 0.601167 0.586615 -0.15533
C_ C_ 0.675115 0.590772 0.573857 0.02923
C_ C_ 0.659076 0.581945 0.523188 -0.15533
C_ C_ 0.686881 0.595673 0.483845 0.02923
C_ C_ 0.647977 0.611992 0.925307 0.69207
C_ C_ 0.657054 0.595088 0.667356 0.69661
C_ C_ 0.877078 0.880203 0.886139 -0.30787
C_ C_ 0.635083 0.600393 0.610485 -0.30787
N_ N_ 0.643189 0.565429 0.811249 -0.32189
N_ N_ 0.550647 0.649285 0.810608 -0.32189
N_ N_ 0.605752 0.800084 0.56473 -0.32189
N_ N_ 0.688965 0.816193 0.642634 -0.32189
N_ N_ 0.849028 0.945272 0.691593 -0.32189
N_ N_ 0.929836 0.850065 0.680101 -0.32189
N_ N_ 0.893144 0.694239 0.945052 -0.32189
N_ N_ 0.802087 0.694502 0.862476 -0.32189
O_ O_ 1.01175 0.58709 0.891637 -0.63271
O_ O_ 0.541356 0.542264 0.83609 -0.57982
O_ O_ 0.893721 0.596075 0.847644 -0.63271
O_ O_ 0.870963 0.592742 0.926781 -0.57982
O_ O_ 0.738941 0.899701 0.58381 -0.63271
O_ O_ 0.700874 0.838254 0.535575 -0.57982
O_ O_ 0.846759 0.83818 0.589746 -0.63271
O_ O_ 0.873891 0.916252 0.586545 -0.57982
O_ O_ 0.485373 0.912367 0.59694 -0.63271
O_ O_ 0.948551 0.961413 0.642858 -0.57982
O_ O_ 0.585071 0.902497 0.647304 -0.63271
O_ O_ 0.625223 0.908419 0.574524 -0.57982
O_ O_ 0.762986 0.602066 0.912243 -0.63271
O_ O_ 0.796232 0.657516 0.972574 -0.57982
O_ O_ 0.64719 0.65628 0.900827 -0.63271
O_ O_ 0.622355 0.576967 0.906175 -0.57982
F_ F_ 0.935366 0.814173 0.919554 -0.20885
F_ F_ 0.937846 0.81957 0.8324 -0.20885
F_ F_ 0.877591 0.785406 0.865458 -0.20885
F_ F_ 0.810409 0.930662 0.83095 -0.20885
F_ F_ 0.832907 0.850566 0.804715 -0.20885
F_ F_ 0.883639 0.906131 0.801444 -0.20885
F_ F_ 0.592306 0.666223 0.557329 -0.20885
F_ F_ 0.58496 0.679499 0.64416 -0.20885
F_ F_ 0.656841 0.691669 0.60682 -0.20885
F_ F_ 0.68301 0.545075 0.671545 -0.20885
F_ F_ 0.682623 0.634359 0.688601 -0.20885
F_ F_ 0.617436 0.595892 0.69977 -0.20885
_cell_length_a 26.508
_cell_length_b 26.37200000322088
_cell_length_c 26.311999743092066
_cell_angle_alpha 93.74100058972084
_cell_angle_beta 96.04100104955006
_cell_angle_gamma 83.6869992558723
_symmetry_space_group_name_H-M         'P 1'
_symmetry_Int_Tables_number            1
loop_
_symmetry_equiv_pos_as_xyz
   'x, y, z'
                         
loop_
_atom_site_label
_atom_site_type_symbol
_atom_site_fract_x 
_atom_site_fract_y
_atom_site_fract_z
_atom_site_charge
Zn Zn 0.0831509 0.0813868 0.346457 0.83971
Zn Zn 0.159036 0.34806 0.0776329 0.83971
Zn Zn 0.408931 0.416826 0.153973 0.83971
Zn Zn 0.339151 0.153149 0.410799 0.83971
H_ H_ 0.160611 0.125354 0.296189 0.10394
H_ H_ 0.233461 0.0966873 0.257058 0.10394
H_ H_ 0.199109 0.451049 0.271462 0.10394
H_ H_ 0.138694 0.976144 0.334048 0.10394
H_ H_ 0.516695 0.0965562 0.255888 0.10394
H_ H_ 0.459579 0.171437 0.215364 0.10394
H_ H_ 0.030957 0.260726 0.33523 0.10394
H_ H_ 0.0707888 0.187556 0.377475 0.10394
H_ H_ 0.0277767 0.441914 0.360466 0.10394
H_ H_ 0.468821 0.372984 0.351013 0.10394
H_ H_ 0.350043 0.481504 0.402728 0.10394
H_ H_ 0.0874258 0.312513 0.126271 0.10394
H_ H_ 0.5095 0.264578 0.104558 0.10394
H_ H_ 0.0398607 0.283369 0.452518 0.10394
H_ H_ 0.126561 0.310196 0.975032 0.10394
H_ H_ 0.207805 0.245977 0.0925113 0.10394
H_ H_ 0.254835 0.199596 0.167716 0.10394
H_ H_ 0.217347 0.334136 0.260426 0.10394
H_ H_ 0.192258 0.382375 0.182696 0.10394
H_ H_ 0.213944 0.364904 0.445317 0.10394
H_ H_ 0.261675 0.376561 0.377375 0.10394
H_ H_ 0.400036 0.389138 0.476514 0.10394
H_ H_ 0.302634 0.40935 0.155533 0.10394
H_ H_ 0.231396 0.456058 0.195349 0.10394
H_ H_ 0.32865 0.0461285 0.278312 0.10394
H_ H_ 0.407024 0.499559 0.244245 0.10394
H_ H_ 0.0249072 0.386638 0.201742 0.10394
H_ H_ 0.0635941 0.314837 0.254022 0.10394
H_ H_ 0.403928 0.255577 0.219941 0.10394
H_ H_ 0.37231 0.332504 0.18304 0.10394
H_ H_ 0.462395 0.054255 0.115011 0.10394
H_ H_ 0.0143302 0.118247 0.0965881 0.10394
H_ H_ 0.143543 0.00349316 0.101663 0.10394
H_ H_ 0.436417 0.159847 0.394545 0.10394
H_ H_ 0.0212544 0.194796 0.456972 0.10394
H_ H_ 0.421533 0.27448 0.0651202 0.10394
H_ H_ 0.34112 0.243095 0.500028 0.10394
H_ H_ 0.234921 0.19625 0.377123 0.10394
H_ H_ 0.19507 0.251365 0.307821 0.10394
H_ H_ 0.338949 0.215638 0.239541 0.10394
H_ H_ 0.377843 0.180081 0.31584 0.10394
H_ H_ 0.289578 0.117285 0.0556404 0.10394
H_ H_ 0.22824 0.110748 0.124204 0.10394
H_ H_ 0.110842 0.0788725 0.000903753 0.10394
C_ C_ 0.168801 0.0844133 0.292245 0.18167
C_ C_ 0.215466 0.0671951 0.271758 -0.15533
C_ C_ 0.232627 0.0133034 0.271242 0.02923
C_ C_ 0.199791 0.488302 0.289169 -0.15533
C_ C_ 0.157307 7.63497e-05 0.312625 0.18167
C_ C_ 0.0303715 0.132493 0.263363 0.18167
C_ C_ 0.49202 0.175908 0.244755 -0.15533
C_ C_ 0.0203796 0.224362 0.260643 0.02923
C_ C_ 0.0408999 0.227809 0.31128 -0.15533
C_ C_ 0.0590849 0.184067 0.335548 0.18167
C_ C_ 0.0036465 0.0383955 0.365283 0.69207
C_ C_ 0.470967 0.500934 0.374392 0.02923
C_ C_ 0.48873 0.448441 0.365982 -0.15533
C_ C_ 0.457369 0.410104 0.366037 -0.15533
C_ C_ 0.406058 0.42168 0.37963 0.02923
C_ C_ 0.389563 0.471318 0.393639 -0.15533
C_ C_ 0.419303 0.512218 0.38624 0.02923
C_ C_ 0.395271 0.0689505 0.385506 0.69207
C_ C_ 0.396514 0.322479 0.374555 0.69661
C_ C_ 0.0759417 0.30471 0.0876843 0.18167
C_ C_ 0.0300954 0.281814 0.0691247 -0.15533
C_ C_ 0.021315 0.270185 0.0169683 0.02923
C_ C_ 0.0490155 0.289505 0.493617 -0.15533
C_ C_ 0.0995461 0.302668 0.00180417 0.18167
C_ C_ 0.210951 0.264394 0.128449 0.18167
C_ C_ 0.233847 0.237144 0.170229 -0.15533
C_ C_ 0.235841 0.263195 0.219812 0.02923
C_ C_ 0.220824 0.31495 0.222749 -0.15533
C_ C_ 0.200549 0.341412 0.180794 0.18167
C_ C_ 0.239514 0.372606 0.0410641 0.69207
C_ C_ 0.27581 0.372134 0.507037 0.02923
C_ C_ 0.254153 0.365777 0.455882 -0.15533
C_ C_ 0.282201 0.374758 0.415174 -0.15533
C_ C_ 0.33427 0.381493 0.421817 0.02923
C_ C_ 0.356988 0.385239 0.473507 -0.15533
C_ C_ 0.328007 0.380651 0.516764 0.02923
C_ C_ 0.349036 0.387303 0.0698271 0.69207
C_ C_ 0.339605 0.382995 0.324906 0.69661
C_ C_ 0.309913 0.442427 0.179087 0.18167
C_ C_ 0.269816 0.465244 0.206055 -0.15533
C_ C_ 0.278148 0.501235 0.246725 0.02923
C_ C_ 0.322752 0.0128986 0.249909 -0.15533
C_ C_ 0.370974 0.483123 0.237302 0.18167
C_ C_ 0.492147 0.353634 0.199507 0.18167
C_ C_ 0.0245073 0.313879 0.230636 -0.15533
C_ C_ 0.481319 0.272 0.232434 0.02923
C_ C_ 0.430458 0.281898 0.215769 -0.15533
C_ C_ 0.413032 0.322627 0.186566 0.18167
C_ C_ 0.480574 0.459058 0.1197 0.69207
C_ C_ 0.0153397 0.990607 0.0970253 0.02923
C_ C_ -0.00048599999999998644 0.0427643 0.0984614 -0.15533
C_ C_ 0.0303391 0.079467 0.0952179 -0.15533
C_ C_ 0.08334 0.0655648 0.0947013 0.02923
C_ C_ 0.101323 0.0145459 0.094114 -0.15533
C_ C_ 0.0686434 0.976321 0.0950076 0.02923
C_ C_ 0.10023 0.425622 0.0998735 0.69207
C_ C_ 0.0985428 0.161833 0.0994427 0.69661
C_ C_ 0.431468 0.184822 0.429633 0.18167
C_ C_ 0.473548 0.210921 0.45241 -0.15533
C_ C_ 0.465454 0.252494 0.487105 0.02923
C_ C_ 0.425875 0.252997 0.0265869 -0.15533
C_ C_ 0.377489 0.23198 0.486607 0.18167
C_ C_ 0.253966 0.19492 0.343356 0.18167
C_ C_ 0.233485 0.229242 0.306004 -0.15533
C_ C_ 0.261575 0.23739 0.265189 0.02923
C_ C_ 0.315537 0.219752 0.271214 -0.15533
C_ C_ 0.337148 0.192375 0.313228 0.18167
C_ C_ 0.261283 0.117224 0.448205 0.69207
C_ C_ 0.230938 0.109719 0.993448 0.02923
C_ C_ 0.247841 0.116291 0.0449507 -0.15533
C_ C_ 0.214424 0.109797 0.0837697 -0.15533
C_ C_ 0.163598 0.0991418 0.0682393 0.02923
C_ C_ 0.149325 0.091981 0.0164492 -0.15533
C_ C_ 0.182719 0.0963098 0.978914 0.02923
C_ C_ 0.151664 0.1 0.421714 0.69207
C_ C_ 0.143802 0.100821 0.158466 0.69661
C_ C_ 0.370073 0.378135 0.376703 -0.30787
C_ C_ 0.121297 0.105506 0.104077 -0.30787
N_ N_ 0.139341 0.0491474 0.30866 -0.32189
N_ N_ 0.0524056 0.137784 0.311772 -0.32189
N_ N_ 0.107415 0.3139 0.0523185 -0.32189
N_ N_ 0.195014 0.315678 0.134151 -0.32189
N_ N_ 0.359296 0.449985 0.196728 -0.32189
N_ N_ 0.445963 0.354764 0.175939 -0.32189
N_ N_ 0.386439 0.197706 0.445283 -0.32189
N_ N_ 0.306726 0.180057 0.347937 -0.32189
O_ O_ 0.504517 0.0962843 0.398597 -0.63271
O_ O_ 0.0412889 0.032108 0.336893 -0.57982
O_ O_ 0.389731 0.0885206 0.340279 -0.63271
O_ O_ 0.370796 0.091572 0.422437 -0.57982
O_ O_ 0.243419 0.396217 0.0847535 -0.63271
O_ O_ 0.204771 0.34036 0.0314073 -0.57982
O_ O_ 0.359262 0.343321 0.0896243 -0.63271
O_ O_ 0.376803 0.423213 0.0898471 -0.57982
O_ O_ 0.993398 0.416171 0.0968158 -0.63271
O_ O_ 0.454847 0.461363 0.158988 -0.57982
O_ O_ 0.0980098 0.402401 0.141185 -0.63271
O_ O_ 0.133232 0.410173 0.0674949 -0.57982
O_ O_ 0.257454 0.0922824 0.403125 -0.63271
O_ O_ 0.291973 0.152201 0.459343 -0.57982
O_ O_ 0.152156 0.143356 0.397495 -0.63271
O_ O_ 0.116817 0.0708193 0.408201 -0.57982
F_ F_ 0.437064 0.317749 0.411225 -0.20885
F_ F_ 0.413374 0.311869 0.327135 -0.20885
F_ F_ 0.364014 0.286225 0.381316 -0.20885
F_ F_ 0.303125 0.425934 0.325027 -0.20885
F_ F_ 0.311808 0.341213 0.309971 -0.20885
F_ F_ 0.373082 0.390724 0.289211 -0.20885
F_ F_ 0.0753336 0.171392 0.0538283 -0.20885
F_ F_ 0.0640624 0.176291 0.136241 -0.20885
F_ F_ 0.135453 0.194498 0.105031 -0.20885
F_ F_ 0.179784 0.0579258 0.169363 -0.20885
F_ F_ 0.168457 0.142032 0.180177 -0.20885
F_ F_ 0.107982 0.097104 0.191065 -0.20885
Zn Zn 0.0899605 0.0880043 0.855474 0.83971
Zn Zn 0.162362 0.343783 0.588422 0.83971
Zn Zn 0.409154 0.425003 0.650561 0.83971
Zn Zn 0.343887 0.155033 0.924054 0.83971
H_ H_ 0.163718 0.130252 0.806694 0.10394
H_ H_ 0.233005 0.10071 0.753459 0.10394
H_ H_ 0.218159 0.445137 0.7966 0.10394
H_ H_ 0.135596 0.978026 0.823988 0.10394
H_ H_ 0.518517 0.103801 0.751512 0.10394
H_ H_ 0.472713 0.176684 0.709299 0.10394
H_ H_ 0.0337995 0.273143 0.842398 0.10394
H_ H_ 0.0819223 0.201748 0.885453 0.10394
H_ H_ 0.0270379 0.441613 0.856063 0.10394
H_ H_ 0.487002 0.381755 0.900501 0.10394
H_ H_ 0.351665 0.488365 0.885758 0.10394
H_ H_ 0.0868695 0.306384 0.638337 0.10394
H_ H_ 0.490801 0.280049 0.588919 0.10394
H_ H_ 0.0502024 0.267038 0.944054 0.10394
H_ H_ 0.120232 0.320992 0.490823 0.10394
H_ H_ 0.221189 0.246455 0.610145 0.10394
H_ H_ 0.268059 0.210179 0.688831 0.10394
H_ H_ 0.216971 0.34487 0.776864 0.10394
H_ H_ 0.18434 0.383404 0.699754 0.10394
H_ H_ 0.221801 0.354506 0.937452 0.10394
H_ H_ 0.272753 0.373129 0.871413 0.10394
H_ H_ 0.387369 0.419357 0.988952 0.10394
H_ H_ 0.309775 0.406453 0.655859 0.10394
H_ H_ 0.23528 0.452664 0.693541 0.10394
H_ H_ 0.332378 0.0399738 0.785689 0.10394
H_ H_ 0.407083 0.506523 0.725048 0.10394
H_ H_ 0.0225595 0.387124 0.701777 0.10394
H_ H_ 0.06067 0.312608 0.745787 0.10394
H_ H_ 0.401379 0.265943 0.737804 0.10394
H_ H_ 0.369571 0.346349 0.699363 0.10394
H_ H_ 0.454003 0.0564881 0.601998 0.10394
H_ H_ 0.0100935 0.125855 0.615165 0.10394
H_ H_ 0.136566 0.00589894 0.586886 0.10394
H_ H_ 0.444117 0.165713 0.906155 0.10394
H_ H_ 0.0252313 0.177829 0.967635 0.10394
H_ H_ 0.408735 0.291702 0.535493 0.10394
H_ H_ 0.346949 0.236577 0.0140668 0.10394
H_ H_ 0.239045 0.194942 0.89259 0.10394
H_ H_ 0.195784 0.250364 0.82169 0.10394
H_ H_ 0.337393 0.228748 0.753899 0.10394
H_ H_ 0.375281 0.204604 0.838175 0.10394
H_ H_ 0.285919 0.10394 0.550518 0.10394
H_ H_ 0.226097 0.113848 0.61389 0.10394
H_ H_ 0.103769 0.0868936 0.502675 0.10394
C_ C_ 0.172325 0.0916104 0.798536 0.18167
C_ C_ 0.213127 0.0733421 0.772062 -0.15533
C_ C_ 0.23022 0.0206627 0.771234 0.02923
C_ C_ 0.208186 0.484703 0.796327 -0.15533
C_ C_ 0.157942 0.00526575 0.810764 0.18167
C_ C_ 0.0410233 0.139037 0.778922 0.18167
C_ C_ 0.497816 0.183342 0.745063 -0.15533
C_ C_ 0.0155029 0.230387 0.771253 0.02923
C_ C_ 0.0347639 0.237449 0.821626 -0.15533
C_ C_ 0.0650182 0.197283 0.847153 0.18167
C_ C_ 0.0046499 0.0487827 0.870835 0.69207
C_ C_ 0.475327 0.510416 0.878059 0.02923
C_ C_ 0.498184 0.458938 0.886188 -0.15533
C_ C_ 0.467135 0.420443 0.892256 -0.15533
C_ C_ 0.415016 0.430182 0.897101 0.02923
C_ C_ 0.391493 0.482011 0.888814 -0.15533
C_ C_ 0.422186 0.522716 0.881623 0.02923
C_ C_ 0.395109 0.0744222 0.889502 0.69207
C_ C_ 0.407823 0.334069 0.896786 0.69661
C_ C_ 0.0756333 0.298943 0.598214 0.18167
C_ C_ 0.0264204 0.282526 0.579449 -0.15533
C_ C_ 0.0138774 0.275023 0.525898 0.02923
C_ C_ 0.0559097 0.281907 0.983387 -0.15533
C_ C_ 0.0972698 0.305098 0.515693 0.18167
C_ C_ 0.220106 0.268268 0.646822 0.18167
C_ C_ 0.242657 0.247692 0.692402 -0.15533
C_ C_ 0.237734 0.271825 0.738207 0.02923
C_ C_ 0.215708 0.321963 0.741541 -0.15533
C_ C_ 0.200417 0.345081 0.696338 0.18167
C_ C_ 0.243175 0.365076 0.547718 0.69207
C_ C_ 0.274237 0.379392 0.00308715 0.02923
C_ C_ 0.255643 0.375732 0.950062 -0.15533
C_ C_ 0.286565 0.38143 0.911973 -0.15533
C_ C_ 0.337426 0.393551 0.925644 0.02923
C_ C_ 0.352197 0.403158 0.977518 -0.15533
C_ C_ 0.324188 0.390753 0.0163797 0.02923
C_ C_ 0.357839 0.379969 0.568787 0.69207
C_ C_ 0.357846 0.385053 0.83008 0.69661
C_ C_ 0.311161 0.441254 0.678394 0.18167
C_ C_ 0.272666 0.460268 0.707794 -0.15533
C_ C_ 0.282194 0.49649 0.748618 0.02923
C_ C_ 0.320995 0.0173611 0.750341 -0.15533
C_ C_ 0.368462 0.493912 0.72304 0.18167
C_ C_ 0.493164 0.354573 0.694497 0.18167
C_ C_ 0.0200121 0.315362 0.736131 -0.15533
C_ C_ 0.480224 0.279986 0.738776 0.02923
C_ C_ 0.427993 0.291973 0.727335 -0.15533
C_ C_ 0.410448 0.337212 0.703134 0.18167
C_ C_ 0.483721 0.458526 0.608651 0.69207
C_ C_ 0.0120633 0.997521 0.602372 0.02923
C_ C_ -0.005623999999999962 0.0487036 0.607094 -0.15533
C_ C_ 0.0270679 0.0870731 0.603728 -0.15533
C_ C_ 0.0805802 0.0735355 0.597022 0.02923
C_ C_ 0.0980217 0.0200478 0.592172 -0.15533
C_ C_ 0.0648692 0.98168 0.596349 0.02923
C_ C_ 0.100887 0.423302 0.609521 0.69207
C_ C_ 0.104198 0.170109 0.604184 0.69661
C_ C_ 0.439059 0.186519 0.941564 0.18167
C_ C_ 0.479687 0.210338 0.965189 -0.15533
C_ C_ 0.472888 0.244691 1.00646962 0.02923
C_ C_ 0.416312 0.260239 0.504943 -0.15533
C_ C_ 0.382781 0.23447 0.997675 0.18167
C_ C_ 0.261067 0.207009 0.863485 0.18167
C_ C_ 0.237223 0.236036 0.823941 -0.15533
C_ C_ 0.264606 0.246138 0.784316 0.02923
C_ C_ 0.313716 0.22512 0.785257 -0.15533
C_ C_ 0.337139 0.196936 0.825443 0.18167
C_ C_ 0.26742 0.118881 0.956861 0.69207
C_ C_ 0.227291 0.106278 0.48722 0.02923
C_ C_ 0.246173 0.105175 0.540566 -0.15533
C_ C_ 0.212561 0.108137 0.577892 -0.15533
C_ C_ 0.160277 0.101774 0.566071 0.02923
C_ C_ 0.143628 0.0919063 0.514486 -0.15533
C_ C_ 0.176316 0.098407 0.474303 0.02923
C_ C_ 0.157273 0.0997183 0.927971 0.69207
C_ C_ 0.146297 0.102182 0.660755 0.69661
C_ C_ 0.378017 0.387932 0.887955 -0.30787
C_ C_ 0.122218 0.111961 0.605929 -0.30787
N_ N_ 0.143739 0.0563734 0.816655 -0.32189
N_ N_ 0.0658548 0.148663 0.824622 -0.32189
N_ N_ 0.109296 0.307515 0.565683 -0.32189
N_ N_ 0.195178 0.316743 0.652131 -0.32189
N_ N_ 0.358452 0.457219 0.688915 -0.32189
N_ N_ 0.442666 0.366105 0.685167 -0.32189
N_ N_ 0.391481 0.198152 0.958777 -0.32189
N_ N_ 0.309179 0.186858 0.863672 -0.32189
O_ O_ 0.502088 0.0850116 0.908544 -0.63271
O_ O_ 0.0399333 0.0424639 0.841053 -0.57982
O_ O_ 0.385419 0.103477 0.850151 -0.63271
O_ O_ 0.376776 0.0932126 0.931127 -0.57982
O_ O_ 0.247282 0.39171 0.591749 -0.63271
O_ O_ 0.208037 0.334696 0.540422 -0.57982
O_ O_ 0.354533 0.343993 0.601661 -0.63271
O_ O_ 0.380666 0.420627 0.586076 -0.57982
O_ O_ 0.982102 0.409969 0.599737 -0.63271
O_ O_ 0.452265 0.471947 0.643477 -0.57982
O_ O_ 0.0981093 0.400377 0.651052 -0.63271
O_ O_ 0.131514 0.40522 0.576428 -0.57982
O_ O_ 0.262491 0.100562 0.908986 -0.63271
O_ O_ 0.299009 0.151048 0.968688 -0.57982
O_ O_ 0.152962 0.142068 0.903922 -0.63271
O_ O_ 0.128156 0.0655206 0.910439 -0.57982
F_ F_ 0.437504 0.327464 0.943349 -0.20885
F_ F_ 0.437432 0.317714 0.857867 -0.20885
F_ F_ 0.371958 0.296852 0.897412 -0.20885
F_ F_ 0.317036 0.422334 0.821698 -0.20885
F_ F_ 0.340115 0.336523 0.816023 -0.20885
F_ F_ 0.391003 0.393569 0.797344 -0.20885
F_ F_ 0.0703457 0.182286 0.56453 -0.20885
F_ F_ 0.0785218 0.184767 0.648159 -0.20885
F_ F_ 0.143425 0.200416 0.605011 -0.20885
F_ F_ 0.17931 0.0566408 0.663039 -0.20885
F_ F_ 0.175615 0.141438 0.682294 -0.20885
F_ F_ 0.109346 0.100161 0.693886 -0.20885
Zn Zn 0.0857869 0.588086 0.345261 0.83971
Zn Zn 0.161147 0.844085 0.0839466 0.83971
Zn Zn 0.410526 0.91513 0.154359 0.83971
Zn Zn 0.338418 0.646127 0.41415 0.83971
H_ H_ 0.163899 0.635451 0.299155 0.10394
H_ H_ 0.252697 0.600943 0.27792 0.10394
H_ H_ 0.224376 0.94707 0.307896 0.10394
H_ H_ 0.133431 0.484099 0.329004 0.10394
H_ H_ 0.52388 0.593551 0.261633 0.10394
H_ H_ 0.498707 0.666562 0.199075 0.10394
H_ H_ 0.0421451 0.775522 0.334516 0.10394
H_ H_ 0.0738248 0.705106 0.379191 0.10394
H_ H_ 0.0303371 0.940409 0.357157 0.10394
H_ H_ 0.496947 0.88378 0.40351 0.10394
H_ H_ 0.355503 0.985889 0.396374 0.10394
H_ H_ 0.086017 0.804166 0.130634 0.10394
H_ H_ 0.496899 0.772214 0.0969323 0.10394
H_ H_ 0.0370436 0.790824 0.4419 0.10394
H_ H_ 0.121124 0.812171 0.977437 0.10394
H_ H_ 0.225037 0.752367 0.0987176 0.10394
H_ H_ 0.255105 0.705097 0.174965 0.10394
H_ H_ 0.221079 0.84113 0.270187 0.10394
H_ H_ 0.165323 0.878368 0.196306 0.10394
H_ H_ 0.224153 0.860823 0.434357 0.10394
H_ H_ 0.2826 0.877542 0.367534 0.10394
H_ H_ 0.400047 0.905537 0.486383 0.10394
H_ H_ 0.311082 0.887967 0.168104 0.10394
H_ H_ 0.235749 0.929841 0.205141 0.10394
H_ H_ 0.337599 0.536187 0.29495 0.10394
H_ H_ 0.398001 0.00609176 0.234485 0.10394
H_ H_ 0.0143092 0.885095 0.181654 0.10394
H_ H_ 0.0577031 0.811652 0.230322 0.10394
H_ H_ 0.424866 0.741863 0.217212 0.10394
H_ H_ 0.379954 0.823869 0.192175 0.10394
H_ H_ 0.454861 0.564828 0.119406 0.10394
H_ H_ 0.0304551 0.622057 0.118569 0.10394
H_ H_ 0.146498 0.503371 0.0781601 0.10394
H_ H_ 0.437735 0.649958 0.396002 0.10394
H_ H_ 0.0191814 0.691551 0.446848 0.10394
H_ H_ 0.410863 0.784759 0.0441495 0.10394
H_ H_ 0.343702 0.725136 0.504289 0.10394
H_ H_ 0.23663 0.686106 0.3797 0.10394
H_ H_ 0.1964 0.718117 0.298262 0.10394
H_ H_ 0.347459 0.74372 0.261834 0.10394
H_ H_ 0.377213 0.685347 0.32652 0.10394
H_ H_ 0.296898 0.605479 0.0383105 0.10394
H_ H_ 0.247782 0.599588 0.114139 0.10394
H_ H_ 0.109587 0.58774 0.0050331 0.10394
C_ C_ 0.175891 0.594578 0.298906 0.18167
C_ C_ 0.223853 0.574895 0.285522 -0.15533
C_ C_ 0.234723 0.521073 0.277623 0.02923
C_ C_ 0.205515 0.981624 0.29603 -0.15533
C_ C_ 0.156801 0.510245 0.313881 0.18167
C_ C_ 0.0360127 0.641481 0.271739 0.18167
C_ C_ 0.513669 0.672426 0.238039 -0.15533
C_ C_ 0.0136348 0.732708 0.265357 0.02923
C_ C_ 0.0420996 0.739899 0.313726 -0.15533
C_ C_ 0.0631948 0.69741 0.340184 0.18167
C_ C_ 0.00827166 0.546896 0.370633 0.69207
C_ C_ 0.476429 0.0110099 0.381545 0.02923
C_ C_ 0.501972 0.962433 0.39021 -0.15533
C_ C_ 0.474093 0.922532 0.401005 -0.15533
C_ C_ 0.420115 0.928165 0.395662 0.02923
C_ C_ 0.397145 0.978819 0.394507 -0.15533
C_ C_ 0.425526 0.019872 0.392172 0.02923
C_ C_ 0.391268 0.56324 0.386835 0.69207
C_ C_ 0.417125 0.828611 0.382921 0.69661
C_ C_ 0.0770433 0.794765 0.0899945 0.18167
C_ C_ 0.032688 0.775722 0.073863 -0.15533
C_ C_ 0.0185464 0.766739 0.0210169 0.02923
C_ C_ 0.0504163 0.787383 0.481934 -0.15533
C_ C_ 0.097715 0.797834 0.00534352 0.18167
C_ C_ 0.221583 0.772319 0.137194 0.18167
C_ C_ 0.246799 0.74684 0.181352 -0.15533
C_ C_ 0.244438 0.771152 0.229982 0.02923
C_ C_ 0.221425 0.821884 0.23322 -0.15533
C_ C_ 0.19155 0.84244 0.190641 0.18167
C_ C_ 0.238602 0.87484 0.0478384 0.69207
C_ C_ 0.282675 0.869158 0.495998 0.02923
C_ C_ 0.265056 0.867886 0.444305 -0.15533
C_ C_ 0.299032 0.874556 0.406916 -0.15533
C_ C_ 0.348841 0.887174 0.4227 0.02923
C_ C_ 0.364183 0.892678 0.473929 -0.15533
C_ C_ 0.332348 0.880243 0.509916 0.02923
C_ C_ 0.352087 0.883959 0.0712299 0.69207
C_ C_ 0.363845 0.891445 0.327361 0.69661
C_ C_ 0.313941 0.925064 0.189682 0.18167
C_ C_ 0.27167 0.94769 0.210751 -0.15533
C_ C_ 0.27698 0.99333 0.244243 0.02923
C_ C_ 0.329041 0.511497 0.262797 -0.15533
C_ C_ 0.365108 0.984395 0.233992 0.18167
C_ C_ 0.498718 0.857386 0.20748 0.18167
C_ C_ 0.0187671 0.812594 0.219443 -0.15533
C_ C_ 0.499386 0.76772 0.225629 0.02923
C_ C_ 0.447263 0.77185 0.208977 -0.15533
C_ C_ 0.42226 0.81793 0.193601 0.18167
C_ C_ 0.484356 0.950975 0.124069 0.69207
C_ C_ 0.0322821 0.494718 0.116889 0.02923
C_ C_ 0.0126583 0.54587 0.116577 -0.15533
C_ C_ 0.0473703 0.582867 0.115148 -0.15533
C_ C_ 0.0943726 0.568451 0.0969389 0.02923
C_ C_ 0.108052 0.515613 0.0835065 -0.15533
C_ C_ 0.0775088 0.479735 0.0967092 0.02923
C_ C_ 0.0939501 0.924053 0.103808 0.69207
C_ C_ 0.119853 0.662309 0.106102 0.69661
C_ C_ 0.432821 0.677717 0.42905 0.18167
C_ C_ 0.47525 0.695385 0.456303 -0.15533
C_ C_ 0.472126 0.729045 0.499118 0.02923
C_ C_ 0.421084 0.751894 0.0171251 -0.15533
C_ C_ 0.38252 0.716414 0.492405 0.18167
C_ C_ 0.256382 0.694522 0.349993 0.18167
C_ C_ 0.234923 0.722978 0.308312 -0.15533
C_ C_ 0.266108 0.743299 0.276769 0.02923
C_ C_ 0.318821 0.728959 0.28417 -0.15533
C_ C_ 0.336842 0.697199 0.323759 0.18167
C_ C_ 0.264042 0.618792 0.455638 0.69207
C_ C_ 0.228797 0.615256 0.984816 0.02923
C_ C_ 0.253918 0.603851 0.0324947 -0.15533
C_ C_ 0.226004 0.599995 0.0745107 -0.15533
C_ C_ 0.173378 0.592298 0.0661334 0.02923
C_ C_ 0.150871 0.590234 0.014753 -0.15533
C_ C_ 0.175618 0.604655 0.973368 0.02923
C_ C_ 0.150488 0.61692 0.428952 0.69207
C_ C_ 0.160071 0.597438 0.163674 0.69661
C_ C_ 0.389217 0.883307 0.383584 -0.30787
C_ C_ 0.136247 0.604364 0.108325 -0.30787
N_ N_ 0.140929 0.562177 0.308284 -0.32189
N_ N_ 0.0593564 0.648822 0.319327 -0.32189
N_ N_ 0.108645 0.806927 0.0564233 -0.32189
N_ N_ 0.199222 0.820456 0.143225 -0.32189
N_ N_ 0.360661 0.942939 0.20112 -0.32189
N_ N_ 0.449426 0.857387 0.18584 -0.32189
N_ N_ 0.386951 0.686928 0.447606 -0.32189
N_ N_ 0.305487 0.679591 0.354592 -0.32189
O_ O_ 0.503694 0.581189 0.407859 -0.63271
O_ O_ 0.0389013 0.54125 0.33497 -0.57982
O_ O_ 0.39245 0.592655 0.349307 -0.63271
O_ O_ 0.369203 0.583163 0.427034 -0.57982
O_ O_ 0.242323 0.901118 0.0897825 -0.63271
O_ O_ 0.20574 0.839577 0.0382492 -0.57982
O_ O_ 0.353713 0.842884 0.098137 -0.63271
O_ O_ 0.375482 0.922025 0.0926225 -0.57982
O_ O_ 0.981234 0.908833 0.0967368 -0.63271
O_ O_ 0.44992 0.962263 0.155068 -0.57982
O_ O_ 0.0872423 0.903047 0.145961 -0.63271
O_ O_ 0.129484 0.903421 0.074375 -0.57982
O_ O_ 0.264775 0.590686 0.412816 -0.63271
O_ O_ 0.302986 0.64539 0.466778 -0.57982
O_ O_ 0.159436 0.656225 0.403134 -0.63271
O_ O_ 0.116337 0.585722 0.40854 -0.57982
F_ F_ 0.444101 0.820443 0.429989 -0.20885
F_ F_ 0.449913 0.820874 0.345685 -0.20885
F_ F_ 0.381947 0.791143 0.375212 -0.20885
F_ F_ 0.327798 0.932905 0.318472 -0.20885
F_ F_ 0.341461 0.851194 0.301658 -0.20885
F_ F_ 0.402603 0.894482 0.298972 -0.20885
F_ F_ 0.0866178 0.673969 0.0620339 -0.20885
F_ F_ 0.0935744 0.682841 0.14847 -0.20885
F_ F_ 0.161013 0.690436 0.102624 -0.20885
F_ F_ 0.193374 0.553605 0.16635 -0.20885
F_ F_ 0.191111 0.633374 0.180385 -0.20885
F_ F_ 0.124084 0.592121 0.194686 -0.20885
Zn Zn 0.0856531 0.579077 0.840866 0.83971
Zn Zn 0.163228 0.853225 0.577034 0.83971
Zn Zn 0.405339 0.92423 0.649871 0.83971
Zn Zn 0.339209 0.661455 0.910173 0.83971
H_ H_ 0.164067 0.628472 0.796489 0.10394
H_ H_ 0.247522 0.596738 0.769359 0.10394
H_ H_ 0.208626 0.946505 0.779928 0.10394
H_ H_ 0.134 0.476986 0.818681 0.10394
H_ H_ 0.518357 0.605951 0.748441 0.10394
H_ H_ 0.483273 0.676249 0.69963 0.10394
H_ H_ 0.0293815 0.76514 0.818221 0.10394
H_ H_ 0.0713809 0.693192 0.868305 0.10394
H_ H_ 0.0307288 0.944594 0.870757 0.10394
H_ H_ 0.471411 0.87917 0.875759 0.10394
H_ H_ 0.346794 0.992522 0.902816 0.10394
H_ H_ 0.083066 0.806468 0.625994 0.10394
H_ H_ 0.497767 0.764812 0.601213 0.10394
H_ H_ 0.0432099 0.771688 0.943127 0.10394
H_ H_ 0.107238 0.837054 0.477821 0.10394
H_ H_ 0.228839 0.762248 0.586957 0.10394
H_ H_ 0.262939 0.71374 0.66619 0.10394
H_ H_ 0.208849 0.83674 0.76077 0.10394
H_ H_ 0.179501 0.885047 0.682378 0.10394
H_ H_ 0.210334 0.884794 0.950289 0.10394
H_ H_ 0.263982 0.883534 0.880072 0.10394
H_ H_ 0.392915 0.907553 0.989565 0.10394
H_ H_ 0.301786 0.901969 0.65744 0.10394
H_ H_ 0.225654 0.960133 0.683698 0.10394
H_ H_ 0.335665 0.545888 0.782704 0.10394
H_ H_ 0.398433 0.006480000000000041 0.729198 0.10394
H_ H_ 0.00288919 0.8777 0.690207 0.10394
H_ H_ 0.0411349 0.802609 0.73623 0.10394
H_ H_ 0.405305 0.744517 0.701787 0.10394
H_ H_ 0.361631 0.825732 0.671127 0.10394
H_ H_ 0.470845 0.556251 0.585838 0.10394
H_ H_ 0.0128314 0.614803 0.601599 0.10394
H_ H_ 0.14293 0.503891 0.592856 0.10394
H_ H_ 0.444623 0.660011 0.897446 0.10394
H_ H_ 0.0198908 0.673975 0.96347 0.10394
H_ H_ 0.417423 0.76562 0.54731 0.10394
H_ H_ 0.34278 0.731168 0.0007600000000000939 0.10394
H_ H_ 0.238765 0.724085 0.884182 0.10394
H_ H_ 0.194939 0.757702 0.803059 0.10394
H_ H_ 0.334974 0.736284 0.741369 0.10394
H_ H_ 0.377061 0.696475 0.82037 0.10394
H_ H_ 0.286922 0.613966 0.557653 0.10394
H_ H_ 0.234158 0.60052 0.620974 0.10394
H_ H_ 0.110099 0.57852 0.505521 0.10394
C_ C_ 0.178936 0.588437 0.800353 0.18167
C_ C_ 0.221827 0.569017 0.774485 -0.15533
C_ C_ 0.238786 0.516574 0.77597 0.02923
C_ C_ 0.203711 0.9862 0.789957 -0.15533
C_ C_ 0.160638 0.503499 0.808787 0.18167
C_ C_ 0.017427 0.628066 0.767179 0.18167
C_ C_ 0.504573 0.685144 0.736401 -0.15533
C_ C_ -0.005406000000000022 0.719638 0.757272 0.02923
C_ C_ 0.020128 0.726819 0.805317 -0.15533
C_ C_ 0.0457019 0.685781 0.833341 0.18167
C_ C_ 0.0112016 0.54315 0.867888 0.69207
C_ C_ 0.466199 0.00757506 0.875506 0.02923
C_ C_ 0.485671 0.955673 0.869298 -0.15533
C_ C_ 0.452694 0.917925 0.874976 -0.15533
C_ C_ 0.40483 0.930205 0.892715 0.02923
C_ C_ 0.385359 0.982427 0.893786 -0.15533
C_ C_ 0.415468 0.021602 0.886746 0.02923
C_ C_ 0.397393 0.574886 0.877432 0.69207
C_ C_ 0.393178 0.832678 0.888461 0.69661
C_ C_ 0.0733134 0.799744 0.585387 0.18167
C_ C_ 0.0325478 0.77193 0.567478 -0.15533
C_ C_ 0.0175602 0.769766 0.515055 0.02923
C_ C_ 0.0527161 0.775803 0.986748 -0.15533
C_ C_ 0.09612 0.808695 0.501482 0.18167
C_ C_ 0.228623 0.779851 0.626061 0.18167
C_ C_ 0.247146 0.753837 0.669504 -0.15533
C_ C_ 0.241533 0.773362 0.718657 0.02923
C_ C_ 0.215093 0.820522 0.723622 -0.15533
C_ C_ 0.19316 0.846794 0.679456 0.18167
C_ C_ 0.245549 0.864477 0.534356 0.69207
C_ C_ 0.271725 0.882947 0.00757443 0.02923
C_ C_ 0.250012 0.891008 0.957384 -0.15533
C_ C_ 0.280847 0.892633 0.91727 -0.15533
C_ C_ 0.334229 0.894526 0.929258 0.02923
C_ C_ 0.354557 0.900551 0.980739 -0.15533
C_ C_ 0.324982 0.888826 0.0191024 0.02923
C_ C_ 0.355997 0.877859 0.563598 0.69207
C_ C_ 0.344198 0.892637 0.827131 0.69661
C_ C_ 0.305419 0.941208 0.674115 0.18167
C_ C_ 0.263709 0.968793 0.695125 -0.15533
C_ C_ 0.27163 1.00048 0.739115 0.02923
C_ C_ 0.329055 0.516893 0.753582 -0.15533
C_ C_ 0.360515 0.996389 0.719621 0.18167
C_ C_ 0.476278 0.865212 0.704925 0.18167
C_ C_ 0.00303729 0.802583 0.72044 -0.15533
C_ C_ 0.475469 0.777678 0.734088 0.02923
C_ C_ 0.425879 0.778785 0.707288 -0.15533
C_ C_ 0.4028 0.823606 0.684641 0.18167
C_ C_ 0.480148 0.958021 0.61738 0.69207
C_ C_ 0.0243301 0.487334 0.616446 0.02923
C_ C_ 1.00385382 0.53761 0.614848 -0.15533
C_ C_ 0.0350935 0.576706 0.607076 -0.15533
C_ C_ 0.085406 0.564586 0.594269 0.02923
C_ C_ 0.102952 0.512905 0.588661 -0.15533
C_ C_ 0.0743784 0.474816 0.603626 0.02923
C_ C_ 0.0875573 0.929117 0.599363 0.69207
C_ C_ 0.101608 0.661065 0.604055 0.69661
C_ C_ 0.439301 0.683586 0.932697 0.18167
C_ C_ 0.480224 0.701988 0.961664 -0.15533
C_ C_ 0.469653 0.744318 -0.0024849999999999595 0.02923
C_ C_ 0.424395 0.736399 0.518081 -0.15533
C_ C_ 0.38095 0.72698 0.988688 0.18167
C_ C_ 0.258169 0.718576 0.849901 0.18167
C_ C_ 0.234639 0.73925 0.804607 -0.15533
C_ C_ 0.264317 0.743394 0.764811 0.02923
C_ C_ 0.313829 0.726176 0.769353 -0.15533
C_ C_ 0.335317 0.703663 0.813805 0.18167
C_ C_ 0.259673 0.629701 0.9439 0.69207
C_ C_ 0.230253 0.607674 0.493307 0.02923
C_ C_ 0.25159 0.602615 0.545607 -0.15533
C_ C_ 0.217404 0.601529 0.581727 -0.15533
C_ C_ 0.165265 0.595374 0.567967 0.02923
C_ C_ 0.148442 0.589466 0.516657 -0.15533
C_ C_ 0.177983 0.604964 0.479863 0.02923
C_ C_ 0.148856 0.606852 0.921552 0.69207
C_ C_ 0.146593 0.599279 0.664244 0.69661
C_ C_ 0.368445 0.887224 0.884726 -0.30787
C_ C_ 0.126236 0.604522 0.606636 -0.30787
N_ N_ 0.146065 0.55533 0.811973 -0.32189
N_ N_ 0.0479044 0.638511 0.810091 -0.32189
N_ N_ 0.107059 0.812064 0.553208 -0.32189
N_ N_ 0.198616 0.824449 0.633123 -0.32189
N_ N_ 0.351453 0.960195 0.683702 -0.32189
N_ N_ 0.428787 0.863988 0.681058 -0.32189
N_ N_ 0.391941 0.694988 0.946993 -0.32189
N_ N_ 0.306541 0.695978 0.85292 -0.32189
O_ O_ 0.510771 0.587285 0.901777 -0.63271
O_ O_ 0.0389248 0.532157 0.832072 -0.57982
O_ O_ 0.405825 0.602254 0.84087 -0.63271
O_ O_ 0.366875 0.595754 0.911582 -0.57982
O_ O_ 0.249681 0.892069 0.576636 -0.63271
O_ O_ 0.204429 0.844456 0.524813 -0.57982
O_ O_ 0.358303 0.836131 0.58574 -0.63271
O_ O_ 0.377438 0.916354 0.585463 -0.57982
O_ O_ 0.977913 0.915219 0.574906 -0.63271
O_ O_ 0.452931 0.966592 0.655428 -0.57982
O_ O_ 0.089968 0.908538 0.645099 -0.63271
O_ O_ 0.123865 0.913814 0.570496 -0.57982
O_ O_ 0.256524 0.608129 0.897217 -0.63271
O_ O_ 0.290564 0.665121 0.955711 -0.57982
O_ O_ 0.150784 0.646654 0.89282 -0.63271
O_ O_ 0.113146 0.575835 0.906981 -0.57982
F_ F_ 0.423716 0.824496 0.933446 -0.20885
F_ F_ 0.421342 0.814874 0.846125 -0.20885
F_ F_ 0.354329 0.799936 0.888348 -0.20885
F_ F_ 0.30877 0.9357 0.824733 -0.20885
F_ F_ 0.314931 0.852958 0.81041 -0.20885
F_ F_ 0.377912 0.901625 0.79588 -0.20885
F_ F_ 0.0717961 0.666326 0.55864 -0.20885
F_ F_ 0.0732816 0.679419 0.644164 -0.20885
F_ F_ 0.140704 0.693075 0.606477 -0.20885
F_ F_ 0.177525 0.554318 0.669568 -0.20885
F_ F_ 0.178416 0.636075 0.683062 -0.20885
F_ F_ 0.111473 0.598437 0.70004 -0.20885
Zn Zn 0.594694 0.092024 0.345618 0.83971
Zn Zn 0.658557 0.355053 0.0939469 0.83971
Zn Zn 0.914138 0.423881 0.163036 0.83971
Zn Zn 0.84315 0.147946 0.425208 0.83971
H_ H_ 0.676814 0.135806 0.30598 0.10394
H_ H_ 0.755396 0.0996686 0.270321 0.10394
H_ H_ 0.707011 0.44678 0.286178 0.10394
H_ H_ 0.641822 0.98964 0.334342 0.10394
H_ H_ 0.0250525 0.0957929 0.245132 0.10394
H_ H_ 0.987597 0.174743 0.199149 0.10394
H_ H_ 0.526066 0.271053 0.331274 0.10394
H_ H_ 0.57255 0.196797 0.371498 0.10394
H_ H_ 0.529917 0.438454 0.365068 0.10394
H_ H_ 0.974807 0.375811 0.36702 0.10394
H_ H_ 0.857057 0.494248 0.415234 0.10394
H_ H_ 0.578394 0.31169 0.138767 0.10394
H_ H_ 1.00098 0.278458 0.0925176 0.10394
H_ H_ 0.538791 0.284717 0.437159 0.10394
H_ H_ 0.607383 0.342739 0.990037 0.10394
H_ H_ 0.705279 0.251961 0.109994 0.10394
H_ H_ 0.747574 0.202475 0.183928 0.10394
H_ H_ 0.720814 0.334888 0.284877 0.10394
H_ H_ 0.682218 0.384118 0.206047 0.10394
H_ H_ 0.712192 0.373227 0.452664 0.10394
H_ H_ 0.763801 0.388727 0.389164 0.10394
H_ H_ 0.89667 0.383711 0.498203 0.10394
H_ H_ 0.816427 0.403029 0.169394 0.10394
H_ H_ 0.737641 0.450779 0.202867 0.10394
H_ H_ 0.836478 0.0521802 0.269573 0.10394
H_ H_ 0.908523 0.502722 0.250284 0.10394
H_ H_ 0.512684 0.388534 0.202302 0.10394
H_ H_ 0.548761 0.310196 0.243287 0.10394
H_ H_ 0.919801 0.251029 0.222225 0.10394
H_ H_ 0.885492 0.325817 0.187572 0.10394
H_ H_ 0.961626 0.0540697 0.108947 0.10394
H_ H_ 0.517665 0.120623 0.117285 0.10394
H_ H_ 0.636402 0.0057093 0.0782245 0.10394
H_ H_ 0.946764 0.146025 0.421217 0.10394
H_ H_ 0.51266 0.199748 0.441063 0.10394
H_ H_ 0.917196 0.292027 0.021649 0.10394
H_ H_ 0.844996 0.243413 0.499157 0.10394
H_ H_ 0.747233 0.193224 0.399022 0.10394
H_ H_ 0.698675 0.236872 0.324671 0.10394
H_ H_ 0.83873 0.225528 0.252334 0.10394
H_ H_ 0.881138 0.189297 0.328188 0.10394
H_ H_ 0.78181 0.135789 0.0515132 0.10394
H_ H_ 0.736592 0.118453 0.121517 0.10394
H_ H_ 0.599117 0.103065 0.0115235 0.10394
C_ C_ 0.688632 0.0952549 0.307794 0.18167
C_ C_ 0.732824 0.0728593 0.285674 -0.15533
C_ C_ 0.742165 0.0206672 0.275355 0.02923
C_ C_ 0.700517 0.487643 0.293844 -0.15533
C_ C_ 0.66457 0.0121443 0.314444 0.18167
C_ C_ 0.522287 0.13512 0.267644 0.18167
C_ C_ 0.0127202 0.176413 0.237107 -0.15533
C_ C_ 0.502437 0.226658 0.262006 0.02923
C_ C_ 0.531857 0.232492 0.30907 -0.15533
C_ C_ 0.553891 0.190722 0.334094 0.18167
C_ C_ 0.506862 0.0539712 0.370215 0.69207
C_ C_ 0.975231 0.504516 0.376212 0.02923
C_ C_ 0.987546 0.453461 0.364591 -0.15533
C_ C_ 0.959186 0.413968 0.375112 -0.15533
C_ C_ 0.909558 0.426077 0.391946 0.02923
C_ C_ 0.895906 0.479045 0.405046 -0.15533
C_ C_ 0.926441 0.517921 0.394478 0.02923
C_ C_ 0.889352 0.0625186 0.382397 0.69207
C_ C_ 0.896491 0.330427 0.389286 0.69661
C_ C_ 0.572279 0.304997 0.0975496 0.18167
C_ C_ 0.531124 0.27707 0.0778881 -0.15533
C_ C_ 0.516254 0.275356 0.0255308 0.02923
C_ C_ 0.54378 0.294851 0.478751 -0.15533
C_ C_ 0.584514 0.325095 0.0125764 0.18167
C_ C_ 0.706073 0.269743 0.148981 0.18167
C_ C_ 0.733093 0.243883 0.190925 -0.15533
C_ C_ 0.736061 0.267199 0.240276 0.02923
C_ C_ 0.714979 0.318132 0.244987 -0.15533
C_ C_ 0.692979 0.344086 0.202045 0.18167
C_ C_ 0.739571 0.373831 0.0564999 0.69207
C_ C_ 0.771735 0.374825 0.515647 0.02923
C_ C_ 0.751481 0.377544 0.465246 -0.15533
C_ C_ 0.782721 0.385031 0.427469 -0.15533
C_ C_ 0.835125 0.388211 0.437381 0.02923
C_ C_ 0.855424 0.384455 0.490281 -0.15533
C_ C_ 0.823072 0.383858 0.528694 0.02923
C_ C_ 0.848518 0.391324 0.0804064 0.69207
C_ C_ 0.84107 0.38955 0.336715 0.69661
C_ C_ 0.818849 0.432156 0.199355 0.18167
C_ C_ 0.775883 0.457541 0.219209 -0.15533
C_ C_ 0.779213 0.502265 0.252707 0.02923
C_ C_ 0.828965 0.0195113 0.242976 -0.15533
C_ C_ 0.86924 0.492187 0.240388 0.18167
C_ C_ 1.00337 0.35733 0.205149 0.18167
C_ C_ 0.512714 0.310231 0.222848 -0.15533
C_ C_ 0.995822 0.273224 0.23526 0.02923
C_ C_ 0.945936 0.279788 0.224457 -0.15533
C_ C_ 0.924075 0.323144 0.200644 0.18167
C_ C_ 0.995449 0.459882 0.125595 0.69207
C_ C_ 0.520869 0.990331 0.116623 0.02923
C_ C_ 0.502374 0.0432241 0.120531 -0.15533
C_ C_ 0.533608 0.0803757 0.115484 -0.15533
C_ C_ 0.585229 0.0681991 0.10313 0.02923
C_ C_ 0.597673 0.0165536 0.08656 -0.15533
C_ C_ 0.571112 0.977778 0.103789 0.02923
C_ C_ 0.591671 0.435052 0.114491 0.69207
C_ C_ 0.60387 0.164018 0.118614 0.69661
C_ C_ 0.941031 0.179157 0.44375 0.18167
C_ C_ 0.980278 0.206913 0.465989 -0.15533
C_ C_ 0.971173 0.245739 0.504479 0.02923
C_ C_ 0.927297 0.25627 0.0049698 -0.15533
C_ C_ 0.88326 0.22964 0.493469 0.18167
C_ C_ 0.764786 0.199326 0.364846 0.18167
C_ C_ 0.737659 0.226293 0.325325 -0.15533
C_ C_ 0.764233 0.235715 0.283791 0.02923
C_ C_ 0.815288 0.215699 0.282715 -0.15533
C_ C_ 0.840255 0.193275 0.325908 0.18167
C_ C_ 0.770259 0.115625 0.468893 0.69207
C_ C_ 0.72239 0.125167 0.992342 0.02923
C_ C_ 0.742535 0.130067 0.0430032 -0.15533
C_ C_ 0.716356 0.116389 0.0825441 -0.15533
C_ C_ 0.66344 0.105413 0.0733558 0.02923
C_ C_ 0.641136 0.103414 0.0218618 -0.15533
C_ C_ 0.671588 0.111204 0.980698 0.02923
C_ C_ 0.657295 0.112763 0.429762 0.69207
C_ C_ 0.654298 0.0925941 0.170414 0.69661
C_ C_ 0.869803 0.385285 0.391475 -0.30787
C_ C_ 0.626365 0.106387 0.116883 -0.30787
N_ N_ 0.651984 0.0644492 0.31566 -0.32189
N_ N_ 0.554674 0.144181 0.309801 -0.32189
N_ N_ 0.601883 0.321291 0.0631086 -0.32189
N_ N_ 0.691166 0.31992 0.15543 -0.32189
N_ N_ 0.864446 0.451109 0.20742 -0.32189
N_ N_ 0.949757 0.364991 0.198199 -0.32189
N_ N_ 0.893713 0.190517 0.459942 -0.32189
N_ N_ 0.814896 0.185541 0.36565 -0.32189
O_ O_ 0.00437853 0.078311 0.397824 -0.63271
O_ O_ 0.547318 0.0450036 0.345651 -0.57982
O_ O_ 0.894686 0.0933999 0.346145 -0.63271
O_ O_ 0.870201 0.0825579 0.424306 -0.57982
O_ O_ 0.746158 0.397847 0.099201 -0.63271
O_ O_ 0.696303 0.353826 0.04352 -0.57982
O_ O_ 0.8643 0.346191 0.0994272 -0.63271
O_ O_ 0.873179 0.4305 0.099817 -0.57982
O_ O_ 0.482296 0.416455 0.0917943 -0.63271
O_ O_ 0.96365 0.469436 0.162462 -0.57982
O_ O_ 0.585665 0.410748 0.156774 -0.63271
O_ O_ 0.630742 0.419466 0.0889105 -0.57982
O_ O_ 0.76524 0.0917352 0.425573 -0.63271
O_ O_ 0.801725 0.15221 0.473852 -0.57982
O_ O_ 0.666532 0.155516 0.410587 -0.63271
O_ O_ 0.618232 0.0892776 0.41137 -0.57982
F_ F_ 0.939172 0.325346 0.423128 -0.20885
F_ F_ 0.914064 0.312091 0.344178 -0.20885
F_ F_ 0.866068 0.294311 0.401509 -0.20885
F_ F_ 0.809376 0.435348 0.333145 -0.20885
F_ F_ 0.810848 0.352799 0.3173 -0.20885
F_ F_ 0.875262 0.394558 0.299226 -0.20885
F_ F_ 0.568552 0.173214 0.0770801 -0.20885
F_ F_ 0.582353 0.182248 0.162825 -0.20885
F_ F_ 0.638699 0.197574 0.116344 -0.20885
F_ F_ 0.684489 0.048286 0.161192 -0.20885
F_ F_ 0.683616 0.129769 0.199188 -0.20885
F_ F_ 0.618597 0.0829499 0.203674 -0.20885
Zn Zn 0.582902 0.0863944 0.849093 0.83971
Zn Zn 0.654787 0.340991 0.583155 0.83971
Zn Zn 0.909771 0.415339 0.66091 0.83971
Zn Zn 0.8432 0.156131 0.918875 0.83971
H_ H_ 0.655753 0.133421 0.799598 0.10394
H_ H_ 0.733993 0.105163 0.7631 0.10394
H_ H_ 0.705656 0.450064 0.788126 0.10394
H_ H_ 0.633782 0.983202 0.832234 0.10394
H_ H_ 0.0366881 0.0985595 0.77041 0.10394
H_ H_ 0.998479 0.171633 0.71076 0.10394
H_ H_ 0.53691 0.275161 0.828013 0.10394
H_ H_ 0.567226 0.199681 0.877724 0.10394
H_ H_ 0.536572 0.448793 0.879565 0.10394
H_ H_ 0.972457 0.3788 0.867384 0.10394
H_ H_ 0.853209 0.48924 0.898685 0.10394
H_ H_ 0.568104 0.302974 0.624523 0.10394
H_ H_ -0.006406000000000023 0.28392 0.603395 0.10394
H_ H_ 0.533898 0.298657 0.952764 0.10394
H_ H_ 0.612522 0.330236 0.483312 0.10394
H_ H_ 0.711223 0.240978 0.597157 0.10394
H_ H_ 0.753955 0.197416 0.674296 0.10394
H_ H_ 0.727435 0.34099 0.760166 0.10394
H_ H_ 0.677822 0.375697 0.687234 0.10394
H_ H_ 0.711214 0.39608 0.958607 0.10394
H_ H_ 0.756316 0.400596 0.892139 0.10394
H_ H_ 0.892489 0.405856 0.993501 0.10394
H_ H_ 0.807261 0.393557 0.668384 0.10394
H_ H_ 0.73081 0.448552 0.701649 0.10394
H_ H_ 0.821363 0.048572 0.770695 0.10394
H_ H_ 0.906884 0.491815 0.744611 0.10394
H_ H_ 0.52176 0.37676 0.682569 0.10394
H_ H_ 0.553149 0.307065 0.730946 0.10394
H_ H_ 0.916592 0.249771 0.728408 0.10394
H_ H_ 0.878944 0.326096 0.688858 0.10394
H_ H_ 0.955653 0.0599527 0.61156 0.10394
H_ H_ 0.510521 0.123874 0.600091 0.10394
H_ H_ 0.638245 0.00534829 0.589645 0.10394
H_ H_ 0.953428 0.14974 0.907456 0.10394
H_ H_ 0.515126 0.207579 0.948427 0.10394
H_ H_ 0.913225 0.29226 0.539725 0.10394
H_ H_ 0.849412 0.251956 -0.016441999999999957 0.10394
H_ H_ 0.740335 0.205466 0.885041 0.10394
H_ H_ 0.699349 0.238945 0.799517 0.10394
H_ H_ 0.846213 0.226829 0.744715 0.10394
H_ H_ 0.888612 0.192517 0.827749 0.10394
H_ H_ 0.786795 0.11985 0.571462 0.10394
H_ H_ 0.727079 0.107062 0.630825 0.10394
H_ H_ 0.609352 0.0881871 0.509813 0.10394
C_ C_ 0.665796 0.0920518 0.796509 0.18167
C_ C_ 0.712 0.0767677 0.776924 -0.15533
C_ C_ 0.728602 0.0230265 0.773436 0.02923
C_ C_ 0.698449 0.489586 0.789015 -0.15533
C_ C_ 0.656474 0.00832942 0.817594 0.18167
C_ C_ 0.516034 0.139805 0.772458 0.18167
C_ C_ 0.0168922 0.179565 0.748532 -0.15533
C_ C_ 0.50138 0.233211 0.767427 0.02923
C_ C_ 0.52688 0.237358 0.815258 -0.15533
C_ C_ 0.545578 0.194065 0.841112 0.18167
C_ C_ 0.501734 0.0450673 0.876893 0.69207
C_ C_ 0.973635 0.507138 0.874602 0.02923
C_ C_ 0.99039 0.454093 0.870111 -0.15533
C_ C_ 0.958884 0.417168 0.876475 -0.15533
C_ C_ 0.90975 0.429369 0.894418 0.02923
C_ C_ 0.893127 0.482013 0.899195 -0.15533
C_ C_ 0.924904 0.52078 0.892806 0.02923
C_ C_ 0.891312 0.0667423 0.881728 0.69207
C_ C_ 0.89858 0.334048 0.895078 0.69661
C_ C_ 0.564926 0.294335 0.5846 0.18167
C_ C_ 0.518829 0.282491 0.561918 -0.15533
C_ C_ 0.506492 0.283123 0.508763 0.02923
C_ C_ 0.544556 0.296379 0.993185 -0.15533
C_ C_ 0.587606 0.310969 0.505134 0.18167
C_ C_ 0.718641 0.262243 0.633653 0.18167
C_ C_ 0.741376 0.237435 0.677803 -0.15533
C_ C_ 0.749236 0.267249 0.723935 0.02923
C_ C_ 0.72527 0.317873 0.725335 -0.15533
C_ C_ 0.698923 0.338457 0.683998 0.18167
C_ C_ 0.737075 0.363279 0.553615 0.69207
C_ C_ 0.772034 0.382024 1.0165158 0.02923
C_ C_ 0.75117 0.386499 0.964975 -0.15533
C_ C_ 0.779401 0.390549 0.924958 -0.15533
C_ C_ 0.831284 0.399071 0.934912 0.02923
C_ C_ 0.851875 0.40502 0.987381 -0.15533
C_ C_ 0.822118 0.396187 0.0277344 0.02923
C_ C_ 0.846634 0.381477 0.580682 0.69207
C_ C_ 0.845163 0.389377 0.838523 0.69661
C_ C_ 0.811348 0.428648 0.689105 0.18167
C_ C_ 0.771254 0.452268 0.7165 -0.15533
C_ C_ 0.779322 0.493286 0.752005 0.02923
C_ C_ 0.816247 0.0171585 0.743746 -0.15533
C_ C_ 0.867891 0.483751 0.734336 0.18167
C_ C_ 0.99707 0.35753 0.710232 0.18167
C_ C_ 0.513972 0.313594 0.723456 -0.15533
C_ C_ 0.991833 0.274937 0.741207 0.02923
C_ C_ 0.941425 0.27855 0.721795 -0.15533
C_ C_ 0.91871 0.322576 0.701918 0.18167
C_ C_ 0.990316 0.449675 0.63003 0.69207
C_ C_ 0.514654 0.995157 0.605705 0.02923
C_ C_ 0.495062 0.0463089 0.602958 -0.15533
C_ C_ 0.528366 0.0841276 0.601959 -0.15533
C_ C_ 0.580427 0.07081 0.597833 0.02923
C_ C_ 0.59845 0.0178817 0.596316 -0.15533
C_ C_ 0.565953 0.979902 0.599751 0.02923
C_ C_ 0.594192 0.419877 0.602548 0.69207
C_ C_ 0.597045 0.16641 0.605108 0.69661
C_ C_ 0.946975 0.175917 0.937453 0.18167
C_ C_ 0.988698 0.192489 0.969479 -0.15533
C_ C_ 0.977314 0.238478 -0.001422999999999952 0.02923
C_ C_ 0.922436 0.257509 0.51763 -0.15533
C_ C_ 0.887162 0.229938 0.984125 0.18167
C_ C_ 0.76519 0.208866 0.853375 0.18167
C_ C_ 0.741164 0.232209 0.808005 -0.15533
C_ C_ 0.770157 0.241937 0.771482 0.02923
C_ C_ 0.825124 0.227838 0.778912 -0.15533
C_ C_ 0.846658 0.202873 0.822284 0.18167
C_ C_ 0.757853 0.132231 0.953052 0.69207
C_ C_ 0.730377 0.118307 0.504067 0.02923
C_ C_ 0.745705 0.122278 0.558282 -0.15533
C_ C_ 0.711251 0.112463 0.591866 -0.15533
C_ C_ 0.660469 0.103028 0.575812 0.02923
C_ C_ 0.646838 0.0970591 0.522457 -0.15533
C_ C_ 0.678394 0.107596 0.48573 0.02923
C_ C_ 0.649023 0.110876 0.928057 0.69207
C_ C_ 0.638966 0.10449 0.668711 0.69661
C_ C_ 0.870494 0.387996 0.893566 -0.30787
C_ C_ 0.617969 0.109798 0.612332 -0.30787
N_ N_ 0.636581 0.0577783 0.812606 -0.32189
N_ N_ 0.544448 0.145108 0.818727 -0.32189
N_ N_ 0.597838 0.309113 0.554876 -0.32189
N_ N_ 0.693539 0.310158 0.639011 -0.32189
N_ N_ 0.857986 0.445031 0.699265 -0.32189
N_ N_ 0.946499 0.35989 0.694618 -0.32189
N_ N_ 0.897526 0.189706 0.949602 -0.32189
N_ N_ 0.81666 0.193586 0.859388 -0.32189
O_ O_ 0.0131016 0.0792738 0.911291 -0.63271
O_ O_ 0.533153 0.0405251 0.840096 -0.57982
O_ O_ 0.894934 0.093134 0.843297 -0.63271
O_ O_ 0.868512 0.0902044 0.919171 -0.57982
O_ O_ 0.73832 0.387836 0.598811 -0.63271
O_ O_ 0.698761 0.334973 0.539159 -0.57982
O_ O_ 0.852161 0.336023 0.600673 -0.63271
O_ O_ 0.874606 0.416708 0.599655 -0.57982
O_ O_ 0.484046 0.41458 0.584612 -0.63271
O_ O_ 0.9603 0.461289 0.665959 -0.57982
O_ O_ 0.595429 0.395543 0.646399 -0.63271
O_ O_ 0.629429 0.405023 0.572297 -0.57982
O_ O_ 0.75932 0.0986013 0.914719 -0.63271
O_ O_ 0.793503 0.164067 0.960198 -0.57982
O_ O_ 0.655054 0.146741 0.898618 -0.63271
O_ O_ 0.613511 0.0803563 0.913061 -0.57982
F_ F_ 0.936678 0.326041 0.936528 -0.20885
F_ F_ 0.920083 0.313782 0.851315 -0.20885
F_ F_ 0.857969 0.302774 0.899811 -0.20885
F_ F_ 0.811007 0.433314 0.833247 -0.20885
F_ F_ 0.816836 0.349638 0.822721 -0.20885
F_ F_ 0.878563 0.39065 0.801914 -0.20885
F_ F_ 0.572392 0.174212 0.55733 -0.20885
F_ F_ 0.561586 0.184646 0.640945 -0.20885
F_ F_ 0.633253 0.202159 0.616142 -0.20885
F_ F_ 0.667306 0.0596524 0.673598 -0.20885
F_ F_ 0.666319 0.144981 0.690563 -0.20885
F_ F_ 0.597936 0.105862 0.696737 -0.20885
Zn Zn 0.586116 0.584766 0.350939 0.83971
Zn Zn 0.659718 0.844337 0.0837524 0.83971
Zn Zn 0.908526 0.918931 0.14833 0.83971
Zn Zn 0.843868 0.654564 0.416913 0.83971
H_ H_ 0.662022 0.631073 0.307956 0.10394
H_ H_ 0.736156 0.601047 0.262325 0.10394
H_ H_ 0.709999 0.94985 0.277546 0.10394
H_ H_ 0.631852 0.481815 0.328605 0.10394
H_ H_ 0.0290038 0.603274 0.259995 0.10394
H_ H_ 0.987263 0.675242 0.209909 0.10394
H_ H_ 0.53769 0.764892 0.325755 0.10394
H_ H_ 0.572942 0.696618 0.373434 0.10394
H_ H_ 0.544583 0.957141 0.391606 0.10394
H_ H_ 0.976127 0.872466 0.362621 0.10394
H_ H_ 0.857343 0.980394 0.414957 0.10394
H_ H_ 0.575876 0.809373 0.127125 0.10394
H_ H_ 1.00910636 0.762914 0.10172 0.10394
H_ H_ 0.55104 0.763171 0.449994 0.10394
H_ H_ 0.607224 0.836644 0.980731 0.10394
H_ H_ 0.735447 0.761145 0.0972036 0.10394
H_ H_ 0.771392 0.708191 0.169458 0.10394
H_ H_ 0.700654 0.818119 0.273677 0.10394
H_ H_ 0.661232 0.866879 0.197409 0.10394
H_ H_ 0.708359 0.895396 0.44013 0.10394
H_ H_ 0.762981 0.895968 0.374505 0.10394
H_ H_ 0.894601 0.893802 0.481501 0.10394
H_ H_ 0.808609 0.89936 0.157374 0.10394
H_ H_ 0.731503 0.954819 0.187863 0.10394
H_ H_ 0.828229 0.553084 0.288522 0.10394
H_ H_ 0.903517 1.00834052 0.223212 0.10394
H_ H_ 0.521123 0.890111 0.205049 0.10394
H_ H_ 0.565545 0.806604 0.238758 0.10394
H_ H_ 0.914108 0.7567 0.235897 0.10394
H_ H_ 0.870681 0.827366 0.191817 0.10394
H_ H_ 0.975032 0.559057 0.128256 0.10394
H_ H_ 0.509332 0.628915 0.112163 0.10394
H_ H_ 0.635419 0.516139 0.0903856 0.10394
H_ H_ 0.948615 0.6594 0.394619 0.10394
H_ H_ 0.511564 0.680193 0.44528 0.10394
H_ H_ 0.916056 0.780975 0.0433145 0.10394
H_ H_ 0.849322 0.738362 0.495892 0.10394
H_ H_ 0.733676 0.686 0.382792 0.10394
H_ H_ 0.69124 0.726809 0.3023 0.10394
H_ H_ 0.839724 0.736318 0.255858 0.10394
H_ H_ 0.879821 0.697026 0.335092 0.10394
H_ H_ 0.782063 0.610274 0.0551483 0.10394
H_ H_ 0.726261 0.59531 0.118599 0.10394
H_ H_ 0.598971 0.597292 -0.000534875 0.10394
C_ C_ 0.673621 0.590577 0.304104 0.18167
C_ C_ 0.717531 0.574834 0.281749 -0.15533
C_ C_ 0.732039 0.522316 0.278087 0.02923
C_ C_ 0.707999 0.990748 0.291766 -0.15533
C_ C_ 0.654715 0.507029 0.313421 0.18167
C_ C_ 0.529014 0.631705 0.271941 0.18167
C_ C_ 0.0118339 0.682812 0.243571 -0.15533
C_ C_ 0.523319 0.722086 0.255804 0.02923
C_ C_ 0.545185 0.729983 0.306479 -0.15533
C_ C_ 0.563461 0.688156 0.332597 0.18167
C_ C_ 0.506838 0.540255 0.37534 0.69207
C_ C_ 0.967201 0.0006099999999999994 0.365371 0.02923
C_ C_ -0.011378 0.948275 0.363523 -0.15533
C_ C_ 0.958436 0.910324 0.370596 -0.15533
C_ C_ 0.90914 0.919273 0.389764 0.02923
C_ C_ 0.891537 0.970598 0.398457 -0.15533
C_ C_ 0.917712 0.0112269 0.380902 0.02923
C_ C_ 0.89995 0.570431 0.39407 0.69207
C_ C_ 0.894207 0.822571 0.380482 0.69661
C_ C_ 0.568093 0.803588 0.0886812 0.18167
C_ C_ 0.521706 0.786163 0.0695701 -0.15533
C_ C_ 0.510138 0.775603 0.0151916 0.02923
C_ C_ 0.554611 0.768292 0.491455 -0.15533
C_ C_ 0.582677 0.821304 0.00394621 0.18167
C_ C_ 0.722547 0.76944 0.135469 0.18167
C_ C_ 0.746144 0.74173 0.177371 -0.15533
C_ C_ 0.739111 0.761188 0.228733 0.02923
C_ C_ 0.7054 0.802679 0.234353 -0.15533
C_ C_ 0.685332 0.831907 0.19212 0.18167
C_ C_ 0.740042 0.858412 0.0432075 0.69207
C_ C_ 0.770848 0.878709 0.50042 0.02923
C_ C_ 0.748609 0.892876 0.451805 -0.15533
C_ C_ 0.780307 0.889935 0.412432 -0.15533
C_ C_ 0.833629 0.887125 0.420963 0.02923
C_ C_ 0.854018 0.890567 0.472593 -0.15533
C_ C_ 0.823523 0.88114 0.512216 0.02923
C_ C_ 0.849192 0.883077 0.0710535 0.69207
C_ C_ 0.846024 0.88573 0.324944 0.69661
C_ C_ 0.813825 0.93119 0.182188 0.18167
C_ C_ 0.771916 0.959661 0.204405 -0.15533
C_ C_ 0.781449 0.9987756 0.241883 0.02923
C_ C_ 0.825457 0.520737 0.259911 -0.15533
C_ C_ 0.869233 0.992057 0.220533 0.18167
C_ C_ 0.993958 0.856953 0.194259 0.18167
C_ C_ 0.525942 0.811155 0.222347 -0.15533
C_ C_ 0.990671 0.777982 0.238131 0.02923
C_ C_ 0.937352 0.786149 0.22481 -0.15533
C_ C_ 0.912297 0.825584 0.198245 0.18167
C_ C_ 0.977065 0.957002 0.110698 0.69207
C_ C_ 0.515537 0.499005 0.118039 0.02923
C_ C_ 0.494927 0.551308 0.113516 -0.15533
C_ C_ 0.525751 0.590108 0.108036 -0.15533
C_ C_ 0.576182 0.577679 0.0961476 0.02923
C_ C_ 0.595316 0.525992 0.0968392 -0.15533
C_ C_ 0.565453 0.486244 0.106311 0.02923
C_ C_ 0.601457 0.927167 0.113523 0.69207
C_ C_ 0.593657 0.676854 0.10296 0.69661
C_ C_ 0.940213 0.686256 0.427154 0.18167
C_ C_ 0.980207 0.709749 0.449593 -0.15533
C_ C_ 0.973807 0.740856 0.493636 0.02923
C_ C_ 0.9247 0.752738 1.0118297 -0.15533
C_ C_ 0.887029 0.727756 0.484304 0.18167
C_ C_ 0.757032 0.693999 0.354531 0.18167
C_ C_ 0.732841 0.715625 0.309403 -0.15533
C_ C_ 0.761926 0.728219 0.270994 0.02923
C_ C_ 0.814678 0.717627 0.279821 -0.15533
C_ C_ 0.838676 0.699428 0.326112 0.18167
C_ C_ 0.772141 0.617672 0.456644 0.69207
C_ C_ 0.723198 0.616507 0.99398 0.02923
C_ C_ 0.741521 0.605783 0.0436088 -0.15533
C_ C_ 0.70773 0.601368 0.0807482 -0.15533
C_ C_ 0.654858 0.606545 0.0676933 0.02923
C_ C_ 0.638458 0.603436 0.014895 -0.15533
C_ C_ 0.672559 0.608049 0.977916 0.02923
C_ C_ 0.656601 0.606811 0.431601 0.69207
C_ C_ 0.639665 0.615323 0.162649 0.69661
C_ C_ 0.869847 0.878606 0.379969 -0.30787
C_ C_ 0.615228 0.617947 0.107131 -0.30787
N_ N_ 0.64318 0.558185 0.321168 -0.32189
N_ N_ 0.555402 0.641284 0.316011 -0.32189
N_ N_ 0.599061 0.818582 0.0553457 -0.32189
N_ N_ 0.689348 0.811451 0.143297 -0.32189
N_ N_ 0.861522 0.946106 0.193335 -0.32189
N_ N_ 0.941368 0.860783 0.183393 -0.32189
N_ N_ 0.89301 0.698037 0.440654 -0.32189
N_ N_ 0.808993 0.684971 0.359982 -0.32189
O_ O_ 0.00877068 0.586382 0.399819 -0.63271
O_ O_ 0.539113 0.540889 0.340481 -0.57982
O_ O_ 0.898724 0.59667 0.352133 -0.63271
O_ O_ 0.876056 0.59042 0.430583 -0.57982
O_ O_ 0.747841 0.877062 0.0887612 -0.63271
O_ O_ 0.698743 0.83654 0.0308917 -0.57982
O_ O_ 0.856755 0.844229 0.10097 -0.63271
O_ O_ 0.867203 0.925638 0.0885947 -0.57982
O_ O_ 0.488398 0.906176 0.101531 -0.63271
O_ O_ 0.949839 0.970055 0.149659 -0.57982
O_ O_ 0.590195 0.89943 0.148888 -0.63271
O_ O_ 0.6405 0.909059 0.0872023 -0.57982
O_ O_ 0.769982 0.593854 0.410132 -0.63271
O_ O_ 0.801474 0.654896 0.468404 -0.57982
O_ O_ 0.665746 0.647452 0.408358 -0.63271
O_ O_ 0.615341 0.584503 0.415957 -0.57982
F_ F_ 0.930871 0.813543 0.421658 -0.20885
F_ F_ 0.920607 0.812554 0.339646 -0.20885
F_ F_ 0.860357 0.787347 0.377696 -0.20885
F_ F_ 0.814104 0.931144 0.32105 -0.20885
F_ F_ 0.81361 0.844667 0.308656 -0.20885
F_ F_ 0.879752 0.886485 0.28966 -0.20885
F_ F_ 0.559071 0.68296 0.0607876 -0.20885
F_ F_ 0.56336 0.695649 0.142057 -0.20885
F_ F_ 0.630562 0.708103 0.0945742 -0.20885
F_ F_ 0.66578 0.568201 0.174405 -0.20885
F_ F_ 0.66973 0.653136 0.17661 -0.20885
F_ F_ 0.604114 0.615816 0.198066 -0.20885
Zn Zn 0.585462 0.589403 0.843561 0.83971
Zn Zn 0.654105 0.843773 0.582502 0.83971
Zn Zn 0.900907 0.911756 0.650945 0.83971
Zn Zn 0.839478 0.656964 0.919943 0.83971
H_ H_ 0.669625 0.636486 0.802976 0.10394
H_ H_ 0.751614 0.59824 0.769356 0.10394
H_ H_ 0.717504 0.950216 0.800517 0.10394
H_ H_ 0.62523 0.489149 0.819212 0.10394
H_ H_ 0.0191382 0.590001 0.746491 0.10394
H_ H_ 0.974789 0.663258 0.700128 0.10394
H_ H_ 0.517579 0.774707 0.837033 0.10394
H_ H_ 0.563156 0.69948 0.876691 0.10394
H_ H_ 0.52832 0.944753 0.875494 0.10394
H_ H_ 0.986557 0.876037 0.895613 0.10394
H_ H_ 0.850405 0.982837 0.904767 0.10394
H_ H_ 0.57876 0.799898 0.637112 0.10394
H_ H_ 0.00896862 0.756048 0.592996 0.10394
H_ H_ 0.531226 0.793721 0.942571 0.10394
H_ H_ 0.624273 0.803938 0.489401 0.10394
H_ H_ 0.73016 0.758744 0.600987 0.10394
H_ H_ 0.765475 0.711613 0.6761 0.10394
H_ H_ 0.696849 0.838361 0.770692 0.10394
H_ H_ 0.657422 0.873744 0.692385 0.10394
H_ H_ 0.728488 0.823999 0.944763 0.10394
H_ H_ 0.777047 0.846135 0.877982 0.10394
H_ H_ 0.892265 0.886302 0.986543 0.10394
H_ H_ 0.796978 0.888045 0.671184 0.10394
H_ H_ 0.724988 0.940603 0.700585 0.10394
H_ H_ 0.835447 0.538641 0.789257 0.10394
H_ H_ 0.892314 1.00284722 0.725962 0.10394
H_ H_ 0.494694 0.899552 0.708301 0.10394
H_ H_ 0.539616 0.826003 0.748043 0.10394
H_ H_ 0.900289 0.733738 0.707024 0.10394
H_ H_ 0.862172 0.813664 0.671333 0.10394
H_ H_ 0.967068 0.549073 0.629233 0.10394
H_ H_ 0.530558 0.61239 0.577793 0.10394
H_ H_ 0.653177 0.495502 0.594371 0.10394
H_ H_ 0.94955 0.652669 0.904589 0.10394
H_ H_ 0.518275 0.690496 0.95283 0.10394
H_ H_ 0.918292 0.78848 0.535942 0.10394
H_ H_ 0.846248 0.735915 0.99604441 0.10394
H_ H_ 0.729397 0.716725 0.891622 0.10394
H_ H_ 0.686642 0.753366 0.816817 0.10394
H_ H_ 0.826522 0.721834 0.748072 0.10394
H_ H_ 0.86848 0.68524 0.826338 0.10394
H_ H_ 0.796291 0.612186 0.55918 0.10394
H_ H_ 0.744373 0.59656 0.62486 0.10394
H_ H_ 0.619923 0.577161 0.51417 0.10394
C_ C_ 0.680582 0.594559 0.80223 0.18167
C_ C_ 0.725394 0.573539 0.782841 -0.15533
C_ C_ 0.735154 0.520148 0.776984 0.02923
C_ C_ 0.702638 0.989472 0.797201 -0.15533
C_ C_ 0.651759 0.51325 0.805101 0.18167
C_ C_ 0.527438 0.644206 0.762763 0.18167
C_ C_ -0.009207999999999994 0.66924 0.738416 -0.15533
C_ C_ 0.499147 0.733201 0.763346 0.02923
C_ C_ 0.521643 0.739344 0.81402 -0.15533
C_ C_ 0.546207 0.69614 0.837333 0.18167
C_ C_ 0.506569 0.550381 0.867807 0.69207
C_ C_ 0.969654 0.00656367 0.875541 0.02923
C_ C_ -0.007430999999999965 0.954388 0.879973 -0.15533
C_ C_ 0.965875 0.914274 0.89061 -0.15533
C_ C_ 0.913812 0.92326 0.8991 0.02923
C_ C_ 0.893073 0.975417 0.900521 -0.15533
C_ C_ 0.918159 0.0164021 0.887374 0.02923
C_ C_ 0.898348 0.572364 0.889636 0.69207
C_ C_ 0.906738 0.826295 0.874468 0.69661
C_ C_ 0.571191 0.789797 0.597149 0.18167
C_ C_ 0.527149 0.766568 0.576522 -0.15533
C_ C_ 0.518792 0.752942 0.524156 0.02923
C_ C_ 0.539416 0.799632 0.982552 -0.15533
C_ C_ 0.598596 0.789124 0.513521 0.18167
C_ C_ 0.721282 0.773954 0.637619 0.18167
C_ C_ 0.743392 0.749119 0.682165 -0.15533
C_ C_ 0.732845 0.77034 0.730774 0.02923
C_ C_ 0.703855 0.816767 0.734225 -0.15533
C_ C_ 0.679294 0.836825 0.689563 0.18167
C_ C_ 0.736329 0.871223 0.54028 0.69207
C_ C_ 0.777147 0.858205 1.00504 0.02923
C_ C_ 0.76425 0.841454 0.954382 -0.15533
C_ C_ 0.793037 0.854044 0.915207 -0.15533
C_ C_ 0.837732 0.877567 0.924797 0.02923
C_ C_ 0.854815 0.88283 0.975879 -0.15533
C_ C_ 0.824839 0.87516 0.0164435 0.02923
C_ C_ 0.848452 0.879355 0.56519 0.69207
C_ C_ 0.850064 0.890794 0.831453 0.69661
C_ C_ 0.804673 0.925164 0.694147 0.18167
C_ C_ 0.762123 0.952698 0.712781 -0.15533
C_ C_ 0.767961 0.0004900000000001015 0.737406 0.02923
C_ C_ 0.829071 0.508692 0.761321 -0.15533
C_ C_ 0.857424 0.988129 0.721714 0.18167
C_ C_ 0.980609 0.846847 0.698082 0.18167
C_ C_ 0.50011 0.821947 0.729509 -0.15533
C_ C_ 0.973334 0.762621 0.725579 0.02923
C_ C_ 0.924224 0.766153 0.703997 -0.15533
C_ C_ 0.902107 0.810448 0.684624 0.18167
C_ C_ 0.977381 0.956614 0.606828 0.69207
C_ C_ 0.5245 0.491696 0.604863 0.02923
C_ C_ 0.509504 0.542749 0.595766 -0.15533
C_ C_ 0.544234 0.578174 0.597089 -0.15533
C_ C_ 0.595967 0.56356 0.602728 0.02923
C_ C_ 0.613214 0.510205 0.602149 -0.15533
C_ C_ 0.576753 0.472441 0.600723 0.02923
C_ C_ 0.590078 0.925046 0.604149 0.69207
C_ C_ 0.61703 0.659737 0.604801 0.69661
C_ C_ 0.940885 0.678736 0.936145 0.18167
C_ C_ 0.981412 0.694391 0.966517 -0.15533
C_ C_ 0.974432 0.73673 1.00298 0.02923
C_ C_ 0.92666 0.754348 0.508205 -0.15533
C_ C_ 0.884539 0.72886 0.984481 0.18167
C_ C_ 0.749772 0.709935 0.859524 0.18167
C_ C_ 0.725376 0.737368 0.818199 -0.15533
C_ C_ 0.755993 0.74561 0.778919 0.02923
C_ C_ 0.805222 0.721679 0.780858 -0.15533
C_ C_ 0.82863 0.692779 0.821901 0.18167
C_ C_ 0.762292 0.624147 0.958893 0.69207
C_ C_ 0.738797 0.605088 0.49586 0.02923
C_ C_ 0.759135 0.608573 0.548855 -0.15533
C_ C_ 0.725911 0.601167 0.586615 -0.15533
C_ C_ 0.675115 0.590772 0.573857 0.02923
C_ C_ 0.659076 0.581945 0.523188 -0.15533
C_ C_ 0.686881 0.595673 0.483845 0.02923
C_ C_ 0.647977 0.611992 0.925307 0.69207
C_ C_ 0.657054 0.595088 0.667356 0.69661
C_ C_ 0.877078 0.880203 0.886139 -0.30787
C_ C_ 0.635083 0.600393 0.610485 -0.30787
N_ N_ 0.643189 0.565429 0.811249 -0.32189
N_ N_ 0.550647 0.649285 0.810608 -0.32189
N_ N_ 0.605752 0.800084 0.56473 -0.32189
N_ N_ 0.688965 0.816193 0.642634 -0.32189
N_ N_ 0.849028 0.945272 0.691593 -0.32189
N_ N_ 0.929836 0.850065 0.680101 -0.32189
N_ N_ 0.893144 0.694239 0.945052 -0.32189
N_ N_ 0.802087 0.694502 0.862476 -0.32189
O_ O_ 1.01175 0.58709 0.891637 -0.63271
O_ O_ 0.541356 0.542264 0.83609 -0.57982
O_ O_ 0.893721 0.596075 0.847644 -0.63271
O_ O_ 0.870963 0.592742 0.926781 -0.57982
O_ O_ 0.738941 0.899701 0.58381 -0.63271
O_ O_ 0.700874 0.838254 0.535575 -0.57982
O_ O_ 0.846759 0.83818 0.589746 -0.63271
O_ O_ 0.873891 0.916252 0.586545 -0.57982
O_ O_ 0.485373 0.912367 0.59694 -0.63271
O_ O_ 0.948551 0.961413 0.642858 -0.57982
O_ O_ 0.585071 0.902497 0.647304 -0.63271
O_ O_ 0.625223 0.908419 0.574524 -0.57982
O_ O_ 0.762986 0.602066 0.912243 -0.63271
O_ O_ 0.796232 0.657516 0.972574 -0.57982
O_ O_ 0.64719 0.65628 0.900827 -0.63271
O_ O_ 0.622355 0.576967 0.906175 -0.57982
F_ F_ 0.935366 0.814173 0.919554 -0.20885
F_ F_ 0.937846 0.81957 0.8324 -0.20885
F_ F_ 0.877591 0.785406 0.865458 -0.20885
F_ F_ 0.810409 0.930662 0.83095 -0.20885
F_ F_ 0.832907 0.850566 0.804715 -0.20885
F_ F_ 0.883639 0.906131 0.801444 -0.20885
F_ F_ 0.592306 0.666223 0.557329 -0.20885
F_ F_ 0.58496 0.679499 0.64416 -0.20885
F_ F_ 0.656841 0.691669 0.60682 -0.20885
F_ F_ 0.68301 0.545075 0.671545 -0.20885
F_ F_ 0.682623 0.634359 0.688601 -0.20885
F_ F_ 0.617436 0.595892 0.69977 -0.20885
