_cell_length_a 26.508
_cell_length_b 26.37200000322088
_cell_length_c 26.311999743092066
_cell_angle_alpha 93.74100058972084
_cell_angle_beta 96.04100104955006
_cell_angle_gamma 83.6869992558723
_symmetry_space_group_name_H-M         'P 1'
_symmetry_Int_Tables_number            1
loop_
_symmetry_equiv_pos_as_xyz
   'x, y, z'
                         
loop_
_atom_site_label
_atom_site_type_symbol
_atom_site_fract_x 
_atom_site_fract_y
_atom_site_fract_z
_atom_site_charge
Zn Zn 0.0896485 0.0888785 0.355922 0.83971
Zn Zn 0.156749 0.343577 0.0849963 0.83971
Zn Zn 0.406952 0.415657 0.151335 0.83971
Zn Zn 0.338432 0.15981 0.417877 0.83971
H_ H_ 0.161047 0.134372 0.305538 0.10394
H_ H_ 0.24183 0.102722 0.269961 0.10394
H_ H_ 0.213313 0.455021 0.286857 0.10394
H_ H_ 0.123176 0.982452 0.322251 0.10394
H_ H_ 0.525534 0.106818 0.247612 0.10394
H_ H_ 0.475075 0.178538 0.212267 0.10394
H_ H_ 0.0399775 0.271136 0.330283 0.10394
H_ H_ 0.0818126 0.194633 0.374202 0.10394
H_ H_ 0.033295 0.4465 0.35102 0.10394
H_ H_ 0.476013 0.389672 0.382705 0.10394
H_ H_ 0.351375 0.502588 0.403019 0.10394
H_ H_ 0.0596546 0.321009 0.125648 0.10394
H_ H_ 0.49865 0.281361 0.103979 0.10394
H_ H_ 0.0440473 0.28931 0.43709 0.10394
H_ H_ 0.131183 0.292833 0.986402 0.10394
H_ H_ 0.215806 0.257066 0.097642 0.10394
H_ H_ 0.257187 0.205779 0.163488 0.10394
H_ H_ 0.230983 0.335419 0.270127 0.10394
H_ H_ 0.179803 0.381427 0.196027 0.10394
H_ H_ 0.218123 0.369809 0.43623 0.10394
H_ H_ 0.264703 0.403445 0.378184 0.10394
H_ H_ 0.392206 0.415402 0.490816 0.10394
H_ H_ 0.310404 0.403792 0.16147 0.10394
H_ H_ 0.233476 0.45462 0.194322 0.10394
H_ H_ 0.327364 0.0336774 0.288231 0.10394
H_ H_ 0.405638 0.511578 0.229726 0.10394
H_ H_ 0.00579959 0.38945 0.21012 0.10394
H_ H_ 0.0452971 0.313565 0.251075 0.10394
H_ H_ 0.40599 0.258889 0.235268 0.10394
H_ H_ 0.36871 0.341828 0.198046 0.10394
H_ H_ 0.468331 0.0582023 0.134498 0.10394
H_ H_ 0.0186239 0.123219 0.130925 0.10394
H_ H_ 0.13849 0.0126828 0.0758347 0.10394
H_ H_ 0.438351 0.161218 0.403841 0.10394
H_ H_ 0.0143178 0.203259 0.428003 0.10394
H_ H_ 0.404138 0.285039 0.0445823 0.10394
H_ H_ 0.340585 0.249505 0.50317 0.10394
H_ H_ 0.241002 0.211999 0.392804 0.10394
H_ H_ 0.196241 0.251213 0.315747 0.10394
H_ H_ 0.335563 0.223452 0.240684 0.10394
H_ H_ 0.377846 0.185679 0.319469 0.10394
H_ H_ 0.283145 0.108475 0.0566883 0.10394
H_ H_ 0.227457 0.118755 0.121066 0.10394
H_ H_ 0.103967 0.0968786 0.00924468 0.10394
C_ C_ 0.171644 0.0934099 0.303312 0.18167
C_ C_ 0.21819 0.0738155 0.281382 -0.15533
C_ C_ 0.226522 0.020854 0.269673 0.02923
C_ C_ 0.20185 0.495686 0.283826 -0.15533
C_ C_ 0.149102 0.0100189 0.311245 0.18167
C_ C_ 0.0201732 0.135023 0.276423 0.18167
C_ C_ 0.501823 0.186527 0.246054 -0.15533
C_ C_ 0.00202387 0.227907 0.268778 0.02923
C_ C_ 0.0318596 0.234526 0.317423 -0.15533
C_ C_ 0.0605892 0.190765 0.338782 0.18167
C_ C_ 0.0118251 0.0490826 0.384147 0.69207
C_ C_ 0.474374 0.516915 0.380302 0.02923
C_ C_ 0.494738 0.466821 0.378404 -0.15533
C_ C_ 0.462475 0.429314 0.384118 -0.15533
C_ C_ 0.411535 0.440813 0.391901 0.02923
C_ C_ 0.392436 0.491993 0.40114 -0.15533
C_ C_ 0.422267 0.531229 0.393268 0.02923
C_ C_ 0.392025 0.0733982 0.389008 0.69207
C_ C_ 0.399504 0.33871 0.386117 0.69661
C_ C_ 0.0592452 0.305139 0.087121 0.18167
C_ C_ 0.0166129 0.283426 0.0668004 -0.15533
C_ C_ 0.0108528 0.267956 0.0129825 0.02923
C_ C_ 0.0536209 0.289593 0.478704 -0.15533
C_ C_ 0.0981317 0.292418 0.0098637 0.18167
C_ C_ 0.213383 0.271282 0.137976 0.18167
C_ C_ 0.238261 0.243613 0.176266 -0.15533
C_ C_ 0.242736 0.265869 0.225878 0.02923
C_ C_ 0.224188 0.316621 0.232717 -0.15533
C_ C_ 0.199699 0.343747 0.19071 0.18167
C_ C_ 0.235126 0.370384 0.0438827 0.69207
C_ C_ 0.274325 0.381234 0.501488 0.02923
C_ C_ 0.254604 0.382492 0.451638 -0.15533
C_ C_ 0.28602 0.392499 0.414744 -0.15533
C_ C_ 0.33691 0.399471 0.427805 0.02923
C_ C_ 0.35498 0.404534 0.479867 -0.15533
C_ C_ 0.325828 0.394233 0.518092 0.02923
C_ C_ 0.349647 0.384444 0.0693793 0.69207
C_ C_ 0.348082 0.397412 0.3297 0.69661
C_ C_ 0.314011 0.439239 0.18196 0.18167
C_ C_ 0.272591 0.465062 0.203198 -0.15533
C_ C_ 0.278654 0.506631 0.238061 0.02923
C_ C_ 0.319813 0.0111823 0.252773 -0.15533
C_ C_ 0.36904 0.495147 0.225096 0.18167
C_ C_ 0.49218 0.356121 0.199392 0.18167
C_ C_ 0.00728722 0.314409 0.236252 -0.15533
C_ C_ 0.482898 0.279114 0.237306 0.02923
C_ C_ 0.430906 0.284493 0.222469 -0.15533
C_ C_ 0.409868 0.32779 0.197985 0.18167
C_ C_ 0.485631 0.453894 0.117884 0.69207
C_ C_ 0.0193719 0.994557 0.113837 0.02923
C_ C_ 0.00116551 0.0462303 0.11896 -0.15533
C_ C_ 0.0341522 0.0844996 0.119609 -0.15533
C_ C_ 0.0855155 0.0725705 0.109519 0.02923
C_ C_ 0.10318 0.0230124 0.093273 -0.15533
C_ C_ 0.0715403 0.98261 0.0992467 0.02923
C_ C_ 0.0922646 0.425827 0.111454 0.69207
C_ C_ 0.0960299 0.173583 0.109892 0.69661
C_ C_ 0.435337 0.186129 0.438462 0.18167
C_ C_ 0.477024 0.212365 0.457448 -0.15533
C_ C_ 0.471077 0.251283 0.494997 0.02923
C_ C_ 0.415265 0.257224 0.0123853 -0.15533
C_ C_ 0.381548 0.238735 0.49073 0.18167
C_ C_ 0.260445 0.214081 0.357626 0.18167
C_ C_ 0.234271 0.235031 0.312558 -0.15533
C_ C_ 0.263327 0.237916 0.271213 0.02923
C_ C_ 0.314009 0.219231 0.273602 -0.15533
C_ C_ 0.336907 0.194569 0.317334 0.18167
C_ C_ 0.260737 0.127013 0.460828 0.69207
C_ C_ 0.22596 0.109016 0.994629 0.02923
C_ C_ 0.242775 0.115163 0.0456122 -0.15533
C_ C_ 0.209996 0.119756 0.0830025 -0.15533
C_ C_ 0.158227 0.110563 0.0719246 0.02923
C_ C_ 0.14072 0.105254 0.0186372 -0.15533
C_ C_ 0.173016 0.107856 0.979303 0.02923
C_ C_ 0.153899 0.101323 0.430245 0.69207
C_ C_ 0.146293 0.111767 0.167398 0.69661
C_ C_ 0.375793 0.395787 0.385753 -0.30787
C_ C_ 0.120635 0.116418 0.113171 -0.30787
N_ N_ 0.140187 0.0618752 0.317396 -0.32189
N_ N_ 0.049934 0.144052 0.31962 -0.32189
N_ N_ 0.100883 0.30633 0.0602655 -0.32189
N_ N_ 0.191043 0.318885 0.145214 -0.32189
N_ N_ 0.359815 0.456658 0.189756 -0.32189
N_ N_ 0.440556 0.360105 0.183786 -0.32189
N_ N_ 0.387046 0.199598 0.452637 -0.32189
N_ N_ 0.308419 0.18836 0.356199 -0.32189
O_ O_ 0.501466 0.0907148 0.38692 -0.63271
O_ O_ 0.0436248 0.0414248 0.349889 -0.57982
O_ O_ 0.389737 0.0980912 0.348464 -0.63271
O_ O_ 0.370395 0.0958168 0.429241 -0.57982
O_ O_ 0.241635 0.390851 0.0905449 -0.63271
O_ O_ 0.195782 0.344993 0.0316209 -0.57982
O_ O_ 0.348643 0.342836 0.0935745 -0.63271
O_ O_ 0.372392 0.422292 0.0908524 -0.57982
O_ O_ 0.983799 0.411839 0.092641 -0.63271
O_ O_ 0.451216 0.462957 0.151 -0.57982
O_ O_ 0.0906641 0.402412 0.15137 -0.63271
O_ O_ 0.126862 0.407805 0.0804505 -0.57982
O_ O_ 0.269233 0.0912738 0.425569 -0.63271
O_ O_ 0.291377 0.163741 0.464833 -0.57982
O_ O_ 0.152578 0.14279 0.405786 -0.63271
O_ O_ 0.115625 0.0729149 0.417223 -0.57982
F_ F_ 0.431903 0.334299 0.430065 -0.20885
F_ F_ 0.427302 0.32457 0.345524 -0.20885
F_ F_ 0.364421 0.302994 0.383203 -0.20885
F_ F_ 0.313721 0.438748 0.325263 -0.20885
F_ F_ 0.320394 0.356459 0.311232 -0.20885
F_ F_ 0.384959 0.40011 0.295246 -0.20885
F_ F_ 0.0605013 0.179267 0.0683248 -0.20885
F_ F_ 0.0721663 0.19447 0.152358 -0.20885
F_ F_ 0.130981 0.206029 0.0997436 -0.20885
F_ F_ 0.183388 0.0699527 0.17215 -0.20885
F_ F_ 0.175178 0.151697 0.180614 -0.20885
F_ F_ 0.11428 0.112409 0.205529 -0.20885
Zn Zn 0.0840717 0.0815101 0.845729 0.83971
Zn Zn 0.166524 0.341463 0.57953 0.83971
Zn Zn 0.407052 0.418428 0.660332 0.83971
Zn Zn 0.339252 0.15394 0.919914 0.83971
H_ H_ 0.158039 0.122291 0.800648 0.10394
H_ H_ 0.240798 0.09252 0.767222 0.10394
H_ H_ 0.201118 0.447642 0.780325 0.10394
H_ H_ 0.134287 0.976804 0.836945 0.10394
H_ H_ 0.532837 0.0968941 0.737356 0.10394
H_ H_ 0.490437 0.175282 0.693466 0.10394
H_ H_ 0.0404179 0.275239 0.818573 0.10394
H_ H_ 0.0795931 0.194612 0.871823 0.10394
H_ H_ 0.0406352 0.448907 0.870151 0.10394
H_ H_ 0.482149 0.375116 0.887672 0.10394
H_ H_ 0.351292 0.491509 0.901474 0.10394
H_ H_ 0.0783871 0.30681 0.626738 0.10394
H_ H_ 0.505764 0.265975 0.594688 0.10394
H_ H_ 0.0442816 0.275684 0.943141 0.10394
H_ H_ 0.120418 0.325026 0.475277 0.10394
H_ H_ 0.213868 0.244461 0.598837 0.10394
H_ H_ 0.262385 0.204168 0.670875 0.10394
H_ H_ 0.221447 0.336958 0.767007 0.10394
H_ H_ 0.17687 0.37607 0.691683 0.10394
H_ H_ 0.207649 0.382117 0.944841 0.10394
H_ H_ 0.266168 0.381526 0.875116 0.10394
H_ H_ 0.391257 0.41132 0.985758 0.10394
H_ H_ 0.306071 0.395532 0.661396 0.10394
H_ H_ 0.229002 0.45167 0.685145 0.10394
H_ H_ 0.327091 0.0441082 0.783532 0.10394
H_ H_ 0.39804 0.489211 0.755195 0.10394
H_ H_ 0.0216689 0.376233 0.681402 0.10394
H_ H_ 0.0601008 0.303076 0.725838 0.10394
H_ H_ 0.407856 0.245826 0.719471 0.10394
H_ H_ 0.370931 0.32434 0.677496 0.10394
H_ H_ 0.462138 0.0534591 0.611754 0.10394
H_ H_ 0.0132147 0.115961 0.598638 0.10394
H_ H_ 0.142654 0.0102259 0.60159 0.10394
H_ H_ 0.448387 0.137893 0.926466 0.10394
H_ H_ 0.0153999 0.189965 0.93622 0.10394
H_ H_ 0.415119 0.292196 0.54792 0.10394
H_ H_ 0.340326 0.234756 -0.00177514 0.10394
H_ H_ 0.230733 0.196612 0.883503 0.10394
H_ H_ 0.19123 0.233559 0.808819 0.10394
H_ H_ 0.338018 0.232851 0.751216 0.10394
H_ H_ 0.378985 0.191392 0.833384 0.10394
H_ H_ 0.27666 0.139537 0.559079 0.10394
H_ H_ 0.225726 0.119474 0.624265 0.10394
H_ H_ 0.109227 0.0722635 0.512745 0.10394
C_ C_ 0.171357 0.0839475 0.796634 0.18167
C_ C_ 0.21609 0.0646546 0.776792 -0.15533
C_ C_ 0.233196 0.0122812 0.7763 0.02923
C_ C_ 0.196889 0.489635 0.787817 -0.15533
C_ C_ 0.159877 0.0014262 0.819391 0.18167
C_ C_ 0.0233149 0.134919 0.765555 0.18167
C_ C_ 0.506992 0.177216 0.733644 -0.15533
C_ C_ 0.01069 0.227053 0.7553 0.02923
C_ C_ 0.0352864 0.234591 0.80631 -0.15533
C_ C_ 0.0550889 0.191712 0.835404 0.18167
C_ C_ 0.00821173 0.0428292 0.876807 0.69207
C_ C_ 0.472624 0.502709 0.868962 0.02923
C_ C_ 0.491385 0.450274 0.871264 -0.15533
C_ C_ 0.461197 0.412562 0.878207 -0.15533
C_ C_ 0.410164 0.426249 0.892199 0.02923
C_ C_ 0.391396 0.479255 0.896429 -0.15533
C_ C_ 0.42176 0.517531 0.883765 0.02923
C_ C_ 0.391848 0.0740518 0.880058 0.69207
C_ C_ 0.393732 0.332031 0.895223 0.69661
C_ C_ 0.072152 0.299999 0.586457 0.18167
C_ C_ 0.0289736 0.281053 0.564735 -0.15533
C_ C_ 0.0194293 0.273122 0.511126 0.02923
C_ C_ 0.0520323 0.276298 0.984764 -0.15533
C_ C_ 0.0958713 0.311641 0.501373 0.18167
C_ C_ 0.220797 0.267722 0.633453 0.18167
C_ C_ 0.243659 0.240773 0.675583 -0.15533
C_ C_ 0.241528 0.262663 0.726597 0.02923
C_ C_ 0.216152 0.31284 0.731332 -0.15533
C_ C_ 0.198776 0.339694 0.685413 0.18167
C_ C_ 0.241721 0.366484 0.540151 0.69207
C_ C_ 0.268553 0.386187 0.00606858 0.02923
C_ C_ 0.248129 0.382915 0.954197 -0.15533
C_ C_ 0.280814 0.390013 0.916012 -0.15533
C_ C_ 0.33313 0.398568 0.92792 0.02923
C_ C_ 0.350881 0.404251 0.978443 -0.15533
C_ C_ 0.321087 0.390799 0.0178637 0.02923
C_ C_ 0.35159 0.388637 0.570315 0.69207
C_ C_ 0.349049 0.390393 0.830593 0.69661
C_ C_ 0.308195 0.431443 0.684685 0.18167
C_ C_ 0.264404 0.459762 0.70305 -0.15533
C_ C_ 0.27227 0.500844 0.740329 0.02923
C_ C_ 0.324761 0.0114653 0.755267 -0.15533
C_ C_ 0.362778 0.483568 0.736151 0.18167
C_ C_ 0.483952 0.360202 0.71839 0.18167
C_ C_ 0.0199273 0.306214 0.71184 -0.15533
C_ C_ 0.479987 0.271411 0.738328 0.02923
C_ C_ 0.430813 0.275724 0.714388 -0.15533
C_ C_ 0.410619 0.318106 0.689048 0.18167
C_ C_ 0.489151 0.451541 0.627733 0.69207
C_ C_ 0.0210174 0.989703 0.61092 0.02923
C_ C_ -0.0003130000000000077 0.0396679 0.611155 -0.15533
C_ C_ 0.0305292 0.0789917 0.605068 -0.15533
C_ C_ 0.0834256 0.068358 0.602616 0.02923
C_ C_ 0.102302 0.0179292 0.603792 -0.15533
C_ C_ 0.0735366 0.977568 0.605232 0.02923
C_ C_ 0.101402 0.421051 0.599134 0.69207
C_ C_ 0.0948827 0.166301 0.599729 0.69661
C_ C_ 0.439348 0.175814 0.946891 0.18167
C_ C_ 0.479844 0.200353 0.97349 -0.15533
C_ C_ 0.467058 0.245665 1.00320518 0.02923
C_ C_ 0.422048 0.263683 0.514274 -0.15533
C_ C_ 0.377107 0.230159 0.985696 0.18167
C_ C_ 0.25474 0.199592 0.853011 0.18167
C_ C_ 0.231471 0.227096 0.812554 -0.15533
C_ C_ 0.262114 0.235598 0.773222 0.02923
C_ C_ 0.315355 0.221357 0.779574 -0.15533
C_ C_ 0.336883 0.201683 0.825787 0.18167
C_ C_ 0.258207 0.120113 0.955139 0.69207
C_ C_ 0.220858 0.125551 0.495939 0.02923
C_ C_ 0.237882 0.131408 0.547136 -0.15533
C_ C_ 0.207223 0.121678 0.585556 -0.15533
C_ C_ 0.159642 0.102364 0.570855 0.02923
C_ C_ 0.143824 0.0912018 0.519921 -0.15533
C_ C_ 0.176109 0.100592 0.482548 0.02923
C_ C_ 0.150534 0.105586 0.924477 0.69207
C_ C_ 0.143484 0.10986 0.666233 0.69661
C_ C_ 0.373376 0.388182 0.887888 -0.30787
C_ C_ 0.119983 0.111339 0.609395 -0.30787
N_ N_ 0.139967 0.0503307 0.810993 -0.32189
N_ N_ 0.0510245 0.142656 0.813619 -0.32189
N_ N_ 0.107017 0.313124 0.553792 -0.32189
N_ N_ 0.195349 0.313519 0.640052 -0.32189
N_ N_ 0.354658 0.446461 0.699516 -0.32189
N_ N_ 0.436925 0.359594 0.690603 -0.32189
N_ N_ 0.389783 0.192763 0.950962 -0.32189
N_ N_ 0.306518 0.188592 0.859797 -0.32189
O_ O_ 0.502123 0.0941295 0.875852 -0.63271
O_ O_ 0.0397028 0.032003 0.841078 -0.57982
O_ O_ 0.384374 0.0988679 0.837993 -0.63271
O_ O_ 0.365051 0.0891443 0.917623 -0.57982
O_ O_ 0.241326 0.390123 0.58533 -0.63271
O_ O_ 0.21089 0.332133 0.52894 -0.57982
O_ O_ 0.354139 0.344741 0.593725 -0.63271
O_ O_ 0.374296 0.424927 0.595184 -0.57982
O_ O_ 0.993925 0.399903 0.592496 -0.63271
O_ O_ 0.457876 0.461932 0.662582 -0.57982
O_ O_ 0.095021 0.396897 0.639879 -0.63271
O_ O_ 0.138425 0.404989 0.571482 -0.57982
O_ O_ 0.258769 0.0903103 0.91252 -0.63271
O_ O_ 0.291341 0.155223 0.965188 -0.57982
O_ O_ 0.154181 0.144514 0.895907 -0.63271
O_ O_ 0.108545 0.0822078 0.913209 -0.57982
F_ F_ 0.429352 0.327959 0.940179 -0.20885
F_ F_ 0.420557 0.310218 0.854746 -0.20885
F_ F_ 0.353725 0.301395 0.895605 -0.20885
F_ F_ 0.319548 0.43503 0.82204 -0.20885
F_ F_ 0.32224 0.350635 0.80965 -0.20885
F_ F_ 0.383541 0.387257 0.795095 -0.20885
F_ F_ 0.0656036 0.170575 0.553232 -0.20885
F_ F_ 0.0626512 0.181579 0.63605 -0.20885
F_ F_ 0.129196 0.202031 0.600952 -0.20885
F_ F_ 0.182224 0.0683737 0.672428 -0.20885
F_ F_ 0.160369 0.155896 0.683565 -0.20885
F_ F_ 0.108642 0.0982313 0.699361 -0.20885
Zn Zn 0.0911992 0.586895 0.348461 0.83971
Zn Zn 0.156481 0.846929 0.080848 0.83971
Zn Zn 0.406081 0.913362 0.157773 0.83971
Zn Zn 0.338731 0.666293 0.420368 0.83971
H_ H_ 0.1686 0.639346 0.301862 0.10394
H_ H_ 0.247251 0.605152 0.263735 0.10394
H_ H_ 0.194448 0.947886 0.271867 0.10394
H_ H_ 0.131785 0.487939 0.315317 0.10394
H_ H_ 0.537083 0.604616 0.259504 0.10394
H_ H_ 0.493934 0.674496 0.213924 0.10394
H_ H_ 0.0410718 0.773738 0.328633 0.10394
H_ H_ 0.0678905 0.696918 0.381936 0.10394
H_ H_ 0.0438106 0.952704 0.390591 0.10394
H_ H_ 0.464816 0.876745 0.368807 0.10394
H_ H_ 0.349009 0.993468 0.416448 0.10394
H_ H_ 0.0808586 0.805206 0.130281 0.10394
H_ H_ 0.504195 0.768119 0.113882 0.10394
H_ H_ 0.0330865 0.798314 0.461365 0.10394
H_ H_ 0.107631 0.825387 0.979899 0.10394
H_ H_ 0.215191 0.748604 0.0989445 0.10394
H_ H_ 0.2596 0.703841 0.166121 0.10394
H_ H_ 0.218784 0.836766 0.269331 0.10394
H_ H_ 0.177134 0.879996 0.19755 0.10394
H_ H_ 0.207926 0.886366 0.459735 0.10394
H_ H_ 0.251886 0.909487 0.390135 0.10394
H_ H_ 0.392122 0.907156 0.490389 0.10394
H_ H_ 0.294762 0.898206 0.159213 0.10394
H_ H_ 0.2235 0.965117 0.176392 0.10394
H_ H_ 0.335178 0.55272 0.279857 0.10394
H_ H_ 0.397866 -0.005357999999999974 0.235805 0.10394
H_ H_ 0.00694881 0.886919 0.199021 0.10394
H_ H_ 0.0565333 0.809957 0.232591 0.10394
H_ H_ 0.416098 0.744116 0.234233 0.10394
H_ H_ 0.368985 0.819103 0.190043 0.10394
H_ H_ 0.473872 0.5576 0.127828 0.10394
H_ H_ 0.0109298 0.620355 0.114003 0.10394
H_ H_ 0.13724 0.503567 0.0952874 0.10394
H_ H_ 0.442009 0.677172 0.395537 0.10394
H_ H_ 0.0257472 0.683156 0.465766 0.10394
H_ H_ 0.419171 0.780545 0.0489256 0.10394
H_ H_ 0.347432 0.743578 0.505673 0.10394
H_ H_ 0.230072 0.702235 0.385472 0.10394
H_ H_ 0.200116 0.751946 0.308203 0.10394
H_ H_ 0.333865 0.714653 0.244354 0.10394
H_ H_ 0.376909 0.692016 0.326357 0.10394
H_ H_ 0.275169 0.63342 0.0583491 0.10394
H_ H_ 0.220096 0.618338 0.128261 0.10394
H_ H_ 0.105347 0.581168 0.00945265 0.10394
C_ C_ 0.177962 0.598517 0.298134 0.18167
C_ C_ 0.224704 0.579249 0.277912 -0.15533
C_ C_ 0.237093 0.526712 0.268581 0.02923
C_ C_ 0.191362 0.9893 0.284195 -0.15533
C_ C_ 0.15568 0.514748 0.301553 0.18167
C_ C_ 0.0350052 0.635004 0.270143 0.18167
C_ C_ 0.512171 0.682896 0.254097 -0.15533
C_ C_ 0.0162896 0.726106 0.261622 0.02923
C_ C_ 0.0388693 0.732736 0.312305 -0.15533
C_ C_ 0.0528571 0.689995 0.343006 0.18167
C_ C_ 0.00790491 0.552281 0.362875 0.69207
C_ C_ 0.465451 0.00714732 0.367688 0.02923
C_ C_ 0.483738 0.95482 0.368462 -0.15533
C_ C_ 0.450978 0.917498 0.374877 -0.15533
C_ C_ 0.401436 0.930325 0.388692 0.02923
C_ C_ 0.386522 0.983006 0.402413 -0.15533
C_ C_ 0.416934 0.021606 0.388742 0.02923
C_ C_ 0.393193 0.582469 0.388788 0.69207
C_ C_ 0.379089 0.83851 0.388803 0.69661
C_ C_ 0.06559 0.805553 0.0896262 0.18167
C_ C_ 0.0198798 0.784362 0.070562 -0.15533
C_ C_ 0.00754446 0.775432 0.0183346 0.02923
C_ C_ 0.0487008 0.789318 0.501403 -0.15533
C_ C_ 0.0864493 0.809619 0.00384924 0.18167
C_ C_ 0.213847 0.769331 0.136075 0.18167
C_ C_ 0.238237 0.740413 0.175929 -0.15533
C_ C_ 0.24062 0.763524 0.226767 0.02923
C_ C_ 0.219555 0.816279 0.232051 -0.15533
C_ C_ 0.191647 0.840968 0.190276 0.18167
C_ C_ 0.235757 0.865466 0.0402346 0.69207
C_ C_ 0.27239 0.87887 0.512834 0.02923
C_ C_ 0.247339 0.888449 0.464277 -0.15533
C_ C_ 0.273352 0.906028 0.428211 -0.15533
C_ C_ 0.326913 0.904147 0.433419 0.02923
C_ C_ 0.351215 0.901414 0.484465 -0.15533
C_ C_ 0.324884 0.889566 0.524871 0.02923
C_ C_ 0.348641 0.885627 0.0746872 0.69207
C_ C_ 0.324628 0.901513 0.335274 0.69661
C_ C_ 0.300629 0.932267 0.178521 0.18167
C_ C_ 0.259215 0.963312 0.196116 -0.15533
C_ C_ 0.268195 0.999969 0.236712 0.02923
C_ C_ 0.328862 0.51993 0.253639 -0.15533
C_ C_ 0.35998 0.985818 0.226092 0.18167
C_ C_ 0.486151 0.859018 0.212789 0.18167
C_ C_ 0.0140946 0.811535 0.226295 -0.15533
C_ C_ 0.486061 0.776736 0.246194 0.02923
C_ C_ 0.437191 0.773571 0.224323 -0.15533
C_ C_ 0.410627 0.818032 0.202195 0.18167
C_ C_ 0.482583 0.951492 0.12481 0.69207
C_ C_ 0.0165881 0.491872 0.114915 0.02923
C_ C_ -0.0033290000000000264 0.54271 0.115818 -0.15533
C_ C_ 0.026278 0.581349 0.110376 -0.15533
C_ C_ 0.0781617 0.568488 0.105627 0.02923
C_ C_ 0.0952562 0.516262 0.0968167 -0.15533
C_ C_ 0.0664594 0.478686 0.107106 0.02923
C_ C_ 0.0965961 0.929039 0.105633 0.69207
C_ C_ 0.0992444 0.662922 0.11386 0.69661
C_ C_ 0.438187 0.695288 0.434325 0.18167
C_ C_ 0.479451 0.716341 0.458562 -0.15533
C_ C_ 0.472779 0.752817 0.497802 0.02923
C_ C_ 0.425638 0.7486 0.0207796 -0.15533
C_ C_ 0.383856 0.738613 0.491849 0.18167
C_ C_ 0.256351 0.708728 0.355775 0.18167
C_ C_ 0.233939 0.726436 0.308912 -0.15533
C_ C_ 0.26138 0.732363 0.270211 0.02923
C_ C_ 0.312315 0.710544 0.274019 -0.15533
C_ C_ 0.336667 0.69983 0.323724 0.18167
C_ C_ 0.260578 0.638396 0.452947 0.69207
C_ C_ 0.223609 0.616442 0.998081 0.02923
C_ C_ 0.23903 0.62144 0.0502039 -0.15533
C_ C_ 0.207955 0.613229 0.087069 -0.15533
C_ C_ 0.157631 0.602073 0.0735753 0.02923
C_ C_ 0.142538 0.593743 0.0215939 -0.15533
C_ C_ 0.173379 0.606447 0.983454 0.02923
C_ C_ 0.155504 0.608716 0.42224 0.69207
C_ C_ 0.14009 0.599554 0.172831 0.69661
C_ C_ 0.359572 0.89459 0.387715 -0.30787
C_ C_ 0.118351 0.605601 0.115279 -0.30787
N_ N_ 0.144466 0.566128 0.309266 -0.32189
N_ N_ 0.0567283 0.644067 0.318894 -0.32189
N_ N_ 0.0987637 0.812461 0.0560663 -0.32189
N_ N_ 0.18793 0.816527 0.143253 -0.32189
N_ N_ 0.350048 0.945126 0.191134 -0.32189
N_ N_ 0.436327 0.858822 0.195959 -0.32189
N_ N_ 0.390265 0.708851 0.448774 -0.32189
N_ N_ 0.308929 0.702319 0.364673 -0.32189
O_ O_ 0.504264 0.601379 0.393783 -0.63271
O_ O_ 0.0455008 0.540552 0.332939 -0.57982
O_ O_ 0.39592 0.607807 0.347237 -0.63271
O_ O_ 0.373285 0.608059 0.427378 -0.57982
O_ O_ 0.236339 0.894027 0.0840276 -0.63271
O_ O_ 0.19473 0.842051 0.0261111 -0.57982
O_ O_ 0.349097 0.843791 0.100735 -0.63271
O_ O_ 0.384459 0.914266 0.0890864 -0.57982
O_ O_ 0.988567 0.907645 0.105132 -0.63271
O_ O_ 0.452813 0.959723 0.162638 -0.57982
O_ O_ 0.101321 0.904293 0.148249 -0.63271
O_ O_ 0.124498 0.910607 0.0696969 -0.57982
O_ O_ 0.265055 0.612976 0.408324 -0.63271
O_ O_ 0.295325 0.669924 0.468723 -0.57982
O_ O_ 0.151171 0.649201 0.394288 -0.63271
O_ O_ 0.122121 0.576002 0.407959 -0.57982
F_ F_ 0.418324 0.832384 0.42749 -0.20885
F_ F_ 0.396271 0.818214 0.343748 -0.20885
F_ F_ 0.341 0.810115 0.401172 -0.20885
F_ F_ 0.295521 0.948499 0.333271 -0.20885
F_ F_ 0.29226 0.861982 0.325968 -0.20885
F_ F_ 0.350325 0.897756 0.291549 -0.20885
F_ F_ 0.0707885 0.676289 0.0695495 -0.20885
F_ F_ 0.0686218 0.681691 0.152602 -0.20885
F_ F_ 0.136714 0.695873 0.115292 -0.20885
F_ F_ 0.177739 0.56008 0.176815 -0.20885
F_ F_ 0.163961 0.642056 0.192083 -0.20885
F_ F_ 0.104667 0.589075 0.203554 -0.20885
Zn Zn 0.0898822 0.587739 0.851969 0.83971
Zn Zn 0.160136 0.848988 0.592948 0.83971
Zn Zn 0.409987 0.914416 0.6632 0.83971
Zn Zn 0.341063 0.651674 0.923434 0.83971
H_ H_ 0.170757 0.637044 0.806801 0.10394
H_ H_ 0.243937 0.602386 0.765511 0.10394
H_ H_ 0.215957 0.939415 0.798011 0.10394
H_ H_ 0.127032 0.486215 0.820081 0.10394
H_ H_ 0.518085 0.595813 0.744861 0.10394
H_ H_ 0.480785 0.673835 0.703994 0.10394
H_ H_ 0.0122374 0.767908 0.848907 0.10394
H_ H_ 0.0697048 0.697624 0.889067 0.10394
H_ H_ 0.0354482 0.944302 0.886382 0.10394
H_ H_ 0.489316 0.886326 0.905298 0.10394
H_ H_ 0.347779 0.989032 0.890774 0.10394
H_ H_ 0.0852973 0.802189 0.647256 0.10394
H_ H_ 0.513215 0.765944 0.601746 0.10394
H_ H_ 0.0292802 0.790528 0.94367 0.10394
H_ H_ 0.116441 0.822254 0.494916 0.10394
H_ H_ 0.228574 0.75701 0.601133 0.10394
H_ H_ 0.264498 0.701398 0.674262 0.10394
H_ H_ 0.209321 0.824503 0.776448 0.10394
H_ H_ 0.163376 0.867992 0.701764 0.10394
H_ H_ 0.21669 0.870257 0.937049 0.10394
H_ H_ 0.276928 0.874638 0.877727 0.10394
H_ H_ 0.395266 0.900366 0.993194 0.10394
H_ H_ 0.311157 0.894784 0.664176 0.10394
H_ H_ 0.229552 0.940249 0.695801 0.10394
H_ H_ 0.327863 0.545526 0.780617 0.10394
H_ H_ 0.40088 0.006170000000000009 0.733569 0.10394
H_ H_ 0.0118486 0.887656 0.705894 0.10394
H_ H_ 0.0555547 0.817932 0.751309 0.10394
H_ H_ 0.411356 0.756198 0.753612 0.10394
H_ H_ 0.368773 0.831816 0.711554 0.10394
H_ H_ 0.470063 0.547059 0.630835 0.10394
H_ H_ 0.0222517 0.613441 0.62082 0.10394
H_ H_ 0.146393 0.501377 0.576924 0.10394
H_ H_ 0.445689 0.656375 0.906853 0.10394
H_ H_ 0.0113551 0.695997 0.948472 0.10394
H_ H_ 0.419457 0.786648 0.550591 0.10394
H_ H_ 0.347669 0.731579 0.0131492 0.10394
H_ H_ 0.238963 0.700586 0.896772 0.10394
H_ H_ 0.199035 0.753109 0.821518 0.10394
H_ H_ 0.334381 0.712869 0.746106 0.10394
H_ H_ 0.378681 0.680254 0.832454 0.10394
H_ H_ 0.292242 0.606164 0.549026 0.10394
H_ H_ 0.234341 0.592366 0.613003 0.10394
H_ H_ 0.112312 0.58142 0.505194 0.10394
C_ C_ 0.178381 0.59547 0.801515 0.18167
C_ C_ 0.222095 0.574309 0.781611 -0.15533
C_ C_ 0.232137 0.521774 0.773555 0.02923
C_ C_ 0.202521 0.979524 0.794452 -0.15533
C_ C_ 0.156609 0.511197 0.813814 0.18167
C_ C_ 0.0360682 0.639202 0.773256 0.18167
C_ C_ 0.506141 0.676833 0.738705 -0.15533
C_ C_ 0.0134347 0.730388 0.77174 0.02923
C_ C_ 0.0241723 0.733594 0.825868 -0.15533
C_ C_ 0.0523111 0.691367 0.849326 0.18167
C_ C_ 0.00714786 0.549189 0.867549 0.69207
C_ C_ 0.470124 0.011331 0.874597 0.02923
C_ C_ 0.493894 0.96607 0.894461 -0.15533
C_ C_ 0.467014 0.923478 0.897977 -0.15533
C_ C_ 0.412041 0.9291 0.896863 0.02923
C_ C_ 0.388594 0.979549 0.889211 -0.15533
C_ C_ 0.417125 0.0207381 0.880516 0.02923
C_ C_ 0.398146 0.570683 0.884459 0.69207
C_ C_ 0.409747 0.830181 0.897558 0.69661
C_ C_ 0.0762661 0.795962 0.606581 0.18167
C_ C_ 0.0271249 0.781422 0.586084 -0.15533
C_ C_ 0.018752 0.768393 0.534507 0.02923
C_ C_ 0.0415184 0.78691 0.983612 -0.15533
C_ C_ 0.0966297 0.804624 0.520724 0.18167
C_ C_ 0.227311 0.769744 0.639461 0.18167
C_ C_ 0.243141 0.738866 0.680035 -0.15533
C_ C_ 0.238813 0.759012 0.731172 0.02923
C_ C_ 0.211188 0.808344 0.738966 -0.15533
C_ C_ 0.191663 0.834214 0.69614 0.18167
C_ C_ 0.242265 0.868103 0.554169 0.69207
C_ C_ 0.274872 0.871604 0.00346145 0.02923
C_ C_ 0.256626 0.874517 0.950773 -0.15533
C_ C_ 0.289771 0.882793 0.915003 -0.15533
C_ C_ 0.340641 0.891129 0.928002 0.02923
C_ C_ 0.356101 0.892549 0.980121 -0.15533
C_ C_ 0.324627 0.884281 0.0185313 0.02923
C_ C_ 0.352164 0.885528 0.576704 0.69207
C_ C_ 0.361624 0.87919 0.833036 0.69661
C_ C_ 0.31237 0.928467 0.689359 0.18167
C_ C_ 0.268467 0.952545 0.709792 -0.15533
C_ C_ 0.275689 0.992579 0.745687 0.02923
C_ C_ 0.321263 0.515852 0.75255 -0.15533
C_ C_ 0.367392 0.987653 0.733046 0.18167
C_ C_ 0.492884 0.841386 0.69028 0.18167
C_ C_ 0.0139456 0.817162 0.739711 -0.15533
C_ C_ 0.487568 0.769881 0.7403 0.02923
C_ C_ 0.433026 0.780973 0.737196 -0.15533
C_ C_ 0.411333 0.821567 0.711469 0.18167
C_ C_ 0.489637 0.948047 0.621468 0.69207
C_ C_ 0.0228255 0.486373 0.603193 0.02923
C_ C_ 1.0049657 0.538317 0.61349 -0.15533
C_ C_ 0.038483 0.576433 0.61081 -0.15533
C_ C_ 0.0892797 0.564902 0.599499 0.02923
C_ C_ 0.107318 0.512438 0.590161 -0.15533
C_ C_ 0.0750971 0.473214 0.59303 0.02923
C_ C_ 0.0986416 0.927042 0.613012 0.69207
C_ C_ 0.103717 0.664197 0.600414 0.69661
C_ C_ 0.439067 0.680003 0.942817 0.18167
C_ C_ 0.482691 0.694948 0.97344 -0.15533
C_ C_ 0.475637 0.731392 0.0122215 0.02923
C_ C_ 0.42571 0.762074 0.51752 -0.15533
C_ C_ 0.383964 0.722941 0.998047 0.18167
C_ C_ 0.26019 0.706077 0.864291 0.18167
C_ C_ 0.235231 0.730553 0.820196 -0.15533
C_ C_ 0.263073 0.731081 0.777082 0.02923
C_ C_ 0.316395 0.712873 0.780637 -0.15533
C_ C_ 0.337106 0.690875 0.826424 0.18167
C_ C_ 0.26267 0.622209 0.961486 0.69207
C_ C_ 0.227128 0.621695 0.490926 0.02923
C_ C_ 0.24886 0.612782 0.540541 -0.15533
C_ C_ 0.217324 0.600565 0.577113 -0.15533
C_ C_ 0.165739 0.598408 0.566163 0.02923
C_ C_ 0.148012 0.594352 0.513787 -0.15533
C_ C_ 0.175521 0.612363 0.476928 0.02923
C_ C_ 0.150499 0.609077 0.929998 0.69207
C_ C_ 0.148391 0.602963 0.662322 0.69661
C_ C_ 0.381299 0.883398 0.888549 -0.30787
C_ C_ 0.127421 0.607589 0.606172 -0.30787
N_ N_ 0.145276 0.563959 0.81674 -0.32189
N_ N_ 0.0554717 0.646032 0.823921 -0.32189
N_ N_ 0.108347 0.811407 0.572456 -0.32189
N_ N_ 0.198423 0.815683 0.648405 -0.32189
N_ N_ 0.358515 0.944595 0.702803 -0.32189
N_ N_ 0.441133 0.85223 0.689816 -0.32189
N_ N_ 0.39032 0.69443 0.955819 -0.32189
N_ N_ 0.309276 0.685453 0.865345 -0.32189
O_ O_ 0.501668 0.586609 0.882005 -0.63271
O_ O_ 0.0437199 0.543726 0.839058 -0.57982
O_ O_ 0.396176 0.59568 0.842154 -0.63271
O_ O_ 0.37453 0.589632 0.924037 -0.57982
O_ O_ 0.245072 0.894215 0.598091 -0.63271
O_ O_ 0.202091 0.841574 0.542048 -0.57982
O_ O_ 0.35814 0.843293 0.601097 -0.63271
O_ O_ 0.377036 0.923512 0.597125 -0.57982
O_ O_ 0.983493 0.91096 0.587424 -0.63271
O_ O_ 0.458879 0.957615 0.658258 -0.57982
O_ O_ 0.092689 0.901642 0.653845 -0.63271
O_ O_ 0.139285 0.912289 0.589905 -0.57982
O_ O_ 0.255753 0.600922 0.916025 -0.63271
O_ O_ 0.297526 0.651841 0.971282 -0.57982
O_ O_ 0.148747 0.65048 0.906199 -0.63271
O_ O_ 0.118189 0.578487 0.912043 -0.57982
F_ F_ 0.439359 0.831559 0.946672 -0.20885
F_ F_ 0.443934 0.816369 0.859562 -0.20885
F_ F_ 0.37873 0.793142 0.90042 -0.20885
F_ F_ 0.32778 0.919169 0.823098 -0.20885
F_ F_ 0.339862 0.835098 0.817254 -0.20885
F_ F_ 0.400434 0.887698 0.80184 -0.20885
F_ F_ 0.0741358 0.666087 0.552986 -0.20885
F_ F_ 0.0743667 0.685269 0.637556 -0.20885
F_ F_ 0.14261 0.693677 0.599405 -0.20885
F_ F_ 0.173699 0.555133 0.668461 -0.20885
F_ F_ 0.181195 0.637746 0.674808 -0.20885
F_ F_ 0.111335 0.607656 0.6949 -0.20885
Zn Zn 0.580523 0.0878498 0.345812 0.83971
Zn Zn 0.666618 0.342048 0.0764642 0.83971
Zn Zn 0.906552 0.413543 0.150846 0.83971
Zn Zn 0.840494 0.157061 0.412263 0.83971
H_ H_ 0.648386 0.130076 0.292641 0.10394
H_ H_ 0.734242 0.102394 0.266289 0.10394
H_ H_ 0.700092 0.449459 0.278725 0.10394
H_ H_ 0.632951 0.985031 0.338775 0.10394
H_ H_ 0.0281035 0.099372 0.25775 0.10394
H_ H_ 0.981411 0.165421 0.211943 0.10394
H_ H_ 0.526147 0.27072 0.33997 0.10394
H_ H_ 0.568325 0.192141 0.382031 0.10394
H_ H_ 0.53225 0.454396 0.370058 0.10394
H_ H_ 0.986183 0.379233 0.371269 0.10394
H_ H_ 0.869309 0.487189 0.427462 0.10394
H_ H_ 0.582217 0.30067 0.132563 0.10394
H_ H_ 0.987067 0.277549 0.0932047 0.10394
H_ H_ 0.52991 0.300987 0.442404 0.10394
H_ H_ 0.607466 0.340747 0.986013 0.10394
H_ H_ 0.716947 0.248665 0.0932105 0.10394
H_ H_ 0.745683 0.195145 0.166946 0.10394
H_ H_ 0.715153 0.333431 0.26209 0.10394
H_ H_ 0.68165 0.378665 0.188035 0.10394
H_ H_ 0.7202 0.369125 0.445468 0.10394
H_ H_ 0.773328 0.368221 0.376171 0.10394
H_ H_ 0.903861 0.399522 0.485478 0.10394
H_ H_ 0.797718 0.39923 0.15168 0.10394
H_ H_ 0.72483 0.451088 0.190374 0.10394
H_ H_ 0.831215 0.0447328 0.295572 0.10394
H_ H_ 0.900411 0.494407 0.231393 0.10394
H_ H_ 0.511091 0.388787 0.197369 0.10394
H_ H_ 0.552672 0.314195 0.244213 0.10394
H_ H_ 0.909886 0.239635 0.219371 0.10394
H_ H_ 0.868462 0.32013 0.177261 0.10394
H_ H_ 0.963108 0.0595394 0.12815 0.10394
H_ H_ 0.515513 0.116249 0.096684 0.10394
H_ H_ 0.643414 -0.0008759999999999879 0.0867621 0.10394
H_ H_ 0.940205 0.171548 0.383022 0.10394
H_ H_ 0.516689 0.197443 0.451965 0.10394
H_ H_ 0.913539 0.276197 0.0333481 0.10394
H_ H_ 0.849873 0.227265 0.5044 0.10394
H_ H_ 0.728866 0.183875 0.371786 0.10394
H_ H_ 0.690203 0.22251 0.294035 0.10394
H_ H_ 0.836505 0.232072 0.245354 0.10394
H_ H_ 0.875624 0.181477 0.31777 0.10394
H_ H_ 0.782786 0.0923749 0.0399399 0.10394
H_ H_ 0.730028 0.090233 0.10591 0.10394
H_ H_ 0.598896 0.0888227 -0.00131142 0.10394
C_ C_ 0.665556 0.090883 0.297041 0.18167
C_ C_ 0.712538 0.0736023 0.27835 -0.15533
C_ C_ 0.731371 0.0221426 0.280343 0.02923
C_ C_ 0.693642 0.490511 0.277061 -0.15533
C_ C_ 0.654894 0.00822982 0.318344 0.18167
C_ C_ 0.528028 0.143428 0.26844 0.18167
C_ C_ -0.0049247 0.176074 0.250068 -0.15533
C_ C_ 0.50663 0.235749 0.268477 0.02923
C_ C_ 0.535513 0.238423 0.3178 -0.15533
C_ C_ 0.558847 0.193284 0.341219 0.18167
C_ C_ 0.501431 0.0480409 0.35841 0.69207
C_ C_ 0.977639 0.509998 0.376336 0.02923
C_ C_ 0.998235 0.456944 0.368233 -0.15533
C_ C_ 0.968528 0.418656 0.377754 -0.15533
C_ C_ 0.919303 0.429487 0.39272 0.02923
C_ C_ 0.904556 0.478362 0.409972 -0.15533
C_ C_ 0.931033 0.518924 0.39706 0.02923
C_ C_ 0.898439 0.0718868 0.390218 0.69207
C_ C_ 0.906534 0.332816 0.377238 0.69661
C_ C_ 0.571683 0.303607 0.0915336 0.18167
C_ C_ 0.525054 0.287588 0.0747882 -0.15533
C_ C_ 0.510154 0.279283 0.0230929 0.02923
C_ C_ 0.544455 0.296495 0.481568 -0.15533
C_ C_ 0.587052 0.317853 0.00792746 0.18167
C_ C_ 0.71994 0.266258 0.128091 0.18167
C_ C_ 0.737009 0.23704 0.169645 -0.15533
C_ C_ 0.738257 0.262219 0.219311 0.02923
C_ C_ 0.720287 0.313961 0.226322 -0.15533
C_ C_ 0.69806 0.340646 0.18239 0.18167
C_ C_ 0.737431 0.3684 0.0327075 0.69207
C_ C_ 0.779377 0.377742 0.503403 0.02923
C_ C_ 0.760326 0.378455 0.452846 -0.15533
C_ C_ 0.792345 0.377716 0.41377 -0.15533
C_ C_ 0.843037 0.390104 0.425295 0.02923
C_ C_ 0.862842 0.393543 0.476694 -0.15533
C_ C_ 0.831443 0.383098 0.516234 0.02923
C_ C_ 0.851234 0.381621 0.0642416 0.69207
C_ C_ 0.850386 0.40335 0.332255 0.69661
C_ C_ 0.803307 0.435571 0.171606 0.18167
C_ C_ 0.764492 0.459118 0.197446 -0.15533
C_ C_ 0.775469 0.497191 0.236001 0.02923
C_ C_ 0.82607 0.0105294 0.267177 -0.15533
C_ C_ 0.86241 0.485322 0.220796 0.18167
C_ C_ 0.984733 0.356817 0.211249 0.18167
C_ C_ 0.514485 0.313134 0.223616 -0.15533
C_ C_ 0.979052 0.272219 0.237962 0.02923
C_ C_ 0.930015 0.273404 0.213052 -0.15533
C_ C_ 0.909595 0.316448 0.188429 0.18167
C_ C_ 0.982928 0.453514 0.121921 0.69207
C_ C_ 0.518749 0.989613 0.115421 0.02923
C_ C_ 0.502985 0.0445203 0.116874 -0.15533
C_ C_ 0.532025 0.0765446 0.0942077 -0.15533
C_ C_ 0.584684 0.0637088 0.0913934 0.02923
C_ C_ 0.602237 0.0106587 0.0939031 -0.15533
C_ C_ 0.56976 0.973687 0.10305 0.02923
C_ C_ 0.599547 0.42244 0.106187 0.69207
C_ C_ 0.596789 0.157845 0.112193 0.69661
C_ C_ 0.937139 0.190985 0.421955 0.18167
C_ C_ 0.978934 0.213115 0.444583 -0.15533
C_ C_ 0.975154 0.245821 0.48846 0.02923
C_ C_ 0.921436 0.248349 0.00400916 -0.15533
C_ C_ 0.884769 0.227302 0.483117 0.18167
C_ C_ 0.754622 0.190587 0.343081 0.18167
C_ C_ 0.732499 0.21759 0.3024 -0.15533
C_ C_ 0.761153 0.233339 0.267017 0.02923
C_ C_ 0.814169 0.22518 0.274574 -0.15533
C_ C_ 0.835598 0.193371 0.312769 0.18167
C_ C_ 0.766643 0.119826 0.450875 0.69207
C_ C_ 0.720073 0.103367 0.979868 0.02923
C_ C_ 0.741008 0.1004 0.0303563 -0.15533
C_ C_ 0.710598 0.102705 0.0710894 -0.15533
C_ C_ 0.656765 0.100862 0.0596652 0.02923
C_ C_ 0.636231 0.098682 0.00893975 -0.15533
C_ C_ 0.66737 0.104079 0.971222 0.02923
C_ C_ 0.650322 0.104159 0.42252 0.69207
C_ C_ 0.650852 0.0888833 0.1565 0.69661
C_ C_ 0.879456 0.388995 0.382011 -0.30787
C_ C_ 0.622844 0.102172 0.102845 -0.30787
N_ N_ 0.635875 0.0569956 0.312446 -0.32189
N_ N_ 0.553889 0.148249 0.315127 -0.32189
N_ N_ 0.604882 0.312391 0.0573546 -0.32189
N_ N_ 0.698184 0.316075 0.135218 -0.32189
N_ N_ 0.851019 0.448479 0.184921 -0.32189
N_ N_ 0.937376 0.357599 0.189744 -0.32189
N_ N_ 0.89022 0.200345 0.439617 -0.32189
N_ N_ 0.807197 0.180874 0.349998 -0.32189
O_ O_ 0.00888236 0.0934484 0.408969 -0.63271
O_ O_ 0.541318 0.0349322 0.333641 -0.57982
O_ O_ 0.899543 0.0956915 0.349088 -0.63271
O_ O_ 0.871981 0.0953925 0.426094 -0.57982
O_ O_ 0.741029 0.394381 0.0776204 -0.63271
O_ O_ 0.706417 0.333194 0.0243368 -0.57982
O_ O_ 0.849513 0.33992 0.0887749 -0.63271
O_ O_ 0.879936 0.417611 0.084527 -0.57982
O_ O_ 0.48487 0.411779 0.0893199 -0.63271
O_ O_ 0.952864 0.458364 0.159551 -0.57982
O_ O_ 0.590473 0.393739 0.141712 -0.63271
O_ O_ 0.635794 0.407349 0.0797891 -0.57982
O_ O_ 0.771756 0.09162 0.408358 -0.63271
O_ O_ 0.79461 0.158943 0.458365 -0.57982
O_ O_ 0.653227 0.145014 0.39787 -0.63271
O_ O_ 0.613179 0.0768572 0.410473 -0.57982
F_ F_ 0.942552 0.323593 0.415407 -0.20885
F_ F_ 0.93122 0.318763 0.332965 -0.20885
F_ F_ 0.869808 0.300641 0.377385 -0.20885
F_ F_ 0.820842 0.45119 0.33609 -0.20885
F_ F_ 0.820007 0.365557 0.309586 -0.20885
F_ F_ 0.881741 0.409586 0.294695 -0.20885
F_ F_ 0.564899 0.170992 0.0692523 -0.20885
F_ F_ 0.572543 0.161672 0.155057 -0.20885
F_ F_ 0.62967 0.194962 0.121306 -0.20885
F_ F_ 0.685643 0.0453325 0.157299 -0.20885
F_ F_ 0.677097 0.126005 0.179136 -0.20885
F_ F_ 0.617866 0.0788641 0.19089 -0.20885
Zn Zn 0.58698 0.081556 0.834063 0.83971
Zn Zn 0.663053 0.343236 0.576513 0.83971
Zn Zn 0.910101 0.415949 0.65008 0.83971
Zn Zn 0.836398 0.146805 0.911778 0.83971
H_ H_ 0.660182 0.126145 0.788883 0.10394
H_ H_ 0.741159 0.0891299 0.752806 0.10394
H_ H_ 0.705376 0.443365 0.786067 0.10394
H_ H_ 0.644386 0.980124 0.836498 0.10394
H_ H_ 0.0190934 0.0944785 0.753652 0.10394
H_ H_ 0.989231 0.167189 0.696311 0.10394
H_ H_ 0.53467 0.261906 0.832701 0.10394
H_ H_ 0.554288 0.179608 0.877496 0.10394
H_ H_ 0.532602 0.439816 0.880516 0.10394
H_ H_ 0.987161 0.377012 0.88428 0.10394
H_ H_ 0.858514 0.487679 0.903661 0.10394
H_ H_ 0.587995 0.293757 0.627512 0.10394
H_ H_ 0.00210503 0.270397 0.586858 0.10394
H_ H_ 0.528911 0.30017 0.948565 0.10394
H_ H_ 0.614843 0.327015 0.47781 0.10394
H_ H_ 0.718934 0.241873 0.593642 0.10394
H_ H_ 0.763613 0.199382 0.667733 0.10394
H_ H_ 0.726201 0.333947 0.761486 0.10394
H_ H_ 0.685048 0.378687 0.680552 0.10394
H_ H_ 0.721228 0.357043 0.92361 0.10394
H_ H_ 0.775665 0.372289 0.867273 0.10394
H_ H_ 0.891109 0.418303 0.985333 0.10394
H_ H_ 0.80615 0.394945 0.657657 0.10394
H_ H_ 0.73116 0.444456 0.691829 0.10394
H_ H_ 0.832653 0.0376514 0.788798 0.10394
H_ H_ 0.90054 0.501139 0.725723 0.10394
H_ H_ 0.503075 0.396144 0.72744 0.10394
H_ H_ 0.544285 0.315434 0.765973 0.10394
H_ H_ 0.913892 0.253174 0.730632 0.10394
H_ H_ 0.875444 0.333388 0.692269 0.10394
H_ H_ 0.957903 0.0508241 0.613042 0.10394
H_ H_ 0.520053 0.115291 0.624011 0.10394
H_ H_ 0.63972 0.000775389 0.577556 0.10394
H_ H_ 0.939488 0.16063 0.886661 0.10394
H_ H_ 0.518408 0.191122 0.964688 0.10394
H_ H_ 0.91941 0.271436 0.543168 0.10394
H_ H_ 0.844596 0.228246 -0.007319999999999993 0.10394
H_ H_ 0.746117 0.214698 0.891402 0.10394
H_ H_ 0.701456 0.248162 0.8094 0.10394
H_ H_ 0.845634 0.224476 0.743486 0.10394
H_ H_ 0.880754 0.171479 0.81759 0.10394
H_ H_ 0.782516 0.132785 0.54989 0.10394
H_ H_ 0.733778 0.111192 0.616225 0.10394
H_ H_ 0.607783 0.0817834 0.501212 0.10394
C_ C_ 0.674666 0.0867618 0.791858 0.18167
C_ C_ 0.722799 0.0681362 0.774129 -0.15533
C_ C_ 0.737489 0.0153613 0.773206 0.02923
C_ C_ 0.699187 0.485145 0.788378 -0.15533
C_ C_ 0.661229 0.00317161 0.810997 0.18167
C_ C_ 0.531436 0.135276 0.7558 0.18167
C_ C_ 0.00618983 0.176298 0.735394 -0.15533
C_ C_ 0.505292 0.224794 0.762415 0.02923
C_ C_ 0.530794 0.226789 0.811268 -0.15533
C_ C_ 0.546268 0.181675 0.83529 0.18167
C_ C_ 0.506313 0.0458902 0.858723 0.69207
C_ C_ 0.976042 0.508118 0.872716 0.02923
C_ C_ 0.999363 0.45675 0.87478 -0.15533
C_ C_ 0.97011 0.415919 0.885345 -0.15533
C_ C_ 0.918563 0.427218 0.893516 0.02923
C_ C_ 0.90022 0.479119 0.901411 -0.15533
C_ C_ 0.92549 0.517986 0.886415 0.02923
C_ C_ 0.892086 0.0626474 0.878169 0.69207
C_ C_ 0.906089 0.329589 0.886217 0.69661
C_ C_ 0.577235 0.293728 0.586919 0.18167
C_ C_ 0.528681 0.281713 0.566695 -0.15533
C_ C_ 0.512959 0.279268 0.514667 0.02923
C_ C_ 0.540057 0.298038 0.990149 -0.15533
C_ C_ 0.589013 0.317401 0.505212 0.18167
C_ C_ 0.716232 0.262484 0.631426 0.18167
C_ C_ 0.74284 0.236974 0.673892 -0.15533
C_ C_ 0.74391 0.262596 0.72154 0.02923
C_ C_ 0.726221 0.313345 0.724554 -0.15533
C_ C_ 0.697442 0.336644 0.681644 0.18167
C_ C_ 0.744544 0.364224 0.54023 0.69207
C_ C_ 0.774047 0.37766 0.994883 0.02923
C_ C_ 0.758118 0.371208 0.939668 -0.15533
C_ C_ 0.79244 0.380033 0.904206 -0.15533
C_ C_ 0.841891 0.393146 0.919651 0.02923
C_ C_ 0.856725 0.39898 0.973511 -0.15533
C_ C_ 0.825223 0.388779 0.0105871 0.02923
C_ C_ 0.855584 0.384041 0.568631 0.69207
C_ C_ 0.857953 0.390533 0.825656 0.69661
C_ C_ 0.811178 0.428079 0.680794 0.18167
C_ C_ 0.770449 0.452926 0.704987 -0.15533
C_ C_ 0.776576 0.492656 0.742561 0.02923
C_ C_ 0.826247 0.00947098 0.75621 -0.15533
C_ C_ 0.863362 0.486724 0.721133 0.18167
C_ C_ 0.997935 0.348559 0.687662 0.18167
C_ C_ 0.506452 0.315253 0.742801 -0.15533
C_ C_ 0.989483 0.26936 0.724639 0.02923
C_ C_ 0.937669 0.281129 0.718264 -0.15533
C_ C_ 0.915935 0.324181 0.693409 0.18167
C_ C_ 0.989758 0.447582 0.612779 0.69207
C_ C_ 0.521615 0.98692 0.609439 0.02923
C_ C_ 0.502108 0.0392863 0.607518 -0.15533
C_ C_ 0.534395 0.0775349 0.608301 -0.15533
C_ C_ 0.586528 0.0648547 0.599573 0.02923
C_ C_ 0.602904 0.0128479 0.591225 -0.15533
C_ C_ 0.573868 0.97438 0.604931 0.02923
C_ C_ 0.599348 0.418404 0.605778 0.69207
C_ C_ 0.601863 0.161941 0.593156 0.69661
C_ C_ 0.937106 0.180306 0.921743 0.18167
C_ C_ 0.977344 0.202091 0.946244 -0.15533
C_ C_ 0.968293 0.242371 -0.014985000000000026 0.02923
C_ C_ 0.927537 0.248418 0.510308 -0.15533
C_ C_ 0.883147 0.217695 0.98202 0.18167
C_ C_ 0.765641 0.216142 0.854363 0.18167
C_ C_ 0.740531 0.233367 0.809329 -0.15533
C_ C_ 0.768231 0.236534 0.767519 0.02923
C_ C_ 0.820849 0.214096 0.771077 -0.15533
C_ C_ 0.843154 0.192873 0.817321 0.18167
C_ C_ 0.757025 0.115814 0.943501 0.69207
C_ C_ 0.729123 0.110818 0.486318 0.02923
C_ C_ 0.747903 0.115868 0.539649 -0.15533
C_ C_ 0.71741 0.110399 0.577733 -0.15533
C_ C_ 0.667474 0.0980037 0.565303 0.02923
C_ C_ 0.647814 0.0894104 0.512883 -0.15533
C_ C_ 0.678785 0.0960761 0.473956 0.02923
C_ C_ 0.6476 0.105029 0.914836 0.69207
C_ C_ 0.65054 0.105622 0.659947 0.69661
C_ C_ 0.881425 0.384424 0.881874 -0.30787
C_ C_ 0.627041 0.105521 0.604174 -0.30787
N_ N_ 0.644003 0.0535515 0.804651 -0.32189
N_ N_ 0.552426 0.139109 0.804919 -0.32189
N_ N_ 0.607912 0.308305 0.553358 -0.32189
N_ N_ 0.69119 0.309629 0.636875 -0.32189
N_ N_ 0.858141 0.44478 0.691061 -0.32189
N_ N_ 0.945913 0.357563 0.677211 -0.32189
N_ N_ 0.891772 0.183372 0.94347 -0.32189
N_ N_ 0.813361 0.189557 0.856103 -0.32189
O_ O_ 0.00039055 0.0903119 0.895238 -0.63271
O_ O_ 0.545153 0.0293951 0.835246 -0.57982
O_ O_ 0.902413 0.0899685 0.841845 -0.63271
O_ O_ 0.855973 0.0811813 0.906763 -0.57982
O_ O_ 0.745458 0.384504 0.586156 -0.63271
O_ O_ 0.705505 0.338366 0.526909 -0.57982
O_ O_ 0.857911 0.344584 0.595631 -0.63271
O_ O_ 0.877946 0.422795 0.586436 -0.57982
O_ O_ 0.482317 0.41191 0.596453 -0.63271
O_ O_ 0.957913 0.458369 0.647596 -0.57982
O_ O_ 0.600446 0.390011 0.644683 -0.63271
O_ O_ 0.634254 0.406304 0.574122 -0.57982
O_ O_ 0.745772 0.112937 0.8939 -0.63271
O_ O_ 0.792191 0.144893 0.95923 -0.57982
O_ O_ 0.642581 0.146585 0.889642 -0.63271
O_ O_ 0.617486 0.0722393 0.899172 -0.57982
F_ F_ 0.937977 0.327366 0.93176 -0.20885
F_ F_ 0.935345 0.316798 0.845692 -0.20885
F_ F_ 0.870755 0.293964 0.88039 -0.20885
F_ F_ 0.822286 0.431116 0.819182 -0.20885
F_ F_ 0.83539 0.34814 0.804932 -0.20885
F_ F_ 0.901088 0.392171 0.795366 -0.20885
F_ F_ 0.566145 0.165279 0.549752 -0.20885
F_ F_ 0.577475 0.18462 0.632647 -0.20885
F_ F_ 0.637317 0.194712 0.583208 -0.20885
F_ F_ 0.682618 0.0592625 0.662785 -0.20885
F_ F_ 0.677627 0.145717 0.673222 -0.20885
F_ F_ 0.614209 0.106643 0.694214 -0.20885
Zn Zn 0.595422 0.588741 0.35519 0.83971
Zn Zn 0.662293 0.845178 0.0953912 0.83971
Zn Zn 0.905391 0.920716 0.161117 0.83971
Zn Zn 0.846223 0.655565 0.423255 0.83971
H_ H_ 0.682161 0.632672 0.323627 0.10394
H_ H_ 0.747093 0.596859 0.257942 0.10394
H_ H_ 0.718754 0.951548 0.309552 0.10394
H_ H_ 0.62151 0.491175 0.305889 0.10394
H_ H_ 0.0324736 0.594821 0.254974 0.10394
H_ H_ 0.99208089 0.666416 0.207116 0.10394
H_ H_ 0.545977 0.779085 0.340023 0.10394
H_ H_ 0.586616 0.705536 0.383584 0.10394
H_ H_ 0.519796 0.942007 0.355541 0.10394
H_ H_ 0.992254 0.881198 0.384912 0.10394
H_ H_ 0.864538 0.984744 0.419936 0.10394
H_ H_ 0.589549 0.787349 0.145397 0.10394
H_ H_ 0.994714 0.771289 0.0941974 0.10394
H_ H_ 0.533706 0.805868 0.447406 0.10394
H_ H_ 0.619749 0.808143 0.993353 0.10394
H_ H_ 0.718107 0.751858 0.112143 0.10394
H_ H_ 0.763019 0.709904 0.186649 0.10394
H_ H_ 0.720294 0.843304 0.282481 0.10394
H_ H_ 0.677646 0.882855 0.204574 0.10394
H_ H_ 0.732783 0.849909 0.43865 0.10394
H_ H_ 0.784553 0.862604 0.374479 0.10394
H_ H_ 0.898255 0.90852 0.488188 0.10394
H_ H_ 0.799257 0.905668 0.158521 0.10394
H_ H_ 0.727794 0.949936 0.203176 0.10394
H_ H_ 0.831999 0.537352 0.28222 0.10394
H_ H_ 0.903625 0.999575986 0.245109 0.10394
H_ H_ 0.505978 0.894116 0.208393 0.10394
H_ H_ 0.548833 0.822809 0.261012 0.10394
H_ H_ 0.909978 0.74913 0.23264 0.10394
H_ H_ 0.869305 0.829822 0.200385 0.10394
H_ H_ 0.958063 0.552848 0.125407 0.10394
H_ H_ 0.523575 0.613267 0.0950653 0.10394
H_ H_ 0.6479 0.500074 0.0892543 0.10394
H_ H_ 0.949542 0.663611 0.404045 0.10394
H_ H_ 0.517278 0.703648 0.446628 0.10394
H_ H_ 0.90488 0.780932 0.0421133 0.10394
H_ H_ 0.847702 0.73514 0.504266 0.10394
H_ H_ 0.746667 0.721106 0.409132 0.10394
H_ H_ 0.698869 0.763329 0.335798 0.10394
H_ H_ 0.836588 0.733283 0.259124 0.10394
H_ H_ 0.876021 0.681203 0.330507 0.10394
H_ H_ 0.790782 0.614141 0.0412214 0.10394
H_ H_ 0.740042 0.590741 0.109296 0.10394
H_ H_ 0.608195 0.591535 0.00374496 0.10394
C_ C_ 0.683715 0.594007 0.30672 0.18167
C_ C_ 0.722323 0.573795 0.274573 -0.15533
C_ C_ 0.730998 0.521179 0.262718 0.02923
C_ C_ 0.701487 0.988965 0.300518 -0.15533
C_ C_ 0.65173 0.514079 0.298983 0.18167
C_ C_ 0.540456 0.64163 0.277181 0.18167
C_ C_ 0.00891368 0.676366 0.245326 -0.15533
C_ C_ 0.509407 0.731129 0.276014 0.02923
C_ C_ 0.538376 0.739692 0.322577 -0.15533
C_ C_ 0.567194 0.697173 0.347328 0.18167
C_ C_ 0.508151 0.557427 0.36923 0.69207
C_ C_ 0.982013 0.0093162 0.394311 0.02923
C_ C_ 0.00344869 0.959704 0.396429 -0.15533
C_ C_ 0.972312 0.9194 0.389779 -0.15533
C_ C_ 0.921221 0.928189 0.395036 0.02923
C_ C_ 0.899653 0.977899 0.403439 -0.15533
C_ C_ 0.927155 0.02003 0.398565 0.02923
C_ C_ 0.900736 0.568164 0.392007 0.69207
C_ C_ 0.91223 0.827292 0.38345 0.69661
C_ C_ 0.578036 0.788351 0.106082 0.18167
C_ C_ 0.531192 0.773364 0.088043 -0.15533
C_ C_ 0.518732 0.759467 0.0355587 0.02923
C_ C_ 0.547603 0.800766 0.486449 -0.15533
C_ C_ 0.594697 0.795861 0.0203613 0.18167
C_ C_ 0.718784 0.771379 0.150721 0.18167
C_ C_ 0.741381 0.746679 0.19307 -0.15533
C_ C_ 0.736224 0.770965 0.242755 0.02923
C_ C_ 0.713696 0.820321 0.247114 -0.15533
C_ C_ 0.692804 0.845301 0.203213 0.18167
C_ C_ 0.74229 0.866178 0.0502247 0.69207
C_ C_ 0.785514 0.864823 0.501464 0.02923
C_ C_ 0.771484 0.856563 0.449575 -0.15533
C_ C_ 0.799009 0.871342 0.413751 -0.15533
C_ C_ 0.849716 0.880619 0.425898 0.02923
C_ C_ 0.864779 0.889551 0.477522 -0.15533
C_ C_ 0.836079 0.878288 0.516032 0.02923
C_ C_ 0.849445 0.88216 0.0761348 0.69207
C_ C_ 0.862465 0.890648 0.329898 0.69661
C_ C_ 0.805495 0.936237 0.188876 0.18167
C_ C_ 0.767355 0.957841 0.216064 -0.15533
C_ C_ 0.775403 0.99762 0.252655 0.02923
C_ C_ 0.8235 0.512989 0.246793 -0.15533
C_ C_ 0.863959 0.98647 0.238843 0.18167
C_ C_ 0.987862 0.853402 0.202915 0.18167
C_ C_ 0.511165 0.819469 0.241756 -0.15533
C_ C_ 0.987659 0.769938 0.234874 0.02923
C_ C_ 0.934521 0.776482 0.220743 -0.15533
C_ C_ 0.909406 0.820605 0.195083 0.18167
C_ C_ 0.983368 0.955051 0.124122 0.69207
C_ C_ 0.523316 0.491442 0.108115 0.02923
C_ C_ 0.511738 0.543682 0.121283 -0.15533
C_ C_ 0.541783 0.577202 0.105732 -0.15533
C_ C_ 0.593542 0.562916 0.0989074 0.02923
C_ C_ 0.608164 0.512019 0.0920769 -0.15533
C_ C_ 0.574531 0.474294 0.0984695 0.02923
C_ C_ 0.592613 0.91979 0.105771 0.69207
C_ C_ 0.604628 0.659248 0.10208 0.69661
C_ C_ 0.945285 0.679011 0.441723 0.18167
C_ C_ 0.986442 0.698513 0.471681 -0.15533
C_ C_ 0.977106 0.737787 0.511914 0.02923
C_ C_ 0.915932 0.753537 1.0115449 -0.15533
C_ C_ 0.887205 0.728685 0.494721 0.18167
C_ C_ 0.763676 0.718191 0.372933 0.18167
C_ C_ 0.736485 0.745196 0.33138 -0.15533
C_ C_ 0.761665 0.74528 0.287095 0.02923
C_ C_ 0.812752 0.723214 0.287083 -0.15533
C_ C_ 0.836653 0.696678 0.329884 0.18167
C_ C_ 0.767736 0.624192 0.460567 0.69207
C_ C_ 0.730471 0.607751 0.98368 0.02923
C_ C_ 0.751902 0.603109 0.033618 -0.15533
C_ C_ 0.720792 0.591868 0.0715187 -0.15533
C_ C_ 0.668056 0.591697 0.0618648 0.02923
C_ C_ 0.64802 0.589143 0.0116741 -0.15533
C_ C_ 0.678755 0.596316 0.971898 0.02923
C_ C_ 0.660866 0.598389 0.432285 0.69207
C_ C_ 0.657755 0.597152 0.157618 0.69661
C_ C_ 0.887502 0.882986 0.387043 -0.30787
C_ C_ 0.631041 0.601767 0.104142 -0.30787
N_ N_ 0.651097 0.563527 0.31962 -0.32189
N_ N_ 0.563476 0.648197 0.325597 -0.32189
N_ N_ 0.607337 0.803691 0.0717907 -0.32189
N_ N_ 0.690539 0.817669 0.156902 -0.32189
N_ N_ 0.852788 0.950181 0.201396 -0.32189
N_ N_ 0.936129 0.858576 0.188171 -0.32189
N_ N_ 0.89868 0.69169 0.456791 -0.32189
N_ N_ 0.811315 0.692031 0.369985 -0.32189
O_ O_ 0.010959 0.592895 0.390704 -0.63271
O_ O_ 0.545996 0.546817 0.341978 -0.57982
O_ O_ 0.897371 0.590495 0.344994 -0.63271
O_ O_ 0.877718 0.591265 0.429755 -0.57982
O_ O_ 0.741976 0.900895 0.0873337 -0.63271
O_ O_ 0.709451 0.831993 0.0490227 -0.57982
O_ O_ 0.848892 0.842065 0.102654 -0.63271
O_ O_ 0.875275 0.918613 0.0949242 -0.57982
O_ O_ 0.485208 0.906846 0.102285 -0.63271
O_ O_ 0.953136 0.966557 0.161064 -0.57982
O_ O_ 0.601506 0.899582 0.150586 -0.63271
O_ O_ 0.621902 0.900385 0.0706861 -0.57982
O_ O_ 0.765381 0.598901 0.417481 -0.63271
O_ O_ 0.798318 0.657738 0.470097 -0.57982
O_ O_ 0.659267 0.641146 0.409066 -0.63271
O_ O_ 0.62218 0.571322 0.419867 -0.57982
F_ F_ 0.950023 0.816923 0.424867 -0.20885
F_ F_ 0.941362 0.817154 0.342593 -0.20885
F_ F_ 0.877857 0.791619 0.375482 -0.20885
F_ F_ 0.823343 0.930752 0.329424 -0.20885
F_ F_ 0.840797 0.849368 0.306716 -0.20885
F_ F_ 0.894763 0.90342 0.296659 -0.20885
F_ F_ 0.573946 0.664675 0.0577606 -0.20885
F_ F_ 0.572951 0.675438 0.139488 -0.20885
F_ F_ 0.641043 0.693304 0.0980156 -0.20885
F_ F_ 0.690197 0.551885 0.164165 -0.20885
F_ F_ 0.688878 0.635443 0.17289 -0.20885
F_ F_ 0.62215 0.60035 0.19309 -0.20885
Zn Zn 0.586583 0.578209 0.841339 0.83971
Zn Zn 0.667325 0.8464 0.576893 0.83971
Zn Zn 0.908957 0.915742 0.654041 0.83971
Zn Zn 0.839278 0.653366 0.908404 0.83971
H_ H_ 0.6754 0.629871 0.813063 0.10394
H_ H_ 0.750342 0.595953 0.766983 0.10394
H_ H_ 0.718033 0.943185 0.795139 0.10394
H_ H_ 0.633152 0.478988 0.826349 0.10394
H_ H_ 0.0356424 0.602969 0.752554 0.10394
H_ H_ 1.00256432 0.67374 0.705724 0.10394
H_ H_ 0.538588 0.759967 0.835245 0.10394
H_ H_ 0.562249 0.679058 0.878005 0.10394
H_ H_ 0.534011 0.957865 0.894907 0.10394
H_ H_ 0.983774 0.874533 0.878581 0.10394
H_ H_ 0.854435 0.982367 0.908259 0.10394
H_ H_ 0.600829 0.797953 0.628012 0.10394
H_ H_ 0.000344273 0.771064 0.610964 0.10394
H_ H_ 0.543492 0.76414 0.960919 0.10394
H_ H_ 0.613488 0.842111 0.48213 0.10394
H_ H_ 0.719645 0.746481 0.588447 0.10394
H_ H_ 0.76044 0.700214 0.662786 0.10394
H_ H_ 0.724944 0.831346 0.761329 0.10394
H_ H_ 0.685803 0.878296 0.686656 0.10394
H_ H_ 0.71905 0.856089 0.950593 0.10394
H_ H_ 0.766192 0.870204 0.883698 0.10394
H_ H_ 0.899861 0.889372 0.997387 0.10394
H_ H_ 0.801863 0.935801 0.628579 0.10394
H_ H_ 0.730639 0.973825 0.678177 0.10394
H_ H_ 0.834278 0.539457 0.778595 0.10394
H_ H_ 0.905001 0.990063 0.745769 0.10394
H_ H_ 0.516346 0.863982 0.671487 0.10394
H_ H_ 0.555806 0.793633 0.717839 0.10394
H_ H_ 0.91208 0.752141 0.741102 0.10394
H_ H_ 0.873667 0.82756 0.696733 0.10394
H_ H_ 0.966944 0.551653 0.625634 0.10394
H_ H_ 0.524668 0.612119 0.617091 0.10394
H_ H_ 0.652961 0.498799 0.611617 0.10394
H_ H_ 0.934794 0.666712 0.893678 0.10394
H_ H_ 0.521093 0.678779 0.966199 0.10394
H_ H_ 0.917177 0.780597 0.553162 0.10394
H_ H_ 0.837649 0.735983 0.996922 0.10394
H_ H_ 0.73388 0.705011 0.882088 0.10394
H_ H_ 0.692714 0.749265 0.807989 0.10394
H_ H_ 0.83263 0.720386 0.738301 0.10394
H_ H_ 0.873121 0.679294 0.81537 0.10394
H_ H_ 0.793987 0.631864 0.56309 0.10394
H_ H_ 0.74106 0.609438 0.627889 0.10394
H_ H_ 0.624528 0.562934 0.511966 0.10394
C_ C_ 0.679386 0.590984 0.79715 0.18167
C_ C_ 0.725926 0.569098 0.780567 -0.15533
C_ C_ 0.735176 0.515179 0.771339 0.02923
C_ C_ 0.7045 0.98228 0.788436 -0.15533
C_ C_ 0.656949 0.50668 0.809955 0.18167
C_ C_ 0.528529 0.63288 0.761676 0.18167
C_ C_ 0.017527 0.681579 0.746309 -0.15533
C_ C_ 0.512687 0.724393 0.762117 0.02923
C_ C_ 0.536364 0.7245 0.812448 -0.15533
C_ C_ 0.55431 0.679562 0.837012 0.18167
C_ C_ 0.507379 0.541951 0.859245 0.69207
C_ C_ 0.97226 0.00395463 0.88574 0.02923
C_ C_ -0.00611600000000001 0.952659 0.884597 -0.15533
C_ C_ 0.962742 0.91278 0.881462 -0.15533
C_ C_ 0.910601 0.922163 0.895314 0.02923
C_ C_ 0.892703 0.974845 0.904469 -0.15533
C_ C_ 0.920992 0.014255 0.893528 0.02923
C_ C_ 0.897674 0.568161 0.880979 0.69207
C_ C_ 0.895311 0.826057 0.875652 0.69661
C_ C_ 0.587071 0.790805 0.58748 0.18167
C_ C_ 0.537777 0.774021 0.572002 -0.15533
C_ C_ 0.517916 0.778284 0.52048 0.02923
C_ C_ 0.553748 0.770279 1.0014 -0.15533
C_ C_ 0.59337 0.819084 0.506137 0.18167
C_ C_ 0.7171 0.763168 0.627669 0.18167
C_ C_ 0.737393 0.736094 0.670168 -0.15533
C_ C_ 0.736247 0.760301 0.718787 0.02923
C_ C_ 0.718071 0.812007 0.7247 -0.15533
C_ C_ 0.70002 0.837393 0.681796 0.18167
C_ C_ 0.750078 0.857507 0.539495 0.69207
C_ C_ 0.77803 0.86469 1.0102013 0.02923
C_ C_ 0.756471 0.867977 0.959442 -0.15533
C_ C_ 0.785415 0.874797 0.9208 -0.15533
C_ C_ 0.837656 0.882925 0.930397 0.02923
C_ C_ 0.857545 0.884121 0.983277 -0.15533
C_ C_ 0.82555 0.88218 0.0233408 0.02923
C_ C_ 0.855394 0.880296 0.573076 0.69207
C_ C_ 0.842206 0.893313 0.831544 0.69661
C_ C_ 0.807655 0.952285 0.665901 0.18167
C_ C_ 0.766605 0.972359 0.693955 -0.15533
C_ C_ 0.777092 -0.004418000000000033 0.741286 0.02923
C_ C_ 0.825099 0.51139 0.750157 -0.15533
C_ C_ 0.866412 0.984017 0.731843 0.18167
C_ C_ 0.990495 0.857219 0.712084 0.18167
C_ C_ 0.516449 0.801161 0.717856 -0.15533
C_ C_ 0.987674 0.775049 0.745061 0.02923
C_ C_ 0.936215 0.778361 0.72968 -0.15533
C_ C_ 0.91328 0.821367 0.701895 0.18167
C_ C_ 0.986682 0.951125 0.618751 0.69207
C_ C_ 0.528412 0.4843 0.620973 0.02923
C_ C_ 0.511521 0.536025 0.622915 -0.15533
C_ C_ 0.54279 0.572913 0.61222 -0.15533
C_ C_ 0.595588 0.561655 0.607646 0.02923
C_ C_ 0.612389 0.509709 0.609119 -0.15533
C_ C_ 0.578862 0.469552 0.613802 0.02923
C_ C_ 0.599658 0.921974 0.604716 0.69207
C_ C_ 0.607469 0.65708 0.609892 0.69661
C_ C_ 0.930298 0.69157 0.926193 0.18167
C_ C_ 0.971997 0.706333 0.95817 -0.15533
C_ C_ 0.965655 0.74125 0.999669 0.02923
C_ C_ 0.926416 0.753992 0.519807 -0.15533
C_ C_ 0.87522 0.7321 0.984262 0.18167
C_ C_ 0.757194 0.70645 0.848669 0.18167
C_ C_ 0.733119 0.733348 0.806684 -0.15533
C_ C_ 0.76005 0.733665 0.763979 0.02923
C_ C_ 0.81047 0.71487 0.76902 -0.15533
C_ C_ 0.83386 0.692131 0.812702 0.18167
C_ C_ 0.763799 0.618825 0.944113 0.69207
C_ C_ 0.733689 0.616266 0.498462 0.02923
C_ C_ 0.7523 0.619962 0.550477 -0.15533
C_ C_ 0.722816 0.610397 0.589145 -0.15533
C_ C_ 0.674366 0.593067 0.576833 0.02923
C_ C_ 0.657102 0.583376 0.523494 -0.15533
C_ C_ 0.686487 0.596703 0.485176 0.02923
C_ C_ 0.652278 0.602737 0.919962 0.69207
C_ C_ 0.652076 0.60168 0.67181 0.69661
C_ C_ 0.870978 0.880919 0.885497 -0.30787
C_ C_ 0.633276 0.601304 0.615405 -0.30787
N_ N_ 0.644309 0.557481 0.807663 -0.32189
N_ N_ 0.556059 0.635599 0.808463 -0.32189
N_ N_ 0.613696 0.809953 0.553765 -0.32189
N_ N_ 0.697057 0.811699 0.634816 -0.32189
N_ N_ 0.856568 0.951493 0.689546 -0.32189
N_ N_ 0.941086 0.859877 0.693314 -0.32189
N_ N_ 0.882588 0.701262 0.942232 -0.32189
N_ N_ 0.807402 0.689591 0.852389 -0.32189
O_ O_ 1.00252361 0.59081 0.897769 -0.63271
O_ O_ 0.542745 0.530041 0.828511 -0.57982
O_ O_ 0.893046 0.588229 0.835533 -0.63271
O_ O_ 0.869081 0.590239 0.916843 -0.57982
O_ O_ 0.743448 0.891741 0.575879 -0.63271
O_ O_ 0.710594 0.832361 0.526098 -0.57982
O_ O_ 0.854727 0.842407 0.601619 -0.63271
O_ O_ 0.881255 0.917187 0.591012 -0.57982
O_ O_ 0.486657 0.905146 0.594067 -0.63271
O_ O_ 0.951332 0.962125 0.649599 -0.57982
O_ O_ 0.599396 0.894936 0.642672 -0.63271
O_ O_ 0.630569 0.907916 0.570028 -0.57982
O_ O_ 0.765708 0.593066 0.903043 -0.63271
O_ O_ 0.792176 0.65617 0.953525 -0.57982
O_ O_ 0.653149 0.643618 0.896404 -0.63271
O_ O_ 0.615344 0.575497 0.904469 -0.57982
F_ F_ 0.92738 0.813209 0.919289 -0.20885
F_ F_ 0.923829 0.822044 0.836238 -0.20885
F_ F_ 0.86027 0.788791 0.863159 -0.20885
F_ F_ 0.808623 0.936434 0.834817 -0.20885
F_ F_ 0.80754 0.857394 0.813638 -0.20885
F_ F_ 0.875387 0.894171 0.793262 -0.20885
F_ F_ 0.579125 0.658976 0.562274 -0.20885
F_ F_ 0.576788 0.674709 0.646581 -0.20885
F_ F_ 0.643658 0.691951 0.610273 -0.20885
F_ F_ 0.68688 0.560542 0.683131 -0.20885
F_ F_ 0.675935 0.646278 0.688219 -0.20885
F_ F_ 0.614255 0.595563 0.70478 -0.20885
_cell_length_a 26.508
_cell_length_b 26.37200000322088
_cell_length_c 26.311999743092066
_cell_angle_alpha 93.74100058972084
_cell_angle_beta 96.04100104955006
_cell_angle_gamma 83.6869992558723
_symmetry_space_group_name_H-M         'P 1'
_symmetry_Int_Tables_number            1
loop_
_symmetry_equiv_pos_as_xyz
   'x, y, z'
                         
loop_
_atom_site_label
_atom_site_type_symbol
_atom_site_fract_x 
_atom_site_fract_y
_atom_site_fract_z
_atom_site_charge
Zn Zn 0.0896485 0.0888785 0.355922 0.83971
Zn Zn 0.156749 0.343577 0.0849963 0.83971
Zn Zn 0.406952 0.415657 0.151335 0.83971
Zn Zn 0.338432 0.15981 0.417877 0.83971
H_ H_ 0.161047 0.134372 0.305538 0.10394
H_ H_ 0.24183 0.102722 0.269961 0.10394
H_ H_ 0.213313 0.455021 0.286857 0.10394
H_ H_ 0.123176 0.982452 0.322251 0.10394
H_ H_ 0.525534 0.106818 0.247612 0.10394
H_ H_ 0.475075 0.178538 0.212267 0.10394
H_ H_ 0.0399775 0.271136 0.330283 0.10394
H_ H_ 0.0818126 0.194633 0.374202 0.10394
H_ H_ 0.033295 0.4465 0.35102 0.10394
H_ H_ 0.476013 0.389672 0.382705 0.10394
H_ H_ 0.351375 0.502588 0.403019 0.10394
H_ H_ 0.0596546 0.321009 0.125648 0.10394
H_ H_ 0.49865 0.281361 0.103979 0.10394
H_ H_ 0.0440473 0.28931 0.43709 0.10394
H_ H_ 0.131183 0.292833 0.986402 0.10394
H_ H_ 0.215806 0.257066 0.097642 0.10394
H_ H_ 0.257187 0.205779 0.163488 0.10394
H_ H_ 0.230983 0.335419 0.270127 0.10394
H_ H_ 0.179803 0.381427 0.196027 0.10394
H_ H_ 0.218123 0.369809 0.43623 0.10394
H_ H_ 0.264703 0.403445 0.378184 0.10394
H_ H_ 0.392206 0.415402 0.490816 0.10394
H_ H_ 0.310404 0.403792 0.16147 0.10394
H_ H_ 0.233476 0.45462 0.194322 0.10394
H_ H_ 0.327364 0.0336774 0.288231 0.10394
H_ H_ 0.405638 0.511578 0.229726 0.10394
H_ H_ 0.00579959 0.38945 0.21012 0.10394
H_ H_ 0.0452971 0.313565 0.251075 0.10394
H_ H_ 0.40599 0.258889 0.235268 0.10394
H_ H_ 0.36871 0.341828 0.198046 0.10394
H_ H_ 0.468331 0.0582023 0.134498 0.10394
H_ H_ 0.0186239 0.123219 0.130925 0.10394
H_ H_ 0.13849 0.0126828 0.0758347 0.10394
H_ H_ 0.438351 0.161218 0.403841 0.10394
H_ H_ 0.0143178 0.203259 0.428003 0.10394
H_ H_ 0.404138 0.285039 0.0445823 0.10394
H_ H_ 0.340585 0.249505 0.50317 0.10394
H_ H_ 0.241002 0.211999 0.392804 0.10394
H_ H_ 0.196241 0.251213 0.315747 0.10394
H_ H_ 0.335563 0.223452 0.240684 0.10394
H_ H_ 0.377846 0.185679 0.319469 0.10394
H_ H_ 0.283145 0.108475 0.0566883 0.10394
H_ H_ 0.227457 0.118755 0.121066 0.10394
H_ H_ 0.103967 0.0968786 0.00924468 0.10394
C_ C_ 0.171644 0.0934099 0.303312 0.18167
C_ C_ 0.21819 0.0738155 0.281382 -0.15533
C_ C_ 0.226522 0.020854 0.269673 0.02923
C_ C_ 0.20185 0.495686 0.283826 -0.15533
C_ C_ 0.149102 0.0100189 0.311245 0.18167
C_ C_ 0.0201732 0.135023 0.276423 0.18167
C_ C_ 0.501823 0.186527 0.246054 -0.15533
C_ C_ 0.00202387 0.227907 0.268778 0.02923
C_ C_ 0.0318596 0.234526 0.317423 -0.15533
C_ C_ 0.0605892 0.190765 0.338782 0.18167
C_ C_ 0.0118251 0.0490826 0.384147 0.69207
C_ C_ 0.474374 0.516915 0.380302 0.02923
C_ C_ 0.494738 0.466821 0.378404 -0.15533
C_ C_ 0.462475 0.429314 0.384118 -0.15533
C_ C_ 0.411535 0.440813 0.391901 0.02923
C_ C_ 0.392436 0.491993 0.40114 -0.15533
C_ C_ 0.422267 0.531229 0.393268 0.02923
C_ C_ 0.392025 0.0733982 0.389008 0.69207
C_ C_ 0.399504 0.33871 0.386117 0.69661
C_ C_ 0.0592452 0.305139 0.087121 0.18167
C_ C_ 0.0166129 0.283426 0.0668004 -0.15533
C_ C_ 0.0108528 0.267956 0.0129825 0.02923
C_ C_ 0.0536209 0.289593 0.478704 -0.15533
C_ C_ 0.0981317 0.292418 0.0098637 0.18167
C_ C_ 0.213383 0.271282 0.137976 0.18167
C_ C_ 0.238261 0.243613 0.176266 -0.15533
C_ C_ 0.242736 0.265869 0.225878 0.02923
C_ C_ 0.224188 0.316621 0.232717 -0.15533
C_ C_ 0.199699 0.343747 0.19071 0.18167
C_ C_ 0.235126 0.370384 0.0438827 0.69207
C_ C_ 0.274325 0.381234 0.501488 0.02923
C_ C_ 0.254604 0.382492 0.451638 -0.15533
C_ C_ 0.28602 0.392499 0.414744 -0.15533
C_ C_ 0.33691 0.399471 0.427805 0.02923
C_ C_ 0.35498 0.404534 0.479867 -0.15533
C_ C_ 0.325828 0.394233 0.518092 0.02923
C_ C_ 0.349647 0.384444 0.0693793 0.69207
C_ C_ 0.348082 0.397412 0.3297 0.69661
C_ C_ 0.314011 0.439239 0.18196 0.18167
C_ C_ 0.272591 0.465062 0.203198 -0.15533
C_ C_ 0.278654 0.506631 0.238061 0.02923
C_ C_ 0.319813 0.0111823 0.252773 -0.15533
C_ C_ 0.36904 0.495147 0.225096 0.18167
C_ C_ 0.49218 0.356121 0.199392 0.18167
C_ C_ 0.00728722 0.314409 0.236252 -0.15533
C_ C_ 0.482898 0.279114 0.237306 0.02923
C_ C_ 0.430906 0.284493 0.222469 -0.15533
C_ C_ 0.409868 0.32779 0.197985 0.18167
C_ C_ 0.485631 0.453894 0.117884 0.69207
C_ C_ 0.0193719 0.994557 0.113837 0.02923
C_ C_ 0.00116551 0.0462303 0.11896 -0.15533
C_ C_ 0.0341522 0.0844996 0.119609 -0.15533
C_ C_ 0.0855155 0.0725705 0.109519 0.02923
C_ C_ 0.10318 0.0230124 0.093273 -0.15533
C_ C_ 0.0715403 0.98261 0.0992467 0.02923
C_ C_ 0.0922646 0.425827 0.111454 0.69207
C_ C_ 0.0960299 0.173583 0.109892 0.69661
C_ C_ 0.435337 0.186129 0.438462 0.18167
C_ C_ 0.477024 0.212365 0.457448 -0.15533
C_ C_ 0.471077 0.251283 0.494997 0.02923
C_ C_ 0.415265 0.257224 0.0123853 -0.15533
C_ C_ 0.381548 0.238735 0.49073 0.18167
C_ C_ 0.260445 0.214081 0.357626 0.18167
C_ C_ 0.234271 0.235031 0.312558 -0.15533
C_ C_ 0.263327 0.237916 0.271213 0.02923
C_ C_ 0.314009 0.219231 0.273602 -0.15533
C_ C_ 0.336907 0.194569 0.317334 0.18167
C_ C_ 0.260737 0.127013 0.460828 0.69207
C_ C_ 0.22596 0.109016 0.994629 0.02923
C_ C_ 0.242775 0.115163 0.0456122 -0.15533
C_ C_ 0.209996 0.119756 0.0830025 -0.15533
C_ C_ 0.158227 0.110563 0.0719246 0.02923
C_ C_ 0.14072 0.105254 0.0186372 -0.15533
C_ C_ 0.173016 0.107856 0.979303 0.02923
C_ C_ 0.153899 0.101323 0.430245 0.69207
C_ C_ 0.146293 0.111767 0.167398 0.69661
C_ C_ 0.375793 0.395787 0.385753 -0.30787
C_ C_ 0.120635 0.116418 0.113171 -0.30787
N_ N_ 0.140187 0.0618752 0.317396 -0.32189
N_ N_ 0.049934 0.144052 0.31962 -0.32189
N_ N_ 0.100883 0.30633 0.0602655 -0.32189
N_ N_ 0.191043 0.318885 0.145214 -0.32189
N_ N_ 0.359815 0.456658 0.189756 -0.32189
N_ N_ 0.440556 0.360105 0.183786 -0.32189
N_ N_ 0.387046 0.199598 0.452637 -0.32189
N_ N_ 0.308419 0.18836 0.356199 -0.32189
O_ O_ 0.501466 0.0907148 0.38692 -0.63271
O_ O_ 0.0436248 0.0414248 0.349889 -0.57982
O_ O_ 0.389737 0.0980912 0.348464 -0.63271
O_ O_ 0.370395 0.0958168 0.429241 -0.57982
O_ O_ 0.241635 0.390851 0.0905449 -0.63271
O_ O_ 0.195782 0.344993 0.0316209 -0.57982
O_ O_ 0.348643 0.342836 0.0935745 -0.63271
O_ O_ 0.372392 0.422292 0.0908524 -0.57982
O_ O_ 0.983799 0.411839 0.092641 -0.63271
O_ O_ 0.451216 0.462957 0.151 -0.57982
O_ O_ 0.0906641 0.402412 0.15137 -0.63271
O_ O_ 0.126862 0.407805 0.0804505 -0.57982
O_ O_ 0.269233 0.0912738 0.425569 -0.63271
O_ O_ 0.291377 0.163741 0.464833 -0.57982
O_ O_ 0.152578 0.14279 0.405786 -0.63271
O_ O_ 0.115625 0.0729149 0.417223 -0.57982
F_ F_ 0.431903 0.334299 0.430065 -0.20885
F_ F_ 0.427302 0.32457 0.345524 -0.20885
F_ F_ 0.364421 0.302994 0.383203 -0.20885
F_ F_ 0.313721 0.438748 0.325263 -0.20885
F_ F_ 0.320394 0.356459 0.311232 -0.20885
F_ F_ 0.384959 0.40011 0.295246 -0.20885
F_ F_ 0.0605013 0.179267 0.0683248 -0.20885
F_ F_ 0.0721663 0.19447 0.152358 -0.20885
F_ F_ 0.130981 0.206029 0.0997436 -0.20885
F_ F_ 0.183388 0.0699527 0.17215 -0.20885
F_ F_ 0.175178 0.151697 0.180614 -0.20885
F_ F_ 0.11428 0.112409 0.205529 -0.20885
Zn Zn 0.0840717 0.0815101 0.845729 0.83971
Zn Zn 0.166524 0.341463 0.57953 0.83971
Zn Zn 0.407052 0.418428 0.660332 0.83971
Zn Zn 0.339252 0.15394 0.919914 0.83971
H_ H_ 0.158039 0.122291 0.800648 0.10394
H_ H_ 0.240798 0.09252 0.767222 0.10394
H_ H_ 0.201118 0.447642 0.780325 0.10394
H_ H_ 0.134287 0.976804 0.836945 0.10394
H_ H_ 0.532837 0.0968941 0.737356 0.10394
H_ H_ 0.490437 0.175282 0.693466 0.10394
H_ H_ 0.0404179 0.275239 0.818573 0.10394
H_ H_ 0.0795931 0.194612 0.871823 0.10394
H_ H_ 0.0406352 0.448907 0.870151 0.10394
H_ H_ 0.482149 0.375116 0.887672 0.10394
H_ H_ 0.351292 0.491509 0.901474 0.10394
H_ H_ 0.0783871 0.30681 0.626738 0.10394
H_ H_ 0.505764 0.265975 0.594688 0.10394
H_ H_ 0.0442816 0.275684 0.943141 0.10394
H_ H_ 0.120418 0.325026 0.475277 0.10394
H_ H_ 0.213868 0.244461 0.598837 0.10394
H_ H_ 0.262385 0.204168 0.670875 0.10394
H_ H_ 0.221447 0.336958 0.767007 0.10394
H_ H_ 0.17687 0.37607 0.691683 0.10394
H_ H_ 0.207649 0.382117 0.944841 0.10394
H_ H_ 0.266168 0.381526 0.875116 0.10394
H_ H_ 0.391257 0.41132 0.985758 0.10394
H_ H_ 0.306071 0.395532 0.661396 0.10394
H_ H_ 0.229002 0.45167 0.685145 0.10394
H_ H_ 0.327091 0.0441082 0.783532 0.10394
H_ H_ 0.39804 0.489211 0.755195 0.10394
H_ H_ 0.0216689 0.376233 0.681402 0.10394
H_ H_ 0.0601008 0.303076 0.725838 0.10394
H_ H_ 0.407856 0.245826 0.719471 0.10394
H_ H_ 0.370931 0.32434 0.677496 0.10394
H_ H_ 0.462138 0.0534591 0.611754 0.10394
H_ H_ 0.0132147 0.115961 0.598638 0.10394
H_ H_ 0.142654 0.0102259 0.60159 0.10394
H_ H_ 0.448387 0.137893 0.926466 0.10394
H_ H_ 0.0153999 0.189965 0.93622 0.10394
H_ H_ 0.415119 0.292196 0.54792 0.10394
H_ H_ 0.340326 0.234756 -0.00177514 0.10394
H_ H_ 0.230733 0.196612 0.883503 0.10394
H_ H_ 0.19123 0.233559 0.808819 0.10394
H_ H_ 0.338018 0.232851 0.751216 0.10394
H_ H_ 0.378985 0.191392 0.833384 0.10394
H_ H_ 0.27666 0.139537 0.559079 0.10394
H_ H_ 0.225726 0.119474 0.624265 0.10394
H_ H_ 0.109227 0.0722635 0.512745 0.10394
C_ C_ 0.171357 0.0839475 0.796634 0.18167
C_ C_ 0.21609 0.0646546 0.776792 -0.15533
C_ C_ 0.233196 0.0122812 0.7763 0.02923
C_ C_ 0.196889 0.489635 0.787817 -0.15533
C_ C_ 0.159877 0.0014262 0.819391 0.18167
C_ C_ 0.0233149 0.134919 0.765555 0.18167
C_ C_ 0.506992 0.177216 0.733644 -0.15533
C_ C_ 0.01069 0.227053 0.7553 0.02923
C_ C_ 0.0352864 0.234591 0.80631 -0.15533
C_ C_ 0.0550889 0.191712 0.835404 0.18167
C_ C_ 0.00821173 0.0428292 0.876807 0.69207
C_ C_ 0.472624 0.502709 0.868962 0.02923
C_ C_ 0.491385 0.450274 0.871264 -0.15533
C_ C_ 0.461197 0.412562 0.878207 -0.15533
C_ C_ 0.410164 0.426249 0.892199 0.02923
C_ C_ 0.391396 0.479255 0.896429 -0.15533
C_ C_ 0.42176 0.517531 0.883765 0.02923
C_ C_ 0.391848 0.0740518 0.880058 0.69207
C_ C_ 0.393732 0.332031 0.895223 0.69661
C_ C_ 0.072152 0.299999 0.586457 0.18167
C_ C_ 0.0289736 0.281053 0.564735 -0.15533
C_ C_ 0.0194293 0.273122 0.511126 0.02923
C_ C_ 0.0520323 0.276298 0.984764 -0.15533
C_ C_ 0.0958713 0.311641 0.501373 0.18167
C_ C_ 0.220797 0.267722 0.633453 0.18167
C_ C_ 0.243659 0.240773 0.675583 -0.15533
C_ C_ 0.241528 0.262663 0.726597 0.02923
C_ C_ 0.216152 0.31284 0.731332 -0.15533
C_ C_ 0.198776 0.339694 0.685413 0.18167
C_ C_ 0.241721 0.366484 0.540151 0.69207
C_ C_ 0.268553 0.386187 0.00606858 0.02923
C_ C_ 0.248129 0.382915 0.954197 -0.15533
C_ C_ 0.280814 0.390013 0.916012 -0.15533
C_ C_ 0.33313 0.398568 0.92792 0.02923
C_ C_ 0.350881 0.404251 0.978443 -0.15533
C_ C_ 0.321087 0.390799 0.0178637 0.02923
C_ C_ 0.35159 0.388637 0.570315 0.69207
C_ C_ 0.349049 0.390393 0.830593 0.69661
C_ C_ 0.308195 0.431443 0.684685 0.18167
C_ C_ 0.264404 0.459762 0.70305 -0.15533
C_ C_ 0.27227 0.500844 0.740329 0.02923
C_ C_ 0.324761 0.0114653 0.755267 -0.15533
C_ C_ 0.362778 0.483568 0.736151 0.18167
C_ C_ 0.483952 0.360202 0.71839 0.18167
C_ C_ 0.0199273 0.306214 0.71184 -0.15533
C_ C_ 0.479987 0.271411 0.738328 0.02923
C_ C_ 0.430813 0.275724 0.714388 -0.15533
C_ C_ 0.410619 0.318106 0.689048 0.18167
C_ C_ 0.489151 0.451541 0.627733 0.69207
C_ C_ 0.0210174 0.989703 0.61092 0.02923
C_ C_ -0.0003130000000000077 0.0396679 0.611155 -0.15533
C_ C_ 0.0305292 0.0789917 0.605068 -0.15533
C_ C_ 0.0834256 0.068358 0.602616 0.02923
C_ C_ 0.102302 0.0179292 0.603792 -0.15533
C_ C_ 0.0735366 0.977568 0.605232 0.02923
C_ C_ 0.101402 0.421051 0.599134 0.69207
C_ C_ 0.0948827 0.166301 0.599729 0.69661
C_ C_ 0.439348 0.175814 0.946891 0.18167
C_ C_ 0.479844 0.200353 0.97349 -0.15533
C_ C_ 0.467058 0.245665 1.00320518 0.02923
C_ C_ 0.422048 0.263683 0.514274 -0.15533
C_ C_ 0.377107 0.230159 0.985696 0.18167
C_ C_ 0.25474 0.199592 0.853011 0.18167
C_ C_ 0.231471 0.227096 0.812554 -0.15533
C_ C_ 0.262114 0.235598 0.773222 0.02923
C_ C_ 0.315355 0.221357 0.779574 -0.15533
C_ C_ 0.336883 0.201683 0.825787 0.18167
C_ C_ 0.258207 0.120113 0.955139 0.69207
C_ C_ 0.220858 0.125551 0.495939 0.02923
C_ C_ 0.237882 0.131408 0.547136 -0.15533
C_ C_ 0.207223 0.121678 0.585556 -0.15533
C_ C_ 0.159642 0.102364 0.570855 0.02923
C_ C_ 0.143824 0.0912018 0.519921 -0.15533
C_ C_ 0.176109 0.100592 0.482548 0.02923
C_ C_ 0.150534 0.105586 0.924477 0.69207
C_ C_ 0.143484 0.10986 0.666233 0.69661
C_ C_ 0.373376 0.388182 0.887888 -0.30787
C_ C_ 0.119983 0.111339 0.609395 -0.30787
N_ N_ 0.139967 0.0503307 0.810993 -0.32189
N_ N_ 0.0510245 0.142656 0.813619 -0.32189
N_ N_ 0.107017 0.313124 0.553792 -0.32189
N_ N_ 0.195349 0.313519 0.640052 -0.32189
N_ N_ 0.354658 0.446461 0.699516 -0.32189
N_ N_ 0.436925 0.359594 0.690603 -0.32189
N_ N_ 0.389783 0.192763 0.950962 -0.32189
N_ N_ 0.306518 0.188592 0.859797 -0.32189
O_ O_ 0.502123 0.0941295 0.875852 -0.63271
O_ O_ 0.0397028 0.032003 0.841078 -0.57982
O_ O_ 0.384374 0.0988679 0.837993 -0.63271
O_ O_ 0.365051 0.0891443 0.917623 -0.57982
O_ O_ 0.241326 0.390123 0.58533 -0.63271
O_ O_ 0.21089 0.332133 0.52894 -0.57982
O_ O_ 0.354139 0.344741 0.593725 -0.63271
O_ O_ 0.374296 0.424927 0.595184 -0.57982
O_ O_ 0.993925 0.399903 0.592496 -0.63271
O_ O_ 0.457876 0.461932 0.662582 -0.57982
O_ O_ 0.095021 0.396897 0.639879 -0.63271
O_ O_ 0.138425 0.404989 0.571482 -0.57982
O_ O_ 0.258769 0.0903103 0.91252 -0.63271
O_ O_ 0.291341 0.155223 0.965188 -0.57982
O_ O_ 0.154181 0.144514 0.895907 -0.63271
O_ O_ 0.108545 0.0822078 0.913209 -0.57982
F_ F_ 0.429352 0.327959 0.940179 -0.20885
F_ F_ 0.420557 0.310218 0.854746 -0.20885
F_ F_ 0.353725 0.301395 0.895605 -0.20885
F_ F_ 0.319548 0.43503 0.82204 -0.20885
F_ F_ 0.32224 0.350635 0.80965 -0.20885
F_ F_ 0.383541 0.387257 0.795095 -0.20885
F_ F_ 0.0656036 0.170575 0.553232 -0.20885
F_ F_ 0.0626512 0.181579 0.63605 -0.20885
F_ F_ 0.129196 0.202031 0.600952 -0.20885
F_ F_ 0.182224 0.0683737 0.672428 -0.20885
F_ F_ 0.160369 0.155896 0.683565 -0.20885
F_ F_ 0.108642 0.0982313 0.699361 -0.20885
Zn Zn 0.0911992 0.586895 0.348461 0.83971
Zn Zn 0.156481 0.846929 0.080848 0.83971
Zn Zn 0.406081 0.913362 0.157773 0.83971
Zn Zn 0.338731 0.666293 0.420368 0.83971
H_ H_ 0.1686 0.639346 0.301862 0.10394
H_ H_ 0.247251 0.605152 0.263735 0.10394
H_ H_ 0.194448 0.947886 0.271867 0.10394
H_ H_ 0.131785 0.487939 0.315317 0.10394
H_ H_ 0.537083 0.604616 0.259504 0.10394
H_ H_ 0.493934 0.674496 0.213924 0.10394
H_ H_ 0.0410718 0.773738 0.328633 0.10394
H_ H_ 0.0678905 0.696918 0.381936 0.10394
H_ H_ 0.0438106 0.952704 0.390591 0.10394
H_ H_ 0.464816 0.876745 0.368807 0.10394
H_ H_ 0.349009 0.993468 0.416448 0.10394
H_ H_ 0.0808586 0.805206 0.130281 0.10394
H_ H_ 0.504195 0.768119 0.113882 0.10394
H_ H_ 0.0330865 0.798314 0.461365 0.10394
H_ H_ 0.107631 0.825387 0.979899 0.10394
H_ H_ 0.215191 0.748604 0.0989445 0.10394
H_ H_ 0.2596 0.703841 0.166121 0.10394
H_ H_ 0.218784 0.836766 0.269331 0.10394
H_ H_ 0.177134 0.879996 0.19755 0.10394
H_ H_ 0.207926 0.886366 0.459735 0.10394
H_ H_ 0.251886 0.909487 0.390135 0.10394
H_ H_ 0.392122 0.907156 0.490389 0.10394
H_ H_ 0.294762 0.898206 0.159213 0.10394
H_ H_ 0.2235 0.965117 0.176392 0.10394
H_ H_ 0.335178 0.55272 0.279857 0.10394
H_ H_ 0.397866 -0.005357999999999974 0.235805 0.10394
H_ H_ 0.00694881 0.886919 0.199021 0.10394
H_ H_ 0.0565333 0.809957 0.232591 0.10394
H_ H_ 0.416098 0.744116 0.234233 0.10394
H_ H_ 0.368985 0.819103 0.190043 0.10394
H_ H_ 0.473872 0.5576 0.127828 0.10394
H_ H_ 0.0109298 0.620355 0.114003 0.10394
H_ H_ 0.13724 0.503567 0.0952874 0.10394
H_ H_ 0.442009 0.677172 0.395537 0.10394
H_ H_ 0.0257472 0.683156 0.465766 0.10394
H_ H_ 0.419171 0.780545 0.0489256 0.10394
H_ H_ 0.347432 0.743578 0.505673 0.10394
H_ H_ 0.230072 0.702235 0.385472 0.10394
H_ H_ 0.200116 0.751946 0.308203 0.10394
H_ H_ 0.333865 0.714653 0.244354 0.10394
H_ H_ 0.376909 0.692016 0.326357 0.10394
H_ H_ 0.275169 0.63342 0.0583491 0.10394
H_ H_ 0.220096 0.618338 0.128261 0.10394
H_ H_ 0.105347 0.581168 0.00945265 0.10394
C_ C_ 0.177962 0.598517 0.298134 0.18167
C_ C_ 0.224704 0.579249 0.277912 -0.15533
C_ C_ 0.237093 0.526712 0.268581 0.02923
C_ C_ 0.191362 0.9893 0.284195 -0.15533
C_ C_ 0.15568 0.514748 0.301553 0.18167
C_ C_ 0.0350052 0.635004 0.270143 0.18167
C_ C_ 0.512171 0.682896 0.254097 -0.15533
C_ C_ 0.0162896 0.726106 0.261622 0.02923
C_ C_ 0.0388693 0.732736 0.312305 -0.15533
C_ C_ 0.0528571 0.689995 0.343006 0.18167
C_ C_ 0.00790491 0.552281 0.362875 0.69207
C_ C_ 0.465451 0.00714732 0.367688 0.02923
C_ C_ 0.483738 0.95482 0.368462 -0.15533
C_ C_ 0.450978 0.917498 0.374877 -0.15533
C_ C_ 0.401436 0.930325 0.388692 0.02923
C_ C_ 0.386522 0.983006 0.402413 -0.15533
C_ C_ 0.416934 0.021606 0.388742 0.02923
C_ C_ 0.393193 0.582469 0.388788 0.69207
C_ C_ 0.379089 0.83851 0.388803 0.69661
C_ C_ 0.06559 0.805553 0.0896262 0.18167
C_ C_ 0.0198798 0.784362 0.070562 -0.15533
C_ C_ 0.00754446 0.775432 0.0183346 0.02923
C_ C_ 0.0487008 0.789318 0.501403 -0.15533
C_ C_ 0.0864493 0.809619 0.00384924 0.18167
C_ C_ 0.213847 0.769331 0.136075 0.18167
C_ C_ 0.238237 0.740413 0.175929 -0.15533
C_ C_ 0.24062 0.763524 0.226767 0.02923
C_ C_ 0.219555 0.816279 0.232051 -0.15533
C_ C_ 0.191647 0.840968 0.190276 0.18167
C_ C_ 0.235757 0.865466 0.0402346 0.69207
C_ C_ 0.27239 0.87887 0.512834 0.02923
C_ C_ 0.247339 0.888449 0.464277 -0.15533
C_ C_ 0.273352 0.906028 0.428211 -0.15533
C_ C_ 0.326913 0.904147 0.433419 0.02923
C_ C_ 0.351215 0.901414 0.484465 -0.15533
C_ C_ 0.324884 0.889566 0.524871 0.02923
C_ C_ 0.348641 0.885627 0.0746872 0.69207
C_ C_ 0.324628 0.901513 0.335274 0.69661
C_ C_ 0.300629 0.932267 0.178521 0.18167
C_ C_ 0.259215 0.963312 0.196116 -0.15533
C_ C_ 0.268195 0.999969 0.236712 0.02923
C_ C_ 0.328862 0.51993 0.253639 -0.15533
C_ C_ 0.35998 0.985818 0.226092 0.18167
C_ C_ 0.486151 0.859018 0.212789 0.18167
C_ C_ 0.0140946 0.811535 0.226295 -0.15533
C_ C_ 0.486061 0.776736 0.246194 0.02923
C_ C_ 0.437191 0.773571 0.224323 -0.15533
C_ C_ 0.410627 0.818032 0.202195 0.18167
C_ C_ 0.482583 0.951492 0.12481 0.69207
C_ C_ 0.0165881 0.491872 0.114915 0.02923
C_ C_ -0.0033290000000000264 0.54271 0.115818 -0.15533
C_ C_ 0.026278 0.581349 0.110376 -0.15533
C_ C_ 0.0781617 0.568488 0.105627 0.02923
C_ C_ 0.0952562 0.516262 0.0968167 -0.15533
C_ C_ 0.0664594 0.478686 0.107106 0.02923
C_ C_ 0.0965961 0.929039 0.105633 0.69207
C_ C_ 0.0992444 0.662922 0.11386 0.69661
C_ C_ 0.438187 0.695288 0.434325 0.18167
C_ C_ 0.479451 0.716341 0.458562 -0.15533
C_ C_ 0.472779 0.752817 0.497802 0.02923
C_ C_ 0.425638 0.7486 0.0207796 -0.15533
C_ C_ 0.383856 0.738613 0.491849 0.18167
C_ C_ 0.256351 0.708728 0.355775 0.18167
C_ C_ 0.233939 0.726436 0.308912 -0.15533
C_ C_ 0.26138 0.732363 0.270211 0.02923
C_ C_ 0.312315 0.710544 0.274019 -0.15533
C_ C_ 0.336667 0.69983 0.323724 0.18167
C_ C_ 0.260578 0.638396 0.452947 0.69207
C_ C_ 0.223609 0.616442 0.998081 0.02923
C_ C_ 0.23903 0.62144 0.0502039 -0.15533
C_ C_ 0.207955 0.613229 0.087069 -0.15533
C_ C_ 0.157631 0.602073 0.0735753 0.02923
C_ C_ 0.142538 0.593743 0.0215939 -0.15533
C_ C_ 0.173379 0.606447 0.983454 0.02923
C_ C_ 0.155504 0.608716 0.42224 0.69207
C_ C_ 0.14009 0.599554 0.172831 0.69661
C_ C_ 0.359572 0.89459 0.387715 -0.30787
C_ C_ 0.118351 0.605601 0.115279 -0.30787
N_ N_ 0.144466 0.566128 0.309266 -0.32189
N_ N_ 0.0567283 0.644067 0.318894 -0.32189
N_ N_ 0.0987637 0.812461 0.0560663 -0.32189
N_ N_ 0.18793 0.816527 0.143253 -0.32189
N_ N_ 0.350048 0.945126 0.191134 -0.32189
N_ N_ 0.436327 0.858822 0.195959 -0.32189
N_ N_ 0.390265 0.708851 0.448774 -0.32189
N_ N_ 0.308929 0.702319 0.364673 -0.32189
O_ O_ 0.504264 0.601379 0.393783 -0.63271
O_ O_ 0.0455008 0.540552 0.332939 -0.57982
O_ O_ 0.39592 0.607807 0.347237 -0.63271
O_ O_ 0.373285 0.608059 0.427378 -0.57982
O_ O_ 0.236339 0.894027 0.0840276 -0.63271
O_ O_ 0.19473 0.842051 0.0261111 -0.57982
O_ O_ 0.349097 0.843791 0.100735 -0.63271
O_ O_ 0.384459 0.914266 0.0890864 -0.57982
O_ O_ 0.988567 0.907645 0.105132 -0.63271
O_ O_ 0.452813 0.959723 0.162638 -0.57982
O_ O_ 0.101321 0.904293 0.148249 -0.63271
O_ O_ 0.124498 0.910607 0.0696969 -0.57982
O_ O_ 0.265055 0.612976 0.408324 -0.63271
O_ O_ 0.295325 0.669924 0.468723 -0.57982
O_ O_ 0.151171 0.649201 0.394288 -0.63271
O_ O_ 0.122121 0.576002 0.407959 -0.57982
F_ F_ 0.418324 0.832384 0.42749 -0.20885
F_ F_ 0.396271 0.818214 0.343748 -0.20885
F_ F_ 0.341 0.810115 0.401172 -0.20885
F_ F_ 0.295521 0.948499 0.333271 -0.20885
F_ F_ 0.29226 0.861982 0.325968 -0.20885
F_ F_ 0.350325 0.897756 0.291549 -0.20885
F_ F_ 0.0707885 0.676289 0.0695495 -0.20885
F_ F_ 0.0686218 0.681691 0.152602 -0.20885
F_ F_ 0.136714 0.695873 0.115292 -0.20885
F_ F_ 0.177739 0.56008 0.176815 -0.20885
F_ F_ 0.163961 0.642056 0.192083 -0.20885
F_ F_ 0.104667 0.589075 0.203554 -0.20885
Zn Zn 0.0898822 0.587739 0.851969 0.83971
Zn Zn 0.160136 0.848988 0.592948 0.83971
Zn Zn 0.409987 0.914416 0.6632 0.83971
Zn Zn 0.341063 0.651674 0.923434 0.83971
H_ H_ 0.170757 0.637044 0.806801 0.10394
H_ H_ 0.243937 0.602386 0.765511 0.10394
H_ H_ 0.215957 0.939415 0.798011 0.10394
H_ H_ 0.127032 0.486215 0.820081 0.10394
H_ H_ 0.518085 0.595813 0.744861 0.10394
H_ H_ 0.480785 0.673835 0.703994 0.10394
H_ H_ 0.0122374 0.767908 0.848907 0.10394
H_ H_ 0.0697048 0.697624 0.889067 0.10394
H_ H_ 0.0354482 0.944302 0.886382 0.10394
H_ H_ 0.489316 0.886326 0.905298 0.10394
H_ H_ 0.347779 0.989032 0.890774 0.10394
H_ H_ 0.0852973 0.802189 0.647256 0.10394
H_ H_ 0.513215 0.765944 0.601746 0.10394
H_ H_ 0.0292802 0.790528 0.94367 0.10394
H_ H_ 0.116441 0.822254 0.494916 0.10394
H_ H_ 0.228574 0.75701 0.601133 0.10394
H_ H_ 0.264498 0.701398 0.674262 0.10394
H_ H_ 0.209321 0.824503 0.776448 0.10394
H_ H_ 0.163376 0.867992 0.701764 0.10394
H_ H_ 0.21669 0.870257 0.937049 0.10394
H_ H_ 0.276928 0.874638 0.877727 0.10394
H_ H_ 0.395266 0.900366 0.993194 0.10394
H_ H_ 0.311157 0.894784 0.664176 0.10394
H_ H_ 0.229552 0.940249 0.695801 0.10394
H_ H_ 0.327863 0.545526 0.780617 0.10394
H_ H_ 0.40088 0.006170000000000009 0.733569 0.10394
H_ H_ 0.0118486 0.887656 0.705894 0.10394
H_ H_ 0.0555547 0.817932 0.751309 0.10394
H_ H_ 0.411356 0.756198 0.753612 0.10394
H_ H_ 0.368773 0.831816 0.711554 0.10394
H_ H_ 0.470063 0.547059 0.630835 0.10394
H_ H_ 0.0222517 0.613441 0.62082 0.10394
H_ H_ 0.146393 0.501377 0.576924 0.10394
H_ H_ 0.445689 0.656375 0.906853 0.10394
H_ H_ 0.0113551 0.695997 0.948472 0.10394
H_ H_ 0.419457 0.786648 0.550591 0.10394
H_ H_ 0.347669 0.731579 0.0131492 0.10394
H_ H_ 0.238963 0.700586 0.896772 0.10394
H_ H_ 0.199035 0.753109 0.821518 0.10394
H_ H_ 0.334381 0.712869 0.746106 0.10394
H_ H_ 0.378681 0.680254 0.832454 0.10394
H_ H_ 0.292242 0.606164 0.549026 0.10394
H_ H_ 0.234341 0.592366 0.613003 0.10394
H_ H_ 0.112312 0.58142 0.505194 0.10394
C_ C_ 0.178381 0.59547 0.801515 0.18167
C_ C_ 0.222095 0.574309 0.781611 -0.15533
C_ C_ 0.232137 0.521774 0.773555 0.02923
C_ C_ 0.202521 0.979524 0.794452 -0.15533
C_ C_ 0.156609 0.511197 0.813814 0.18167
C_ C_ 0.0360682 0.639202 0.773256 0.18167
C_ C_ 0.506141 0.676833 0.738705 -0.15533
C_ C_ 0.0134347 0.730388 0.77174 0.02923
C_ C_ 0.0241723 0.733594 0.825868 -0.15533
C_ C_ 0.0523111 0.691367 0.849326 0.18167
C_ C_ 0.00714786 0.549189 0.867549 0.69207
C_ C_ 0.470124 0.011331 0.874597 0.02923
C_ C_ 0.493894 0.96607 0.894461 -0.15533
C_ C_ 0.467014 0.923478 0.897977 -0.15533
C_ C_ 0.412041 0.9291 0.896863 0.02923
C_ C_ 0.388594 0.979549 0.889211 -0.15533
C_ C_ 0.417125 0.0207381 0.880516 0.02923
C_ C_ 0.398146 0.570683 0.884459 0.69207
C_ C_ 0.409747 0.830181 0.897558 0.69661
C_ C_ 0.0762661 0.795962 0.606581 0.18167
C_ C_ 0.0271249 0.781422 0.586084 -0.15533
C_ C_ 0.018752 0.768393 0.534507 0.02923
C_ C_ 0.0415184 0.78691 0.983612 -0.15533
C_ C_ 0.0966297 0.804624 0.520724 0.18167
C_ C_ 0.227311 0.769744 0.639461 0.18167
C_ C_ 0.243141 0.738866 0.680035 -0.15533
C_ C_ 0.238813 0.759012 0.731172 0.02923
C_ C_ 0.211188 0.808344 0.738966 -0.15533
C_ C_ 0.191663 0.834214 0.69614 0.18167
C_ C_ 0.242265 0.868103 0.554169 0.69207
C_ C_ 0.274872 0.871604 0.00346145 0.02923
C_ C_ 0.256626 0.874517 0.950773 -0.15533
C_ C_ 0.289771 0.882793 0.915003 -0.15533
C_ C_ 0.340641 0.891129 0.928002 0.02923
C_ C_ 0.356101 0.892549 0.980121 -0.15533
C_ C_ 0.324627 0.884281 0.0185313 0.02923
C_ C_ 0.352164 0.885528 0.576704 0.69207
C_ C_ 0.361624 0.87919 0.833036 0.69661
C_ C_ 0.31237 0.928467 0.689359 0.18167
C_ C_ 0.268467 0.952545 0.709792 -0.15533
C_ C_ 0.275689 0.992579 0.745687 0.02923
C_ C_ 0.321263 0.515852 0.75255 -0.15533
C_ C_ 0.367392 0.987653 0.733046 0.18167
C_ C_ 0.492884 0.841386 0.69028 0.18167
C_ C_ 0.0139456 0.817162 0.739711 -0.15533
C_ C_ 0.487568 0.769881 0.7403 0.02923
C_ C_ 0.433026 0.780973 0.737196 -0.15533
C_ C_ 0.411333 0.821567 0.711469 0.18167
C_ C_ 0.489637 0.948047 0.621468 0.69207
C_ C_ 0.0228255 0.486373 0.603193 0.02923
C_ C_ 1.0049657 0.538317 0.61349 -0.15533
C_ C_ 0.038483 0.576433 0.61081 -0.15533
C_ C_ 0.0892797 0.564902 0.599499 0.02923
C_ C_ 0.107318 0.512438 0.590161 -0.15533
C_ C_ 0.0750971 0.473214 0.59303 0.02923
C_ C_ 0.0986416 0.927042 0.613012 0.69207
C_ C_ 0.103717 0.664197 0.600414 0.69661
C_ C_ 0.439067 0.680003 0.942817 0.18167
C_ C_ 0.482691 0.694948 0.97344 -0.15533
C_ C_ 0.475637 0.731392 0.0122215 0.02923
C_ C_ 0.42571 0.762074 0.51752 -0.15533
C_ C_ 0.383964 0.722941 0.998047 0.18167
C_ C_ 0.26019 0.706077 0.864291 0.18167
C_ C_ 0.235231 0.730553 0.820196 -0.15533
C_ C_ 0.263073 0.731081 0.777082 0.02923
C_ C_ 0.316395 0.712873 0.780637 -0.15533
C_ C_ 0.337106 0.690875 0.826424 0.18167
C_ C_ 0.26267 0.622209 0.961486 0.69207
C_ C_ 0.227128 0.621695 0.490926 0.02923
C_ C_ 0.24886 0.612782 0.540541 -0.15533
C_ C_ 0.217324 0.600565 0.577113 -0.15533
C_ C_ 0.165739 0.598408 0.566163 0.02923
C_ C_ 0.148012 0.594352 0.513787 -0.15533
C_ C_ 0.175521 0.612363 0.476928 0.02923
C_ C_ 0.150499 0.609077 0.929998 0.69207
C_ C_ 0.148391 0.602963 0.662322 0.69661
C_ C_ 0.381299 0.883398 0.888549 -0.30787
C_ C_ 0.127421 0.607589 0.606172 -0.30787
N_ N_ 0.145276 0.563959 0.81674 -0.32189
N_ N_ 0.0554717 0.646032 0.823921 -0.32189
N_ N_ 0.108347 0.811407 0.572456 -0.32189
N_ N_ 0.198423 0.815683 0.648405 -0.32189
N_ N_ 0.358515 0.944595 0.702803 -0.32189
N_ N_ 0.441133 0.85223 0.689816 -0.32189
N_ N_ 0.39032 0.69443 0.955819 -0.32189
N_ N_ 0.309276 0.685453 0.865345 -0.32189
O_ O_ 0.501668 0.586609 0.882005 -0.63271
O_ O_ 0.0437199 0.543726 0.839058 -0.57982
O_ O_ 0.396176 0.59568 0.842154 -0.63271
O_ O_ 0.37453 0.589632 0.924037 -0.57982
O_ O_ 0.245072 0.894215 0.598091 -0.63271
O_ O_ 0.202091 0.841574 0.542048 -0.57982
O_ O_ 0.35814 0.843293 0.601097 -0.63271
O_ O_ 0.377036 0.923512 0.597125 -0.57982
O_ O_ 0.983493 0.91096 0.587424 -0.63271
O_ O_ 0.458879 0.957615 0.658258 -0.57982
O_ O_ 0.092689 0.901642 0.653845 -0.63271
O_ O_ 0.139285 0.912289 0.589905 -0.57982
O_ O_ 0.255753 0.600922 0.916025 -0.63271
O_ O_ 0.297526 0.651841 0.971282 -0.57982
O_ O_ 0.148747 0.65048 0.906199 -0.63271
O_ O_ 0.118189 0.578487 0.912043 -0.57982
F_ F_ 0.439359 0.831559 0.946672 -0.20885
F_ F_ 0.443934 0.816369 0.859562 -0.20885
F_ F_ 0.37873 0.793142 0.90042 -0.20885
F_ F_ 0.32778 0.919169 0.823098 -0.20885
F_ F_ 0.339862 0.835098 0.817254 -0.20885
F_ F_ 0.400434 0.887698 0.80184 -0.20885
F_ F_ 0.0741358 0.666087 0.552986 -0.20885
F_ F_ 0.0743667 0.685269 0.637556 -0.20885
F_ F_ 0.14261 0.693677 0.599405 -0.20885
F_ F_ 0.173699 0.555133 0.668461 -0.20885
F_ F_ 0.181195 0.637746 0.674808 -0.20885
F_ F_ 0.111335 0.607656 0.6949 -0.20885
Zn Zn 0.580523 0.0878498 0.345812 0.83971
Zn Zn 0.666618 0.342048 0.0764642 0.83971
Zn Zn 0.906552 0.413543 0.150846 0.83971
Zn Zn 0.840494 0.157061 0.412263 0.83971
H_ H_ 0.648386 0.130076 0.292641 0.10394
H_ H_ 0.734242 0.102394 0.266289 0.10394
H_ H_ 0.700092 0.449459 0.278725 0.10394
H_ H_ 0.632951 0.985031 0.338775 0.10394
H_ H_ 0.0281035 0.099372 0.25775 0.10394
H_ H_ 0.981411 0.165421 0.211943 0.10394
H_ H_ 0.526147 0.27072 0.33997 0.10394
H_ H_ 0.568325 0.192141 0.382031 0.10394
H_ H_ 0.53225 0.454396 0.370058 0.10394
H_ H_ 0.986183 0.379233 0.371269 0.10394
H_ H_ 0.869309 0.487189 0.427462 0.10394
H_ H_ 0.582217 0.30067 0.132563 0.10394
H_ H_ 0.987067 0.277549 0.0932047 0.10394
H_ H_ 0.52991 0.300987 0.442404 0.10394
H_ H_ 0.607466 0.340747 0.986013 0.10394
H_ H_ 0.716947 0.248665 0.0932105 0.10394
H_ H_ 0.745683 0.195145 0.166946 0.10394
H_ H_ 0.715153 0.333431 0.26209 0.10394
H_ H_ 0.68165 0.378665 0.188035 0.10394
H_ H_ 0.7202 0.369125 0.445468 0.10394
H_ H_ 0.773328 0.368221 0.376171 0.10394
H_ H_ 0.903861 0.399522 0.485478 0.10394
H_ H_ 0.797718 0.39923 0.15168 0.10394
H_ H_ 0.72483 0.451088 0.190374 0.10394
H_ H_ 0.831215 0.0447328 0.295572 0.10394
H_ H_ 0.900411 0.494407 0.231393 0.10394
H_ H_ 0.511091 0.388787 0.197369 0.10394
H_ H_ 0.552672 0.314195 0.244213 0.10394
H_ H_ 0.909886 0.239635 0.219371 0.10394
H_ H_ 0.868462 0.32013 0.177261 0.10394
H_ H_ 0.963108 0.0595394 0.12815 0.10394
H_ H_ 0.515513 0.116249 0.096684 0.10394
H_ H_ 0.643414 -0.0008759999999999879 0.0867621 0.10394
H_ H_ 0.940205 0.171548 0.383022 0.10394
H_ H_ 0.516689 0.197443 0.451965 0.10394
H_ H_ 0.913539 0.276197 0.0333481 0.10394
H_ H_ 0.849873 0.227265 0.5044 0.10394
H_ H_ 0.728866 0.183875 0.371786 0.10394
H_ H_ 0.690203 0.22251 0.294035 0.10394
H_ H_ 0.836505 0.232072 0.245354 0.10394
H_ H_ 0.875624 0.181477 0.31777 0.10394
H_ H_ 0.782786 0.0923749 0.0399399 0.10394
H_ H_ 0.730028 0.090233 0.10591 0.10394
H_ H_ 0.598896 0.0888227 -0.00131142 0.10394
C_ C_ 0.665556 0.090883 0.297041 0.18167
C_ C_ 0.712538 0.0736023 0.27835 -0.15533
C_ C_ 0.731371 0.0221426 0.280343 0.02923
C_ C_ 0.693642 0.490511 0.277061 -0.15533
C_ C_ 0.654894 0.00822982 0.318344 0.18167
C_ C_ 0.528028 0.143428 0.26844 0.18167
C_ C_ -0.0049247 0.176074 0.250068 -0.15533
C_ C_ 0.50663 0.235749 0.268477 0.02923
C_ C_ 0.535513 0.238423 0.3178 -0.15533
C_ C_ 0.558847 0.193284 0.341219 0.18167
C_ C_ 0.501431 0.0480409 0.35841 0.69207
C_ C_ 0.977639 0.509998 0.376336 0.02923
C_ C_ 0.998235 0.456944 0.368233 -0.15533
C_ C_ 0.968528 0.418656 0.377754 -0.15533
C_ C_ 0.919303 0.429487 0.39272 0.02923
C_ C_ 0.904556 0.478362 0.409972 -0.15533
C_ C_ 0.931033 0.518924 0.39706 0.02923
C_ C_ 0.898439 0.0718868 0.390218 0.69207
C_ C_ 0.906534 0.332816 0.377238 0.69661
C_ C_ 0.571683 0.303607 0.0915336 0.18167
C_ C_ 0.525054 0.287588 0.0747882 -0.15533
C_ C_ 0.510154 0.279283 0.0230929 0.02923
C_ C_ 0.544455 0.296495 0.481568 -0.15533
C_ C_ 0.587052 0.317853 0.00792746 0.18167
C_ C_ 0.71994 0.266258 0.128091 0.18167
C_ C_ 0.737009 0.23704 0.169645 -0.15533
C_ C_ 0.738257 0.262219 0.219311 0.02923
C_ C_ 0.720287 0.313961 0.226322 -0.15533
C_ C_ 0.69806 0.340646 0.18239 0.18167
C_ C_ 0.737431 0.3684 0.0327075 0.69207
C_ C_ 0.779377 0.377742 0.503403 0.02923
C_ C_ 0.760326 0.378455 0.452846 -0.15533
C_ C_ 0.792345 0.377716 0.41377 -0.15533
C_ C_ 0.843037 0.390104 0.425295 0.02923
C_ C_ 0.862842 0.393543 0.476694 -0.15533
C_ C_ 0.831443 0.383098 0.516234 0.02923
C_ C_ 0.851234 0.381621 0.0642416 0.69207
C_ C_ 0.850386 0.40335 0.332255 0.69661
C_ C_ 0.803307 0.435571 0.171606 0.18167
C_ C_ 0.764492 0.459118 0.197446 -0.15533
C_ C_ 0.775469 0.497191 0.236001 0.02923
C_ C_ 0.82607 0.0105294 0.267177 -0.15533
C_ C_ 0.86241 0.485322 0.220796 0.18167
C_ C_ 0.984733 0.356817 0.211249 0.18167
C_ C_ 0.514485 0.313134 0.223616 -0.15533
C_ C_ 0.979052 0.272219 0.237962 0.02923
C_ C_ 0.930015 0.273404 0.213052 -0.15533
C_ C_ 0.909595 0.316448 0.188429 0.18167
C_ C_ 0.982928 0.453514 0.121921 0.69207
C_ C_ 0.518749 0.989613 0.115421 0.02923
C_ C_ 0.502985 0.0445203 0.116874 -0.15533
C_ C_ 0.532025 0.0765446 0.0942077 -0.15533
C_ C_ 0.584684 0.0637088 0.0913934 0.02923
C_ C_ 0.602237 0.0106587 0.0939031 -0.15533
C_ C_ 0.56976 0.973687 0.10305 0.02923
C_ C_ 0.599547 0.42244 0.106187 0.69207
C_ C_ 0.596789 0.157845 0.112193 0.69661
C_ C_ 0.937139 0.190985 0.421955 0.18167
C_ C_ 0.978934 0.213115 0.444583 -0.15533
C_ C_ 0.975154 0.245821 0.48846 0.02923
C_ C_ 0.921436 0.248349 0.00400916 -0.15533
C_ C_ 0.884769 0.227302 0.483117 0.18167
C_ C_ 0.754622 0.190587 0.343081 0.18167
C_ C_ 0.732499 0.21759 0.3024 -0.15533
C_ C_ 0.761153 0.233339 0.267017 0.02923
C_ C_ 0.814169 0.22518 0.274574 -0.15533
C_ C_ 0.835598 0.193371 0.312769 0.18167
C_ C_ 0.766643 0.119826 0.450875 0.69207
C_ C_ 0.720073 0.103367 0.979868 0.02923
C_ C_ 0.741008 0.1004 0.0303563 -0.15533
C_ C_ 0.710598 0.102705 0.0710894 -0.15533
C_ C_ 0.656765 0.100862 0.0596652 0.02923
C_ C_ 0.636231 0.098682 0.00893975 -0.15533
C_ C_ 0.66737 0.104079 0.971222 0.02923
C_ C_ 0.650322 0.104159 0.42252 0.69207
C_ C_ 0.650852 0.0888833 0.1565 0.69661
C_ C_ 0.879456 0.388995 0.382011 -0.30787
C_ C_ 0.622844 0.102172 0.102845 -0.30787
N_ N_ 0.635875 0.0569956 0.312446 -0.32189
N_ N_ 0.553889 0.148249 0.315127 -0.32189
N_ N_ 0.604882 0.312391 0.0573546 -0.32189
N_ N_ 0.698184 0.316075 0.135218 -0.32189
N_ N_ 0.851019 0.448479 0.184921 -0.32189
N_ N_ 0.937376 0.357599 0.189744 -0.32189
N_ N_ 0.89022 0.200345 0.439617 -0.32189
N_ N_ 0.807197 0.180874 0.349998 -0.32189
O_ O_ 0.00888236 0.0934484 0.408969 -0.63271
O_ O_ 0.541318 0.0349322 0.333641 -0.57982
O_ O_ 0.899543 0.0956915 0.349088 -0.63271
O_ O_ 0.871981 0.0953925 0.426094 -0.57982
O_ O_ 0.741029 0.394381 0.0776204 -0.63271
O_ O_ 0.706417 0.333194 0.0243368 -0.57982
O_ O_ 0.849513 0.33992 0.0887749 -0.63271
O_ O_ 0.879936 0.417611 0.084527 -0.57982
O_ O_ 0.48487 0.411779 0.0893199 -0.63271
O_ O_ 0.952864 0.458364 0.159551 -0.57982
O_ O_ 0.590473 0.393739 0.141712 -0.63271
O_ O_ 0.635794 0.407349 0.0797891 -0.57982
O_ O_ 0.771756 0.09162 0.408358 -0.63271
O_ O_ 0.79461 0.158943 0.458365 -0.57982
O_ O_ 0.653227 0.145014 0.39787 -0.63271
O_ O_ 0.613179 0.0768572 0.410473 -0.57982
F_ F_ 0.942552 0.323593 0.415407 -0.20885
F_ F_ 0.93122 0.318763 0.332965 -0.20885
F_ F_ 0.869808 0.300641 0.377385 -0.20885
F_ F_ 0.820842 0.45119 0.33609 -0.20885
F_ F_ 0.820007 0.365557 0.309586 -0.20885
F_ F_ 0.881741 0.409586 0.294695 -0.20885
F_ F_ 0.564899 0.170992 0.0692523 -0.20885
F_ F_ 0.572543 0.161672 0.155057 -0.20885
F_ F_ 0.62967 0.194962 0.121306 -0.20885
F_ F_ 0.685643 0.0453325 0.157299 -0.20885
F_ F_ 0.677097 0.126005 0.179136 -0.20885
F_ F_ 0.617866 0.0788641 0.19089 -0.20885
Zn Zn 0.58698 0.081556 0.834063 0.83971
Zn Zn 0.663053 0.343236 0.576513 0.83971
Zn Zn 0.910101 0.415949 0.65008 0.83971
Zn Zn 0.836398 0.146805 0.911778 0.83971
H_ H_ 0.660182 0.126145 0.788883 0.10394
H_ H_ 0.741159 0.0891299 0.752806 0.10394
H_ H_ 0.705376 0.443365 0.786067 0.10394
H_ H_ 0.644386 0.980124 0.836498 0.10394
H_ H_ 0.0190934 0.0944785 0.753652 0.10394
H_ H_ 0.989231 0.167189 0.696311 0.10394
H_ H_ 0.53467 0.261906 0.832701 0.10394
H_ H_ 0.554288 0.179608 0.877496 0.10394
H_ H_ 0.532602 0.439816 0.880516 0.10394
H_ H_ 0.987161 0.377012 0.88428 0.10394
H_ H_ 0.858514 0.487679 0.903661 0.10394
H_ H_ 0.587995 0.293757 0.627512 0.10394
H_ H_ 0.00210503 0.270397 0.586858 0.10394
H_ H_ 0.528911 0.30017 0.948565 0.10394
H_ H_ 0.614843 0.327015 0.47781 0.10394
H_ H_ 0.718934 0.241873 0.593642 0.10394
H_ H_ 0.763613 0.199382 0.667733 0.10394
H_ H_ 0.726201 0.333947 0.761486 0.10394
H_ H_ 0.685048 0.378687 0.680552 0.10394
H_ H_ 0.721228 0.357043 0.92361 0.10394
H_ H_ 0.775665 0.372289 0.867273 0.10394
H_ H_ 0.891109 0.418303 0.985333 0.10394
H_ H_ 0.80615 0.394945 0.657657 0.10394
H_ H_ 0.73116 0.444456 0.691829 0.10394
H_ H_ 0.832653 0.0376514 0.788798 0.10394
H_ H_ 0.90054 0.501139 0.725723 0.10394
H_ H_ 0.503075 0.396144 0.72744 0.10394
H_ H_ 0.544285 0.315434 0.765973 0.10394
H_ H_ 0.913892 0.253174 0.730632 0.10394
H_ H_ 0.875444 0.333388 0.692269 0.10394
H_ H_ 0.957903 0.0508241 0.613042 0.10394
H_ H_ 0.520053 0.115291 0.624011 0.10394
H_ H_ 0.63972 0.000775389 0.577556 0.10394
H_ H_ 0.939488 0.16063 0.886661 0.10394
H_ H_ 0.518408 0.191122 0.964688 0.10394
H_ H_ 0.91941 0.271436 0.543168 0.10394
H_ H_ 0.844596 0.228246 -0.007319999999999993 0.10394
H_ H_ 0.746117 0.214698 0.891402 0.10394
H_ H_ 0.701456 0.248162 0.8094 0.10394
H_ H_ 0.845634 0.224476 0.743486 0.10394
H_ H_ 0.880754 0.171479 0.81759 0.10394
H_ H_ 0.782516 0.132785 0.54989 0.10394
H_ H_ 0.733778 0.111192 0.616225 0.10394
H_ H_ 0.607783 0.0817834 0.501212 0.10394
C_ C_ 0.674666 0.0867618 0.791858 0.18167
C_ C_ 0.722799 0.0681362 0.774129 -0.15533
C_ C_ 0.737489 0.0153613 0.773206 0.02923
C_ C_ 0.699187 0.485145 0.788378 -0.15533
C_ C_ 0.661229 0.00317161 0.810997 0.18167
C_ C_ 0.531436 0.135276 0.7558 0.18167
C_ C_ 0.00618983 0.176298 0.735394 -0.15533
C_ C_ 0.505292 0.224794 0.762415 0.02923
C_ C_ 0.530794 0.226789 0.811268 -0.15533
C_ C_ 0.546268 0.181675 0.83529 0.18167
C_ C_ 0.506313 0.0458902 0.858723 0.69207
C_ C_ 0.976042 0.508118 0.872716 0.02923
C_ C_ 0.999363 0.45675 0.87478 -0.15533
C_ C_ 0.97011 0.415919 0.885345 -0.15533
C_ C_ 0.918563 0.427218 0.893516 0.02923
C_ C_ 0.90022 0.479119 0.901411 -0.15533
C_ C_ 0.92549 0.517986 0.886415 0.02923
C_ C_ 0.892086 0.0626474 0.878169 0.69207
C_ C_ 0.906089 0.329589 0.886217 0.69661
C_ C_ 0.577235 0.293728 0.586919 0.18167
C_ C_ 0.528681 0.281713 0.566695 -0.15533
C_ C_ 0.512959 0.279268 0.514667 0.02923
C_ C_ 0.540057 0.298038 0.990149 -0.15533
C_ C_ 0.589013 0.317401 0.505212 0.18167
C_ C_ 0.716232 0.262484 0.631426 0.18167
C_ C_ 0.74284 0.236974 0.673892 -0.15533
C_ C_ 0.74391 0.262596 0.72154 0.02923
C_ C_ 0.726221 0.313345 0.724554 -0.15533
C_ C_ 0.697442 0.336644 0.681644 0.18167
C_ C_ 0.744544 0.364224 0.54023 0.69207
C_ C_ 0.774047 0.37766 0.994883 0.02923
C_ C_ 0.758118 0.371208 0.939668 -0.15533
C_ C_ 0.79244 0.380033 0.904206 -0.15533
C_ C_ 0.841891 0.393146 0.919651 0.02923
C_ C_ 0.856725 0.39898 0.973511 -0.15533
C_ C_ 0.825223 0.388779 0.0105871 0.02923
C_ C_ 0.855584 0.384041 0.568631 0.69207
C_ C_ 0.857953 0.390533 0.825656 0.69661
C_ C_ 0.811178 0.428079 0.680794 0.18167
C_ C_ 0.770449 0.452926 0.704987 -0.15533
C_ C_ 0.776576 0.492656 0.742561 0.02923
C_ C_ 0.826247 0.00947098 0.75621 -0.15533
C_ C_ 0.863362 0.486724 0.721133 0.18167
C_ C_ 0.997935 0.348559 0.687662 0.18167
C_ C_ 0.506452 0.315253 0.742801 -0.15533
C_ C_ 0.989483 0.26936 0.724639 0.02923
C_ C_ 0.937669 0.281129 0.718264 -0.15533
C_ C_ 0.915935 0.324181 0.693409 0.18167
C_ C_ 0.989758 0.447582 0.612779 0.69207
C_ C_ 0.521615 0.98692 0.609439 0.02923
C_ C_ 0.502108 0.0392863 0.607518 -0.15533
C_ C_ 0.534395 0.0775349 0.608301 -0.15533
C_ C_ 0.586528 0.0648547 0.599573 0.02923
C_ C_ 0.602904 0.0128479 0.591225 -0.15533
C_ C_ 0.573868 0.97438 0.604931 0.02923
C_ C_ 0.599348 0.418404 0.605778 0.69207
C_ C_ 0.601863 0.161941 0.593156 0.69661
C_ C_ 0.937106 0.180306 0.921743 0.18167
C_ C_ 0.977344 0.202091 0.946244 -0.15533
C_ C_ 0.968293 0.242371 -0.014985000000000026 0.02923
C_ C_ 0.927537 0.248418 0.510308 -0.15533
C_ C_ 0.883147 0.217695 0.98202 0.18167
C_ C_ 0.765641 0.216142 0.854363 0.18167
C_ C_ 0.740531 0.233367 0.809329 -0.15533
C_ C_ 0.768231 0.236534 0.767519 0.02923
C_ C_ 0.820849 0.214096 0.771077 -0.15533
C_ C_ 0.843154 0.192873 0.817321 0.18167
C_ C_ 0.757025 0.115814 0.943501 0.69207
C_ C_ 0.729123 0.110818 0.486318 0.02923
C_ C_ 0.747903 0.115868 0.539649 -0.15533
C_ C_ 0.71741 0.110399 0.577733 -0.15533
C_ C_ 0.667474 0.0980037 0.565303 0.02923
C_ C_ 0.647814 0.0894104 0.512883 -0.15533
C_ C_ 0.678785 0.0960761 0.473956 0.02923
C_ C_ 0.6476 0.105029 0.914836 0.69207
C_ C_ 0.65054 0.105622 0.659947 0.69661
C_ C_ 0.881425 0.384424 0.881874 -0.30787
C_ C_ 0.627041 0.105521 0.604174 -0.30787
N_ N_ 0.644003 0.0535515 0.804651 -0.32189
N_ N_ 0.552426 0.139109 0.804919 -0.32189
N_ N_ 0.607912 0.308305 0.553358 -0.32189
N_ N_ 0.69119 0.309629 0.636875 -0.32189
N_ N_ 0.858141 0.44478 0.691061 -0.32189
N_ N_ 0.945913 0.357563 0.677211 -0.32189
N_ N_ 0.891772 0.183372 0.94347 -0.32189
N_ N_ 0.813361 0.189557 0.856103 -0.32189
O_ O_ 0.00039055 0.0903119 0.895238 -0.63271
O_ O_ 0.545153 0.0293951 0.835246 -0.57982
O_ O_ 0.902413 0.0899685 0.841845 -0.63271
O_ O_ 0.855973 0.0811813 0.906763 -0.57982
O_ O_ 0.745458 0.384504 0.586156 -0.63271
O_ O_ 0.705505 0.338366 0.526909 -0.57982
O_ O_ 0.857911 0.344584 0.595631 -0.63271
O_ O_ 0.877946 0.422795 0.586436 -0.57982
O_ O_ 0.482317 0.41191 0.596453 -0.63271
O_ O_ 0.957913 0.458369 0.647596 -0.57982
O_ O_ 0.600446 0.390011 0.644683 -0.63271
O_ O_ 0.634254 0.406304 0.574122 -0.57982
O_ O_ 0.745772 0.112937 0.8939 -0.63271
O_ O_ 0.792191 0.144893 0.95923 -0.57982
O_ O_ 0.642581 0.146585 0.889642 -0.63271
O_ O_ 0.617486 0.0722393 0.899172 -0.57982
F_ F_ 0.937977 0.327366 0.93176 -0.20885
F_ F_ 0.935345 0.316798 0.845692 -0.20885
F_ F_ 0.870755 0.293964 0.88039 -0.20885
F_ F_ 0.822286 0.431116 0.819182 -0.20885
F_ F_ 0.83539 0.34814 0.804932 -0.20885
F_ F_ 0.901088 0.392171 0.795366 -0.20885
F_ F_ 0.566145 0.165279 0.549752 -0.20885
F_ F_ 0.577475 0.18462 0.632647 -0.20885
F_ F_ 0.637317 0.194712 0.583208 -0.20885
F_ F_ 0.682618 0.0592625 0.662785 -0.20885
F_ F_ 0.677627 0.145717 0.673222 -0.20885
F_ F_ 0.614209 0.106643 0.694214 -0.20885
Zn Zn 0.595422 0.588741 0.35519 0.83971
Zn Zn 0.662293 0.845178 0.0953912 0.83971
Zn Zn 0.905391 0.920716 0.161117 0.83971
Zn Zn 0.846223 0.655565 0.423255 0.83971
H_ H_ 0.682161 0.632672 0.323627 0.10394
H_ H_ 0.747093 0.596859 0.257942 0.10394
H_ H_ 0.718754 0.951548 0.309552 0.10394
H_ H_ 0.62151 0.491175 0.305889 0.10394
H_ H_ 0.0324736 0.594821 0.254974 0.10394
H_ H_ 0.99208089 0.666416 0.207116 0.10394
H_ H_ 0.545977 0.779085 0.340023 0.10394
H_ H_ 0.586616 0.705536 0.383584 0.10394
H_ H_ 0.519796 0.942007 0.355541 0.10394
H_ H_ 0.992254 0.881198 0.384912 0.10394
H_ H_ 0.864538 0.984744 0.419936 0.10394
H_ H_ 0.589549 0.787349 0.145397 0.10394
H_ H_ 0.994714 0.771289 0.0941974 0.10394
H_ H_ 0.533706 0.805868 0.447406 0.10394
H_ H_ 0.619749 0.808143 0.993353 0.10394
H_ H_ 0.718107 0.751858 0.112143 0.10394
H_ H_ 0.763019 0.709904 0.186649 0.10394
H_ H_ 0.720294 0.843304 0.282481 0.10394
H_ H_ 0.677646 0.882855 0.204574 0.10394
H_ H_ 0.732783 0.849909 0.43865 0.10394
H_ H_ 0.784553 0.862604 0.374479 0.10394
H_ H_ 0.898255 0.90852 0.488188 0.10394
H_ H_ 0.799257 0.905668 0.158521 0.10394
H_ H_ 0.727794 0.949936 0.203176 0.10394
H_ H_ 0.831999 0.537352 0.28222 0.10394
H_ H_ 0.903625 0.999575986 0.245109 0.10394
H_ H_ 0.505978 0.894116 0.208393 0.10394
H_ H_ 0.548833 0.822809 0.261012 0.10394
H_ H_ 0.909978 0.74913 0.23264 0.10394
H_ H_ 0.869305 0.829822 0.200385 0.10394
H_ H_ 0.958063 0.552848 0.125407 0.10394
H_ H_ 0.523575 0.613267 0.0950653 0.10394
H_ H_ 0.6479 0.500074 0.0892543 0.10394
H_ H_ 0.949542 0.663611 0.404045 0.10394
H_ H_ 0.517278 0.703648 0.446628 0.10394
H_ H_ 0.90488 0.780932 0.0421133 0.10394
H_ H_ 0.847702 0.73514 0.504266 0.10394
H_ H_ 0.746667 0.721106 0.409132 0.10394
H_ H_ 0.698869 0.763329 0.335798 0.10394
H_ H_ 0.836588 0.733283 0.259124 0.10394
H_ H_ 0.876021 0.681203 0.330507 0.10394
H_ H_ 0.790782 0.614141 0.0412214 0.10394
H_ H_ 0.740042 0.590741 0.109296 0.10394
H_ H_ 0.608195 0.591535 0.00374496 0.10394
C_ C_ 0.683715 0.594007 0.30672 0.18167
C_ C_ 0.722323 0.573795 0.274573 -0.15533
C_ C_ 0.730998 0.521179 0.262718 0.02923
C_ C_ 0.701487 0.988965 0.300518 -0.15533
C_ C_ 0.65173 0.514079 0.298983 0.18167
C_ C_ 0.540456 0.64163 0.277181 0.18167
C_ C_ 0.00891368 0.676366 0.245326 -0.15533
C_ C_ 0.509407 0.731129 0.276014 0.02923
C_ C_ 0.538376 0.739692 0.322577 -0.15533
C_ C_ 0.567194 0.697173 0.347328 0.18167
C_ C_ 0.508151 0.557427 0.36923 0.69207
C_ C_ 0.982013 0.0093162 0.394311 0.02923
C_ C_ 0.00344869 0.959704 0.396429 -0.15533
C_ C_ 0.972312 0.9194 0.389779 -0.15533
C_ C_ 0.921221 0.928189 0.395036 0.02923
C_ C_ 0.899653 0.977899 0.403439 -0.15533
C_ C_ 0.927155 0.02003 0.398565 0.02923
C_ C_ 0.900736 0.568164 0.392007 0.69207
C_ C_ 0.91223 0.827292 0.38345 0.69661
C_ C_ 0.578036 0.788351 0.106082 0.18167
C_ C_ 0.531192 0.773364 0.088043 -0.15533
C_ C_ 0.518732 0.759467 0.0355587 0.02923
C_ C_ 0.547603 0.800766 0.486449 -0.15533
C_ C_ 0.594697 0.795861 0.0203613 0.18167
C_ C_ 0.718784 0.771379 0.150721 0.18167
C_ C_ 0.741381 0.746679 0.19307 -0.15533
C_ C_ 0.736224 0.770965 0.242755 0.02923
C_ C_ 0.713696 0.820321 0.247114 -0.15533
C_ C_ 0.692804 0.845301 0.203213 0.18167
C_ C_ 0.74229 0.866178 0.0502247 0.69207
C_ C_ 0.785514 0.864823 0.501464 0.02923
C_ C_ 0.771484 0.856563 0.449575 -0.15533
C_ C_ 0.799009 0.871342 0.413751 -0.15533
C_ C_ 0.849716 0.880619 0.425898 0.02923
C_ C_ 0.864779 0.889551 0.477522 -0.15533
C_ C_ 0.836079 0.878288 0.516032 0.02923
C_ C_ 0.849445 0.88216 0.0761348 0.69207
C_ C_ 0.862465 0.890648 0.329898 0.69661
C_ C_ 0.805495 0.936237 0.188876 0.18167
C_ C_ 0.767355 0.957841 0.216064 -0.15533
C_ C_ 0.775403 0.99762 0.252655 0.02923
C_ C_ 0.8235 0.512989 0.246793 -0.15533
C_ C_ 0.863959 0.98647 0.238843 0.18167
C_ C_ 0.987862 0.853402 0.202915 0.18167
C_ C_ 0.511165 0.819469 0.241756 -0.15533
C_ C_ 0.987659 0.769938 0.234874 0.02923
C_ C_ 0.934521 0.776482 0.220743 -0.15533
C_ C_ 0.909406 0.820605 0.195083 0.18167
C_ C_ 0.983368 0.955051 0.124122 0.69207
C_ C_ 0.523316 0.491442 0.108115 0.02923
C_ C_ 0.511738 0.543682 0.121283 -0.15533
C_ C_ 0.541783 0.577202 0.105732 -0.15533
C_ C_ 0.593542 0.562916 0.0989074 0.02923
C_ C_ 0.608164 0.512019 0.0920769 -0.15533
C_ C_ 0.574531 0.474294 0.0984695 0.02923
C_ C_ 0.592613 0.91979 0.105771 0.69207
C_ C_ 0.604628 0.659248 0.10208 0.69661
C_ C_ 0.945285 0.679011 0.441723 0.18167
C_ C_ 0.986442 0.698513 0.471681 -0.15533
C_ C_ 0.977106 0.737787 0.511914 0.02923
C_ C_ 0.915932 0.753537 1.0115449 -0.15533
C_ C_ 0.887205 0.728685 0.494721 0.18167
C_ C_ 0.763676 0.718191 0.372933 0.18167
C_ C_ 0.736485 0.745196 0.33138 -0.15533
C_ C_ 0.761665 0.74528 0.287095 0.02923
C_ C_ 0.812752 0.723214 0.287083 -0.15533
C_ C_ 0.836653 0.696678 0.329884 0.18167
C_ C_ 0.767736 0.624192 0.460567 0.69207
C_ C_ 0.730471 0.607751 0.98368 0.02923
C_ C_ 0.751902 0.603109 0.033618 -0.15533
C_ C_ 0.720792 0.591868 0.0715187 -0.15533
C_ C_ 0.668056 0.591697 0.0618648 0.02923
C_ C_ 0.64802 0.589143 0.0116741 -0.15533
C_ C_ 0.678755 0.596316 0.971898 0.02923
C_ C_ 0.660866 0.598389 0.432285 0.69207
C_ C_ 0.657755 0.597152 0.157618 0.69661
C_ C_ 0.887502 0.882986 0.387043 -0.30787
C_ C_ 0.631041 0.601767 0.104142 -0.30787
N_ N_ 0.651097 0.563527 0.31962 -0.32189
N_ N_ 0.563476 0.648197 0.325597 -0.32189
N_ N_ 0.607337 0.803691 0.0717907 -0.32189
N_ N_ 0.690539 0.817669 0.156902 -0.32189
N_ N_ 0.852788 0.950181 0.201396 -0.32189
N_ N_ 0.936129 0.858576 0.188171 -0.32189
N_ N_ 0.89868 0.69169 0.456791 -0.32189
N_ N_ 0.811315 0.692031 0.369985 -0.32189
O_ O_ 0.010959 0.592895 0.390704 -0.63271
O_ O_ 0.545996 0.546817 0.341978 -0.57982
O_ O_ 0.897371 0.590495 0.344994 -0.63271
O_ O_ 0.877718 0.591265 0.429755 -0.57982
O_ O_ 0.741976 0.900895 0.0873337 -0.63271
O_ O_ 0.709451 0.831993 0.0490227 -0.57982
O_ O_ 0.848892 0.842065 0.102654 -0.63271
O_ O_ 0.875275 0.918613 0.0949242 -0.57982
O_ O_ 0.485208 0.906846 0.102285 -0.63271
O_ O_ 0.953136 0.966557 0.161064 -0.57982
O_ O_ 0.601506 0.899582 0.150586 -0.63271
O_ O_ 0.621902 0.900385 0.0706861 -0.57982
O_ O_ 0.765381 0.598901 0.417481 -0.63271
O_ O_ 0.798318 0.657738 0.470097 -0.57982
O_ O_ 0.659267 0.641146 0.409066 -0.63271
O_ O_ 0.62218 0.571322 0.419867 -0.57982
F_ F_ 0.950023 0.816923 0.424867 -0.20885
F_ F_ 0.941362 0.817154 0.342593 -0.20885
F_ F_ 0.877857 0.791619 0.375482 -0.20885
F_ F_ 0.823343 0.930752 0.329424 -0.20885
F_ F_ 0.840797 0.849368 0.306716 -0.20885
F_ F_ 0.894763 0.90342 0.296659 -0.20885
F_ F_ 0.573946 0.664675 0.0577606 -0.20885
F_ F_ 0.572951 0.675438 0.139488 -0.20885
F_ F_ 0.641043 0.693304 0.0980156 -0.20885
F_ F_ 0.690197 0.551885 0.164165 -0.20885
F_ F_ 0.688878 0.635443 0.17289 -0.20885
F_ F_ 0.62215 0.60035 0.19309 -0.20885
Zn Zn 0.586583 0.578209 0.841339 0.83971
Zn Zn 0.667325 0.8464 0.576893 0.83971
Zn Zn 0.908957 0.915742 0.654041 0.83971
Zn Zn 0.839278 0.653366 0.908404 0.83971
H_ H_ 0.6754 0.629871 0.813063 0.10394
H_ H_ 0.750342 0.595953 0.766983 0.10394
H_ H_ 0.718033 0.943185 0.795139 0.10394
H_ H_ 0.633152 0.478988 0.826349 0.10394
H_ H_ 0.0356424 0.602969 0.752554 0.10394
H_ H_ 1.00256432 0.67374 0.705724 0.10394
H_ H_ 0.538588 0.759967 0.835245 0.10394
H_ H_ 0.562249 0.679058 0.878005 0.10394
H_ H_ 0.534011 0.957865 0.894907 0.10394
H_ H_ 0.983774 0.874533 0.878581 0.10394
H_ H_ 0.854435 0.982367 0.908259 0.10394
H_ H_ 0.600829 0.797953 0.628012 0.10394
H_ H_ 0.000344273 0.771064 0.610964 0.10394
H_ H_ 0.543492 0.76414 0.960919 0.10394
H_ H_ 0.613488 0.842111 0.48213 0.10394
H_ H_ 0.719645 0.746481 0.588447 0.10394
H_ H_ 0.76044 0.700214 0.662786 0.10394
H_ H_ 0.724944 0.831346 0.761329 0.10394
H_ H_ 0.685803 0.878296 0.686656 0.10394
H_ H_ 0.71905 0.856089 0.950593 0.10394
H_ H_ 0.766192 0.870204 0.883698 0.10394
H_ H_ 0.899861 0.889372 0.997387 0.10394
H_ H_ 0.801863 0.935801 0.628579 0.10394
H_ H_ 0.730639 0.973825 0.678177 0.10394
H_ H_ 0.834278 0.539457 0.778595 0.10394
H_ H_ 0.905001 0.990063 0.745769 0.10394
H_ H_ 0.516346 0.863982 0.671487 0.10394
H_ H_ 0.555806 0.793633 0.717839 0.10394
H_ H_ 0.91208 0.752141 0.741102 0.10394
H_ H_ 0.873667 0.82756 0.696733 0.10394
H_ H_ 0.966944 0.551653 0.625634 0.10394
H_ H_ 0.524668 0.612119 0.617091 0.10394
H_ H_ 0.652961 0.498799 0.611617 0.10394
H_ H_ 0.934794 0.666712 0.893678 0.10394
H_ H_ 0.521093 0.678779 0.966199 0.10394
H_ H_ 0.917177 0.780597 0.553162 0.10394
H_ H_ 0.837649 0.735983 0.996922 0.10394
H_ H_ 0.73388 0.705011 0.882088 0.10394
H_ H_ 0.692714 0.749265 0.807989 0.10394
H_ H_ 0.83263 0.720386 0.738301 0.10394
H_ H_ 0.873121 0.679294 0.81537 0.10394
H_ H_ 0.793987 0.631864 0.56309 0.10394
H_ H_ 0.74106 0.609438 0.627889 0.10394
H_ H_ 0.624528 0.562934 0.511966 0.10394
C_ C_ 0.679386 0.590984 0.79715 0.18167
C_ C_ 0.725926 0.569098 0.780567 -0.15533
C_ C_ 0.735176 0.515179 0.771339 0.02923
C_ C_ 0.7045 0.98228 0.788436 -0.15533
C_ C_ 0.656949 0.50668 0.809955 0.18167
C_ C_ 0.528529 0.63288 0.761676 0.18167
C_ C_ 0.017527 0.681579 0.746309 -0.15533
C_ C_ 0.512687 0.724393 0.762117 0.02923
C_ C_ 0.536364 0.7245 0.812448 -0.15533
C_ C_ 0.55431 0.679562 0.837012 0.18167
C_ C_ 0.507379 0.541951 0.859245 0.69207
C_ C_ 0.97226 0.00395463 0.88574 0.02923
C_ C_ -0.00611600000000001 0.952659 0.884597 -0.15533
C_ C_ 0.962742 0.91278 0.881462 -0.15533
C_ C_ 0.910601 0.922163 0.895314 0.02923
C_ C_ 0.892703 0.974845 0.904469 -0.15533
C_ C_ 0.920992 0.014255 0.893528 0.02923
C_ C_ 0.897674 0.568161 0.880979 0.69207
C_ C_ 0.895311 0.826057 0.875652 0.69661
C_ C_ 0.587071 0.790805 0.58748 0.18167
C_ C_ 0.537777 0.774021 0.572002 -0.15533
C_ C_ 0.517916 0.778284 0.52048 0.02923
C_ C_ 0.553748 0.770279 1.0014 -0.15533
C_ C_ 0.59337 0.819084 0.506137 0.18167
C_ C_ 0.7171 0.763168 0.627669 0.18167
C_ C_ 0.737393 0.736094 0.670168 -0.15533
C_ C_ 0.736247 0.760301 0.718787 0.02923
C_ C_ 0.718071 0.812007 0.7247 -0.15533
C_ C_ 0.70002 0.837393 0.681796 0.18167
C_ C_ 0.750078 0.857507 0.539495 0.69207
C_ C_ 0.77803 0.86469 1.0102013 0.02923
C_ C_ 0.756471 0.867977 0.959442 -0.15533
C_ C_ 0.785415 0.874797 0.9208 -0.15533
C_ C_ 0.837656 0.882925 0.930397 0.02923
C_ C_ 0.857545 0.884121 0.983277 -0.15533
C_ C_ 0.82555 0.88218 0.0233408 0.02923
C_ C_ 0.855394 0.880296 0.573076 0.69207
C_ C_ 0.842206 0.893313 0.831544 0.69661
C_ C_ 0.807655 0.952285 0.665901 0.18167
C_ C_ 0.766605 0.972359 0.693955 -0.15533
C_ C_ 0.777092 -0.004418000000000033 0.741286 0.02923
C_ C_ 0.825099 0.51139 0.750157 -0.15533
C_ C_ 0.866412 0.984017 0.731843 0.18167
C_ C_ 0.990495 0.857219 0.712084 0.18167
C_ C_ 0.516449 0.801161 0.717856 -0.15533
C_ C_ 0.987674 0.775049 0.745061 0.02923
C_ C_ 0.936215 0.778361 0.72968 -0.15533
C_ C_ 0.91328 0.821367 0.701895 0.18167
C_ C_ 0.986682 0.951125 0.618751 0.69207
C_ C_ 0.528412 0.4843 0.620973 0.02923
C_ C_ 0.511521 0.536025 0.622915 -0.15533
C_ C_ 0.54279 0.572913 0.61222 -0.15533
C_ C_ 0.595588 0.561655 0.607646 0.02923
C_ C_ 0.612389 0.509709 0.609119 -0.15533
C_ C_ 0.578862 0.469552 0.613802 0.02923
C_ C_ 0.599658 0.921974 0.604716 0.69207
C_ C_ 0.607469 0.65708 0.609892 0.69661
C_ C_ 0.930298 0.69157 0.926193 0.18167
C_ C_ 0.971997 0.706333 0.95817 -0.15533
C_ C_ 0.965655 0.74125 0.999669 0.02923
C_ C_ 0.926416 0.753992 0.519807 -0.15533
C_ C_ 0.87522 0.7321 0.984262 0.18167
C_ C_ 0.757194 0.70645 0.848669 0.18167
C_ C_ 0.733119 0.733348 0.806684 -0.15533
C_ C_ 0.76005 0.733665 0.763979 0.02923
C_ C_ 0.81047 0.71487 0.76902 -0.15533
C_ C_ 0.83386 0.692131 0.812702 0.18167
C_ C_ 0.763799 0.618825 0.944113 0.69207
C_ C_ 0.733689 0.616266 0.498462 0.02923
C_ C_ 0.7523 0.619962 0.550477 -0.15533
C_ C_ 0.722816 0.610397 0.589145 -0.15533
C_ C_ 0.674366 0.593067 0.576833 0.02923
C_ C_ 0.657102 0.583376 0.523494 -0.15533
C_ C_ 0.686487 0.596703 0.485176 0.02923
C_ C_ 0.652278 0.602737 0.919962 0.69207
C_ C_ 0.652076 0.60168 0.67181 0.69661
C_ C_ 0.870978 0.880919 0.885497 -0.30787
C_ C_ 0.633276 0.601304 0.615405 -0.30787
N_ N_ 0.644309 0.557481 0.807663 -0.32189
N_ N_ 0.556059 0.635599 0.808463 -0.32189
N_ N_ 0.613696 0.809953 0.553765 -0.32189
N_ N_ 0.697057 0.811699 0.634816 -0.32189
N_ N_ 0.856568 0.951493 0.689546 -0.32189
N_ N_ 0.941086 0.859877 0.693314 -0.32189
N_ N_ 0.882588 0.701262 0.942232 -0.32189
N_ N_ 0.807402 0.689591 0.852389 -0.32189
O_ O_ 1.00252361 0.59081 0.897769 -0.63271
O_ O_ 0.542745 0.530041 0.828511 -0.57982
O_ O_ 0.893046 0.588229 0.835533 -0.63271
O_ O_ 0.869081 0.590239 0.916843 -0.57982
O_ O_ 0.743448 0.891741 0.575879 -0.63271
O_ O_ 0.710594 0.832361 0.526098 -0.57982
O_ O_ 0.854727 0.842407 0.601619 -0.63271
O_ O_ 0.881255 0.917187 0.591012 -0.57982
O_ O_ 0.486657 0.905146 0.594067 -0.63271
O_ O_ 0.951332 0.962125 0.649599 -0.57982
O_ O_ 0.599396 0.894936 0.642672 -0.63271
O_ O_ 0.630569 0.907916 0.570028 -0.57982
O_ O_ 0.765708 0.593066 0.903043 -0.63271
O_ O_ 0.792176 0.65617 0.953525 -0.57982
O_ O_ 0.653149 0.643618 0.896404 -0.63271
O_ O_ 0.615344 0.575497 0.904469 -0.57982
F_ F_ 0.92738 0.813209 0.919289 -0.20885
F_ F_ 0.923829 0.822044 0.836238 -0.20885
F_ F_ 0.86027 0.788791 0.863159 -0.20885
F_ F_ 0.808623 0.936434 0.834817 -0.20885
F_ F_ 0.80754 0.857394 0.813638 -0.20885
F_ F_ 0.875387 0.894171 0.793262 -0.20885
F_ F_ 0.579125 0.658976 0.562274 -0.20885
F_ F_ 0.576788 0.674709 0.646581 -0.20885
F_ F_ 0.643658 0.691951 0.610273 -0.20885
F_ F_ 0.68688 0.560542 0.683131 -0.20885
F_ F_ 0.675935 0.646278 0.688219 -0.20885
F_ F_ 0.614255 0.595563 0.70478 -0.20885
