_cell_length_a 26.508
_cell_length_b 26.37200000322088
_cell_length_c 26.311999743092066
_cell_angle_alpha 93.74100058972084
_cell_angle_beta 96.04100104955006
_cell_angle_gamma 83.6869992558723
_symmetry_space_group_name_H-M         'P 1'
_symmetry_Int_Tables_number            1
loop_
_symmetry_equiv_pos_as_xyz
   'x, y, z'
                         
loop_
_atom_site_label
_atom_site_type_symbol
_atom_site_fract_x 
_atom_site_fract_y
_atom_site_fract_z
_atom_site_charge
Zn Zn 0.0928817 0.0791621 0.345856 0.83971
Zn Zn 0.165669 0.348947 0.0846457 0.83971
Zn Zn 0.411094 0.415403 0.160956 0.83971
Zn Zn 0.348348 0.147354 0.418391 0.83971
H_ H_ 0.180069 0.130989 0.314571 0.10394
H_ H_ 0.252751 0.0954674 0.269859 0.10394
H_ H_ 0.198507 0.451767 0.27112 0.10394
H_ H_ 0.139056 0.979788 0.324099 0.10394
H_ H_ 0.539367 0.102586 0.266091 0.10394
H_ H_ 0.513454 0.17479 0.211444 0.10394
H_ H_ 0.0401422 0.264883 0.343281 0.10394
H_ H_ 0.0821163 0.187099 0.380185 0.10394
H_ H_ 0.0200642 0.449013 0.34877 0.10394
H_ H_ 0.4666 0.372162 0.365063 0.10394
H_ H_ 0.344813 0.486175 0.400207 0.10394
H_ H_ 0.0847667 0.310087 0.134163 0.10394
H_ H_ 0.508908 0.272589 0.101259 0.10394
H_ H_ 0.0401908 0.299442 0.448213 0.10394
H_ H_ 0.117243 0.327902 0.98167 0.10394
H_ H_ 0.224852 0.253679 0.0984136 0.10394
H_ H_ 0.272804 0.209021 0.177943 0.10394
H_ H_ 0.205802 0.327495 0.272217 0.10394
H_ H_ 0.181313 0.377722 0.196034 0.10394
H_ H_ 0.210993 0.369832 0.452024 0.10394
H_ H_ 0.265894 0.357331 0.385952 0.10394
H_ H_ 0.394461 0.39584 0.482803 0.10394
H_ H_ 0.311731 0.401987 0.158798 0.10394
H_ H_ 0.233732 0.450173 0.192874 0.10394
H_ H_ 0.335812 0.0356822 0.275328 0.10394
H_ H_ 0.405106 0.501118 0.249209 0.10394
H_ H_ 0.0132315 0.393033 0.215419 0.10394
H_ H_ 0.0617262 0.309904 0.248026 0.10394
H_ H_ 0.43355 0.239498 0.227786 0.10394
H_ H_ 0.383785 0.318894 0.1918 0.10394
H_ H_ 0.460077 0.0493842 0.0862722 0.10394
H_ H_ 0.0282883 0.131748 0.115816 0.10394
H_ H_ 0.145389 0.0130112 0.0895199 0.10394
H_ H_ 0.453256 0.154518 0.398447 0.10394
H_ H_ 0.022791 0.196359 0.458336 0.10394
H_ H_ 0.421021 0.287821 0.0443878 0.10394
H_ H_ 0.354798 0.219418 0.509579 0.10394
H_ H_ 0.241191 0.193966 0.386215 0.10394
H_ H_ 0.199351 0.2402 0.310082 0.10394
H_ H_ 0.34462 0.226705 0.250283 0.10394
H_ H_ 0.383563 0.181555 0.331008 0.10394
H_ H_ 0.290283 0.123206 0.0544325 0.10394
H_ H_ 0.240327 0.105715 0.114406 0.10394
H_ H_ 0.104643 0.109898 0.00733977 0.10394
C_ C_ 0.185204 0.088895 0.304283 0.18167
C_ C_ 0.229036 0.0688328 0.280855 -0.15533
C_ C_ 0.235335 0.0176111 0.266064 0.02923
C_ C_ 0.189523 0.49154 0.271903 -0.15533
C_ C_ 0.158468 0.00599367 0.303679 0.18167
C_ C_ 0.0377931 0.13211 0.265205 0.18167
C_ C_ 0.527233 0.18185 0.251349 -0.15533
C_ C_ 0.0175163 0.223843 0.267128 0.02923
C_ C_ 0.0409082 0.227159 0.317156 -0.15533
C_ C_ 0.0632953 0.183447 0.340173 0.18167
C_ C_ 0.0147625 0.0407186 0.379372 0.69207
C_ C_ 0.465488 0.500983 0.376703 0.02923
C_ C_ 0.486069 0.448819 0.37442 -0.15533
C_ C_ 0.454343 0.41141 0.374963 -0.15533
C_ C_ 0.403971 0.425233 0.387323 0.02923
C_ C_ 0.384404 0.478123 0.3936 -0.15533
C_ C_ 0.413958 0.514834 0.383238 0.02923
C_ C_ 0.397275 0.0657723 0.382441 0.69207
C_ C_ 0.393633 0.325681 0.384489 0.69661
C_ C_ 0.0779839 0.300358 0.0920307 0.18167
C_ C_ 0.0308727 0.282923 0.0727604 -0.15533
C_ C_ 0.0211633 0.270542 0.018972 0.02923
C_ C_ 0.0482731 0.29783 0.48924 -0.15533
C_ C_ 0.0990333 0.307933 0.00663339 0.18167
C_ C_ 0.225089 0.268952 0.137466 0.18167
C_ C_ 0.250211 0.243322 0.181356 -0.15533
C_ C_ 0.245281 0.265562 0.229962 0.02923
C_ C_ 0.21517 0.312293 0.234309 -0.15533
C_ C_ 0.193901 0.338762 0.192139 0.18167
C_ C_ 0.249275 0.372812 0.0449315 0.69207
C_ C_ 0.273375 0.376562 0.510461 0.02923
C_ C_ 0.252224 0.373806 0.460323 -0.15533
C_ C_ 0.283657 0.37344 0.421052 -0.15533
C_ C_ 0.334079 0.384589 0.429878 0.02923
C_ C_ 0.354364 0.389782 0.479733 -0.15533
C_ C_ 0.324739 0.386744 0.521087 0.02923
C_ C_ 0.362228 0.378954 0.0749253 0.69207
C_ C_ 0.336964 0.383443 0.331374 0.69661
C_ C_ 0.315306 0.435634 0.18451 0.18167
C_ C_ 0.271587 0.462416 0.203246 -0.15533
C_ C_ 0.275251 0.501761 0.241668 0.02923
C_ C_ 0.326783 0.0108455 0.242297 -0.15533
C_ C_ 0.366707 0.49163 0.234882 0.18167
C_ C_ 0.498092 0.358802 0.218636 0.18167
C_ C_ 0.0193523 0.310478 0.232817 -0.15533
C_ C_ 0.500403 0.275654 0.25103 0.02923
C_ C_ 0.449174 0.276226 0.230711 -0.15533
C_ C_ 0.423036 0.319267 0.20841 0.18167
C_ C_ 0.493705 0.444675 0.127905 0.69207
C_ C_ 0.0252152 1.00246376 0.120015 0.02923
C_ C_ 0.00818625 0.0554572 0.121526 -0.15533
C_ C_ 0.040206 0.0917217 0.112846 -0.15533
C_ C_ 0.0919968 0.0782321 0.107001 0.02923
C_ C_ 0.108314 0.0242584 0.101072 -0.15533
C_ C_ 0.0771362 0.987698 0.113369 0.02923
C_ C_ 0.0971142 0.420581 0.10397 0.69207
C_ C_ 0.108357 0.176911 0.114328 0.69661
C_ C_ 0.445744 0.176596 0.434351 0.18167
C_ C_ 0.482316 0.207639 0.450078 -0.15533
C_ C_ 0.472406 0.244144 0.491296 0.02923
C_ C_ 0.429348 0.260231 0.0145303 -0.15533
C_ C_ 0.387028 0.217181 0.489868 0.18167
C_ C_ 0.263818 0.199419 0.355541 0.18167
C_ C_ 0.24129 0.227584 0.313022 -0.15533
C_ C_ 0.269571 0.237409 0.27398 0.02923
C_ C_ 0.32043 0.216807 0.278589 -0.15533
C_ C_ 0.343478 0.190714 0.322352 0.18167
C_ C_ 0.273194 0.119472 0.458631 0.69207
C_ C_ 0.231015 0.128792 0.992643 0.02923
C_ C_ 0.251566 0.118828 0.0427929 -0.15533
C_ C_ 0.219827 0.111565 0.0788548 -0.15533
C_ C_ 0.166057 0.111512 0.0702492 0.02923
C_ C_ 0.147081 0.113809 0.0183268 -0.15533
C_ C_ 0.179026 0.120806 0.979045 0.02923
C_ C_ 0.160478 0.10573 0.428223 0.69207
C_ C_ 0.160628 0.113751 0.168473 0.69661
C_ C_ 0.367152 0.380774 0.385603 -0.30787
C_ C_ 0.131514 0.119215 0.11454 -0.30787
N_ N_ 0.151854 0.0572244 0.312397 -0.32189
N_ N_ 0.0566778 0.13644 0.317857 -0.32189
N_ N_ 0.109209 0.313424 0.0581342 -0.32189
N_ N_ 0.200412 0.318187 0.144112 -0.32189
N_ N_ 0.360693 0.45364 0.197412 -0.32189
N_ N_ 0.446991 0.360509 0.201701 -0.32189
N_ N_ 0.39821 0.183195 0.450965 -0.32189
N_ N_ 0.31475 0.184219 0.360627 -0.32189
O_ O_ 0.5094 0.078259 0.413164 -0.63271
O_ O_ 0.050015 0.0311168 0.349183 -0.57982
O_ O_ 0.40417 0.0966648 0.348914 -0.63271
O_ O_ 0.374536 0.0830706 0.42145 -0.57982
O_ O_ 0.250539 0.400102 0.085628 -0.63271
O_ O_ 0.214705 0.341029 0.0378154 -0.57982
O_ O_ 0.356916 0.339758 0.100345 -0.63271
O_ O_ 0.395169 0.410904 0.0933574 -0.57982
O_ O_ 0.993528 0.401109 0.105939 -0.63271
O_ O_ 0.456218 0.458594 0.157904 -0.57982
O_ O_ 0.099732 0.398959 0.14837 -0.63271
O_ O_ 0.133552 0.408966 0.0767047 -0.57982
O_ O_ 0.266182 0.0973726 0.411875 -0.63271
O_ O_ 0.304474 0.153574 0.463619 -0.57982
O_ O_ 0.165448 0.14807 0.407968 -0.63271
O_ O_ 0.123244 0.0783071 0.40888 -0.57982
F_ F_ 0.431704 0.318776 0.422625 -0.20885
F_ F_ 0.411972 0.308646 0.338598 -0.20885
F_ F_ 0.358696 0.28981 0.389546 -0.20885
F_ F_ 0.299372 0.424069 0.327273 -0.20885
F_ F_ 0.312896 0.339874 0.314759 -0.20885
F_ F_ 0.367373 0.392419 0.292482 -0.20885
F_ F_ 0.0705501 0.1844 0.0734255 -0.20885
F_ F_ 0.0877165 0.194674 0.158321 -0.20885
F_ F_ 0.147443 0.206351 0.11016 -0.20885
F_ F_ 0.190337 0.0671129 0.167605 -0.20885
F_ F_ 0.189049 0.155648 0.184728 -0.20885
F_ F_ 0.125323 0.112106 0.204956 -0.20885
Zn Zn 0.088825 0.088405 0.850503 0.83971
Zn Zn 0.159565 0.351858 0.588994 0.83971
Zn Zn 0.40385 0.411825 0.655647 0.83971
Zn Zn 0.350446 0.163433 0.916249 0.83971
H_ H_ 0.166 0.134932 0.799539 0.10394
H_ H_ 0.244146 0.103189 0.766861 0.10394
H_ H_ 0.202334 0.44534 0.791605 0.10394
H_ H_ 0.123847 0.988814 0.807999 0.10394
H_ H_ 0.528685 0.0866738 0.748561 0.10394
H_ H_ 0.484526 0.161763 0.704306 0.10394
H_ H_ 0.028812 0.267449 0.830209 0.10394
H_ H_ 0.0644824 0.193395 0.880282 0.10394
H_ H_ 0.0350643 0.442158 0.868361 0.10394
H_ H_ 0.492639 0.391315 0.89627 0.10394
H_ H_ 0.353038 0.494352 0.900133 0.10394
H_ H_ 0.0886774 0.299462 0.634465 0.10394
H_ H_ 0.509008 0.25765 0.590459 0.10394
H_ H_ 0.0497643 0.28018 0.945691 0.10394
H_ H_ 0.121047 0.323551 0.483644 0.10394
H_ H_ 0.231805 0.264072 0.600158 0.10394
H_ H_ 0.272646 0.216077 0.677124 0.10394
H_ H_ 0.188815 0.326365 0.774289 0.10394
H_ H_ 0.153425 0.372553 0.701401 0.10394
H_ H_ 0.221035 0.384989 0.947947 0.10394
H_ H_ 0.27317 0.383421 0.877381 0.10394
H_ H_ 0.407117 0.394916 0.98673 0.10394
H_ H_ 0.308614 0.384778 0.68038 0.10394
H_ H_ 0.232448 0.430969 0.706103 0.10394
H_ H_ 0.328324 0.0442533 0.77879 0.10394
H_ H_ 0.395985 0.506072 0.731681 0.10394
H_ H_ 0.00769879 0.384285 0.709636 0.10394
H_ H_ 0.0546311 0.304091 0.736402 0.10394
H_ H_ 0.414893 0.228458 0.705487 0.10394
H_ H_ 0.369887 0.312872 0.680897 0.10394
H_ H_ 0.4791 0.0614198 0.651505 0.10394
H_ H_ 0.0184081 0.117041 0.589966 0.10394
H_ H_ 0.151712 0.00933641 0.600701 0.10394
H_ H_ 0.452148 0.164871 0.900861 0.10394
H_ H_ 0.0245431 0.189227 0.95315 0.10394
H_ H_ 0.409693 0.284431 0.531234 0.10394
H_ H_ 0.351701 0.240516 -0.0003229999999999622 0.10394
H_ H_ 0.24458 0.202812 0.894547 0.10394
H_ H_ 0.196854 0.246687 0.821157 0.10394
H_ H_ 0.33875 0.243533 0.75155 0.10394
H_ H_ 0.381992 0.196327 0.81897 0.10394
H_ H_ 0.293953 0.111545 0.559936 0.10394
H_ H_ 0.235246 0.105757 0.624811 0.10394
H_ H_ 0.112062 0.0902655 0.502375 0.10394
C_ C_ 0.174231 0.0959337 0.7959 0.18167
C_ C_ 0.217835 0.075909 0.775218 -0.15533
C_ C_ 0.227891 0.0230614 0.76113 0.02923
C_ C_ 0.194048 0.486465 0.789726 -0.15533
C_ C_ 0.152578 0.0102844 0.798333 0.18167
C_ C_ 0.0239543 0.133463 0.770175 0.18167
C_ C_ 0.504342 0.167752 0.741991 -0.15533
C_ C_ 0.00690635 0.224598 0.75993 0.02923
C_ C_ 0.026129 0.230664 0.812366 -0.15533
C_ C_ 0.0476542 0.190158 0.840135 0.18167
C_ C_ 0.0104017 0.0448554 0.879515 0.69207
C_ C_ 0.473884 0.51424 0.877818 0.02923
C_ C_ 0.496985 0.463663 0.875115 -0.15533
C_ C_ 0.46958 0.424042 0.88554 -0.15533
C_ C_ 0.416516 0.432739 0.893622 0.02923
C_ C_ 0.395772 0.485396 0.898186 -0.15533
C_ C_ 0.423551 0.525322 0.890457 0.02923
C_ C_ 0.401259 0.0764035 0.882036 0.69207
C_ C_ 0.407818 0.334271 0.88527 0.69661
C_ C_ 0.0751164 0.300284 0.593736 0.18167
C_ C_ 0.0275191 0.287764 0.573222 -0.15533
C_ C_ 0.0150541 0.279824 0.519881 0.02923
C_ C_ 0.053529 0.291386 0.985245 -0.15533
C_ C_ 0.0950379 0.314137 0.509936 0.18167
C_ C_ 0.22872 0.281145 0.640104 0.18167
C_ C_ 0.250957 0.254806 0.684236 -0.15533
C_ C_ 0.234868 0.269104 0.733505 0.02923
C_ C_ 0.195516 0.309405 0.737581 -0.15533
C_ C_ 0.182109 0.339293 0.697156 0.18167
C_ C_ 0.239066 0.369934 0.551388 0.69207
C_ C_ 0.282695 0.384132 0.00804114 0.02923
C_ C_ 0.262483 0.386528 0.956182 -0.15533
C_ C_ 0.29269 0.389434 0.916443 -0.15533
C_ C_ 0.345262 0.390221 0.929075 0.02923
C_ C_ 0.366167 0.394515 0.981659 -0.15533
C_ C_ 0.337227 0.382057 0.0216956 0.02923
C_ C_ 0.350669 0.38709 0.574108 0.69207
C_ C_ 0.353512 0.391548 0.831028 0.69661
C_ C_ 0.31076 0.421659 0.701047 0.18167
C_ C_ 0.265433 0.45047 0.712186 -0.15533
C_ C_ 0.271448 0.491376 0.746508 0.02923
C_ C_ 0.322233 0.011393 0.750825 -0.15533
C_ C_ 0.358961 0.489575 0.728159 0.18167
C_ C_ 0.484443 0.349755 0.712417 0.18167
C_ C_ 0.0142708 0.306196 0.722129 -0.15533
C_ C_ 0.484327 0.262798 0.736714 0.02923
C_ C_ 0.432857 0.263495 0.713367 -0.15533
C_ C_ 0.410909 0.308799 0.688932 0.18167
C_ C_ 0.487113 0.442247 0.633917 0.69207
C_ C_ 0.0267103 0.991675 0.613548 0.02923
C_ C_ 0.00450997 0.0427761 0.606959 -0.15533
C_ C_ 0.0351108 0.0790309 0.597012 -0.15533
C_ C_ 0.0883246 0.0685029 0.598082 0.02923
C_ C_ 0.109966 0.0175158 0.599558 -0.15533
C_ C_ 0.0775156 0.978098 0.603927 0.02923
C_ C_ 0.0863481 0.426296 0.609621 0.69207
C_ C_ 0.100544 0.165958 0.600668 0.69661
C_ C_ 0.446867 0.185842 0.93568 0.18167
C_ C_ 0.486487 0.212287 0.958385 -0.15533
C_ C_ 0.480149 0.247416 1.00173753 0.02923
C_ C_ 0.4234 0.25132 0.50835 -0.15533
C_ C_ 0.38999 0.232586 0.988522 0.18167
C_ C_ 0.264956 0.208188 0.861148 0.18167
C_ C_ 0.238462 0.235584 0.818763 -0.15533
C_ C_ 0.262699 0.250915 0.778933 0.02923
C_ C_ 0.314228 0.233039 0.780335 -0.15533
C_ C_ 0.339602 0.204298 0.819625 0.18167
C_ C_ 0.268079 0.132376 0.953406 0.69207
C_ C_ 0.2355 0.111681 0.496727 0.02923
C_ C_ 0.252488 0.108977 0.546995 -0.15533
C_ C_ 0.218836 0.103687 0.583458 -0.15533
C_ C_ 0.167804 0.0972876 0.570756 0.02923
C_ C_ 0.15293 0.086643 0.516949 -0.15533
C_ C_ 0.183644 0.0977354 0.481404 0.02923
C_ C_ 0.1568 0.116841 0.924884 0.69207
C_ C_ 0.144608 0.110599 0.66377 0.69661
C_ C_ 0.381515 0.389518 0.887184 -0.30787
C_ C_ 0.125694 0.110629 0.606002 -0.30787
N_ N_ 0.143599 0.0618852 0.809828 -0.32189
N_ N_ 0.0496971 0.142564 0.818645 -0.32189
N_ N_ 0.107935 0.312425 0.561703 -0.32189
N_ N_ 0.194098 0.322461 0.647576 -0.32189
N_ N_ 0.354853 0.443832 0.701026 -0.32189
N_ N_ 0.437053 0.350087 0.687525 -0.32189
N_ N_ 0.400282 0.198282 0.948935 -0.32189
N_ N_ 0.317433 0.199844 0.863577 -0.32189
O_ O_ 0.513275 0.0835456 0.894231 -0.63271
O_ O_ 0.0473975 0.0377903 0.8508 -0.57982
O_ O_ 0.400131 0.100347 0.840012 -0.63271
O_ O_ 0.37592 0.0990588 0.920447 -0.57982
O_ O_ 0.246212 0.39431 0.595597 -0.63271
O_ O_ 0.202362 0.340885 0.541888 -0.57982
O_ O_ 0.350863 0.345984 0.599962 -0.63271
O_ O_ 0.375144 0.426185 0.594442 -0.57982
O_ O_ 0.98348 0.409072 0.599391 -0.63271
O_ O_ 0.45072 0.459111 0.661626 -0.57982
O_ O_ 0.0847674 0.405219 0.652719 -0.63271
O_ O_ 0.126401 0.413122 0.586468 -0.57982
O_ O_ 0.260198 0.113801 0.90543 -0.63271
O_ O_ 0.305739 0.161972 0.961505 -0.57982
O_ O_ 0.15409 0.157061 0.896811 -0.63271
O_ O_ 0.120677 0.0867799 0.913221 -0.57982
F_ F_ 0.44363 0.329733 0.927779 -0.20885
F_ F_ 0.431754 0.315713 0.843759 -0.20885
F_ F_ 0.373196 0.297385 0.887114 -0.20885
F_ F_ 0.314682 0.429275 0.826299 -0.20885
F_ F_ 0.329174 0.352503 0.807869 -0.20885
F_ F_ 0.385982 0.394007 0.794655 -0.20885
F_ F_ 0.0786073 0.166834 0.550083 -0.20885
F_ F_ 0.0627958 0.180795 0.632345 -0.20885
F_ F_ 0.136659 0.200145 0.606585 -0.20885
F_ F_ 0.170451 0.0669231 0.678087 -0.20885
F_ F_ 0.1742 0.148509 0.682616 -0.20885
F_ F_ 0.103919 0.11766 0.692017 -0.20885
Zn Zn 0.0817318 0.586278 0.341954 0.83971
Zn Zn 0.162041 0.853026 0.0876416 0.83971
Zn Zn 0.4102 0.911126 0.147589 0.83971
Zn Zn 0.33689 0.654573 0.419867 0.83971
H_ H_ 0.164592 0.636133 0.305023 0.10394
H_ H_ 0.241169 0.605538 0.264439 0.10394
H_ H_ 0.213193 0.944419 0.282092 0.10394
H_ H_ 0.116411 0.491533 0.298933 0.10394
H_ H_ 0.502777 0.587224 0.252458 0.10394
H_ H_ 0.468865 0.664632 0.20309 0.10394
H_ H_ 0.0348005 0.769219 0.326881 0.10394
H_ H_ 0.0705168 0.696956 0.371149 0.10394
H_ H_ 0.02622 0.938873 0.363926 0.10394
H_ H_ 0.47958 0.873436 0.374976 0.10394
H_ H_ 0.350079 0.979668 0.388465 0.10394
H_ H_ 0.0869856 0.806729 0.137068 0.10394
H_ H_ 0.496918 0.769405 0.0928591 0.10394
H_ H_ 0.0334402 0.79626 0.439013 0.10394
H_ H_ 0.118041 0.816512 0.985261 0.10394
H_ H_ 0.217079 0.760107 0.0980847 0.10394
H_ H_ 0.259503 0.707267 0.173418 0.10394
H_ H_ 0.213711 0.83651 0.274336 0.10394
H_ H_ 0.174224 0.888559 0.200558 0.10394
H_ H_ 0.215782 0.866755 0.435928 0.10394
H_ H_ 0.268018 0.873704 0.367102 0.10394
H_ H_ 0.399166 0.885254 0.481707 0.10394
H_ H_ 0.303181 0.88411 0.165134 0.10394
H_ H_ 0.231506 0.948039 0.190718 0.10394
H_ H_ 0.328765 0.546302 0.286673 0.10394
H_ H_ 0.401586 -0.003662999999999972 0.221575 0.10394
H_ H_ 0.0131617 0.889352 0.196728 0.10394
H_ H_ 0.0508566 0.815433 0.23597 0.10394
H_ H_ 0.400882 0.744881 0.223714 0.10394
H_ H_ 0.365252 0.814642 0.166622 0.10394
H_ H_ 0.458469 0.534542 0.0872007 0.10394
H_ H_ 0.0148441 0.610411 0.0960625 0.10394
H_ H_ 0.143185 0.499051 0.0870907 0.10394
H_ H_ 0.436207 0.660397 0.399298 0.10394
H_ H_ 0.00543253 0.699044 0.440244 0.10394
H_ H_ 0.411887 0.793876 0.029294 0.10394
H_ H_ 0.341272 0.738926 0.503731 0.10394
H_ H_ 0.235195 0.706724 0.395215 0.10394
H_ H_ 0.191193 0.756566 0.325511 0.10394
H_ H_ 0.331295 0.726847 0.252932 0.10394
H_ H_ 0.367558 0.679761 0.323145 0.10394
H_ H_ 0.284803 0.611907 0.052465 0.10394
H_ H_ 0.226682 0.611131 0.115069 0.10394
H_ H_ 0.105627 0.576684 0.0024500000000000632 0.10394
C_ C_ 0.17354 0.595116 0.301446 0.18167
C_ C_ 0.220096 0.577491 0.280764 -0.15533
C_ C_ 0.227952 0.52384 0.26466 0.02923
C_ C_ 0.202624 0.985123 0.283153 -0.15533
C_ C_ 0.145795 0.513373 0.293387 0.18167
C_ C_ 0.0268104 0.639895 0.26012 0.18167
C_ C_ 0.489605 0.669315 0.237399 -0.15533
C_ C_ 0.00366321 0.731248 0.258833 0.02923
C_ C_ 0.0280655 0.7345 0.309017 -0.15533
C_ C_ 0.0471171 0.691585 0.336259 0.18167
C_ C_ 0.00192254 0.550522 0.375291 0.69207
C_ C_ 0.474066 0.0021945 0.373945 0.02923
C_ C_ 0.492882 0.950545 0.376272 -0.15533
C_ C_ 0.460946 0.9114 0.371179 -0.15533
C_ C_ 0.40917 0.922246 0.379372 0.02923
C_ C_ 0.388687 0.972302 0.379863 -0.15533
C_ C_ 0.420851 0.0138104 0.379091 0.02923
C_ C_ 0.388096 0.566449 0.38105 0.69207
C_ C_ 0.402766 0.821507 0.378528 0.69661
C_ C_ 0.078062 0.798835 0.0965414 0.18167
C_ C_ 0.032919 0.77512 0.0812651 -0.15533
C_ C_ 0.0178307 0.769564 0.0276185 0.02923
C_ C_ 0.0419489 0.792992 0.479888 -0.15533
C_ C_ 0.0968818 0.80413 0.0113297 0.18167
C_ C_ 0.219389 0.776456 0.136718 0.18167
C_ C_ 0.237368 0.74592 0.180066 -0.15533
C_ C_ 0.233181 0.766582 0.229986 0.02923
C_ C_ 0.212585 0.817822 0.236927 -0.15533
C_ C_ 0.191353 0.846426 0.19356 0.18167
C_ C_ 0.236624 0.888868 0.0425479 0.69207
C_ C_ 0.277568 0.862142 0.496312 0.02923
C_ C_ 0.25757 0.868395 0.44563 -0.15533
C_ C_ 0.28626 0.873684 0.407108 -0.15533
C_ C_ 0.339029 0.880042 0.418824 0.02923
C_ C_ 0.359064 0.8776 0.470339 -0.15533
C_ C_ 0.329093 0.868919 0.510403 0.02923
C_ C_ 0.34809 0.894272 0.0656085 0.69207
C_ C_ 0.349032 0.877995 0.321321 0.69661
C_ C_ 0.311011 0.923218 0.181849 0.18167
C_ C_ 0.269408 0.956488 0.196738 -0.15533
C_ C_ 0.27704 0.995033 0.233178 0.02923
C_ C_ 0.323798 0.515825 0.256817 -0.15533
C_ C_ 0.365664 0.982261 0.218707 0.18167
C_ C_ 0.483582 0.847182 0.191366 0.18167
C_ C_ 0.0125425 0.81418 0.220225 -0.15533
C_ C_ 0.476834 0.764329 0.224699 0.02923
C_ C_ 0.423224 0.775765 0.215717 -0.15533
C_ C_ 0.404647 0.81529 0.186331 0.18167
C_ C_ 0.487153 0.950405 0.108694 0.69207
C_ C_ 0.0243461 0.487138 0.119492 0.02923
C_ C_ 0.00412689 0.539099 0.118878 -0.15533
C_ C_ 0.0322844 0.574454 0.10421 -0.15533
C_ C_ 0.0848081 0.563689 0.100147 0.02923
C_ C_ 0.104492 0.511242 0.0944556 -0.15533
C_ C_ 0.0746029 0.473327 0.104394 0.02923
C_ C_ 0.0969682 0.933151 0.112489 0.69207
C_ C_ 0.0988568 0.658869 0.102917 0.69661
C_ C_ 0.433126 0.685104 0.432512 0.18167
C_ C_ 0.475994 0.703577 0.458609 -0.15533
C_ C_ 0.467156 0.744149 0.496925 0.02923
C_ C_ 0.417204 0.762767 0.0035085 -0.15533
C_ C_ 0.378742 0.731078 0.486683 0.18167
C_ C_ 0.251913 0.704069 0.361084 0.18167
C_ C_ 0.227027 0.731383 0.319859 -0.15533
C_ C_ 0.253726 0.736472 0.276309 0.02923
C_ C_ 0.305741 0.71853 0.281111 -0.15533
C_ C_ 0.327818 0.691459 0.321608 0.18167
C_ C_ 0.260433 0.606765 0.453054 0.69207
C_ C_ 0.227233 0.610462 0.988728 0.02923
C_ C_ 0.243365 0.615465 0.041292 -0.15533
C_ C_ 0.211807 0.607746 0.0768535 -0.15533
C_ C_ 0.159696 0.597109 0.0646723 0.02923
C_ C_ 0.141942 0.592101 0.0126709 -0.15533
C_ C_ 0.171754 0.606572 0.975612 0.02923
C_ C_ 0.145691 0.611878 0.424802 0.69207
C_ C_ 0.147067 0.598131 0.161194 0.69661
C_ C_ 0.375277 0.877153 0.376984 -0.30787
C_ C_ 0.122522 0.603549 0.106143 -0.30787
N_ N_ 0.140999 0.562048 0.311712 -0.32189
N_ N_ 0.0475931 0.645293 0.31062 -0.32189
N_ N_ 0.110337 0.80892 0.0633808 -0.32189
N_ N_ 0.19506 0.824 0.145649 -0.32189
N_ N_ 0.357812 0.939086 0.188981 -0.32189
N_ N_ 0.434681 0.847531 0.170963 -0.32189
N_ N_ 0.384927 0.698361 0.446744 -0.32189
N_ N_ 0.301229 0.682626 0.360452 -0.32189
O_ O_ 0.496705 0.584312 0.39325 -0.63271
O_ O_ 0.0388598 0.539627 0.345149 -0.57982
O_ O_ 0.393726 0.591309 0.341386 -0.63271
O_ O_ 0.37252 0.592993 0.42195 -0.57982
O_ O_ 0.239633 0.914854 0.0861514 -0.63271
O_ O_ 0.208818 0.848849 0.0411508 -0.57982
O_ O_ 0.350001 0.849434 0.0853725 -0.63271
O_ O_ 0.378579 0.924993 0.087738 -0.57982
O_ O_ 0.990867 0.920753 0.101861 -0.63271
O_ O_ 0.456023 0.955915 0.145926 -0.57982
O_ O_ 0.0955044 0.911786 0.153917 -0.63271
O_ O_ 0.129492 0.915129 0.0811665 -0.57982
O_ O_ 0.25188 0.594286 0.403408 -0.63271
O_ O_ 0.294614 0.638114 0.469241 -0.57982
O_ O_ 0.155719 0.652848 0.402292 -0.63271
O_ O_ 0.105937 0.589398 0.408766 -0.57982
F_ F_ 0.441504 0.818634 0.417904 -0.20885
F_ F_ 0.425669 0.805388 0.33436 -0.20885
F_ F_ 0.364565 0.789829 0.383015 -0.20885
F_ F_ 0.309135 0.916233 0.315468 -0.20885
F_ F_ 0.327749 0.834679 0.300568 -0.20885
F_ F_ 0.380978 0.883391 0.285549 -0.20885
F_ F_ 0.0745721 0.675077 0.0550584 -0.20885
F_ F_ 0.0642599 0.672262 0.139508 -0.20885
F_ F_ 0.134879 0.692542 0.112568 -0.20885
F_ F_ 0.178579 0.552238 0.161744 -0.20885
F_ F_ 0.176901 0.634986 0.180295 -0.20885
F_ F_ 0.109261 0.596984 0.195053 -0.20885
Zn Zn 0.0845068 0.586607 0.845254 0.83971
Zn Zn 0.157569 0.842068 0.577749 0.83971
Zn Zn 0.404833 0.916872 0.646688 0.83971
Zn Zn 0.33187 0.657733 0.913617 0.83971
H_ H_ 0.16652 0.632425 0.803762 0.10394
H_ H_ 0.243607 0.593589 0.768133 0.10394
H_ H_ 0.202903 0.951368 0.774099 0.10394
H_ H_ 0.123546 0.489287 0.822193 0.10394
H_ H_ 0.525672 0.605249 0.755975 0.10394
H_ H_ 0.474838 0.677753 0.710293 0.10394
H_ H_ 0.0397132 0.775951 0.845855 0.10394
H_ H_ 0.0696983 0.699469 0.889603 0.10394
H_ H_ 0.0396474 0.946245 0.88557 0.10394
H_ H_ 0.47356 0.8813 0.881927 0.10394
H_ H_ 0.34885 0.99746 0.899987 0.10394
H_ H_ 0.0675564 0.808269 0.625625 0.10394
H_ H_ 0.499817 0.773244 0.598864 0.10394
H_ H_ 0.0370538 0.79318 0.953883 0.10394
H_ H_ 0.115908 0.819702 0.480247 0.10394
H_ H_ 0.206507 0.740792 0.595999 0.10394
H_ H_ 0.23866 0.698304 0.676341 0.10394
H_ H_ 0.226194 0.84158 0.76261 0.10394
H_ H_ 0.183911 0.880247 0.682755 0.10394
H_ H_ 0.21125 0.883798 0.938922 0.10394
H_ H_ 0.258969 0.892183 0.875253 0.10394
H_ H_ 0.389814 0.916134 0.980808 0.10394
H_ H_ 0.29408 0.917078 0.639121 0.10394
H_ H_ 0.224612 0.959352 0.682774 0.10394
H_ H_ 0.319978 0.548844 0.772215 0.10394
H_ H_ 0.399627 -0.01158300000000001 0.7425 0.10394
H_ H_ 0.0209889 0.885691 0.697203 0.10394
H_ H_ 0.0600993 0.810138 0.744843 0.10394
H_ H_ 0.405669 0.75497 0.732789 0.10394
H_ H_ 0.362506 0.829486 0.693852 0.10394
H_ H_ 0.461987 0.538456 0.630019 0.10394
H_ H_ 0.00252824 0.619767 0.608736 0.10394
H_ H_ 0.121325 0.508392 0.567051 0.10394
H_ H_ 0.435313 0.663288 0.893136 0.10394
H_ H_ 0.023597 0.687291 0.959544 0.10394
H_ H_ 0.40972 0.782757 0.541433 0.10394
H_ H_ 0.337653 0.747535 -0.009723999999999955 0.10394
H_ H_ 0.234091 0.708682 0.891343 0.10394
H_ H_ 0.187632 0.746662 0.810221 0.10394
H_ H_ 0.32654 0.725979 0.739009 0.10394
H_ H_ 0.372651 0.683692 0.818478 0.10394
H_ H_ 0.276439 0.603531 0.551566 0.10394
H_ H_ 0.221875 0.616279 0.615275 0.10394
H_ H_ 0.0954015 0.594791 0.500008 0.10394
C_ C_ 0.17342 0.591426 0.797936 0.18167
C_ C_ 0.22128 0.568434 0.78229 -0.15533
C_ C_ 0.22798 0.516534 0.771943 0.02923
C_ C_ 0.196154 0.990081 0.780367 -0.15533
C_ C_ 0.150201 0.510407 0.809921 0.18167
C_ C_ 0.0286883 0.645159 0.774507 0.18167
C_ C_ 0.500735 0.685042 0.744913 -0.15533
C_ C_ 0.0128116 0.737965 0.776902 0.02923
C_ C_ 0.0374822 0.73963 0.826741 -0.15533
C_ C_ 0.0541507 0.694035 0.850056 0.18167
C_ C_ 0.00694264 0.547 0.873842 0.69207
C_ C_ 0.472544 0.00776043 0.872451 0.02923
C_ C_ 0.487863 0.955651 0.86823 -0.15533
C_ C_ 0.456006 0.919784 0.876596 -0.15533
C_ C_ 0.405401 0.93422 0.888212 0.02923
C_ C_ 0.389428 0.986428 0.894136 -0.15533
C_ C_ 0.421668 0.0229112 0.885196 0.02923
C_ C_ 0.39529 0.577411 0.885982 0.69207
C_ C_ 0.395871 0.837036 0.882524 0.69661
C_ C_ 0.0600149 0.802192 0.584699 0.18167
C_ C_ 0.0160425 0.784176 0.564591 -0.15533
C_ C_ 0.00698938 0.777902 0.512145 0.02923
C_ C_ 0.0500213 0.785361 0.992883 -0.15533
C_ C_ 0.0872034 0.809075 0.503946 0.18167
C_ C_ 0.205341 0.76096 0.634835 0.18167
C_ C_ 0.227018 0.737491 0.67874 -0.15533
C_ C_ 0.2259 0.765218 0.726517 0.02923
C_ C_ 0.211592 0.817442 0.728575 -0.15533
C_ C_ 0.193293 0.84051 0.681864 0.18167
C_ C_ 0.241675 0.858532 0.535461 0.69207
C_ C_ 0.27093 0.89088 0.00218534 0.02923
C_ C_ 0.250087 0.887093 0.950064 -0.15533
C_ C_ 0.278846 0.887955 0.911034 -0.15533
C_ C_ 0.330084 0.898804 0.921066 0.02923
C_ C_ 0.350512 0.908567 0.972397 -0.15533
C_ C_ 0.322154 0.899619 0.0131648 0.02923
C_ C_ 0.350696 0.87478 0.564978 0.69207
C_ C_ 0.344115 0.896481 0.827016 0.69661
C_ C_ 0.301171 0.944568 0.668542 0.18167
C_ C_ 0.260721 0.970702 0.692116 -0.15533
C_ C_ 0.271049 1.00063 0.735923 0.02923
C_ C_ 0.315185 0.51612 0.746235 -0.15533
C_ C_ 0.360139 0.983738 0.72694 0.18167
C_ C_ 0.484459 0.856597 0.697092 0.18167
C_ C_ 0.0209387 0.816945 0.735354 -0.15533
C_ C_ 0.481516 0.776859 0.737273 0.02923
C_ C_ 0.429401 0.783824 0.726934 -0.15533
C_ C_ 0.405345 0.824369 0.698285 0.18167
C_ C_ 0.483641 0.9592 0.616523 0.69207
C_ C_ 0.0102505 0.494588 0.614521 0.02923
C_ C_ 0.991521 0.545851 0.618263 -0.15533
C_ C_ 0.0194833 0.582517 0.602442 -0.15533
C_ C_ 0.0697555 0.570962 0.590552 0.02923
C_ C_ 0.0873377 0.518202 0.584649 -0.15533
C_ C_ 0.0594568 0.47933 0.60056 0.02923
C_ C_ 0.100714 0.92428 0.604284 0.69207
C_ C_ 0.0893315 0.664729 0.59666 0.69661
C_ C_ 0.432255 0.685163 0.928508 0.18167
C_ C_ 0.472423 0.70488 0.957524 -0.15533
C_ C_ 0.466022 0.746547 -0.008375000000000021 0.02923
C_ C_ 0.417947 0.757398 0.509091 -0.15533
C_ C_ 0.376954 0.73599 0.980158 0.18167
C_ C_ 0.253916 0.712086 0.857281 0.18167
C_ C_ 0.22934 0.734082 0.81386 -0.15533
C_ C_ 0.255215 0.742214 0.773131 0.02923
C_ C_ 0.306744 0.725225 0.773967 -0.15533
C_ C_ 0.330518 0.697243 0.816819 0.18167
C_ C_ 0.262089 0.621708 0.953017 0.69207
C_ C_ 0.221811 0.60031 0.489661 0.02923
C_ C_ 0.238765 0.598676 0.540461 -0.15533
C_ C_ 0.204522 0.60558 0.577334 -0.15533
C_ C_ 0.151701 0.602086 0.563576 0.02923
C_ C_ 0.136522 0.594848 0.512162 -0.15533
C_ C_ 0.168981 0.60154 0.474803 0.02923
C_ C_ 0.149227 0.606819 0.922933 0.69207
C_ C_ 0.131756 0.602978 0.655807 0.69661
C_ C_ 0.368738 0.89404 0.880699 -0.30787
C_ C_ 0.109917 0.608466 0.600496 -0.30787
N_ N_ 0.138832 0.561101 0.810017 -0.32189
N_ N_ 0.0503057 0.649073 0.824772 -0.32189
N_ N_ 0.0964538 0.811075 0.554866 -0.32189
N_ N_ 0.18826 0.81163 0.636356 -0.32189
N_ N_ 0.350782 0.950585 0.68597 -0.32189
N_ N_ 0.433658 0.860689 0.683492 -0.32189
N_ N_ 0.385493 0.695099 0.945087 -0.32189
N_ N_ 0.302652 0.690436 0.855085 -0.32189
O_ O_ 0.503389 0.597434 0.897574 -0.63271
O_ O_ 0.0385475 0.542294 0.837726 -0.57982
O_ O_ 0.389741 0.598664 0.84048 -0.63271
O_ O_ 0.367389 0.596882 0.920672 -0.57982
O_ O_ 0.241702 0.888752 0.577072 -0.63271
O_ O_ 0.200224 0.835162 0.526416 -0.57982
O_ O_ 0.345567 0.840137 0.597944 -0.63271
O_ O_ 0.376837 0.912464 0.580367 -0.57982
O_ O_ 0.990058 0.910417 0.601409 -0.63271
O_ O_ 0.449162 0.966924 0.648926 -0.57982
O_ O_ 0.0925278 0.894316 0.640308 -0.63271
O_ O_ 0.135365 0.907546 0.571927 -0.57982
O_ O_ 0.250455 0.612195 0.902855 -0.63271
O_ O_ 0.293741 0.657506 0.966308 -0.57982
O_ O_ 0.148911 0.647551 0.896875 -0.63271
O_ O_ 0.114445 0.575724 0.909824 -0.57982
F_ F_ 0.43066 0.830635 0.923596 -0.20885
F_ F_ 0.415494 0.816568 0.838061 -0.20885
F_ F_ 0.359515 0.805074 0.890517 -0.20885
F_ F_ 0.309756 0.939387 0.820298 -0.20885
F_ F_ 0.314601 0.856531 0.810218 -0.20885
F_ F_ 0.377601 0.90008 0.79369 -0.20885
F_ F_ 0.0612091 0.672439 0.550461 -0.20885
F_ F_ 0.0561328 0.685021 0.632548 -0.20885
F_ F_ 0.127792 0.695475 0.597579 -0.20885
F_ F_ 0.159147 0.556985 0.66431 -0.20885
F_ F_ 0.16548 0.638565 0.67238 -0.20885
F_ F_ 0.0964977 0.612828 0.690227 -0.20885
Zn Zn 0.592952 0.0844546 0.357495 0.83971
Zn Zn 0.670691 0.344053 0.0836619 0.83971
Zn Zn 0.912007 0.41225 0.158587 0.83971
Zn Zn 0.843554 0.156349 0.421716 0.83971
H_ H_ 0.677137 0.130955 0.322891 0.10394
H_ H_ 0.739056 0.0971098 0.261811 0.10394
H_ H_ 0.707957 0.443503 0.276554 0.10394
H_ H_ 0.635702 0.983652 0.329659 0.10394
H_ H_ 0.0329557 0.0924953 0.247156 0.10394
H_ H_ 0.996711 0.172566 0.201799 0.10394
H_ H_ 0.562443 0.274153 0.342608 0.10394
H_ H_ 0.590483 0.199588 0.392448 0.10394
H_ H_ 0.526317 0.438368 0.366691 0.10394
H_ H_ 0.971729 0.384757 0.367377 0.10394
H_ H_ 0.847588 0.492015 0.412273 0.10394
H_ H_ 0.588438 0.310662 0.133885 0.10394
H_ H_ 1.00247383 0.284006 0.0975988 0.10394
H_ H_ 0.525722 0.308447 0.443277 0.10394
H_ H_ 0.631763 0.302044 0.98077 0.10394
H_ H_ 0.711563 0.253364 0.102746 0.10394
H_ H_ 0.748938 0.202061 0.182153 0.10394
H_ H_ 0.712587 0.338701 0.276042 0.10394
H_ H_ 0.688993 0.386693 0.197756 0.10394
H_ H_ 0.70651 0.392743 0.445099 0.10394
H_ H_ 0.76053 0.391434 0.375374 0.10394
H_ H_ 0.888551 0.406482 0.486081 0.10394
H_ H_ 0.804517 0.395708 0.157731 0.10394
H_ H_ 0.729022 0.454046 0.179248 0.10394
H_ H_ 0.827225 0.0464738 0.275082 0.10394
H_ H_ 0.904539 0.480451 0.248943 0.10394
H_ H_ 0.519712 0.391444 0.218973 0.10394
H_ H_ 0.563146 0.317097 0.257661 0.10394
H_ H_ 0.921412 0.241107 0.227941 0.10394
H_ H_ 0.877475 0.31699 0.185337 0.10394
H_ H_ 0.968055 0.0682578 0.128692 0.10394
H_ H_ 0.514613 0.110389 0.0725806 0.10394
H_ H_ 0.645728 0.00285922 0.095448 0.10394
H_ H_ 0.951506 0.162604 0.400928 0.10394
H_ H_ 0.522276 0.198257 0.437999 0.10394
H_ H_ 0.921302 0.280065 0.0444163 0.10394
H_ H_ 0.847741 0.240414 0.499853 0.10394
H_ H_ 0.739924 0.204709 0.399368 0.10394
H_ H_ 0.693021 0.245031 0.319298 0.10394
H_ H_ 0.831626 0.238593 0.255415 0.10394
H_ H_ 0.874214 0.188036 0.326704 0.10394
H_ H_ 0.786695 0.119579 0.0568717 0.10394
H_ H_ 0.729921 0.112409 0.118071 0.10394
H_ H_ 0.608246 0.0970999 0.000469266 0.10394
C_ C_ 0.682944 0.0904854 0.311243 0.18167
C_ C_ 0.719235 0.0698141 0.278386 -0.15533
C_ C_ 0.729065 0.0174589 0.267754 0.02923
C_ C_ 0.695801 0.483524 0.274777 -0.15533
C_ C_ 0.660581 0.00780986 0.316261 0.18167
C_ C_ 0.545454 0.139594 0.281937 0.18167
C_ C_ 0.0193993 0.176893 0.240131 -0.15533
C_ C_ 0.529621 0.231244 0.277395 0.02923
C_ C_ 0.553286 0.236952 0.326447 -0.15533
C_ C_ 0.573178 0.195162 0.35343 0.18167
C_ C_ 0.511106 0.0418537 0.37731 0.69207
C_ C_ 0.965789 0.511784 0.378709 0.02923
C_ C_ 0.984778 0.459911 0.366885 -0.15533
C_ C_ 0.955397 0.423767 0.376497 -0.15533
C_ C_ 0.90497 0.43285 0.388505 0.02923
C_ C_ 0.885266 0.483716 0.398928 -0.15533
C_ C_ 0.914806 0.522618 0.39199 0.02923
C_ C_ 0.900113 0.0752477 0.396078 0.69207
C_ C_ 0.898356 0.333527 0.388527 0.69661
C_ C_ 0.578842 0.305698 0.0917727 0.18167
C_ C_ 0.533616 0.28359 0.0757543 -0.15533
C_ C_ 0.520589 0.278995 0.0221896 0.02923
C_ C_ 0.54012 0.303874 0.480454 -0.15533
C_ C_ 0.601695 0.304916 0.00907156 0.18167
C_ C_ 0.715297 0.271068 0.142852 0.18167
C_ C_ 0.733784 0.242019 0.187432 -0.15533
C_ C_ 0.733459 0.268222 0.235357 0.02923
C_ C_ 0.711572 0.319631 0.238429 -0.15533
C_ C_ 0.701995 0.346057 0.193386 0.18167
C_ C_ 0.747088 0.366746 0.0450244 0.69207
C_ C_ 0.768835 0.385198 0.503899 0.02923
C_ C_ 0.747059 0.392389 0.454681 -0.15533
C_ C_ 0.778617 0.394569 0.414421 -0.15533
C_ C_ 0.830356 0.397026 0.425279 0.02923
C_ C_ 0.850432 0.401491 0.477237 -0.15533
C_ C_ 0.822763 0.39177 0.516679 0.02923
C_ C_ 0.859472 0.38317 0.0688282 0.69207
C_ C_ 0.844904 0.38879 0.328358 0.69661
C_ C_ 0.808875 0.429078 0.181767 0.18167
C_ C_ 0.767267 0.455858 0.200073 -0.15533
C_ C_ 0.773773 0.498084 0.236818 0.02923
C_ C_ 0.822396 0.0145543 0.24782 -0.15533
C_ C_ 0.86545 0.47787 0.2306 0.18167
C_ C_ 0.993958 0.354927 0.214301 0.18167
C_ C_ 0.523811 0.318218 0.243231 -0.15533
C_ C_ 0.993507 0.268627 0.237566 0.02923
C_ C_ 0.940655 0.271985 0.221115 -0.15533
C_ C_ 0.918202 0.315643 0.199742 0.18167
C_ C_ 0.990548 0.446776 0.129761 0.69207
C_ C_ 0.521629 0.987964 0.10538 0.02923
C_ C_ 0.501642 0.0384657 0.0945034 -0.15533
C_ C_ 0.534607 0.0742422 0.0867308 -0.15533
C_ C_ 0.587183 0.064409 0.0927181 0.02923
C_ C_ 0.606785 0.0127277 0.0958216 -0.15533
C_ C_ 0.574589 0.974025 0.0986 0.02923
C_ C_ 0.606087 0.423177 0.113359 0.69207
C_ C_ 0.597088 0.161158 0.104014 0.69661
C_ C_ 0.944433 0.186929 0.436769 0.18167
C_ C_ 0.983612 0.209507 0.4639 -0.15533
C_ C_ 0.974536 0.248635 0.500439 0.02923
C_ C_ 0.930446 0.249279 0.0152179 -0.15533
C_ C_ 0.887042 0.229047 0.494314 0.18167
C_ C_ 0.758251 0.208679 0.366446 0.18167
C_ C_ 0.732019 0.233028 0.321912 -0.15533
C_ C_ 0.759885 0.243506 0.28183 0.02923
C_ C_ 0.811201 0.229193 0.287287 -0.15533
C_ C_ 0.834114 0.200853 0.327924 0.18167
C_ C_ 0.770478 0.111125 0.460128 0.69207
C_ C_ 0.731223 0.11226 0.990502 0.02923
C_ C_ 0.748273 0.114883 0.0419294 -0.15533
C_ C_ 0.71552 0.11189 0.0796846 -0.15533
C_ C_ 0.664928 0.104527 0.0661842 0.02923
C_ C_ 0.648908 0.0937269 0.013421 -0.15533
C_ C_ 0.682302 0.0960503 0.974901 0.02923
C_ C_ 0.65695 0.106862 0.437344 0.69207
C_ C_ 0.647898 0.101805 0.160535 0.69661
C_ C_ 0.870049 0.388813 0.385179 -0.30787
C_ C_ 0.623277 0.107161 0.104271 -0.30787
N_ N_ 0.649469 0.0591257 0.324223 -0.32189
N_ N_ 0.566422 0.14758 0.331885 -0.32189
N_ N_ 0.61437 0.310307 0.0600079 -0.32189
N_ N_ 0.699779 0.32055 0.147574 -0.32189
N_ N_ 0.857061 0.439463 0.196071 -0.32189
N_ N_ 0.945637 0.353187 0.192427 -0.32189
N_ N_ 0.896997 0.195017 0.453494 -0.32189
N_ N_ 0.807283 0.191059 0.366395 -0.32189
O_ O_ 0.0137613 0.0844254 0.409072 -0.63271
O_ O_ 0.545723 0.0376764 0.347189 -0.57982
O_ O_ 0.895445 0.100722 0.355285 -0.63271
O_ O_ 0.875492 0.0920961 0.434329 -0.57982
O_ O_ 0.745076 0.396065 0.0872106 -0.63271
O_ O_ 0.710854 0.336662 0.0329847 -0.57982
O_ O_ 0.860243 0.342776 0.0953937 -0.63271
O_ O_ 0.885332 0.420918 0.0894853 -0.57982
O_ O_ 0.504938 0.396358 0.112434 -0.63271
O_ O_ 0.957323 0.45839 0.164208 -0.57982
O_ O_ 0.600203 0.397944 0.153053 -0.63271
O_ O_ 0.642456 0.406371 0.0856372 -0.57982
O_ O_ 0.767657 0.0891712 0.41393 -0.63271
O_ O_ 0.797514 0.151426 0.465779 -0.57982
O_ O_ 0.663143 0.144501 0.411068 -0.63271
O_ O_ 0.620763 0.078672 0.423054 -0.57982
F_ F_ 0.934697 0.332823 0.428765 -0.20885
F_ F_ 0.924646 0.31352 0.347765 -0.20885
F_ F_ 0.866988 0.297645 0.399 -0.20885
F_ F_ 0.807343 0.426792 0.318759 -0.20885
F_ F_ 0.825498 0.343069 0.313113 -0.20885
F_ F_ 0.878647 0.38974 0.291041 -0.20885
F_ F_ 0.572181 0.174233 0.0585921 -0.20885
F_ F_ 0.560994 0.167208 0.139727 -0.20885
F_ F_ 0.628247 0.199812 0.118735 -0.20885
F_ F_ 0.679395 0.0561553 0.165594 -0.20885
F_ F_ 0.679455 0.139313 0.182788 -0.20885
F_ F_ 0.612322 0.0996772 0.195477 -0.20885
Zn Zn 0.596264 0.0757005 0.844052 0.83971
Zn Zn 0.660112 0.339862 0.582349 0.83971
Zn Zn 0.905616 0.414901 0.653797 0.83971
Zn Zn 0.846499 0.15731 0.919137 0.83971
H_ H_ 0.674454 0.124503 0.805855 0.10394
H_ H_ 0.755647 0.0963231 0.7733 0.10394
H_ H_ 0.697421 0.449701 0.778731 0.10394
H_ H_ 0.639867 0.972957 0.814109 0.10394
H_ H_ 0.0213172 0.0937734 0.755834 0.10394
H_ H_ 0.991586 0.16802 0.701965 0.10394
H_ H_ 0.545913 0.259125 0.825239 0.10394
H_ H_ 0.58325 0.18299 0.871107 0.10394
H_ H_ 0.539866 0.45533 0.874691 0.10394
H_ H_ 0.983171 0.377936 0.86421 0.10394
H_ H_ 0.855302 0.481598 0.909023 0.10394
H_ H_ 0.582995 0.299857 0.622903 0.10394
H_ H_ 0.00593807 0.270927 0.600446 0.10394
H_ H_ 0.544377 0.2928 0.951122 0.10394
H_ H_ 0.603984 0.343708 0.474802 0.10394
H_ H_ 0.725239 0.243951 0.599264 0.10394
H_ H_ 0.762251 0.19913 0.677367 0.10394
H_ H_ 0.722208 0.337588 0.767652 0.10394
H_ H_ 0.696547 0.37957 0.687551 0.10394
H_ H_ 0.72134 0.393163 0.947984 0.10394
H_ H_ 0.777156 0.376468 0.877511 0.10394
H_ H_ 0.903406 0.390879 0.985043 0.10394
H_ H_ 0.795342 0.3984 0.660603 0.10394
H_ H_ 0.723292 0.461441 0.683468 0.10394
H_ H_ 0.851214 0.0530491 0.788269 0.10394
H_ H_ 0.901138 0.498062 0.736969 0.10394
H_ H_ 0.503978 0.385044 0.716042 0.10394
H_ H_ 0.546741 0.3092 0.748775 0.10394
H_ H_ 0.910441 0.244076 0.724181 0.10394
H_ H_ 0.870278 0.317023 0.6821 0.10394
H_ H_ 0.967063 0.053508 0.615652 0.10394
H_ H_ 0.531417 0.12069 0.625949 0.10394
H_ H_ 0.648534 -0.001910999999999996 0.603573 0.10394
H_ H_ 0.950085 0.156577 0.902989 0.10394
H_ H_ 0.523708 0.20224 0.946888 0.10394
H_ H_ 0.91706 0.288711 0.542063 0.10394
H_ H_ 0.851951 0.243363 -0.004242999999999997 0.10394
H_ H_ 0.742914 0.196602 0.887414 0.10394
H_ H_ 0.696327 0.232961 0.808408 0.10394
H_ H_ 0.841306 0.234839 0.753368 0.10394
H_ H_ 0.881418 0.1931 0.829121 0.10394
H_ H_ 0.797317 0.0941822 0.560451 0.10394
H_ H_ 0.743695 0.0917528 0.629147 0.10394
H_ H_ 0.612482 0.089633 0.518324 0.10394
C_ C_ 0.689124 0.084792 0.808825 0.18167
C_ C_ 0.736542 0.0689806 0.795571 -0.15533
C_ C_ 0.753005 0.0162351 0.793564 0.02923
C_ C_ 0.6957 0.491136 0.783174 -0.15533
C_ C_ 0.667511 -0.00025799999999998047 0.812448 0.18167
C_ C_ 0.533833 0.125187 0.764887 0.18167
C_ C_ 0.000478891 0.174207 0.740993 -0.15533
C_ C_ 0.511321 0.217052 0.760864 0.02923
C_ C_ 0.541961 0.221302 0.806574 -0.15533
C_ C_ 0.56403 0.178124 0.832115 0.18167
C_ C_ 0.50983 0.0430925 0.863067 0.69207
C_ C_ 0.975244 0.506135 0.882696 0.02923
C_ C_ 0.995182 0.454728 0.872902 -0.15533
C_ C_ 0.965742 0.416264 0.878484 -0.15533
C_ C_ 0.914819 0.425236 0.894086 0.02923
C_ C_ 0.893936 0.474784 0.900882 -0.15533
C_ C_ 0.92405 0.516315 0.898834 0.02923
C_ C_ 0.899803 0.0678112 0.888746 0.69207
C_ C_ 0.904133 0.327255 0.887949 0.69661
C_ C_ 0.574974 0.2948 0.582661 0.18167
C_ C_ 0.528162 0.275193 0.56433 -0.15533
C_ C_ 0.512899 0.278336 0.511173 0.02923
C_ C_ 0.552283 0.295435 0.990589 -0.15533
C_ C_ 0.584421 0.322895 0.50025 0.18167
C_ C_ 0.72525 0.263069 0.635928 0.18167
C_ C_ 0.747953 0.239094 0.679746 -0.15533
C_ C_ 0.743359 0.263485 0.72768 0.02923
C_ C_ 0.724732 0.31538 0.731526 -0.15533
C_ C_ 0.706919 0.339045 0.685904 0.18167
C_ C_ 0.735402 0.372132 0.543299 0.69207
C_ C_ 0.781054 0.375018 1.00641879 0.02923
C_ C_ 0.759928 0.380228 0.955243 -0.15533
C_ C_ 0.790458 0.376544 0.916191 -0.15533
C_ C_ 0.842308 0.384496 0.928211 0.02923
C_ C_ 0.863141 0.387437 0.977693 -0.15533
C_ C_ 0.833818 0.385624 0.0173279 0.02923
C_ C_ 0.849128 0.389804 0.570811 0.69207
C_ C_ 0.851513 0.384681 0.829202 0.69661
C_ C_ 0.803569 0.436253 0.676553 0.18167
C_ C_ 0.76341 0.465116 0.698482 -0.15533
C_ C_ 0.773501 0.498701 0.739725 0.02923
C_ C_ 0.842148 0.0188339 0.762983 -0.15533
C_ C_ 0.863204 0.485832 0.726299 0.18167
C_ C_ 0.989503 0.35188 0.702269 0.18167
C_ C_ 0.508861 0.30695 0.736017 -0.15533
C_ C_ 0.98466 0.267289 0.730297 0.02923
C_ C_ 0.933436 0.271838 0.714379 -0.15533
C_ C_ 0.91049 0.314831 0.690455 0.18167
C_ C_ 0.978264 0.454987 0.621957 0.69207
C_ C_ 0.525225 0.994456 0.622724 0.02923
C_ C_ 0.509998 0.0475575 0.62923 -0.15533
C_ C_ 0.543755 0.0812484 0.621747 -0.15533
C_ C_ 0.594976 0.0647761 0.612872 0.02923
C_ C_ 0.609743 0.0123117 0.610628 -0.15533
C_ C_ 0.576286 0.977676 0.614091 0.02923
C_ C_ 0.598411 0.415969 0.614841 0.69207
C_ C_ 0.618342 0.158767 0.613579 0.69661
C_ C_ 0.945181 0.181742 0.933886 0.18167
C_ C_ 0.987122 0.201366 0.961231 -0.15533
C_ C_ 0.980199 0.238452 0.00126545 0.02923
C_ C_ 0.926399 0.257092 0.517883 -0.15533
C_ C_ 0.890146 0.227202 0.988749 0.18167
C_ C_ 0.761049 0.202584 0.856686 0.18167
C_ C_ 0.737206 0.229725 0.814371 -0.15533
C_ C_ 0.765583 0.236966 0.773593 0.02923
C_ C_ 0.816968 0.220827 0.778917 -0.15533
C_ C_ 0.840434 0.194363 0.821426 0.18167
C_ C_ 0.766905 0.123208 0.954133 0.69207
C_ C_ 0.735525 0.103274 0.499453 0.02923
C_ C_ 0.756117 0.0973873 0.550866 -0.15533
C_ C_ 0.7258 0.0960963 0.591786 -0.15533
C_ C_ 0.6726 0.0906339 0.579238 0.02923
C_ C_ 0.653473 0.0884921 0.527853 -0.15533
C_ C_ 0.683021 0.10112 0.489893 0.02923
C_ C_ 0.660903 0.10023 0.919815 0.69207
C_ C_ 0.659415 0.094099 0.676441 0.69661
C_ C_ 0.878258 0.382252 0.886119 -0.30787
C_ C_ 0.63736 0.100407 0.621311 -0.30787
N_ N_ 0.656789 0.0505639 0.819767 -0.32189
N_ N_ 0.564104 0.130629 0.809971 -0.32189
N_ N_ 0.601959 0.31444 0.550262 -0.32189
N_ N_ 0.702747 0.31214 0.639979 -0.32189
N_ N_ 0.852549 0.444045 0.69277 -0.32189
N_ N_ 0.938705 0.354451 0.685256 -0.32189
N_ N_ 0.898184 0.196655 0.947144 -0.32189
N_ N_ 0.811577 0.184389 0.858666 -0.32189
O_ O_ 0.0116439 0.0821508 0.913827 -0.63271
O_ O_ 0.549156 0.0267294 0.837325 -0.57982
O_ O_ 0.906601 0.0979071 0.85132 -0.63271
O_ O_ 0.871583 0.08802 0.925551 -0.57982
O_ O_ 0.734848 0.399615 0.587169 -0.63271
O_ O_ 0.698048 0.342752 0.529931 -0.57982
O_ O_ 0.848991 0.348007 0.598452 -0.63271
O_ O_ 0.87565 0.425938 0.589312 -0.57982
O_ O_ 0.480818 0.398775 0.604726 -0.63271
O_ O_ 0.944948 0.464329 0.655664 -0.57982
O_ O_ 0.598461 0.3871 0.65307 -0.63271
O_ O_ 0.629858 0.401514 0.581466 -0.57982
O_ O_ 0.769895 0.0974241 0.910852 -0.63271
O_ O_ 0.797892 0.159246 0.96397 -0.57982
O_ O_ 0.669594 0.139893 0.896475 -0.63271
O_ O_ 0.618412 0.0803055 0.907489 -0.57982
F_ F_ 0.940945 0.32359 0.928769 -0.20885
F_ F_ 0.931608 0.308559 0.849393 -0.20885
F_ F_ 0.864895 0.292373 0.88757 -0.20885
F_ F_ 0.81663 0.427719 0.821899 -0.20885
F_ F_ 0.827889 0.341312 0.812445 -0.20885
F_ F_ 0.889064 0.384526 0.79438 -0.20885
F_ F_ 0.586481 0.168754 0.571706 -0.20885
F_ F_ 0.591903 0.185342 0.651139 -0.20885
F_ F_ 0.65688 0.187145 0.610273 -0.20885
F_ F_ 0.688178 0.0474696 0.683296 -0.20885
F_ F_ 0.694026 0.129898 0.689542 -0.20885
F_ F_ 0.621273 0.101087 0.711083 -0.20885
Zn Zn 0.581722 0.577384 0.339008 0.83971
Zn Zn 0.660998 0.838319 0.0787365 0.83971
Zn Zn 0.909164 0.927591 0.152234 0.83971
Zn Zn 0.831356 0.659957 0.41719 0.83971
H_ H_ 0.668475 0.628048 0.308043 0.10394
H_ H_ 0.745294 0.593065 0.263358 0.10394
H_ H_ 0.712332 0.946379 0.29128 0.10394
H_ H_ 0.631147 0.475407 0.316173 0.10394
H_ H_ 0.0299703 0.602948 0.241149 0.10394
H_ H_ 0.983388 0.680466 0.19853 0.10394
H_ H_ 0.538828 0.763048 0.316411 0.10394
H_ H_ 0.5801 0.692028 0.361618 0.10394
H_ H_ 0.534585 0.941084 0.379159 0.10394
H_ H_ 0.970489 0.877299 0.38956 0.10394
H_ H_ 0.854842 0.996648 0.409731 0.10394
H_ H_ 0.577472 0.80616 0.131618 0.10394
H_ H_ 1.014323 0.759308 0.109144 0.10394
H_ H_ 0.538718 0.776398 0.443067 0.10394
H_ H_ 0.610443 0.830476 0.984228 0.10394
H_ H_ 0.715994 0.735245 0.0944157 0.10394
H_ H_ 0.745715 0.693992 0.175821 0.10394
H_ H_ 0.711669 0.832199 0.259409 0.10394
H_ H_ 0.684898 0.873537 0.177409 0.10394
H_ H_ 0.709618 0.910489 0.466906 0.10394
H_ H_ 0.755577 0.909723 0.389931 0.10394
H_ H_ 0.899618 0.898575 0.491373 0.10394
H_ H_ 0.806524 0.891386 0.157617 0.10394
H_ H_ 0.72868 0.94093 0.190999 0.10394
H_ H_ 0.829982 0.536147 0.282178 0.10394
H_ H_ 0.898416 1.00548613 0.226321 0.10394
H_ H_ 0.507088 0.874819 0.18055 0.10394
H_ H_ 0.54776 0.796668 0.229357 0.10394
H_ H_ 0.903956 0.759463 0.225011 0.10394
H_ H_ 0.865721 0.838381 0.193922 0.10394
H_ H_ 0.963759 0.54768 0.119451 0.10394
H_ H_ 0.506702 0.61043 0.0849495 0.10394
H_ H_ 0.644708 0.506933 0.0853312 0.10394
H_ H_ 0.930113 0.672963 0.389574 0.10394
H_ H_ 0.513454 0.689243 0.448244 0.10394
H_ H_ 0.919053 0.783896 0.043317 0.10394
H_ H_ 0.837034 0.73965 0.498471 0.10394
H_ H_ 0.723587 0.700383 0.381556 0.10394
H_ H_ 0.686968 0.74571 0.306214 0.10394
H_ H_ 0.829852 0.715871 0.239261 0.10394
H_ H_ 0.868236 0.680194 0.322747 0.10394
H_ H_ 0.777125 0.635534 0.06243 0.10394
H_ H_ 0.719241 0.623273 0.123495 0.10394
H_ H_ 0.610728 0.575946 0.00156518 0.10394
C_ C_ 0.674353 0.588681 0.296285 0.18167
C_ C_ 0.718492 0.569734 0.275414 -0.15533
C_ C_ 0.731086 0.517981 0.267772 0.02923
C_ C_ 0.697023 0.985873 0.285298 -0.15533
C_ C_ 0.653501 0.502665 0.300502 0.18167
C_ C_ 0.515121 0.626378 0.264628 0.18167
C_ C_ 0.00165783 0.682244 0.235987 -0.15533
C_ C_ 0.499174 0.719505 0.253416 0.02923
C_ C_ 0.528862 0.726256 0.302343 -0.15533
C_ C_ 0.552185 0.683895 0.328462 0.18167
C_ C_ 0.501566 0.539991 0.36862 0.69207
C_ C_ 0.974317 0.00625945 0.381228 0.02923
C_ C_ -0.010665999999999953 0.954476 0.377342 -0.15533
C_ C_ 0.957891 0.918474 0.390695 -0.15533
C_ C_ 0.908338 0.934529 0.394449 0.02923
C_ C_ 0.894175 0.985123 0.405461 -0.15533
C_ C_ 0.925887 0.022986 0.398026 0.02923
C_ C_ 0.887915 0.574275 0.38755 0.69207
C_ C_ 0.880937 0.843283 0.37734 0.69661
C_ C_ 0.571903 0.795972 0.0900628 0.18167
C_ C_ 0.523673 0.780908 0.0683524 -0.15533
C_ C_ 0.514999 0.768654 0.0161836 0.02923
C_ C_ 0.549322 0.782043 0.485044 -0.15533
C_ C_ 0.594256 0.804082 0.00577602 0.18167
C_ C_ 0.715988 0.756536 0.130236 0.18167
C_ C_ 0.732132 0.733019 0.176567 -0.15533
C_ C_ 0.732737 0.759239 0.223034 0.02923
C_ C_ 0.714692 0.811204 0.223449 -0.15533
C_ C_ 0.694299 0.833263 0.178033 0.18167
C_ C_ 0.748046 0.852176 0.0454749 0.69207
C_ C_ 0.776044 0.887885 0.516236 0.02923
C_ C_ 0.751216 0.900693 0.468628 -0.15533
C_ C_ 0.778076 0.903201 0.426478 -0.15533
C_ C_ 0.831964 0.903431 0.4322 0.02923
C_ C_ 0.856582 0.89968 0.482715 -0.15533
C_ C_ 0.827997 0.894148 0.523871 0.02923
C_ C_ 0.857793 0.878912 0.0719844 0.69207
C_ C_ 0.836193 0.913684 0.335343 0.69661
C_ C_ 0.810689 0.927099 0.182029 0.18167
C_ C_ 0.767491 0.953991 0.202286 -0.15533
C_ C_ 0.773186 0.99616 0.239247 0.02923
C_ C_ 0.824303 0.509946 0.249403 -0.15533
C_ C_ 0.859738 0.993969 0.215708 0.18167
C_ C_ 0.989053 0.859621 0.198977 0.18167
C_ C_ 0.506683 0.803563 0.219223 -0.15533
C_ C_ 0.981113 0.776722 0.229947 0.02923
C_ C_ 0.926909 0.788959 0.224759 -0.15533
C_ C_ 0.905821 0.834663 0.204157 0.18167
C_ C_ 0.985255 0.96808 0.122793 0.69207
C_ C_ 0.523683 0.483226 0.106547 0.02923
C_ C_ 0.499587 0.532325 0.0984353 -0.15533
C_ C_ 0.527151 0.573449 0.0915235 -0.15533
C_ C_ 0.579157 0.565827 0.0916971 0.02923
C_ C_ 0.602715 0.514401 0.0862013 -0.15533
C_ C_ 0.577198 0.473715 0.101674 0.02923
C_ C_ 0.601066 0.922827 0.103631 0.69207
C_ C_ 0.589372 0.662726 0.100694 0.69661
C_ C_ 0.925313 0.698146 0.421626 0.18167
C_ C_ 0.969093 0.71641 0.448322 -0.15533
C_ C_ 0.96291 0.753556 0.488622 0.02923
C_ C_ 0.927133 0.755606 1.0123465 -0.15533
C_ C_ 0.872903 0.736298 0.483563 0.18167
C_ C_ 0.748288 0.703104 0.351309 0.18167
C_ C_ 0.728651 0.733943 0.309906 -0.15533
C_ C_ 0.757722 0.734913 0.268698 0.02923
C_ C_ 0.807753 0.71785 0.274099 -0.15533
C_ C_ 0.829143 0.694805 0.318969 0.18167
C_ C_ 0.749532 0.626397 0.450877 0.69207
C_ C_ 0.723068 0.626399 0.994652 0.02923
C_ C_ 0.739039 0.626431 0.0479424 -0.15533
C_ C_ 0.706471 0.615678 0.0840879 -0.15533
C_ C_ 0.658351 0.60047 0.0688788 0.02923
C_ C_ 0.645557 0.594574 0.015581 -0.15533
C_ C_ 0.673965 0.61249 0.979544 0.02923
C_ C_ 0.634903 0.61028 0.428976 0.69207
C_ C_ 0.63166 0.599376 0.161532 0.69661
C_ C_ 0.864414 0.899899 0.386553 -0.30787
C_ C_ 0.614624 0.606837 0.104646 -0.30787
N_ N_ 0.643043 0.554796 0.309787 -0.32189
N_ N_ 0.547776 0.635837 0.306938 -0.32189
N_ N_ 0.606268 0.80617 0.0577705 -0.32189
N_ N_ 0.693217 0.805528 0.133692 -0.32189
N_ N_ 0.856212 0.949197 0.187992 -0.32189
N_ N_ 0.935615 0.869314 0.189981 -0.32189
N_ N_ 0.881077 0.703507 0.442791 -0.32189
N_ N_ 0.798569 0.683477 0.354725 -0.32189
O_ O_ -0.0046960000000000335 0.596854 0.395151 -0.63271
O_ O_ 0.536948 0.529462 0.33638 -0.57982
O_ O_ 0.886044 0.59643 0.34273 -0.63271
O_ O_ 0.864276 0.596394 0.423069 -0.57982
O_ O_ 0.746376 0.881151 0.0871167 -0.63271
O_ O_ 0.708546 0.826634 0.0330424 -0.57982
O_ O_ 0.867344 0.838633 0.0999131 -0.63271
O_ O_ 0.878155 0.919155 0.0860589 -0.57982
O_ O_ 0.495798 0.906263 0.0847978 -0.63271
O_ O_ 0.947306 0.980876 0.151086 -0.57982
O_ O_ 0.598851 0.901221 0.147443 -0.63271
O_ O_ 0.634744 0.905512 0.0733179 -0.57982
O_ O_ 0.750436 0.604201 0.404498 -0.63271
O_ O_ 0.78133 0.661105 0.461736 -0.57982
O_ O_ 0.645753 0.648545 0.403912 -0.63271
O_ O_ 0.606655 0.575831 0.405975 -0.57982
F_ F_ 0.918955 0.826623 0.413863 -0.20885
F_ F_ 0.900858 0.831417 0.328987 -0.20885
F_ F_ 0.839672 0.813872 0.374075 -0.20885
F_ F_ 0.80844 0.96135 0.339854 -0.20885
F_ F_ 0.798988 0.87923 0.31652 -0.20885
F_ F_ 0.867114 0.916247 0.29539 -0.20885
F_ F_ 0.565101 0.666906 0.0520641 -0.20885
F_ F_ 0.555272 0.677961 0.13543 -0.20885
F_ F_ 0.623737 0.698814 0.102085 -0.20885
F_ F_ 0.663334 0.555224 0.168959 -0.20885
F_ F_ 0.654645 0.640795 0.18462 -0.20885
F_ F_ 0.593197 0.596365 0.192762 -0.20885
Zn Zn 0.586767 0.591835 0.845088 0.83971
Zn Zn 0.657345 0.843114 0.585167 0.83971
Zn Zn 0.918322 0.921772 0.659491 0.83971
Zn Zn 0.843779 0.656655 0.914762 0.83971
H_ H_ 0.67971 0.636956 0.811641 0.10394
H_ H_ 0.748099 0.601656 0.773269 0.10394
H_ H_ 0.729399 0.941631 0.805037 0.10394
H_ H_ 0.622413 0.494111 0.807371 0.10394
H_ H_ 0.0281946 0.608604 0.752308 0.10394
H_ H_ 0.98297 0.686954 0.716411 0.10394
H_ H_ 0.533887 0.77742 0.8329 0.10394
H_ H_ 0.578121 0.706212 0.874949 0.10394
H_ H_ 0.527856 0.941955 0.863981 0.10394
H_ H_ 0.992278 0.878163 0.889062 0.10394
H_ H_ 0.856313 0.983375 0.89607 0.10394
H_ H_ 0.583823 0.804435 0.632715 0.10394
H_ H_ -0.007673999999999959 0.770763 0.588934 0.10394
H_ H_ 0.53316 0.793871 0.945607 0.10394
H_ H_ 0.617173 0.816891 0.480748 0.10394
H_ H_ 0.697735 0.743719 0.601459 0.10394
H_ H_ 0.743265 0.695633 0.672925 0.10394
H_ H_ 0.742916 0.836081 0.763494 0.10394
H_ H_ 0.693306 0.880992 0.692706 0.10394
H_ H_ 0.732345 0.832717 0.941675 0.10394
H_ H_ 0.775815 0.860359 0.875523 0.10394
H_ H_ 0.897036 0.902183 0.991421 0.10394
H_ H_ 0.816023 0.905248 0.668725 0.10394
H_ H_ 0.755812 0.939528 0.720555 0.10394
H_ H_ 0.829505 0.545542 0.771826 0.10394
H_ H_ 0.916522 1.0125009 0.736691 0.10394
H_ H_ 0.506713 0.883662 0.682688 0.10394
H_ H_ 0.552941 0.812567 0.732024 0.10394
H_ H_ 0.915277 0.768965 0.752813 0.10394
H_ H_ 0.877465 0.828357 0.692674 0.10394
H_ H_ 0.957047 0.556681 0.634932 0.10394
H_ H_ 0.507971 0.607231 0.602234 0.10394
H_ H_ 0.642157 0.498924 0.600554 0.10394
H_ H_ 0.953078 0.656852 0.906084 0.10394
H_ H_ 0.510279 0.683844 0.952252 0.10394
H_ H_ 0.909921 0.787512 0.540761 0.10394
H_ H_ 0.845721 0.733023 1.000129885 0.10394
H_ H_ 0.739541 0.693737 0.879336 0.10394
H_ H_ 0.705081 0.747954 0.805857 0.10394
H_ H_ 0.84615 0.722356 0.743847 0.10394
H_ H_ 0.882793 0.666049 0.812463 0.10394
H_ H_ 0.768651 0.629356 0.555273 0.10394
H_ H_ 0.724828 0.605675 0.620081 0.10394
H_ H_ 0.597296 0.579559 0.508643 0.10394
C_ C_ 0.682945 0.595792 0.806138 0.18167
C_ C_ 0.724772 0.574528 0.781054 -0.15533
C_ C_ 0.735178 0.52046 0.77292 0.02923
C_ C_ 0.717714 0.982092 0.802422 -0.15533
C_ C_ 0.652126 0.515474 0.803039 0.18167
C_ C_ 0.526354 0.643488 0.771135 0.18167
C_ C_ 0.00857127 0.690056 0.7506 -0.15533
C_ C_ 0.507184 0.735312 0.765075 0.02923
C_ C_ 0.528221 0.740254 0.816736 -0.15533
C_ C_ 0.555344 0.700154 0.839915 0.18167
C_ C_ 0.503024 0.556395 0.865889 0.69207
C_ C_ 0.978076 0.00497771 0.887418 0.02923
C_ C_ -0.0019289999999999585 0.954868 0.886619 -0.15533
C_ C_ 0.970299 0.914008 0.888397 -0.15533
C_ C_ 0.916245 0.922302 0.891839 0.02923
C_ C_ 0.896277 0.974449 0.891742 -0.15533
C_ C_ 0.926473 0.0149919 0.891485 0.02923
C_ C_ 0.897815 0.567291 0.890705 0.69207
C_ C_ 0.911786 0.822312 0.887418 0.69661
C_ C_ 0.572487 0.796767 0.59068 0.18167
C_ C_ 0.523557 0.782988 0.57251 -0.15533
C_ C_ 0.512496 0.773153 0.518653 0.02923
C_ C_ 0.547997 0.786957 0.984241 -0.15533
C_ C_ 0.593949 0.803306 0.505473 0.18167
C_ C_ 0.712417 0.764223 0.635929 0.18167
C_ C_ 0.737632 0.737417 0.675575 -0.15533
C_ C_ 0.748564 0.762475 0.724461 0.02923
C_ C_ 0.732833 0.815719 0.728116 -0.15533
C_ C_ 0.708123 0.841485 0.685683 0.18167
C_ C_ 0.739618 0.875209 0.555893 0.69207
C_ C_ 0.785678 0.857663 1.00604977 0.02923
C_ C_ 0.767032 0.848678 0.95476 -0.15533
C_ C_ 0.792664 0.865511 0.915087 -0.15533
C_ C_ 0.843001 0.882863 0.926064 0.02923
C_ C_ 0.861293 0.890325 0.979182 -0.15533
C_ C_ 0.834417 0.873787 0.0184041 0.02923
C_ C_ 0.854848 0.893803 0.577751 0.69207
C_ C_ 0.855164 0.87985 0.8273 0.69661
C_ C_ 0.823466 0.941956 0.691716 0.18167
C_ C_ 0.786909 0.959076 0.723405 -0.15533
C_ C_ 0.795148 -0.002411000000000052 0.762183 0.02923
C_ C_ 0.822631 0.513106 0.749102 -0.15533
C_ C_ 0.880455 0.995955 0.734928 0.18167
C_ C_ 0.998113 0.857167 0.705258 0.18167
C_ C_ 0.509429 0.816822 0.725079 -0.15533
C_ C_ 0.989984 0.783545 0.752319 0.02923
C_ C_ 0.937654 0.791416 0.738542 -0.15533
C_ C_ 0.91537 0.829196 0.708899 0.18167
C_ C_ 0.992675 0.955377 0.627688 0.69207
C_ C_ 0.521545 0.480089 0.623511 0.02923
C_ C_ 0.500214 0.531717 0.620614 -0.15533
C_ C_ 0.52983 0.570026 0.610688 -0.15533
C_ C_ 0.58258 0.557465 0.602785 0.02923
C_ C_ 0.603201 0.50667 0.606255 -0.15533
C_ C_ 0.574119 0.467352 0.615942 0.02923
C_ C_ 0.594318 0.921334 0.612496 0.69207
C_ C_ 0.590475 0.65552 0.605383 0.69661
C_ C_ 0.944544 0.683902 0.935638 0.18167
C_ C_ 0.985519 0.700085 0.967887 -0.15533
C_ C_ 0.976548 0.73942 1.0035935 0.02923
C_ C_ 0.914418 0.760808 0.506272 -0.15533
C_ C_ 0.886061 0.726751 0.990502 0.18167
C_ C_ 0.762758 0.699411 0.846087 0.18167
C_ C_ 0.742429 0.729248 0.806785 -0.15533
C_ C_ 0.772006 0.733077 0.767613 0.02923
C_ C_ 0.823646 0.714015 0.771453 -0.15533
C_ C_ 0.8442 0.68475 0.812424 0.18167
C_ C_ 0.763791 0.624109 0.957961 0.69207
C_ C_ 0.716049 0.61187 0.490533 0.02923
C_ C_ 0.736469 0.61432 0.542096 -0.15533
C_ C_ 0.706669 0.605514 0.580443 -0.15533
C_ C_ 0.656578 0.593842 0.566471 0.02923
C_ C_ 0.636261 0.58773 0.516196 -0.15533
C_ C_ 0.664624 0.5976 0.477134 0.02923
C_ C_ 0.649446 0.621953 0.928422 0.69207
C_ C_ 0.639625 0.598882 0.664518 0.69661
C_ C_ 0.881945 0.87765 0.88382 -0.30787
C_ C_ 0.617261 0.600332 0.608574 -0.30787
N_ N_ 0.645784 0.568044 0.812414 -0.32189
N_ N_ 0.558042 0.65422 0.814085 -0.32189
N_ N_ 0.606263 0.804129 0.556774 -0.32189
N_ N_ 0.695452 0.814749 0.642259 -0.32189
N_ N_ 0.870117 0.956663 0.701065 -0.32189
N_ N_ 0.946509 0.861911 0.69409 -0.32189
N_ N_ 0.895469 0.693287 0.94842 -0.32189
N_ N_ 0.813321 0.678005 0.8477 -0.32189
O_ O_ 1.0119464 0.585221 0.908212 -0.63271
O_ O_ 0.543299 0.546527 0.84146 -0.57982
O_ O_ 0.901621 0.588219 0.845003 -0.63271
O_ O_ 0.869367 0.591102 0.925162 -0.57982
O_ O_ 0.745987 0.893814 0.603783 -0.63271
O_ O_ 0.701757 0.846208 0.541388 -0.57982
O_ O_ 0.858558 0.853473 0.602449 -0.63271
O_ O_ 0.884783 0.928075 0.595829 -0.57982
O_ O_ 0.487988 0.912445 0.593873 -0.63271
O_ O_ 0.9628 0.96685 0.663664 -0.57982
O_ O_ 0.59478 0.899648 0.655995 -0.63271
O_ O_ 0.628322 0.904848 0.581095 -0.57982
O_ O_ 0.763336 0.59064 0.919932 -0.63271
O_ O_ 0.796795 0.65691 0.961907 -0.57982
O_ O_ 0.654386 0.664126 0.908424 -0.63271
O_ O_ 0.616439 0.592506 0.907613 -0.57982
F_ F_ 0.945426 0.821224 0.930834 -0.20885
F_ F_ 0.938824 0.813123 0.845149 -0.20885
F_ F_ 0.879359 0.785719 0.885348 -0.20885
F_ F_ 0.81886 0.921509 0.828276 -0.20885
F_ F_ 0.829167 0.839093 0.812658 -0.20885
F_ F_ 0.888602 0.889226 0.793172 -0.20885
F_ F_ 0.566154 0.656806 0.557798 -0.20885
F_ F_ 0.561475 0.673662 0.644285 -0.20885
F_ F_ 0.624508 0.690139 0.602578 -0.20885
F_ F_ 0.672902 0.557572 0.666465 -0.20885
F_ F_ 0.666839 0.637579 0.681553 -0.20885
F_ F_ 0.605229 0.597181 0.699185 -0.20885
_cell_length_a 26.508
_cell_length_b 26.37200000322088
_cell_length_c 26.311999743092066
_cell_angle_alpha 93.74100058972084
_cell_angle_beta 96.04100104955006
_cell_angle_gamma 83.6869992558723
_symmetry_space_group_name_H-M         'P 1'
_symmetry_Int_Tables_number            1
loop_
_symmetry_equiv_pos_as_xyz
   'x, y, z'
                         
loop_
_atom_site_label
_atom_site_type_symbol
_atom_site_fract_x 
_atom_site_fract_y
_atom_site_fract_z
_atom_site_charge
Zn Zn 0.0928817 0.0791621 0.345856 0.83971
Zn Zn 0.165669 0.348947 0.0846457 0.83971
Zn Zn 0.411094 0.415403 0.160956 0.83971
Zn Zn 0.348348 0.147354 0.418391 0.83971
H_ H_ 0.180069 0.130989 0.314571 0.10394
H_ H_ 0.252751 0.0954674 0.269859 0.10394
H_ H_ 0.198507 0.451767 0.27112 0.10394
H_ H_ 0.139056 0.979788 0.324099 0.10394
H_ H_ 0.539367 0.102586 0.266091 0.10394
H_ H_ 0.513454 0.17479 0.211444 0.10394
H_ H_ 0.0401422 0.264883 0.343281 0.10394
H_ H_ 0.0821163 0.187099 0.380185 0.10394
H_ H_ 0.0200642 0.449013 0.34877 0.10394
H_ H_ 0.4666 0.372162 0.365063 0.10394
H_ H_ 0.344813 0.486175 0.400207 0.10394
H_ H_ 0.0847667 0.310087 0.134163 0.10394
H_ H_ 0.508908 0.272589 0.101259 0.10394
H_ H_ 0.0401908 0.299442 0.448213 0.10394
H_ H_ 0.117243 0.327902 0.98167 0.10394
H_ H_ 0.224852 0.253679 0.0984136 0.10394
H_ H_ 0.272804 0.209021 0.177943 0.10394
H_ H_ 0.205802 0.327495 0.272217 0.10394
H_ H_ 0.181313 0.377722 0.196034 0.10394
H_ H_ 0.210993 0.369832 0.452024 0.10394
H_ H_ 0.265894 0.357331 0.385952 0.10394
H_ H_ 0.394461 0.39584 0.482803 0.10394
H_ H_ 0.311731 0.401987 0.158798 0.10394
H_ H_ 0.233732 0.450173 0.192874 0.10394
H_ H_ 0.335812 0.0356822 0.275328 0.10394
H_ H_ 0.405106 0.501118 0.249209 0.10394
H_ H_ 0.0132315 0.393033 0.215419 0.10394
H_ H_ 0.0617262 0.309904 0.248026 0.10394
H_ H_ 0.43355 0.239498 0.227786 0.10394
H_ H_ 0.383785 0.318894 0.1918 0.10394
H_ H_ 0.460077 0.0493842 0.0862722 0.10394
H_ H_ 0.0282883 0.131748 0.115816 0.10394
H_ H_ 0.145389 0.0130112 0.0895199 0.10394
H_ H_ 0.453256 0.154518 0.398447 0.10394
H_ H_ 0.022791 0.196359 0.458336 0.10394
H_ H_ 0.421021 0.287821 0.0443878 0.10394
H_ H_ 0.354798 0.219418 0.509579 0.10394
H_ H_ 0.241191 0.193966 0.386215 0.10394
H_ H_ 0.199351 0.2402 0.310082 0.10394
H_ H_ 0.34462 0.226705 0.250283 0.10394
H_ H_ 0.383563 0.181555 0.331008 0.10394
H_ H_ 0.290283 0.123206 0.0544325 0.10394
H_ H_ 0.240327 0.105715 0.114406 0.10394
H_ H_ 0.104643 0.109898 0.00733977 0.10394
C_ C_ 0.185204 0.088895 0.304283 0.18167
C_ C_ 0.229036 0.0688328 0.280855 -0.15533
C_ C_ 0.235335 0.0176111 0.266064 0.02923
C_ C_ 0.189523 0.49154 0.271903 -0.15533
C_ C_ 0.158468 0.00599367 0.303679 0.18167
C_ C_ 0.0377931 0.13211 0.265205 0.18167
C_ C_ 0.527233 0.18185 0.251349 -0.15533
C_ C_ 0.0175163 0.223843 0.267128 0.02923
C_ C_ 0.0409082 0.227159 0.317156 -0.15533
C_ C_ 0.0632953 0.183447 0.340173 0.18167
C_ C_ 0.0147625 0.0407186 0.379372 0.69207
C_ C_ 0.465488 0.500983 0.376703 0.02923
C_ C_ 0.486069 0.448819 0.37442 -0.15533
C_ C_ 0.454343 0.41141 0.374963 -0.15533
C_ C_ 0.403971 0.425233 0.387323 0.02923
C_ C_ 0.384404 0.478123 0.3936 -0.15533
C_ C_ 0.413958 0.514834 0.383238 0.02923
C_ C_ 0.397275 0.0657723 0.382441 0.69207
C_ C_ 0.393633 0.325681 0.384489 0.69661
C_ C_ 0.0779839 0.300358 0.0920307 0.18167
C_ C_ 0.0308727 0.282923 0.0727604 -0.15533
C_ C_ 0.0211633 0.270542 0.018972 0.02923
C_ C_ 0.0482731 0.29783 0.48924 -0.15533
C_ C_ 0.0990333 0.307933 0.00663339 0.18167
C_ C_ 0.225089 0.268952 0.137466 0.18167
C_ C_ 0.250211 0.243322 0.181356 -0.15533
C_ C_ 0.245281 0.265562 0.229962 0.02923
C_ C_ 0.21517 0.312293 0.234309 -0.15533
C_ C_ 0.193901 0.338762 0.192139 0.18167
C_ C_ 0.249275 0.372812 0.0449315 0.69207
C_ C_ 0.273375 0.376562 0.510461 0.02923
C_ C_ 0.252224 0.373806 0.460323 -0.15533
C_ C_ 0.283657 0.37344 0.421052 -0.15533
C_ C_ 0.334079 0.384589 0.429878 0.02923
C_ C_ 0.354364 0.389782 0.479733 -0.15533
C_ C_ 0.324739 0.386744 0.521087 0.02923
C_ C_ 0.362228 0.378954 0.0749253 0.69207
C_ C_ 0.336964 0.383443 0.331374 0.69661
C_ C_ 0.315306 0.435634 0.18451 0.18167
C_ C_ 0.271587 0.462416 0.203246 -0.15533
C_ C_ 0.275251 0.501761 0.241668 0.02923
C_ C_ 0.326783 0.0108455 0.242297 -0.15533
C_ C_ 0.366707 0.49163 0.234882 0.18167
C_ C_ 0.498092 0.358802 0.218636 0.18167
C_ C_ 0.0193523 0.310478 0.232817 -0.15533
C_ C_ 0.500403 0.275654 0.25103 0.02923
C_ C_ 0.449174 0.276226 0.230711 -0.15533
C_ C_ 0.423036 0.319267 0.20841 0.18167
C_ C_ 0.493705 0.444675 0.127905 0.69207
C_ C_ 0.0252152 1.00246376 0.120015 0.02923
C_ C_ 0.00818625 0.0554572 0.121526 -0.15533
C_ C_ 0.040206 0.0917217 0.112846 -0.15533
C_ C_ 0.0919968 0.0782321 0.107001 0.02923
C_ C_ 0.108314 0.0242584 0.101072 -0.15533
C_ C_ 0.0771362 0.987698 0.113369 0.02923
C_ C_ 0.0971142 0.420581 0.10397 0.69207
C_ C_ 0.108357 0.176911 0.114328 0.69661
C_ C_ 0.445744 0.176596 0.434351 0.18167
C_ C_ 0.482316 0.207639 0.450078 -0.15533
C_ C_ 0.472406 0.244144 0.491296 0.02923
C_ C_ 0.429348 0.260231 0.0145303 -0.15533
C_ C_ 0.387028 0.217181 0.489868 0.18167
C_ C_ 0.263818 0.199419 0.355541 0.18167
C_ C_ 0.24129 0.227584 0.313022 -0.15533
C_ C_ 0.269571 0.237409 0.27398 0.02923
C_ C_ 0.32043 0.216807 0.278589 -0.15533
C_ C_ 0.343478 0.190714 0.322352 0.18167
C_ C_ 0.273194 0.119472 0.458631 0.69207
C_ C_ 0.231015 0.128792 0.992643 0.02923
C_ C_ 0.251566 0.118828 0.0427929 -0.15533
C_ C_ 0.219827 0.111565 0.0788548 -0.15533
C_ C_ 0.166057 0.111512 0.0702492 0.02923
C_ C_ 0.147081 0.113809 0.0183268 -0.15533
C_ C_ 0.179026 0.120806 0.979045 0.02923
C_ C_ 0.160478 0.10573 0.428223 0.69207
C_ C_ 0.160628 0.113751 0.168473 0.69661
C_ C_ 0.367152 0.380774 0.385603 -0.30787
C_ C_ 0.131514 0.119215 0.11454 -0.30787
N_ N_ 0.151854 0.0572244 0.312397 -0.32189
N_ N_ 0.0566778 0.13644 0.317857 -0.32189
N_ N_ 0.109209 0.313424 0.0581342 -0.32189
N_ N_ 0.200412 0.318187 0.144112 -0.32189
N_ N_ 0.360693 0.45364 0.197412 -0.32189
N_ N_ 0.446991 0.360509 0.201701 -0.32189
N_ N_ 0.39821 0.183195 0.450965 -0.32189
N_ N_ 0.31475 0.184219 0.360627 -0.32189
O_ O_ 0.5094 0.078259 0.413164 -0.63271
O_ O_ 0.050015 0.0311168 0.349183 -0.57982
O_ O_ 0.40417 0.0966648 0.348914 -0.63271
O_ O_ 0.374536 0.0830706 0.42145 -0.57982
O_ O_ 0.250539 0.400102 0.085628 -0.63271
O_ O_ 0.214705 0.341029 0.0378154 -0.57982
O_ O_ 0.356916 0.339758 0.100345 -0.63271
O_ O_ 0.395169 0.410904 0.0933574 -0.57982
O_ O_ 0.993528 0.401109 0.105939 -0.63271
O_ O_ 0.456218 0.458594 0.157904 -0.57982
O_ O_ 0.099732 0.398959 0.14837 -0.63271
O_ O_ 0.133552 0.408966 0.0767047 -0.57982
O_ O_ 0.266182 0.0973726 0.411875 -0.63271
O_ O_ 0.304474 0.153574 0.463619 -0.57982
O_ O_ 0.165448 0.14807 0.407968 -0.63271
O_ O_ 0.123244 0.0783071 0.40888 -0.57982
F_ F_ 0.431704 0.318776 0.422625 -0.20885
F_ F_ 0.411972 0.308646 0.338598 -0.20885
F_ F_ 0.358696 0.28981 0.389546 -0.20885
F_ F_ 0.299372 0.424069 0.327273 -0.20885
F_ F_ 0.312896 0.339874 0.314759 -0.20885
F_ F_ 0.367373 0.392419 0.292482 -0.20885
F_ F_ 0.0705501 0.1844 0.0734255 -0.20885
F_ F_ 0.0877165 0.194674 0.158321 -0.20885
F_ F_ 0.147443 0.206351 0.11016 -0.20885
F_ F_ 0.190337 0.0671129 0.167605 -0.20885
F_ F_ 0.189049 0.155648 0.184728 -0.20885
F_ F_ 0.125323 0.112106 0.204956 -0.20885
Zn Zn 0.088825 0.088405 0.850503 0.83971
Zn Zn 0.159565 0.351858 0.588994 0.83971
Zn Zn 0.40385 0.411825 0.655647 0.83971
Zn Zn 0.350446 0.163433 0.916249 0.83971
H_ H_ 0.166 0.134932 0.799539 0.10394
H_ H_ 0.244146 0.103189 0.766861 0.10394
H_ H_ 0.202334 0.44534 0.791605 0.10394
H_ H_ 0.123847 0.988814 0.807999 0.10394
H_ H_ 0.528685 0.0866738 0.748561 0.10394
H_ H_ 0.484526 0.161763 0.704306 0.10394
H_ H_ 0.028812 0.267449 0.830209 0.10394
H_ H_ 0.0644824 0.193395 0.880282 0.10394
H_ H_ 0.0350643 0.442158 0.868361 0.10394
H_ H_ 0.492639 0.391315 0.89627 0.10394
H_ H_ 0.353038 0.494352 0.900133 0.10394
H_ H_ 0.0886774 0.299462 0.634465 0.10394
H_ H_ 0.509008 0.25765 0.590459 0.10394
H_ H_ 0.0497643 0.28018 0.945691 0.10394
H_ H_ 0.121047 0.323551 0.483644 0.10394
H_ H_ 0.231805 0.264072 0.600158 0.10394
H_ H_ 0.272646 0.216077 0.677124 0.10394
H_ H_ 0.188815 0.326365 0.774289 0.10394
H_ H_ 0.153425 0.372553 0.701401 0.10394
H_ H_ 0.221035 0.384989 0.947947 0.10394
H_ H_ 0.27317 0.383421 0.877381 0.10394
H_ H_ 0.407117 0.394916 0.98673 0.10394
H_ H_ 0.308614 0.384778 0.68038 0.10394
H_ H_ 0.232448 0.430969 0.706103 0.10394
H_ H_ 0.328324 0.0442533 0.77879 0.10394
H_ H_ 0.395985 0.506072 0.731681 0.10394
H_ H_ 0.00769879 0.384285 0.709636 0.10394
H_ H_ 0.0546311 0.304091 0.736402 0.10394
H_ H_ 0.414893 0.228458 0.705487 0.10394
H_ H_ 0.369887 0.312872 0.680897 0.10394
H_ H_ 0.4791 0.0614198 0.651505 0.10394
H_ H_ 0.0184081 0.117041 0.589966 0.10394
H_ H_ 0.151712 0.00933641 0.600701 0.10394
H_ H_ 0.452148 0.164871 0.900861 0.10394
H_ H_ 0.0245431 0.189227 0.95315 0.10394
H_ H_ 0.409693 0.284431 0.531234 0.10394
H_ H_ 0.351701 0.240516 -0.0003229999999999622 0.10394
H_ H_ 0.24458 0.202812 0.894547 0.10394
H_ H_ 0.196854 0.246687 0.821157 0.10394
H_ H_ 0.33875 0.243533 0.75155 0.10394
H_ H_ 0.381992 0.196327 0.81897 0.10394
H_ H_ 0.293953 0.111545 0.559936 0.10394
H_ H_ 0.235246 0.105757 0.624811 0.10394
H_ H_ 0.112062 0.0902655 0.502375 0.10394
C_ C_ 0.174231 0.0959337 0.7959 0.18167
C_ C_ 0.217835 0.075909 0.775218 -0.15533
C_ C_ 0.227891 0.0230614 0.76113 0.02923
C_ C_ 0.194048 0.486465 0.789726 -0.15533
C_ C_ 0.152578 0.0102844 0.798333 0.18167
C_ C_ 0.0239543 0.133463 0.770175 0.18167
C_ C_ 0.504342 0.167752 0.741991 -0.15533
C_ C_ 0.00690635 0.224598 0.75993 0.02923
C_ C_ 0.026129 0.230664 0.812366 -0.15533
C_ C_ 0.0476542 0.190158 0.840135 0.18167
C_ C_ 0.0104017 0.0448554 0.879515 0.69207
C_ C_ 0.473884 0.51424 0.877818 0.02923
C_ C_ 0.496985 0.463663 0.875115 -0.15533
C_ C_ 0.46958 0.424042 0.88554 -0.15533
C_ C_ 0.416516 0.432739 0.893622 0.02923
C_ C_ 0.395772 0.485396 0.898186 -0.15533
C_ C_ 0.423551 0.525322 0.890457 0.02923
C_ C_ 0.401259 0.0764035 0.882036 0.69207
C_ C_ 0.407818 0.334271 0.88527 0.69661
C_ C_ 0.0751164 0.300284 0.593736 0.18167
C_ C_ 0.0275191 0.287764 0.573222 -0.15533
C_ C_ 0.0150541 0.279824 0.519881 0.02923
C_ C_ 0.053529 0.291386 0.985245 -0.15533
C_ C_ 0.0950379 0.314137 0.509936 0.18167
C_ C_ 0.22872 0.281145 0.640104 0.18167
C_ C_ 0.250957 0.254806 0.684236 -0.15533
C_ C_ 0.234868 0.269104 0.733505 0.02923
C_ C_ 0.195516 0.309405 0.737581 -0.15533
C_ C_ 0.182109 0.339293 0.697156 0.18167
C_ C_ 0.239066 0.369934 0.551388 0.69207
C_ C_ 0.282695 0.384132 0.00804114 0.02923
C_ C_ 0.262483 0.386528 0.956182 -0.15533
C_ C_ 0.29269 0.389434 0.916443 -0.15533
C_ C_ 0.345262 0.390221 0.929075 0.02923
C_ C_ 0.366167 0.394515 0.981659 -0.15533
C_ C_ 0.337227 0.382057 0.0216956 0.02923
C_ C_ 0.350669 0.38709 0.574108 0.69207
C_ C_ 0.353512 0.391548 0.831028 0.69661
C_ C_ 0.31076 0.421659 0.701047 0.18167
C_ C_ 0.265433 0.45047 0.712186 -0.15533
C_ C_ 0.271448 0.491376 0.746508 0.02923
C_ C_ 0.322233 0.011393 0.750825 -0.15533
C_ C_ 0.358961 0.489575 0.728159 0.18167
C_ C_ 0.484443 0.349755 0.712417 0.18167
C_ C_ 0.0142708 0.306196 0.722129 -0.15533
C_ C_ 0.484327 0.262798 0.736714 0.02923
C_ C_ 0.432857 0.263495 0.713367 -0.15533
C_ C_ 0.410909 0.308799 0.688932 0.18167
C_ C_ 0.487113 0.442247 0.633917 0.69207
C_ C_ 0.0267103 0.991675 0.613548 0.02923
C_ C_ 0.00450997 0.0427761 0.606959 -0.15533
C_ C_ 0.0351108 0.0790309 0.597012 -0.15533
C_ C_ 0.0883246 0.0685029 0.598082 0.02923
C_ C_ 0.109966 0.0175158 0.599558 -0.15533
C_ C_ 0.0775156 0.978098 0.603927 0.02923
C_ C_ 0.0863481 0.426296 0.609621 0.69207
C_ C_ 0.100544 0.165958 0.600668 0.69661
C_ C_ 0.446867 0.185842 0.93568 0.18167
C_ C_ 0.486487 0.212287 0.958385 -0.15533
C_ C_ 0.480149 0.247416 1.00173753 0.02923
C_ C_ 0.4234 0.25132 0.50835 -0.15533
C_ C_ 0.38999 0.232586 0.988522 0.18167
C_ C_ 0.264956 0.208188 0.861148 0.18167
C_ C_ 0.238462 0.235584 0.818763 -0.15533
C_ C_ 0.262699 0.250915 0.778933 0.02923
C_ C_ 0.314228 0.233039 0.780335 -0.15533
C_ C_ 0.339602 0.204298 0.819625 0.18167
C_ C_ 0.268079 0.132376 0.953406 0.69207
C_ C_ 0.2355 0.111681 0.496727 0.02923
C_ C_ 0.252488 0.108977 0.546995 -0.15533
C_ C_ 0.218836 0.103687 0.583458 -0.15533
C_ C_ 0.167804 0.0972876 0.570756 0.02923
C_ C_ 0.15293 0.086643 0.516949 -0.15533
C_ C_ 0.183644 0.0977354 0.481404 0.02923
C_ C_ 0.1568 0.116841 0.924884 0.69207
C_ C_ 0.144608 0.110599 0.66377 0.69661
C_ C_ 0.381515 0.389518 0.887184 -0.30787
C_ C_ 0.125694 0.110629 0.606002 -0.30787
N_ N_ 0.143599 0.0618852 0.809828 -0.32189
N_ N_ 0.0496971 0.142564 0.818645 -0.32189
N_ N_ 0.107935 0.312425 0.561703 -0.32189
N_ N_ 0.194098 0.322461 0.647576 -0.32189
N_ N_ 0.354853 0.443832 0.701026 -0.32189
N_ N_ 0.437053 0.350087 0.687525 -0.32189
N_ N_ 0.400282 0.198282 0.948935 -0.32189
N_ N_ 0.317433 0.199844 0.863577 -0.32189
O_ O_ 0.513275 0.0835456 0.894231 -0.63271
O_ O_ 0.0473975 0.0377903 0.8508 -0.57982
O_ O_ 0.400131 0.100347 0.840012 -0.63271
O_ O_ 0.37592 0.0990588 0.920447 -0.57982
O_ O_ 0.246212 0.39431 0.595597 -0.63271
O_ O_ 0.202362 0.340885 0.541888 -0.57982
O_ O_ 0.350863 0.345984 0.599962 -0.63271
O_ O_ 0.375144 0.426185 0.594442 -0.57982
O_ O_ 0.98348 0.409072 0.599391 -0.63271
O_ O_ 0.45072 0.459111 0.661626 -0.57982
O_ O_ 0.0847674 0.405219 0.652719 -0.63271
O_ O_ 0.126401 0.413122 0.586468 -0.57982
O_ O_ 0.260198 0.113801 0.90543 -0.63271
O_ O_ 0.305739 0.161972 0.961505 -0.57982
O_ O_ 0.15409 0.157061 0.896811 -0.63271
O_ O_ 0.120677 0.0867799 0.913221 -0.57982
F_ F_ 0.44363 0.329733 0.927779 -0.20885
F_ F_ 0.431754 0.315713 0.843759 -0.20885
F_ F_ 0.373196 0.297385 0.887114 -0.20885
F_ F_ 0.314682 0.429275 0.826299 -0.20885
F_ F_ 0.329174 0.352503 0.807869 -0.20885
F_ F_ 0.385982 0.394007 0.794655 -0.20885
F_ F_ 0.0786073 0.166834 0.550083 -0.20885
F_ F_ 0.0627958 0.180795 0.632345 -0.20885
F_ F_ 0.136659 0.200145 0.606585 -0.20885
F_ F_ 0.170451 0.0669231 0.678087 -0.20885
F_ F_ 0.1742 0.148509 0.682616 -0.20885
F_ F_ 0.103919 0.11766 0.692017 -0.20885
Zn Zn 0.0817318 0.586278 0.341954 0.83971
Zn Zn 0.162041 0.853026 0.0876416 0.83971
Zn Zn 0.4102 0.911126 0.147589 0.83971
Zn Zn 0.33689 0.654573 0.419867 0.83971
H_ H_ 0.164592 0.636133 0.305023 0.10394
H_ H_ 0.241169 0.605538 0.264439 0.10394
H_ H_ 0.213193 0.944419 0.282092 0.10394
H_ H_ 0.116411 0.491533 0.298933 0.10394
H_ H_ 0.502777 0.587224 0.252458 0.10394
H_ H_ 0.468865 0.664632 0.20309 0.10394
H_ H_ 0.0348005 0.769219 0.326881 0.10394
H_ H_ 0.0705168 0.696956 0.371149 0.10394
H_ H_ 0.02622 0.938873 0.363926 0.10394
H_ H_ 0.47958 0.873436 0.374976 0.10394
H_ H_ 0.350079 0.979668 0.388465 0.10394
H_ H_ 0.0869856 0.806729 0.137068 0.10394
H_ H_ 0.496918 0.769405 0.0928591 0.10394
H_ H_ 0.0334402 0.79626 0.439013 0.10394
H_ H_ 0.118041 0.816512 0.985261 0.10394
H_ H_ 0.217079 0.760107 0.0980847 0.10394
H_ H_ 0.259503 0.707267 0.173418 0.10394
H_ H_ 0.213711 0.83651 0.274336 0.10394
H_ H_ 0.174224 0.888559 0.200558 0.10394
H_ H_ 0.215782 0.866755 0.435928 0.10394
H_ H_ 0.268018 0.873704 0.367102 0.10394
H_ H_ 0.399166 0.885254 0.481707 0.10394
H_ H_ 0.303181 0.88411 0.165134 0.10394
H_ H_ 0.231506 0.948039 0.190718 0.10394
H_ H_ 0.328765 0.546302 0.286673 0.10394
H_ H_ 0.401586 -0.003662999999999972 0.221575 0.10394
H_ H_ 0.0131617 0.889352 0.196728 0.10394
H_ H_ 0.0508566 0.815433 0.23597 0.10394
H_ H_ 0.400882 0.744881 0.223714 0.10394
H_ H_ 0.365252 0.814642 0.166622 0.10394
H_ H_ 0.458469 0.534542 0.0872007 0.10394
H_ H_ 0.0148441 0.610411 0.0960625 0.10394
H_ H_ 0.143185 0.499051 0.0870907 0.10394
H_ H_ 0.436207 0.660397 0.399298 0.10394
H_ H_ 0.00543253 0.699044 0.440244 0.10394
H_ H_ 0.411887 0.793876 0.029294 0.10394
H_ H_ 0.341272 0.738926 0.503731 0.10394
H_ H_ 0.235195 0.706724 0.395215 0.10394
H_ H_ 0.191193 0.756566 0.325511 0.10394
H_ H_ 0.331295 0.726847 0.252932 0.10394
H_ H_ 0.367558 0.679761 0.323145 0.10394
H_ H_ 0.284803 0.611907 0.052465 0.10394
H_ H_ 0.226682 0.611131 0.115069 0.10394
H_ H_ 0.105627 0.576684 0.0024500000000000632 0.10394
C_ C_ 0.17354 0.595116 0.301446 0.18167
C_ C_ 0.220096 0.577491 0.280764 -0.15533
C_ C_ 0.227952 0.52384 0.26466 0.02923
C_ C_ 0.202624 0.985123 0.283153 -0.15533
C_ C_ 0.145795 0.513373 0.293387 0.18167
C_ C_ 0.0268104 0.639895 0.26012 0.18167
C_ C_ 0.489605 0.669315 0.237399 -0.15533
C_ C_ 0.00366321 0.731248 0.258833 0.02923
C_ C_ 0.0280655 0.7345 0.309017 -0.15533
C_ C_ 0.0471171 0.691585 0.336259 0.18167
C_ C_ 0.00192254 0.550522 0.375291 0.69207
C_ C_ 0.474066 0.0021945 0.373945 0.02923
C_ C_ 0.492882 0.950545 0.376272 -0.15533
C_ C_ 0.460946 0.9114 0.371179 -0.15533
C_ C_ 0.40917 0.922246 0.379372 0.02923
C_ C_ 0.388687 0.972302 0.379863 -0.15533
C_ C_ 0.420851 0.0138104 0.379091 0.02923
C_ C_ 0.388096 0.566449 0.38105 0.69207
C_ C_ 0.402766 0.821507 0.378528 0.69661
C_ C_ 0.078062 0.798835 0.0965414 0.18167
C_ C_ 0.032919 0.77512 0.0812651 -0.15533
C_ C_ 0.0178307 0.769564 0.0276185 0.02923
C_ C_ 0.0419489 0.792992 0.479888 -0.15533
C_ C_ 0.0968818 0.80413 0.0113297 0.18167
C_ C_ 0.219389 0.776456 0.136718 0.18167
C_ C_ 0.237368 0.74592 0.180066 -0.15533
C_ C_ 0.233181 0.766582 0.229986 0.02923
C_ C_ 0.212585 0.817822 0.236927 -0.15533
C_ C_ 0.191353 0.846426 0.19356 0.18167
C_ C_ 0.236624 0.888868 0.0425479 0.69207
C_ C_ 0.277568 0.862142 0.496312 0.02923
C_ C_ 0.25757 0.868395 0.44563 -0.15533
C_ C_ 0.28626 0.873684 0.407108 -0.15533
C_ C_ 0.339029 0.880042 0.418824 0.02923
C_ C_ 0.359064 0.8776 0.470339 -0.15533
C_ C_ 0.329093 0.868919 0.510403 0.02923
C_ C_ 0.34809 0.894272 0.0656085 0.69207
C_ C_ 0.349032 0.877995 0.321321 0.69661
C_ C_ 0.311011 0.923218 0.181849 0.18167
C_ C_ 0.269408 0.956488 0.196738 -0.15533
C_ C_ 0.27704 0.995033 0.233178 0.02923
C_ C_ 0.323798 0.515825 0.256817 -0.15533
C_ C_ 0.365664 0.982261 0.218707 0.18167
C_ C_ 0.483582 0.847182 0.191366 0.18167
C_ C_ 0.0125425 0.81418 0.220225 -0.15533
C_ C_ 0.476834 0.764329 0.224699 0.02923
C_ C_ 0.423224 0.775765 0.215717 -0.15533
C_ C_ 0.404647 0.81529 0.186331 0.18167
C_ C_ 0.487153 0.950405 0.108694 0.69207
C_ C_ 0.0243461 0.487138 0.119492 0.02923
C_ C_ 0.00412689 0.539099 0.118878 -0.15533
C_ C_ 0.0322844 0.574454 0.10421 -0.15533
C_ C_ 0.0848081 0.563689 0.100147 0.02923
C_ C_ 0.104492 0.511242 0.0944556 -0.15533
C_ C_ 0.0746029 0.473327 0.104394 0.02923
C_ C_ 0.0969682 0.933151 0.112489 0.69207
C_ C_ 0.0988568 0.658869 0.102917 0.69661
C_ C_ 0.433126 0.685104 0.432512 0.18167
C_ C_ 0.475994 0.703577 0.458609 -0.15533
C_ C_ 0.467156 0.744149 0.496925 0.02923
C_ C_ 0.417204 0.762767 0.0035085 -0.15533
C_ C_ 0.378742 0.731078 0.486683 0.18167
C_ C_ 0.251913 0.704069 0.361084 0.18167
C_ C_ 0.227027 0.731383 0.319859 -0.15533
C_ C_ 0.253726 0.736472 0.276309 0.02923
C_ C_ 0.305741 0.71853 0.281111 -0.15533
C_ C_ 0.327818 0.691459 0.321608 0.18167
C_ C_ 0.260433 0.606765 0.453054 0.69207
C_ C_ 0.227233 0.610462 0.988728 0.02923
C_ C_ 0.243365 0.615465 0.041292 -0.15533
C_ C_ 0.211807 0.607746 0.0768535 -0.15533
C_ C_ 0.159696 0.597109 0.0646723 0.02923
C_ C_ 0.141942 0.592101 0.0126709 -0.15533
C_ C_ 0.171754 0.606572 0.975612 0.02923
C_ C_ 0.145691 0.611878 0.424802 0.69207
C_ C_ 0.147067 0.598131 0.161194 0.69661
C_ C_ 0.375277 0.877153 0.376984 -0.30787
C_ C_ 0.122522 0.603549 0.106143 -0.30787
N_ N_ 0.140999 0.562048 0.311712 -0.32189
N_ N_ 0.0475931 0.645293 0.31062 -0.32189
N_ N_ 0.110337 0.80892 0.0633808 -0.32189
N_ N_ 0.19506 0.824 0.145649 -0.32189
N_ N_ 0.357812 0.939086 0.188981 -0.32189
N_ N_ 0.434681 0.847531 0.170963 -0.32189
N_ N_ 0.384927 0.698361 0.446744 -0.32189
N_ N_ 0.301229 0.682626 0.360452 -0.32189
O_ O_ 0.496705 0.584312 0.39325 -0.63271
O_ O_ 0.0388598 0.539627 0.345149 -0.57982
O_ O_ 0.393726 0.591309 0.341386 -0.63271
O_ O_ 0.37252 0.592993 0.42195 -0.57982
O_ O_ 0.239633 0.914854 0.0861514 -0.63271
O_ O_ 0.208818 0.848849 0.0411508 -0.57982
O_ O_ 0.350001 0.849434 0.0853725 -0.63271
O_ O_ 0.378579 0.924993 0.087738 -0.57982
O_ O_ 0.990867 0.920753 0.101861 -0.63271
O_ O_ 0.456023 0.955915 0.145926 -0.57982
O_ O_ 0.0955044 0.911786 0.153917 -0.63271
O_ O_ 0.129492 0.915129 0.0811665 -0.57982
O_ O_ 0.25188 0.594286 0.403408 -0.63271
O_ O_ 0.294614 0.638114 0.469241 -0.57982
O_ O_ 0.155719 0.652848 0.402292 -0.63271
O_ O_ 0.105937 0.589398 0.408766 -0.57982
F_ F_ 0.441504 0.818634 0.417904 -0.20885
F_ F_ 0.425669 0.805388 0.33436 -0.20885
F_ F_ 0.364565 0.789829 0.383015 -0.20885
F_ F_ 0.309135 0.916233 0.315468 -0.20885
F_ F_ 0.327749 0.834679 0.300568 -0.20885
F_ F_ 0.380978 0.883391 0.285549 -0.20885
F_ F_ 0.0745721 0.675077 0.0550584 -0.20885
F_ F_ 0.0642599 0.672262 0.139508 -0.20885
F_ F_ 0.134879 0.692542 0.112568 -0.20885
F_ F_ 0.178579 0.552238 0.161744 -0.20885
F_ F_ 0.176901 0.634986 0.180295 -0.20885
F_ F_ 0.109261 0.596984 0.195053 -0.20885
Zn Zn 0.0845068 0.586607 0.845254 0.83971
Zn Zn 0.157569 0.842068 0.577749 0.83971
Zn Zn 0.404833 0.916872 0.646688 0.83971
Zn Zn 0.33187 0.657733 0.913617 0.83971
H_ H_ 0.16652 0.632425 0.803762 0.10394
H_ H_ 0.243607 0.593589 0.768133 0.10394
H_ H_ 0.202903 0.951368 0.774099 0.10394
H_ H_ 0.123546 0.489287 0.822193 0.10394
H_ H_ 0.525672 0.605249 0.755975 0.10394
H_ H_ 0.474838 0.677753 0.710293 0.10394
H_ H_ 0.0397132 0.775951 0.845855 0.10394
H_ H_ 0.0696983 0.699469 0.889603 0.10394
H_ H_ 0.0396474 0.946245 0.88557 0.10394
H_ H_ 0.47356 0.8813 0.881927 0.10394
H_ H_ 0.34885 0.99746 0.899987 0.10394
H_ H_ 0.0675564 0.808269 0.625625 0.10394
H_ H_ 0.499817 0.773244 0.598864 0.10394
H_ H_ 0.0370538 0.79318 0.953883 0.10394
H_ H_ 0.115908 0.819702 0.480247 0.10394
H_ H_ 0.206507 0.740792 0.595999 0.10394
H_ H_ 0.23866 0.698304 0.676341 0.10394
H_ H_ 0.226194 0.84158 0.76261 0.10394
H_ H_ 0.183911 0.880247 0.682755 0.10394
H_ H_ 0.21125 0.883798 0.938922 0.10394
H_ H_ 0.258969 0.892183 0.875253 0.10394
H_ H_ 0.389814 0.916134 0.980808 0.10394
H_ H_ 0.29408 0.917078 0.639121 0.10394
H_ H_ 0.224612 0.959352 0.682774 0.10394
H_ H_ 0.319978 0.548844 0.772215 0.10394
H_ H_ 0.399627 -0.01158300000000001 0.7425 0.10394
H_ H_ 0.0209889 0.885691 0.697203 0.10394
H_ H_ 0.0600993 0.810138 0.744843 0.10394
H_ H_ 0.405669 0.75497 0.732789 0.10394
H_ H_ 0.362506 0.829486 0.693852 0.10394
H_ H_ 0.461987 0.538456 0.630019 0.10394
H_ H_ 0.00252824 0.619767 0.608736 0.10394
H_ H_ 0.121325 0.508392 0.567051 0.10394
H_ H_ 0.435313 0.663288 0.893136 0.10394
H_ H_ 0.023597 0.687291 0.959544 0.10394
H_ H_ 0.40972 0.782757 0.541433 0.10394
H_ H_ 0.337653 0.747535 -0.009723999999999955 0.10394
H_ H_ 0.234091 0.708682 0.891343 0.10394
H_ H_ 0.187632 0.746662 0.810221 0.10394
H_ H_ 0.32654 0.725979 0.739009 0.10394
H_ H_ 0.372651 0.683692 0.818478 0.10394
H_ H_ 0.276439 0.603531 0.551566 0.10394
H_ H_ 0.221875 0.616279 0.615275 0.10394
H_ H_ 0.0954015 0.594791 0.500008 0.10394
C_ C_ 0.17342 0.591426 0.797936 0.18167
C_ C_ 0.22128 0.568434 0.78229 -0.15533
C_ C_ 0.22798 0.516534 0.771943 0.02923
C_ C_ 0.196154 0.990081 0.780367 -0.15533
C_ C_ 0.150201 0.510407 0.809921 0.18167
C_ C_ 0.0286883 0.645159 0.774507 0.18167
C_ C_ 0.500735 0.685042 0.744913 -0.15533
C_ C_ 0.0128116 0.737965 0.776902 0.02923
C_ C_ 0.0374822 0.73963 0.826741 -0.15533
C_ C_ 0.0541507 0.694035 0.850056 0.18167
C_ C_ 0.00694264 0.547 0.873842 0.69207
C_ C_ 0.472544 0.00776043 0.872451 0.02923
C_ C_ 0.487863 0.955651 0.86823 -0.15533
C_ C_ 0.456006 0.919784 0.876596 -0.15533
C_ C_ 0.405401 0.93422 0.888212 0.02923
C_ C_ 0.389428 0.986428 0.894136 -0.15533
C_ C_ 0.421668 0.0229112 0.885196 0.02923
C_ C_ 0.39529 0.577411 0.885982 0.69207
C_ C_ 0.395871 0.837036 0.882524 0.69661
C_ C_ 0.0600149 0.802192 0.584699 0.18167
C_ C_ 0.0160425 0.784176 0.564591 -0.15533
C_ C_ 0.00698938 0.777902 0.512145 0.02923
C_ C_ 0.0500213 0.785361 0.992883 -0.15533
C_ C_ 0.0872034 0.809075 0.503946 0.18167
C_ C_ 0.205341 0.76096 0.634835 0.18167
C_ C_ 0.227018 0.737491 0.67874 -0.15533
C_ C_ 0.2259 0.765218 0.726517 0.02923
C_ C_ 0.211592 0.817442 0.728575 -0.15533
C_ C_ 0.193293 0.84051 0.681864 0.18167
C_ C_ 0.241675 0.858532 0.535461 0.69207
C_ C_ 0.27093 0.89088 0.00218534 0.02923
C_ C_ 0.250087 0.887093 0.950064 -0.15533
C_ C_ 0.278846 0.887955 0.911034 -0.15533
C_ C_ 0.330084 0.898804 0.921066 0.02923
C_ C_ 0.350512 0.908567 0.972397 -0.15533
C_ C_ 0.322154 0.899619 0.0131648 0.02923
C_ C_ 0.350696 0.87478 0.564978 0.69207
C_ C_ 0.344115 0.896481 0.827016 0.69661
C_ C_ 0.301171 0.944568 0.668542 0.18167
C_ C_ 0.260721 0.970702 0.692116 -0.15533
C_ C_ 0.271049 1.00063 0.735923 0.02923
C_ C_ 0.315185 0.51612 0.746235 -0.15533
C_ C_ 0.360139 0.983738 0.72694 0.18167
C_ C_ 0.484459 0.856597 0.697092 0.18167
C_ C_ 0.0209387 0.816945 0.735354 -0.15533
C_ C_ 0.481516 0.776859 0.737273 0.02923
C_ C_ 0.429401 0.783824 0.726934 -0.15533
C_ C_ 0.405345 0.824369 0.698285 0.18167
C_ C_ 0.483641 0.9592 0.616523 0.69207
C_ C_ 0.0102505 0.494588 0.614521 0.02923
C_ C_ 0.991521 0.545851 0.618263 -0.15533
C_ C_ 0.0194833 0.582517 0.602442 -0.15533
C_ C_ 0.0697555 0.570962 0.590552 0.02923
C_ C_ 0.0873377 0.518202 0.584649 -0.15533
C_ C_ 0.0594568 0.47933 0.60056 0.02923
C_ C_ 0.100714 0.92428 0.604284 0.69207
C_ C_ 0.0893315 0.664729 0.59666 0.69661
C_ C_ 0.432255 0.685163 0.928508 0.18167
C_ C_ 0.472423 0.70488 0.957524 -0.15533
C_ C_ 0.466022 0.746547 -0.008375000000000021 0.02923
C_ C_ 0.417947 0.757398 0.509091 -0.15533
C_ C_ 0.376954 0.73599 0.980158 0.18167
C_ C_ 0.253916 0.712086 0.857281 0.18167
C_ C_ 0.22934 0.734082 0.81386 -0.15533
C_ C_ 0.255215 0.742214 0.773131 0.02923
C_ C_ 0.306744 0.725225 0.773967 -0.15533
C_ C_ 0.330518 0.697243 0.816819 0.18167
C_ C_ 0.262089 0.621708 0.953017 0.69207
C_ C_ 0.221811 0.60031 0.489661 0.02923
C_ C_ 0.238765 0.598676 0.540461 -0.15533
C_ C_ 0.204522 0.60558 0.577334 -0.15533
C_ C_ 0.151701 0.602086 0.563576 0.02923
C_ C_ 0.136522 0.594848 0.512162 -0.15533
C_ C_ 0.168981 0.60154 0.474803 0.02923
C_ C_ 0.149227 0.606819 0.922933 0.69207
C_ C_ 0.131756 0.602978 0.655807 0.69661
C_ C_ 0.368738 0.89404 0.880699 -0.30787
C_ C_ 0.109917 0.608466 0.600496 -0.30787
N_ N_ 0.138832 0.561101 0.810017 -0.32189
N_ N_ 0.0503057 0.649073 0.824772 -0.32189
N_ N_ 0.0964538 0.811075 0.554866 -0.32189
N_ N_ 0.18826 0.81163 0.636356 -0.32189
N_ N_ 0.350782 0.950585 0.68597 -0.32189
N_ N_ 0.433658 0.860689 0.683492 -0.32189
N_ N_ 0.385493 0.695099 0.945087 -0.32189
N_ N_ 0.302652 0.690436 0.855085 -0.32189
O_ O_ 0.503389 0.597434 0.897574 -0.63271
O_ O_ 0.0385475 0.542294 0.837726 -0.57982
O_ O_ 0.389741 0.598664 0.84048 -0.63271
O_ O_ 0.367389 0.596882 0.920672 -0.57982
O_ O_ 0.241702 0.888752 0.577072 -0.63271
O_ O_ 0.200224 0.835162 0.526416 -0.57982
O_ O_ 0.345567 0.840137 0.597944 -0.63271
O_ O_ 0.376837 0.912464 0.580367 -0.57982
O_ O_ 0.990058 0.910417 0.601409 -0.63271
O_ O_ 0.449162 0.966924 0.648926 -0.57982
O_ O_ 0.0925278 0.894316 0.640308 -0.63271
O_ O_ 0.135365 0.907546 0.571927 -0.57982
O_ O_ 0.250455 0.612195 0.902855 -0.63271
O_ O_ 0.293741 0.657506 0.966308 -0.57982
O_ O_ 0.148911 0.647551 0.896875 -0.63271
O_ O_ 0.114445 0.575724 0.909824 -0.57982
F_ F_ 0.43066 0.830635 0.923596 -0.20885
F_ F_ 0.415494 0.816568 0.838061 -0.20885
F_ F_ 0.359515 0.805074 0.890517 -0.20885
F_ F_ 0.309756 0.939387 0.820298 -0.20885
F_ F_ 0.314601 0.856531 0.810218 -0.20885
F_ F_ 0.377601 0.90008 0.79369 -0.20885
F_ F_ 0.0612091 0.672439 0.550461 -0.20885
F_ F_ 0.0561328 0.685021 0.632548 -0.20885
F_ F_ 0.127792 0.695475 0.597579 -0.20885
F_ F_ 0.159147 0.556985 0.66431 -0.20885
F_ F_ 0.16548 0.638565 0.67238 -0.20885
F_ F_ 0.0964977 0.612828 0.690227 -0.20885
Zn Zn 0.592952 0.0844546 0.357495 0.83971
Zn Zn 0.670691 0.344053 0.0836619 0.83971
Zn Zn 0.912007 0.41225 0.158587 0.83971
Zn Zn 0.843554 0.156349 0.421716 0.83971
H_ H_ 0.677137 0.130955 0.322891 0.10394
H_ H_ 0.739056 0.0971098 0.261811 0.10394
H_ H_ 0.707957 0.443503 0.276554 0.10394
H_ H_ 0.635702 0.983652 0.329659 0.10394
H_ H_ 0.0329557 0.0924953 0.247156 0.10394
H_ H_ 0.996711 0.172566 0.201799 0.10394
H_ H_ 0.562443 0.274153 0.342608 0.10394
H_ H_ 0.590483 0.199588 0.392448 0.10394
H_ H_ 0.526317 0.438368 0.366691 0.10394
H_ H_ 0.971729 0.384757 0.367377 0.10394
H_ H_ 0.847588 0.492015 0.412273 0.10394
H_ H_ 0.588438 0.310662 0.133885 0.10394
H_ H_ 1.00247383 0.284006 0.0975988 0.10394
H_ H_ 0.525722 0.308447 0.443277 0.10394
H_ H_ 0.631763 0.302044 0.98077 0.10394
H_ H_ 0.711563 0.253364 0.102746 0.10394
H_ H_ 0.748938 0.202061 0.182153 0.10394
H_ H_ 0.712587 0.338701 0.276042 0.10394
H_ H_ 0.688993 0.386693 0.197756 0.10394
H_ H_ 0.70651 0.392743 0.445099 0.10394
H_ H_ 0.76053 0.391434 0.375374 0.10394
H_ H_ 0.888551 0.406482 0.486081 0.10394
H_ H_ 0.804517 0.395708 0.157731 0.10394
H_ H_ 0.729022 0.454046 0.179248 0.10394
H_ H_ 0.827225 0.0464738 0.275082 0.10394
H_ H_ 0.904539 0.480451 0.248943 0.10394
H_ H_ 0.519712 0.391444 0.218973 0.10394
H_ H_ 0.563146 0.317097 0.257661 0.10394
H_ H_ 0.921412 0.241107 0.227941 0.10394
H_ H_ 0.877475 0.31699 0.185337 0.10394
H_ H_ 0.968055 0.0682578 0.128692 0.10394
H_ H_ 0.514613 0.110389 0.0725806 0.10394
H_ H_ 0.645728 0.00285922 0.095448 0.10394
H_ H_ 0.951506 0.162604 0.400928 0.10394
H_ H_ 0.522276 0.198257 0.437999 0.10394
H_ H_ 0.921302 0.280065 0.0444163 0.10394
H_ H_ 0.847741 0.240414 0.499853 0.10394
H_ H_ 0.739924 0.204709 0.399368 0.10394
H_ H_ 0.693021 0.245031 0.319298 0.10394
H_ H_ 0.831626 0.238593 0.255415 0.10394
H_ H_ 0.874214 0.188036 0.326704 0.10394
H_ H_ 0.786695 0.119579 0.0568717 0.10394
H_ H_ 0.729921 0.112409 0.118071 0.10394
H_ H_ 0.608246 0.0970999 0.000469266 0.10394
C_ C_ 0.682944 0.0904854 0.311243 0.18167
C_ C_ 0.719235 0.0698141 0.278386 -0.15533
C_ C_ 0.729065 0.0174589 0.267754 0.02923
C_ C_ 0.695801 0.483524 0.274777 -0.15533
C_ C_ 0.660581 0.00780986 0.316261 0.18167
C_ C_ 0.545454 0.139594 0.281937 0.18167
C_ C_ 0.0193993 0.176893 0.240131 -0.15533
C_ C_ 0.529621 0.231244 0.277395 0.02923
C_ C_ 0.553286 0.236952 0.326447 -0.15533
C_ C_ 0.573178 0.195162 0.35343 0.18167
C_ C_ 0.511106 0.0418537 0.37731 0.69207
C_ C_ 0.965789 0.511784 0.378709 0.02923
C_ C_ 0.984778 0.459911 0.366885 -0.15533
C_ C_ 0.955397 0.423767 0.376497 -0.15533
C_ C_ 0.90497 0.43285 0.388505 0.02923
C_ C_ 0.885266 0.483716 0.398928 -0.15533
C_ C_ 0.914806 0.522618 0.39199 0.02923
C_ C_ 0.900113 0.0752477 0.396078 0.69207
C_ C_ 0.898356 0.333527 0.388527 0.69661
C_ C_ 0.578842 0.305698 0.0917727 0.18167
C_ C_ 0.533616 0.28359 0.0757543 -0.15533
C_ C_ 0.520589 0.278995 0.0221896 0.02923
C_ C_ 0.54012 0.303874 0.480454 -0.15533
C_ C_ 0.601695 0.304916 0.00907156 0.18167
C_ C_ 0.715297 0.271068 0.142852 0.18167
C_ C_ 0.733784 0.242019 0.187432 -0.15533
C_ C_ 0.733459 0.268222 0.235357 0.02923
C_ C_ 0.711572 0.319631 0.238429 -0.15533
C_ C_ 0.701995 0.346057 0.193386 0.18167
C_ C_ 0.747088 0.366746 0.0450244 0.69207
C_ C_ 0.768835 0.385198 0.503899 0.02923
C_ C_ 0.747059 0.392389 0.454681 -0.15533
C_ C_ 0.778617 0.394569 0.414421 -0.15533
C_ C_ 0.830356 0.397026 0.425279 0.02923
C_ C_ 0.850432 0.401491 0.477237 -0.15533
C_ C_ 0.822763 0.39177 0.516679 0.02923
C_ C_ 0.859472 0.38317 0.0688282 0.69207
C_ C_ 0.844904 0.38879 0.328358 0.69661
C_ C_ 0.808875 0.429078 0.181767 0.18167
C_ C_ 0.767267 0.455858 0.200073 -0.15533
C_ C_ 0.773773 0.498084 0.236818 0.02923
C_ C_ 0.822396 0.0145543 0.24782 -0.15533
C_ C_ 0.86545 0.47787 0.2306 0.18167
C_ C_ 0.993958 0.354927 0.214301 0.18167
C_ C_ 0.523811 0.318218 0.243231 -0.15533
C_ C_ 0.993507 0.268627 0.237566 0.02923
C_ C_ 0.940655 0.271985 0.221115 -0.15533
C_ C_ 0.918202 0.315643 0.199742 0.18167
C_ C_ 0.990548 0.446776 0.129761 0.69207
C_ C_ 0.521629 0.987964 0.10538 0.02923
C_ C_ 0.501642 0.0384657 0.0945034 -0.15533
C_ C_ 0.534607 0.0742422 0.0867308 -0.15533
C_ C_ 0.587183 0.064409 0.0927181 0.02923
C_ C_ 0.606785 0.0127277 0.0958216 -0.15533
C_ C_ 0.574589 0.974025 0.0986 0.02923
C_ C_ 0.606087 0.423177 0.113359 0.69207
C_ C_ 0.597088 0.161158 0.104014 0.69661
C_ C_ 0.944433 0.186929 0.436769 0.18167
C_ C_ 0.983612 0.209507 0.4639 -0.15533
C_ C_ 0.974536 0.248635 0.500439 0.02923
C_ C_ 0.930446 0.249279 0.0152179 -0.15533
C_ C_ 0.887042 0.229047 0.494314 0.18167
C_ C_ 0.758251 0.208679 0.366446 0.18167
C_ C_ 0.732019 0.233028 0.321912 -0.15533
C_ C_ 0.759885 0.243506 0.28183 0.02923
C_ C_ 0.811201 0.229193 0.287287 -0.15533
C_ C_ 0.834114 0.200853 0.327924 0.18167
C_ C_ 0.770478 0.111125 0.460128 0.69207
C_ C_ 0.731223 0.11226 0.990502 0.02923
C_ C_ 0.748273 0.114883 0.0419294 -0.15533
C_ C_ 0.71552 0.11189 0.0796846 -0.15533
C_ C_ 0.664928 0.104527 0.0661842 0.02923
C_ C_ 0.648908 0.0937269 0.013421 -0.15533
C_ C_ 0.682302 0.0960503 0.974901 0.02923
C_ C_ 0.65695 0.106862 0.437344 0.69207
C_ C_ 0.647898 0.101805 0.160535 0.69661
C_ C_ 0.870049 0.388813 0.385179 -0.30787
C_ C_ 0.623277 0.107161 0.104271 -0.30787
N_ N_ 0.649469 0.0591257 0.324223 -0.32189
N_ N_ 0.566422 0.14758 0.331885 -0.32189
N_ N_ 0.61437 0.310307 0.0600079 -0.32189
N_ N_ 0.699779 0.32055 0.147574 -0.32189
N_ N_ 0.857061 0.439463 0.196071 -0.32189
N_ N_ 0.945637 0.353187 0.192427 -0.32189
N_ N_ 0.896997 0.195017 0.453494 -0.32189
N_ N_ 0.807283 0.191059 0.366395 -0.32189
O_ O_ 0.0137613 0.0844254 0.409072 -0.63271
O_ O_ 0.545723 0.0376764 0.347189 -0.57982
O_ O_ 0.895445 0.100722 0.355285 -0.63271
O_ O_ 0.875492 0.0920961 0.434329 -0.57982
O_ O_ 0.745076 0.396065 0.0872106 -0.63271
O_ O_ 0.710854 0.336662 0.0329847 -0.57982
O_ O_ 0.860243 0.342776 0.0953937 -0.63271
O_ O_ 0.885332 0.420918 0.0894853 -0.57982
O_ O_ 0.504938 0.396358 0.112434 -0.63271
O_ O_ 0.957323 0.45839 0.164208 -0.57982
O_ O_ 0.600203 0.397944 0.153053 -0.63271
O_ O_ 0.642456 0.406371 0.0856372 -0.57982
O_ O_ 0.767657 0.0891712 0.41393 -0.63271
O_ O_ 0.797514 0.151426 0.465779 -0.57982
O_ O_ 0.663143 0.144501 0.411068 -0.63271
O_ O_ 0.620763 0.078672 0.423054 -0.57982
F_ F_ 0.934697 0.332823 0.428765 -0.20885
F_ F_ 0.924646 0.31352 0.347765 -0.20885
F_ F_ 0.866988 0.297645 0.399 -0.20885
F_ F_ 0.807343 0.426792 0.318759 -0.20885
F_ F_ 0.825498 0.343069 0.313113 -0.20885
F_ F_ 0.878647 0.38974 0.291041 -0.20885
F_ F_ 0.572181 0.174233 0.0585921 -0.20885
F_ F_ 0.560994 0.167208 0.139727 -0.20885
F_ F_ 0.628247 0.199812 0.118735 -0.20885
F_ F_ 0.679395 0.0561553 0.165594 -0.20885
F_ F_ 0.679455 0.139313 0.182788 -0.20885
F_ F_ 0.612322 0.0996772 0.195477 -0.20885
Zn Zn 0.596264 0.0757005 0.844052 0.83971
Zn Zn 0.660112 0.339862 0.582349 0.83971
Zn Zn 0.905616 0.414901 0.653797 0.83971
Zn Zn 0.846499 0.15731 0.919137 0.83971
H_ H_ 0.674454 0.124503 0.805855 0.10394
H_ H_ 0.755647 0.0963231 0.7733 0.10394
H_ H_ 0.697421 0.449701 0.778731 0.10394
H_ H_ 0.639867 0.972957 0.814109 0.10394
H_ H_ 0.0213172 0.0937734 0.755834 0.10394
H_ H_ 0.991586 0.16802 0.701965 0.10394
H_ H_ 0.545913 0.259125 0.825239 0.10394
H_ H_ 0.58325 0.18299 0.871107 0.10394
H_ H_ 0.539866 0.45533 0.874691 0.10394
H_ H_ 0.983171 0.377936 0.86421 0.10394
H_ H_ 0.855302 0.481598 0.909023 0.10394
H_ H_ 0.582995 0.299857 0.622903 0.10394
H_ H_ 0.00593807 0.270927 0.600446 0.10394
H_ H_ 0.544377 0.2928 0.951122 0.10394
H_ H_ 0.603984 0.343708 0.474802 0.10394
H_ H_ 0.725239 0.243951 0.599264 0.10394
H_ H_ 0.762251 0.19913 0.677367 0.10394
H_ H_ 0.722208 0.337588 0.767652 0.10394
H_ H_ 0.696547 0.37957 0.687551 0.10394
H_ H_ 0.72134 0.393163 0.947984 0.10394
H_ H_ 0.777156 0.376468 0.877511 0.10394
H_ H_ 0.903406 0.390879 0.985043 0.10394
H_ H_ 0.795342 0.3984 0.660603 0.10394
H_ H_ 0.723292 0.461441 0.683468 0.10394
H_ H_ 0.851214 0.0530491 0.788269 0.10394
H_ H_ 0.901138 0.498062 0.736969 0.10394
H_ H_ 0.503978 0.385044 0.716042 0.10394
H_ H_ 0.546741 0.3092 0.748775 0.10394
H_ H_ 0.910441 0.244076 0.724181 0.10394
H_ H_ 0.870278 0.317023 0.6821 0.10394
H_ H_ 0.967063 0.053508 0.615652 0.10394
H_ H_ 0.531417 0.12069 0.625949 0.10394
H_ H_ 0.648534 -0.001910999999999996 0.603573 0.10394
H_ H_ 0.950085 0.156577 0.902989 0.10394
H_ H_ 0.523708 0.20224 0.946888 0.10394
H_ H_ 0.91706 0.288711 0.542063 0.10394
H_ H_ 0.851951 0.243363 -0.004242999999999997 0.10394
H_ H_ 0.742914 0.196602 0.887414 0.10394
H_ H_ 0.696327 0.232961 0.808408 0.10394
H_ H_ 0.841306 0.234839 0.753368 0.10394
H_ H_ 0.881418 0.1931 0.829121 0.10394
H_ H_ 0.797317 0.0941822 0.560451 0.10394
H_ H_ 0.743695 0.0917528 0.629147 0.10394
H_ H_ 0.612482 0.089633 0.518324 0.10394
C_ C_ 0.689124 0.084792 0.808825 0.18167
C_ C_ 0.736542 0.0689806 0.795571 -0.15533
C_ C_ 0.753005 0.0162351 0.793564 0.02923
C_ C_ 0.6957 0.491136 0.783174 -0.15533
C_ C_ 0.667511 -0.00025799999999998047 0.812448 0.18167
C_ C_ 0.533833 0.125187 0.764887 0.18167
C_ C_ 0.000478891 0.174207 0.740993 -0.15533
C_ C_ 0.511321 0.217052 0.760864 0.02923
C_ C_ 0.541961 0.221302 0.806574 -0.15533
C_ C_ 0.56403 0.178124 0.832115 0.18167
C_ C_ 0.50983 0.0430925 0.863067 0.69207
C_ C_ 0.975244 0.506135 0.882696 0.02923
C_ C_ 0.995182 0.454728 0.872902 -0.15533
C_ C_ 0.965742 0.416264 0.878484 -0.15533
C_ C_ 0.914819 0.425236 0.894086 0.02923
C_ C_ 0.893936 0.474784 0.900882 -0.15533
C_ C_ 0.92405 0.516315 0.898834 0.02923
C_ C_ 0.899803 0.0678112 0.888746 0.69207
C_ C_ 0.904133 0.327255 0.887949 0.69661
C_ C_ 0.574974 0.2948 0.582661 0.18167
C_ C_ 0.528162 0.275193 0.56433 -0.15533
C_ C_ 0.512899 0.278336 0.511173 0.02923
C_ C_ 0.552283 0.295435 0.990589 -0.15533
C_ C_ 0.584421 0.322895 0.50025 0.18167
C_ C_ 0.72525 0.263069 0.635928 0.18167
C_ C_ 0.747953 0.239094 0.679746 -0.15533
C_ C_ 0.743359 0.263485 0.72768 0.02923
C_ C_ 0.724732 0.31538 0.731526 -0.15533
C_ C_ 0.706919 0.339045 0.685904 0.18167
C_ C_ 0.735402 0.372132 0.543299 0.69207
C_ C_ 0.781054 0.375018 1.00641879 0.02923
C_ C_ 0.759928 0.380228 0.955243 -0.15533
C_ C_ 0.790458 0.376544 0.916191 -0.15533
C_ C_ 0.842308 0.384496 0.928211 0.02923
C_ C_ 0.863141 0.387437 0.977693 -0.15533
C_ C_ 0.833818 0.385624 0.0173279 0.02923
C_ C_ 0.849128 0.389804 0.570811 0.69207
C_ C_ 0.851513 0.384681 0.829202 0.69661
C_ C_ 0.803569 0.436253 0.676553 0.18167
C_ C_ 0.76341 0.465116 0.698482 -0.15533
C_ C_ 0.773501 0.498701 0.739725 0.02923
C_ C_ 0.842148 0.0188339 0.762983 -0.15533
C_ C_ 0.863204 0.485832 0.726299 0.18167
C_ C_ 0.989503 0.35188 0.702269 0.18167
C_ C_ 0.508861 0.30695 0.736017 -0.15533
C_ C_ 0.98466 0.267289 0.730297 0.02923
C_ C_ 0.933436 0.271838 0.714379 -0.15533
C_ C_ 0.91049 0.314831 0.690455 0.18167
C_ C_ 0.978264 0.454987 0.621957 0.69207
C_ C_ 0.525225 0.994456 0.622724 0.02923
C_ C_ 0.509998 0.0475575 0.62923 -0.15533
C_ C_ 0.543755 0.0812484 0.621747 -0.15533
C_ C_ 0.594976 0.0647761 0.612872 0.02923
C_ C_ 0.609743 0.0123117 0.610628 -0.15533
C_ C_ 0.576286 0.977676 0.614091 0.02923
C_ C_ 0.598411 0.415969 0.614841 0.69207
C_ C_ 0.618342 0.158767 0.613579 0.69661
C_ C_ 0.945181 0.181742 0.933886 0.18167
C_ C_ 0.987122 0.201366 0.961231 -0.15533
C_ C_ 0.980199 0.238452 0.00126545 0.02923
C_ C_ 0.926399 0.257092 0.517883 -0.15533
C_ C_ 0.890146 0.227202 0.988749 0.18167
C_ C_ 0.761049 0.202584 0.856686 0.18167
C_ C_ 0.737206 0.229725 0.814371 -0.15533
C_ C_ 0.765583 0.236966 0.773593 0.02923
C_ C_ 0.816968 0.220827 0.778917 -0.15533
C_ C_ 0.840434 0.194363 0.821426 0.18167
C_ C_ 0.766905 0.123208 0.954133 0.69207
C_ C_ 0.735525 0.103274 0.499453 0.02923
C_ C_ 0.756117 0.0973873 0.550866 -0.15533
C_ C_ 0.7258 0.0960963 0.591786 -0.15533
C_ C_ 0.6726 0.0906339 0.579238 0.02923
C_ C_ 0.653473 0.0884921 0.527853 -0.15533
C_ C_ 0.683021 0.10112 0.489893 0.02923
C_ C_ 0.660903 0.10023 0.919815 0.69207
C_ C_ 0.659415 0.094099 0.676441 0.69661
C_ C_ 0.878258 0.382252 0.886119 -0.30787
C_ C_ 0.63736 0.100407 0.621311 -0.30787
N_ N_ 0.656789 0.0505639 0.819767 -0.32189
N_ N_ 0.564104 0.130629 0.809971 -0.32189
N_ N_ 0.601959 0.31444 0.550262 -0.32189
N_ N_ 0.702747 0.31214 0.639979 -0.32189
N_ N_ 0.852549 0.444045 0.69277 -0.32189
N_ N_ 0.938705 0.354451 0.685256 -0.32189
N_ N_ 0.898184 0.196655 0.947144 -0.32189
N_ N_ 0.811577 0.184389 0.858666 -0.32189
O_ O_ 0.0116439 0.0821508 0.913827 -0.63271
O_ O_ 0.549156 0.0267294 0.837325 -0.57982
O_ O_ 0.906601 0.0979071 0.85132 -0.63271
O_ O_ 0.871583 0.08802 0.925551 -0.57982
O_ O_ 0.734848 0.399615 0.587169 -0.63271
O_ O_ 0.698048 0.342752 0.529931 -0.57982
O_ O_ 0.848991 0.348007 0.598452 -0.63271
O_ O_ 0.87565 0.425938 0.589312 -0.57982
O_ O_ 0.480818 0.398775 0.604726 -0.63271
O_ O_ 0.944948 0.464329 0.655664 -0.57982
O_ O_ 0.598461 0.3871 0.65307 -0.63271
O_ O_ 0.629858 0.401514 0.581466 -0.57982
O_ O_ 0.769895 0.0974241 0.910852 -0.63271
O_ O_ 0.797892 0.159246 0.96397 -0.57982
O_ O_ 0.669594 0.139893 0.896475 -0.63271
O_ O_ 0.618412 0.0803055 0.907489 -0.57982
F_ F_ 0.940945 0.32359 0.928769 -0.20885
F_ F_ 0.931608 0.308559 0.849393 -0.20885
F_ F_ 0.864895 0.292373 0.88757 -0.20885
F_ F_ 0.81663 0.427719 0.821899 -0.20885
F_ F_ 0.827889 0.341312 0.812445 -0.20885
F_ F_ 0.889064 0.384526 0.79438 -0.20885
F_ F_ 0.586481 0.168754 0.571706 -0.20885
F_ F_ 0.591903 0.185342 0.651139 -0.20885
F_ F_ 0.65688 0.187145 0.610273 -0.20885
F_ F_ 0.688178 0.0474696 0.683296 -0.20885
F_ F_ 0.694026 0.129898 0.689542 -0.20885
F_ F_ 0.621273 0.101087 0.711083 -0.20885
Zn Zn 0.581722 0.577384 0.339008 0.83971
Zn Zn 0.660998 0.838319 0.0787365 0.83971
Zn Zn 0.909164 0.927591 0.152234 0.83971
Zn Zn 0.831356 0.659957 0.41719 0.83971
H_ H_ 0.668475 0.628048 0.308043 0.10394
H_ H_ 0.745294 0.593065 0.263358 0.10394
H_ H_ 0.712332 0.946379 0.29128 0.10394
H_ H_ 0.631147 0.475407 0.316173 0.10394
H_ H_ 0.0299703 0.602948 0.241149 0.10394
H_ H_ 0.983388 0.680466 0.19853 0.10394
H_ H_ 0.538828 0.763048 0.316411 0.10394
H_ H_ 0.5801 0.692028 0.361618 0.10394
H_ H_ 0.534585 0.941084 0.379159 0.10394
H_ H_ 0.970489 0.877299 0.38956 0.10394
H_ H_ 0.854842 0.996648 0.409731 0.10394
H_ H_ 0.577472 0.80616 0.131618 0.10394
H_ H_ 1.014323 0.759308 0.109144 0.10394
H_ H_ 0.538718 0.776398 0.443067 0.10394
H_ H_ 0.610443 0.830476 0.984228 0.10394
H_ H_ 0.715994 0.735245 0.0944157 0.10394
H_ H_ 0.745715 0.693992 0.175821 0.10394
H_ H_ 0.711669 0.832199 0.259409 0.10394
H_ H_ 0.684898 0.873537 0.177409 0.10394
H_ H_ 0.709618 0.910489 0.466906 0.10394
H_ H_ 0.755577 0.909723 0.389931 0.10394
H_ H_ 0.899618 0.898575 0.491373 0.10394
H_ H_ 0.806524 0.891386 0.157617 0.10394
H_ H_ 0.72868 0.94093 0.190999 0.10394
H_ H_ 0.829982 0.536147 0.282178 0.10394
H_ H_ 0.898416 1.00548613 0.226321 0.10394
H_ H_ 0.507088 0.874819 0.18055 0.10394
H_ H_ 0.54776 0.796668 0.229357 0.10394
H_ H_ 0.903956 0.759463 0.225011 0.10394
H_ H_ 0.865721 0.838381 0.193922 0.10394
H_ H_ 0.963759 0.54768 0.119451 0.10394
H_ H_ 0.506702 0.61043 0.0849495 0.10394
H_ H_ 0.644708 0.506933 0.0853312 0.10394
H_ H_ 0.930113 0.672963 0.389574 0.10394
H_ H_ 0.513454 0.689243 0.448244 0.10394
H_ H_ 0.919053 0.783896 0.043317 0.10394
H_ H_ 0.837034 0.73965 0.498471 0.10394
H_ H_ 0.723587 0.700383 0.381556 0.10394
H_ H_ 0.686968 0.74571 0.306214 0.10394
H_ H_ 0.829852 0.715871 0.239261 0.10394
H_ H_ 0.868236 0.680194 0.322747 0.10394
H_ H_ 0.777125 0.635534 0.06243 0.10394
H_ H_ 0.719241 0.623273 0.123495 0.10394
H_ H_ 0.610728 0.575946 0.00156518 0.10394
C_ C_ 0.674353 0.588681 0.296285 0.18167
C_ C_ 0.718492 0.569734 0.275414 -0.15533
C_ C_ 0.731086 0.517981 0.267772 0.02923
C_ C_ 0.697023 0.985873 0.285298 -0.15533
C_ C_ 0.653501 0.502665 0.300502 0.18167
C_ C_ 0.515121 0.626378 0.264628 0.18167
C_ C_ 0.00165783 0.682244 0.235987 -0.15533
C_ C_ 0.499174 0.719505 0.253416 0.02923
C_ C_ 0.528862 0.726256 0.302343 -0.15533
C_ C_ 0.552185 0.683895 0.328462 0.18167
C_ C_ 0.501566 0.539991 0.36862 0.69207
C_ C_ 0.974317 0.00625945 0.381228 0.02923
C_ C_ -0.010665999999999953 0.954476 0.377342 -0.15533
C_ C_ 0.957891 0.918474 0.390695 -0.15533
C_ C_ 0.908338 0.934529 0.394449 0.02923
C_ C_ 0.894175 0.985123 0.405461 -0.15533
C_ C_ 0.925887 0.022986 0.398026 0.02923
C_ C_ 0.887915 0.574275 0.38755 0.69207
C_ C_ 0.880937 0.843283 0.37734 0.69661
C_ C_ 0.571903 0.795972 0.0900628 0.18167
C_ C_ 0.523673 0.780908 0.0683524 -0.15533
C_ C_ 0.514999 0.768654 0.0161836 0.02923
C_ C_ 0.549322 0.782043 0.485044 -0.15533
C_ C_ 0.594256 0.804082 0.00577602 0.18167
C_ C_ 0.715988 0.756536 0.130236 0.18167
C_ C_ 0.732132 0.733019 0.176567 -0.15533
C_ C_ 0.732737 0.759239 0.223034 0.02923
C_ C_ 0.714692 0.811204 0.223449 -0.15533
C_ C_ 0.694299 0.833263 0.178033 0.18167
C_ C_ 0.748046 0.852176 0.0454749 0.69207
C_ C_ 0.776044 0.887885 0.516236 0.02923
C_ C_ 0.751216 0.900693 0.468628 -0.15533
C_ C_ 0.778076 0.903201 0.426478 -0.15533
C_ C_ 0.831964 0.903431 0.4322 0.02923
C_ C_ 0.856582 0.89968 0.482715 -0.15533
C_ C_ 0.827997 0.894148 0.523871 0.02923
C_ C_ 0.857793 0.878912 0.0719844 0.69207
C_ C_ 0.836193 0.913684 0.335343 0.69661
C_ C_ 0.810689 0.927099 0.182029 0.18167
C_ C_ 0.767491 0.953991 0.202286 -0.15533
C_ C_ 0.773186 0.99616 0.239247 0.02923
C_ C_ 0.824303 0.509946 0.249403 -0.15533
C_ C_ 0.859738 0.993969 0.215708 0.18167
C_ C_ 0.989053 0.859621 0.198977 0.18167
C_ C_ 0.506683 0.803563 0.219223 -0.15533
C_ C_ 0.981113 0.776722 0.229947 0.02923
C_ C_ 0.926909 0.788959 0.224759 -0.15533
C_ C_ 0.905821 0.834663 0.204157 0.18167
C_ C_ 0.985255 0.96808 0.122793 0.69207
C_ C_ 0.523683 0.483226 0.106547 0.02923
C_ C_ 0.499587 0.532325 0.0984353 -0.15533
C_ C_ 0.527151 0.573449 0.0915235 -0.15533
C_ C_ 0.579157 0.565827 0.0916971 0.02923
C_ C_ 0.602715 0.514401 0.0862013 -0.15533
C_ C_ 0.577198 0.473715 0.101674 0.02923
C_ C_ 0.601066 0.922827 0.103631 0.69207
C_ C_ 0.589372 0.662726 0.100694 0.69661
C_ C_ 0.925313 0.698146 0.421626 0.18167
C_ C_ 0.969093 0.71641 0.448322 -0.15533
C_ C_ 0.96291 0.753556 0.488622 0.02923
C_ C_ 0.927133 0.755606 1.0123465 -0.15533
C_ C_ 0.872903 0.736298 0.483563 0.18167
C_ C_ 0.748288 0.703104 0.351309 0.18167
C_ C_ 0.728651 0.733943 0.309906 -0.15533
C_ C_ 0.757722 0.734913 0.268698 0.02923
C_ C_ 0.807753 0.71785 0.274099 -0.15533
C_ C_ 0.829143 0.694805 0.318969 0.18167
C_ C_ 0.749532 0.626397 0.450877 0.69207
C_ C_ 0.723068 0.626399 0.994652 0.02923
C_ C_ 0.739039 0.626431 0.0479424 -0.15533
C_ C_ 0.706471 0.615678 0.0840879 -0.15533
C_ C_ 0.658351 0.60047 0.0688788 0.02923
C_ C_ 0.645557 0.594574 0.015581 -0.15533
C_ C_ 0.673965 0.61249 0.979544 0.02923
C_ C_ 0.634903 0.61028 0.428976 0.69207
C_ C_ 0.63166 0.599376 0.161532 0.69661
C_ C_ 0.864414 0.899899 0.386553 -0.30787
C_ C_ 0.614624 0.606837 0.104646 -0.30787
N_ N_ 0.643043 0.554796 0.309787 -0.32189
N_ N_ 0.547776 0.635837 0.306938 -0.32189
N_ N_ 0.606268 0.80617 0.0577705 -0.32189
N_ N_ 0.693217 0.805528 0.133692 -0.32189
N_ N_ 0.856212 0.949197 0.187992 -0.32189
N_ N_ 0.935615 0.869314 0.189981 -0.32189
N_ N_ 0.881077 0.703507 0.442791 -0.32189
N_ N_ 0.798569 0.683477 0.354725 -0.32189
O_ O_ -0.0046960000000000335 0.596854 0.395151 -0.63271
O_ O_ 0.536948 0.529462 0.33638 -0.57982
O_ O_ 0.886044 0.59643 0.34273 -0.63271
O_ O_ 0.864276 0.596394 0.423069 -0.57982
O_ O_ 0.746376 0.881151 0.0871167 -0.63271
O_ O_ 0.708546 0.826634 0.0330424 -0.57982
O_ O_ 0.867344 0.838633 0.0999131 -0.63271
O_ O_ 0.878155 0.919155 0.0860589 -0.57982
O_ O_ 0.495798 0.906263 0.0847978 -0.63271
O_ O_ 0.947306 0.980876 0.151086 -0.57982
O_ O_ 0.598851 0.901221 0.147443 -0.63271
O_ O_ 0.634744 0.905512 0.0733179 -0.57982
O_ O_ 0.750436 0.604201 0.404498 -0.63271
O_ O_ 0.78133 0.661105 0.461736 -0.57982
O_ O_ 0.645753 0.648545 0.403912 -0.63271
O_ O_ 0.606655 0.575831 0.405975 -0.57982
F_ F_ 0.918955 0.826623 0.413863 -0.20885
F_ F_ 0.900858 0.831417 0.328987 -0.20885
F_ F_ 0.839672 0.813872 0.374075 -0.20885
F_ F_ 0.80844 0.96135 0.339854 -0.20885
F_ F_ 0.798988 0.87923 0.31652 -0.20885
F_ F_ 0.867114 0.916247 0.29539 -0.20885
F_ F_ 0.565101 0.666906 0.0520641 -0.20885
F_ F_ 0.555272 0.677961 0.13543 -0.20885
F_ F_ 0.623737 0.698814 0.102085 -0.20885
F_ F_ 0.663334 0.555224 0.168959 -0.20885
F_ F_ 0.654645 0.640795 0.18462 -0.20885
F_ F_ 0.593197 0.596365 0.192762 -0.20885
Zn Zn 0.586767 0.591835 0.845088 0.83971
Zn Zn 0.657345 0.843114 0.585167 0.83971
Zn Zn 0.918322 0.921772 0.659491 0.83971
Zn Zn 0.843779 0.656655 0.914762 0.83971
H_ H_ 0.67971 0.636956 0.811641 0.10394
H_ H_ 0.748099 0.601656 0.773269 0.10394
H_ H_ 0.729399 0.941631 0.805037 0.10394
H_ H_ 0.622413 0.494111 0.807371 0.10394
H_ H_ 0.0281946 0.608604 0.752308 0.10394
H_ H_ 0.98297 0.686954 0.716411 0.10394
H_ H_ 0.533887 0.77742 0.8329 0.10394
H_ H_ 0.578121 0.706212 0.874949 0.10394
H_ H_ 0.527856 0.941955 0.863981 0.10394
H_ H_ 0.992278 0.878163 0.889062 0.10394
H_ H_ 0.856313 0.983375 0.89607 0.10394
H_ H_ 0.583823 0.804435 0.632715 0.10394
H_ H_ -0.007673999999999959 0.770763 0.588934 0.10394
H_ H_ 0.53316 0.793871 0.945607 0.10394
H_ H_ 0.617173 0.816891 0.480748 0.10394
H_ H_ 0.697735 0.743719 0.601459 0.10394
H_ H_ 0.743265 0.695633 0.672925 0.10394
H_ H_ 0.742916 0.836081 0.763494 0.10394
H_ H_ 0.693306 0.880992 0.692706 0.10394
H_ H_ 0.732345 0.832717 0.941675 0.10394
H_ H_ 0.775815 0.860359 0.875523 0.10394
H_ H_ 0.897036 0.902183 0.991421 0.10394
H_ H_ 0.816023 0.905248 0.668725 0.10394
H_ H_ 0.755812 0.939528 0.720555 0.10394
H_ H_ 0.829505 0.545542 0.771826 0.10394
H_ H_ 0.916522 1.0125009 0.736691 0.10394
H_ H_ 0.506713 0.883662 0.682688 0.10394
H_ H_ 0.552941 0.812567 0.732024 0.10394
H_ H_ 0.915277 0.768965 0.752813 0.10394
H_ H_ 0.877465 0.828357 0.692674 0.10394
H_ H_ 0.957047 0.556681 0.634932 0.10394
H_ H_ 0.507971 0.607231 0.602234 0.10394
H_ H_ 0.642157 0.498924 0.600554 0.10394
H_ H_ 0.953078 0.656852 0.906084 0.10394
H_ H_ 0.510279 0.683844 0.952252 0.10394
H_ H_ 0.909921 0.787512 0.540761 0.10394
H_ H_ 0.845721 0.733023 1.000129885 0.10394
H_ H_ 0.739541 0.693737 0.879336 0.10394
H_ H_ 0.705081 0.747954 0.805857 0.10394
H_ H_ 0.84615 0.722356 0.743847 0.10394
H_ H_ 0.882793 0.666049 0.812463 0.10394
H_ H_ 0.768651 0.629356 0.555273 0.10394
H_ H_ 0.724828 0.605675 0.620081 0.10394
H_ H_ 0.597296 0.579559 0.508643 0.10394
C_ C_ 0.682945 0.595792 0.806138 0.18167
C_ C_ 0.724772 0.574528 0.781054 -0.15533
C_ C_ 0.735178 0.52046 0.77292 0.02923
C_ C_ 0.717714 0.982092 0.802422 -0.15533
C_ C_ 0.652126 0.515474 0.803039 0.18167
C_ C_ 0.526354 0.643488 0.771135 0.18167
C_ C_ 0.00857127 0.690056 0.7506 -0.15533
C_ C_ 0.507184 0.735312 0.765075 0.02923
C_ C_ 0.528221 0.740254 0.816736 -0.15533
C_ C_ 0.555344 0.700154 0.839915 0.18167
C_ C_ 0.503024 0.556395 0.865889 0.69207
C_ C_ 0.978076 0.00497771 0.887418 0.02923
C_ C_ -0.0019289999999999585 0.954868 0.886619 -0.15533
C_ C_ 0.970299 0.914008 0.888397 -0.15533
C_ C_ 0.916245 0.922302 0.891839 0.02923
C_ C_ 0.896277 0.974449 0.891742 -0.15533
C_ C_ 0.926473 0.0149919 0.891485 0.02923
C_ C_ 0.897815 0.567291 0.890705 0.69207
C_ C_ 0.911786 0.822312 0.887418 0.69661
C_ C_ 0.572487 0.796767 0.59068 0.18167
C_ C_ 0.523557 0.782988 0.57251 -0.15533
C_ C_ 0.512496 0.773153 0.518653 0.02923
C_ C_ 0.547997 0.786957 0.984241 -0.15533
C_ C_ 0.593949 0.803306 0.505473 0.18167
C_ C_ 0.712417 0.764223 0.635929 0.18167
C_ C_ 0.737632 0.737417 0.675575 -0.15533
C_ C_ 0.748564 0.762475 0.724461 0.02923
C_ C_ 0.732833 0.815719 0.728116 -0.15533
C_ C_ 0.708123 0.841485 0.685683 0.18167
C_ C_ 0.739618 0.875209 0.555893 0.69207
C_ C_ 0.785678 0.857663 1.00604977 0.02923
C_ C_ 0.767032 0.848678 0.95476 -0.15533
C_ C_ 0.792664 0.865511 0.915087 -0.15533
C_ C_ 0.843001 0.882863 0.926064 0.02923
C_ C_ 0.861293 0.890325 0.979182 -0.15533
C_ C_ 0.834417 0.873787 0.0184041 0.02923
C_ C_ 0.854848 0.893803 0.577751 0.69207
C_ C_ 0.855164 0.87985 0.8273 0.69661
C_ C_ 0.823466 0.941956 0.691716 0.18167
C_ C_ 0.786909 0.959076 0.723405 -0.15533
C_ C_ 0.795148 -0.002411000000000052 0.762183 0.02923
C_ C_ 0.822631 0.513106 0.749102 -0.15533
C_ C_ 0.880455 0.995955 0.734928 0.18167
C_ C_ 0.998113 0.857167 0.705258 0.18167
C_ C_ 0.509429 0.816822 0.725079 -0.15533
C_ C_ 0.989984 0.783545 0.752319 0.02923
C_ C_ 0.937654 0.791416 0.738542 -0.15533
C_ C_ 0.91537 0.829196 0.708899 0.18167
C_ C_ 0.992675 0.955377 0.627688 0.69207
C_ C_ 0.521545 0.480089 0.623511 0.02923
C_ C_ 0.500214 0.531717 0.620614 -0.15533
C_ C_ 0.52983 0.570026 0.610688 -0.15533
C_ C_ 0.58258 0.557465 0.602785 0.02923
C_ C_ 0.603201 0.50667 0.606255 -0.15533
C_ C_ 0.574119 0.467352 0.615942 0.02923
C_ C_ 0.594318 0.921334 0.612496 0.69207
C_ C_ 0.590475 0.65552 0.605383 0.69661
C_ C_ 0.944544 0.683902 0.935638 0.18167
C_ C_ 0.985519 0.700085 0.967887 -0.15533
C_ C_ 0.976548 0.73942 1.0035935 0.02923
C_ C_ 0.914418 0.760808 0.506272 -0.15533
C_ C_ 0.886061 0.726751 0.990502 0.18167
C_ C_ 0.762758 0.699411 0.846087 0.18167
C_ C_ 0.742429 0.729248 0.806785 -0.15533
C_ C_ 0.772006 0.733077 0.767613 0.02923
C_ C_ 0.823646 0.714015 0.771453 -0.15533
C_ C_ 0.8442 0.68475 0.812424 0.18167
C_ C_ 0.763791 0.624109 0.957961 0.69207
C_ C_ 0.716049 0.61187 0.490533 0.02923
C_ C_ 0.736469 0.61432 0.542096 -0.15533
C_ C_ 0.706669 0.605514 0.580443 -0.15533
C_ C_ 0.656578 0.593842 0.566471 0.02923
C_ C_ 0.636261 0.58773 0.516196 -0.15533
C_ C_ 0.664624 0.5976 0.477134 0.02923
C_ C_ 0.649446 0.621953 0.928422 0.69207
C_ C_ 0.639625 0.598882 0.664518 0.69661
C_ C_ 0.881945 0.87765 0.88382 -0.30787
C_ C_ 0.617261 0.600332 0.608574 -0.30787
N_ N_ 0.645784 0.568044 0.812414 -0.32189
N_ N_ 0.558042 0.65422 0.814085 -0.32189
N_ N_ 0.606263 0.804129 0.556774 -0.32189
N_ N_ 0.695452 0.814749 0.642259 -0.32189
N_ N_ 0.870117 0.956663 0.701065 -0.32189
N_ N_ 0.946509 0.861911 0.69409 -0.32189
N_ N_ 0.895469 0.693287 0.94842 -0.32189
N_ N_ 0.813321 0.678005 0.8477 -0.32189
O_ O_ 1.0119464 0.585221 0.908212 -0.63271
O_ O_ 0.543299 0.546527 0.84146 -0.57982
O_ O_ 0.901621 0.588219 0.845003 -0.63271
O_ O_ 0.869367 0.591102 0.925162 -0.57982
O_ O_ 0.745987 0.893814 0.603783 -0.63271
O_ O_ 0.701757 0.846208 0.541388 -0.57982
O_ O_ 0.858558 0.853473 0.602449 -0.63271
O_ O_ 0.884783 0.928075 0.595829 -0.57982
O_ O_ 0.487988 0.912445 0.593873 -0.63271
O_ O_ 0.9628 0.96685 0.663664 -0.57982
O_ O_ 0.59478 0.899648 0.655995 -0.63271
O_ O_ 0.628322 0.904848 0.581095 -0.57982
O_ O_ 0.763336 0.59064 0.919932 -0.63271
O_ O_ 0.796795 0.65691 0.961907 -0.57982
O_ O_ 0.654386 0.664126 0.908424 -0.63271
O_ O_ 0.616439 0.592506 0.907613 -0.57982
F_ F_ 0.945426 0.821224 0.930834 -0.20885
F_ F_ 0.938824 0.813123 0.845149 -0.20885
F_ F_ 0.879359 0.785719 0.885348 -0.20885
F_ F_ 0.81886 0.921509 0.828276 -0.20885
F_ F_ 0.829167 0.839093 0.812658 -0.20885
F_ F_ 0.888602 0.889226 0.793172 -0.20885
F_ F_ 0.566154 0.656806 0.557798 -0.20885
F_ F_ 0.561475 0.673662 0.644285 -0.20885
F_ F_ 0.624508 0.690139 0.602578 -0.20885
F_ F_ 0.672902 0.557572 0.666465 -0.20885
F_ F_ 0.666839 0.637579 0.681553 -0.20885
F_ F_ 0.605229 0.597181 0.699185 -0.20885
