_cell_length_a 26.508
_cell_length_b 26.37200000322088
_cell_length_c 26.311999743092066
_cell_angle_alpha 93.74100058972084
_cell_angle_beta 96.04100104955006
_cell_angle_gamma 83.6869992558723
_symmetry_space_group_name_H-M         'P 1'
_symmetry_Int_Tables_number            1
loop_
_symmetry_equiv_pos_as_xyz
   'x, y, z'
                         
loop_
_atom_site_label
_atom_site_type_symbol
_atom_site_fract_x 
_atom_site_fract_y
_atom_site_fract_z
_atom_site_charge
Zn Zn 0.0869784 0.0835465 0.341302 0.83971
Zn Zn 0.16376 0.343635 0.0813863 0.83971
Zn Zn 0.414136 0.416424 0.157166 0.83971
Zn Zn 0.342223 0.159759 0.415359 0.83971
H_ H_ 0.172424 0.13875 0.309975 0.10394
H_ H_ 0.238133 0.106917 0.257115 0.10394
H_ H_ 0.199912 0.43952 0.273936 0.10394
H_ H_ 0.133578 0.987154 0.316185 0.10394
H_ H_ 0.529646 0.0966701 0.255341 0.10394
H_ H_ 0.511005 0.170737 0.199914 0.10394
H_ H_ 0.035737 0.267075 0.328959 0.10394
H_ H_ 0.0751821 0.189022 0.371948 0.10394
H_ H_ 0.0288858 0.43979 0.34568 0.10394
H_ H_ 0.476381 0.382324 0.370859 0.10394
H_ H_ 0.362895 0.489737 0.426377 0.10394
H_ H_ 0.0730057 0.309344 0.128352 0.10394
H_ H_ 0.506189 0.267748 0.0944196 0.10394
H_ H_ 0.054181 0.267798 0.431238 0.10394
H_ H_ 0.125764 0.31091 0.983146 0.10394
H_ H_ 0.222371 0.242106 0.0947345 0.10394
H_ H_ 0.262912 0.196646 0.168093 0.10394
H_ H_ 0.220388 0.333437 0.26224 0.10394
H_ H_ 0.183568 0.375481 0.18677 0.10394
H_ H_ 0.219247 0.351758 0.440827 0.10394
H_ H_ 0.266059 0.373562 0.372319 0.10394
H_ H_ 0.393355 0.407242 0.484542 0.10394
H_ H_ 0.31113 0.396315 0.161562 0.10394
H_ H_ 0.23273 0.440812 0.188759 0.10394
H_ H_ 0.329929 0.0556949 0.279734 0.10394
H_ H_ 0.398674 0.508668 0.23091 0.10394
H_ H_ 0.00764165 0.385698 0.20129 0.10394
H_ H_ 0.0525416 0.304767 0.228909 0.10394
H_ H_ 0.419907 0.260712 0.256253 0.10394
H_ H_ 0.378258 0.327656 0.200895 0.10394
H_ H_ 0.46229 0.0501052 0.107957 0.10394
H_ H_ 0.00425118 0.119801 0.101007 0.10394
H_ H_ 0.137159 0.0113977 0.0870493 0.10394
H_ H_ 0.443718 0.169531 0.392238 0.10394
H_ H_ 0.0131115 0.193123 0.435471 0.10394
H_ H_ 0.424 0.27318 0.0489072 0.10394
H_ H_ 0.343583 0.234572 0.500268 0.10394
H_ H_ 0.239958 0.203992 0.384755 0.10394
H_ H_ 0.197435 0.245181 0.307342 0.10394
H_ H_ 0.341258 0.222898 0.2419 0.10394
H_ H_ 0.37935 0.18328 0.316664 0.10394
H_ H_ 0.282665 0.105803 0.0492823 0.10394
H_ H_ 0.227315 0.0925144 0.112711 0.10394
H_ H_ 0.0969193 0.103788 0.0014499999999999513 0.10394
C_ C_ 0.179305 0.0963413 0.301843 0.18167
C_ C_ 0.221605 0.0788295 0.276092 -0.15533
C_ C_ 0.23008 0.0264383 0.263446 0.02923
C_ C_ 0.19528 0.481803 0.283871 -0.15533
C_ C_ 0.157325 0.0132122 0.305278 0.18167
C_ C_ 0.0318272 0.134155 0.263622 0.18167
C_ C_ 0.518212 0.178061 0.241734 -0.15533
C_ C_ 0.00911608 0.225278 0.258783 0.02923
C_ C_ 0.0359873 0.231923 0.308615 -0.15533
C_ C_ 0.0608891 0.186767 0.33314 0.18167
C_ C_ 0.0022586 0.0502279 0.361971 0.69207
C_ C_ 0.475635 0.510129 0.379313 0.02923
C_ C_ 0.489652 0.457321 0.367601 -0.15533
C_ C_ 0.459635 0.420456 0.374363 -0.15533
C_ C_ 0.411141 0.430604 0.389165 0.02923
C_ C_ 0.397368 0.482339 0.406514 -0.15533
C_ C_ 0.423852 0.522903 0.394523 0.02923
C_ C_ 0.398839 0.0734696 0.392899 0.69207
C_ C_ 0.401979 0.330445 0.38439 0.69661
C_ C_ 0.0689834 0.298736 0.0868334 0.18167
C_ C_ 0.0223504 0.285224 0.064177 -0.15533
C_ C_ 0.0194497 0.267837 0.0132772 0.02923
C_ C_ 0.0573639 0.273226 0.474381 -0.15533
C_ C_ 0.0982588 0.303615 0.00585706 0.18167
C_ C_ 0.222353 0.261762 0.13277 0.18167
C_ C_ 0.242294 0.23606 0.173103 -0.15533
C_ C_ 0.244166 0.260604 0.22187 0.02923
C_ C_ 0.225548 0.312834 0.225819 -0.15533
C_ C_ 0.20237 0.336753 0.183445 0.18167
C_ C_ 0.243954 0.367705 0.0453737 0.69207
C_ C_ 0.273782 0.374976 0.502835 0.02923
C_ C_ 0.256403 0.361831 0.450085 -0.15533
C_ C_ 0.28581 0.375553 0.411883 -0.15533
C_ C_ 0.33558 0.389661 0.422868 0.02923
C_ C_ 0.35183 0.401819 0.476625 -0.15533
C_ C_ 0.323998 0.387422 0.515287 0.02923
C_ C_ 0.357824 0.378226 0.0747937 0.69207
C_ C_ 0.351256 0.392434 0.325428 0.69661
C_ C_ 0.312121 0.431396 0.1807 0.18167
C_ C_ 0.270553 0.454109 0.201415 -0.15533
C_ C_ 0.274897 0.492909 0.237693 0.02923
C_ C_ 0.327118 0.0220076 0.252764 -0.15533
C_ C_ 0.36273 0.493163 0.223124 0.18167
C_ C_ 0.499122 0.351052 0.198652 0.18167
C_ C_ 0.0138236 0.310586 0.220937 -0.15533
C_ C_ 0.495053 0.272494 0.240275 0.02923
C_ C_ 0.44138 0.283693 0.234871 -0.15533
C_ C_ 0.418849 0.323545 0.207451 0.18167
C_ C_ 0.486936 0.456548 0.11955 0.69207
C_ C_ 0.0157966 0.991216 0.109112 0.02923
C_ C_ -0.005693999999999977 0.0423315 0.107403 -0.15533
C_ C_ 0.0233092 0.0803591 0.0973416 -0.15533
C_ C_ 0.0775679 0.0689062 0.0957375 0.02923
C_ C_ 0.0968519 0.0200921 0.0946102 -0.15533
C_ C_ 0.0693242 0.98035 0.106584 0.02923
C_ C_ 0.0960582 0.421434 0.106521 0.69207
C_ C_ 0.0928078 0.16669 0.101075 0.69661
C_ C_ 0.439911 0.183851 0.430894 0.18167
C_ C_ 0.479259 0.209377 0.457318 -0.15533
C_ C_ 0.473237 0.242181 0.498892 0.02923
C_ C_ 0.430661 0.247694 0.0183977 -0.15533
C_ C_ 0.382938 0.226974 0.490663 0.18167
C_ C_ 0.261582 0.205837 0.353235 0.18167
C_ C_ 0.236529 0.230592 0.310137 -0.15533
C_ C_ 0.266104 0.233951 0.267096 0.02923
C_ C_ 0.316214 0.215346 0.271495 -0.15533
C_ C_ 0.337982 0.18831 0.313912 0.18167
C_ C_ 0.262755 0.11977 0.4501 0.69207
C_ C_ 0.22078 0.109785 0.984925 0.02923
C_ C_ 0.241163 0.106014 0.038212 -0.15533
C_ C_ 0.208652 0.0973426 0.0758493 -0.15533
C_ C_ 0.154329 0.103268 0.0641669 0.02923
C_ C_ 0.136872 0.103946 0.0123278 -0.15533
C_ C_ 0.167842 0.108231 0.973006 0.02923
C_ C_ 0.15095 0.104192 0.421928 0.69207
C_ C_ 0.142533 0.110231 0.160269 0.69661
C_ C_ 0.375871 0.385977 0.382049 -0.30787
C_ C_ 0.116296 0.11038 0.10418 -0.30787
N_ N_ 0.143704 0.0631052 0.306939 -0.32189
N_ N_ 0.0543625 0.140553 0.312735 -0.32189
N_ N_ 0.106609 0.306804 0.0570471 -0.32189
N_ N_ 0.195983 0.309009 0.138065 -0.32189
N_ N_ 0.358028 0.451451 0.189003 -0.32189
N_ N_ 0.4471 0.358266 0.191591 -0.32189
N_ N_ 0.392611 0.19518 0.448189 -0.32189
N_ N_ 0.31082 0.184474 0.353578 -0.32189
O_ O_ 0.511754 0.0891603 0.394405 -0.63271
O_ O_ 0.0412683 0.0387625 0.334039 -0.57982
O_ O_ 0.393978 0.0978204 0.349857 -0.63271
O_ O_ 0.374327 0.0949858 0.430278 -0.57982
O_ O_ 0.24503 0.391443 0.0923833 -0.63271
O_ O_ 0.205918 0.343293 0.0300637 -0.57982
O_ O_ 0.357935 0.335978 0.102704 -0.63271
O_ O_ 0.383767 0.415979 0.0914039 -0.57982
O_ O_ 0.988296 0.405505 0.0937441 -0.63271
O_ O_ 0.454746 0.467819 0.155364 -0.57982
O_ O_ 0.103225 0.403367 0.153698 -0.63271
O_ O_ 0.12843 0.404979 0.0749822 -0.57982
O_ O_ 0.259076 0.0936595 0.404714 -0.63271
O_ O_ 0.291561 0.158414 0.456232 -0.57982
O_ O_ 0.152975 0.146308 0.398285 -0.63271
O_ O_ 0.117607 0.0719111 0.405158 -0.57982
F_ F_ 0.428388 0.324318 0.431364 -0.20885
F_ F_ 0.434678 0.316738 0.346072 -0.20885
F_ F_ 0.364077 0.294854 0.378459 -0.20885
F_ F_ 0.317346 0.43732 0.323961 -0.20885
F_ F_ 0.32334 0.350004 0.306546 -0.20885
F_ F_ 0.38718 0.392317 0.289736 -0.20885
F_ F_ 0.0675872 0.174299 0.0536706 -0.20885
F_ F_ 0.0585332 0.182582 0.136574 -0.20885
F_ F_ 0.130328 0.199568 0.106557 -0.20885
F_ F_ 0.169879 0.0622668 0.167882 -0.20885
F_ F_ 0.168092 0.150821 0.177732 -0.20885
F_ F_ 0.10487 0.109192 0.191882 -0.20885
Zn Zn 0.0790134 0.0832757 0.840612 0.83971
Zn Zn 0.161634 0.342382 0.577712 0.83971
Zn Zn 0.409618 0.424148 0.651661 0.83971
Zn Zn 0.335276 0.159558 0.915981 0.83971
H_ H_ 0.156575 0.126173 0.784632 0.10394
H_ H_ 0.238947 0.0928099 0.759673 0.10394
H_ H_ 0.219494 0.451039 0.795134 0.10394
H_ H_ 0.124713 0.982122 0.822424 0.10394
H_ H_ 0.531185 0.105303 0.747372 0.10394
H_ H_ 0.49146 0.176188 0.700261 0.10394
H_ H_ 0.0215955 0.27388 0.827014 0.10394
H_ H_ 0.0610144 0.196308 0.872782 0.10394
H_ H_ 0.0335905 0.443042 0.878667 0.10394
H_ H_ 0.48829 0.375927 0.887307 0.10394
H_ H_ 0.363856 0.479428 0.913575 0.10394
H_ H_ 0.0873148 0.295621 0.619755 0.10394
H_ H_ 0.499696 0.26989 0.593361 0.10394
H_ H_ 0.0489343 0.278673 0.939022 0.10394
H_ H_ 0.134646 0.294925 0.474043 0.10394
H_ H_ 0.216646 0.243375 0.594555 0.10394
H_ H_ 0.25261 0.197758 0.66849 0.10394
H_ H_ 0.210929 0.329353 0.764285 0.10394
H_ H_ 0.174527 0.376233 0.68219 0.10394
H_ H_ 0.216082 0.399364 0.95142 0.10394
H_ H_ 0.268261 0.399604 0.883076 0.10394
H_ H_ 0.404034 0.379626 0.992492 0.10394
H_ H_ 0.298702 0.409728 0.650664 0.10394
H_ H_ 0.230971 0.456483 0.687634 0.10394
H_ H_ 0.325623 0.029456 0.796517 0.10394
H_ H_ 0.402415 0.502623 0.73243 0.10394
H_ H_ 0.00155373 0.35986 0.665754 0.10394
H_ H_ 0.0334751 0.285651 0.71382 0.10394
H_ H_ 0.405536 0.260165 0.726118 0.10394
H_ H_ 0.368937 0.330728 0.681436 0.10394
H_ H_ 0.460773 0.0533628 0.632563 0.10394
H_ H_ 0.0161043 0.11891 0.608487 0.10394
H_ H_ 0.140283 0.000390305 0.581965 0.10394
H_ H_ 0.4412 0.172812 0.887857 0.10394
H_ H_ 0.0195402 0.190664 0.941053 0.10394
H_ H_ 0.415456 0.280471 0.541573 0.10394
H_ H_ 0.354039 0.230597 0.0101675 0.10394
H_ H_ 0.227055 0.182056 0.872499 0.10394
H_ H_ 0.19241 0.210984 0.79078 0.10394
H_ H_ 0.337817 0.240857 0.753663 0.10394
H_ H_ 0.374515 0.18888 0.823419 0.10394
H_ H_ 0.28541 0.123724 0.547972 0.10394
H_ H_ 0.234794 0.112973 0.618963 0.10394
H_ H_ 0.107489 0.0864544 0.505243 0.10394
C_ C_ 0.168018 0.0886944 0.788164 0.18167
C_ C_ 0.212773 0.0671488 0.768059 -0.15533
C_ C_ 0.226756 0.0132521 0.770742 0.02923
C_ C_ 0.210201 0.492139 0.800833 -0.15533
C_ C_ 0.150204 0.00393213 0.80562 0.18167
C_ C_ 0.0124608 0.135403 0.76522 0.18167
C_ C_ 0.504329 0.183046 0.740114 -0.15533
C_ C_ -0.01793699999999998 0.225843 0.766032 0.02923
C_ C_ 0.0170103 0.234651 0.808831 -0.15533
C_ C_ 0.0431434 0.191486 0.832678 0.18167
C_ C_ 0.000307227 0.0395713 0.853069 0.69207
C_ C_ 0.475629 0.501464 0.871252 0.02923
C_ C_ 0.494452 0.450596 0.868115 -0.15533
C_ C_ 0.467311 0.411618 0.880237 -0.15533
C_ C_ 0.418117 0.421759 0.893971 0.02923
C_ C_ 0.39704 0.473637 0.897076 -0.15533
C_ C_ 0.42725 0.514026 0.889397 0.02923
C_ C_ 0.388746 0.0737116 0.880643 0.69207
C_ C_ 0.403914 0.323494 0.885722 0.69661
C_ C_ 0.0735664 0.298204 0.578809 0.18167
C_ C_ 0.0285942 0.280211 0.560578 -0.15533
C_ C_ 0.0199286 0.266476 0.507148 0.02923
C_ C_ 0.0566724 0.280702 0.98259 -0.15533
C_ C_ 0.103487 0.290511 0.49773 0.18167
C_ C_ 0.21352 0.26068 0.630701 0.18167
C_ C_ 0.233354 0.235844 0.675134 -0.15533
C_ C_ 0.235436 0.260383 0.725007 0.02923
C_ C_ 0.215533 0.31135 0.726198 -0.15533
C_ C_ 0.191892 0.335971 0.681812 0.18167
C_ C_ 0.239256 0.36784 0.541677 0.69207
C_ C_ 0.278422 0.379855 0.00826577 0.02923
C_ C_ 0.257443 0.393377 0.959938 -0.15533
C_ C_ 0.288303 0.391555 0.9205 -0.15533
C_ C_ 0.343452 0.385898 0.92902 0.02923
C_ C_ 0.363169 0.382074 0.980889 -0.15533
C_ C_ 0.331155 0.379144 0.0209376 0.02923
C_ C_ 0.350194 0.389753 0.568119 0.69207
C_ C_ 0.348788 0.388149 0.828892 0.69661
C_ C_ 0.307085 0.438516 0.680337 0.18167
C_ C_ 0.267229 0.465741 0.702949 -0.15533
C_ C_ 0.276413 0.50583 0.74078 0.02923
C_ C_ 0.319958 0.00673086 0.759683 -0.15533
C_ C_ 0.364487 0.493251 0.72354 0.18167
C_ C_ 0.492353 0.358946 0.692578 0.18167
C_ C_ -0.006429000000000018 0.299192 0.71431 -0.15533
C_ C_ 0.483901 0.280104 0.735515 0.02923
C_ C_ 0.431781 0.286891 0.718642 -0.15533
C_ C_ 0.409284 0.33235 0.695524 0.18167
C_ C_ 0.483769 0.457405 0.613228 0.69207
C_ C_ 0.0230356 0.988621 0.61553 0.02923
C_ C_ 0.00703446 0.0418958 0.621585 -0.15533
C_ C_ 0.0348297 0.0807693 0.608296 -0.15533
C_ C_ 0.0859073 0.067145 0.597983 0.02923
C_ C_ 0.101791 0.0140614 0.589656 -0.15533
C_ C_ 0.0749542 0.975873 0.603929 0.02923
C_ C_ 0.0945344 0.419282 0.596952 0.69207
C_ C_ 0.106987 0.162653 0.603008 0.69661
C_ C_ 0.439079 0.18862 0.926543 0.18167
C_ C_ 0.481808 0.204199 0.954934 -0.15533
C_ C_ 0.479599 0.23829 0.998229 0.02923
C_ C_ 0.422819 0.252773 0.513772 -0.15533
C_ C_ 0.389562 0.225459 0.991449 0.18167
C_ C_ 0.250796 0.19309 0.845647 0.18167
C_ C_ 0.231326 0.212181 0.801116 -0.15533
C_ C_ 0.260161 0.236056 0.769954 0.02923
C_ C_ 0.312763 0.233996 0.780712 -0.15533
C_ C_ 0.33394 0.203733 0.821823 0.18167
C_ C_ 0.256418 0.118815 0.947049 0.69207
C_ C_ 0.228601 0.107256 0.488849 0.02923
C_ C_ 0.248318 0.112956 0.539432 -0.15533
C_ C_ 0.218363 0.106991 0.577407 -0.15533
C_ C_ 0.165556 0.0976707 0.565191 0.02923
C_ C_ 0.146388 0.0938424 0.514239 -0.15533
C_ C_ 0.178385 0.0985801 0.474228 0.02923
C_ C_ 0.146356 0.103483 0.917629 0.69207
C_ C_ 0.15245 0.0948626 0.661114 0.69661
C_ C_ 0.378186 0.380897 0.884766 -0.30787
C_ C_ 0.125733 0.103999 0.607522 -0.30787
N_ N_ 0.134792 0.0564251 0.802172 -0.32189
N_ N_ 0.0460012 0.143717 0.810096 -0.32189
N_ N_ 0.108137 0.306936 0.546929 -0.32189
N_ N_ 0.190948 0.308992 0.634531 -0.32189
N_ N_ 0.355162 0.455306 0.68777 -0.32189
N_ N_ 0.441076 0.365735 0.681747 -0.32189
N_ N_ 0.392269 0.195204 0.947417 -0.32189
N_ N_ 0.30196 0.187063 0.854381 -0.32189
O_ O_ 0.503125 0.0954189 0.906024 -0.63271
O_ O_ 0.0402957 0.030262 0.827427 -0.57982
O_ O_ 0.387365 0.0975207 0.839335 -0.63271
O_ O_ 0.366325 0.0959815 0.918811 -0.57982
O_ O_ 0.237854 0.400215 0.581116 -0.63271
O_ O_ 0.209651 0.332523 0.533804 -0.57982
O_ O_ 0.35127 0.352361 0.598236 -0.63271
O_ O_ 0.377554 0.427445 0.586273 -0.57982
O_ O_ 0.990586 0.408651 0.588569 -0.63271
O_ O_ 0.453442 0.468077 0.649318 -0.57982
O_ O_ 0.0975064 0.393006 0.637903 -0.63271
O_ O_ 0.125091 0.40322 0.563529 -0.57982
O_ O_ 0.260317 0.0888076 0.904534 -0.63271
O_ O_ 0.285422 0.1558 0.956094 -0.57982
O_ O_ 0.148585 0.14043 0.886881 -0.63271
O_ O_ 0.112239 0.0720479 0.904269 -0.57982
F_ F_ 0.44275 0.321545 0.925626 -0.20885
F_ F_ 0.426511 0.312303 0.840379 -0.20885
F_ F_ 0.367668 0.287162 0.883885 -0.20885
F_ F_ 0.320227 0.434897 0.826566 -0.20885
F_ F_ 0.313436 0.354671 0.816644 -0.20885
F_ F_ 0.379085 0.386936 0.788271 -0.20885
F_ F_ 0.0705574 0.174269 0.563717 -0.20885
F_ F_ 0.0824131 0.182955 0.644808 -0.20885
F_ F_ 0.147433 0.191675 0.598319 -0.20885
F_ F_ 0.181395 0.0484334 0.662732 -0.20885
F_ F_ 0.184094 0.130496 0.682392 -0.20885
F_ F_ 0.114434 0.0963651 0.692709 -0.20885
Zn Zn 0.0886842 0.584678 0.349979 0.83971
Zn Zn 0.162754 0.84788 0.0847046 0.83971
Zn Zn 0.414721 0.919514 0.165775 0.83971
Zn Zn 0.342909 0.65829 0.415169 0.83971
H_ H_ 0.163024 0.629882 0.296802 0.10394
H_ H_ 0.241673 0.595121 0.258798 0.10394
H_ H_ 0.207941 0.952566 0.273332 0.10394
H_ H_ 0.125961 0.483926 0.321751 0.10394
H_ H_ 0.540359 0.602478 0.260912 0.10394
H_ H_ 0.500903 0.677065 0.212895 0.10394
H_ H_ 0.0381005 0.767572 0.335695 0.10394
H_ H_ 0.0945217 0.689466 0.365202 0.10394
H_ H_ 0.0365682 0.948964 0.376822 0.10394
H_ H_ 0.478862 0.879403 0.39134 0.10394
H_ H_ 0.354256 0.992348 0.410895 0.10394
H_ H_ 0.0820406 0.80167 0.128694 0.10394
H_ H_ 0.499492 0.778176 0.0971736 0.10394
H_ H_ 0.0604305 0.758824 0.448573 0.10394
H_ H_ 0.126844 0.81826 0.98194 0.10394
H_ H_ 0.208537 0.751484 0.105535 0.10394
H_ H_ 0.240955 0.704223 0.181848 0.10394
H_ H_ 0.212625 0.844313 0.270434 0.10394
H_ H_ 0.187707 0.890352 0.193652 0.10394
H_ H_ 0.21759 0.869394 0.454575 0.10394
H_ H_ 0.269701 0.872965 0.386445 0.10394
H_ H_ 0.394966 0.900126 0.496732 0.10394
H_ H_ 0.315313 0.891781 0.179085 0.10394
H_ H_ 0.237574 0.957304 0.182309 0.10394
H_ H_ 0.328408 0.539418 0.283855 0.10394
H_ H_ 0.406774 0.0103728 0.236163 0.10394
H_ H_ 0.00524175 0.877474 0.188817 0.10394
H_ H_ 0.0484107 0.808742 0.246684 0.10394
H_ H_ 0.421605 0.743597 0.220417 0.10394
H_ H_ 0.37718 0.822022 0.189276 0.10394
H_ H_ 0.464983 0.557726 0.118709 0.10394
H_ H_ 0.0178924 0.618026 0.106554 0.10394
H_ H_ 0.145428 0.50689 0.101618 0.10394
H_ H_ 0.445056 0.669848 0.393135 0.10394
H_ H_ 0.023422 0.680001 0.445274 0.10394
H_ H_ 0.412115 0.799323 0.0173845 0.10394
H_ H_ 0.342412 0.732399 0.500431 0.10394
H_ H_ 0.242191 0.696985 0.389743 0.10394
H_ H_ 0.193025 0.736416 0.313256 0.10394
H_ H_ 0.32421 0.725957 0.239348 0.10394
H_ H_ 0.378095 0.689295 0.322344 0.10394
H_ H_ 0.284112 0.641573 0.0729678 0.10394
H_ H_ 0.227612 0.621386 0.133892 0.10394
H_ H_ 0.11547 0.582956 0.0141071 0.10394
C_ C_ 0.175707 0.589726 0.298983 0.18167
C_ C_ 0.220271 0.569859 0.275177 -0.15533
C_ C_ 0.231038 0.514227 0.267612 0.02923
C_ C_ 0.199722 0.993505 0.279445 -0.15533
C_ C_ 0.154738 0.506396 0.309746 0.18167
C_ C_ 0.0192739 0.635101 0.274365 0.18167
C_ C_ 0.519476 0.682516 0.252137 -0.15533
C_ C_ 0.0071548 0.724808 0.268613 0.02923
C_ C_ 0.0401754 0.730501 0.313401 -0.15533
C_ C_ 0.0631649 0.687849 0.336287 0.18167
C_ C_ 0.0120125 0.539607 0.374656 0.69207
C_ C_ 0.475532 0.00710248 0.386365 0.02923
C_ C_ 0.49186 0.954223 0.382556 -0.15533
C_ C_ 0.461985 0.91616 0.394518 -0.15533
C_ C_ 0.410754 0.927801 0.403193 0.02923
C_ C_ 0.395449 0.98103 0.410121 -0.15533
C_ C_ 0.424305 0.0204778 0.39644 0.02923
C_ C_ 0.397451 0.575496 0.393291 0.69207
C_ C_ 0.39554 0.833157 0.392066 0.69661
C_ C_ 0.0767994 0.796628 0.0868714 0.18167
C_ C_ 0.0307236 0.775407 0.0667306 -0.15533
C_ C_ 0.0200375 0.763481 0.0133401 0.02923
C_ C_ 0.060674 0.772581 0.488595 -0.15533
C_ C_ 0.0999385 0.800908 0.0051863 0.18167
C_ C_ 0.208354 0.77044 0.14224 0.18167
C_ C_ 0.229588 0.743596 0.186659 -0.15533
C_ C_ 0.233801 0.770659 0.232543 0.02923
C_ C_ 0.2118 0.823126 0.233722 -0.15533
C_ C_ 0.192808 0.849547 0.189362 0.18167
C_ C_ 0.248846 0.876493 0.0537728 0.69207
C_ C_ 0.277047 0.870527 0.514915 0.02923
C_ C_ 0.253829 0.881119 0.466109 -0.15533
C_ C_ 0.283966 0.884903 0.426615 -0.15533
C_ C_ 0.335152 0.894381 0.435176 0.02923
C_ C_ 0.356746 0.892486 0.487946 -0.15533
C_ C_ 0.329663 0.874517 0.526041 0.02923
C_ C_ 0.361483 0.892634 0.079187 0.69207
C_ C_ 0.348256 0.89871 0.336781 0.69661
C_ C_ 0.317882 0.934452 0.188876 0.18167
C_ C_ 0.272332 0.965391 0.199318 -0.15533
C_ C_ 0.27701 1.00661638 0.23744 0.02923
C_ C_ 0.322646 0.511549 0.251274 -0.15533
C_ C_ 0.369607 0.995292 0.232031 0.18167
C_ C_ 0.496123 0.860466 0.219826 0.18167
C_ C_ 0.00797888 0.809934 0.234365 -0.15533
C_ C_ 0.492268 0.778172 0.252497 0.02923
C_ C_ 0.442521 0.77835 0.22801 -0.15533
C_ C_ 0.417608 0.821175 0.204512 0.18167
C_ C_ 0.489636 0.954847 0.130424 0.69207
C_ C_ 0.0210175 0.487795 0.111526 0.02923
C_ C_ 0.000509482 0.541208 0.112545 -0.15533
C_ C_ 0.033616 0.578448 0.10626 -0.15533
C_ C_ 0.0863615 0.566358 0.105657 0.02923
C_ C_ 0.105403 0.515906 0.105509 -0.15533
C_ C_ 0.0729627 0.474795 0.104188 0.02923
C_ C_ 0.0935307 0.928013 0.108763 0.69207
C_ C_ 0.0973198 0.664331 0.113425 0.69661
C_ C_ 0.439276 0.688348 0.430111 0.18167
C_ C_ 0.479857 0.700714 0.462767 -0.15533
C_ C_ 0.470616 0.740756 0.498522 0.02923
C_ C_ 0.422659 0.761303 0.002429999999999932 -0.15533
C_ C_ 0.380626 0.727289 0.488889 0.18167
C_ C_ 0.25869 0.700432 0.354562 0.18167
C_ C_ 0.232949 0.729609 0.315844 -0.15533
C_ C_ 0.260555 0.743409 0.276995 0.02923
C_ C_ 0.311847 0.727286 0.278015 -0.15533
C_ C_ 0.335574 0.694687 0.315954 0.18167
C_ C_ 0.270007 0.622939 0.457728 0.69207
C_ C_ 0.231818 0.620919 1.00609032 0.02923
C_ C_ 0.247027 0.62875 0.059449 -0.15533
C_ C_ 0.214402 0.619053 0.095362 -0.15533
C_ C_ 0.165539 0.601831 0.0798554 0.02923
C_ C_ 0.152662 0.594356 0.0272782 -0.15533
C_ C_ 0.184087 0.604239 0.991076 0.02923
C_ C_ 0.156154 0.611624 0.428074 0.69207
C_ C_ 0.145264 0.600909 0.175293 0.69661
C_ C_ 0.370842 0.889145 0.392766 -0.30787
C_ C_ 0.124649 0.608626 0.117092 -0.30787
N_ N_ 0.145406 0.557562 0.315582 -0.32189
N_ N_ 0.0518938 0.63941 0.317659 -0.32189
N_ N_ 0.109594 0.80858 0.0553462 -0.32189
N_ N_ 0.189794 0.821124 0.144576 -0.32189
N_ N_ 0.363786 0.950178 0.203666 -0.32189
N_ N_ 0.446033 0.862167 0.199685 -0.32189
N_ N_ 0.3907 0.700202 0.444334 -0.32189
N_ N_ 0.309356 0.685223 0.35539 -0.32189
O_ O_ 0.509321 0.592187 0.401642 -0.63271
O_ O_ 0.0491587 0.533294 0.344121 -0.57982
O_ O_ 0.395857 0.598103 0.349304 -0.63271
O_ O_ 0.378816 0.60039 0.432367 -0.57982
O_ O_ 0.254785 0.896162 0.10082 -0.63271
O_ O_ 0.210438 0.849272 0.0380299 -0.57982
O_ O_ 0.360338 0.850095 0.101852 -0.63271
O_ O_ 0.390408 0.927807 0.100023 -0.57982
O_ O_ 0.985761 0.905954 0.0942901 -0.63271
O_ O_ 0.460491 0.967619 0.168009 -0.57982
O_ O_ 0.0883028 0.905356 0.150542 -0.63271
O_ O_ 0.129114 0.913254 0.0786517 -0.57982
O_ O_ 0.269294 0.59362 0.414112 -0.63271
O_ O_ 0.297347 0.661825 0.463692 -0.57982
O_ O_ 0.163157 0.646079 0.397022 -0.63271
O_ O_ 0.11406 0.589741 0.416047 -0.57982
F_ F_ 0.426605 0.821145 0.434917 -0.20885
F_ F_ 0.423443 0.821374 0.351138 -0.20885
F_ F_ 0.358554 0.801081 0.390136 -0.20885
F_ F_ 0.315303 0.943489 0.337313 -0.20885
F_ F_ 0.315837 0.866659 0.310794 -0.20885
F_ F_ 0.384304 0.902437 0.302028 -0.20885
F_ F_ 0.0679056 0.671663 0.0684262 -0.20885
F_ F_ 0.0742493 0.680057 0.156599 -0.20885
F_ F_ 0.13565 0.697122 0.115541 -0.20885
F_ F_ 0.180542 0.559247 0.177018 -0.20885
F_ F_ 0.169651 0.642784 0.197125 -0.20885
F_ F_ 0.104568 0.595215 0.201304 -0.20885
Zn Zn 0.0937549 0.584231 0.857425 0.83971
Zn Zn 0.161731 0.840058 0.594483 0.83971
Zn Zn 0.40822 0.913055 0.660973 0.83971
Zn Zn 0.345488 0.648542 0.926321 0.83971
H_ H_ 0.166227 0.634672 0.809685 0.10394
H_ H_ 0.249471 0.606223 0.773156 0.10394
H_ H_ 0.206802 0.939383 0.788526 0.10394
H_ H_ 0.15119 0.487192 0.851088 0.10394
H_ H_ 0.528974 0.592016 0.757415 0.10394
H_ H_ 0.497762 0.660539 0.707527 0.10394
H_ H_ 0.0559801 0.771078 0.828123 0.10394
H_ H_ 0.0907822 0.695153 0.875905 0.10394
H_ H_ 0.0147562 0.934581 0.845226 0.10394
H_ H_ 0.48374 0.88758 0.889426 0.10394
H_ H_ 0.350139 0.992913 0.907815 0.10394
H_ H_ 0.0760073 0.8128 0.632676 0.10394
H_ H_ 0.510646 0.74979 0.5964 0.10394
H_ H_ 0.0516361 0.774774 0.94183 0.10394
H_ H_ 0.13055 0.802689 0.487701 0.10394
H_ H_ 0.222328 0.7485 0.614336 0.10394
H_ H_ 0.266942 0.70587 0.692216 0.10394
H_ H_ 0.23385 0.845924 0.779907 0.10394
H_ H_ 0.181733 0.881375 0.706353 0.10394
H_ H_ 0.219471 0.902952 0.957179 0.10394
H_ H_ 0.271446 0.882381 0.887716 0.10394
H_ H_ 0.40569 0.898067 0.991749 0.10394
H_ H_ 0.310422 0.893446 0.663369 0.10394
H_ H_ 0.234627 0.936357 0.692593 0.10394
H_ H_ 0.333079 0.551502 0.778795 0.10394
H_ H_ 0.395239 0.0053399999999999 0.736988 0.10394
H_ H_ 0.00793453 0.878378 0.693312 0.10394
H_ H_ 0.0530139 0.811832 0.740509 0.10394
H_ H_ 0.414047 0.737704 0.73044 0.10394
H_ H_ 0.370872 0.828255 0.707595 0.10394
H_ H_ 0.456519 0.560985 0.594322 0.10394
H_ H_ 0.0233402 0.620016 0.618121 0.10394
H_ H_ 0.14204 0.499657 0.585587 0.10394
H_ H_ 0.45751 0.621844 0.952268 0.10394
H_ H_ 0.0118531 0.699746 0.927132 0.10394
H_ H_ 0.420062 0.76802 0.552784 0.10394
H_ H_ 0.347106 0.749119 -0.032379999999999964 0.10394
H_ H_ 0.244848 0.683685 0.889244 0.10394
H_ H_ 0.206584 0.726603 0.817803 0.10394
H_ H_ 0.352639 0.739666 0.76819 0.10394
H_ H_ 0.390886 0.691693 0.840852 0.10394
H_ H_ 0.295772 0.611621 0.557766 0.10394
H_ H_ 0.238619 0.578893 0.620283 0.10394
H_ H_ 0.109826 0.591448 0.511037 0.10394
C_ C_ 0.180177 0.595127 0.809168 0.18167
C_ C_ 0.224194 0.578879 0.782749 -0.15533
C_ C_ 0.235434 0.526691 0.775433 0.02923
C_ C_ 0.196784 0.981921 0.790718 -0.15533
C_ C_ 0.168028 0.510232 0.827535 0.18167
C_ C_ 0.0263166 0.634855 0.782909 0.18167
C_ C_ 0.517082 0.670365 0.745 -0.15533
C_ C_ 0.00933394 0.726523 0.772829 0.02923
C_ C_ 0.045736 0.732238 0.813962 -0.15533
C_ C_ 0.0703554 0.689487 0.839257 0.18167
C_ C_ 0.0078526 0.544776 0.874318 0.69207
C_ C_ 0.467291 0.0133302 0.876597 0.02923
C_ C_ 0.489909 0.962786 0.872824 -0.15533
C_ C_ 0.464795 0.925956 0.890771 -0.15533
C_ C_ 0.412572 0.934037 0.896925 0.02923
C_ C_ 0.389139 0.985277 0.901464 -0.15533
C_ C_ 0.415558 0.0236543 0.887007 0.02923
C_ C_ 0.403036 0.56635 0.892847 0.69207
C_ C_ 0.40604 0.835088 0.887845 0.69661
C_ C_ 0.0735196 0.795171 0.594427 0.18167
C_ C_ 0.0306321 0.771443 0.571486 -0.15533
C_ C_ 0.023308 0.759683 0.518591 0.02923
C_ C_ 0.0575025 0.776969 0.983725 -0.15533
C_ C_ 0.101449 0.794097 0.512207 0.18167
C_ C_ 0.217208 0.765221 0.653872 0.18167
C_ C_ 0.245267 0.742474 0.696687 -0.15533
C_ C_ 0.247468 0.770037 0.74347 0.02923
C_ C_ 0.22912 0.822198 0.744741 -0.15533
C_ C_ 0.200915 0.842636 0.701396 0.18167
C_ C_ 0.244525 0.85928 0.555141 0.69207
C_ C_ 0.283072 0.88803 0.014104 0.02923
C_ C_ 0.260675 0.891559 0.96314 -0.15533
C_ C_ 0.290122 0.889862 0.923406 -0.15533
C_ C_ 0.34527 0.891351 0.932671 0.02923
C_ C_ 0.365259 0.899372 0.983804 -0.15533
C_ C_ 0.335716 0.896061 0.025004 0.02923
C_ C_ 0.355184 0.872196 0.578625 0.69207
C_ C_ 0.347076 0.892711 0.835007 0.69661
C_ C_ 0.312752 0.926875 0.686792 0.18167
C_ C_ 0.269231 0.953713 0.704927 -0.15533
C_ C_ 0.271148 0.991277 0.745614 0.02923
C_ C_ 0.325468 0.519483 0.750734 -0.15533
C_ C_ 0.361334 0.987585 0.731464 0.18167
C_ C_ 0.495228 0.842622 0.69318 0.18167
C_ C_ 0.0127018 0.808109 0.727032 -0.15533
C_ C_ 0.488427 0.763766 0.737083 0.02923
C_ C_ 0.436291 0.768918 0.723874 -0.15533
C_ C_ 0.412733 0.817187 0.708073 0.18167
C_ C_ 0.487386 0.952137 0.629327 0.69207
C_ C_ 0.0251769 0.489707 0.617244 0.02923
C_ C_ 1.00642844 0.542812 0.620992 -0.15533
C_ C_ 0.03748 0.5809 0.613592 -0.15533
C_ C_ 0.0888046 0.56481 0.599898 0.02923
C_ C_ 0.102716 0.512152 0.591118 -0.15533
C_ C_ 0.0730866 0.474814 0.601527 0.02923
C_ C_ 0.101065 0.922556 0.61377 0.69207
C_ C_ 0.113417 0.657558 0.608042 0.69661
C_ C_ 0.446499 0.660015 0.967742 0.18167
C_ C_ 0.484065 0.688111 0.986922 -0.15533
C_ C_ 0.473843 0.740556 0.00155199 0.02923
C_ C_ 0.423293 0.750954 0.516119 -0.15533
C_ C_ 0.38516 0.731222 0.977776 0.18167
C_ C_ 0.268031 0.697816 0.865089 0.18167
C_ C_ 0.245952 0.721155 0.823037 -0.15533
C_ C_ 0.274596 0.741418 0.789317 0.02923
C_ C_ 0.32675 0.730615 0.796693 -0.15533
C_ C_ 0.347642 0.696711 0.833181 0.18167
C_ C_ 0.270008 0.623879 0.970019 0.69207
C_ C_ 0.234242 0.615397 0.496781 0.02923
C_ C_ 0.254428 0.607068 0.546963 -0.15533
C_ C_ 0.222679 0.593937 0.584211 -0.15533
C_ C_ 0.169752 0.592263 0.569493 0.02923
C_ C_ 0.150511 0.596843 0.519945 -0.15533
C_ C_ 0.181163 0.610667 0.482846 0.02923
C_ C_ 0.15865 0.611513 0.939946 0.69207
C_ C_ 0.150304 0.592252 0.668405 0.69661
C_ C_ 0.378518 0.889396 0.887924 -0.30787
C_ C_ 0.131487 0.600379 0.610602 -0.30787
N_ N_ 0.152376 0.560873 0.826831 -0.32189
N_ N_ 0.058208 0.641193 0.824126 -0.32189
N_ N_ 0.107659 0.805027 0.563681 -0.32189
N_ N_ 0.19666 0.812615 0.656769 -0.32189
N_ N_ 0.358537 0.946596 0.697806 -0.32189
N_ N_ 0.441656 0.850412 0.690787 -0.32189
N_ N_ 0.399913 0.684437 0.958089 -0.32189
N_ N_ 0.318516 0.683111 0.868646 -0.32189
O_ O_ 0.50735 0.584371 0.893933 -0.63271
O_ O_ 0.0509897 0.534496 0.853164 -0.57982
O_ O_ 0.399567 0.594897 0.853376 -0.63271
O_ O_ 0.375948 0.583836 0.930748 -0.57982
O_ O_ 0.244571 0.887961 0.598537 -0.63271
O_ O_ 0.209004 0.827681 0.548049 -0.57982
O_ O_ 0.354659 0.833743 0.60811 -0.63271
O_ O_ 0.379448 0.909901 0.597104 -0.57982
O_ O_ 0.99511 0.903412 0.603645 -0.63271
O_ O_ 0.455417 0.960081 0.66435 -0.57982
O_ O_ 0.101172 0.901116 0.657146 -0.63271
O_ O_ 0.136615 0.90504 0.584322 -0.57982
O_ O_ 0.269497 0.59561 0.926094 -0.63271
O_ O_ 0.305942 0.654564 0.977194 -0.57982
O_ O_ 0.167428 0.649261 0.91533 -0.63271
O_ O_ 0.116774 0.591113 0.926054 -0.57982
F_ F_ 0.442419 0.828495 0.928946 -0.20885
F_ F_ 0.434623 0.822479 0.844804 -0.20885
F_ F_ 0.376647 0.795242 0.890946 -0.20885
F_ F_ 0.314032 0.936934 0.833943 -0.20885
F_ F_ 0.323261 0.848965 0.822246 -0.20885
F_ F_ 0.381842 0.900669 0.799296 -0.20885
F_ F_ 0.0806685 0.666142 0.563588 -0.20885
F_ F_ 0.089803 0.677967 0.650751 -0.20885
F_ F_ 0.152347 0.68912 0.604944 -0.20885
F_ F_ 0.173126 0.541449 0.675066 -0.20885
F_ F_ 0.183052 0.62948 0.686304 -0.20885
F_ F_ 0.110392 0.597429 0.698253 -0.20885
Zn Zn 0.586877 0.0805662 0.350076 0.83971
Zn Zn 0.666554 0.34724 0.0807069 0.83971
Zn Zn 0.9083 0.41312 0.156247 0.83971
Zn Zn 0.838031 0.155104 0.417591 0.83971
H_ H_ 0.647861 0.121698 0.279544 0.10394
H_ H_ 0.725944 0.0954004 0.248366 0.10394
H_ H_ 0.703753 0.448913 0.273394 0.10394
H_ H_ 0.633077 0.976961 0.330932 0.10394
H_ H_ 0.0223851 0.0953298 0.247665 0.10394
H_ H_ 0.993591 0.168701 0.19796 0.10394
H_ H_ 0.534749 0.269901 0.338867 0.10394
H_ H_ 0.57003 0.190147 0.38609 0.10394
H_ H_ 0.527147 0.446606 0.358923 0.10394
H_ H_ 0.972533 0.372233 0.350006 0.10394
H_ H_ 0.849913 0.48136 0.391075 0.10394
H_ H_ 0.590776 0.298934 0.126727 0.10394
H_ H_ 0.993924 0.275209 0.0877247 0.10394
H_ H_ 0.529774 0.293849 0.439939 0.10394
H_ H_ 0.620907 0.31844 0.976253 0.10394
H_ H_ 0.713017 0.243504 0.0912795 0.10394
H_ H_ 0.756108 0.198765 0.165067 0.10394
H_ H_ 0.710629 0.324627 0.267059 0.10394
H_ H_ 0.674676 0.372949 0.192351 0.10394
H_ H_ 0.722145 0.35022 0.429802 0.10394
H_ H_ 0.764362 0.379295 0.364247 0.10394
H_ H_ 0.896301 0.400131 0.473238 0.10394
H_ H_ 0.80319 0.396087 0.16576 0.10394
H_ H_ 0.735286 0.454477 0.186232 0.10394
H_ H_ 0.825354 0.0538728 0.266265 0.10394
H_ H_ 0.90734 0.496594 0.237589 0.10394
H_ H_ 0.520652 0.382302 0.191182 0.10394
H_ H_ 0.563883 0.309794 0.240607 0.10394
H_ H_ 0.91263 0.247036 0.228834 0.10394
H_ H_ 0.870533 0.316174 0.179903 0.10394
H_ H_ 0.95542 0.0536277 0.111874 0.10394
H_ H_ 0.513034 0.107229 0.0703535 0.10394
H_ H_ 0.646507 0.00045000000000006146 0.0814505 0.10394
H_ H_ 0.935045 0.161197 0.3881 0.10394
H_ H_ 0.516953 0.203033 0.445212 0.10394
H_ H_ 0.918163 0.286431 0.0307154 0.10394
H_ H_ 0.84689 0.240835 0.497109 0.10394
H_ H_ 0.739597 0.186084 0.378914 0.10394
H_ H_ 0.696863 0.239075 0.312193 0.10394
H_ H_ 0.834958 0.210378 0.237051 0.10394
H_ H_ 0.880895 0.180744 0.3236 0.10394
H_ H_ 0.783558 0.137594 0.0511998 0.10394
H_ H_ 0.73021 0.115543 0.113962 0.10394
H_ H_ 0.614563 0.0787484 -0.001747000000000054 0.10394
C_ C_ 0.66678 0.0845443 0.289073 0.18167
C_ C_ 0.710729 0.0676562 0.268632 -0.15533
C_ C_ 0.730752 0.016474 0.271684 0.02923
C_ C_ 0.703378 0.488716 0.286853 -0.15533
C_ C_ 0.656627 0.0017077 0.31442 0.18167
C_ C_ 0.534025 0.136389 0.273267 0.18167
C_ C_ 0.0083504 0.175279 0.234708 -0.15533
C_ C_ 0.520878 0.226522 0.264993 0.02923
C_ C_ 0.537449 0.232165 0.318002 -0.15533
C_ C_ 0.554287 0.187518 0.346959 0.18167
C_ C_ 0.506527 0.0462945 0.368453 0.69207
C_ C_ 0.9729 0.501817 0.366463 0.02923
C_ C_ 0.988628 0.450732 0.353931 -0.15533
C_ C_ 0.958826 0.411329 0.36272 -0.15533
C_ C_ 0.907965 0.422977 0.374849 0.02923
C_ C_ 0.888623 0.473929 0.379608 -0.15533
C_ C_ 0.922684 0.514897 0.380739 0.02923
C_ C_ 0.892291 0.0718267 0.381598 0.69207
C_ C_ 0.897868 0.328438 0.374775 0.69661
C_ C_ 0.576828 0.302911 0.0865812 0.18167
C_ C_ 0.536152 0.275499 0.0695839 -0.15533
C_ C_ 0.52471 0.265123 0.0163003 0.02923
C_ C_ 0.545209 0.292749 0.482613 -0.15533
C_ C_ 0.596865 0.309707 0.00239704 0.18167
C_ C_ 0.713776 0.262261 0.130561 0.18167
C_ C_ 0.741754 0.235899 0.171762 -0.15533
C_ C_ 0.74219 0.257019 0.220762 0.02923
C_ C_ 0.714586 0.304957 0.228123 -0.15533
C_ C_ 0.692615 0.333752 0.186022 0.18167
C_ C_ 0.745441 0.368811 0.0442819 0.69207
C_ C_ 0.777696 0.36598 0.494048 0.02923
C_ C_ 0.757298 0.367076 0.44192 -0.15533
C_ C_ 0.783965 0.378031 0.402191 -0.15533
C_ C_ 0.834848 0.388958 0.412401 0.02923
C_ C_ 0.853904 0.396512 0.464722 -0.15533
C_ C_ 0.827476 0.381505 0.5044 0.02923
C_ C_ 0.854729 0.382 0.0692931 0.69207
C_ C_ 0.845166 0.382848 0.315107 0.69661
C_ C_ 0.80972 0.432969 0.182886 0.18167
C_ C_ 0.771123 0.458939 0.205309 -0.15533
C_ C_ 0.7797 0.502619 0.238542 0.02923
C_ C_ 0.822257 0.0161477 0.25095 -0.15533
C_ C_ 0.869142 0.486933 0.226321 0.18167
C_ C_ 0.987912 0.352726 0.200622 0.18167
C_ C_ 0.524861 0.308715 0.224422 -0.15533
C_ C_ 0.986961 0.268963 0.229864 0.02923
C_ C_ 0.935468 0.27241 0.215936 -0.15533
C_ C_ 0.912561 0.311751 0.186795 0.18167
C_ C_ 0.983746 0.449686 0.115665 0.69207
C_ C_ 0.523853 0.991022 0.116897 0.02923
C_ C_ 0.503781 0.0410036 0.110066 -0.15533
C_ C_ 0.533832 0.0769649 0.0919654 -0.15533
C_ C_ 0.585293 0.0630362 0.0885889 0.02923
C_ C_ 0.60582 0.0116302 0.0897502 -0.15533
C_ C_ 0.575595 0.977171 0.109253 0.02923
C_ C_ 0.600943 0.428882 0.105384 0.69207
C_ C_ 0.596415 0.160529 0.0917642 0.69661
C_ C_ 0.933338 0.184374 0.425012 0.18167
C_ C_ 0.97658 0.20408 0.446983 -0.15533
C_ C_ 0.973236 0.241869 0.486031 0.02923
C_ C_ 0.926066 0.25274 0.0028606 -0.15533
C_ C_ 0.884158 0.231701 0.484908 0.18167
C_ C_ 0.760396 0.19414 0.349665 0.18167
C_ C_ 0.736623 0.21936 0.309264 -0.15533
C_ C_ 0.76548 0.225825 0.26797 0.02923
C_ C_ 0.817744 0.210878 0.271319 -0.15533
C_ C_ 0.840256 0.189138 0.317427 0.18167
C_ C_ 0.767922 0.120184 0.457461 0.69207
C_ C_ 0.728948 0.120855 0.985458 0.02923
C_ C_ 0.745994 0.125517 0.0380963 -0.15533
C_ C_ 0.714892 0.114927 0.0759585 -0.15533
C_ C_ 0.667195 0.0982219 0.0611881 0.02923
C_ C_ 0.653491 0.0891351 0.00925321 -0.15533
C_ C_ 0.678395 0.108362 0.970478 0.02923
C_ C_ 0.65877 0.0998667 0.420385 0.69207
C_ C_ 0.642314 0.0976417 0.154536 0.69661
C_ C_ 0.872575 0.380548 0.369768 -0.30787
C_ C_ 0.6206 0.105284 0.0959739 -0.30787
N_ N_ 0.638537 0.0528251 0.308318 -0.32189
N_ N_ 0.552796 0.140719 0.322756 -0.32189
N_ N_ 0.609034 0.314623 0.0530593 -0.32189
N_ N_ 0.697359 0.313373 0.137485 -0.32189
N_ N_ 0.857687 0.446653 0.195195 -0.32189
N_ N_ 0.938158 0.354181 0.183142 -0.32189
N_ N_ 0.888233 0.196246 0.445098 -0.32189
N_ N_ 0.811233 0.17862 0.353406 -0.32189
O_ O_ 0.00224694 0.0943396 0.388784 -0.63271
O_ O_ 0.543061 0.0308993 0.339396 -0.57982
O_ O_ 0.881303 0.0913961 0.336223 -0.63271
O_ O_ 0.874604 0.0969764 0.422762 -0.57982
O_ O_ 0.746565 0.390395 0.090979 -0.63271
O_ O_ 0.711454 0.339381 0.0297585 -0.57982
O_ O_ 0.858488 0.336855 0.0893976 -0.63271
O_ O_ 0.877946 0.418418 0.0923898 -0.57982
O_ O_ 0.487544 0.409889 0.09575 -0.63271
O_ O_ 0.94879 0.461036 0.148256 -0.57982
O_ O_ 0.591887 0.399161 0.141119 -0.63271
O_ O_ 0.636907 0.411423 0.07582 -0.57982
O_ O_ 0.770778 0.0889048 0.416419 -0.63271
O_ O_ 0.794923 0.159874 0.463414 -0.57982
O_ O_ 0.651003 0.142902 0.395164 -0.63271
O_ O_ 0.632173 0.0629341 0.405387 -0.57982
F_ F_ 0.935889 0.327694 0.415147 -0.20885
F_ F_ 0.922103 0.305274 0.335807 -0.20885
F_ F_ 0.867888 0.291698 0.386109 -0.20885
F_ F_ 0.809598 0.424534 0.305655 -0.20885
F_ F_ 0.820481 0.339945 0.30214 -0.20885
F_ F_ 0.880032 0.384535 0.279253 -0.20885
F_ F_ 0.569918 0.163231 0.0434384 -0.20885
F_ F_ 0.563083 0.1762 0.127855 -0.20885
F_ F_ 0.630938 0.196362 0.0906382 -0.20885
F_ F_ 0.676913 0.0558599 0.162945 -0.20885
F_ F_ 0.668735 0.136939 0.176062 -0.20885
F_ F_ 0.607985 0.0958979 0.190359 -0.20885
Zn Zn 0.583244 0.0927524 0.84359 0.83971
Zn Zn 0.657821 0.352821 0.575354 0.83971
Zn Zn 0.902713 0.415573 0.639217 0.83971
Zn Zn 0.838373 0.160912 0.905628 0.83971
H_ H_ 0.665564 0.131412 0.797115 0.10394
H_ H_ 0.744052 0.0921832 0.770213 0.10394
H_ H_ 0.704014 0.45068 0.752428 0.10394
H_ H_ 0.625203 0.986544 0.826171 0.10394
H_ H_ 0.00739353 0.0963083 0.752143 0.10394
H_ H_ 0.950725 0.167656 0.710459 0.10394
H_ H_ 0.531686 0.27889 0.829888 0.10394
H_ H_ 0.571156 0.203979 0.874994 0.10394
H_ H_ 0.531506 0.442099 0.858624 0.10394
H_ H_ 0.983283 0.377689 0.886291 0.10394
H_ H_ 0.852277 0.489332 0.895898 0.10394
H_ H_ 0.571982 0.319187 0.62617 0.10394
H_ H_ 0.00331524 0.27581 0.587315 0.10394
H_ H_ 0.546108 0.27843 0.941388 0.10394
H_ H_ 0.61042 0.332597 0.479908 0.10394
H_ H_ 0.712647 0.261747 0.583608 0.10394
H_ H_ 0.757714 0.212409 0.655922 0.10394
H_ H_ 0.728991 0.338895 0.759705 0.10394
H_ H_ 0.683035 0.387488 0.691938 0.10394
H_ H_ 0.715814 0.381026 0.944744 0.10394
H_ H_ 0.770911 0.376743 0.881422 0.10394
H_ H_ 0.899375 0.39948 0.986629 0.10394
H_ H_ 0.796859 0.462676 0.611588 0.10394
H_ H_ 0.728527 0.492524 0.667033 0.10394
H_ H_ 0.822461 0.0560508 0.763694 0.10394
H_ H_ 0.903776 0.457866 0.74846 0.10394
H_ H_ 0.514856 0.387617 0.684943 0.10394
H_ H_ 0.554409 0.316233 0.740637 0.10394
H_ H_ 0.884554 0.274804 0.75173 0.10394
H_ H_ 0.850967 0.335769 0.691571 0.10394
H_ H_ 0.966494 0.0525165 0.629489 0.10394
H_ H_ 0.511284 0.122208 0.617485 0.10394
H_ H_ 0.629397 0.0109297 0.568946 0.10394
H_ H_ 0.943657 0.171086 0.883966 0.10394
H_ H_ 0.518814 0.195136 0.941621 0.10394
H_ H_ 0.924442 0.287811 0.53258 0.10394
H_ H_ 0.849702 0.231412 -0.005520999999999998 0.10394
H_ H_ 0.734407 0.209018 0.876067 0.10394
H_ H_ 0.689365 0.249317 0.798098 0.10394
H_ H_ 0.827324 0.212069 0.728071 0.10394
H_ H_ 0.869217 0.180239 0.802447 0.10394
H_ H_ 0.781634 0.118771 0.563837 0.10394
H_ H_ 0.721641 0.108138 0.620259 0.10394
H_ H_ 0.604052 0.0942804 0.495255 0.10394
C_ C_ 0.671868 0.0910923 0.793432 0.18167
C_ C_ 0.714814 0.0688403 0.772075 -0.15533
C_ C_ 0.726881 0.0155085 0.769678 0.02923
C_ C_ 0.69927 0.491245 0.763622 -0.15533
C_ C_ 0.651024 0.0117465 0.810976 0.18167
C_ C_ 0.522684 0.141974 0.769253 0.18167
C_ C_ -0.022008000000000028 0.174711 0.746442 -0.15533
C_ C_ 0.506044 0.233179 0.762894 0.02923
C_ C_ 0.529541 0.240214 0.813641 -0.15533
C_ C_ 0.550285 0.197974 0.840152 0.18167
C_ C_ 0.501327 0.0543717 0.871334 0.69207
C_ C_ 0.974491 0.505473 0.886543 0.02923
C_ C_ 0.994609 0.453968 0.885768 -0.15533
C_ C_ 0.963758 0.415994 0.882914 -0.15533
C_ C_ 0.911617 0.42645 0.883915 0.02923
C_ C_ 0.892378 0.477455 0.893279 -0.15533
C_ C_ 0.921943 0.517733 0.886053 0.02923
C_ C_ 0.895289 0.0734736 0.876462 0.69207
C_ C_ 0.898977 0.32864 0.886746 0.69661
C_ C_ 0.566087 0.311372 0.585346 0.18167
C_ C_ 0.522242 0.286087 0.566749 -0.15533
C_ C_ 0.511134 0.278504 0.515681 0.02923
C_ C_ 0.55319 0.286069 0.982824 -0.15533
C_ C_ 0.589121 0.314663 0.503282 0.18167
C_ C_ 0.718178 0.279626 0.622439 0.18167
C_ C_ 0.739293 0.249798 0.663617 -0.15533
C_ C_ 0.736951 0.266824 0.714772 0.02923
C_ C_ 0.723871 0.321497 0.722045 -0.15533
C_ C_ 0.702123 0.350022 0.681456 0.18167
C_ C_ 0.74026 0.365331 0.532805 0.69207
C_ C_ 0.777067 0.385803 1.00661361 0.02923
C_ C_ 0.753977 0.391785 0.956965 -0.15533
C_ C_ 0.78646 0.389755 0.917741 -0.15533
C_ C_ 0.837149 0.396936 0.928363 0.02923
C_ C_ 0.857885 0.402787 0.97716 -0.15533
C_ C_ 0.830117 0.389636 0.017356 0.02923
C_ C_ 0.849033 0.383751 0.558262 0.69207
C_ C_ 0.844786 0.386771 0.827299 0.69661
C_ C_ 0.806528 0.470571 0.651089 0.18167
C_ C_ 0.768752 0.494065 0.681134 -0.15533
C_ C_ 0.779419 0.508176 0.73316 0.02923
C_ C_ 0.817103 0.0160365 0.747286 -0.15533
C_ C_ 0.865712 0.467953 0.727846 0.18167
C_ C_ 0.974353 0.335323 0.678695 0.18167
C_ C_ 0.51462 0.3154 0.721517 -0.15533
C_ C_ 0.960906 0.26836 0.735093 0.02923
C_ C_ 0.908779 0.280955 0.724115 -0.15533
C_ C_ 0.89057 0.323792 0.693973 0.18167
C_ C_ 0.987804 0.449982 0.618703 0.69207
C_ C_ 0.518594 0.993121 0.618195 0.02923
C_ C_ 0.499962 0.0445121 0.623617 -0.15533
C_ C_ 0.526435 0.0829126 0.608279 -0.15533
C_ C_ 0.576508 0.0709214 0.593279 0.02923
C_ C_ 0.59089 0.0186502 0.579676 -0.15533
C_ C_ 0.565435 0.979773 0.597359 0.02923
C_ C_ 0.595266 0.43216 0.607775 0.69207
C_ C_ 0.592531 0.169031 0.596253 0.69661
C_ C_ 0.94203 0.182416 0.922952 0.18167
C_ C_ 0.982321 0.206013 0.947767 -0.15533
C_ C_ 0.975055 0.240763 -0.01258999999999999 0.02923
C_ C_ 0.926422 0.258412 0.503611 -0.15533
C_ C_ 0.885568 0.226923 0.980061 0.18167
C_ C_ 0.754269 0.209388 0.8435 0.18167
C_ C_ 0.728977 0.23272 0.799653 -0.15533
C_ C_ 0.758028 0.234134 0.75845 0.02923
C_ C_ 0.805491 0.206516 0.758649 -0.15533
C_ C_ 0.830019 0.188871 0.803652 0.18167
C_ C_ 0.76286 0.128456 0.946433 0.69207
C_ C_ 0.728851 0.116519 0.49506 0.02923
C_ C_ 0.742814 0.116856 0.547908 -0.15533
C_ C_ 0.706703 0.111419 0.581243 -0.15533
C_ C_ 0.657102 0.101001 0.565243 0.02923
C_ C_ 0.643744 0.0943556 0.511715 -0.15533
C_ C_ 0.678869 0.103009 0.476735 0.02923
C_ C_ 0.647971 0.118635 0.920466 0.69207
C_ C_ 0.637326 0.106744 0.659482 0.69661
C_ C_ 0.872697 0.385275 0.883516 -0.30787
C_ C_ 0.615671 0.11141 0.601784 -0.30787
N_ N_ 0.63769 0.0615355 0.809238 -0.32189
N_ N_ 0.550588 0.150567 0.815239 -0.32189
N_ N_ 0.600707 0.318109 0.554768 -0.32189
N_ N_ 0.69552 0.328217 0.633405 -0.32189
N_ N_ 0.855176 0.457346 0.676494 -0.32189
N_ N_ 0.923534 0.350416 0.672606 -0.32189
N_ N_ 0.893964 0.196447 0.936638 -0.32189
N_ N_ 0.804838 0.189639 0.84481 -0.32189
O_ O_ -0.005166000000000004 0.0862407 0.873945 -0.63271
O_ O_ 0.531993 0.048491 0.835737 -0.57982
O_ O_ 0.893706 0.0951429 0.832756 -0.63271
O_ O_ 0.870935 0.0973124 0.913739 -0.57982
O_ O_ 0.743702 0.394277 0.573836 -0.63271
O_ O_ 0.695092 0.345286 0.519088 -0.57982
O_ O_ 0.84307 0.348439 0.58925 -0.63271
O_ O_ 0.877315 0.418755 0.575437 -0.57982
O_ O_ 0.486372 0.410524 0.589402 -0.63271
O_ O_ 0.95588 0.455751 0.653931 -0.57982
O_ O_ 0.595 0.407747 0.649567 -0.63271
O_ O_ 0.631602 0.416839 0.576071 -0.57982
O_ O_ 0.768201 0.095083 0.908643 -0.63271
O_ O_ 0.796047 0.164174 0.955355 -0.57982
O_ O_ 0.658466 0.158141 0.896255 -0.63271
O_ O_ 0.607667 0.0949754 0.905986 -0.57982
F_ F_ 0.933723 0.32276 0.926972 -0.20885
F_ F_ 0.929273 0.314382 0.847426 -0.20885
F_ F_ 0.863431 0.291989 0.882491 -0.20885
F_ F_ 0.814595 0.434375 0.820417 -0.20885
F_ F_ 0.815168 0.346204 0.811218 -0.20885
F_ F_ 0.884877 0.379282 0.792944 -0.20885
F_ F_ 0.5592 0.175964 0.553273 -0.20885
F_ F_ 0.568429 0.185147 0.637815 -0.20885
F_ F_ 0.630103 0.199028 0.594323 -0.20885
F_ F_ 0.666202 0.0608747 0.667038 -0.20885
F_ F_ 0.667472 0.141325 0.682625 -0.20885
F_ F_ 0.601298 0.106266 0.692156 -0.20885
Zn Zn 0.595304 0.587903 0.353472 0.83971
Zn Zn 0.663753 0.839889 0.0946042 0.83971
Zn Zn 0.911709 0.913689 0.157813 0.83971
Zn Zn 0.846907 0.655467 0.419294 0.83971
H_ H_ 0.674495 0.634406 0.312575 0.10394
H_ H_ 0.758823 0.598457 0.284914 0.10394
H_ H_ 0.718505 0.943699 0.302378 0.10394
H_ H_ 0.634834 0.484127 0.319458 0.10394
H_ H_ 0.00814279 0.599535 0.260924 0.10394
H_ H_ 0.977421 0.670819 0.206911 0.10394
H_ H_ 0.542914 0.776413 0.35027 0.10394
H_ H_ 0.574935 0.698864 0.393501 0.10394
H_ H_ 0.530805 0.944403 0.375968 0.10394
H_ H_ 0.984462 0.88315 0.393249 0.10394
H_ H_ 0.85418 0.994986 0.411676 0.10394
H_ H_ 0.574766 0.817791 0.132397 0.10394
H_ H_ 1.00422521 0.764658 0.0937806 0.10394
H_ H_ 0.518673 0.811314 0.449921 0.10394
H_ H_ 0.629124 0.804699 0.989814 0.10394
H_ H_ 0.7199 0.742135 0.104221 0.10394
H_ H_ 0.76095 0.693206 0.180304 0.10394
H_ H_ 0.720679 0.826919 0.282815 0.10394
H_ H_ 0.676438 0.868735 0.205385 0.10394
H_ H_ 0.712338 0.87534 0.448104 0.10394
H_ H_ 0.765674 0.901863 0.385078 0.10394
H_ H_ 0.891317 0.906009 0.494134 0.10394
H_ H_ 0.817405 0.891232 0.176027 0.10394
H_ H_ 0.741023 0.928383 0.213118 0.10394
H_ H_ 0.837403 0.55057 0.269145 0.10394
H_ H_ 0.898776 1.00860485 0.240255 0.10394
H_ H_ 0.51642 0.891002 0.21787 0.10394
H_ H_ 0.557713 0.821578 0.267432 0.10394
H_ H_ 0.900589 0.751865 0.248045 0.10394
H_ H_ 0.861297 0.829217 0.208553 0.10394
H_ H_ 0.960155 0.55014 0.118603 0.10394
H_ H_ 0.519295 0.623173 0.104615 0.10394
H_ H_ 0.64346 0.511122 0.0855829 0.10394
H_ H_ 0.947773 0.654128 0.397948 0.10394
H_ H_ 0.516388 0.694467 0.447211 0.10394
H_ H_ 0.92141 0.773408 0.0460151 0.10394
H_ H_ 0.850501 0.736964 0.500606 0.10394
H_ H_ 0.746079 0.704494 0.397589 0.10394
H_ H_ 0.699004 0.731448 0.318726 0.10394
H_ H_ 0.839515 0.71043 0.250238 0.10394
H_ H_ 0.882758 0.686806 0.334766 0.10394
H_ H_ 0.78365 0.634985 0.0588526 0.10394
H_ H_ 0.7286 0.629609 0.122955 0.10394
H_ H_ 0.60631 0.591861 0.0100427 0.10394
C_ C_ 0.685569 0.594025 0.310504 0.18167
C_ C_ 0.727961 0.574892 0.284554 -0.15533
C_ C_ 0.735406 0.523017 0.270014 0.02923
C_ C_ 0.705816 0.984459 0.299821 -0.15533
C_ C_ 0.661794 0.509945 0.31229 0.18167
C_ C_ 0.545553 0.641357 0.277274 0.18167
C_ C_ -0.0042200000000000015 0.676078 0.247876 -0.15533
C_ C_ 0.516262 0.731043 0.280106 0.02923
C_ C_ 0.538931 0.738062 0.330064 -0.15533
C_ C_ 0.563447 0.694305 0.353667 0.18167
C_ C_ 0.511682 0.550303 0.37366 0.69207
C_ C_ 0.972959 0.0100094 0.378029 0.02923
C_ C_ -0.004774999999999974 0.958941 0.38034 -0.15533
C_ C_ 0.965119 0.920499 0.391987 -0.15533
C_ C_ 0.913089 0.930429 0.402402 0.02923
C_ C_ 0.893743 0.984077 0.405195 -0.15533
C_ C_ 0.920817 0.0209528 0.390058 0.02923
C_ C_ 0.895306 0.567381 0.378196 0.69207
C_ C_ 0.901922 0.837137 0.396723 0.69661
C_ C_ 0.568978 0.807704 0.0917294 0.18167
C_ C_ 0.523229 0.788727 0.0708172 -0.15533
C_ C_ 0.517927 0.770006 0.0210381 0.02923
C_ C_ 0.535297 0.801479 0.488542 -0.15533
C_ C_ 0.599747 0.799028 0.0125155 0.18167
C_ C_ 0.719104 0.7591 0.14348 0.18167
C_ C_ 0.74535 0.734064 0.185176 -0.15533
C_ C_ 0.746248 0.758682 0.234318 0.02923
C_ C_ 0.72269 0.808979 0.243258 -0.15533
C_ C_ 0.697529 0.832872 0.199664 0.18167
C_ C_ 0.739931 0.873745 0.0555919 0.69207
C_ C_ 0.771986 0.875771 0.510361 0.02923
C_ C_ 0.751104 0.877284 0.458678 -0.15533
C_ C_ 0.783683 0.887166 0.421095 -0.15533
C_ C_ 0.835015 0.89645 0.434605 0.02923
C_ C_ 0.854033 0.895401 0.484874 -0.15533
C_ C_ 0.825899 0.877911 0.521781 0.02923
C_ C_ 0.854744 0.884126 0.0789243 0.69207
C_ C_ 0.849326 0.894863 0.338207 0.69661
C_ C_ 0.81963 0.926868 0.197916 0.18167
C_ C_ 0.774344 0.950172 0.214846 -0.15533
C_ C_ 0.775195 0.996435 0.243517 0.02923
C_ C_ 0.829792 0.517203 0.246614 -0.15533
C_ C_ 0.864665 0.99428 0.226856 0.18167
C_ C_ 0.984027 0.847848 0.202273 0.18167
C_ C_ 0.520578 0.818828 0.24555 -0.15533
C_ C_ 0.980277 0.772397 0.248543 0.02923
C_ C_ 0.926264 0.780067 0.238325 -0.15533
C_ C_ 0.902095 0.821772 0.212604 0.18167
C_ C_ 0.984529 0.950705 0.11957 0.69207
C_ C_ 0.520647 0.495468 0.106501 0.02923
C_ C_ 0.503595 0.546894 0.11205 -0.15533
C_ C_ 0.536281 0.585917 0.110923 -0.15533
C_ C_ 0.58757 0.571702 0.103974 0.02923
C_ C_ 0.604101 0.521804 0.0926518 -0.15533
C_ C_ 0.573057 0.481665 0.0975379 0.02923
C_ C_ 0.600029 0.925364 0.12157 0.69207
C_ C_ 0.604172 0.667174 0.113752 0.69661
C_ C_ 0.942664 0.679745 0.429789 0.18167
C_ C_ 0.986397 0.694072 0.456972 -0.15533
C_ C_ 0.978994 0.73257 0.49701 0.02923
C_ C_ 0.927478 0.749889 1.0118391 -0.15533
C_ C_ 0.889656 0.727041 0.48985 0.18167
C_ C_ 0.763894 0.704522 0.364069 0.18167
C_ C_ 0.738564 0.72196 0.319584 -0.15533
C_ C_ 0.767201 0.72794 0.277218 0.02923
C_ C_ 0.82009 0.713046 0.282561 -0.15533
C_ C_ 0.842699 0.692311 0.328149 0.18167
C_ C_ 0.77282 0.618181 0.45816 0.69207
C_ C_ 0.725447 0.626722 0.995434 0.02923
C_ C_ 0.745998 0.62503 0.0457201 -0.15533
C_ C_ 0.71382 0.618678 0.0839987 -0.15533
C_ C_ 0.663527 0.606625 0.0724469 0.02923
C_ C_ 0.643832 0.604474 0.0206239 -0.15533
C_ C_ 0.67606 0.61123 0.982109 0.02923
C_ C_ 0.653344 0.609428 0.429742 0.69207
C_ C_ 0.654108 0.604744 0.167081 0.69661
C_ C_ 0.872565 0.89208 0.392618 -0.30787
C_ C_ 0.627391 0.611013 0.112413 -0.30787
N_ N_ 0.652681 0.560993 0.321444 -0.32189
N_ N_ 0.562316 0.646929 0.327663 -0.32189
N_ N_ 0.605604 0.8115 0.0625552 -0.32189
N_ N_ 0.695469 0.807608 0.152488 -0.32189
N_ N_ 0.864448 0.94762 0.204234 -0.32189
N_ N_ 0.933517 0.854288 0.19444 -0.32189
N_ N_ 0.895143 0.69477 0.446626 -0.32189
N_ N_ 0.813691 0.688939 0.366943 -0.32189
O_ O_ 0.0040066 0.58341 0.39845 -0.63271
O_ O_ 0.549884 0.538624 0.344989 -0.57982
O_ O_ 0.901673 0.592742 0.340211 -0.63271
O_ O_ 0.869442 0.58696 0.415654 -0.57982
O_ O_ 0.754339 0.874287 0.104057 -0.63271
O_ O_ 0.701636 0.846354 0.0399037 -0.57982
O_ O_ 0.86413 0.840751 0.102876 -0.63271
O_ O_ 0.875851 0.925218 0.0979021 -0.57982
O_ O_ 0.497686 0.907044 0.115846 -0.63271
O_ O_ 0.958294 0.959878 0.159743 -0.57982
O_ O_ 0.586945 0.900298 0.159171 -0.63271
O_ O_ 0.640332 0.907885 0.100923 -0.57982
O_ O_ 0.765249 0.601216 0.409358 -0.63271
O_ O_ 0.807151 0.650373 0.46746 -0.57982
O_ O_ 0.65552 0.648931 0.402669 -0.63271
O_ O_ 0.620309 0.577766 0.416394 -0.57982
F_ F_ 0.935449 0.825878 0.438594 -0.20885
F_ F_ 0.929442 0.819265 0.356243 -0.20885
F_ F_ 0.868267 0.802076 0.399724 -0.20885
F_ F_ 0.819396 0.943217 0.334626 -0.20885
F_ F_ 0.818636 0.856117 0.322719 -0.20885
F_ F_ 0.886236 0.893944 0.303701 -0.20885
F_ F_ 0.577917 0.676616 0.066447 -0.20885
F_ F_ 0.571268 0.674814 0.153568 -0.20885
F_ F_ 0.6406 0.701574 0.120661 -0.20885
F_ F_ 0.68571 0.560668 0.168733 -0.20885
F_ F_ 0.679414 0.644842 0.1907 -0.20885
F_ F_ 0.618251 0.601692 0.20203 -0.20885
Zn Zn 0.59586 0.58139 0.852821 0.83971
Zn Zn 0.653888 0.852514 0.584116 0.83971
Zn Zn 0.904351 0.911275 0.655255 0.83971
Zn Zn 0.837692 0.653841 0.913439 0.83971
H_ H_ 0.683592 0.628517 0.819259 0.10394
H_ H_ 0.761895 0.597958 0.786665 0.10394
H_ H_ 0.709967 0.949854 0.80569 0.10394
H_ H_ 0.62712 0.486294 0.789418 0.10394
H_ H_ 0.0226129 0.597061 0.763219 0.10394
H_ H_ 0.973408 0.668861 0.723864 0.10394
H_ H_ 0.534939 0.765641 0.83847 0.10394
H_ H_ 0.574204 0.691733 0.883747 0.10394
H_ H_ 0.528467 0.952569 0.863046 0.10394
H_ H_ 0.958686 0.876361 0.860345 0.10394
H_ H_ 0.842027 0.998985 0.89408 0.10394
H_ H_ 0.582877 0.794691 0.635679 0.10394
H_ H_ 0.0017499999999999183 0.762296 0.596175 0.10394
H_ H_ 0.558839 0.750092 0.954027 0.10394
H_ H_ 0.599095 0.841922 0.483801 0.10394
H_ H_ 0.716621 0.761219 0.592587 0.10394
H_ H_ 0.754965 0.708027 0.666316 0.10394
H_ H_ 0.696862 0.82559 0.771599 0.10394
H_ H_ 0.660714 0.876671 0.698888 0.10394
H_ H_ 0.707095 0.9011 0.9627 0.10394
H_ H_ 0.751941 0.928027 0.89882 0.10394
H_ H_ 0.894282 0.911035 0.9955 0.10394
H_ H_ 0.807548 0.883858 0.671943 0.10394
H_ H_ 0.731781 0.927181 0.71489 0.10394
H_ H_ 0.841962 0.512285 0.791555 0.10394
H_ H_ 0.890286 1.00913694 0.718305 0.10394
H_ H_ 0.51849 0.866296 0.676841 0.10394
H_ H_ 0.558426 0.799559 0.731746 0.10394
H_ H_ 0.911975 0.750372 0.745455 0.10394
H_ H_ 0.868936 0.820351 0.696051 0.10394
H_ H_ 0.964162 0.55176 0.623933 0.10394
H_ H_ 0.510801 0.627951 0.601099 0.10394
H_ H_ 0.647396 0.515929 0.599804 0.10394
H_ H_ 0.933846 0.673764 0.880725 0.10394
H_ H_ 0.522565 0.666542 0.990657 0.10394
H_ H_ 0.924835 0.785782 0.541594 0.10394
H_ H_ 0.856253 0.72052 1.0112915 0.10394
H_ H_ 0.732699 0.693606 0.880949 0.10394
H_ H_ 0.684217 0.728499 0.805648 0.10394
H_ H_ 0.829834 0.724785 0.743672 0.10394
H_ H_ 0.872226 0.684141 0.814385 0.10394
H_ H_ 0.788063 0.623565 0.564268 0.10394
H_ H_ 0.729682 0.622983 0.623597 0.10394
H_ H_ 0.608097 0.606975 0.505991 0.10394
C_ C_ 0.687724 0.588602 0.809052 0.18167
C_ C_ 0.733065 0.570056 0.787736 -0.15533
C_ C_ 0.738223 0.521897 0.764954 0.02923
C_ C_ 0.6962 0.987706 0.792017 -0.15533
C_ C_ 0.655975 0.509095 0.790282 0.18167
C_ C_ 0.531802 0.630008 0.775969 0.18167
C_ C_ -0.000389134 0.675408 0.756604 -0.15533
C_ C_ 0.51254 0.720669 0.767801 0.02923
C_ C_ 0.531693 0.72837 0.819779 -0.15533
C_ C_ 0.55449 0.685715 0.847446 0.18167
C_ C_ 0.509828 0.54171 0.864258 0.69207
C_ C_ 0.963396 0.00244019 0.859694 0.02923
C_ C_ -0.019572000000000034 0.949408 0.85756 -0.15533
C_ C_ 0.947536 0.915123 0.870862 -0.15533
C_ C_ 0.898515 0.932179 0.887439 0.02923
C_ C_ 0.883349 0.985519 0.889277 -0.15533
C_ C_ 0.91543 0.0204087 0.878026 0.02923
C_ C_ 0.899192 0.570992 0.886734 0.69207
C_ C_ 0.881673 0.838698 0.898659 0.69661
C_ C_ 0.568818 0.799242 0.593873 0.18167
C_ C_ 0.525087 0.776173 0.573198 -0.15533
C_ C_ 0.509775 0.773727 0.520347 0.02923
C_ C_ 0.556478 0.775937 0.990696 -0.15533
C_ C_ 0.580716 0.82139 0.508787 0.18167
C_ C_ 0.712495 0.772828 0.632002 0.18167
C_ C_ 0.73154 0.744003 0.672394 -0.15533
C_ C_ 0.726455 0.764171 0.723124 0.02923
C_ C_ 0.695784 0.808709 0.732106 -0.15533
C_ C_ 0.679847 0.838244 0.69073 0.18167
C_ C_ 0.738437 0.868896 0.55019 0.69207
C_ C_ 0.772679 0.88811 1.017365 0.02923
C_ C_ 0.749227 0.902895 0.971532 -0.15533
C_ C_ 0.776552 0.913779 0.931844 -0.15533
C_ C_ 0.829486 0.910445 0.936935 0.02923
C_ C_ 0.853443 0.903058 0.987194 -0.15533
C_ C_ 0.826078 0.887596 0.0266852 0.02923
C_ C_ 0.849438 0.878876 0.575694 0.69207
C_ C_ 0.83003 0.89208 0.836554 0.69661
C_ C_ 0.80821 0.922772 0.691979 0.18167
C_ C_ 0.768325 0.944213 0.718212 -0.15533
C_ C_ 0.770511 -0.007194000000000034 0.743354 0.02923
C_ C_ 0.82977 0.499263 0.753372 -0.15533
C_ C_ 0.855695 0.993194 0.717349 0.18167
C_ C_ 0.986664 0.847506 0.702257 0.18167
C_ C_ 0.519151 0.80026 0.720669 -0.15533
C_ C_ 0.98612 0.770003 0.742395 0.02923
C_ C_ 0.932592 0.776352 0.731476 -0.15533
C_ C_ 0.908236 0.813889 0.699227 0.18167
C_ C_ 0.9894 0.949478 0.62425 0.69207
C_ C_ 0.51817 0.497766 0.599337 0.02923
C_ C_ 0.499325 0.550653 0.598191 -0.15533
C_ C_ 0.531489 0.589977 0.599213 -0.15533
C_ C_ 0.583754 0.5781 0.605454 0.02923
C_ C_ 0.605065 0.526083 0.603019 -0.15533
C_ C_ 0.573755 0.486007 0.607275 0.02923
C_ C_ 0.596093 0.928763 0.602809 0.69207
C_ C_ 0.59587 0.672631 0.60568 0.69661
C_ C_ 0.932282 0.691373 0.918887 0.18167
C_ C_ 0.976663 0.709581 0.944177 -0.15533
C_ C_ 0.972713 0.742539 0.990072 0.02923
C_ C_ 0.930104 0.751322 0.513638 -0.15533
C_ C_ 0.888452 0.721331 0.990976 0.18167
C_ C_ 0.753837 0.698769 0.849163 0.18167
C_ C_ 0.726421 0.721603 0.805945 -0.15533
C_ C_ 0.752495 0.734642 0.766417 0.02923
C_ C_ 0.804668 0.717603 0.769198 -0.15533
C_ C_ 0.831148 0.694449 0.812254 0.18167
C_ C_ 0.758732 0.626605 0.956656 0.69207
C_ C_ 0.732191 0.615981 0.495565 0.02923
C_ C_ 0.745784 0.623031 0.547412 -0.15533
C_ C_ 0.713281 0.619364 0.585022 -0.15533
C_ C_ 0.662504 0.610179 0.572207 0.02923
C_ C_ 0.649148 0.602123 0.519142 -0.15533
C_ C_ 0.680833 0.606682 0.480809 0.02923
C_ C_ 0.656238 0.606466 0.928702 0.69207
C_ C_ 0.644351 0.619057 0.667747 0.69661
C_ C_ 0.858905 0.894959 0.890978 -0.30787
C_ C_ 0.62111 0.619964 0.610663 -0.30787
N_ N_ 0.65445 0.554627 0.817558 -0.32189
N_ N_ 0.555419 0.637389 0.825298 -0.32189
N_ N_ 0.597469 0.818626 0.560016 -0.32189
N_ N_ 0.684848 0.818566 0.643491 -0.32189
N_ N_ 0.852499 0.945891 0.694635 -0.32189
N_ N_ 0.936157 0.850814 0.689116 -0.32189
N_ N_ 0.890272 0.697229 0.943743 -0.32189
N_ N_ 0.805651 0.685493 0.853374 -0.32189
O_ O_ 1.00443953 0.589788 0.899515 -0.63271
O_ O_ 0.554809 0.529491 0.844805 -0.57982
O_ O_ 0.900355 0.597115 0.84536 -0.63271
O_ O_ 0.865416 0.588851 0.917833 -0.57982
O_ O_ 0.745533 0.889922 0.596623 -0.63271
O_ O_ 0.696743 0.845031 0.53464 -0.57982
O_ O_ 0.852247 0.840286 0.603769 -0.63271
O_ O_ 0.879039 0.913353 0.590538 -0.57982
O_ O_ 0.485122 0.912074 0.597522 -0.63271
O_ O_ 0.952661 0.959255 0.652492 -0.57982
O_ O_ 0.586152 0.898586 0.638356 -0.63271
O_ O_ 0.63638 0.916761 0.579638 -0.57982
O_ O_ 0.760639 0.590851 0.918409 -0.63271
O_ O_ 0.788631 0.662562 0.956724 -0.57982
O_ O_ 0.653967 0.647124 0.900008 -0.63271
O_ O_ 0.623469 0.573066 0.915675 -0.57982
F_ F_ 0.919334 0.832425 0.940674 -0.20885
F_ F_ 0.900744 0.811632 0.856965 -0.20885
F_ F_ 0.84255 0.809998 0.905188 -0.20885
F_ F_ 0.802179 0.937933 0.827784 -0.20885
F_ F_ 0.794245 0.855018 0.826207 -0.20885
F_ F_ 0.863672 0.883282 0.797748 -0.20885
F_ F_ 0.56678 0.672274 0.560347 -0.20885
F_ F_ 0.567016 0.690829 0.646539 -0.20885
F_ F_ 0.629678 0.710398 0.605821 -0.20885
F_ F_ 0.680999 0.579161 0.675138 -0.20885
F_ F_ 0.667268 0.660185 0.686246 -0.20885
F_ F_ 0.607779 0.609729 0.700371 -0.20885
_cell_length_a 26.508
_cell_length_b 26.37200000322088
_cell_length_c 26.311999743092066
_cell_angle_alpha 93.74100058972084
_cell_angle_beta 96.04100104955006
_cell_angle_gamma 83.6869992558723
_symmetry_space_group_name_H-M         'P 1'
_symmetry_Int_Tables_number            1
loop_
_symmetry_equiv_pos_as_xyz
   'x, y, z'
                         
loop_
_atom_site_label
_atom_site_type_symbol
_atom_site_fract_x 
_atom_site_fract_y
_atom_site_fract_z
_atom_site_charge
Zn Zn 0.0869784 0.0835465 0.341302 0.83971
Zn Zn 0.16376 0.343635 0.0813863 0.83971
Zn Zn 0.414136 0.416424 0.157166 0.83971
Zn Zn 0.342223 0.159759 0.415359 0.83971
H_ H_ 0.172424 0.13875 0.309975 0.10394
H_ H_ 0.238133 0.106917 0.257115 0.10394
H_ H_ 0.199912 0.43952 0.273936 0.10394
H_ H_ 0.133578 0.987154 0.316185 0.10394
H_ H_ 0.529646 0.0966701 0.255341 0.10394
H_ H_ 0.511005 0.170737 0.199914 0.10394
H_ H_ 0.035737 0.267075 0.328959 0.10394
H_ H_ 0.0751821 0.189022 0.371948 0.10394
H_ H_ 0.0288858 0.43979 0.34568 0.10394
H_ H_ 0.476381 0.382324 0.370859 0.10394
H_ H_ 0.362895 0.489737 0.426377 0.10394
H_ H_ 0.0730057 0.309344 0.128352 0.10394
H_ H_ 0.506189 0.267748 0.0944196 0.10394
H_ H_ 0.054181 0.267798 0.431238 0.10394
H_ H_ 0.125764 0.31091 0.983146 0.10394
H_ H_ 0.222371 0.242106 0.0947345 0.10394
H_ H_ 0.262912 0.196646 0.168093 0.10394
H_ H_ 0.220388 0.333437 0.26224 0.10394
H_ H_ 0.183568 0.375481 0.18677 0.10394
H_ H_ 0.219247 0.351758 0.440827 0.10394
H_ H_ 0.266059 0.373562 0.372319 0.10394
H_ H_ 0.393355 0.407242 0.484542 0.10394
H_ H_ 0.31113 0.396315 0.161562 0.10394
H_ H_ 0.23273 0.440812 0.188759 0.10394
H_ H_ 0.329929 0.0556949 0.279734 0.10394
H_ H_ 0.398674 0.508668 0.23091 0.10394
H_ H_ 0.00764165 0.385698 0.20129 0.10394
H_ H_ 0.0525416 0.304767 0.228909 0.10394
H_ H_ 0.419907 0.260712 0.256253 0.10394
H_ H_ 0.378258 0.327656 0.200895 0.10394
H_ H_ 0.46229 0.0501052 0.107957 0.10394
H_ H_ 0.00425118 0.119801 0.101007 0.10394
H_ H_ 0.137159 0.0113977 0.0870493 0.10394
H_ H_ 0.443718 0.169531 0.392238 0.10394
H_ H_ 0.0131115 0.193123 0.435471 0.10394
H_ H_ 0.424 0.27318 0.0489072 0.10394
H_ H_ 0.343583 0.234572 0.500268 0.10394
H_ H_ 0.239958 0.203992 0.384755 0.10394
H_ H_ 0.197435 0.245181 0.307342 0.10394
H_ H_ 0.341258 0.222898 0.2419 0.10394
H_ H_ 0.37935 0.18328 0.316664 0.10394
H_ H_ 0.282665 0.105803 0.0492823 0.10394
H_ H_ 0.227315 0.0925144 0.112711 0.10394
H_ H_ 0.0969193 0.103788 0.0014499999999999513 0.10394
C_ C_ 0.179305 0.0963413 0.301843 0.18167
C_ C_ 0.221605 0.0788295 0.276092 -0.15533
C_ C_ 0.23008 0.0264383 0.263446 0.02923
C_ C_ 0.19528 0.481803 0.283871 -0.15533
C_ C_ 0.157325 0.0132122 0.305278 0.18167
C_ C_ 0.0318272 0.134155 0.263622 0.18167
C_ C_ 0.518212 0.178061 0.241734 -0.15533
C_ C_ 0.00911608 0.225278 0.258783 0.02923
C_ C_ 0.0359873 0.231923 0.308615 -0.15533
C_ C_ 0.0608891 0.186767 0.33314 0.18167
C_ C_ 0.0022586 0.0502279 0.361971 0.69207
C_ C_ 0.475635 0.510129 0.379313 0.02923
C_ C_ 0.489652 0.457321 0.367601 -0.15533
C_ C_ 0.459635 0.420456 0.374363 -0.15533
C_ C_ 0.411141 0.430604 0.389165 0.02923
C_ C_ 0.397368 0.482339 0.406514 -0.15533
C_ C_ 0.423852 0.522903 0.394523 0.02923
C_ C_ 0.398839 0.0734696 0.392899 0.69207
C_ C_ 0.401979 0.330445 0.38439 0.69661
C_ C_ 0.0689834 0.298736 0.0868334 0.18167
C_ C_ 0.0223504 0.285224 0.064177 -0.15533
C_ C_ 0.0194497 0.267837 0.0132772 0.02923
C_ C_ 0.0573639 0.273226 0.474381 -0.15533
C_ C_ 0.0982588 0.303615 0.00585706 0.18167
C_ C_ 0.222353 0.261762 0.13277 0.18167
C_ C_ 0.242294 0.23606 0.173103 -0.15533
C_ C_ 0.244166 0.260604 0.22187 0.02923
C_ C_ 0.225548 0.312834 0.225819 -0.15533
C_ C_ 0.20237 0.336753 0.183445 0.18167
C_ C_ 0.243954 0.367705 0.0453737 0.69207
C_ C_ 0.273782 0.374976 0.502835 0.02923
C_ C_ 0.256403 0.361831 0.450085 -0.15533
C_ C_ 0.28581 0.375553 0.411883 -0.15533
C_ C_ 0.33558 0.389661 0.422868 0.02923
C_ C_ 0.35183 0.401819 0.476625 -0.15533
C_ C_ 0.323998 0.387422 0.515287 0.02923
C_ C_ 0.357824 0.378226 0.0747937 0.69207
C_ C_ 0.351256 0.392434 0.325428 0.69661
C_ C_ 0.312121 0.431396 0.1807 0.18167
C_ C_ 0.270553 0.454109 0.201415 -0.15533
C_ C_ 0.274897 0.492909 0.237693 0.02923
C_ C_ 0.327118 0.0220076 0.252764 -0.15533
C_ C_ 0.36273 0.493163 0.223124 0.18167
C_ C_ 0.499122 0.351052 0.198652 0.18167
C_ C_ 0.0138236 0.310586 0.220937 -0.15533
C_ C_ 0.495053 0.272494 0.240275 0.02923
C_ C_ 0.44138 0.283693 0.234871 -0.15533
C_ C_ 0.418849 0.323545 0.207451 0.18167
C_ C_ 0.486936 0.456548 0.11955 0.69207
C_ C_ 0.0157966 0.991216 0.109112 0.02923
C_ C_ -0.005693999999999977 0.0423315 0.107403 -0.15533
C_ C_ 0.0233092 0.0803591 0.0973416 -0.15533
C_ C_ 0.0775679 0.0689062 0.0957375 0.02923
C_ C_ 0.0968519 0.0200921 0.0946102 -0.15533
C_ C_ 0.0693242 0.98035 0.106584 0.02923
C_ C_ 0.0960582 0.421434 0.106521 0.69207
C_ C_ 0.0928078 0.16669 0.101075 0.69661
C_ C_ 0.439911 0.183851 0.430894 0.18167
C_ C_ 0.479259 0.209377 0.457318 -0.15533
C_ C_ 0.473237 0.242181 0.498892 0.02923
C_ C_ 0.430661 0.247694 0.0183977 -0.15533
C_ C_ 0.382938 0.226974 0.490663 0.18167
C_ C_ 0.261582 0.205837 0.353235 0.18167
C_ C_ 0.236529 0.230592 0.310137 -0.15533
C_ C_ 0.266104 0.233951 0.267096 0.02923
C_ C_ 0.316214 0.215346 0.271495 -0.15533
C_ C_ 0.337982 0.18831 0.313912 0.18167
C_ C_ 0.262755 0.11977 0.4501 0.69207
C_ C_ 0.22078 0.109785 0.984925 0.02923
C_ C_ 0.241163 0.106014 0.038212 -0.15533
C_ C_ 0.208652 0.0973426 0.0758493 -0.15533
C_ C_ 0.154329 0.103268 0.0641669 0.02923
C_ C_ 0.136872 0.103946 0.0123278 -0.15533
C_ C_ 0.167842 0.108231 0.973006 0.02923
C_ C_ 0.15095 0.104192 0.421928 0.69207
C_ C_ 0.142533 0.110231 0.160269 0.69661
C_ C_ 0.375871 0.385977 0.382049 -0.30787
C_ C_ 0.116296 0.11038 0.10418 -0.30787
N_ N_ 0.143704 0.0631052 0.306939 -0.32189
N_ N_ 0.0543625 0.140553 0.312735 -0.32189
N_ N_ 0.106609 0.306804 0.0570471 -0.32189
N_ N_ 0.195983 0.309009 0.138065 -0.32189
N_ N_ 0.358028 0.451451 0.189003 -0.32189
N_ N_ 0.4471 0.358266 0.191591 -0.32189
N_ N_ 0.392611 0.19518 0.448189 -0.32189
N_ N_ 0.31082 0.184474 0.353578 -0.32189
O_ O_ 0.511754 0.0891603 0.394405 -0.63271
O_ O_ 0.0412683 0.0387625 0.334039 -0.57982
O_ O_ 0.393978 0.0978204 0.349857 -0.63271
O_ O_ 0.374327 0.0949858 0.430278 -0.57982
O_ O_ 0.24503 0.391443 0.0923833 -0.63271
O_ O_ 0.205918 0.343293 0.0300637 -0.57982
O_ O_ 0.357935 0.335978 0.102704 -0.63271
O_ O_ 0.383767 0.415979 0.0914039 -0.57982
O_ O_ 0.988296 0.405505 0.0937441 -0.63271
O_ O_ 0.454746 0.467819 0.155364 -0.57982
O_ O_ 0.103225 0.403367 0.153698 -0.63271
O_ O_ 0.12843 0.404979 0.0749822 -0.57982
O_ O_ 0.259076 0.0936595 0.404714 -0.63271
O_ O_ 0.291561 0.158414 0.456232 -0.57982
O_ O_ 0.152975 0.146308 0.398285 -0.63271
O_ O_ 0.117607 0.0719111 0.405158 -0.57982
F_ F_ 0.428388 0.324318 0.431364 -0.20885
F_ F_ 0.434678 0.316738 0.346072 -0.20885
F_ F_ 0.364077 0.294854 0.378459 -0.20885
F_ F_ 0.317346 0.43732 0.323961 -0.20885
F_ F_ 0.32334 0.350004 0.306546 -0.20885
F_ F_ 0.38718 0.392317 0.289736 -0.20885
F_ F_ 0.0675872 0.174299 0.0536706 -0.20885
F_ F_ 0.0585332 0.182582 0.136574 -0.20885
F_ F_ 0.130328 0.199568 0.106557 -0.20885
F_ F_ 0.169879 0.0622668 0.167882 -0.20885
F_ F_ 0.168092 0.150821 0.177732 -0.20885
F_ F_ 0.10487 0.109192 0.191882 -0.20885
Zn Zn 0.0790134 0.0832757 0.840612 0.83971
Zn Zn 0.161634 0.342382 0.577712 0.83971
Zn Zn 0.409618 0.424148 0.651661 0.83971
Zn Zn 0.335276 0.159558 0.915981 0.83971
H_ H_ 0.156575 0.126173 0.784632 0.10394
H_ H_ 0.238947 0.0928099 0.759673 0.10394
H_ H_ 0.219494 0.451039 0.795134 0.10394
H_ H_ 0.124713 0.982122 0.822424 0.10394
H_ H_ 0.531185 0.105303 0.747372 0.10394
H_ H_ 0.49146 0.176188 0.700261 0.10394
H_ H_ 0.0215955 0.27388 0.827014 0.10394
H_ H_ 0.0610144 0.196308 0.872782 0.10394
H_ H_ 0.0335905 0.443042 0.878667 0.10394
H_ H_ 0.48829 0.375927 0.887307 0.10394
H_ H_ 0.363856 0.479428 0.913575 0.10394
H_ H_ 0.0873148 0.295621 0.619755 0.10394
H_ H_ 0.499696 0.26989 0.593361 0.10394
H_ H_ 0.0489343 0.278673 0.939022 0.10394
H_ H_ 0.134646 0.294925 0.474043 0.10394
H_ H_ 0.216646 0.243375 0.594555 0.10394
H_ H_ 0.25261 0.197758 0.66849 0.10394
H_ H_ 0.210929 0.329353 0.764285 0.10394
H_ H_ 0.174527 0.376233 0.68219 0.10394
H_ H_ 0.216082 0.399364 0.95142 0.10394
H_ H_ 0.268261 0.399604 0.883076 0.10394
H_ H_ 0.404034 0.379626 0.992492 0.10394
H_ H_ 0.298702 0.409728 0.650664 0.10394
H_ H_ 0.230971 0.456483 0.687634 0.10394
H_ H_ 0.325623 0.029456 0.796517 0.10394
H_ H_ 0.402415 0.502623 0.73243 0.10394
H_ H_ 0.00155373 0.35986 0.665754 0.10394
H_ H_ 0.0334751 0.285651 0.71382 0.10394
H_ H_ 0.405536 0.260165 0.726118 0.10394
H_ H_ 0.368937 0.330728 0.681436 0.10394
H_ H_ 0.460773 0.0533628 0.632563 0.10394
H_ H_ 0.0161043 0.11891 0.608487 0.10394
H_ H_ 0.140283 0.000390305 0.581965 0.10394
H_ H_ 0.4412 0.172812 0.887857 0.10394
H_ H_ 0.0195402 0.190664 0.941053 0.10394
H_ H_ 0.415456 0.280471 0.541573 0.10394
H_ H_ 0.354039 0.230597 0.0101675 0.10394
H_ H_ 0.227055 0.182056 0.872499 0.10394
H_ H_ 0.19241 0.210984 0.79078 0.10394
H_ H_ 0.337817 0.240857 0.753663 0.10394
H_ H_ 0.374515 0.18888 0.823419 0.10394
H_ H_ 0.28541 0.123724 0.547972 0.10394
H_ H_ 0.234794 0.112973 0.618963 0.10394
H_ H_ 0.107489 0.0864544 0.505243 0.10394
C_ C_ 0.168018 0.0886944 0.788164 0.18167
C_ C_ 0.212773 0.0671488 0.768059 -0.15533
C_ C_ 0.226756 0.0132521 0.770742 0.02923
C_ C_ 0.210201 0.492139 0.800833 -0.15533
C_ C_ 0.150204 0.00393213 0.80562 0.18167
C_ C_ 0.0124608 0.135403 0.76522 0.18167
C_ C_ 0.504329 0.183046 0.740114 -0.15533
C_ C_ -0.01793699999999998 0.225843 0.766032 0.02923
C_ C_ 0.0170103 0.234651 0.808831 -0.15533
C_ C_ 0.0431434 0.191486 0.832678 0.18167
C_ C_ 0.000307227 0.0395713 0.853069 0.69207
C_ C_ 0.475629 0.501464 0.871252 0.02923
C_ C_ 0.494452 0.450596 0.868115 -0.15533
C_ C_ 0.467311 0.411618 0.880237 -0.15533
C_ C_ 0.418117 0.421759 0.893971 0.02923
C_ C_ 0.39704 0.473637 0.897076 -0.15533
C_ C_ 0.42725 0.514026 0.889397 0.02923
C_ C_ 0.388746 0.0737116 0.880643 0.69207
C_ C_ 0.403914 0.323494 0.885722 0.69661
C_ C_ 0.0735664 0.298204 0.578809 0.18167
C_ C_ 0.0285942 0.280211 0.560578 -0.15533
C_ C_ 0.0199286 0.266476 0.507148 0.02923
C_ C_ 0.0566724 0.280702 0.98259 -0.15533
C_ C_ 0.103487 0.290511 0.49773 0.18167
C_ C_ 0.21352 0.26068 0.630701 0.18167
C_ C_ 0.233354 0.235844 0.675134 -0.15533
C_ C_ 0.235436 0.260383 0.725007 0.02923
C_ C_ 0.215533 0.31135 0.726198 -0.15533
C_ C_ 0.191892 0.335971 0.681812 0.18167
C_ C_ 0.239256 0.36784 0.541677 0.69207
C_ C_ 0.278422 0.379855 0.00826577 0.02923
C_ C_ 0.257443 0.393377 0.959938 -0.15533
C_ C_ 0.288303 0.391555 0.9205 -0.15533
C_ C_ 0.343452 0.385898 0.92902 0.02923
C_ C_ 0.363169 0.382074 0.980889 -0.15533
C_ C_ 0.331155 0.379144 0.0209376 0.02923
C_ C_ 0.350194 0.389753 0.568119 0.69207
C_ C_ 0.348788 0.388149 0.828892 0.69661
C_ C_ 0.307085 0.438516 0.680337 0.18167
C_ C_ 0.267229 0.465741 0.702949 -0.15533
C_ C_ 0.276413 0.50583 0.74078 0.02923
C_ C_ 0.319958 0.00673086 0.759683 -0.15533
C_ C_ 0.364487 0.493251 0.72354 0.18167
C_ C_ 0.492353 0.358946 0.692578 0.18167
C_ C_ -0.006429000000000018 0.299192 0.71431 -0.15533
C_ C_ 0.483901 0.280104 0.735515 0.02923
C_ C_ 0.431781 0.286891 0.718642 -0.15533
C_ C_ 0.409284 0.33235 0.695524 0.18167
C_ C_ 0.483769 0.457405 0.613228 0.69207
C_ C_ 0.0230356 0.988621 0.61553 0.02923
C_ C_ 0.00703446 0.0418958 0.621585 -0.15533
C_ C_ 0.0348297 0.0807693 0.608296 -0.15533
C_ C_ 0.0859073 0.067145 0.597983 0.02923
C_ C_ 0.101791 0.0140614 0.589656 -0.15533
C_ C_ 0.0749542 0.975873 0.603929 0.02923
C_ C_ 0.0945344 0.419282 0.596952 0.69207
C_ C_ 0.106987 0.162653 0.603008 0.69661
C_ C_ 0.439079 0.18862 0.926543 0.18167
C_ C_ 0.481808 0.204199 0.954934 -0.15533
C_ C_ 0.479599 0.23829 0.998229 0.02923
C_ C_ 0.422819 0.252773 0.513772 -0.15533
C_ C_ 0.389562 0.225459 0.991449 0.18167
C_ C_ 0.250796 0.19309 0.845647 0.18167
C_ C_ 0.231326 0.212181 0.801116 -0.15533
C_ C_ 0.260161 0.236056 0.769954 0.02923
C_ C_ 0.312763 0.233996 0.780712 -0.15533
C_ C_ 0.33394 0.203733 0.821823 0.18167
C_ C_ 0.256418 0.118815 0.947049 0.69207
C_ C_ 0.228601 0.107256 0.488849 0.02923
C_ C_ 0.248318 0.112956 0.539432 -0.15533
C_ C_ 0.218363 0.106991 0.577407 -0.15533
C_ C_ 0.165556 0.0976707 0.565191 0.02923
C_ C_ 0.146388 0.0938424 0.514239 -0.15533
C_ C_ 0.178385 0.0985801 0.474228 0.02923
C_ C_ 0.146356 0.103483 0.917629 0.69207
C_ C_ 0.15245 0.0948626 0.661114 0.69661
C_ C_ 0.378186 0.380897 0.884766 -0.30787
C_ C_ 0.125733 0.103999 0.607522 -0.30787
N_ N_ 0.134792 0.0564251 0.802172 -0.32189
N_ N_ 0.0460012 0.143717 0.810096 -0.32189
N_ N_ 0.108137 0.306936 0.546929 -0.32189
N_ N_ 0.190948 0.308992 0.634531 -0.32189
N_ N_ 0.355162 0.455306 0.68777 -0.32189
N_ N_ 0.441076 0.365735 0.681747 -0.32189
N_ N_ 0.392269 0.195204 0.947417 -0.32189
N_ N_ 0.30196 0.187063 0.854381 -0.32189
O_ O_ 0.503125 0.0954189 0.906024 -0.63271
O_ O_ 0.0402957 0.030262 0.827427 -0.57982
O_ O_ 0.387365 0.0975207 0.839335 -0.63271
O_ O_ 0.366325 0.0959815 0.918811 -0.57982
O_ O_ 0.237854 0.400215 0.581116 -0.63271
O_ O_ 0.209651 0.332523 0.533804 -0.57982
O_ O_ 0.35127 0.352361 0.598236 -0.63271
O_ O_ 0.377554 0.427445 0.586273 -0.57982
O_ O_ 0.990586 0.408651 0.588569 -0.63271
O_ O_ 0.453442 0.468077 0.649318 -0.57982
O_ O_ 0.0975064 0.393006 0.637903 -0.63271
O_ O_ 0.125091 0.40322 0.563529 -0.57982
O_ O_ 0.260317 0.0888076 0.904534 -0.63271
O_ O_ 0.285422 0.1558 0.956094 -0.57982
O_ O_ 0.148585 0.14043 0.886881 -0.63271
O_ O_ 0.112239 0.0720479 0.904269 -0.57982
F_ F_ 0.44275 0.321545 0.925626 -0.20885
F_ F_ 0.426511 0.312303 0.840379 -0.20885
F_ F_ 0.367668 0.287162 0.883885 -0.20885
F_ F_ 0.320227 0.434897 0.826566 -0.20885
F_ F_ 0.313436 0.354671 0.816644 -0.20885
F_ F_ 0.379085 0.386936 0.788271 -0.20885
F_ F_ 0.0705574 0.174269 0.563717 -0.20885
F_ F_ 0.0824131 0.182955 0.644808 -0.20885
F_ F_ 0.147433 0.191675 0.598319 -0.20885
F_ F_ 0.181395 0.0484334 0.662732 -0.20885
F_ F_ 0.184094 0.130496 0.682392 -0.20885
F_ F_ 0.114434 0.0963651 0.692709 -0.20885
Zn Zn 0.0886842 0.584678 0.349979 0.83971
Zn Zn 0.162754 0.84788 0.0847046 0.83971
Zn Zn 0.414721 0.919514 0.165775 0.83971
Zn Zn 0.342909 0.65829 0.415169 0.83971
H_ H_ 0.163024 0.629882 0.296802 0.10394
H_ H_ 0.241673 0.595121 0.258798 0.10394
H_ H_ 0.207941 0.952566 0.273332 0.10394
H_ H_ 0.125961 0.483926 0.321751 0.10394
H_ H_ 0.540359 0.602478 0.260912 0.10394
H_ H_ 0.500903 0.677065 0.212895 0.10394
H_ H_ 0.0381005 0.767572 0.335695 0.10394
H_ H_ 0.0945217 0.689466 0.365202 0.10394
H_ H_ 0.0365682 0.948964 0.376822 0.10394
H_ H_ 0.478862 0.879403 0.39134 0.10394
H_ H_ 0.354256 0.992348 0.410895 0.10394
H_ H_ 0.0820406 0.80167 0.128694 0.10394
H_ H_ 0.499492 0.778176 0.0971736 0.10394
H_ H_ 0.0604305 0.758824 0.448573 0.10394
H_ H_ 0.126844 0.81826 0.98194 0.10394
H_ H_ 0.208537 0.751484 0.105535 0.10394
H_ H_ 0.240955 0.704223 0.181848 0.10394
H_ H_ 0.212625 0.844313 0.270434 0.10394
H_ H_ 0.187707 0.890352 0.193652 0.10394
H_ H_ 0.21759 0.869394 0.454575 0.10394
H_ H_ 0.269701 0.872965 0.386445 0.10394
H_ H_ 0.394966 0.900126 0.496732 0.10394
H_ H_ 0.315313 0.891781 0.179085 0.10394
H_ H_ 0.237574 0.957304 0.182309 0.10394
H_ H_ 0.328408 0.539418 0.283855 0.10394
H_ H_ 0.406774 0.0103728 0.236163 0.10394
H_ H_ 0.00524175 0.877474 0.188817 0.10394
H_ H_ 0.0484107 0.808742 0.246684 0.10394
H_ H_ 0.421605 0.743597 0.220417 0.10394
H_ H_ 0.37718 0.822022 0.189276 0.10394
H_ H_ 0.464983 0.557726 0.118709 0.10394
H_ H_ 0.0178924 0.618026 0.106554 0.10394
H_ H_ 0.145428 0.50689 0.101618 0.10394
H_ H_ 0.445056 0.669848 0.393135 0.10394
H_ H_ 0.023422 0.680001 0.445274 0.10394
H_ H_ 0.412115 0.799323 0.0173845 0.10394
H_ H_ 0.342412 0.732399 0.500431 0.10394
H_ H_ 0.242191 0.696985 0.389743 0.10394
H_ H_ 0.193025 0.736416 0.313256 0.10394
H_ H_ 0.32421 0.725957 0.239348 0.10394
H_ H_ 0.378095 0.689295 0.322344 0.10394
H_ H_ 0.284112 0.641573 0.0729678 0.10394
H_ H_ 0.227612 0.621386 0.133892 0.10394
H_ H_ 0.11547 0.582956 0.0141071 0.10394
C_ C_ 0.175707 0.589726 0.298983 0.18167
C_ C_ 0.220271 0.569859 0.275177 -0.15533
C_ C_ 0.231038 0.514227 0.267612 0.02923
C_ C_ 0.199722 0.993505 0.279445 -0.15533
C_ C_ 0.154738 0.506396 0.309746 0.18167
C_ C_ 0.0192739 0.635101 0.274365 0.18167
C_ C_ 0.519476 0.682516 0.252137 -0.15533
C_ C_ 0.0071548 0.724808 0.268613 0.02923
C_ C_ 0.0401754 0.730501 0.313401 -0.15533
C_ C_ 0.0631649 0.687849 0.336287 0.18167
C_ C_ 0.0120125 0.539607 0.374656 0.69207
C_ C_ 0.475532 0.00710248 0.386365 0.02923
C_ C_ 0.49186 0.954223 0.382556 -0.15533
C_ C_ 0.461985 0.91616 0.394518 -0.15533
C_ C_ 0.410754 0.927801 0.403193 0.02923
C_ C_ 0.395449 0.98103 0.410121 -0.15533
C_ C_ 0.424305 0.0204778 0.39644 0.02923
C_ C_ 0.397451 0.575496 0.393291 0.69207
C_ C_ 0.39554 0.833157 0.392066 0.69661
C_ C_ 0.0767994 0.796628 0.0868714 0.18167
C_ C_ 0.0307236 0.775407 0.0667306 -0.15533
C_ C_ 0.0200375 0.763481 0.0133401 0.02923
C_ C_ 0.060674 0.772581 0.488595 -0.15533
C_ C_ 0.0999385 0.800908 0.0051863 0.18167
C_ C_ 0.208354 0.77044 0.14224 0.18167
C_ C_ 0.229588 0.743596 0.186659 -0.15533
C_ C_ 0.233801 0.770659 0.232543 0.02923
C_ C_ 0.2118 0.823126 0.233722 -0.15533
C_ C_ 0.192808 0.849547 0.189362 0.18167
C_ C_ 0.248846 0.876493 0.0537728 0.69207
C_ C_ 0.277047 0.870527 0.514915 0.02923
C_ C_ 0.253829 0.881119 0.466109 -0.15533
C_ C_ 0.283966 0.884903 0.426615 -0.15533
C_ C_ 0.335152 0.894381 0.435176 0.02923
C_ C_ 0.356746 0.892486 0.487946 -0.15533
C_ C_ 0.329663 0.874517 0.526041 0.02923
C_ C_ 0.361483 0.892634 0.079187 0.69207
C_ C_ 0.348256 0.89871 0.336781 0.69661
C_ C_ 0.317882 0.934452 0.188876 0.18167
C_ C_ 0.272332 0.965391 0.199318 -0.15533
C_ C_ 0.27701 1.00661638 0.23744 0.02923
C_ C_ 0.322646 0.511549 0.251274 -0.15533
C_ C_ 0.369607 0.995292 0.232031 0.18167
C_ C_ 0.496123 0.860466 0.219826 0.18167
C_ C_ 0.00797888 0.809934 0.234365 -0.15533
C_ C_ 0.492268 0.778172 0.252497 0.02923
C_ C_ 0.442521 0.77835 0.22801 -0.15533
C_ C_ 0.417608 0.821175 0.204512 0.18167
C_ C_ 0.489636 0.954847 0.130424 0.69207
C_ C_ 0.0210175 0.487795 0.111526 0.02923
C_ C_ 0.000509482 0.541208 0.112545 -0.15533
C_ C_ 0.033616 0.578448 0.10626 -0.15533
C_ C_ 0.0863615 0.566358 0.105657 0.02923
C_ C_ 0.105403 0.515906 0.105509 -0.15533
C_ C_ 0.0729627 0.474795 0.104188 0.02923
C_ C_ 0.0935307 0.928013 0.108763 0.69207
C_ C_ 0.0973198 0.664331 0.113425 0.69661
C_ C_ 0.439276 0.688348 0.430111 0.18167
C_ C_ 0.479857 0.700714 0.462767 -0.15533
C_ C_ 0.470616 0.740756 0.498522 0.02923
C_ C_ 0.422659 0.761303 0.002429999999999932 -0.15533
C_ C_ 0.380626 0.727289 0.488889 0.18167
C_ C_ 0.25869 0.700432 0.354562 0.18167
C_ C_ 0.232949 0.729609 0.315844 -0.15533
C_ C_ 0.260555 0.743409 0.276995 0.02923
C_ C_ 0.311847 0.727286 0.278015 -0.15533
C_ C_ 0.335574 0.694687 0.315954 0.18167
C_ C_ 0.270007 0.622939 0.457728 0.69207
C_ C_ 0.231818 0.620919 1.00609032 0.02923
C_ C_ 0.247027 0.62875 0.059449 -0.15533
C_ C_ 0.214402 0.619053 0.095362 -0.15533
C_ C_ 0.165539 0.601831 0.0798554 0.02923
C_ C_ 0.152662 0.594356 0.0272782 -0.15533
C_ C_ 0.184087 0.604239 0.991076 0.02923
C_ C_ 0.156154 0.611624 0.428074 0.69207
C_ C_ 0.145264 0.600909 0.175293 0.69661
C_ C_ 0.370842 0.889145 0.392766 -0.30787
C_ C_ 0.124649 0.608626 0.117092 -0.30787
N_ N_ 0.145406 0.557562 0.315582 -0.32189
N_ N_ 0.0518938 0.63941 0.317659 -0.32189
N_ N_ 0.109594 0.80858 0.0553462 -0.32189
N_ N_ 0.189794 0.821124 0.144576 -0.32189
N_ N_ 0.363786 0.950178 0.203666 -0.32189
N_ N_ 0.446033 0.862167 0.199685 -0.32189
N_ N_ 0.3907 0.700202 0.444334 -0.32189
N_ N_ 0.309356 0.685223 0.35539 -0.32189
O_ O_ 0.509321 0.592187 0.401642 -0.63271
O_ O_ 0.0491587 0.533294 0.344121 -0.57982
O_ O_ 0.395857 0.598103 0.349304 -0.63271
O_ O_ 0.378816 0.60039 0.432367 -0.57982
O_ O_ 0.254785 0.896162 0.10082 -0.63271
O_ O_ 0.210438 0.849272 0.0380299 -0.57982
O_ O_ 0.360338 0.850095 0.101852 -0.63271
O_ O_ 0.390408 0.927807 0.100023 -0.57982
O_ O_ 0.985761 0.905954 0.0942901 -0.63271
O_ O_ 0.460491 0.967619 0.168009 -0.57982
O_ O_ 0.0883028 0.905356 0.150542 -0.63271
O_ O_ 0.129114 0.913254 0.0786517 -0.57982
O_ O_ 0.269294 0.59362 0.414112 -0.63271
O_ O_ 0.297347 0.661825 0.463692 -0.57982
O_ O_ 0.163157 0.646079 0.397022 -0.63271
O_ O_ 0.11406 0.589741 0.416047 -0.57982
F_ F_ 0.426605 0.821145 0.434917 -0.20885
F_ F_ 0.423443 0.821374 0.351138 -0.20885
F_ F_ 0.358554 0.801081 0.390136 -0.20885
F_ F_ 0.315303 0.943489 0.337313 -0.20885
F_ F_ 0.315837 0.866659 0.310794 -0.20885
F_ F_ 0.384304 0.902437 0.302028 -0.20885
F_ F_ 0.0679056 0.671663 0.0684262 -0.20885
F_ F_ 0.0742493 0.680057 0.156599 -0.20885
F_ F_ 0.13565 0.697122 0.115541 -0.20885
F_ F_ 0.180542 0.559247 0.177018 -0.20885
F_ F_ 0.169651 0.642784 0.197125 -0.20885
F_ F_ 0.104568 0.595215 0.201304 -0.20885
Zn Zn 0.0937549 0.584231 0.857425 0.83971
Zn Zn 0.161731 0.840058 0.594483 0.83971
Zn Zn 0.40822 0.913055 0.660973 0.83971
Zn Zn 0.345488 0.648542 0.926321 0.83971
H_ H_ 0.166227 0.634672 0.809685 0.10394
H_ H_ 0.249471 0.606223 0.773156 0.10394
H_ H_ 0.206802 0.939383 0.788526 0.10394
H_ H_ 0.15119 0.487192 0.851088 0.10394
H_ H_ 0.528974 0.592016 0.757415 0.10394
H_ H_ 0.497762 0.660539 0.707527 0.10394
H_ H_ 0.0559801 0.771078 0.828123 0.10394
H_ H_ 0.0907822 0.695153 0.875905 0.10394
H_ H_ 0.0147562 0.934581 0.845226 0.10394
H_ H_ 0.48374 0.88758 0.889426 0.10394
H_ H_ 0.350139 0.992913 0.907815 0.10394
H_ H_ 0.0760073 0.8128 0.632676 0.10394
H_ H_ 0.510646 0.74979 0.5964 0.10394
H_ H_ 0.0516361 0.774774 0.94183 0.10394
H_ H_ 0.13055 0.802689 0.487701 0.10394
H_ H_ 0.222328 0.7485 0.614336 0.10394
H_ H_ 0.266942 0.70587 0.692216 0.10394
H_ H_ 0.23385 0.845924 0.779907 0.10394
H_ H_ 0.181733 0.881375 0.706353 0.10394
H_ H_ 0.219471 0.902952 0.957179 0.10394
H_ H_ 0.271446 0.882381 0.887716 0.10394
H_ H_ 0.40569 0.898067 0.991749 0.10394
H_ H_ 0.310422 0.893446 0.663369 0.10394
H_ H_ 0.234627 0.936357 0.692593 0.10394
H_ H_ 0.333079 0.551502 0.778795 0.10394
H_ H_ 0.395239 0.0053399999999999 0.736988 0.10394
H_ H_ 0.00793453 0.878378 0.693312 0.10394
H_ H_ 0.0530139 0.811832 0.740509 0.10394
H_ H_ 0.414047 0.737704 0.73044 0.10394
H_ H_ 0.370872 0.828255 0.707595 0.10394
H_ H_ 0.456519 0.560985 0.594322 0.10394
H_ H_ 0.0233402 0.620016 0.618121 0.10394
H_ H_ 0.14204 0.499657 0.585587 0.10394
H_ H_ 0.45751 0.621844 0.952268 0.10394
H_ H_ 0.0118531 0.699746 0.927132 0.10394
H_ H_ 0.420062 0.76802 0.552784 0.10394
H_ H_ 0.347106 0.749119 -0.032379999999999964 0.10394
H_ H_ 0.244848 0.683685 0.889244 0.10394
H_ H_ 0.206584 0.726603 0.817803 0.10394
H_ H_ 0.352639 0.739666 0.76819 0.10394
H_ H_ 0.390886 0.691693 0.840852 0.10394
H_ H_ 0.295772 0.611621 0.557766 0.10394
H_ H_ 0.238619 0.578893 0.620283 0.10394
H_ H_ 0.109826 0.591448 0.511037 0.10394
C_ C_ 0.180177 0.595127 0.809168 0.18167
C_ C_ 0.224194 0.578879 0.782749 -0.15533
C_ C_ 0.235434 0.526691 0.775433 0.02923
C_ C_ 0.196784 0.981921 0.790718 -0.15533
C_ C_ 0.168028 0.510232 0.827535 0.18167
C_ C_ 0.0263166 0.634855 0.782909 0.18167
C_ C_ 0.517082 0.670365 0.745 -0.15533
C_ C_ 0.00933394 0.726523 0.772829 0.02923
C_ C_ 0.045736 0.732238 0.813962 -0.15533
C_ C_ 0.0703554 0.689487 0.839257 0.18167
C_ C_ 0.0078526 0.544776 0.874318 0.69207
C_ C_ 0.467291 0.0133302 0.876597 0.02923
C_ C_ 0.489909 0.962786 0.872824 -0.15533
C_ C_ 0.464795 0.925956 0.890771 -0.15533
C_ C_ 0.412572 0.934037 0.896925 0.02923
C_ C_ 0.389139 0.985277 0.901464 -0.15533
C_ C_ 0.415558 0.0236543 0.887007 0.02923
C_ C_ 0.403036 0.56635 0.892847 0.69207
C_ C_ 0.40604 0.835088 0.887845 0.69661
C_ C_ 0.0735196 0.795171 0.594427 0.18167
C_ C_ 0.0306321 0.771443 0.571486 -0.15533
C_ C_ 0.023308 0.759683 0.518591 0.02923
C_ C_ 0.0575025 0.776969 0.983725 -0.15533
C_ C_ 0.101449 0.794097 0.512207 0.18167
C_ C_ 0.217208 0.765221 0.653872 0.18167
C_ C_ 0.245267 0.742474 0.696687 -0.15533
C_ C_ 0.247468 0.770037 0.74347 0.02923
C_ C_ 0.22912 0.822198 0.744741 -0.15533
C_ C_ 0.200915 0.842636 0.701396 0.18167
C_ C_ 0.244525 0.85928 0.555141 0.69207
C_ C_ 0.283072 0.88803 0.014104 0.02923
C_ C_ 0.260675 0.891559 0.96314 -0.15533
C_ C_ 0.290122 0.889862 0.923406 -0.15533
C_ C_ 0.34527 0.891351 0.932671 0.02923
C_ C_ 0.365259 0.899372 0.983804 -0.15533
C_ C_ 0.335716 0.896061 0.025004 0.02923
C_ C_ 0.355184 0.872196 0.578625 0.69207
C_ C_ 0.347076 0.892711 0.835007 0.69661
C_ C_ 0.312752 0.926875 0.686792 0.18167
C_ C_ 0.269231 0.953713 0.704927 -0.15533
C_ C_ 0.271148 0.991277 0.745614 0.02923
C_ C_ 0.325468 0.519483 0.750734 -0.15533
C_ C_ 0.361334 0.987585 0.731464 0.18167
C_ C_ 0.495228 0.842622 0.69318 0.18167
C_ C_ 0.0127018 0.808109 0.727032 -0.15533
C_ C_ 0.488427 0.763766 0.737083 0.02923
C_ C_ 0.436291 0.768918 0.723874 -0.15533
C_ C_ 0.412733 0.817187 0.708073 0.18167
C_ C_ 0.487386 0.952137 0.629327 0.69207
C_ C_ 0.0251769 0.489707 0.617244 0.02923
C_ C_ 1.00642844 0.542812 0.620992 -0.15533
C_ C_ 0.03748 0.5809 0.613592 -0.15533
C_ C_ 0.0888046 0.56481 0.599898 0.02923
C_ C_ 0.102716 0.512152 0.591118 -0.15533
C_ C_ 0.0730866 0.474814 0.601527 0.02923
C_ C_ 0.101065 0.922556 0.61377 0.69207
C_ C_ 0.113417 0.657558 0.608042 0.69661
C_ C_ 0.446499 0.660015 0.967742 0.18167
C_ C_ 0.484065 0.688111 0.986922 -0.15533
C_ C_ 0.473843 0.740556 0.00155199 0.02923
C_ C_ 0.423293 0.750954 0.516119 -0.15533
C_ C_ 0.38516 0.731222 0.977776 0.18167
C_ C_ 0.268031 0.697816 0.865089 0.18167
C_ C_ 0.245952 0.721155 0.823037 -0.15533
C_ C_ 0.274596 0.741418 0.789317 0.02923
C_ C_ 0.32675 0.730615 0.796693 -0.15533
C_ C_ 0.347642 0.696711 0.833181 0.18167
C_ C_ 0.270008 0.623879 0.970019 0.69207
C_ C_ 0.234242 0.615397 0.496781 0.02923
C_ C_ 0.254428 0.607068 0.546963 -0.15533
C_ C_ 0.222679 0.593937 0.584211 -0.15533
C_ C_ 0.169752 0.592263 0.569493 0.02923
C_ C_ 0.150511 0.596843 0.519945 -0.15533
C_ C_ 0.181163 0.610667 0.482846 0.02923
C_ C_ 0.15865 0.611513 0.939946 0.69207
C_ C_ 0.150304 0.592252 0.668405 0.69661
C_ C_ 0.378518 0.889396 0.887924 -0.30787
C_ C_ 0.131487 0.600379 0.610602 -0.30787
N_ N_ 0.152376 0.560873 0.826831 -0.32189
N_ N_ 0.058208 0.641193 0.824126 -0.32189
N_ N_ 0.107659 0.805027 0.563681 -0.32189
N_ N_ 0.19666 0.812615 0.656769 -0.32189
N_ N_ 0.358537 0.946596 0.697806 -0.32189
N_ N_ 0.441656 0.850412 0.690787 -0.32189
N_ N_ 0.399913 0.684437 0.958089 -0.32189
N_ N_ 0.318516 0.683111 0.868646 -0.32189
O_ O_ 0.50735 0.584371 0.893933 -0.63271
O_ O_ 0.0509897 0.534496 0.853164 -0.57982
O_ O_ 0.399567 0.594897 0.853376 -0.63271
O_ O_ 0.375948 0.583836 0.930748 -0.57982
O_ O_ 0.244571 0.887961 0.598537 -0.63271
O_ O_ 0.209004 0.827681 0.548049 -0.57982
O_ O_ 0.354659 0.833743 0.60811 -0.63271
O_ O_ 0.379448 0.909901 0.597104 -0.57982
O_ O_ 0.99511 0.903412 0.603645 -0.63271
O_ O_ 0.455417 0.960081 0.66435 -0.57982
O_ O_ 0.101172 0.901116 0.657146 -0.63271
O_ O_ 0.136615 0.90504 0.584322 -0.57982
O_ O_ 0.269497 0.59561 0.926094 -0.63271
O_ O_ 0.305942 0.654564 0.977194 -0.57982
O_ O_ 0.167428 0.649261 0.91533 -0.63271
O_ O_ 0.116774 0.591113 0.926054 -0.57982
F_ F_ 0.442419 0.828495 0.928946 -0.20885
F_ F_ 0.434623 0.822479 0.844804 -0.20885
F_ F_ 0.376647 0.795242 0.890946 -0.20885
F_ F_ 0.314032 0.936934 0.833943 -0.20885
F_ F_ 0.323261 0.848965 0.822246 -0.20885
F_ F_ 0.381842 0.900669 0.799296 -0.20885
F_ F_ 0.0806685 0.666142 0.563588 -0.20885
F_ F_ 0.089803 0.677967 0.650751 -0.20885
F_ F_ 0.152347 0.68912 0.604944 -0.20885
F_ F_ 0.173126 0.541449 0.675066 -0.20885
F_ F_ 0.183052 0.62948 0.686304 -0.20885
F_ F_ 0.110392 0.597429 0.698253 -0.20885
Zn Zn 0.586877 0.0805662 0.350076 0.83971
Zn Zn 0.666554 0.34724 0.0807069 0.83971
Zn Zn 0.9083 0.41312 0.156247 0.83971
Zn Zn 0.838031 0.155104 0.417591 0.83971
H_ H_ 0.647861 0.121698 0.279544 0.10394
H_ H_ 0.725944 0.0954004 0.248366 0.10394
H_ H_ 0.703753 0.448913 0.273394 0.10394
H_ H_ 0.633077 0.976961 0.330932 0.10394
H_ H_ 0.0223851 0.0953298 0.247665 0.10394
H_ H_ 0.993591 0.168701 0.19796 0.10394
H_ H_ 0.534749 0.269901 0.338867 0.10394
H_ H_ 0.57003 0.190147 0.38609 0.10394
H_ H_ 0.527147 0.446606 0.358923 0.10394
H_ H_ 0.972533 0.372233 0.350006 0.10394
H_ H_ 0.849913 0.48136 0.391075 0.10394
H_ H_ 0.590776 0.298934 0.126727 0.10394
H_ H_ 0.993924 0.275209 0.0877247 0.10394
H_ H_ 0.529774 0.293849 0.439939 0.10394
H_ H_ 0.620907 0.31844 0.976253 0.10394
H_ H_ 0.713017 0.243504 0.0912795 0.10394
H_ H_ 0.756108 0.198765 0.165067 0.10394
H_ H_ 0.710629 0.324627 0.267059 0.10394
H_ H_ 0.674676 0.372949 0.192351 0.10394
H_ H_ 0.722145 0.35022 0.429802 0.10394
H_ H_ 0.764362 0.379295 0.364247 0.10394
H_ H_ 0.896301 0.400131 0.473238 0.10394
H_ H_ 0.80319 0.396087 0.16576 0.10394
H_ H_ 0.735286 0.454477 0.186232 0.10394
H_ H_ 0.825354 0.0538728 0.266265 0.10394
H_ H_ 0.90734 0.496594 0.237589 0.10394
H_ H_ 0.520652 0.382302 0.191182 0.10394
H_ H_ 0.563883 0.309794 0.240607 0.10394
H_ H_ 0.91263 0.247036 0.228834 0.10394
H_ H_ 0.870533 0.316174 0.179903 0.10394
H_ H_ 0.95542 0.0536277 0.111874 0.10394
H_ H_ 0.513034 0.107229 0.0703535 0.10394
H_ H_ 0.646507 0.00045000000000006146 0.0814505 0.10394
H_ H_ 0.935045 0.161197 0.3881 0.10394
H_ H_ 0.516953 0.203033 0.445212 0.10394
H_ H_ 0.918163 0.286431 0.0307154 0.10394
H_ H_ 0.84689 0.240835 0.497109 0.10394
H_ H_ 0.739597 0.186084 0.378914 0.10394
H_ H_ 0.696863 0.239075 0.312193 0.10394
H_ H_ 0.834958 0.210378 0.237051 0.10394
H_ H_ 0.880895 0.180744 0.3236 0.10394
H_ H_ 0.783558 0.137594 0.0511998 0.10394
H_ H_ 0.73021 0.115543 0.113962 0.10394
H_ H_ 0.614563 0.0787484 -0.001747000000000054 0.10394
C_ C_ 0.66678 0.0845443 0.289073 0.18167
C_ C_ 0.710729 0.0676562 0.268632 -0.15533
C_ C_ 0.730752 0.016474 0.271684 0.02923
C_ C_ 0.703378 0.488716 0.286853 -0.15533
C_ C_ 0.656627 0.0017077 0.31442 0.18167
C_ C_ 0.534025 0.136389 0.273267 0.18167
C_ C_ 0.0083504 0.175279 0.234708 -0.15533
C_ C_ 0.520878 0.226522 0.264993 0.02923
C_ C_ 0.537449 0.232165 0.318002 -0.15533
C_ C_ 0.554287 0.187518 0.346959 0.18167
C_ C_ 0.506527 0.0462945 0.368453 0.69207
C_ C_ 0.9729 0.501817 0.366463 0.02923
C_ C_ 0.988628 0.450732 0.353931 -0.15533
C_ C_ 0.958826 0.411329 0.36272 -0.15533
C_ C_ 0.907965 0.422977 0.374849 0.02923
C_ C_ 0.888623 0.473929 0.379608 -0.15533
C_ C_ 0.922684 0.514897 0.380739 0.02923
C_ C_ 0.892291 0.0718267 0.381598 0.69207
C_ C_ 0.897868 0.328438 0.374775 0.69661
C_ C_ 0.576828 0.302911 0.0865812 0.18167
C_ C_ 0.536152 0.275499 0.0695839 -0.15533
C_ C_ 0.52471 0.265123 0.0163003 0.02923
C_ C_ 0.545209 0.292749 0.482613 -0.15533
C_ C_ 0.596865 0.309707 0.00239704 0.18167
C_ C_ 0.713776 0.262261 0.130561 0.18167
C_ C_ 0.741754 0.235899 0.171762 -0.15533
C_ C_ 0.74219 0.257019 0.220762 0.02923
C_ C_ 0.714586 0.304957 0.228123 -0.15533
C_ C_ 0.692615 0.333752 0.186022 0.18167
C_ C_ 0.745441 0.368811 0.0442819 0.69207
C_ C_ 0.777696 0.36598 0.494048 0.02923
C_ C_ 0.757298 0.367076 0.44192 -0.15533
C_ C_ 0.783965 0.378031 0.402191 -0.15533
C_ C_ 0.834848 0.388958 0.412401 0.02923
C_ C_ 0.853904 0.396512 0.464722 -0.15533
C_ C_ 0.827476 0.381505 0.5044 0.02923
C_ C_ 0.854729 0.382 0.0692931 0.69207
C_ C_ 0.845166 0.382848 0.315107 0.69661
C_ C_ 0.80972 0.432969 0.182886 0.18167
C_ C_ 0.771123 0.458939 0.205309 -0.15533
C_ C_ 0.7797 0.502619 0.238542 0.02923
C_ C_ 0.822257 0.0161477 0.25095 -0.15533
C_ C_ 0.869142 0.486933 0.226321 0.18167
C_ C_ 0.987912 0.352726 0.200622 0.18167
C_ C_ 0.524861 0.308715 0.224422 -0.15533
C_ C_ 0.986961 0.268963 0.229864 0.02923
C_ C_ 0.935468 0.27241 0.215936 -0.15533
C_ C_ 0.912561 0.311751 0.186795 0.18167
C_ C_ 0.983746 0.449686 0.115665 0.69207
C_ C_ 0.523853 0.991022 0.116897 0.02923
C_ C_ 0.503781 0.0410036 0.110066 -0.15533
C_ C_ 0.533832 0.0769649 0.0919654 -0.15533
C_ C_ 0.585293 0.0630362 0.0885889 0.02923
C_ C_ 0.60582 0.0116302 0.0897502 -0.15533
C_ C_ 0.575595 0.977171 0.109253 0.02923
C_ C_ 0.600943 0.428882 0.105384 0.69207
C_ C_ 0.596415 0.160529 0.0917642 0.69661
C_ C_ 0.933338 0.184374 0.425012 0.18167
C_ C_ 0.97658 0.20408 0.446983 -0.15533
C_ C_ 0.973236 0.241869 0.486031 0.02923
C_ C_ 0.926066 0.25274 0.0028606 -0.15533
C_ C_ 0.884158 0.231701 0.484908 0.18167
C_ C_ 0.760396 0.19414 0.349665 0.18167
C_ C_ 0.736623 0.21936 0.309264 -0.15533
C_ C_ 0.76548 0.225825 0.26797 0.02923
C_ C_ 0.817744 0.210878 0.271319 -0.15533
C_ C_ 0.840256 0.189138 0.317427 0.18167
C_ C_ 0.767922 0.120184 0.457461 0.69207
C_ C_ 0.728948 0.120855 0.985458 0.02923
C_ C_ 0.745994 0.125517 0.0380963 -0.15533
C_ C_ 0.714892 0.114927 0.0759585 -0.15533
C_ C_ 0.667195 0.0982219 0.0611881 0.02923
C_ C_ 0.653491 0.0891351 0.00925321 -0.15533
C_ C_ 0.678395 0.108362 0.970478 0.02923
C_ C_ 0.65877 0.0998667 0.420385 0.69207
C_ C_ 0.642314 0.0976417 0.154536 0.69661
C_ C_ 0.872575 0.380548 0.369768 -0.30787
C_ C_ 0.6206 0.105284 0.0959739 -0.30787
N_ N_ 0.638537 0.0528251 0.308318 -0.32189
N_ N_ 0.552796 0.140719 0.322756 -0.32189
N_ N_ 0.609034 0.314623 0.0530593 -0.32189
N_ N_ 0.697359 0.313373 0.137485 -0.32189
N_ N_ 0.857687 0.446653 0.195195 -0.32189
N_ N_ 0.938158 0.354181 0.183142 -0.32189
N_ N_ 0.888233 0.196246 0.445098 -0.32189
N_ N_ 0.811233 0.17862 0.353406 -0.32189
O_ O_ 0.00224694 0.0943396 0.388784 -0.63271
O_ O_ 0.543061 0.0308993 0.339396 -0.57982
O_ O_ 0.881303 0.0913961 0.336223 -0.63271
O_ O_ 0.874604 0.0969764 0.422762 -0.57982
O_ O_ 0.746565 0.390395 0.090979 -0.63271
O_ O_ 0.711454 0.339381 0.0297585 -0.57982
O_ O_ 0.858488 0.336855 0.0893976 -0.63271
O_ O_ 0.877946 0.418418 0.0923898 -0.57982
O_ O_ 0.487544 0.409889 0.09575 -0.63271
O_ O_ 0.94879 0.461036 0.148256 -0.57982
O_ O_ 0.591887 0.399161 0.141119 -0.63271
O_ O_ 0.636907 0.411423 0.07582 -0.57982
O_ O_ 0.770778 0.0889048 0.416419 -0.63271
O_ O_ 0.794923 0.159874 0.463414 -0.57982
O_ O_ 0.651003 0.142902 0.395164 -0.63271
O_ O_ 0.632173 0.0629341 0.405387 -0.57982
F_ F_ 0.935889 0.327694 0.415147 -0.20885
F_ F_ 0.922103 0.305274 0.335807 -0.20885
F_ F_ 0.867888 0.291698 0.386109 -0.20885
F_ F_ 0.809598 0.424534 0.305655 -0.20885
F_ F_ 0.820481 0.339945 0.30214 -0.20885
F_ F_ 0.880032 0.384535 0.279253 -0.20885
F_ F_ 0.569918 0.163231 0.0434384 -0.20885
F_ F_ 0.563083 0.1762 0.127855 -0.20885
F_ F_ 0.630938 0.196362 0.0906382 -0.20885
F_ F_ 0.676913 0.0558599 0.162945 -0.20885
F_ F_ 0.668735 0.136939 0.176062 -0.20885
F_ F_ 0.607985 0.0958979 0.190359 -0.20885
Zn Zn 0.583244 0.0927524 0.84359 0.83971
Zn Zn 0.657821 0.352821 0.575354 0.83971
Zn Zn 0.902713 0.415573 0.639217 0.83971
Zn Zn 0.838373 0.160912 0.905628 0.83971
H_ H_ 0.665564 0.131412 0.797115 0.10394
H_ H_ 0.744052 0.0921832 0.770213 0.10394
H_ H_ 0.704014 0.45068 0.752428 0.10394
H_ H_ 0.625203 0.986544 0.826171 0.10394
H_ H_ 0.00739353 0.0963083 0.752143 0.10394
H_ H_ 0.950725 0.167656 0.710459 0.10394
H_ H_ 0.531686 0.27889 0.829888 0.10394
H_ H_ 0.571156 0.203979 0.874994 0.10394
H_ H_ 0.531506 0.442099 0.858624 0.10394
H_ H_ 0.983283 0.377689 0.886291 0.10394
H_ H_ 0.852277 0.489332 0.895898 0.10394
H_ H_ 0.571982 0.319187 0.62617 0.10394
H_ H_ 0.00331524 0.27581 0.587315 0.10394
H_ H_ 0.546108 0.27843 0.941388 0.10394
H_ H_ 0.61042 0.332597 0.479908 0.10394
H_ H_ 0.712647 0.261747 0.583608 0.10394
H_ H_ 0.757714 0.212409 0.655922 0.10394
H_ H_ 0.728991 0.338895 0.759705 0.10394
H_ H_ 0.683035 0.387488 0.691938 0.10394
H_ H_ 0.715814 0.381026 0.944744 0.10394
H_ H_ 0.770911 0.376743 0.881422 0.10394
H_ H_ 0.899375 0.39948 0.986629 0.10394
H_ H_ 0.796859 0.462676 0.611588 0.10394
H_ H_ 0.728527 0.492524 0.667033 0.10394
H_ H_ 0.822461 0.0560508 0.763694 0.10394
H_ H_ 0.903776 0.457866 0.74846 0.10394
H_ H_ 0.514856 0.387617 0.684943 0.10394
H_ H_ 0.554409 0.316233 0.740637 0.10394
H_ H_ 0.884554 0.274804 0.75173 0.10394
H_ H_ 0.850967 0.335769 0.691571 0.10394
H_ H_ 0.966494 0.0525165 0.629489 0.10394
H_ H_ 0.511284 0.122208 0.617485 0.10394
H_ H_ 0.629397 0.0109297 0.568946 0.10394
H_ H_ 0.943657 0.171086 0.883966 0.10394
H_ H_ 0.518814 0.195136 0.941621 0.10394
H_ H_ 0.924442 0.287811 0.53258 0.10394
H_ H_ 0.849702 0.231412 -0.005520999999999998 0.10394
H_ H_ 0.734407 0.209018 0.876067 0.10394
H_ H_ 0.689365 0.249317 0.798098 0.10394
H_ H_ 0.827324 0.212069 0.728071 0.10394
H_ H_ 0.869217 0.180239 0.802447 0.10394
H_ H_ 0.781634 0.118771 0.563837 0.10394
H_ H_ 0.721641 0.108138 0.620259 0.10394
H_ H_ 0.604052 0.0942804 0.495255 0.10394
C_ C_ 0.671868 0.0910923 0.793432 0.18167
C_ C_ 0.714814 0.0688403 0.772075 -0.15533
C_ C_ 0.726881 0.0155085 0.769678 0.02923
C_ C_ 0.69927 0.491245 0.763622 -0.15533
C_ C_ 0.651024 0.0117465 0.810976 0.18167
C_ C_ 0.522684 0.141974 0.769253 0.18167
C_ C_ -0.022008000000000028 0.174711 0.746442 -0.15533
C_ C_ 0.506044 0.233179 0.762894 0.02923
C_ C_ 0.529541 0.240214 0.813641 -0.15533
C_ C_ 0.550285 0.197974 0.840152 0.18167
C_ C_ 0.501327 0.0543717 0.871334 0.69207
C_ C_ 0.974491 0.505473 0.886543 0.02923
C_ C_ 0.994609 0.453968 0.885768 -0.15533
C_ C_ 0.963758 0.415994 0.882914 -0.15533
C_ C_ 0.911617 0.42645 0.883915 0.02923
C_ C_ 0.892378 0.477455 0.893279 -0.15533
C_ C_ 0.921943 0.517733 0.886053 0.02923
C_ C_ 0.895289 0.0734736 0.876462 0.69207
C_ C_ 0.898977 0.32864 0.886746 0.69661
C_ C_ 0.566087 0.311372 0.585346 0.18167
C_ C_ 0.522242 0.286087 0.566749 -0.15533
C_ C_ 0.511134 0.278504 0.515681 0.02923
C_ C_ 0.55319 0.286069 0.982824 -0.15533
C_ C_ 0.589121 0.314663 0.503282 0.18167
C_ C_ 0.718178 0.279626 0.622439 0.18167
C_ C_ 0.739293 0.249798 0.663617 -0.15533
C_ C_ 0.736951 0.266824 0.714772 0.02923
C_ C_ 0.723871 0.321497 0.722045 -0.15533
C_ C_ 0.702123 0.350022 0.681456 0.18167
C_ C_ 0.74026 0.365331 0.532805 0.69207
C_ C_ 0.777067 0.385803 1.00661361 0.02923
C_ C_ 0.753977 0.391785 0.956965 -0.15533
C_ C_ 0.78646 0.389755 0.917741 -0.15533
C_ C_ 0.837149 0.396936 0.928363 0.02923
C_ C_ 0.857885 0.402787 0.97716 -0.15533
C_ C_ 0.830117 0.389636 0.017356 0.02923
C_ C_ 0.849033 0.383751 0.558262 0.69207
C_ C_ 0.844786 0.386771 0.827299 0.69661
C_ C_ 0.806528 0.470571 0.651089 0.18167
C_ C_ 0.768752 0.494065 0.681134 -0.15533
C_ C_ 0.779419 0.508176 0.73316 0.02923
C_ C_ 0.817103 0.0160365 0.747286 -0.15533
C_ C_ 0.865712 0.467953 0.727846 0.18167
C_ C_ 0.974353 0.335323 0.678695 0.18167
C_ C_ 0.51462 0.3154 0.721517 -0.15533
C_ C_ 0.960906 0.26836 0.735093 0.02923
C_ C_ 0.908779 0.280955 0.724115 -0.15533
C_ C_ 0.89057 0.323792 0.693973 0.18167
C_ C_ 0.987804 0.449982 0.618703 0.69207
C_ C_ 0.518594 0.993121 0.618195 0.02923
C_ C_ 0.499962 0.0445121 0.623617 -0.15533
C_ C_ 0.526435 0.0829126 0.608279 -0.15533
C_ C_ 0.576508 0.0709214 0.593279 0.02923
C_ C_ 0.59089 0.0186502 0.579676 -0.15533
C_ C_ 0.565435 0.979773 0.597359 0.02923
C_ C_ 0.595266 0.43216 0.607775 0.69207
C_ C_ 0.592531 0.169031 0.596253 0.69661
C_ C_ 0.94203 0.182416 0.922952 0.18167
C_ C_ 0.982321 0.206013 0.947767 -0.15533
C_ C_ 0.975055 0.240763 -0.01258999999999999 0.02923
C_ C_ 0.926422 0.258412 0.503611 -0.15533
C_ C_ 0.885568 0.226923 0.980061 0.18167
C_ C_ 0.754269 0.209388 0.8435 0.18167
C_ C_ 0.728977 0.23272 0.799653 -0.15533
C_ C_ 0.758028 0.234134 0.75845 0.02923
C_ C_ 0.805491 0.206516 0.758649 -0.15533
C_ C_ 0.830019 0.188871 0.803652 0.18167
C_ C_ 0.76286 0.128456 0.946433 0.69207
C_ C_ 0.728851 0.116519 0.49506 0.02923
C_ C_ 0.742814 0.116856 0.547908 -0.15533
C_ C_ 0.706703 0.111419 0.581243 -0.15533
C_ C_ 0.657102 0.101001 0.565243 0.02923
C_ C_ 0.643744 0.0943556 0.511715 -0.15533
C_ C_ 0.678869 0.103009 0.476735 0.02923
C_ C_ 0.647971 0.118635 0.920466 0.69207
C_ C_ 0.637326 0.106744 0.659482 0.69661
C_ C_ 0.872697 0.385275 0.883516 -0.30787
C_ C_ 0.615671 0.11141 0.601784 -0.30787
N_ N_ 0.63769 0.0615355 0.809238 -0.32189
N_ N_ 0.550588 0.150567 0.815239 -0.32189
N_ N_ 0.600707 0.318109 0.554768 -0.32189
N_ N_ 0.69552 0.328217 0.633405 -0.32189
N_ N_ 0.855176 0.457346 0.676494 -0.32189
N_ N_ 0.923534 0.350416 0.672606 -0.32189
N_ N_ 0.893964 0.196447 0.936638 -0.32189
N_ N_ 0.804838 0.189639 0.84481 -0.32189
O_ O_ -0.005166000000000004 0.0862407 0.873945 -0.63271
O_ O_ 0.531993 0.048491 0.835737 -0.57982
O_ O_ 0.893706 0.0951429 0.832756 -0.63271
O_ O_ 0.870935 0.0973124 0.913739 -0.57982
O_ O_ 0.743702 0.394277 0.573836 -0.63271
O_ O_ 0.695092 0.345286 0.519088 -0.57982
O_ O_ 0.84307 0.348439 0.58925 -0.63271
O_ O_ 0.877315 0.418755 0.575437 -0.57982
O_ O_ 0.486372 0.410524 0.589402 -0.63271
O_ O_ 0.95588 0.455751 0.653931 -0.57982
O_ O_ 0.595 0.407747 0.649567 -0.63271
O_ O_ 0.631602 0.416839 0.576071 -0.57982
O_ O_ 0.768201 0.095083 0.908643 -0.63271
O_ O_ 0.796047 0.164174 0.955355 -0.57982
O_ O_ 0.658466 0.158141 0.896255 -0.63271
O_ O_ 0.607667 0.0949754 0.905986 -0.57982
F_ F_ 0.933723 0.32276 0.926972 -0.20885
F_ F_ 0.929273 0.314382 0.847426 -0.20885
F_ F_ 0.863431 0.291989 0.882491 -0.20885
F_ F_ 0.814595 0.434375 0.820417 -0.20885
F_ F_ 0.815168 0.346204 0.811218 -0.20885
F_ F_ 0.884877 0.379282 0.792944 -0.20885
F_ F_ 0.5592 0.175964 0.553273 -0.20885
F_ F_ 0.568429 0.185147 0.637815 -0.20885
F_ F_ 0.630103 0.199028 0.594323 -0.20885
F_ F_ 0.666202 0.0608747 0.667038 -0.20885
F_ F_ 0.667472 0.141325 0.682625 -0.20885
F_ F_ 0.601298 0.106266 0.692156 -0.20885
Zn Zn 0.595304 0.587903 0.353472 0.83971
Zn Zn 0.663753 0.839889 0.0946042 0.83971
Zn Zn 0.911709 0.913689 0.157813 0.83971
Zn Zn 0.846907 0.655467 0.419294 0.83971
H_ H_ 0.674495 0.634406 0.312575 0.10394
H_ H_ 0.758823 0.598457 0.284914 0.10394
H_ H_ 0.718505 0.943699 0.302378 0.10394
H_ H_ 0.634834 0.484127 0.319458 0.10394
H_ H_ 0.00814279 0.599535 0.260924 0.10394
H_ H_ 0.977421 0.670819 0.206911 0.10394
H_ H_ 0.542914 0.776413 0.35027 0.10394
H_ H_ 0.574935 0.698864 0.393501 0.10394
H_ H_ 0.530805 0.944403 0.375968 0.10394
H_ H_ 0.984462 0.88315 0.393249 0.10394
H_ H_ 0.85418 0.994986 0.411676 0.10394
H_ H_ 0.574766 0.817791 0.132397 0.10394
H_ H_ 1.00422521 0.764658 0.0937806 0.10394
H_ H_ 0.518673 0.811314 0.449921 0.10394
H_ H_ 0.629124 0.804699 0.989814 0.10394
H_ H_ 0.7199 0.742135 0.104221 0.10394
H_ H_ 0.76095 0.693206 0.180304 0.10394
H_ H_ 0.720679 0.826919 0.282815 0.10394
H_ H_ 0.676438 0.868735 0.205385 0.10394
H_ H_ 0.712338 0.87534 0.448104 0.10394
H_ H_ 0.765674 0.901863 0.385078 0.10394
H_ H_ 0.891317 0.906009 0.494134 0.10394
H_ H_ 0.817405 0.891232 0.176027 0.10394
H_ H_ 0.741023 0.928383 0.213118 0.10394
H_ H_ 0.837403 0.55057 0.269145 0.10394
H_ H_ 0.898776 1.00860485 0.240255 0.10394
H_ H_ 0.51642 0.891002 0.21787 0.10394
H_ H_ 0.557713 0.821578 0.267432 0.10394
H_ H_ 0.900589 0.751865 0.248045 0.10394
H_ H_ 0.861297 0.829217 0.208553 0.10394
H_ H_ 0.960155 0.55014 0.118603 0.10394
H_ H_ 0.519295 0.623173 0.104615 0.10394
H_ H_ 0.64346 0.511122 0.0855829 0.10394
H_ H_ 0.947773 0.654128 0.397948 0.10394
H_ H_ 0.516388 0.694467 0.447211 0.10394
H_ H_ 0.92141 0.773408 0.0460151 0.10394
H_ H_ 0.850501 0.736964 0.500606 0.10394
H_ H_ 0.746079 0.704494 0.397589 0.10394
H_ H_ 0.699004 0.731448 0.318726 0.10394
H_ H_ 0.839515 0.71043 0.250238 0.10394
H_ H_ 0.882758 0.686806 0.334766 0.10394
H_ H_ 0.78365 0.634985 0.0588526 0.10394
H_ H_ 0.7286 0.629609 0.122955 0.10394
H_ H_ 0.60631 0.591861 0.0100427 0.10394
C_ C_ 0.685569 0.594025 0.310504 0.18167
C_ C_ 0.727961 0.574892 0.284554 -0.15533
C_ C_ 0.735406 0.523017 0.270014 0.02923
C_ C_ 0.705816 0.984459 0.299821 -0.15533
C_ C_ 0.661794 0.509945 0.31229 0.18167
C_ C_ 0.545553 0.641357 0.277274 0.18167
C_ C_ -0.0042200000000000015 0.676078 0.247876 -0.15533
C_ C_ 0.516262 0.731043 0.280106 0.02923
C_ C_ 0.538931 0.738062 0.330064 -0.15533
C_ C_ 0.563447 0.694305 0.353667 0.18167
C_ C_ 0.511682 0.550303 0.37366 0.69207
C_ C_ 0.972959 0.0100094 0.378029 0.02923
C_ C_ -0.004774999999999974 0.958941 0.38034 -0.15533
C_ C_ 0.965119 0.920499 0.391987 -0.15533
C_ C_ 0.913089 0.930429 0.402402 0.02923
C_ C_ 0.893743 0.984077 0.405195 -0.15533
C_ C_ 0.920817 0.0209528 0.390058 0.02923
C_ C_ 0.895306 0.567381 0.378196 0.69207
C_ C_ 0.901922 0.837137 0.396723 0.69661
C_ C_ 0.568978 0.807704 0.0917294 0.18167
C_ C_ 0.523229 0.788727 0.0708172 -0.15533
C_ C_ 0.517927 0.770006 0.0210381 0.02923
C_ C_ 0.535297 0.801479 0.488542 -0.15533
C_ C_ 0.599747 0.799028 0.0125155 0.18167
C_ C_ 0.719104 0.7591 0.14348 0.18167
C_ C_ 0.74535 0.734064 0.185176 -0.15533
C_ C_ 0.746248 0.758682 0.234318 0.02923
C_ C_ 0.72269 0.808979 0.243258 -0.15533
C_ C_ 0.697529 0.832872 0.199664 0.18167
C_ C_ 0.739931 0.873745 0.0555919 0.69207
C_ C_ 0.771986 0.875771 0.510361 0.02923
C_ C_ 0.751104 0.877284 0.458678 -0.15533
C_ C_ 0.783683 0.887166 0.421095 -0.15533
C_ C_ 0.835015 0.89645 0.434605 0.02923
C_ C_ 0.854033 0.895401 0.484874 -0.15533
C_ C_ 0.825899 0.877911 0.521781 0.02923
C_ C_ 0.854744 0.884126 0.0789243 0.69207
C_ C_ 0.849326 0.894863 0.338207 0.69661
C_ C_ 0.81963 0.926868 0.197916 0.18167
C_ C_ 0.774344 0.950172 0.214846 -0.15533
C_ C_ 0.775195 0.996435 0.243517 0.02923
C_ C_ 0.829792 0.517203 0.246614 -0.15533
C_ C_ 0.864665 0.99428 0.226856 0.18167
C_ C_ 0.984027 0.847848 0.202273 0.18167
C_ C_ 0.520578 0.818828 0.24555 -0.15533
C_ C_ 0.980277 0.772397 0.248543 0.02923
C_ C_ 0.926264 0.780067 0.238325 -0.15533
C_ C_ 0.902095 0.821772 0.212604 0.18167
C_ C_ 0.984529 0.950705 0.11957 0.69207
C_ C_ 0.520647 0.495468 0.106501 0.02923
C_ C_ 0.503595 0.546894 0.11205 -0.15533
C_ C_ 0.536281 0.585917 0.110923 -0.15533
C_ C_ 0.58757 0.571702 0.103974 0.02923
C_ C_ 0.604101 0.521804 0.0926518 -0.15533
C_ C_ 0.573057 0.481665 0.0975379 0.02923
C_ C_ 0.600029 0.925364 0.12157 0.69207
C_ C_ 0.604172 0.667174 0.113752 0.69661
C_ C_ 0.942664 0.679745 0.429789 0.18167
C_ C_ 0.986397 0.694072 0.456972 -0.15533
C_ C_ 0.978994 0.73257 0.49701 0.02923
C_ C_ 0.927478 0.749889 1.0118391 -0.15533
C_ C_ 0.889656 0.727041 0.48985 0.18167
C_ C_ 0.763894 0.704522 0.364069 0.18167
C_ C_ 0.738564 0.72196 0.319584 -0.15533
C_ C_ 0.767201 0.72794 0.277218 0.02923
C_ C_ 0.82009 0.713046 0.282561 -0.15533
C_ C_ 0.842699 0.692311 0.328149 0.18167
C_ C_ 0.77282 0.618181 0.45816 0.69207
C_ C_ 0.725447 0.626722 0.995434 0.02923
C_ C_ 0.745998 0.62503 0.0457201 -0.15533
C_ C_ 0.71382 0.618678 0.0839987 -0.15533
C_ C_ 0.663527 0.606625 0.0724469 0.02923
C_ C_ 0.643832 0.604474 0.0206239 -0.15533
C_ C_ 0.67606 0.61123 0.982109 0.02923
C_ C_ 0.653344 0.609428 0.429742 0.69207
C_ C_ 0.654108 0.604744 0.167081 0.69661
C_ C_ 0.872565 0.89208 0.392618 -0.30787
C_ C_ 0.627391 0.611013 0.112413 -0.30787
N_ N_ 0.652681 0.560993 0.321444 -0.32189
N_ N_ 0.562316 0.646929 0.327663 -0.32189
N_ N_ 0.605604 0.8115 0.0625552 -0.32189
N_ N_ 0.695469 0.807608 0.152488 -0.32189
N_ N_ 0.864448 0.94762 0.204234 -0.32189
N_ N_ 0.933517 0.854288 0.19444 -0.32189
N_ N_ 0.895143 0.69477 0.446626 -0.32189
N_ N_ 0.813691 0.688939 0.366943 -0.32189
O_ O_ 0.0040066 0.58341 0.39845 -0.63271
O_ O_ 0.549884 0.538624 0.344989 -0.57982
O_ O_ 0.901673 0.592742 0.340211 -0.63271
O_ O_ 0.869442 0.58696 0.415654 -0.57982
O_ O_ 0.754339 0.874287 0.104057 -0.63271
O_ O_ 0.701636 0.846354 0.0399037 -0.57982
O_ O_ 0.86413 0.840751 0.102876 -0.63271
O_ O_ 0.875851 0.925218 0.0979021 -0.57982
O_ O_ 0.497686 0.907044 0.115846 -0.63271
O_ O_ 0.958294 0.959878 0.159743 -0.57982
O_ O_ 0.586945 0.900298 0.159171 -0.63271
O_ O_ 0.640332 0.907885 0.100923 -0.57982
O_ O_ 0.765249 0.601216 0.409358 -0.63271
O_ O_ 0.807151 0.650373 0.46746 -0.57982
O_ O_ 0.65552 0.648931 0.402669 -0.63271
O_ O_ 0.620309 0.577766 0.416394 -0.57982
F_ F_ 0.935449 0.825878 0.438594 -0.20885
F_ F_ 0.929442 0.819265 0.356243 -0.20885
F_ F_ 0.868267 0.802076 0.399724 -0.20885
F_ F_ 0.819396 0.943217 0.334626 -0.20885
F_ F_ 0.818636 0.856117 0.322719 -0.20885
F_ F_ 0.886236 0.893944 0.303701 -0.20885
F_ F_ 0.577917 0.676616 0.066447 -0.20885
F_ F_ 0.571268 0.674814 0.153568 -0.20885
F_ F_ 0.6406 0.701574 0.120661 -0.20885
F_ F_ 0.68571 0.560668 0.168733 -0.20885
F_ F_ 0.679414 0.644842 0.1907 -0.20885
F_ F_ 0.618251 0.601692 0.20203 -0.20885
Zn Zn 0.59586 0.58139 0.852821 0.83971
Zn Zn 0.653888 0.852514 0.584116 0.83971
Zn Zn 0.904351 0.911275 0.655255 0.83971
Zn Zn 0.837692 0.653841 0.913439 0.83971
H_ H_ 0.683592 0.628517 0.819259 0.10394
H_ H_ 0.761895 0.597958 0.786665 0.10394
H_ H_ 0.709967 0.949854 0.80569 0.10394
H_ H_ 0.62712 0.486294 0.789418 0.10394
H_ H_ 0.0226129 0.597061 0.763219 0.10394
H_ H_ 0.973408 0.668861 0.723864 0.10394
H_ H_ 0.534939 0.765641 0.83847 0.10394
H_ H_ 0.574204 0.691733 0.883747 0.10394
H_ H_ 0.528467 0.952569 0.863046 0.10394
H_ H_ 0.958686 0.876361 0.860345 0.10394
H_ H_ 0.842027 0.998985 0.89408 0.10394
H_ H_ 0.582877 0.794691 0.635679 0.10394
H_ H_ 0.0017499999999999183 0.762296 0.596175 0.10394
H_ H_ 0.558839 0.750092 0.954027 0.10394
H_ H_ 0.599095 0.841922 0.483801 0.10394
H_ H_ 0.716621 0.761219 0.592587 0.10394
H_ H_ 0.754965 0.708027 0.666316 0.10394
H_ H_ 0.696862 0.82559 0.771599 0.10394
H_ H_ 0.660714 0.876671 0.698888 0.10394
H_ H_ 0.707095 0.9011 0.9627 0.10394
H_ H_ 0.751941 0.928027 0.89882 0.10394
H_ H_ 0.894282 0.911035 0.9955 0.10394
H_ H_ 0.807548 0.883858 0.671943 0.10394
H_ H_ 0.731781 0.927181 0.71489 0.10394
H_ H_ 0.841962 0.512285 0.791555 0.10394
H_ H_ 0.890286 1.00913694 0.718305 0.10394
H_ H_ 0.51849 0.866296 0.676841 0.10394
H_ H_ 0.558426 0.799559 0.731746 0.10394
H_ H_ 0.911975 0.750372 0.745455 0.10394
H_ H_ 0.868936 0.820351 0.696051 0.10394
H_ H_ 0.964162 0.55176 0.623933 0.10394
H_ H_ 0.510801 0.627951 0.601099 0.10394
H_ H_ 0.647396 0.515929 0.599804 0.10394
H_ H_ 0.933846 0.673764 0.880725 0.10394
H_ H_ 0.522565 0.666542 0.990657 0.10394
H_ H_ 0.924835 0.785782 0.541594 0.10394
H_ H_ 0.856253 0.72052 1.0112915 0.10394
H_ H_ 0.732699 0.693606 0.880949 0.10394
H_ H_ 0.684217 0.728499 0.805648 0.10394
H_ H_ 0.829834 0.724785 0.743672 0.10394
H_ H_ 0.872226 0.684141 0.814385 0.10394
H_ H_ 0.788063 0.623565 0.564268 0.10394
H_ H_ 0.729682 0.622983 0.623597 0.10394
H_ H_ 0.608097 0.606975 0.505991 0.10394
C_ C_ 0.687724 0.588602 0.809052 0.18167
C_ C_ 0.733065 0.570056 0.787736 -0.15533
C_ C_ 0.738223 0.521897 0.764954 0.02923
C_ C_ 0.6962 0.987706 0.792017 -0.15533
C_ C_ 0.655975 0.509095 0.790282 0.18167
C_ C_ 0.531802 0.630008 0.775969 0.18167
C_ C_ -0.000389134 0.675408 0.756604 -0.15533
C_ C_ 0.51254 0.720669 0.767801 0.02923
C_ C_ 0.531693 0.72837 0.819779 -0.15533
C_ C_ 0.55449 0.685715 0.847446 0.18167
C_ C_ 0.509828 0.54171 0.864258 0.69207
C_ C_ 0.963396 0.00244019 0.859694 0.02923
C_ C_ -0.019572000000000034 0.949408 0.85756 -0.15533
C_ C_ 0.947536 0.915123 0.870862 -0.15533
C_ C_ 0.898515 0.932179 0.887439 0.02923
C_ C_ 0.883349 0.985519 0.889277 -0.15533
C_ C_ 0.91543 0.0204087 0.878026 0.02923
C_ C_ 0.899192 0.570992 0.886734 0.69207
C_ C_ 0.881673 0.838698 0.898659 0.69661
C_ C_ 0.568818 0.799242 0.593873 0.18167
C_ C_ 0.525087 0.776173 0.573198 -0.15533
C_ C_ 0.509775 0.773727 0.520347 0.02923
C_ C_ 0.556478 0.775937 0.990696 -0.15533
C_ C_ 0.580716 0.82139 0.508787 0.18167
C_ C_ 0.712495 0.772828 0.632002 0.18167
C_ C_ 0.73154 0.744003 0.672394 -0.15533
C_ C_ 0.726455 0.764171 0.723124 0.02923
C_ C_ 0.695784 0.808709 0.732106 -0.15533
C_ C_ 0.679847 0.838244 0.69073 0.18167
C_ C_ 0.738437 0.868896 0.55019 0.69207
C_ C_ 0.772679 0.88811 1.017365 0.02923
C_ C_ 0.749227 0.902895 0.971532 -0.15533
C_ C_ 0.776552 0.913779 0.931844 -0.15533
C_ C_ 0.829486 0.910445 0.936935 0.02923
C_ C_ 0.853443 0.903058 0.987194 -0.15533
C_ C_ 0.826078 0.887596 0.0266852 0.02923
C_ C_ 0.849438 0.878876 0.575694 0.69207
C_ C_ 0.83003 0.89208 0.836554 0.69661
C_ C_ 0.80821 0.922772 0.691979 0.18167
C_ C_ 0.768325 0.944213 0.718212 -0.15533
C_ C_ 0.770511 -0.007194000000000034 0.743354 0.02923
C_ C_ 0.82977 0.499263 0.753372 -0.15533
C_ C_ 0.855695 0.993194 0.717349 0.18167
C_ C_ 0.986664 0.847506 0.702257 0.18167
C_ C_ 0.519151 0.80026 0.720669 -0.15533
C_ C_ 0.98612 0.770003 0.742395 0.02923
C_ C_ 0.932592 0.776352 0.731476 -0.15533
C_ C_ 0.908236 0.813889 0.699227 0.18167
C_ C_ 0.9894 0.949478 0.62425 0.69207
C_ C_ 0.51817 0.497766 0.599337 0.02923
C_ C_ 0.499325 0.550653 0.598191 -0.15533
C_ C_ 0.531489 0.589977 0.599213 -0.15533
C_ C_ 0.583754 0.5781 0.605454 0.02923
C_ C_ 0.605065 0.526083 0.603019 -0.15533
C_ C_ 0.573755 0.486007 0.607275 0.02923
C_ C_ 0.596093 0.928763 0.602809 0.69207
C_ C_ 0.59587 0.672631 0.60568 0.69661
C_ C_ 0.932282 0.691373 0.918887 0.18167
C_ C_ 0.976663 0.709581 0.944177 -0.15533
C_ C_ 0.972713 0.742539 0.990072 0.02923
C_ C_ 0.930104 0.751322 0.513638 -0.15533
C_ C_ 0.888452 0.721331 0.990976 0.18167
C_ C_ 0.753837 0.698769 0.849163 0.18167
C_ C_ 0.726421 0.721603 0.805945 -0.15533
C_ C_ 0.752495 0.734642 0.766417 0.02923
C_ C_ 0.804668 0.717603 0.769198 -0.15533
C_ C_ 0.831148 0.694449 0.812254 0.18167
C_ C_ 0.758732 0.626605 0.956656 0.69207
C_ C_ 0.732191 0.615981 0.495565 0.02923
C_ C_ 0.745784 0.623031 0.547412 -0.15533
C_ C_ 0.713281 0.619364 0.585022 -0.15533
C_ C_ 0.662504 0.610179 0.572207 0.02923
C_ C_ 0.649148 0.602123 0.519142 -0.15533
C_ C_ 0.680833 0.606682 0.480809 0.02923
C_ C_ 0.656238 0.606466 0.928702 0.69207
C_ C_ 0.644351 0.619057 0.667747 0.69661
C_ C_ 0.858905 0.894959 0.890978 -0.30787
C_ C_ 0.62111 0.619964 0.610663 -0.30787
N_ N_ 0.65445 0.554627 0.817558 -0.32189
N_ N_ 0.555419 0.637389 0.825298 -0.32189
N_ N_ 0.597469 0.818626 0.560016 -0.32189
N_ N_ 0.684848 0.818566 0.643491 -0.32189
N_ N_ 0.852499 0.945891 0.694635 -0.32189
N_ N_ 0.936157 0.850814 0.689116 -0.32189
N_ N_ 0.890272 0.697229 0.943743 -0.32189
N_ N_ 0.805651 0.685493 0.853374 -0.32189
O_ O_ 1.00443953 0.589788 0.899515 -0.63271
O_ O_ 0.554809 0.529491 0.844805 -0.57982
O_ O_ 0.900355 0.597115 0.84536 -0.63271
O_ O_ 0.865416 0.588851 0.917833 -0.57982
O_ O_ 0.745533 0.889922 0.596623 -0.63271
O_ O_ 0.696743 0.845031 0.53464 -0.57982
O_ O_ 0.852247 0.840286 0.603769 -0.63271
O_ O_ 0.879039 0.913353 0.590538 -0.57982
O_ O_ 0.485122 0.912074 0.597522 -0.63271
O_ O_ 0.952661 0.959255 0.652492 -0.57982
O_ O_ 0.586152 0.898586 0.638356 -0.63271
O_ O_ 0.63638 0.916761 0.579638 -0.57982
O_ O_ 0.760639 0.590851 0.918409 -0.63271
O_ O_ 0.788631 0.662562 0.956724 -0.57982
O_ O_ 0.653967 0.647124 0.900008 -0.63271
O_ O_ 0.623469 0.573066 0.915675 -0.57982
F_ F_ 0.919334 0.832425 0.940674 -0.20885
F_ F_ 0.900744 0.811632 0.856965 -0.20885
F_ F_ 0.84255 0.809998 0.905188 -0.20885
F_ F_ 0.802179 0.937933 0.827784 -0.20885
F_ F_ 0.794245 0.855018 0.826207 -0.20885
F_ F_ 0.863672 0.883282 0.797748 -0.20885
F_ F_ 0.56678 0.672274 0.560347 -0.20885
F_ F_ 0.567016 0.690829 0.646539 -0.20885
F_ F_ 0.629678 0.710398 0.605821 -0.20885
F_ F_ 0.680999 0.579161 0.675138 -0.20885
F_ F_ 0.667268 0.660185 0.686246 -0.20885
F_ F_ 0.607779 0.609729 0.700371 -0.20885
