_cell_length_a 26.508
_cell_length_b 26.37200000322088
_cell_length_c 26.311999743092066
_cell_angle_alpha 93.74100058972084
_cell_angle_beta 96.04100104955006
_cell_angle_gamma 83.6869992558723
_symmetry_space_group_name_H-M         'P 1'
_symmetry_Int_Tables_number            1
loop_
_symmetry_equiv_pos_as_xyz
   'x, y, z'
                         
loop_
_atom_site_label
_atom_site_type_symbol
_atom_site_fract_x 
_atom_site_fract_y
_atom_site_fract_z
_atom_site_charge
Zn Zn 0.0938872 0.0713976 0.352492 0.83971
Zn Zn 0.154735 0.337877 0.0895847 0.83971
Zn Zn 0.411282 0.413221 0.160186 0.83971
Zn Zn 0.337746 0.15749 0.427335 0.83971
H_ H_ 0.180234 0.118417 0.321872 0.10394
H_ H_ 0.260217 0.0822139 0.290329 0.10394
H_ H_ 0.209389 0.454893 0.288274 0.10394
H_ H_ 0.126409 0.971766 0.306459 0.10394
H_ H_ 0.521408 0.0894828 0.266971 0.10394
H_ H_ 0.468876 0.156264 0.217378 0.10394
H_ H_ 0.0313642 0.262825 0.34153 0.10394
H_ H_ 0.077446 0.189552 0.380702 0.10394
H_ H_ 0.0303924 0.449502 0.351028 0.10394
H_ H_ 0.478579 0.377415 0.397488 0.10394
H_ H_ 0.350719 0.486291 0.390245 0.10394
H_ H_ 0.0738211 0.29154 0.136168 0.10394
H_ H_ 0.502806 0.277777 0.0967172 0.10394
H_ H_ 0.0458581 0.293207 0.458245 0.10394
H_ H_ 0.132179 0.294309 0.990743 0.10394
H_ H_ 0.219883 0.246919 0.104296 0.10394
H_ H_ 0.261325 0.205745 0.181386 0.10394
H_ H_ 0.226627 0.337552 0.272071 0.10394
H_ H_ 0.184393 0.378083 0.191467 0.10394
H_ H_ 0.209909 0.397637 0.444247 0.10394
H_ H_ 0.265094 0.387429 0.375289 0.10394
H_ H_ 0.398019 0.394375 0.481172 0.10394
H_ H_ 0.315511 0.392361 0.175371 0.10394
H_ H_ 0.235111 0.445255 0.19793 0.10394
H_ H_ 0.330856 0.027238 0.282183 0.10394
H_ H_ 0.402042 0.507583 0.234082 0.10394
H_ H_ 0.0187409 0.370832 0.191671 0.10394
H_ H_ 0.0598902 0.302813 0.249097 0.10394
H_ H_ 0.40382 0.238271 0.225119 0.10394
H_ H_ 0.364805 0.321783 0.194937 0.10394
H_ H_ 0.459536 0.0514364 0.106133 0.10394
H_ H_ 0.0194948 0.113054 0.080405 0.10394
H_ H_ 0.144921 -0.00312714 0.0922365 0.10394
H_ H_ 0.438896 0.168108 0.39982 0.10394
H_ H_ 0.0231319 0.194564 0.462699 0.10394
H_ H_ 0.427945 0.270858 0.0490996 0.10394
H_ H_ 0.349439 0.236214 0.515251 0.10394
H_ H_ 0.231329 0.205699 0.397616 0.10394
H_ H_ 0.190245 0.250759 0.323228 0.10394
H_ H_ 0.332481 0.216111 0.250366 0.10394
H_ H_ 0.372637 0.183425 0.333943 0.10394
H_ H_ 0.289152 0.109069 0.0555973 0.10394
H_ H_ 0.235554 0.0987589 0.118391 0.10394
H_ H_ 0.110968 0.0806135 0.00383188 0.10394
C_ C_ 0.185814 0.0779106 0.312254 0.18167
C_ C_ 0.229972 0.0582968 0.289616 -0.15533
C_ C_ 0.232884 0.00756938 0.267965 0.02923
C_ C_ 0.197093 0.493995 0.284465 -0.15533
C_ C_ 0.154781 -0.001358999999999999 0.301062 0.18167
C_ C_ 0.043367 0.128407 0.270071 0.18167
C_ C_ 0.498734 0.165717 0.245472 -0.15533
C_ C_ 0.0117461 0.219708 0.270664 0.02923
C_ C_ 0.0333546 0.224845 0.321248 -0.15533
C_ C_ 0.0570895 0.181726 0.345948 0.18167
C_ C_ 0.0153974 0.0402628 0.379298 0.69207
C_ C_ 0.476187 0.503384 0.375203 0.02923
C_ C_ 0.496298 0.451986 0.378071 -0.15533
C_ C_ 0.463509 0.41361 0.383502 -0.15533
C_ C_ 0.410461 0.425931 0.385073 0.02923
C_ C_ 0.39062 0.477176 0.383308 -0.15533
C_ C_ 0.422619 0.514859 0.376927 0.02923
C_ C_ 0.397346 0.0708374 0.396997 0.69207
C_ C_ 0.39595 0.327275 0.383532 0.69661
C_ C_ 0.0661061 0.293685 0.0946833 0.18167
C_ C_ 0.021761 0.271671 0.0707538 -0.15533
C_ C_ 0.017215 0.259283 0.0176026 0.02923
C_ C_ 0.0537736 0.291578 0.498606 -0.15533
C_ C_ 0.100472 0.288185 0.0138106 0.18167
C_ C_ 0.217793 0.263811 0.141866 0.18167
C_ C_ 0.234894 0.236596 0.187043 -0.15533
C_ C_ 0.230829 0.260436 0.235408 0.02923
C_ C_ 0.218045 0.314629 0.237556 -0.15533
C_ C_ 0.197352 0.337386 0.193754 0.18167
C_ C_ 0.23809 0.367938 0.0535529 0.69207
C_ C_ 0.275641 0.38926 0.505263 0.02923
C_ C_ 0.253313 0.397066 0.454469 -0.15533
C_ C_ 0.284346 0.393228 0.413948 -0.15533
C_ C_ 0.336945 0.393738 0.424294 0.02923
C_ C_ 0.357426 0.394913 0.475367 -0.15533
C_ C_ 0.3286 0.395751 0.515813 0.02923
C_ C_ 0.353033 0.382091 0.0745861 0.69207
C_ C_ 0.341553 0.382456 0.325274 0.69661
C_ C_ 0.315185 0.430968 0.190204 0.18167
C_ C_ 0.270947 0.457531 0.210836 -0.15533
C_ C_ 0.274617 0.500367 0.241962 0.02923
C_ C_ 0.325538 -0.0037049999999999583 0.252118 -0.15533
C_ C_ 0.364857 0.494199 0.22755 0.18167
C_ C_ 0.486461 0.343258 0.19412 0.18167
C_ C_ 0.0178242 0.302615 0.234046 -0.15533
C_ C_ 0.48164 0.258308 0.223377 0.02923
C_ C_ 0.429587 0.266575 0.215982 -0.15533
C_ C_ 0.405242 0.313627 0.194625 0.18167
C_ C_ 0.4907 0.450538 0.119108 0.69207
C_ C_ 0.0210512 0.988542 0.0994521 0.02923
C_ C_ 0.00269258 0.0406206 0.0948601 -0.15533
C_ C_ 0.0366835 0.0761172 0.0897796 -0.15533
C_ C_ 0.0885571 0.0627458 0.0950543 0.02923
C_ C_ 0.104649 0.00939271 0.0888988 -0.15533
C_ C_ 0.0722292 0.972984 0.0931236 0.02923
C_ C_ 0.0963789 0.424058 0.113377 0.69207
C_ C_ 0.0994326 0.159838 0.107532 0.69661
C_ C_ 0.436135 0.188939 0.434297 0.18167
C_ C_ 0.479981 0.210534 0.458128 -0.15533
C_ C_ 0.475017 0.248532 0.496386 0.02923
C_ C_ 0.434905 0.24424 0.0195812 -0.15533
C_ C_ 0.386566 0.234333 0.494919 0.18167
C_ C_ 0.252452 0.207975 0.365522 0.18167
C_ C_ 0.230565 0.234592 0.324396 -0.15533
C_ C_ 0.256129 0.234722 0.280476 0.02923
C_ C_ 0.308537 0.214298 0.281989 -0.15533
C_ C_ 0.333328 0.195641 0.328656 0.18167
C_ C_ 0.26016 0.131032 0.463194 0.69207
C_ C_ 0.231685 0.107756 0.989635 0.02923
C_ C_ 0.249849 0.102158 0.0415664 -0.15533
C_ C_ 0.217594 0.100669 0.0787114 -0.15533
C_ C_ 0.165802 0.09524 0.0664182 0.02923
C_ C_ 0.149321 0.0879912 0.0137403 -0.15533
C_ C_ 0.179581 0.100489 0.974796 0.02923
C_ C_ 0.15776 0.0996403 0.431348 0.69207
C_ C_ 0.151058 0.0979495 0.162234 0.69661
C_ C_ 0.372311 0.383624 0.380675 -0.30787
C_ C_ 0.125287 0.102941 0.106112 -0.30787
N_ N_ 0.15016 0.0459376 0.318349 -0.32189
N_ N_ 0.0623726 0.135323 0.320128 -0.32189
N_ N_ 0.104242 0.299799 0.0654725 -0.32189
N_ N_ 0.194693 0.31115 0.148638 -0.32189
N_ N_ 0.361213 0.449972 0.199347 -0.32189
N_ N_ 0.435537 0.350747 0.187927 -0.32189
N_ N_ 0.391841 0.198836 0.452754 -0.32189
N_ N_ 0.304049 0.189394 0.367426 -0.32189
O_ O_ 0.504968 0.0942219 0.406717 -0.63271
O_ O_ 0.0495418 0.0262476 0.347527 -0.57982
O_ O_ 0.39649 0.092893 0.35306 -0.63271
O_ O_ 0.370735 0.0930841 0.432125 -0.57982
O_ O_ 0.241784 0.392277 0.0979552 -0.63271
O_ O_ 0.200252 0.339997 0.043229 -0.57982
O_ O_ 0.358194 0.340374 0.101715 -0.63271
O_ O_ 0.373417 0.422976 0.0977422 -0.57982
O_ O_ 0.991571 0.404693 0.103999 -0.63271
O_ O_ 0.462862 0.455293 0.156874 -0.57982
O_ O_ 0.0968035 0.404837 0.159618 -0.63271
O_ O_ 0.126381 0.400787 0.0816985 -0.57982
O_ O_ 0.26234 0.101405 0.422786 -0.63271
O_ O_ 0.296394 0.163473 0.473905 -0.57982
O_ O_ 0.154161 0.14138 0.406531 -0.63271
O_ O_ 0.125193 0.0676405 0.414482 -0.57982
F_ F_ 0.43128 0.32331 0.42539 -0.20885
F_ F_ 0.424498 0.309323 0.344976 -0.20885
F_ F_ 0.359255 0.295607 0.388966 -0.20885
F_ F_ 0.310633 0.425813 0.311933 -0.20885
F_ F_ 0.313034 0.340983 0.313358 -0.20885
F_ F_ 0.381057 0.382388 0.291098 -0.20885
F_ F_ 0.0792675 0.169675 0.0587405 -0.20885
F_ F_ 0.0639142 0.169908 0.143212 -0.20885
F_ F_ 0.135329 0.19533 0.121699 -0.20885
F_ F_ 0.18578 0.0571044 0.167785 -0.20885
F_ F_ 0.179687 0.137292 0.181409 -0.20885
F_ F_ 0.1178 0.0975656 0.198479 -0.20885
Zn Zn 0.0891053 0.085951 0.841904 0.83971
Zn Zn 0.167492 0.353269 0.589336 0.83971
Zn Zn 0.40858 0.417878 0.65238 0.83971
Zn Zn 0.346234 0.155166 0.919121 0.83971
H_ H_ 0.16966 0.133558 0.800316 0.10394
H_ H_ 0.250973 0.0978865 0.757435 0.10394
H_ H_ 0.199801 0.445903 0.78064 0.10394
H_ H_ 0.136354 0.988313 0.825165 0.10394
H_ H_ 0.507281 0.0939761 0.763027 0.10394
H_ H_ 0.473554 0.169228 0.709478 0.10394
H_ H_ 0.0421867 0.270711 0.829429 0.10394
H_ H_ 0.0822885 0.195207 0.876633 0.10394
H_ H_ 0.0404139 0.447475 0.866832 0.10394
H_ H_ 0.480346 0.375836 0.906265 0.10394
H_ H_ 0.345717 0.481039 0.902212 0.10394
H_ H_ 0.0753564 0.328123 0.642971 0.10394
H_ H_ 0.519657 0.25275 0.596501 0.10394
H_ H_ 0.0483244 0.263851 0.948033 0.10394
H_ H_ 0.126646 0.31916 0.496239 0.10394
H_ H_ 0.209179 0.254358 0.59679 0.10394
H_ H_ 0.256574 0.19635 0.668874 0.10394
H_ H_ 0.223438 0.329224 0.769014 0.10394
H_ H_ 0.18071 0.375107 0.70338 0.10394
H_ H_ 0.215608 0.353519 0.951406 0.10394
H_ H_ 0.263437 0.371233 0.884846 0.10394
H_ H_ 0.386109 0.413694 0.991586 0.10394
H_ H_ 0.306798 0.396677 0.658775 0.10394
H_ H_ 0.229179 0.442206 0.695243 0.10394
H_ H_ 0.339296 0.0488952 0.769279 0.10394
H_ H_ 0.39539 0.506173 0.738876 0.10394
H_ H_ 0.0107281 0.388536 0.710847 0.10394
H_ H_ 0.0516905 0.309259 0.747611 0.10394
H_ H_ 0.403131 0.251334 0.733054 0.10394
H_ H_ 0.367472 0.323766 0.680588 0.10394
H_ H_ 0.464633 0.0536962 0.617754 0.10394
H_ H_ 0.0087874 0.114342 0.579264 0.10394
H_ H_ 0.142297 0.00498973 0.596961 0.10394
H_ H_ 0.440257 0.168151 0.890281 0.10394
H_ H_ 0.0138358 0.178143 0.944653 0.10394
H_ H_ 0.421618 0.289346 0.543318 0.10394
H_ H_ 0.356077 0.238199 0.009160000000000057 0.10394
H_ H_ 0.253866 0.215629 0.896672 0.10394
H_ H_ 0.208665 0.254874 0.826768 0.10394
H_ H_ 0.341651 0.218604 0.745692 0.10394
H_ H_ 0.382056 0.183874 0.823842 0.10394
H_ H_ 0.279669 0.135929 0.566475 0.10394
H_ H_ 0.225364 0.109121 0.62529 0.10394
H_ H_ 0.106575 0.0829526 0.506248 0.10394
C_ C_ 0.181851 0.0944452 0.79723 0.18167
C_ C_ 0.226905 0.0726916 0.774376 -0.15533
C_ C_ 0.237877 0.0193343 0.770443 0.02923
C_ C_ 0.192858 0.486121 0.787125 -0.15533
C_ C_ 0.163577 0.0118513 0.812445 0.18167
C_ C_ 0.0234974 0.135175 0.772876 0.18167
C_ C_ 0.494601 0.173493 0.746373 -0.15533
C_ C_ 0.00617174 0.227479 0.766162 0.02923
C_ C_ 0.0362388 0.233652 0.813888 -0.15533
C_ C_ 0.0579042 0.191014 0.839566 0.18167
C_ C_ 0.00659267 0.0465768 0.860791 0.69207
C_ C_ 0.47006 0.502076 0.885013 0.02923
C_ C_ 0.491859 0.452387 0.893906 -0.15533
C_ C_ 0.461155 0.413021 0.897923 -0.15533
C_ C_ 0.406947 0.42384 0.893921 0.02923
C_ C_ 0.387331 0.474875 0.894995 -0.15533
C_ C_ 0.416725 0.514749 0.888005 0.02923
C_ C_ 0.395148 0.0658569 0.883323 0.69207
C_ C_ 0.398576 0.325999 0.901298 0.69661
C_ C_ 0.0719285 0.312945 0.602895 0.18167
C_ C_ 0.0293172 0.286168 0.583738 -0.15533
C_ C_ 0.0198488 0.278114 0.531584 0.02923
C_ C_ 0.0563584 0.269809 0.988877 -0.15533
C_ C_ 0.100383 0.30914 0.520414 0.18167
C_ C_ 0.217427 0.267882 0.63723 0.18167
C_ C_ 0.235606 0.235081 0.676226 -0.15533
C_ C_ 0.234755 0.25582 0.727425 0.02923
C_ C_ 0.218164 0.308082 0.735292 -0.15533
C_ C_ 0.194829 0.335856 0.696482 0.18167
C_ C_ 0.240497 0.382862 0.544466 0.69207
C_ C_ 0.271129 0.3743 0.0125513 0.02923
C_ C_ 0.252626 0.365685 0.961845 -0.15533
C_ C_ 0.282965 0.370247 0.922996 -0.15533
C_ C_ 0.330736 0.389263 0.931585 0.02923
C_ C_ 0.349503 0.397241 0.983543 -0.15533
C_ C_ 0.323196 0.386747 0.0240144 0.02923
C_ C_ 0.354966 0.393601 0.567455 0.69207
C_ C_ 0.34772 0.382523 0.835081 0.69661
C_ C_ 0.308756 0.432072 0.682573 0.18167
C_ C_ 0.267875 0.452709 0.70988 -0.15533
C_ C_ 0.274649 0.492774 0.745789 0.02923
C_ C_ 0.33142 0.0101336 0.752714 -0.15533
C_ C_ 0.361813 0.487843 0.730103 0.18167
C_ C_ 0.488717 0.35075 0.695919 0.18167
C_ C_ 0.0117947 0.312343 0.732832 -0.15533
C_ C_ 0.482768 0.269308 0.734769 0.02923
C_ C_ 0.426697 0.277787 0.722235 -0.15533
C_ C_ 0.407162 0.319014 0.692892 0.18167
C_ C_ 0.482248 0.452292 0.618072 0.69207
C_ C_ 0.0185395 0.988285 0.605177 0.02923
C_ C_ -0.002051000000000025 0.0403277 0.604069 -0.15533
C_ C_ 0.0284091 0.07766 0.593176 -0.15533
C_ C_ 0.0812407 0.0676733 0.596087 0.02923
C_ C_ 0.101813 0.0158482 0.596695 -0.15533
C_ C_ 0.0706119 0.976154 0.601653 0.02923
C_ C_ 0.105142 0.433526 0.621367 0.69207
C_ C_ 0.0939831 0.166388 0.608239 0.69661
C_ C_ 0.440645 0.185163 0.928503 0.18167
C_ C_ 0.485841 0.202894 0.952918 -0.15533
C_ C_ 0.483534 0.233632 1.00009 0.02923
C_ C_ 0.428586 0.259566 0.516503 -0.15533
C_ C_ 0.392353 0.22244 0.995511 0.18167
C_ C_ 0.268795 0.208084 0.861071 0.18167
C_ C_ 0.243681 0.22882 0.818788 -0.15533
C_ C_ 0.264528 0.229905 0.771987 0.02923
C_ C_ 0.319024 0.210468 0.77541 -0.15533
C_ C_ 0.342079 0.188894 0.819015 0.18167
C_ C_ 0.269489 0.11955 0.953756 0.69207
C_ C_ 0.224699 0.124124 0.499957 0.02923
C_ C_ 0.239486 0.127267 0.552446 -0.15533
C_ C_ 0.208227 0.114385 0.58771 -0.15533
C_ C_ 0.158337 0.101107 0.572297 0.02923
C_ C_ 0.145146 0.0928272 0.51929 -0.15533
C_ C_ 0.179519 0.0988207 0.483745 0.02923
C_ C_ 0.155699 0.10622 0.922364 0.69207
C_ C_ 0.138042 0.103009 0.665901 0.69661
C_ C_ 0.371809 0.380918 0.891368 -0.30787
C_ C_ 0.117934 0.108721 0.608272 -0.30787
N_ N_ 0.148598 0.0628728 0.809619 -0.32189
N_ N_ 0.0555213 0.145971 0.815236 -0.32189
N_ N_ 0.111215 0.313629 0.572505 -0.32189
N_ N_ 0.19886 0.317979 0.64818 -0.32189
N_ N_ 0.355068 0.451275 0.692225 -0.32189
N_ N_ 0.438206 0.35373 0.679445 -0.32189
N_ N_ 0.395895 0.195746 0.949783 -0.32189
N_ N_ 0.316816 0.18489 0.858581 -0.32189
O_ O_ 0.504959 0.0892804 0.889864 -0.63271
O_ O_ 0.0456356 0.0363145 0.835706 -0.57982
O_ O_ 0.396545 0.090096 0.842754 -0.63271
O_ O_ 0.379029 0.0907125 0.925036 -0.57982
O_ O_ 0.245057 0.408981 0.587167 -0.63271
O_ O_ 0.207644 0.349148 0.538748 -0.57982
O_ O_ 0.353911 0.35322 0.595622 -0.63271
O_ O_ 0.380557 0.429807 0.58917 -0.57982
O_ O_ 1.00272 0.412412 0.608675 -0.63271
O_ O_ 0.452054 0.464247 0.653554 -0.57982
O_ O_ 0.0980488 0.408004 0.661135 -0.63271
O_ O_ 0.146317 0.418273 0.59822 -0.57982
O_ O_ 0.268379 0.0989929 0.907893 -0.63271
O_ O_ 0.302579 0.15239 0.967939 -0.57982
O_ O_ 0.164257 0.146338 0.899429 -0.63271
O_ O_ 0.113854 0.0845062 0.908142 -0.57982
F_ F_ 0.428421 0.324767 0.948971 -0.20885
F_ F_ 0.428651 0.313984 0.861666 -0.20885
F_ F_ 0.361793 0.292106 0.899928 -0.20885
F_ F_ 0.311838 0.423252 0.832292 -0.20885
F_ F_ 0.319848 0.34168 0.820104 -0.20885
F_ F_ 0.382947 0.382158 0.798225 -0.20885
F_ F_ 0.0664123 0.174039 0.560686 -0.20885
F_ F_ 0.060536 0.176495 0.644588 -0.20885
F_ F_ 0.130897 0.202627 0.618985 -0.20885
F_ F_ 0.167847 0.0558475 0.67324 -0.20885
F_ F_ 0.169097 0.139986 0.684661 -0.20885
F_ F_ 0.10047 0.104142 0.699469 -0.20885
Zn Zn 0.0849055 0.594527 0.34449 0.83971
Zn Zn 0.163753 0.842506 0.0796132 0.83971
Zn Zn 0.408721 0.914307 0.146867 0.83971
Zn Zn 0.341369 0.652302 0.412507 0.83971
H_ H_ 0.170276 0.639813 0.305881 0.10394
H_ H_ 0.251707 0.60299 0.271317 0.10394
H_ H_ 0.200096 0.937501 0.26504 0.10394
H_ H_ 0.125815 0.493567 0.318831 0.10394
H_ H_ 0.517802 0.599659 0.255406 0.10394
H_ H_ 0.467367 0.674813 0.219008 0.10394
H_ H_ 0.0199662 0.773993 0.341198 0.10394
H_ H_ 0.0588799 0.69934 0.386196 0.10394
H_ H_ 0.0332612 0.943225 0.381188 0.10394
H_ H_ 0.482779 0.884115 0.373604 0.10394
H_ H_ 0.355478 0.98732 0.411388 0.10394
H_ H_ 0.0791008 0.79912 0.129034 0.10394
H_ H_ 0.498242 0.771676 0.09167 0.10394
H_ H_ 0.0425915 0.777687 0.442728 0.10394
H_ H_ 0.12039 0.817682 0.980764 0.10394
H_ H_ 0.238529 0.757383 0.0949809 0.10394
H_ H_ 0.279967 0.710061 0.165785 0.10394
H_ H_ 0.201421 0.826431 0.267809 0.10394
H_ H_ 0.161568 0.8711 0.195451 0.10394
H_ H_ 0.219581 0.860381 0.439495 0.10394
H_ H_ 0.277824 0.86056 0.378214 0.10394
H_ H_ 0.400562 0.898086 0.484319 0.10394
H_ H_ 0.30401 0.895702 0.142212 0.10394
H_ H_ 0.231697 0.938418 0.182904 0.10394
H_ H_ 0.327917 0.555664 0.272932 0.10394
H_ H_ 0.40379 -0.013998999999999984 0.23155 0.10394
H_ H_ 0.00328655 0.900982 0.207147 0.10394
H_ H_ 0.0419284 0.830651 0.263819 0.10394
H_ H_ 0.402564 0.761069 0.24265 0.10394
H_ H_ 0.3664 0.829002 0.186128 0.10394
H_ H_ 0.47038 0.554337 0.135959 0.10394
H_ H_ 0.0224064 0.618018 0.135369 0.10394
H_ H_ 0.139784 0.503583 0.0810085 0.10394
H_ H_ 0.443572 0.666196 0.390929 0.10394
H_ H_ 0.014554 0.694619 0.447833 0.10394
H_ H_ 0.409561 0.796105 0.0205456 0.10394
H_ H_ 0.347879 0.735364 0.50092 0.10394
H_ H_ 0.237931 0.692394 0.383135 0.10394
H_ H_ 0.198423 0.747891 0.310812 0.10394
H_ H_ 0.338239 0.715688 0.239509 0.10394
H_ H_ 0.37957 0.676623 0.322992 0.10394
H_ H_ 0.28321 0.578167 0.0425712 0.10394
H_ H_ 0.228482 0.571578 0.106866 0.10394
H_ H_ 0.0972103 0.62424 0.00671647 0.10394
C_ C_ 0.179405 0.598317 0.303207 0.18167
C_ C_ 0.221645 0.577556 0.277883 -0.15533
C_ C_ 0.232431 0.524556 0.270618 0.02923
C_ C_ 0.197263 0.979558 0.277753 -0.15533
C_ C_ 0.150693 0.516633 0.302997 0.18167
C_ C_ 0.0277203 0.644396 0.26954 0.18167
C_ C_ 0.498979 0.679706 0.249553 -0.15533
C_ C_ 0.00916861 0.735905 0.266635 0.02923
C_ C_ 0.0202459 0.737295 0.321147 -0.15533
C_ C_ 0.0446995 0.695497 0.34356 0.18167
C_ C_ 0.00938863 0.550108 0.363452 0.69207
C_ C_ 0.476152 0.00840768 0.39089 0.02923
C_ C_ 0.496978 0.95824 0.385914 -0.15533
C_ C_ 0.466242 0.918886 0.386635 -0.15533
C_ C_ 0.4139 0.928167 0.39491 0.02923
C_ C_ 0.39359 0.979758 0.403116 -0.15533
C_ C_ 0.425219 0.0202421 0.402441 0.02923
C_ C_ 0.399157 0.566761 0.37089 0.69207
C_ C_ 0.407121 0.829096 0.383642 0.69661
C_ C_ 0.0696692 0.7973 0.0873307 0.18167
C_ C_ 0.0255016 0.778158 0.0680447 -0.15533
C_ C_ 0.0159163 0.768618 0.0149657 0.02923
C_ C_ 0.0519026 0.786376 0.482941 -0.15533
C_ C_ 0.095642 0.80116 0.00375683 0.18167
C_ C_ 0.229651 0.773484 0.134639 0.18167
C_ C_ 0.254739 0.744093 0.174634 -0.15533
C_ C_ 0.241724 0.761882 0.224179 0.02923
C_ C_ 0.208822 0.808139 0.230298 -0.15533
C_ C_ 0.182467 0.83298 0.188417 0.18167
C_ C_ 0.237258 0.8651 0.0381811 0.69207
C_ C_ 0.276954 0.875846 0.503922 0.02923
C_ C_ 0.259453 0.869806 0.452709 -0.15533
C_ C_ 0.29291 0.87008 0.416105 -0.15533
C_ C_ 0.340584 0.888174 0.4269 0.02923
C_ C_ 0.358323 0.8941 0.478479 -0.15533
C_ C_ 0.327575 0.889574 0.517189 0.02923
C_ C_ 0.351152 0.881256 0.0647318 0.69207
C_ C_ 0.350675 0.891645 0.331066 0.69661
C_ C_ 0.310825 0.923431 0.175286 0.18167
C_ C_ 0.26839 0.947507 0.198153 -0.15533
C_ C_ 0.275453 0.987011 0.237983 0.02923
C_ C_ 0.322491 0.520618 0.249346 -0.15533
C_ C_ 0.365282 0.97847 0.221065 0.18167
C_ C_ 0.488481 0.848916 0.19344 0.18167
C_ C_ 0.00721939 0.828352 0.239074 -0.15533
C_ C_ 0.480377 0.775059 0.242263 0.02923
C_ C_ 0.427827 0.783437 0.229484 -0.15533
C_ C_ 0.406676 0.825246 0.199387 0.18167
C_ C_ 0.489255 0.951574 0.118987 0.69207
C_ C_ 0.0181981 0.490323 0.114451 0.02923
C_ C_ 0.00194835 0.541325 0.119276 -0.15533
C_ C_ 0.0341563 0.577906 0.11805 -0.15533
C_ C_ 0.0843533 0.565539 0.103892 0.02923
C_ C_ 0.10093 0.51538 0.0943742 -0.15533
C_ C_ 0.0713499 0.47724 0.106017 0.02923
C_ C_ 0.0933323 0.919248 0.0936977 0.69207
C_ C_ 0.0974063 0.661641 0.102727 0.69661
C_ C_ 0.439149 0.68311 0.429129 0.18167
C_ C_ 0.482982 0.701012 0.458371 -0.15533
C_ C_ 0.475986 0.736176 0.500525 0.02923
C_ C_ 0.419568 0.758697 -0.0010860000000000314 -0.15533
C_ C_ 0.386293 0.723107 0.490744 0.18167
C_ C_ 0.260349 0.704021 0.35529 0.18167
C_ C_ 0.239287 0.732131 0.313257 -0.15533
C_ C_ 0.266762 0.735057 0.270709 0.02923
C_ C_ 0.315533 0.71057 0.271299 -0.15533
C_ C_ 0.339534 0.689707 0.318055 0.18167
C_ C_ 0.262617 0.620654 0.447867 0.69207
C_ C_ 0.220803 0.604428 0.98541 0.02923
C_ C_ 0.242036 0.585057 0.0317912 -0.15533
C_ C_ 0.20995 0.582152 0.0706484 -0.15533
C_ C_ 0.156911 0.593622 0.0641612 0.02923
C_ C_ 0.136666 0.60873 0.0145074 -0.15533
C_ C_ 0.168705 0.609981 0.97499 0.02923
C_ C_ 0.145999 0.61988 0.421187 0.69207
C_ C_ 0.149995 0.600203 0.159981 0.69661
C_ C_ 0.379697 0.885242 0.385648 -0.30787
C_ C_ 0.122113 0.604458 0.105591 -0.30787
N_ N_ 0.141435 0.56824 0.305488 -0.32189
N_ N_ 0.0486941 0.650694 0.317446 -0.32189
N_ N_ 0.107128 0.805396 0.0551582 -0.32189
N_ N_ 0.19199 0.813212 0.141291 -0.32189
N_ N_ 0.355447 0.943705 0.182686 -0.32189
N_ N_ 0.436916 0.854295 0.180509 -0.32189
N_ N_ 0.393045 0.693607 0.445925 -0.32189
N_ N_ 0.310337 0.683157 0.354958 -0.32189
O_ O_ 0.503993 0.589334 0.385898 -0.63271
O_ O_ 0.0467673 0.538839 0.336943 -0.57982
O_ O_ 0.397647 0.585423 0.324859 -0.63271
O_ O_ 0.377693 0.590909 0.408199 -0.57982
O_ O_ 0.234968 0.899751 0.0746822 -0.63271
O_ O_ 0.207761 0.829936 0.0342443 -0.57982
O_ O_ 0.351089 0.841206 0.0904015 -0.63271
O_ O_ 0.378735 0.918414 0.0841304 -0.57982
O_ O_ 0.980446 0.907769 0.0923914 -0.63271
O_ O_ 0.454172 0.962635 0.151249 -0.57982
O_ O_ 0.096183 0.898318 0.138008 -0.63271
O_ O_ 0.12684 0.899906 0.0625415 -0.57982
O_ O_ 0.255691 0.598477 0.400425 -0.63271
O_ O_ 0.298998 0.650262 0.458703 -0.57982
O_ O_ 0.145462 0.658444 0.394388 -0.63271
O_ O_ 0.112858 0.588278 0.407102 -0.57982
F_ F_ 0.436041 0.824718 0.430499 -0.20885
F_ F_ 0.436697 0.813289 0.345024 -0.20885
F_ F_ 0.37403 0.792182 0.381413 -0.20885
F_ F_ 0.30781 0.927597 0.32997 -0.20885
F_ F_ 0.332438 0.846322 0.31209 -0.20885
F_ F_ 0.382856 0.903287 0.295427 -0.20885
F_ F_ 0.0523613 0.668641 0.0688227 -0.20885
F_ F_ 0.0858482 0.689051 0.147094 -0.20885
F_ F_ 0.134967 0.689983 0.0894835 -0.20885
F_ F_ 0.176855 0.552638 0.169863 -0.20885
F_ F_ 0.184494 0.633852 0.178044 -0.20885
F_ F_ 0.111667 0.606438 0.19608 -0.20885
Zn Zn 0.0803615 0.593903 0.840963 0.83971
Zn Zn 0.164164 0.847043 0.585099 0.83971
Zn Zn 0.412674 0.915021 0.653053 0.83971
Zn Zn 0.337412 0.650656 0.915764 0.83971
H_ H_ 0.168563 0.631469 0.80187 0.10394
H_ H_ 0.252643 0.594494 0.787621 0.10394
H_ H_ 0.225157 0.954058 0.80324 0.10394
H_ H_ 0.113907 0.484102 0.811054 0.10394
H_ H_ 0.532861 0.594509 0.750565 0.10394
H_ H_ 0.49243 0.670376 0.706479 0.10394
H_ H_ 0.0258562 0.778211 0.823114 0.10394
H_ H_ 0.0668182 0.702668 0.870092 0.10394
H_ H_ 0.0374396 0.947721 0.855831 0.10394
H_ H_ 0.479759 0.876235 0.869092 0.10394
H_ H_ 0.351716 0.985798 0.899777 0.10394
H_ H_ 0.0743082 0.817682 0.626872 0.10394
H_ H_ 0.504296 0.76252 0.600168 0.10394
H_ H_ 0.0368774 0.791525 0.941206 0.10394
H_ H_ 0.123552 0.816635 0.480947 0.10394
H_ H_ 0.230307 0.746037 0.596789 0.10394
H_ H_ 0.268815 0.700492 0.666611 0.10394
H_ H_ 0.208428 0.822686 0.76573 0.10394
H_ H_ 0.177039 0.872256 0.690182 0.10394
H_ H_ 0.218256 0.860744 0.936385 0.10394
H_ H_ 0.265097 0.882304 0.869128 0.10394
H_ H_ 0.395042 0.89994 0.982383 0.10394
H_ H_ 0.30916 0.900494 0.654146 0.10394
H_ H_ 0.233597 0.947739 0.689138 0.10394
H_ H_ 0.332599 0.5334 0.789583 0.10394
H_ H_ 0.401524 0.006510000000000016 0.723288 0.10394
H_ H_ 0.00944556 0.891114 0.692756 0.10394
H_ H_ 0.0475225 0.816066 0.74385 0.10394
H_ H_ 0.41039 0.741348 0.715324 0.10394
H_ H_ 0.370786 0.823423 0.678258 0.10394
H_ H_ 0.457727 0.546927 0.580868 0.10394
H_ H_ 0.0143886 0.626377 0.608496 0.10394
H_ H_ 0.143209 0.51351 0.584908 0.10394
H_ H_ 0.441538 0.620155 0.967609 0.10394
H_ H_ 0.00931896 0.699543 0.929333 0.10394
H_ H_ 0.423866 0.770858 0.54979 0.10394
H_ H_ 0.340494 0.748362 -0.019244999999999957 0.10394
H_ H_ 0.23357 0.695109 0.883804 0.10394
H_ H_ 0.196151 0.743836 0.809629 0.10394
H_ H_ 0.343087 0.721257 0.751889 0.10394
H_ H_ 0.38059 0.685015 0.830676 0.10394
H_ H_ 0.288834 0.60519 0.54856 0.10394
H_ H_ 0.233009 0.605302 0.61536 0.10394
H_ H_ 0.10374 0.612901 0.503596 0.10394
C_ C_ 0.175853 0.590245 0.80202 0.18167
C_ C_ 0.223436 0.56855 0.787875 -0.15533
C_ C_ 0.230341 0.517462 0.77322 0.02923
C_ C_ 0.213074 0.991333 0.799799 -0.15533
C_ C_ 0.146489 0.508426 0.804533 0.18167
C_ C_ 0.0308763 0.641724 0.757459 0.18167
C_ C_ 0.508316 0.676186 0.744599 -0.15533
C_ C_ 0.00589267 0.731653 0.754939 0.02923
C_ C_ 0.0282741 0.741291 0.804465 -0.15533
C_ C_ 0.0506946 0.699801 0.829231 0.18167
C_ C_ 0.0122844 0.548531 0.874711 0.69207
C_ C_ 0.473136 0.0046200000000000685 0.879273 0.02923
C_ C_ 0.491626 0.953512 0.872152 -0.15533
C_ C_ 0.46118 0.913847 0.872675 -0.15533
C_ C_ 0.409676 0.924149 0.885735 0.02923
C_ C_ 0.391577 0.975839 0.893545 -0.15533
C_ C_ 0.420733 0.0156686 0.887606 0.02923
C_ C_ 0.391055 0.565997 0.882171 0.69207
C_ C_ 0.398451 0.825858 0.877036 0.69661
C_ C_ 0.0643933 0.814787 0.586057 0.18167
C_ C_ 0.0203146 0.794371 0.564425 -0.15533
C_ C_ 0.0141646 0.778816 0.514165 0.02923
C_ C_ 0.0484096 0.786383 0.981455 -0.15533
C_ C_ 0.0949682 0.808683 0.503828 0.18167
C_ C_ 0.22664 0.764345 0.631977 0.18167
C_ C_ 0.25088 0.738566 0.673431 -0.15533
C_ C_ 0.246364 0.760401 0.723481 0.02923
C_ C_ 0.219076 0.809823 0.728931 -0.15533
C_ C_ 0.197602 0.834151 0.685707 0.18167
C_ C_ 0.241739 0.870423 0.545798 0.69207
C_ C_ 0.276572 0.866596 -0.000723697 0.02923
C_ C_ 0.256593 0.868356 0.947256 -0.15533
C_ C_ 0.284308 0.877637 0.907853 -0.15533
C_ C_ 0.335852 0.8837 0.919717 0.02923
C_ C_ 0.356214 0.887746 0.971997 -0.15533
C_ C_ 0.324578 0.881982 0.0117334 0.02923
C_ C_ 0.354057 0.887416 0.568601 0.69207
C_ C_ 0.347111 0.885303 0.822526 0.69661
C_ C_ 0.314811 0.930241 0.683647 0.18167
C_ C_ 0.273166 0.953408 0.707665 -0.15533
C_ C_ 0.281235 0.99501668 0.741854 0.02923
C_ C_ 0.32268 0.50557 0.758838 -0.15533
C_ C_ 0.368522 0.986175 0.725138 0.18167
C_ C_ 0.487998 0.852553 0.713641 0.18167
C_ C_ 0.010757 0.815935 0.724161 -0.15533
C_ C_ 0.476833 0.769887 0.747395 0.02923
C_ C_ 0.430184 0.773523 0.718265 -0.15533
C_ C_ 0.411346 0.818391 0.691727 0.18167
C_ C_ 0.487548 0.952608 0.617985 0.69207
C_ C_ 0.0289533 0.49768 0.629114 0.02923
C_ C_ 1.00780358 0.550687 0.629191 -0.15533
C_ C_ 0.0343338 0.588243 0.611117 -0.15533
C_ C_ 0.0832035 0.577033 0.596127 0.02923
C_ C_ 0.105045 0.524943 0.596524 -0.15533
C_ C_ 0.0789163 0.486158 0.615499 0.02923
C_ C_ 0.100047 0.92633 0.611237 0.69207
C_ C_ 0.100865 0.670579 0.606078 0.69661
C_ C_ 0.438814 0.660931 0.960719 0.18167
C_ C_ 0.477866 0.688261 0.979425 -0.15533
C_ C_ 0.470052 0.738925 -0.0018259999999999943 0.02923
C_ C_ 0.428859 0.745881 0.516439 -0.15533
C_ C_ 0.379214 0.729209 0.980023 0.18167
C_ C_ 0.258429 0.707378 0.856254 0.18167
C_ C_ 0.23758 0.728778 0.811746 -0.15533
C_ C_ 0.265604 0.729577 0.7682 0.02923
C_ C_ 0.318312 0.710364 0.775964 -0.15533
C_ C_ 0.338593 0.693229 0.823556 0.18167
C_ C_ 0.256902 0.615467 0.947579 0.69207
C_ C_ 0.22769 0.614018 0.486362 0.02923
C_ C_ 0.248163 0.611978 0.539224 -0.15533
C_ C_ 0.215461 0.611831 0.577293 -0.15533
C_ C_ 0.162397 0.608546 0.566614 0.02923
C_ C_ 0.142738 0.613321 0.51399 -0.15533
C_ C_ 0.173077 0.619182 0.474158 0.02923
C_ C_ 0.144957 0.618344 0.922638 0.69207
C_ C_ 0.149024 0.608946 0.661583 0.69661
C_ C_ 0.372732 0.881901 0.878368 -0.30787
C_ C_ 0.123082 0.615304 0.607088 -0.30787
N_ N_ 0.139025 0.560375 0.810847 -0.32189
N_ N_ 0.0470335 0.651192 0.80703 -0.32189
N_ N_ 0.102302 0.817354 0.556183 -0.32189
N_ N_ 0.199436 0.809535 0.639176 -0.32189
N_ N_ 0.361919 0.944777 0.695592 -0.32189
N_ N_ 0.441465 0.854286 0.687466 -0.32189
N_ N_ 0.389708 0.684421 0.953455 -0.32189
N_ N_ 0.308293 0.687196 0.859022 -0.32189
O_ O_ 0.495919 0.589427 0.891549 -0.63271
O_ O_ 0.0390243 0.542626 0.83708 -0.57982
O_ O_ 0.390204 0.587732 0.838897 -0.63271
O_ O_ 0.359927 0.583514 0.916553 -0.57982
O_ O_ 0.245995 0.900335 0.587797 -0.63271
O_ O_ 0.207868 0.837688 0.538437 -0.57982
O_ O_ 0.360763 0.843387 0.589354 -0.63271
O_ O_ 0.376512 0.926196 0.590642 -0.57982
O_ O_ 0.987932 0.902463 0.591129 -0.63271
O_ O_ 0.457003 0.962783 0.6542 -0.57982
O_ O_ 0.0961084 0.906638 0.655408 -0.63271
O_ O_ 0.140116 0.913763 0.587804 -0.57982
O_ O_ 0.255851 0.588196 0.90416 -0.63271
O_ O_ 0.290793 0.647969 0.961213 -0.57982
O_ O_ 0.144744 0.662648 0.902306 -0.63271
O_ O_ 0.111729 0.587031 0.902341 -0.57982
F_ F_ 0.436194 0.819372 0.915181 -0.20885
F_ F_ 0.423698 0.812683 0.835334 -0.20885
F_ F_ 0.368431 0.788447 0.884968 -0.20885
F_ F_ 0.318767 0.931115 0.821481 -0.20885
F_ F_ 0.316621 0.845982 0.806366 -0.20885
F_ F_ 0.379492 0.884309 0.786584 -0.20885
F_ F_ 0.0649531 0.676749 0.561462 -0.20885
F_ F_ 0.0744105 0.691092 0.649416 -0.20885
F_ F_ 0.134444 0.706771 0.602803 -0.20885
F_ F_ 0.178893 0.562207 0.669897 -0.20885
F_ F_ 0.183509 0.646924 0.673097 -0.20885
F_ F_ 0.114694 0.613311 0.699578 -0.20885
Zn Zn 0.592531 0.0858217 0.358264 0.83971
Zn Zn 0.663499 0.347154 0.084304 0.83971
Zn Zn 0.91245 0.410239 0.158465 0.83971
Zn Zn 0.845736 0.160318 0.423756 0.83971
H_ H_ 0.660557 0.137939 0.309791 0.10394
H_ H_ 0.743276 0.107854 0.264277 0.10394
H_ H_ 0.716389 0.444139 0.295903 0.10394
H_ H_ 0.632101 0.98429 0.313118 0.10394
H_ H_ 0.0428865 0.0935032 0.249597 0.10394
H_ H_ 0.99704082 0.162418 0.205386 0.10394
H_ H_ 0.520934 0.266101 0.32426 0.10394
H_ H_ 0.564396 0.2002 0.379961 0.10394
H_ H_ 0.538145 0.442586 0.385061 0.10394
H_ H_ 0.978695 0.378511 0.364226 0.10394
H_ H_ 0.864672 0.490385 0.423015 0.10394
H_ H_ 0.573232 0.319133 0.130565 0.10394
H_ H_ 0.99326768 0.260088 0.093582 0.10394
H_ H_ 0.543656 0.288253 0.447399 0.10394
H_ H_ 0.616307 0.333255 0.984766 0.10394
H_ H_ 0.724872 0.253965 0.105092 0.10394
H_ H_ 0.759841 0.203229 0.179554 0.10394
H_ H_ 0.718415 0.339702 0.270788 0.10394
H_ H_ 0.67617 0.380522 0.195039 0.10394
H_ H_ 0.719528 0.380715 0.443862 0.10394
H_ H_ 0.772555 0.391727 0.38187 0.10394
H_ H_ 0.895117 0.419384 0.498442 0.10394
H_ H_ 0.805991 0.390662 0.17226 0.10394
H_ H_ 0.734579 0.445264 0.201722 0.10394
H_ H_ 0.836504 0.0493112 0.280264 0.10394
H_ H_ 0.907896 0.495519 0.232671 0.10394
H_ H_ 0.508608 0.374408 0.191345 0.10394
H_ H_ 0.55055 0.293536 0.224463 0.10394
H_ H_ 0.917971 0.23797 0.228434 0.10394
H_ H_ 0.876195 0.31494 0.185322 0.10394
H_ H_ 0.963934 0.056328 0.103587 0.10394
H_ H_ 0.507649 0.117821 0.085064 0.10394
H_ H_ 0.64175 0.0147488 0.0952163 0.10394
H_ H_ 0.951769 0.157292 0.415275 0.10394
H_ H_ 0.516336 0.196554 0.446452 0.10394
H_ H_ 0.915742 0.276355 0.0413213 0.10394
H_ H_ 0.849663 0.234486 0.516057 0.10394
H_ H_ 0.738415 0.203396 0.392067 0.10394
H_ H_ 0.699511 0.247732 0.313956 0.10394
H_ H_ 0.834933 0.222752 0.248249 0.10394
H_ H_ 0.880873 0.185343 0.325697 0.10394
H_ H_ 0.781485 0.130552 0.0578671 0.10394
H_ H_ 0.72238 0.124801 0.124248 0.10394
H_ H_ 0.600633 0.0981035 0.00712045 0.10394
C_ C_ 0.674936 0.0972428 0.305622 0.18167
C_ C_ 0.720735 0.0802503 0.278223 -0.15533
C_ C_ 0.735591 0.0281182 0.270155 0.02923
C_ C_ 0.707329 0.485229 0.2962 -0.15533
C_ C_ 0.656232 0.0106336 0.30246 0.18167
C_ C_ 0.527948 0.127869 0.275988 0.18167
C_ C_ 0.0153432 0.170235 0.246392 -0.15533
C_ C_ 0.503531 0.217435 0.258818 0.02923
C_ C_ 0.529181 0.228529 0.307297 -0.15533
C_ C_ 0.549833 0.190317 0.33983 0.18167
C_ C_ 0.513737 0.0463992 0.387656 0.69207
C_ C_ 0.97539 0.510022 0.373011 0.02923
C_ C_ 0.995428 0.458984 0.366891 -0.15533
C_ C_ 0.966015 0.418851 0.37593 -0.15533
C_ C_ 0.919077 0.429811 0.395409 0.02923
C_ C_ 0.899787 0.482244 0.406593 -0.15533
C_ C_ 0.926802 0.523171 0.392415 0.02923
C_ C_ 0.900123 0.0714706 0.386418 0.69207
C_ C_ 0.910338 0.33513 0.406858 0.69661
C_ C_ 0.574056 0.303062 0.0921811 0.18167
C_ C_ 0.531947 0.280356 0.0736229 -0.15533
C_ C_ 0.525806 0.2654 0.0209555 0.02923
C_ C_ 0.555216 0.286949 0.486068 -0.15533
C_ C_ 0.60016 0.310221 0.0096205 0.18167
C_ C_ 0.715206 0.268342 0.140891 0.18167
C_ C_ 0.738585 0.242021 0.183413 -0.15533
C_ C_ 0.737506 0.266311 0.231533 0.02923
C_ C_ 0.715746 0.317936 0.237135 -0.15533
C_ C_ 0.690843 0.341253 0.193067 0.18167
C_ C_ 0.746059 0.369812 0.0501602 0.69207
C_ C_ 0.774854 0.393593 0.511415 0.02923
C_ C_ 0.758178 0.3859 0.456886 -0.15533
C_ C_ 0.790695 0.392187 0.420532 -0.15533
C_ C_ 0.842858 0.399556 0.433428 0.02923
C_ C_ 0.858116 0.410302 0.485862 -0.15533
C_ C_ 0.82771 0.399641 0.52333 0.02923
C_ C_ 0.855432 0.381353 0.075258 0.69207
C_ C_ 0.858497 0.382179 0.338317 0.69661
C_ C_ 0.812761 0.426572 0.192538 0.18167
C_ C_ 0.771508 0.457713 0.209509 -0.15533
C_ C_ 0.782399 0.497529 0.246965 0.02923
C_ C_ 0.824924 0.0259233 0.245127 -0.15533
C_ C_ 0.869656 0.487689 0.223824 0.18167
C_ C_ 0.997508 0.342641 0.201087 0.18167
C_ C_ 0.510106 0.29721 0.21235 -0.15533
C_ C_ 0.989814 0.264972 0.242301 0.02923
C_ C_ 0.939037 0.269614 0.222407 -0.15533
C_ C_ 0.916497 0.310947 0.194884 0.18167
C_ C_ 0.985689 0.451117 0.125033 0.69207
C_ C_ 0.521474 0.99274 0.105594 0.02923
C_ C_ 0.499228 0.0423484 0.105409 -0.15533
C_ C_ 0.528085 0.0815041 0.0924438 -0.15533
C_ C_ 0.578874 0.0725754 0.0966801 0.02923
C_ C_ 0.601483 0.0217969 0.0948467 -0.15533
C_ C_ 0.573339 0.980669 0.099895 0.02923
C_ C_ 0.603436 0.427275 0.10184 0.69207
C_ C_ 0.592071 0.168614 0.114952 0.69661
C_ C_ 0.943198 0.191667 0.441263 0.18167
C_ C_ 0.985255 0.212508 0.468468 -0.15533
C_ C_ 0.977683 0.246321 0.511295 0.02923
C_ C_ 0.922269 0.251135 0.00525838 -0.15533
C_ C_ 0.889936 0.228791 0.503955 0.18167
C_ C_ 0.763618 0.206814 0.360432 0.18167
C_ C_ 0.738026 0.23089 0.317708 -0.15533
C_ C_ 0.765196 0.237878 0.276467 0.02923
C_ C_ 0.815564 0.21992 0.281203 -0.15533
C_ C_ 0.839515 0.195898 0.323039 0.18167
C_ C_ 0.765998 0.130838 0.464151 0.69207
C_ C_ 0.724766 0.117097 0.996361 0.02923
C_ C_ 0.743024 0.119259 0.0486133 -0.15533
C_ C_ 0.708261 0.116443 0.0857085 -0.15533
C_ C_ 0.655952 0.109143 0.0720566 0.02923
C_ C_ 0.63928 0.103385 0.0194358 -0.15533
C_ C_ 0.672966 0.107651 0.983164 0.02923
C_ C_ 0.656926 0.115295 0.433642 0.69207
C_ C_ 0.639147 0.103725 0.168462 0.69661
C_ C_ 0.881523 0.38896 0.395724 -0.30787
C_ C_ 0.615549 0.114183 0.111315 -0.30787
N_ N_ 0.644206 0.0613979 0.31741 -0.32189
N_ N_ 0.556436 0.142107 0.320135 -0.32189
N_ N_ 0.60796 0.315402 0.0609915 -0.32189
N_ N_ 0.691553 0.315816 0.146102 -0.32189
N_ N_ 0.861406 0.441047 0.202267 -0.32189
N_ N_ 0.946617 0.349269 0.188381 -0.32189
N_ N_ 0.897336 0.20104 0.458362 -0.32189
N_ N_ 0.814378 0.193251 0.365035 -0.32189
O_ O_ 0.0158704 0.0859498 0.402094 -0.63271
O_ O_ 0.551151 0.0381052 0.356817 -0.57982
O_ O_ 0.911233 0.0981918 0.349271 -0.63271
O_ O_ 0.876295 0.0976648 0.423442 -0.57982
O_ O_ 0.749494 0.397449 0.0937507 -0.63271
O_ O_ 0.710416 0.339658 0.0401961 -0.57982
O_ O_ 0.851881 0.341789 0.101306 -0.63271
O_ O_ 0.886258 0.415351 0.0928872 -0.57982
O_ O_ 0.497737 0.405207 0.0942653 -0.63271
O_ O_ 0.949311 0.462459 0.155171 -0.57982
O_ O_ 0.604205 0.403946 0.144671 -0.63271
O_ O_ 0.64112 0.413345 0.0761423 -0.57982
O_ O_ 0.765516 0.100142 0.423187 -0.63271
O_ O_ 0.805687 0.158943 0.474796 -0.57982
O_ O_ 0.649488 0.155835 0.407199 -0.63271
O_ O_ 0.629473 0.0781178 0.419275 -0.57982
F_ F_ 0.940576 0.34032 0.449846 -0.20885
F_ F_ 0.938202 0.309631 0.368286 -0.20885
F_ F_ 0.878384 0.298836 0.416398 -0.20885
F_ F_ 0.822829 0.420621 0.320446 -0.20885
F_ F_ 0.836606 0.335153 0.334165 -0.20885
F_ F_ 0.892956 0.376157 0.304047 -0.20885
F_ F_ 0.560961 0.180739 0.0732529 -0.20885
F_ F_ 0.558002 0.177134 0.149727 -0.20885
F_ F_ 0.627673 0.205151 0.118107 -0.20885
F_ F_ 0.673492 0.0581553 0.176484 -0.20885
F_ F_ 0.665326 0.144126 0.190575 -0.20885
F_ F_ 0.602357 0.098795 0.202098 -0.20885
Zn Zn 0.588952 0.0794045 0.84495 0.83971
Zn Zn 0.661678 0.350637 0.584202 0.83971
Zn Zn 0.911922 0.42138 0.66089 0.83971
Zn Zn 0.839599 0.152009 0.912449 0.83971
H_ H_ 0.67607 0.121169 0.820301 0.10394
H_ H_ 0.752849 0.0934546 0.777337 0.10394
H_ H_ 0.700088 0.44569 0.772427 0.10394
H_ H_ 0.631209 0.974589 0.814308 0.10394
H_ H_ 0.0192898 0.0960197 0.75667 0.10394
H_ H_ 0.977122 0.167765 0.712663 0.10394
H_ H_ 0.540333 0.265799 0.826844 0.10394
H_ H_ 0.580497 0.191132 0.866962 0.10394
H_ H_ 0.533678 0.445703 0.899081 0.10394
H_ H_ 0.986912 0.380235 0.882236 0.10394
H_ H_ 0.855234 0.488448 0.899043 0.10394
H_ H_ 0.589861 0.292579 0.631003 0.10394
H_ H_ 0.00208416 0.276379 0.608955 0.10394
H_ H_ 0.547798 0.276465 0.947657 0.10394
H_ H_ 0.626193 0.316153 0.479627 0.10394
H_ H_ 0.717214 0.255661 0.598771 0.10394
H_ H_ 0.761612 0.214236 0.678058 0.10394
H_ H_ 0.722947 0.35133 0.770228 0.10394
H_ H_ 0.690423 0.39009 0.688744 0.10394
H_ H_ 0.718512 0.376258 0.950768 0.10394
H_ H_ 0.778036 0.363102 0.885317 0.10394
H_ H_ 0.900367 0.406393 0.990493 0.10394
H_ H_ 0.804774 0.405659 0.656889 0.10394
H_ H_ 0.73072 0.467064 0.675328 0.10394
H_ H_ 0.829105 0.0336904 0.77776 0.10394
H_ H_ 0.899196 0.504129 0.738181 0.10394
H_ H_ 0.508871 0.385289 0.696748 0.10394
H_ H_ 0.553929 0.301455 0.722625 0.10394
H_ H_ 0.912144 0.245662 0.725516 0.10394
H_ H_ 0.868523 0.328153 0.686114 0.10394
H_ H_ 0.958213 0.0512124 0.606038 0.10394
H_ H_ 0.517865 0.117874 0.611023 0.10394
H_ H_ 0.645809 0.00647848 0.592248 0.10394
H_ H_ 0.938457 0.156529 0.891724 0.10394
H_ H_ 0.522632 0.191158 0.936545 0.10394
H_ H_ 0.919129 0.282058 0.557977 0.10394
H_ H_ 0.846193 0.23582 -0.00169092 0.10394
H_ H_ 0.729339 0.196676 0.880243 0.10394
H_ H_ 0.692772 0.251988 0.811057 0.10394
H_ H_ 0.836923 0.237166 0.750083 0.10394
H_ H_ 0.875475 0.19351 0.830152 0.10394
H_ H_ 0.786594 0.133432 0.568003 0.10394
H_ H_ 0.735202 0.111128 0.630223 0.10394
H_ H_ 0.606894 0.103713 0.515977 0.10394
C_ C_ 0.681543 0.0834739 0.803092 0.18167
C_ C_ 0.72743 0.065037 0.786613 -0.15533
C_ C_ 0.73139 0.013113 0.765083 0.02923
C_ C_ 0.692313 0.486013 0.778396 -0.15533
C_ C_ 0.654951 1.36566e-05 0.802091 0.18167
C_ C_ 0.520379 0.130824 0.771618 0.18167
C_ C_ -0.0032200000000000006 0.17638 0.74732 -0.15533
C_ C_ 0.50069 0.223655 0.764798 0.02923
C_ C_ 0.531024 0.228744 0.809831 -0.15533
C_ C_ 0.554874 0.184828 0.834655 0.18167
C_ C_ 0.509676 0.0417309 0.871603 0.69207
C_ C_ 0.979429 0.507669 0.882091 0.02923
C_ C_ 0.999651 0.455857 0.877159 -0.15533
C_ C_ 0.968456 0.418288 0.883513 -0.15533
C_ C_ 0.918044 0.428599 0.896364 0.02923
C_ C_ 0.896881 0.479537 0.896671 -0.15533
C_ C_ 0.926201 0.519764 0.888272 0.02923
C_ C_ 0.892536 0.0684971 0.879314 0.69207
C_ C_ 0.907749 0.329028 0.891066 0.69661
C_ C_ 0.579187 0.296542 0.589953 0.18167
C_ C_ 0.535756 0.275825 0.571581 -0.15533
C_ C_ 0.520246 0.274172 0.519554 0.02923
C_ C_ 0.558131 0.281792 0.989459 -0.15533
C_ C_ 0.601319 0.304473 0.505977 0.18167
C_ C_ 0.71745 0.273719 0.638391 0.18167
C_ C_ 0.743796 0.251462 0.680882 -0.15533
C_ C_ 0.744132 0.277603 0.729163 0.02923
C_ C_ 0.722701 0.327831 0.732915 -0.15533
C_ C_ 0.699679 0.349503 0.688934 0.18167
C_ C_ 0.73736 0.385116 0.547438 0.69207
C_ C_ 0.77984 0.375149 1.0105213 0.02923
C_ C_ 0.758733 0.376983 0.960068 -0.15533
C_ C_ 0.791992 0.376402 0.92215 -0.15533
C_ C_ 0.842414 0.389755 0.932769 0.02923
C_ C_ 0.863363 0.389892 0.984263 -0.15533
C_ C_ 0.832006 0.384579 0.0222501 0.02923
C_ C_ 0.85428 0.394626 0.575683 0.69207
C_ C_ 0.850976 0.392436 0.83703 0.69661
C_ C_ 0.809183 0.437373 0.684013 0.18167
C_ C_ 0.766545 0.464855 0.698536 -0.15533
C_ C_ 0.772886 0.499439 0.743732 0.02923
C_ C_ 0.822923 0.00894081 0.746148 -0.15533
C_ C_ 0.862397 0.489716 0.731516 0.18167
C_ C_ 0.98999 0.355515 0.7071 0.18167
C_ C_ 0.51372 0.30577 0.717094 -0.15533
C_ C_ 0.983152 0.272604 0.737674 0.02923
C_ C_ 0.931658 0.277206 0.718641 -0.15533
C_ C_ 0.909924 0.320466 0.69329 0.18167
C_ C_ 0.99674 0.456124 0.634892 0.69207
C_ C_ 0.521456 0.9906 0.610099 0.02923
C_ C_ 0.504118 0.0410562 0.611576 -0.15533
C_ C_ 0.537407 0.0791479 0.610774 -0.15533
C_ C_ 0.589787 0.0700228 0.608163 0.02923
C_ C_ 0.60692 0.0183574 0.601466 -0.15533
C_ C_ 0.572883 0.978103 0.60115 0.02923
C_ C_ 0.59525 0.424991 0.60674 0.69207
C_ C_ 0.600099 0.166457 0.618567 0.69661
C_ C_ 0.933861 0.181954 0.923887 0.18167
C_ C_ 0.97851 0.19579 0.953489 -0.15533
C_ C_ 0.972188 0.234438 -0.008350999999999997 0.02923
C_ C_ 0.92929 0.251362 0.532227 -0.15533
C_ C_ 0.880294 0.231019 0.979979 0.18167
C_ C_ 0.75485 0.206475 0.850091 0.18167
C_ C_ 0.732479 0.236611 0.809994 -0.15533
C_ C_ 0.765565 0.251752 0.776647 0.02923
C_ C_ 0.815873 0.230348 0.779489 -0.15533
C_ C_ 0.837035 0.198875 0.819342 0.18167
C_ C_ 0.761813 0.122534 0.958537 0.69207
C_ C_ 0.728001 0.128978 0.502813 0.02923
C_ C_ 0.747204 0.12608 0.554949 -0.15533
C_ C_ 0.716575 0.112358 0.590644 -0.15533
C_ C_ 0.665629 0.107037 0.578317 0.02923
C_ C_ 0.646673 0.108289 0.526141 -0.15533
C_ C_ 0.677618 0.120053 0.488169 0.02923
C_ C_ 0.650305 0.113115 0.928484 0.69207
C_ C_ 0.650334 0.107419 0.673725 0.69661
C_ C_ 0.880949 0.386012 0.890436 -0.30787
C_ C_ 0.626932 0.111939 0.618189 -0.30787
N_ N_ 0.648687 0.0514465 0.813205 -0.32189
N_ N_ 0.554857 0.137741 0.812207 -0.32189
N_ N_ 0.610246 0.312405 0.556977 -0.32189
N_ N_ 0.700159 0.322813 0.642898 -0.32189
N_ N_ 0.855014 0.450987 0.696138 -0.32189
N_ N_ 0.939447 0.358953 0.688344 -0.32189
N_ N_ 0.88629 0.195713 0.941659 -0.32189
N_ N_ 0.804494 0.185605 0.852503 -0.32189
O_ O_ 0.0007500000000000284 0.0918004 0.884411 -0.63271
O_ O_ 0.54827 0.0290427 0.844873 -0.57982
O_ O_ 0.884505 0.093166 0.836265 -0.63271
O_ O_ 0.873275 0.0891503 0.920088 -0.57982
O_ O_ 0.732496 0.416306 0.587697 -0.63271
O_ O_ 0.708184 0.348414 0.537252 -0.57982
O_ O_ 0.85915 0.351104 0.596305 -0.63271
O_ O_ 0.880498 0.429815 0.595895 -0.57982
O_ O_ 0.486446 0.40488 0.597812 -0.63271
O_ O_ 0.957139 0.466087 0.662852 -0.57982
O_ O_ 0.594178 0.397475 0.645508 -0.63271
O_ O_ 0.630212 0.411228 0.576084 -0.57982
O_ O_ 0.76007 0.0979789 0.914663 -0.63271
O_ O_ 0.795431 0.155492 0.965335 -0.57982
O_ O_ 0.651986 0.156274 0.905761 -0.63271
O_ O_ 0.620056 0.0810348 0.91004 -0.57982
F_ F_ 0.945499 0.323612 0.931939 -0.20885
F_ F_ 0.93165 0.315693 0.849552 -0.20885
F_ F_ 0.875237 0.291142 0.894105 -0.20885
F_ F_ 0.815793 0.435275 0.837188 -0.20885
F_ F_ 0.824294 0.350557 0.820877 -0.20885
F_ F_ 0.88061 0.398709 0.795625 -0.20885
F_ F_ 0.56699 0.173078 0.576187 -0.20885
F_ F_ 0.573474 0.183253 0.660235 -0.20885
F_ F_ 0.634747 0.200852 0.615323 -0.20885
F_ F_ 0.681728 0.0615048 0.676721 -0.20885
F_ F_ 0.678757 0.14843 0.689621 -0.20885
F_ F_ 0.613418 0.102715 0.705943 -0.20885
Zn Zn 0.587572 0.582296 0.343665 0.83971
Zn Zn 0.661065 0.845372 0.0779528 0.83971
Zn Zn 0.906406 0.923364 0.149066 0.83971
Zn Zn 0.83685 0.655143 0.415242 0.83971
H_ H_ 0.667688 0.630663 0.302271 0.10394
H_ H_ 0.746555 0.598222 0.266934 0.10394
H_ H_ 0.709789 0.951816 0.272595 0.10394
H_ H_ 0.633932 0.482318 0.323088 0.10394
H_ H_ 0.0281665 0.605478 0.250629 0.10394
H_ H_ 1.0038 0.685071 0.200665 0.10394
H_ H_ 0.533139 0.770883 0.339105 0.10394
H_ H_ 0.578405 0.691226 0.377318 0.10394
H_ H_ 0.537122 0.948531 0.379791 0.10394
H_ H_ 0.977128 0.880182 0.37048 0.10394
H_ H_ 0.852713 0.992179 0.409237 0.10394
H_ H_ 0.57771 0.806255 0.123779 0.10394
H_ H_ 1.00108661 0.76369 0.0920194 0.10394
H_ H_ 0.534215 0.783447 0.443649 0.10394
H_ H_ 0.620736 0.801987 0.972041 0.10394
H_ H_ 0.717359 0.749758 0.0905994 0.10394
H_ H_ 0.766873 0.707345 0.164842 0.10394
H_ H_ 0.720625 0.839201 0.259863 0.10394
H_ H_ 0.684206 0.881195 0.185152 0.10394
H_ H_ 0.705404 0.892578 0.435135 0.10394
H_ H_ 0.766887 0.902661 0.370988 0.10394
H_ H_ 0.893814 0.894435 0.483281 0.10394
H_ H_ 0.805446 0.906122 0.15565 0.10394
H_ H_ 0.729856 0.959151 0.18666 0.10394
H_ H_ 0.838459 0.547036 0.275736 0.10394
H_ H_ 0.904955 1.0102789 0.226408 0.10394
H_ H_ 0.5105 0.87691 0.186763 0.10394
H_ H_ 0.551165 0.802326 0.233543 0.10394
H_ H_ 0.918824 0.747019 0.211875 0.10394
H_ H_ 0.877161 0.822868 0.173878 0.10394
H_ H_ 0.963828 0.554391 0.127871 0.10394
H_ H_ 0.519503 0.621377 0.113213 0.10394
H_ H_ 0.646077 0.510473 0.0893062 0.10394
H_ H_ 0.940943 0.663908 0.396999 0.10394
H_ H_ 0.519574 0.699094 0.44135 0.10394
H_ H_ 0.915533 0.777134 0.0407303 0.10394
H_ H_ 0.83925 0.735465 0.495536 0.10394
H_ H_ 0.73151 0.690828 0.371172 0.10394
H_ H_ 0.695374 0.742002 0.297585 0.10394
H_ H_ 0.842215 0.725581 0.247329 0.10394
H_ H_ 0.879295 0.690756 0.325181 0.10394
H_ H_ 0.780815 0.638281 0.0534601 0.10394
H_ H_ 0.737126 0.616944 0.122903 0.10394
H_ H_ 0.599691 0.602952 0.0148251 0.10394
C_ C_ 0.678809 0.58966 0.298089 0.18167
C_ C_ 0.72365 0.569664 0.277449 -0.15533
C_ C_ 0.739936 0.517971 0.27614 0.02923
C_ C_ 0.70117 0.993865 0.278468 -0.15533
C_ C_ 0.659189 0.507528 0.311345 0.18167
C_ C_ 0.522358 0.636752 0.272137 0.18167
C_ C_ 0.00978032 0.687903 0.241796 -0.15533
C_ C_ 0.506508 0.729715 0.270645 0.02923
C_ C_ 0.53316 0.734855 0.317251 -0.15533
C_ C_ 0.557747 0.687915 0.339969 0.18167
C_ C_ 0.511563 0.542248 0.366853 0.69207
C_ C_ 0.979483 0.00611759 0.390544 0.02923
C_ C_ -0.0041240000000000165 0.953729 0.388851 -0.15533
C_ C_ 0.962367 0.917672 0.380598 -0.15533
C_ C_ 0.909023 0.929923 0.388025 0.02923
C_ C_ 0.892886 0.982283 0.398187 -0.15533
C_ C_ 0.925117 0.0186552 0.395001 0.02923
C_ C_ 0.897193 0.57389 0.384792 0.69207
C_ C_ 0.892092 0.832058 0.377716 0.69661
C_ C_ 0.569679 0.798313 0.0823957 0.18167
C_ C_ 0.525886 0.778169 0.0655886 -0.15533
C_ C_ 0.514384 0.76871 0.0137645 0.02923
C_ C_ 0.541192 0.791806 0.485008 -0.15533
C_ C_ 0.595947 0.792843 -0.00236123 0.18167
C_ C_ 0.717872 0.766181 0.129613 0.18167
C_ C_ 0.748257 0.744175 0.170245 -0.15533
C_ C_ 0.745015 0.766964 0.220183 0.02923
C_ C_ 0.72315 0.818261 0.223901 -0.15533
C_ C_ 0.696535 0.83987 0.180418 0.18167
C_ C_ 0.738545 0.871454 0.034093 0.69207
C_ C_ 0.767537 0.877507 0.497882 0.02923
C_ C_ 0.747987 0.887298 0.446966 -0.15533
C_ C_ 0.781982 0.893771 0.408591 -0.15533
C_ C_ 0.833612 0.895882 0.422832 0.02923
C_ C_ 0.852538 0.893832 0.473168 -0.15533
C_ C_ 0.819496 0.886726 0.510929 0.02923
C_ C_ 0.845763 0.895667 0.0648731 0.69207
C_ C_ 0.846101 0.898806 0.322202 0.69661
C_ C_ 0.808401 0.944191 0.176002 0.18167
C_ C_ 0.767119 0.970841 0.194361 -0.15533
C_ C_ 0.775491 1.00918614 0.234402 0.02923
C_ C_ 0.830748 0.515564 0.250397 -0.15533
C_ C_ 0.8651 1.00019 0.219864 0.18167
C_ C_ 0.985882 0.867904 0.208526 0.18167
C_ C_ 0.510213 0.807809 0.223402 -0.15533
C_ C_ 0.986783 0.782486 0.238289 0.02923
C_ C_ 0.939409 0.779901 0.209972 -0.15533
C_ C_ 0.915693 0.822196 0.185141 0.18167
C_ C_ 0.983508 0.95322 0.113225 0.69207
C_ C_ 0.524247 0.492034 0.110722 0.02923
C_ C_ 0.50727 0.543614 0.121695 -0.15533
C_ C_ 0.537209 0.583693 0.115982 -0.15533
C_ C_ 0.58878 0.570823 0.107649 0.02923
C_ C_ 0.606132 0.520095 0.0951714 -0.15533
C_ C_ 0.576017 0.480183 0.0984235 0.02923
C_ C_ 0.60127 0.927312 0.106627 0.69207
C_ C_ 0.602119 0.667487 0.122827 0.69661
C_ C_ 0.935724 0.684628 0.431676 0.18167
C_ C_ 0.9752 0.71085 0.455291 -0.15533
C_ C_ 0.966944 0.751396 0.490822 0.02923
C_ C_ 0.922511 0.751731 1.008584 -0.15533
C_ C_ 0.878492 0.7263 0.488366 0.18167
C_ C_ 0.757119 0.700739 0.346836 0.18167
C_ C_ 0.736361 0.729949 0.305445 -0.15533
C_ C_ 0.766756 0.739229 0.267361 0.02923
C_ C_ 0.817382 0.724021 0.276108 -0.15533
C_ C_ 0.839212 0.699057 0.318796 0.18167
C_ C_ 0.757068 0.625828 0.449965 0.69207
C_ C_ 0.720351 0.625571 0.993466 0.02923
C_ C_ 0.741581 0.626711 0.0442928 -0.15533
C_ C_ 0.714271 0.621162 0.0853963 -0.15533
C_ C_ 0.662642 0.610313 0.0742913 0.02923
C_ C_ 0.641066 0.604946 0.0226049 -0.15533
C_ C_ 0.668412 0.614562 0.981823 0.02923
C_ C_ 0.649868 0.603681 0.420936 0.69207
C_ C_ 0.653914 0.602655 0.172354 0.69661
C_ C_ 0.869111 0.889057 0.377077 -0.30787
C_ C_ 0.62751 0.611672 0.118593 -0.30787
N_ N_ 0.645939 0.558175 0.311286 -0.32189
N_ N_ 0.552593 0.641997 0.317107 -0.32189
N_ N_ 0.602875 0.808176 0.0489663 -0.32189
N_ N_ 0.696335 0.814691 0.134407 -0.32189
N_ N_ 0.854441 0.962085 0.183803 -0.32189
N_ N_ 0.939558 0.865189 0.184906 -0.32189
N_ N_ 0.887803 0.694218 0.445614 -0.32189
N_ N_ 0.807435 0.685122 0.351942 -0.32189
O_ O_ 0.00542738 0.5956 0.387471 -0.63271
O_ O_ 0.548946 0.528008 0.337329 -0.57982
O_ O_ 0.89386 0.598594 0.344035 -0.63271
O_ O_ 0.871555 0.593066 0.420066 -0.57982
O_ O_ 0.745338 0.898153 0.0788162 -0.63271
O_ O_ 0.70831 0.835757 0.0309273 -0.57982
O_ O_ 0.849665 0.855211 0.0902904 -0.63271
O_ O_ 0.872017 0.933063 0.0850696 -0.57982
O_ O_ 0.492102 0.907274 0.0915312 -0.63271
O_ O_ 0.951258 0.969176 0.146291 -0.57982
O_ O_ 0.593616 0.90067 0.144225 -0.63271
O_ O_ 0.637912 0.911422 0.0774808 -0.57982
O_ O_ 0.759005 0.595731 0.40965 -0.63271
O_ O_ 0.789625 0.659904 0.460483 -0.57982
O_ O_ 0.655068 0.63817 0.390976 -0.63271
O_ O_ 0.616356 0.571445 0.403849 -0.57982
F_ F_ 0.926311 0.820849 0.421694 -0.20885
F_ F_ 0.916949 0.816443 0.33585 -0.20885
F_ F_ 0.85338 0.801364 0.376735 -0.20885
F_ F_ 0.819152 0.94612 0.320727 -0.20885
F_ F_ 0.81233 0.863213 0.30297 -0.20885
F_ F_ 0.882378 0.897465 0.287864 -0.20885
F_ F_ 0.571825 0.677876 0.0784964 -0.20885
F_ F_ 0.574322 0.684239 0.16393 -0.20885
F_ F_ 0.642672 0.70049 0.125712 -0.20885
F_ F_ 0.684996 0.55641 0.172126 -0.20885
F_ F_ 0.682663 0.641242 0.19392 -0.20885
F_ F_ 0.615777 0.595834 0.203013 -0.20885
Zn Zn 0.582246 0.578388 0.850447 0.83971
Zn Zn 0.656424 0.850214 0.581524 0.83971
Zn Zn 0.904359 0.913502 0.642616 0.83971
Zn Zn 0.832854 0.660545 0.91466 0.83971
H_ H_ 0.664361 0.630195 0.817222 0.10394
H_ H_ 0.743956 0.599696 0.781298 0.10394
H_ H_ 0.703658 0.941654 0.76624 0.10394
H_ H_ 0.62418 0.473737 0.815105 0.10394
H_ H_ 0.0322308 0.600446 0.74339 0.10394
H_ H_ 0.991491 0.676273 0.691638 0.10394
H_ H_ 0.502983 0.757015 0.85014 0.10394
H_ H_ 0.535041 0.678794 0.89175 0.10394
H_ H_ 0.530705 0.943004 0.862761 0.10394
H_ H_ 0.980541 0.879253 0.857117 0.10394
H_ H_ 0.856955 0.982728 0.901239 0.10394
H_ H_ 0.588286 0.794761 0.630767 0.10394
H_ H_ -0.008603999999999945 0.788528 0.58707 0.10394
H_ H_ 0.543916 0.757104 0.939554 0.10394
H_ H_ 0.608173 0.826614 0.473206 0.10394
H_ H_ 0.720118 0.74762 0.600599 0.10394
H_ H_ 0.742398 0.705955 0.68002 0.10394
H_ H_ 0.717716 0.845711 0.764756 0.10394
H_ H_ 0.681323 0.886005 0.68351 0.10394
H_ H_ 0.726389 0.846163 0.935727 0.10394
H_ H_ 0.783726 0.853893 0.864655 0.10394
H_ H_ 0.89559 0.910642 0.982339 0.10394
H_ H_ 0.806594 0.896148 0.647856 0.10394
H_ H_ 0.728544 0.953366 0.6752 0.10394
H_ H_ 0.830918 0.537514 0.793703 0.10394
H_ H_ 0.900576 1.00352 0.724598 0.10394
H_ H_ 0.504277 0.887658 0.72172 0.10394
H_ H_ 0.543408 0.812915 0.766637 0.10394
H_ H_ 0.907581 0.74602 0.706595 0.10394
H_ H_ 0.866639 0.82432 0.680798 0.10394
H_ H_ 0.972015 0.564636 0.64063 0.10394
H_ H_ 0.513761 0.617825 0.581436 0.10394
H_ H_ 0.637499 0.503905 0.586458 0.10394
H_ H_ 0.933272 0.668917 0.887825 0.10394
H_ H_ 0.516845 0.670524 0.979031 0.10394
H_ H_ 0.909246 0.790756 0.536136 0.10394
H_ H_ 0.848131 0.724018 1.00780311 0.10394
H_ H_ 0.73818 0.726901 0.893844 0.10394
H_ H_ 0.694172 0.771133 0.822527 0.10394
H_ H_ 0.829174 0.73194 0.743516 0.10394
H_ H_ 0.867717 0.681912 0.816303 0.10394
H_ H_ 0.779596 0.628594 0.549985 0.10394
H_ H_ 0.727217 0.616246 0.617057 0.10394
H_ H_ 0.609205 0.572616 0.502085 0.10394
C_ C_ 0.673674 0.589719 0.807281 0.18167
C_ C_ 0.719164 0.571526 0.787631 -0.15533
C_ C_ 0.72732 0.519998 0.769992 0.02923
C_ C_ 0.700242 0.97931 0.780217 -0.15533
C_ C_ 0.650807 0.504181 0.80789 0.18167
C_ C_ 0.530401 0.632914 0.770865 0.18167
C_ C_ 0.0056578 0.683449 0.731783 -0.15533
C_ C_ 0.498433 0.723522 0.77304 0.02923
C_ C_ 0.506863 0.721427 0.825995 -0.15533
C_ C_ 0.533531 0.680014 0.84956 0.18167
C_ C_ 0.506512 0.541349 0.877824 0.69207
C_ C_ 0.973272 0.00754215 0.868536 0.02923
C_ C_ -0.005506000000000011 0.956588 0.859729 -0.15533
C_ C_ 0.967091 0.91739 0.870079 -0.15533
C_ C_ 0.917318 0.925774 0.88555 0.02923
C_ C_ 0.893618 0.975901 0.887731 -0.15533
C_ C_ 0.919532 0.0181382 0.878976 0.02923
C_ C_ 0.897469 0.571838 0.880396 0.69207
C_ C_ 0.907076 0.827766 0.884256 0.69661
C_ C_ 0.57325 0.799005 0.589739 0.18167
C_ C_ 0.527677 0.776651 0.572975 -0.15533
C_ C_ 0.513892 0.770112 0.520921 0.02923
C_ C_ 0.549246 0.775289 0.978194 -0.15533
C_ C_ 0.584304 0.81451 0.502881 0.18167
C_ C_ 0.709731 0.767864 0.636585 0.18167
C_ C_ 0.727317 0.744503 0.681615 -0.15533
C_ C_ 0.72921 0.77179 0.728846 0.02923
C_ C_ 0.713978 0.824141 0.729349 -0.15533
C_ C_ 0.694898 0.846513 0.682206 0.18167
C_ C_ 0.734958 0.870885 0.536554 0.69207
C_ C_ 0.777259 0.872134 0.995245 0.02923
C_ C_ 0.762922 0.856376 0.943073 -0.15533
C_ C_ 0.793491 0.864577 0.905699 -0.15533
C_ C_ 0.840486 0.887866 0.919227 0.02923
C_ C_ 0.855282 0.900599 0.972031 -0.15533
C_ C_ 0.824369 0.892764 0.00958243 0.02923
C_ C_ 0.846082 0.890298 0.563187 0.69207
C_ C_ 0.859056 0.879638 0.820274 0.69661
C_ C_ 0.810022 0.932089 0.672477 0.18167
C_ C_ 0.766711 0.960046 0.691233 -0.15533
C_ C_ 0.774108 -0.005835999999999952 0.732761 0.02923
C_ C_ 0.822056 0.513179 0.758107 -0.15533
C_ C_ 0.864127 0.987249 0.717937 0.18167
C_ C_ 0.986017 0.857903 0.697507 0.18167
C_ C_ 0.508206 0.809151 0.740519 -0.15533
C_ C_ 0.981864 0.774501 0.726987 0.02923
C_ C_ 0.930572 0.77589 0.709358 -0.15533
C_ C_ 0.90723 0.817987 0.684298 0.18167
C_ C_ 0.982208 0.950291 0.610683 0.69207
C_ C_ 0.517967 0.489157 0.605603 0.02923
C_ C_ 0.497059 0.539687 0.591549 -0.15533
C_ C_ 0.530579 0.579399 0.584894 -0.15533
C_ C_ 0.581929 0.567859 0.597292 0.02923
C_ C_ 0.601534 0.516297 0.597056 -0.15533
C_ C_ 0.571043 0.478744 0.606978 0.02923
C_ C_ 0.596428 0.925375 0.599074 0.69207
C_ C_ 0.594836 0.664566 0.601469 0.69661
C_ C_ 0.928433 0.693105 0.91951 0.18167
C_ C_ 0.972289 0.711053 0.946248 -0.15533
C_ C_ 0.97012 0.741474 0.992873 0.02923
C_ C_ 0.91635 0.760037 0.506633 -0.15533
C_ C_ 0.880989 0.726307 0.985522 0.18167
C_ C_ 0.754455 0.723671 0.860304 0.18167
C_ C_ 0.72803 0.746855 0.817446 -0.15533
C_ C_ 0.754515 0.748677 0.774424 0.02923
C_ C_ 0.805161 0.723939 0.77162 -0.15533
C_ C_ 0.828677 0.700102 0.814271 0.18167
C_ C_ 0.753926 0.631498 0.953578 0.69207
C_ C_ 0.723312 0.617779 0.488577 0.02923
C_ C_ 0.743491 0.616726 0.539789 -0.15533
C_ C_ 0.711492 0.612085 0.578193 -0.15533
C_ C_ 0.660257 0.600266 0.566708 0.02923
C_ C_ 0.64478 0.587675 0.514552 -0.15533
C_ C_ 0.674627 0.601762 0.474588 0.02923
C_ C_ 0.642464 0.613275 0.929007 0.69207
C_ C_ 0.643356 0.605448 0.662596 0.69661
C_ C_ 0.88021 0.883473 0.879564 -0.30787
C_ C_ 0.620057 0.607738 0.604963 -0.30787
N_ N_ 0.641889 0.554608 0.818461 -0.32189
N_ N_ 0.547288 0.636236 0.82079 -0.32189
N_ N_ 0.599513 0.818353 0.555134 -0.32189
N_ N_ 0.691325 0.817713 0.638552 -0.32189
N_ N_ 0.856393 0.947055 0.682763 -0.32189
N_ N_ 0.935419 0.856051 0.675604 -0.32189
N_ N_ 0.884111 0.699623 0.940202 -0.32189
N_ N_ 0.800806 0.696729 0.856744 -0.32189
O_ O_ 1.00664 0.592855 0.89858 -0.63271
O_ O_ 0.542034 0.529807 0.848911 -0.57982
O_ O_ 0.894527 0.595212 0.837929 -0.63271
O_ O_ 0.867113 0.592754 0.913878 -0.57982
O_ O_ 0.737982 0.898918 0.579433 -0.63271
O_ O_ 0.699009 0.841016 0.529041 -0.57982
O_ O_ 0.855757 0.847947 0.587263 -0.63271
O_ O_ 0.870065 0.927433 0.581448 -0.57982
O_ O_ 0.495829 0.904679 0.602448 -0.63271
O_ O_ 0.945161 0.962226 0.640104 -0.57982
O_ O_ 0.595048 0.896626 0.63889 -0.63271
O_ O_ 0.633161 0.913296 0.569949 -0.57982
O_ O_ 0.74978 0.604811 0.909808 -0.63271
O_ O_ 0.789783 0.660945 0.960307 -0.57982
O_ O_ 0.637565 0.653922 0.902867 -0.63271
O_ O_ 0.608527 0.580881 0.915819 -0.57982
F_ F_ 0.943314 0.826345 0.927289 -0.20885
F_ F_ 0.92817 0.802513 0.843378 -0.20885
F_ F_ 0.877164 0.790141 0.890152 -0.20885
F_ F_ 0.81841 0.919513 0.812937 -0.20885
F_ F_ 0.839388 0.834425 0.79949 -0.20885
F_ F_ 0.891504 0.892347 0.786823 -0.20885
F_ F_ 0.569399 0.670039 0.55386 -0.20885
F_ F_ 0.561908 0.683025 0.635925 -0.20885
F_ F_ 0.632453 0.697009 0.603449 -0.20885
F_ F_ 0.683275 0.569497 0.669872 -0.20885
F_ F_ 0.667309 0.64965 0.682402 -0.20885
F_ F_ 0.608675 0.597899 0.697414 -0.20885
_cell_length_a 26.508
_cell_length_b 26.37200000322088
_cell_length_c 26.311999743092066
_cell_angle_alpha 93.74100058972084
_cell_angle_beta 96.04100104955006
_cell_angle_gamma 83.6869992558723
_symmetry_space_group_name_H-M         'P 1'
_symmetry_Int_Tables_number            1
loop_
_symmetry_equiv_pos_as_xyz
   'x, y, z'
                         
loop_
_atom_site_label
_atom_site_type_symbol
_atom_site_fract_x 
_atom_site_fract_y
_atom_site_fract_z
_atom_site_charge
Zn Zn 0.0938872 0.0713976 0.352492 0.83971
Zn Zn 0.154735 0.337877 0.0895847 0.83971
Zn Zn 0.411282 0.413221 0.160186 0.83971
Zn Zn 0.337746 0.15749 0.427335 0.83971
H_ H_ 0.180234 0.118417 0.321872 0.10394
H_ H_ 0.260217 0.0822139 0.290329 0.10394
H_ H_ 0.209389 0.454893 0.288274 0.10394
H_ H_ 0.126409 0.971766 0.306459 0.10394
H_ H_ 0.521408 0.0894828 0.266971 0.10394
H_ H_ 0.468876 0.156264 0.217378 0.10394
H_ H_ 0.0313642 0.262825 0.34153 0.10394
H_ H_ 0.077446 0.189552 0.380702 0.10394
H_ H_ 0.0303924 0.449502 0.351028 0.10394
H_ H_ 0.478579 0.377415 0.397488 0.10394
H_ H_ 0.350719 0.486291 0.390245 0.10394
H_ H_ 0.0738211 0.29154 0.136168 0.10394
H_ H_ 0.502806 0.277777 0.0967172 0.10394
H_ H_ 0.0458581 0.293207 0.458245 0.10394
H_ H_ 0.132179 0.294309 0.990743 0.10394
H_ H_ 0.219883 0.246919 0.104296 0.10394
H_ H_ 0.261325 0.205745 0.181386 0.10394
H_ H_ 0.226627 0.337552 0.272071 0.10394
H_ H_ 0.184393 0.378083 0.191467 0.10394
H_ H_ 0.209909 0.397637 0.444247 0.10394
H_ H_ 0.265094 0.387429 0.375289 0.10394
H_ H_ 0.398019 0.394375 0.481172 0.10394
H_ H_ 0.315511 0.392361 0.175371 0.10394
H_ H_ 0.235111 0.445255 0.19793 0.10394
H_ H_ 0.330856 0.027238 0.282183 0.10394
H_ H_ 0.402042 0.507583 0.234082 0.10394
H_ H_ 0.0187409 0.370832 0.191671 0.10394
H_ H_ 0.0598902 0.302813 0.249097 0.10394
H_ H_ 0.40382 0.238271 0.225119 0.10394
H_ H_ 0.364805 0.321783 0.194937 0.10394
H_ H_ 0.459536 0.0514364 0.106133 0.10394
H_ H_ 0.0194948 0.113054 0.080405 0.10394
H_ H_ 0.144921 -0.00312714 0.0922365 0.10394
H_ H_ 0.438896 0.168108 0.39982 0.10394
H_ H_ 0.0231319 0.194564 0.462699 0.10394
H_ H_ 0.427945 0.270858 0.0490996 0.10394
H_ H_ 0.349439 0.236214 0.515251 0.10394
H_ H_ 0.231329 0.205699 0.397616 0.10394
H_ H_ 0.190245 0.250759 0.323228 0.10394
H_ H_ 0.332481 0.216111 0.250366 0.10394
H_ H_ 0.372637 0.183425 0.333943 0.10394
H_ H_ 0.289152 0.109069 0.0555973 0.10394
H_ H_ 0.235554 0.0987589 0.118391 0.10394
H_ H_ 0.110968 0.0806135 0.00383188 0.10394
C_ C_ 0.185814 0.0779106 0.312254 0.18167
C_ C_ 0.229972 0.0582968 0.289616 -0.15533
C_ C_ 0.232884 0.00756938 0.267965 0.02923
C_ C_ 0.197093 0.493995 0.284465 -0.15533
C_ C_ 0.154781 -0.001358999999999999 0.301062 0.18167
C_ C_ 0.043367 0.128407 0.270071 0.18167
C_ C_ 0.498734 0.165717 0.245472 -0.15533
C_ C_ 0.0117461 0.219708 0.270664 0.02923
C_ C_ 0.0333546 0.224845 0.321248 -0.15533
C_ C_ 0.0570895 0.181726 0.345948 0.18167
C_ C_ 0.0153974 0.0402628 0.379298 0.69207
C_ C_ 0.476187 0.503384 0.375203 0.02923
C_ C_ 0.496298 0.451986 0.378071 -0.15533
C_ C_ 0.463509 0.41361 0.383502 -0.15533
C_ C_ 0.410461 0.425931 0.385073 0.02923
C_ C_ 0.39062 0.477176 0.383308 -0.15533
C_ C_ 0.422619 0.514859 0.376927 0.02923
C_ C_ 0.397346 0.0708374 0.396997 0.69207
C_ C_ 0.39595 0.327275 0.383532 0.69661
C_ C_ 0.0661061 0.293685 0.0946833 0.18167
C_ C_ 0.021761 0.271671 0.0707538 -0.15533
C_ C_ 0.017215 0.259283 0.0176026 0.02923
C_ C_ 0.0537736 0.291578 0.498606 -0.15533
C_ C_ 0.100472 0.288185 0.0138106 0.18167
C_ C_ 0.217793 0.263811 0.141866 0.18167
C_ C_ 0.234894 0.236596 0.187043 -0.15533
C_ C_ 0.230829 0.260436 0.235408 0.02923
C_ C_ 0.218045 0.314629 0.237556 -0.15533
C_ C_ 0.197352 0.337386 0.193754 0.18167
C_ C_ 0.23809 0.367938 0.0535529 0.69207
C_ C_ 0.275641 0.38926 0.505263 0.02923
C_ C_ 0.253313 0.397066 0.454469 -0.15533
C_ C_ 0.284346 0.393228 0.413948 -0.15533
C_ C_ 0.336945 0.393738 0.424294 0.02923
C_ C_ 0.357426 0.394913 0.475367 -0.15533
C_ C_ 0.3286 0.395751 0.515813 0.02923
C_ C_ 0.353033 0.382091 0.0745861 0.69207
C_ C_ 0.341553 0.382456 0.325274 0.69661
C_ C_ 0.315185 0.430968 0.190204 0.18167
C_ C_ 0.270947 0.457531 0.210836 -0.15533
C_ C_ 0.274617 0.500367 0.241962 0.02923
C_ C_ 0.325538 -0.0037049999999999583 0.252118 -0.15533
C_ C_ 0.364857 0.494199 0.22755 0.18167
C_ C_ 0.486461 0.343258 0.19412 0.18167
C_ C_ 0.0178242 0.302615 0.234046 -0.15533
C_ C_ 0.48164 0.258308 0.223377 0.02923
C_ C_ 0.429587 0.266575 0.215982 -0.15533
C_ C_ 0.405242 0.313627 0.194625 0.18167
C_ C_ 0.4907 0.450538 0.119108 0.69207
C_ C_ 0.0210512 0.988542 0.0994521 0.02923
C_ C_ 0.00269258 0.0406206 0.0948601 -0.15533
C_ C_ 0.0366835 0.0761172 0.0897796 -0.15533
C_ C_ 0.0885571 0.0627458 0.0950543 0.02923
C_ C_ 0.104649 0.00939271 0.0888988 -0.15533
C_ C_ 0.0722292 0.972984 0.0931236 0.02923
C_ C_ 0.0963789 0.424058 0.113377 0.69207
C_ C_ 0.0994326 0.159838 0.107532 0.69661
C_ C_ 0.436135 0.188939 0.434297 0.18167
C_ C_ 0.479981 0.210534 0.458128 -0.15533
C_ C_ 0.475017 0.248532 0.496386 0.02923
C_ C_ 0.434905 0.24424 0.0195812 -0.15533
C_ C_ 0.386566 0.234333 0.494919 0.18167
C_ C_ 0.252452 0.207975 0.365522 0.18167
C_ C_ 0.230565 0.234592 0.324396 -0.15533
C_ C_ 0.256129 0.234722 0.280476 0.02923
C_ C_ 0.308537 0.214298 0.281989 -0.15533
C_ C_ 0.333328 0.195641 0.328656 0.18167
C_ C_ 0.26016 0.131032 0.463194 0.69207
C_ C_ 0.231685 0.107756 0.989635 0.02923
C_ C_ 0.249849 0.102158 0.0415664 -0.15533
C_ C_ 0.217594 0.100669 0.0787114 -0.15533
C_ C_ 0.165802 0.09524 0.0664182 0.02923
C_ C_ 0.149321 0.0879912 0.0137403 -0.15533
C_ C_ 0.179581 0.100489 0.974796 0.02923
C_ C_ 0.15776 0.0996403 0.431348 0.69207
C_ C_ 0.151058 0.0979495 0.162234 0.69661
C_ C_ 0.372311 0.383624 0.380675 -0.30787
C_ C_ 0.125287 0.102941 0.106112 -0.30787
N_ N_ 0.15016 0.0459376 0.318349 -0.32189
N_ N_ 0.0623726 0.135323 0.320128 -0.32189
N_ N_ 0.104242 0.299799 0.0654725 -0.32189
N_ N_ 0.194693 0.31115 0.148638 -0.32189
N_ N_ 0.361213 0.449972 0.199347 -0.32189
N_ N_ 0.435537 0.350747 0.187927 -0.32189
N_ N_ 0.391841 0.198836 0.452754 -0.32189
N_ N_ 0.304049 0.189394 0.367426 -0.32189
O_ O_ 0.504968 0.0942219 0.406717 -0.63271
O_ O_ 0.0495418 0.0262476 0.347527 -0.57982
O_ O_ 0.39649 0.092893 0.35306 -0.63271
O_ O_ 0.370735 0.0930841 0.432125 -0.57982
O_ O_ 0.241784 0.392277 0.0979552 -0.63271
O_ O_ 0.200252 0.339997 0.043229 -0.57982
O_ O_ 0.358194 0.340374 0.101715 -0.63271
O_ O_ 0.373417 0.422976 0.0977422 -0.57982
O_ O_ 0.991571 0.404693 0.103999 -0.63271
O_ O_ 0.462862 0.455293 0.156874 -0.57982
O_ O_ 0.0968035 0.404837 0.159618 -0.63271
O_ O_ 0.126381 0.400787 0.0816985 -0.57982
O_ O_ 0.26234 0.101405 0.422786 -0.63271
O_ O_ 0.296394 0.163473 0.473905 -0.57982
O_ O_ 0.154161 0.14138 0.406531 -0.63271
O_ O_ 0.125193 0.0676405 0.414482 -0.57982
F_ F_ 0.43128 0.32331 0.42539 -0.20885
F_ F_ 0.424498 0.309323 0.344976 -0.20885
F_ F_ 0.359255 0.295607 0.388966 -0.20885
F_ F_ 0.310633 0.425813 0.311933 -0.20885
F_ F_ 0.313034 0.340983 0.313358 -0.20885
F_ F_ 0.381057 0.382388 0.291098 -0.20885
F_ F_ 0.0792675 0.169675 0.0587405 -0.20885
F_ F_ 0.0639142 0.169908 0.143212 -0.20885
F_ F_ 0.135329 0.19533 0.121699 -0.20885
F_ F_ 0.18578 0.0571044 0.167785 -0.20885
F_ F_ 0.179687 0.137292 0.181409 -0.20885
F_ F_ 0.1178 0.0975656 0.198479 -0.20885
Zn Zn 0.0891053 0.085951 0.841904 0.83971
Zn Zn 0.167492 0.353269 0.589336 0.83971
Zn Zn 0.40858 0.417878 0.65238 0.83971
Zn Zn 0.346234 0.155166 0.919121 0.83971
H_ H_ 0.16966 0.133558 0.800316 0.10394
H_ H_ 0.250973 0.0978865 0.757435 0.10394
H_ H_ 0.199801 0.445903 0.78064 0.10394
H_ H_ 0.136354 0.988313 0.825165 0.10394
H_ H_ 0.507281 0.0939761 0.763027 0.10394
H_ H_ 0.473554 0.169228 0.709478 0.10394
H_ H_ 0.0421867 0.270711 0.829429 0.10394
H_ H_ 0.0822885 0.195207 0.876633 0.10394
H_ H_ 0.0404139 0.447475 0.866832 0.10394
H_ H_ 0.480346 0.375836 0.906265 0.10394
H_ H_ 0.345717 0.481039 0.902212 0.10394
H_ H_ 0.0753564 0.328123 0.642971 0.10394
H_ H_ 0.519657 0.25275 0.596501 0.10394
H_ H_ 0.0483244 0.263851 0.948033 0.10394
H_ H_ 0.126646 0.31916 0.496239 0.10394
H_ H_ 0.209179 0.254358 0.59679 0.10394
H_ H_ 0.256574 0.19635 0.668874 0.10394
H_ H_ 0.223438 0.329224 0.769014 0.10394
H_ H_ 0.18071 0.375107 0.70338 0.10394
H_ H_ 0.215608 0.353519 0.951406 0.10394
H_ H_ 0.263437 0.371233 0.884846 0.10394
H_ H_ 0.386109 0.413694 0.991586 0.10394
H_ H_ 0.306798 0.396677 0.658775 0.10394
H_ H_ 0.229179 0.442206 0.695243 0.10394
H_ H_ 0.339296 0.0488952 0.769279 0.10394
H_ H_ 0.39539 0.506173 0.738876 0.10394
H_ H_ 0.0107281 0.388536 0.710847 0.10394
H_ H_ 0.0516905 0.309259 0.747611 0.10394
H_ H_ 0.403131 0.251334 0.733054 0.10394
H_ H_ 0.367472 0.323766 0.680588 0.10394
H_ H_ 0.464633 0.0536962 0.617754 0.10394
H_ H_ 0.0087874 0.114342 0.579264 0.10394
H_ H_ 0.142297 0.00498973 0.596961 0.10394
H_ H_ 0.440257 0.168151 0.890281 0.10394
H_ H_ 0.0138358 0.178143 0.944653 0.10394
H_ H_ 0.421618 0.289346 0.543318 0.10394
H_ H_ 0.356077 0.238199 0.009160000000000057 0.10394
H_ H_ 0.253866 0.215629 0.896672 0.10394
H_ H_ 0.208665 0.254874 0.826768 0.10394
H_ H_ 0.341651 0.218604 0.745692 0.10394
H_ H_ 0.382056 0.183874 0.823842 0.10394
H_ H_ 0.279669 0.135929 0.566475 0.10394
H_ H_ 0.225364 0.109121 0.62529 0.10394
H_ H_ 0.106575 0.0829526 0.506248 0.10394
C_ C_ 0.181851 0.0944452 0.79723 0.18167
C_ C_ 0.226905 0.0726916 0.774376 -0.15533
C_ C_ 0.237877 0.0193343 0.770443 0.02923
C_ C_ 0.192858 0.486121 0.787125 -0.15533
C_ C_ 0.163577 0.0118513 0.812445 0.18167
C_ C_ 0.0234974 0.135175 0.772876 0.18167
C_ C_ 0.494601 0.173493 0.746373 -0.15533
C_ C_ 0.00617174 0.227479 0.766162 0.02923
C_ C_ 0.0362388 0.233652 0.813888 -0.15533
C_ C_ 0.0579042 0.191014 0.839566 0.18167
C_ C_ 0.00659267 0.0465768 0.860791 0.69207
C_ C_ 0.47006 0.502076 0.885013 0.02923
C_ C_ 0.491859 0.452387 0.893906 -0.15533
C_ C_ 0.461155 0.413021 0.897923 -0.15533
C_ C_ 0.406947 0.42384 0.893921 0.02923
C_ C_ 0.387331 0.474875 0.894995 -0.15533
C_ C_ 0.416725 0.514749 0.888005 0.02923
C_ C_ 0.395148 0.0658569 0.883323 0.69207
C_ C_ 0.398576 0.325999 0.901298 0.69661
C_ C_ 0.0719285 0.312945 0.602895 0.18167
C_ C_ 0.0293172 0.286168 0.583738 -0.15533
C_ C_ 0.0198488 0.278114 0.531584 0.02923
C_ C_ 0.0563584 0.269809 0.988877 -0.15533
C_ C_ 0.100383 0.30914 0.520414 0.18167
C_ C_ 0.217427 0.267882 0.63723 0.18167
C_ C_ 0.235606 0.235081 0.676226 -0.15533
C_ C_ 0.234755 0.25582 0.727425 0.02923
C_ C_ 0.218164 0.308082 0.735292 -0.15533
C_ C_ 0.194829 0.335856 0.696482 0.18167
C_ C_ 0.240497 0.382862 0.544466 0.69207
C_ C_ 0.271129 0.3743 0.0125513 0.02923
C_ C_ 0.252626 0.365685 0.961845 -0.15533
C_ C_ 0.282965 0.370247 0.922996 -0.15533
C_ C_ 0.330736 0.389263 0.931585 0.02923
C_ C_ 0.349503 0.397241 0.983543 -0.15533
C_ C_ 0.323196 0.386747 0.0240144 0.02923
C_ C_ 0.354966 0.393601 0.567455 0.69207
C_ C_ 0.34772 0.382523 0.835081 0.69661
C_ C_ 0.308756 0.432072 0.682573 0.18167
C_ C_ 0.267875 0.452709 0.70988 -0.15533
C_ C_ 0.274649 0.492774 0.745789 0.02923
C_ C_ 0.33142 0.0101336 0.752714 -0.15533
C_ C_ 0.361813 0.487843 0.730103 0.18167
C_ C_ 0.488717 0.35075 0.695919 0.18167
C_ C_ 0.0117947 0.312343 0.732832 -0.15533
C_ C_ 0.482768 0.269308 0.734769 0.02923
C_ C_ 0.426697 0.277787 0.722235 -0.15533
C_ C_ 0.407162 0.319014 0.692892 0.18167
C_ C_ 0.482248 0.452292 0.618072 0.69207
C_ C_ 0.0185395 0.988285 0.605177 0.02923
C_ C_ -0.002051000000000025 0.0403277 0.604069 -0.15533
C_ C_ 0.0284091 0.07766 0.593176 -0.15533
C_ C_ 0.0812407 0.0676733 0.596087 0.02923
C_ C_ 0.101813 0.0158482 0.596695 -0.15533
C_ C_ 0.0706119 0.976154 0.601653 0.02923
C_ C_ 0.105142 0.433526 0.621367 0.69207
C_ C_ 0.0939831 0.166388 0.608239 0.69661
C_ C_ 0.440645 0.185163 0.928503 0.18167
C_ C_ 0.485841 0.202894 0.952918 -0.15533
C_ C_ 0.483534 0.233632 1.00009 0.02923
C_ C_ 0.428586 0.259566 0.516503 -0.15533
C_ C_ 0.392353 0.22244 0.995511 0.18167
C_ C_ 0.268795 0.208084 0.861071 0.18167
C_ C_ 0.243681 0.22882 0.818788 -0.15533
C_ C_ 0.264528 0.229905 0.771987 0.02923
C_ C_ 0.319024 0.210468 0.77541 -0.15533
C_ C_ 0.342079 0.188894 0.819015 0.18167
C_ C_ 0.269489 0.11955 0.953756 0.69207
C_ C_ 0.224699 0.124124 0.499957 0.02923
C_ C_ 0.239486 0.127267 0.552446 -0.15533
C_ C_ 0.208227 0.114385 0.58771 -0.15533
C_ C_ 0.158337 0.101107 0.572297 0.02923
C_ C_ 0.145146 0.0928272 0.51929 -0.15533
C_ C_ 0.179519 0.0988207 0.483745 0.02923
C_ C_ 0.155699 0.10622 0.922364 0.69207
C_ C_ 0.138042 0.103009 0.665901 0.69661
C_ C_ 0.371809 0.380918 0.891368 -0.30787
C_ C_ 0.117934 0.108721 0.608272 -0.30787
N_ N_ 0.148598 0.0628728 0.809619 -0.32189
N_ N_ 0.0555213 0.145971 0.815236 -0.32189
N_ N_ 0.111215 0.313629 0.572505 -0.32189
N_ N_ 0.19886 0.317979 0.64818 -0.32189
N_ N_ 0.355068 0.451275 0.692225 -0.32189
N_ N_ 0.438206 0.35373 0.679445 -0.32189
N_ N_ 0.395895 0.195746 0.949783 -0.32189
N_ N_ 0.316816 0.18489 0.858581 -0.32189
O_ O_ 0.504959 0.0892804 0.889864 -0.63271
O_ O_ 0.0456356 0.0363145 0.835706 -0.57982
O_ O_ 0.396545 0.090096 0.842754 -0.63271
O_ O_ 0.379029 0.0907125 0.925036 -0.57982
O_ O_ 0.245057 0.408981 0.587167 -0.63271
O_ O_ 0.207644 0.349148 0.538748 -0.57982
O_ O_ 0.353911 0.35322 0.595622 -0.63271
O_ O_ 0.380557 0.429807 0.58917 -0.57982
O_ O_ 1.00272 0.412412 0.608675 -0.63271
O_ O_ 0.452054 0.464247 0.653554 -0.57982
O_ O_ 0.0980488 0.408004 0.661135 -0.63271
O_ O_ 0.146317 0.418273 0.59822 -0.57982
O_ O_ 0.268379 0.0989929 0.907893 -0.63271
O_ O_ 0.302579 0.15239 0.967939 -0.57982
O_ O_ 0.164257 0.146338 0.899429 -0.63271
O_ O_ 0.113854 0.0845062 0.908142 -0.57982
F_ F_ 0.428421 0.324767 0.948971 -0.20885
F_ F_ 0.428651 0.313984 0.861666 -0.20885
F_ F_ 0.361793 0.292106 0.899928 -0.20885
F_ F_ 0.311838 0.423252 0.832292 -0.20885
F_ F_ 0.319848 0.34168 0.820104 -0.20885
F_ F_ 0.382947 0.382158 0.798225 -0.20885
F_ F_ 0.0664123 0.174039 0.560686 -0.20885
F_ F_ 0.060536 0.176495 0.644588 -0.20885
F_ F_ 0.130897 0.202627 0.618985 -0.20885
F_ F_ 0.167847 0.0558475 0.67324 -0.20885
F_ F_ 0.169097 0.139986 0.684661 -0.20885
F_ F_ 0.10047 0.104142 0.699469 -0.20885
Zn Zn 0.0849055 0.594527 0.34449 0.83971
Zn Zn 0.163753 0.842506 0.0796132 0.83971
Zn Zn 0.408721 0.914307 0.146867 0.83971
Zn Zn 0.341369 0.652302 0.412507 0.83971
H_ H_ 0.170276 0.639813 0.305881 0.10394
H_ H_ 0.251707 0.60299 0.271317 0.10394
H_ H_ 0.200096 0.937501 0.26504 0.10394
H_ H_ 0.125815 0.493567 0.318831 0.10394
H_ H_ 0.517802 0.599659 0.255406 0.10394
H_ H_ 0.467367 0.674813 0.219008 0.10394
H_ H_ 0.0199662 0.773993 0.341198 0.10394
H_ H_ 0.0588799 0.69934 0.386196 0.10394
H_ H_ 0.0332612 0.943225 0.381188 0.10394
H_ H_ 0.482779 0.884115 0.373604 0.10394
H_ H_ 0.355478 0.98732 0.411388 0.10394
H_ H_ 0.0791008 0.79912 0.129034 0.10394
H_ H_ 0.498242 0.771676 0.09167 0.10394
H_ H_ 0.0425915 0.777687 0.442728 0.10394
H_ H_ 0.12039 0.817682 0.980764 0.10394
H_ H_ 0.238529 0.757383 0.0949809 0.10394
H_ H_ 0.279967 0.710061 0.165785 0.10394
H_ H_ 0.201421 0.826431 0.267809 0.10394
H_ H_ 0.161568 0.8711 0.195451 0.10394
H_ H_ 0.219581 0.860381 0.439495 0.10394
H_ H_ 0.277824 0.86056 0.378214 0.10394
H_ H_ 0.400562 0.898086 0.484319 0.10394
H_ H_ 0.30401 0.895702 0.142212 0.10394
H_ H_ 0.231697 0.938418 0.182904 0.10394
H_ H_ 0.327917 0.555664 0.272932 0.10394
H_ H_ 0.40379 -0.013998999999999984 0.23155 0.10394
H_ H_ 0.00328655 0.900982 0.207147 0.10394
H_ H_ 0.0419284 0.830651 0.263819 0.10394
H_ H_ 0.402564 0.761069 0.24265 0.10394
H_ H_ 0.3664 0.829002 0.186128 0.10394
H_ H_ 0.47038 0.554337 0.135959 0.10394
H_ H_ 0.0224064 0.618018 0.135369 0.10394
H_ H_ 0.139784 0.503583 0.0810085 0.10394
H_ H_ 0.443572 0.666196 0.390929 0.10394
H_ H_ 0.014554 0.694619 0.447833 0.10394
H_ H_ 0.409561 0.796105 0.0205456 0.10394
H_ H_ 0.347879 0.735364 0.50092 0.10394
H_ H_ 0.237931 0.692394 0.383135 0.10394
H_ H_ 0.198423 0.747891 0.310812 0.10394
H_ H_ 0.338239 0.715688 0.239509 0.10394
H_ H_ 0.37957 0.676623 0.322992 0.10394
H_ H_ 0.28321 0.578167 0.0425712 0.10394
H_ H_ 0.228482 0.571578 0.106866 0.10394
H_ H_ 0.0972103 0.62424 0.00671647 0.10394
C_ C_ 0.179405 0.598317 0.303207 0.18167
C_ C_ 0.221645 0.577556 0.277883 -0.15533
C_ C_ 0.232431 0.524556 0.270618 0.02923
C_ C_ 0.197263 0.979558 0.277753 -0.15533
C_ C_ 0.150693 0.516633 0.302997 0.18167
C_ C_ 0.0277203 0.644396 0.26954 0.18167
C_ C_ 0.498979 0.679706 0.249553 -0.15533
C_ C_ 0.00916861 0.735905 0.266635 0.02923
C_ C_ 0.0202459 0.737295 0.321147 -0.15533
C_ C_ 0.0446995 0.695497 0.34356 0.18167
C_ C_ 0.00938863 0.550108 0.363452 0.69207
C_ C_ 0.476152 0.00840768 0.39089 0.02923
C_ C_ 0.496978 0.95824 0.385914 -0.15533
C_ C_ 0.466242 0.918886 0.386635 -0.15533
C_ C_ 0.4139 0.928167 0.39491 0.02923
C_ C_ 0.39359 0.979758 0.403116 -0.15533
C_ C_ 0.425219 0.0202421 0.402441 0.02923
C_ C_ 0.399157 0.566761 0.37089 0.69207
C_ C_ 0.407121 0.829096 0.383642 0.69661
C_ C_ 0.0696692 0.7973 0.0873307 0.18167
C_ C_ 0.0255016 0.778158 0.0680447 -0.15533
C_ C_ 0.0159163 0.768618 0.0149657 0.02923
C_ C_ 0.0519026 0.786376 0.482941 -0.15533
C_ C_ 0.095642 0.80116 0.00375683 0.18167
C_ C_ 0.229651 0.773484 0.134639 0.18167
C_ C_ 0.254739 0.744093 0.174634 -0.15533
C_ C_ 0.241724 0.761882 0.224179 0.02923
C_ C_ 0.208822 0.808139 0.230298 -0.15533
C_ C_ 0.182467 0.83298 0.188417 0.18167
C_ C_ 0.237258 0.8651 0.0381811 0.69207
C_ C_ 0.276954 0.875846 0.503922 0.02923
C_ C_ 0.259453 0.869806 0.452709 -0.15533
C_ C_ 0.29291 0.87008 0.416105 -0.15533
C_ C_ 0.340584 0.888174 0.4269 0.02923
C_ C_ 0.358323 0.8941 0.478479 -0.15533
C_ C_ 0.327575 0.889574 0.517189 0.02923
C_ C_ 0.351152 0.881256 0.0647318 0.69207
C_ C_ 0.350675 0.891645 0.331066 0.69661
C_ C_ 0.310825 0.923431 0.175286 0.18167
C_ C_ 0.26839 0.947507 0.198153 -0.15533
C_ C_ 0.275453 0.987011 0.237983 0.02923
C_ C_ 0.322491 0.520618 0.249346 -0.15533
C_ C_ 0.365282 0.97847 0.221065 0.18167
C_ C_ 0.488481 0.848916 0.19344 0.18167
C_ C_ 0.00721939 0.828352 0.239074 -0.15533
C_ C_ 0.480377 0.775059 0.242263 0.02923
C_ C_ 0.427827 0.783437 0.229484 -0.15533
C_ C_ 0.406676 0.825246 0.199387 0.18167
C_ C_ 0.489255 0.951574 0.118987 0.69207
C_ C_ 0.0181981 0.490323 0.114451 0.02923
C_ C_ 0.00194835 0.541325 0.119276 -0.15533
C_ C_ 0.0341563 0.577906 0.11805 -0.15533
C_ C_ 0.0843533 0.565539 0.103892 0.02923
C_ C_ 0.10093 0.51538 0.0943742 -0.15533
C_ C_ 0.0713499 0.47724 0.106017 0.02923
C_ C_ 0.0933323 0.919248 0.0936977 0.69207
C_ C_ 0.0974063 0.661641 0.102727 0.69661
C_ C_ 0.439149 0.68311 0.429129 0.18167
C_ C_ 0.482982 0.701012 0.458371 -0.15533
C_ C_ 0.475986 0.736176 0.500525 0.02923
C_ C_ 0.419568 0.758697 -0.0010860000000000314 -0.15533
C_ C_ 0.386293 0.723107 0.490744 0.18167
C_ C_ 0.260349 0.704021 0.35529 0.18167
C_ C_ 0.239287 0.732131 0.313257 -0.15533
C_ C_ 0.266762 0.735057 0.270709 0.02923
C_ C_ 0.315533 0.71057 0.271299 -0.15533
C_ C_ 0.339534 0.689707 0.318055 0.18167
C_ C_ 0.262617 0.620654 0.447867 0.69207
C_ C_ 0.220803 0.604428 0.98541 0.02923
C_ C_ 0.242036 0.585057 0.0317912 -0.15533
C_ C_ 0.20995 0.582152 0.0706484 -0.15533
C_ C_ 0.156911 0.593622 0.0641612 0.02923
C_ C_ 0.136666 0.60873 0.0145074 -0.15533
C_ C_ 0.168705 0.609981 0.97499 0.02923
C_ C_ 0.145999 0.61988 0.421187 0.69207
C_ C_ 0.149995 0.600203 0.159981 0.69661
C_ C_ 0.379697 0.885242 0.385648 -0.30787
C_ C_ 0.122113 0.604458 0.105591 -0.30787
N_ N_ 0.141435 0.56824 0.305488 -0.32189
N_ N_ 0.0486941 0.650694 0.317446 -0.32189
N_ N_ 0.107128 0.805396 0.0551582 -0.32189
N_ N_ 0.19199 0.813212 0.141291 -0.32189
N_ N_ 0.355447 0.943705 0.182686 -0.32189
N_ N_ 0.436916 0.854295 0.180509 -0.32189
N_ N_ 0.393045 0.693607 0.445925 -0.32189
N_ N_ 0.310337 0.683157 0.354958 -0.32189
O_ O_ 0.503993 0.589334 0.385898 -0.63271
O_ O_ 0.0467673 0.538839 0.336943 -0.57982
O_ O_ 0.397647 0.585423 0.324859 -0.63271
O_ O_ 0.377693 0.590909 0.408199 -0.57982
O_ O_ 0.234968 0.899751 0.0746822 -0.63271
O_ O_ 0.207761 0.829936 0.0342443 -0.57982
O_ O_ 0.351089 0.841206 0.0904015 -0.63271
O_ O_ 0.378735 0.918414 0.0841304 -0.57982
O_ O_ 0.980446 0.907769 0.0923914 -0.63271
O_ O_ 0.454172 0.962635 0.151249 -0.57982
O_ O_ 0.096183 0.898318 0.138008 -0.63271
O_ O_ 0.12684 0.899906 0.0625415 -0.57982
O_ O_ 0.255691 0.598477 0.400425 -0.63271
O_ O_ 0.298998 0.650262 0.458703 -0.57982
O_ O_ 0.145462 0.658444 0.394388 -0.63271
O_ O_ 0.112858 0.588278 0.407102 -0.57982
F_ F_ 0.436041 0.824718 0.430499 -0.20885
F_ F_ 0.436697 0.813289 0.345024 -0.20885
F_ F_ 0.37403 0.792182 0.381413 -0.20885
F_ F_ 0.30781 0.927597 0.32997 -0.20885
F_ F_ 0.332438 0.846322 0.31209 -0.20885
F_ F_ 0.382856 0.903287 0.295427 -0.20885
F_ F_ 0.0523613 0.668641 0.0688227 -0.20885
F_ F_ 0.0858482 0.689051 0.147094 -0.20885
F_ F_ 0.134967 0.689983 0.0894835 -0.20885
F_ F_ 0.176855 0.552638 0.169863 -0.20885
F_ F_ 0.184494 0.633852 0.178044 -0.20885
F_ F_ 0.111667 0.606438 0.19608 -0.20885
Zn Zn 0.0803615 0.593903 0.840963 0.83971
Zn Zn 0.164164 0.847043 0.585099 0.83971
Zn Zn 0.412674 0.915021 0.653053 0.83971
Zn Zn 0.337412 0.650656 0.915764 0.83971
H_ H_ 0.168563 0.631469 0.80187 0.10394
H_ H_ 0.252643 0.594494 0.787621 0.10394
H_ H_ 0.225157 0.954058 0.80324 0.10394
H_ H_ 0.113907 0.484102 0.811054 0.10394
H_ H_ 0.532861 0.594509 0.750565 0.10394
H_ H_ 0.49243 0.670376 0.706479 0.10394
H_ H_ 0.0258562 0.778211 0.823114 0.10394
H_ H_ 0.0668182 0.702668 0.870092 0.10394
H_ H_ 0.0374396 0.947721 0.855831 0.10394
H_ H_ 0.479759 0.876235 0.869092 0.10394
H_ H_ 0.351716 0.985798 0.899777 0.10394
H_ H_ 0.0743082 0.817682 0.626872 0.10394
H_ H_ 0.504296 0.76252 0.600168 0.10394
H_ H_ 0.0368774 0.791525 0.941206 0.10394
H_ H_ 0.123552 0.816635 0.480947 0.10394
H_ H_ 0.230307 0.746037 0.596789 0.10394
H_ H_ 0.268815 0.700492 0.666611 0.10394
H_ H_ 0.208428 0.822686 0.76573 0.10394
H_ H_ 0.177039 0.872256 0.690182 0.10394
H_ H_ 0.218256 0.860744 0.936385 0.10394
H_ H_ 0.265097 0.882304 0.869128 0.10394
H_ H_ 0.395042 0.89994 0.982383 0.10394
H_ H_ 0.30916 0.900494 0.654146 0.10394
H_ H_ 0.233597 0.947739 0.689138 0.10394
H_ H_ 0.332599 0.5334 0.789583 0.10394
H_ H_ 0.401524 0.006510000000000016 0.723288 0.10394
H_ H_ 0.00944556 0.891114 0.692756 0.10394
H_ H_ 0.0475225 0.816066 0.74385 0.10394
H_ H_ 0.41039 0.741348 0.715324 0.10394
H_ H_ 0.370786 0.823423 0.678258 0.10394
H_ H_ 0.457727 0.546927 0.580868 0.10394
H_ H_ 0.0143886 0.626377 0.608496 0.10394
H_ H_ 0.143209 0.51351 0.584908 0.10394
H_ H_ 0.441538 0.620155 0.967609 0.10394
H_ H_ 0.00931896 0.699543 0.929333 0.10394
H_ H_ 0.423866 0.770858 0.54979 0.10394
H_ H_ 0.340494 0.748362 -0.019244999999999957 0.10394
H_ H_ 0.23357 0.695109 0.883804 0.10394
H_ H_ 0.196151 0.743836 0.809629 0.10394
H_ H_ 0.343087 0.721257 0.751889 0.10394
H_ H_ 0.38059 0.685015 0.830676 0.10394
H_ H_ 0.288834 0.60519 0.54856 0.10394
H_ H_ 0.233009 0.605302 0.61536 0.10394
H_ H_ 0.10374 0.612901 0.503596 0.10394
C_ C_ 0.175853 0.590245 0.80202 0.18167
C_ C_ 0.223436 0.56855 0.787875 -0.15533
C_ C_ 0.230341 0.517462 0.77322 0.02923
C_ C_ 0.213074 0.991333 0.799799 -0.15533
C_ C_ 0.146489 0.508426 0.804533 0.18167
C_ C_ 0.0308763 0.641724 0.757459 0.18167
C_ C_ 0.508316 0.676186 0.744599 -0.15533
C_ C_ 0.00589267 0.731653 0.754939 0.02923
C_ C_ 0.0282741 0.741291 0.804465 -0.15533
C_ C_ 0.0506946 0.699801 0.829231 0.18167
C_ C_ 0.0122844 0.548531 0.874711 0.69207
C_ C_ 0.473136 0.0046200000000000685 0.879273 0.02923
C_ C_ 0.491626 0.953512 0.872152 -0.15533
C_ C_ 0.46118 0.913847 0.872675 -0.15533
C_ C_ 0.409676 0.924149 0.885735 0.02923
C_ C_ 0.391577 0.975839 0.893545 -0.15533
C_ C_ 0.420733 0.0156686 0.887606 0.02923
C_ C_ 0.391055 0.565997 0.882171 0.69207
C_ C_ 0.398451 0.825858 0.877036 0.69661
C_ C_ 0.0643933 0.814787 0.586057 0.18167
C_ C_ 0.0203146 0.794371 0.564425 -0.15533
C_ C_ 0.0141646 0.778816 0.514165 0.02923
C_ C_ 0.0484096 0.786383 0.981455 -0.15533
C_ C_ 0.0949682 0.808683 0.503828 0.18167
C_ C_ 0.22664 0.764345 0.631977 0.18167
C_ C_ 0.25088 0.738566 0.673431 -0.15533
C_ C_ 0.246364 0.760401 0.723481 0.02923
C_ C_ 0.219076 0.809823 0.728931 -0.15533
C_ C_ 0.197602 0.834151 0.685707 0.18167
C_ C_ 0.241739 0.870423 0.545798 0.69207
C_ C_ 0.276572 0.866596 -0.000723697 0.02923
C_ C_ 0.256593 0.868356 0.947256 -0.15533
C_ C_ 0.284308 0.877637 0.907853 -0.15533
C_ C_ 0.335852 0.8837 0.919717 0.02923
C_ C_ 0.356214 0.887746 0.971997 -0.15533
C_ C_ 0.324578 0.881982 0.0117334 0.02923
C_ C_ 0.354057 0.887416 0.568601 0.69207
C_ C_ 0.347111 0.885303 0.822526 0.69661
C_ C_ 0.314811 0.930241 0.683647 0.18167
C_ C_ 0.273166 0.953408 0.707665 -0.15533
C_ C_ 0.281235 0.99501668 0.741854 0.02923
C_ C_ 0.32268 0.50557 0.758838 -0.15533
C_ C_ 0.368522 0.986175 0.725138 0.18167
C_ C_ 0.487998 0.852553 0.713641 0.18167
C_ C_ 0.010757 0.815935 0.724161 -0.15533
C_ C_ 0.476833 0.769887 0.747395 0.02923
C_ C_ 0.430184 0.773523 0.718265 -0.15533
C_ C_ 0.411346 0.818391 0.691727 0.18167
C_ C_ 0.487548 0.952608 0.617985 0.69207
C_ C_ 0.0289533 0.49768 0.629114 0.02923
C_ C_ 1.00780358 0.550687 0.629191 -0.15533
C_ C_ 0.0343338 0.588243 0.611117 -0.15533
C_ C_ 0.0832035 0.577033 0.596127 0.02923
C_ C_ 0.105045 0.524943 0.596524 -0.15533
C_ C_ 0.0789163 0.486158 0.615499 0.02923
C_ C_ 0.100047 0.92633 0.611237 0.69207
C_ C_ 0.100865 0.670579 0.606078 0.69661
C_ C_ 0.438814 0.660931 0.960719 0.18167
C_ C_ 0.477866 0.688261 0.979425 -0.15533
C_ C_ 0.470052 0.738925 -0.0018259999999999943 0.02923
C_ C_ 0.428859 0.745881 0.516439 -0.15533
C_ C_ 0.379214 0.729209 0.980023 0.18167
C_ C_ 0.258429 0.707378 0.856254 0.18167
C_ C_ 0.23758 0.728778 0.811746 -0.15533
C_ C_ 0.265604 0.729577 0.7682 0.02923
C_ C_ 0.318312 0.710364 0.775964 -0.15533
C_ C_ 0.338593 0.693229 0.823556 0.18167
C_ C_ 0.256902 0.615467 0.947579 0.69207
C_ C_ 0.22769 0.614018 0.486362 0.02923
C_ C_ 0.248163 0.611978 0.539224 -0.15533
C_ C_ 0.215461 0.611831 0.577293 -0.15533
C_ C_ 0.162397 0.608546 0.566614 0.02923
C_ C_ 0.142738 0.613321 0.51399 -0.15533
C_ C_ 0.173077 0.619182 0.474158 0.02923
C_ C_ 0.144957 0.618344 0.922638 0.69207
C_ C_ 0.149024 0.608946 0.661583 0.69661
C_ C_ 0.372732 0.881901 0.878368 -0.30787
C_ C_ 0.123082 0.615304 0.607088 -0.30787
N_ N_ 0.139025 0.560375 0.810847 -0.32189
N_ N_ 0.0470335 0.651192 0.80703 -0.32189
N_ N_ 0.102302 0.817354 0.556183 -0.32189
N_ N_ 0.199436 0.809535 0.639176 -0.32189
N_ N_ 0.361919 0.944777 0.695592 -0.32189
N_ N_ 0.441465 0.854286 0.687466 -0.32189
N_ N_ 0.389708 0.684421 0.953455 -0.32189
N_ N_ 0.308293 0.687196 0.859022 -0.32189
O_ O_ 0.495919 0.589427 0.891549 -0.63271
O_ O_ 0.0390243 0.542626 0.83708 -0.57982
O_ O_ 0.390204 0.587732 0.838897 -0.63271
O_ O_ 0.359927 0.583514 0.916553 -0.57982
O_ O_ 0.245995 0.900335 0.587797 -0.63271
O_ O_ 0.207868 0.837688 0.538437 -0.57982
O_ O_ 0.360763 0.843387 0.589354 -0.63271
O_ O_ 0.376512 0.926196 0.590642 -0.57982
O_ O_ 0.987932 0.902463 0.591129 -0.63271
O_ O_ 0.457003 0.962783 0.6542 -0.57982
O_ O_ 0.0961084 0.906638 0.655408 -0.63271
O_ O_ 0.140116 0.913763 0.587804 -0.57982
O_ O_ 0.255851 0.588196 0.90416 -0.63271
O_ O_ 0.290793 0.647969 0.961213 -0.57982
O_ O_ 0.144744 0.662648 0.902306 -0.63271
O_ O_ 0.111729 0.587031 0.902341 -0.57982
F_ F_ 0.436194 0.819372 0.915181 -0.20885
F_ F_ 0.423698 0.812683 0.835334 -0.20885
F_ F_ 0.368431 0.788447 0.884968 -0.20885
F_ F_ 0.318767 0.931115 0.821481 -0.20885
F_ F_ 0.316621 0.845982 0.806366 -0.20885
F_ F_ 0.379492 0.884309 0.786584 -0.20885
F_ F_ 0.0649531 0.676749 0.561462 -0.20885
F_ F_ 0.0744105 0.691092 0.649416 -0.20885
F_ F_ 0.134444 0.706771 0.602803 -0.20885
F_ F_ 0.178893 0.562207 0.669897 -0.20885
F_ F_ 0.183509 0.646924 0.673097 -0.20885
F_ F_ 0.114694 0.613311 0.699578 -0.20885
Zn Zn 0.592531 0.0858217 0.358264 0.83971
Zn Zn 0.663499 0.347154 0.084304 0.83971
Zn Zn 0.91245 0.410239 0.158465 0.83971
Zn Zn 0.845736 0.160318 0.423756 0.83971
H_ H_ 0.660557 0.137939 0.309791 0.10394
H_ H_ 0.743276 0.107854 0.264277 0.10394
H_ H_ 0.716389 0.444139 0.295903 0.10394
H_ H_ 0.632101 0.98429 0.313118 0.10394
H_ H_ 0.0428865 0.0935032 0.249597 0.10394
H_ H_ 0.99704082 0.162418 0.205386 0.10394
H_ H_ 0.520934 0.266101 0.32426 0.10394
H_ H_ 0.564396 0.2002 0.379961 0.10394
H_ H_ 0.538145 0.442586 0.385061 0.10394
H_ H_ 0.978695 0.378511 0.364226 0.10394
H_ H_ 0.864672 0.490385 0.423015 0.10394
H_ H_ 0.573232 0.319133 0.130565 0.10394
H_ H_ 0.99326768 0.260088 0.093582 0.10394
H_ H_ 0.543656 0.288253 0.447399 0.10394
H_ H_ 0.616307 0.333255 0.984766 0.10394
H_ H_ 0.724872 0.253965 0.105092 0.10394
H_ H_ 0.759841 0.203229 0.179554 0.10394
H_ H_ 0.718415 0.339702 0.270788 0.10394
H_ H_ 0.67617 0.380522 0.195039 0.10394
H_ H_ 0.719528 0.380715 0.443862 0.10394
H_ H_ 0.772555 0.391727 0.38187 0.10394
H_ H_ 0.895117 0.419384 0.498442 0.10394
H_ H_ 0.805991 0.390662 0.17226 0.10394
H_ H_ 0.734579 0.445264 0.201722 0.10394
H_ H_ 0.836504 0.0493112 0.280264 0.10394
H_ H_ 0.907896 0.495519 0.232671 0.10394
H_ H_ 0.508608 0.374408 0.191345 0.10394
H_ H_ 0.55055 0.293536 0.224463 0.10394
H_ H_ 0.917971 0.23797 0.228434 0.10394
H_ H_ 0.876195 0.31494 0.185322 0.10394
H_ H_ 0.963934 0.056328 0.103587 0.10394
H_ H_ 0.507649 0.117821 0.085064 0.10394
H_ H_ 0.64175 0.0147488 0.0952163 0.10394
H_ H_ 0.951769 0.157292 0.415275 0.10394
H_ H_ 0.516336 0.196554 0.446452 0.10394
H_ H_ 0.915742 0.276355 0.0413213 0.10394
H_ H_ 0.849663 0.234486 0.516057 0.10394
H_ H_ 0.738415 0.203396 0.392067 0.10394
H_ H_ 0.699511 0.247732 0.313956 0.10394
H_ H_ 0.834933 0.222752 0.248249 0.10394
H_ H_ 0.880873 0.185343 0.325697 0.10394
H_ H_ 0.781485 0.130552 0.0578671 0.10394
H_ H_ 0.72238 0.124801 0.124248 0.10394
H_ H_ 0.600633 0.0981035 0.00712045 0.10394
C_ C_ 0.674936 0.0972428 0.305622 0.18167
C_ C_ 0.720735 0.0802503 0.278223 -0.15533
C_ C_ 0.735591 0.0281182 0.270155 0.02923
C_ C_ 0.707329 0.485229 0.2962 -0.15533
C_ C_ 0.656232 0.0106336 0.30246 0.18167
C_ C_ 0.527948 0.127869 0.275988 0.18167
C_ C_ 0.0153432 0.170235 0.246392 -0.15533
C_ C_ 0.503531 0.217435 0.258818 0.02923
C_ C_ 0.529181 0.228529 0.307297 -0.15533
C_ C_ 0.549833 0.190317 0.33983 0.18167
C_ C_ 0.513737 0.0463992 0.387656 0.69207
C_ C_ 0.97539 0.510022 0.373011 0.02923
C_ C_ 0.995428 0.458984 0.366891 -0.15533
C_ C_ 0.966015 0.418851 0.37593 -0.15533
C_ C_ 0.919077 0.429811 0.395409 0.02923
C_ C_ 0.899787 0.482244 0.406593 -0.15533
C_ C_ 0.926802 0.523171 0.392415 0.02923
C_ C_ 0.900123 0.0714706 0.386418 0.69207
C_ C_ 0.910338 0.33513 0.406858 0.69661
C_ C_ 0.574056 0.303062 0.0921811 0.18167
C_ C_ 0.531947 0.280356 0.0736229 -0.15533
C_ C_ 0.525806 0.2654 0.0209555 0.02923
C_ C_ 0.555216 0.286949 0.486068 -0.15533
C_ C_ 0.60016 0.310221 0.0096205 0.18167
C_ C_ 0.715206 0.268342 0.140891 0.18167
C_ C_ 0.738585 0.242021 0.183413 -0.15533
C_ C_ 0.737506 0.266311 0.231533 0.02923
C_ C_ 0.715746 0.317936 0.237135 -0.15533
C_ C_ 0.690843 0.341253 0.193067 0.18167
C_ C_ 0.746059 0.369812 0.0501602 0.69207
C_ C_ 0.774854 0.393593 0.511415 0.02923
C_ C_ 0.758178 0.3859 0.456886 -0.15533
C_ C_ 0.790695 0.392187 0.420532 -0.15533
C_ C_ 0.842858 0.399556 0.433428 0.02923
C_ C_ 0.858116 0.410302 0.485862 -0.15533
C_ C_ 0.82771 0.399641 0.52333 0.02923
C_ C_ 0.855432 0.381353 0.075258 0.69207
C_ C_ 0.858497 0.382179 0.338317 0.69661
C_ C_ 0.812761 0.426572 0.192538 0.18167
C_ C_ 0.771508 0.457713 0.209509 -0.15533
C_ C_ 0.782399 0.497529 0.246965 0.02923
C_ C_ 0.824924 0.0259233 0.245127 -0.15533
C_ C_ 0.869656 0.487689 0.223824 0.18167
C_ C_ 0.997508 0.342641 0.201087 0.18167
C_ C_ 0.510106 0.29721 0.21235 -0.15533
C_ C_ 0.989814 0.264972 0.242301 0.02923
C_ C_ 0.939037 0.269614 0.222407 -0.15533
C_ C_ 0.916497 0.310947 0.194884 0.18167
C_ C_ 0.985689 0.451117 0.125033 0.69207
C_ C_ 0.521474 0.99274 0.105594 0.02923
C_ C_ 0.499228 0.0423484 0.105409 -0.15533
C_ C_ 0.528085 0.0815041 0.0924438 -0.15533
C_ C_ 0.578874 0.0725754 0.0966801 0.02923
C_ C_ 0.601483 0.0217969 0.0948467 -0.15533
C_ C_ 0.573339 0.980669 0.099895 0.02923
C_ C_ 0.603436 0.427275 0.10184 0.69207
C_ C_ 0.592071 0.168614 0.114952 0.69661
C_ C_ 0.943198 0.191667 0.441263 0.18167
C_ C_ 0.985255 0.212508 0.468468 -0.15533
C_ C_ 0.977683 0.246321 0.511295 0.02923
C_ C_ 0.922269 0.251135 0.00525838 -0.15533
C_ C_ 0.889936 0.228791 0.503955 0.18167
C_ C_ 0.763618 0.206814 0.360432 0.18167
C_ C_ 0.738026 0.23089 0.317708 -0.15533
C_ C_ 0.765196 0.237878 0.276467 0.02923
C_ C_ 0.815564 0.21992 0.281203 -0.15533
C_ C_ 0.839515 0.195898 0.323039 0.18167
C_ C_ 0.765998 0.130838 0.464151 0.69207
C_ C_ 0.724766 0.117097 0.996361 0.02923
C_ C_ 0.743024 0.119259 0.0486133 -0.15533
C_ C_ 0.708261 0.116443 0.0857085 -0.15533
C_ C_ 0.655952 0.109143 0.0720566 0.02923
C_ C_ 0.63928 0.103385 0.0194358 -0.15533
C_ C_ 0.672966 0.107651 0.983164 0.02923
C_ C_ 0.656926 0.115295 0.433642 0.69207
C_ C_ 0.639147 0.103725 0.168462 0.69661
C_ C_ 0.881523 0.38896 0.395724 -0.30787
C_ C_ 0.615549 0.114183 0.111315 -0.30787
N_ N_ 0.644206 0.0613979 0.31741 -0.32189
N_ N_ 0.556436 0.142107 0.320135 -0.32189
N_ N_ 0.60796 0.315402 0.0609915 -0.32189
N_ N_ 0.691553 0.315816 0.146102 -0.32189
N_ N_ 0.861406 0.441047 0.202267 -0.32189
N_ N_ 0.946617 0.349269 0.188381 -0.32189
N_ N_ 0.897336 0.20104 0.458362 -0.32189
N_ N_ 0.814378 0.193251 0.365035 -0.32189
O_ O_ 0.0158704 0.0859498 0.402094 -0.63271
O_ O_ 0.551151 0.0381052 0.356817 -0.57982
O_ O_ 0.911233 0.0981918 0.349271 -0.63271
O_ O_ 0.876295 0.0976648 0.423442 -0.57982
O_ O_ 0.749494 0.397449 0.0937507 -0.63271
O_ O_ 0.710416 0.339658 0.0401961 -0.57982
O_ O_ 0.851881 0.341789 0.101306 -0.63271
O_ O_ 0.886258 0.415351 0.0928872 -0.57982
O_ O_ 0.497737 0.405207 0.0942653 -0.63271
O_ O_ 0.949311 0.462459 0.155171 -0.57982
O_ O_ 0.604205 0.403946 0.144671 -0.63271
O_ O_ 0.64112 0.413345 0.0761423 -0.57982
O_ O_ 0.765516 0.100142 0.423187 -0.63271
O_ O_ 0.805687 0.158943 0.474796 -0.57982
O_ O_ 0.649488 0.155835 0.407199 -0.63271
O_ O_ 0.629473 0.0781178 0.419275 -0.57982
F_ F_ 0.940576 0.34032 0.449846 -0.20885
F_ F_ 0.938202 0.309631 0.368286 -0.20885
F_ F_ 0.878384 0.298836 0.416398 -0.20885
F_ F_ 0.822829 0.420621 0.320446 -0.20885
F_ F_ 0.836606 0.335153 0.334165 -0.20885
F_ F_ 0.892956 0.376157 0.304047 -0.20885
F_ F_ 0.560961 0.180739 0.0732529 -0.20885
F_ F_ 0.558002 0.177134 0.149727 -0.20885
F_ F_ 0.627673 0.205151 0.118107 -0.20885
F_ F_ 0.673492 0.0581553 0.176484 -0.20885
F_ F_ 0.665326 0.144126 0.190575 -0.20885
F_ F_ 0.602357 0.098795 0.202098 -0.20885
Zn Zn 0.588952 0.0794045 0.84495 0.83971
Zn Zn 0.661678 0.350637 0.584202 0.83971
Zn Zn 0.911922 0.42138 0.66089 0.83971
Zn Zn 0.839599 0.152009 0.912449 0.83971
H_ H_ 0.67607 0.121169 0.820301 0.10394
H_ H_ 0.752849 0.0934546 0.777337 0.10394
H_ H_ 0.700088 0.44569 0.772427 0.10394
H_ H_ 0.631209 0.974589 0.814308 0.10394
H_ H_ 0.0192898 0.0960197 0.75667 0.10394
H_ H_ 0.977122 0.167765 0.712663 0.10394
H_ H_ 0.540333 0.265799 0.826844 0.10394
H_ H_ 0.580497 0.191132 0.866962 0.10394
H_ H_ 0.533678 0.445703 0.899081 0.10394
H_ H_ 0.986912 0.380235 0.882236 0.10394
H_ H_ 0.855234 0.488448 0.899043 0.10394
H_ H_ 0.589861 0.292579 0.631003 0.10394
H_ H_ 0.00208416 0.276379 0.608955 0.10394
H_ H_ 0.547798 0.276465 0.947657 0.10394
H_ H_ 0.626193 0.316153 0.479627 0.10394
H_ H_ 0.717214 0.255661 0.598771 0.10394
H_ H_ 0.761612 0.214236 0.678058 0.10394
H_ H_ 0.722947 0.35133 0.770228 0.10394
H_ H_ 0.690423 0.39009 0.688744 0.10394
H_ H_ 0.718512 0.376258 0.950768 0.10394
H_ H_ 0.778036 0.363102 0.885317 0.10394
H_ H_ 0.900367 0.406393 0.990493 0.10394
H_ H_ 0.804774 0.405659 0.656889 0.10394
H_ H_ 0.73072 0.467064 0.675328 0.10394
H_ H_ 0.829105 0.0336904 0.77776 0.10394
H_ H_ 0.899196 0.504129 0.738181 0.10394
H_ H_ 0.508871 0.385289 0.696748 0.10394
H_ H_ 0.553929 0.301455 0.722625 0.10394
H_ H_ 0.912144 0.245662 0.725516 0.10394
H_ H_ 0.868523 0.328153 0.686114 0.10394
H_ H_ 0.958213 0.0512124 0.606038 0.10394
H_ H_ 0.517865 0.117874 0.611023 0.10394
H_ H_ 0.645809 0.00647848 0.592248 0.10394
H_ H_ 0.938457 0.156529 0.891724 0.10394
H_ H_ 0.522632 0.191158 0.936545 0.10394
H_ H_ 0.919129 0.282058 0.557977 0.10394
H_ H_ 0.846193 0.23582 -0.00169092 0.10394
H_ H_ 0.729339 0.196676 0.880243 0.10394
H_ H_ 0.692772 0.251988 0.811057 0.10394
H_ H_ 0.836923 0.237166 0.750083 0.10394
H_ H_ 0.875475 0.19351 0.830152 0.10394
H_ H_ 0.786594 0.133432 0.568003 0.10394
H_ H_ 0.735202 0.111128 0.630223 0.10394
H_ H_ 0.606894 0.103713 0.515977 0.10394
C_ C_ 0.681543 0.0834739 0.803092 0.18167
C_ C_ 0.72743 0.065037 0.786613 -0.15533
C_ C_ 0.73139 0.013113 0.765083 0.02923
C_ C_ 0.692313 0.486013 0.778396 -0.15533
C_ C_ 0.654951 1.36566e-05 0.802091 0.18167
C_ C_ 0.520379 0.130824 0.771618 0.18167
C_ C_ -0.0032200000000000006 0.17638 0.74732 -0.15533
C_ C_ 0.50069 0.223655 0.764798 0.02923
C_ C_ 0.531024 0.228744 0.809831 -0.15533
C_ C_ 0.554874 0.184828 0.834655 0.18167
C_ C_ 0.509676 0.0417309 0.871603 0.69207
C_ C_ 0.979429 0.507669 0.882091 0.02923
C_ C_ 0.999651 0.455857 0.877159 -0.15533
C_ C_ 0.968456 0.418288 0.883513 -0.15533
C_ C_ 0.918044 0.428599 0.896364 0.02923
C_ C_ 0.896881 0.479537 0.896671 -0.15533
C_ C_ 0.926201 0.519764 0.888272 0.02923
C_ C_ 0.892536 0.0684971 0.879314 0.69207
C_ C_ 0.907749 0.329028 0.891066 0.69661
C_ C_ 0.579187 0.296542 0.589953 0.18167
C_ C_ 0.535756 0.275825 0.571581 -0.15533
C_ C_ 0.520246 0.274172 0.519554 0.02923
C_ C_ 0.558131 0.281792 0.989459 -0.15533
C_ C_ 0.601319 0.304473 0.505977 0.18167
C_ C_ 0.71745 0.273719 0.638391 0.18167
C_ C_ 0.743796 0.251462 0.680882 -0.15533
C_ C_ 0.744132 0.277603 0.729163 0.02923
C_ C_ 0.722701 0.327831 0.732915 -0.15533
C_ C_ 0.699679 0.349503 0.688934 0.18167
C_ C_ 0.73736 0.385116 0.547438 0.69207
C_ C_ 0.77984 0.375149 1.0105213 0.02923
C_ C_ 0.758733 0.376983 0.960068 -0.15533
C_ C_ 0.791992 0.376402 0.92215 -0.15533
C_ C_ 0.842414 0.389755 0.932769 0.02923
C_ C_ 0.863363 0.389892 0.984263 -0.15533
C_ C_ 0.832006 0.384579 0.0222501 0.02923
C_ C_ 0.85428 0.394626 0.575683 0.69207
C_ C_ 0.850976 0.392436 0.83703 0.69661
C_ C_ 0.809183 0.437373 0.684013 0.18167
C_ C_ 0.766545 0.464855 0.698536 -0.15533
C_ C_ 0.772886 0.499439 0.743732 0.02923
C_ C_ 0.822923 0.00894081 0.746148 -0.15533
C_ C_ 0.862397 0.489716 0.731516 0.18167
C_ C_ 0.98999 0.355515 0.7071 0.18167
C_ C_ 0.51372 0.30577 0.717094 -0.15533
C_ C_ 0.983152 0.272604 0.737674 0.02923
C_ C_ 0.931658 0.277206 0.718641 -0.15533
C_ C_ 0.909924 0.320466 0.69329 0.18167
C_ C_ 0.99674 0.456124 0.634892 0.69207
C_ C_ 0.521456 0.9906 0.610099 0.02923
C_ C_ 0.504118 0.0410562 0.611576 -0.15533
C_ C_ 0.537407 0.0791479 0.610774 -0.15533
C_ C_ 0.589787 0.0700228 0.608163 0.02923
C_ C_ 0.60692 0.0183574 0.601466 -0.15533
C_ C_ 0.572883 0.978103 0.60115 0.02923
C_ C_ 0.59525 0.424991 0.60674 0.69207
C_ C_ 0.600099 0.166457 0.618567 0.69661
C_ C_ 0.933861 0.181954 0.923887 0.18167
C_ C_ 0.97851 0.19579 0.953489 -0.15533
C_ C_ 0.972188 0.234438 -0.008350999999999997 0.02923
C_ C_ 0.92929 0.251362 0.532227 -0.15533
C_ C_ 0.880294 0.231019 0.979979 0.18167
C_ C_ 0.75485 0.206475 0.850091 0.18167
C_ C_ 0.732479 0.236611 0.809994 -0.15533
C_ C_ 0.765565 0.251752 0.776647 0.02923
C_ C_ 0.815873 0.230348 0.779489 -0.15533
C_ C_ 0.837035 0.198875 0.819342 0.18167
C_ C_ 0.761813 0.122534 0.958537 0.69207
C_ C_ 0.728001 0.128978 0.502813 0.02923
C_ C_ 0.747204 0.12608 0.554949 -0.15533
C_ C_ 0.716575 0.112358 0.590644 -0.15533
C_ C_ 0.665629 0.107037 0.578317 0.02923
C_ C_ 0.646673 0.108289 0.526141 -0.15533
C_ C_ 0.677618 0.120053 0.488169 0.02923
C_ C_ 0.650305 0.113115 0.928484 0.69207
C_ C_ 0.650334 0.107419 0.673725 0.69661
C_ C_ 0.880949 0.386012 0.890436 -0.30787
C_ C_ 0.626932 0.111939 0.618189 -0.30787
N_ N_ 0.648687 0.0514465 0.813205 -0.32189
N_ N_ 0.554857 0.137741 0.812207 -0.32189
N_ N_ 0.610246 0.312405 0.556977 -0.32189
N_ N_ 0.700159 0.322813 0.642898 -0.32189
N_ N_ 0.855014 0.450987 0.696138 -0.32189
N_ N_ 0.939447 0.358953 0.688344 -0.32189
N_ N_ 0.88629 0.195713 0.941659 -0.32189
N_ N_ 0.804494 0.185605 0.852503 -0.32189
O_ O_ 0.0007500000000000284 0.0918004 0.884411 -0.63271
O_ O_ 0.54827 0.0290427 0.844873 -0.57982
O_ O_ 0.884505 0.093166 0.836265 -0.63271
O_ O_ 0.873275 0.0891503 0.920088 -0.57982
O_ O_ 0.732496 0.416306 0.587697 -0.63271
O_ O_ 0.708184 0.348414 0.537252 -0.57982
O_ O_ 0.85915 0.351104 0.596305 -0.63271
O_ O_ 0.880498 0.429815 0.595895 -0.57982
O_ O_ 0.486446 0.40488 0.597812 -0.63271
O_ O_ 0.957139 0.466087 0.662852 -0.57982
O_ O_ 0.594178 0.397475 0.645508 -0.63271
O_ O_ 0.630212 0.411228 0.576084 -0.57982
O_ O_ 0.76007 0.0979789 0.914663 -0.63271
O_ O_ 0.795431 0.155492 0.965335 -0.57982
O_ O_ 0.651986 0.156274 0.905761 -0.63271
O_ O_ 0.620056 0.0810348 0.91004 -0.57982
F_ F_ 0.945499 0.323612 0.931939 -0.20885
F_ F_ 0.93165 0.315693 0.849552 -0.20885
F_ F_ 0.875237 0.291142 0.894105 -0.20885
F_ F_ 0.815793 0.435275 0.837188 -0.20885
F_ F_ 0.824294 0.350557 0.820877 -0.20885
F_ F_ 0.88061 0.398709 0.795625 -0.20885
F_ F_ 0.56699 0.173078 0.576187 -0.20885
F_ F_ 0.573474 0.183253 0.660235 -0.20885
F_ F_ 0.634747 0.200852 0.615323 -0.20885
F_ F_ 0.681728 0.0615048 0.676721 -0.20885
F_ F_ 0.678757 0.14843 0.689621 -0.20885
F_ F_ 0.613418 0.102715 0.705943 -0.20885
Zn Zn 0.587572 0.582296 0.343665 0.83971
Zn Zn 0.661065 0.845372 0.0779528 0.83971
Zn Zn 0.906406 0.923364 0.149066 0.83971
Zn Zn 0.83685 0.655143 0.415242 0.83971
H_ H_ 0.667688 0.630663 0.302271 0.10394
H_ H_ 0.746555 0.598222 0.266934 0.10394
H_ H_ 0.709789 0.951816 0.272595 0.10394
H_ H_ 0.633932 0.482318 0.323088 0.10394
H_ H_ 0.0281665 0.605478 0.250629 0.10394
H_ H_ 1.0038 0.685071 0.200665 0.10394
H_ H_ 0.533139 0.770883 0.339105 0.10394
H_ H_ 0.578405 0.691226 0.377318 0.10394
H_ H_ 0.537122 0.948531 0.379791 0.10394
H_ H_ 0.977128 0.880182 0.37048 0.10394
H_ H_ 0.852713 0.992179 0.409237 0.10394
H_ H_ 0.57771 0.806255 0.123779 0.10394
H_ H_ 1.00108661 0.76369 0.0920194 0.10394
H_ H_ 0.534215 0.783447 0.443649 0.10394
H_ H_ 0.620736 0.801987 0.972041 0.10394
H_ H_ 0.717359 0.749758 0.0905994 0.10394
H_ H_ 0.766873 0.707345 0.164842 0.10394
H_ H_ 0.720625 0.839201 0.259863 0.10394
H_ H_ 0.684206 0.881195 0.185152 0.10394
H_ H_ 0.705404 0.892578 0.435135 0.10394
H_ H_ 0.766887 0.902661 0.370988 0.10394
H_ H_ 0.893814 0.894435 0.483281 0.10394
H_ H_ 0.805446 0.906122 0.15565 0.10394
H_ H_ 0.729856 0.959151 0.18666 0.10394
H_ H_ 0.838459 0.547036 0.275736 0.10394
H_ H_ 0.904955 1.0102789 0.226408 0.10394
H_ H_ 0.5105 0.87691 0.186763 0.10394
H_ H_ 0.551165 0.802326 0.233543 0.10394
H_ H_ 0.918824 0.747019 0.211875 0.10394
H_ H_ 0.877161 0.822868 0.173878 0.10394
H_ H_ 0.963828 0.554391 0.127871 0.10394
H_ H_ 0.519503 0.621377 0.113213 0.10394
H_ H_ 0.646077 0.510473 0.0893062 0.10394
H_ H_ 0.940943 0.663908 0.396999 0.10394
H_ H_ 0.519574 0.699094 0.44135 0.10394
H_ H_ 0.915533 0.777134 0.0407303 0.10394
H_ H_ 0.83925 0.735465 0.495536 0.10394
H_ H_ 0.73151 0.690828 0.371172 0.10394
H_ H_ 0.695374 0.742002 0.297585 0.10394
H_ H_ 0.842215 0.725581 0.247329 0.10394
H_ H_ 0.879295 0.690756 0.325181 0.10394
H_ H_ 0.780815 0.638281 0.0534601 0.10394
H_ H_ 0.737126 0.616944 0.122903 0.10394
H_ H_ 0.599691 0.602952 0.0148251 0.10394
C_ C_ 0.678809 0.58966 0.298089 0.18167
C_ C_ 0.72365 0.569664 0.277449 -0.15533
C_ C_ 0.739936 0.517971 0.27614 0.02923
C_ C_ 0.70117 0.993865 0.278468 -0.15533
C_ C_ 0.659189 0.507528 0.311345 0.18167
C_ C_ 0.522358 0.636752 0.272137 0.18167
C_ C_ 0.00978032 0.687903 0.241796 -0.15533
C_ C_ 0.506508 0.729715 0.270645 0.02923
C_ C_ 0.53316 0.734855 0.317251 -0.15533
C_ C_ 0.557747 0.687915 0.339969 0.18167
C_ C_ 0.511563 0.542248 0.366853 0.69207
C_ C_ 0.979483 0.00611759 0.390544 0.02923
C_ C_ -0.0041240000000000165 0.953729 0.388851 -0.15533
C_ C_ 0.962367 0.917672 0.380598 -0.15533
C_ C_ 0.909023 0.929923 0.388025 0.02923
C_ C_ 0.892886 0.982283 0.398187 -0.15533
C_ C_ 0.925117 0.0186552 0.395001 0.02923
C_ C_ 0.897193 0.57389 0.384792 0.69207
C_ C_ 0.892092 0.832058 0.377716 0.69661
C_ C_ 0.569679 0.798313 0.0823957 0.18167
C_ C_ 0.525886 0.778169 0.0655886 -0.15533
C_ C_ 0.514384 0.76871 0.0137645 0.02923
C_ C_ 0.541192 0.791806 0.485008 -0.15533
C_ C_ 0.595947 0.792843 -0.00236123 0.18167
C_ C_ 0.717872 0.766181 0.129613 0.18167
C_ C_ 0.748257 0.744175 0.170245 -0.15533
C_ C_ 0.745015 0.766964 0.220183 0.02923
C_ C_ 0.72315 0.818261 0.223901 -0.15533
C_ C_ 0.696535 0.83987 0.180418 0.18167
C_ C_ 0.738545 0.871454 0.034093 0.69207
C_ C_ 0.767537 0.877507 0.497882 0.02923
C_ C_ 0.747987 0.887298 0.446966 -0.15533
C_ C_ 0.781982 0.893771 0.408591 -0.15533
C_ C_ 0.833612 0.895882 0.422832 0.02923
C_ C_ 0.852538 0.893832 0.473168 -0.15533
C_ C_ 0.819496 0.886726 0.510929 0.02923
C_ C_ 0.845763 0.895667 0.0648731 0.69207
C_ C_ 0.846101 0.898806 0.322202 0.69661
C_ C_ 0.808401 0.944191 0.176002 0.18167
C_ C_ 0.767119 0.970841 0.194361 -0.15533
C_ C_ 0.775491 1.00918614 0.234402 0.02923
C_ C_ 0.830748 0.515564 0.250397 -0.15533
C_ C_ 0.8651 1.00019 0.219864 0.18167
C_ C_ 0.985882 0.867904 0.208526 0.18167
C_ C_ 0.510213 0.807809 0.223402 -0.15533
C_ C_ 0.986783 0.782486 0.238289 0.02923
C_ C_ 0.939409 0.779901 0.209972 -0.15533
C_ C_ 0.915693 0.822196 0.185141 0.18167
C_ C_ 0.983508 0.95322 0.113225 0.69207
C_ C_ 0.524247 0.492034 0.110722 0.02923
C_ C_ 0.50727 0.543614 0.121695 -0.15533
C_ C_ 0.537209 0.583693 0.115982 -0.15533
C_ C_ 0.58878 0.570823 0.107649 0.02923
C_ C_ 0.606132 0.520095 0.0951714 -0.15533
C_ C_ 0.576017 0.480183 0.0984235 0.02923
C_ C_ 0.60127 0.927312 0.106627 0.69207
C_ C_ 0.602119 0.667487 0.122827 0.69661
C_ C_ 0.935724 0.684628 0.431676 0.18167
C_ C_ 0.9752 0.71085 0.455291 -0.15533
C_ C_ 0.966944 0.751396 0.490822 0.02923
C_ C_ 0.922511 0.751731 1.008584 -0.15533
C_ C_ 0.878492 0.7263 0.488366 0.18167
C_ C_ 0.757119 0.700739 0.346836 0.18167
C_ C_ 0.736361 0.729949 0.305445 -0.15533
C_ C_ 0.766756 0.739229 0.267361 0.02923
C_ C_ 0.817382 0.724021 0.276108 -0.15533
C_ C_ 0.839212 0.699057 0.318796 0.18167
C_ C_ 0.757068 0.625828 0.449965 0.69207
C_ C_ 0.720351 0.625571 0.993466 0.02923
C_ C_ 0.741581 0.626711 0.0442928 -0.15533
C_ C_ 0.714271 0.621162 0.0853963 -0.15533
C_ C_ 0.662642 0.610313 0.0742913 0.02923
C_ C_ 0.641066 0.604946 0.0226049 -0.15533
C_ C_ 0.668412 0.614562 0.981823 0.02923
C_ C_ 0.649868 0.603681 0.420936 0.69207
C_ C_ 0.653914 0.602655 0.172354 0.69661
C_ C_ 0.869111 0.889057 0.377077 -0.30787
C_ C_ 0.62751 0.611672 0.118593 -0.30787
N_ N_ 0.645939 0.558175 0.311286 -0.32189
N_ N_ 0.552593 0.641997 0.317107 -0.32189
N_ N_ 0.602875 0.808176 0.0489663 -0.32189
N_ N_ 0.696335 0.814691 0.134407 -0.32189
N_ N_ 0.854441 0.962085 0.183803 -0.32189
N_ N_ 0.939558 0.865189 0.184906 -0.32189
N_ N_ 0.887803 0.694218 0.445614 -0.32189
N_ N_ 0.807435 0.685122 0.351942 -0.32189
O_ O_ 0.00542738 0.5956 0.387471 -0.63271
O_ O_ 0.548946 0.528008 0.337329 -0.57982
O_ O_ 0.89386 0.598594 0.344035 -0.63271
O_ O_ 0.871555 0.593066 0.420066 -0.57982
O_ O_ 0.745338 0.898153 0.0788162 -0.63271
O_ O_ 0.70831 0.835757 0.0309273 -0.57982
O_ O_ 0.849665 0.855211 0.0902904 -0.63271
O_ O_ 0.872017 0.933063 0.0850696 -0.57982
O_ O_ 0.492102 0.907274 0.0915312 -0.63271
O_ O_ 0.951258 0.969176 0.146291 -0.57982
O_ O_ 0.593616 0.90067 0.144225 -0.63271
O_ O_ 0.637912 0.911422 0.0774808 -0.57982
O_ O_ 0.759005 0.595731 0.40965 -0.63271
O_ O_ 0.789625 0.659904 0.460483 -0.57982
O_ O_ 0.655068 0.63817 0.390976 -0.63271
O_ O_ 0.616356 0.571445 0.403849 -0.57982
F_ F_ 0.926311 0.820849 0.421694 -0.20885
F_ F_ 0.916949 0.816443 0.33585 -0.20885
F_ F_ 0.85338 0.801364 0.376735 -0.20885
F_ F_ 0.819152 0.94612 0.320727 -0.20885
F_ F_ 0.81233 0.863213 0.30297 -0.20885
F_ F_ 0.882378 0.897465 0.287864 -0.20885
F_ F_ 0.571825 0.677876 0.0784964 -0.20885
F_ F_ 0.574322 0.684239 0.16393 -0.20885
F_ F_ 0.642672 0.70049 0.125712 -0.20885
F_ F_ 0.684996 0.55641 0.172126 -0.20885
F_ F_ 0.682663 0.641242 0.19392 -0.20885
F_ F_ 0.615777 0.595834 0.203013 -0.20885
Zn Zn 0.582246 0.578388 0.850447 0.83971
Zn Zn 0.656424 0.850214 0.581524 0.83971
Zn Zn 0.904359 0.913502 0.642616 0.83971
Zn Zn 0.832854 0.660545 0.91466 0.83971
H_ H_ 0.664361 0.630195 0.817222 0.10394
H_ H_ 0.743956 0.599696 0.781298 0.10394
H_ H_ 0.703658 0.941654 0.76624 0.10394
H_ H_ 0.62418 0.473737 0.815105 0.10394
H_ H_ 0.0322308 0.600446 0.74339 0.10394
H_ H_ 0.991491 0.676273 0.691638 0.10394
H_ H_ 0.502983 0.757015 0.85014 0.10394
H_ H_ 0.535041 0.678794 0.89175 0.10394
H_ H_ 0.530705 0.943004 0.862761 0.10394
H_ H_ 0.980541 0.879253 0.857117 0.10394
H_ H_ 0.856955 0.982728 0.901239 0.10394
H_ H_ 0.588286 0.794761 0.630767 0.10394
H_ H_ -0.008603999999999945 0.788528 0.58707 0.10394
H_ H_ 0.543916 0.757104 0.939554 0.10394
H_ H_ 0.608173 0.826614 0.473206 0.10394
H_ H_ 0.720118 0.74762 0.600599 0.10394
H_ H_ 0.742398 0.705955 0.68002 0.10394
H_ H_ 0.717716 0.845711 0.764756 0.10394
H_ H_ 0.681323 0.886005 0.68351 0.10394
H_ H_ 0.726389 0.846163 0.935727 0.10394
H_ H_ 0.783726 0.853893 0.864655 0.10394
H_ H_ 0.89559 0.910642 0.982339 0.10394
H_ H_ 0.806594 0.896148 0.647856 0.10394
H_ H_ 0.728544 0.953366 0.6752 0.10394
H_ H_ 0.830918 0.537514 0.793703 0.10394
H_ H_ 0.900576 1.00352 0.724598 0.10394
H_ H_ 0.504277 0.887658 0.72172 0.10394
H_ H_ 0.543408 0.812915 0.766637 0.10394
H_ H_ 0.907581 0.74602 0.706595 0.10394
H_ H_ 0.866639 0.82432 0.680798 0.10394
H_ H_ 0.972015 0.564636 0.64063 0.10394
H_ H_ 0.513761 0.617825 0.581436 0.10394
H_ H_ 0.637499 0.503905 0.586458 0.10394
H_ H_ 0.933272 0.668917 0.887825 0.10394
H_ H_ 0.516845 0.670524 0.979031 0.10394
H_ H_ 0.909246 0.790756 0.536136 0.10394
H_ H_ 0.848131 0.724018 1.00780311 0.10394
H_ H_ 0.73818 0.726901 0.893844 0.10394
H_ H_ 0.694172 0.771133 0.822527 0.10394
H_ H_ 0.829174 0.73194 0.743516 0.10394
H_ H_ 0.867717 0.681912 0.816303 0.10394
H_ H_ 0.779596 0.628594 0.549985 0.10394
H_ H_ 0.727217 0.616246 0.617057 0.10394
H_ H_ 0.609205 0.572616 0.502085 0.10394
C_ C_ 0.673674 0.589719 0.807281 0.18167
C_ C_ 0.719164 0.571526 0.787631 -0.15533
C_ C_ 0.72732 0.519998 0.769992 0.02923
C_ C_ 0.700242 0.97931 0.780217 -0.15533
C_ C_ 0.650807 0.504181 0.80789 0.18167
C_ C_ 0.530401 0.632914 0.770865 0.18167
C_ C_ 0.0056578 0.683449 0.731783 -0.15533
C_ C_ 0.498433 0.723522 0.77304 0.02923
C_ C_ 0.506863 0.721427 0.825995 -0.15533
C_ C_ 0.533531 0.680014 0.84956 0.18167
C_ C_ 0.506512 0.541349 0.877824 0.69207
C_ C_ 0.973272 0.00754215 0.868536 0.02923
C_ C_ -0.005506000000000011 0.956588 0.859729 -0.15533
C_ C_ 0.967091 0.91739 0.870079 -0.15533
C_ C_ 0.917318 0.925774 0.88555 0.02923
C_ C_ 0.893618 0.975901 0.887731 -0.15533
C_ C_ 0.919532 0.0181382 0.878976 0.02923
C_ C_ 0.897469 0.571838 0.880396 0.69207
C_ C_ 0.907076 0.827766 0.884256 0.69661
C_ C_ 0.57325 0.799005 0.589739 0.18167
C_ C_ 0.527677 0.776651 0.572975 -0.15533
C_ C_ 0.513892 0.770112 0.520921 0.02923
C_ C_ 0.549246 0.775289 0.978194 -0.15533
C_ C_ 0.584304 0.81451 0.502881 0.18167
C_ C_ 0.709731 0.767864 0.636585 0.18167
C_ C_ 0.727317 0.744503 0.681615 -0.15533
C_ C_ 0.72921 0.77179 0.728846 0.02923
C_ C_ 0.713978 0.824141 0.729349 -0.15533
C_ C_ 0.694898 0.846513 0.682206 0.18167
C_ C_ 0.734958 0.870885 0.536554 0.69207
C_ C_ 0.777259 0.872134 0.995245 0.02923
C_ C_ 0.762922 0.856376 0.943073 -0.15533
C_ C_ 0.793491 0.864577 0.905699 -0.15533
C_ C_ 0.840486 0.887866 0.919227 0.02923
C_ C_ 0.855282 0.900599 0.972031 -0.15533
C_ C_ 0.824369 0.892764 0.00958243 0.02923
C_ C_ 0.846082 0.890298 0.563187 0.69207
C_ C_ 0.859056 0.879638 0.820274 0.69661
C_ C_ 0.810022 0.932089 0.672477 0.18167
C_ C_ 0.766711 0.960046 0.691233 -0.15533
C_ C_ 0.774108 -0.005835999999999952 0.732761 0.02923
C_ C_ 0.822056 0.513179 0.758107 -0.15533
C_ C_ 0.864127 0.987249 0.717937 0.18167
C_ C_ 0.986017 0.857903 0.697507 0.18167
C_ C_ 0.508206 0.809151 0.740519 -0.15533
C_ C_ 0.981864 0.774501 0.726987 0.02923
C_ C_ 0.930572 0.77589 0.709358 -0.15533
C_ C_ 0.90723 0.817987 0.684298 0.18167
C_ C_ 0.982208 0.950291 0.610683 0.69207
C_ C_ 0.517967 0.489157 0.605603 0.02923
C_ C_ 0.497059 0.539687 0.591549 -0.15533
C_ C_ 0.530579 0.579399 0.584894 -0.15533
C_ C_ 0.581929 0.567859 0.597292 0.02923
C_ C_ 0.601534 0.516297 0.597056 -0.15533
C_ C_ 0.571043 0.478744 0.606978 0.02923
C_ C_ 0.596428 0.925375 0.599074 0.69207
C_ C_ 0.594836 0.664566 0.601469 0.69661
C_ C_ 0.928433 0.693105 0.91951 0.18167
C_ C_ 0.972289 0.711053 0.946248 -0.15533
C_ C_ 0.97012 0.741474 0.992873 0.02923
C_ C_ 0.91635 0.760037 0.506633 -0.15533
C_ C_ 0.880989 0.726307 0.985522 0.18167
C_ C_ 0.754455 0.723671 0.860304 0.18167
C_ C_ 0.72803 0.746855 0.817446 -0.15533
C_ C_ 0.754515 0.748677 0.774424 0.02923
C_ C_ 0.805161 0.723939 0.77162 -0.15533
C_ C_ 0.828677 0.700102 0.814271 0.18167
C_ C_ 0.753926 0.631498 0.953578 0.69207
C_ C_ 0.723312 0.617779 0.488577 0.02923
C_ C_ 0.743491 0.616726 0.539789 -0.15533
C_ C_ 0.711492 0.612085 0.578193 -0.15533
C_ C_ 0.660257 0.600266 0.566708 0.02923
C_ C_ 0.64478 0.587675 0.514552 -0.15533
C_ C_ 0.674627 0.601762 0.474588 0.02923
C_ C_ 0.642464 0.613275 0.929007 0.69207
C_ C_ 0.643356 0.605448 0.662596 0.69661
C_ C_ 0.88021 0.883473 0.879564 -0.30787
C_ C_ 0.620057 0.607738 0.604963 -0.30787
N_ N_ 0.641889 0.554608 0.818461 -0.32189
N_ N_ 0.547288 0.636236 0.82079 -0.32189
N_ N_ 0.599513 0.818353 0.555134 -0.32189
N_ N_ 0.691325 0.817713 0.638552 -0.32189
N_ N_ 0.856393 0.947055 0.682763 -0.32189
N_ N_ 0.935419 0.856051 0.675604 -0.32189
N_ N_ 0.884111 0.699623 0.940202 -0.32189
N_ N_ 0.800806 0.696729 0.856744 -0.32189
O_ O_ 1.00664 0.592855 0.89858 -0.63271
O_ O_ 0.542034 0.529807 0.848911 -0.57982
O_ O_ 0.894527 0.595212 0.837929 -0.63271
O_ O_ 0.867113 0.592754 0.913878 -0.57982
O_ O_ 0.737982 0.898918 0.579433 -0.63271
O_ O_ 0.699009 0.841016 0.529041 -0.57982
O_ O_ 0.855757 0.847947 0.587263 -0.63271
O_ O_ 0.870065 0.927433 0.581448 -0.57982
O_ O_ 0.495829 0.904679 0.602448 -0.63271
O_ O_ 0.945161 0.962226 0.640104 -0.57982
O_ O_ 0.595048 0.896626 0.63889 -0.63271
O_ O_ 0.633161 0.913296 0.569949 -0.57982
O_ O_ 0.74978 0.604811 0.909808 -0.63271
O_ O_ 0.789783 0.660945 0.960307 -0.57982
O_ O_ 0.637565 0.653922 0.902867 -0.63271
O_ O_ 0.608527 0.580881 0.915819 -0.57982
F_ F_ 0.943314 0.826345 0.927289 -0.20885
F_ F_ 0.92817 0.802513 0.843378 -0.20885
F_ F_ 0.877164 0.790141 0.890152 -0.20885
F_ F_ 0.81841 0.919513 0.812937 -0.20885
F_ F_ 0.839388 0.834425 0.79949 -0.20885
F_ F_ 0.891504 0.892347 0.786823 -0.20885
F_ F_ 0.569399 0.670039 0.55386 -0.20885
F_ F_ 0.561908 0.683025 0.635925 -0.20885
F_ F_ 0.632453 0.697009 0.603449 -0.20885
F_ F_ 0.683275 0.569497 0.669872 -0.20885
F_ F_ 0.667309 0.64965 0.682402 -0.20885
F_ F_ 0.608675 0.597899 0.697414 -0.20885
