_cell_length_a 26.508
_cell_length_b 26.37200000322088
_cell_length_c 26.311999743092066
_cell_angle_alpha 93.74100058972084
_cell_angle_beta 96.04100104955006
_cell_angle_gamma 83.6869992558723
_symmetry_space_group_name_H-M         'P 1'
_symmetry_Int_Tables_number            1
loop_
_symmetry_equiv_pos_as_xyz
   'x, y, z'
                         
loop_
_atom_site_label
_atom_site_type_symbol
_atom_site_fract_x 
_atom_site_fract_y
_atom_site_fract_z
_atom_site_charge
Zn Zn 0.0840746 0.0878822 0.339198 0.83971
Zn Zn 0.154242 0.350683 0.0808771 0.83971
Zn Zn 0.402851 0.427066 0.153547 0.83971
Zn Zn 0.333894 0.162672 0.417907 0.83971
H_ H_ 0.174184 0.139055 0.307735 0.10394
H_ H_ 0.247739 0.107102 0.264754 0.10394
H_ H_ 0.204018 0.445522 0.287904 0.10394
H_ H_ 0.128562 0.985553 0.3082 0.10394
H_ H_ 0.529387 0.115112 0.244414 0.10394
H_ H_ 0.477544 0.189017 0.207769 0.10394
H_ H_ 0.0243198 0.273998 0.317049 0.10394
H_ H_ 0.0730843 0.2041 0.364607 0.10394
H_ H_ 0.0361769 0.437685 0.369719 0.10394
H_ H_ 0.481159 0.378806 0.373658 0.10394
H_ H_ 0.354965 0.487882 0.410002 0.10394
H_ H_ 0.0681274 0.316345 0.129775 0.10394
H_ H_ 0.497711 0.267663 0.0958636 0.10394
H_ H_ 0.030021 0.293415 0.445023 0.10394
H_ H_ 0.106777 0.329083 0.977629 0.10394
H_ H_ 0.209742 0.250362 0.0855312 0.10394
H_ H_ 0.257944 0.201333 0.157163 0.10394
H_ H_ 0.210385 0.327111 0.26062 0.10394
H_ H_ 0.188219 0.381811 0.186394 0.10394
H_ H_ 0.221234 0.366345 0.439569 0.10394
H_ H_ 0.270692 0.378165 0.372221 0.10394
H_ H_ 0.396309 0.406929 0.484743 0.10394
H_ H_ 0.302012 0.414464 0.151889 0.10394
H_ H_ 0.228936 0.453933 0.190599 0.10394
H_ H_ 0.339339 0.0358906 0.29246 0.10394
H_ H_ 0.397889 0.510527 0.236674 0.10394
H_ H_ 0.0178078 0.385296 0.194324 0.10394
H_ H_ 0.052775 0.307895 0.235514 0.10394
H_ H_ 0.399691 0.265514 0.235775 0.10394
H_ H_ 0.370367 0.334388 0.180909 0.10394
H_ H_ 0.466453 0.0561059 0.131192 0.10394
H_ H_ 0.00173283 0.109221 0.0895437 0.10394
H_ H_ 0.143676 0.00412506 0.0850241 0.10394
H_ H_ 0.440167 0.16496 0.397594 0.10394
H_ H_ 0.0141418 0.191205 0.442546 0.10394
H_ H_ 0.410093 0.283839 0.037296 0.10394
H_ H_ 0.340822 0.246961 0.492836 0.10394
H_ H_ 0.230135 0.198721 0.372019 0.10394
H_ H_ 0.196271 0.242271 0.297853 0.10394
H_ H_ 0.340413 0.211611 0.235892 0.10394
H_ H_ 0.375445 0.190993 0.318368 0.10394
H_ H_ 0.281113 0.119379 0.0607209 0.10394
H_ H_ 0.222853 0.099811 0.119331 0.10394
H_ H_ 0.102188 0.082226 -0.0020280000000000298 0.10394
C_ C_ 0.180029 0.0968668 0.302041 0.18167
C_ C_ 0.224026 0.0797433 0.278969 -0.15533
C_ C_ 0.234119 0.0266148 0.266424 0.02923
C_ C_ 0.196432 0.486044 0.293603 -0.15533
C_ C_ 0.152173 0.0124062 0.295432 0.18167
C_ C_ 0.0268267 0.135609 0.262007 0.18167
C_ C_ 0.500448 0.192602 0.245443 -0.15533
C_ C_ 0.00465882 0.22506 0.250556 0.02923
C_ C_ 0.024972 0.235254 0.300585 -0.15533
C_ C_ 0.0501922 0.194399 0.328441 0.18167
C_ C_ 0.00756837 0.0493483 0.358903 0.69207
C_ C_ 0.474756 0.505433 0.382514 0.02923
C_ C_ 0.493713 0.454498 0.378108 -0.15533
C_ C_ 0.462068 0.417038 0.375663 -0.15533
C_ C_ 0.409746 0.426115 0.382844 0.02923
C_ C_ 0.391879 0.477044 0.39665 -0.15533
C_ C_ 0.42427 0.517485 0.395866 0.02923
C_ C_ 0.38598 0.0763249 0.389777 0.69207
C_ C_ 0.402467 0.328355 0.386624 0.69661
C_ C_ 0.0614662 0.307501 0.088107 0.18167
C_ C_ 0.019871 0.282575 0.0695895 -0.15533
C_ C_ 0.00730662 0.275762 0.0165123 0.02923
C_ C_ 0.0431818 0.287851 0.486733 -0.15533
C_ C_ 0.0824668 0.315381 0.00430705 0.18167
C_ C_ 0.210686 0.267341 0.125887 0.18167
C_ C_ 0.240217 0.241844 0.164549 -0.15533
C_ C_ 0.242267 0.263874 0.21548 0.02923
C_ C_ 0.218485 0.312824 0.223078 -0.15533
C_ C_ 0.192603 0.339939 0.182258 0.18167
C_ C_ 0.239554 0.364106 0.0429648 0.69207
C_ C_ 0.27265 0.382717 0.500467 0.02923
C_ C_ 0.257593 0.375396 0.449197 -0.15533
C_ C_ 0.287528 0.380752 0.412106 -0.15533
C_ C_ 0.338259 0.390214 0.424207 0.02923
C_ C_ 0.357813 0.397725 0.476191 -0.15533
C_ C_ 0.325485 0.391348 0.514135 0.02923
C_ C_ 0.350392 0.392761 0.0649478 0.69207
C_ C_ 0.35098 0.385576 0.323939 0.69661
C_ C_ 0.305558 0.446398 0.176853 0.18167
C_ C_ 0.265384 0.463473 0.206035 -0.15533
C_ C_ 0.273346 0.496176 0.248594 0.02923
C_ C_ 0.329952 0.0195655 0.253845 -0.15533
C_ C_ 0.360001 0.49917 0.22847 0.18167
C_ C_ 0.488291 0.361012 0.198244 0.18167
C_ C_ 0.0161451 0.308732 0.218288 -0.15533
C_ C_ 0.47863 0.286423 0.242471 0.02923
C_ C_ 0.425971 0.29395 0.229391 -0.15533
C_ C_ 0.406732 0.335713 0.202083 0.18167
C_ C_ 0.479474 0.467467 0.121276 0.69207
C_ C_ 0.0247411 0.985341 0.116659 0.02923
C_ C_ -0.000143672 0.0365707 0.112784 -0.15533
C_ C_ 0.0262507 0.0730349 0.097012 -0.15533
C_ C_ 0.0800999 0.0641187 0.0914001 0.02923
C_ C_ 0.104458 0.011875 0.0911373 -0.15533
C_ C_ 0.0748119 0.972717 0.101485 0.02923
C_ C_ 0.0960865 0.427858 0.110057 0.69207
C_ C_ 0.0890803 0.162625 0.0906655 0.69661
C_ C_ 0.433791 0.186336 0.432675 0.18167
C_ C_ 0.477645 0.201721 0.464204 -0.15533
C_ C_ 0.469668 0.240553 0.504246 0.02923
C_ C_ 0.418567 0.257422 0.00827 -0.15533
C_ C_ 0.378812 0.23625 0.486465 0.18167
C_ C_ 0.255049 0.205668 0.344678 0.18167
C_ C_ 0.234123 0.229383 0.29983 -0.15533
C_ C_ 0.263553 0.230397 0.258813 0.02923
C_ C_ 0.315011 0.211852 0.267695 -0.15533
C_ C_ 0.33547 0.195025 0.312787 0.18167
C_ C_ 0.251834 0.130842 0.448896 0.69207
C_ C_ 0.224326 0.118681 0.994009 0.02923
C_ C_ 0.241299 0.120052 0.0468996 -0.15533
C_ C_ 0.2095 0.103223 0.0795618 -0.15533
C_ C_ 0.158156 0.0983555 0.0627974 0.02923
C_ C_ 0.143436 0.0914372 0.0109681 -0.15533
C_ C_ 0.172552 0.108112 0.976543 0.02923
C_ C_ 0.140236 0.119871 0.421364 0.69207
C_ C_ 0.132881 0.10959 0.158077 0.69661
C_ C_ 0.375915 0.382381 0.3799 -0.30787
C_ C_ 0.114016 0.107555 0.100263 -0.30787
N_ N_ 0.144167 0.0650593 0.307162 -0.32189
N_ N_ 0.0528041 0.147219 0.306964 -0.32189
N_ N_ 0.0952369 0.318758 0.0555392 -0.32189
N_ N_ 0.184859 0.315672 0.134946 -0.32189
N_ N_ 0.352891 0.460467 0.191718 -0.32189
N_ N_ 0.437153 0.368757 0.187306 -0.32189
N_ N_ 0.387367 0.199658 0.447741 -0.32189
N_ N_ 0.304924 0.189198 0.351251 -0.32189
O_ O_ 0.50148 0.0941211 0.396501 -0.63271
O_ O_ 0.0471595 0.0368431 0.335633 -0.57982
O_ O_ 0.38922 0.103785 0.350603 -0.63271
O_ O_ 0.365324 0.0983432 0.428145 -0.57982
O_ O_ 0.242783 0.387495 0.0882838 -0.63271
O_ O_ 0.200109 0.33986 0.0289285 -0.57982
O_ O_ 0.353336 0.349482 0.0883902 -0.63271
O_ O_ 0.365423 0.434325 0.0898159 -0.57982
O_ O_ 0.99116 0.410528 0.0990842 -0.63271
O_ O_ 0.447094 0.473794 0.15669 -0.57982
O_ O_ 0.103298 0.403546 0.151027 -0.63271
O_ O_ 0.131631 0.41524 0.0784722 -0.57982
O_ O_ 0.253392 0.103094 0.405184 -0.63271
O_ O_ 0.283381 0.165304 0.460713 -0.57982
O_ O_ 0.149058 0.159106 0.396073 -0.63271
O_ O_ 0.101545 0.0939778 0.406789 -0.57982
F_ F_ 0.433592 0.327488 0.429278 -0.20885
F_ F_ 0.430176 0.311997 0.344532 -0.20885
F_ F_ 0.367713 0.291359 0.38986 -0.20885
F_ F_ 0.318827 0.429503 0.322998 -0.20885
F_ F_ 0.323649 0.343797 0.304482 -0.20885
F_ F_ 0.381462 0.390394 0.285543 -0.20885
F_ F_ 0.0650558 0.170007 0.0418393 -0.20885
F_ F_ 0.0521216 0.176178 0.123084 -0.20885
F_ F_ 0.126444 0.19723 0.0982618 -0.20885
F_ F_ 0.165024 0.0676588 0.172253 -0.20885
F_ F_ 0.160042 0.148631 0.176376 -0.20885
F_ F_ 0.0918845 0.112831 0.188565 -0.20885
Zn Zn 0.0905192 0.0823249 0.841892 0.83971
Zn Zn 0.161091 0.338552 0.57615 0.83971
Zn Zn 0.408479 0.409237 0.649512 0.83971
Zn Zn 0.339617 0.15397 0.913584 0.83971
H_ H_ 0.166027 0.130334 0.793529 0.10394
H_ H_ 0.25171 0.0993403 0.76619 0.10394
H_ H_ 0.207556 0.446931 0.782415 0.10394
H_ H_ 0.142228 0.980047 0.830078 0.10394
H_ H_ 0.539754 0.0973048 0.748308 0.10394
H_ H_ 0.488259 0.163559 0.703626 0.10394
H_ H_ 0.0303335 0.26886 0.824216 0.10394
H_ H_ 0.0741886 0.194801 0.871986 0.10394
H_ H_ 0.0197008 0.449659 0.849705 0.10394
H_ H_ 0.474755 0.373546 0.860843 0.10394
H_ H_ 0.357518 0.486592 0.908177 0.10394
H_ H_ 0.0791673 0.301083 0.629983 0.10394
H_ H_ 0.51392 0.255711 0.60264 0.10394
H_ H_ 0.0252009 0.294414 0.944045 0.10394
H_ H_ 0.117001 0.313415 0.477767 0.10394
H_ H_ 0.226694 0.240737 0.591057 0.10394
H_ H_ 0.268705 0.203774 0.664379 0.10394
H_ H_ 0.216594 0.333067 0.761732 0.10394
H_ H_ 0.188287 0.375463 0.677496 0.10394
H_ H_ 0.208069 0.380126 0.94143 0.10394
H_ H_ 0.260499 0.401463 0.876212 0.10394
H_ H_ 0.39117 0.406672 0.983375 0.10394
H_ H_ 0.306054 0.393849 0.658903 0.10394
H_ H_ 0.235441 0.446249 0.693118 0.10394
H_ H_ 0.333253 0.0497627 0.771608 0.10394
H_ H_ 0.411041 0.495199 0.72901 0.10394
H_ H_ 0.00850168 0.38698 0.713496 0.10394
H_ H_ 0.0555699 0.30892 0.74451 0.10394
H_ H_ 0.416278 0.243426 0.72593 0.10394
H_ H_ 0.370389 0.327252 0.69818 0.10394
H_ H_ 0.455937 0.0443225 0.611535 0.10394
H_ H_ 0.00861388 0.114992 0.616217 0.10394
H_ H_ 0.136732 0.00400558 0.592999 0.10394
H_ H_ 0.439231 0.167644 0.887658 0.10394
H_ H_ 0.00968803 0.192874 0.943483 0.10394
H_ H_ 0.412628 0.276153 0.553274 0.10394
H_ H_ 0.342907 0.237655 -0.004766000000000048 0.10394
H_ H_ 0.226783 0.198821 0.878864 0.10394
H_ H_ 0.191236 0.233918 0.791315 0.10394
H_ H_ 0.340853 0.221466 0.747422 0.10394
H_ H_ 0.375561 0.175538 0.824178 0.10394
H_ H_ 0.273247 0.11943 0.548201 0.10394
H_ H_ 0.227622 0.0944599 0.607801 0.10394
H_ H_ 0.0915403 0.110786 0.500351 0.10394
C_ C_ 0.182837 0.0920815 0.799301 0.18167
C_ C_ 0.226246 0.0739327 0.778436 -0.15533
C_ C_ 0.236004 0.0206791 0.768389 0.02923
C_ C_ 0.198371 0.486394 0.781627 -0.15533
C_ C_ 0.164016 0.00834407 0.811165 0.18167
C_ C_ 0.0319977 0.130598 0.766406 0.18167
C_ C_ 0.505893 0.173233 0.742496 -0.15533
C_ C_ 0.00984401 0.221221 0.756537 0.02923
C_ C_ 0.033752 0.230341 0.804063 -0.15533
C_ C_ 0.0561674 0.187943 0.833425 0.18167
C_ C_ 0.0093823 0.044323 0.861512 0.69207
C_ C_ 0.468758 0.505713 0.860773 0.02923
C_ C_ 0.489213 0.451858 0.858528 -0.15533
C_ C_ 0.456544 0.413833 0.863696 -0.15533
C_ C_ 0.40915 0.426674 0.884071 0.02923
C_ C_ 0.393628 0.478064 0.894518 -0.15533
C_ C_ 0.420192 0.51794 0.880734 0.02923
C_ C_ 0.3971 0.0689688 0.877033 0.69207
C_ C_ 0.391456 0.33325 0.883968 0.69661
C_ C_ 0.069924 0.298304 0.589324 0.18167
C_ C_ 0.0217662 0.284787 0.571044 -0.15533
C_ C_ 0.0108295 0.27435 0.518828 0.02923
C_ C_ 0.0361081 0.298231 0.984103 -0.15533
C_ C_ 0.0913326 0.301503 0.504476 0.18167
C_ C_ 0.225387 0.260901 0.628716 0.18167
C_ C_ 0.244696 0.236141 0.67086 -0.15533
C_ C_ 0.244766 0.261559 0.72 0.02923
C_ C_ 0.216146 0.311437 0.723197 -0.15533
C_ C_ 0.20059 0.335769 0.678866 0.18167
C_ C_ 0.238995 0.371043 0.538663 0.69207
C_ C_ 0.271 0.384403 0.00412806 0.02923
C_ C_ 0.249145 0.38484 0.951536 -0.15533
C_ C_ 0.27821 0.396322 0.913177 -0.15533
C_ C_ 0.331349 0.398698 0.923608 0.02923
C_ C_ 0.352614 0.400916 0.975655 -0.15533
C_ C_ 0.322607 0.398635 0.0149821 0.02923
C_ C_ 0.348168 0.390504 0.566339 0.69207
C_ C_ 0.338589 0.391512 0.82588 0.69661
C_ C_ 0.31091 0.430696 0.67827 0.18167
C_ C_ 0.27205 0.454004 0.706393 -0.15533
C_ C_ 0.278988 0.495005 0.740324 0.02923
C_ C_ 0.327593 0.0143526 0.74713 -0.15533
C_ C_ 0.369825 0.482452 0.724468 0.18167
C_ C_ 0.490081 0.350423 0.695457 0.18167
C_ C_ 0.0166118 0.307786 0.725229 -0.15533
C_ C_ 0.488822 0.266878 0.725881 0.02923
C_ C_ 0.436616 0.271403 0.711343 -0.15533
C_ C_ 0.411296 0.31744 0.693356 0.18167
C_ C_ 0.491287 0.448828 0.61881 0.69207
C_ C_ 0.0154415 0.988744 0.618136 0.02923
C_ C_ -0.00404199999999999 0.0385941 0.620487 -0.15533
C_ C_ 0.0252461 0.0771701 0.612928 -0.15533
C_ C_ 0.0760654 0.0659535 0.598047 0.02923
C_ C_ 0.0955966 0.0151899 0.595165 -0.15533
C_ C_ 0.0645449 0.973336 0.600737 0.02923
C_ C_ 0.103959 0.41785 0.606674 0.69207
C_ C_ 0.0940893 0.159926 0.611774 0.69661
C_ C_ 0.436241 0.188749 0.924713 0.18167
C_ C_ 0.475845 0.211973 0.952443 -0.15533
C_ C_ 0.467179 0.247572 0.991107 0.02923
C_ C_ 0.42113 0.255551 0.517022 -0.15533
C_ C_ 0.379328 0.234069 0.978788 0.18167
C_ C_ 0.250803 0.201767 0.847324 0.18167
C_ C_ 0.229317 0.222536 0.801402 -0.15533
C_ C_ 0.264087 0.231947 0.767621 0.02923
C_ C_ 0.315404 0.210253 0.771259 -0.15533
C_ C_ 0.336002 0.191936 0.818452 0.18167
C_ C_ 0.262526 0.121231 0.955878 0.69207
C_ C_ 0.215556 0.121943 0.485088 0.02923
C_ C_ 0.235773 0.118234 0.537321 -0.15533
C_ C_ 0.206593 0.106807 0.573743 -0.15533
C_ C_ 0.152281 0.0993971 0.562952 0.02923
C_ C_ 0.132011 0.105045 0.51125 -0.15533
C_ C_ 0.163173 0.115382 0.473452 0.02923
C_ C_ 0.152488 0.105852 0.92159 0.69207
C_ C_ 0.144575 0.0973998 0.662422 0.69661
C_ C_ 0.368175 0.387913 0.880888 -0.30787
C_ C_ 0.116751 0.104372 0.606718 -0.30787
N_ N_ 0.151073 0.0585055 0.81133 -0.32189
N_ N_ 0.0603618 0.140521 0.810083 -0.32189
N_ N_ 0.104365 0.305232 0.555423 -0.32189
N_ N_ 0.201177 0.309295 0.633262 -0.32189
N_ N_ 0.35882 0.445039 0.688319 -0.32189
N_ N_ 0.438856 0.353646 0.680674 -0.32189
N_ N_ 0.388452 0.198066 0.940362 -0.32189
N_ N_ 0.302377 0.183885 0.853167 -0.32189
O_ O_ 0.507832 0.0925563 0.892517 -0.63271
O_ O_ 0.0432675 0.0368156 0.828382 -0.57982
O_ O_ 0.394703 0.0929444 0.835375 -0.63271
O_ O_ 0.373196 0.0891511 0.916207 -0.57982
O_ O_ 0.241089 0.395585 0.583826 -0.63271
O_ O_ 0.206569 0.337584 0.527396 -0.57982
O_ O_ 0.348987 0.346157 0.590135 -0.63271
O_ O_ 0.382431 0.42041 0.583577 -0.57982
O_ O_ 0.996702 0.40352 0.607633 -0.63271
O_ O_ 0.458373 0.454031 0.653516 -0.57982
O_ O_ 0.102789 0.388911 0.644877 -0.63271
O_ O_ 0.136941 0.403169 0.5733 -0.57982
O_ O_ 0.258798 0.0955956 0.91237 -0.63271
O_ O_ 0.295775 0.155106 0.962648 -0.57982
O_ O_ 0.151023 0.147731 0.897847 -0.63271
O_ O_ 0.121058 0.072832 0.903498 -0.57982
F_ F_ 0.428816 0.329361 0.923855 -0.20885
F_ F_ 0.414175 0.311229 0.841091 -0.20885
F_ F_ 0.359544 0.296897 0.890012 -0.20885
F_ F_ 0.31167 0.438553 0.819764 -0.20885
F_ F_ 0.303271 0.355087 0.815339 -0.20885
F_ F_ 0.373718 0.383791 0.789358 -0.20885
F_ F_ 0.0557816 0.169989 0.573121 -0.20885
F_ F_ 0.0701208 0.17454 0.655365 -0.20885
F_ F_ 0.128907 0.194776 0.606266 -0.20885
F_ F_ 0.178256 0.0535857 0.667311 -0.20885
F_ F_ 0.173369 0.137095 0.679367 -0.20885
F_ F_ 0.112146 0.0982255 0.70239 -0.20885
Zn Zn 0.0898582 0.582473 0.357504 0.83971
Zn Zn 0.166042 0.843713 0.0816676 0.83971
Zn Zn 0.414138 0.916865 0.153675 0.83971
Zn Zn 0.344002 0.653105 0.417774 0.83971
H_ H_ 0.157673 0.630087 0.298124 0.10394
H_ H_ 0.238642 0.596493 0.2715 0.10394
H_ H_ 0.20903 0.952202 0.272099 0.10394
H_ H_ 0.128231 0.477438 0.323245 0.10394
H_ H_ 0.515287 0.594664 0.267064 0.10394
H_ H_ 0.469616 0.66631 0.219298 0.10394
H_ H_ 0.0319178 0.766018 0.340917 0.10394
H_ H_ 0.0691294 0.691049 0.3871 0.10394
H_ H_ 0.0412268 0.954686 0.384209 0.10394
H_ H_ 0.480487 0.890787 0.398129 0.10394
H_ H_ 0.345009 0.989301 0.408624 0.10394
H_ H_ 0.0885924 0.811308 0.129463 0.10394
H_ H_ 0.496688 0.783089 0.0989601 0.10394
H_ H_ 0.044486 0.765107 0.451714 0.10394
H_ H_ 0.123244 0.810379 0.977579 0.10394
H_ H_ 0.226247 0.751483 0.103163 0.10394
H_ H_ 0.256659 0.701712 0.178381 0.10394
H_ H_ 0.236756 0.846612 0.266121 0.10394
H_ H_ 0.194414 0.887043 0.186593 0.10394
H_ H_ 0.209195 0.891193 0.452538 0.10394
H_ H_ 0.257979 0.896229 0.386697 0.10394
H_ H_ 0.387951 0.9081 0.491289 0.10394
H_ H_ 0.302481 0.909776 0.153674 0.10394
H_ H_ 0.233727 0.959327 0.187216 0.10394
H_ H_ 0.326986 0.548075 0.286831 0.10394
H_ H_ 0.407198 -0.00845498 0.246856 0.10394
H_ H_ 0.0171738 0.875851 0.200985 0.10394
H_ H_ 0.0588252 0.800653 0.240536 0.10394
H_ H_ 0.402623 0.759096 0.243832 0.10394
H_ H_ 0.372507 0.847975 0.214486 0.10394
H_ H_ 0.458906 0.570798 0.116238 0.10394
H_ H_ 0.0128781 0.622557 0.0981024 0.10394
H_ H_ 0.143648 0.507969 0.107978 0.10394
H_ H_ 0.440184 0.669389 0.381177 0.10394
H_ H_ 0.0202326 0.676199 0.469297 0.10394
H_ H_ 0.414413 0.79389 0.0310795 0.10394
H_ H_ 0.353624 0.721545 0.504159 0.10394
H_ H_ 0.234015 0.712483 0.386756 0.10394
H_ H_ 0.195791 0.747407 0.308302 0.10394
H_ H_ 0.337481 0.716804 0.248495 0.10394
H_ H_ 0.370507 0.671884 0.318625 0.10394
H_ H_ 0.290962 0.608033 0.0530862 0.10394
H_ H_ 0.238603 0.600096 0.120665 0.10394
H_ H_ 0.108219 0.584791 0.00440992 0.10394
C_ C_ 0.168081 0.588804 0.296686 0.18167
C_ C_ 0.216508 0.570327 0.284026 -0.15533
C_ C_ 0.228676 0.517395 0.277714 0.02923
C_ C_ 0.200634 0.99106 0.279518 -0.15533
C_ C_ 0.148855 0.504761 0.30672 0.18167
C_ C_ 0.0370436 0.631937 0.276173 0.18167
C_ C_ 0.494942 0.67387 0.251365 -0.15533
C_ C_ 0.0117089 0.720363 0.270227 0.02923
C_ C_ 0.0294574 0.728261 0.322985 -0.15533
C_ C_ 0.0514926 0.684944 0.350781 0.18167
C_ C_ 0.0131844 0.539804 0.375868 0.69207
C_ C_ 0.46255 0.0142861 0.376873 0.02923
C_ C_ 0.485036 0.964322 0.375826 -0.15533
C_ C_ 0.459793 0.924646 0.390495 -0.15533
C_ C_ 0.406357 0.93221 0.39768 0.02923
C_ C_ 0.385095 0.982392 0.401282 -0.15533
C_ C_ 0.411764 0.024347 0.389975 0.02923
C_ C_ 0.396972 0.569903 0.395961 0.69207
C_ C_ 0.396747 0.837023 0.392853 0.69661
C_ C_ 0.0765784 0.801164 0.0891132 0.18167
C_ C_ 0.0295487 0.782114 0.0692062 -0.15533
C_ C_ 0.0172935 0.771878 0.0167371 0.02923
C_ C_ 0.0513219 0.777348 0.49262 -0.15533
C_ C_ 0.100059 0.801251 0.00436912 0.18167
C_ C_ 0.217605 0.767811 0.139107 0.18167
C_ C_ 0.240318 0.742244 0.182517 -0.15533
C_ C_ 0.242026 0.769498 0.229111 0.02923
C_ C_ 0.224232 0.822691 0.231022 -0.15533
C_ C_ 0.204409 0.845256 0.186306 0.18167
C_ C_ 0.247475 0.857487 0.0443954 0.69207
C_ C_ 0.270519 0.883588 0.511994 0.02923
C_ C_ 0.24915 0.882537 0.461613 -0.15533
C_ C_ 0.279969 0.889121 0.422498 -0.15533
C_ C_ 0.330837 0.894434 0.433086 0.02923
C_ C_ 0.350908 0.898659 0.484872 -0.15533
C_ C_ 0.323131 0.888399 0.523395 0.02923
C_ C_ 0.355503 0.884115 0.0719921 0.69207
C_ C_ 0.340814 0.896092 0.334706 0.69661
C_ C_ 0.310936 0.942446 0.173704 0.18167
C_ C_ 0.271067 0.971071 0.196078 -0.15533
C_ C_ 0.279099 1.0077055 0.236945 0.02923
C_ C_ 0.32084 0.5181 0.257402 -0.15533
C_ C_ 0.368952 0.989567 0.230908 0.18167
C_ C_ 0.493881 0.842434 0.190654 0.18167
C_ C_ 0.0179233 0.804495 0.229972 -0.15533
C_ C_ 0.480253 0.76941 0.236265 0.02923
C_ C_ 0.428117 0.783105 0.227507 -0.15533
C_ C_ 0.411365 0.829672 0.20925 0.18167
C_ C_ 0.496934 0.954437 0.124976 0.69207
C_ C_ 0.0202186 0.494742 0.108363 0.02923
C_ C_ 0.000757109 0.544994 0.106325 -0.15533
C_ C_ 0.0313269 0.584706 0.0989215 -0.15533
C_ C_ 0.0855974 0.571591 0.101377 0.02923
C_ C_ 0.104674 0.518859 0.107528 -0.15533
C_ C_ 0.0736423 0.482125 0.113493 0.02923
C_ C_ 0.0988491 0.91983 0.1045 0.69207
C_ C_ 0.106899 0.667895 0.0972241 0.69661
C_ C_ 0.439152 0.687261 0.419713 0.18167
C_ C_ 0.480341 0.708491 0.441781 -0.15533
C_ C_ 0.47712 0.740529 0.488697 0.02923
C_ C_ 0.425146 0.754858 0.0109638 -0.15533
C_ C_ 0.388097 0.725412 0.483787 0.18167
C_ C_ 0.256233 0.709223 0.35659 0.18167
C_ C_ 0.234488 0.73384 0.312978 -0.15533
C_ C_ 0.265682 0.742202 0.275065 0.02923
C_ C_ 0.314466 0.717332 0.277461 -0.15533
C_ C_ 0.334462 0.693581 0.321778 0.18167
C_ C_ 0.266137 0.624844 0.452871 0.69207
C_ C_ 0.230826 0.6045 0.991394 0.02923
C_ C_ 0.251879 0.598185 0.0429809 -0.15533
C_ C_ 0.219843 0.595163 0.0808853 -0.15533
C_ C_ 0.165145 0.597569 0.0685772 0.02923
C_ C_ 0.14749 0.592754 0.0161613 -0.15533
C_ C_ 0.17859 0.605186 0.979344 0.02923
C_ C_ 0.159879 0.598204 0.426613 0.69207
C_ C_ 0.147498 0.615076 0.162096 0.69661
C_ C_ 0.369003 0.891437 0.39044 -0.30787
C_ C_ 0.125593 0.611259 0.106987 -0.30787
N_ N_ 0.13484 0.556945 0.310428 -0.32189
N_ N_ 0.0553576 0.638914 0.32543 -0.32189
N_ N_ 0.110201 0.810279 0.0559422 -0.32189
N_ N_ 0.195573 0.816691 0.142223 -0.32189
N_ N_ 0.360821 0.952475 0.192165 -0.32189
N_ N_ 0.443396 0.857077 0.186137 -0.32189
N_ N_ 0.395889 0.690521 0.443261 -0.32189
N_ N_ 0.305947 0.690047 0.361566 -0.32189
O_ O_ 0.502636 0.591506 0.400831 -0.63271
O_ O_ 0.0454943 0.535039 0.341701 -0.57982
O_ O_ 0.393864 0.596697 0.354297 -0.63271
O_ O_ 0.376801 0.590574 0.434678 -0.57982
O_ O_ 0.245707 0.885769 0.0877103 -0.63271
O_ O_ 0.209866 0.828196 0.0309851 -0.57982
O_ O_ 0.35366 0.846709 0.102372 -0.63271
O_ O_ 0.391388 0.913431 0.0848416 -0.57982
O_ O_ 0.989817 0.901368 0.10502 -0.63271
O_ O_ 0.462551 0.960725 0.156297 -0.57982
O_ O_ 0.105241 0.898399 0.149897 -0.63271
O_ O_ 0.135121 0.905504 0.074163 -0.57982
O_ O_ 0.259837 0.604808 0.405772 -0.63271
O_ O_ 0.298921 0.658244 0.462785 -0.57982
O_ O_ 0.153287 0.637805 0.398082 -0.63271
O_ O_ 0.124968 0.566977 0.416642 -0.57982
F_ F_ 0.427902 0.830783 0.436964 -0.20885
F_ F_ 0.429044 0.824119 0.353591 -0.20885
F_ F_ 0.365982 0.797392 0.390147 -0.20885
F_ F_ 0.307903 0.940556 0.3262 -0.20885
F_ F_ 0.312378 0.855939 0.320464 -0.20885
F_ F_ 0.378857 0.894757 0.301664 -0.20885
F_ F_ 0.0720239 0.669673 0.0571439 -0.20885
F_ F_ 0.090677 0.701427 0.134141 -0.20885
F_ F_ 0.143871 0.694419 0.0833849 -0.20885
F_ F_ 0.174208 0.568904 0.176541 -0.20885
F_ F_ 0.18068 0.649461 0.176571 -0.20885
F_ F_ 0.107681 0.625062 0.194895 -0.20885
Zn Zn 0.0910469 0.585046 0.849869 0.83971
Zn Zn 0.158213 0.848391 0.591632 0.83971
Zn Zn 0.408066 0.907044 0.658019 0.83971
Zn Zn 0.342717 0.65052 0.921981 0.83971
H_ H_ 0.178205 0.628852 0.81718 0.10394
H_ H_ 0.248104 0.595844 0.766801 0.10394
H_ H_ 0.205503 0.948174 0.769948 0.10394
H_ H_ 0.129556 0.481717 0.813848 0.10394
H_ H_ 0.54747 0.599843 0.752749 0.10394
H_ H_ 0.4948 0.669036 0.711736 0.10394
H_ H_ 0.0388264 0.774929 0.832223 0.10394
H_ H_ 0.0710505 0.699842 0.886205 0.10394
H_ H_ 0.0350626 0.947223 0.859144 0.10394
H_ H_ 0.48843 0.87856 0.882522 0.10394
H_ H_ 0.355012 0.987252 0.900814 0.10394
H_ H_ 0.0835243 0.796302 0.639709 0.10394
H_ H_ 0.508494 0.752713 0.585795 0.10394
H_ H_ 0.048904 0.773258 0.942928 0.10394
H_ H_ 0.113641 0.822959 0.490414 0.10394
H_ H_ 0.210043 0.744691 0.611256 0.10394
H_ H_ 0.239554 0.703302 0.69048 0.10394
H_ H_ 0.215677 0.846144 0.778252 0.10394
H_ H_ 0.173987 0.880936 0.699302 0.10394
H_ H_ 0.221026 0.858568 0.941995 0.10394
H_ H_ 0.273385 0.879457 0.873807 0.10394
H_ H_ 0.397477 0.905417 0.988396 0.10394
H_ H_ 0.306885 0.88054 0.675611 0.10394
H_ H_ 0.232911 0.943052 0.690493 0.10394
H_ H_ 0.335085 0.544136 0.77378 0.10394
H_ H_ 0.405408 -0.003866999999999954 0.72951 0.10394
H_ H_ 0.018335 0.875424 0.689007 0.10394
H_ H_ 0.0654062 0.800802 0.725023 0.10394
H_ H_ 0.421737 0.737779 0.723533 0.10394
H_ H_ 0.377546 0.810465 0.684774 0.10394
H_ H_ 0.459124 0.547474 0.616438 0.10394
H_ H_ 0.0223287 0.613372 0.591631 0.10394
H_ H_ 0.152302 0.498669 0.599439 0.10394
H_ H_ 0.448801 0.616819 0.952814 0.10394
H_ H_ 0.0174796 0.690035 0.953496 0.10394
H_ H_ 0.423007 0.773823 0.544824 0.10394
H_ H_ 0.346809 0.747781 -0.013699000000000017 0.10394
H_ H_ 0.240306 0.696114 0.893669 0.10394
H_ H_ 0.201103 0.755631 0.828834 0.10394
H_ H_ 0.33945 0.734573 0.756979 0.10394
H_ H_ 0.380552 0.690369 0.828607 0.10394
H_ H_ 0.292896 0.62248 0.556623 0.10394
H_ H_ 0.234097 0.621769 0.622756 0.10394
H_ H_ 0.113304 0.583819 0.505942 0.10394
C_ C_ 0.181601 0.588598 0.804635 0.18167
C_ C_ 0.227175 0.568238 0.783052 -0.15533
C_ C_ 0.237418 0.516659 0.77266 0.02923
C_ C_ 0.202623 0.98832 0.782251 -0.15533
C_ C_ 0.153779 0.506508 0.800422 0.18167
C_ C_ 0.0339082 0.63627 0.777704 0.18167
C_ C_ 0.51768 0.678204 0.747736 -0.15533
C_ C_ 0.0188118 0.728458 0.767608 0.02923
C_ C_ 0.0350919 0.735483 0.818785 -0.15533
C_ C_ 0.0578755 0.694438 0.846316 0.18167
C_ C_ 0.00731873 0.5492 0.869351 0.69207
C_ C_ 0.477457 0.00706534 0.875373 0.02923
C_ C_ 0.496783 0.954456 0.872219 -0.15533
C_ C_ 0.467709 0.915964 0.878795 -0.15533
C_ C_ 0.414138 0.925635 0.884321 0.02923
C_ C_ 0.394044 0.978878 0.889355 -0.15533
C_ C_ 0.424873 0.0190608 0.882425 0.02923
C_ C_ 0.391846 0.567616 0.878871 0.69207
C_ C_ 0.403157 0.826793 0.885493 0.69661
C_ C_ 0.0757675 0.789205 0.598484 0.18167
C_ C_ 0.0317845 0.766103 0.581044 -0.15533
C_ C_ 0.0200327 0.760394 0.528194 0.02923
C_ C_ 0.0558662 0.779204 0.98447 -0.15533
C_ C_ 0.0915851 0.803829 0.513823 0.18167
C_ C_ 0.211217 0.768694 0.64865 0.18167
C_ C_ 0.228558 0.744342 0.693414 -0.15533
C_ C_ 0.235108 0.771317 0.740906 0.02923
C_ C_ 0.213993 0.822189 0.743195 -0.15533
C_ C_ 0.192449 0.844409 0.698294 0.18167
C_ C_ 0.233847 0.8728 0.552223 0.69207
C_ C_ 0.283411 0.866608 0.00459337 0.02923
C_ C_ 0.261201 0.868331 0.953049 -0.15533
C_ C_ 0.290796 0.881663 0.914791 -0.15533
C_ C_ 0.341176 0.891386 0.925196 0.02923
C_ C_ 0.361328 0.892425 0.977704 -0.15533
C_ C_ 0.333413 0.88144 0.0178146 0.02923
C_ C_ 0.348824 0.882171 0.575537 0.69207
C_ C_ 0.355052 0.888373 0.827708 0.69661
C_ C_ 0.311718 0.919283 0.695136 0.18167
C_ C_ 0.270575 0.95331 0.700161 -0.15533
C_ C_ 0.276879 0.998774 0.732893 0.02923
C_ C_ 0.326995 0.513501 0.746077 -0.15533
C_ C_ 0.366788 0.98412 0.724874 0.18167
C_ C_ 0.491166 0.85596 0.714663 0.18167
C_ C_ 0.0226199 0.80635 0.722057 -0.15533
C_ C_ 0.490529 0.770558 0.744173 0.02923
C_ C_ 0.441682 0.769516 0.721514 -0.15533
C_ C_ 0.416374 0.812058 0.700397 0.18167
C_ C_ 0.487494 0.945189 0.625233 0.69207
C_ C_ 0.0272123 0.485475 0.620323 0.02923
C_ C_ 1.00704524 0.536973 0.608586 -0.15533
C_ C_ 0.0392982 0.575342 0.59988 -0.15533
C_ C_ 0.0928704 0.562234 0.598775 0.02923
C_ C_ 0.111868 0.509562 0.600119 -0.15533
C_ C_ 0.0802341 0.471978 0.608576 0.02923
C_ C_ 0.0897027 0.920057 0.604434 0.69207
C_ C_ 0.103619 0.659482 0.606351 0.69661
C_ C_ 0.443164 0.65729 0.964047 0.18167
C_ C_ 0.485681 0.681827 0.986529 -0.15533
C_ C_ 0.476105 0.732543 0.00653583 0.02923
C_ C_ 0.429968 0.74615 0.510788 -0.15533
C_ C_ 0.385184 0.729281 0.985399 0.18167
C_ C_ 0.261316 0.70964 0.865353 0.18167
C_ C_ 0.237804 0.734964 0.822898 -0.15533
C_ C_ 0.263952 0.749281 0.785481 0.02923
C_ C_ 0.315741 0.728663 0.785871 -0.15533
C_ C_ 0.339324 0.701171 0.827256 0.18167
C_ C_ 0.264832 0.616936 0.954034 0.69207
C_ C_ 0.232579 0.616756 0.491969 0.02923
C_ C_ 0.252339 0.61985 0.544972 -0.15533
C_ C_ 0.220001 0.61481 0.583044 -0.15533
C_ C_ 0.17086 0.600503 0.570879 0.02923
C_ C_ 0.155118 0.589648 0.518198 -0.15533
C_ C_ 0.184305 0.600251 0.48007 0.02923
C_ C_ 0.154058 0.607176 0.928128 0.69207
C_ C_ 0.148615 0.599305 0.667557 0.69661
C_ C_ 0.378881 0.883582 0.881455 -0.30787
C_ C_ 0.12988 0.604711 0.610647 -0.30787
N_ N_ 0.143085 0.557719 0.807637 -0.32189
N_ N_ 0.0556756 0.645158 0.825233 -0.32189
N_ N_ 0.105846 0.806274 0.565503 -0.32189
N_ N_ 0.192493 0.818932 0.651671 -0.32189
N_ N_ 0.359319 0.93702 0.699982 -0.32189
N_ N_ 0.441485 0.8536 0.693181 -0.32189
N_ N_ 0.395786 0.68258 0.962457 -0.32189
N_ N_ 0.311469 0.690731 0.86708 -0.32189
O_ O_ 0.493999 0.591287 0.883507 -0.63271
O_ O_ 0.0464511 0.532607 0.846587 -0.57982
O_ O_ 0.376929 0.589729 0.836415 -0.63271
O_ O_ 0.372091 0.585733 0.920702 -0.57982
O_ O_ 0.24101 0.894541 0.598905 -0.63271
O_ O_ 0.19809 0.842266 0.540991 -0.57982
O_ O_ 0.348359 0.839749 0.599493 -0.63271
O_ O_ 0.381963 0.913169 0.594405 -0.57982
O_ O_ 0.985643 0.906253 0.601329 -0.63271
O_ O_ 0.452445 0.953737 0.654896 -0.57982
O_ O_ 0.0877581 0.894674 0.644141 -0.63271
O_ O_ 0.12625 0.905911 0.577463 -0.57982
O_ O_ 0.258175 0.597846 0.907779 -0.63271
O_ O_ 0.296895 0.652182 0.965864 -0.57982
O_ O_ 0.149463 0.650886 0.903944 -0.63271
O_ O_ 0.121434 0.573905 0.911527 -0.57982
F_ F_ 0.441427 0.824292 0.924078 -0.20885
F_ F_ 0.42614 0.806783 0.841669 -0.20885
F_ F_ 0.3697 0.793639 0.89896 -0.20885
F_ F_ 0.316871 0.929024 0.821936 -0.20885
F_ F_ 0.332511 0.846434 0.810472 -0.20885
F_ F_ 0.390645 0.891909 0.792702 -0.20885
F_ F_ 0.0744504 0.664069 0.559762 -0.20885
F_ F_ 0.0740013 0.676404 0.642623 -0.20885
F_ F_ 0.139664 0.692165 0.61389 -0.20885
F_ F_ 0.184027 0.556273 0.66767 -0.20885
F_ F_ 0.174838 0.638274 0.688414 -0.20885
F_ F_ 0.110076 0.598913 0.696315 -0.20885
Zn Zn 0.57794 0.0925391 0.340888 0.83971
Zn Zn 0.653823 0.35318 0.0896897 0.83971
Zn Zn 0.909652 0.420818 0.151598 0.83971
Zn Zn 0.837312 0.153475 0.415602 0.83971
H_ H_ 0.668688 0.136212 0.312502 0.10394
H_ H_ 0.747668 0.0998868 0.288405 0.10394
H_ H_ 0.705892 0.444631 0.294659 0.10394
H_ H_ 0.607754 0.995192 0.290015 0.10394
H_ H_ 0.0338057 0.0973985 0.24286 0.10394
H_ H_ 0.979352 0.165934 0.19834 0.10394
H_ H_ 0.529321 0.281653 0.33799 0.10394
H_ H_ 0.552641 0.20292 0.383782 0.10394
H_ H_ 0.533282 0.442173 0.373502 0.10394
H_ H_ 0.982426 0.370282 0.376397 0.10394
H_ H_ 0.851579 0.486964 0.388065 0.10394
H_ H_ 0.576533 0.30083 0.128953 0.10394
H_ H_ 0.9942591 0.275996 0.096786 0.10394
H_ H_ 0.534379 0.282429 0.446924 0.10394
H_ H_ 0.595605 0.352424 0.9836 0.10394
H_ H_ 0.718218 0.258844 0.0974278 0.10394
H_ H_ 0.747908 0.202859 0.168551 0.10394
H_ H_ 0.716198 0.334173 0.273027 0.10394
H_ H_ 0.66527 0.381328 0.195589 0.10394
H_ H_ 0.71219 0.391438 0.440038 0.10394
H_ H_ 0.770281 0.384698 0.377564 0.10394
H_ H_ 0.89261 0.424734 0.486026 0.10394
H_ H_ 0.810851 0.39613 0.164826 0.10394
H_ H_ 0.738941 0.436523 0.200886 0.10394
H_ H_ 0.825059 0.0532892 0.27622 0.10394
H_ H_ 0.900104 0.510456 0.22451 0.10394
H_ H_ 0.512452 0.384415 0.183893 0.10394
H_ H_ 0.551594 0.313099 0.22871 0.10394
H_ H_ 0.903831 0.246411 0.201519 0.10394
H_ H_ 0.873459 0.32505 0.164413 0.10394
H_ H_ 0.959429 0.0463691 0.117323 0.10394
H_ H_ 0.516371 0.124362 0.111299 0.10394
H_ H_ 0.64806 0.0168246 0.0926785 0.10394
H_ H_ 0.938981 0.164085 0.391368 0.10394
H_ H_ 0.514875 0.186488 0.452541 0.10394
H_ H_ 0.907783 0.290936 0.0365222 0.10394
H_ H_ 0.83979 0.224541 0.496771 0.10394
H_ H_ 0.73335 0.202838 0.389241 0.10394
H_ H_ 0.689624 0.245954 0.313241 0.10394
H_ H_ 0.83344 0.224893 0.243474 0.10394
H_ H_ 0.873802 0.182167 0.324306 0.10394
H_ H_ 0.789891 0.118655 0.0513768 0.10394
H_ H_ 0.738183 0.111502 0.11958 0.10394
H_ H_ 0.608297 0.0918312 0.00742882 0.10394
C_ C_ 0.672653 0.0962237 0.301786 0.18167
C_ C_ 0.71801 0.0756701 0.285554 -0.15533
C_ C_ 0.725217 0.0261691 0.266304 0.02923
C_ C_ 0.697315 0.485583 0.292882 -0.15533
C_ C_ 0.638645 0.0180931 0.284679 0.18167
C_ C_ 0.526268 0.150944 0.267464 0.18167
C_ C_ -0.000188037 0.174326 0.233397 -0.15533
C_ C_ 0.503009 0.241343 0.269141 0.02923
C_ C_ 0.523861 0.245055 0.32104 -0.15533
C_ C_ 0.545819 0.200845 0.344308 0.18167
C_ C_ 0.495222 0.0548908 0.363844 0.69207
C_ C_ 0.976304 0.501293 0.37315 0.02923
C_ C_ 0.994268 0.448296 0.370385 -0.15533
C_ C_ 0.964941 0.410061 0.376609 -0.15533
C_ C_ 0.911829 0.422988 0.384602 0.02923
C_ C_ 0.892413 0.475163 0.382875 -0.15533
C_ C_ 0.923923 0.514054 0.378753 0.02923
C_ C_ 0.897262 0.073446 0.377712 0.69207
C_ C_ 0.90498 0.328157 0.396236 0.69661
C_ C_ 0.56488 0.303432 0.087044 0.18167
C_ C_ 0.518858 0.285852 0.0686736 -0.15533
C_ C_ 0.510559 0.277395 0.0152906 0.02923
C_ C_ 0.542912 0.286669 0.487796 -0.15533
C_ C_ 0.581154 0.325404 0.00644804 0.18167
C_ C_ 0.715929 0.275049 0.135766 0.18167
C_ C_ 0.737045 0.244111 0.177601 -0.15533
C_ C_ 0.733707 0.265731 0.226647 0.02923
C_ C_ 0.712008 0.315531 0.233517 -0.15533
C_ C_ 0.683756 0.340838 0.192007 0.18167
C_ C_ 0.732688 0.38367 0.0477518 0.69207
C_ C_ 0.774826 0.387234 0.504386 0.02923
C_ C_ 0.754397 0.386446 0.451966 -0.15533
C_ C_ 0.786221 0.395923 0.414738 -0.15533
C_ C_ 0.838418 0.397804 0.426626 0.02923
C_ C_ 0.856368 0.406744 0.477567 -0.15533
C_ C_ 0.825225 0.399776 0.518442 0.02923
C_ C_ 0.845863 0.397624 0.0705672 0.69207
C_ C_ 0.851246 0.380018 0.331151 0.69661
C_ C_ 0.815 0.431259 0.186807 0.18167
C_ C_ 0.774965 0.448126 0.215163 -0.15533
C_ C_ 0.780075 0.490036 0.249117 0.02923
C_ C_ 0.8197 0.0175536 0.252386 -0.15533
C_ C_ 0.867213 0.488621 0.22817 0.18167
C_ C_ 0.994065 0.352276 0.193929 0.18167
C_ C_ 0.510166 0.319497 0.227179 -0.15533
C_ C_ 0.985641 0.267307 0.218206 0.02923
C_ C_ 0.931218 0.275201 0.201417 -0.15533
C_ C_ 0.914722 0.318124 0.174596 0.18167
C_ C_ 0.984325 0.458624 0.117975 0.69207
C_ C_ 0.528028 0.995155 0.118236 0.02923
C_ C_ 0.507511 0.0461525 0.122064 -0.15533
C_ C_ 0.536488 0.0857794 0.115177 -0.15533
C_ C_ 0.589141 0.0751141 0.107185 0.02923
C_ C_ 0.609734 0.024685 0.100315 -0.15533
C_ C_ 0.581665 0.984157 0.108987 0.02923
C_ C_ 0.590029 0.434418 0.108766 0.69207
C_ C_ 0.601729 0.172989 0.113245 0.69661
C_ C_ 0.933498 0.186065 0.426615 0.18167
C_ C_ 0.975529 0.2046 0.454998 -0.15533
C_ C_ 0.969032 0.241505 0.496415 0.02923
C_ C_ 0.916139 0.258141 0.00915988 -0.15533
C_ C_ 0.879867 0.220621 0.487984 0.18167
C_ C_ 0.753485 0.206557 0.354881 0.18167
C_ C_ 0.731381 0.232778 0.314534 -0.15533
C_ C_ 0.759681 0.238811 0.27251 0.02923
C_ C_ 0.811082 0.219154 0.275541 -0.15533
C_ C_ 0.832315 0.190577 0.318461 0.18167
C_ C_ 0.758286 0.123326 0.453876 0.69207
C_ C_ 0.7289 0.126004 0.991363 0.02923
C_ C_ 0.747925 0.126022 0.0428238 -0.15533
C_ C_ 0.716163 0.118779 0.0813519 -0.15533
C_ C_ 0.665711 0.108406 0.0711575 0.02923
C_ C_ 0.645665 0.107902 0.0190457 -0.15533
C_ C_ 0.677257 0.115761 0.979667 0.02923
C_ C_ 0.646436 0.119573 0.420734 0.69207
C_ C_ 0.654492 0.10717 0.166991 0.69661
C_ C_ 0.875206 0.382585 0.385259 -0.30787
C_ C_ 0.627051 0.11669 0.112862 -0.30787
N_ N_ 0.633906 0.06705 0.304327 -0.32189
N_ N_ 0.545573 0.155005 0.317872 -0.32189
N_ N_ 0.59514 0.322375 0.0569795 -0.32189
N_ N_ 0.689933 0.321328 0.144728 -0.32189
N_ N_ 0.861565 0.446185 0.197774 -0.32189
N_ N_ 0.945504 0.355865 0.172333 -0.32189
N_ N_ 0.887279 0.190442 0.446083 -0.32189
N_ N_ 0.80478 0.190833 0.358723 -0.32189
O_ O_ -0.0019489999999999785 0.0960304 0.380777 -0.63271
O_ O_ 0.529154 0.0459151 0.330997 -0.57982
O_ O_ 0.891003 0.0980652 0.335587 -0.63271
O_ O_ 0.872491 0.0897285 0.41729 -0.57982
O_ O_ 0.745694 0.397891 0.0952349 -0.63271
O_ O_ 0.694698 0.35444 0.0405803 -0.57982
O_ O_ 0.859453 0.352022 0.0885014 -0.63271
O_ O_ 0.871785 0.434896 0.0901196 -0.57982
O_ O_ 0.48153 0.425858 0.0926151 -0.63271
O_ O_ 0.952752 0.468477 0.153459 -0.57982
O_ O_ 0.579592 0.40235 0.141593 -0.63271
O_ O_ 0.629702 0.418825 0.0819526 -0.57982
O_ O_ 0.750407 0.112597 0.40463 -0.63271
O_ O_ 0.79665 0.149183 0.467316 -0.57982
O_ O_ 0.646425 0.163217 0.39893 -0.63271
O_ O_ 0.612122 0.0887658 0.404212 -0.57982
F_ F_ 0.940238 0.333325 0.43853 -0.20885
F_ F_ 0.929686 0.301223 0.356506 -0.20885
F_ F_ 0.870925 0.295988 0.408409 -0.20885
F_ F_ 0.815606 0.422221 0.32388 -0.20885
F_ F_ 0.824923 0.338449 0.318301 -0.20885
F_ F_ 0.885667 0.378562 0.29457 -0.20885
F_ F_ 0.564994 0.180383 0.0719883 -0.20885
F_ F_ 0.571128 0.183204 0.154499 -0.20885
F_ F_ 0.638104 0.207073 0.116044 -0.20885
F_ F_ 0.688047 0.0629757 0.173529 -0.20885
F_ F_ 0.683162 0.147573 0.18477 -0.20885
F_ F_ 0.621348 0.106755 0.202766 -0.20885
Zn Zn 0.59013 0.0849647 0.847281 0.83971
Zn Zn 0.664368 0.341064 0.577922 0.83971
Zn Zn 0.911343 0.41474 0.650276 0.83971
Zn Zn 0.841893 0.153145 0.913126 0.83971
H_ H_ 0.672199 0.131698 0.803467 0.10394
H_ H_ 0.74828 0.0954932 0.76406 0.10394
H_ H_ 0.708679 0.450538 0.777752 0.10394
H_ H_ 0.637607 0.983695 0.831427 0.10394
H_ H_ 0.0262681 0.0904341 0.752746 0.10394
H_ H_ 0.982538 0.159678 0.700057 0.10394
H_ H_ 0.537935 0.269722 0.8239 0.10394
H_ H_ 0.583164 0.197736 0.870028 0.10394
H_ H_ 0.528272 0.439324 0.847779 0.10394
H_ H_ 0.973828 0.381643 0.871049 0.10394
H_ H_ 0.852234 0.493366 0.900888 0.10394
H_ H_ 0.596285 0.294942 0.628607 0.10394
H_ H_ -0.007684000000000024 0.284802 0.596589 0.10394
H_ H_ 0.530759 0.299277 0.945731 0.10394
H_ H_ 0.607146 0.318378 0.469068 0.10394
H_ H_ 0.728924 0.245252 0.582009 0.10394
H_ H_ 0.788393 0.200733 0.654959 0.10394
H_ H_ 0.710371 0.30435 0.758404 0.10394
H_ H_ 0.679642 0.36358 0.685953 0.10394
H_ H_ 0.715105 0.367405 0.946256 0.10394
H_ H_ 0.765696 0.371523 0.875982 0.10394
H_ H_ 0.876644 0.436525 0.986891 0.10394
H_ H_ 0.805018 0.393928 0.668661 0.10394
H_ H_ 0.728069 0.448602 0.693153 0.10394
H_ H_ 0.832481 0.0497617 0.769895 0.10394
H_ H_ 0.903524 0.49491 0.73644 0.10394
H_ H_ 0.509195 0.384394 0.692294 0.10394
H_ H_ 0.556921 0.302249 0.723891 0.10394
H_ H_ 0.91555 0.238334 0.704635 0.10394
H_ H_ 0.875544 0.316146 0.670386 0.10394
H_ H_ 0.954687 0.0497864 0.625299 0.10394
H_ H_ 0.510915 0.116563 0.603495 0.10394
H_ H_ 0.639854 0.00142429 0.587007 0.10394
H_ H_ 0.93993 0.158889 0.900177 0.10394
H_ H_ 0.516065 0.195818 0.946014 0.10394
H_ H_ 0.908055 0.273177 0.542983 0.10394
H_ H_ 0.838078 0.235542 -0.0028719999999999857 0.10394
H_ H_ 0.736211 0.176097 0.867499 0.10394
H_ H_ 0.700456 0.214062 0.784649 0.10394
H_ H_ 0.850598 0.213871 0.741014 0.10394
H_ H_ 0.88639 0.190608 0.828671 0.10394
H_ H_ 0.781225 0.11207 0.55087 0.10394
H_ H_ 0.728018 0.0956479 0.614874 0.10394
H_ H_ 0.598796 0.0966332 0.503492 0.10394
C_ C_ 0.679061 0.0926625 0.799863 0.18167
C_ C_ 0.724664 0.0713423 0.778131 -0.15533
C_ C_ 0.735583 0.0180249 0.775291 0.02923
C_ C_ 0.702032 0.491008 0.785178 -0.15533
C_ C_ 0.662372 0.00916432 0.817578 0.18167
C_ C_ 0.529133 0.132546 0.769022 0.18167
C_ C_ 0.00858797 0.170211 0.736099 -0.15533
C_ C_ 0.513784 0.223796 0.757485 0.02923
C_ C_ 0.542011 0.232474 0.804139 -0.15533
C_ C_ 0.562532 0.192502 0.833726 0.18167
C_ C_ 0.512194 0.0463708 0.867935 0.69207
C_ C_ 0.972887 0.510061 0.880272 0.02923
C_ C_ 0.984429 0.459625 0.862279 -0.15533
C_ C_ 0.956543 0.421385 0.873229 -0.15533
C_ C_ 0.908309 0.432391 0.889525 0.02923
C_ C_ 0.891682 0.484047 0.899514 -0.15533
C_ C_ 0.92202 0.523875 0.893591 0.02923
C_ C_ 0.895121 0.0655956 0.882466 0.69207
C_ C_ 0.894719 0.336794 0.896831 0.69661
C_ C_ 0.577208 0.297295 0.59003 0.18167
C_ C_ 0.529998 0.276827 0.575533 -0.15533
C_ C_ 0.513046 0.269604 0.522344 0.02923
C_ C_ 0.539864 0.301514 0.984792 -0.15533
C_ C_ 0.586742 0.309197 0.50319 0.18167
C_ C_ 0.730448 0.260537 0.622185 0.18167
C_ C_ 0.759494 0.234359 0.662276 -0.15533
C_ C_ 0.752221 0.251895 0.71247 0.02923
C_ C_ 0.724014 0.29792 0.721982 -0.15533
C_ C_ 0.697484 0.325498 0.679575 0.18167
C_ C_ 0.738375 0.380519 0.541289 0.69207
C_ C_ 0.768959 0.387822 1.00560134 0.02923
C_ C_ 0.753304 0.373527 0.955531 -0.15533
C_ C_ 0.781033 0.381005 0.913829 -0.15533
C_ C_ 0.829445 0.402397 0.923535 0.02923
C_ C_ 0.845352 0.415386 0.976456 -0.15533
C_ C_ 0.819285 0.401639 0.0167552 0.02923
C_ C_ 0.849578 0.39345 0.569648 0.69207
C_ C_ 0.849355 0.38916 0.828904 0.69661
C_ C_ 0.808951 0.434005 0.677671 0.18167
C_ C_ 0.766641 0.460366 0.700658 -0.15533
C_ C_ 0.775919 0.501127 0.737006 0.02923
C_ C_ 0.825618 0.0144964 0.750971 -0.15533
C_ C_ 0.865584 0.486869 0.723566 0.18167
C_ C_ 0.989736 0.351357 0.70727 0.18167
C_ C_ 0.514432 0.309063 0.721566 -0.15533
C_ C_ 0.989161 0.263947 0.723274 0.02923
C_ C_ 0.93844 0.267032 0.70281 -0.15533
C_ C_ 0.915993 0.312622 0.682896 0.18167
C_ C_ 0.992572 0.449228 0.63017 0.69207
C_ C_ 0.518931 0.985185 0.612921 0.02923
C_ C_ 0.496982 0.0363364 0.609307 -0.15533
C_ C_ 0.528331 0.0763969 0.603888 -0.15533
C_ C_ 0.581706 0.0633114 0.600862 0.02923
C_ C_ 0.601267 0.0117291 0.596179 -0.15533
C_ C_ 0.570885 0.972653 0.605226 0.02923
C_ C_ 0.600721 0.420317 0.607353 0.69207
C_ C_ 0.597002 0.163395 0.60622 0.69661
C_ C_ 0.935904 0.179639 0.935487 0.18167
C_ C_ 0.976087 0.205219 0.959343 -0.15533
C_ C_ 0.968086 0.244297 -0.002851000000000048 0.02923
C_ C_ 0.919591 0.245761 0.514399 -0.15533
C_ C_ 0.87699 0.227885 0.98691 0.18167
C_ C_ 0.762007 0.184623 0.838075 0.18167
C_ C_ 0.740777 0.210498 0.794251 -0.15533
C_ C_ 0.772269 0.219362 0.7561 0.02923
C_ C_ 0.826174 0.207236 0.768471 -0.15533
C_ C_ 0.845955 0.191874 0.817394 0.18167
C_ C_ 0.762183 0.127008 0.951871 0.69207
C_ C_ 0.719878 0.118386 0.489714 0.02923
C_ C_ 0.739149 0.117197 0.541302 -0.15533
C_ C_ 0.708769 0.108564 0.57875 -0.15533
C_ C_ 0.65629 0.100248 0.565779 0.02923
C_ C_ 0.638665 0.0984359 0.513282 -0.15533
C_ C_ 0.668341 0.113948 0.475106 0.02923
C_ C_ 0.6531 0.118035 0.924969 0.69207
C_ C_ 0.643671 0.102052 0.661298 0.69661
C_ C_ 0.871402 0.390511 0.884905 -0.30787
C_ C_ 0.619324 0.105285 0.606703 -0.30787
N_ N_ 0.646119 0.060708 0.814449 -0.32189
N_ N_ 0.555194 0.143757 0.815063 -0.32189
N_ N_ 0.605882 0.309945 0.552602 -0.32189
N_ N_ 0.702357 0.307068 0.630673 -0.32189
N_ N_ 0.85718 0.447209 0.689496 -0.32189
N_ N_ 0.94145 0.354122 0.683983 -0.32189
N_ N_ 0.887288 0.193352 0.94813 -0.32189
N_ N_ 0.814209 0.176652 0.848902 -0.32189
O_ O_ 0.010178 0.0855851 0.893463 -0.63271
O_ O_ 0.544827 0.0386555 0.832874 -0.57982
O_ O_ 0.90001 0.0915036 0.842639 -0.63271
O_ O_ 0.868446 0.0890454 0.91945 -0.57982
O_ O_ 0.745729 0.394853 0.588337 -0.63271
O_ O_ 0.698544 0.352504 0.52731 -0.57982
O_ O_ 0.849956 0.350213 0.590028 -0.63271
O_ O_ 0.881163 0.425564 0.588796 -0.57982
O_ O_ 0.485848 0.410529 0.585221 -0.63271
O_ O_ 0.952956 0.464165 0.653415 -0.57982
O_ O_ 0.594649 0.393336 0.644594 -0.63271
O_ O_ 0.639527 0.406126 0.583967 -0.57982
O_ O_ 0.763875 0.0920827 0.915647 -0.63271
O_ O_ 0.792928 0.16236 0.953311 -0.57982
O_ O_ 0.657604 0.158394 0.900608 -0.63271
O_ O_ 0.61269 0.0920885 0.911685 -0.57982
F_ F_ 0.921197 0.334678 0.943097 -0.20885
F_ F_ 0.924044 0.316115 0.85934 -0.20885
F_ F_ 0.856185 0.30514 0.897004 -0.20885
F_ F_ 0.810274 0.430113 0.825495 -0.20885
F_ F_ 0.828977 0.346676 0.810411 -0.20885
F_ F_ 0.887089 0.390872 0.795838 -0.20885
F_ F_ 0.57094 0.171245 0.559038 -0.20885
F_ F_ 0.566548 0.179561 0.64579 -0.20885
F_ F_ 0.630828 0.199759 0.612124 -0.20885
F_ F_ 0.672195 0.0553905 0.667359 -0.20885
F_ F_ 0.676451 0.137974 0.682598 -0.20885
F_ F_ 0.605709 0.102357 0.694371 -0.20885
Zn Zn 0.590038 0.587217 0.350937 0.83971
Zn Zn 0.665025 0.845945 0.0862243 0.83971
Zn Zn 0.912237 0.914234 0.165289 0.83971
Zn Zn 0.844417 0.646269 0.421349 0.83971
H_ H_ 0.670529 0.63195 0.306499 0.10394
H_ H_ 0.742413 0.591427 0.26095 0.10394
H_ H_ 0.694402 0.955029 0.269699 0.10394
H_ H_ 0.630178 0.48349 0.329406 0.10394
H_ H_ 0.0414977 0.594814 0.256744 0.10394
H_ H_ 0.99896123 0.665207 0.209408 0.10394
H_ H_ 0.542837 0.77162 0.324516 0.10394
H_ H_ 0.588438 0.702942 0.369613 0.10394
H_ H_ 0.526097 0.958515 0.37405 0.10394
H_ H_ 0.991345 0.889319 0.407389 0.10394
H_ H_ 0.856913 0.990795 0.389728 0.10394
H_ H_ 0.577626 0.821368 0.13246 0.10394
H_ H_ 1.00331 0.774497 0.0947267 0.10394
H_ H_ 0.540266 0.793112 0.440374 0.10394
H_ H_ 0.626525 0.802323 0.9817 0.10394
H_ H_ 0.729635 0.750896 0.102441 0.10394
H_ H_ 0.767374 0.705148 0.176224 0.10394
H_ H_ 0.716748 0.833384 0.277089 0.10394
H_ H_ 0.684124 0.88052 0.198248 0.10394
H_ H_ 0.729486 0.860691 0.438813 0.10394
H_ H_ 0.775687 0.892616 0.378746 0.10394
H_ H_ 0.898919 0.908127 0.493413 0.10394
H_ H_ 0.809595 0.894382 0.172886 0.10394
H_ H_ 0.733004 0.946753 0.197687 0.10394
H_ H_ 0.83244 0.539882 0.285205 0.10394
H_ H_ 0.900465 0.99897248 0.253396 0.10394
H_ H_ 0.519652 0.869644 0.184391 0.10394
H_ H_ 0.555246 0.791581 0.225929 0.10394
H_ H_ 0.914343 0.742519 0.233592 0.10394
H_ H_ 0.873433 0.821624 0.19704 0.10394
H_ H_ 0.960639 0.556654 0.110032 0.10394
H_ H_ 0.516833 0.634003 0.117328 0.10394
H_ H_ 0.639204 0.514052 0.0961324 0.10394
H_ H_ 0.949938 0.647783 0.411872 0.10394
H_ H_ 0.510552 0.709075 0.415788 0.10394
H_ H_ 0.920218 0.781521 0.0476927 0.10394
H_ H_ 0.844613 0.741348 0.496356 0.10394
H_ H_ 0.735284 0.6912 0.38833 0.10394
H_ H_ 0.694184 0.72227 0.306163 0.10394
H_ H_ 0.841458 0.742141 0.264989 0.10394
H_ H_ 0.880385 0.695214 0.337613 0.10394
H_ H_ 0.787271 0.626005 0.0617156 0.10394
H_ H_ 0.733057 0.615071 0.127404 0.10394
H_ H_ 0.603534 0.610339 0.0171467 0.10394
C_ C_ 0.68046 0.590545 0.305764 0.18167
C_ C_ 0.722965 0.567965 0.281805 -0.15533
C_ C_ 0.732663 0.515949 0.274288 0.02923
C_ C_ 0.68644 0.994883 0.270202 -0.15533
C_ C_ 0.654964 0.507931 0.312768 0.18167
C_ C_ 0.521298 0.633511 0.27841 0.18167
C_ C_ 0.0128668 0.672183 0.249791 -0.15533
C_ C_ 0.502448 0.725974 0.268821 0.02923
C_ C_ 0.534421 0.733609 0.313959 -0.15533
C_ C_ 0.56463 0.693348 0.335049 0.18167
C_ C_ 0.511468 0.545535 0.380837 0.69207
C_ C_ 0.975417 0.0117776 0.37268 0.02923
C_ C_ -0.0015819999999999723 0.959237 0.379678 -0.15533
C_ C_ 0.970197 0.919673 0.388359 -0.15533
C_ C_ 0.917206 0.929382 0.389839 0.02923
C_ C_ 0.895682 0.981572 0.388363 -0.15533
C_ C_ 0.922641 0.0219338 0.378384 0.02923
C_ C_ 0.902362 0.567682 0.381669 0.69207
C_ C_ 0.909065 0.833424 0.389599 0.69661
C_ C_ 0.573299 0.805019 0.0929403 0.18167
C_ C_ 0.525601 0.786619 0.0737454 -0.15533
C_ C_ 0.520148 0.761887 0.0238058 0.02923
C_ C_ 0.552257 0.78881 0.479766 -0.15533
C_ C_ 0.601936 0.791696 0.0120016 0.18167
C_ C_ 0.724856 0.769805 0.140028 0.18167
C_ C_ 0.742743 0.741637 0.183073 -0.15533
C_ C_ 0.741925 0.764181 0.233713 0.02923
C_ C_ 0.717861 0.81394 0.239654 -0.15533
C_ C_ 0.694349 0.838952 0.195025 0.18167
C_ C_ 0.747296 0.874557 0.0478325 0.69207
C_ C_ 0.780133 0.877138 0.503984 0.02923
C_ C_ 0.761762 0.876991 0.451765 -0.15533
C_ C_ 0.794423 0.882466 0.415628 -0.15533
C_ C_ 0.844472 0.889777 0.428444 0.02923
C_ C_ 0.862284 0.893555 0.481313 -0.15533
C_ C_ 0.830003 0.890769 0.518614 0.02923
C_ C_ 0.857314 0.885477 0.0781602 0.69207
C_ C_ 0.855726 0.882996 0.329797 0.69661
C_ C_ 0.813466 0.930945 0.191154 0.18167
C_ C_ 0.769298 0.957557 0.208845 -0.15533
C_ C_ 0.772387 1.00178494 0.242514 0.02923
C_ C_ 0.828272 0.50893 0.258582 -0.15533
C_ C_ 0.865049 0.988919 0.234845 0.18167
C_ C_ 0.993804 0.848485 0.208786 0.18167
C_ C_ 0.514205 0.797042 0.216114 -0.15533
C_ C_ 0.989507 0.766658 0.240013 0.02923
C_ C_ 0.936824 0.769189 0.222258 -0.15533
C_ C_ 0.914381 0.815324 0.202789 0.18167
C_ C_ 0.989983 0.947316 0.128245 0.69207
C_ C_ 0.516079 0.504975 0.119003 0.02923
C_ C_ 0.500208 0.557737 0.120172 -0.15533
C_ C_ 0.53336 0.593684 0.1139 -0.15533
C_ C_ 0.583948 0.580552 0.10572 0.02923
C_ C_ 0.599877 0.525943 0.099074 -0.15533
C_ C_ 0.567063 0.488993 0.109598 0.02923
C_ C_ 0.608649 0.93202 0.116886 0.69207
C_ C_ 0.609763 0.673377 0.125194 0.69661
C_ C_ 0.941857 0.674269 0.441916 0.18167
C_ C_ 0.982916 0.692904 0.474581 -0.15533
C_ C_ 0.973995 0.735715 0.507376 0.02923
C_ C_ 0.92569 0.751977 1.0189056 -0.15533
C_ C_ 0.882676 0.73085 0.486902 0.18167
C_ C_ 0.758092 0.694121 0.356806 0.18167
C_ C_ 0.734665 0.716863 0.312711 -0.15533
C_ C_ 0.76479 0.734275 0.278212 0.02923
C_ C_ 0.817917 0.726366 0.286621 -0.15533
C_ C_ 0.839617 0.700406 0.330053 0.18167
C_ C_ 0.767755 0.616567 0.460012 0.69207
C_ C_ 0.727072 0.619489 1.00052 0.02923
C_ C_ 0.748733 0.62087 0.0516217 -0.15533
C_ C_ 0.715667 0.61733 0.0888554 -0.15533
C_ C_ 0.663218 0.609748 0.0785699 0.02923
C_ C_ 0.644175 0.608993 0.0269783 -0.15533
C_ C_ 0.675422 0.613638 0.987729 0.02923
C_ C_ 0.6495 0.609315 0.432911 0.69207
C_ C_ 0.65348 0.604355 0.173641 0.69661
C_ C_ 0.881167 0.885559 0.385637 -0.30787
C_ C_ 0.625441 0.616032 0.120977 -0.30787
N_ N_ 0.648239 0.559512 0.320856 -0.32189
N_ N_ 0.557609 0.644963 0.318258 -0.32189
N_ N_ 0.608847 0.810632 0.0603774 -0.32189
N_ N_ 0.697144 0.814641 0.146118 -0.32189
N_ N_ 0.86096 0.946 0.203676 -0.32189
N_ N_ 0.942725 0.854281 0.195457 -0.32189
N_ N_ 0.89268 0.689999 0.452221 -0.32189
N_ N_ 0.810442 0.68629 0.36546 -0.32189
O_ O_ 0.0134827 0.575777 0.411052 -0.63271
O_ O_ 0.543068 0.539025 0.344735 -0.57982
O_ O_ 0.898788 0.595633 0.342934 -0.63271
O_ O_ 0.876276 0.583912 0.420177 -0.57982
O_ O_ 0.74963 0.902106 0.0919577 -0.63271
O_ O_ 0.711424 0.842444 0.0399176 -0.57982
O_ O_ 0.855084 0.844524 0.101766 -0.63271
O_ O_ 0.882811 0.920532 0.101212 -0.57982
O_ O_ 0.499304 0.910496 0.0977636 -0.63271
O_ O_ 0.961399 0.95894 0.166365 -0.57982
O_ O_ 0.602325 0.909131 0.156922 -0.63271
O_ O_ 0.643228 0.912901 0.0884377 -0.57982
O_ O_ 0.764243 0.590448 0.416899 -0.63271
O_ O_ 0.798234 0.652434 0.467923 -0.57982
O_ O_ 0.655888 0.644532 0.403347 -0.63271
O_ O_ 0.614521 0.5802 0.418191 -0.57982
F_ F_ 0.944917 0.827467 0.432072 -0.20885
F_ F_ 0.937038 0.812511 0.348762 -0.20885
F_ F_ 0.874771 0.796481 0.393664 -0.20885
F_ F_ 0.819471 0.923876 0.323458 -0.20885
F_ F_ 0.828311 0.840958 0.316126 -0.20885
F_ F_ 0.891831 0.883366 0.294182 -0.20885
F_ F_ 0.576587 0.688108 0.0835629 -0.20885
F_ F_ 0.582984 0.687461 0.166111 -0.20885
F_ F_ 0.649566 0.704145 0.129579 -0.20885
F_ F_ 0.685333 0.559795 0.170289 -0.20885
F_ F_ 0.675337 0.643154 0.204044 -0.20885
F_ F_ 0.61766 0.589076 0.20415 -0.20885
Zn Zn 0.590493 0.583714 0.856009 0.83971
Zn Zn 0.662103 0.84119 0.57802 0.83971
Zn Zn 0.90786 0.909404 0.656728 0.83971
Zn Zn 0.838042 0.662979 0.921121 0.83971
H_ H_ 0.672572 0.631529 0.813151 0.10394
H_ H_ 0.750815 0.601985 0.767947 0.10394
H_ H_ 0.717591 0.946444 0.800675 0.10394
H_ H_ 0.632173 0.483187 0.816952 0.10394
H_ H_ 0.0320799 0.598329 0.766446 0.10394
H_ H_ 0.9986815 0.671342 0.710133 0.10394
H_ H_ 0.53888 0.76459 0.8463 0.10394
H_ H_ 0.562118 0.688014 0.891257 0.10394
H_ H_ 0.53585 0.942144 0.866911 0.10394
H_ H_ 0.986336 0.874962 0.874475 0.10394
H_ H_ 0.865682 0.984671 0.921265 0.10394
H_ H_ 0.589047 0.791428 0.623437 0.10394
H_ H_ 0.00752771 0.754567 0.607472 0.10394
H_ H_ 0.561641 0.745247 0.957969 0.10394
H_ H_ 0.616613 0.832635 0.477218 0.10394
H_ H_ 0.734186 0.744654 0.592062 0.10394
H_ H_ 0.766018 0.697019 0.66764 0.10394
H_ H_ 0.700806 0.822427 0.765868 0.10394
H_ H_ 0.675958 0.867617 0.690747 0.10394
H_ H_ 0.723474 0.864709 0.94997 0.10394
H_ H_ 0.777329 0.885554 0.883138 0.10394
H_ H_ 0.901045 0.910417 0.991042 0.10394
H_ H_ 0.80466 0.890847 0.663245 0.10394
H_ H_ 0.730122 0.9386 0.705791 0.10394
H_ H_ 0.83271 0.545015 0.776344 0.10394
H_ H_ 0.902517 0.99787504 0.73272 0.10394
H_ H_ 0.504679 0.892801 0.720273 0.10394
H_ H_ 0.553748 0.815877 0.760322 0.10394
H_ H_ 0.918712 0.752277 0.750659 0.10394
H_ H_ 0.876047 0.830414 0.70011 0.10394
H_ H_ 0.963986 0.546184 0.599087 0.10394
H_ H_ 0.511103 0.6125 0.609327 0.10394
H_ H_ 0.641919 0.503215 0.577536 0.10394
H_ H_ 0.942499 0.659525 0.90215 0.10394
H_ H_ 0.523625 0.662299 0.988764 0.10394
H_ H_ 0.913497 0.787679 0.539562 0.10394
H_ H_ 0.84381 0.739891 1.00142615 0.10394
H_ H_ 0.734163 0.702468 0.887159 0.10394
H_ H_ 0.688764 0.73161 0.803101 0.10394
H_ H_ 0.834695 0.721028 0.740556 0.10394
H_ H_ 0.874214 0.697966 0.831165 0.10394
H_ H_ 0.790954 0.610931 0.55463 0.10394
H_ H_ 0.733843 0.610244 0.625583 0.10394
H_ H_ 0.607336 0.585358 0.511876 0.10394
C_ C_ 0.683242 0.591354 0.8082 0.18167
C_ C_ 0.726874 0.573977 0.78123 -0.15533
C_ C_ 0.732563 0.522882 0.766336 0.02923
C_ C_ 0.706192 0.988449 0.797864 -0.15533
C_ C_ 0.661042 0.510025 0.81149 0.18167
C_ C_ 0.542204 0.636673 0.772563 0.18167
C_ C_ 0.0165945 0.677535 0.747949 -0.15533
C_ C_ 0.515526 0.726306 0.773819 0.02923
C_ C_ 0.535449 0.729413 0.825265 -0.15533
C_ C_ 0.555859 0.687143 0.849545 0.18167
C_ C_ 0.505096 0.545523 0.86302 0.69207
C_ C_ 0.97618 0.00477896 0.870547 0.02923
C_ C_ -0.0023410000000000375 0.954513 0.866985 -0.15533
C_ C_ 0.96855 0.914887 0.877271 -0.15533
C_ C_ 0.920243 0.925046 0.894654 0.02923
C_ C_ 0.903579 0.976234 0.906588 -0.15533
C_ C_ 0.926889 0.0159318 0.888013 0.02923
C_ C_ 0.896006 0.575891 0.890429 0.69207
C_ C_ 0.909241 0.829238 0.895046 0.69661
C_ C_ 0.577463 0.789941 0.582353 0.18167
C_ C_ 0.529583 0.774343 0.563141 -0.15533
C_ C_ 0.519371 0.769602 0.512046 0.02923
C_ C_ 0.562081 0.76157 0.996503 -0.15533
C_ C_ 0.59352 0.813747 0.501761 0.18167
C_ C_ 0.721337 0.760271 0.628488 0.18167
C_ C_ 0.743751 0.733957 0.671727 -0.15533
C_ C_ 0.73631 0.756304 0.721581 0.02923
C_ C_ 0.706886 0.803596 0.727345 -0.15533
C_ C_ 0.686598 0.828249 0.685016 0.18167
C_ C_ 0.74739 0.866816 0.54333 0.69207
C_ C_ 0.786021 0.87354 1.0108597 0.02923
C_ C_ 0.766178 0.869202 0.958404 -0.15533
C_ C_ 0.79518 0.878923 0.921554 -0.15533
C_ C_ 0.846116 0.890025 0.933466 0.02923
C_ C_ 0.864719 0.897393 0.98478 -0.15533
C_ C_ 0.836695 0.890319 0.0248087 0.02923
C_ C_ 0.853861 0.886691 0.572043 0.69207
C_ C_ 0.856271 0.886162 0.83467 0.69661
C_ C_ 0.809212 0.924421 0.69007 0.18167
C_ C_ 0.768811 0.950252 0.713325 -0.15533
C_ C_ 0.777426 -0.0061390000000000056 0.745196 0.02923
C_ C_ 0.825478 0.513523 0.747247 -0.15533
C_ C_ 0.863205 0.986943 0.724901 0.18167
C_ C_ 0.99806 0.846575 0.695698 0.18167
C_ C_ 0.516701 0.815326 0.741678 -0.15533
C_ C_ 0.993814 0.770519 0.738126 0.02923
C_ C_ 0.939382 0.780797 0.73308 -0.15533
C_ C_ 0.916558 0.820203 0.701093 0.18167
C_ C_ 0.983766 0.949126 0.627537 0.69207
C_ C_ 0.522533 0.48723 0.613252 0.02923
C_ C_ 0.500067 0.536885 0.6124 -0.15533
C_ C_ 0.53131 0.576218 0.612211 -0.15533
C_ C_ 0.58487 0.564132 0.603235 0.02923
C_ C_ 0.60282 0.513579 0.589794 -0.15533
C_ C_ 0.575978 0.475105 0.605372 0.02923
C_ C_ 0.594937 0.91939 0.606906 0.69207
C_ C_ 0.599071 0.658051 0.609442 0.69661
C_ C_ 0.939713 0.679631 0.939661 0.18167
C_ C_ 0.980136 0.704355 0.960541 -0.15533
C_ C_ 0.973217 0.740655 0.999522014 0.02923
C_ C_ 0.922482 0.752864 0.51534 -0.15533
C_ C_ 0.882925 0.729843 0.99323 0.18167
C_ C_ 0.753752 0.701144 0.853501 0.18167
C_ C_ 0.730729 0.722795 0.806802 -0.15533
C_ C_ 0.759188 0.730919 0.767664 0.02923
C_ C_ 0.81195 0.720256 0.773883 -0.15533
C_ C_ 0.834501 0.700801 0.821923 0.18167
C_ C_ 0.761852 0.627071 0.959153 0.69207
C_ C_ 0.729403 0.613664 0.496421 0.02923
C_ C_ 0.748712 0.614137 0.548472 -0.15533
C_ C_ 0.716376 0.613712 0.587776 -0.15533
C_ C_ 0.665162 0.59974 0.57503 0.02923
C_ C_ 0.648702 0.592164 0.522715 -0.15533
C_ C_ 0.675726 0.608154 0.484566 0.02923
C_ C_ 0.651148 0.610884 0.932892 0.69207
C_ C_ 0.648235 0.594068 0.663407 0.69661
C_ C_ 0.883039 0.883351 0.892048 -0.30787
C_ C_ 0.624366 0.603769 0.612543 -0.30787
N_ N_ 0.650487 0.559825 0.819639 -0.32189
N_ N_ 0.559941 0.642192 0.822883 -0.32189
N_ N_ 0.607131 0.808411 0.551337 -0.32189
N_ N_ 0.689324 0.804117 0.636684 -0.32189
N_ N_ 0.855907 0.943665 0.697475 -0.32189
N_ N_ 0.946768 0.850913 0.681634 -0.32189
N_ N_ 0.891906 0.693422 0.955179 -0.32189
N_ N_ 0.804392 0.686385 0.857535 -0.32189
O_ O_ 1.00780307 0.591035 0.897255 -0.63271
O_ O_ 0.547798 0.535953 0.846353 -0.57982
O_ O_ 0.893019 0.598143 0.846082 -0.63271
O_ O_ 0.869524 0.596953 0.927176 -0.57982
O_ O_ 0.744908 0.897516 0.584705 -0.63271
O_ O_ 0.710978 0.835606 0.533479 -0.57982
O_ O_ 0.852897 0.846283 0.59887 -0.63271
O_ O_ 0.879243 0.922316 0.594101 -0.57982
O_ O_ 0.488283 0.902792 0.596887 -0.63271
O_ O_ 0.952768 0.957286 0.664716 -0.57982
O_ O_ 0.592817 0.893506 0.648024 -0.63271
O_ O_ 0.631859 0.905334 0.577364 -0.57982
O_ O_ 0.754691 0.603063 0.914278 -0.63271
O_ O_ 0.795445 0.659957 0.968744 -0.57982
O_ O_ 0.652974 0.650464 0.903887 -0.63271
O_ O_ 0.613065 0.582227 0.923007 -0.57982
F_ F_ 0.945713 0.825255 0.935637 -0.20885
F_ F_ 0.93484 0.811787 0.85071 -0.20885
F_ F_ 0.874559 0.794639 0.891672 -0.20885
F_ F_ 0.82196 0.92848 0.824631 -0.20885
F_ F_ 0.826717 0.846893 0.816759 -0.20885
F_ F_ 0.890772 0.885945 0.800367 -0.20885
F_ F_ 0.567282 0.669669 0.564299 -0.20885
F_ F_ 0.567515 0.675602 0.649838 -0.20885
F_ F_ 0.631557 0.696816 0.61403 -0.20885
F_ F_ 0.676895 0.545363 0.665443 -0.20885
F_ F_ 0.679482 0.627449 0.690448 -0.20885
F_ F_ 0.611553 0.595832 0.697203 -0.20885
_cell_length_a 26.508
_cell_length_b 26.37200000322088
_cell_length_c 26.311999743092066
_cell_angle_alpha 93.74100058972084
_cell_angle_beta 96.04100104955006
_cell_angle_gamma 83.6869992558723
_symmetry_space_group_name_H-M         'P 1'
_symmetry_Int_Tables_number            1
loop_
_symmetry_equiv_pos_as_xyz
   'x, y, z'
                         
loop_
_atom_site_label
_atom_site_type_symbol
_atom_site_fract_x 
_atom_site_fract_y
_atom_site_fract_z
_atom_site_charge
Zn Zn 0.0840746 0.0878822 0.339198 0.83971
Zn Zn 0.154242 0.350683 0.0808771 0.83971
Zn Zn 0.402851 0.427066 0.153547 0.83971
Zn Zn 0.333894 0.162672 0.417907 0.83971
H_ H_ 0.174184 0.139055 0.307735 0.10394
H_ H_ 0.247739 0.107102 0.264754 0.10394
H_ H_ 0.204018 0.445522 0.287904 0.10394
H_ H_ 0.128562 0.985553 0.3082 0.10394
H_ H_ 0.529387 0.115112 0.244414 0.10394
H_ H_ 0.477544 0.189017 0.207769 0.10394
H_ H_ 0.0243198 0.273998 0.317049 0.10394
H_ H_ 0.0730843 0.2041 0.364607 0.10394
H_ H_ 0.0361769 0.437685 0.369719 0.10394
H_ H_ 0.481159 0.378806 0.373658 0.10394
H_ H_ 0.354965 0.487882 0.410002 0.10394
H_ H_ 0.0681274 0.316345 0.129775 0.10394
H_ H_ 0.497711 0.267663 0.0958636 0.10394
H_ H_ 0.030021 0.293415 0.445023 0.10394
H_ H_ 0.106777 0.329083 0.977629 0.10394
H_ H_ 0.209742 0.250362 0.0855312 0.10394
H_ H_ 0.257944 0.201333 0.157163 0.10394
H_ H_ 0.210385 0.327111 0.26062 0.10394
H_ H_ 0.188219 0.381811 0.186394 0.10394
H_ H_ 0.221234 0.366345 0.439569 0.10394
H_ H_ 0.270692 0.378165 0.372221 0.10394
H_ H_ 0.396309 0.406929 0.484743 0.10394
H_ H_ 0.302012 0.414464 0.151889 0.10394
H_ H_ 0.228936 0.453933 0.190599 0.10394
H_ H_ 0.339339 0.0358906 0.29246 0.10394
H_ H_ 0.397889 0.510527 0.236674 0.10394
H_ H_ 0.0178078 0.385296 0.194324 0.10394
H_ H_ 0.052775 0.307895 0.235514 0.10394
H_ H_ 0.399691 0.265514 0.235775 0.10394
H_ H_ 0.370367 0.334388 0.180909 0.10394
H_ H_ 0.466453 0.0561059 0.131192 0.10394
H_ H_ 0.00173283 0.109221 0.0895437 0.10394
H_ H_ 0.143676 0.00412506 0.0850241 0.10394
H_ H_ 0.440167 0.16496 0.397594 0.10394
H_ H_ 0.0141418 0.191205 0.442546 0.10394
H_ H_ 0.410093 0.283839 0.037296 0.10394
H_ H_ 0.340822 0.246961 0.492836 0.10394
H_ H_ 0.230135 0.198721 0.372019 0.10394
H_ H_ 0.196271 0.242271 0.297853 0.10394
H_ H_ 0.340413 0.211611 0.235892 0.10394
H_ H_ 0.375445 0.190993 0.318368 0.10394
H_ H_ 0.281113 0.119379 0.0607209 0.10394
H_ H_ 0.222853 0.099811 0.119331 0.10394
H_ H_ 0.102188 0.082226 -0.0020280000000000298 0.10394
C_ C_ 0.180029 0.0968668 0.302041 0.18167
C_ C_ 0.224026 0.0797433 0.278969 -0.15533
C_ C_ 0.234119 0.0266148 0.266424 0.02923
C_ C_ 0.196432 0.486044 0.293603 -0.15533
C_ C_ 0.152173 0.0124062 0.295432 0.18167
C_ C_ 0.0268267 0.135609 0.262007 0.18167
C_ C_ 0.500448 0.192602 0.245443 -0.15533
C_ C_ 0.00465882 0.22506 0.250556 0.02923
C_ C_ 0.024972 0.235254 0.300585 -0.15533
C_ C_ 0.0501922 0.194399 0.328441 0.18167
C_ C_ 0.00756837 0.0493483 0.358903 0.69207
C_ C_ 0.474756 0.505433 0.382514 0.02923
C_ C_ 0.493713 0.454498 0.378108 -0.15533
C_ C_ 0.462068 0.417038 0.375663 -0.15533
C_ C_ 0.409746 0.426115 0.382844 0.02923
C_ C_ 0.391879 0.477044 0.39665 -0.15533
C_ C_ 0.42427 0.517485 0.395866 0.02923
C_ C_ 0.38598 0.0763249 0.389777 0.69207
C_ C_ 0.402467 0.328355 0.386624 0.69661
C_ C_ 0.0614662 0.307501 0.088107 0.18167
C_ C_ 0.019871 0.282575 0.0695895 -0.15533
C_ C_ 0.00730662 0.275762 0.0165123 0.02923
C_ C_ 0.0431818 0.287851 0.486733 -0.15533
C_ C_ 0.0824668 0.315381 0.00430705 0.18167
C_ C_ 0.210686 0.267341 0.125887 0.18167
C_ C_ 0.240217 0.241844 0.164549 -0.15533
C_ C_ 0.242267 0.263874 0.21548 0.02923
C_ C_ 0.218485 0.312824 0.223078 -0.15533
C_ C_ 0.192603 0.339939 0.182258 0.18167
C_ C_ 0.239554 0.364106 0.0429648 0.69207
C_ C_ 0.27265 0.382717 0.500467 0.02923
C_ C_ 0.257593 0.375396 0.449197 -0.15533
C_ C_ 0.287528 0.380752 0.412106 -0.15533
C_ C_ 0.338259 0.390214 0.424207 0.02923
C_ C_ 0.357813 0.397725 0.476191 -0.15533
C_ C_ 0.325485 0.391348 0.514135 0.02923
C_ C_ 0.350392 0.392761 0.0649478 0.69207
C_ C_ 0.35098 0.385576 0.323939 0.69661
C_ C_ 0.305558 0.446398 0.176853 0.18167
C_ C_ 0.265384 0.463473 0.206035 -0.15533
C_ C_ 0.273346 0.496176 0.248594 0.02923
C_ C_ 0.329952 0.0195655 0.253845 -0.15533
C_ C_ 0.360001 0.49917 0.22847 0.18167
C_ C_ 0.488291 0.361012 0.198244 0.18167
C_ C_ 0.0161451 0.308732 0.218288 -0.15533
C_ C_ 0.47863 0.286423 0.242471 0.02923
C_ C_ 0.425971 0.29395 0.229391 -0.15533
C_ C_ 0.406732 0.335713 0.202083 0.18167
C_ C_ 0.479474 0.467467 0.121276 0.69207
C_ C_ 0.0247411 0.985341 0.116659 0.02923
C_ C_ -0.000143672 0.0365707 0.112784 -0.15533
C_ C_ 0.0262507 0.0730349 0.097012 -0.15533
C_ C_ 0.0800999 0.0641187 0.0914001 0.02923
C_ C_ 0.104458 0.011875 0.0911373 -0.15533
C_ C_ 0.0748119 0.972717 0.101485 0.02923
C_ C_ 0.0960865 0.427858 0.110057 0.69207
C_ C_ 0.0890803 0.162625 0.0906655 0.69661
C_ C_ 0.433791 0.186336 0.432675 0.18167
C_ C_ 0.477645 0.201721 0.464204 -0.15533
C_ C_ 0.469668 0.240553 0.504246 0.02923
C_ C_ 0.418567 0.257422 0.00827 -0.15533
C_ C_ 0.378812 0.23625 0.486465 0.18167
C_ C_ 0.255049 0.205668 0.344678 0.18167
C_ C_ 0.234123 0.229383 0.29983 -0.15533
C_ C_ 0.263553 0.230397 0.258813 0.02923
C_ C_ 0.315011 0.211852 0.267695 -0.15533
C_ C_ 0.33547 0.195025 0.312787 0.18167
C_ C_ 0.251834 0.130842 0.448896 0.69207
C_ C_ 0.224326 0.118681 0.994009 0.02923
C_ C_ 0.241299 0.120052 0.0468996 -0.15533
C_ C_ 0.2095 0.103223 0.0795618 -0.15533
C_ C_ 0.158156 0.0983555 0.0627974 0.02923
C_ C_ 0.143436 0.0914372 0.0109681 -0.15533
C_ C_ 0.172552 0.108112 0.976543 0.02923
C_ C_ 0.140236 0.119871 0.421364 0.69207
C_ C_ 0.132881 0.10959 0.158077 0.69661
C_ C_ 0.375915 0.382381 0.3799 -0.30787
C_ C_ 0.114016 0.107555 0.100263 -0.30787
N_ N_ 0.144167 0.0650593 0.307162 -0.32189
N_ N_ 0.0528041 0.147219 0.306964 -0.32189
N_ N_ 0.0952369 0.318758 0.0555392 -0.32189
N_ N_ 0.184859 0.315672 0.134946 -0.32189
N_ N_ 0.352891 0.460467 0.191718 -0.32189
N_ N_ 0.437153 0.368757 0.187306 -0.32189
N_ N_ 0.387367 0.199658 0.447741 -0.32189
N_ N_ 0.304924 0.189198 0.351251 -0.32189
O_ O_ 0.50148 0.0941211 0.396501 -0.63271
O_ O_ 0.0471595 0.0368431 0.335633 -0.57982
O_ O_ 0.38922 0.103785 0.350603 -0.63271
O_ O_ 0.365324 0.0983432 0.428145 -0.57982
O_ O_ 0.242783 0.387495 0.0882838 -0.63271
O_ O_ 0.200109 0.33986 0.0289285 -0.57982
O_ O_ 0.353336 0.349482 0.0883902 -0.63271
O_ O_ 0.365423 0.434325 0.0898159 -0.57982
O_ O_ 0.99116 0.410528 0.0990842 -0.63271
O_ O_ 0.447094 0.473794 0.15669 -0.57982
O_ O_ 0.103298 0.403546 0.151027 -0.63271
O_ O_ 0.131631 0.41524 0.0784722 -0.57982
O_ O_ 0.253392 0.103094 0.405184 -0.63271
O_ O_ 0.283381 0.165304 0.460713 -0.57982
O_ O_ 0.149058 0.159106 0.396073 -0.63271
O_ O_ 0.101545 0.0939778 0.406789 -0.57982
F_ F_ 0.433592 0.327488 0.429278 -0.20885
F_ F_ 0.430176 0.311997 0.344532 -0.20885
F_ F_ 0.367713 0.291359 0.38986 -0.20885
F_ F_ 0.318827 0.429503 0.322998 -0.20885
F_ F_ 0.323649 0.343797 0.304482 -0.20885
F_ F_ 0.381462 0.390394 0.285543 -0.20885
F_ F_ 0.0650558 0.170007 0.0418393 -0.20885
F_ F_ 0.0521216 0.176178 0.123084 -0.20885
F_ F_ 0.126444 0.19723 0.0982618 -0.20885
F_ F_ 0.165024 0.0676588 0.172253 -0.20885
F_ F_ 0.160042 0.148631 0.176376 -0.20885
F_ F_ 0.0918845 0.112831 0.188565 -0.20885
Zn Zn 0.0905192 0.0823249 0.841892 0.83971
Zn Zn 0.161091 0.338552 0.57615 0.83971
Zn Zn 0.408479 0.409237 0.649512 0.83971
Zn Zn 0.339617 0.15397 0.913584 0.83971
H_ H_ 0.166027 0.130334 0.793529 0.10394
H_ H_ 0.25171 0.0993403 0.76619 0.10394
H_ H_ 0.207556 0.446931 0.782415 0.10394
H_ H_ 0.142228 0.980047 0.830078 0.10394
H_ H_ 0.539754 0.0973048 0.748308 0.10394
H_ H_ 0.488259 0.163559 0.703626 0.10394
H_ H_ 0.0303335 0.26886 0.824216 0.10394
H_ H_ 0.0741886 0.194801 0.871986 0.10394
H_ H_ 0.0197008 0.449659 0.849705 0.10394
H_ H_ 0.474755 0.373546 0.860843 0.10394
H_ H_ 0.357518 0.486592 0.908177 0.10394
H_ H_ 0.0791673 0.301083 0.629983 0.10394
H_ H_ 0.51392 0.255711 0.60264 0.10394
H_ H_ 0.0252009 0.294414 0.944045 0.10394
H_ H_ 0.117001 0.313415 0.477767 0.10394
H_ H_ 0.226694 0.240737 0.591057 0.10394
H_ H_ 0.268705 0.203774 0.664379 0.10394
H_ H_ 0.216594 0.333067 0.761732 0.10394
H_ H_ 0.188287 0.375463 0.677496 0.10394
H_ H_ 0.208069 0.380126 0.94143 0.10394
H_ H_ 0.260499 0.401463 0.876212 0.10394
H_ H_ 0.39117 0.406672 0.983375 0.10394
H_ H_ 0.306054 0.393849 0.658903 0.10394
H_ H_ 0.235441 0.446249 0.693118 0.10394
H_ H_ 0.333253 0.0497627 0.771608 0.10394
H_ H_ 0.411041 0.495199 0.72901 0.10394
H_ H_ 0.00850168 0.38698 0.713496 0.10394
H_ H_ 0.0555699 0.30892 0.74451 0.10394
H_ H_ 0.416278 0.243426 0.72593 0.10394
H_ H_ 0.370389 0.327252 0.69818 0.10394
H_ H_ 0.455937 0.0443225 0.611535 0.10394
H_ H_ 0.00861388 0.114992 0.616217 0.10394
H_ H_ 0.136732 0.00400558 0.592999 0.10394
H_ H_ 0.439231 0.167644 0.887658 0.10394
H_ H_ 0.00968803 0.192874 0.943483 0.10394
H_ H_ 0.412628 0.276153 0.553274 0.10394
H_ H_ 0.342907 0.237655 -0.004766000000000048 0.10394
H_ H_ 0.226783 0.198821 0.878864 0.10394
H_ H_ 0.191236 0.233918 0.791315 0.10394
H_ H_ 0.340853 0.221466 0.747422 0.10394
H_ H_ 0.375561 0.175538 0.824178 0.10394
H_ H_ 0.273247 0.11943 0.548201 0.10394
H_ H_ 0.227622 0.0944599 0.607801 0.10394
H_ H_ 0.0915403 0.110786 0.500351 0.10394
C_ C_ 0.182837 0.0920815 0.799301 0.18167
C_ C_ 0.226246 0.0739327 0.778436 -0.15533
C_ C_ 0.236004 0.0206791 0.768389 0.02923
C_ C_ 0.198371 0.486394 0.781627 -0.15533
C_ C_ 0.164016 0.00834407 0.811165 0.18167
C_ C_ 0.0319977 0.130598 0.766406 0.18167
C_ C_ 0.505893 0.173233 0.742496 -0.15533
C_ C_ 0.00984401 0.221221 0.756537 0.02923
C_ C_ 0.033752 0.230341 0.804063 -0.15533
C_ C_ 0.0561674 0.187943 0.833425 0.18167
C_ C_ 0.0093823 0.044323 0.861512 0.69207
C_ C_ 0.468758 0.505713 0.860773 0.02923
C_ C_ 0.489213 0.451858 0.858528 -0.15533
C_ C_ 0.456544 0.413833 0.863696 -0.15533
C_ C_ 0.40915 0.426674 0.884071 0.02923
C_ C_ 0.393628 0.478064 0.894518 -0.15533
C_ C_ 0.420192 0.51794 0.880734 0.02923
C_ C_ 0.3971 0.0689688 0.877033 0.69207
C_ C_ 0.391456 0.33325 0.883968 0.69661
C_ C_ 0.069924 0.298304 0.589324 0.18167
C_ C_ 0.0217662 0.284787 0.571044 -0.15533
C_ C_ 0.0108295 0.27435 0.518828 0.02923
C_ C_ 0.0361081 0.298231 0.984103 -0.15533
C_ C_ 0.0913326 0.301503 0.504476 0.18167
C_ C_ 0.225387 0.260901 0.628716 0.18167
C_ C_ 0.244696 0.236141 0.67086 -0.15533
C_ C_ 0.244766 0.261559 0.72 0.02923
C_ C_ 0.216146 0.311437 0.723197 -0.15533
C_ C_ 0.20059 0.335769 0.678866 0.18167
C_ C_ 0.238995 0.371043 0.538663 0.69207
C_ C_ 0.271 0.384403 0.00412806 0.02923
C_ C_ 0.249145 0.38484 0.951536 -0.15533
C_ C_ 0.27821 0.396322 0.913177 -0.15533
C_ C_ 0.331349 0.398698 0.923608 0.02923
C_ C_ 0.352614 0.400916 0.975655 -0.15533
C_ C_ 0.322607 0.398635 0.0149821 0.02923
C_ C_ 0.348168 0.390504 0.566339 0.69207
C_ C_ 0.338589 0.391512 0.82588 0.69661
C_ C_ 0.31091 0.430696 0.67827 0.18167
C_ C_ 0.27205 0.454004 0.706393 -0.15533
C_ C_ 0.278988 0.495005 0.740324 0.02923
C_ C_ 0.327593 0.0143526 0.74713 -0.15533
C_ C_ 0.369825 0.482452 0.724468 0.18167
C_ C_ 0.490081 0.350423 0.695457 0.18167
C_ C_ 0.0166118 0.307786 0.725229 -0.15533
C_ C_ 0.488822 0.266878 0.725881 0.02923
C_ C_ 0.436616 0.271403 0.711343 -0.15533
C_ C_ 0.411296 0.31744 0.693356 0.18167
C_ C_ 0.491287 0.448828 0.61881 0.69207
C_ C_ 0.0154415 0.988744 0.618136 0.02923
C_ C_ -0.00404199999999999 0.0385941 0.620487 -0.15533
C_ C_ 0.0252461 0.0771701 0.612928 -0.15533
C_ C_ 0.0760654 0.0659535 0.598047 0.02923
C_ C_ 0.0955966 0.0151899 0.595165 -0.15533
C_ C_ 0.0645449 0.973336 0.600737 0.02923
C_ C_ 0.103959 0.41785 0.606674 0.69207
C_ C_ 0.0940893 0.159926 0.611774 0.69661
C_ C_ 0.436241 0.188749 0.924713 0.18167
C_ C_ 0.475845 0.211973 0.952443 -0.15533
C_ C_ 0.467179 0.247572 0.991107 0.02923
C_ C_ 0.42113 0.255551 0.517022 -0.15533
C_ C_ 0.379328 0.234069 0.978788 0.18167
C_ C_ 0.250803 0.201767 0.847324 0.18167
C_ C_ 0.229317 0.222536 0.801402 -0.15533
C_ C_ 0.264087 0.231947 0.767621 0.02923
C_ C_ 0.315404 0.210253 0.771259 -0.15533
C_ C_ 0.336002 0.191936 0.818452 0.18167
C_ C_ 0.262526 0.121231 0.955878 0.69207
C_ C_ 0.215556 0.121943 0.485088 0.02923
C_ C_ 0.235773 0.118234 0.537321 -0.15533
C_ C_ 0.206593 0.106807 0.573743 -0.15533
C_ C_ 0.152281 0.0993971 0.562952 0.02923
C_ C_ 0.132011 0.105045 0.51125 -0.15533
C_ C_ 0.163173 0.115382 0.473452 0.02923
C_ C_ 0.152488 0.105852 0.92159 0.69207
C_ C_ 0.144575 0.0973998 0.662422 0.69661
C_ C_ 0.368175 0.387913 0.880888 -0.30787
C_ C_ 0.116751 0.104372 0.606718 -0.30787
N_ N_ 0.151073 0.0585055 0.81133 -0.32189
N_ N_ 0.0603618 0.140521 0.810083 -0.32189
N_ N_ 0.104365 0.305232 0.555423 -0.32189
N_ N_ 0.201177 0.309295 0.633262 -0.32189
N_ N_ 0.35882 0.445039 0.688319 -0.32189
N_ N_ 0.438856 0.353646 0.680674 -0.32189
N_ N_ 0.388452 0.198066 0.940362 -0.32189
N_ N_ 0.302377 0.183885 0.853167 -0.32189
O_ O_ 0.507832 0.0925563 0.892517 -0.63271
O_ O_ 0.0432675 0.0368156 0.828382 -0.57982
O_ O_ 0.394703 0.0929444 0.835375 -0.63271
O_ O_ 0.373196 0.0891511 0.916207 -0.57982
O_ O_ 0.241089 0.395585 0.583826 -0.63271
O_ O_ 0.206569 0.337584 0.527396 -0.57982
O_ O_ 0.348987 0.346157 0.590135 -0.63271
O_ O_ 0.382431 0.42041 0.583577 -0.57982
O_ O_ 0.996702 0.40352 0.607633 -0.63271
O_ O_ 0.458373 0.454031 0.653516 -0.57982
O_ O_ 0.102789 0.388911 0.644877 -0.63271
O_ O_ 0.136941 0.403169 0.5733 -0.57982
O_ O_ 0.258798 0.0955956 0.91237 -0.63271
O_ O_ 0.295775 0.155106 0.962648 -0.57982
O_ O_ 0.151023 0.147731 0.897847 -0.63271
O_ O_ 0.121058 0.072832 0.903498 -0.57982
F_ F_ 0.428816 0.329361 0.923855 -0.20885
F_ F_ 0.414175 0.311229 0.841091 -0.20885
F_ F_ 0.359544 0.296897 0.890012 -0.20885
F_ F_ 0.31167 0.438553 0.819764 -0.20885
F_ F_ 0.303271 0.355087 0.815339 -0.20885
F_ F_ 0.373718 0.383791 0.789358 -0.20885
F_ F_ 0.0557816 0.169989 0.573121 -0.20885
F_ F_ 0.0701208 0.17454 0.655365 -0.20885
F_ F_ 0.128907 0.194776 0.606266 -0.20885
F_ F_ 0.178256 0.0535857 0.667311 -0.20885
F_ F_ 0.173369 0.137095 0.679367 -0.20885
F_ F_ 0.112146 0.0982255 0.70239 -0.20885
Zn Zn 0.0898582 0.582473 0.357504 0.83971
Zn Zn 0.166042 0.843713 0.0816676 0.83971
Zn Zn 0.414138 0.916865 0.153675 0.83971
Zn Zn 0.344002 0.653105 0.417774 0.83971
H_ H_ 0.157673 0.630087 0.298124 0.10394
H_ H_ 0.238642 0.596493 0.2715 0.10394
H_ H_ 0.20903 0.952202 0.272099 0.10394
H_ H_ 0.128231 0.477438 0.323245 0.10394
H_ H_ 0.515287 0.594664 0.267064 0.10394
H_ H_ 0.469616 0.66631 0.219298 0.10394
H_ H_ 0.0319178 0.766018 0.340917 0.10394
H_ H_ 0.0691294 0.691049 0.3871 0.10394
H_ H_ 0.0412268 0.954686 0.384209 0.10394
H_ H_ 0.480487 0.890787 0.398129 0.10394
H_ H_ 0.345009 0.989301 0.408624 0.10394
H_ H_ 0.0885924 0.811308 0.129463 0.10394
H_ H_ 0.496688 0.783089 0.0989601 0.10394
H_ H_ 0.044486 0.765107 0.451714 0.10394
H_ H_ 0.123244 0.810379 0.977579 0.10394
H_ H_ 0.226247 0.751483 0.103163 0.10394
H_ H_ 0.256659 0.701712 0.178381 0.10394
H_ H_ 0.236756 0.846612 0.266121 0.10394
H_ H_ 0.194414 0.887043 0.186593 0.10394
H_ H_ 0.209195 0.891193 0.452538 0.10394
H_ H_ 0.257979 0.896229 0.386697 0.10394
H_ H_ 0.387951 0.9081 0.491289 0.10394
H_ H_ 0.302481 0.909776 0.153674 0.10394
H_ H_ 0.233727 0.959327 0.187216 0.10394
H_ H_ 0.326986 0.548075 0.286831 0.10394
H_ H_ 0.407198 -0.00845498 0.246856 0.10394
H_ H_ 0.0171738 0.875851 0.200985 0.10394
H_ H_ 0.0588252 0.800653 0.240536 0.10394
H_ H_ 0.402623 0.759096 0.243832 0.10394
H_ H_ 0.372507 0.847975 0.214486 0.10394
H_ H_ 0.458906 0.570798 0.116238 0.10394
H_ H_ 0.0128781 0.622557 0.0981024 0.10394
H_ H_ 0.143648 0.507969 0.107978 0.10394
H_ H_ 0.440184 0.669389 0.381177 0.10394
H_ H_ 0.0202326 0.676199 0.469297 0.10394
H_ H_ 0.414413 0.79389 0.0310795 0.10394
H_ H_ 0.353624 0.721545 0.504159 0.10394
H_ H_ 0.234015 0.712483 0.386756 0.10394
H_ H_ 0.195791 0.747407 0.308302 0.10394
H_ H_ 0.337481 0.716804 0.248495 0.10394
H_ H_ 0.370507 0.671884 0.318625 0.10394
H_ H_ 0.290962 0.608033 0.0530862 0.10394
H_ H_ 0.238603 0.600096 0.120665 0.10394
H_ H_ 0.108219 0.584791 0.00440992 0.10394
C_ C_ 0.168081 0.588804 0.296686 0.18167
C_ C_ 0.216508 0.570327 0.284026 -0.15533
C_ C_ 0.228676 0.517395 0.277714 0.02923
C_ C_ 0.200634 0.99106 0.279518 -0.15533
C_ C_ 0.148855 0.504761 0.30672 0.18167
C_ C_ 0.0370436 0.631937 0.276173 0.18167
C_ C_ 0.494942 0.67387 0.251365 -0.15533
C_ C_ 0.0117089 0.720363 0.270227 0.02923
C_ C_ 0.0294574 0.728261 0.322985 -0.15533
C_ C_ 0.0514926 0.684944 0.350781 0.18167
C_ C_ 0.0131844 0.539804 0.375868 0.69207
C_ C_ 0.46255 0.0142861 0.376873 0.02923
C_ C_ 0.485036 0.964322 0.375826 -0.15533
C_ C_ 0.459793 0.924646 0.390495 -0.15533
C_ C_ 0.406357 0.93221 0.39768 0.02923
C_ C_ 0.385095 0.982392 0.401282 -0.15533
C_ C_ 0.411764 0.024347 0.389975 0.02923
C_ C_ 0.396972 0.569903 0.395961 0.69207
C_ C_ 0.396747 0.837023 0.392853 0.69661
C_ C_ 0.0765784 0.801164 0.0891132 0.18167
C_ C_ 0.0295487 0.782114 0.0692062 -0.15533
C_ C_ 0.0172935 0.771878 0.0167371 0.02923
C_ C_ 0.0513219 0.777348 0.49262 -0.15533
C_ C_ 0.100059 0.801251 0.00436912 0.18167
C_ C_ 0.217605 0.767811 0.139107 0.18167
C_ C_ 0.240318 0.742244 0.182517 -0.15533
C_ C_ 0.242026 0.769498 0.229111 0.02923
C_ C_ 0.224232 0.822691 0.231022 -0.15533
C_ C_ 0.204409 0.845256 0.186306 0.18167
C_ C_ 0.247475 0.857487 0.0443954 0.69207
C_ C_ 0.270519 0.883588 0.511994 0.02923
C_ C_ 0.24915 0.882537 0.461613 -0.15533
C_ C_ 0.279969 0.889121 0.422498 -0.15533
C_ C_ 0.330837 0.894434 0.433086 0.02923
C_ C_ 0.350908 0.898659 0.484872 -0.15533
C_ C_ 0.323131 0.888399 0.523395 0.02923
C_ C_ 0.355503 0.884115 0.0719921 0.69207
C_ C_ 0.340814 0.896092 0.334706 0.69661
C_ C_ 0.310936 0.942446 0.173704 0.18167
C_ C_ 0.271067 0.971071 0.196078 -0.15533
C_ C_ 0.279099 1.0077055 0.236945 0.02923
C_ C_ 0.32084 0.5181 0.257402 -0.15533
C_ C_ 0.368952 0.989567 0.230908 0.18167
C_ C_ 0.493881 0.842434 0.190654 0.18167
C_ C_ 0.0179233 0.804495 0.229972 -0.15533
C_ C_ 0.480253 0.76941 0.236265 0.02923
C_ C_ 0.428117 0.783105 0.227507 -0.15533
C_ C_ 0.411365 0.829672 0.20925 0.18167
C_ C_ 0.496934 0.954437 0.124976 0.69207
C_ C_ 0.0202186 0.494742 0.108363 0.02923
C_ C_ 0.000757109 0.544994 0.106325 -0.15533
C_ C_ 0.0313269 0.584706 0.0989215 -0.15533
C_ C_ 0.0855974 0.571591 0.101377 0.02923
C_ C_ 0.104674 0.518859 0.107528 -0.15533
C_ C_ 0.0736423 0.482125 0.113493 0.02923
C_ C_ 0.0988491 0.91983 0.1045 0.69207
C_ C_ 0.106899 0.667895 0.0972241 0.69661
C_ C_ 0.439152 0.687261 0.419713 0.18167
C_ C_ 0.480341 0.708491 0.441781 -0.15533
C_ C_ 0.47712 0.740529 0.488697 0.02923
C_ C_ 0.425146 0.754858 0.0109638 -0.15533
C_ C_ 0.388097 0.725412 0.483787 0.18167
C_ C_ 0.256233 0.709223 0.35659 0.18167
C_ C_ 0.234488 0.73384 0.312978 -0.15533
C_ C_ 0.265682 0.742202 0.275065 0.02923
C_ C_ 0.314466 0.717332 0.277461 -0.15533
C_ C_ 0.334462 0.693581 0.321778 0.18167
C_ C_ 0.266137 0.624844 0.452871 0.69207
C_ C_ 0.230826 0.6045 0.991394 0.02923
C_ C_ 0.251879 0.598185 0.0429809 -0.15533
C_ C_ 0.219843 0.595163 0.0808853 -0.15533
C_ C_ 0.165145 0.597569 0.0685772 0.02923
C_ C_ 0.14749 0.592754 0.0161613 -0.15533
C_ C_ 0.17859 0.605186 0.979344 0.02923
C_ C_ 0.159879 0.598204 0.426613 0.69207
C_ C_ 0.147498 0.615076 0.162096 0.69661
C_ C_ 0.369003 0.891437 0.39044 -0.30787
C_ C_ 0.125593 0.611259 0.106987 -0.30787
N_ N_ 0.13484 0.556945 0.310428 -0.32189
N_ N_ 0.0553576 0.638914 0.32543 -0.32189
N_ N_ 0.110201 0.810279 0.0559422 -0.32189
N_ N_ 0.195573 0.816691 0.142223 -0.32189
N_ N_ 0.360821 0.952475 0.192165 -0.32189
N_ N_ 0.443396 0.857077 0.186137 -0.32189
N_ N_ 0.395889 0.690521 0.443261 -0.32189
N_ N_ 0.305947 0.690047 0.361566 -0.32189
O_ O_ 0.502636 0.591506 0.400831 -0.63271
O_ O_ 0.0454943 0.535039 0.341701 -0.57982
O_ O_ 0.393864 0.596697 0.354297 -0.63271
O_ O_ 0.376801 0.590574 0.434678 -0.57982
O_ O_ 0.245707 0.885769 0.0877103 -0.63271
O_ O_ 0.209866 0.828196 0.0309851 -0.57982
O_ O_ 0.35366 0.846709 0.102372 -0.63271
O_ O_ 0.391388 0.913431 0.0848416 -0.57982
O_ O_ 0.989817 0.901368 0.10502 -0.63271
O_ O_ 0.462551 0.960725 0.156297 -0.57982
O_ O_ 0.105241 0.898399 0.149897 -0.63271
O_ O_ 0.135121 0.905504 0.074163 -0.57982
O_ O_ 0.259837 0.604808 0.405772 -0.63271
O_ O_ 0.298921 0.658244 0.462785 -0.57982
O_ O_ 0.153287 0.637805 0.398082 -0.63271
O_ O_ 0.124968 0.566977 0.416642 -0.57982
F_ F_ 0.427902 0.830783 0.436964 -0.20885
F_ F_ 0.429044 0.824119 0.353591 -0.20885
F_ F_ 0.365982 0.797392 0.390147 -0.20885
F_ F_ 0.307903 0.940556 0.3262 -0.20885
F_ F_ 0.312378 0.855939 0.320464 -0.20885
F_ F_ 0.378857 0.894757 0.301664 -0.20885
F_ F_ 0.0720239 0.669673 0.0571439 -0.20885
F_ F_ 0.090677 0.701427 0.134141 -0.20885
F_ F_ 0.143871 0.694419 0.0833849 -0.20885
F_ F_ 0.174208 0.568904 0.176541 -0.20885
F_ F_ 0.18068 0.649461 0.176571 -0.20885
F_ F_ 0.107681 0.625062 0.194895 -0.20885
Zn Zn 0.0910469 0.585046 0.849869 0.83971
Zn Zn 0.158213 0.848391 0.591632 0.83971
Zn Zn 0.408066 0.907044 0.658019 0.83971
Zn Zn 0.342717 0.65052 0.921981 0.83971
H_ H_ 0.178205 0.628852 0.81718 0.10394
H_ H_ 0.248104 0.595844 0.766801 0.10394
H_ H_ 0.205503 0.948174 0.769948 0.10394
H_ H_ 0.129556 0.481717 0.813848 0.10394
H_ H_ 0.54747 0.599843 0.752749 0.10394
H_ H_ 0.4948 0.669036 0.711736 0.10394
H_ H_ 0.0388264 0.774929 0.832223 0.10394
H_ H_ 0.0710505 0.699842 0.886205 0.10394
H_ H_ 0.0350626 0.947223 0.859144 0.10394
H_ H_ 0.48843 0.87856 0.882522 0.10394
H_ H_ 0.355012 0.987252 0.900814 0.10394
H_ H_ 0.0835243 0.796302 0.639709 0.10394
H_ H_ 0.508494 0.752713 0.585795 0.10394
H_ H_ 0.048904 0.773258 0.942928 0.10394
H_ H_ 0.113641 0.822959 0.490414 0.10394
H_ H_ 0.210043 0.744691 0.611256 0.10394
H_ H_ 0.239554 0.703302 0.69048 0.10394
H_ H_ 0.215677 0.846144 0.778252 0.10394
H_ H_ 0.173987 0.880936 0.699302 0.10394
H_ H_ 0.221026 0.858568 0.941995 0.10394
H_ H_ 0.273385 0.879457 0.873807 0.10394
H_ H_ 0.397477 0.905417 0.988396 0.10394
H_ H_ 0.306885 0.88054 0.675611 0.10394
H_ H_ 0.232911 0.943052 0.690493 0.10394
H_ H_ 0.335085 0.544136 0.77378 0.10394
H_ H_ 0.405408 -0.003866999999999954 0.72951 0.10394
H_ H_ 0.018335 0.875424 0.689007 0.10394
H_ H_ 0.0654062 0.800802 0.725023 0.10394
H_ H_ 0.421737 0.737779 0.723533 0.10394
H_ H_ 0.377546 0.810465 0.684774 0.10394
H_ H_ 0.459124 0.547474 0.616438 0.10394
H_ H_ 0.0223287 0.613372 0.591631 0.10394
H_ H_ 0.152302 0.498669 0.599439 0.10394
H_ H_ 0.448801 0.616819 0.952814 0.10394
H_ H_ 0.0174796 0.690035 0.953496 0.10394
H_ H_ 0.423007 0.773823 0.544824 0.10394
H_ H_ 0.346809 0.747781 -0.013699000000000017 0.10394
H_ H_ 0.240306 0.696114 0.893669 0.10394
H_ H_ 0.201103 0.755631 0.828834 0.10394
H_ H_ 0.33945 0.734573 0.756979 0.10394
H_ H_ 0.380552 0.690369 0.828607 0.10394
H_ H_ 0.292896 0.62248 0.556623 0.10394
H_ H_ 0.234097 0.621769 0.622756 0.10394
H_ H_ 0.113304 0.583819 0.505942 0.10394
C_ C_ 0.181601 0.588598 0.804635 0.18167
C_ C_ 0.227175 0.568238 0.783052 -0.15533
C_ C_ 0.237418 0.516659 0.77266 0.02923
C_ C_ 0.202623 0.98832 0.782251 -0.15533
C_ C_ 0.153779 0.506508 0.800422 0.18167
C_ C_ 0.0339082 0.63627 0.777704 0.18167
C_ C_ 0.51768 0.678204 0.747736 -0.15533
C_ C_ 0.0188118 0.728458 0.767608 0.02923
C_ C_ 0.0350919 0.735483 0.818785 -0.15533
C_ C_ 0.0578755 0.694438 0.846316 0.18167
C_ C_ 0.00731873 0.5492 0.869351 0.69207
C_ C_ 0.477457 0.00706534 0.875373 0.02923
C_ C_ 0.496783 0.954456 0.872219 -0.15533
C_ C_ 0.467709 0.915964 0.878795 -0.15533
C_ C_ 0.414138 0.925635 0.884321 0.02923
C_ C_ 0.394044 0.978878 0.889355 -0.15533
C_ C_ 0.424873 0.0190608 0.882425 0.02923
C_ C_ 0.391846 0.567616 0.878871 0.69207
C_ C_ 0.403157 0.826793 0.885493 0.69661
C_ C_ 0.0757675 0.789205 0.598484 0.18167
C_ C_ 0.0317845 0.766103 0.581044 -0.15533
C_ C_ 0.0200327 0.760394 0.528194 0.02923
C_ C_ 0.0558662 0.779204 0.98447 -0.15533
C_ C_ 0.0915851 0.803829 0.513823 0.18167
C_ C_ 0.211217 0.768694 0.64865 0.18167
C_ C_ 0.228558 0.744342 0.693414 -0.15533
C_ C_ 0.235108 0.771317 0.740906 0.02923
C_ C_ 0.213993 0.822189 0.743195 -0.15533
C_ C_ 0.192449 0.844409 0.698294 0.18167
C_ C_ 0.233847 0.8728 0.552223 0.69207
C_ C_ 0.283411 0.866608 0.00459337 0.02923
C_ C_ 0.261201 0.868331 0.953049 -0.15533
C_ C_ 0.290796 0.881663 0.914791 -0.15533
C_ C_ 0.341176 0.891386 0.925196 0.02923
C_ C_ 0.361328 0.892425 0.977704 -0.15533
C_ C_ 0.333413 0.88144 0.0178146 0.02923
C_ C_ 0.348824 0.882171 0.575537 0.69207
C_ C_ 0.355052 0.888373 0.827708 0.69661
C_ C_ 0.311718 0.919283 0.695136 0.18167
C_ C_ 0.270575 0.95331 0.700161 -0.15533
C_ C_ 0.276879 0.998774 0.732893 0.02923
C_ C_ 0.326995 0.513501 0.746077 -0.15533
C_ C_ 0.366788 0.98412 0.724874 0.18167
C_ C_ 0.491166 0.85596 0.714663 0.18167
C_ C_ 0.0226199 0.80635 0.722057 -0.15533
C_ C_ 0.490529 0.770558 0.744173 0.02923
C_ C_ 0.441682 0.769516 0.721514 -0.15533
C_ C_ 0.416374 0.812058 0.700397 0.18167
C_ C_ 0.487494 0.945189 0.625233 0.69207
C_ C_ 0.0272123 0.485475 0.620323 0.02923
C_ C_ 1.00704524 0.536973 0.608586 -0.15533
C_ C_ 0.0392982 0.575342 0.59988 -0.15533
C_ C_ 0.0928704 0.562234 0.598775 0.02923
C_ C_ 0.111868 0.509562 0.600119 -0.15533
C_ C_ 0.0802341 0.471978 0.608576 0.02923
C_ C_ 0.0897027 0.920057 0.604434 0.69207
C_ C_ 0.103619 0.659482 0.606351 0.69661
C_ C_ 0.443164 0.65729 0.964047 0.18167
C_ C_ 0.485681 0.681827 0.986529 -0.15533
C_ C_ 0.476105 0.732543 0.00653583 0.02923
C_ C_ 0.429968 0.74615 0.510788 -0.15533
C_ C_ 0.385184 0.729281 0.985399 0.18167
C_ C_ 0.261316 0.70964 0.865353 0.18167
C_ C_ 0.237804 0.734964 0.822898 -0.15533
C_ C_ 0.263952 0.749281 0.785481 0.02923
C_ C_ 0.315741 0.728663 0.785871 -0.15533
C_ C_ 0.339324 0.701171 0.827256 0.18167
C_ C_ 0.264832 0.616936 0.954034 0.69207
C_ C_ 0.232579 0.616756 0.491969 0.02923
C_ C_ 0.252339 0.61985 0.544972 -0.15533
C_ C_ 0.220001 0.61481 0.583044 -0.15533
C_ C_ 0.17086 0.600503 0.570879 0.02923
C_ C_ 0.155118 0.589648 0.518198 -0.15533
C_ C_ 0.184305 0.600251 0.48007 0.02923
C_ C_ 0.154058 0.607176 0.928128 0.69207
C_ C_ 0.148615 0.599305 0.667557 0.69661
C_ C_ 0.378881 0.883582 0.881455 -0.30787
C_ C_ 0.12988 0.604711 0.610647 -0.30787
N_ N_ 0.143085 0.557719 0.807637 -0.32189
N_ N_ 0.0556756 0.645158 0.825233 -0.32189
N_ N_ 0.105846 0.806274 0.565503 -0.32189
N_ N_ 0.192493 0.818932 0.651671 -0.32189
N_ N_ 0.359319 0.93702 0.699982 -0.32189
N_ N_ 0.441485 0.8536 0.693181 -0.32189
N_ N_ 0.395786 0.68258 0.962457 -0.32189
N_ N_ 0.311469 0.690731 0.86708 -0.32189
O_ O_ 0.493999 0.591287 0.883507 -0.63271
O_ O_ 0.0464511 0.532607 0.846587 -0.57982
O_ O_ 0.376929 0.589729 0.836415 -0.63271
O_ O_ 0.372091 0.585733 0.920702 -0.57982
O_ O_ 0.24101 0.894541 0.598905 -0.63271
O_ O_ 0.19809 0.842266 0.540991 -0.57982
O_ O_ 0.348359 0.839749 0.599493 -0.63271
O_ O_ 0.381963 0.913169 0.594405 -0.57982
O_ O_ 0.985643 0.906253 0.601329 -0.63271
O_ O_ 0.452445 0.953737 0.654896 -0.57982
O_ O_ 0.0877581 0.894674 0.644141 -0.63271
O_ O_ 0.12625 0.905911 0.577463 -0.57982
O_ O_ 0.258175 0.597846 0.907779 -0.63271
O_ O_ 0.296895 0.652182 0.965864 -0.57982
O_ O_ 0.149463 0.650886 0.903944 -0.63271
O_ O_ 0.121434 0.573905 0.911527 -0.57982
F_ F_ 0.441427 0.824292 0.924078 -0.20885
F_ F_ 0.42614 0.806783 0.841669 -0.20885
F_ F_ 0.3697 0.793639 0.89896 -0.20885
F_ F_ 0.316871 0.929024 0.821936 -0.20885
F_ F_ 0.332511 0.846434 0.810472 -0.20885
F_ F_ 0.390645 0.891909 0.792702 -0.20885
F_ F_ 0.0744504 0.664069 0.559762 -0.20885
F_ F_ 0.0740013 0.676404 0.642623 -0.20885
F_ F_ 0.139664 0.692165 0.61389 -0.20885
F_ F_ 0.184027 0.556273 0.66767 -0.20885
F_ F_ 0.174838 0.638274 0.688414 -0.20885
F_ F_ 0.110076 0.598913 0.696315 -0.20885
Zn Zn 0.57794 0.0925391 0.340888 0.83971
Zn Zn 0.653823 0.35318 0.0896897 0.83971
Zn Zn 0.909652 0.420818 0.151598 0.83971
Zn Zn 0.837312 0.153475 0.415602 0.83971
H_ H_ 0.668688 0.136212 0.312502 0.10394
H_ H_ 0.747668 0.0998868 0.288405 0.10394
H_ H_ 0.705892 0.444631 0.294659 0.10394
H_ H_ 0.607754 0.995192 0.290015 0.10394
H_ H_ 0.0338057 0.0973985 0.24286 0.10394
H_ H_ 0.979352 0.165934 0.19834 0.10394
H_ H_ 0.529321 0.281653 0.33799 0.10394
H_ H_ 0.552641 0.20292 0.383782 0.10394
H_ H_ 0.533282 0.442173 0.373502 0.10394
H_ H_ 0.982426 0.370282 0.376397 0.10394
H_ H_ 0.851579 0.486964 0.388065 0.10394
H_ H_ 0.576533 0.30083 0.128953 0.10394
H_ H_ 0.9942591 0.275996 0.096786 0.10394
H_ H_ 0.534379 0.282429 0.446924 0.10394
H_ H_ 0.595605 0.352424 0.9836 0.10394
H_ H_ 0.718218 0.258844 0.0974278 0.10394
H_ H_ 0.747908 0.202859 0.168551 0.10394
H_ H_ 0.716198 0.334173 0.273027 0.10394
H_ H_ 0.66527 0.381328 0.195589 0.10394
H_ H_ 0.71219 0.391438 0.440038 0.10394
H_ H_ 0.770281 0.384698 0.377564 0.10394
H_ H_ 0.89261 0.424734 0.486026 0.10394
H_ H_ 0.810851 0.39613 0.164826 0.10394
H_ H_ 0.738941 0.436523 0.200886 0.10394
H_ H_ 0.825059 0.0532892 0.27622 0.10394
H_ H_ 0.900104 0.510456 0.22451 0.10394
H_ H_ 0.512452 0.384415 0.183893 0.10394
H_ H_ 0.551594 0.313099 0.22871 0.10394
H_ H_ 0.903831 0.246411 0.201519 0.10394
H_ H_ 0.873459 0.32505 0.164413 0.10394
H_ H_ 0.959429 0.0463691 0.117323 0.10394
H_ H_ 0.516371 0.124362 0.111299 0.10394
H_ H_ 0.64806 0.0168246 0.0926785 0.10394
H_ H_ 0.938981 0.164085 0.391368 0.10394
H_ H_ 0.514875 0.186488 0.452541 0.10394
H_ H_ 0.907783 0.290936 0.0365222 0.10394
H_ H_ 0.83979 0.224541 0.496771 0.10394
H_ H_ 0.73335 0.202838 0.389241 0.10394
H_ H_ 0.689624 0.245954 0.313241 0.10394
H_ H_ 0.83344 0.224893 0.243474 0.10394
H_ H_ 0.873802 0.182167 0.324306 0.10394
H_ H_ 0.789891 0.118655 0.0513768 0.10394
H_ H_ 0.738183 0.111502 0.11958 0.10394
H_ H_ 0.608297 0.0918312 0.00742882 0.10394
C_ C_ 0.672653 0.0962237 0.301786 0.18167
C_ C_ 0.71801 0.0756701 0.285554 -0.15533
C_ C_ 0.725217 0.0261691 0.266304 0.02923
C_ C_ 0.697315 0.485583 0.292882 -0.15533
C_ C_ 0.638645 0.0180931 0.284679 0.18167
C_ C_ 0.526268 0.150944 0.267464 0.18167
C_ C_ -0.000188037 0.174326 0.233397 -0.15533
C_ C_ 0.503009 0.241343 0.269141 0.02923
C_ C_ 0.523861 0.245055 0.32104 -0.15533
C_ C_ 0.545819 0.200845 0.344308 0.18167
C_ C_ 0.495222 0.0548908 0.363844 0.69207
C_ C_ 0.976304 0.501293 0.37315 0.02923
C_ C_ 0.994268 0.448296 0.370385 -0.15533
C_ C_ 0.964941 0.410061 0.376609 -0.15533
C_ C_ 0.911829 0.422988 0.384602 0.02923
C_ C_ 0.892413 0.475163 0.382875 -0.15533
C_ C_ 0.923923 0.514054 0.378753 0.02923
C_ C_ 0.897262 0.073446 0.377712 0.69207
C_ C_ 0.90498 0.328157 0.396236 0.69661
C_ C_ 0.56488 0.303432 0.087044 0.18167
C_ C_ 0.518858 0.285852 0.0686736 -0.15533
C_ C_ 0.510559 0.277395 0.0152906 0.02923
C_ C_ 0.542912 0.286669 0.487796 -0.15533
C_ C_ 0.581154 0.325404 0.00644804 0.18167
C_ C_ 0.715929 0.275049 0.135766 0.18167
C_ C_ 0.737045 0.244111 0.177601 -0.15533
C_ C_ 0.733707 0.265731 0.226647 0.02923
C_ C_ 0.712008 0.315531 0.233517 -0.15533
C_ C_ 0.683756 0.340838 0.192007 0.18167
C_ C_ 0.732688 0.38367 0.0477518 0.69207
C_ C_ 0.774826 0.387234 0.504386 0.02923
C_ C_ 0.754397 0.386446 0.451966 -0.15533
C_ C_ 0.786221 0.395923 0.414738 -0.15533
C_ C_ 0.838418 0.397804 0.426626 0.02923
C_ C_ 0.856368 0.406744 0.477567 -0.15533
C_ C_ 0.825225 0.399776 0.518442 0.02923
C_ C_ 0.845863 0.397624 0.0705672 0.69207
C_ C_ 0.851246 0.380018 0.331151 0.69661
C_ C_ 0.815 0.431259 0.186807 0.18167
C_ C_ 0.774965 0.448126 0.215163 -0.15533
C_ C_ 0.780075 0.490036 0.249117 0.02923
C_ C_ 0.8197 0.0175536 0.252386 -0.15533
C_ C_ 0.867213 0.488621 0.22817 0.18167
C_ C_ 0.994065 0.352276 0.193929 0.18167
C_ C_ 0.510166 0.319497 0.227179 -0.15533
C_ C_ 0.985641 0.267307 0.218206 0.02923
C_ C_ 0.931218 0.275201 0.201417 -0.15533
C_ C_ 0.914722 0.318124 0.174596 0.18167
C_ C_ 0.984325 0.458624 0.117975 0.69207
C_ C_ 0.528028 0.995155 0.118236 0.02923
C_ C_ 0.507511 0.0461525 0.122064 -0.15533
C_ C_ 0.536488 0.0857794 0.115177 -0.15533
C_ C_ 0.589141 0.0751141 0.107185 0.02923
C_ C_ 0.609734 0.024685 0.100315 -0.15533
C_ C_ 0.581665 0.984157 0.108987 0.02923
C_ C_ 0.590029 0.434418 0.108766 0.69207
C_ C_ 0.601729 0.172989 0.113245 0.69661
C_ C_ 0.933498 0.186065 0.426615 0.18167
C_ C_ 0.975529 0.2046 0.454998 -0.15533
C_ C_ 0.969032 0.241505 0.496415 0.02923
C_ C_ 0.916139 0.258141 0.00915988 -0.15533
C_ C_ 0.879867 0.220621 0.487984 0.18167
C_ C_ 0.753485 0.206557 0.354881 0.18167
C_ C_ 0.731381 0.232778 0.314534 -0.15533
C_ C_ 0.759681 0.238811 0.27251 0.02923
C_ C_ 0.811082 0.219154 0.275541 -0.15533
C_ C_ 0.832315 0.190577 0.318461 0.18167
C_ C_ 0.758286 0.123326 0.453876 0.69207
C_ C_ 0.7289 0.126004 0.991363 0.02923
C_ C_ 0.747925 0.126022 0.0428238 -0.15533
C_ C_ 0.716163 0.118779 0.0813519 -0.15533
C_ C_ 0.665711 0.108406 0.0711575 0.02923
C_ C_ 0.645665 0.107902 0.0190457 -0.15533
C_ C_ 0.677257 0.115761 0.979667 0.02923
C_ C_ 0.646436 0.119573 0.420734 0.69207
C_ C_ 0.654492 0.10717 0.166991 0.69661
C_ C_ 0.875206 0.382585 0.385259 -0.30787
C_ C_ 0.627051 0.11669 0.112862 -0.30787
N_ N_ 0.633906 0.06705 0.304327 -0.32189
N_ N_ 0.545573 0.155005 0.317872 -0.32189
N_ N_ 0.59514 0.322375 0.0569795 -0.32189
N_ N_ 0.689933 0.321328 0.144728 -0.32189
N_ N_ 0.861565 0.446185 0.197774 -0.32189
N_ N_ 0.945504 0.355865 0.172333 -0.32189
N_ N_ 0.887279 0.190442 0.446083 -0.32189
N_ N_ 0.80478 0.190833 0.358723 -0.32189
O_ O_ -0.0019489999999999785 0.0960304 0.380777 -0.63271
O_ O_ 0.529154 0.0459151 0.330997 -0.57982
O_ O_ 0.891003 0.0980652 0.335587 -0.63271
O_ O_ 0.872491 0.0897285 0.41729 -0.57982
O_ O_ 0.745694 0.397891 0.0952349 -0.63271
O_ O_ 0.694698 0.35444 0.0405803 -0.57982
O_ O_ 0.859453 0.352022 0.0885014 -0.63271
O_ O_ 0.871785 0.434896 0.0901196 -0.57982
O_ O_ 0.48153 0.425858 0.0926151 -0.63271
O_ O_ 0.952752 0.468477 0.153459 -0.57982
O_ O_ 0.579592 0.40235 0.141593 -0.63271
O_ O_ 0.629702 0.418825 0.0819526 -0.57982
O_ O_ 0.750407 0.112597 0.40463 -0.63271
O_ O_ 0.79665 0.149183 0.467316 -0.57982
O_ O_ 0.646425 0.163217 0.39893 -0.63271
O_ O_ 0.612122 0.0887658 0.404212 -0.57982
F_ F_ 0.940238 0.333325 0.43853 -0.20885
F_ F_ 0.929686 0.301223 0.356506 -0.20885
F_ F_ 0.870925 0.295988 0.408409 -0.20885
F_ F_ 0.815606 0.422221 0.32388 -0.20885
F_ F_ 0.824923 0.338449 0.318301 -0.20885
F_ F_ 0.885667 0.378562 0.29457 -0.20885
F_ F_ 0.564994 0.180383 0.0719883 -0.20885
F_ F_ 0.571128 0.183204 0.154499 -0.20885
F_ F_ 0.638104 0.207073 0.116044 -0.20885
F_ F_ 0.688047 0.0629757 0.173529 -0.20885
F_ F_ 0.683162 0.147573 0.18477 -0.20885
F_ F_ 0.621348 0.106755 0.202766 -0.20885
Zn Zn 0.59013 0.0849647 0.847281 0.83971
Zn Zn 0.664368 0.341064 0.577922 0.83971
Zn Zn 0.911343 0.41474 0.650276 0.83971
Zn Zn 0.841893 0.153145 0.913126 0.83971
H_ H_ 0.672199 0.131698 0.803467 0.10394
H_ H_ 0.74828 0.0954932 0.76406 0.10394
H_ H_ 0.708679 0.450538 0.777752 0.10394
H_ H_ 0.637607 0.983695 0.831427 0.10394
H_ H_ 0.0262681 0.0904341 0.752746 0.10394
H_ H_ 0.982538 0.159678 0.700057 0.10394
H_ H_ 0.537935 0.269722 0.8239 0.10394
H_ H_ 0.583164 0.197736 0.870028 0.10394
H_ H_ 0.528272 0.439324 0.847779 0.10394
H_ H_ 0.973828 0.381643 0.871049 0.10394
H_ H_ 0.852234 0.493366 0.900888 0.10394
H_ H_ 0.596285 0.294942 0.628607 0.10394
H_ H_ -0.007684000000000024 0.284802 0.596589 0.10394
H_ H_ 0.530759 0.299277 0.945731 0.10394
H_ H_ 0.607146 0.318378 0.469068 0.10394
H_ H_ 0.728924 0.245252 0.582009 0.10394
H_ H_ 0.788393 0.200733 0.654959 0.10394
H_ H_ 0.710371 0.30435 0.758404 0.10394
H_ H_ 0.679642 0.36358 0.685953 0.10394
H_ H_ 0.715105 0.367405 0.946256 0.10394
H_ H_ 0.765696 0.371523 0.875982 0.10394
H_ H_ 0.876644 0.436525 0.986891 0.10394
H_ H_ 0.805018 0.393928 0.668661 0.10394
H_ H_ 0.728069 0.448602 0.693153 0.10394
H_ H_ 0.832481 0.0497617 0.769895 0.10394
H_ H_ 0.903524 0.49491 0.73644 0.10394
H_ H_ 0.509195 0.384394 0.692294 0.10394
H_ H_ 0.556921 0.302249 0.723891 0.10394
H_ H_ 0.91555 0.238334 0.704635 0.10394
H_ H_ 0.875544 0.316146 0.670386 0.10394
H_ H_ 0.954687 0.0497864 0.625299 0.10394
H_ H_ 0.510915 0.116563 0.603495 0.10394
H_ H_ 0.639854 0.00142429 0.587007 0.10394
H_ H_ 0.93993 0.158889 0.900177 0.10394
H_ H_ 0.516065 0.195818 0.946014 0.10394
H_ H_ 0.908055 0.273177 0.542983 0.10394
H_ H_ 0.838078 0.235542 -0.0028719999999999857 0.10394
H_ H_ 0.736211 0.176097 0.867499 0.10394
H_ H_ 0.700456 0.214062 0.784649 0.10394
H_ H_ 0.850598 0.213871 0.741014 0.10394
H_ H_ 0.88639 0.190608 0.828671 0.10394
H_ H_ 0.781225 0.11207 0.55087 0.10394
H_ H_ 0.728018 0.0956479 0.614874 0.10394
H_ H_ 0.598796 0.0966332 0.503492 0.10394
C_ C_ 0.679061 0.0926625 0.799863 0.18167
C_ C_ 0.724664 0.0713423 0.778131 -0.15533
C_ C_ 0.735583 0.0180249 0.775291 0.02923
C_ C_ 0.702032 0.491008 0.785178 -0.15533
C_ C_ 0.662372 0.00916432 0.817578 0.18167
C_ C_ 0.529133 0.132546 0.769022 0.18167
C_ C_ 0.00858797 0.170211 0.736099 -0.15533
C_ C_ 0.513784 0.223796 0.757485 0.02923
C_ C_ 0.542011 0.232474 0.804139 -0.15533
C_ C_ 0.562532 0.192502 0.833726 0.18167
C_ C_ 0.512194 0.0463708 0.867935 0.69207
C_ C_ 0.972887 0.510061 0.880272 0.02923
C_ C_ 0.984429 0.459625 0.862279 -0.15533
C_ C_ 0.956543 0.421385 0.873229 -0.15533
C_ C_ 0.908309 0.432391 0.889525 0.02923
C_ C_ 0.891682 0.484047 0.899514 -0.15533
C_ C_ 0.92202 0.523875 0.893591 0.02923
C_ C_ 0.895121 0.0655956 0.882466 0.69207
C_ C_ 0.894719 0.336794 0.896831 0.69661
C_ C_ 0.577208 0.297295 0.59003 0.18167
C_ C_ 0.529998 0.276827 0.575533 -0.15533
C_ C_ 0.513046 0.269604 0.522344 0.02923
C_ C_ 0.539864 0.301514 0.984792 -0.15533
C_ C_ 0.586742 0.309197 0.50319 0.18167
C_ C_ 0.730448 0.260537 0.622185 0.18167
C_ C_ 0.759494 0.234359 0.662276 -0.15533
C_ C_ 0.752221 0.251895 0.71247 0.02923
C_ C_ 0.724014 0.29792 0.721982 -0.15533
C_ C_ 0.697484 0.325498 0.679575 0.18167
C_ C_ 0.738375 0.380519 0.541289 0.69207
C_ C_ 0.768959 0.387822 1.00560134 0.02923
C_ C_ 0.753304 0.373527 0.955531 -0.15533
C_ C_ 0.781033 0.381005 0.913829 -0.15533
C_ C_ 0.829445 0.402397 0.923535 0.02923
C_ C_ 0.845352 0.415386 0.976456 -0.15533
C_ C_ 0.819285 0.401639 0.0167552 0.02923
C_ C_ 0.849578 0.39345 0.569648 0.69207
C_ C_ 0.849355 0.38916 0.828904 0.69661
C_ C_ 0.808951 0.434005 0.677671 0.18167
C_ C_ 0.766641 0.460366 0.700658 -0.15533
C_ C_ 0.775919 0.501127 0.737006 0.02923
C_ C_ 0.825618 0.0144964 0.750971 -0.15533
C_ C_ 0.865584 0.486869 0.723566 0.18167
C_ C_ 0.989736 0.351357 0.70727 0.18167
C_ C_ 0.514432 0.309063 0.721566 -0.15533
C_ C_ 0.989161 0.263947 0.723274 0.02923
C_ C_ 0.93844 0.267032 0.70281 -0.15533
C_ C_ 0.915993 0.312622 0.682896 0.18167
C_ C_ 0.992572 0.449228 0.63017 0.69207
C_ C_ 0.518931 0.985185 0.612921 0.02923
C_ C_ 0.496982 0.0363364 0.609307 -0.15533
C_ C_ 0.528331 0.0763969 0.603888 -0.15533
C_ C_ 0.581706 0.0633114 0.600862 0.02923
C_ C_ 0.601267 0.0117291 0.596179 -0.15533
C_ C_ 0.570885 0.972653 0.605226 0.02923
C_ C_ 0.600721 0.420317 0.607353 0.69207
C_ C_ 0.597002 0.163395 0.60622 0.69661
C_ C_ 0.935904 0.179639 0.935487 0.18167
C_ C_ 0.976087 0.205219 0.959343 -0.15533
C_ C_ 0.968086 0.244297 -0.002851000000000048 0.02923
C_ C_ 0.919591 0.245761 0.514399 -0.15533
C_ C_ 0.87699 0.227885 0.98691 0.18167
C_ C_ 0.762007 0.184623 0.838075 0.18167
C_ C_ 0.740777 0.210498 0.794251 -0.15533
C_ C_ 0.772269 0.219362 0.7561 0.02923
C_ C_ 0.826174 0.207236 0.768471 -0.15533
C_ C_ 0.845955 0.191874 0.817394 0.18167
C_ C_ 0.762183 0.127008 0.951871 0.69207
C_ C_ 0.719878 0.118386 0.489714 0.02923
C_ C_ 0.739149 0.117197 0.541302 -0.15533
C_ C_ 0.708769 0.108564 0.57875 -0.15533
C_ C_ 0.65629 0.100248 0.565779 0.02923
C_ C_ 0.638665 0.0984359 0.513282 -0.15533
C_ C_ 0.668341 0.113948 0.475106 0.02923
C_ C_ 0.6531 0.118035 0.924969 0.69207
C_ C_ 0.643671 0.102052 0.661298 0.69661
C_ C_ 0.871402 0.390511 0.884905 -0.30787
C_ C_ 0.619324 0.105285 0.606703 -0.30787
N_ N_ 0.646119 0.060708 0.814449 -0.32189
N_ N_ 0.555194 0.143757 0.815063 -0.32189
N_ N_ 0.605882 0.309945 0.552602 -0.32189
N_ N_ 0.702357 0.307068 0.630673 -0.32189
N_ N_ 0.85718 0.447209 0.689496 -0.32189
N_ N_ 0.94145 0.354122 0.683983 -0.32189
N_ N_ 0.887288 0.193352 0.94813 -0.32189
N_ N_ 0.814209 0.176652 0.848902 -0.32189
O_ O_ 0.010178 0.0855851 0.893463 -0.63271
O_ O_ 0.544827 0.0386555 0.832874 -0.57982
O_ O_ 0.90001 0.0915036 0.842639 -0.63271
O_ O_ 0.868446 0.0890454 0.91945 -0.57982
O_ O_ 0.745729 0.394853 0.588337 -0.63271
O_ O_ 0.698544 0.352504 0.52731 -0.57982
O_ O_ 0.849956 0.350213 0.590028 -0.63271
O_ O_ 0.881163 0.425564 0.588796 -0.57982
O_ O_ 0.485848 0.410529 0.585221 -0.63271
O_ O_ 0.952956 0.464165 0.653415 -0.57982
O_ O_ 0.594649 0.393336 0.644594 -0.63271
O_ O_ 0.639527 0.406126 0.583967 -0.57982
O_ O_ 0.763875 0.0920827 0.915647 -0.63271
O_ O_ 0.792928 0.16236 0.953311 -0.57982
O_ O_ 0.657604 0.158394 0.900608 -0.63271
O_ O_ 0.61269 0.0920885 0.911685 -0.57982
F_ F_ 0.921197 0.334678 0.943097 -0.20885
F_ F_ 0.924044 0.316115 0.85934 -0.20885
F_ F_ 0.856185 0.30514 0.897004 -0.20885
F_ F_ 0.810274 0.430113 0.825495 -0.20885
F_ F_ 0.828977 0.346676 0.810411 -0.20885
F_ F_ 0.887089 0.390872 0.795838 -0.20885
F_ F_ 0.57094 0.171245 0.559038 -0.20885
F_ F_ 0.566548 0.179561 0.64579 -0.20885
F_ F_ 0.630828 0.199759 0.612124 -0.20885
F_ F_ 0.672195 0.0553905 0.667359 -0.20885
F_ F_ 0.676451 0.137974 0.682598 -0.20885
F_ F_ 0.605709 0.102357 0.694371 -0.20885
Zn Zn 0.590038 0.587217 0.350937 0.83971
Zn Zn 0.665025 0.845945 0.0862243 0.83971
Zn Zn 0.912237 0.914234 0.165289 0.83971
Zn Zn 0.844417 0.646269 0.421349 0.83971
H_ H_ 0.670529 0.63195 0.306499 0.10394
H_ H_ 0.742413 0.591427 0.26095 0.10394
H_ H_ 0.694402 0.955029 0.269699 0.10394
H_ H_ 0.630178 0.48349 0.329406 0.10394
H_ H_ 0.0414977 0.594814 0.256744 0.10394
H_ H_ 0.99896123 0.665207 0.209408 0.10394
H_ H_ 0.542837 0.77162 0.324516 0.10394
H_ H_ 0.588438 0.702942 0.369613 0.10394
H_ H_ 0.526097 0.958515 0.37405 0.10394
H_ H_ 0.991345 0.889319 0.407389 0.10394
H_ H_ 0.856913 0.990795 0.389728 0.10394
H_ H_ 0.577626 0.821368 0.13246 0.10394
H_ H_ 1.00331 0.774497 0.0947267 0.10394
H_ H_ 0.540266 0.793112 0.440374 0.10394
H_ H_ 0.626525 0.802323 0.9817 0.10394
H_ H_ 0.729635 0.750896 0.102441 0.10394
H_ H_ 0.767374 0.705148 0.176224 0.10394
H_ H_ 0.716748 0.833384 0.277089 0.10394
H_ H_ 0.684124 0.88052 0.198248 0.10394
H_ H_ 0.729486 0.860691 0.438813 0.10394
H_ H_ 0.775687 0.892616 0.378746 0.10394
H_ H_ 0.898919 0.908127 0.493413 0.10394
H_ H_ 0.809595 0.894382 0.172886 0.10394
H_ H_ 0.733004 0.946753 0.197687 0.10394
H_ H_ 0.83244 0.539882 0.285205 0.10394
H_ H_ 0.900465 0.99897248 0.253396 0.10394
H_ H_ 0.519652 0.869644 0.184391 0.10394
H_ H_ 0.555246 0.791581 0.225929 0.10394
H_ H_ 0.914343 0.742519 0.233592 0.10394
H_ H_ 0.873433 0.821624 0.19704 0.10394
H_ H_ 0.960639 0.556654 0.110032 0.10394
H_ H_ 0.516833 0.634003 0.117328 0.10394
H_ H_ 0.639204 0.514052 0.0961324 0.10394
H_ H_ 0.949938 0.647783 0.411872 0.10394
H_ H_ 0.510552 0.709075 0.415788 0.10394
H_ H_ 0.920218 0.781521 0.0476927 0.10394
H_ H_ 0.844613 0.741348 0.496356 0.10394
H_ H_ 0.735284 0.6912 0.38833 0.10394
H_ H_ 0.694184 0.72227 0.306163 0.10394
H_ H_ 0.841458 0.742141 0.264989 0.10394
H_ H_ 0.880385 0.695214 0.337613 0.10394
H_ H_ 0.787271 0.626005 0.0617156 0.10394
H_ H_ 0.733057 0.615071 0.127404 0.10394
H_ H_ 0.603534 0.610339 0.0171467 0.10394
C_ C_ 0.68046 0.590545 0.305764 0.18167
C_ C_ 0.722965 0.567965 0.281805 -0.15533
C_ C_ 0.732663 0.515949 0.274288 0.02923
C_ C_ 0.68644 0.994883 0.270202 -0.15533
C_ C_ 0.654964 0.507931 0.312768 0.18167
C_ C_ 0.521298 0.633511 0.27841 0.18167
C_ C_ 0.0128668 0.672183 0.249791 -0.15533
C_ C_ 0.502448 0.725974 0.268821 0.02923
C_ C_ 0.534421 0.733609 0.313959 -0.15533
C_ C_ 0.56463 0.693348 0.335049 0.18167
C_ C_ 0.511468 0.545535 0.380837 0.69207
C_ C_ 0.975417 0.0117776 0.37268 0.02923
C_ C_ -0.0015819999999999723 0.959237 0.379678 -0.15533
C_ C_ 0.970197 0.919673 0.388359 -0.15533
C_ C_ 0.917206 0.929382 0.389839 0.02923
C_ C_ 0.895682 0.981572 0.388363 -0.15533
C_ C_ 0.922641 0.0219338 0.378384 0.02923
C_ C_ 0.902362 0.567682 0.381669 0.69207
C_ C_ 0.909065 0.833424 0.389599 0.69661
C_ C_ 0.573299 0.805019 0.0929403 0.18167
C_ C_ 0.525601 0.786619 0.0737454 -0.15533
C_ C_ 0.520148 0.761887 0.0238058 0.02923
C_ C_ 0.552257 0.78881 0.479766 -0.15533
C_ C_ 0.601936 0.791696 0.0120016 0.18167
C_ C_ 0.724856 0.769805 0.140028 0.18167
C_ C_ 0.742743 0.741637 0.183073 -0.15533
C_ C_ 0.741925 0.764181 0.233713 0.02923
C_ C_ 0.717861 0.81394 0.239654 -0.15533
C_ C_ 0.694349 0.838952 0.195025 0.18167
C_ C_ 0.747296 0.874557 0.0478325 0.69207
C_ C_ 0.780133 0.877138 0.503984 0.02923
C_ C_ 0.761762 0.876991 0.451765 -0.15533
C_ C_ 0.794423 0.882466 0.415628 -0.15533
C_ C_ 0.844472 0.889777 0.428444 0.02923
C_ C_ 0.862284 0.893555 0.481313 -0.15533
C_ C_ 0.830003 0.890769 0.518614 0.02923
C_ C_ 0.857314 0.885477 0.0781602 0.69207
C_ C_ 0.855726 0.882996 0.329797 0.69661
C_ C_ 0.813466 0.930945 0.191154 0.18167
C_ C_ 0.769298 0.957557 0.208845 -0.15533
C_ C_ 0.772387 1.00178494 0.242514 0.02923
C_ C_ 0.828272 0.50893 0.258582 -0.15533
C_ C_ 0.865049 0.988919 0.234845 0.18167
C_ C_ 0.993804 0.848485 0.208786 0.18167
C_ C_ 0.514205 0.797042 0.216114 -0.15533
C_ C_ 0.989507 0.766658 0.240013 0.02923
C_ C_ 0.936824 0.769189 0.222258 -0.15533
C_ C_ 0.914381 0.815324 0.202789 0.18167
C_ C_ 0.989983 0.947316 0.128245 0.69207
C_ C_ 0.516079 0.504975 0.119003 0.02923
C_ C_ 0.500208 0.557737 0.120172 -0.15533
C_ C_ 0.53336 0.593684 0.1139 -0.15533
C_ C_ 0.583948 0.580552 0.10572 0.02923
C_ C_ 0.599877 0.525943 0.099074 -0.15533
C_ C_ 0.567063 0.488993 0.109598 0.02923
C_ C_ 0.608649 0.93202 0.116886 0.69207
C_ C_ 0.609763 0.673377 0.125194 0.69661
C_ C_ 0.941857 0.674269 0.441916 0.18167
C_ C_ 0.982916 0.692904 0.474581 -0.15533
C_ C_ 0.973995 0.735715 0.507376 0.02923
C_ C_ 0.92569 0.751977 1.0189056 -0.15533
C_ C_ 0.882676 0.73085 0.486902 0.18167
C_ C_ 0.758092 0.694121 0.356806 0.18167
C_ C_ 0.734665 0.716863 0.312711 -0.15533
C_ C_ 0.76479 0.734275 0.278212 0.02923
C_ C_ 0.817917 0.726366 0.286621 -0.15533
C_ C_ 0.839617 0.700406 0.330053 0.18167
C_ C_ 0.767755 0.616567 0.460012 0.69207
C_ C_ 0.727072 0.619489 1.00052 0.02923
C_ C_ 0.748733 0.62087 0.0516217 -0.15533
C_ C_ 0.715667 0.61733 0.0888554 -0.15533
C_ C_ 0.663218 0.609748 0.0785699 0.02923
C_ C_ 0.644175 0.608993 0.0269783 -0.15533
C_ C_ 0.675422 0.613638 0.987729 0.02923
C_ C_ 0.6495 0.609315 0.432911 0.69207
C_ C_ 0.65348 0.604355 0.173641 0.69661
C_ C_ 0.881167 0.885559 0.385637 -0.30787
C_ C_ 0.625441 0.616032 0.120977 -0.30787
N_ N_ 0.648239 0.559512 0.320856 -0.32189
N_ N_ 0.557609 0.644963 0.318258 -0.32189
N_ N_ 0.608847 0.810632 0.0603774 -0.32189
N_ N_ 0.697144 0.814641 0.146118 -0.32189
N_ N_ 0.86096 0.946 0.203676 -0.32189
N_ N_ 0.942725 0.854281 0.195457 -0.32189
N_ N_ 0.89268 0.689999 0.452221 -0.32189
N_ N_ 0.810442 0.68629 0.36546 -0.32189
O_ O_ 0.0134827 0.575777 0.411052 -0.63271
O_ O_ 0.543068 0.539025 0.344735 -0.57982
O_ O_ 0.898788 0.595633 0.342934 -0.63271
O_ O_ 0.876276 0.583912 0.420177 -0.57982
O_ O_ 0.74963 0.902106 0.0919577 -0.63271
O_ O_ 0.711424 0.842444 0.0399176 -0.57982
O_ O_ 0.855084 0.844524 0.101766 -0.63271
O_ O_ 0.882811 0.920532 0.101212 -0.57982
O_ O_ 0.499304 0.910496 0.0977636 -0.63271
O_ O_ 0.961399 0.95894 0.166365 -0.57982
O_ O_ 0.602325 0.909131 0.156922 -0.63271
O_ O_ 0.643228 0.912901 0.0884377 -0.57982
O_ O_ 0.764243 0.590448 0.416899 -0.63271
O_ O_ 0.798234 0.652434 0.467923 -0.57982
O_ O_ 0.655888 0.644532 0.403347 -0.63271
O_ O_ 0.614521 0.5802 0.418191 -0.57982
F_ F_ 0.944917 0.827467 0.432072 -0.20885
F_ F_ 0.937038 0.812511 0.348762 -0.20885
F_ F_ 0.874771 0.796481 0.393664 -0.20885
F_ F_ 0.819471 0.923876 0.323458 -0.20885
F_ F_ 0.828311 0.840958 0.316126 -0.20885
F_ F_ 0.891831 0.883366 0.294182 -0.20885
F_ F_ 0.576587 0.688108 0.0835629 -0.20885
F_ F_ 0.582984 0.687461 0.166111 -0.20885
F_ F_ 0.649566 0.704145 0.129579 -0.20885
F_ F_ 0.685333 0.559795 0.170289 -0.20885
F_ F_ 0.675337 0.643154 0.204044 -0.20885
F_ F_ 0.61766 0.589076 0.20415 -0.20885
Zn Zn 0.590493 0.583714 0.856009 0.83971
Zn Zn 0.662103 0.84119 0.57802 0.83971
Zn Zn 0.90786 0.909404 0.656728 0.83971
Zn Zn 0.838042 0.662979 0.921121 0.83971
H_ H_ 0.672572 0.631529 0.813151 0.10394
H_ H_ 0.750815 0.601985 0.767947 0.10394
H_ H_ 0.717591 0.946444 0.800675 0.10394
H_ H_ 0.632173 0.483187 0.816952 0.10394
H_ H_ 0.0320799 0.598329 0.766446 0.10394
H_ H_ 0.9986815 0.671342 0.710133 0.10394
H_ H_ 0.53888 0.76459 0.8463 0.10394
H_ H_ 0.562118 0.688014 0.891257 0.10394
H_ H_ 0.53585 0.942144 0.866911 0.10394
H_ H_ 0.986336 0.874962 0.874475 0.10394
H_ H_ 0.865682 0.984671 0.921265 0.10394
H_ H_ 0.589047 0.791428 0.623437 0.10394
H_ H_ 0.00752771 0.754567 0.607472 0.10394
H_ H_ 0.561641 0.745247 0.957969 0.10394
H_ H_ 0.616613 0.832635 0.477218 0.10394
H_ H_ 0.734186 0.744654 0.592062 0.10394
H_ H_ 0.766018 0.697019 0.66764 0.10394
H_ H_ 0.700806 0.822427 0.765868 0.10394
H_ H_ 0.675958 0.867617 0.690747 0.10394
H_ H_ 0.723474 0.864709 0.94997 0.10394
H_ H_ 0.777329 0.885554 0.883138 0.10394
H_ H_ 0.901045 0.910417 0.991042 0.10394
H_ H_ 0.80466 0.890847 0.663245 0.10394
H_ H_ 0.730122 0.9386 0.705791 0.10394
H_ H_ 0.83271 0.545015 0.776344 0.10394
H_ H_ 0.902517 0.99787504 0.73272 0.10394
H_ H_ 0.504679 0.892801 0.720273 0.10394
H_ H_ 0.553748 0.815877 0.760322 0.10394
H_ H_ 0.918712 0.752277 0.750659 0.10394
H_ H_ 0.876047 0.830414 0.70011 0.10394
H_ H_ 0.963986 0.546184 0.599087 0.10394
H_ H_ 0.511103 0.6125 0.609327 0.10394
H_ H_ 0.641919 0.503215 0.577536 0.10394
H_ H_ 0.942499 0.659525 0.90215 0.10394
H_ H_ 0.523625 0.662299 0.988764 0.10394
H_ H_ 0.913497 0.787679 0.539562 0.10394
H_ H_ 0.84381 0.739891 1.00142615 0.10394
H_ H_ 0.734163 0.702468 0.887159 0.10394
H_ H_ 0.688764 0.73161 0.803101 0.10394
H_ H_ 0.834695 0.721028 0.740556 0.10394
H_ H_ 0.874214 0.697966 0.831165 0.10394
H_ H_ 0.790954 0.610931 0.55463 0.10394
H_ H_ 0.733843 0.610244 0.625583 0.10394
H_ H_ 0.607336 0.585358 0.511876 0.10394
C_ C_ 0.683242 0.591354 0.8082 0.18167
C_ C_ 0.726874 0.573977 0.78123 -0.15533
C_ C_ 0.732563 0.522882 0.766336 0.02923
C_ C_ 0.706192 0.988449 0.797864 -0.15533
C_ C_ 0.661042 0.510025 0.81149 0.18167
C_ C_ 0.542204 0.636673 0.772563 0.18167
C_ C_ 0.0165945 0.677535 0.747949 -0.15533
C_ C_ 0.515526 0.726306 0.773819 0.02923
C_ C_ 0.535449 0.729413 0.825265 -0.15533
C_ C_ 0.555859 0.687143 0.849545 0.18167
C_ C_ 0.505096 0.545523 0.86302 0.69207
C_ C_ 0.97618 0.00477896 0.870547 0.02923
C_ C_ -0.0023410000000000375 0.954513 0.866985 -0.15533
C_ C_ 0.96855 0.914887 0.877271 -0.15533
C_ C_ 0.920243 0.925046 0.894654 0.02923
C_ C_ 0.903579 0.976234 0.906588 -0.15533
C_ C_ 0.926889 0.0159318 0.888013 0.02923
C_ C_ 0.896006 0.575891 0.890429 0.69207
C_ C_ 0.909241 0.829238 0.895046 0.69661
C_ C_ 0.577463 0.789941 0.582353 0.18167
C_ C_ 0.529583 0.774343 0.563141 -0.15533
C_ C_ 0.519371 0.769602 0.512046 0.02923
C_ C_ 0.562081 0.76157 0.996503 -0.15533
C_ C_ 0.59352 0.813747 0.501761 0.18167
C_ C_ 0.721337 0.760271 0.628488 0.18167
C_ C_ 0.743751 0.733957 0.671727 -0.15533
C_ C_ 0.73631 0.756304 0.721581 0.02923
C_ C_ 0.706886 0.803596 0.727345 -0.15533
C_ C_ 0.686598 0.828249 0.685016 0.18167
C_ C_ 0.74739 0.866816 0.54333 0.69207
C_ C_ 0.786021 0.87354 1.0108597 0.02923
C_ C_ 0.766178 0.869202 0.958404 -0.15533
C_ C_ 0.79518 0.878923 0.921554 -0.15533
C_ C_ 0.846116 0.890025 0.933466 0.02923
C_ C_ 0.864719 0.897393 0.98478 -0.15533
C_ C_ 0.836695 0.890319 0.0248087 0.02923
C_ C_ 0.853861 0.886691 0.572043 0.69207
C_ C_ 0.856271 0.886162 0.83467 0.69661
C_ C_ 0.809212 0.924421 0.69007 0.18167
C_ C_ 0.768811 0.950252 0.713325 -0.15533
C_ C_ 0.777426 -0.0061390000000000056 0.745196 0.02923
C_ C_ 0.825478 0.513523 0.747247 -0.15533
C_ C_ 0.863205 0.986943 0.724901 0.18167
C_ C_ 0.99806 0.846575 0.695698 0.18167
C_ C_ 0.516701 0.815326 0.741678 -0.15533
C_ C_ 0.993814 0.770519 0.738126 0.02923
C_ C_ 0.939382 0.780797 0.73308 -0.15533
C_ C_ 0.916558 0.820203 0.701093 0.18167
C_ C_ 0.983766 0.949126 0.627537 0.69207
C_ C_ 0.522533 0.48723 0.613252 0.02923
C_ C_ 0.500067 0.536885 0.6124 -0.15533
C_ C_ 0.53131 0.576218 0.612211 -0.15533
C_ C_ 0.58487 0.564132 0.603235 0.02923
C_ C_ 0.60282 0.513579 0.589794 -0.15533
C_ C_ 0.575978 0.475105 0.605372 0.02923
C_ C_ 0.594937 0.91939 0.606906 0.69207
C_ C_ 0.599071 0.658051 0.609442 0.69661
C_ C_ 0.939713 0.679631 0.939661 0.18167
C_ C_ 0.980136 0.704355 0.960541 -0.15533
C_ C_ 0.973217 0.740655 0.999522014 0.02923
C_ C_ 0.922482 0.752864 0.51534 -0.15533
C_ C_ 0.882925 0.729843 0.99323 0.18167
C_ C_ 0.753752 0.701144 0.853501 0.18167
C_ C_ 0.730729 0.722795 0.806802 -0.15533
C_ C_ 0.759188 0.730919 0.767664 0.02923
C_ C_ 0.81195 0.720256 0.773883 -0.15533
C_ C_ 0.834501 0.700801 0.821923 0.18167
C_ C_ 0.761852 0.627071 0.959153 0.69207
C_ C_ 0.729403 0.613664 0.496421 0.02923
C_ C_ 0.748712 0.614137 0.548472 -0.15533
C_ C_ 0.716376 0.613712 0.587776 -0.15533
C_ C_ 0.665162 0.59974 0.57503 0.02923
C_ C_ 0.648702 0.592164 0.522715 -0.15533
C_ C_ 0.675726 0.608154 0.484566 0.02923
C_ C_ 0.651148 0.610884 0.932892 0.69207
C_ C_ 0.648235 0.594068 0.663407 0.69661
C_ C_ 0.883039 0.883351 0.892048 -0.30787
C_ C_ 0.624366 0.603769 0.612543 -0.30787
N_ N_ 0.650487 0.559825 0.819639 -0.32189
N_ N_ 0.559941 0.642192 0.822883 -0.32189
N_ N_ 0.607131 0.808411 0.551337 -0.32189
N_ N_ 0.689324 0.804117 0.636684 -0.32189
N_ N_ 0.855907 0.943665 0.697475 -0.32189
N_ N_ 0.946768 0.850913 0.681634 -0.32189
N_ N_ 0.891906 0.693422 0.955179 -0.32189
N_ N_ 0.804392 0.686385 0.857535 -0.32189
O_ O_ 1.00780307 0.591035 0.897255 -0.63271
O_ O_ 0.547798 0.535953 0.846353 -0.57982
O_ O_ 0.893019 0.598143 0.846082 -0.63271
O_ O_ 0.869524 0.596953 0.927176 -0.57982
O_ O_ 0.744908 0.897516 0.584705 -0.63271
O_ O_ 0.710978 0.835606 0.533479 -0.57982
O_ O_ 0.852897 0.846283 0.59887 -0.63271
O_ O_ 0.879243 0.922316 0.594101 -0.57982
O_ O_ 0.488283 0.902792 0.596887 -0.63271
O_ O_ 0.952768 0.957286 0.664716 -0.57982
O_ O_ 0.592817 0.893506 0.648024 -0.63271
O_ O_ 0.631859 0.905334 0.577364 -0.57982
O_ O_ 0.754691 0.603063 0.914278 -0.63271
O_ O_ 0.795445 0.659957 0.968744 -0.57982
O_ O_ 0.652974 0.650464 0.903887 -0.63271
O_ O_ 0.613065 0.582227 0.923007 -0.57982
F_ F_ 0.945713 0.825255 0.935637 -0.20885
F_ F_ 0.93484 0.811787 0.85071 -0.20885
F_ F_ 0.874559 0.794639 0.891672 -0.20885
F_ F_ 0.82196 0.92848 0.824631 -0.20885
F_ F_ 0.826717 0.846893 0.816759 -0.20885
F_ F_ 0.890772 0.885945 0.800367 -0.20885
F_ F_ 0.567282 0.669669 0.564299 -0.20885
F_ F_ 0.567515 0.675602 0.649838 -0.20885
F_ F_ 0.631557 0.696816 0.61403 -0.20885
F_ F_ 0.676895 0.545363 0.665443 -0.20885
F_ F_ 0.679482 0.627449 0.690448 -0.20885
F_ F_ 0.611553 0.595832 0.697203 -0.20885
