_cell_length_a 26.508
_cell_length_b 26.37200000322088
_cell_length_c 26.311999743092066
_cell_angle_alpha 93.74100058972084
_cell_angle_beta 96.04100104955006
_cell_angle_gamma 83.6869992558723
_symmetry_space_group_name_H-M         'P 1'
_symmetry_Int_Tables_number            1
loop_
_symmetry_equiv_pos_as_xyz
   'x, y, z'
                         
loop_
_atom_site_label
_atom_site_type_symbol
_atom_site_fract_x 
_atom_site_fract_y
_atom_site_fract_z
_atom_site_charge
Zn Zn 0.091874 0.0910238 0.34445 0.83971
Zn Zn 0.160282 0.344427 0.0843001 0.83971
Zn Zn 0.407816 0.411969 0.149579 0.83971
Zn Zn 0.341082 0.154439 0.419169 0.83971
H_ H_ 0.164868 0.136303 0.293756 0.10394
H_ H_ 0.251487 0.0990354 0.266119 0.10394
H_ H_ 0.207938 0.441743 0.281046 0.10394
H_ H_ 0.144548 0.991155 0.341228 0.10394
H_ H_ 0.533073 0.0888743 0.256267 0.10394
H_ H_ 0.485873 0.164722 0.206941 0.10394
H_ H_ 0.0384152 0.274448 0.334864 0.10394
H_ H_ 0.0750632 0.199996 0.381342 0.10394
H_ H_ 0.0371639 0.451315 0.38014 0.10394
H_ H_ 0.472629 0.386267 0.377249 0.10394
H_ H_ 0.347429 0.49623 0.395805 0.10394
H_ H_ 0.0714918 0.308181 0.139266 0.10394
H_ H_ 0.505316 0.261461 0.104337 0.10394
H_ H_ 0.0445749 0.289864 0.446143 0.10394
H_ H_ 0.110706 0.32092 0.990258 0.10394
H_ H_ 0.217521 0.239554 0.0956031 0.10394
H_ H_ 0.261369 0.194621 0.168464 0.10394
H_ H_ 0.209797 0.3206 0.26758 0.10394
H_ H_ 0.183638 0.373084 0.189834 0.10394
H_ H_ 0.210445 0.365933 0.438808 0.10394
H_ H_ 0.258644 0.396059 0.371881 0.10394
H_ H_ 0.387465 0.407667 0.482437 0.10394
H_ H_ 0.305815 0.382777 0.168649 0.10394
H_ H_ 0.22897 0.443254 0.188601 0.10394
H_ H_ 0.332815 0.0451701 0.285671 0.10394
H_ H_ 0.399513 0.498191 0.220505 0.10394
H_ H_ 0.0152301 0.391346 0.20162 0.10394
H_ H_ 0.0583814 0.316237 0.247208 0.10394
H_ H_ 0.411223 0.234152 0.208924 0.10394
H_ H_ 0.368798 0.320307 0.189165 0.10394
H_ H_ 0.470418 0.0596341 0.131177 0.10394
H_ H_ 0.0110617 0.108259 0.0896541 0.10394
H_ H_ 0.138823 -0.00255015 0.0755983 0.10394
H_ H_ 0.444474 0.161792 0.39983 0.10394
H_ H_ 0.0169486 0.198497 0.448599 0.10394
H_ H_ 0.414511 0.273977 0.0520125 0.10394
H_ H_ 0.342678 0.236983 0.495439 0.10394
H_ H_ 0.240166 0.211394 0.3921 0.10394
H_ H_ 0.194131 0.239844 0.307066 0.10394
H_ H_ 0.338368 0.206798 0.243922 0.10394
H_ H_ 0.374922 0.17125 0.324473 0.10394
H_ H_ 0.282638 0.120815 0.0630875 0.10394
H_ H_ 0.225824 0.107098 0.121699 0.10394
H_ H_ 0.104086 0.087257 0.00275174 0.10394
C_ C_ 0.178105 0.0950841 0.297649 0.18167
C_ C_ 0.223973 0.0744721 0.276655 -0.15533
C_ C_ 0.236004 0.0221224 0.274641 0.02923
C_ C_ 0.199662 0.48361 0.28887 -0.15533
C_ C_ 0.165827 0.0144248 0.321763 0.18167
C_ C_ 0.0414729 0.1421 0.265547 0.18167
C_ C_ 0.504199 0.170815 0.246105 -0.15533
C_ C_ 0.017451 0.23236 0.26367 0.02923
C_ C_ 0.0392996 0.238671 0.316161 -0.15533
C_ C_ 0.0662519 0.196059 0.33903 0.18167
C_ C_ 0.013348 0.0519783 0.368368 0.69207
C_ C_ 0.468382 0.515616 0.372262 0.02923
C_ C_ 0.488826 0.462948 0.374868 -0.15533
C_ C_ 0.456009 0.425327 0.380888 -0.15533
C_ C_ 0.405387 0.436694 0.388359 0.02923
C_ C_ 0.386133 0.488243 0.385666 -0.15533
C_ C_ 0.415624 0.527654 0.374594 0.02923
C_ C_ 0.405735 0.0686763 0.393526 0.69207
C_ C_ 0.392594 0.34044 0.382952 0.69661
C_ C_ 0.0642683 0.30011 0.0980624 0.18167
C_ C_ 0.0224581 0.271885 0.0789206 -0.15533
C_ C_ 0.0124348 0.264393 0.0263171 0.02923
C_ C_ 0.0498165 0.294567 0.488318 -0.15533
C_ C_ 0.0873433 0.303625 0.0160984 0.18167
C_ C_ 0.218252 0.260118 0.132779 0.18167
C_ C_ 0.240241 0.232521 0.175798 -0.15533
C_ C_ 0.240656 0.25581 0.223831 0.02923
C_ C_ 0.215217 0.30531 0.229673 -0.15533
C_ C_ 0.197805 0.332469 0.186037 0.18167
C_ C_ 0.239834 0.363723 0.0445494 0.69207
C_ C_ 0.266477 0.381295 0.499129 0.02923
C_ C_ 0.248249 0.378422 0.44694 -0.15533
C_ C_ 0.277874 0.388687 0.410271 -0.15533
C_ C_ 0.329863 0.398288 0.421964 0.02923
C_ C_ 0.349787 0.398296 0.473686 -0.15533
C_ C_ 0.318981 0.392177 0.513146 0.02923
C_ C_ 0.346041 0.391039 0.0686168 0.69207
C_ C_ 0.340442 0.397889 0.323763 0.69661
C_ C_ 0.308505 0.423945 0.182524 0.18167
C_ C_ 0.266037 0.452657 0.199656 -0.15533
C_ C_ 0.272427 0.495178 0.234294 0.02923
C_ C_ 0.325738 0.0179401 0.251906 -0.15533
C_ C_ 0.361783 0.487381 0.215769 0.18167
C_ C_ 0.485608 0.347007 0.194646 0.18167
C_ C_ 0.0173356 0.321102 0.2352 -0.15533
C_ C_ 0.478969 0.265441 0.233683 0.02923
C_ C_ 0.430829 0.266667 0.206039 -0.15533
C_ C_ 0.408702 0.312551 0.185375 0.18167
C_ C_ 0.481708 0.449804 0.111376 0.69207
C_ C_ 0.0200729 0.984443 0.115209 0.02923
C_ C_ 0.00071854 0.0376482 0.115348 -0.15533
C_ C_ 0.0307472 0.0749937 0.10469 -0.15533
C_ C_ 0.0823486 0.0617471 0.0944805 0.02923
C_ C_ 0.100503 0.00905022 0.0896293 -0.15533
C_ C_ 0.0732329 0.971154 0.105476 0.02923
C_ C_ 0.102542 0.423389 0.103245 0.69207
C_ C_ 0.0930775 0.157957 0.0982968 0.69661
C_ C_ 0.437911 0.18609 0.430395 0.18167
C_ C_ 0.479136 0.209859 0.459001 -0.15533
C_ C_ 0.470987 0.244598 0.499641 0.02923
C_ C_ 0.42267 0.248411 0.0194833 -0.15533
C_ C_ 0.380914 0.225314 0.489584 0.18167
C_ C_ 0.25765 0.208984 0.35692 0.18167
C_ C_ 0.233083 0.225591 0.310533 -0.15533
C_ C_ 0.262826 0.230719 0.269725 0.02923
C_ C_ 0.313842 0.206806 0.274578 -0.15533
C_ C_ 0.336668 0.189327 0.320235 0.18167
C_ C_ 0.262454 0.128575 0.452387 0.69207
C_ C_ 0.229158 0.113047 0.992586 0.02923
C_ C_ 0.244042 0.117305 0.0467096 -0.15533
C_ C_ 0.211163 0.10916 0.0820026 -0.15533
C_ C_ 0.160974 0.0981315 0.0652079 0.02923
C_ C_ 0.144549 0.0932341 0.013566 -0.15533
C_ C_ 0.176972 0.10173 0.977574 0.02923
C_ C_ 0.153657 0.114801 0.425405 0.69207
C_ C_ 0.141436 0.100401 0.16086 0.69661
C_ C_ 0.366046 0.395559 0.379696 -0.30787
C_ C_ 0.119472 0.102889 0.104186 -0.30787
N_ N_ 0.147284 0.0620296 0.312128 -0.32189
N_ N_ 0.066025 0.149521 0.314466 -0.32189
N_ N_ 0.0978926 0.31348 0.0673519 -0.32189
N_ N_ 0.194246 0.308916 0.139499 -0.32189
N_ N_ 0.35476 0.442892 0.188543 -0.32189
N_ N_ 0.435947 0.350342 0.177405 -0.32189
N_ N_ 0.389663 0.196495 0.445233 -0.32189
N_ N_ 0.308618 0.189013 0.359165 -0.32189
O_ O_ 0.507727 0.0915135 0.388113 -0.63271
O_ O_ 0.0507744 0.0404995 0.340013 -0.57982
O_ O_ 0.409281 0.0914024 0.350049 -0.63271
O_ O_ 0.372429 0.0898971 0.4264 -0.57982
O_ O_ 0.243538 0.389599 0.0856986 -0.63271
O_ O_ 0.204062 0.336703 0.03735 -0.57982
O_ O_ 0.350006 0.349264 0.0927828 -0.63271
O_ O_ 0.376675 0.426251 0.0866977 -0.57982
O_ O_ 0.995601 0.406067 0.098178 -0.63271
O_ O_ 0.448878 0.462242 0.147043 -0.57982
O_ O_ 0.104255 0.400823 0.146631 -0.63271
O_ O_ 0.136381 0.408095 0.0729248 -0.57982
O_ O_ 0.261183 0.10406 0.407233 -0.63271
O_ O_ 0.298288 0.157628 0.465968 -0.57982
O_ O_ 0.165478 0.147432 0.392986 -0.63271
O_ O_ 0.12038 0.0818383 0.409369 -0.57982
F_ F_ 0.424385 0.335439 0.428285 -0.20885
F_ F_ 0.426015 0.324142 0.345463 -0.20885
F_ F_ 0.360176 0.301788 0.379194 -0.20885
F_ F_ 0.308253 0.442087 0.322562 -0.20885
F_ F_ 0.308921 0.359622 0.307756 -0.20885
F_ F_ 0.372563 0.398696 0.285845 -0.20885
F_ F_ 0.0609778 0.166693 0.0538172 -0.20885
F_ F_ 0.0648687 0.177493 0.138195 -0.20885
F_ F_ 0.129055 0.191783 0.0987023 -0.20885
F_ F_ 0.175015 0.0572397 0.162487 -0.20885
F_ F_ 0.165737 0.142878 0.179124 -0.20885
F_ F_ 0.102205 0.0991567 0.191215 -0.20885
Zn Zn 0.0905121 0.0874004 0.844908 0.83971
Zn Zn 0.160127 0.349058 0.586578 0.83971
Zn Zn 0.406223 0.412404 0.655013 0.83971
Zn Zn 0.33866 0.156839 0.916123 0.83971
H_ H_ 0.173329 0.135549 0.818631 0.10394
H_ H_ 0.253672 0.106731 0.786659 0.10394
H_ H_ 0.206021 0.447907 0.789762 0.10394
H_ H_ 0.12182 0.992505 0.795025 0.10394
H_ H_ 0.534592 0.0925328 0.744044 0.10394
H_ H_ 0.489196 0.160634 0.703687 0.10394
H_ H_ 0.0308835 0.27481 0.836334 0.10394
H_ H_ 0.0692828 0.19169 0.8804 0.10394
H_ H_ 0.0337978 0.446558 0.896227 0.10394
H_ H_ 0.471267 0.377132 0.868475 0.10394
H_ H_ 0.346489 0.491845 0.893259 0.10394
H_ H_ 0.0935012 0.295488 0.632794 0.10394
H_ H_ 0.502338 0.266341 0.599114 0.10394
H_ H_ 0.0381596 0.280001 0.953425 0.10394
H_ H_ 0.116477 0.326756 0.480336 0.10394
H_ H_ 0.223438 0.254792 0.60049 0.10394
H_ H_ 0.25508 0.204699 0.673703 0.10394
H_ H_ 0.20865 0.335877 0.774029 0.10394
H_ H_ 0.175169 0.383343 0.6958 0.10394
H_ H_ 0.214226 0.370539 0.944376 0.10394
H_ H_ 0.251126 0.422921 0.884549 0.10394
H_ H_ 0.390827 0.411223 0.985121 0.10394
H_ H_ 0.299502 0.396757 0.65807 0.10394
H_ H_ 0.222941 0.459089 0.690238 0.10394
H_ H_ 0.334438 0.0451454 0.786561 0.10394
H_ H_ 0.402778 0.495025 0.736943 0.10394
H_ H_ 0.0118444 0.386405 0.703599 0.10394
H_ H_ 0.0548819 0.317033 0.745801 0.10394
H_ H_ 0.405839 0.233846 0.710005 0.10394
H_ H_ 0.368034 0.315738 0.679708 0.10394
H_ H_ 0.457583 0.0577369 0.609478 0.10394
H_ H_ 0.0116432 0.115664 0.590599 0.10394
H_ H_ 0.145364 0.00877529 0.587452 0.10394
H_ H_ 0.43944 0.166273 0.89605 0.10394
H_ H_ 0.0119861 0.18707 0.948139 0.10394
H_ H_ 0.409066 0.284346 0.542435 0.10394
H_ H_ 0.347236 0.223421 0.0145452 0.10394
H_ H_ 0.234544 0.204259 0.888113 0.10394
H_ H_ 0.191149 0.241313 0.810961 0.10394
H_ H_ 0.339086 0.230617 0.750851 0.10394
H_ H_ 0.378952 0.189858 0.827774 0.10394
H_ H_ 0.289743 0.100854 0.552649 0.10394
H_ H_ 0.232739 0.098762 0.620067 0.10394
H_ H_ 0.107285 0.0919568 0.500496 0.10394
C_ C_ 0.177883 0.0991353 0.799521 0.18167
C_ C_ 0.226072 0.0813074 0.785446 -0.15533
C_ C_ 0.234347 0.0294955 0.767243 0.02923
C_ C_ 0.197618 0.487513 0.792709 -0.15533
C_ C_ 0.151579 0.0163208 0.790326 0.18167
C_ C_ 0.0280035 0.140654 0.769852 0.18167
C_ C_ 0.498447 0.16918 0.74402 -0.15533
C_ C_ 0.0113529 0.22953 0.764043 0.02923
C_ C_ 0.0321878 0.235383 0.814606 -0.15533
C_ C_ 0.0570694 0.191704 0.839088 0.18167
C_ C_ 0.011278 0.0446781 0.864534 0.69207
C_ C_ 0.467616 0.50145 0.858102 0.02923
C_ C_ 0.481879 0.450732 0.850493 -0.15533
C_ C_ 0.452783 0.414738 0.864797 -0.15533
C_ C_ 0.402538 0.426721 0.877985 0.02923
C_ C_ 0.386079 0.479084 0.886291 -0.15533
C_ C_ 0.418708 0.51628 0.877479 0.02923
C_ C_ 0.397982 0.0741123 0.889366 0.69207
C_ C_ 0.392826 0.331966 0.891473 0.69661
C_ C_ 0.0791346 0.296899 0.592699 0.18167
C_ C_ 0.0319774 0.280623 0.574711 -0.15533
C_ C_ 0.0170988 0.278487 0.521355 0.02923
C_ C_ 0.045669 0.280443 0.994476 -0.15533
C_ C_ 0.0942651 0.313757 0.507616 0.18167
C_ C_ 0.22117 0.275061 0.637359 0.18167
C_ C_ 0.23896 0.246321 0.67804 -0.15533
C_ C_ 0.238217 0.268543 0.727321 0.02923
C_ C_ 0.213907 0.318859 0.735284 -0.15533
C_ C_ 0.192054 0.343978 0.69145 0.18167
C_ C_ 0.230877 0.375684 0.540293 0.69207
C_ C_ 0.271659 0.37618 0.00272766 0.02923
C_ C_ 0.252161 0.375643 0.95133 -0.15533
C_ C_ 0.274738 0.399191 0.914558 -0.15533
C_ C_ 0.327542 0.4027 0.924232 0.02923
C_ C_ 0.350589 0.405803 0.975951 -0.15533
C_ C_ 0.321535 0.39413 0.0154553 0.02923
C_ C_ 0.342662 0.389285 0.568783 0.69207
C_ C_ 0.336844 0.382732 0.82699 0.69661
C_ C_ 0.303892 0.430363 0.683585 0.18167
C_ C_ 0.262799 0.459212 0.707482 -0.15533
C_ C_ 0.274259 0.495461 0.747712 0.02923
C_ C_ 0.327255 0.0186864 0.756328 -0.15533
C_ C_ 0.363697 0.485154 0.727034 0.18167
C_ C_ 0.486573 0.344542 0.707725 0.18167
C_ C_ 0.0161548 0.312342 0.72655 -0.15533
C_ C_ 0.475319 0.263983 0.741235 0.02923
C_ C_ 0.426833 0.268432 0.717455 -0.15533
C_ C_ 0.408063 0.309777 0.688639 0.18167
C_ C_ 0.488701 0.449752 0.625993 0.69207
C_ C_ 0.0279124 0.992917 0.620401 0.02923
C_ C_ 0.00457629 0.0433257 0.618084 -0.15533
C_ C_ 0.0329045 0.0812187 0.606479 -0.15533
C_ C_ 0.0857816 0.0712679 0.601315 0.02923
C_ C_ 0.106623 0.019493 0.596051 -0.15533
C_ C_ 0.0787604 0.979552 0.609683 0.02923
C_ C_ 0.0914002 0.426798 0.605793 0.69207
C_ C_ 0.100319 0.169449 0.598034 0.69661
C_ C_ 0.436745 0.186069 0.933708 0.18167
C_ C_ 0.47709 0.21162 0.957993 -0.15533
C_ C_ 0.470521 0.23999 1.00354968 0.02923
C_ C_ 0.420922 0.250769 0.516637 -0.15533
C_ C_ 0.384667 0.220501 0.995305 0.18167
C_ C_ 0.256182 0.208817 0.854694 0.18167
C_ C_ 0.232391 0.232439 0.811534 -0.15533
C_ C_ 0.262507 0.240335 0.773399 0.02923
C_ C_ 0.315209 0.223891 0.779594 -0.15533
C_ C_ 0.335769 0.193952 0.820399 0.18167
C_ C_ 0.264328 0.118547 0.955389 0.69207
C_ C_ 0.229284 0.116818 0.490735 0.02923
C_ C_ 0.249039 0.104133 0.541337 -0.15533
C_ C_ 0.215823 0.101109 0.580237 -0.15533
C_ C_ 0.162169 0.101058 0.566148 0.02923
C_ C_ 0.145031 0.102527 0.5147 -0.15533
C_ C_ 0.177114 0.112728 0.477578 0.02923
C_ C_ 0.152729 0.105096 0.923185 0.69207
C_ C_ 0.145456 0.115461 0.664316 0.69661
C_ C_ 0.366076 0.386801 0.882496 -0.30787
C_ C_ 0.124045 0.112938 0.60505 -0.30787
N_ N_ 0.142572 0.0666181 0.802889 -0.32189
N_ N_ 0.0536678 0.14651 0.81626 -0.32189
N_ N_ 0.109144 0.313447 0.558524 -0.32189
N_ N_ 0.19159 0.318609 0.645813 -0.32189
N_ N_ 0.353302 0.443763 0.69559 -0.32189
N_ N_ 0.437818 0.34924 0.685231 -0.32189
N_ N_ 0.391833 0.189957 0.952013 -0.32189
N_ N_ 0.305609 0.186801 0.856193 -0.32189
O_ O_ 0.500381 0.0856411 0.896813 -0.63271
O_ O_ 0.0479795 0.0362346 0.833576 -0.57982
O_ O_ 0.396823 0.0949161 0.845718 -0.63271
O_ O_ 0.368505 0.0924136 0.923641 -0.57982
O_ O_ 0.240134 0.39834 0.585394 -0.63271
O_ O_ 0.20258 0.339164 0.536147 -0.57982
O_ O_ 0.353672 0.343697 0.586485 -0.63271
O_ O_ 0.368076 0.424562 0.592857 -0.57982
O_ O_ 0.984228 0.409285 0.601555 -0.63271
O_ O_ 0.453004 0.461477 0.657649 -0.57982
O_ O_ 0.0924017 0.397804 0.642943 -0.63271
O_ O_ 0.127404 0.415439 0.575746 -0.57982
O_ O_ 0.258976 0.0973634 0.910342 -0.63271
O_ O_ 0.292779 0.155678 0.962616 -0.57982
O_ O_ 0.15434 0.147353 0.901609 -0.63271
O_ O_ 0.120835 0.0734167 0.903858 -0.57982
F_ F_ 0.429418 0.335098 0.932913 -0.20885
F_ F_ 0.419597 0.309632 0.853236 -0.20885
F_ F_ 0.363558 0.292815 0.902526 -0.20885
F_ F_ 0.302806 0.425323 0.816011 -0.20885
F_ F_ 0.311239 0.3406 0.821964 -0.20885
F_ F_ 0.369832 0.3785 0.788119 -0.20885
F_ F_ 0.0714362 0.173907 0.550037 -0.20885
F_ F_ 0.0647228 0.184349 0.632129 -0.20885
F_ F_ 0.138567 0.199874 0.602134 -0.20885
F_ F_ 0.170415 0.0668998 0.675783 -0.20885
F_ F_ 0.182815 0.150186 0.676016 -0.20885
F_ F_ 0.109247 0.128876 0.698968 -0.20885
Zn Zn 0.0880806 0.580309 0.348901 0.83971
Zn Zn 0.163718 0.838644 0.0888677 0.83971
Zn Zn 0.410706 0.922422 0.152285 0.83971
Zn Zn 0.344086 0.661265 0.424146 0.83971
H_ H_ 0.168904 0.627278 0.307099 0.10394
H_ H_ 0.247151 0.593416 0.267832 0.10394
H_ H_ 0.222322 0.951116 0.305814 0.10394
H_ H_ 0.133242 0.480397 0.327233 0.10394
H_ H_ 0.523935 0.597854 0.237004 0.10394
H_ H_ 0.489963 0.671752 0.189837 0.10394
H_ H_ 0.0282843 0.766035 0.345483 0.10394
H_ H_ 0.0689455 0.691378 0.38742 0.10394
H_ H_ 0.0380141 0.944885 0.365704 0.10394
H_ H_ 0.486699 0.875632 0.36462 0.10394
H_ H_ 0.361415 0.98385 0.406898 0.10394
H_ H_ 0.0850121 0.792616 0.139769 0.10394
H_ H_ 0.511186 0.758444 0.0979433 0.10394
H_ H_ 0.0271788 0.790887 0.442894 0.10394
H_ H_ 0.117142 0.815703 0.99099 0.10394
H_ H_ 0.229035 0.743666 0.103985 0.10394
H_ H_ 0.267645 0.700551 0.178857 0.10394
H_ H_ 0.203843 0.822485 0.275094 0.10394
H_ H_ 0.182269 0.871781 0.196334 0.10394
H_ H_ 0.219852 0.865264 0.437661 0.10394
H_ H_ 0.274847 0.873969 0.372244 0.10394
H_ H_ 0.396006 0.910102 0.492847 0.10394
H_ H_ 0.306986 0.904327 0.158756 0.10394
H_ H_ 0.23394 0.951236 0.192963 0.10394
H_ H_ 0.330011 0.537068 0.276644 0.10394
H_ H_ 0.4026 0.0120578 0.233589 0.10394
H_ H_ 0.0159628 0.875765 0.196967 0.10394
H_ H_ 0.0575519 0.803214 0.238525 0.10394
H_ H_ 0.41328 0.74494 0.208418 0.10394
H_ H_ 0.370132 0.832234 0.177809 0.10394
H_ H_ 0.459333 0.551129 0.100042 0.10394
H_ H_ 0.0244278 0.619714 0.114896 0.10394
H_ H_ 0.149722 0.508313 0.0905625 0.10394
H_ H_ 0.43942 0.673012 0.406567 0.10394
H_ H_ 0.0131415 0.690337 0.452148 0.10394
H_ H_ 0.417232 0.784422 0.0385497 0.10394
H_ H_ 0.352503 0.727588 0.52445 0.10394
H_ H_ 0.242916 0.700179 0.394257 0.10394
H_ H_ 0.191668 0.72387 0.314883 0.10394
H_ H_ 0.332137 0.749992 0.256091 0.10394
H_ H_ 0.380152 0.706392 0.330885 0.10394
H_ H_ 0.29114 0.626801 0.0547963 0.10394
H_ H_ 0.245376 0.603182 0.119139 0.10394
H_ H_ 0.110634 0.596141 0.0181995 0.10394
C_ C_ 0.178564 0.587391 0.304608 0.18167
C_ C_ 0.220649 0.568024 0.280668 -0.15533
C_ C_ 0.229785 0.514929 0.267591 0.02923
C_ C_ 0.210177 0.991808 0.301282 -0.15533
C_ C_ 0.154409 0.504503 0.309895 0.18167
C_ C_ 0.0445102 0.632997 0.271754 0.18167
C_ C_ 0.503786 0.676238 0.230648 -0.15533
C_ C_ 0.0127384 0.723563 0.27023 0.02923
C_ C_ 0.0300766 0.729163 0.323809 -0.15533
C_ C_ 0.0508346 0.685085 0.348686 0.18167
C_ C_ 0.00430009 0.547899 0.369211 0.69207
C_ C_ 0.485508 0.00476537 0.386823 0.02923
C_ C_ 0.506258 0.954173 0.383028 -0.15533
C_ C_ 0.473327 0.914183 0.383629 -0.15533
C_ C_ 0.421237 0.925287 0.396112 0.02923
C_ C_ 0.402462 0.975611 0.404559 -0.15533
C_ C_ 0.432334 0.0179668 0.399436 0.02923
C_ C_ 0.392102 0.580706 0.376494 0.69207
C_ C_ 0.405154 0.826268 0.392818 0.69661
C_ C_ 0.0734428 0.791025 0.0979599 0.18167
C_ C_ 0.0286117 0.768865 0.0795857 -0.15533
C_ C_ 0.0130364 0.768947 0.0264582 0.02923
C_ C_ 0.0414641 0.791987 0.482997 -0.15533
C_ C_ 0.0941659 0.798601 0.0162574 0.18167
C_ C_ 0.225605 0.761961 0.141424 0.18167
C_ C_ 0.23706 0.731968 0.184158 -0.15533
C_ C_ 0.230848 0.755045 0.231316 0.02923
C_ C_ 0.209223 0.805476 0.23753 -0.15533
C_ C_ 0.191424 0.831743 0.192785 0.18167
C_ C_ 0.239127 0.869519 0.048707 0.69207
C_ C_ 0.27934 0.87019 0.500631 0.02923
C_ C_ 0.260076 0.873659 0.448446 -0.15533
C_ C_ 0.288956 0.883425 0.411689 -0.15533
C_ C_ 0.341607 0.89232 0.425599 0.02923
C_ C_ 0.358296 0.89926 0.479446 -0.15533
C_ C_ 0.331456 0.883563 0.516037 0.02923
C_ C_ 0.352993 0.890346 0.0683802 0.69207
C_ C_ 0.362961 0.884763 0.328989 0.69661
C_ C_ 0.311207 0.939377 0.179507 0.18167
C_ C_ 0.269905 0.963006 0.203221 -0.15533
C_ C_ 0.278774 1.000537939 0.244689 0.02923
C_ C_ 0.321667 0.512132 0.242864 -0.15533
C_ C_ 0.364073 0.999111 0.221854 0.18167
C_ C_ 0.48999 0.855021 0.190301 0.18167
C_ C_ 0.0179758 0.806349 0.232076 -0.15533
C_ C_ 0.486133 0.770837 0.222749 0.02923
C_ C_ 0.434817 0.776348 0.204707 -0.15533
C_ C_ 0.411383 0.823285 0.188305 0.18167
C_ C_ 0.489879 0.955268 0.125406 0.69207
C_ C_ 0.0257581 0.492195 0.109766 0.02923
C_ C_ 0.00918978 0.54506 0.118657 -0.15533
C_ C_ 0.0422462 0.580999 0.117262 -0.15533
C_ C_ 0.0951056 0.569144 0.110053 0.02923
C_ C_ 0.112005 0.517003 0.0977022 -0.15533
C_ C_ 0.0783284 0.477052 0.0978303 0.02923
C_ C_ 0.101332 0.919446 0.109847 0.69207
C_ C_ 0.112749 0.665659 0.116846 0.69661
C_ C_ 0.440778 0.689838 0.445716 0.18167
C_ C_ 0.480111 0.71623 0.465257 -0.15533
C_ C_ 0.475362 0.748537 0.507583 0.02923
C_ C_ 0.423197 0.749333 0.0142148 -0.15533
C_ C_ 0.389235 0.724928 0.509243 0.18167
C_ C_ 0.26209 0.705318 0.362564 0.18167
C_ C_ 0.234183 0.71587 0.316046 -0.15533
C_ C_ 0.259925 0.730163 0.276211 0.02923
C_ C_ 0.313086 0.731703 0.284248 -0.15533
C_ C_ 0.339287 0.707681 0.325572 0.18167
C_ C_ 0.259447 0.628208 0.457472 0.69207
C_ C_ 0.23395 0.619224 0.993453 0.02923
C_ C_ 0.254515 0.616709 0.0434 -0.15533
C_ C_ 0.225156 0.609815 0.0845633 -0.15533
C_ C_ 0.171865 0.606845 0.0754582 0.02923
C_ C_ 0.151001 0.603587 0.024854 -0.15533
C_ C_ 0.181196 0.613991 0.984165 0.02923
C_ C_ 0.147625 0.608955 0.425335 0.69207
C_ C_ 0.160295 0.601864 0.16899 0.69661
C_ C_ 0.383555 0.88421 0.386081 -0.30787
C_ C_ 0.134086 0.60962 0.116107 -0.30787
N_ N_ 0.144096 0.555724 0.315304 -0.32189
N_ N_ 0.0606949 0.640297 0.321868 -0.32189
N_ N_ 0.10753 0.799215 0.0654672 -0.32189
N_ N_ 0.196752 0.807208 0.14713 -0.32189
N_ N_ 0.357811 0.956388 0.189269 -0.32189
N_ N_ 0.439416 0.86158 0.181511 -0.32189
N_ N_ 0.395349 0.696356 0.465133 -0.32189
N_ N_ 0.313975 0.693722 0.363023 -0.32189
O_ O_ 0.495106 0.602071 0.37388 -0.63271
O_ O_ 0.0396823 0.536429 0.337874 -0.57982
O_ O_ 0.388053 0.609959 0.33862 -0.63271
O_ O_ 0.373562 0.597925 0.418599 -0.57982
O_ O_ 0.24064 0.895423 0.0931751 -0.63271
O_ O_ 0.204882 0.836461 0.037724 -0.57982
O_ O_ 0.356718 0.847452 0.0933639 -0.63271
O_ O_ 0.375488 0.927946 0.0913065 -0.57982
O_ O_ 0.987354 0.900388 0.10058 -0.63271
O_ O_ 0.454804 0.967556 0.157143 -0.57982
O_ O_ 0.0989931 0.892251 0.150188 -0.63271
O_ O_ 0.133271 0.901256 0.0783948 -0.57982
O_ O_ 0.256425 0.602851 0.412365 -0.63271
O_ O_ 0.294752 0.659231 0.467869 -0.57982
O_ O_ 0.146771 0.650495 0.401817 -0.63271
O_ O_ 0.110427 0.579418 0.41275 -0.57982
F_ F_ 0.433665 0.827258 0.438421 -0.20885
F_ F_ 0.431769 0.805123 0.352659 -0.20885
F_ F_ 0.362363 0.79658 0.397248 -0.20885
F_ F_ 0.331998 0.928333 0.317884 -0.20885
F_ F_ 0.335783 0.843847 0.310723 -0.20885
F_ F_ 0.403391 0.880373 0.29914 -0.20885
F_ F_ 0.072069 0.671748 0.0757885 -0.20885
F_ F_ 0.089518 0.683407 0.159544 -0.20885
F_ F_ 0.149201 0.699507 0.120361 -0.20885
F_ F_ 0.194483 0.5583 0.171859 -0.20885
F_ F_ 0.186914 0.64221 0.191884 -0.20885
F_ F_ 0.128186 0.596973 0.205132 -0.20885
Zn Zn 0.086045 0.584064 0.849815 0.83971
Zn Zn 0.163065 0.845993 0.576644 0.83971
Zn Zn 0.409845 0.923604 0.655487 0.83971
Zn Zn 0.339234 0.655998 0.906517 0.83971
H_ H_ 0.17068 0.631725 0.807701 0.10394
H_ H_ 0.251699 0.593617 0.775618 0.10394
H_ H_ 0.209312 0.957074 0.774471 0.10394
H_ H_ 0.133231 0.485002 0.840266 0.10394
H_ H_ 0.527562 0.60059 0.745477 0.10394
H_ H_ 0.493827 0.675543 0.695949 0.10394
H_ H_ 0.0253776 0.768779 0.839075 0.10394
H_ H_ 0.0721458 0.697927 0.882212 0.10394
H_ H_ 0.0317143 0.941362 0.852549 0.10394
H_ H_ 0.460866 0.875398 0.860948 0.10394
H_ H_ 0.346699 0.992625 0.909396 0.10394
H_ H_ 0.0871863 0.80714 0.624472 0.10394
H_ H_ 0.509967 0.776396 0.604547 0.10394
H_ H_ 0.0375191 0.788339 0.952344 0.10394
H_ H_ 0.114157 0.817533 0.472491 0.10394
H_ H_ 0.216807 0.737717 0.576666 0.10394
H_ H_ 0.257453 0.689915 0.654309 0.10394
H_ H_ 0.221364 0.817429 0.756161 0.10394
H_ H_ 0.188951 0.86863 0.679217 0.10394
H_ H_ 0.214129 0.8657 0.948914 0.10394
H_ H_ 0.254689 0.903357 0.882939 0.10394
H_ H_ 0.39084 0.910571 0.987016 0.10394
H_ H_ 0.304738 0.921214 0.644836 0.10394
H_ H_ 0.231478 0.969865 0.678306 0.10394
H_ H_ 0.33566 0.535287 0.78898 0.10394
H_ H_ 0.408141 -0.00042200000000003346 0.743681 0.10394
H_ H_ 0.0215699 0.880782 0.699718 0.10394
H_ H_ 0.0572892 0.803487 0.741213 0.10394
H_ H_ 0.409071 0.752459 0.72033 0.10394
H_ H_ 0.368801 0.828002 0.682643 0.10394
H_ H_ 0.459475 0.550458 0.614516 0.10394
H_ H_ 0.0105 0.623793 0.6258 0.10394
H_ H_ 0.135968 0.509981 0.601488 0.10394
H_ H_ 0.446302 0.663189 0.893576 0.10394
H_ H_ 0.0115403 0.692532 0.953634 0.10394
H_ H_ 0.428232 0.769834 0.566971 0.10394
H_ H_ 0.34471 0.735261 -0.0030280000000000307 0.10394
H_ H_ 0.234386 0.695989 0.869275 0.10394
H_ H_ 0.194591 0.724165 0.781848 0.10394
H_ H_ 0.339855 0.697322 0.725293 0.10394
H_ H_ 0.379705 0.683204 0.810205 0.10394
H_ H_ 0.277746 0.638763 0.561964 0.10394
H_ H_ 0.229238 0.611385 0.622627 0.10394
H_ H_ 0.0997479 0.594825 0.506971 0.10394
C_ C_ 0.181326 0.590513 0.805187 0.18167
C_ C_ 0.223614 0.570653 0.78343 -0.15533
C_ C_ 0.234466 0.517683 0.777092 0.02923
C_ C_ 0.199368 0.996507 0.775097 -0.15533
C_ C_ 0.159703 0.50827 0.822763 0.18167
C_ C_ 0.036248 0.638525 0.773035 0.18167
C_ C_ 0.505871 0.680629 0.735984 -0.15533
C_ C_ 0.00662105 0.727055 0.771162 0.02923
C_ C_ 0.0317284 0.733549 0.820092 -0.15533
C_ C_ 0.0540637 0.690278 0.845493 0.18167
C_ C_ 0.000608538 0.54609 0.871885 0.69207
C_ C_ 0.46602 0.00358777 0.874159 0.02923
C_ C_ 0.478578 0.953862 0.859779 -0.15533
C_ C_ 0.445832 0.915759 0.863055 -0.15533
C_ C_ 0.400105 0.929517 0.885243 0.02923
C_ C_ 0.385853 0.981247 0.900244 -0.15533
C_ C_ 0.417811 0.0200282 0.892298 0.02923
C_ C_ 0.398284 0.57092 0.876523 0.69207
C_ C_ 0.382827 0.834653 0.888983 0.69661
C_ C_ 0.0701189 0.808341 0.584615 0.18167
C_ C_ 0.0287638 0.780831 0.570131 -0.15533
C_ C_ 0.0118484 0.77532 0.516943 0.02923
C_ C_ 0.0463067 0.786172 0.995159 -0.15533
C_ C_ 0.0860623 0.815332 0.498613 0.18167
C_ C_ 0.216513 0.754725 0.616394 0.18167
C_ C_ 0.24885 0.732241 0.657181 -0.15533
C_ C_ 0.2484 0.753969 0.707279 0.02923
C_ C_ 0.224754 0.803076 0.715929 -0.15533
C_ C_ 0.20171 0.829366 0.672941 0.18167
C_ C_ 0.245835 0.856716 0.537099 0.69207
C_ C_ 0.271855 0.884217 0.00899798 0.02923
C_ C_ 0.248527 0.884601 0.958795 -0.15533
C_ C_ 0.27568 0.893298 0.918335 -0.15533
C_ C_ 0.327279 0.902193 0.92776 0.02923
C_ C_ 0.350429 0.903662 0.97733 -0.15533
C_ C_ 0.32353 0.895203 0.0183002 0.02923
C_ C_ 0.359258 0.881237 0.567948 0.69207
C_ C_ 0.333988 0.892161 0.824608 0.69661
C_ C_ 0.311507 0.944227 0.679186 0.18167
C_ C_ 0.270471 0.975735 0.695809 -0.15533
C_ C_ 0.276917 1.0112879 0.738507 0.02923
C_ C_ 0.324 0.509857 0.756104 -0.15533
C_ C_ 0.36887 0.992867 0.731173 0.18167
C_ C_ 0.488826 0.858388 0.705631 0.18167
C_ C_ 0.0171868 0.812149 0.735831 -0.15533
C_ C_ 0.485028 0.773216 0.727888 0.02923
C_ C_ 0.432926 0.778405 0.713397 -0.15533
C_ C_ 0.40905 0.823163 0.68893 0.18167
C_ C_ 0.48901 0.955476 0.62845 0.69207
C_ C_ 0.014669 0.494195 0.615648 0.02923
C_ C_ 0.996902 0.545631 0.62228 -0.15533
C_ C_ 0.0272472 0.584853 0.617112 -0.15533
C_ C_ 0.0794629 0.571775 0.60631 0.02923
C_ C_ 0.0973889 0.520012 0.602754 -0.15533
C_ C_ 0.0666233 0.481843 0.610183 0.02923
C_ C_ 0.102748 0.925409 0.60903 0.69207
C_ C_ 0.0938302 0.666534 0.596821 0.69661
C_ C_ 0.439222 0.681193 0.931377 0.18167
C_ C_ 0.480261 0.701848 0.959318 -0.15533
C_ C_ 0.472316 0.73923 -0.0009580000000000144 0.02923
C_ C_ 0.430889 0.750932 0.530718 -0.15533
C_ C_ 0.382531 0.726903 0.986161 0.18167
C_ C_ 0.256803 0.693902 0.835483 0.18167
C_ C_ 0.234053 0.71563 0.789432 -0.15533
C_ C_ 0.265241 0.718219 0.748907 0.02923
C_ C_ 0.317639 0.702968 0.756769 -0.15533
C_ C_ 0.338458 0.686464 0.804935 0.18167
C_ C_ 0.263686 0.628756 0.951224 0.69207
C_ C_ 0.223115 0.621005 0.496643 0.02923
C_ C_ 0.238765 0.627692 0.5484 -0.15533
C_ C_ 0.207387 0.617402 0.584465 -0.15533
C_ C_ 0.157153 0.604947 0.570783 0.02923
C_ C_ 0.140938 0.595403 0.517925 -0.15533
C_ C_ 0.171821 0.607973 0.48008 0.02923
C_ C_ 0.152844 0.616499 0.931294 0.69207
C_ C_ 0.141939 0.614154 0.665877 0.69661
C_ C_ 0.359139 0.891519 0.881285 -0.30787
C_ C_ 0.117792 0.613363 0.610028 -0.30787
N_ N_ 0.147492 0.559847 0.819691 -0.32189
N_ N_ 0.0525252 0.641846 0.822948 -0.32189
N_ N_ 0.102455 0.819284 0.549176 -0.32189
N_ N_ 0.195651 0.804367 0.62584 -0.32189
N_ N_ 0.359143 0.955235 0.693785 -0.32189
N_ N_ 0.437144 0.863041 0.685998 -0.32189
N_ N_ 0.390387 0.696299 0.943294 -0.32189
N_ N_ 0.308724 0.683126 0.843137 -0.32189
O_ O_ 0.5043 0.578678 0.886062 -0.63271
O_ O_ 0.0389763 0.536546 0.846027 -0.57982
O_ O_ 0.399777 0.598599 0.83658 -0.63271
O_ O_ 0.373955 0.591366 0.913265 -0.57982
O_ O_ 0.252952 0.876429 0.583275 -0.63271
O_ O_ 0.201544 0.839771 0.522892 -0.57982
O_ O_ 0.362715 0.839191 0.592189 -0.63271
O_ O_ 0.381562 0.919822 0.590123 -0.57982
O_ O_ 0.995827 0.913056 0.610136 -0.63271
O_ O_ 0.453694 0.971181 0.65951 -0.57982
O_ O_ 0.0987117 0.896947 0.648767 -0.63271
O_ O_ 0.139022 0.91252 0.579514 -0.57982
O_ O_ 0.258163 0.602046 0.9061 -0.63271
O_ O_ 0.293098 0.665289 0.95347 -0.57982
O_ O_ 0.15692 0.654208 0.89999 -0.63271
O_ O_ 0.116688 0.585545 0.918116 -0.57982
F_ F_ 0.414073 0.8327 0.933885 -0.20885
F_ F_ 0.408516 0.813173 0.849629 -0.20885
F_ F_ 0.344502 0.803746 0.893794 -0.20885
F_ F_ 0.305925 0.938921 0.822278 -0.20885
F_ F_ 0.308097 0.849087 0.811461 -0.20885
F_ F_ 0.368279 0.890274 0.787527 -0.20885
F_ F_ 0.0549439 0.662442 0.556624 -0.20885
F_ F_ 0.0672371 0.688153 0.637078 -0.20885
F_ F_ 0.125939 0.701724 0.585443 -0.20885
F_ F_ 0.175606 0.572037 0.679357 -0.20885
F_ F_ 0.165191 0.654703 0.684551 -0.20885
F_ F_ 0.102674 0.614793 0.697299 -0.20885
Zn Zn 0.594814 0.0849134 0.353197 0.83971
Zn Zn 0.659766 0.345687 0.0874591 0.83971
Zn Zn 0.911605 0.420669 0.153987 0.83971
Zn Zn 0.845981 0.15506 0.421118 0.83971
H_ H_ 0.686941 0.13151 0.320175 0.10394
H_ H_ 0.756702 0.0973858 0.273045 0.10394
H_ H_ 0.726885 0.453696 0.310001 0.10394
H_ H_ 0.636849 0.987578 0.324706 0.10394
H_ H_ 0.0354723 0.102964 0.2473 0.10394
H_ H_ 1.00353 0.178717 0.203 0.10394
H_ H_ 0.516007 0.266265 0.336779 0.10394
H_ H_ 0.574661 0.197617 0.377462 0.10394
H_ H_ 0.527893 0.449423 0.372782 0.10394
H_ H_ 0.997445 0.38068 0.405644 0.10394
H_ H_ 0.85683 0.484336 0.415309 0.10394
H_ H_ 0.584151 0.302629 0.135436 0.10394
H_ H_ 0.99670998 0.261282 0.107249 0.10394
H_ H_ 0.525637 0.307413 0.453481 0.10394
H_ H_ 0.606731 0.327848 0.98493 0.10394
H_ H_ 0.727908 0.244905 0.100836 0.10394
H_ H_ 0.758814 0.201471 0.177037 0.10394
H_ H_ 0.713464 0.336987 0.272185 0.10394
H_ H_ 0.679855 0.375868 0.190387 0.10394
H_ H_ 0.720991 0.369027 0.441779 0.10394
H_ H_ 0.778309 0.373354 0.375812 0.10394
H_ H_ 0.901061 0.386135 0.494951 0.10394
H_ H_ 0.807395 0.395129 0.169003 0.10394
H_ H_ 0.737248 0.440832 0.208469 0.10394
H_ H_ 0.837311 0.0412725 0.285533 0.10394
H_ H_ 0.900581 0.515845 0.21838 0.10394
H_ H_ 0.510547 0.376438 0.188434 0.10394
H_ H_ 0.546716 0.300729 0.240585 0.10394
H_ H_ 0.919235 0.250776 0.231156 0.10394
H_ H_ 0.877324 0.324341 0.185816 0.10394
H_ H_ 0.959965 0.0507017 0.119702 0.10394
H_ H_ 0.531466 0.123894 0.136576 0.10394
H_ H_ 0.647366 0.00546288 0.0921427 0.10394
H_ H_ 0.94421 0.170584 0.396496 0.10394
H_ H_ 0.515911 0.200864 0.447953 0.10394
H_ H_ 0.909433 0.278984 0.0478494 0.10394
H_ H_ 0.849319 0.2322 0.507348 0.10394
H_ H_ 0.743236 0.204506 0.391388 0.10394
H_ H_ 0.700962 0.250124 0.3183 0.10394
H_ H_ 0.838832 0.222249 0.248468 0.10394
H_ H_ 0.880561 0.186795 0.323681 0.10394
H_ H_ 0.793275 0.10935 0.0482833 0.10394
H_ H_ 0.741866 0.098273 0.120367 0.10394
H_ H_ 0.610082 0.076318 0.0124995 0.10394
C_ C_ 0.690399 0.0917111 0.309494 0.18167
C_ C_ 0.733813 0.0716076 0.284235 -0.15533
C_ C_ 0.738755 0.0198285 0.269506 0.02923
C_ C_ 0.709713 0.492671 0.299822 -0.15533
C_ C_ 0.662425 0.0100096 0.310342 0.18167
C_ C_ 0.530244 0.130302 0.273466 0.18167
C_ C_ 0.0178273 0.183756 0.241605 -0.15533
C_ C_ 0.50105 0.220466 0.26705 0.02923
C_ C_ 0.526193 0.229078 0.315263 -0.15533
C_ C_ 0.553371 0.19059 0.340653 0.18167
C_ C_ 0.517533 0.0435433 0.375017 0.69207
C_ C_ 0.972812 0.508393 0.381225 0.02923
C_ C_ 1.00005 0.460315 0.391371 -0.15533
C_ C_ 0.974323 0.417711 0.403188 -0.15533
C_ C_ 0.920137 0.42544 0.405062 0.02923
C_ C_ 0.896549 0.477103 0.406606 -0.15533
C_ C_ 0.92145 0.51912 0.394082 0.02923
C_ C_ 0.904422 0.0749622 0.390787 0.69207
C_ C_ 0.909416 0.3289 0.384398 0.69661
C_ C_ 0.572752 0.295686 0.0941562 0.18167
C_ C_ 0.525573 0.275506 0.0781412 -0.15533
C_ C_ 0.511865 0.270635 0.0233725 0.02923
C_ C_ 0.540616 0.299276 0.491901 -0.15533
C_ C_ 0.584074 0.316768 0.00998449 0.18167
C_ C_ 0.724015 0.264029 0.138898 0.18167
C_ C_ 0.743242 0.23868 0.182634 -0.15533
C_ C_ 0.738435 0.26229 0.229941 0.02923
C_ C_ 0.713404 0.312961 0.234954 -0.15533
C_ C_ 0.693097 0.334952 0.188105 0.18167
C_ C_ 0.742704 0.35421 0.0473169 0.69207
C_ C_ 0.780135 0.363927 0.506566 0.02923
C_ C_ 0.761482 0.371742 0.454474 -0.15533
C_ C_ 0.792716 0.378395 0.415759 -0.15533
C_ C_ 0.846302 0.382131 0.429388 0.02923
C_ C_ 0.863087 0.38443 0.482148 -0.15533
C_ C_ 0.83175 0.373307 0.520252 0.02923
C_ C_ 0.852452 0.383289 0.0760233 0.69207
C_ C_ 0.862133 0.392214 0.332562 0.69661
C_ C_ 0.812415 0.433171 0.186761 0.18167
C_ C_ 0.772472 0.455439 0.213878 -0.15533
C_ C_ 0.780356 0.501139 0.245003 0.02923
C_ C_ 0.829767 0.0134617 0.251084 -0.15533
C_ C_ 0.863569 0.500851 0.215987 0.18167
C_ C_ 0.994008 0.359598 0.205945 0.18167
C_ C_ 0.507577 0.306209 0.225288 -0.15533
C_ C_ 0.993273 0.278453 0.23724 0.02923
C_ C_ 0.941336 0.281484 0.224143 -0.15533
C_ C_ 0.915178 0.324316 0.201814 0.18167
C_ C_ 0.987983 0.454798 0.115521 0.69207
C_ C_ 0.526056 0.992887 0.116349 0.02923
C_ C_ 0.51011 0.0470384 0.124958 -0.15533
C_ C_ 0.542592 0.0842869 0.122407 -0.15533
C_ C_ 0.59222 0.0698102 0.109258 0.02923
C_ C_ 0.609009 0.0175038 0.100573 -0.15533
C_ C_ 0.576996 0.977793 0.107618 0.02923
C_ C_ 0.598221 0.419368 0.10924 0.69207
C_ C_ 0.615797 0.165825 0.108835 0.69661
C_ C_ 0.938844 0.192962 0.431869 0.18167
C_ C_ 0.980587 0.215966 0.45543 -0.15533
C_ C_ 0.975485 0.246233 0.500059 0.02923
C_ C_ 0.919869 0.246884 0.0164652 -0.15533
C_ C_ 0.886881 0.2244 0.495143 0.18167
C_ C_ 0.764854 0.209735 0.360161 0.18167
C_ C_ 0.74142 0.238723 0.320768 -0.15533
C_ C_ 0.767748 0.242887 0.277708 0.02923
C_ C_ 0.819276 0.225719 0.2804 -0.15533
C_ C_ 0.842206 0.201609 0.323222 0.18167
C_ C_ 0.766708 0.127297 0.460904 0.69207
C_ C_ 0.729427 0.104039 0.989585 0.02923
C_ C_ 0.750868 0.108825 0.04085 -0.15533
C_ C_ 0.722028 0.104535 0.0806433 -0.15533
C_ C_ 0.670822 0.0958051 0.0729157 0.02923
C_ C_ 0.649201 0.0881449 0.0214891 -0.15533
C_ C_ 0.676113 0.0951296 0.980376 0.02923
C_ C_ 0.655997 0.107131 0.430067 0.69207
C_ C_ 0.657938 0.107196 0.170085 0.69661
C_ C_ 0.884347 0.385036 0.388553 -0.30787
C_ C_ 0.634402 0.110136 0.114892 -0.30787
N_ N_ 0.65411 0.061102 0.319357 -0.32189
N_ N_ 0.557484 0.142803 0.319195 -0.32189
N_ N_ 0.600228 0.316887 0.060976 -0.32189
N_ N_ 0.694906 0.310669 0.142255 -0.32189
N_ N_ 0.858227 0.452622 0.194034 -0.32189
N_ N_ 0.943546 0.362631 0.189186 -0.32189
N_ N_ 0.894851 0.194508 0.453001 -0.32189
N_ N_ 0.815222 0.190218 0.360594 -0.32189
O_ O_ 0.00750558 0.099705 0.389495 -0.63271
O_ O_ 0.555369 0.0295889 0.346555 -0.57982
O_ O_ 0.898663 0.102466 0.349862 -0.63271
O_ O_ 0.878904 0.0911576 0.428261 -0.57982
O_ O_ 0.750186 0.373856 0.0936142 -0.63271
O_ O_ 0.699537 0.336248 0.0372854 -0.57982
O_ O_ 0.857923 0.341221 0.100752 -0.63271
O_ O_ 0.881495 0.420137 0.0935005 -0.57982
O_ O_ 0.485667 0.402637 0.0921824 -0.63271
O_ O_ 0.955729 0.467435 0.151536 -0.57982
O_ O_ 0.594056 0.394387 0.149913 -0.63271
O_ O_ 0.64059 0.411337 0.0867792 -0.57982
O_ O_ 0.766593 0.0979525 0.418315 -0.63271
O_ O_ 0.802528 0.157206 0.469961 -0.57982
O_ O_ 0.655285 0.151762 0.406936 -0.63271
O_ O_ 0.619824 0.0785897 0.417545 -0.57982
F_ F_ 0.935143 0.317365 0.431374 -0.20885
F_ F_ 0.944699 0.325981 0.34931 -0.20885
F_ F_ 0.876308 0.291779 0.376749 -0.20885
F_ F_ 0.830502 0.437015 0.329649 -0.20885
F_ F_ 0.833564 0.353829 0.308219 -0.20885
F_ F_ 0.897979 0.403272 0.298802 -0.20885
F_ F_ 0.5853 0.166892 0.06335 -0.20885
F_ F_ 0.585336 0.188847 0.144365 -0.20885
F_ F_ 0.653736 0.199815 0.109434 -0.20885
F_ F_ 0.683806 0.0607981 0.170263 -0.20885
F_ F_ 0.695264 0.141861 0.181636 -0.20885
F_ F_ 0.620887 0.114595 0.204853 -0.20885
Zn Zn 0.58438 0.0778375 0.848213 0.83971
Zn Zn 0.663429 0.341954 0.587532 0.83971
Zn Zn 0.906374 0.414223 0.660296 0.83971
Zn Zn 0.838982 0.147434 0.915845 0.83971
H_ H_ 0.662268 0.130169 0.802024 0.10394
H_ H_ 0.742719 0.09489 0.759447 0.10394
H_ H_ 0.712893 0.451877 0.806704 0.10394
H_ H_ 0.633301 0.981303 0.826374 0.10394
H_ H_ 0.0228334 0.101211 0.754962 0.10394
H_ H_ 0.99376175 0.176782 0.701906 0.10394
H_ H_ 0.516467 0.258678 0.838599 0.10394
H_ H_ 0.563139 0.182699 0.883394 0.10394
H_ H_ 0.517539 0.435483 0.835043 0.10394
H_ H_ 0.982907 0.377946 0.90004 0.10394
H_ H_ 0.848856 0.484302 0.912147 0.10394
H_ H_ 0.585447 0.292907 0.632155 0.10394
H_ H_ 0.00902155 0.268102 0.602326 0.10394
H_ H_ 0.526124 0.296514 0.950462 0.10394
H_ H_ 0.612246 0.329518 0.485407 0.10394
H_ H_ 0.738559 0.263631 0.607086 0.10394
H_ H_ 0.769282 0.212273 0.680212 0.10394
H_ H_ 0.688411 0.320767 0.774733 0.10394
H_ H_ 0.664114 0.376748 0.700051 0.10394
H_ H_ 0.715365 0.35764 0.944224 0.10394
H_ H_ 0.773341 0.355743 0.879789 0.10394
H_ H_ 0.885812 0.419025 0.991032 0.10394
H_ H_ 0.803128 0.390809 0.666118 0.10394
H_ H_ 0.727053 0.439971 0.701305 0.10394
H_ H_ 0.83073 0.0500751 0.777107 0.10394
H_ H_ 0.893585 0.505279 0.723216 0.10394
H_ H_ 0.512415 0.373449 0.701384 0.10394
H_ H_ 0.546147 0.290405 0.741877 0.10394
H_ H_ 0.91112 0.247808 0.729746 0.10394
H_ H_ 0.874059 0.32817 0.688206 0.10394
H_ H_ 0.962138 0.0535826 0.618407 0.10394
H_ H_ 0.514213 0.124271 0.616211 0.10394
H_ H_ 0.639965 0.013862 0.58521 0.10394
H_ H_ 0.942258 0.161226 0.898554 0.10394
H_ H_ 0.512571 0.212712 0.940629 0.10394
H_ H_ 0.919082 0.278351 0.549059 0.10394
H_ H_ 0.841888 0.225914 0.00279000000000007 0.10394
H_ H_ 0.734929 0.190141 0.888972 0.10394
H_ H_ 0.692182 0.230538 0.81589 0.10394
H_ H_ 0.837174 0.244662 0.764574 0.10394
H_ H_ 0.876881 0.195367 0.8323 0.10394
H_ H_ 0.77858 0.149953 0.564154 0.10394
H_ H_ 0.723271 0.140847 0.625985 0.10394
H_ H_ 0.606004 0.0917371 0.51018 0.10394
C_ C_ 0.673942 0.0900294 0.795736 0.18167
C_ C_ 0.720489 0.0707057 0.777374 -0.15533
C_ C_ 0.736236 0.0188462 0.77958 0.02923
C_ C_ 0.694206 0.485592 0.78776 -0.15533
C_ C_ 0.656528 0.00464866 0.811241 0.18167
C_ C_ 0.528106 0.12843 0.765815 0.18167
C_ C_ 0.0116282 0.1816 0.740598 -0.15533
C_ C_ 0.494271 0.217153 0.769767 0.02923
C_ C_ 0.514871 0.222167 0.820669 -0.15533
C_ C_ 0.541313 0.180073 0.844839 0.18167
C_ C_ 0.505267 0.040066 0.872405 0.69207
C_ C_ 0.96783 0.505496 0.881985 0.02923
C_ C_ 0.990956 0.456534 0.894871 -0.15533
C_ C_ 0.962112 0.416115 0.893133 -0.15533
C_ C_ 0.907846 0.426633 0.897564 0.02923
C_ C_ 0.886077 0.475483 0.896124 -0.15533
C_ C_ 0.913278 0.51562 0.885389 0.02923
C_ C_ 0.894578 0.0693656 0.877585 0.69207
C_ C_ 0.900855 0.327397 0.888741 0.69661
C_ C_ 0.572037 0.299324 0.593996 0.18167
C_ C_ 0.523554 0.285677 0.574263 -0.15533
C_ C_ 0.509595 0.277917 0.52308 0.02923
C_ C_ 0.538291 0.296252 0.990827 -0.15533
C_ C_ 0.588884 0.314314 0.511837 0.18167
C_ C_ 0.72672 0.276128 0.64444 0.18167
C_ C_ 0.749101 0.250329 0.686836 -0.15533
C_ C_ 0.738606 0.266432 0.735672 0.02923
C_ C_ 0.705599 0.312737 0.740701 -0.15533
C_ C_ 0.683323 0.338514 0.696062 0.18167
C_ C_ 0.743122 0.361362 0.544404 0.69207
C_ C_ 0.776554 0.36227 1.00835546 0.02923
C_ C_ 0.756318 0.362101 0.955679 -0.15533
C_ C_ 0.787178 0.36995 0.916815 -0.15533
C_ C_ 0.83404 0.38866 0.927689 0.02923
C_ C_ 0.850196 0.399611 0.980681 -0.15533
C_ C_ 0.823715 0.383236 0.0219297 0.02923
C_ C_ 0.852914 0.37128 0.573712 0.69207
C_ C_ 0.84819 0.386761 0.831469 0.69661
C_ C_ 0.806888 0.427704 0.685666 0.18167
C_ C_ 0.7659 0.447586 0.715425 -0.15533
C_ C_ 0.770871 0.491646 0.742964 0.02923
C_ C_ 0.826284 0.016235 0.756028 -0.15533
C_ C_ 0.859067 0.488238 0.723384 0.18167
C_ C_ 0.991082 0.353128 0.699653 0.18167
C_ C_ 0.506222 0.301862 0.735313 -0.15533
C_ C_ 0.986487 0.274013 0.738855 0.02923
C_ C_ 0.933969 0.279723 0.726531 -0.15533
C_ C_ 0.911636 0.322666 0.699214 0.18167
C_ C_ 0.97978 0.454994 0.625165 0.69207
C_ C_ 0.519518 0.994188 0.610775 0.02923
C_ C_ 0.497686 0.0452693 0.609636 -0.15533
C_ C_ 0.52957 0.08425 0.608173 -0.15533
C_ C_ 0.581259 0.0741967 0.597671 0.02923
C_ C_ 0.600136 0.0210686 0.594338 -0.15533
C_ C_ 0.571683 0.981762 0.6021 0.02923
C_ C_ 0.600446 0.424842 0.616583 0.69207
C_ C_ 0.599698 0.170435 0.613617 0.69661
C_ C_ 0.93821 0.175072 0.936998 0.18167
C_ C_ 0.977471 0.194975 0.96514 -0.15533
C_ C_ 0.968643 0.234215 0.00268494 0.02923
C_ C_ 0.926577 0.251468 0.518636 -0.15533
C_ C_ 0.880162 0.219941 0.99095 0.18167
C_ C_ 0.757945 0.201207 0.859086 0.18167
C_ C_ 0.732133 0.222673 0.816097 -0.15533
C_ C_ 0.762168 0.240729 0.782808 0.02923
C_ C_ 0.812922 0.228404 0.787495 -0.15533
C_ C_ 0.836302 0.198285 0.825703 0.18167
C_ C_ 0.761684 0.117243 0.948978 0.69207
C_ C_ 0.725756 0.125336 0.498164 0.02923
C_ C_ 0.743117 0.133442 0.552575 -0.15533
C_ C_ 0.710611 0.132097 0.588293 -0.15533
C_ C_ 0.661586 0.112042 0.575431 0.02923
C_ C_ 0.646124 0.0997234 0.522366 -0.15533
C_ C_ 0.677019 0.108577 0.483452 0.02923
C_ C_ 0.6515 0.0973261 0.924987 0.69207
C_ C_ 0.647855 0.100786 0.667508 0.69661
C_ C_ 0.873432 0.38116 0.887962 -0.30787
C_ C_ 0.620726 0.11367 0.613668 -0.30787
N_ N_ 0.643376 0.0563568 0.810139 -0.32189
N_ N_ 0.548315 0.135792 0.816901 -0.32189
N_ N_ 0.605199 0.310521 0.562698 -0.32189
N_ N_ 0.693617 0.317983 0.649439 -0.32189
N_ N_ 0.854995 0.441363 0.698561 -0.32189
N_ N_ 0.941082 0.355255 0.685102 -0.32189
N_ N_ 0.889974 0.186524 0.951823 -0.32189
N_ N_ 0.809387 0.189188 0.863178 -0.32189
O_ O_ 0.00720775 0.0883447 0.892326 -0.63271
O_ O_ 0.543658 0.0282905 0.845368 -0.57982
O_ O_ 0.893961 0.100307 0.841726 -0.63271
O_ O_ 0.87444 0.0888127 0.921219 -0.57982
O_ O_ 0.746858 0.391123 0.585791 -0.63271
O_ O_ 0.704955 0.333806 0.537177 -0.57982
O_ O_ 0.858278 0.327049 0.59676 -0.63271
O_ O_ 0.873924 0.410777 0.596896 -0.57982
O_ O_ 0.488058 0.407768 0.595122 -0.63271
O_ O_ 0.945925 0.465355 0.654981 -0.57982
O_ O_ 0.586718 0.397168 0.651508 -0.63271
O_ O_ 0.641062 0.407673 0.592969 -0.57982
O_ O_ 0.761854 0.0886896 0.90619 -0.63271
O_ O_ 0.795363 0.148565 0.96157 -0.57982
O_ O_ 0.658719 0.135325 0.898486 -0.63271
O_ O_ 0.610797 0.0749468 0.913049 -0.57982
F_ F_ 0.932332 0.324135 0.933748 -0.20885
F_ F_ 0.928392 0.313087 0.845943 -0.20885
F_ F_ 0.8681 0.290833 0.888026 -0.20885
F_ F_ 0.809889 0.426726 0.830806 -0.20885
F_ F_ 0.825745 0.343554 0.808203 -0.20885
F_ F_ 0.882856 0.396661 0.795678 -0.20885
F_ F_ 0.570257 0.181104 0.568428 -0.20885
F_ F_ 0.569869 0.180946 0.652524 -0.20885
F_ F_ 0.636351 0.205043 0.623546 -0.20885
F_ F_ 0.681978 0.0587624 0.665615 -0.20885
F_ F_ 0.678147 0.133919 0.698225 -0.20885
F_ F_ 0.613418 0.0886482 0.698218 -0.20885
Zn Zn 0.583766 0.58534 0.338465 0.83971
Zn Zn 0.662034 0.846362 0.0816789 0.83971
Zn Zn 0.908691 0.911862 0.156284 0.83971
Zn Zn 0.832688 0.656544 0.411004 0.83971
H_ H_ 0.65947 0.635992 0.295812 0.10394
H_ H_ 0.743516 0.600798 0.258684 0.10394
H_ H_ 0.716095 0.948113 0.281882 0.10394
H_ H_ 0.645313 0.49252 0.343257 0.10394
H_ H_ 0.0451924 0.593312 0.256298 0.10394
H_ H_ 1.0036 0.668749 0.205594 0.10394
H_ H_ 0.529797 0.769593 0.322379 0.10394
H_ H_ 0.56819 0.689531 0.364243 0.10394
H_ H_ 0.546284 0.944926 0.375318 0.10394
H_ H_ 0.977602 0.883784 0.358694 0.10394
H_ H_ 0.858981 0.994312 0.40567 0.10394
H_ H_ 0.587856 0.797024 0.131971 0.10394
H_ H_ 1.00610727 0.752648 0.103909 0.10394
H_ H_ 0.531496 0.798134 0.450517 0.10394
H_ H_ 0.610342 0.829759 0.981099 0.10394
H_ H_ 0.71031 0.745272 0.0906877 0.10394
H_ H_ 0.755126 0.701196 0.163487 0.10394
H_ H_ 0.727289 0.833591 0.258392 0.10394
H_ H_ 0.698765 0.880819 0.181884 0.10394
H_ H_ 0.720443 0.890919 0.456374 0.10394
H_ H_ 0.769824 0.902659 0.383831 0.10394
H_ H_ 0.903076 0.905209 0.490209 0.10394
H_ H_ 0.803776 0.905376 0.147138 0.10394
H_ H_ 0.727645 0.966223 0.179359 0.10394
H_ H_ 0.831414 0.556242 0.272921 0.10394
H_ H_ 0.910147 0.986629 0.243736 0.10394
H_ H_ 0.513765 0.887732 0.192888 0.10394
H_ H_ 0.554274 0.80861 0.217734 0.10394
H_ H_ 0.917436 0.740425 0.229615 0.10394
H_ H_ 0.874133 0.814138 0.184992 0.10394
H_ H_ 0.970597 0.555111 0.125707 0.10394
H_ H_ 0.514787 0.613115 0.0953691 0.10394
H_ H_ 0.641657 0.500195 0.0936355 0.10394
H_ H_ 0.93938 0.664161 0.396953 0.10394
H_ H_ 0.516069 0.705244 0.447681 0.10394
H_ H_ 0.9131 0.785148 0.0468702 0.10394
H_ H_ 0.836608 0.737816 0.492412 0.10394
H_ H_ 0.728316 0.695112 0.372295 0.10394
H_ H_ 0.691717 0.746731 0.297215 0.10394
H_ H_ 0.838701 0.720406 0.239832 0.10394
H_ H_ 0.87655 0.680275 0.321412 0.10394
H_ H_ 0.784836 0.585731 0.0437316 0.10394
H_ H_ 0.731001 0.578569 0.110472 0.10394
H_ H_ 0.60367 0.574905 0.00206264 0.10394
C_ C_ 0.673603 0.594347 0.292791 0.18167
C_ C_ 0.718547 0.575473 0.272347 -0.15533
C_ C_ 0.734677 0.522672 0.272406 0.02923
C_ C_ 0.705982 0.989142 0.284946 -0.15533
C_ C_ 0.664636 0.513485 0.319727 0.18167
C_ C_ 0.521184 0.633849 0.25795 0.18167
C_ C_ 0.0210383 0.674229 0.244796 -0.15533
C_ C_ 0.507303 0.726612 0.251619 0.02923
C_ C_ 0.52785 0.732196 0.30215 -0.15533
C_ C_ 0.549072 0.687141 0.326046 0.18167
C_ C_ 0.504355 0.552932 0.362298 0.69207
C_ C_ 0.979653 0.0121167 0.378049 0.02923
C_ C_ -0.0021539999999999893 0.958588 0.371488 -0.15533
C_ C_ 0.964588 0.92152 0.371917 -0.15533
C_ C_ 0.917618 0.931782 0.39132 0.02923
C_ C_ 0.898799 0.984232 0.397427 -0.15533
C_ C_ 0.929706 0.0236087 0.392097 0.02923
C_ C_ 0.895091 0.570276 0.387482 0.69207
C_ C_ 0.898427 0.836042 0.387692 0.69661
C_ C_ 0.574529 0.796235 0.0898026 0.18167
C_ C_ 0.531439 0.772179 0.0720506 -0.15533
C_ C_ 0.518847 0.765655 0.019716 0.02923
C_ C_ 0.54427 0.802292 0.490906 -0.15533
C_ C_ 0.591936 0.808794 0.00632754 0.18167
C_ C_ 0.719452 0.763953 0.126556 0.18167
C_ C_ 0.739015 0.737277 0.169129 -0.15533
C_ C_ 0.741 0.760931 0.218728 0.02923
C_ C_ 0.725487 0.812781 0.222016 -0.15533
C_ C_ 0.704339 0.839095 0.180118 0.18167
C_ C_ 0.743999 0.86824 0.0446279 0.69207
C_ C_ 0.781563 0.892836 0.51237 0.02923
C_ C_ 0.75952 0.894004 0.463432 -0.15533
C_ C_ 0.788754 0.896926 0.421123 -0.15533
C_ C_ 0.841164 0.900815 0.430507 0.02923
C_ C_ 0.863647 0.902131 0.48132 -0.15533
C_ C_ 0.834476 0.896457 0.522752 0.02923
C_ C_ 0.85483 0.880069 0.0697039 0.69207
C_ C_ 0.849431 0.901535 0.328864 0.69661
C_ C_ 0.810991 0.936553 0.174907 0.18167
C_ C_ 0.768407 0.964529 0.196706 -0.15533
C_ C_ 0.779588 0.998722 0.238411 0.02923
C_ C_ 0.82551 0.524447 0.24555 -0.15533
C_ C_ 0.870243 0.982298 0.230436 0.18167
C_ C_ 0.99325 0.847859 0.204836 0.18167
C_ C_ 0.514169 0.809732 0.212737 -0.15533
C_ C_ 0.989262 0.76784 0.241832 0.02923
C_ C_ 0.938516 0.767664 0.218636 -0.15533
C_ C_ 0.914973 0.810334 0.192531 0.18167
C_ C_ 0.985066 0.946001 0.124117 0.69207
C_ C_ 0.518826 0.485236 0.100368 0.02923
C_ C_ 0.498959 0.537254 0.0965663 -0.15533
C_ C_ 0.532631 0.575055 0.095685 -0.15533
C_ C_ 0.585783 0.562296 0.100275 0.02923
C_ C_ 0.603493 0.511405 0.0953611 -0.15533
C_ C_ 0.570974 0.472252 0.102199 0.02923
C_ C_ 0.602441 0.924396 0.107309 0.69207
C_ C_ 0.604045 0.659529 0.103914 0.69661
C_ C_ 0.932841 0.687295 0.431291 0.18167
C_ C_ 0.976248 0.704647 0.460508 -0.15533
C_ C_ 0.967386 0.743534 0.498278 0.02923
C_ C_ 0.921481 0.75159 1.0240193 -0.15533
C_ C_ 0.87645 0.727009 0.486087 0.18167
C_ C_ 0.753631 0.703553 0.344141 0.18167
C_ C_ 0.733122 0.727137 0.300741 -0.15533
C_ C_ 0.763405 0.732788 0.261866 0.02923
C_ C_ 0.816155 0.717664 0.269028 -0.15533
C_ C_ 0.835047 0.693127 0.314844 0.18167
C_ C_ 0.753706 0.625543 0.444295 0.69207
C_ C_ 0.723806 0.599791 0.984985 0.02923
C_ C_ 0.744492 0.592731 0.0351723 -0.15533
C_ C_ 0.713451 0.593549 0.0747589 -0.15533
C_ C_ 0.660668 0.595367 0.0643781 0.02923
C_ C_ 0.639852 0.589094 0.0115062 -0.15533
C_ C_ 0.669976 0.599461 0.973032 0.02923
C_ C_ 0.64417 0.607746 0.418948 0.69207
C_ C_ 0.649326 0.597024 0.162865 0.69661
C_ C_ 0.876029 0.89357 0.385418 -0.30787
C_ C_ 0.624511 0.60283 0.10834 -0.30787
N_ N_ 0.64575 0.561784 0.31227 -0.32189
N_ N_ 0.548292 0.641227 0.302784 -0.32189
N_ N_ 0.604078 0.81223 0.0569063 -0.32189
N_ N_ 0.696113 0.812669 0.13414 -0.32189
N_ N_ 0.859418 0.945083 0.19486 -0.32189
N_ N_ 0.942496 0.849976 0.185526 -0.32189
N_ N_ 0.885876 0.691893 0.446897 -0.32189
N_ N_ 0.803889 0.688128 0.352676 -0.32189
O_ O_ 0.00158848 0.590308 0.397975 -0.63271
O_ O_ 0.540343 0.539975 0.333188 -0.57982
O_ O_ 0.89813 0.591263 0.344347 -0.63271
O_ O_ 0.864765 0.590855 0.421143 -0.57982
O_ O_ 0.739403 0.903602 0.0815453 -0.63271
O_ O_ 0.709373 0.837161 0.0351244 -0.57982
O_ O_ 0.850244 0.840582 0.0968201 -0.63271
O_ O_ 0.884461 0.915101 0.0860042 -0.57982
O_ O_ 0.492666 0.908503 0.100922 -0.63271
O_ O_ 0.951472 0.959008 0.155965 -0.57982
O_ O_ 0.60844 0.899756 0.148924 -0.63271
O_ O_ 0.625218 0.903851 0.0688724 -0.57982
O_ O_ 0.753925 0.600388 0.399179 -0.63271
O_ O_ 0.784123 0.660813 0.451902 -0.57982
O_ O_ 0.647429 0.648695 0.394492 -0.63271
O_ O_ 0.605579 0.581806 0.403551 -0.57982
F_ F_ 0.929974 0.831943 0.432595 -0.20885
F_ F_ 0.928066 0.815046 0.345748 -0.20885
F_ F_ 0.859955 0.804476 0.388901 -0.20885
F_ F_ 0.821599 0.949092 0.325864 -0.20885
F_ F_ 0.813356 0.86544 0.315921 -0.20885
F_ F_ 0.884892 0.894983 0.292432 -0.20885
F_ F_ 0.569686 0.663371 0.0616958 -0.20885
F_ F_ 0.57494 0.677196 0.144166 -0.20885
F_ F_ 0.644728 0.689227 0.103497 -0.20885
F_ F_ 0.677789 0.550348 0.17146 -0.20885
F_ F_ 0.680943 0.635187 0.177501 -0.20885
F_ F_ 0.616458 0.60152 0.200518 -0.20885
Zn Zn 0.58046 0.58062 0.84209 0.83971
Zn Zn 0.666149 0.852517 0.587015 0.83971
Zn Zn 0.916001 0.920916 0.661136 0.83971
Zn Zn 0.839232 0.652261 0.918965 0.83971
H_ H_ 0.65687 0.62802 0.796906 0.10394
H_ H_ 0.731724 0.594537 0.752902 0.10394
H_ H_ 0.714332 0.947644 0.797436 0.10394
H_ H_ 0.623996 0.479805 0.816381 0.10394
H_ H_ 0.0315301 0.600935 0.754363 0.10394
H_ H_ 0.989844 0.673109 0.707691 0.10394
H_ H_ 0.524828 0.77235 0.828146 0.10394
H_ H_ 0.565366 0.698305 0.874832 0.10394
H_ H_ 0.516643 0.943123 0.849635 0.10394
H_ H_ 0.979745 0.877072 0.870423 0.10394
H_ H_ 0.851003 0.985052 0.884167 0.10394
H_ H_ 0.590663 0.807538 0.629178 0.10394
H_ H_ 0.00968325 0.76513 0.598137 0.10394
H_ H_ 0.536722 0.783365 0.94486 0.10394
H_ H_ 0.604486 0.851246 0.486148 0.10394
H_ H_ 0.718306 0.749376 0.598821 0.10394
H_ H_ 0.764402 0.707553 0.673354 0.10394
H_ H_ 0.716191 0.832705 0.771668 0.10394
H_ H_ 0.673989 0.87827 0.69652 0.10394
H_ H_ 0.719492 0.873977 0.943354 0.10394
H_ H_ 0.770438 0.892823 0.87822 0.10394
H_ H_ 0.897906 0.91335 0.98773 0.10394
H_ H_ 0.815746 0.893557 0.67252 0.10394
H_ H_ 0.738657 0.937879 0.708248 0.10394
H_ H_ 0.822957 0.551719 0.766651 0.10394
H_ H_ 0.903217 1.0129046 0.731088 0.10394
H_ H_ 0.508454 0.889164 0.696827 0.10394
H_ H_ 0.551863 0.814259 0.740783 0.10394
H_ H_ 0.913051 0.74548 0.710903 0.10394
H_ H_ 0.87627 0.827549 0.68575 0.10394
H_ H_ 0.956663 0.555797 0.61964 0.10394
H_ H_ 0.51139 0.618377 0.597628 0.10394
H_ H_ 0.640942 0.507578 0.582509 0.10394
H_ H_ 0.937641 0.652588 0.910145 0.10394
H_ H_ 0.516916 0.690908 0.948141 0.10394
H_ H_ 0.905658 0.778622 0.543496 0.10394
H_ H_ 0.840232 0.737071 1.00935117 0.10394
H_ H_ 0.730603 0.686124 0.875484 0.10394
H_ H_ 0.69542 0.734989 0.805625 0.10394
H_ H_ 0.840404 0.723878 0.749128 0.10394
H_ H_ 0.878129 0.687785 0.827222 0.10394
H_ H_ 0.7778 0.626794 0.545325 0.10394
H_ H_ 0.728203 0.616666 0.611326 0.10394
H_ H_ 0.598474 0.592568 0.498799 0.10394
C_ C_ 0.663861 0.589679 0.78768 0.18167
C_ C_ 0.709741 0.57024 0.769734 -0.15533
C_ C_ 0.725053 0.516645 0.767685 0.02923
C_ C_ 0.704588 0.986521 0.797779 -0.15533
C_ C_ 0.646901 0.507007 0.804738 0.18167
C_ C_ 0.523778 0.637704 0.765492 0.18167
C_ C_ 0.00659826 0.67931 0.746877 -0.15533
C_ C_ 0.508303 0.728062 0.757785 0.02923
C_ C_ 0.530516 0.735534 0.808323 -0.15533
C_ C_ 0.547428 0.692347 0.836472 0.18167
C_ C_ 0.502438 0.539665 0.85199 0.69207
C_ C_ 0.972274 0.00585948 0.863938 0.02923
C_ C_ -0.005314000000000041 0.951667 0.863186 -0.15533
C_ C_ 0.964283 0.913418 0.874017 -0.15533
C_ C_ 0.912556 0.923892 0.885815 0.02923
C_ C_ 0.891467 0.976337 0.885599 -0.15533
C_ C_ 0.921396 0.0171783 0.875882 0.02923
C_ C_ 0.885805 0.566501 0.88267 0.69207
C_ C_ 0.904685 0.825256 0.893892 0.69661
C_ C_ 0.581752 0.800343 0.59136 0.18167
C_ C_ 0.535748 0.782482 0.575905 -0.15533
C_ C_ 0.516944 0.781728 0.525676 0.02923
C_ C_ 0.546275 0.788088 0.986345 -0.15533
C_ C_ 0.588559 0.822838 0.508838 0.18167
C_ C_ 0.723322 0.771313 0.637204 0.18167
C_ C_ 0.743311 0.744457 0.67868 -0.15533
C_ C_ 0.745034 0.768093 0.7282 0.02923
C_ C_ 0.720527 0.818267 0.734317 -0.15533
C_ C_ 0.695263 0.841506 0.691705 0.18167
C_ C_ 0.749871 0.87984 0.554008 0.69207
C_ C_ 0.780393 0.872944 1.00405933 0.02923
C_ C_ 0.759976 0.875693 0.953557 -0.15533
C_ C_ 0.787145 0.891075 0.916497 -0.15533
C_ C_ 0.840665 0.891827 0.926538 0.02923
C_ C_ 0.862532 0.894605 0.97944 -0.15533
C_ C_ 0.832533 0.88302 0.0169126 0.02923
C_ C_ 0.860024 0.891376 0.575874 0.69207
C_ C_ 0.849221 0.876396 0.831012 0.69661
C_ C_ 0.816198 0.931623 0.690869 0.18167
C_ C_ 0.773903 0.95607 0.714544 -0.15533
C_ C_ 0.77986 -0.003475000000000006 0.750329 0.02923
C_ C_ 0.818975 0.51242 0.749441 -0.15533
C_ C_ 0.86783 0.993856 0.730449 0.18167
C_ C_ 0.995763 0.854729 0.709775 0.18167
C_ C_ 0.512556 0.814384 0.722961 -0.15533
C_ C_ 0.986836 0.773484 0.743528 0.02923
C_ C_ 0.936608 0.776754 0.718637 -0.15533
C_ C_ 0.915256 0.823254 0.699072 0.18167
C_ C_ 0.997652 0.955964 0.637469 0.69207
C_ C_ 0.521595 0.488813 0.617402 0.02923
C_ C_ 0.50067 0.538929 0.609832 -0.15533
C_ C_ 0.530677 0.578857 0.601268 -0.15533
C_ C_ 0.581554 0.568971 0.596412 0.02923
C_ C_ 0.601959 0.517479 0.59519 -0.15533
C_ C_ 0.573254 0.477367 0.608672 0.02923
C_ C_ 0.597943 0.928142 0.608735 0.69207
C_ C_ 0.594987 0.6659 0.605107 0.69661
C_ C_ 0.933078 0.6806 0.942854 0.18167
C_ C_ 0.974385 0.704222 0.966225 -0.15533
C_ C_ 0.968692 0.743457 1.0038603 0.02923
C_ C_ 0.916464 0.753373 0.511619 -0.15533
C_ C_ 0.878652 0.726107 0.999289704 0.18167
C_ C_ 0.756316 0.703137 0.854494 0.18167
C_ C_ 0.734109 0.727327 0.811301 -0.15533
C_ C_ 0.764737 0.738716 0.773954 0.02923
C_ C_ 0.818013 0.720699 0.780672 -0.15533
C_ C_ 0.838946 0.697756 0.823971 0.18167
C_ C_ 0.75912 0.61252 0.948561 0.69207
C_ C_ 0.718834 0.618508 0.482431 0.02923
C_ C_ 0.738832 0.618417 0.53391 -0.15533
C_ C_ 0.710609 0.60802 0.573069 -0.15533
C_ C_ 0.657514 0.603385 0.561449 0.02923
C_ C_ 0.637684 0.599662 0.510414 -0.15533
C_ C_ 0.670184 0.602761 0.470381 0.02923
C_ C_ 0.647206 0.60212 0.919901 0.69207
C_ C_ 0.644285 0.602315 0.659301 0.69661
C_ C_ 0.878428 0.879764 0.884913 -0.30787
C_ C_ 0.620183 0.60879 0.60303 -0.30787
N_ N_ 0.632992 0.557097 0.801393 -0.32189
N_ N_ 0.54336 0.644253 0.814694 -0.32189
N_ N_ 0.608786 0.818926 0.557713 -0.32189
N_ N_ 0.70007 0.819085 0.643897 -0.32189
N_ N_ 0.860447 0.953657 0.696612 -0.32189
N_ N_ 0.945508 0.858837 0.691858 -0.32189
N_ N_ 0.888544 0.686433 0.96382 -0.32189
N_ N_ 0.80851 0.687645 0.859753 -0.32189
O_ O_ 1.00328825 0.586491 0.904756 -0.63271
O_ O_ 0.539749 0.531038 0.823957 -0.57982
O_ O_ 0.885175 0.59423 0.841446 -0.63271
O_ O_ 0.869999 0.590553 0.923855 -0.57982
O_ O_ 0.748658 0.907137 0.598323 -0.63271
O_ O_ 0.711977 0.851025 0.54083 -0.57982
O_ O_ 0.855643 0.853078 0.602982 -0.63271
O_ O_ 0.890706 0.92333 0.59484 -0.57982
O_ O_ 0.48816 0.911991 0.606416 -0.63271
O_ O_ 0.958776 0.970069 0.666761 -0.57982
O_ O_ 0.595835 0.904925 0.651515 -0.63271
O_ O_ 0.632402 0.911706 0.578756 -0.57982
O_ O_ 0.757475 0.594411 0.899912 -0.63271
O_ O_ 0.791082 0.648427 0.961728 -0.57982
O_ O_ 0.643232 0.646539 0.897375 -0.63271
O_ O_ 0.617536 0.566783 0.90061 -0.57982
F_ F_ 0.945411 0.826428 0.933469 -0.20885
F_ F_ 0.925282 0.806544 0.849753 -0.20885
F_ F_ 0.875478 0.787541 0.90599 -0.20885
F_ F_ 0.81805 0.919347 0.818597 -0.20885
F_ F_ 0.819903 0.836812 0.825275 -0.20885
F_ F_ 0.88696 0.87131 0.795889 -0.20885
F_ F_ 0.565703 0.675746 0.55972 -0.20885
F_ F_ 0.566268 0.680332 0.645858 -0.20885
F_ F_ 0.629178 0.702011 0.606735 -0.20885
F_ F_ 0.678978 0.555994 0.661822 -0.20885
F_ F_ 0.669788 0.645057 0.67352 -0.20885
F_ F_ 0.606631 0.600058 0.691645 -0.20885
_cell_length_a 26.508
_cell_length_b 26.37200000322088
_cell_length_c 26.311999743092066
_cell_angle_alpha 93.74100058972084
_cell_angle_beta 96.04100104955006
_cell_angle_gamma 83.6869992558723
_symmetry_space_group_name_H-M         'P 1'
_symmetry_Int_Tables_number            1
loop_
_symmetry_equiv_pos_as_xyz
   'x, y, z'
                         
loop_
_atom_site_label
_atom_site_type_symbol
_atom_site_fract_x 
_atom_site_fract_y
_atom_site_fract_z
_atom_site_charge
Zn Zn 0.091874 0.0910238 0.34445 0.83971
Zn Zn 0.160282 0.344427 0.0843001 0.83971
Zn Zn 0.407816 0.411969 0.149579 0.83971
Zn Zn 0.341082 0.154439 0.419169 0.83971
H_ H_ 0.164868 0.136303 0.293756 0.10394
H_ H_ 0.251487 0.0990354 0.266119 0.10394
H_ H_ 0.207938 0.441743 0.281046 0.10394
H_ H_ 0.144548 0.991155 0.341228 0.10394
H_ H_ 0.533073 0.0888743 0.256267 0.10394
H_ H_ 0.485873 0.164722 0.206941 0.10394
H_ H_ 0.0384152 0.274448 0.334864 0.10394
H_ H_ 0.0750632 0.199996 0.381342 0.10394
H_ H_ 0.0371639 0.451315 0.38014 0.10394
H_ H_ 0.472629 0.386267 0.377249 0.10394
H_ H_ 0.347429 0.49623 0.395805 0.10394
H_ H_ 0.0714918 0.308181 0.139266 0.10394
H_ H_ 0.505316 0.261461 0.104337 0.10394
H_ H_ 0.0445749 0.289864 0.446143 0.10394
H_ H_ 0.110706 0.32092 0.990258 0.10394
H_ H_ 0.217521 0.239554 0.0956031 0.10394
H_ H_ 0.261369 0.194621 0.168464 0.10394
H_ H_ 0.209797 0.3206 0.26758 0.10394
H_ H_ 0.183638 0.373084 0.189834 0.10394
H_ H_ 0.210445 0.365933 0.438808 0.10394
H_ H_ 0.258644 0.396059 0.371881 0.10394
H_ H_ 0.387465 0.407667 0.482437 0.10394
H_ H_ 0.305815 0.382777 0.168649 0.10394
H_ H_ 0.22897 0.443254 0.188601 0.10394
H_ H_ 0.332815 0.0451701 0.285671 0.10394
H_ H_ 0.399513 0.498191 0.220505 0.10394
H_ H_ 0.0152301 0.391346 0.20162 0.10394
H_ H_ 0.0583814 0.316237 0.247208 0.10394
H_ H_ 0.411223 0.234152 0.208924 0.10394
H_ H_ 0.368798 0.320307 0.189165 0.10394
H_ H_ 0.470418 0.0596341 0.131177 0.10394
H_ H_ 0.0110617 0.108259 0.0896541 0.10394
H_ H_ 0.138823 -0.00255015 0.0755983 0.10394
H_ H_ 0.444474 0.161792 0.39983 0.10394
H_ H_ 0.0169486 0.198497 0.448599 0.10394
H_ H_ 0.414511 0.273977 0.0520125 0.10394
H_ H_ 0.342678 0.236983 0.495439 0.10394
H_ H_ 0.240166 0.211394 0.3921 0.10394
H_ H_ 0.194131 0.239844 0.307066 0.10394
H_ H_ 0.338368 0.206798 0.243922 0.10394
H_ H_ 0.374922 0.17125 0.324473 0.10394
H_ H_ 0.282638 0.120815 0.0630875 0.10394
H_ H_ 0.225824 0.107098 0.121699 0.10394
H_ H_ 0.104086 0.087257 0.00275174 0.10394
C_ C_ 0.178105 0.0950841 0.297649 0.18167
C_ C_ 0.223973 0.0744721 0.276655 -0.15533
C_ C_ 0.236004 0.0221224 0.274641 0.02923
C_ C_ 0.199662 0.48361 0.28887 -0.15533
C_ C_ 0.165827 0.0144248 0.321763 0.18167
C_ C_ 0.0414729 0.1421 0.265547 0.18167
C_ C_ 0.504199 0.170815 0.246105 -0.15533
C_ C_ 0.017451 0.23236 0.26367 0.02923
C_ C_ 0.0392996 0.238671 0.316161 -0.15533
C_ C_ 0.0662519 0.196059 0.33903 0.18167
C_ C_ 0.013348 0.0519783 0.368368 0.69207
C_ C_ 0.468382 0.515616 0.372262 0.02923
C_ C_ 0.488826 0.462948 0.374868 -0.15533
C_ C_ 0.456009 0.425327 0.380888 -0.15533
C_ C_ 0.405387 0.436694 0.388359 0.02923
C_ C_ 0.386133 0.488243 0.385666 -0.15533
C_ C_ 0.415624 0.527654 0.374594 0.02923
C_ C_ 0.405735 0.0686763 0.393526 0.69207
C_ C_ 0.392594 0.34044 0.382952 0.69661
C_ C_ 0.0642683 0.30011 0.0980624 0.18167
C_ C_ 0.0224581 0.271885 0.0789206 -0.15533
C_ C_ 0.0124348 0.264393 0.0263171 0.02923
C_ C_ 0.0498165 0.294567 0.488318 -0.15533
C_ C_ 0.0873433 0.303625 0.0160984 0.18167
C_ C_ 0.218252 0.260118 0.132779 0.18167
C_ C_ 0.240241 0.232521 0.175798 -0.15533
C_ C_ 0.240656 0.25581 0.223831 0.02923
C_ C_ 0.215217 0.30531 0.229673 -0.15533
C_ C_ 0.197805 0.332469 0.186037 0.18167
C_ C_ 0.239834 0.363723 0.0445494 0.69207
C_ C_ 0.266477 0.381295 0.499129 0.02923
C_ C_ 0.248249 0.378422 0.44694 -0.15533
C_ C_ 0.277874 0.388687 0.410271 -0.15533
C_ C_ 0.329863 0.398288 0.421964 0.02923
C_ C_ 0.349787 0.398296 0.473686 -0.15533
C_ C_ 0.318981 0.392177 0.513146 0.02923
C_ C_ 0.346041 0.391039 0.0686168 0.69207
C_ C_ 0.340442 0.397889 0.323763 0.69661
C_ C_ 0.308505 0.423945 0.182524 0.18167
C_ C_ 0.266037 0.452657 0.199656 -0.15533
C_ C_ 0.272427 0.495178 0.234294 0.02923
C_ C_ 0.325738 0.0179401 0.251906 -0.15533
C_ C_ 0.361783 0.487381 0.215769 0.18167
C_ C_ 0.485608 0.347007 0.194646 0.18167
C_ C_ 0.0173356 0.321102 0.2352 -0.15533
C_ C_ 0.478969 0.265441 0.233683 0.02923
C_ C_ 0.430829 0.266667 0.206039 -0.15533
C_ C_ 0.408702 0.312551 0.185375 0.18167
C_ C_ 0.481708 0.449804 0.111376 0.69207
C_ C_ 0.0200729 0.984443 0.115209 0.02923
C_ C_ 0.00071854 0.0376482 0.115348 -0.15533
C_ C_ 0.0307472 0.0749937 0.10469 -0.15533
C_ C_ 0.0823486 0.0617471 0.0944805 0.02923
C_ C_ 0.100503 0.00905022 0.0896293 -0.15533
C_ C_ 0.0732329 0.971154 0.105476 0.02923
C_ C_ 0.102542 0.423389 0.103245 0.69207
C_ C_ 0.0930775 0.157957 0.0982968 0.69661
C_ C_ 0.437911 0.18609 0.430395 0.18167
C_ C_ 0.479136 0.209859 0.459001 -0.15533
C_ C_ 0.470987 0.244598 0.499641 0.02923
C_ C_ 0.42267 0.248411 0.0194833 -0.15533
C_ C_ 0.380914 0.225314 0.489584 0.18167
C_ C_ 0.25765 0.208984 0.35692 0.18167
C_ C_ 0.233083 0.225591 0.310533 -0.15533
C_ C_ 0.262826 0.230719 0.269725 0.02923
C_ C_ 0.313842 0.206806 0.274578 -0.15533
C_ C_ 0.336668 0.189327 0.320235 0.18167
C_ C_ 0.262454 0.128575 0.452387 0.69207
C_ C_ 0.229158 0.113047 0.992586 0.02923
C_ C_ 0.244042 0.117305 0.0467096 -0.15533
C_ C_ 0.211163 0.10916 0.0820026 -0.15533
C_ C_ 0.160974 0.0981315 0.0652079 0.02923
C_ C_ 0.144549 0.0932341 0.013566 -0.15533
C_ C_ 0.176972 0.10173 0.977574 0.02923
C_ C_ 0.153657 0.114801 0.425405 0.69207
C_ C_ 0.141436 0.100401 0.16086 0.69661
C_ C_ 0.366046 0.395559 0.379696 -0.30787
C_ C_ 0.119472 0.102889 0.104186 -0.30787
N_ N_ 0.147284 0.0620296 0.312128 -0.32189
N_ N_ 0.066025 0.149521 0.314466 -0.32189
N_ N_ 0.0978926 0.31348 0.0673519 -0.32189
N_ N_ 0.194246 0.308916 0.139499 -0.32189
N_ N_ 0.35476 0.442892 0.188543 -0.32189
N_ N_ 0.435947 0.350342 0.177405 -0.32189
N_ N_ 0.389663 0.196495 0.445233 -0.32189
N_ N_ 0.308618 0.189013 0.359165 -0.32189
O_ O_ 0.507727 0.0915135 0.388113 -0.63271
O_ O_ 0.0507744 0.0404995 0.340013 -0.57982
O_ O_ 0.409281 0.0914024 0.350049 -0.63271
O_ O_ 0.372429 0.0898971 0.4264 -0.57982
O_ O_ 0.243538 0.389599 0.0856986 -0.63271
O_ O_ 0.204062 0.336703 0.03735 -0.57982
O_ O_ 0.350006 0.349264 0.0927828 -0.63271
O_ O_ 0.376675 0.426251 0.0866977 -0.57982
O_ O_ 0.995601 0.406067 0.098178 -0.63271
O_ O_ 0.448878 0.462242 0.147043 -0.57982
O_ O_ 0.104255 0.400823 0.146631 -0.63271
O_ O_ 0.136381 0.408095 0.0729248 -0.57982
O_ O_ 0.261183 0.10406 0.407233 -0.63271
O_ O_ 0.298288 0.157628 0.465968 -0.57982
O_ O_ 0.165478 0.147432 0.392986 -0.63271
O_ O_ 0.12038 0.0818383 0.409369 -0.57982
F_ F_ 0.424385 0.335439 0.428285 -0.20885
F_ F_ 0.426015 0.324142 0.345463 -0.20885
F_ F_ 0.360176 0.301788 0.379194 -0.20885
F_ F_ 0.308253 0.442087 0.322562 -0.20885
F_ F_ 0.308921 0.359622 0.307756 -0.20885
F_ F_ 0.372563 0.398696 0.285845 -0.20885
F_ F_ 0.0609778 0.166693 0.0538172 -0.20885
F_ F_ 0.0648687 0.177493 0.138195 -0.20885
F_ F_ 0.129055 0.191783 0.0987023 -0.20885
F_ F_ 0.175015 0.0572397 0.162487 -0.20885
F_ F_ 0.165737 0.142878 0.179124 -0.20885
F_ F_ 0.102205 0.0991567 0.191215 -0.20885
Zn Zn 0.0905121 0.0874004 0.844908 0.83971
Zn Zn 0.160127 0.349058 0.586578 0.83971
Zn Zn 0.406223 0.412404 0.655013 0.83971
Zn Zn 0.33866 0.156839 0.916123 0.83971
H_ H_ 0.173329 0.135549 0.818631 0.10394
H_ H_ 0.253672 0.106731 0.786659 0.10394
H_ H_ 0.206021 0.447907 0.789762 0.10394
H_ H_ 0.12182 0.992505 0.795025 0.10394
H_ H_ 0.534592 0.0925328 0.744044 0.10394
H_ H_ 0.489196 0.160634 0.703687 0.10394
H_ H_ 0.0308835 0.27481 0.836334 0.10394
H_ H_ 0.0692828 0.19169 0.8804 0.10394
H_ H_ 0.0337978 0.446558 0.896227 0.10394
H_ H_ 0.471267 0.377132 0.868475 0.10394
H_ H_ 0.346489 0.491845 0.893259 0.10394
H_ H_ 0.0935012 0.295488 0.632794 0.10394
H_ H_ 0.502338 0.266341 0.599114 0.10394
H_ H_ 0.0381596 0.280001 0.953425 0.10394
H_ H_ 0.116477 0.326756 0.480336 0.10394
H_ H_ 0.223438 0.254792 0.60049 0.10394
H_ H_ 0.25508 0.204699 0.673703 0.10394
H_ H_ 0.20865 0.335877 0.774029 0.10394
H_ H_ 0.175169 0.383343 0.6958 0.10394
H_ H_ 0.214226 0.370539 0.944376 0.10394
H_ H_ 0.251126 0.422921 0.884549 0.10394
H_ H_ 0.390827 0.411223 0.985121 0.10394
H_ H_ 0.299502 0.396757 0.65807 0.10394
H_ H_ 0.222941 0.459089 0.690238 0.10394
H_ H_ 0.334438 0.0451454 0.786561 0.10394
H_ H_ 0.402778 0.495025 0.736943 0.10394
H_ H_ 0.0118444 0.386405 0.703599 0.10394
H_ H_ 0.0548819 0.317033 0.745801 0.10394
H_ H_ 0.405839 0.233846 0.710005 0.10394
H_ H_ 0.368034 0.315738 0.679708 0.10394
H_ H_ 0.457583 0.0577369 0.609478 0.10394
H_ H_ 0.0116432 0.115664 0.590599 0.10394
H_ H_ 0.145364 0.00877529 0.587452 0.10394
H_ H_ 0.43944 0.166273 0.89605 0.10394
H_ H_ 0.0119861 0.18707 0.948139 0.10394
H_ H_ 0.409066 0.284346 0.542435 0.10394
H_ H_ 0.347236 0.223421 0.0145452 0.10394
H_ H_ 0.234544 0.204259 0.888113 0.10394
H_ H_ 0.191149 0.241313 0.810961 0.10394
H_ H_ 0.339086 0.230617 0.750851 0.10394
H_ H_ 0.378952 0.189858 0.827774 0.10394
H_ H_ 0.289743 0.100854 0.552649 0.10394
H_ H_ 0.232739 0.098762 0.620067 0.10394
H_ H_ 0.107285 0.0919568 0.500496 0.10394
C_ C_ 0.177883 0.0991353 0.799521 0.18167
C_ C_ 0.226072 0.0813074 0.785446 -0.15533
C_ C_ 0.234347 0.0294955 0.767243 0.02923
C_ C_ 0.197618 0.487513 0.792709 -0.15533
C_ C_ 0.151579 0.0163208 0.790326 0.18167
C_ C_ 0.0280035 0.140654 0.769852 0.18167
C_ C_ 0.498447 0.16918 0.74402 -0.15533
C_ C_ 0.0113529 0.22953 0.764043 0.02923
C_ C_ 0.0321878 0.235383 0.814606 -0.15533
C_ C_ 0.0570694 0.191704 0.839088 0.18167
C_ C_ 0.011278 0.0446781 0.864534 0.69207
C_ C_ 0.467616 0.50145 0.858102 0.02923
C_ C_ 0.481879 0.450732 0.850493 -0.15533
C_ C_ 0.452783 0.414738 0.864797 -0.15533
C_ C_ 0.402538 0.426721 0.877985 0.02923
C_ C_ 0.386079 0.479084 0.886291 -0.15533
C_ C_ 0.418708 0.51628 0.877479 0.02923
C_ C_ 0.397982 0.0741123 0.889366 0.69207
C_ C_ 0.392826 0.331966 0.891473 0.69661
C_ C_ 0.0791346 0.296899 0.592699 0.18167
C_ C_ 0.0319774 0.280623 0.574711 -0.15533
C_ C_ 0.0170988 0.278487 0.521355 0.02923
C_ C_ 0.045669 0.280443 0.994476 -0.15533
C_ C_ 0.0942651 0.313757 0.507616 0.18167
C_ C_ 0.22117 0.275061 0.637359 0.18167
C_ C_ 0.23896 0.246321 0.67804 -0.15533
C_ C_ 0.238217 0.268543 0.727321 0.02923
C_ C_ 0.213907 0.318859 0.735284 -0.15533
C_ C_ 0.192054 0.343978 0.69145 0.18167
C_ C_ 0.230877 0.375684 0.540293 0.69207
C_ C_ 0.271659 0.37618 0.00272766 0.02923
C_ C_ 0.252161 0.375643 0.95133 -0.15533
C_ C_ 0.274738 0.399191 0.914558 -0.15533
C_ C_ 0.327542 0.4027 0.924232 0.02923
C_ C_ 0.350589 0.405803 0.975951 -0.15533
C_ C_ 0.321535 0.39413 0.0154553 0.02923
C_ C_ 0.342662 0.389285 0.568783 0.69207
C_ C_ 0.336844 0.382732 0.82699 0.69661
C_ C_ 0.303892 0.430363 0.683585 0.18167
C_ C_ 0.262799 0.459212 0.707482 -0.15533
C_ C_ 0.274259 0.495461 0.747712 0.02923
C_ C_ 0.327255 0.0186864 0.756328 -0.15533
C_ C_ 0.363697 0.485154 0.727034 0.18167
C_ C_ 0.486573 0.344542 0.707725 0.18167
C_ C_ 0.0161548 0.312342 0.72655 -0.15533
C_ C_ 0.475319 0.263983 0.741235 0.02923
C_ C_ 0.426833 0.268432 0.717455 -0.15533
C_ C_ 0.408063 0.309777 0.688639 0.18167
C_ C_ 0.488701 0.449752 0.625993 0.69207
C_ C_ 0.0279124 0.992917 0.620401 0.02923
C_ C_ 0.00457629 0.0433257 0.618084 -0.15533
C_ C_ 0.0329045 0.0812187 0.606479 -0.15533
C_ C_ 0.0857816 0.0712679 0.601315 0.02923
C_ C_ 0.106623 0.019493 0.596051 -0.15533
C_ C_ 0.0787604 0.979552 0.609683 0.02923
C_ C_ 0.0914002 0.426798 0.605793 0.69207
C_ C_ 0.100319 0.169449 0.598034 0.69661
C_ C_ 0.436745 0.186069 0.933708 0.18167
C_ C_ 0.47709 0.21162 0.957993 -0.15533
C_ C_ 0.470521 0.23999 1.00354968 0.02923
C_ C_ 0.420922 0.250769 0.516637 -0.15533
C_ C_ 0.384667 0.220501 0.995305 0.18167
C_ C_ 0.256182 0.208817 0.854694 0.18167
C_ C_ 0.232391 0.232439 0.811534 -0.15533
C_ C_ 0.262507 0.240335 0.773399 0.02923
C_ C_ 0.315209 0.223891 0.779594 -0.15533
C_ C_ 0.335769 0.193952 0.820399 0.18167
C_ C_ 0.264328 0.118547 0.955389 0.69207
C_ C_ 0.229284 0.116818 0.490735 0.02923
C_ C_ 0.249039 0.104133 0.541337 -0.15533
C_ C_ 0.215823 0.101109 0.580237 -0.15533
C_ C_ 0.162169 0.101058 0.566148 0.02923
C_ C_ 0.145031 0.102527 0.5147 -0.15533
C_ C_ 0.177114 0.112728 0.477578 0.02923
C_ C_ 0.152729 0.105096 0.923185 0.69207
C_ C_ 0.145456 0.115461 0.664316 0.69661
C_ C_ 0.366076 0.386801 0.882496 -0.30787
C_ C_ 0.124045 0.112938 0.60505 -0.30787
N_ N_ 0.142572 0.0666181 0.802889 -0.32189
N_ N_ 0.0536678 0.14651 0.81626 -0.32189
N_ N_ 0.109144 0.313447 0.558524 -0.32189
N_ N_ 0.19159 0.318609 0.645813 -0.32189
N_ N_ 0.353302 0.443763 0.69559 -0.32189
N_ N_ 0.437818 0.34924 0.685231 -0.32189
N_ N_ 0.391833 0.189957 0.952013 -0.32189
N_ N_ 0.305609 0.186801 0.856193 -0.32189
O_ O_ 0.500381 0.0856411 0.896813 -0.63271
O_ O_ 0.0479795 0.0362346 0.833576 -0.57982
O_ O_ 0.396823 0.0949161 0.845718 -0.63271
O_ O_ 0.368505 0.0924136 0.923641 -0.57982
O_ O_ 0.240134 0.39834 0.585394 -0.63271
O_ O_ 0.20258 0.339164 0.536147 -0.57982
O_ O_ 0.353672 0.343697 0.586485 -0.63271
O_ O_ 0.368076 0.424562 0.592857 -0.57982
O_ O_ 0.984228 0.409285 0.601555 -0.63271
O_ O_ 0.453004 0.461477 0.657649 -0.57982
O_ O_ 0.0924017 0.397804 0.642943 -0.63271
O_ O_ 0.127404 0.415439 0.575746 -0.57982
O_ O_ 0.258976 0.0973634 0.910342 -0.63271
O_ O_ 0.292779 0.155678 0.962616 -0.57982
O_ O_ 0.15434 0.147353 0.901609 -0.63271
O_ O_ 0.120835 0.0734167 0.903858 -0.57982
F_ F_ 0.429418 0.335098 0.932913 -0.20885
F_ F_ 0.419597 0.309632 0.853236 -0.20885
F_ F_ 0.363558 0.292815 0.902526 -0.20885
F_ F_ 0.302806 0.425323 0.816011 -0.20885
F_ F_ 0.311239 0.3406 0.821964 -0.20885
F_ F_ 0.369832 0.3785 0.788119 -0.20885
F_ F_ 0.0714362 0.173907 0.550037 -0.20885
F_ F_ 0.0647228 0.184349 0.632129 -0.20885
F_ F_ 0.138567 0.199874 0.602134 -0.20885
F_ F_ 0.170415 0.0668998 0.675783 -0.20885
F_ F_ 0.182815 0.150186 0.676016 -0.20885
F_ F_ 0.109247 0.128876 0.698968 -0.20885
Zn Zn 0.0880806 0.580309 0.348901 0.83971
Zn Zn 0.163718 0.838644 0.0888677 0.83971
Zn Zn 0.410706 0.922422 0.152285 0.83971
Zn Zn 0.344086 0.661265 0.424146 0.83971
H_ H_ 0.168904 0.627278 0.307099 0.10394
H_ H_ 0.247151 0.593416 0.267832 0.10394
H_ H_ 0.222322 0.951116 0.305814 0.10394
H_ H_ 0.133242 0.480397 0.327233 0.10394
H_ H_ 0.523935 0.597854 0.237004 0.10394
H_ H_ 0.489963 0.671752 0.189837 0.10394
H_ H_ 0.0282843 0.766035 0.345483 0.10394
H_ H_ 0.0689455 0.691378 0.38742 0.10394
H_ H_ 0.0380141 0.944885 0.365704 0.10394
H_ H_ 0.486699 0.875632 0.36462 0.10394
H_ H_ 0.361415 0.98385 0.406898 0.10394
H_ H_ 0.0850121 0.792616 0.139769 0.10394
H_ H_ 0.511186 0.758444 0.0979433 0.10394
H_ H_ 0.0271788 0.790887 0.442894 0.10394
H_ H_ 0.117142 0.815703 0.99099 0.10394
H_ H_ 0.229035 0.743666 0.103985 0.10394
H_ H_ 0.267645 0.700551 0.178857 0.10394
H_ H_ 0.203843 0.822485 0.275094 0.10394
H_ H_ 0.182269 0.871781 0.196334 0.10394
H_ H_ 0.219852 0.865264 0.437661 0.10394
H_ H_ 0.274847 0.873969 0.372244 0.10394
H_ H_ 0.396006 0.910102 0.492847 0.10394
H_ H_ 0.306986 0.904327 0.158756 0.10394
H_ H_ 0.23394 0.951236 0.192963 0.10394
H_ H_ 0.330011 0.537068 0.276644 0.10394
H_ H_ 0.4026 0.0120578 0.233589 0.10394
H_ H_ 0.0159628 0.875765 0.196967 0.10394
H_ H_ 0.0575519 0.803214 0.238525 0.10394
H_ H_ 0.41328 0.74494 0.208418 0.10394
H_ H_ 0.370132 0.832234 0.177809 0.10394
H_ H_ 0.459333 0.551129 0.100042 0.10394
H_ H_ 0.0244278 0.619714 0.114896 0.10394
H_ H_ 0.149722 0.508313 0.0905625 0.10394
H_ H_ 0.43942 0.673012 0.406567 0.10394
H_ H_ 0.0131415 0.690337 0.452148 0.10394
H_ H_ 0.417232 0.784422 0.0385497 0.10394
H_ H_ 0.352503 0.727588 0.52445 0.10394
H_ H_ 0.242916 0.700179 0.394257 0.10394
H_ H_ 0.191668 0.72387 0.314883 0.10394
H_ H_ 0.332137 0.749992 0.256091 0.10394
H_ H_ 0.380152 0.706392 0.330885 0.10394
H_ H_ 0.29114 0.626801 0.0547963 0.10394
H_ H_ 0.245376 0.603182 0.119139 0.10394
H_ H_ 0.110634 0.596141 0.0181995 0.10394
C_ C_ 0.178564 0.587391 0.304608 0.18167
C_ C_ 0.220649 0.568024 0.280668 -0.15533
C_ C_ 0.229785 0.514929 0.267591 0.02923
C_ C_ 0.210177 0.991808 0.301282 -0.15533
C_ C_ 0.154409 0.504503 0.309895 0.18167
C_ C_ 0.0445102 0.632997 0.271754 0.18167
C_ C_ 0.503786 0.676238 0.230648 -0.15533
C_ C_ 0.0127384 0.723563 0.27023 0.02923
C_ C_ 0.0300766 0.729163 0.323809 -0.15533
C_ C_ 0.0508346 0.685085 0.348686 0.18167
C_ C_ 0.00430009 0.547899 0.369211 0.69207
C_ C_ 0.485508 0.00476537 0.386823 0.02923
C_ C_ 0.506258 0.954173 0.383028 -0.15533
C_ C_ 0.473327 0.914183 0.383629 -0.15533
C_ C_ 0.421237 0.925287 0.396112 0.02923
C_ C_ 0.402462 0.975611 0.404559 -0.15533
C_ C_ 0.432334 0.0179668 0.399436 0.02923
C_ C_ 0.392102 0.580706 0.376494 0.69207
C_ C_ 0.405154 0.826268 0.392818 0.69661
C_ C_ 0.0734428 0.791025 0.0979599 0.18167
C_ C_ 0.0286117 0.768865 0.0795857 -0.15533
C_ C_ 0.0130364 0.768947 0.0264582 0.02923
C_ C_ 0.0414641 0.791987 0.482997 -0.15533
C_ C_ 0.0941659 0.798601 0.0162574 0.18167
C_ C_ 0.225605 0.761961 0.141424 0.18167
C_ C_ 0.23706 0.731968 0.184158 -0.15533
C_ C_ 0.230848 0.755045 0.231316 0.02923
C_ C_ 0.209223 0.805476 0.23753 -0.15533
C_ C_ 0.191424 0.831743 0.192785 0.18167
C_ C_ 0.239127 0.869519 0.048707 0.69207
C_ C_ 0.27934 0.87019 0.500631 0.02923
C_ C_ 0.260076 0.873659 0.448446 -0.15533
C_ C_ 0.288956 0.883425 0.411689 -0.15533
C_ C_ 0.341607 0.89232 0.425599 0.02923
C_ C_ 0.358296 0.89926 0.479446 -0.15533
C_ C_ 0.331456 0.883563 0.516037 0.02923
C_ C_ 0.352993 0.890346 0.0683802 0.69207
C_ C_ 0.362961 0.884763 0.328989 0.69661
C_ C_ 0.311207 0.939377 0.179507 0.18167
C_ C_ 0.269905 0.963006 0.203221 -0.15533
C_ C_ 0.278774 1.000537939 0.244689 0.02923
C_ C_ 0.321667 0.512132 0.242864 -0.15533
C_ C_ 0.364073 0.999111 0.221854 0.18167
C_ C_ 0.48999 0.855021 0.190301 0.18167
C_ C_ 0.0179758 0.806349 0.232076 -0.15533
C_ C_ 0.486133 0.770837 0.222749 0.02923
C_ C_ 0.434817 0.776348 0.204707 -0.15533
C_ C_ 0.411383 0.823285 0.188305 0.18167
C_ C_ 0.489879 0.955268 0.125406 0.69207
C_ C_ 0.0257581 0.492195 0.109766 0.02923
C_ C_ 0.00918978 0.54506 0.118657 -0.15533
C_ C_ 0.0422462 0.580999 0.117262 -0.15533
C_ C_ 0.0951056 0.569144 0.110053 0.02923
C_ C_ 0.112005 0.517003 0.0977022 -0.15533
C_ C_ 0.0783284 0.477052 0.0978303 0.02923
C_ C_ 0.101332 0.919446 0.109847 0.69207
C_ C_ 0.112749 0.665659 0.116846 0.69661
C_ C_ 0.440778 0.689838 0.445716 0.18167
C_ C_ 0.480111 0.71623 0.465257 -0.15533
C_ C_ 0.475362 0.748537 0.507583 0.02923
C_ C_ 0.423197 0.749333 0.0142148 -0.15533
C_ C_ 0.389235 0.724928 0.509243 0.18167
C_ C_ 0.26209 0.705318 0.362564 0.18167
C_ C_ 0.234183 0.71587 0.316046 -0.15533
C_ C_ 0.259925 0.730163 0.276211 0.02923
C_ C_ 0.313086 0.731703 0.284248 -0.15533
C_ C_ 0.339287 0.707681 0.325572 0.18167
C_ C_ 0.259447 0.628208 0.457472 0.69207
C_ C_ 0.23395 0.619224 0.993453 0.02923
C_ C_ 0.254515 0.616709 0.0434 -0.15533
C_ C_ 0.225156 0.609815 0.0845633 -0.15533
C_ C_ 0.171865 0.606845 0.0754582 0.02923
C_ C_ 0.151001 0.603587 0.024854 -0.15533
C_ C_ 0.181196 0.613991 0.984165 0.02923
C_ C_ 0.147625 0.608955 0.425335 0.69207
C_ C_ 0.160295 0.601864 0.16899 0.69661
C_ C_ 0.383555 0.88421 0.386081 -0.30787
C_ C_ 0.134086 0.60962 0.116107 -0.30787
N_ N_ 0.144096 0.555724 0.315304 -0.32189
N_ N_ 0.0606949 0.640297 0.321868 -0.32189
N_ N_ 0.10753 0.799215 0.0654672 -0.32189
N_ N_ 0.196752 0.807208 0.14713 -0.32189
N_ N_ 0.357811 0.956388 0.189269 -0.32189
N_ N_ 0.439416 0.86158 0.181511 -0.32189
N_ N_ 0.395349 0.696356 0.465133 -0.32189
N_ N_ 0.313975 0.693722 0.363023 -0.32189
O_ O_ 0.495106 0.602071 0.37388 -0.63271
O_ O_ 0.0396823 0.536429 0.337874 -0.57982
O_ O_ 0.388053 0.609959 0.33862 -0.63271
O_ O_ 0.373562 0.597925 0.418599 -0.57982
O_ O_ 0.24064 0.895423 0.0931751 -0.63271
O_ O_ 0.204882 0.836461 0.037724 -0.57982
O_ O_ 0.356718 0.847452 0.0933639 -0.63271
O_ O_ 0.375488 0.927946 0.0913065 -0.57982
O_ O_ 0.987354 0.900388 0.10058 -0.63271
O_ O_ 0.454804 0.967556 0.157143 -0.57982
O_ O_ 0.0989931 0.892251 0.150188 -0.63271
O_ O_ 0.133271 0.901256 0.0783948 -0.57982
O_ O_ 0.256425 0.602851 0.412365 -0.63271
O_ O_ 0.294752 0.659231 0.467869 -0.57982
O_ O_ 0.146771 0.650495 0.401817 -0.63271
O_ O_ 0.110427 0.579418 0.41275 -0.57982
F_ F_ 0.433665 0.827258 0.438421 -0.20885
F_ F_ 0.431769 0.805123 0.352659 -0.20885
F_ F_ 0.362363 0.79658 0.397248 -0.20885
F_ F_ 0.331998 0.928333 0.317884 -0.20885
F_ F_ 0.335783 0.843847 0.310723 -0.20885
F_ F_ 0.403391 0.880373 0.29914 -0.20885
F_ F_ 0.072069 0.671748 0.0757885 -0.20885
F_ F_ 0.089518 0.683407 0.159544 -0.20885
F_ F_ 0.149201 0.699507 0.120361 -0.20885
F_ F_ 0.194483 0.5583 0.171859 -0.20885
F_ F_ 0.186914 0.64221 0.191884 -0.20885
F_ F_ 0.128186 0.596973 0.205132 -0.20885
Zn Zn 0.086045 0.584064 0.849815 0.83971
Zn Zn 0.163065 0.845993 0.576644 0.83971
Zn Zn 0.409845 0.923604 0.655487 0.83971
Zn Zn 0.339234 0.655998 0.906517 0.83971
H_ H_ 0.17068 0.631725 0.807701 0.10394
H_ H_ 0.251699 0.593617 0.775618 0.10394
H_ H_ 0.209312 0.957074 0.774471 0.10394
H_ H_ 0.133231 0.485002 0.840266 0.10394
H_ H_ 0.527562 0.60059 0.745477 0.10394
H_ H_ 0.493827 0.675543 0.695949 0.10394
H_ H_ 0.0253776 0.768779 0.839075 0.10394
H_ H_ 0.0721458 0.697927 0.882212 0.10394
H_ H_ 0.0317143 0.941362 0.852549 0.10394
H_ H_ 0.460866 0.875398 0.860948 0.10394
H_ H_ 0.346699 0.992625 0.909396 0.10394
H_ H_ 0.0871863 0.80714 0.624472 0.10394
H_ H_ 0.509967 0.776396 0.604547 0.10394
H_ H_ 0.0375191 0.788339 0.952344 0.10394
H_ H_ 0.114157 0.817533 0.472491 0.10394
H_ H_ 0.216807 0.737717 0.576666 0.10394
H_ H_ 0.257453 0.689915 0.654309 0.10394
H_ H_ 0.221364 0.817429 0.756161 0.10394
H_ H_ 0.188951 0.86863 0.679217 0.10394
H_ H_ 0.214129 0.8657 0.948914 0.10394
H_ H_ 0.254689 0.903357 0.882939 0.10394
H_ H_ 0.39084 0.910571 0.987016 0.10394
H_ H_ 0.304738 0.921214 0.644836 0.10394
H_ H_ 0.231478 0.969865 0.678306 0.10394
H_ H_ 0.33566 0.535287 0.78898 0.10394
H_ H_ 0.408141 -0.00042200000000003346 0.743681 0.10394
H_ H_ 0.0215699 0.880782 0.699718 0.10394
H_ H_ 0.0572892 0.803487 0.741213 0.10394
H_ H_ 0.409071 0.752459 0.72033 0.10394
H_ H_ 0.368801 0.828002 0.682643 0.10394
H_ H_ 0.459475 0.550458 0.614516 0.10394
H_ H_ 0.0105 0.623793 0.6258 0.10394
H_ H_ 0.135968 0.509981 0.601488 0.10394
H_ H_ 0.446302 0.663189 0.893576 0.10394
H_ H_ 0.0115403 0.692532 0.953634 0.10394
H_ H_ 0.428232 0.769834 0.566971 0.10394
H_ H_ 0.34471 0.735261 -0.0030280000000000307 0.10394
H_ H_ 0.234386 0.695989 0.869275 0.10394
H_ H_ 0.194591 0.724165 0.781848 0.10394
H_ H_ 0.339855 0.697322 0.725293 0.10394
H_ H_ 0.379705 0.683204 0.810205 0.10394
H_ H_ 0.277746 0.638763 0.561964 0.10394
H_ H_ 0.229238 0.611385 0.622627 0.10394
H_ H_ 0.0997479 0.594825 0.506971 0.10394
C_ C_ 0.181326 0.590513 0.805187 0.18167
C_ C_ 0.223614 0.570653 0.78343 -0.15533
C_ C_ 0.234466 0.517683 0.777092 0.02923
C_ C_ 0.199368 0.996507 0.775097 -0.15533
C_ C_ 0.159703 0.50827 0.822763 0.18167
C_ C_ 0.036248 0.638525 0.773035 0.18167
C_ C_ 0.505871 0.680629 0.735984 -0.15533
C_ C_ 0.00662105 0.727055 0.771162 0.02923
C_ C_ 0.0317284 0.733549 0.820092 -0.15533
C_ C_ 0.0540637 0.690278 0.845493 0.18167
C_ C_ 0.000608538 0.54609 0.871885 0.69207
C_ C_ 0.46602 0.00358777 0.874159 0.02923
C_ C_ 0.478578 0.953862 0.859779 -0.15533
C_ C_ 0.445832 0.915759 0.863055 -0.15533
C_ C_ 0.400105 0.929517 0.885243 0.02923
C_ C_ 0.385853 0.981247 0.900244 -0.15533
C_ C_ 0.417811 0.0200282 0.892298 0.02923
C_ C_ 0.398284 0.57092 0.876523 0.69207
C_ C_ 0.382827 0.834653 0.888983 0.69661
C_ C_ 0.0701189 0.808341 0.584615 0.18167
C_ C_ 0.0287638 0.780831 0.570131 -0.15533
C_ C_ 0.0118484 0.77532 0.516943 0.02923
C_ C_ 0.0463067 0.786172 0.995159 -0.15533
C_ C_ 0.0860623 0.815332 0.498613 0.18167
C_ C_ 0.216513 0.754725 0.616394 0.18167
C_ C_ 0.24885 0.732241 0.657181 -0.15533
C_ C_ 0.2484 0.753969 0.707279 0.02923
C_ C_ 0.224754 0.803076 0.715929 -0.15533
C_ C_ 0.20171 0.829366 0.672941 0.18167
C_ C_ 0.245835 0.856716 0.537099 0.69207
C_ C_ 0.271855 0.884217 0.00899798 0.02923
C_ C_ 0.248527 0.884601 0.958795 -0.15533
C_ C_ 0.27568 0.893298 0.918335 -0.15533
C_ C_ 0.327279 0.902193 0.92776 0.02923
C_ C_ 0.350429 0.903662 0.97733 -0.15533
C_ C_ 0.32353 0.895203 0.0183002 0.02923
C_ C_ 0.359258 0.881237 0.567948 0.69207
C_ C_ 0.333988 0.892161 0.824608 0.69661
C_ C_ 0.311507 0.944227 0.679186 0.18167
C_ C_ 0.270471 0.975735 0.695809 -0.15533
C_ C_ 0.276917 1.0112879 0.738507 0.02923
C_ C_ 0.324 0.509857 0.756104 -0.15533
C_ C_ 0.36887 0.992867 0.731173 0.18167
C_ C_ 0.488826 0.858388 0.705631 0.18167
C_ C_ 0.0171868 0.812149 0.735831 -0.15533
C_ C_ 0.485028 0.773216 0.727888 0.02923
C_ C_ 0.432926 0.778405 0.713397 -0.15533
C_ C_ 0.40905 0.823163 0.68893 0.18167
C_ C_ 0.48901 0.955476 0.62845 0.69207
C_ C_ 0.014669 0.494195 0.615648 0.02923
C_ C_ 0.996902 0.545631 0.62228 -0.15533
C_ C_ 0.0272472 0.584853 0.617112 -0.15533
C_ C_ 0.0794629 0.571775 0.60631 0.02923
C_ C_ 0.0973889 0.520012 0.602754 -0.15533
C_ C_ 0.0666233 0.481843 0.610183 0.02923
C_ C_ 0.102748 0.925409 0.60903 0.69207
C_ C_ 0.0938302 0.666534 0.596821 0.69661
C_ C_ 0.439222 0.681193 0.931377 0.18167
C_ C_ 0.480261 0.701848 0.959318 -0.15533
C_ C_ 0.472316 0.73923 -0.0009580000000000144 0.02923
C_ C_ 0.430889 0.750932 0.530718 -0.15533
C_ C_ 0.382531 0.726903 0.986161 0.18167
C_ C_ 0.256803 0.693902 0.835483 0.18167
C_ C_ 0.234053 0.71563 0.789432 -0.15533
C_ C_ 0.265241 0.718219 0.748907 0.02923
C_ C_ 0.317639 0.702968 0.756769 -0.15533
C_ C_ 0.338458 0.686464 0.804935 0.18167
C_ C_ 0.263686 0.628756 0.951224 0.69207
C_ C_ 0.223115 0.621005 0.496643 0.02923
C_ C_ 0.238765 0.627692 0.5484 -0.15533
C_ C_ 0.207387 0.617402 0.584465 -0.15533
C_ C_ 0.157153 0.604947 0.570783 0.02923
C_ C_ 0.140938 0.595403 0.517925 -0.15533
C_ C_ 0.171821 0.607973 0.48008 0.02923
C_ C_ 0.152844 0.616499 0.931294 0.69207
C_ C_ 0.141939 0.614154 0.665877 0.69661
C_ C_ 0.359139 0.891519 0.881285 -0.30787
C_ C_ 0.117792 0.613363 0.610028 -0.30787
N_ N_ 0.147492 0.559847 0.819691 -0.32189
N_ N_ 0.0525252 0.641846 0.822948 -0.32189
N_ N_ 0.102455 0.819284 0.549176 -0.32189
N_ N_ 0.195651 0.804367 0.62584 -0.32189
N_ N_ 0.359143 0.955235 0.693785 -0.32189
N_ N_ 0.437144 0.863041 0.685998 -0.32189
N_ N_ 0.390387 0.696299 0.943294 -0.32189
N_ N_ 0.308724 0.683126 0.843137 -0.32189
O_ O_ 0.5043 0.578678 0.886062 -0.63271
O_ O_ 0.0389763 0.536546 0.846027 -0.57982
O_ O_ 0.399777 0.598599 0.83658 -0.63271
O_ O_ 0.373955 0.591366 0.913265 -0.57982
O_ O_ 0.252952 0.876429 0.583275 -0.63271
O_ O_ 0.201544 0.839771 0.522892 -0.57982
O_ O_ 0.362715 0.839191 0.592189 -0.63271
O_ O_ 0.381562 0.919822 0.590123 -0.57982
O_ O_ 0.995827 0.913056 0.610136 -0.63271
O_ O_ 0.453694 0.971181 0.65951 -0.57982
O_ O_ 0.0987117 0.896947 0.648767 -0.63271
O_ O_ 0.139022 0.91252 0.579514 -0.57982
O_ O_ 0.258163 0.602046 0.9061 -0.63271
O_ O_ 0.293098 0.665289 0.95347 -0.57982
O_ O_ 0.15692 0.654208 0.89999 -0.63271
O_ O_ 0.116688 0.585545 0.918116 -0.57982
F_ F_ 0.414073 0.8327 0.933885 -0.20885
F_ F_ 0.408516 0.813173 0.849629 -0.20885
F_ F_ 0.344502 0.803746 0.893794 -0.20885
F_ F_ 0.305925 0.938921 0.822278 -0.20885
F_ F_ 0.308097 0.849087 0.811461 -0.20885
F_ F_ 0.368279 0.890274 0.787527 -0.20885
F_ F_ 0.0549439 0.662442 0.556624 -0.20885
F_ F_ 0.0672371 0.688153 0.637078 -0.20885
F_ F_ 0.125939 0.701724 0.585443 -0.20885
F_ F_ 0.175606 0.572037 0.679357 -0.20885
F_ F_ 0.165191 0.654703 0.684551 -0.20885
F_ F_ 0.102674 0.614793 0.697299 -0.20885
Zn Zn 0.594814 0.0849134 0.353197 0.83971
Zn Zn 0.659766 0.345687 0.0874591 0.83971
Zn Zn 0.911605 0.420669 0.153987 0.83971
Zn Zn 0.845981 0.15506 0.421118 0.83971
H_ H_ 0.686941 0.13151 0.320175 0.10394
H_ H_ 0.756702 0.0973858 0.273045 0.10394
H_ H_ 0.726885 0.453696 0.310001 0.10394
H_ H_ 0.636849 0.987578 0.324706 0.10394
H_ H_ 0.0354723 0.102964 0.2473 0.10394
H_ H_ 1.00353 0.178717 0.203 0.10394
H_ H_ 0.516007 0.266265 0.336779 0.10394
H_ H_ 0.574661 0.197617 0.377462 0.10394
H_ H_ 0.527893 0.449423 0.372782 0.10394
H_ H_ 0.997445 0.38068 0.405644 0.10394
H_ H_ 0.85683 0.484336 0.415309 0.10394
H_ H_ 0.584151 0.302629 0.135436 0.10394
H_ H_ 0.99670998 0.261282 0.107249 0.10394
H_ H_ 0.525637 0.307413 0.453481 0.10394
H_ H_ 0.606731 0.327848 0.98493 0.10394
H_ H_ 0.727908 0.244905 0.100836 0.10394
H_ H_ 0.758814 0.201471 0.177037 0.10394
H_ H_ 0.713464 0.336987 0.272185 0.10394
H_ H_ 0.679855 0.375868 0.190387 0.10394
H_ H_ 0.720991 0.369027 0.441779 0.10394
H_ H_ 0.778309 0.373354 0.375812 0.10394
H_ H_ 0.901061 0.386135 0.494951 0.10394
H_ H_ 0.807395 0.395129 0.169003 0.10394
H_ H_ 0.737248 0.440832 0.208469 0.10394
H_ H_ 0.837311 0.0412725 0.285533 0.10394
H_ H_ 0.900581 0.515845 0.21838 0.10394
H_ H_ 0.510547 0.376438 0.188434 0.10394
H_ H_ 0.546716 0.300729 0.240585 0.10394
H_ H_ 0.919235 0.250776 0.231156 0.10394
H_ H_ 0.877324 0.324341 0.185816 0.10394
H_ H_ 0.959965 0.0507017 0.119702 0.10394
H_ H_ 0.531466 0.123894 0.136576 0.10394
H_ H_ 0.647366 0.00546288 0.0921427 0.10394
H_ H_ 0.94421 0.170584 0.396496 0.10394
H_ H_ 0.515911 0.200864 0.447953 0.10394
H_ H_ 0.909433 0.278984 0.0478494 0.10394
H_ H_ 0.849319 0.2322 0.507348 0.10394
H_ H_ 0.743236 0.204506 0.391388 0.10394
H_ H_ 0.700962 0.250124 0.3183 0.10394
H_ H_ 0.838832 0.222249 0.248468 0.10394
H_ H_ 0.880561 0.186795 0.323681 0.10394
H_ H_ 0.793275 0.10935 0.0482833 0.10394
H_ H_ 0.741866 0.098273 0.120367 0.10394
H_ H_ 0.610082 0.076318 0.0124995 0.10394
C_ C_ 0.690399 0.0917111 0.309494 0.18167
C_ C_ 0.733813 0.0716076 0.284235 -0.15533
C_ C_ 0.738755 0.0198285 0.269506 0.02923
C_ C_ 0.709713 0.492671 0.299822 -0.15533
C_ C_ 0.662425 0.0100096 0.310342 0.18167
C_ C_ 0.530244 0.130302 0.273466 0.18167
C_ C_ 0.0178273 0.183756 0.241605 -0.15533
C_ C_ 0.50105 0.220466 0.26705 0.02923
C_ C_ 0.526193 0.229078 0.315263 -0.15533
C_ C_ 0.553371 0.19059 0.340653 0.18167
C_ C_ 0.517533 0.0435433 0.375017 0.69207
C_ C_ 0.972812 0.508393 0.381225 0.02923
C_ C_ 1.00005 0.460315 0.391371 -0.15533
C_ C_ 0.974323 0.417711 0.403188 -0.15533
C_ C_ 0.920137 0.42544 0.405062 0.02923
C_ C_ 0.896549 0.477103 0.406606 -0.15533
C_ C_ 0.92145 0.51912 0.394082 0.02923
C_ C_ 0.904422 0.0749622 0.390787 0.69207
C_ C_ 0.909416 0.3289 0.384398 0.69661
C_ C_ 0.572752 0.295686 0.0941562 0.18167
C_ C_ 0.525573 0.275506 0.0781412 -0.15533
C_ C_ 0.511865 0.270635 0.0233725 0.02923
C_ C_ 0.540616 0.299276 0.491901 -0.15533
C_ C_ 0.584074 0.316768 0.00998449 0.18167
C_ C_ 0.724015 0.264029 0.138898 0.18167
C_ C_ 0.743242 0.23868 0.182634 -0.15533
C_ C_ 0.738435 0.26229 0.229941 0.02923
C_ C_ 0.713404 0.312961 0.234954 -0.15533
C_ C_ 0.693097 0.334952 0.188105 0.18167
C_ C_ 0.742704 0.35421 0.0473169 0.69207
C_ C_ 0.780135 0.363927 0.506566 0.02923
C_ C_ 0.761482 0.371742 0.454474 -0.15533
C_ C_ 0.792716 0.378395 0.415759 -0.15533
C_ C_ 0.846302 0.382131 0.429388 0.02923
C_ C_ 0.863087 0.38443 0.482148 -0.15533
C_ C_ 0.83175 0.373307 0.520252 0.02923
C_ C_ 0.852452 0.383289 0.0760233 0.69207
C_ C_ 0.862133 0.392214 0.332562 0.69661
C_ C_ 0.812415 0.433171 0.186761 0.18167
C_ C_ 0.772472 0.455439 0.213878 -0.15533
C_ C_ 0.780356 0.501139 0.245003 0.02923
C_ C_ 0.829767 0.0134617 0.251084 -0.15533
C_ C_ 0.863569 0.500851 0.215987 0.18167
C_ C_ 0.994008 0.359598 0.205945 0.18167
C_ C_ 0.507577 0.306209 0.225288 -0.15533
C_ C_ 0.993273 0.278453 0.23724 0.02923
C_ C_ 0.941336 0.281484 0.224143 -0.15533
C_ C_ 0.915178 0.324316 0.201814 0.18167
C_ C_ 0.987983 0.454798 0.115521 0.69207
C_ C_ 0.526056 0.992887 0.116349 0.02923
C_ C_ 0.51011 0.0470384 0.124958 -0.15533
C_ C_ 0.542592 0.0842869 0.122407 -0.15533
C_ C_ 0.59222 0.0698102 0.109258 0.02923
C_ C_ 0.609009 0.0175038 0.100573 -0.15533
C_ C_ 0.576996 0.977793 0.107618 0.02923
C_ C_ 0.598221 0.419368 0.10924 0.69207
C_ C_ 0.615797 0.165825 0.108835 0.69661
C_ C_ 0.938844 0.192962 0.431869 0.18167
C_ C_ 0.980587 0.215966 0.45543 -0.15533
C_ C_ 0.975485 0.246233 0.500059 0.02923
C_ C_ 0.919869 0.246884 0.0164652 -0.15533
C_ C_ 0.886881 0.2244 0.495143 0.18167
C_ C_ 0.764854 0.209735 0.360161 0.18167
C_ C_ 0.74142 0.238723 0.320768 -0.15533
C_ C_ 0.767748 0.242887 0.277708 0.02923
C_ C_ 0.819276 0.225719 0.2804 -0.15533
C_ C_ 0.842206 0.201609 0.323222 0.18167
C_ C_ 0.766708 0.127297 0.460904 0.69207
C_ C_ 0.729427 0.104039 0.989585 0.02923
C_ C_ 0.750868 0.108825 0.04085 -0.15533
C_ C_ 0.722028 0.104535 0.0806433 -0.15533
C_ C_ 0.670822 0.0958051 0.0729157 0.02923
C_ C_ 0.649201 0.0881449 0.0214891 -0.15533
C_ C_ 0.676113 0.0951296 0.980376 0.02923
C_ C_ 0.655997 0.107131 0.430067 0.69207
C_ C_ 0.657938 0.107196 0.170085 0.69661
C_ C_ 0.884347 0.385036 0.388553 -0.30787
C_ C_ 0.634402 0.110136 0.114892 -0.30787
N_ N_ 0.65411 0.061102 0.319357 -0.32189
N_ N_ 0.557484 0.142803 0.319195 -0.32189
N_ N_ 0.600228 0.316887 0.060976 -0.32189
N_ N_ 0.694906 0.310669 0.142255 -0.32189
N_ N_ 0.858227 0.452622 0.194034 -0.32189
N_ N_ 0.943546 0.362631 0.189186 -0.32189
N_ N_ 0.894851 0.194508 0.453001 -0.32189
N_ N_ 0.815222 0.190218 0.360594 -0.32189
O_ O_ 0.00750558 0.099705 0.389495 -0.63271
O_ O_ 0.555369 0.0295889 0.346555 -0.57982
O_ O_ 0.898663 0.102466 0.349862 -0.63271
O_ O_ 0.878904 0.0911576 0.428261 -0.57982
O_ O_ 0.750186 0.373856 0.0936142 -0.63271
O_ O_ 0.699537 0.336248 0.0372854 -0.57982
O_ O_ 0.857923 0.341221 0.100752 -0.63271
O_ O_ 0.881495 0.420137 0.0935005 -0.57982
O_ O_ 0.485667 0.402637 0.0921824 -0.63271
O_ O_ 0.955729 0.467435 0.151536 -0.57982
O_ O_ 0.594056 0.394387 0.149913 -0.63271
O_ O_ 0.64059 0.411337 0.0867792 -0.57982
O_ O_ 0.766593 0.0979525 0.418315 -0.63271
O_ O_ 0.802528 0.157206 0.469961 -0.57982
O_ O_ 0.655285 0.151762 0.406936 -0.63271
O_ O_ 0.619824 0.0785897 0.417545 -0.57982
F_ F_ 0.935143 0.317365 0.431374 -0.20885
F_ F_ 0.944699 0.325981 0.34931 -0.20885
F_ F_ 0.876308 0.291779 0.376749 -0.20885
F_ F_ 0.830502 0.437015 0.329649 -0.20885
F_ F_ 0.833564 0.353829 0.308219 -0.20885
F_ F_ 0.897979 0.403272 0.298802 -0.20885
F_ F_ 0.5853 0.166892 0.06335 -0.20885
F_ F_ 0.585336 0.188847 0.144365 -0.20885
F_ F_ 0.653736 0.199815 0.109434 -0.20885
F_ F_ 0.683806 0.0607981 0.170263 -0.20885
F_ F_ 0.695264 0.141861 0.181636 -0.20885
F_ F_ 0.620887 0.114595 0.204853 -0.20885
Zn Zn 0.58438 0.0778375 0.848213 0.83971
Zn Zn 0.663429 0.341954 0.587532 0.83971
Zn Zn 0.906374 0.414223 0.660296 0.83971
Zn Zn 0.838982 0.147434 0.915845 0.83971
H_ H_ 0.662268 0.130169 0.802024 0.10394
H_ H_ 0.742719 0.09489 0.759447 0.10394
H_ H_ 0.712893 0.451877 0.806704 0.10394
H_ H_ 0.633301 0.981303 0.826374 0.10394
H_ H_ 0.0228334 0.101211 0.754962 0.10394
H_ H_ 0.99376175 0.176782 0.701906 0.10394
H_ H_ 0.516467 0.258678 0.838599 0.10394
H_ H_ 0.563139 0.182699 0.883394 0.10394
H_ H_ 0.517539 0.435483 0.835043 0.10394
H_ H_ 0.982907 0.377946 0.90004 0.10394
H_ H_ 0.848856 0.484302 0.912147 0.10394
H_ H_ 0.585447 0.292907 0.632155 0.10394
H_ H_ 0.00902155 0.268102 0.602326 0.10394
H_ H_ 0.526124 0.296514 0.950462 0.10394
H_ H_ 0.612246 0.329518 0.485407 0.10394
H_ H_ 0.738559 0.263631 0.607086 0.10394
H_ H_ 0.769282 0.212273 0.680212 0.10394
H_ H_ 0.688411 0.320767 0.774733 0.10394
H_ H_ 0.664114 0.376748 0.700051 0.10394
H_ H_ 0.715365 0.35764 0.944224 0.10394
H_ H_ 0.773341 0.355743 0.879789 0.10394
H_ H_ 0.885812 0.419025 0.991032 0.10394
H_ H_ 0.803128 0.390809 0.666118 0.10394
H_ H_ 0.727053 0.439971 0.701305 0.10394
H_ H_ 0.83073 0.0500751 0.777107 0.10394
H_ H_ 0.893585 0.505279 0.723216 0.10394
H_ H_ 0.512415 0.373449 0.701384 0.10394
H_ H_ 0.546147 0.290405 0.741877 0.10394
H_ H_ 0.91112 0.247808 0.729746 0.10394
H_ H_ 0.874059 0.32817 0.688206 0.10394
H_ H_ 0.962138 0.0535826 0.618407 0.10394
H_ H_ 0.514213 0.124271 0.616211 0.10394
H_ H_ 0.639965 0.013862 0.58521 0.10394
H_ H_ 0.942258 0.161226 0.898554 0.10394
H_ H_ 0.512571 0.212712 0.940629 0.10394
H_ H_ 0.919082 0.278351 0.549059 0.10394
H_ H_ 0.841888 0.225914 0.00279000000000007 0.10394
H_ H_ 0.734929 0.190141 0.888972 0.10394
H_ H_ 0.692182 0.230538 0.81589 0.10394
H_ H_ 0.837174 0.244662 0.764574 0.10394
H_ H_ 0.876881 0.195367 0.8323 0.10394
H_ H_ 0.77858 0.149953 0.564154 0.10394
H_ H_ 0.723271 0.140847 0.625985 0.10394
H_ H_ 0.606004 0.0917371 0.51018 0.10394
C_ C_ 0.673942 0.0900294 0.795736 0.18167
C_ C_ 0.720489 0.0707057 0.777374 -0.15533
C_ C_ 0.736236 0.0188462 0.77958 0.02923
C_ C_ 0.694206 0.485592 0.78776 -0.15533
C_ C_ 0.656528 0.00464866 0.811241 0.18167
C_ C_ 0.528106 0.12843 0.765815 0.18167
C_ C_ 0.0116282 0.1816 0.740598 -0.15533
C_ C_ 0.494271 0.217153 0.769767 0.02923
C_ C_ 0.514871 0.222167 0.820669 -0.15533
C_ C_ 0.541313 0.180073 0.844839 0.18167
C_ C_ 0.505267 0.040066 0.872405 0.69207
C_ C_ 0.96783 0.505496 0.881985 0.02923
C_ C_ 0.990956 0.456534 0.894871 -0.15533
C_ C_ 0.962112 0.416115 0.893133 -0.15533
C_ C_ 0.907846 0.426633 0.897564 0.02923
C_ C_ 0.886077 0.475483 0.896124 -0.15533
C_ C_ 0.913278 0.51562 0.885389 0.02923
C_ C_ 0.894578 0.0693656 0.877585 0.69207
C_ C_ 0.900855 0.327397 0.888741 0.69661
C_ C_ 0.572037 0.299324 0.593996 0.18167
C_ C_ 0.523554 0.285677 0.574263 -0.15533
C_ C_ 0.509595 0.277917 0.52308 0.02923
C_ C_ 0.538291 0.296252 0.990827 -0.15533
C_ C_ 0.588884 0.314314 0.511837 0.18167
C_ C_ 0.72672 0.276128 0.64444 0.18167
C_ C_ 0.749101 0.250329 0.686836 -0.15533
C_ C_ 0.738606 0.266432 0.735672 0.02923
C_ C_ 0.705599 0.312737 0.740701 -0.15533
C_ C_ 0.683323 0.338514 0.696062 0.18167
C_ C_ 0.743122 0.361362 0.544404 0.69207
C_ C_ 0.776554 0.36227 1.00835546 0.02923
C_ C_ 0.756318 0.362101 0.955679 -0.15533
C_ C_ 0.787178 0.36995 0.916815 -0.15533
C_ C_ 0.83404 0.38866 0.927689 0.02923
C_ C_ 0.850196 0.399611 0.980681 -0.15533
C_ C_ 0.823715 0.383236 0.0219297 0.02923
C_ C_ 0.852914 0.37128 0.573712 0.69207
C_ C_ 0.84819 0.386761 0.831469 0.69661
C_ C_ 0.806888 0.427704 0.685666 0.18167
C_ C_ 0.7659 0.447586 0.715425 -0.15533
C_ C_ 0.770871 0.491646 0.742964 0.02923
C_ C_ 0.826284 0.016235 0.756028 -0.15533
C_ C_ 0.859067 0.488238 0.723384 0.18167
C_ C_ 0.991082 0.353128 0.699653 0.18167
C_ C_ 0.506222 0.301862 0.735313 -0.15533
C_ C_ 0.986487 0.274013 0.738855 0.02923
C_ C_ 0.933969 0.279723 0.726531 -0.15533
C_ C_ 0.911636 0.322666 0.699214 0.18167
C_ C_ 0.97978 0.454994 0.625165 0.69207
C_ C_ 0.519518 0.994188 0.610775 0.02923
C_ C_ 0.497686 0.0452693 0.609636 -0.15533
C_ C_ 0.52957 0.08425 0.608173 -0.15533
C_ C_ 0.581259 0.0741967 0.597671 0.02923
C_ C_ 0.600136 0.0210686 0.594338 -0.15533
C_ C_ 0.571683 0.981762 0.6021 0.02923
C_ C_ 0.600446 0.424842 0.616583 0.69207
C_ C_ 0.599698 0.170435 0.613617 0.69661
C_ C_ 0.93821 0.175072 0.936998 0.18167
C_ C_ 0.977471 0.194975 0.96514 -0.15533
C_ C_ 0.968643 0.234215 0.00268494 0.02923
C_ C_ 0.926577 0.251468 0.518636 -0.15533
C_ C_ 0.880162 0.219941 0.99095 0.18167
C_ C_ 0.757945 0.201207 0.859086 0.18167
C_ C_ 0.732133 0.222673 0.816097 -0.15533
C_ C_ 0.762168 0.240729 0.782808 0.02923
C_ C_ 0.812922 0.228404 0.787495 -0.15533
C_ C_ 0.836302 0.198285 0.825703 0.18167
C_ C_ 0.761684 0.117243 0.948978 0.69207
C_ C_ 0.725756 0.125336 0.498164 0.02923
C_ C_ 0.743117 0.133442 0.552575 -0.15533
C_ C_ 0.710611 0.132097 0.588293 -0.15533
C_ C_ 0.661586 0.112042 0.575431 0.02923
C_ C_ 0.646124 0.0997234 0.522366 -0.15533
C_ C_ 0.677019 0.108577 0.483452 0.02923
C_ C_ 0.6515 0.0973261 0.924987 0.69207
C_ C_ 0.647855 0.100786 0.667508 0.69661
C_ C_ 0.873432 0.38116 0.887962 -0.30787
C_ C_ 0.620726 0.11367 0.613668 -0.30787
N_ N_ 0.643376 0.0563568 0.810139 -0.32189
N_ N_ 0.548315 0.135792 0.816901 -0.32189
N_ N_ 0.605199 0.310521 0.562698 -0.32189
N_ N_ 0.693617 0.317983 0.649439 -0.32189
N_ N_ 0.854995 0.441363 0.698561 -0.32189
N_ N_ 0.941082 0.355255 0.685102 -0.32189
N_ N_ 0.889974 0.186524 0.951823 -0.32189
N_ N_ 0.809387 0.189188 0.863178 -0.32189
O_ O_ 0.00720775 0.0883447 0.892326 -0.63271
O_ O_ 0.543658 0.0282905 0.845368 -0.57982
O_ O_ 0.893961 0.100307 0.841726 -0.63271
O_ O_ 0.87444 0.0888127 0.921219 -0.57982
O_ O_ 0.746858 0.391123 0.585791 -0.63271
O_ O_ 0.704955 0.333806 0.537177 -0.57982
O_ O_ 0.858278 0.327049 0.59676 -0.63271
O_ O_ 0.873924 0.410777 0.596896 -0.57982
O_ O_ 0.488058 0.407768 0.595122 -0.63271
O_ O_ 0.945925 0.465355 0.654981 -0.57982
O_ O_ 0.586718 0.397168 0.651508 -0.63271
O_ O_ 0.641062 0.407673 0.592969 -0.57982
O_ O_ 0.761854 0.0886896 0.90619 -0.63271
O_ O_ 0.795363 0.148565 0.96157 -0.57982
O_ O_ 0.658719 0.135325 0.898486 -0.63271
O_ O_ 0.610797 0.0749468 0.913049 -0.57982
F_ F_ 0.932332 0.324135 0.933748 -0.20885
F_ F_ 0.928392 0.313087 0.845943 -0.20885
F_ F_ 0.8681 0.290833 0.888026 -0.20885
F_ F_ 0.809889 0.426726 0.830806 -0.20885
F_ F_ 0.825745 0.343554 0.808203 -0.20885
F_ F_ 0.882856 0.396661 0.795678 -0.20885
F_ F_ 0.570257 0.181104 0.568428 -0.20885
F_ F_ 0.569869 0.180946 0.652524 -0.20885
F_ F_ 0.636351 0.205043 0.623546 -0.20885
F_ F_ 0.681978 0.0587624 0.665615 -0.20885
F_ F_ 0.678147 0.133919 0.698225 -0.20885
F_ F_ 0.613418 0.0886482 0.698218 -0.20885
Zn Zn 0.583766 0.58534 0.338465 0.83971
Zn Zn 0.662034 0.846362 0.0816789 0.83971
Zn Zn 0.908691 0.911862 0.156284 0.83971
Zn Zn 0.832688 0.656544 0.411004 0.83971
H_ H_ 0.65947 0.635992 0.295812 0.10394
H_ H_ 0.743516 0.600798 0.258684 0.10394
H_ H_ 0.716095 0.948113 0.281882 0.10394
H_ H_ 0.645313 0.49252 0.343257 0.10394
H_ H_ 0.0451924 0.593312 0.256298 0.10394
H_ H_ 1.0036 0.668749 0.205594 0.10394
H_ H_ 0.529797 0.769593 0.322379 0.10394
H_ H_ 0.56819 0.689531 0.364243 0.10394
H_ H_ 0.546284 0.944926 0.375318 0.10394
H_ H_ 0.977602 0.883784 0.358694 0.10394
H_ H_ 0.858981 0.994312 0.40567 0.10394
H_ H_ 0.587856 0.797024 0.131971 0.10394
H_ H_ 1.00610727 0.752648 0.103909 0.10394
H_ H_ 0.531496 0.798134 0.450517 0.10394
H_ H_ 0.610342 0.829759 0.981099 0.10394
H_ H_ 0.71031 0.745272 0.0906877 0.10394
H_ H_ 0.755126 0.701196 0.163487 0.10394
H_ H_ 0.727289 0.833591 0.258392 0.10394
H_ H_ 0.698765 0.880819 0.181884 0.10394
H_ H_ 0.720443 0.890919 0.456374 0.10394
H_ H_ 0.769824 0.902659 0.383831 0.10394
H_ H_ 0.903076 0.905209 0.490209 0.10394
H_ H_ 0.803776 0.905376 0.147138 0.10394
H_ H_ 0.727645 0.966223 0.179359 0.10394
H_ H_ 0.831414 0.556242 0.272921 0.10394
H_ H_ 0.910147 0.986629 0.243736 0.10394
H_ H_ 0.513765 0.887732 0.192888 0.10394
H_ H_ 0.554274 0.80861 0.217734 0.10394
H_ H_ 0.917436 0.740425 0.229615 0.10394
H_ H_ 0.874133 0.814138 0.184992 0.10394
H_ H_ 0.970597 0.555111 0.125707 0.10394
H_ H_ 0.514787 0.613115 0.0953691 0.10394
H_ H_ 0.641657 0.500195 0.0936355 0.10394
H_ H_ 0.93938 0.664161 0.396953 0.10394
H_ H_ 0.516069 0.705244 0.447681 0.10394
H_ H_ 0.9131 0.785148 0.0468702 0.10394
H_ H_ 0.836608 0.737816 0.492412 0.10394
H_ H_ 0.728316 0.695112 0.372295 0.10394
H_ H_ 0.691717 0.746731 0.297215 0.10394
H_ H_ 0.838701 0.720406 0.239832 0.10394
H_ H_ 0.87655 0.680275 0.321412 0.10394
H_ H_ 0.784836 0.585731 0.0437316 0.10394
H_ H_ 0.731001 0.578569 0.110472 0.10394
H_ H_ 0.60367 0.574905 0.00206264 0.10394
C_ C_ 0.673603 0.594347 0.292791 0.18167
C_ C_ 0.718547 0.575473 0.272347 -0.15533
C_ C_ 0.734677 0.522672 0.272406 0.02923
C_ C_ 0.705982 0.989142 0.284946 -0.15533
C_ C_ 0.664636 0.513485 0.319727 0.18167
C_ C_ 0.521184 0.633849 0.25795 0.18167
C_ C_ 0.0210383 0.674229 0.244796 -0.15533
C_ C_ 0.507303 0.726612 0.251619 0.02923
C_ C_ 0.52785 0.732196 0.30215 -0.15533
C_ C_ 0.549072 0.687141 0.326046 0.18167
C_ C_ 0.504355 0.552932 0.362298 0.69207
C_ C_ 0.979653 0.0121167 0.378049 0.02923
C_ C_ -0.0021539999999999893 0.958588 0.371488 -0.15533
C_ C_ 0.964588 0.92152 0.371917 -0.15533
C_ C_ 0.917618 0.931782 0.39132 0.02923
C_ C_ 0.898799 0.984232 0.397427 -0.15533
C_ C_ 0.929706 0.0236087 0.392097 0.02923
C_ C_ 0.895091 0.570276 0.387482 0.69207
C_ C_ 0.898427 0.836042 0.387692 0.69661
C_ C_ 0.574529 0.796235 0.0898026 0.18167
C_ C_ 0.531439 0.772179 0.0720506 -0.15533
C_ C_ 0.518847 0.765655 0.019716 0.02923
C_ C_ 0.54427 0.802292 0.490906 -0.15533
C_ C_ 0.591936 0.808794 0.00632754 0.18167
C_ C_ 0.719452 0.763953 0.126556 0.18167
C_ C_ 0.739015 0.737277 0.169129 -0.15533
C_ C_ 0.741 0.760931 0.218728 0.02923
C_ C_ 0.725487 0.812781 0.222016 -0.15533
C_ C_ 0.704339 0.839095 0.180118 0.18167
C_ C_ 0.743999 0.86824 0.0446279 0.69207
C_ C_ 0.781563 0.892836 0.51237 0.02923
C_ C_ 0.75952 0.894004 0.463432 -0.15533
C_ C_ 0.788754 0.896926 0.421123 -0.15533
C_ C_ 0.841164 0.900815 0.430507 0.02923
C_ C_ 0.863647 0.902131 0.48132 -0.15533
C_ C_ 0.834476 0.896457 0.522752 0.02923
C_ C_ 0.85483 0.880069 0.0697039 0.69207
C_ C_ 0.849431 0.901535 0.328864 0.69661
C_ C_ 0.810991 0.936553 0.174907 0.18167
C_ C_ 0.768407 0.964529 0.196706 -0.15533
C_ C_ 0.779588 0.998722 0.238411 0.02923
C_ C_ 0.82551 0.524447 0.24555 -0.15533
C_ C_ 0.870243 0.982298 0.230436 0.18167
C_ C_ 0.99325 0.847859 0.204836 0.18167
C_ C_ 0.514169 0.809732 0.212737 -0.15533
C_ C_ 0.989262 0.76784 0.241832 0.02923
C_ C_ 0.938516 0.767664 0.218636 -0.15533
C_ C_ 0.914973 0.810334 0.192531 0.18167
C_ C_ 0.985066 0.946001 0.124117 0.69207
C_ C_ 0.518826 0.485236 0.100368 0.02923
C_ C_ 0.498959 0.537254 0.0965663 -0.15533
C_ C_ 0.532631 0.575055 0.095685 -0.15533
C_ C_ 0.585783 0.562296 0.100275 0.02923
C_ C_ 0.603493 0.511405 0.0953611 -0.15533
C_ C_ 0.570974 0.472252 0.102199 0.02923
C_ C_ 0.602441 0.924396 0.107309 0.69207
C_ C_ 0.604045 0.659529 0.103914 0.69661
C_ C_ 0.932841 0.687295 0.431291 0.18167
C_ C_ 0.976248 0.704647 0.460508 -0.15533
C_ C_ 0.967386 0.743534 0.498278 0.02923
C_ C_ 0.921481 0.75159 1.0240193 -0.15533
C_ C_ 0.87645 0.727009 0.486087 0.18167
C_ C_ 0.753631 0.703553 0.344141 0.18167
C_ C_ 0.733122 0.727137 0.300741 -0.15533
C_ C_ 0.763405 0.732788 0.261866 0.02923
C_ C_ 0.816155 0.717664 0.269028 -0.15533
C_ C_ 0.835047 0.693127 0.314844 0.18167
C_ C_ 0.753706 0.625543 0.444295 0.69207
C_ C_ 0.723806 0.599791 0.984985 0.02923
C_ C_ 0.744492 0.592731 0.0351723 -0.15533
C_ C_ 0.713451 0.593549 0.0747589 -0.15533
C_ C_ 0.660668 0.595367 0.0643781 0.02923
C_ C_ 0.639852 0.589094 0.0115062 -0.15533
C_ C_ 0.669976 0.599461 0.973032 0.02923
C_ C_ 0.64417 0.607746 0.418948 0.69207
C_ C_ 0.649326 0.597024 0.162865 0.69661
C_ C_ 0.876029 0.89357 0.385418 -0.30787
C_ C_ 0.624511 0.60283 0.10834 -0.30787
N_ N_ 0.64575 0.561784 0.31227 -0.32189
N_ N_ 0.548292 0.641227 0.302784 -0.32189
N_ N_ 0.604078 0.81223 0.0569063 -0.32189
N_ N_ 0.696113 0.812669 0.13414 -0.32189
N_ N_ 0.859418 0.945083 0.19486 -0.32189
N_ N_ 0.942496 0.849976 0.185526 -0.32189
N_ N_ 0.885876 0.691893 0.446897 -0.32189
N_ N_ 0.803889 0.688128 0.352676 -0.32189
O_ O_ 0.00158848 0.590308 0.397975 -0.63271
O_ O_ 0.540343 0.539975 0.333188 -0.57982
O_ O_ 0.89813 0.591263 0.344347 -0.63271
O_ O_ 0.864765 0.590855 0.421143 -0.57982
O_ O_ 0.739403 0.903602 0.0815453 -0.63271
O_ O_ 0.709373 0.837161 0.0351244 -0.57982
O_ O_ 0.850244 0.840582 0.0968201 -0.63271
O_ O_ 0.884461 0.915101 0.0860042 -0.57982
O_ O_ 0.492666 0.908503 0.100922 -0.63271
O_ O_ 0.951472 0.959008 0.155965 -0.57982
O_ O_ 0.60844 0.899756 0.148924 -0.63271
O_ O_ 0.625218 0.903851 0.0688724 -0.57982
O_ O_ 0.753925 0.600388 0.399179 -0.63271
O_ O_ 0.784123 0.660813 0.451902 -0.57982
O_ O_ 0.647429 0.648695 0.394492 -0.63271
O_ O_ 0.605579 0.581806 0.403551 -0.57982
F_ F_ 0.929974 0.831943 0.432595 -0.20885
F_ F_ 0.928066 0.815046 0.345748 -0.20885
F_ F_ 0.859955 0.804476 0.388901 -0.20885
F_ F_ 0.821599 0.949092 0.325864 -0.20885
F_ F_ 0.813356 0.86544 0.315921 -0.20885
F_ F_ 0.884892 0.894983 0.292432 -0.20885
F_ F_ 0.569686 0.663371 0.0616958 -0.20885
F_ F_ 0.57494 0.677196 0.144166 -0.20885
F_ F_ 0.644728 0.689227 0.103497 -0.20885
F_ F_ 0.677789 0.550348 0.17146 -0.20885
F_ F_ 0.680943 0.635187 0.177501 -0.20885
F_ F_ 0.616458 0.60152 0.200518 -0.20885
Zn Zn 0.58046 0.58062 0.84209 0.83971
Zn Zn 0.666149 0.852517 0.587015 0.83971
Zn Zn 0.916001 0.920916 0.661136 0.83971
Zn Zn 0.839232 0.652261 0.918965 0.83971
H_ H_ 0.65687 0.62802 0.796906 0.10394
H_ H_ 0.731724 0.594537 0.752902 0.10394
H_ H_ 0.714332 0.947644 0.797436 0.10394
H_ H_ 0.623996 0.479805 0.816381 0.10394
H_ H_ 0.0315301 0.600935 0.754363 0.10394
H_ H_ 0.989844 0.673109 0.707691 0.10394
H_ H_ 0.524828 0.77235 0.828146 0.10394
H_ H_ 0.565366 0.698305 0.874832 0.10394
H_ H_ 0.516643 0.943123 0.849635 0.10394
H_ H_ 0.979745 0.877072 0.870423 0.10394
H_ H_ 0.851003 0.985052 0.884167 0.10394
H_ H_ 0.590663 0.807538 0.629178 0.10394
H_ H_ 0.00968325 0.76513 0.598137 0.10394
H_ H_ 0.536722 0.783365 0.94486 0.10394
H_ H_ 0.604486 0.851246 0.486148 0.10394
H_ H_ 0.718306 0.749376 0.598821 0.10394
H_ H_ 0.764402 0.707553 0.673354 0.10394
H_ H_ 0.716191 0.832705 0.771668 0.10394
H_ H_ 0.673989 0.87827 0.69652 0.10394
H_ H_ 0.719492 0.873977 0.943354 0.10394
H_ H_ 0.770438 0.892823 0.87822 0.10394
H_ H_ 0.897906 0.91335 0.98773 0.10394
H_ H_ 0.815746 0.893557 0.67252 0.10394
H_ H_ 0.738657 0.937879 0.708248 0.10394
H_ H_ 0.822957 0.551719 0.766651 0.10394
H_ H_ 0.903217 1.0129046 0.731088 0.10394
H_ H_ 0.508454 0.889164 0.696827 0.10394
H_ H_ 0.551863 0.814259 0.740783 0.10394
H_ H_ 0.913051 0.74548 0.710903 0.10394
H_ H_ 0.87627 0.827549 0.68575 0.10394
H_ H_ 0.956663 0.555797 0.61964 0.10394
H_ H_ 0.51139 0.618377 0.597628 0.10394
H_ H_ 0.640942 0.507578 0.582509 0.10394
H_ H_ 0.937641 0.652588 0.910145 0.10394
H_ H_ 0.516916 0.690908 0.948141 0.10394
H_ H_ 0.905658 0.778622 0.543496 0.10394
H_ H_ 0.840232 0.737071 1.00935117 0.10394
H_ H_ 0.730603 0.686124 0.875484 0.10394
H_ H_ 0.69542 0.734989 0.805625 0.10394
H_ H_ 0.840404 0.723878 0.749128 0.10394
H_ H_ 0.878129 0.687785 0.827222 0.10394
H_ H_ 0.7778 0.626794 0.545325 0.10394
H_ H_ 0.728203 0.616666 0.611326 0.10394
H_ H_ 0.598474 0.592568 0.498799 0.10394
C_ C_ 0.663861 0.589679 0.78768 0.18167
C_ C_ 0.709741 0.57024 0.769734 -0.15533
C_ C_ 0.725053 0.516645 0.767685 0.02923
C_ C_ 0.704588 0.986521 0.797779 -0.15533
C_ C_ 0.646901 0.507007 0.804738 0.18167
C_ C_ 0.523778 0.637704 0.765492 0.18167
C_ C_ 0.00659826 0.67931 0.746877 -0.15533
C_ C_ 0.508303 0.728062 0.757785 0.02923
C_ C_ 0.530516 0.735534 0.808323 -0.15533
C_ C_ 0.547428 0.692347 0.836472 0.18167
C_ C_ 0.502438 0.539665 0.85199 0.69207
C_ C_ 0.972274 0.00585948 0.863938 0.02923
C_ C_ -0.005314000000000041 0.951667 0.863186 -0.15533
C_ C_ 0.964283 0.913418 0.874017 -0.15533
C_ C_ 0.912556 0.923892 0.885815 0.02923
C_ C_ 0.891467 0.976337 0.885599 -0.15533
C_ C_ 0.921396 0.0171783 0.875882 0.02923
C_ C_ 0.885805 0.566501 0.88267 0.69207
C_ C_ 0.904685 0.825256 0.893892 0.69661
C_ C_ 0.581752 0.800343 0.59136 0.18167
C_ C_ 0.535748 0.782482 0.575905 -0.15533
C_ C_ 0.516944 0.781728 0.525676 0.02923
C_ C_ 0.546275 0.788088 0.986345 -0.15533
C_ C_ 0.588559 0.822838 0.508838 0.18167
C_ C_ 0.723322 0.771313 0.637204 0.18167
C_ C_ 0.743311 0.744457 0.67868 -0.15533
C_ C_ 0.745034 0.768093 0.7282 0.02923
C_ C_ 0.720527 0.818267 0.734317 -0.15533
C_ C_ 0.695263 0.841506 0.691705 0.18167
C_ C_ 0.749871 0.87984 0.554008 0.69207
C_ C_ 0.780393 0.872944 1.00405933 0.02923
C_ C_ 0.759976 0.875693 0.953557 -0.15533
C_ C_ 0.787145 0.891075 0.916497 -0.15533
C_ C_ 0.840665 0.891827 0.926538 0.02923
C_ C_ 0.862532 0.894605 0.97944 -0.15533
C_ C_ 0.832533 0.88302 0.0169126 0.02923
C_ C_ 0.860024 0.891376 0.575874 0.69207
C_ C_ 0.849221 0.876396 0.831012 0.69661
C_ C_ 0.816198 0.931623 0.690869 0.18167
C_ C_ 0.773903 0.95607 0.714544 -0.15533
C_ C_ 0.77986 -0.003475000000000006 0.750329 0.02923
C_ C_ 0.818975 0.51242 0.749441 -0.15533
C_ C_ 0.86783 0.993856 0.730449 0.18167
C_ C_ 0.995763 0.854729 0.709775 0.18167
C_ C_ 0.512556 0.814384 0.722961 -0.15533
C_ C_ 0.986836 0.773484 0.743528 0.02923
C_ C_ 0.936608 0.776754 0.718637 -0.15533
C_ C_ 0.915256 0.823254 0.699072 0.18167
C_ C_ 0.997652 0.955964 0.637469 0.69207
C_ C_ 0.521595 0.488813 0.617402 0.02923
C_ C_ 0.50067 0.538929 0.609832 -0.15533
C_ C_ 0.530677 0.578857 0.601268 -0.15533
C_ C_ 0.581554 0.568971 0.596412 0.02923
C_ C_ 0.601959 0.517479 0.59519 -0.15533
C_ C_ 0.573254 0.477367 0.608672 0.02923
C_ C_ 0.597943 0.928142 0.608735 0.69207
C_ C_ 0.594987 0.6659 0.605107 0.69661
C_ C_ 0.933078 0.6806 0.942854 0.18167
C_ C_ 0.974385 0.704222 0.966225 -0.15533
C_ C_ 0.968692 0.743457 1.0038603 0.02923
C_ C_ 0.916464 0.753373 0.511619 -0.15533
C_ C_ 0.878652 0.726107 0.999289704 0.18167
C_ C_ 0.756316 0.703137 0.854494 0.18167
C_ C_ 0.734109 0.727327 0.811301 -0.15533
C_ C_ 0.764737 0.738716 0.773954 0.02923
C_ C_ 0.818013 0.720699 0.780672 -0.15533
C_ C_ 0.838946 0.697756 0.823971 0.18167
C_ C_ 0.75912 0.61252 0.948561 0.69207
C_ C_ 0.718834 0.618508 0.482431 0.02923
C_ C_ 0.738832 0.618417 0.53391 -0.15533
C_ C_ 0.710609 0.60802 0.573069 -0.15533
C_ C_ 0.657514 0.603385 0.561449 0.02923
C_ C_ 0.637684 0.599662 0.510414 -0.15533
C_ C_ 0.670184 0.602761 0.470381 0.02923
C_ C_ 0.647206 0.60212 0.919901 0.69207
C_ C_ 0.644285 0.602315 0.659301 0.69661
C_ C_ 0.878428 0.879764 0.884913 -0.30787
C_ C_ 0.620183 0.60879 0.60303 -0.30787
N_ N_ 0.632992 0.557097 0.801393 -0.32189
N_ N_ 0.54336 0.644253 0.814694 -0.32189
N_ N_ 0.608786 0.818926 0.557713 -0.32189
N_ N_ 0.70007 0.819085 0.643897 -0.32189
N_ N_ 0.860447 0.953657 0.696612 -0.32189
N_ N_ 0.945508 0.858837 0.691858 -0.32189
N_ N_ 0.888544 0.686433 0.96382 -0.32189
N_ N_ 0.80851 0.687645 0.859753 -0.32189
O_ O_ 1.00328825 0.586491 0.904756 -0.63271
O_ O_ 0.539749 0.531038 0.823957 -0.57982
O_ O_ 0.885175 0.59423 0.841446 -0.63271
O_ O_ 0.869999 0.590553 0.923855 -0.57982
O_ O_ 0.748658 0.907137 0.598323 -0.63271
O_ O_ 0.711977 0.851025 0.54083 -0.57982
O_ O_ 0.855643 0.853078 0.602982 -0.63271
O_ O_ 0.890706 0.92333 0.59484 -0.57982
O_ O_ 0.48816 0.911991 0.606416 -0.63271
O_ O_ 0.958776 0.970069 0.666761 -0.57982
O_ O_ 0.595835 0.904925 0.651515 -0.63271
O_ O_ 0.632402 0.911706 0.578756 -0.57982
O_ O_ 0.757475 0.594411 0.899912 -0.63271
O_ O_ 0.791082 0.648427 0.961728 -0.57982
O_ O_ 0.643232 0.646539 0.897375 -0.63271
O_ O_ 0.617536 0.566783 0.90061 -0.57982
F_ F_ 0.945411 0.826428 0.933469 -0.20885
F_ F_ 0.925282 0.806544 0.849753 -0.20885
F_ F_ 0.875478 0.787541 0.90599 -0.20885
F_ F_ 0.81805 0.919347 0.818597 -0.20885
F_ F_ 0.819903 0.836812 0.825275 -0.20885
F_ F_ 0.88696 0.87131 0.795889 -0.20885
F_ F_ 0.565703 0.675746 0.55972 -0.20885
F_ F_ 0.566268 0.680332 0.645858 -0.20885
F_ F_ 0.629178 0.702011 0.606735 -0.20885
F_ F_ 0.678978 0.555994 0.661822 -0.20885
F_ F_ 0.669788 0.645057 0.67352 -0.20885
F_ F_ 0.606631 0.600058 0.691645 -0.20885
