_cell_length_a 26.508
_cell_length_b 26.37200000322088
_cell_length_c 26.311999743092066
_cell_angle_alpha 93.74100058972084
_cell_angle_beta 96.04100104955006
_cell_angle_gamma 83.6869992558723
_symmetry_space_group_name_H-M         'P 1'
_symmetry_Int_Tables_number            1
loop_
_symmetry_equiv_pos_as_xyz
   'x, y, z'
                         
loop_
_atom_site_label
_atom_site_type_symbol
_atom_site_fract_x 
_atom_site_fract_y
_atom_site_fract_z
_atom_site_charge
Zn Zn 0.0879073 0.0845435 0.351638 0.83971
Zn Zn 0.161127 0.350863 0.0799122 0.83971
Zn Zn 0.40891 0.417856 0.154991 0.83971
Zn Zn 0.342331 0.159552 0.413841 0.83971
H_ H_ 0.165584 0.134677 0.310381 0.10394
H_ H_ 0.241873 0.101638 0.260392 0.10394
H_ H_ 0.210334 0.445551 0.27295 0.10394
H_ H_ 0.1386 0.985374 0.329798 0.10394
H_ H_ 0.524715 0.0971974 0.254514 0.10394
H_ H_ 0.488389 0.171993 0.202304 0.10394
H_ H_ 0.0325983 0.266075 0.321134 0.10394
H_ H_ 0.0598811 0.195549 0.375287 0.10394
H_ H_ 0.0282897 0.445388 0.350566 0.10394
H_ H_ 0.491877 0.375413 0.378858 0.10394
H_ H_ 0.356287 0.484518 0.406439 0.10394
H_ H_ 0.0820998 0.297465 0.128967 0.10394
H_ H_ 0.498003 0.276418 0.0956609 0.10394
H_ H_ 0.0456214 0.271865 0.446925 0.10394
H_ H_ 0.112288 0.336264 0.982906 0.10394
H_ H_ 0.232734 0.260307 0.0966175 0.10394
H_ H_ 0.276825 0.214662 0.169403 0.10394
H_ H_ 0.192549 0.324922 0.267836 0.10394
H_ H_ 0.171331 0.374561 0.191025 0.10394
H_ H_ 0.223772 0.353414 0.450029 0.10394
H_ H_ 0.278141 0.365086 0.377948 0.10394
H_ H_ 0.402827 0.394362 0.49191 0.10394
H_ H_ 0.32111 0.388288 0.183195 0.10394
H_ H_ 0.242046 0.43981 0.19651 0.10394
H_ H_ 0.330706 0.0477417 0.275816 0.10394
H_ H_ 0.404249 0.515193 0.228892 0.10394
H_ H_ 0.0192307 0.375216 0.191057 0.10394
H_ H_ 0.0566491 0.298534 0.232435 0.10394
H_ H_ 0.419808 0.241955 0.212488 0.10394
H_ H_ 0.378816 0.325109 0.183383 0.10394
H_ H_ 0.471995 0.0570808 0.105125 0.10394
H_ H_ 0.0105553 0.112543 0.111997 0.10394
H_ H_ 0.14267 0.000694205 0.106083 0.10394
H_ H_ 0.44075 0.169273 0.39356 0.10394
H_ H_ 0.0179448 0.187307 0.450991 0.10394
H_ H_ 0.40995 0.277604 0.0444099 0.10394
H_ H_ 0.350855 0.234642 0.502036 0.10394
H_ H_ 0.232698 0.194037 0.382092 0.10394
H_ H_ 0.190816 0.224152 0.300056 0.10394
H_ H_ 0.338739 0.237935 0.249794 0.10394
H_ H_ 0.375918 0.189459 0.326217 0.10394
H_ H_ 0.283507 0.129123 0.0599588 0.10394
H_ H_ 0.229274 0.117228 0.128766 0.10394
H_ H_ 0.11128 0.0732493 0.0112665 0.10394
C_ C_ 0.17702 0.0951453 0.302316 0.18167
C_ C_ 0.221129 0.0769293 0.278226 -0.15533
C_ C_ 0.233543 0.0236706 0.270736 0.02923
C_ C_ 0.202966 0.486935 0.279839 -0.15533
C_ C_ 0.162145 0.0112237 0.313924 0.18167
C_ C_ 0.0212968 0.128433 0.268676 0.18167
C_ C_ 0.510778 0.177347 0.237421 -0.15533
C_ C_ 0.0103122 0.218512 0.255657 0.02923
C_ C_ 0.0317677 0.227259 0.305615 -0.15533
C_ C_ 0.0494992 0.185892 0.335665 0.18167
C_ C_ 0.0128357 0.0373903 0.37792 0.69207
C_ C_ 0.476639 0.505365 0.382779 0.02923
C_ C_ 0.500313 0.45397 0.379498 -0.15533
C_ C_ 0.473979 0.413508 0.389892 -0.15533
C_ C_ 0.42128 0.421854 0.40021 0.02923
C_ C_ 0.39843 0.473743 0.403226 -0.15533
C_ C_ 0.425914 0.515022 0.391621 0.02923
C_ C_ 0.40019 0.0770067 0.38019 0.69207
C_ C_ 0.412324 0.324183 0.384661 0.69661
C_ C_ 0.0716994 0.298625 0.0875625 0.18167
C_ C_ 0.0290856 0.276404 0.0666321 -0.15533
C_ C_ 0.0159255 0.27505 0.0128208 0.02923
C_ C_ 0.0528085 0.276282 0.486815 -0.15533
C_ C_ 0.0891078 0.320755 0.00520796 0.18167
C_ C_ 0.226034 0.272922 0.134294 0.18167
C_ C_ 0.249396 0.246542 0.174657 -0.15533
C_ C_ 0.234832 0.260773 0.225491 0.02923
C_ C_ 0.200508 0.306473 0.230672 -0.15533
C_ C_ 0.18558 0.336059 0.186952 0.18167
C_ C_ 0.242347 0.375825 0.0492535 0.69207
C_ C_ 0.282885 0.36789 0.509621 0.02923
C_ C_ 0.263771 0.364058 0.459513 -0.15533
C_ C_ 0.294821 0.368556 0.417052 -0.15533
C_ C_ 0.345315 0.379507 0.429474 0.02923
C_ C_ 0.363632 0.382625 0.482436 -0.15533
C_ C_ 0.333688 0.377928 0.523086 0.02923
C_ C_ 0.350915 0.395016 0.0707892 0.69207
C_ C_ 0.356082 0.38232 0.332595 0.69661
C_ C_ 0.321542 0.429373 0.195109 0.18167
C_ C_ 0.275886 0.457426 0.207206 -0.15533
C_ C_ 0.277374 0.501586 0.240118 0.02923
C_ C_ 0.323115 0.0168614 0.248989 -0.15533
C_ C_ 0.368381 0.498944 0.224502 0.18167
C_ C_ 0.500306 0.354678 0.199488 0.18167
C_ C_ 0.0182973 0.296387 0.211009 -0.15533
C_ C_ 0.494428 0.270402 0.228921 0.02923
C_ C_ 0.443955 0.273988 0.213019 -0.15533
C_ C_ 0.420136 0.321317 0.193348 0.18167
C_ C_ 0.490497 0.45049 0.124306 0.69207
C_ C_ 0.0203979 0.98337 0.124782 0.02923
C_ C_ 0.00359117 0.0373884 0.131138 -0.15533
C_ C_ 0.0293412 0.0746479 0.113781 -0.15533
C_ C_ 0.0831177 0.0624022 0.110758 0.02923
C_ C_ 0.101338 0.0103432 0.109291 -0.15533
C_ C_ 0.072313 0.971467 0.116707 0.02923
C_ C_ 0.0949277 0.425068 0.0963978 0.69207
C_ C_ 0.0938414 0.158992 0.111922 0.69661
C_ C_ 0.440155 0.185555 0.431396 0.18167
C_ C_ 0.48127 0.207596 0.45509 -0.15533
C_ C_ 0.475732 0.243737 0.498197 0.02923
C_ C_ 0.418895 0.256366 0.0104616 -0.15533
C_ C_ 0.38733 0.229304 0.489964 0.18167
C_ C_ 0.255705 0.197605 0.350685 0.18167
C_ C_ 0.233042 0.222632 0.308269 -0.15533
C_ C_ 0.260929 0.235041 0.270844 0.02923
C_ C_ 0.313797 0.226648 0.278587 -0.15533
C_ C_ 0.336347 0.197275 0.320248 0.18167
C_ C_ 0.267008 0.125089 0.458247 0.69207
C_ C_ 0.224622 0.118514 0.996775 0.02923
C_ C_ 0.244076 0.119581 0.0490555 -0.15533
C_ C_ 0.213026 0.110944 0.0879269 -0.15533
C_ C_ 0.159973 0.0995143 0.0745484 0.02923
C_ C_ 0.142838 0.0920405 0.0215899 -0.15533
C_ C_ 0.173155 0.103634 0.983881 0.02923
C_ C_ 0.152203 0.117987 0.429312 0.69207
C_ C_ 0.144189 0.100122 0.174488 0.69661
C_ C_ 0.383274 0.37871 0.388394 -0.30787
C_ C_ 0.12036 0.104377 0.118471 -0.30787
N_ N_ 0.147707 0.0625423 0.316155 -0.32189
N_ N_ 0.0456078 0.136872 0.316109 -0.32189
N_ N_ 0.104422 0.315324 0.0553818 -0.32189
N_ N_ 0.194393 0.317421 0.140723 -0.32189
N_ N_ 0.365291 0.45219 0.199556 -0.32189
N_ N_ 0.449318 0.360539 0.18535 -0.32189
N_ N_ 0.39341 0.196122 0.450131 -0.32189
N_ N_ 0.307266 0.188113 0.357234 -0.32189
O_ O_ 0.500985 0.0977563 0.386114 -0.63271
O_ O_ 0.0524166 0.0292179 0.350899 -0.57982
O_ O_ 0.401625 0.102078 0.339082 -0.63271
O_ O_ 0.373322 0.0992681 0.416467 -0.57982
O_ O_ 0.242107 0.398093 0.0964453 -0.63271
O_ O_ 0.207886 0.346011 0.0343248 -0.57982
O_ O_ 0.344986 0.355764 0.0984605 -0.63271
O_ O_ 0.382635 0.428198 0.0896348 -0.57982
O_ O_ 0.982504 0.40795 0.0936666 -0.63271
O_ O_ 0.455018 0.462737 0.155191 -0.57982
O_ O_ 0.0906163 0.399686 0.135803 -0.63271
O_ O_ 0.131797 0.411292 0.0651397 -0.57982
O_ O_ 0.262258 0.101864 0.414145 -0.63271
O_ O_ 0.30196 0.155862 0.465132 -0.57982
O_ O_ 0.153571 0.158232 0.404428 -0.63271
O_ O_ 0.118353 0.0863494 0.414593 -0.57982
F_ F_ 0.446929 0.316071 0.427078 -0.20885
F_ F_ 0.43607 0.310531 0.340512 -0.20885
F_ F_ 0.377561 0.288509 0.389105 -0.20885
F_ F_ 0.320487 0.425144 0.332442 -0.20885
F_ F_ 0.336911 0.338381 0.314159 -0.20885
F_ F_ 0.390083 0.395003 0.298714 -0.20885
F_ F_ 0.0660189 0.161696 0.0663296 -0.20885
F_ F_ 0.0634542 0.179551 0.149521 -0.20885
F_ F_ 0.12954 0.192849 0.110516 -0.20885
F_ F_ 0.180796 0.0577615 0.180747 -0.20885
F_ F_ 0.164945 0.143453 0.192256 -0.20885
F_ F_ 0.1068 0.0952715 0.206721 -0.20885
Zn Zn 0.0859687 0.0836979 0.850053 0.83971
Zn Zn 0.161779 0.339146 0.585277 0.83971
Zn Zn 0.414682 0.416277 0.659658 0.83971
Zn Zn 0.33495 0.154536 0.921826 0.83971
H_ H_ 0.168469 0.130468 0.805246 0.10394
H_ H_ 0.253297 0.0950386 0.772632 0.10394
H_ H_ 0.204859 0.447428 0.772289 0.10394
H_ H_ 0.119293 0.984128 0.812158 0.10394
H_ H_ 0.53186 0.099305 0.760548 0.10394
H_ H_ 0.480054 0.171342 0.713117 0.10394
H_ H_ 0.0250194 0.268055 0.832376 0.10394
H_ H_ 0.0649985 0.197658 0.880181 0.10394
H_ H_ 0.0218389 0.447061 0.845091 0.10394
H_ H_ 0.470986 0.383173 0.862147 0.10394
H_ H_ 0.348832 0.498368 0.908488 0.10394
H_ H_ 0.0704318 0.313708 0.630256 0.10394
H_ H_ 0.499898 0.281137 0.596986 0.10394
H_ H_ 0.0353997 0.303428 0.940999 0.10394
H_ H_ 0.124304 0.310231 0.484591 0.10394
H_ H_ 0.230841 0.248551 0.602786 0.10394
H_ H_ 0.267215 0.204177 0.682545 0.10394
H_ H_ 0.216901 0.339289 0.773508 0.10394
H_ H_ 0.180209 0.382193 0.691664 0.10394
H_ H_ 0.209834 0.397926 0.950564 0.10394
H_ H_ 0.261926 0.402463 0.879391 0.10394
H_ H_ 0.390468 0.428817 0.990501 0.10394
H_ H_ 0.314347 0.396387 0.664136 0.10394
H_ H_ 0.232081 0.444941 0.684407 0.10394
H_ H_ 0.325714 0.0380359 0.782329 0.10394
H_ H_ 0.401727 0.507295 0.733019 0.10394
H_ H_ 0.0168683 0.375988 0.69341 0.10394
H_ H_ 0.0536169 0.293577 0.731585 0.10394
H_ H_ 0.411388 0.248389 0.730607 0.10394
H_ H_ 0.372579 0.329071 0.701537 0.10394
H_ H_ 0.467546 0.0636445 0.635021 0.10394
H_ H_ 0.0201191 0.127732 0.615414 0.10394
H_ H_ 0.140027 0.00732456 0.596017 0.10394
H_ H_ 0.4343 0.167414 0.889105 0.10394
H_ H_ 0.0164075 0.188127 0.948765 0.10394
H_ H_ 0.417024 0.282659 0.544931 0.10394
H_ H_ 0.345453 0.224564 0.0107224 0.10394
H_ H_ 0.244395 0.208136 0.89603 0.10394
H_ H_ 0.193195 0.245264 0.817091 0.10394
H_ H_ 0.338255 0.230988 0.749877 0.10394
H_ H_ 0.374631 0.176288 0.817997 0.10394
H_ H_ 0.291341 0.121976 0.55567 0.10394
H_ H_ 0.238995 0.087301 0.617113 0.10394
H_ H_ 0.105978 0.100593 0.50921 0.10394
C_ C_ 0.17671 0.0893345 0.801029 0.18167
C_ C_ 0.223409 0.0694717 0.781979 -0.15533
C_ C_ 0.230153 0.0182549 0.768043 0.02923
C_ C_ 0.194938 0.490546 0.776678 -0.15533
C_ C_ 0.150003 0.00722471 0.802094 0.18167
C_ C_ 0.0191279 0.131236 0.777751 0.18167
C_ C_ 0.499019 0.177734 0.750492 -0.15533
C_ C_ 0.00576537 0.221618 0.765217 0.02923
C_ C_ 0.028877 0.230468 0.814748 -0.15533
C_ C_ 0.0523902 0.189827 0.841229 0.18167
C_ C_ 0.0130084 0.0398982 0.877423 0.69207
C_ C_ 0.468815 0.515409 0.868586 0.02923
C_ C_ 0.485513 0.461316 0.860706 -0.15533
C_ C_ 0.454334 0.423143 0.868275 -0.15533
C_ C_ 0.406793 0.433134 0.888279 0.02923
C_ C_ 0.388804 0.486655 0.896435 -0.15533
C_ C_ 0.417383 0.525726 0.882308 0.02923
C_ C_ 0.39115 0.0700804 0.886449 0.69207
C_ C_ 0.401089 0.337364 0.892643 0.69661
C_ C_ 0.0666123 0.302627 0.589243 0.18167
C_ C_ 0.0223385 0.279841 0.570922 -0.15533
C_ C_ 0.0160219 0.264959 0.518405 0.02923
C_ C_ 0.0484288 0.297331 0.982458 -0.15533
C_ C_ 0.0961068 0.299321 0.508422 0.18167
C_ C_ 0.222208 0.266062 0.640488 0.18167
C_ C_ 0.244795 0.241932 0.684647 -0.15533
C_ C_ 0.240444 0.267756 0.732491 0.02923
C_ C_ 0.215481 0.318089 0.737135 -0.15533
C_ C_ 0.195181 0.341772 0.693316 0.18167
C_ C_ 0.244385 0.364938 0.546762 0.69207
C_ C_ 0.271905 0.392736 0.00997311 0.02923
C_ C_ 0.250358 0.395233 0.957434 -0.15533
C_ C_ 0.281153 0.397463 0.916366 -0.15533
C_ C_ 0.333852 0.404006 0.929102 0.02923
C_ C_ 0.352769 0.414001 0.981152 -0.15533
C_ C_ 0.32399 0.404309 0.0207035 0.02923
C_ C_ 0.357966 0.373884 0.574905 0.69207
C_ C_ 0.345161 0.388388 0.833088 0.69661
C_ C_ 0.315639 0.432799 0.685805 0.18167
C_ C_ 0.270477 0.461777 0.697702 -0.15533
C_ C_ 0.274873 0.501213 0.73704 0.02923
C_ C_ 0.319433 0.017424 0.744769 -0.15533
C_ C_ 0.36617 0.494384 0.725818 0.18167
C_ C_ 0.495427 0.351838 0.702495 0.18167
C_ C_ 0.0128925 0.303517 0.722664 -0.15533
C_ C_ 0.486673 0.269919 0.736483 0.02923
C_ C_ 0.4353 0.276266 0.723927 -0.15533
C_ C_ 0.414049 0.322072 0.702796 0.18167
C_ C_ 0.484618 0.452182 0.621917 0.69207
C_ C_ 0.0188698 0.997448 0.611571 0.02923
C_ C_ -0.000715657 0.049706 0.611219 -0.15533
C_ C_ 0.0337271 0.0864288 0.61025 -0.15533
C_ C_ 0.0850864 0.0732183 0.601434 0.02923
C_ C_ 0.101811 0.0219865 0.59787 -0.15533
C_ C_ 0.0706561 0.984751 0.604091 0.02923
C_ C_ 0.105773 0.424758 0.622717 0.69207
C_ C_ 0.107444 0.170885 0.608107 0.69661
C_ C_ 0.43312 0.18636 0.927968 0.18167
C_ C_ 0.474758 0.212219 0.951849 -0.15533
C_ C_ 0.468737 0.245158 0.995069 0.02923
C_ C_ 0.42702 0.251775 0.515581 -0.15533
C_ C_ 0.379798 0.225804 0.988966 0.18167
C_ C_ 0.260012 0.204666 0.860694 0.18167
C_ C_ 0.234867 0.230602 0.816843 -0.15533
C_ C_ 0.262676 0.238963 0.777631 0.02923
C_ C_ 0.315206 0.224555 0.782765 -0.15533
C_ C_ 0.333816 0.189537 0.819118 0.18167
C_ C_ 0.26039 0.125476 0.959594 0.69207
C_ C_ 0.227343 0.122239 0.494302 0.02923
C_ C_ 0.248227 0.119769 0.546081 -0.15533
C_ C_ 0.221463 0.100206 0.581073 -0.15533
C_ C_ 0.166436 0.100505 0.56995 0.02923
C_ C_ 0.146746 0.105247 0.518945 -0.15533
C_ C_ 0.178473 0.113613 0.480458 0.02923
C_ C_ 0.148014 0.102519 0.929414 0.69207
C_ C_ 0.152412 0.105937 0.665101 0.69661
C_ C_ 0.371046 0.389937 0.888087 -0.30787
C_ C_ 0.126606 0.110859 0.609931 -0.30787
N_ N_ 0.142383 0.0587162 0.815111 -0.32189
N_ N_ 0.0460127 0.142147 0.822811 -0.32189
N_ N_ 0.104111 0.307124 0.559885 -0.32189
N_ N_ 0.199099 0.314859 0.64567 -0.32189
N_ N_ 0.362311 0.450048 0.69812 -0.32189
N_ N_ 0.444206 0.358955 0.694291 -0.32189
N_ N_ 0.387958 0.19329 0.949033 -0.32189
N_ N_ 0.306058 0.181814 0.858561 -0.32189
O_ O_ 0.501966 0.0868081 0.909069 -0.63271
O_ O_ 0.0497916 0.0296551 0.848244 -0.57982
O_ O_ 0.380034 0.0899075 0.842113 -0.63271
O_ O_ 0.363184 0.0879378 0.9232 -0.57982
O_ O_ 0.248732 0.387066 0.591752 -0.63271
O_ O_ 0.208698 0.334051 0.536873 -0.57982
O_ O_ 0.350882 0.332989 0.599287 -0.63271
O_ O_ 0.3809 0.411432 0.59888 -0.57982
O_ O_ 0.993918 0.412226 0.601157 -0.63271
O_ O_ 0.456249 0.465714 0.658271 -0.57982
O_ O_ 0.0957964 0.39935 0.66032 -0.63271
O_ O_ 0.139811 0.406504 0.593024 -0.57982
O_ O_ 0.259129 0.102046 0.914248 -0.63271
O_ O_ 0.29026 0.160748 0.968865 -0.57982
O_ O_ 0.151377 0.140234 0.899643 -0.63271
O_ O_ 0.112128 0.0751228 0.916166 -0.57982
F_ F_ 0.443354 0.340367 0.926876 -0.20885
F_ F_ 0.419527 0.31469 0.846894 -0.20885
F_ F_ 0.371015 0.302661 0.908911 -0.20885
F_ F_ 0.310714 0.43079 0.824161 -0.20885
F_ F_ 0.315888 0.347053 0.823493 -0.20885
F_ F_ 0.376807 0.387005 0.794269 -0.20885
F_ F_ 0.0819032 0.17808 0.561352 -0.20885
F_ F_ 0.0751259 0.188753 0.645678 -0.20885
F_ F_ 0.150899 0.198054 0.611253 -0.20885
F_ F_ 0.175538 0.0574132 0.666469 -0.20885
F_ F_ 0.185777 0.142835 0.674012 -0.20885
F_ F_ 0.118294 0.115158 0.70252 -0.20885
Zn Zn 0.0955471 0.578345 0.353385 0.83971
Zn Zn 0.15994 0.838965 0.0875263 0.83971
Zn Zn 0.406748 0.920373 0.149933 0.83971
Zn Zn 0.341122 0.655225 0.421935 0.83971
H_ H_ 0.17161 0.630179 0.315097 0.10394
H_ H_ 0.251018 0.603682 0.276751 0.10394
H_ H_ 0.222515 0.951648 0.293539 0.10394
H_ H_ 0.136753 0.481552 0.321269 0.10394
H_ H_ 0.528667 0.608208 0.256286 0.10394
H_ H_ 0.494373 0.678933 0.205006 0.10394
H_ H_ 0.0450416 0.762146 0.339982 0.10394
H_ H_ 0.0773016 0.689039 0.385265 0.10394
H_ H_ 0.0280949 0.942508 0.36805 0.10394
H_ H_ 0.478534 0.883808 0.369376 0.10394
H_ H_ 0.353349 0.996116 0.392938 0.10394
H_ H_ 0.0733888 0.795179 0.13383 0.10394
H_ H_ 0.505965 0.761986 0.102668 0.10394
H_ H_ 0.036162 0.782576 0.453138 0.10394
H_ H_ 0.118244 0.804125 0.98417 0.10394
H_ H_ 0.227951 0.741459 0.0976977 0.10394
H_ H_ 0.273612 0.698165 0.175539 0.10394
H_ H_ 0.223304 0.826165 0.264834 0.10394
H_ H_ 0.178043 0.871009 0.194432 0.10394
H_ H_ 0.213981 0.871319 0.431418 0.10394
H_ H_ 0.265963 0.889178 0.37117 0.10394
H_ H_ 0.394354 0.912674 0.479052 0.10394
H_ H_ 0.304989 0.90361 0.161064 0.10394
H_ H_ 0.227057 0.950347 0.192304 0.10394
H_ H_ 0.32909 0.555074 0.272691 0.10394
H_ H_ 0.400229 0.00639361 0.227334 0.10394
H_ H_ 0.00917021 0.879798 0.204157 0.10394
H_ H_ 0.0571284 0.798392 0.23771 0.10394
H_ H_ 0.419546 0.754907 0.224331 0.10394
H_ H_ 0.375715 0.825071 0.180191 0.10394
H_ H_ 0.46104 0.54976 0.114457 0.10394
H_ H_ 0.014912 0.618421 0.104462 0.10394
H_ H_ 0.129363 0.503748 0.0578304 0.10394
H_ H_ 0.452812 0.65809 0.409687 0.10394
H_ H_ 0.0160164 0.686163 0.450748 0.10394
H_ H_ 0.410118 0.788999 0.0466408 0.10394
H_ H_ 0.343454 0.742759 0.496335 0.10394
H_ H_ 0.235319 0.69694 0.385004 0.10394
H_ H_ 0.196628 0.721662 0.300821 0.10394
H_ H_ 0.343518 0.742075 0.258531 0.10394
H_ H_ 0.383165 0.707142 0.345802 0.10394
H_ H_ 0.281509 0.612943 0.0474422 0.10394
H_ H_ 0.236337 0.585659 0.110036 0.10394
H_ H_ 0.105839 0.579427 0.00336101 0.10394
C_ C_ 0.179349 0.590366 0.30114 0.18167
C_ C_ 0.222248 0.575365 0.277892 -0.15533
C_ C_ 0.234267 0.521867 0.266404 0.02923
C_ C_ 0.207403 0.992663 0.294245 -0.15533
C_ C_ 0.162432 0.505762 0.309315 0.18167
C_ C_ 0.0362229 0.626503 0.275598 0.18167
C_ C_ 0.514702 0.68866 0.243275 -0.15533
C_ C_ 0.0175331 0.717705 0.266665 0.02923
C_ C_ 0.0431549 0.725503 0.317986 -0.15533
C_ C_ 0.0655514 0.682643 0.344866 0.18167
C_ C_ 0.0097501 0.545965 0.370175 0.69207
C_ C_ 0.475546 0.0121075 0.372832 0.02923
C_ C_ 0.49355 0.96013 0.368138 -0.15533
C_ C_ 0.463188 0.922515 0.378737 -0.15533
C_ C_ 0.412218 0.933704 0.388066 0.02923
C_ C_ 0.39463 0.986215 0.391994 -0.15533
C_ C_ 0.425583 0.0254397 0.385403 0.02923
C_ C_ 0.394714 0.566871 0.387325 0.69207
C_ C_ 0.398717 0.838338 0.382484 0.69661
C_ C_ 0.064322 0.795084 0.0928642 0.18167
C_ C_ 0.0165744 0.781511 0.0749217 -0.15533
C_ C_ 0.00583585 0.770314 0.0214225 0.02923
C_ C_ 0.0494181 0.783431 0.492815 -0.15533
C_ C_ 0.0872606 0.800778 0.00876331 0.18167
C_ C_ 0.223915 0.759112 0.135477 0.18167
C_ C_ 0.248937 0.734526 0.178502 -0.15533
C_ C_ 0.24813 0.757223 0.226134 0.02923
C_ C_ 0.22431 0.808596 0.230101 -0.15533
C_ C_ 0.198872 0.832357 0.187832 0.18167
C_ C_ 0.236267 0.863441 0.044108 0.69207
C_ C_ 0.271666 0.881353 0.497038 0.02923
C_ C_ 0.25277 0.882248 0.446565 -0.15533
C_ C_ 0.283852 0.891373 0.40955 -0.15533
C_ C_ 0.334562 0.901454 0.420291 0.02923
C_ C_ 0.352818 0.907113 0.471477 -0.15533
C_ C_ 0.322132 0.897265 0.509706 0.02923
C_ C_ 0.34513 0.89329 0.0701421 0.69207
C_ C_ 0.345093 0.901594 0.324578 0.69661
C_ C_ 0.307291 0.938906 0.178199 0.18167
C_ C_ 0.264504 0.964186 0.202114 -0.15533
C_ C_ 0.272317 1.00452239 0.236449 0.02923
C_ C_ 0.325046 0.52078 0.249004 -0.15533
C_ C_ 0.361752 0.993531 0.222035 0.18167
C_ C_ 0.49041 0.868072 0.207285 0.18167
C_ C_ 0.0155044 0.801734 0.227937 -0.15533
C_ C_ 0.492458 0.783632 0.237262 0.02923
C_ C_ 0.441918 0.783544 0.220838 -0.15533
C_ C_ 0.416876 0.825429 0.193773 0.18167
C_ C_ 0.489505 0.954296 0.108321 0.69207
C_ C_ 0.0173175 0.490358 0.107679 0.02923
C_ C_ -0.000600724 0.543209 0.111678 -0.15533
C_ C_ 0.0329354 0.581517 0.106951 -0.15533
C_ C_ 0.0838751 0.566089 0.097193 0.02923
C_ C_ 0.0974068 0.515268 0.0830315 -0.15533
C_ C_ 0.0669806 0.476875 0.0924777 0.02923
C_ C_ 0.0946991 0.919759 0.115915 0.69207
C_ C_ 0.100626 0.661358 0.103224 0.69661
C_ C_ 0.442436 0.678825 0.443966 0.18167
C_ C_ 0.480617 0.70724 0.467398 -0.15533
C_ C_ 0.467507 0.74992 0.503125 0.02923
C_ C_ 0.419297 0.755346 0.0198026 -0.15533
C_ C_ 0.382136 0.732115 0.487129 0.18167
C_ C_ 0.261733 0.696975 0.355603 0.18167
C_ C_ 0.23954 0.715703 0.308886 -0.15533
C_ C_ 0.268991 0.727728 0.271829 0.02923
C_ C_ 0.321106 0.724596 0.284275 -0.15533
C_ C_ 0.344056 0.703671 0.331267 0.18167
C_ C_ 0.264277 0.624288 0.455774 0.69207
C_ C_ 0.220975 0.61852 0.988244 0.02923
C_ C_ 0.240796 0.613728 0.0388214 -0.15533
C_ C_ 0.213099 0.601762 0.0749156 -0.15533
C_ C_ 0.160182 0.596061 0.0631994 0.02923
C_ C_ 0.141051 0.594475 0.0130535 -0.15533
C_ C_ 0.168538 0.611543 0.976127 0.02923
C_ C_ 0.157934 0.602361 0.431506 0.69207
C_ C_ 0.148985 0.593478 0.159139 0.69661
C_ C_ 0.371765 0.893729 0.379785 -0.30787
C_ C_ 0.122626 0.604397 0.104472 -0.30787
N_ N_ 0.148225 0.556019 0.31172 -0.32189
N_ N_ 0.0628429 0.635355 0.32313 -0.32189
N_ N_ 0.0954125 0.809972 0.061884 -0.32189
N_ N_ 0.193401 0.804455 0.143255 -0.32189
N_ N_ 0.352181 0.955771 0.185236 -0.32189
N_ N_ 0.441236 0.865435 0.186326 -0.32189
N_ N_ 0.392789 0.694585 0.451386 -0.32189
N_ N_ 0.313032 0.691699 0.366378 -0.32189
O_ O_ 0.506441 0.591962 0.395954 -0.63271
O_ O_ 0.0478303 0.536478 0.343203 -0.57982
O_ O_ 0.396456 0.59475 0.346349 -0.63271
O_ O_ 0.369194 0.587795 0.424071 -0.57982
O_ O_ 0.243331 0.884502 0.0913271 -0.63271
O_ O_ 0.200211 0.835015 0.0338995 -0.57982
O_ O_ 0.355338 0.852633 0.0965427 -0.63271
O_ O_ 0.373795 0.927544 0.0862323 -0.57982
O_ O_ 0.987377 0.89974 0.106144 -0.63271
O_ O_ 0.459091 0.964675 0.145081 -0.57982
O_ O_ 0.0902288 0.894255 0.155754 -0.63271
O_ O_ 0.135405 0.90662 0.0917054 -0.57982
O_ O_ 0.259121 0.608682 0.408821 -0.63271
O_ O_ 0.29535 0.657367 0.469414 -0.57982
O_ O_ 0.154316 0.645096 0.407971 -0.63271
O_ O_ 0.124179 0.570517 0.417292 -0.57982
F_ F_ 0.432402 0.832703 0.427488 -0.20885
F_ F_ 0.427497 0.822083 0.342814 -0.20885
F_ F_ 0.363669 0.803159 0.385052 -0.20885
F_ F_ 0.312133 0.946553 0.327027 -0.20885
F_ F_ 0.324479 0.856985 0.3059 -0.20885
F_ F_ 0.379353 0.902785 0.28932 -0.20885
F_ F_ 0.0707685 0.674787 0.0594691 -0.20885
F_ F_ 0.0741986 0.675725 0.144735 -0.20885
F_ F_ 0.139439 0.694131 0.111539 -0.20885
F_ F_ 0.175428 0.54455 0.159496 -0.20885
F_ F_ 0.185813 0.627624 0.175284 -0.20885
F_ F_ 0.121313 0.598363 0.201 -0.20885
Zn Zn 0.082658 0.587829 0.841252 0.83971
Zn Zn 0.159577 0.854581 0.58154 0.83971
Zn Zn 0.409777 0.921146 0.649523 0.83971
Zn Zn 0.335014 0.661221 0.917393 0.83971
H_ H_ 0.168779 0.635125 0.804096 0.10394
H_ H_ 0.249216 0.598741 0.772553 0.10394
H_ H_ 0.205316 0.94546 0.783265 0.10394
H_ H_ 0.125283 0.486887 0.807399 0.10394
H_ H_ 0.525323 0.602296 0.746315 0.10394
H_ H_ 0.488072 0.671749 0.697746 0.10394
H_ H_ 0.0278418 0.772613 0.836532 0.10394
H_ H_ 0.056757 0.690894 0.877791 0.10394
H_ H_ 0.0409698 0.93825 0.885703 0.10394
H_ H_ 0.472596 0.877321 0.874527 0.10394
H_ H_ 0.346038 0.987131 0.90268 0.10394
H_ H_ 0.088083 0.806061 0.634833 0.10394
H_ H_ 0.507207 0.755334 0.60043 0.10394
H_ H_ 0.032598 0.772291 0.947665 0.10394
H_ H_ 0.122817 0.809047 0.483115 0.10394
H_ H_ 0.218174 0.757668 0.595706 0.10394
H_ H_ 0.254052 0.712255 0.672769 0.10394
H_ H_ 0.21215 0.843026 0.770086 0.10394
H_ H_ 0.176684 0.887412 0.690707 0.10394
H_ H_ 0.214082 0.857074 0.943201 0.10394
H_ H_ 0.257016 0.881894 0.873021 0.10394
H_ H_ 0.382536 0.915194 0.986345 0.10394
H_ H_ 0.302603 0.900911 0.653879 0.10394
H_ H_ 0.225497 0.955703 0.686863 0.10394
H_ H_ 0.330581 0.55207 0.773625 0.10394
H_ H_ 0.398011 0.00762626 0.727194 0.10394
H_ H_ 0.00251796 0.892644 0.709314 0.10394
H_ H_ 0.0445077 0.816492 0.749198 0.10394
H_ H_ 0.408985 0.748238 0.707437 0.10394
H_ H_ 0.369391 0.831047 0.672343 0.10394
H_ H_ 0.460607 0.555081 0.620207 0.10394
H_ H_ 0.0196984 0.611917 0.583223 0.10394
H_ H_ 0.141942 0.49999 0.577326 0.10394
H_ H_ 0.438057 0.674341 0.898785 0.10394
H_ H_ 0.0142439 0.672068 0.978441 0.10394
H_ H_ 0.40826 0.78529 0.548243 0.10394
H_ H_ 0.340319 0.74011 0.00261074 0.10394
H_ H_ 0.237625 0.699193 0.878637 0.10394
H_ H_ 0.196008 0.742971 0.804554 0.10394
H_ H_ 0.343035 0.744721 0.750688 0.10394
H_ H_ 0.382662 0.697417 0.820477 0.10394
H_ H_ 0.29264 0.616041 0.561019 0.10394
H_ H_ 0.24081 0.598461 0.622574 0.10394
H_ H_ 0.114311 0.590223 0.512416 0.10394
C_ C_ 0.17642 0.594403 0.798622 0.18167
C_ C_ 0.222773 0.573668 0.779666 -0.15533
C_ C_ 0.229643 0.523124 0.763081 0.02923
C_ C_ 0.19517 0.987824 0.78033 -0.15533
C_ C_ 0.14922 0.511655 0.795443 0.18167
C_ C_ 0.0258735 0.642311 0.762505 0.18167
C_ C_ 0.496147 0.679039 0.739123 -0.15533
C_ C_ 0.00333876 0.733934 0.766147 0.02923
C_ C_ 0.0273986 0.737231 0.814143 -0.15533
C_ C_ 0.0449153 0.692822 0.837079 0.18167
C_ C_ -0.0018049999999999455 0.54475 0.860166 0.69207
C_ C_ 0.466725 0.00707862 0.882599 0.02923
C_ C_ 0.48614 0.954929 0.87468 -0.15533
C_ C_ 0.45557 0.916085 0.880544 -0.15533
C_ C_ 0.404057 0.928219 0.889006 0.02923
C_ C_ 0.385196 0.978565 0.896231 -0.15533
C_ C_ 0.415576 0.0184242 0.889944 0.02923
C_ C_ 0.39449 0.577802 0.884653 0.69207
C_ C_ 0.391588 0.831694 0.88585 0.69661
C_ C_ 0.073463 0.805778 0.593623 0.18167
C_ C_ 0.0282035 0.781893 0.578827 -0.15533
C_ C_ 0.0159261 0.768405 0.525742 0.02923
C_ C_ 0.0427399 0.779062 0.988644 -0.15533
C_ C_ 0.095703 0.801128 0.510036 0.18167
C_ C_ 0.216877 0.776866 0.633105 0.18167
C_ C_ 0.238385 0.75143 0.676244 -0.15533
C_ C_ 0.243382 0.773338 0.726336 0.02923
C_ C_ 0.216947 0.822861 0.731201 -0.15533
C_ C_ 0.193783 0.848025 0.687862 0.18167
C_ C_ 0.236885 0.875693 0.537718 0.69207
C_ C_ 0.268684 0.874042 0.00526072 0.02923
C_ C_ 0.249239 0.873976 0.953156 -0.15533
C_ C_ 0.2754 0.886387 0.914274 -0.15533
C_ C_ 0.327287 0.893149 0.92516 0.02923
C_ C_ 0.346601 0.898136 0.9754 -0.15533
C_ C_ 0.319323 0.889893 0.0164243 0.02923
C_ C_ 0.350125 0.889039 0.560441 0.69207
C_ C_ 0.346357 0.890819 0.824701 0.69661
C_ C_ 0.308274 0.933086 0.679508 0.18167
C_ C_ 0.26583 0.961827 0.69981 -0.15533
C_ C_ 0.273932 0.99782471 0.739255 0.02923
C_ C_ 0.323703 0.51849 0.748514 -0.15533
C_ C_ 0.361835 0.99418 0.719208 0.18167
C_ C_ 0.488936 0.856241 0.698614 0.18167
C_ C_ 0.00435281 0.821081 0.740731 -0.15533
C_ C_ 0.480409 0.774993 0.729668 0.02923
C_ C_ 0.431264 0.777782 0.702427 -0.15533
C_ C_ 0.41 0.823655 0.681728 0.18167
C_ C_ 0.486389 0.962039 0.626336 0.69207
C_ C_ 0.027489 0.491941 0.627105 0.02923
C_ C_ 1.00878087 0.54344 0.61949 -0.15533
C_ C_ 0.0392403 0.57835 0.603243 -0.15533
C_ C_ 0.0913072 0.564373 0.599512 0.02923
C_ C_ 0.107105 0.512888 0.594308 -0.15533
C_ C_ 0.0784308 0.475849 0.612858 0.02923
C_ C_ 0.0936825 0.929942 0.604814 0.69207
C_ C_ 0.106341 0.659955 0.611102 0.69661
C_ C_ 0.434945 0.686688 0.937581 0.18167
C_ C_ 0.476971 0.710997 0.963306 -0.15533
C_ C_ 0.468276 0.748401 0.00192461 0.02923
C_ C_ 0.418909 0.759589 0.51441 -0.15533
C_ C_ 0.377955 0.730773 0.992645 0.18167
C_ C_ 0.260444 0.710443 0.850895 0.18167
C_ C_ 0.236601 0.733913 0.807464 -0.15533
C_ C_ 0.265785 0.746306 0.770428 0.02923
C_ C_ 0.319342 0.738462 0.77885 -0.15533
C_ C_ 0.341098 0.70898 0.818781 0.18167
C_ C_ 0.254417 0.625194 0.949022 0.69207
C_ C_ 0.233344 0.610236 0.495753 0.02923
C_ C_ 0.25248 0.615059 0.547955 -0.15533
C_ C_ 0.22115 0.607074 0.58577 -0.15533
C_ C_ 0.168819 0.600161 0.573358 0.02923
C_ C_ 0.15264 0.595686 0.522674 -0.15533
C_ C_ 0.183224 0.601864 0.485116 0.02923
C_ C_ 0.140679 0.617049 0.924727 0.69207
C_ C_ 0.149565 0.595656 0.6688 0.69661
C_ C_ 0.36615 0.88736 0.882377 -0.30787
C_ C_ 0.128883 0.605276 0.613479 -0.30787
N_ N_ 0.13957 0.563295 0.804223 -0.32189
N_ N_ 0.0483216 0.645299 0.810594 -0.32189
N_ N_ 0.105815 0.814276 0.559951 -0.32189
N_ N_ 0.193662 0.824834 0.640458 -0.32189
N_ N_ 0.353523 0.951497 0.687149 -0.32189
N_ N_ 0.440714 0.859554 0.676821 -0.32189
N_ N_ 0.38728 0.698702 0.951153 -0.32189
N_ N_ 0.310749 0.697271 0.855765 -0.32189
O_ O_ 0.494981 0.600651 0.875844 -0.63271
O_ O_ 0.0434057 0.534006 0.841504 -0.57982
O_ O_ 0.383459 0.60208 0.841174 -0.63271
O_ O_ 0.370333 0.597502 0.925485 -0.57982
O_ O_ 0.238413 0.903536 0.581551 -0.63271
O_ O_ 0.201032 0.845972 0.53125 -0.57982
O_ O_ 0.34722 0.84663 0.583816 -0.63271
O_ O_ 0.379892 0.923006 0.584174 -0.57982
O_ O_ 0.990661 0.909333 0.604851 -0.63271
O_ O_ 0.456068 0.966248 0.661305 -0.57982
O_ O_ 0.0880005 0.904238 0.64505 -0.63271
O_ O_ 0.124849 0.913355 0.57229 -0.57982
O_ O_ 0.253867 0.598644 0.904116 -0.63271
O_ O_ 0.286793 0.658407 0.960687 -0.57982
O_ O_ 0.144774 0.658943 0.900298 -0.63271
O_ O_ 0.105556 0.588635 0.90856 -0.57982
F_ F_ 0.420029 0.833814 0.932473 -0.20885
F_ F_ 0.422384 0.81178 0.84956 -0.20885
F_ F_ 0.357818 0.796862 0.887563 -0.20885
F_ F_ 0.313366 0.934349 0.821361 -0.20885
F_ F_ 0.314764 0.854089 0.80512 -0.20885
F_ F_ 0.385418 0.887269 0.793514 -0.20885
F_ F_ 0.0814184 0.675728 0.565642 -0.20885
F_ F_ 0.0703546 0.67287 0.646308 -0.20885
F_ F_ 0.142955 0.694207 0.62379 -0.20885
F_ F_ 0.179062 0.547836 0.670753 -0.20885
F_ F_ 0.180321 0.632267 0.690399 -0.20885
F_ F_ 0.112517 0.6004 0.704087 -0.20885
Zn Zn 0.592464 0.0886932 0.346004 0.83971
Zn Zn 0.66014 0.341714 0.0867316 0.83971
Zn Zn 0.907913 0.412588 0.151153 0.83971
Zn Zn 0.836482 0.154676 0.418491 0.83971
H_ H_ 0.675808 0.128658 0.308172 0.10394
H_ H_ 0.75611 0.0919804 0.26646 0.10394
H_ H_ 0.710762 0.445103 0.292409 0.10394
H_ H_ 0.631576 0.981806 0.321262 0.10394
H_ H_ 0.0207628 0.0878122 0.250376 0.10394
H_ H_ 0.980099 0.164242 0.205352 0.10394
H_ H_ 0.543323 0.273475 0.323048 0.10394
H_ H_ 0.588917 0.198469 0.367958 0.10394
H_ H_ 0.539356 0.447834 0.369418 0.10394
H_ H_ 0.985185 0.380326 0.376987 0.10394
H_ H_ 0.860973 0.492927 0.41144 0.10394
H_ H_ 0.580606 0.295882 0.131578 0.10394
H_ H_ 1.00368415 0.262375 0.091039 0.10394
H_ H_ 0.541413 0.285093 0.444725 0.10394
H_ H_ 0.620845 0.321602 0.983817 0.10394
H_ H_ 0.713468 0.244062 0.0935463 0.10394
H_ H_ 0.760273 0.198059 0.169481 0.10394
H_ H_ 0.721544 0.327059 0.269171 0.10394
H_ H_ 0.674392 0.368699 0.201707 0.10394
H_ H_ 0.713454 0.368813 0.43582 0.10394
H_ H_ 0.769883 0.374071 0.370543 0.10394
H_ H_ 0.893623 0.399048 0.484213 0.10394
H_ H_ 0.807465 0.383123 0.168421 0.10394
H_ H_ 0.730369 0.433963 0.196219 0.10394
H_ H_ 0.840266 0.0286417 0.289723 0.10394
H_ H_ 0.891402 0.509466 0.209313 0.10394
H_ H_ 0.521785 0.387845 0.20505 0.10394
H_ H_ 0.560371 0.307816 0.238436 0.10394
H_ H_ 0.912768 0.241756 0.22014 0.10394
H_ H_ 0.873403 0.318262 0.183519 0.10394
H_ H_ 0.964936 0.049438 0.141494 0.10394
H_ H_ 0.529432 0.121734 0.111184 0.10394
H_ H_ 0.656824 0.000220000000000109 0.0963385 0.10394
H_ H_ 0.944608 0.160919 0.396387 0.10394
H_ H_ 0.518373 0.196482 0.441924 0.10394
H_ H_ 0.917029 0.288538 0.0298501 0.10394
H_ H_ 0.84361 0.241365 0.495679 0.10394
H_ H_ 0.736319 0.201448 0.383007 0.10394
H_ H_ 0.699308 0.233061 0.302541 0.10394
H_ H_ 0.845937 0.21461 0.244866 0.10394
H_ H_ 0.884542 0.188882 0.329075 0.10394
H_ H_ 0.797173 0.103791 0.0450895 0.10394
H_ H_ 0.743868 0.093488 0.115089 0.10394
H_ H_ 0.613753 0.0951841 0.00852285 0.10394
C_ C_ 0.682535 0.0886072 0.29917 0.18167
C_ C_ 0.72779 0.0676971 0.277323 -0.15533
C_ C_ 0.735745 0.0133599 0.268915 0.02923
C_ C_ 0.698826 0.48568 0.290557 -0.15533
C_ C_ 0.652567 0.00721897 0.301012 0.18167
C_ C_ 0.527669 0.13634 0.269907 0.18167
C_ C_ 0.0022899999999999032 0.168659 0.238477 -0.15533
C_ C_ 0.51945 0.226668 0.255219 0.02923
C_ C_ 0.54244 0.233724 0.305068 -0.15533
C_ C_ 0.563334 0.192225 0.332378 0.18167
C_ C_ 0.511342 0.051411 0.36783 0.69207
C_ C_ 0.973062 0.507412 0.372427 0.02923
C_ C_ 0.991066 0.455713 0.361896 -0.15533
C_ C_ 0.964172 0.417054 0.375649 -0.15533
C_ C_ 0.913491 0.426198 0.387669 0.02923
C_ C_ 0.895177 0.478367 0.3963 -0.15533
C_ C_ 0.921644 0.517611 0.385037 0.02923
C_ C_ 0.898286 0.0706502 0.383197 0.69207
C_ C_ 0.907051 0.32815 0.384812 0.69661
C_ C_ 0.573184 0.292428 0.0905032 0.18167
C_ C_ 0.525194 0.278773 0.0700662 -0.15533
C_ C_ 0.512757 0.275077 0.0180294 0.02923
C_ C_ 0.55027 0.28892 0.486166 -0.15533
C_ C_ 0.592611 0.308624 0.00825602 0.18167
C_ C_ 0.719758 0.265195 0.133078 0.18167
C_ C_ 0.743134 0.236348 0.173208 -0.15533
C_ C_ 0.743862 0.258267 0.225788 0.02923
C_ C_ 0.727503 0.311119 0.232288 -0.15533
C_ C_ 0.699966 0.33592 0.19179 0.18167
C_ C_ 0.741383 0.359869 0.0483306 0.69207
C_ C_ 0.771255 0.372568 0.498524 0.02923
C_ C_ 0.753543 0.372084 0.447675 -0.15533
C_ C_ 0.787517 0.376322 0.409584 -0.15533
C_ C_ 0.838623 0.385583 0.422048 0.02923
C_ C_ 0.854927 0.391757 0.474788 -0.15533
C_ C_ 0.822796 0.383231 0.513817 0.02923
C_ C_ 0.851207 0.374746 0.0680152 0.69207
C_ C_ 0.853623 0.384312 0.327303 0.69661
C_ C_ 0.811472 0.419842 0.187266 0.18167
C_ C_ 0.766125 0.451107 0.203211 -0.15533
C_ C_ 0.772193 0.494993 0.236246 0.02923
C_ C_ 0.831257 0.00221555 0.256964 -0.15533
C_ C_ 0.859114 0.490334 0.212803 0.18167
C_ C_ 0.99578 0.342839 0.191611 0.18167
C_ C_ 0.521109 0.312222 0.222844 -0.15533
C_ C_ 0.988862 0.261476 0.223979 0.02923
C_ C_ 0.936494 0.270262 0.214379 -0.15533
C_ C_ 0.91431 0.314362 0.192297 0.18167
C_ C_ 0.980388 0.454497 0.116725 0.69207
C_ C_ 0.528179 0.989462 0.103001 0.02923
C_ C_ 0.51166 0.0443198 0.107542 -0.15533
C_ C_ 0.545472 0.0811331 0.103583 -0.15533
C_ C_ 0.598248 0.0657798 0.100551 0.02923
C_ C_ 0.614306 0.0121755 0.0943334 -0.15533
C_ C_ 0.580786 0.975864 0.0981153 0.02923
C_ C_ 0.598476 0.423542 0.109256 0.69207
C_ C_ 0.61455 0.161384 0.107769 0.69661
C_ C_ 0.937733 0.18279 0.431261 0.18167
C_ C_ 0.97911 0.202373 0.459115 -0.15533
C_ C_ 0.970597 0.238285 0.499481 0.02923
C_ C_ 0.924058 0.261821 0.00109656 -0.15533
C_ C_ 0.881694 0.230133 0.48789 0.18167
C_ C_ 0.761472 0.200609 0.354188 0.18167
C_ C_ 0.737862 0.217087 0.305033 -0.15533
C_ C_ 0.768281 0.226287 0.268046 0.02923
C_ C_ 0.821959 0.213128 0.275123 -0.15533
C_ C_ 0.842601 0.194167 0.32269 0.18167
C_ C_ 0.765186 0.130979 0.456762 0.69207
C_ C_ 0.732784 0.112625 0.987445 0.02923
C_ C_ 0.755889 0.105124 0.0371224 -0.15533
C_ C_ 0.725918 0.0947503 0.0763534 -0.15533
C_ C_ 0.672757 0.095973 0.0671686 0.02923
C_ C_ 0.653251 0.0931002 0.0160596 -0.15533
C_ C_ 0.681036 0.104078 0.976932 0.02923
C_ C_ 0.653509 0.121141 0.429556 0.69207
C_ C_ 0.665515 0.0983334 0.162593 0.69661
C_ C_ 0.877824 0.38312 0.382412 -0.30787
C_ C_ 0.637214 0.104649 0.109793 -0.30787
N_ N_ 0.647646 0.0577847 0.30992 -0.32189
N_ N_ 0.557333 0.144109 0.313875 -0.32189
N_ N_ 0.604842 0.308084 0.058977 -0.32189
N_ N_ 0.69612 0.312425 0.143713 -0.32189
N_ N_ 0.857769 0.440754 0.19338 -0.32189
N_ N_ 0.942812 0.35017 0.178105 -0.32189
N_ N_ 0.890844 0.192507 0.448868 -0.32189
N_ N_ 0.813018 0.186819 0.360561 -0.32189
O_ O_ 0.00279686 0.0858176 0.393701 -0.63271
O_ O_ 0.548741 0.0414986 0.338139 -0.57982
O_ O_ 0.89177 0.0966747 0.340988 -0.63271
O_ O_ 0.872033 0.091458 0.422354 -0.57982
O_ O_ 0.743716 0.387338 0.0912934 -0.63271
O_ O_ 0.70191 0.332609 0.0373235 -0.57982
O_ O_ 0.857168 0.330919 0.0906528 -0.63271
O_ O_ 0.866176 0.415831 0.0928446 -0.57982
O_ O_ 0.48793 0.409359 0.0950124 -0.63271
O_ O_ 0.948438 0.4657 0.149367 -0.57982
O_ O_ 0.594496 0.398679 0.150181 -0.63271
O_ O_ 0.629363 0.405277 0.0750211 -0.57982
O_ O_ 0.763421 0.103454 0.41243 -0.63271
O_ O_ 0.792529 0.167915 0.462467 -0.57982
O_ O_ 0.668542 0.153372 0.400399 -0.63271
O_ O_ 0.611892 0.0999575 0.414228 -0.57982
F_ F_ 0.937006 0.327692 0.430224 -0.20885
F_ F_ 0.931571 0.309407 0.342942 -0.20885
F_ F_ 0.873216 0.29399 0.388716 -0.20885
F_ F_ 0.820035 0.427238 0.325787 -0.20885
F_ F_ 0.827648 0.344329 0.312583 -0.20885
F_ F_ 0.886756 0.385537 0.288117 -0.20885
F_ F_ 0.579326 0.165245 0.0639217 -0.20885
F_ F_ 0.587662 0.184413 0.146012 -0.20885
F_ F_ 0.650184 0.1949 0.104592 -0.20885
F_ F_ 0.695545 0.0508758 0.164554 -0.20885
F_ F_ 0.697709 0.135604 0.178553 -0.20885
F_ F_ 0.632859 0.100391 0.200672 -0.20885
Zn Zn 0.58471 0.0885733 0.852689 0.83971
Zn Zn 0.661609 0.343792 0.580612 0.83971
Zn Zn 0.908623 0.4151 0.653013 0.83971
Zn Zn 0.845101 0.152202 0.908815 0.83971
H_ H_ 0.656783 0.141434 0.799338 0.10394
H_ H_ 0.734436 0.111036 0.758482 0.10394
H_ H_ 0.713508 0.447097 0.786783 0.10394
H_ H_ 0.627314 0.993551 0.830064 0.10394
H_ H_ 0.0223364 0.0945128 0.760217 0.10394
H_ H_ 0.978588 0.166234 0.711322 0.10394
H_ H_ 0.546812 0.271702 0.832064 0.10394
H_ H_ 0.577924 0.196737 0.877396 0.10394
H_ H_ 0.520486 0.449219 0.845988 0.10394
H_ H_ 0.967693 0.378403 0.853289 0.10394
H_ H_ 0.843698 0.484179 0.899151 0.10394
H_ H_ 0.583609 0.300393 0.63073 0.10394
H_ H_ -0.004136999999999946 0.273667 0.598184 0.10394
H_ H_ 0.534714 0.292806 0.943957 0.10394
H_ H_ 0.625218 0.312869 0.48204 0.10394
H_ H_ 0.718893 0.250816 0.594188 0.10394
H_ H_ 0.751329 0.195291 0.659675 0.10394
H_ H_ 0.722262 0.326029 0.766423 0.10394
H_ H_ 0.681169 0.377164 0.693371 0.10394
H_ H_ 0.711324 0.373067 0.946062 0.10394
H_ H_ 0.766008 0.375256 0.880468 0.10394
H_ H_ 0.89752 0.393266 0.986218 0.10394
H_ H_ 0.799925 0.397084 0.656158 0.10394
H_ H_ 0.73204 0.449944 0.69467 0.10394
H_ H_ 0.830398 0.0497268 0.788335 0.10394
H_ H_ 0.90826 0.493963 0.734362 0.10394
H_ H_ 0.518861 0.379587 0.694073 0.10394
H_ H_ 0.558875 0.302932 0.73261 0.10394
H_ H_ 0.907562 0.246293 0.725512 0.10394
H_ H_ 0.868208 0.324878 0.683029 0.10394
H_ H_ 0.959951 0.0595149 0.616695 0.10394
H_ H_ 0.519972 0.128416 0.614015 0.10394
H_ H_ 0.636802 0.0141095 0.572713 0.10394
H_ H_ 0.942239 0.161792 0.890005 0.10394
H_ H_ 0.509834 0.204258 0.936707 0.10394
H_ H_ 0.914994 0.280149 0.545288 0.10394
H_ H_ 0.846726 0.242576 -0.007489999999999997 0.10394
H_ H_ 0.745549 0.203137 0.884914 0.10394
H_ H_ 0.697667 0.245479 0.810831 0.10394
H_ H_ 0.825295 0.192445 0.727756 0.10394
H_ H_ 0.877116 0.163061 0.807276 0.10394
H_ H_ 0.782321 0.136334 0.556254 0.10394
H_ H_ 0.731581 0.115073 0.623357 0.10394
H_ H_ 0.608348 0.0937821 0.504365 0.10394
C_ C_ 0.670095 0.100561 0.801096 0.18167
C_ C_ 0.716533 0.0831443 0.781157 -0.15533
C_ C_ 0.73195 0.0291335 0.778882 0.02923
C_ C_ 0.703658 0.488708 0.791367 -0.15533
C_ C_ 0.651663 0.0158512 0.812771 0.18167
C_ C_ 0.522818 0.137067 0.779021 0.18167
C_ C_ 0.0010099999999999554 0.171679 0.7455 -0.15533
C_ C_ 0.506186 0.227357 0.768802 0.02923
C_ C_ 0.533743 0.235409 0.819331 -0.15533
C_ C_ 0.548622 0.193365 0.848122 0.18167
C_ C_ 0.502881 0.0449482 0.879107 0.69207
C_ C_ 0.962583 0.506223 0.86629 0.02923
C_ C_ 0.982802 0.456631 0.858628 -0.15533
C_ C_ 0.954387 0.415655 0.864453 -0.15533
C_ C_ 0.905244 0.424847 0.884851 0.02923
C_ C_ 0.884288 0.476611 0.88973 -0.15533
C_ C_ 0.914169 0.517183 0.884389 0.02923
C_ C_ 0.907418 0.0684341 0.890811 0.69207
C_ C_ 0.900909 0.32853 0.884584 0.69661
C_ C_ 0.573155 0.300224 0.589541 0.18167
C_ C_ 0.527184 0.287743 0.570761 -0.15533
C_ C_ 0.51625 0.275514 0.519512 0.02923
C_ C_ 0.546747 0.291907 0.986031 -0.15533
C_ C_ 0.597905 0.304666 0.50754 0.18167
C_ C_ 0.719978 0.266368 0.630356 0.18167
C_ C_ 0.739889 0.234858 0.67001 -0.15533
C_ C_ 0.737596 0.255367 0.720621 0.02923
C_ C_ 0.718079 0.307326 0.728506 -0.15533
C_ C_ 0.697768 0.336004 0.687909 0.18167
C_ C_ 0.736312 0.372191 0.536323 0.69207
C_ C_ 0.775089 0.368557 1.00729392 0.02923
C_ C_ 0.752471 0.377678 0.958238 -0.15533
C_ C_ 0.783257 0.38071 0.917386 -0.15533
C_ C_ 0.834544 0.387199 0.926036 0.02923
C_ C_ 0.85467 0.392592 0.974755 -0.15533
C_ C_ 0.826208 0.377569 0.0157403 0.02923
C_ C_ 0.849973 0.38242 0.568886 0.69207
C_ C_ 0.842692 0.381873 0.826906 0.69661
C_ C_ 0.809373 0.431489 0.679591 0.18167
C_ C_ 0.770771 0.460265 0.702089 -0.15533
C_ C_ 0.77976 0.497565 0.742037 0.02923
C_ C_ 0.822742 0.0253061 0.756821 -0.15533
C_ C_ 0.869562 0.482047 0.730415 0.18167
C_ C_ 0.991151 0.348409 0.701107 0.18167
C_ C_ 0.518016 0.309073 0.727169 -0.15533
C_ C_ 0.982556 0.265887 0.733317 0.02923
C_ C_ 0.930794 0.27509 0.719815 -0.15533
C_ C_ 0.908573 0.319079 0.695233 0.18167
C_ C_ 0.988306 0.455767 0.630011 0.69207
C_ C_ 0.523521 1.00009 0.621032 0.02923
C_ C_ 0.505684 0.0533037 0.623363 -0.15533
C_ C_ 0.534831 0.0891376 0.60767 -0.15533
C_ C_ 0.585145 0.0758756 0.59884 0.02923
C_ C_ 0.600835 0.0240622 0.589648 -0.15533
C_ C_ 0.57117 0.98392 0.60031 0.02923
C_ C_ 0.597745 0.423809 0.606283 0.69207
C_ C_ 0.597928 0.171663 0.600394 0.69661
C_ C_ 0.938263 0.186591 0.926089 0.18167
C_ C_ 0.979637 0.205632 0.954981 -0.15533
C_ C_ 0.972591 0.246086 -0.010657999999999945 0.02923
C_ C_ 0.922921 0.254131 0.512342 -0.15533
C_ C_ 0.88578 0.229643 0.984782 0.18167
C_ C_ 0.762207 0.201478 0.85183 0.18167
C_ C_ 0.736409 0.223978 0.809022 -0.15533
C_ C_ 0.76258 0.225541 0.765225 0.02923
C_ C_ 0.81015 0.197883 0.762477 -0.15533
C_ C_ 0.835652 0.178154 0.806641 0.18167
C_ C_ 0.76553 0.121386 0.946717 0.69207
C_ C_ 0.728841 0.12401 0.493586 0.02923
C_ C_ 0.74679 0.124154 0.544732 -0.15533
C_ C_ 0.715532 0.117131 0.583266 -0.15533
C_ C_ 0.665172 0.106136 0.570072 0.02923
C_ C_ 0.647936 0.102311 0.516101 -0.15533
C_ C_ 0.675488 0.119048 0.481182 0.02923
C_ C_ 0.652825 0.10936 0.92504 0.69207
C_ C_ 0.639373 0.11227 0.664414 0.69661
C_ C_ 0.868842 0.38059 0.882369 -0.30787
C_ C_ 0.622942 0.11593 0.607216 -0.30787
N_ N_ 0.639231 0.0669436 0.815245 -0.32189
N_ N_ 0.543915 0.14465 0.82726 -0.32189
N_ N_ 0.608095 0.308373 0.559425 -0.32189
N_ N_ 0.696823 0.314668 0.639919 -0.32189
N_ N_ 0.859323 0.442119 0.695782 -0.32189
N_ N_ 0.939317 0.352053 0.683956 -0.32189
N_ N_ 0.892808 0.193452 0.945241 -0.32189
N_ N_ 0.80988 0.175945 0.849368 -0.32189
O_ O_ 0.00569925 0.0866498 0.897717 -0.63271
O_ O_ 0.534397 0.0416049 0.844623 -0.57982
O_ O_ 0.905583 0.0881009 0.846178 -0.63271
O_ O_ 0.873776 0.0891781 0.920773 -0.57982
O_ O_ 0.739022 0.4041 0.577506 -0.63271
O_ O_ 0.707369 0.335792 0.533531 -0.57982
O_ O_ 0.854071 0.341317 0.595141 -0.63271
O_ O_ 0.876545 0.419702 0.58558 -0.57982
O_ O_ 0.486195 0.40554 0.600671 -0.63271
O_ O_ 0.957526 0.460038 0.665552 -0.57982
O_ O_ 0.59355 0.398805 0.645577 -0.63271
O_ O_ 0.63185 0.406841 0.576251 -0.57982
O_ O_ 0.758844 0.0962244 0.902433 -0.63271
O_ O_ 0.800073 0.154428 0.954261 -0.57982
O_ O_ 0.65446 0.153154 0.903393 -0.63271
O_ O_ 0.614027 0.0825002 0.912863 -0.57982
F_ F_ 0.934168 0.330335 0.927477 -0.20885
F_ F_ 0.920864 0.305135 0.842777 -0.20885
F_ F_ 0.868008 0.293538 0.892826 -0.20885
F_ F_ 0.806436 0.424656 0.820497 -0.20885
F_ F_ 0.817345 0.339417 0.814472 -0.20885
F_ F_ 0.875386 0.379762 0.787507 -0.20885
F_ F_ 0.566356 0.17333 0.554376 -0.20885
F_ F_ 0.571868 0.192323 0.64143 -0.20885
F_ F_ 0.634422 0.204297 0.594667 -0.20885
F_ F_ 0.665916 0.0646184 0.674281 -0.20885
F_ F_ 0.670213 0.149343 0.682571 -0.20885
F_ F_ 0.602301 0.108946 0.69779 -0.20885
Zn Zn 0.586974 0.590972 0.348632 0.83971
Zn Zn 0.666054 0.835115 0.0811349 0.83971
Zn Zn 0.9117 0.9046 0.156092 0.83971
Zn Zn 0.841029 0.654168 0.417112 0.83971
H_ H_ 0.66241 0.632778 0.291673 0.10394
H_ H_ 0.740379 0.595782 0.254802 0.10394
H_ H_ 0.693478 0.944319 0.266059 0.10394
H_ H_ 0.636001 0.488917 0.338529 0.10394
H_ H_ 0.0418717 0.588001 0.25818 0.10394
H_ H_ 1.00475 0.662546 0.204378 0.10394
H_ H_ 0.53725 0.785734 0.331002 0.10394
H_ H_ 0.580823 0.711165 0.377097 0.10394
H_ H_ 0.529562 0.950823 0.354208 0.10394
H_ H_ 0.97119 0.872817 0.370882 0.10394
H_ H_ 0.84711 0.986301 0.401311 0.10394
H_ H_ 0.588008 0.793554 0.134663 0.10394
H_ H_ 0.993178 0.769981 0.102709 0.10394
H_ H_ 0.529205 0.801708 0.452259 0.10394
H_ H_ 0.610193 0.829359 0.980726 0.10394
H_ H_ 0.727769 0.7377 0.104922 0.10394
H_ H_ 0.761158 0.699297 0.182899 0.10394
H_ H_ 0.729863 0.841996 0.263728 0.10394
H_ H_ 0.676455 0.874411 0.186383 0.10394
H_ H_ 0.715277 0.860188 0.449791 0.10394
H_ H_ 0.76269 0.881646 0.382351 0.10394
H_ H_ 0.895368 0.899901 0.487321 0.10394
H_ H_ 0.811219 0.890784 0.160233 0.10394
H_ H_ 0.737609 0.945378 0.18869 0.10394
H_ H_ 0.825531 0.547405 0.261821 0.10394
H_ H_ 0.907683 0.992893 0.236023 0.10394
H_ H_ 0.511492 0.902561 0.200439 0.10394
H_ H_ 0.556506 0.828584 0.243253 0.10394
H_ H_ 0.91643 0.735821 0.228733 0.10394
H_ H_ 0.871283 0.81021 0.18401 0.10394
H_ H_ 0.958247 0.553916 0.110924 0.10394
H_ H_ 0.511638 0.614351 0.0900914 0.10394
H_ H_ 0.645109 0.505969 0.0937194 0.10394
H_ H_ 0.945261 0.664757 0.395655 0.10394
H_ H_ 0.520037 0.694541 0.459763 0.10394
H_ H_ 0.904066 0.793722 0.0209885 0.10394
H_ H_ 0.845335 0.732022 0.500782 0.10394
H_ H_ 0.733742 0.683908 0.38244 0.10394
H_ H_ 0.693527 0.737043 0.313199 0.10394
H_ H_ 0.840198 0.752186 0.266526 0.10394
H_ H_ 0.878873 0.691187 0.332586 0.10394
H_ H_ 0.779428 0.64181 0.0499579 0.10394
H_ H_ 0.724199 0.632286 0.116572 0.10394
H_ H_ 0.60546 0.590489 0.00552481 0.10394
C_ C_ 0.674926 0.592606 0.298218 0.18167
C_ C_ 0.717714 0.570982 0.273599 -0.15533
C_ C_ 0.73109 0.518763 0.269943 0.02923
C_ C_ 0.69422 0.984369 0.277972 -0.15533
C_ C_ 0.654095 0.508542 0.312386 0.18167
C_ C_ 0.533023 0.648031 0.273501 0.18167
C_ C_ 0.0177849 0.667878 0.244367 -0.15533
C_ C_ 0.518935 0.739407 0.262579 0.02923
C_ C_ 0.545664 0.746723 0.310417 -0.15533
C_ C_ 0.563526 0.70437 0.339778 0.18167
C_ C_ 0.508576 0.547884 0.371678 0.69207
C_ C_ 0.972116 0.00121486 0.374757 0.02923
C_ C_ -0.011402000000000023 0.949363 0.373445 -0.15533
C_ C_ 0.955224 0.911971 0.376968 -0.15533
C_ C_ 0.905654 0.926138 0.385507 0.02923
C_ C_ 0.887773 0.976788 0.393311 -0.15533
C_ C_ 0.919421 0.0151387 0.3838 0.02923
C_ C_ 0.898596 0.572066 0.386532 0.69207
C_ C_ 0.892125 0.826764 0.388059 0.69661
C_ C_ 0.574728 0.794253 0.091482 0.18167
C_ C_ 0.528017 0.778497 0.0757292 -0.15533
C_ C_ 0.508365 0.781148 0.0233369 0.02923
C_ C_ 0.539291 0.801377 0.493702 -0.15533
C_ C_ 0.588779 0.811764 0.00694521 0.18167
C_ C_ 0.719954 0.758846 0.139518 0.18167
C_ C_ 0.738443 0.735775 0.18543 -0.15533
C_ C_ 0.742328 0.765822 0.231847 0.02923
C_ C_ 0.717198 0.815255 0.233311 -0.15533
C_ C_ 0.692951 0.834912 0.1881 0.18167
C_ C_ 0.746653 0.855105 0.0472907 0.69207
C_ C_ 0.776414 0.870932 0.510276 0.02923
C_ C_ 0.756791 0.866823 0.45864 -0.15533
C_ C_ 0.782278 0.87738 0.419207 -0.15533
C_ C_ 0.833367 0.889755 0.427649 0.02923
C_ C_ 0.855535 0.896831 0.478873 -0.15533
C_ C_ 0.825785 0.888835 0.519797 0.02923
C_ C_ 0.858161 0.873167 0.0749781 0.69207
C_ C_ 0.838335 0.887566 0.32904 0.69661
C_ C_ 0.815402 0.925185 0.180088 0.18167
C_ C_ 0.775905 0.951138 0.202557 -0.15533
C_ C_ 0.782134 0.989972 0.241918 0.02923
C_ C_ 0.81915 0.515025 0.239354 -0.15533
C_ C_ 0.871664 0.978623 0.229041 0.18167
C_ C_ 0.989592 0.847288 0.208352 0.18167
C_ C_ 0.516841 0.827058 0.230562 -0.15533
C_ C_ 0.988802 0.763258 0.238327 0.02923
C_ C_ 0.936688 0.765973 0.221102 -0.15533
C_ C_ 0.91316 0.808488 0.196178 0.18167
C_ C_ 0.982577 0.945154 0.128339 0.69207
C_ C_ 0.521977 0.488682 0.111873 0.02923
C_ C_ 0.500435 0.540534 0.108898 -0.15533
C_ C_ 0.53175 0.57764 0.100308 -0.15533
C_ C_ 0.584331 0.5671 0.0926594 0.02923
C_ C_ 0.604237 0.516001 0.0952268 -0.15533
C_ C_ 0.573784 0.477226 0.106132 0.02923
C_ C_ 0.603798 0.922472 0.102805 0.69207
C_ C_ 0.595291 0.667566 0.104616 0.69661
C_ C_ 0.940859 0.687943 0.430282 0.18167
C_ C_ 0.981389 0.705516 0.46029 -0.15533
C_ C_ 0.974969 0.737431 0.504169 0.02923
C_ C_ 0.913602 0.755619 1.00612767 -0.15533
C_ C_ 0.884454 0.723075 0.48973 0.18167
C_ C_ 0.757829 0.698103 0.355621 0.18167
C_ C_ 0.7341 0.723675 0.311602 -0.15533
C_ C_ 0.764663 0.742019 0.278987 0.02923
C_ C_ 0.817975 0.733215 0.287745 -0.15533
C_ C_ 0.838396 0.699595 0.327378 0.18167
C_ C_ 0.767069 0.614792 0.454958 0.69207
C_ C_ 0.724064 0.621201 0.988967 0.02923
C_ C_ 0.739916 0.629803 0.039729 -0.15533
C_ C_ 0.710559 0.623054 0.0786787 -0.15533
C_ C_ 0.663505 0.603005 0.0673523 0.02923
C_ C_ 0.644133 0.600597 0.0152377 -0.15533
C_ C_ 0.671805 0.612863 0.976752 0.02923
C_ C_ 0.651358 0.606154 0.428628 0.69207
C_ C_ 0.647 0.601074 0.162813 0.69661
C_ C_ 0.868208 0.883381 0.384042 -0.30787
C_ C_ 0.621589 0.609418 0.105949 -0.30787
N_ N_ 0.64221 0.561292 0.312564 -0.32189
N_ N_ 0.557709 0.656023 0.320993 -0.32189
N_ N_ 0.606731 0.804924 0.0567877 -0.32189
N_ N_ 0.693721 0.805963 0.142725 -0.32189
N_ N_ 0.862606 0.941007 0.192785 -0.32189
N_ N_ 0.941002 0.847643 0.187277 -0.32189
N_ N_ 0.892512 0.694694 0.446199 -0.32189
N_ N_ 0.808176 0.68088 0.357552 -0.32189
O_ O_ 3.7862e-05 0.592074 0.391108 -0.63271
O_ O_ 0.538574 0.542239 0.335055 -0.57982
O_ O_ 0.891707 0.595391 0.341127 -0.63271
O_ O_ 0.874922 0.590353 0.426158 -0.57982
O_ O_ 0.749235 0.882184 0.0934424 -0.63271
O_ O_ 0.707903 0.83022 0.0316702 -0.57982
O_ O_ 0.855875 0.832478 0.102202 -0.63271
O_ O_ 0.883713 0.910519 0.0946662 -0.57982
O_ O_ 0.489672 0.907132 0.0867185 -0.63271
O_ O_ 0.951274 0.953951 0.16267 -0.57982
O_ O_ 0.590299 0.895565 0.138336 -0.63271
O_ O_ 0.643177 0.904345 0.0781619 -0.57982
O_ O_ 0.768266 0.5866 0.411302 -0.63271
O_ O_ 0.793958 0.653323 0.460628 -0.57982
O_ O_ 0.662422 0.644187 0.400722 -0.63271
O_ O_ 0.607217 0.590835 0.416436 -0.57982
F_ F_ 0.925823 0.822718 0.433356 -0.20885
F_ F_ 0.919265 0.810204 0.345522 -0.20885
F_ F_ 0.857048 0.790788 0.389456 -0.20885
F_ F_ 0.805243 0.93208 0.328455 -0.20885
F_ F_ 0.812057 0.845082 0.316747 -0.20885
F_ F_ 0.872426 0.886264 0.29155 -0.20885
F_ F_ 0.573605 0.673154 0.0564968 -0.20885
F_ F_ 0.559071 0.676051 0.139135 -0.20885
F_ F_ 0.629879 0.703333 0.112601 -0.20885
F_ F_ 0.679649 0.55779 0.164324 -0.20885
F_ F_ 0.672883 0.643137 0.181575 -0.20885
F_ F_ 0.612167 0.597678 0.197663 -0.20885
Zn Zn 0.588142 0.591078 0.8485 0.83971
Zn Zn 0.659501 0.852705 0.585056 0.83971
Zn Zn 0.904713 0.924421 0.659717 0.83971
Zn Zn 0.838305 0.652389 0.915932 0.83971
H_ H_ 0.669136 0.632145 0.80109 0.10394
H_ H_ 0.742116 0.60206 0.763763 0.10394
H_ H_ 0.715894 0.959536 0.809264 0.10394
H_ H_ 0.637115 0.486125 0.831218 0.10394
H_ H_ 0.0230724 0.602919 0.74545 0.10394
H_ H_ 0.970522 0.680649 0.708932 0.10394
H_ H_ 0.52374 0.773513 0.827294 0.10394
H_ H_ 0.564211 0.699012 0.87512 0.10394
H_ H_ 0.525769 0.946009 0.863542 0.10394
H_ H_ 0.984071 0.873402 0.903039 0.10394
H_ H_ 0.853317 0.986259 0.905932 0.10394
H_ H_ 0.589171 0.791687 0.632063 0.10394
H_ H_ 0.006920000000000037 0.769088 0.607926 0.10394
H_ H_ 0.525152 0.804046 0.950568 0.10394
H_ H_ 0.607418 0.836519 0.48612 0.10394
H_ H_ 0.718605 0.759229 0.598635 0.10394
H_ H_ 0.75644 0.710174 0.672992 0.10394
H_ H_ 0.72092 0.843029 0.771145 0.10394
H_ H_ 0.666868 0.882551 0.697437 0.10394
H_ H_ 0.723483 0.860274 0.94515 0.10394
H_ H_ 0.770247 0.880944 0.87939 0.10394
H_ H_ 0.901362 0.880321 0.985425 0.10394
H_ H_ 0.804283 0.907455 0.665517 0.10394
H_ H_ 0.732007 0.949849 0.705114 0.10394
H_ H_ 0.833198 0.547047 0.776638 0.10394
H_ H_ 0.902102 1.0145527 0.73565 0.10394
H_ H_ 0.510362 0.888574 0.701112 0.10394
H_ H_ 0.548375 0.813771 0.747657 0.10394
H_ H_ 0.902181 0.753088 0.727961 0.10394
H_ H_ 0.861605 0.833187 0.692747 0.10394
H_ H_ 0.970297 0.554825 0.625597 0.10394
H_ H_ 0.515422 0.620468 0.616197 0.10394
H_ H_ 0.643414 0.502339 0.591363 0.10394
H_ H_ 0.948131 0.619464 0.963086 0.10394
H_ H_ 0.514714 0.70351 0.950536 0.10394
H_ H_ 0.916637 0.776675 0.546913 0.10394
H_ H_ 0.836243 0.73652 0.991277 0.10394
H_ H_ 0.737795 0.714712 0.890098 0.10394
H_ H_ 0.701529 0.758823 0.813409 0.10394
H_ H_ 0.837257 0.710465 0.739288 0.10394
H_ H_ 0.876364 0.682278 0.823857 0.10394
H_ H_ 0.791904 0.619241 0.553933 0.10394
H_ H_ 0.731577 0.617697 0.621512 0.10394
H_ H_ 0.610728 0.584038 0.510544 0.10394
C_ C_ 0.679402 0.591277 0.802809 0.18167
C_ C_ 0.723108 0.574769 0.779863 -0.15533
C_ C_ 0.736797 0.521912 0.774085 0.02923
C_ C_ 0.702422 0.996988 0.802326 -0.15533
C_ C_ 0.662718 0.507637 0.817655 0.18167
C_ C_ 0.525189 0.638733 0.764739 0.18167
C_ C_ -0.000426139 0.684534 0.741255 -0.15533
C_ C_ 0.498982 0.728614 0.75817 0.02923
C_ C_ 0.525176 0.736 0.808208 -0.15533
C_ C_ 0.549026 0.693036 0.835572 0.18167
C_ C_ 0.507406 0.552112 0.867974 0.69207
C_ C_ 0.97929 -0.000309029 0.889754 0.02923
C_ C_ -3.100000000000325e-05 0.949311 0.893955 -0.15533
C_ C_ 0.966463 0.911573 0.895092 -0.15533
C_ C_ 0.913257 0.923125 0.896835 0.02923
C_ C_ 0.895 0.975687 0.902483 -0.15533
C_ C_ 0.926589 0.0143366 0.894378 0.02923
C_ C_ 0.884458 0.567407 0.879798 0.69207
C_ C_ 0.899143 0.824015 0.882816 0.69661
C_ C_ 0.575238 0.793564 0.593163 0.18167
C_ C_ 0.528082 0.775685 0.575909 -0.15533
C_ C_ 0.509146 0.778678 0.525177 0.02923
C_ C_ 0.539293 0.798899 0.989333 -0.15533
C_ C_ 0.585408 0.822312 0.513137 0.18167
C_ C_ 0.718637 0.779026 0.636134 0.18167
C_ C_ 0.741674 0.75097 0.678467 -0.15533
C_ C_ 0.74422 0.773651 0.728853 0.02923
C_ C_ 0.717871 0.822501 0.734774 -0.15533
C_ C_ 0.692635 0.84781 0.689946 0.18167
C_ C_ 0.739109 0.87174 0.548163 0.69207
C_ C_ 0.780281 0.865459 1.00897736 0.02923
C_ C_ 0.761714 0.863053 0.956748 -0.15533
C_ C_ 0.789338 0.877254 0.918223 -0.15533
C_ C_ 0.838991 0.885708 0.928293 0.02923
C_ C_ 0.859698 0.885912 0.979746 -0.15533
C_ C_ 0.832442 0.875924 0.0213246 0.02923
C_ C_ 0.849278 0.888796 0.57446 0.69207
C_ C_ 0.851478 0.890142 0.832054 0.69661
C_ C_ 0.810234 0.93937 0.693406 0.18167
C_ C_ 0.768683 0.964021 0.715347 -0.15533
C_ C_ 0.773475 0.00665984 0.748357 0.02923
C_ C_ 0.830823 0.510941 0.753849 -0.15533
C_ C_ 0.864457 1.00108781 0.729165 0.18167
C_ C_ 0.982936 0.861752 0.712766 0.18167
C_ C_ 0.508759 0.815744 0.728696 -0.15533
C_ C_ 0.977074 0.779661 0.743341 0.02923
C_ C_ 0.924898 0.782305 0.722249 -0.15533
C_ C_ 0.904409 0.827549 0.701048 0.18167
C_ C_ 0.984286 0.956677 0.622857 0.69207
C_ C_ 0.521252 0.489259 0.613283 0.02923
C_ C_ 0.500888 0.54288 0.61692 -0.15533
C_ C_ 0.534322 0.581197 0.611431 -0.15533
C_ C_ 0.587765 0.566049 0.605242 0.02923
C_ C_ 0.604953 0.514909 0.600384 -0.15533
C_ C_ 0.573248 0.477662 0.604004 0.02923
C_ C_ 0.59605 0.933025 0.604408 0.69207
C_ C_ 0.606691 0.659932 0.614114 0.69661
C_ C_ 0.936068 0.659786 0.965518 0.18167
C_ C_ 0.975936 0.690086 0.978341 -0.15533
C_ C_ 0.963669 0.738032 1.00398699 0.02923
C_ C_ 0.924946 0.748794 0.517856 -0.15533
C_ C_ 0.875414 0.725089 0.986504 0.18167
C_ C_ 0.76101 0.716633 0.857808 0.18167
C_ C_ 0.738027 0.739719 0.812824 -0.15533
C_ C_ 0.767562 0.745684 0.773269 0.02923
C_ C_ 0.814174 0.717758 0.773815 -0.15533
C_ C_ 0.83688 0.697454 0.820506 0.18167
C_ C_ 0.75871 0.627594 0.950905 0.69207
C_ C_ 0.732734 0.60765 0.493362 0.02923
C_ C_ 0.753528 0.609243 0.543449 -0.15533
C_ C_ 0.719983 0.606777 0.582088 -0.15533
C_ C_ 0.667978 0.598921 0.570209 0.02923
C_ C_ 0.649202 0.592085 0.519281 -0.15533
C_ C_ 0.678735 0.600589 0.481131 0.02923
C_ C_ 0.645908 0.613838 0.924678 0.69207
C_ C_ 0.650568 0.59771 0.671547 0.69661
C_ C_ 0.876944 0.879877 0.885825 -0.30787
C_ C_ 0.62936 0.604057 0.613807 -0.30787
N_ N_ 0.646231 0.559221 0.815727 -0.32189
N_ N_ 0.549255 0.64546 0.812894 -0.32189
N_ N_ 0.603609 0.813935 0.56119 -0.32189
N_ N_ 0.696706 0.826343 0.642411 -0.32189
N_ N_ 0.855948 0.959997 0.696984 -0.32189
N_ N_ 0.932518 0.865169 0.695252 -0.32189
N_ N_ 0.887448 0.680309 0.96073 -0.32189
N_ N_ 0.809253 0.691549 0.857839 -0.32189
O_ O_ 0.988629 0.593173 0.874809 -0.63271
O_ O_ 0.551035 0.538381 0.852258 -0.57982
O_ O_ 0.881422 0.592977 0.83662 -0.63271
O_ O_ 0.864954 0.59026 0.920719 -0.57982
O_ O_ 0.740957 0.903033 0.588343 -0.63271
O_ O_ 0.702101 0.844043 0.537204 -0.57982
O_ O_ 0.847724 0.850735 0.602933 -0.63271
O_ O_ 0.88112 0.921436 0.591408 -0.57982
O_ O_ 0.484398 0.922286 0.595467 -0.63271
O_ O_ 0.948467 0.971156 0.652015 -0.57982
O_ O_ 0.589811 0.904118 0.641558 -0.63271
O_ O_ 0.635435 0.919087 0.576369 -0.57982
O_ O_ 0.761695 0.595771 0.911887 -0.63271
O_ O_ 0.787496 0.664764 0.956235 -0.57982
O_ O_ 0.650592 0.648844 0.893363 -0.63271
O_ O_ 0.609383 0.586456 0.911683 -0.57982
F_ F_ 0.935035 0.815554 0.925383 -0.20885
F_ F_ 0.924237 0.810008 0.842951 -0.20885
F_ F_ 0.863225 0.792168 0.877573 -0.20885
F_ F_ 0.816201 0.93372 0.830933 -0.20885
F_ F_ 0.821127 0.850692 0.814183 -0.20885
F_ F_ 0.89025 0.894037 0.800664 -0.20885
F_ F_ 0.57942 0.668276 0.56486 -0.20885
F_ F_ 0.574503 0.676081 0.652801 -0.20885
F_ F_ 0.643198 0.694829 0.625671 -0.20885
F_ F_ 0.679992 0.54967 0.674477 -0.20885
F_ F_ 0.681032 0.636467 0.694974 -0.20885
F_ F_ 0.613721 0.593397 0.702641 -0.20885
_cell_length_a 26.508
_cell_length_b 26.37200000322088
_cell_length_c 26.311999743092066
_cell_angle_alpha 93.74100058972084
_cell_angle_beta 96.04100104955006
_cell_angle_gamma 83.6869992558723
_symmetry_space_group_name_H-M         'P 1'
_symmetry_Int_Tables_number            1
loop_
_symmetry_equiv_pos_as_xyz
   'x, y, z'
                         
loop_
_atom_site_label
_atom_site_type_symbol
_atom_site_fract_x 
_atom_site_fract_y
_atom_site_fract_z
_atom_site_charge
Zn Zn 0.0879073 0.0845435 0.351638 0.83971
Zn Zn 0.161127 0.350863 0.0799122 0.83971
Zn Zn 0.40891 0.417856 0.154991 0.83971
Zn Zn 0.342331 0.159552 0.413841 0.83971
H_ H_ 0.165584 0.134677 0.310381 0.10394
H_ H_ 0.241873 0.101638 0.260392 0.10394
H_ H_ 0.210334 0.445551 0.27295 0.10394
H_ H_ 0.1386 0.985374 0.329798 0.10394
H_ H_ 0.524715 0.0971974 0.254514 0.10394
H_ H_ 0.488389 0.171993 0.202304 0.10394
H_ H_ 0.0325983 0.266075 0.321134 0.10394
H_ H_ 0.0598811 0.195549 0.375287 0.10394
H_ H_ 0.0282897 0.445388 0.350566 0.10394
H_ H_ 0.491877 0.375413 0.378858 0.10394
H_ H_ 0.356287 0.484518 0.406439 0.10394
H_ H_ 0.0820998 0.297465 0.128967 0.10394
H_ H_ 0.498003 0.276418 0.0956609 0.10394
H_ H_ 0.0456214 0.271865 0.446925 0.10394
H_ H_ 0.112288 0.336264 0.982906 0.10394
H_ H_ 0.232734 0.260307 0.0966175 0.10394
H_ H_ 0.276825 0.214662 0.169403 0.10394
H_ H_ 0.192549 0.324922 0.267836 0.10394
H_ H_ 0.171331 0.374561 0.191025 0.10394
H_ H_ 0.223772 0.353414 0.450029 0.10394
H_ H_ 0.278141 0.365086 0.377948 0.10394
H_ H_ 0.402827 0.394362 0.49191 0.10394
H_ H_ 0.32111 0.388288 0.183195 0.10394
H_ H_ 0.242046 0.43981 0.19651 0.10394
H_ H_ 0.330706 0.0477417 0.275816 0.10394
H_ H_ 0.404249 0.515193 0.228892 0.10394
H_ H_ 0.0192307 0.375216 0.191057 0.10394
H_ H_ 0.0566491 0.298534 0.232435 0.10394
H_ H_ 0.419808 0.241955 0.212488 0.10394
H_ H_ 0.378816 0.325109 0.183383 0.10394
H_ H_ 0.471995 0.0570808 0.105125 0.10394
H_ H_ 0.0105553 0.112543 0.111997 0.10394
H_ H_ 0.14267 0.000694205 0.106083 0.10394
H_ H_ 0.44075 0.169273 0.39356 0.10394
H_ H_ 0.0179448 0.187307 0.450991 0.10394
H_ H_ 0.40995 0.277604 0.0444099 0.10394
H_ H_ 0.350855 0.234642 0.502036 0.10394
H_ H_ 0.232698 0.194037 0.382092 0.10394
H_ H_ 0.190816 0.224152 0.300056 0.10394
H_ H_ 0.338739 0.237935 0.249794 0.10394
H_ H_ 0.375918 0.189459 0.326217 0.10394
H_ H_ 0.283507 0.129123 0.0599588 0.10394
H_ H_ 0.229274 0.117228 0.128766 0.10394
H_ H_ 0.11128 0.0732493 0.0112665 0.10394
C_ C_ 0.17702 0.0951453 0.302316 0.18167
C_ C_ 0.221129 0.0769293 0.278226 -0.15533
C_ C_ 0.233543 0.0236706 0.270736 0.02923
C_ C_ 0.202966 0.486935 0.279839 -0.15533
C_ C_ 0.162145 0.0112237 0.313924 0.18167
C_ C_ 0.0212968 0.128433 0.268676 0.18167
C_ C_ 0.510778 0.177347 0.237421 -0.15533
C_ C_ 0.0103122 0.218512 0.255657 0.02923
C_ C_ 0.0317677 0.227259 0.305615 -0.15533
C_ C_ 0.0494992 0.185892 0.335665 0.18167
C_ C_ 0.0128357 0.0373903 0.37792 0.69207
C_ C_ 0.476639 0.505365 0.382779 0.02923
C_ C_ 0.500313 0.45397 0.379498 -0.15533
C_ C_ 0.473979 0.413508 0.389892 -0.15533
C_ C_ 0.42128 0.421854 0.40021 0.02923
C_ C_ 0.39843 0.473743 0.403226 -0.15533
C_ C_ 0.425914 0.515022 0.391621 0.02923
C_ C_ 0.40019 0.0770067 0.38019 0.69207
C_ C_ 0.412324 0.324183 0.384661 0.69661
C_ C_ 0.0716994 0.298625 0.0875625 0.18167
C_ C_ 0.0290856 0.276404 0.0666321 -0.15533
C_ C_ 0.0159255 0.27505 0.0128208 0.02923
C_ C_ 0.0528085 0.276282 0.486815 -0.15533
C_ C_ 0.0891078 0.320755 0.00520796 0.18167
C_ C_ 0.226034 0.272922 0.134294 0.18167
C_ C_ 0.249396 0.246542 0.174657 -0.15533
C_ C_ 0.234832 0.260773 0.225491 0.02923
C_ C_ 0.200508 0.306473 0.230672 -0.15533
C_ C_ 0.18558 0.336059 0.186952 0.18167
C_ C_ 0.242347 0.375825 0.0492535 0.69207
C_ C_ 0.282885 0.36789 0.509621 0.02923
C_ C_ 0.263771 0.364058 0.459513 -0.15533
C_ C_ 0.294821 0.368556 0.417052 -0.15533
C_ C_ 0.345315 0.379507 0.429474 0.02923
C_ C_ 0.363632 0.382625 0.482436 -0.15533
C_ C_ 0.333688 0.377928 0.523086 0.02923
C_ C_ 0.350915 0.395016 0.0707892 0.69207
C_ C_ 0.356082 0.38232 0.332595 0.69661
C_ C_ 0.321542 0.429373 0.195109 0.18167
C_ C_ 0.275886 0.457426 0.207206 -0.15533
C_ C_ 0.277374 0.501586 0.240118 0.02923
C_ C_ 0.323115 0.0168614 0.248989 -0.15533
C_ C_ 0.368381 0.498944 0.224502 0.18167
C_ C_ 0.500306 0.354678 0.199488 0.18167
C_ C_ 0.0182973 0.296387 0.211009 -0.15533
C_ C_ 0.494428 0.270402 0.228921 0.02923
C_ C_ 0.443955 0.273988 0.213019 -0.15533
C_ C_ 0.420136 0.321317 0.193348 0.18167
C_ C_ 0.490497 0.45049 0.124306 0.69207
C_ C_ 0.0203979 0.98337 0.124782 0.02923
C_ C_ 0.00359117 0.0373884 0.131138 -0.15533
C_ C_ 0.0293412 0.0746479 0.113781 -0.15533
C_ C_ 0.0831177 0.0624022 0.110758 0.02923
C_ C_ 0.101338 0.0103432 0.109291 -0.15533
C_ C_ 0.072313 0.971467 0.116707 0.02923
C_ C_ 0.0949277 0.425068 0.0963978 0.69207
C_ C_ 0.0938414 0.158992 0.111922 0.69661
C_ C_ 0.440155 0.185555 0.431396 0.18167
C_ C_ 0.48127 0.207596 0.45509 -0.15533
C_ C_ 0.475732 0.243737 0.498197 0.02923
C_ C_ 0.418895 0.256366 0.0104616 -0.15533
C_ C_ 0.38733 0.229304 0.489964 0.18167
C_ C_ 0.255705 0.197605 0.350685 0.18167
C_ C_ 0.233042 0.222632 0.308269 -0.15533
C_ C_ 0.260929 0.235041 0.270844 0.02923
C_ C_ 0.313797 0.226648 0.278587 -0.15533
C_ C_ 0.336347 0.197275 0.320248 0.18167
C_ C_ 0.267008 0.125089 0.458247 0.69207
C_ C_ 0.224622 0.118514 0.996775 0.02923
C_ C_ 0.244076 0.119581 0.0490555 -0.15533
C_ C_ 0.213026 0.110944 0.0879269 -0.15533
C_ C_ 0.159973 0.0995143 0.0745484 0.02923
C_ C_ 0.142838 0.0920405 0.0215899 -0.15533
C_ C_ 0.173155 0.103634 0.983881 0.02923
C_ C_ 0.152203 0.117987 0.429312 0.69207
C_ C_ 0.144189 0.100122 0.174488 0.69661
C_ C_ 0.383274 0.37871 0.388394 -0.30787
C_ C_ 0.12036 0.104377 0.118471 -0.30787
N_ N_ 0.147707 0.0625423 0.316155 -0.32189
N_ N_ 0.0456078 0.136872 0.316109 -0.32189
N_ N_ 0.104422 0.315324 0.0553818 -0.32189
N_ N_ 0.194393 0.317421 0.140723 -0.32189
N_ N_ 0.365291 0.45219 0.199556 -0.32189
N_ N_ 0.449318 0.360539 0.18535 -0.32189
N_ N_ 0.39341 0.196122 0.450131 -0.32189
N_ N_ 0.307266 0.188113 0.357234 -0.32189
O_ O_ 0.500985 0.0977563 0.386114 -0.63271
O_ O_ 0.0524166 0.0292179 0.350899 -0.57982
O_ O_ 0.401625 0.102078 0.339082 -0.63271
O_ O_ 0.373322 0.0992681 0.416467 -0.57982
O_ O_ 0.242107 0.398093 0.0964453 -0.63271
O_ O_ 0.207886 0.346011 0.0343248 -0.57982
O_ O_ 0.344986 0.355764 0.0984605 -0.63271
O_ O_ 0.382635 0.428198 0.0896348 -0.57982
O_ O_ 0.982504 0.40795 0.0936666 -0.63271
O_ O_ 0.455018 0.462737 0.155191 -0.57982
O_ O_ 0.0906163 0.399686 0.135803 -0.63271
O_ O_ 0.131797 0.411292 0.0651397 -0.57982
O_ O_ 0.262258 0.101864 0.414145 -0.63271
O_ O_ 0.30196 0.155862 0.465132 -0.57982
O_ O_ 0.153571 0.158232 0.404428 -0.63271
O_ O_ 0.118353 0.0863494 0.414593 -0.57982
F_ F_ 0.446929 0.316071 0.427078 -0.20885
F_ F_ 0.43607 0.310531 0.340512 -0.20885
F_ F_ 0.377561 0.288509 0.389105 -0.20885
F_ F_ 0.320487 0.425144 0.332442 -0.20885
F_ F_ 0.336911 0.338381 0.314159 -0.20885
F_ F_ 0.390083 0.395003 0.298714 -0.20885
F_ F_ 0.0660189 0.161696 0.0663296 -0.20885
F_ F_ 0.0634542 0.179551 0.149521 -0.20885
F_ F_ 0.12954 0.192849 0.110516 -0.20885
F_ F_ 0.180796 0.0577615 0.180747 -0.20885
F_ F_ 0.164945 0.143453 0.192256 -0.20885
F_ F_ 0.1068 0.0952715 0.206721 -0.20885
Zn Zn 0.0859687 0.0836979 0.850053 0.83971
Zn Zn 0.161779 0.339146 0.585277 0.83971
Zn Zn 0.414682 0.416277 0.659658 0.83971
Zn Zn 0.33495 0.154536 0.921826 0.83971
H_ H_ 0.168469 0.130468 0.805246 0.10394
H_ H_ 0.253297 0.0950386 0.772632 0.10394
H_ H_ 0.204859 0.447428 0.772289 0.10394
H_ H_ 0.119293 0.984128 0.812158 0.10394
H_ H_ 0.53186 0.099305 0.760548 0.10394
H_ H_ 0.480054 0.171342 0.713117 0.10394
H_ H_ 0.0250194 0.268055 0.832376 0.10394
H_ H_ 0.0649985 0.197658 0.880181 0.10394
H_ H_ 0.0218389 0.447061 0.845091 0.10394
H_ H_ 0.470986 0.383173 0.862147 0.10394
H_ H_ 0.348832 0.498368 0.908488 0.10394
H_ H_ 0.0704318 0.313708 0.630256 0.10394
H_ H_ 0.499898 0.281137 0.596986 0.10394
H_ H_ 0.0353997 0.303428 0.940999 0.10394
H_ H_ 0.124304 0.310231 0.484591 0.10394
H_ H_ 0.230841 0.248551 0.602786 0.10394
H_ H_ 0.267215 0.204177 0.682545 0.10394
H_ H_ 0.216901 0.339289 0.773508 0.10394
H_ H_ 0.180209 0.382193 0.691664 0.10394
H_ H_ 0.209834 0.397926 0.950564 0.10394
H_ H_ 0.261926 0.402463 0.879391 0.10394
H_ H_ 0.390468 0.428817 0.990501 0.10394
H_ H_ 0.314347 0.396387 0.664136 0.10394
H_ H_ 0.232081 0.444941 0.684407 0.10394
H_ H_ 0.325714 0.0380359 0.782329 0.10394
H_ H_ 0.401727 0.507295 0.733019 0.10394
H_ H_ 0.0168683 0.375988 0.69341 0.10394
H_ H_ 0.0536169 0.293577 0.731585 0.10394
H_ H_ 0.411388 0.248389 0.730607 0.10394
H_ H_ 0.372579 0.329071 0.701537 0.10394
H_ H_ 0.467546 0.0636445 0.635021 0.10394
H_ H_ 0.0201191 0.127732 0.615414 0.10394
H_ H_ 0.140027 0.00732456 0.596017 0.10394
H_ H_ 0.4343 0.167414 0.889105 0.10394
H_ H_ 0.0164075 0.188127 0.948765 0.10394
H_ H_ 0.417024 0.282659 0.544931 0.10394
H_ H_ 0.345453 0.224564 0.0107224 0.10394
H_ H_ 0.244395 0.208136 0.89603 0.10394
H_ H_ 0.193195 0.245264 0.817091 0.10394
H_ H_ 0.338255 0.230988 0.749877 0.10394
H_ H_ 0.374631 0.176288 0.817997 0.10394
H_ H_ 0.291341 0.121976 0.55567 0.10394
H_ H_ 0.238995 0.087301 0.617113 0.10394
H_ H_ 0.105978 0.100593 0.50921 0.10394
C_ C_ 0.17671 0.0893345 0.801029 0.18167
C_ C_ 0.223409 0.0694717 0.781979 -0.15533
C_ C_ 0.230153 0.0182549 0.768043 0.02923
C_ C_ 0.194938 0.490546 0.776678 -0.15533
C_ C_ 0.150003 0.00722471 0.802094 0.18167
C_ C_ 0.0191279 0.131236 0.777751 0.18167
C_ C_ 0.499019 0.177734 0.750492 -0.15533
C_ C_ 0.00576537 0.221618 0.765217 0.02923
C_ C_ 0.028877 0.230468 0.814748 -0.15533
C_ C_ 0.0523902 0.189827 0.841229 0.18167
C_ C_ 0.0130084 0.0398982 0.877423 0.69207
C_ C_ 0.468815 0.515409 0.868586 0.02923
C_ C_ 0.485513 0.461316 0.860706 -0.15533
C_ C_ 0.454334 0.423143 0.868275 -0.15533
C_ C_ 0.406793 0.433134 0.888279 0.02923
C_ C_ 0.388804 0.486655 0.896435 -0.15533
C_ C_ 0.417383 0.525726 0.882308 0.02923
C_ C_ 0.39115 0.0700804 0.886449 0.69207
C_ C_ 0.401089 0.337364 0.892643 0.69661
C_ C_ 0.0666123 0.302627 0.589243 0.18167
C_ C_ 0.0223385 0.279841 0.570922 -0.15533
C_ C_ 0.0160219 0.264959 0.518405 0.02923
C_ C_ 0.0484288 0.297331 0.982458 -0.15533
C_ C_ 0.0961068 0.299321 0.508422 0.18167
C_ C_ 0.222208 0.266062 0.640488 0.18167
C_ C_ 0.244795 0.241932 0.684647 -0.15533
C_ C_ 0.240444 0.267756 0.732491 0.02923
C_ C_ 0.215481 0.318089 0.737135 -0.15533
C_ C_ 0.195181 0.341772 0.693316 0.18167
C_ C_ 0.244385 0.364938 0.546762 0.69207
C_ C_ 0.271905 0.392736 0.00997311 0.02923
C_ C_ 0.250358 0.395233 0.957434 -0.15533
C_ C_ 0.281153 0.397463 0.916366 -0.15533
C_ C_ 0.333852 0.404006 0.929102 0.02923
C_ C_ 0.352769 0.414001 0.981152 -0.15533
C_ C_ 0.32399 0.404309 0.0207035 0.02923
C_ C_ 0.357966 0.373884 0.574905 0.69207
C_ C_ 0.345161 0.388388 0.833088 0.69661
C_ C_ 0.315639 0.432799 0.685805 0.18167
C_ C_ 0.270477 0.461777 0.697702 -0.15533
C_ C_ 0.274873 0.501213 0.73704 0.02923
C_ C_ 0.319433 0.017424 0.744769 -0.15533
C_ C_ 0.36617 0.494384 0.725818 0.18167
C_ C_ 0.495427 0.351838 0.702495 0.18167
C_ C_ 0.0128925 0.303517 0.722664 -0.15533
C_ C_ 0.486673 0.269919 0.736483 0.02923
C_ C_ 0.4353 0.276266 0.723927 -0.15533
C_ C_ 0.414049 0.322072 0.702796 0.18167
C_ C_ 0.484618 0.452182 0.621917 0.69207
C_ C_ 0.0188698 0.997448 0.611571 0.02923
C_ C_ -0.000715657 0.049706 0.611219 -0.15533
C_ C_ 0.0337271 0.0864288 0.61025 -0.15533
C_ C_ 0.0850864 0.0732183 0.601434 0.02923
C_ C_ 0.101811 0.0219865 0.59787 -0.15533
C_ C_ 0.0706561 0.984751 0.604091 0.02923
C_ C_ 0.105773 0.424758 0.622717 0.69207
C_ C_ 0.107444 0.170885 0.608107 0.69661
C_ C_ 0.43312 0.18636 0.927968 0.18167
C_ C_ 0.474758 0.212219 0.951849 -0.15533
C_ C_ 0.468737 0.245158 0.995069 0.02923
C_ C_ 0.42702 0.251775 0.515581 -0.15533
C_ C_ 0.379798 0.225804 0.988966 0.18167
C_ C_ 0.260012 0.204666 0.860694 0.18167
C_ C_ 0.234867 0.230602 0.816843 -0.15533
C_ C_ 0.262676 0.238963 0.777631 0.02923
C_ C_ 0.315206 0.224555 0.782765 -0.15533
C_ C_ 0.333816 0.189537 0.819118 0.18167
C_ C_ 0.26039 0.125476 0.959594 0.69207
C_ C_ 0.227343 0.122239 0.494302 0.02923
C_ C_ 0.248227 0.119769 0.546081 -0.15533
C_ C_ 0.221463 0.100206 0.581073 -0.15533
C_ C_ 0.166436 0.100505 0.56995 0.02923
C_ C_ 0.146746 0.105247 0.518945 -0.15533
C_ C_ 0.178473 0.113613 0.480458 0.02923
C_ C_ 0.148014 0.102519 0.929414 0.69207
C_ C_ 0.152412 0.105937 0.665101 0.69661
C_ C_ 0.371046 0.389937 0.888087 -0.30787
C_ C_ 0.126606 0.110859 0.609931 -0.30787
N_ N_ 0.142383 0.0587162 0.815111 -0.32189
N_ N_ 0.0460127 0.142147 0.822811 -0.32189
N_ N_ 0.104111 0.307124 0.559885 -0.32189
N_ N_ 0.199099 0.314859 0.64567 -0.32189
N_ N_ 0.362311 0.450048 0.69812 -0.32189
N_ N_ 0.444206 0.358955 0.694291 -0.32189
N_ N_ 0.387958 0.19329 0.949033 -0.32189
N_ N_ 0.306058 0.181814 0.858561 -0.32189
O_ O_ 0.501966 0.0868081 0.909069 -0.63271
O_ O_ 0.0497916 0.0296551 0.848244 -0.57982
O_ O_ 0.380034 0.0899075 0.842113 -0.63271
O_ O_ 0.363184 0.0879378 0.9232 -0.57982
O_ O_ 0.248732 0.387066 0.591752 -0.63271
O_ O_ 0.208698 0.334051 0.536873 -0.57982
O_ O_ 0.350882 0.332989 0.599287 -0.63271
O_ O_ 0.3809 0.411432 0.59888 -0.57982
O_ O_ 0.993918 0.412226 0.601157 -0.63271
O_ O_ 0.456249 0.465714 0.658271 -0.57982
O_ O_ 0.0957964 0.39935 0.66032 -0.63271
O_ O_ 0.139811 0.406504 0.593024 -0.57982
O_ O_ 0.259129 0.102046 0.914248 -0.63271
O_ O_ 0.29026 0.160748 0.968865 -0.57982
O_ O_ 0.151377 0.140234 0.899643 -0.63271
O_ O_ 0.112128 0.0751228 0.916166 -0.57982
F_ F_ 0.443354 0.340367 0.926876 -0.20885
F_ F_ 0.419527 0.31469 0.846894 -0.20885
F_ F_ 0.371015 0.302661 0.908911 -0.20885
F_ F_ 0.310714 0.43079 0.824161 -0.20885
F_ F_ 0.315888 0.347053 0.823493 -0.20885
F_ F_ 0.376807 0.387005 0.794269 -0.20885
F_ F_ 0.0819032 0.17808 0.561352 -0.20885
F_ F_ 0.0751259 0.188753 0.645678 -0.20885
F_ F_ 0.150899 0.198054 0.611253 -0.20885
F_ F_ 0.175538 0.0574132 0.666469 -0.20885
F_ F_ 0.185777 0.142835 0.674012 -0.20885
F_ F_ 0.118294 0.115158 0.70252 -0.20885
Zn Zn 0.0955471 0.578345 0.353385 0.83971
Zn Zn 0.15994 0.838965 0.0875263 0.83971
Zn Zn 0.406748 0.920373 0.149933 0.83971
Zn Zn 0.341122 0.655225 0.421935 0.83971
H_ H_ 0.17161 0.630179 0.315097 0.10394
H_ H_ 0.251018 0.603682 0.276751 0.10394
H_ H_ 0.222515 0.951648 0.293539 0.10394
H_ H_ 0.136753 0.481552 0.321269 0.10394
H_ H_ 0.528667 0.608208 0.256286 0.10394
H_ H_ 0.494373 0.678933 0.205006 0.10394
H_ H_ 0.0450416 0.762146 0.339982 0.10394
H_ H_ 0.0773016 0.689039 0.385265 0.10394
H_ H_ 0.0280949 0.942508 0.36805 0.10394
H_ H_ 0.478534 0.883808 0.369376 0.10394
H_ H_ 0.353349 0.996116 0.392938 0.10394
H_ H_ 0.0733888 0.795179 0.13383 0.10394
H_ H_ 0.505965 0.761986 0.102668 0.10394
H_ H_ 0.036162 0.782576 0.453138 0.10394
H_ H_ 0.118244 0.804125 0.98417 0.10394
H_ H_ 0.227951 0.741459 0.0976977 0.10394
H_ H_ 0.273612 0.698165 0.175539 0.10394
H_ H_ 0.223304 0.826165 0.264834 0.10394
H_ H_ 0.178043 0.871009 0.194432 0.10394
H_ H_ 0.213981 0.871319 0.431418 0.10394
H_ H_ 0.265963 0.889178 0.37117 0.10394
H_ H_ 0.394354 0.912674 0.479052 0.10394
H_ H_ 0.304989 0.90361 0.161064 0.10394
H_ H_ 0.227057 0.950347 0.192304 0.10394
H_ H_ 0.32909 0.555074 0.272691 0.10394
H_ H_ 0.400229 0.00639361 0.227334 0.10394
H_ H_ 0.00917021 0.879798 0.204157 0.10394
H_ H_ 0.0571284 0.798392 0.23771 0.10394
H_ H_ 0.419546 0.754907 0.224331 0.10394
H_ H_ 0.375715 0.825071 0.180191 0.10394
H_ H_ 0.46104 0.54976 0.114457 0.10394
H_ H_ 0.014912 0.618421 0.104462 0.10394
H_ H_ 0.129363 0.503748 0.0578304 0.10394
H_ H_ 0.452812 0.65809 0.409687 0.10394
H_ H_ 0.0160164 0.686163 0.450748 0.10394
H_ H_ 0.410118 0.788999 0.0466408 0.10394
H_ H_ 0.343454 0.742759 0.496335 0.10394
H_ H_ 0.235319 0.69694 0.385004 0.10394
H_ H_ 0.196628 0.721662 0.300821 0.10394
H_ H_ 0.343518 0.742075 0.258531 0.10394
H_ H_ 0.383165 0.707142 0.345802 0.10394
H_ H_ 0.281509 0.612943 0.0474422 0.10394
H_ H_ 0.236337 0.585659 0.110036 0.10394
H_ H_ 0.105839 0.579427 0.00336101 0.10394
C_ C_ 0.179349 0.590366 0.30114 0.18167
C_ C_ 0.222248 0.575365 0.277892 -0.15533
C_ C_ 0.234267 0.521867 0.266404 0.02923
C_ C_ 0.207403 0.992663 0.294245 -0.15533
C_ C_ 0.162432 0.505762 0.309315 0.18167
C_ C_ 0.0362229 0.626503 0.275598 0.18167
C_ C_ 0.514702 0.68866 0.243275 -0.15533
C_ C_ 0.0175331 0.717705 0.266665 0.02923
C_ C_ 0.0431549 0.725503 0.317986 -0.15533
C_ C_ 0.0655514 0.682643 0.344866 0.18167
C_ C_ 0.0097501 0.545965 0.370175 0.69207
C_ C_ 0.475546 0.0121075 0.372832 0.02923
C_ C_ 0.49355 0.96013 0.368138 -0.15533
C_ C_ 0.463188 0.922515 0.378737 -0.15533
C_ C_ 0.412218 0.933704 0.388066 0.02923
C_ C_ 0.39463 0.986215 0.391994 -0.15533
C_ C_ 0.425583 0.0254397 0.385403 0.02923
C_ C_ 0.394714 0.566871 0.387325 0.69207
C_ C_ 0.398717 0.838338 0.382484 0.69661
C_ C_ 0.064322 0.795084 0.0928642 0.18167
C_ C_ 0.0165744 0.781511 0.0749217 -0.15533
C_ C_ 0.00583585 0.770314 0.0214225 0.02923
C_ C_ 0.0494181 0.783431 0.492815 -0.15533
C_ C_ 0.0872606 0.800778 0.00876331 0.18167
C_ C_ 0.223915 0.759112 0.135477 0.18167
C_ C_ 0.248937 0.734526 0.178502 -0.15533
C_ C_ 0.24813 0.757223 0.226134 0.02923
C_ C_ 0.22431 0.808596 0.230101 -0.15533
C_ C_ 0.198872 0.832357 0.187832 0.18167
C_ C_ 0.236267 0.863441 0.044108 0.69207
C_ C_ 0.271666 0.881353 0.497038 0.02923
C_ C_ 0.25277 0.882248 0.446565 -0.15533
C_ C_ 0.283852 0.891373 0.40955 -0.15533
C_ C_ 0.334562 0.901454 0.420291 0.02923
C_ C_ 0.352818 0.907113 0.471477 -0.15533
C_ C_ 0.322132 0.897265 0.509706 0.02923
C_ C_ 0.34513 0.89329 0.0701421 0.69207
C_ C_ 0.345093 0.901594 0.324578 0.69661
C_ C_ 0.307291 0.938906 0.178199 0.18167
C_ C_ 0.264504 0.964186 0.202114 -0.15533
C_ C_ 0.272317 1.00452239 0.236449 0.02923
C_ C_ 0.325046 0.52078 0.249004 -0.15533
C_ C_ 0.361752 0.993531 0.222035 0.18167
C_ C_ 0.49041 0.868072 0.207285 0.18167
C_ C_ 0.0155044 0.801734 0.227937 -0.15533
C_ C_ 0.492458 0.783632 0.237262 0.02923
C_ C_ 0.441918 0.783544 0.220838 -0.15533
C_ C_ 0.416876 0.825429 0.193773 0.18167
C_ C_ 0.489505 0.954296 0.108321 0.69207
C_ C_ 0.0173175 0.490358 0.107679 0.02923
C_ C_ -0.000600724 0.543209 0.111678 -0.15533
C_ C_ 0.0329354 0.581517 0.106951 -0.15533
C_ C_ 0.0838751 0.566089 0.097193 0.02923
C_ C_ 0.0974068 0.515268 0.0830315 -0.15533
C_ C_ 0.0669806 0.476875 0.0924777 0.02923
C_ C_ 0.0946991 0.919759 0.115915 0.69207
C_ C_ 0.100626 0.661358 0.103224 0.69661
C_ C_ 0.442436 0.678825 0.443966 0.18167
C_ C_ 0.480617 0.70724 0.467398 -0.15533
C_ C_ 0.467507 0.74992 0.503125 0.02923
C_ C_ 0.419297 0.755346 0.0198026 -0.15533
C_ C_ 0.382136 0.732115 0.487129 0.18167
C_ C_ 0.261733 0.696975 0.355603 0.18167
C_ C_ 0.23954 0.715703 0.308886 -0.15533
C_ C_ 0.268991 0.727728 0.271829 0.02923
C_ C_ 0.321106 0.724596 0.284275 -0.15533
C_ C_ 0.344056 0.703671 0.331267 0.18167
C_ C_ 0.264277 0.624288 0.455774 0.69207
C_ C_ 0.220975 0.61852 0.988244 0.02923
C_ C_ 0.240796 0.613728 0.0388214 -0.15533
C_ C_ 0.213099 0.601762 0.0749156 -0.15533
C_ C_ 0.160182 0.596061 0.0631994 0.02923
C_ C_ 0.141051 0.594475 0.0130535 -0.15533
C_ C_ 0.168538 0.611543 0.976127 0.02923
C_ C_ 0.157934 0.602361 0.431506 0.69207
C_ C_ 0.148985 0.593478 0.159139 0.69661
C_ C_ 0.371765 0.893729 0.379785 -0.30787
C_ C_ 0.122626 0.604397 0.104472 -0.30787
N_ N_ 0.148225 0.556019 0.31172 -0.32189
N_ N_ 0.0628429 0.635355 0.32313 -0.32189
N_ N_ 0.0954125 0.809972 0.061884 -0.32189
N_ N_ 0.193401 0.804455 0.143255 -0.32189
N_ N_ 0.352181 0.955771 0.185236 -0.32189
N_ N_ 0.441236 0.865435 0.186326 -0.32189
N_ N_ 0.392789 0.694585 0.451386 -0.32189
N_ N_ 0.313032 0.691699 0.366378 -0.32189
O_ O_ 0.506441 0.591962 0.395954 -0.63271
O_ O_ 0.0478303 0.536478 0.343203 -0.57982
O_ O_ 0.396456 0.59475 0.346349 -0.63271
O_ O_ 0.369194 0.587795 0.424071 -0.57982
O_ O_ 0.243331 0.884502 0.0913271 -0.63271
O_ O_ 0.200211 0.835015 0.0338995 -0.57982
O_ O_ 0.355338 0.852633 0.0965427 -0.63271
O_ O_ 0.373795 0.927544 0.0862323 -0.57982
O_ O_ 0.987377 0.89974 0.106144 -0.63271
O_ O_ 0.459091 0.964675 0.145081 -0.57982
O_ O_ 0.0902288 0.894255 0.155754 -0.63271
O_ O_ 0.135405 0.90662 0.0917054 -0.57982
O_ O_ 0.259121 0.608682 0.408821 -0.63271
O_ O_ 0.29535 0.657367 0.469414 -0.57982
O_ O_ 0.154316 0.645096 0.407971 -0.63271
O_ O_ 0.124179 0.570517 0.417292 -0.57982
F_ F_ 0.432402 0.832703 0.427488 -0.20885
F_ F_ 0.427497 0.822083 0.342814 -0.20885
F_ F_ 0.363669 0.803159 0.385052 -0.20885
F_ F_ 0.312133 0.946553 0.327027 -0.20885
F_ F_ 0.324479 0.856985 0.3059 -0.20885
F_ F_ 0.379353 0.902785 0.28932 -0.20885
F_ F_ 0.0707685 0.674787 0.0594691 -0.20885
F_ F_ 0.0741986 0.675725 0.144735 -0.20885
F_ F_ 0.139439 0.694131 0.111539 -0.20885
F_ F_ 0.175428 0.54455 0.159496 -0.20885
F_ F_ 0.185813 0.627624 0.175284 -0.20885
F_ F_ 0.121313 0.598363 0.201 -0.20885
Zn Zn 0.082658 0.587829 0.841252 0.83971
Zn Zn 0.159577 0.854581 0.58154 0.83971
Zn Zn 0.409777 0.921146 0.649523 0.83971
Zn Zn 0.335014 0.661221 0.917393 0.83971
H_ H_ 0.168779 0.635125 0.804096 0.10394
H_ H_ 0.249216 0.598741 0.772553 0.10394
H_ H_ 0.205316 0.94546 0.783265 0.10394
H_ H_ 0.125283 0.486887 0.807399 0.10394
H_ H_ 0.525323 0.602296 0.746315 0.10394
H_ H_ 0.488072 0.671749 0.697746 0.10394
H_ H_ 0.0278418 0.772613 0.836532 0.10394
H_ H_ 0.056757 0.690894 0.877791 0.10394
H_ H_ 0.0409698 0.93825 0.885703 0.10394
H_ H_ 0.472596 0.877321 0.874527 0.10394
H_ H_ 0.346038 0.987131 0.90268 0.10394
H_ H_ 0.088083 0.806061 0.634833 0.10394
H_ H_ 0.507207 0.755334 0.60043 0.10394
H_ H_ 0.032598 0.772291 0.947665 0.10394
H_ H_ 0.122817 0.809047 0.483115 0.10394
H_ H_ 0.218174 0.757668 0.595706 0.10394
H_ H_ 0.254052 0.712255 0.672769 0.10394
H_ H_ 0.21215 0.843026 0.770086 0.10394
H_ H_ 0.176684 0.887412 0.690707 0.10394
H_ H_ 0.214082 0.857074 0.943201 0.10394
H_ H_ 0.257016 0.881894 0.873021 0.10394
H_ H_ 0.382536 0.915194 0.986345 0.10394
H_ H_ 0.302603 0.900911 0.653879 0.10394
H_ H_ 0.225497 0.955703 0.686863 0.10394
H_ H_ 0.330581 0.55207 0.773625 0.10394
H_ H_ 0.398011 0.00762626 0.727194 0.10394
H_ H_ 0.00251796 0.892644 0.709314 0.10394
H_ H_ 0.0445077 0.816492 0.749198 0.10394
H_ H_ 0.408985 0.748238 0.707437 0.10394
H_ H_ 0.369391 0.831047 0.672343 0.10394
H_ H_ 0.460607 0.555081 0.620207 0.10394
H_ H_ 0.0196984 0.611917 0.583223 0.10394
H_ H_ 0.141942 0.49999 0.577326 0.10394
H_ H_ 0.438057 0.674341 0.898785 0.10394
H_ H_ 0.0142439 0.672068 0.978441 0.10394
H_ H_ 0.40826 0.78529 0.548243 0.10394
H_ H_ 0.340319 0.74011 0.00261074 0.10394
H_ H_ 0.237625 0.699193 0.878637 0.10394
H_ H_ 0.196008 0.742971 0.804554 0.10394
H_ H_ 0.343035 0.744721 0.750688 0.10394
H_ H_ 0.382662 0.697417 0.820477 0.10394
H_ H_ 0.29264 0.616041 0.561019 0.10394
H_ H_ 0.24081 0.598461 0.622574 0.10394
H_ H_ 0.114311 0.590223 0.512416 0.10394
C_ C_ 0.17642 0.594403 0.798622 0.18167
C_ C_ 0.222773 0.573668 0.779666 -0.15533
C_ C_ 0.229643 0.523124 0.763081 0.02923
C_ C_ 0.19517 0.987824 0.78033 -0.15533
C_ C_ 0.14922 0.511655 0.795443 0.18167
C_ C_ 0.0258735 0.642311 0.762505 0.18167
C_ C_ 0.496147 0.679039 0.739123 -0.15533
C_ C_ 0.00333876 0.733934 0.766147 0.02923
C_ C_ 0.0273986 0.737231 0.814143 -0.15533
C_ C_ 0.0449153 0.692822 0.837079 0.18167
C_ C_ -0.0018049999999999455 0.54475 0.860166 0.69207
C_ C_ 0.466725 0.00707862 0.882599 0.02923
C_ C_ 0.48614 0.954929 0.87468 -0.15533
C_ C_ 0.45557 0.916085 0.880544 -0.15533
C_ C_ 0.404057 0.928219 0.889006 0.02923
C_ C_ 0.385196 0.978565 0.896231 -0.15533
C_ C_ 0.415576 0.0184242 0.889944 0.02923
C_ C_ 0.39449 0.577802 0.884653 0.69207
C_ C_ 0.391588 0.831694 0.88585 0.69661
C_ C_ 0.073463 0.805778 0.593623 0.18167
C_ C_ 0.0282035 0.781893 0.578827 -0.15533
C_ C_ 0.0159261 0.768405 0.525742 0.02923
C_ C_ 0.0427399 0.779062 0.988644 -0.15533
C_ C_ 0.095703 0.801128 0.510036 0.18167
C_ C_ 0.216877 0.776866 0.633105 0.18167
C_ C_ 0.238385 0.75143 0.676244 -0.15533
C_ C_ 0.243382 0.773338 0.726336 0.02923
C_ C_ 0.216947 0.822861 0.731201 -0.15533
C_ C_ 0.193783 0.848025 0.687862 0.18167
C_ C_ 0.236885 0.875693 0.537718 0.69207
C_ C_ 0.268684 0.874042 0.00526072 0.02923
C_ C_ 0.249239 0.873976 0.953156 -0.15533
C_ C_ 0.2754 0.886387 0.914274 -0.15533
C_ C_ 0.327287 0.893149 0.92516 0.02923
C_ C_ 0.346601 0.898136 0.9754 -0.15533
C_ C_ 0.319323 0.889893 0.0164243 0.02923
C_ C_ 0.350125 0.889039 0.560441 0.69207
C_ C_ 0.346357 0.890819 0.824701 0.69661
C_ C_ 0.308274 0.933086 0.679508 0.18167
C_ C_ 0.26583 0.961827 0.69981 -0.15533
C_ C_ 0.273932 0.99782471 0.739255 0.02923
C_ C_ 0.323703 0.51849 0.748514 -0.15533
C_ C_ 0.361835 0.99418 0.719208 0.18167
C_ C_ 0.488936 0.856241 0.698614 0.18167
C_ C_ 0.00435281 0.821081 0.740731 -0.15533
C_ C_ 0.480409 0.774993 0.729668 0.02923
C_ C_ 0.431264 0.777782 0.702427 -0.15533
C_ C_ 0.41 0.823655 0.681728 0.18167
C_ C_ 0.486389 0.962039 0.626336 0.69207
C_ C_ 0.027489 0.491941 0.627105 0.02923
C_ C_ 1.00878087 0.54344 0.61949 -0.15533
C_ C_ 0.0392403 0.57835 0.603243 -0.15533
C_ C_ 0.0913072 0.564373 0.599512 0.02923
C_ C_ 0.107105 0.512888 0.594308 -0.15533
C_ C_ 0.0784308 0.475849 0.612858 0.02923
C_ C_ 0.0936825 0.929942 0.604814 0.69207
C_ C_ 0.106341 0.659955 0.611102 0.69661
C_ C_ 0.434945 0.686688 0.937581 0.18167
C_ C_ 0.476971 0.710997 0.963306 -0.15533
C_ C_ 0.468276 0.748401 0.00192461 0.02923
C_ C_ 0.418909 0.759589 0.51441 -0.15533
C_ C_ 0.377955 0.730773 0.992645 0.18167
C_ C_ 0.260444 0.710443 0.850895 0.18167
C_ C_ 0.236601 0.733913 0.807464 -0.15533
C_ C_ 0.265785 0.746306 0.770428 0.02923
C_ C_ 0.319342 0.738462 0.77885 -0.15533
C_ C_ 0.341098 0.70898 0.818781 0.18167
C_ C_ 0.254417 0.625194 0.949022 0.69207
C_ C_ 0.233344 0.610236 0.495753 0.02923
C_ C_ 0.25248 0.615059 0.547955 -0.15533
C_ C_ 0.22115 0.607074 0.58577 -0.15533
C_ C_ 0.168819 0.600161 0.573358 0.02923
C_ C_ 0.15264 0.595686 0.522674 -0.15533
C_ C_ 0.183224 0.601864 0.485116 0.02923
C_ C_ 0.140679 0.617049 0.924727 0.69207
C_ C_ 0.149565 0.595656 0.6688 0.69661
C_ C_ 0.36615 0.88736 0.882377 -0.30787
C_ C_ 0.128883 0.605276 0.613479 -0.30787
N_ N_ 0.13957 0.563295 0.804223 -0.32189
N_ N_ 0.0483216 0.645299 0.810594 -0.32189
N_ N_ 0.105815 0.814276 0.559951 -0.32189
N_ N_ 0.193662 0.824834 0.640458 -0.32189
N_ N_ 0.353523 0.951497 0.687149 -0.32189
N_ N_ 0.440714 0.859554 0.676821 -0.32189
N_ N_ 0.38728 0.698702 0.951153 -0.32189
N_ N_ 0.310749 0.697271 0.855765 -0.32189
O_ O_ 0.494981 0.600651 0.875844 -0.63271
O_ O_ 0.0434057 0.534006 0.841504 -0.57982
O_ O_ 0.383459 0.60208 0.841174 -0.63271
O_ O_ 0.370333 0.597502 0.925485 -0.57982
O_ O_ 0.238413 0.903536 0.581551 -0.63271
O_ O_ 0.201032 0.845972 0.53125 -0.57982
O_ O_ 0.34722 0.84663 0.583816 -0.63271
O_ O_ 0.379892 0.923006 0.584174 -0.57982
O_ O_ 0.990661 0.909333 0.604851 -0.63271
O_ O_ 0.456068 0.966248 0.661305 -0.57982
O_ O_ 0.0880005 0.904238 0.64505 -0.63271
O_ O_ 0.124849 0.913355 0.57229 -0.57982
O_ O_ 0.253867 0.598644 0.904116 -0.63271
O_ O_ 0.286793 0.658407 0.960687 -0.57982
O_ O_ 0.144774 0.658943 0.900298 -0.63271
O_ O_ 0.105556 0.588635 0.90856 -0.57982
F_ F_ 0.420029 0.833814 0.932473 -0.20885
F_ F_ 0.422384 0.81178 0.84956 -0.20885
F_ F_ 0.357818 0.796862 0.887563 -0.20885
F_ F_ 0.313366 0.934349 0.821361 -0.20885
F_ F_ 0.314764 0.854089 0.80512 -0.20885
F_ F_ 0.385418 0.887269 0.793514 -0.20885
F_ F_ 0.0814184 0.675728 0.565642 -0.20885
F_ F_ 0.0703546 0.67287 0.646308 -0.20885
F_ F_ 0.142955 0.694207 0.62379 -0.20885
F_ F_ 0.179062 0.547836 0.670753 -0.20885
F_ F_ 0.180321 0.632267 0.690399 -0.20885
F_ F_ 0.112517 0.6004 0.704087 -0.20885
Zn Zn 0.592464 0.0886932 0.346004 0.83971
Zn Zn 0.66014 0.341714 0.0867316 0.83971
Zn Zn 0.907913 0.412588 0.151153 0.83971
Zn Zn 0.836482 0.154676 0.418491 0.83971
H_ H_ 0.675808 0.128658 0.308172 0.10394
H_ H_ 0.75611 0.0919804 0.26646 0.10394
H_ H_ 0.710762 0.445103 0.292409 0.10394
H_ H_ 0.631576 0.981806 0.321262 0.10394
H_ H_ 0.0207628 0.0878122 0.250376 0.10394
H_ H_ 0.980099 0.164242 0.205352 0.10394
H_ H_ 0.543323 0.273475 0.323048 0.10394
H_ H_ 0.588917 0.198469 0.367958 0.10394
H_ H_ 0.539356 0.447834 0.369418 0.10394
H_ H_ 0.985185 0.380326 0.376987 0.10394
H_ H_ 0.860973 0.492927 0.41144 0.10394
H_ H_ 0.580606 0.295882 0.131578 0.10394
H_ H_ 1.00368415 0.262375 0.091039 0.10394
H_ H_ 0.541413 0.285093 0.444725 0.10394
H_ H_ 0.620845 0.321602 0.983817 0.10394
H_ H_ 0.713468 0.244062 0.0935463 0.10394
H_ H_ 0.760273 0.198059 0.169481 0.10394
H_ H_ 0.721544 0.327059 0.269171 0.10394
H_ H_ 0.674392 0.368699 0.201707 0.10394
H_ H_ 0.713454 0.368813 0.43582 0.10394
H_ H_ 0.769883 0.374071 0.370543 0.10394
H_ H_ 0.893623 0.399048 0.484213 0.10394
H_ H_ 0.807465 0.383123 0.168421 0.10394
H_ H_ 0.730369 0.433963 0.196219 0.10394
H_ H_ 0.840266 0.0286417 0.289723 0.10394
H_ H_ 0.891402 0.509466 0.209313 0.10394
H_ H_ 0.521785 0.387845 0.20505 0.10394
H_ H_ 0.560371 0.307816 0.238436 0.10394
H_ H_ 0.912768 0.241756 0.22014 0.10394
H_ H_ 0.873403 0.318262 0.183519 0.10394
H_ H_ 0.964936 0.049438 0.141494 0.10394
H_ H_ 0.529432 0.121734 0.111184 0.10394
H_ H_ 0.656824 0.000220000000000109 0.0963385 0.10394
H_ H_ 0.944608 0.160919 0.396387 0.10394
H_ H_ 0.518373 0.196482 0.441924 0.10394
H_ H_ 0.917029 0.288538 0.0298501 0.10394
H_ H_ 0.84361 0.241365 0.495679 0.10394
H_ H_ 0.736319 0.201448 0.383007 0.10394
H_ H_ 0.699308 0.233061 0.302541 0.10394
H_ H_ 0.845937 0.21461 0.244866 0.10394
H_ H_ 0.884542 0.188882 0.329075 0.10394
H_ H_ 0.797173 0.103791 0.0450895 0.10394
H_ H_ 0.743868 0.093488 0.115089 0.10394
H_ H_ 0.613753 0.0951841 0.00852285 0.10394
C_ C_ 0.682535 0.0886072 0.29917 0.18167
C_ C_ 0.72779 0.0676971 0.277323 -0.15533
C_ C_ 0.735745 0.0133599 0.268915 0.02923
C_ C_ 0.698826 0.48568 0.290557 -0.15533
C_ C_ 0.652567 0.00721897 0.301012 0.18167
C_ C_ 0.527669 0.13634 0.269907 0.18167
C_ C_ 0.0022899999999999032 0.168659 0.238477 -0.15533
C_ C_ 0.51945 0.226668 0.255219 0.02923
C_ C_ 0.54244 0.233724 0.305068 -0.15533
C_ C_ 0.563334 0.192225 0.332378 0.18167
C_ C_ 0.511342 0.051411 0.36783 0.69207
C_ C_ 0.973062 0.507412 0.372427 0.02923
C_ C_ 0.991066 0.455713 0.361896 -0.15533
C_ C_ 0.964172 0.417054 0.375649 -0.15533
C_ C_ 0.913491 0.426198 0.387669 0.02923
C_ C_ 0.895177 0.478367 0.3963 -0.15533
C_ C_ 0.921644 0.517611 0.385037 0.02923
C_ C_ 0.898286 0.0706502 0.383197 0.69207
C_ C_ 0.907051 0.32815 0.384812 0.69661
C_ C_ 0.573184 0.292428 0.0905032 0.18167
C_ C_ 0.525194 0.278773 0.0700662 -0.15533
C_ C_ 0.512757 0.275077 0.0180294 0.02923
C_ C_ 0.55027 0.28892 0.486166 -0.15533
C_ C_ 0.592611 0.308624 0.00825602 0.18167
C_ C_ 0.719758 0.265195 0.133078 0.18167
C_ C_ 0.743134 0.236348 0.173208 -0.15533
C_ C_ 0.743862 0.258267 0.225788 0.02923
C_ C_ 0.727503 0.311119 0.232288 -0.15533
C_ C_ 0.699966 0.33592 0.19179 0.18167
C_ C_ 0.741383 0.359869 0.0483306 0.69207
C_ C_ 0.771255 0.372568 0.498524 0.02923
C_ C_ 0.753543 0.372084 0.447675 -0.15533
C_ C_ 0.787517 0.376322 0.409584 -0.15533
C_ C_ 0.838623 0.385583 0.422048 0.02923
C_ C_ 0.854927 0.391757 0.474788 -0.15533
C_ C_ 0.822796 0.383231 0.513817 0.02923
C_ C_ 0.851207 0.374746 0.0680152 0.69207
C_ C_ 0.853623 0.384312 0.327303 0.69661
C_ C_ 0.811472 0.419842 0.187266 0.18167
C_ C_ 0.766125 0.451107 0.203211 -0.15533
C_ C_ 0.772193 0.494993 0.236246 0.02923
C_ C_ 0.831257 0.00221555 0.256964 -0.15533
C_ C_ 0.859114 0.490334 0.212803 0.18167
C_ C_ 0.99578 0.342839 0.191611 0.18167
C_ C_ 0.521109 0.312222 0.222844 -0.15533
C_ C_ 0.988862 0.261476 0.223979 0.02923
C_ C_ 0.936494 0.270262 0.214379 -0.15533
C_ C_ 0.91431 0.314362 0.192297 0.18167
C_ C_ 0.980388 0.454497 0.116725 0.69207
C_ C_ 0.528179 0.989462 0.103001 0.02923
C_ C_ 0.51166 0.0443198 0.107542 -0.15533
C_ C_ 0.545472 0.0811331 0.103583 -0.15533
C_ C_ 0.598248 0.0657798 0.100551 0.02923
C_ C_ 0.614306 0.0121755 0.0943334 -0.15533
C_ C_ 0.580786 0.975864 0.0981153 0.02923
C_ C_ 0.598476 0.423542 0.109256 0.69207
C_ C_ 0.61455 0.161384 0.107769 0.69661
C_ C_ 0.937733 0.18279 0.431261 0.18167
C_ C_ 0.97911 0.202373 0.459115 -0.15533
C_ C_ 0.970597 0.238285 0.499481 0.02923
C_ C_ 0.924058 0.261821 0.00109656 -0.15533
C_ C_ 0.881694 0.230133 0.48789 0.18167
C_ C_ 0.761472 0.200609 0.354188 0.18167
C_ C_ 0.737862 0.217087 0.305033 -0.15533
C_ C_ 0.768281 0.226287 0.268046 0.02923
C_ C_ 0.821959 0.213128 0.275123 -0.15533
C_ C_ 0.842601 0.194167 0.32269 0.18167
C_ C_ 0.765186 0.130979 0.456762 0.69207
C_ C_ 0.732784 0.112625 0.987445 0.02923
C_ C_ 0.755889 0.105124 0.0371224 -0.15533
C_ C_ 0.725918 0.0947503 0.0763534 -0.15533
C_ C_ 0.672757 0.095973 0.0671686 0.02923
C_ C_ 0.653251 0.0931002 0.0160596 -0.15533
C_ C_ 0.681036 0.104078 0.976932 0.02923
C_ C_ 0.653509 0.121141 0.429556 0.69207
C_ C_ 0.665515 0.0983334 0.162593 0.69661
C_ C_ 0.877824 0.38312 0.382412 -0.30787
C_ C_ 0.637214 0.104649 0.109793 -0.30787
N_ N_ 0.647646 0.0577847 0.30992 -0.32189
N_ N_ 0.557333 0.144109 0.313875 -0.32189
N_ N_ 0.604842 0.308084 0.058977 -0.32189
N_ N_ 0.69612 0.312425 0.143713 -0.32189
N_ N_ 0.857769 0.440754 0.19338 -0.32189
N_ N_ 0.942812 0.35017 0.178105 -0.32189
N_ N_ 0.890844 0.192507 0.448868 -0.32189
N_ N_ 0.813018 0.186819 0.360561 -0.32189
O_ O_ 0.00279686 0.0858176 0.393701 -0.63271
O_ O_ 0.548741 0.0414986 0.338139 -0.57982
O_ O_ 0.89177 0.0966747 0.340988 -0.63271
O_ O_ 0.872033 0.091458 0.422354 -0.57982
O_ O_ 0.743716 0.387338 0.0912934 -0.63271
O_ O_ 0.70191 0.332609 0.0373235 -0.57982
O_ O_ 0.857168 0.330919 0.0906528 -0.63271
O_ O_ 0.866176 0.415831 0.0928446 -0.57982
O_ O_ 0.48793 0.409359 0.0950124 -0.63271
O_ O_ 0.948438 0.4657 0.149367 -0.57982
O_ O_ 0.594496 0.398679 0.150181 -0.63271
O_ O_ 0.629363 0.405277 0.0750211 -0.57982
O_ O_ 0.763421 0.103454 0.41243 -0.63271
O_ O_ 0.792529 0.167915 0.462467 -0.57982
O_ O_ 0.668542 0.153372 0.400399 -0.63271
O_ O_ 0.611892 0.0999575 0.414228 -0.57982
F_ F_ 0.937006 0.327692 0.430224 -0.20885
F_ F_ 0.931571 0.309407 0.342942 -0.20885
F_ F_ 0.873216 0.29399 0.388716 -0.20885
F_ F_ 0.820035 0.427238 0.325787 -0.20885
F_ F_ 0.827648 0.344329 0.312583 -0.20885
F_ F_ 0.886756 0.385537 0.288117 -0.20885
F_ F_ 0.579326 0.165245 0.0639217 -0.20885
F_ F_ 0.587662 0.184413 0.146012 -0.20885
F_ F_ 0.650184 0.1949 0.104592 -0.20885
F_ F_ 0.695545 0.0508758 0.164554 -0.20885
F_ F_ 0.697709 0.135604 0.178553 -0.20885
F_ F_ 0.632859 0.100391 0.200672 -0.20885
Zn Zn 0.58471 0.0885733 0.852689 0.83971
Zn Zn 0.661609 0.343792 0.580612 0.83971
Zn Zn 0.908623 0.4151 0.653013 0.83971
Zn Zn 0.845101 0.152202 0.908815 0.83971
H_ H_ 0.656783 0.141434 0.799338 0.10394
H_ H_ 0.734436 0.111036 0.758482 0.10394
H_ H_ 0.713508 0.447097 0.786783 0.10394
H_ H_ 0.627314 0.993551 0.830064 0.10394
H_ H_ 0.0223364 0.0945128 0.760217 0.10394
H_ H_ 0.978588 0.166234 0.711322 0.10394
H_ H_ 0.546812 0.271702 0.832064 0.10394
H_ H_ 0.577924 0.196737 0.877396 0.10394
H_ H_ 0.520486 0.449219 0.845988 0.10394
H_ H_ 0.967693 0.378403 0.853289 0.10394
H_ H_ 0.843698 0.484179 0.899151 0.10394
H_ H_ 0.583609 0.300393 0.63073 0.10394
H_ H_ -0.004136999999999946 0.273667 0.598184 0.10394
H_ H_ 0.534714 0.292806 0.943957 0.10394
H_ H_ 0.625218 0.312869 0.48204 0.10394
H_ H_ 0.718893 0.250816 0.594188 0.10394
H_ H_ 0.751329 0.195291 0.659675 0.10394
H_ H_ 0.722262 0.326029 0.766423 0.10394
H_ H_ 0.681169 0.377164 0.693371 0.10394
H_ H_ 0.711324 0.373067 0.946062 0.10394
H_ H_ 0.766008 0.375256 0.880468 0.10394
H_ H_ 0.89752 0.393266 0.986218 0.10394
H_ H_ 0.799925 0.397084 0.656158 0.10394
H_ H_ 0.73204 0.449944 0.69467 0.10394
H_ H_ 0.830398 0.0497268 0.788335 0.10394
H_ H_ 0.90826 0.493963 0.734362 0.10394
H_ H_ 0.518861 0.379587 0.694073 0.10394
H_ H_ 0.558875 0.302932 0.73261 0.10394
H_ H_ 0.907562 0.246293 0.725512 0.10394
H_ H_ 0.868208 0.324878 0.683029 0.10394
H_ H_ 0.959951 0.0595149 0.616695 0.10394
H_ H_ 0.519972 0.128416 0.614015 0.10394
H_ H_ 0.636802 0.0141095 0.572713 0.10394
H_ H_ 0.942239 0.161792 0.890005 0.10394
H_ H_ 0.509834 0.204258 0.936707 0.10394
H_ H_ 0.914994 0.280149 0.545288 0.10394
H_ H_ 0.846726 0.242576 -0.007489999999999997 0.10394
H_ H_ 0.745549 0.203137 0.884914 0.10394
H_ H_ 0.697667 0.245479 0.810831 0.10394
H_ H_ 0.825295 0.192445 0.727756 0.10394
H_ H_ 0.877116 0.163061 0.807276 0.10394
H_ H_ 0.782321 0.136334 0.556254 0.10394
H_ H_ 0.731581 0.115073 0.623357 0.10394
H_ H_ 0.608348 0.0937821 0.504365 0.10394
C_ C_ 0.670095 0.100561 0.801096 0.18167
C_ C_ 0.716533 0.0831443 0.781157 -0.15533
C_ C_ 0.73195 0.0291335 0.778882 0.02923
C_ C_ 0.703658 0.488708 0.791367 -0.15533
C_ C_ 0.651663 0.0158512 0.812771 0.18167
C_ C_ 0.522818 0.137067 0.779021 0.18167
C_ C_ 0.0010099999999999554 0.171679 0.7455 -0.15533
C_ C_ 0.506186 0.227357 0.768802 0.02923
C_ C_ 0.533743 0.235409 0.819331 -0.15533
C_ C_ 0.548622 0.193365 0.848122 0.18167
C_ C_ 0.502881 0.0449482 0.879107 0.69207
C_ C_ 0.962583 0.506223 0.86629 0.02923
C_ C_ 0.982802 0.456631 0.858628 -0.15533
C_ C_ 0.954387 0.415655 0.864453 -0.15533
C_ C_ 0.905244 0.424847 0.884851 0.02923
C_ C_ 0.884288 0.476611 0.88973 -0.15533
C_ C_ 0.914169 0.517183 0.884389 0.02923
C_ C_ 0.907418 0.0684341 0.890811 0.69207
C_ C_ 0.900909 0.32853 0.884584 0.69661
C_ C_ 0.573155 0.300224 0.589541 0.18167
C_ C_ 0.527184 0.287743 0.570761 -0.15533
C_ C_ 0.51625 0.275514 0.519512 0.02923
C_ C_ 0.546747 0.291907 0.986031 -0.15533
C_ C_ 0.597905 0.304666 0.50754 0.18167
C_ C_ 0.719978 0.266368 0.630356 0.18167
C_ C_ 0.739889 0.234858 0.67001 -0.15533
C_ C_ 0.737596 0.255367 0.720621 0.02923
C_ C_ 0.718079 0.307326 0.728506 -0.15533
C_ C_ 0.697768 0.336004 0.687909 0.18167
C_ C_ 0.736312 0.372191 0.536323 0.69207
C_ C_ 0.775089 0.368557 1.00729392 0.02923
C_ C_ 0.752471 0.377678 0.958238 -0.15533
C_ C_ 0.783257 0.38071 0.917386 -0.15533
C_ C_ 0.834544 0.387199 0.926036 0.02923
C_ C_ 0.85467 0.392592 0.974755 -0.15533
C_ C_ 0.826208 0.377569 0.0157403 0.02923
C_ C_ 0.849973 0.38242 0.568886 0.69207
C_ C_ 0.842692 0.381873 0.826906 0.69661
C_ C_ 0.809373 0.431489 0.679591 0.18167
C_ C_ 0.770771 0.460265 0.702089 -0.15533
C_ C_ 0.77976 0.497565 0.742037 0.02923
C_ C_ 0.822742 0.0253061 0.756821 -0.15533
C_ C_ 0.869562 0.482047 0.730415 0.18167
C_ C_ 0.991151 0.348409 0.701107 0.18167
C_ C_ 0.518016 0.309073 0.727169 -0.15533
C_ C_ 0.982556 0.265887 0.733317 0.02923
C_ C_ 0.930794 0.27509 0.719815 -0.15533
C_ C_ 0.908573 0.319079 0.695233 0.18167
C_ C_ 0.988306 0.455767 0.630011 0.69207
C_ C_ 0.523521 1.00009 0.621032 0.02923
C_ C_ 0.505684 0.0533037 0.623363 -0.15533
C_ C_ 0.534831 0.0891376 0.60767 -0.15533
C_ C_ 0.585145 0.0758756 0.59884 0.02923
C_ C_ 0.600835 0.0240622 0.589648 -0.15533
C_ C_ 0.57117 0.98392 0.60031 0.02923
C_ C_ 0.597745 0.423809 0.606283 0.69207
C_ C_ 0.597928 0.171663 0.600394 0.69661
C_ C_ 0.938263 0.186591 0.926089 0.18167
C_ C_ 0.979637 0.205632 0.954981 -0.15533
C_ C_ 0.972591 0.246086 -0.010657999999999945 0.02923
C_ C_ 0.922921 0.254131 0.512342 -0.15533
C_ C_ 0.88578 0.229643 0.984782 0.18167
C_ C_ 0.762207 0.201478 0.85183 0.18167
C_ C_ 0.736409 0.223978 0.809022 -0.15533
C_ C_ 0.76258 0.225541 0.765225 0.02923
C_ C_ 0.81015 0.197883 0.762477 -0.15533
C_ C_ 0.835652 0.178154 0.806641 0.18167
C_ C_ 0.76553 0.121386 0.946717 0.69207
C_ C_ 0.728841 0.12401 0.493586 0.02923
C_ C_ 0.74679 0.124154 0.544732 -0.15533
C_ C_ 0.715532 0.117131 0.583266 -0.15533
C_ C_ 0.665172 0.106136 0.570072 0.02923
C_ C_ 0.647936 0.102311 0.516101 -0.15533
C_ C_ 0.675488 0.119048 0.481182 0.02923
C_ C_ 0.652825 0.10936 0.92504 0.69207
C_ C_ 0.639373 0.11227 0.664414 0.69661
C_ C_ 0.868842 0.38059 0.882369 -0.30787
C_ C_ 0.622942 0.11593 0.607216 -0.30787
N_ N_ 0.639231 0.0669436 0.815245 -0.32189
N_ N_ 0.543915 0.14465 0.82726 -0.32189
N_ N_ 0.608095 0.308373 0.559425 -0.32189
N_ N_ 0.696823 0.314668 0.639919 -0.32189
N_ N_ 0.859323 0.442119 0.695782 -0.32189
N_ N_ 0.939317 0.352053 0.683956 -0.32189
N_ N_ 0.892808 0.193452 0.945241 -0.32189
N_ N_ 0.80988 0.175945 0.849368 -0.32189
O_ O_ 0.00569925 0.0866498 0.897717 -0.63271
O_ O_ 0.534397 0.0416049 0.844623 -0.57982
O_ O_ 0.905583 0.0881009 0.846178 -0.63271
O_ O_ 0.873776 0.0891781 0.920773 -0.57982
O_ O_ 0.739022 0.4041 0.577506 -0.63271
O_ O_ 0.707369 0.335792 0.533531 -0.57982
O_ O_ 0.854071 0.341317 0.595141 -0.63271
O_ O_ 0.876545 0.419702 0.58558 -0.57982
O_ O_ 0.486195 0.40554 0.600671 -0.63271
O_ O_ 0.957526 0.460038 0.665552 -0.57982
O_ O_ 0.59355 0.398805 0.645577 -0.63271
O_ O_ 0.63185 0.406841 0.576251 -0.57982
O_ O_ 0.758844 0.0962244 0.902433 -0.63271
O_ O_ 0.800073 0.154428 0.954261 -0.57982
O_ O_ 0.65446 0.153154 0.903393 -0.63271
O_ O_ 0.614027 0.0825002 0.912863 -0.57982
F_ F_ 0.934168 0.330335 0.927477 -0.20885
F_ F_ 0.920864 0.305135 0.842777 -0.20885
F_ F_ 0.868008 0.293538 0.892826 -0.20885
F_ F_ 0.806436 0.424656 0.820497 -0.20885
F_ F_ 0.817345 0.339417 0.814472 -0.20885
F_ F_ 0.875386 0.379762 0.787507 -0.20885
F_ F_ 0.566356 0.17333 0.554376 -0.20885
F_ F_ 0.571868 0.192323 0.64143 -0.20885
F_ F_ 0.634422 0.204297 0.594667 -0.20885
F_ F_ 0.665916 0.0646184 0.674281 -0.20885
F_ F_ 0.670213 0.149343 0.682571 -0.20885
F_ F_ 0.602301 0.108946 0.69779 -0.20885
Zn Zn 0.586974 0.590972 0.348632 0.83971
Zn Zn 0.666054 0.835115 0.0811349 0.83971
Zn Zn 0.9117 0.9046 0.156092 0.83971
Zn Zn 0.841029 0.654168 0.417112 0.83971
H_ H_ 0.66241 0.632778 0.291673 0.10394
H_ H_ 0.740379 0.595782 0.254802 0.10394
H_ H_ 0.693478 0.944319 0.266059 0.10394
H_ H_ 0.636001 0.488917 0.338529 0.10394
H_ H_ 0.0418717 0.588001 0.25818 0.10394
H_ H_ 1.00475 0.662546 0.204378 0.10394
H_ H_ 0.53725 0.785734 0.331002 0.10394
H_ H_ 0.580823 0.711165 0.377097 0.10394
H_ H_ 0.529562 0.950823 0.354208 0.10394
H_ H_ 0.97119 0.872817 0.370882 0.10394
H_ H_ 0.84711 0.986301 0.401311 0.10394
H_ H_ 0.588008 0.793554 0.134663 0.10394
H_ H_ 0.993178 0.769981 0.102709 0.10394
H_ H_ 0.529205 0.801708 0.452259 0.10394
H_ H_ 0.610193 0.829359 0.980726 0.10394
H_ H_ 0.727769 0.7377 0.104922 0.10394
H_ H_ 0.761158 0.699297 0.182899 0.10394
H_ H_ 0.729863 0.841996 0.263728 0.10394
H_ H_ 0.676455 0.874411 0.186383 0.10394
H_ H_ 0.715277 0.860188 0.449791 0.10394
H_ H_ 0.76269 0.881646 0.382351 0.10394
H_ H_ 0.895368 0.899901 0.487321 0.10394
H_ H_ 0.811219 0.890784 0.160233 0.10394
H_ H_ 0.737609 0.945378 0.18869 0.10394
H_ H_ 0.825531 0.547405 0.261821 0.10394
H_ H_ 0.907683 0.992893 0.236023 0.10394
H_ H_ 0.511492 0.902561 0.200439 0.10394
H_ H_ 0.556506 0.828584 0.243253 0.10394
H_ H_ 0.91643 0.735821 0.228733 0.10394
H_ H_ 0.871283 0.81021 0.18401 0.10394
H_ H_ 0.958247 0.553916 0.110924 0.10394
H_ H_ 0.511638 0.614351 0.0900914 0.10394
H_ H_ 0.645109 0.505969 0.0937194 0.10394
H_ H_ 0.945261 0.664757 0.395655 0.10394
H_ H_ 0.520037 0.694541 0.459763 0.10394
H_ H_ 0.904066 0.793722 0.0209885 0.10394
H_ H_ 0.845335 0.732022 0.500782 0.10394
H_ H_ 0.733742 0.683908 0.38244 0.10394
H_ H_ 0.693527 0.737043 0.313199 0.10394
H_ H_ 0.840198 0.752186 0.266526 0.10394
H_ H_ 0.878873 0.691187 0.332586 0.10394
H_ H_ 0.779428 0.64181 0.0499579 0.10394
H_ H_ 0.724199 0.632286 0.116572 0.10394
H_ H_ 0.60546 0.590489 0.00552481 0.10394
C_ C_ 0.674926 0.592606 0.298218 0.18167
C_ C_ 0.717714 0.570982 0.273599 -0.15533
C_ C_ 0.73109 0.518763 0.269943 0.02923
C_ C_ 0.69422 0.984369 0.277972 -0.15533
C_ C_ 0.654095 0.508542 0.312386 0.18167
C_ C_ 0.533023 0.648031 0.273501 0.18167
C_ C_ 0.0177849 0.667878 0.244367 -0.15533
C_ C_ 0.518935 0.739407 0.262579 0.02923
C_ C_ 0.545664 0.746723 0.310417 -0.15533
C_ C_ 0.563526 0.70437 0.339778 0.18167
C_ C_ 0.508576 0.547884 0.371678 0.69207
C_ C_ 0.972116 0.00121486 0.374757 0.02923
C_ C_ -0.011402000000000023 0.949363 0.373445 -0.15533
C_ C_ 0.955224 0.911971 0.376968 -0.15533
C_ C_ 0.905654 0.926138 0.385507 0.02923
C_ C_ 0.887773 0.976788 0.393311 -0.15533
C_ C_ 0.919421 0.0151387 0.3838 0.02923
C_ C_ 0.898596 0.572066 0.386532 0.69207
C_ C_ 0.892125 0.826764 0.388059 0.69661
C_ C_ 0.574728 0.794253 0.091482 0.18167
C_ C_ 0.528017 0.778497 0.0757292 -0.15533
C_ C_ 0.508365 0.781148 0.0233369 0.02923
C_ C_ 0.539291 0.801377 0.493702 -0.15533
C_ C_ 0.588779 0.811764 0.00694521 0.18167
C_ C_ 0.719954 0.758846 0.139518 0.18167
C_ C_ 0.738443 0.735775 0.18543 -0.15533
C_ C_ 0.742328 0.765822 0.231847 0.02923
C_ C_ 0.717198 0.815255 0.233311 -0.15533
C_ C_ 0.692951 0.834912 0.1881 0.18167
C_ C_ 0.746653 0.855105 0.0472907 0.69207
C_ C_ 0.776414 0.870932 0.510276 0.02923
C_ C_ 0.756791 0.866823 0.45864 -0.15533
C_ C_ 0.782278 0.87738 0.419207 -0.15533
C_ C_ 0.833367 0.889755 0.427649 0.02923
C_ C_ 0.855535 0.896831 0.478873 -0.15533
C_ C_ 0.825785 0.888835 0.519797 0.02923
C_ C_ 0.858161 0.873167 0.0749781 0.69207
C_ C_ 0.838335 0.887566 0.32904 0.69661
C_ C_ 0.815402 0.925185 0.180088 0.18167
C_ C_ 0.775905 0.951138 0.202557 -0.15533
C_ C_ 0.782134 0.989972 0.241918 0.02923
C_ C_ 0.81915 0.515025 0.239354 -0.15533
C_ C_ 0.871664 0.978623 0.229041 0.18167
C_ C_ 0.989592 0.847288 0.208352 0.18167
C_ C_ 0.516841 0.827058 0.230562 -0.15533
C_ C_ 0.988802 0.763258 0.238327 0.02923
C_ C_ 0.936688 0.765973 0.221102 -0.15533
C_ C_ 0.91316 0.808488 0.196178 0.18167
C_ C_ 0.982577 0.945154 0.128339 0.69207
C_ C_ 0.521977 0.488682 0.111873 0.02923
C_ C_ 0.500435 0.540534 0.108898 -0.15533
C_ C_ 0.53175 0.57764 0.100308 -0.15533
C_ C_ 0.584331 0.5671 0.0926594 0.02923
C_ C_ 0.604237 0.516001 0.0952268 -0.15533
C_ C_ 0.573784 0.477226 0.106132 0.02923
C_ C_ 0.603798 0.922472 0.102805 0.69207
C_ C_ 0.595291 0.667566 0.104616 0.69661
C_ C_ 0.940859 0.687943 0.430282 0.18167
C_ C_ 0.981389 0.705516 0.46029 -0.15533
C_ C_ 0.974969 0.737431 0.504169 0.02923
C_ C_ 0.913602 0.755619 1.00612767 -0.15533
C_ C_ 0.884454 0.723075 0.48973 0.18167
C_ C_ 0.757829 0.698103 0.355621 0.18167
C_ C_ 0.7341 0.723675 0.311602 -0.15533
C_ C_ 0.764663 0.742019 0.278987 0.02923
C_ C_ 0.817975 0.733215 0.287745 -0.15533
C_ C_ 0.838396 0.699595 0.327378 0.18167
C_ C_ 0.767069 0.614792 0.454958 0.69207
C_ C_ 0.724064 0.621201 0.988967 0.02923
C_ C_ 0.739916 0.629803 0.039729 -0.15533
C_ C_ 0.710559 0.623054 0.0786787 -0.15533
C_ C_ 0.663505 0.603005 0.0673523 0.02923
C_ C_ 0.644133 0.600597 0.0152377 -0.15533
C_ C_ 0.671805 0.612863 0.976752 0.02923
C_ C_ 0.651358 0.606154 0.428628 0.69207
C_ C_ 0.647 0.601074 0.162813 0.69661
C_ C_ 0.868208 0.883381 0.384042 -0.30787
C_ C_ 0.621589 0.609418 0.105949 -0.30787
N_ N_ 0.64221 0.561292 0.312564 -0.32189
N_ N_ 0.557709 0.656023 0.320993 -0.32189
N_ N_ 0.606731 0.804924 0.0567877 -0.32189
N_ N_ 0.693721 0.805963 0.142725 -0.32189
N_ N_ 0.862606 0.941007 0.192785 -0.32189
N_ N_ 0.941002 0.847643 0.187277 -0.32189
N_ N_ 0.892512 0.694694 0.446199 -0.32189
N_ N_ 0.808176 0.68088 0.357552 -0.32189
O_ O_ 3.7862e-05 0.592074 0.391108 -0.63271
O_ O_ 0.538574 0.542239 0.335055 -0.57982
O_ O_ 0.891707 0.595391 0.341127 -0.63271
O_ O_ 0.874922 0.590353 0.426158 -0.57982
O_ O_ 0.749235 0.882184 0.0934424 -0.63271
O_ O_ 0.707903 0.83022 0.0316702 -0.57982
O_ O_ 0.855875 0.832478 0.102202 -0.63271
O_ O_ 0.883713 0.910519 0.0946662 -0.57982
O_ O_ 0.489672 0.907132 0.0867185 -0.63271
O_ O_ 0.951274 0.953951 0.16267 -0.57982
O_ O_ 0.590299 0.895565 0.138336 -0.63271
O_ O_ 0.643177 0.904345 0.0781619 -0.57982
O_ O_ 0.768266 0.5866 0.411302 -0.63271
O_ O_ 0.793958 0.653323 0.460628 -0.57982
O_ O_ 0.662422 0.644187 0.400722 -0.63271
O_ O_ 0.607217 0.590835 0.416436 -0.57982
F_ F_ 0.925823 0.822718 0.433356 -0.20885
F_ F_ 0.919265 0.810204 0.345522 -0.20885
F_ F_ 0.857048 0.790788 0.389456 -0.20885
F_ F_ 0.805243 0.93208 0.328455 -0.20885
F_ F_ 0.812057 0.845082 0.316747 -0.20885
F_ F_ 0.872426 0.886264 0.29155 -0.20885
F_ F_ 0.573605 0.673154 0.0564968 -0.20885
F_ F_ 0.559071 0.676051 0.139135 -0.20885
F_ F_ 0.629879 0.703333 0.112601 -0.20885
F_ F_ 0.679649 0.55779 0.164324 -0.20885
F_ F_ 0.672883 0.643137 0.181575 -0.20885
F_ F_ 0.612167 0.597678 0.197663 -0.20885
Zn Zn 0.588142 0.591078 0.8485 0.83971
Zn Zn 0.659501 0.852705 0.585056 0.83971
Zn Zn 0.904713 0.924421 0.659717 0.83971
Zn Zn 0.838305 0.652389 0.915932 0.83971
H_ H_ 0.669136 0.632145 0.80109 0.10394
H_ H_ 0.742116 0.60206 0.763763 0.10394
H_ H_ 0.715894 0.959536 0.809264 0.10394
H_ H_ 0.637115 0.486125 0.831218 0.10394
H_ H_ 0.0230724 0.602919 0.74545 0.10394
H_ H_ 0.970522 0.680649 0.708932 0.10394
H_ H_ 0.52374 0.773513 0.827294 0.10394
H_ H_ 0.564211 0.699012 0.87512 0.10394
H_ H_ 0.525769 0.946009 0.863542 0.10394
H_ H_ 0.984071 0.873402 0.903039 0.10394
H_ H_ 0.853317 0.986259 0.905932 0.10394
H_ H_ 0.589171 0.791687 0.632063 0.10394
H_ H_ 0.006920000000000037 0.769088 0.607926 0.10394
H_ H_ 0.525152 0.804046 0.950568 0.10394
H_ H_ 0.607418 0.836519 0.48612 0.10394
H_ H_ 0.718605 0.759229 0.598635 0.10394
H_ H_ 0.75644 0.710174 0.672992 0.10394
H_ H_ 0.72092 0.843029 0.771145 0.10394
H_ H_ 0.666868 0.882551 0.697437 0.10394
H_ H_ 0.723483 0.860274 0.94515 0.10394
H_ H_ 0.770247 0.880944 0.87939 0.10394
H_ H_ 0.901362 0.880321 0.985425 0.10394
H_ H_ 0.804283 0.907455 0.665517 0.10394
H_ H_ 0.732007 0.949849 0.705114 0.10394
H_ H_ 0.833198 0.547047 0.776638 0.10394
H_ H_ 0.902102 1.0145527 0.73565 0.10394
H_ H_ 0.510362 0.888574 0.701112 0.10394
H_ H_ 0.548375 0.813771 0.747657 0.10394
H_ H_ 0.902181 0.753088 0.727961 0.10394
H_ H_ 0.861605 0.833187 0.692747 0.10394
H_ H_ 0.970297 0.554825 0.625597 0.10394
H_ H_ 0.515422 0.620468 0.616197 0.10394
H_ H_ 0.643414 0.502339 0.591363 0.10394
H_ H_ 0.948131 0.619464 0.963086 0.10394
H_ H_ 0.514714 0.70351 0.950536 0.10394
H_ H_ 0.916637 0.776675 0.546913 0.10394
H_ H_ 0.836243 0.73652 0.991277 0.10394
H_ H_ 0.737795 0.714712 0.890098 0.10394
H_ H_ 0.701529 0.758823 0.813409 0.10394
H_ H_ 0.837257 0.710465 0.739288 0.10394
H_ H_ 0.876364 0.682278 0.823857 0.10394
H_ H_ 0.791904 0.619241 0.553933 0.10394
H_ H_ 0.731577 0.617697 0.621512 0.10394
H_ H_ 0.610728 0.584038 0.510544 0.10394
C_ C_ 0.679402 0.591277 0.802809 0.18167
C_ C_ 0.723108 0.574769 0.779863 -0.15533
C_ C_ 0.736797 0.521912 0.774085 0.02923
C_ C_ 0.702422 0.996988 0.802326 -0.15533
C_ C_ 0.662718 0.507637 0.817655 0.18167
C_ C_ 0.525189 0.638733 0.764739 0.18167
C_ C_ -0.000426139 0.684534 0.741255 -0.15533
C_ C_ 0.498982 0.728614 0.75817 0.02923
C_ C_ 0.525176 0.736 0.808208 -0.15533
C_ C_ 0.549026 0.693036 0.835572 0.18167
C_ C_ 0.507406 0.552112 0.867974 0.69207
C_ C_ 0.97929 -0.000309029 0.889754 0.02923
C_ C_ -3.100000000000325e-05 0.949311 0.893955 -0.15533
C_ C_ 0.966463 0.911573 0.895092 -0.15533
C_ C_ 0.913257 0.923125 0.896835 0.02923
C_ C_ 0.895 0.975687 0.902483 -0.15533
C_ C_ 0.926589 0.0143366 0.894378 0.02923
C_ C_ 0.884458 0.567407 0.879798 0.69207
C_ C_ 0.899143 0.824015 0.882816 0.69661
C_ C_ 0.575238 0.793564 0.593163 0.18167
C_ C_ 0.528082 0.775685 0.575909 -0.15533
C_ C_ 0.509146 0.778678 0.525177 0.02923
C_ C_ 0.539293 0.798899 0.989333 -0.15533
C_ C_ 0.585408 0.822312 0.513137 0.18167
C_ C_ 0.718637 0.779026 0.636134 0.18167
C_ C_ 0.741674 0.75097 0.678467 -0.15533
C_ C_ 0.74422 0.773651 0.728853 0.02923
C_ C_ 0.717871 0.822501 0.734774 -0.15533
C_ C_ 0.692635 0.84781 0.689946 0.18167
C_ C_ 0.739109 0.87174 0.548163 0.69207
C_ C_ 0.780281 0.865459 1.00897736 0.02923
C_ C_ 0.761714 0.863053 0.956748 -0.15533
C_ C_ 0.789338 0.877254 0.918223 -0.15533
C_ C_ 0.838991 0.885708 0.928293 0.02923
C_ C_ 0.859698 0.885912 0.979746 -0.15533
C_ C_ 0.832442 0.875924 0.0213246 0.02923
C_ C_ 0.849278 0.888796 0.57446 0.69207
C_ C_ 0.851478 0.890142 0.832054 0.69661
C_ C_ 0.810234 0.93937 0.693406 0.18167
C_ C_ 0.768683 0.964021 0.715347 -0.15533
C_ C_ 0.773475 0.00665984 0.748357 0.02923
C_ C_ 0.830823 0.510941 0.753849 -0.15533
C_ C_ 0.864457 1.00108781 0.729165 0.18167
C_ C_ 0.982936 0.861752 0.712766 0.18167
C_ C_ 0.508759 0.815744 0.728696 -0.15533
C_ C_ 0.977074 0.779661 0.743341 0.02923
C_ C_ 0.924898 0.782305 0.722249 -0.15533
C_ C_ 0.904409 0.827549 0.701048 0.18167
C_ C_ 0.984286 0.956677 0.622857 0.69207
C_ C_ 0.521252 0.489259 0.613283 0.02923
C_ C_ 0.500888 0.54288 0.61692 -0.15533
C_ C_ 0.534322 0.581197 0.611431 -0.15533
C_ C_ 0.587765 0.566049 0.605242 0.02923
C_ C_ 0.604953 0.514909 0.600384 -0.15533
C_ C_ 0.573248 0.477662 0.604004 0.02923
C_ C_ 0.59605 0.933025 0.604408 0.69207
C_ C_ 0.606691 0.659932 0.614114 0.69661
C_ C_ 0.936068 0.659786 0.965518 0.18167
C_ C_ 0.975936 0.690086 0.978341 -0.15533
C_ C_ 0.963669 0.738032 1.00398699 0.02923
C_ C_ 0.924946 0.748794 0.517856 -0.15533
C_ C_ 0.875414 0.725089 0.986504 0.18167
C_ C_ 0.76101 0.716633 0.857808 0.18167
C_ C_ 0.738027 0.739719 0.812824 -0.15533
C_ C_ 0.767562 0.745684 0.773269 0.02923
C_ C_ 0.814174 0.717758 0.773815 -0.15533
C_ C_ 0.83688 0.697454 0.820506 0.18167
C_ C_ 0.75871 0.627594 0.950905 0.69207
C_ C_ 0.732734 0.60765 0.493362 0.02923
C_ C_ 0.753528 0.609243 0.543449 -0.15533
C_ C_ 0.719983 0.606777 0.582088 -0.15533
C_ C_ 0.667978 0.598921 0.570209 0.02923
C_ C_ 0.649202 0.592085 0.519281 -0.15533
C_ C_ 0.678735 0.600589 0.481131 0.02923
C_ C_ 0.645908 0.613838 0.924678 0.69207
C_ C_ 0.650568 0.59771 0.671547 0.69661
C_ C_ 0.876944 0.879877 0.885825 -0.30787
C_ C_ 0.62936 0.604057 0.613807 -0.30787
N_ N_ 0.646231 0.559221 0.815727 -0.32189
N_ N_ 0.549255 0.64546 0.812894 -0.32189
N_ N_ 0.603609 0.813935 0.56119 -0.32189
N_ N_ 0.696706 0.826343 0.642411 -0.32189
N_ N_ 0.855948 0.959997 0.696984 -0.32189
N_ N_ 0.932518 0.865169 0.695252 -0.32189
N_ N_ 0.887448 0.680309 0.96073 -0.32189
N_ N_ 0.809253 0.691549 0.857839 -0.32189
O_ O_ 0.988629 0.593173 0.874809 -0.63271
O_ O_ 0.551035 0.538381 0.852258 -0.57982
O_ O_ 0.881422 0.592977 0.83662 -0.63271
O_ O_ 0.864954 0.59026 0.920719 -0.57982
O_ O_ 0.740957 0.903033 0.588343 -0.63271
O_ O_ 0.702101 0.844043 0.537204 -0.57982
O_ O_ 0.847724 0.850735 0.602933 -0.63271
O_ O_ 0.88112 0.921436 0.591408 -0.57982
O_ O_ 0.484398 0.922286 0.595467 -0.63271
O_ O_ 0.948467 0.971156 0.652015 -0.57982
O_ O_ 0.589811 0.904118 0.641558 -0.63271
O_ O_ 0.635435 0.919087 0.576369 -0.57982
O_ O_ 0.761695 0.595771 0.911887 -0.63271
O_ O_ 0.787496 0.664764 0.956235 -0.57982
O_ O_ 0.650592 0.648844 0.893363 -0.63271
O_ O_ 0.609383 0.586456 0.911683 -0.57982
F_ F_ 0.935035 0.815554 0.925383 -0.20885
F_ F_ 0.924237 0.810008 0.842951 -0.20885
F_ F_ 0.863225 0.792168 0.877573 -0.20885
F_ F_ 0.816201 0.93372 0.830933 -0.20885
F_ F_ 0.821127 0.850692 0.814183 -0.20885
F_ F_ 0.89025 0.894037 0.800664 -0.20885
F_ F_ 0.57942 0.668276 0.56486 -0.20885
F_ F_ 0.574503 0.676081 0.652801 -0.20885
F_ F_ 0.643198 0.694829 0.625671 -0.20885
F_ F_ 0.679992 0.54967 0.674477 -0.20885
F_ F_ 0.681032 0.636467 0.694974 -0.20885
F_ F_ 0.613721 0.593397 0.702641 -0.20885
