_cell_length_a 26.508
_cell_length_b 26.37200000322088
_cell_length_c 26.311999743092066
_cell_angle_alpha 93.74100058972084
_cell_angle_beta 96.04100104955006
_cell_angle_gamma 83.6869992558723
_symmetry_space_group_name_H-M         'P 1'
_symmetry_Int_Tables_number            1
loop_
_symmetry_equiv_pos_as_xyz
   'x, y, z'
                         
loop_
_atom_site_label
_atom_site_type_symbol
_atom_site_fract_x 
_atom_site_fract_y
_atom_site_fract_z
_atom_site_charge
Zn Zn 0.0883358 0.0809637 0.34747 0.83971
Zn Zn 0.156067 0.349654 0.0929069 0.83971
Zn Zn 0.402015 0.420372 0.154629 0.83971
Zn Zn 0.340887 0.157261 0.416956 0.83971
H_ H_ 0.174736 0.126615 0.321297 0.10394
H_ H_ 0.257517 0.0928664 0.290067 0.10394
H_ H_ 0.211166 0.449886 0.310173 0.10394
H_ H_ 0.125445 0.981469 0.305613 0.10394
H_ H_ 0.521354 0.0976409 0.246983 0.10394
H_ H_ 0.484391 0.16724 0.193299 0.10394
H_ H_ 0.0219555 0.264605 0.345566 0.10394
H_ H_ 0.0569607 0.18178 0.383299 0.10394
H_ H_ 0.0241409 0.446687 0.360719 0.10394
H_ H_ 0.481039 0.375154 0.38219 0.10394
H_ H_ 0.356601 0.486228 0.412364 0.10394
H_ H_ 0.0861976 0.296377 0.143637 0.10394
H_ H_ 0.500152 0.266273 0.0947182 0.10394
H_ H_ 0.0378913 0.283435 0.443273 0.10394
H_ H_ 0.118935 0.320781 0.994736 0.10394
H_ H_ 0.227287 0.262383 0.106172 0.10394
H_ H_ 0.270626 0.218434 0.177642 0.10394
H_ H_ 0.220236 0.339572 0.276394 0.10394
H_ H_ 0.164999 0.377779 0.207576 0.10394
H_ H_ 0.219918 0.372379 0.446179 0.10394
H_ H_ 0.266169 0.396219 0.379831 0.10394
H_ H_ 0.402712 0.395085 0.484615 0.10394
H_ H_ 0.296067 0.394359 0.167416 0.10394
H_ H_ 0.222212 0.440284 0.203143 0.10394
H_ H_ 0.339416 0.0376274 0.28186 0.10394
H_ H_ 0.39324 0.506345 0.225775 0.10394
H_ H_ 0.012738 0.37394 0.192483 0.10394
H_ H_ 0.0485967 0.295145 0.232308 0.10394
H_ H_ 0.408993 0.243573 0.20349 0.10394
H_ H_ 0.365444 0.326124 0.177172 0.10394
H_ H_ 0.461184 0.0567439 0.114159 0.10394
H_ H_ 0.0324276 0.125218 0.116742 0.10394
H_ H_ 0.150095 0.00619623 0.0967878 0.10394
H_ H_ 0.445552 0.154486 0.404392 0.10394
H_ H_ 0.0162195 0.182251 0.458347 0.10394
H_ H_ 0.413864 0.277255 0.0381212 0.10394
H_ H_ 0.343477 0.264234 0.472741 0.10394
H_ H_ 0.239942 0.194188 0.37965 0.10394
H_ H_ 0.202643 0.238452 0.306547 0.10394
H_ H_ 0.352462 0.246078 0.258934 0.10394
H_ H_ 0.388063 0.193018 0.327291 0.10394
H_ H_ 0.295945 0.117434 0.0529106 0.10394
H_ H_ 0.246828 0.104456 0.122837 0.10394
H_ H_ 0.115905 0.0789886 0.0139387 0.10394
C_ C_ 0.180451 0.0879846 0.306552 0.18167
C_ C_ 0.225034 0.069643 0.286746 -0.15533
C_ C_ 0.236523 0.0171122 0.2734 0.02923
C_ C_ 0.201759 0.490472 0.305016 -0.15533
C_ C_ 0.155183 0.00489655 0.302578 0.18167
C_ C_ 0.0330697 0.135126 0.264045 0.18167
C_ C_ 0.495281 0.176331 0.235395 -0.15533
C_ C_ -0.00176341 0.226328 0.27123 0.02923
C_ C_ 0.018754 0.22695 0.324597 -0.15533
C_ C_ 0.0432498 0.181864 0.344073 0.18167
C_ C_ 0.00881518 0.0392608 0.367923 0.69207
C_ C_ 0.473481 0.505816 0.379072 0.02923
C_ C_ 0.491601 0.452316 0.371088 -0.15533
C_ C_ 0.462079 0.413635 0.378512 -0.15533
C_ C_ 0.410927 0.425243 0.38846 0.02923
C_ C_ 0.395026 0.476427 0.404069 -0.15533
C_ C_ 0.422652 0.517378 0.39432 0.02923
C_ C_ 0.39377 0.069881 0.383817 0.69207
C_ C_ 0.401672 0.328445 0.377627 0.69661
C_ C_ 0.0780057 0.287981 0.102139 0.18167
C_ C_ 0.0299684 0.272308 0.0846726 -0.15533
C_ C_ 0.0175873 0.267676 0.0314116 0.02923
C_ C_ 0.0501088 0.283987 0.48517 -0.15533
C_ C_ 0.091747 0.310328 0.0194593 0.18167
C_ C_ 0.230774 0.284425 0.143949 0.18167
C_ C_ 0.256742 0.259264 0.185197 -0.15533
C_ C_ 0.246898 0.275089 0.233499 0.02923
C_ C_ 0.216247 0.320677 0.24053 -0.15533
C_ C_ 0.184114 0.339843 0.201392 0.18167
C_ C_ 0.239057 0.370898 0.0488514 0.69207
C_ C_ 0.278882 0.378856 0.505529 0.02923
C_ C_ 0.257965 0.378518 0.455141 -0.15533
C_ C_ 0.286835 0.383076 0.415858 -0.15533
C_ C_ 0.339871 0.384705 0.424462 0.02923
C_ C_ 0.359519 0.395695 0.477183 -0.15533
C_ C_ 0.331199 0.388521 0.517916 0.02923
C_ C_ 0.35154 0.392141 0.069019 0.69207
C_ C_ 0.347546 0.390642 0.32846 0.69661
C_ C_ 0.30169 0.429495 0.186804 0.18167
C_ C_ 0.259926 0.455465 0.207233 -0.15533
C_ C_ 0.270854 0.49519 0.242146 0.02923
C_ C_ 0.328354 0.0118283 0.250845 -0.15533
C_ C_ 0.355288 0.49203 0.220113 0.18167
C_ C_ 0.481849 0.362624 0.212808 0.18167
C_ C_ 0.00900829 0.301714 0.223739 -0.15533
C_ C_ 0.480398 0.270161 0.225293 0.02923
C_ C_ 0.428411 0.276591 0.207564 -0.15533
C_ C_ 0.405393 0.322685 0.191257 0.18167
C_ C_ 0.483897 0.451317 0.123095 0.69207
C_ C_ 0.0288841 0.997961 0.121279 0.02923
C_ C_ 0.0125567 0.0501948 0.131855 -0.15533
C_ C_ 0.0457685 0.0876807 0.123737 -0.15533
C_ C_ 0.0967775 0.0724012 0.112739 0.02923
C_ C_ 0.111479 0.0189333 0.104152 -0.15533
C_ C_ 0.0794644 0.981972 0.110945 0.02923
C_ C_ 0.0957775 0.428006 0.112309 0.69207
C_ C_ 0.117142 0.165973 0.110587 0.69661
C_ C_ 0.437084 0.173324 0.442392 0.18167
C_ C_ 0.480293 0.193353 0.4697 -0.15533
C_ C_ 0.47194 0.239369 0.496987 0.02923
C_ C_ 0.423776 0.250955 0.00701673 -0.15533
C_ C_ 0.379953 0.239227 0.477231 0.18167
C_ C_ 0.264735 0.204948 0.353701 0.18167
C_ C_ 0.242344 0.234116 0.314448 -0.15533
C_ C_ 0.272946 0.246787 0.2775 0.02923
C_ C_ 0.324553 0.23031 0.281552 -0.15533
C_ C_ 0.34701 0.19985 0.320105 0.18167
C_ C_ 0.259234 0.130259 0.449504 0.69207
C_ C_ 0.238257 0.100846 0.992519 0.02923
C_ C_ 0.258642 0.104084 0.0445746 -0.15533
C_ C_ 0.227157 0.106485 0.0843851 -0.15533
C_ C_ 0.176206 0.0937708 0.0753148 0.02923
C_ C_ 0.158023 0.0830918 0.0239877 -0.15533
C_ C_ 0.186382 0.0930287 0.984448 0.02923
C_ C_ 0.151464 0.106298 0.424679 0.69207
C_ C_ 0.164657 0.106102 0.1693 0.69661
C_ C_ 0.372592 0.383867 0.381433 -0.30787
C_ C_ 0.138323 0.109552 0.115646 -0.30787
N_ N_ 0.14434 0.0546313 0.314453 -0.32189
N_ N_ 0.0499262 0.137673 0.31392 -0.32189
N_ N_ 0.10486 0.310057 0.0711846 -0.32189
N_ N_ 0.196256 0.325281 0.153784 -0.32189
N_ N_ 0.345683 0.451638 0.187501 -0.32189
N_ N_ 0.432065 0.364746 0.192339 -0.32189
N_ N_ 0.388947 0.195519 0.445203 -0.32189
N_ N_ 0.316076 0.188759 0.355385 -0.32189
O_ O_ 0.510302 0.0810671 0.409989 -0.63271
O_ O_ 0.0482196 0.0284641 0.342725 -0.57982
O_ O_ 0.399612 0.0973625 0.343925 -0.63271
O_ O_ 0.367484 0.0909233 0.42097 -0.57982
O_ O_ 0.240089 0.404544 0.0876256 -0.63271
O_ O_ 0.201153 0.342147 0.0433322 -0.57982
O_ O_ 0.352872 0.35271 0.0969532 -0.63271
O_ O_ 0.380021 0.428978 0.087272 -0.57982
O_ O_ 0.991115 0.408952 0.101075 -0.63271
O_ O_ 0.453441 0.462209 0.15906 -0.57982
O_ O_ 0.0898961 0.400414 0.150133 -0.63271
O_ O_ 0.134667 0.413541 0.0858519 -0.57982
O_ O_ 0.260764 0.107175 0.404614 -0.63271
O_ O_ 0.296716 0.159064 0.464393 -0.57982
O_ O_ 0.143849 0.15213 0.40579 -0.63271
O_ O_ 0.116941 0.074303 0.413283 -0.57982
F_ F_ 0.436846 0.319416 0.416732 -0.20885
F_ F_ 0.423551 0.315054 0.333959 -0.20885
F_ F_ 0.367167 0.292638 0.379374 -0.20885
F_ F_ 0.313677 0.432672 0.327445 -0.20885
F_ F_ 0.322042 0.34902 0.306476 -0.20885
F_ F_ 0.378202 0.398265 0.291085 -0.20885
F_ F_ 0.0833637 0.172322 0.0659684 -0.20885
F_ F_ 0.0926414 0.189018 0.152325 -0.20885
F_ F_ 0.156119 0.196033 0.101485 -0.20885
F_ F_ 0.194606 0.0621959 0.175973 -0.20885
F_ F_ 0.195818 0.145276 0.183369 -0.20885
F_ F_ 0.132745 0.109708 0.2093 -0.20885
Zn Zn 0.0935718 0.0829167 0.849807 0.83971
Zn Zn 0.163259 0.343122 0.582577 0.83971
Zn Zn 0.410819 0.412175 0.655774 0.83971
Zn Zn 0.341439 0.147036 0.914443 0.83971
H_ H_ 0.1746 0.127176 0.805461 0.10394
H_ H_ 0.242821 0.0933607 0.761057 0.10394
H_ H_ 0.207305 0.451783 0.789454 0.10394
H_ H_ 0.139369 0.977362 0.827995 0.10394
H_ H_ 0.528102 0.0892753 0.737457 0.10394
H_ H_ 0.508001 0.170147 0.691238 0.10394
H_ H_ 0.0343217 0.265456 0.843818 0.10394
H_ H_ 0.07658 0.191603 0.883003 0.10394
H_ H_ 0.030149 0.453676 0.871042 0.10394
H_ H_ 0.465348 0.38147 0.853957 0.10394
H_ H_ 0.345274 0.499158 0.89654 0.10394
H_ H_ 0.0826935 0.306419 0.629948 0.10394
H_ H_ 0.487258 0.285782 0.5871 0.10394
H_ H_ 0.0361212 0.284831 0.95875 0.10394
H_ H_ 0.123148 0.309986 0.480654 0.10394
H_ H_ 0.228122 0.251846 0.596844 0.10394
H_ H_ 0.265635 0.200825 0.674358 0.10394
H_ H_ 0.210363 0.332028 0.767654 0.10394
H_ H_ 0.183062 0.377836 0.689366 0.10394
H_ H_ 0.212422 0.367869 0.949644 0.10394
H_ H_ 0.256602 0.389447 0.880756 0.10394
H_ H_ 0.379458 0.431618 0.988202 0.10394
H_ H_ 0.306761 0.399357 0.660369 0.10394
H_ H_ 0.230176 0.447387 0.692469 0.10394
H_ H_ 0.333861 0.0433977 0.774383 0.10394
H_ H_ 0.403634 0.506045 0.73187 0.10394
H_ H_ 0.0165671 0.383899 0.707989 0.10394
H_ H_ 0.0626052 0.306299 0.740839 0.10394
H_ H_ 0.416952 0.234832 0.712875 0.10394
H_ H_ 0.375431 0.316598 0.673819 0.10394
H_ H_ 0.46937 0.0454606 0.611947 0.10394
H_ H_ 0.0171319 0.120917 0.60202 0.10394
H_ H_ 0.151111 0.0102766 0.58899 0.10394
H_ H_ 0.444987 0.15104 0.896439 0.10394
H_ H_ 0.0196999 0.193613 0.955024 0.10394
H_ H_ 0.417191 0.30321 0.517885 0.10394
H_ H_ 0.346434 0.236571 -0.005284999999999984 0.10394
H_ H_ 0.236512 0.184363 0.880866 0.10394
H_ H_ 0.197056 0.232515 0.79982 0.10394
H_ H_ 0.345062 0.231383 0.751784 0.10394
H_ H_ 0.381728 0.204097 0.832826 0.10394
H_ H_ 0.283061 0.122667 0.553189 0.10394
H_ H_ 0.229108 0.126014 0.617313 0.10394
H_ H_ 0.107881 0.0899395 0.504496 0.10394
C_ C_ 0.180256 0.0860064 0.798892 0.18167
C_ C_ 0.22487 0.066223 0.776497 -0.15533
C_ C_ 0.233222 0.012605 0.76353 0.02923
C_ C_ 0.198687 0.491196 0.792506 -0.15533
C_ C_ 0.16192 0.00234377 0.813128 0.18167
C_ C_ 0.0353898 0.135795 0.773042 0.18167
C_ C_ 0.507855 0.170631 0.731762 -0.15533
C_ C_ 0.0126749 0.224981 0.772831 0.02923
C_ C_ 0.0313159 0.22839 0.825108 -0.15533
C_ C_ 0.0549887 0.184143 0.847234 0.18167
C_ C_ 0.00758901 0.0484673 0.869616 0.69207
C_ C_ 0.471154 0.509469 0.880288 0.02923
C_ C_ 0.485524 0.457112 0.870632 -0.15533
C_ C_ 0.452627 0.419132 0.870817 -0.15533
C_ C_ 0.401306 0.433946 0.885748 0.02923
C_ C_ 0.384643 0.487128 0.893259 -0.15533
C_ C_ 0.418343 0.522566 0.892343 0.02923
C_ C_ 0.394903 0.0660072 0.877415 0.69207
C_ C_ 0.393408 0.337571 0.892106 0.69661
C_ C_ 0.0731737 0.302013 0.589378 0.18167
C_ C_ 0.0275703 0.279882 0.570536 -0.15533
C_ C_ 0.0163788 0.270918 0.519187 0.02923
C_ C_ 0.0478201 0.287041 0.998245 -0.15533
C_ C_ 0.096219 0.300314 0.504866 0.18167
C_ C_ 0.229059 0.268107 0.633726 0.18167
C_ C_ 0.249248 0.24054 0.677628 -0.15533
C_ C_ 0.244754 0.263813 0.726496 0.02923
C_ C_ 0.221064 0.312998 0.732201 -0.15533
C_ C_ 0.205307 0.33976 0.686568 0.18167
C_ C_ 0.245353 0.367065 0.546004 0.69207
C_ C_ 0.273034 0.37765 0.00874867 0.02923
C_ C_ 0.250303 0.379575 0.959185 -0.15533
C_ C_ 0.278279 0.385992 0.917664 -0.15533
C_ C_ 0.328097 0.399787 0.927506 0.02923
C_ C_ 0.346231 0.410454 0.978817 -0.15533
C_ C_ 0.323266 0.39168 0.0180129 0.02923
C_ C_ 0.355476 0.388105 0.570737 0.69207
C_ C_ 0.339666 0.383544 0.826345 0.69661
C_ C_ 0.311545 0.434859 0.682367 0.18167
C_ C_ 0.267553 0.460498 0.704087 -0.15533
C_ C_ 0.276968 0.500724 0.744844 0.02923
C_ C_ 0.325991 0.0126831 0.74405 -0.15533
C_ C_ 0.366526 0.490715 0.727068 0.18167
C_ C_ 0.488896 0.353078 0.713569 0.18167
C_ C_ 0.0207768 0.307861 0.731397 -0.15533
C_ C_ 0.485725 0.265117 0.733114 0.02923
C_ C_ 0.437656 0.269076 0.710726 -0.15533
C_ C_ 0.41372 0.314179 0.692044 0.18167
C_ C_ 0.48545 0.447458 0.62649 0.69207
C_ C_ 0.0246551 0.991842 0.606489 0.02923
C_ C_ 0.00904901 0.0445481 0.612271 -0.15533
C_ C_ 0.0373726 0.0833412 0.607848 -0.15533
C_ C_ 0.088641 0.0716224 0.600468 0.02923
C_ C_ 0.109093 0.0194072 0.596335 -0.15533
C_ C_ 0.0767756 0.978292 0.599217 0.02923
C_ C_ 0.101634 0.422321 0.602942 0.69207
C_ C_ 0.100386 0.168251 0.599732 0.69661
C_ C_ 0.440217 0.180064 0.928083 0.18167
C_ C_ 0.480634 0.199729 0.955382 -0.15533
C_ C_ 0.472147 0.243609 0.986833 0.02923
C_ C_ 0.421616 0.262423 0.500631 -0.15533
C_ C_ 0.382031 0.226933 0.982298 0.18167
C_ C_ 0.260013 0.194455 0.851613 0.18167
C_ C_ 0.236767 0.222003 0.808277 -0.15533
C_ C_ 0.266725 0.237178 0.772855 0.02923
C_ C_ 0.31825 0.226154 0.779949 -0.15533
C_ C_ 0.340337 0.207032 0.826762 0.18167
C_ C_ 0.269544 0.109471 0.953057 0.69207
C_ C_ 0.22827 0.115753 0.489013 0.02923
C_ C_ 0.246721 0.114335 0.539641 -0.15533
C_ C_ 0.214184 0.113479 0.57732 -0.15533
C_ C_ 0.164142 0.101807 0.566395 0.02923
C_ C_ 0.147103 0.0944569 0.513981 -0.15533
C_ C_ 0.175628 0.105875 0.475064 0.02923
C_ C_ 0.157692 0.100137 0.933058 0.69207
C_ C_ 0.149524 0.111656 0.662171 0.69661
C_ C_ 0.363495 0.390733 0.881933 -0.30787
C_ C_ 0.126747 0.113563 0.606559 -0.30787
N_ N_ 0.14917 0.0541147 0.815264 -0.32189
N_ N_ 0.0597631 0.139826 0.819597 -0.32189
N_ N_ 0.106005 0.310782 0.556764 -0.32189
N_ N_ 0.203068 0.316146 0.639303 -0.32189
N_ N_ 0.358797 0.448917 0.694885 -0.32189
N_ N_ 0.439642 0.354559 0.691108 -0.32189
N_ N_ 0.391703 0.19168 0.941739 -0.32189
N_ N_ 0.312426 0.182958 0.855946 -0.32189
O_ O_ 0.502972 0.0827088 0.888088 -0.63271
O_ O_ 0.0494003 0.0369536 0.848681 -0.57982
O_ O_ 0.390476 0.0965133 0.839037 -0.63271
O_ O_ 0.382397 0.0846966 0.922903 -0.57982
O_ O_ 0.244737 0.397352 0.58634 -0.63271
O_ O_ 0.207256 0.340369 0.534595 -0.57982
O_ O_ 0.361321 0.344428 0.593323 -0.63271
O_ O_ 0.382494 0.424244 0.590685 -0.57982
O_ O_ 1.00249 0.405434 0.610332 -0.63271
O_ O_ 0.451986 0.461804 0.66003 -0.57982
O_ O_ 0.105298 0.396187 0.644562 -0.63271
O_ O_ 0.132529 0.406781 0.567335 -0.57982
O_ O_ 0.25963 0.0924307 0.906381 -0.63271
O_ O_ 0.301246 0.144471 0.963041 -0.57982
O_ O_ 0.160954 0.14051 0.907249 -0.63271
O_ O_ 0.121017 0.0721171 0.916978 -0.57982
F_ F_ 0.42781 0.345142 0.93408 -0.20885
F_ F_ 0.422644 0.318902 0.852824 -0.20885
F_ F_ 0.36302 0.299782 0.899217 -0.20885
F_ F_ 0.304314 0.424243 0.819105 -0.20885
F_ F_ 0.313514 0.339131 0.815235 -0.20885
F_ F_ 0.373874 0.383643 0.787638 -0.20885
F_ F_ 0.0726606 0.172645 0.552507 -0.20885
F_ F_ 0.0678591 0.184865 0.637117 -0.20885
F_ F_ 0.135159 0.203398 0.598352 -0.20885
F_ F_ 0.184248 0.0707417 0.67236 -0.20885
F_ F_ 0.172195 0.152575 0.680753 -0.20885
F_ F_ 0.115087 0.111022 0.696103 -0.20885
Zn Zn 0.0861751 0.591616 0.350218 0.83971
Zn Zn 0.16193 0.845132 0.0818251 0.83971
Zn Zn 0.409979 0.915079 0.150398 0.83971
Zn Zn 0.340421 0.652789 0.414496 0.83971
H_ H_ 0.164917 0.634928 0.304409 0.10394
H_ H_ 0.239526 0.597742 0.26561 0.10394
H_ H_ 0.209806 0.943441 0.274522 0.10394
H_ H_ 0.129292 0.488458 0.335402 0.10394
H_ H_ 0.519259 0.598797 0.260652 0.10394
H_ H_ 0.483132 0.670009 0.208355 0.10394
H_ H_ 0.0390063 0.77406 0.337982 0.10394
H_ H_ 0.0702129 0.69563 0.385653 0.10394
H_ H_ 0.0246021 0.936968 0.361472 0.10394
H_ H_ 0.481732 0.87537 0.374769 0.10394
H_ H_ 0.352877 0.984346 0.40007 0.10394
H_ H_ 0.0757571 0.813122 0.128348 0.10394
H_ H_ 0.511519 0.763508 0.0974538 0.10394
H_ H_ 0.0289926 0.803935 0.445571 0.10394
H_ H_ 0.126235 0.813054 0.981251 0.10394
H_ H_ 0.200035 0.741946 0.0999154 0.10394
H_ H_ 0.236502 0.696095 0.175884 0.10394
H_ H_ 0.239381 0.84394 0.262681 0.10394
H_ H_ 0.193504 0.881772 0.185766 0.10394
H_ H_ 0.216108 0.887149 0.445572 0.10394
H_ H_ 0.2668 0.891356 0.377828 0.10394
H_ H_ 0.402507 0.876967 0.481218 0.10394
H_ H_ 0.296184 0.905986 0.146301 0.10394
H_ H_ 0.225058 0.965338 0.175363 0.10394
H_ H_ 0.326293 0.543416 0.278284 0.10394
H_ H_ 0.406423 -0.012359000000000009 0.235954 0.10394
H_ H_ 0.0149674 0.879979 0.185873 0.10394
H_ H_ 0.0520098 0.801996 0.227796 0.10394
H_ H_ 0.407091 0.745289 0.225736 0.10394
H_ H_ 0.368181 0.820924 0.181046 0.10394
H_ H_ 0.456805 0.555031 0.104945 0.10394
H_ H_ 0.0101575 0.621682 0.135622 0.10394
H_ H_ 0.1364 0.517853 0.0998973 0.10394
H_ H_ 0.442494 0.661855 0.389023 0.10394
H_ H_ 0.0144721 0.696214 0.444405 0.10394
H_ H_ 0.417837 0.772625 0.0574917 0.10394
H_ H_ 0.348505 0.731274 0.493985 0.10394
H_ H_ 0.254164 0.720471 0.399134 0.10394
H_ H_ 0.207575 0.763865 0.322965 0.10394
H_ H_ 0.332555 0.700449 0.236645 0.10394
H_ H_ 0.382973 0.687766 0.321682 0.10394
H_ H_ 0.277031 0.619413 0.057894 0.10394
H_ H_ 0.222838 0.614857 0.127691 0.10394
H_ H_ 0.0925113 0.604171 0.015204 0.10394
C_ C_ 0.174999 0.594086 0.303995 0.18167
C_ C_ 0.217394 0.573298 0.280494 -0.15533
C_ C_ 0.230157 0.518991 0.276668 0.02923
C_ C_ 0.201566 0.983395 0.282848 -0.15533
C_ C_ 0.155753 0.512888 0.321929 0.18167
C_ C_ 0.0197914 0.640447 0.278803 0.18167
C_ C_ 0.500702 0.675881 0.245672 -0.15533
C_ C_ 0.00583593 0.731644 0.270231 0.02923
C_ C_ 0.0305059 0.737092 0.32106 -0.15533
C_ C_ 0.0525619 0.691778 0.345744 0.18167
C_ C_ 0.006129999999999969 0.551262 0.383305 0.69207
C_ C_ 0.473481 0.00628643 0.37886 0.02923
C_ C_ 0.491543 0.955204 0.370081 -0.15533
C_ C_ 0.46254 0.915801 0.377542 -0.15533
C_ C_ 0.4114 0.926304 0.387992 0.02923
C_ C_ 0.392297 0.977135 0.395818 -0.15533
C_ C_ 0.420832 0.0174235 0.388549 0.02923
C_ C_ 0.3957 0.56665 0.386805 0.69207
C_ C_ 0.402075 0.829343 0.378818 0.69661
C_ C_ 0.0697519 0.8075 0.0875044 0.18167
C_ C_ 0.0210709 0.790494 0.0657117 -0.15533
C_ C_ 0.0149292 0.777722 0.0127609 0.02923
C_ C_ 0.0475395 0.796773 0.483311 -0.15533
C_ C_ 0.0983227 0.803647 0.00666272 0.18167
C_ C_ 0.209286 0.762479 0.135222 0.18167
C_ C_ 0.23118 0.736975 0.179064 -0.15533
C_ C_ 0.240631 0.764027 0.226749 0.02923
C_ C_ 0.22502 0.818684 0.229045 -0.15533
C_ C_ 0.206772 0.841684 0.182949 0.18167
C_ C_ 0.236161 0.872006 0.0405743 0.69207
C_ C_ 0.279465 0.874659 0.503113 0.02923
C_ C_ 0.25599 0.880076 0.452079 -0.15533
C_ C_ 0.286469 0.887362 0.415079 -0.15533
C_ C_ 0.340906 0.883976 0.424987 0.02923
C_ C_ 0.361941 0.879444 0.474223 -0.15533
C_ C_ 0.331407 0.883038 0.513835 0.02923
C_ C_ 0.351886 0.883795 0.0663398 0.69207
C_ C_ 0.345006 0.889848 0.325795 0.69661
C_ C_ 0.305991 0.940878 0.172051 0.18167
C_ C_ 0.264648 0.971574 0.192345 -0.15533
C_ C_ 0.275533 1.00318785 0.23478 0.02923
C_ C_ 0.317696 0.515794 0.248389 -0.15533
C_ C_ 0.366723 0.986443 0.222024 0.18167
C_ C_ 0.492426 0.84964 0.19865 0.18167
C_ C_ 0.0111712 0.809902 0.222069 -0.15533
C_ C_ 0.485325 0.766197 0.230796 0.02923
C_ C_ 0.433382 0.772709 0.215753 -0.15533
C_ C_ 0.410862 0.815862 0.191672 0.18167
C_ C_ 0.482706 0.954479 0.110435 0.69207
C_ C_ 0.0181289 0.494542 0.11628 0.02923
C_ C_ -0.00420100000000001 0.54667 0.117653 -0.15533
C_ C_ 0.0282383 0.586008 0.123208 -0.15533
C_ C_ 0.0774805 0.574833 0.111324 0.02923
C_ C_ 0.0973759 0.523655 0.102547 -0.15533
C_ C_ 0.0704025 0.481924 0.10774 0.02923
C_ C_ 0.102448 0.928691 0.113093 0.69207
C_ C_ 0.0913895 0.669124 0.118229 0.69661
C_ C_ 0.441427 0.679843 0.427097 0.18167
C_ C_ 0.479792 0.708041 0.447728 -0.15533
C_ C_ 0.473226 0.741818 0.490069 0.02923
C_ C_ 0.423073 0.750064 0.0220111 -0.15533
C_ C_ 0.385821 0.722834 0.482894 0.18167
C_ C_ 0.267677 0.716489 0.362065 0.18167
C_ C_ 0.243225 0.742761 0.31922 -0.15533
C_ C_ 0.266307 0.737321 0.273768 0.02923
C_ C_ 0.31648 0.712751 0.272746 -0.15533
C_ C_ 0.341847 0.694544 0.318206 0.18167
C_ C_ 0.263768 0.61807 0.448328 0.69207
C_ C_ 0.214814 0.622418 0.996134 0.02923
C_ C_ 0.235201 0.626257 0.0481389 -0.15533
C_ C_ 0.203642 0.622379 0.0875475 -0.15533
C_ C_ 0.154718 0.60989 0.0778472 0.02923
C_ C_ 0.135074 0.601353 0.0248075 -0.15533
C_ C_ 0.164036 0.609854 0.984217 0.02923
C_ C_ 0.15186 0.609873 0.426994 0.69207
C_ C_ 0.140789 0.611698 0.174188 0.69661
C_ C_ 0.373926 0.883354 0.379381 -0.30787
C_ C_ 0.115008 0.613224 0.118986 -0.30787
N_ N_ 0.142877 0.56272 0.321641 -0.32189
N_ N_ 0.0508936 0.64447 0.322647 -0.32189
N_ N_ 0.106257 0.81328 0.0578473 -0.32189
N_ N_ 0.191335 0.812907 0.140947 -0.32189
N_ N_ 0.355402 0.951035 0.183352 -0.32189
N_ N_ 0.439932 0.853663 0.183992 -0.32189
N_ N_ 0.394465 0.687825 0.445069 -0.32189
N_ N_ 0.315549 0.692567 0.359177 -0.32189
O_ O_ 0.504125 0.587013 0.407653 -0.63271
O_ O_ 0.0408143 0.547059 0.350549 -0.57982
O_ O_ 0.392346 0.583131 0.340002 -0.63271
O_ O_ 0.374969 0.592947 0.424687 -0.57982
O_ O_ 0.233938 0.904332 0.0793359 -0.63271
O_ O_ 0.207988 0.834303 0.0372247 -0.57982
O_ O_ 0.344896 0.846049 0.0925864 -0.63271
O_ O_ 0.38618 0.913267 0.0847326 -0.57982
O_ O_ 0.988477 0.92579 0.089775 -0.63271
O_ O_ 0.454989 0.962253 0.148792 -0.57982
O_ O_ 0.0987083 0.901244 0.152695 -0.63271
O_ O_ 0.127267 0.9079 0.0745668 -0.57982
O_ O_ 0.261127 0.597275 0.402344 -0.63271
O_ O_ 0.293646 0.654714 0.460045 -0.57982
O_ O_ 0.160196 0.649847 0.399491 -0.63271
O_ O_ 0.110496 0.58584 0.41459 -0.57982
F_ F_ 0.440663 0.819268 0.417278 -0.20885
F_ F_ 0.423242 0.81381 0.332959 -0.20885
F_ F_ 0.371863 0.790801 0.38308 -0.20885
F_ F_ 0.313949 0.93445 0.32793 -0.20885
F_ F_ 0.316151 0.850429 0.310387 -0.20885
F_ F_ 0.377317 0.891705 0.288639 -0.20885
F_ F_ 0.0547524 0.675319 0.0755698 -0.20885
F_ F_ 0.0671753 0.685981 0.160261 -0.20885
F_ F_ 0.125322 0.702679 0.112979 -0.20885
F_ F_ 0.175679 0.567373 0.179614 -0.20885
F_ F_ 0.166893 0.652994 0.194324 -0.20885
F_ F_ 0.105607 0.609 0.211467 -0.20885
Zn Zn 0.084755 0.588282 0.848625 0.83971
Zn Zn 0.163347 0.851096 0.582057 0.83971
Zn Zn 0.412121 0.909743 0.651011 0.83971
Zn Zn 0.334562 0.65987 0.921237 0.83971
H_ H_ 0.168512 0.638394 0.81418 0.10394
H_ H_ 0.255388 0.601104 0.786134 0.10394
H_ H_ 0.205591 0.937872 0.779089 0.10394
H_ H_ 0.124349 0.488712 0.818312 0.10394
H_ H_ 0.5274 0.586978 0.762088 0.10394
H_ H_ 0.48689 0.659165 0.703701 0.10394
H_ H_ 0.0150348 0.771047 0.838525 0.10394
H_ H_ 0.0519146 0.692672 0.88377 0.10394
H_ H_ 0.0398746 0.948872 0.886093 0.10394
H_ H_ 0.475726 0.871531 0.869149 0.10394
H_ H_ 0.34841 0.979187 0.890996 0.10394
H_ H_ 0.0934904 0.791076 0.628288 0.10394
H_ H_ 0.503583 0.74724 0.593641 0.10394
H_ H_ 0.0497223 0.776777 0.942237 0.10394
H_ H_ 0.11442 0.830305 0.474762 0.10394
H_ H_ 0.232484 0.762804 0.595353 0.10394
H_ H_ 0.258814 0.706207 0.668626 0.10394
H_ H_ 0.209643 0.831229 0.768862 0.10394
H_ H_ 0.175598 0.878177 0.698199 0.10394
H_ H_ 0.212466 0.863054 0.940005 0.10394
H_ H_ 0.26301 0.879526 0.872469 0.10394
H_ H_ 0.397271 0.88328 0.980309 0.10394
H_ H_ 0.312394 0.889744 0.65931 0.10394
H_ H_ 0.235443 0.933204 0.690087 0.10394
H_ H_ 0.335357 0.543559 0.78654 0.10394
H_ H_ 0.400321 0.000715707 0.721088 0.10394
H_ H_ 0.0189171 0.870628 0.671126 0.10394
H_ H_ 0.059023 0.800302 0.725967 0.10394
H_ H_ 0.40652 0.736039 0.722216 0.10394
H_ H_ 0.370538 0.813473 0.674952 0.10394
H_ H_ 0.468261 0.555175 0.636064 0.10394
H_ H_ 0.0320687 0.61877 0.631967 0.10394
H_ H_ 0.146761 0.50107 0.57967 0.10394
H_ H_ 0.440022 0.663409 0.901573 0.10394
H_ H_ 0.0196919 0.678073 0.969118 0.10394
H_ H_ 0.418593 0.773012 0.541414 0.10394
H_ H_ 0.345161 0.727583 0.0136209 0.10394
H_ H_ 0.228176 0.696421 0.884084 0.10394
H_ H_ 0.187502 0.733125 0.808513 0.10394
H_ H_ 0.333662 0.718579 0.743974 0.10394
H_ H_ 0.372619 0.680122 0.823045 0.10394
H_ H_ 0.293987 0.605298 0.549519 0.10394
H_ H_ 0.241053 0.603146 0.616512 0.10394
H_ H_ 0.107465 0.590557 0.511765 0.10394
C_ C_ 0.179983 0.597577 0.810668 0.18167
C_ C_ 0.224908 0.578076 0.785496 -0.15533
C_ C_ 0.235005 0.523441 0.77898 0.02923
C_ C_ 0.204554 0.978849 0.78642 -0.15533
C_ C_ 0.153367 0.514003 0.811156 0.18167
C_ C_ 0.0365443 0.637953 0.766367 0.18167
C_ C_ 0.50576 0.666653 0.742073 -0.15533
C_ C_ 0.00976726 0.727088 0.765459 0.02923
C_ C_ 0.0250473 0.734128 0.816947 -0.15533
C_ C_ 0.0446502 0.691094 0.842267 0.18167
C_ C_ -0.0028359999999999497 0.551443 0.856415 0.69207
C_ C_ 0.470916 -0.00122001 0.869302 0.02923
C_ C_ 0.491303 0.947526 0.871348 -0.15533
C_ C_ 0.458999 0.909665 0.874834 -0.15533
C_ C_ 0.407958 0.919378 0.880385 0.02923
C_ C_ 0.388414 0.971438 0.882694 -0.15533
C_ C_ 0.417438 0.0119105 0.87408 0.02923
C_ C_ 0.395495 0.575195 0.892328 0.69207
C_ C_ 0.395287 0.823915 0.877943 0.69661
C_ C_ 0.0823305 0.787802 0.586394 0.18167
C_ C_ 0.0360664 0.770538 0.56845 -0.15533
C_ C_ 0.0181187 0.773342 0.515787 0.02923
C_ C_ 0.0564918 0.780042 0.984869 -0.15533
C_ C_ 0.0890552 0.820304 0.50381 0.18167
C_ C_ 0.22465 0.774207 0.634511 0.18167
C_ C_ 0.240199 0.743996 0.675558 -0.15533
C_ C_ 0.235068 0.763199 0.725415 0.02923
C_ C_ 0.207311 0.812695 0.733882 -0.15533
C_ C_ 0.18637 0.838359 0.692252 0.18167
C_ C_ 0.245668 0.870668 0.543046 0.69207
C_ C_ 0.271531 0.879268 0.0018400000000000638 0.02923
C_ C_ 0.250926 0.873081 0.950997 -0.15533
C_ C_ 0.280732 0.882712 0.912012 -0.15533
C_ C_ 0.33314 0.885641 0.919428 0.02923
C_ C_ 0.354903 0.886932 0.971627 -0.15533
C_ C_ 0.323687 0.885885 0.0137229 0.02923
C_ C_ 0.35805 0.88147 0.564683 0.69207
C_ C_ 0.343476 0.881191 0.821772 0.69661
C_ C_ 0.315587 0.922458 0.684382 0.18167
C_ C_ 0.271902 0.94857 0.699685 -0.15533
C_ C_ 0.276376 0.99547 0.730803 0.02923
C_ C_ 0.32623 0.516558 0.753141 -0.15533
C_ C_ 0.365723 0.983187 0.722478 0.18167
C_ C_ 0.49047 0.841492 0.699504 0.18167
C_ C_ 0.0170749 0.808267 0.720439 -0.15533
C_ C_ 0.483862 0.756666 0.726673 0.02923
C_ C_ 0.431328 0.763584 0.708272 -0.15533
C_ C_ 0.410274 0.808826 0.68749 0.18167
C_ C_ 0.49122 0.944187 0.618406 0.69207
C_ C_ 0.0323974 0.489769 0.628399 0.02923
C_ C_ 1.0180772 0.541894 0.639703 -0.15533
C_ C_ 0.044731 0.579279 0.621877 -0.15533
C_ C_ 0.093611 0.564484 0.607539 0.02923
C_ C_ 0.109355 0.512133 0.594846 -0.15533
C_ C_ 0.078974 0.474587 0.605995 0.02923
C_ C_ 0.0993893 0.924584 0.597743 0.69207
C_ C_ 0.113526 0.658011 0.61279 0.69661
C_ C_ 0.433276 0.686468 0.933833 0.18167
C_ C_ 0.47505 0.706433 0.957851 -0.15533
C_ C_ 0.47035 0.74366 -0.000856685 0.02923
C_ C_ 0.425232 0.751204 0.506541 -0.15533
C_ C_ 0.382172 0.726542 0.996275 0.18167
C_ C_ 0.252303 0.698843 0.854092 0.18167
C_ C_ 0.229378 0.725609 0.810808 -0.15533
C_ C_ 0.256916 0.732617 0.769413 0.02923
C_ C_ 0.308827 0.716209 0.775303 -0.15533
C_ C_ 0.330808 0.691888 0.818698 0.18167
C_ C_ 0.247497 0.633798 0.956115 0.69207
C_ C_ 0.233151 0.603624 0.488285 0.02923
C_ C_ 0.254262 0.60018 0.539543 -0.15533
C_ C_ 0.221742 0.602701 0.578841 -0.15533
C_ C_ 0.169427 0.595084 0.568673 0.02923
C_ C_ 0.148365 0.592026 0.518653 -0.15533
C_ C_ 0.178265 0.60648 0.480879 0.02923
C_ C_ 0.136656 0.617453 0.931111 0.69207
C_ C_ 0.163818 0.593494 0.667215 0.69661
C_ C_ 0.370875 0.878488 0.87686 -0.30787
C_ C_ 0.135534 0.600716 0.612456 -0.30787
N_ N_ 0.146005 0.565383 0.821472 -0.32189
N_ N_ 0.0556469 0.645587 0.815321 -0.32189
N_ N_ 0.106967 0.813185 0.553754 -0.32189
N_ N_ 0.192736 0.817375 0.643028 -0.32189
N_ N_ 0.36004 0.942475 0.690204 -0.32189
N_ N_ 0.440867 0.84683 0.679412 -0.32189
N_ N_ 0.386037 0.700644 0.949381 -0.32189
N_ N_ 0.302391 0.684428 0.858001 -0.32189
O_ O_ 0.504591 0.591887 0.89616 -0.63271
O_ O_ 0.0386594 0.540231 0.836362 -0.57982
O_ O_ 0.393475 0.599023 0.850428 -0.63271
O_ O_ 0.364051 0.594544 0.926179 -0.57982
O_ O_ 0.247251 0.900422 0.58648 -0.63271
O_ O_ 0.212855 0.837977 0.535595 -0.57982
O_ O_ 0.360729 0.837896 0.587948 -0.63271
O_ O_ 0.383194 0.917832 0.585403 -0.57982
O_ O_ 0.988385 0.91011 0.586061 -0.63271
O_ O_ 0.460355 0.951381 0.652444 -0.57982
O_ O_ 0.097542 0.896143 0.637165 -0.63271
O_ O_ 0.138727 0.914109 0.571011 -0.57982
O_ O_ 0.252611 0.602041 0.915488 -0.63271
O_ O_ 0.283659 0.666406 0.96587 -0.57982
O_ O_ 0.146117 0.656216 0.905619 -0.63271
O_ O_ 0.095211 0.593206 0.915738 -0.57982
F_ F_ 0.430562 0.819195 0.919752 -0.20885
F_ F_ 0.419121 0.809944 0.833238 -0.20885
F_ F_ 0.365556 0.786325 0.884651 -0.20885
F_ F_ 0.310255 0.924059 0.818474 -0.20885
F_ F_ 0.317288 0.840881 0.808791 -0.20885
F_ F_ 0.376294 0.88324 0.782214 -0.20885
F_ F_ 0.0748839 0.665698 0.573338 -0.20885
F_ F_ 0.100769 0.674234 0.659531 -0.20885
F_ F_ 0.147795 0.691942 0.606212 -0.20885
F_ F_ 0.194934 0.54639 0.67093 -0.20885
F_ F_ 0.189863 0.635592 0.682528 -0.20885
F_ F_ 0.129669 0.59182 0.702857 -0.20885
Zn Zn 0.583399 0.088797 0.341321 0.83971
Zn Zn 0.663575 0.344565 0.0854005 0.83971
Zn Zn 0.910286 0.418969 0.15614 0.83971
Zn Zn 0.843255 0.158041 0.412958 0.83971
H_ H_ 0.661761 0.138892 0.301446 0.10394
H_ H_ 0.74169 0.108023 0.263964 0.10394
H_ H_ 0.71912 0.454252 0.294243 0.10394
H_ H_ 0.62936 0.986304 0.315775 0.10394
H_ H_ 0.0357334 0.0998754 0.241713 0.10394
H_ H_ 0.985154 0.174266 0.200154 0.10394
H_ H_ 0.522447 0.273232 0.324486 0.10394
H_ H_ 0.573078 0.201661 0.364871 0.10394
H_ H_ 0.529324 0.442441 0.357207 0.10394
H_ H_ 0.965812 0.387901 0.365321 0.10394
H_ H_ 0.848634 0.500672 0.412676 0.10394
H_ H_ 0.57765 0.306157 0.130265 0.10394
H_ H_ 1.00831904 0.254903 0.108629 0.10394
H_ H_ 0.540266 0.27637 0.438201 0.10394
H_ H_ 0.621344 0.317648 0.984217 0.10394
H_ H_ 0.708706 0.24963 0.0915232 0.10394
H_ H_ 0.752469 0.195925 0.159 0.10394
H_ H_ 0.717329 0.319697 0.26985 0.10394
H_ H_ 0.683303 0.37426 0.192581 0.10394
H_ H_ 0.712727 0.39996 0.459032 0.10394
H_ H_ 0.760341 0.412108 0.387104 0.10394
H_ H_ 0.90032 0.392583 0.487662 0.10394
H_ H_ 0.804494 0.406705 0.158918 0.10394
H_ H_ 0.73364 0.451398 0.193424 0.10394
H_ H_ 0.823993 0.0648153 0.266677 0.10394
H_ H_ 0.903133 0.510617 0.230531 0.10394
H_ H_ 0.505163 0.394242 0.208086 0.10394
H_ H_ 0.545809 0.315609 0.243428 0.10394
H_ H_ 0.896873 0.261365 0.245407 0.10394
H_ H_ 0.866355 0.33755 0.197865 0.10394
H_ H_ 0.979743 0.0609839 0.151744 0.10394
H_ H_ 0.512872 0.119417 0.0971082 0.10394
H_ H_ 0.638152 0.0108883 0.0807913 0.10394
H_ H_ 0.940142 0.156209 0.400877 0.10394
H_ H_ 0.51741 0.178079 0.464326 0.10394
H_ H_ 0.91878 0.27369 0.0574171 0.10394
H_ H_ 0.843403 0.25276 0.489798 0.10394
H_ H_ 0.735008 0.199359 0.38058 0.10394
H_ H_ 0.693801 0.232009 0.308034 0.10394
H_ H_ 0.835049 0.202231 0.232812 0.10394
H_ H_ 0.878405 0.182625 0.318995 0.10394
H_ H_ 0.784527 0.124635 0.0555786 0.10394
H_ H_ 0.729316 0.117932 0.115936 0.10394
H_ H_ 0.605113 0.088734 0.00191627 0.10394
C_ C_ 0.673307 0.0979403 0.297755 0.18167
C_ C_ 0.717709 0.0805094 0.274902 -0.15533
C_ C_ 0.729455 0.0281352 0.264378 0.02923
C_ C_ 0.70479 0.493675 0.293063 -0.15533
C_ C_ 0.65227 0.0146791 0.305002 0.18167
C_ C_ 0.517788 0.135952 0.265244 0.18167
C_ C_ 0.002502 0.177997 0.24335 -0.15533
C_ C_ 0.501911 0.225993 0.254495 0.02923
C_ C_ 0.525331 0.235865 0.304502 -0.15533
C_ C_ 0.546464 0.19377 0.332694 0.18167
C_ C_ 0.504944 0.0477163 0.371611 0.69207
C_ C_ 0.969483 0.513133 0.381178 0.02923
C_ C_ 0.985497 0.461708 0.371812 -0.15533
C_ C_ 0.952745 0.425187 0.375711 -0.15533
C_ C_ 0.904466 0.437063 0.392236 0.02923
C_ C_ 0.88664 0.489112 0.401137 -0.15533
C_ C_ 0.917778 0.528267 0.390379 0.02923
C_ C_ 0.897495 0.0726857 0.389106 0.69207
C_ C_ 0.893026 0.335905 0.390516 0.69661
C_ C_ 0.572381 0.296344 0.0892397 0.18167
C_ C_ 0.524783 0.278643 0.067859 -0.15533
C_ C_ 0.517889 0.267814 0.0139162 0.02923
C_ C_ 0.549004 0.283 0.479551 -0.15533
C_ C_ 0.596665 0.304507 0.007239999999999913 0.18167
C_ C_ 0.714162 0.26461 0.129132 0.18167
C_ C_ 0.737358 0.234817 0.168014 -0.15533
C_ C_ 0.739565 0.255756 0.220138 0.02923
C_ C_ 0.713885 0.305064 0.229029 -0.15533
C_ C_ 0.695101 0.334433 0.186696 0.18167
C_ C_ 0.741602 0.368387 0.0452484 0.69207
C_ C_ 0.77638 0.387194 0.514487 0.02923
C_ C_ 0.75335 0.396996 0.465201 -0.15533
C_ C_ 0.781281 0.400027 0.423357 -0.15533
C_ C_ 0.835879 0.398304 0.433057 0.02923
C_ C_ 0.858871 0.397963 0.48313 -0.15533
C_ C_ 0.829153 0.38935 0.523966 0.02923
C_ C_ 0.850914 0.385684 0.0733902 0.69207
C_ C_ 0.836234 0.39269 0.331309 0.69661
C_ C_ 0.810357 0.437293 0.186183 0.18167
C_ C_ 0.769973 0.463785 0.208031 -0.15533
C_ C_ 0.775862 0.506379 0.24251 0.02923
C_ C_ 0.820189 0.0285517 0.243233 -0.15533
C_ C_ 0.866223 0.494413 0.228465 0.18167
C_ C_ 0.989267 0.347107 0.199539 0.18167
C_ C_ 0.506653 0.314247 0.228724 -0.15533
C_ C_ 0.975453 0.274666 0.246434 0.02923
C_ C_ 0.923489 0.281283 0.228721 -0.15533
C_ C_ 0.905716 0.323176 0.199174 0.18167
C_ C_ 0.986662 0.453124 0.124791 0.69207
C_ C_ 0.520003 0.992675 0.105836 0.02923
C_ C_ 0.501842 0.0436352 0.109827 -0.15533
C_ C_ 0.531032 0.0820627 0.100667 -0.15533
C_ C_ 0.582431 0.0732012 0.0931476 0.02923
C_ C_ 0.600964 0.0200312 0.0893056 -0.15533
C_ C_ 0.571123 0.981076 0.0987562 0.02923
C_ C_ 0.598905 0.423949 0.113883 0.69207
C_ C_ 0.595776 0.169572 0.0996061 0.69661
C_ C_ 0.935807 0.183174 0.433451 0.18167
C_ C_ 0.978019 0.199886 0.464047 -0.15533
C_ C_ 0.972452 0.242249 0.497706 0.02923
C_ C_ 0.928753 0.242909 0.0303581 -0.15533
C_ C_ 0.882787 0.240543 0.480845 0.18167
C_ C_ 0.758943 0.198543 0.350171 0.18167
C_ C_ 0.735215 0.217968 0.306716 -0.15533
C_ C_ 0.761361 0.221964 0.26233 0.02923
C_ C_ 0.81241 0.201243 0.263578 -0.15533
C_ C_ 0.8378 0.189355 0.312962 0.18167
C_ C_ 0.76415 0.123706 0.44868 0.69207
C_ C_ 0.725957 0.117636 0.990862 0.02923
C_ C_ 0.744679 0.121821 0.0436698 -0.15533
C_ C_ 0.712443 0.115231 0.0797144 -0.15533
C_ C_ 0.661184 0.105545 0.0653736 0.02923
C_ C_ 0.645864 0.0937871 0.0132955 -0.15533
C_ C_ 0.675618 0.102005 0.9747 0.02923
C_ C_ 0.653232 0.110796 0.422793 0.69207
C_ C_ 0.643302 0.108223 0.161299 0.69661
C_ C_ 0.867437 0.392431 0.386297 -0.30787
C_ C_ 0.619951 0.113843 0.104614 -0.30787
N_ N_ 0.637357 0.0656464 0.305503 -0.32189
N_ N_ 0.548698 0.144978 0.309136 -0.32189
N_ N_ 0.607511 0.307063 0.0582123 -0.32189
N_ N_ 0.690862 0.310933 0.140877 -0.32189
N_ N_ 0.857483 0.453401 0.195381 -0.32189
N_ N_ 0.939434 0.354743 0.186339 -0.32189
N_ N_ 0.888811 0.202527 0.442988 -0.32189
N_ N_ 0.808391 0.183428 0.35318 -0.32189
O_ O_ 0.00977713 0.0861825 0.39349 -0.63271
O_ O_ 0.53765 0.0415773 0.338004 -0.57982
O_ O_ 0.895301 0.0943744 0.346959 -0.63271
O_ O_ 0.868859 0.0948229 0.423838 -0.57982
O_ O_ 0.741313 0.395341 0.0877389 -0.63271
O_ O_ 0.704173 0.340039 0.0338652 -0.57982
O_ O_ 0.849686 0.344832 0.0984524 -0.63271
O_ O_ 0.876024 0.422845 0.0938999 -0.57982
O_ O_ 0.486113 0.405176 0.100536 -0.63271
O_ O_ 0.955007 0.46206 0.15971 -0.57982
O_ O_ 0.591979 0.394125 0.149567 -0.63271
O_ O_ 0.629703 0.406718 0.0810751 -0.57982
O_ O_ 0.757493 0.104673 0.400806 -0.63271
O_ O_ 0.797623 0.156911 0.460556 -0.57982
O_ O_ 0.647491 0.158358 0.409205 -0.63271
O_ O_ 0.618233 0.0802203 0.403695 -0.57982
F_ F_ 0.92982 0.328804 0.431849 -0.20885
F_ F_ 0.916351 0.318138 0.34775 -0.20885
F_ F_ 0.860303 0.297565 0.394202 -0.20885
F_ F_ 0.810092 0.439827 0.323855 -0.20885
F_ F_ 0.804491 0.355374 0.320051 -0.20885
F_ F_ 0.867543 0.386641 0.290996 -0.20885
F_ F_ 0.566542 0.178063 0.0553222 -0.20885
F_ F_ 0.563596 0.184423 0.137871 -0.20885
F_ F_ 0.632916 0.202777 0.0985214 -0.20885
F_ F_ 0.672769 0.0607394 0.168334 -0.20885
F_ F_ 0.674921 0.144549 0.182521 -0.20885
F_ F_ 0.608278 0.112955 0.197029 -0.20885
Zn Zn 0.585011 0.0791632 0.841508 0.83971
Zn Zn 0.660031 0.340456 0.581641 0.83971
Zn Zn 0.91721 0.414838 0.656493 0.83971
Zn Zn 0.840283 0.15876 0.919955 0.83971
H_ H_ 0.662019 0.132894 0.79076 0.10394
H_ H_ 0.745382 0.10144 0.761993 0.10394
H_ H_ 0.713263 0.445889 0.780575 0.10394
H_ H_ 0.646586 0.986782 0.833823 0.10394
H_ H_ 0.0319524 0.0979394 0.757013 0.10394
H_ H_ 1.00468 0.173716 0.704804 0.10394
H_ H_ 0.525496 0.258998 0.829236 0.10394
H_ H_ 0.556354 0.179228 0.875032 0.10394
H_ H_ 0.525507 0.442761 0.861507 0.10394
H_ H_ 0.98621 0.383504 0.896869 0.10394
H_ H_ 0.851893 0.483994 0.897271 0.10394
H_ H_ 0.57842 0.311326 0.623127 0.10394
H_ H_ -0.0017059999999999853 0.275833 0.595491 0.10394
H_ H_ 0.549211 0.279671 0.945388 0.10394
H_ H_ 0.626696 0.299285 0.480675 0.10394
H_ H_ 0.719592 0.242286 0.592774 0.10394
H_ H_ 0.75842 0.194622 0.672611 0.10394
H_ H_ 0.708046 0.324465 0.767071 0.10394
H_ H_ 0.677561 0.369895 0.687931 0.10394
H_ H_ 0.722517 0.361482 0.941119 0.10394
H_ H_ 0.775342 0.367371 0.879447 0.10394
H_ H_ 0.893361 0.41118 0.995096 0.10394
H_ H_ 0.817045 0.391022 0.673099 0.10394
H_ H_ 0.741013 0.438503 0.697678 0.10394
H_ H_ 0.833559 0.0528512 0.763331 0.10394
H_ H_ 0.906262 0.505157 0.734393 0.10394
H_ H_ 0.507617 0.388536 0.720695 0.10394
H_ H_ 0.552286 0.307092 0.752973 0.10394
H_ H_ 0.914493 0.250529 0.738051 0.10394
H_ H_ 0.879498 0.323372 0.686059 0.10394
H_ H_ 0.967664 0.0561798 0.611055 0.10394
H_ H_ 0.524176 0.106515 0.588115 0.10394
H_ H_ 0.648952 -0.010943000000000036 0.592554 0.10394
H_ H_ 0.943369 0.165139 0.90163 0.10394
H_ H_ 0.517841 0.179984 0.945204 0.10394
H_ H_ 0.916087 0.293524 0.536837 0.10394
H_ H_ 0.847694 0.229388 0.0154409 0.10394
H_ H_ 0.735016 0.211313 0.891929 0.10394
H_ H_ 0.688244 0.231776 0.810341 0.10394
H_ H_ 0.832682 0.223536 0.751 0.10394
H_ H_ 0.873658 0.189363 0.832228 0.10394
H_ H_ 0.793038 0.116008 0.547538 0.10394
H_ H_ 0.737798 0.102001 0.614389 0.10394
H_ H_ 0.612572 0.078137 0.502774 0.10394
C_ C_ 0.675156 0.0926268 0.793166 0.18167
C_ C_ 0.723629 0.0762742 0.77587 -0.15533
C_ C_ 0.737691 0.0221679 0.769561 0.02923
C_ C_ 0.705259 0.487735 0.784837 -0.15533
C_ C_ 0.661411 0.00719516 0.804162 0.18167
C_ C_ 0.524734 0.127342 0.757485 0.18167
C_ C_ 0.0153934 0.178261 0.747265 -0.15533
C_ C_ 0.505948 0.218053 0.757846 0.02923
C_ C_ 0.519763 0.221332 0.810688 -0.15533
C_ C_ 0.544895 0.179181 0.832115 0.18167
C_ C_ 0.506924 0.0381947 0.862147 0.69207
C_ C_ 0.970224 0.510553 0.873772 0.02923
C_ C_ 0.992937 0.460783 0.879049 -0.15533
C_ C_ 0.96664 0.422109 0.892876 -0.15533
C_ C_ 0.914501 0.428748 0.892986 0.02923
C_ C_ 0.891023 0.47841 0.893711 -0.15533
C_ C_ 0.917145 0.519305 0.886082 0.02923
C_ C_ 0.896279 0.0731587 0.881979 0.69207
C_ C_ 0.909813 0.329654 0.897303 0.69661
C_ C_ 0.569184 0.30384 0.584419 0.18167
C_ C_ 0.520027 0.286552 0.565939 -0.15533
C_ C_ 0.515479 0.271205 0.513276 0.02923
C_ C_ 0.554335 0.283907 0.98431 -0.15533
C_ C_ 0.594694 0.29813 0.501027 0.18167
C_ C_ 0.713427 0.258613 0.633176 0.18167
C_ C_ 0.734611 0.230651 0.676094 -0.15533
C_ C_ 0.735988 0.25492 0.725352 0.02923
C_ C_ 0.712696 0.305979 0.730477 -0.15533
C_ C_ 0.6906 0.331197 0.687491 0.18167
C_ C_ 0.745309 0.371643 0.553408 0.69207
C_ C_ 0.776644 0.376543 1.00626278 0.02923
C_ C_ 0.760169 0.368211 0.953812 -0.15533
C_ C_ 0.789906 0.37883 0.91756 -0.15533
C_ C_ 0.838689 0.394802 0.928148 0.02923
C_ C_ 0.855101 0.40512 0.981114 -0.15533
C_ C_ 0.829447 0.387244 0.0197042 0.02923
C_ C_ 0.85501 0.387551 0.576393 0.69207
C_ C_ 0.862331 0.381997 0.830924 0.69661
C_ C_ 0.819397 0.429451 0.686317 0.18167
C_ C_ 0.775839 0.454914 0.707232 -0.15533
C_ C_ 0.780221 0.498387 0.738959 0.02923
C_ C_ 0.827839 0.0184922 0.741176 -0.15533
C_ C_ 0.870679 0.49026 0.726279 0.18167
C_ C_ 0.997262 0.351631 0.707222 0.18167
C_ C_ 0.515322 0.305806 0.729643 -0.15533
C_ C_ 0.989235 0.273079 0.746822 0.02923
C_ C_ 0.937768 0.279364 0.729106 -0.15533
C_ C_ 0.919258 0.31824 0.69636 0.18167
C_ C_ 0.998411 0.449722 0.635186 0.69207
C_ C_ 0.525994 0.980458 0.610976 0.02923
C_ C_ 0.508899 0.033843 0.608262 -0.15533
C_ C_ 0.540788 0.0680609 0.593652 -0.15533
C_ C_ 0.59416 0.0561852 0.593979 0.02923
C_ C_ 0.61095 0.00361577 0.600251 -0.15533
C_ C_ 0.578692 0.965117 0.609239 0.02923
C_ C_ 0.597185 0.420953 0.607538 0.69207
C_ C_ 0.604012 0.151399 0.595064 0.69661
C_ C_ 0.938807 0.186944 0.936643 0.18167
C_ C_ 0.980508 0.209358 0.963059 -0.15533
C_ C_ 0.973115 0.238722 0.00820705 0.02923
C_ C_ 0.924019 0.259335 0.510942 -0.15533
C_ C_ 0.884763 0.227412 0.99804406 0.18167
C_ C_ 0.755604 0.211364 0.861622 0.18167
C_ C_ 0.729318 0.227523 0.815401 -0.15533
C_ C_ 0.757855 0.228268 0.772306 0.02923
C_ C_ 0.81014 0.214371 0.779041 -0.15533
C_ C_ 0.834313 0.198405 0.826271 0.18167
C_ C_ 0.759955 0.127876 0.950851 0.69207
C_ C_ 0.730948 0.11084 0.487393 0.02923
C_ C_ 0.75042 0.111691 0.537975 -0.15533
C_ C_ 0.71997 0.104043 0.576382 -0.15533
C_ C_ 0.669768 0.0925367 0.563053 0.02923
C_ C_ 0.652151 0.083582 0.512081 -0.15533
C_ C_ 0.68007 0.099754 0.47337 0.02923
C_ C_ 0.650177 0.100651 0.920251 0.69207
C_ C_ 0.651428 0.0971856 0.660878 0.69661
C_ C_ 0.882373 0.38457 0.890136 -0.30787
C_ C_ 0.630405 0.0979204 0.603863 -0.30787
N_ N_ 0.643983 0.0572374 0.802642 -0.32189
N_ N_ 0.546495 0.132074 0.806389 -0.32189
N_ N_ 0.603635 0.307426 0.552876 -0.32189
N_ N_ 0.689218 0.306361 0.641348 -0.32189
N_ N_ 0.865997 0.445559 0.698536 -0.32189
N_ N_ 0.948598 0.354683 0.685952 -0.32189
N_ N_ 0.891608 0.19962 0.95272 -0.32189
N_ N_ 0.805894 0.19475 0.864762 -0.32189
O_ O_ 0.00104855 0.0949929 0.889243 -0.63271
O_ O_ 0.548081 0.0268812 0.838077 -0.57982
O_ O_ 0.881486 0.0934228 0.837207 -0.63271
O_ O_ 0.877049 0.0970337 0.924535 -0.57982
O_ O_ 0.743457 0.394039 0.600606 -0.63271
O_ O_ 0.711159 0.339097 0.538274 -0.57982
O_ O_ 0.862854 0.342495 0.594897 -0.63271
O_ O_ 0.884877 0.422965 0.594284 -0.57982
O_ O_ 0.48999 0.402135 0.605886 -0.63271
O_ O_ 0.962402 0.459169 0.667436 -0.57982
O_ O_ 0.597378 0.395995 0.649387 -0.63271
O_ O_ 0.625091 0.400017 0.569333 -0.57982
O_ O_ 0.766622 0.0956121 0.911366 -0.63271
O_ O_ 0.794746 0.159645 0.964466 -0.57982
O_ O_ 0.651549 0.13982 0.89119 -0.63271
O_ O_ 0.615827 0.070605 0.906146 -0.57982
F_ F_ 0.935484 0.328799 0.945388 -0.20885
F_ F_ 0.944724 0.312581 0.862998 -0.20885
F_ F_ 0.878357 0.291559 0.899538 -0.20885
F_ F_ 0.826441 0.422098 0.817171 -0.20885
F_ F_ 0.843158 0.336955 0.815587 -0.20885
F_ F_ 0.900045 0.387337 0.798243 -0.20885
F_ F_ 0.569313 0.15682 0.551558 -0.20885
F_ F_ 0.576932 0.17457 0.635203 -0.20885
F_ F_ 0.636591 0.186785 0.587401 -0.20885
F_ F_ 0.689323 0.059616 0.671107 -0.20885
F_ F_ 0.673763 0.142245 0.676706 -0.20885
F_ F_ 0.611649 0.091258 0.691409 -0.20885
Zn Zn 0.590841 0.589654 0.350562 0.83971
Zn Zn 0.6612 0.848231 0.0811152 0.83971
Zn Zn 0.910819 0.925656 0.155899 0.83971
Zn Zn 0.838011 0.6665 0.419002 0.83971
H_ H_ 0.664402 0.63691 0.307653 0.10394
H_ H_ 0.734029 0.604709 0.256061 0.10394
H_ H_ 0.703214 0.95318 0.271515 0.10394
H_ H_ 0.636201 0.487571 0.32804 0.10394
H_ H_ 0.0195638 0.601876 0.259424 0.10394
H_ H_ 0.978742 0.677563 0.215398 0.10394
H_ H_ 0.5376 0.770876 0.327081 0.10394
H_ H_ 0.586595 0.698504 0.371244 0.10394
H_ H_ 0.533292 0.944835 0.365158 0.10394
H_ H_ 0.967087 0.875286 0.383176 0.10394
H_ H_ 0.85176 0.997124 0.417334 0.10394
H_ H_ 0.590351 0.802182 0.127896 0.10394
H_ H_ 0.9897873 0.788342 0.0913439 0.10394
H_ H_ 0.551859 0.783791 0.445928 0.10394
H_ H_ 0.610891 0.823204 0.971905 0.10394
H_ H_ 0.717969 0.75132 0.103466 0.10394
H_ H_ 0.744738 0.706198 0.18425 0.10394
H_ H_ 0.708848 0.844112 0.270647 0.10394
H_ H_ 0.673185 0.885148 0.191308 0.10394
H_ H_ 0.708534 0.894465 0.457974 0.10394
H_ H_ 0.754484 0.911835 0.389923 0.10394
H_ H_ 0.894305 0.897914 0.485753 0.10394
H_ H_ 0.810291 0.903516 0.168441 0.10394
H_ H_ 0.730865 0.95821 0.179584 0.10394
H_ H_ 0.832129 0.54647 0.285117 0.10394
H_ H_ 0.900032 1.0176093 0.225008 0.10394
H_ H_ 0.515218 0.882363 0.192371 0.10394
H_ H_ 0.556925 0.802738 0.231953 0.10394
H_ H_ 0.903849 0.758699 0.244097 0.10394
H_ H_ 0.864788 0.8403 0.19889 0.10394
H_ H_ 0.957188 0.554948 0.127483 0.10394
H_ H_ 0.513527 0.617781 0.0952203 0.10394
H_ H_ 0.641478 0.501538 0.0886195 0.10394
H_ H_ 0.932726 0.675866 0.388778 0.10394
H_ H_ 0.517394 0.700681 0.429966 0.10394
H_ H_ 0.912026 0.796851 0.0270799 0.10394
H_ H_ 0.850959 0.73635 0.510302 0.10394
H_ H_ 0.737076 0.72418 0.403641 0.10394
H_ H_ 0.688315 0.761977 0.324758 0.10394
H_ H_ 0.821615 0.716776 0.244742 0.10394
H_ H_ 0.866942 0.687653 0.318972 0.10394
H_ H_ 0.783302 0.585384 0.0490476 0.10394
H_ H_ 0.72982 0.578579 0.114841 0.10394
H_ H_ 0.600536 0.603565 0.00603641 0.10394
C_ C_ 0.673853 0.596271 0.298993 0.18167
C_ C_ 0.7206 0.580214 0.279344 -0.15533
C_ C_ 0.73216 0.528002 0.270181 0.02923
C_ C_ 0.69419 0.994316 0.277596 -0.15533
C_ C_ 0.660882 0.512881 0.314592 0.18167
C_ C_ 0.519398 0.635989 0.276868 0.18167
C_ C_ 0.0020000000000000018 0.682911 0.250279 -0.15533
C_ C_ 0.506239 0.726978 0.265001 0.02923
C_ C_ 0.538018 0.734919 0.310036 -0.15533
C_ C_ 0.562955 0.692489 0.335351 0.18167
C_ C_ 0.508677 0.546202 0.380648 0.69207
C_ C_ 0.972352 0.00241464 0.38054 0.02923
C_ C_ -0.011916999999999955 0.948984 0.377881 -0.15533
C_ C_ 0.95257 0.914709 0.379325 -0.15533
C_ C_ 0.901759 0.931535 0.390564 0.02923
C_ C_ 0.888575 0.984108 0.40302 -0.15533
C_ C_ 0.921817 0.0197652 0.394702 0.02923
C_ C_ 0.896062 0.581375 0.388295 0.69207
C_ C_ 0.878876 0.838123 0.380833 0.69661
C_ C_ 0.579887 0.793981 0.086319 0.18167
C_ C_ 0.534587 0.773343 0.070321 -0.15533
C_ C_ 0.514653 0.774591 0.0176909 0.02923
C_ C_ 0.550708 0.789316 0.487474 -0.15533
C_ C_ 0.59152 0.807543 -0.000309963 0.18167
C_ C_ 0.712628 0.771316 0.140777 0.18167
C_ C_ 0.730443 0.746346 0.18609 -0.15533
C_ C_ 0.724153 0.771285 0.233733 0.02923
C_ C_ 0.70301 0.822399 0.234938 -0.15533
C_ C_ 0.686904 0.845642 0.18871 0.18167
C_ C_ 0.748795 0.869146 0.0497246 0.69207
C_ C_ 0.773502 0.875994 0.510083 0.02923
C_ C_ 0.747523 0.89131 0.463474 -0.15533
C_ C_ 0.776838 0.901891 0.423909 -0.15533
C_ C_ 0.828763 0.904275 0.430349 0.02923
C_ C_ 0.852763 0.894384 0.479957 -0.15533
C_ C_ 0.826652 0.882114 0.51929 0.02923
C_ C_ 0.862192 0.883045 0.0727873 0.69207
C_ C_ 0.829656 0.904147 0.331833 0.69661
C_ C_ 0.81231 0.93913 0.18477 0.18167
C_ C_ 0.767924 0.967549 0.197748 -0.15533
C_ C_ 0.772201 1.0095995 0.234224 0.02923
C_ C_ 0.824695 0.519398 0.255342 -0.15533
C_ C_ 0.862603 1.00079 0.220218 0.18167
C_ C_ 0.989356 0.853184 0.196942 0.18167
C_ C_ 0.51539 0.805458 0.222374 -0.15533
C_ C_ 0.981573 0.778412 0.243629 0.02923
C_ C_ 0.926692 0.787159 0.232124 -0.15533
C_ C_ 0.906692 0.831625 0.205112 0.18167
C_ C_ 0.99397 0.960103 0.127606 0.69207
C_ C_ 0.519831 0.490098 0.115203 0.02923
C_ C_ 0.498307 0.541631 0.105576 -0.15533
C_ C_ 0.530564 0.578882 0.0998432 -0.15533
C_ C_ 0.584295 0.565904 0.0967043 0.02923
C_ C_ 0.602229 0.514904 0.0969497 -0.15533
C_ C_ 0.57275 0.476634 0.108233 0.02923
C_ C_ 0.596351 0.928361 0.102975 0.69207
C_ C_ 0.596698 0.662861 0.108996 0.69661
C_ C_ 0.933428 0.694624 0.427394 0.18167
C_ C_ 0.978731 0.712037 0.454175 -0.15533
C_ C_ 0.972657 0.747919 0.495568 0.02923
C_ C_ 0.920938 0.761997 1.00196762 -0.15533
C_ C_ 0.885235 0.729986 0.492079 0.18167
C_ C_ 0.753965 0.723047 0.368847 0.18167
C_ C_ 0.727225 0.746277 0.325276 -0.15533
C_ C_ 0.752334 0.747806 0.279459 0.02923
C_ C_ 0.801433 0.723144 0.278047 -0.15533
C_ C_ 0.827314 0.702934 0.321964 0.18167
C_ C_ 0.765279 0.628571 0.461536 0.69207
C_ C_ 0.725171 0.612009 0.990646 0.02923
C_ C_ 0.745527 0.600815 0.0419046 -0.15533
C_ C_ 0.712652 0.592123 0.0780772 -0.15533
C_ C_ 0.659527 0.604589 0.0669355 0.02923
C_ C_ 0.639564 0.608026 0.0174782 -0.15533
C_ C_ 0.670714 0.611936 0.978223 0.02923
C_ C_ 0.657122 0.619994 0.432676 0.69207
C_ C_ 0.644496 0.600522 0.162335 0.69661
C_ C_ 0.859547 0.894607 0.383576 -0.30787
C_ C_ 0.623118 0.607052 0.108259 -0.30787
N_ N_ 0.643739 0.56271 0.313099 -0.32189
N_ N_ 0.552926 0.644963 0.317048 -0.32189
N_ N_ 0.608961 0.808378 0.0511333 -0.32189
N_ N_ 0.691105 0.820908 0.143368 -0.32189
N_ N_ 0.858523 0.954632 0.195901 -0.32189
N_ N_ 0.938413 0.86576 0.193375 -0.32189
N_ N_ 0.887927 0.705693 0.446233 -0.32189
N_ N_ 0.801881 0.700603 0.364889 -0.32189
O_ O_ 0.00433875 0.592681 0.412557 -0.63271
O_ O_ 0.541995 0.543531 0.346062 -0.57982
O_ O_ 0.891023 0.606148 0.346449 -0.63271
O_ O_ 0.874092 0.604506 0.427793 -0.57982
O_ O_ 0.747115 0.901492 0.0892053 -0.63271
O_ O_ 0.708857 0.84553 0.0365527 -0.57982
O_ O_ 0.854915 0.850757 0.105002 -0.63271
O_ O_ 0.880421 0.924213 0.0922664 -0.57982
O_ O_ 0.492011 0.90798 0.0894227 -0.63271
O_ O_ 0.959166 0.971287 0.160303 -0.57982
O_ O_ 0.589295 0.901076 0.142514 -0.63271
O_ O_ 0.63464 0.91269 0.0750581 -0.57982
O_ O_ 0.760439 0.608804 0.414356 -0.63271
O_ O_ 0.795871 0.663255 0.472788 -0.57982
O_ O_ 0.664026 0.658968 0.407359 -0.63271
O_ O_ 0.620283 0.590285 0.416115 -0.57982
F_ F_ 0.916605 0.82173 0.417588 -0.20885
F_ F_ 0.897718 0.814674 0.335903 -0.20885
F_ F_ 0.840291 0.8082 0.38499 -0.20885
F_ F_ 0.806964 0.953371 0.331225 -0.20885
F_ F_ 0.793585 0.870217 0.319883 -0.20885
F_ F_ 0.861975 0.895932 0.291688 -0.20885
F_ F_ 0.566278 0.669385 0.0623746 -0.20885
F_ F_ 0.566399 0.678643 0.149401 -0.20885
F_ F_ 0.635671 0.695948 0.110082 -0.20885
F_ F_ 0.675757 0.552692 0.168395 -0.20885
F_ F_ 0.674183 0.637802 0.180339 -0.20885
F_ F_ 0.606065 0.598671 0.196006 -0.20885
Zn Zn 0.591099 0.580871 0.84808 0.83971
Zn Zn 0.664264 0.831382 0.586985 0.83971
Zn Zn 0.913659 0.913319 0.650509 0.83971
Zn Zn 0.841421 0.656191 0.921361 0.83971
H_ H_ 0.673456 0.629703 0.8182 0.10394
H_ H_ 0.757123 0.596311 0.779908 0.10394
H_ H_ 0.718149 0.947936 0.785174 0.10394
H_ H_ 0.633403 0.479997 0.804686 0.10394
H_ H_ 0.0439091 0.599539 0.747879 0.10394
H_ H_ 0.99610761 0.673833 0.703718 0.10394
H_ H_ 0.519913 0.765429 0.830563 0.10394
H_ H_ 0.562343 0.697211 0.882077 0.10394
H_ H_ 0.530638 0.93694 0.866167 0.10394
H_ H_ 0.987277 0.87868 0.885979 0.10394
H_ H_ 0.859265 0.98756 0.900661 0.10394
H_ H_ 0.580929 0.789809 0.631841 0.10394
H_ H_ 0.0114012 0.758771 0.595053 0.10394
H_ H_ 0.531776 0.788781 0.939522 0.10394
H_ H_ 0.617947 0.824485 0.492857 0.10394
H_ H_ 0.719268 0.734504 0.61586 0.10394
H_ H_ 0.742529 0.698577 0.701576 0.10394
H_ H_ 0.706968 0.844508 0.772747 0.10394
H_ H_ 0.684721 0.883939 0.68918 0.10394
H_ H_ 0.724076 0.86555 0.950954 0.10394
H_ H_ 0.780553 0.860879 0.881479 0.10394
H_ H_ 0.900131 0.911063 0.992319 0.10394
H_ H_ 0.808997 0.892028 0.665067 0.10394
H_ H_ 0.734414 0.943874 0.695054 0.10394
H_ H_ 0.831497 0.5519 0.76706 0.10394
H_ H_ 0.899311 1.0147503 0.718642 0.10394
H_ H_ 0.515398 0.870034 0.690155 0.10394
H_ H_ 0.551477 0.791985 0.732563 0.10394
H_ H_ 0.912418 0.748283 0.724471 0.10394
H_ H_ 0.872153 0.820738 0.680613 0.10394
H_ H_ 0.983914 0.554958 0.658773 0.10394
H_ H_ 0.517901 0.616017 0.616956 0.10394
H_ H_ 0.636497 0.499538 0.58104 0.10394
H_ H_ 0.953102 0.626843 0.954093 0.10394
H_ H_ 0.512726 0.69073 0.948933 0.10394
H_ H_ 0.918098 0.783217 0.544943 0.10394
H_ H_ 0.843967 0.73633 0.998852 0.10394
H_ H_ 0.743156 0.70879 0.896294 0.10394
H_ H_ 0.695468 0.744375 0.824434 0.10394
H_ H_ 0.837805 0.747224 0.759331 0.10394
H_ H_ 0.874701 0.68286 0.818813 0.10394
H_ H_ 0.788657 0.611566 0.563295 0.10394
H_ H_ 0.734721 0.589028 0.62312 0.10394
H_ H_ 0.612466 0.589501 0.506438 0.10394
C_ C_ 0.685025 0.589084 0.807098 0.18167
C_ C_ 0.731884 0.569275 0.787372 -0.15533
C_ C_ 0.73831 0.519319 0.768738 0.02923
C_ C_ 0.70713 0.989979 0.786999 -0.15533
C_ C_ 0.656884 0.506187 0.796928 0.18167
C_ C_ 0.532128 0.628028 0.773189 0.18167
C_ C_ 0.0077333 0.678479 0.742598 -0.15533
C_ C_ 0.504646 0.715889 0.762069 0.02923
C_ C_ 0.522065 0.726859 0.814218 -0.15533
C_ C_ 0.547178 0.687851 0.842533 0.18167
C_ C_ 0.512499 0.544848 0.876918 0.69207
C_ C_ 0.975403 0.00821861 0.880306 0.02923
C_ C_ -0.0006669999999999732 0.956353 0.881822 -0.15533
C_ C_ 0.968773 0.918478 0.886669 -0.15533
C_ C_ 0.917645 0.928612 0.89461 0.02923
C_ C_ 0.897097 0.980259 0.897904 -0.15533
C_ C_ 0.923509 0.0197405 0.883496 0.02923
C_ C_ 0.886947 0.569795 0.884917 0.69207
C_ C_ 0.902017 0.833497 0.877261 0.69661
C_ C_ 0.57189 0.786956 0.592401 0.18167
C_ C_ 0.52727 0.76637 0.571246 -0.15533
C_ C_ 0.51621 0.767773 0.517551 0.02923
C_ C_ 0.544086 0.790646 0.982322 -0.15533
C_ C_ 0.597125 0.801384 0.511315 0.18167
C_ C_ 0.719385 0.757987 0.649372 0.18167
C_ C_ 0.730907 0.737979 0.696693 -0.15533
C_ C_ 0.735019 0.772816 0.739549 0.02923
C_ C_ 0.714058 0.822906 0.735967 -0.15533
C_ C_ 0.701284 0.842408 0.687817 0.18167
C_ C_ 0.745094 0.86449 0.552076 0.69207
C_ C_ 0.785142 0.870714 1.010366 0.02923
C_ C_ 0.764649 0.869117 0.95954 -0.15533
C_ C_ 0.795054 0.869946 0.91881 -0.15533
C_ C_ 0.843582 0.886946 0.929634 0.02923
C_ C_ 0.862641 0.896107 0.982095 -0.15533
C_ C_ 0.835655 0.8834 0.0221692 0.02923
C_ C_ 0.853673 0.880651 0.572826 0.69207
C_ C_ 0.849552 0.897042 0.831761 0.69661
C_ C_ 0.81297 0.9295 0.684344 0.18167
C_ C_ 0.771775 0.956003 0.707435 -0.15533
C_ C_ 0.779039 0.000745274 0.737433 0.02923
C_ C_ 0.829352 0.516512 0.747205 -0.15533
C_ C_ 0.86439 0.99652915 0.710604 0.18167
C_ C_ 0.994644 0.847614 0.690819 0.18167
C_ C_ 0.512942 0.795503 0.719586 -0.15533
C_ C_ 0.986661 0.772794 0.73589 0.02923
C_ C_ 0.936157 0.780094 0.723549 -0.15533
C_ C_ 0.913437 0.819617 0.694543 0.18167
C_ C_ 0.989027 0.953616 0.613991 0.69207
C_ C_ 0.52097 0.485415 0.615894 0.02923
C_ C_ 0.502687 0.540184 0.61861 -0.15533
C_ C_ 0.535204 0.576499 0.609947 -0.15533
C_ C_ 0.582165 0.564051 0.597192 0.02923
C_ C_ 0.597342 0.511358 0.588905 -0.15533
C_ C_ 0.569404 0.472885 0.603699 0.02923
C_ C_ 0.60146 0.911486 0.612589 0.69207
C_ C_ 0.604099 0.657618 0.608634 0.69661
C_ C_ 0.942286 0.667863 0.953856 0.18167
C_ C_ 0.981121 0.697382 0.971358 -0.15533
C_ C_ 0.972197 0.746792 0.991179 0.02923
C_ C_ 0.924833 0.756768 0.514968 -0.15533
C_ C_ 0.882604 0.730976 0.986576 0.18167
C_ C_ 0.761582 0.712309 0.864687 0.18167
C_ C_ 0.738244 0.738934 0.825856 -0.15533
C_ C_ 0.764823 0.75262 0.786317 0.02923
C_ C_ 0.815862 0.736318 0.786548 -0.15533
C_ C_ 0.837527 0.701812 0.824183 0.18167
C_ C_ 0.758975 0.623684 0.952076 0.69207
C_ C_ 0.731031 0.617846 0.498991 0.02923
C_ C_ 0.749106 0.611402 0.549735 -0.15533
C_ C_ 0.717304 0.597798 0.584324 -0.15533
C_ C_ 0.665198 0.593993 0.56931 0.02923
C_ C_ 0.648482 0.602235 0.518501 -0.15533
C_ C_ 0.679774 0.617072 0.483874 0.02923
C_ C_ 0.648492 0.610038 0.926021 0.69207
C_ C_ 0.645103 0.587989 0.665307 0.69661
C_ C_ 0.879319 0.88801 0.885308 -0.30787
C_ C_ 0.624845 0.601249 0.610562 -0.30787
N_ N_ 0.647539 0.557145 0.806798 -0.32189
N_ N_ 0.556778 0.640486 0.819014 -0.32189
N_ N_ 0.60618 0.799767 0.562713 -0.32189
N_ N_ 0.70216 0.808719 0.645185 -0.32189
N_ N_ 0.858632 0.949127 0.685337 -0.32189
N_ N_ 0.943115 0.856663 0.684598 -0.32189
N_ N_ 0.893841 0.687579 0.958872 -0.32189
N_ N_ 0.810664 0.690374 0.862996 -0.32189
O_ O_ 0.994068 0.598357 0.876776 -0.63271
O_ O_ 0.54655 0.533895 0.844488 -0.57982
O_ O_ 0.880125 0.59521 0.84185 -0.63271
O_ O_ 0.865573 0.587996 0.925103 -0.57982
O_ O_ 0.738795 0.898734 0.589503 -0.63271
O_ O_ 0.715151 0.828171 0.544145 -0.57982
O_ O_ 0.857977 0.838548 0.597862 -0.63271
O_ O_ 0.885123 0.914294 0.586068 -0.57982
O_ O_ 0.496028 0.899127 0.594143 -0.63271
O_ O_ 0.954159 0.962915 0.648294 -0.57982
O_ O_ 0.597641 0.8841 0.65445 -0.63271
O_ O_ 0.637645 0.893441 0.583337 -0.57982
O_ O_ 0.758793 0.594468 0.908923 -0.63271
O_ O_ 0.795689 0.654638 0.962278 -0.57982
O_ O_ 0.649962 0.650595 0.899435 -0.63271
O_ O_ 0.612887 0.580461 0.913175 -0.57982
F_ F_ 0.93727 0.820101 0.915321 -0.20885
F_ F_ 0.929699 0.827441 0.834531 -0.20885
F_ F_ 0.877728 0.791999 0.868746 -0.20885
F_ F_ 0.816062 0.940199 0.828684 -0.20885
F_ F_ 0.821395 0.860035 0.810788 -0.20885
F_ F_ 0.879645 0.907147 0.794603 -0.20885
F_ F_ 0.568473 0.668761 0.565431 -0.20885
F_ F_ 0.575678 0.6725 0.651351 -0.20885
F_ F_ 0.641363 0.688689 0.612827 -0.20885
F_ F_ 0.669856 0.539482 0.667254 -0.20885
F_ F_ 0.67942 0.622338 0.687684 -0.20885
F_ F_ 0.606804 0.587069 0.696365 -0.20885
_cell_length_a 26.508
_cell_length_b 26.37200000322088
_cell_length_c 26.311999743092066
_cell_angle_alpha 93.74100058972084
_cell_angle_beta 96.04100104955006
_cell_angle_gamma 83.6869992558723
_symmetry_space_group_name_H-M         'P 1'
_symmetry_Int_Tables_number            1
loop_
_symmetry_equiv_pos_as_xyz
   'x, y, z'
                         
loop_
_atom_site_label
_atom_site_type_symbol
_atom_site_fract_x 
_atom_site_fract_y
_atom_site_fract_z
_atom_site_charge
Zn Zn 0.0883358 0.0809637 0.34747 0.83971
Zn Zn 0.156067 0.349654 0.0929069 0.83971
Zn Zn 0.402015 0.420372 0.154629 0.83971
Zn Zn 0.340887 0.157261 0.416956 0.83971
H_ H_ 0.174736 0.126615 0.321297 0.10394
H_ H_ 0.257517 0.0928664 0.290067 0.10394
H_ H_ 0.211166 0.449886 0.310173 0.10394
H_ H_ 0.125445 0.981469 0.305613 0.10394
H_ H_ 0.521354 0.0976409 0.246983 0.10394
H_ H_ 0.484391 0.16724 0.193299 0.10394
H_ H_ 0.0219555 0.264605 0.345566 0.10394
H_ H_ 0.0569607 0.18178 0.383299 0.10394
H_ H_ 0.0241409 0.446687 0.360719 0.10394
H_ H_ 0.481039 0.375154 0.38219 0.10394
H_ H_ 0.356601 0.486228 0.412364 0.10394
H_ H_ 0.0861976 0.296377 0.143637 0.10394
H_ H_ 0.500152 0.266273 0.0947182 0.10394
H_ H_ 0.0378913 0.283435 0.443273 0.10394
H_ H_ 0.118935 0.320781 0.994736 0.10394
H_ H_ 0.227287 0.262383 0.106172 0.10394
H_ H_ 0.270626 0.218434 0.177642 0.10394
H_ H_ 0.220236 0.339572 0.276394 0.10394
H_ H_ 0.164999 0.377779 0.207576 0.10394
H_ H_ 0.219918 0.372379 0.446179 0.10394
H_ H_ 0.266169 0.396219 0.379831 0.10394
H_ H_ 0.402712 0.395085 0.484615 0.10394
H_ H_ 0.296067 0.394359 0.167416 0.10394
H_ H_ 0.222212 0.440284 0.203143 0.10394
H_ H_ 0.339416 0.0376274 0.28186 0.10394
H_ H_ 0.39324 0.506345 0.225775 0.10394
H_ H_ 0.012738 0.37394 0.192483 0.10394
H_ H_ 0.0485967 0.295145 0.232308 0.10394
H_ H_ 0.408993 0.243573 0.20349 0.10394
H_ H_ 0.365444 0.326124 0.177172 0.10394
H_ H_ 0.461184 0.0567439 0.114159 0.10394
H_ H_ 0.0324276 0.125218 0.116742 0.10394
H_ H_ 0.150095 0.00619623 0.0967878 0.10394
H_ H_ 0.445552 0.154486 0.404392 0.10394
H_ H_ 0.0162195 0.182251 0.458347 0.10394
H_ H_ 0.413864 0.277255 0.0381212 0.10394
H_ H_ 0.343477 0.264234 0.472741 0.10394
H_ H_ 0.239942 0.194188 0.37965 0.10394
H_ H_ 0.202643 0.238452 0.306547 0.10394
H_ H_ 0.352462 0.246078 0.258934 0.10394
H_ H_ 0.388063 0.193018 0.327291 0.10394
H_ H_ 0.295945 0.117434 0.0529106 0.10394
H_ H_ 0.246828 0.104456 0.122837 0.10394
H_ H_ 0.115905 0.0789886 0.0139387 0.10394
C_ C_ 0.180451 0.0879846 0.306552 0.18167
C_ C_ 0.225034 0.069643 0.286746 -0.15533
C_ C_ 0.236523 0.0171122 0.2734 0.02923
C_ C_ 0.201759 0.490472 0.305016 -0.15533
C_ C_ 0.155183 0.00489655 0.302578 0.18167
C_ C_ 0.0330697 0.135126 0.264045 0.18167
C_ C_ 0.495281 0.176331 0.235395 -0.15533
C_ C_ -0.00176341 0.226328 0.27123 0.02923
C_ C_ 0.018754 0.22695 0.324597 -0.15533
C_ C_ 0.0432498 0.181864 0.344073 0.18167
C_ C_ 0.00881518 0.0392608 0.367923 0.69207
C_ C_ 0.473481 0.505816 0.379072 0.02923
C_ C_ 0.491601 0.452316 0.371088 -0.15533
C_ C_ 0.462079 0.413635 0.378512 -0.15533
C_ C_ 0.410927 0.425243 0.38846 0.02923
C_ C_ 0.395026 0.476427 0.404069 -0.15533
C_ C_ 0.422652 0.517378 0.39432 0.02923
C_ C_ 0.39377 0.069881 0.383817 0.69207
C_ C_ 0.401672 0.328445 0.377627 0.69661
C_ C_ 0.0780057 0.287981 0.102139 0.18167
C_ C_ 0.0299684 0.272308 0.0846726 -0.15533
C_ C_ 0.0175873 0.267676 0.0314116 0.02923
C_ C_ 0.0501088 0.283987 0.48517 -0.15533
C_ C_ 0.091747 0.310328 0.0194593 0.18167
C_ C_ 0.230774 0.284425 0.143949 0.18167
C_ C_ 0.256742 0.259264 0.185197 -0.15533
C_ C_ 0.246898 0.275089 0.233499 0.02923
C_ C_ 0.216247 0.320677 0.24053 -0.15533
C_ C_ 0.184114 0.339843 0.201392 0.18167
C_ C_ 0.239057 0.370898 0.0488514 0.69207
C_ C_ 0.278882 0.378856 0.505529 0.02923
C_ C_ 0.257965 0.378518 0.455141 -0.15533
C_ C_ 0.286835 0.383076 0.415858 -0.15533
C_ C_ 0.339871 0.384705 0.424462 0.02923
C_ C_ 0.359519 0.395695 0.477183 -0.15533
C_ C_ 0.331199 0.388521 0.517916 0.02923
C_ C_ 0.35154 0.392141 0.069019 0.69207
C_ C_ 0.347546 0.390642 0.32846 0.69661
C_ C_ 0.30169 0.429495 0.186804 0.18167
C_ C_ 0.259926 0.455465 0.207233 -0.15533
C_ C_ 0.270854 0.49519 0.242146 0.02923
C_ C_ 0.328354 0.0118283 0.250845 -0.15533
C_ C_ 0.355288 0.49203 0.220113 0.18167
C_ C_ 0.481849 0.362624 0.212808 0.18167
C_ C_ 0.00900829 0.301714 0.223739 -0.15533
C_ C_ 0.480398 0.270161 0.225293 0.02923
C_ C_ 0.428411 0.276591 0.207564 -0.15533
C_ C_ 0.405393 0.322685 0.191257 0.18167
C_ C_ 0.483897 0.451317 0.123095 0.69207
C_ C_ 0.0288841 0.997961 0.121279 0.02923
C_ C_ 0.0125567 0.0501948 0.131855 -0.15533
C_ C_ 0.0457685 0.0876807 0.123737 -0.15533
C_ C_ 0.0967775 0.0724012 0.112739 0.02923
C_ C_ 0.111479 0.0189333 0.104152 -0.15533
C_ C_ 0.0794644 0.981972 0.110945 0.02923
C_ C_ 0.0957775 0.428006 0.112309 0.69207
C_ C_ 0.117142 0.165973 0.110587 0.69661
C_ C_ 0.437084 0.173324 0.442392 0.18167
C_ C_ 0.480293 0.193353 0.4697 -0.15533
C_ C_ 0.47194 0.239369 0.496987 0.02923
C_ C_ 0.423776 0.250955 0.00701673 -0.15533
C_ C_ 0.379953 0.239227 0.477231 0.18167
C_ C_ 0.264735 0.204948 0.353701 0.18167
C_ C_ 0.242344 0.234116 0.314448 -0.15533
C_ C_ 0.272946 0.246787 0.2775 0.02923
C_ C_ 0.324553 0.23031 0.281552 -0.15533
C_ C_ 0.34701 0.19985 0.320105 0.18167
C_ C_ 0.259234 0.130259 0.449504 0.69207
C_ C_ 0.238257 0.100846 0.992519 0.02923
C_ C_ 0.258642 0.104084 0.0445746 -0.15533
C_ C_ 0.227157 0.106485 0.0843851 -0.15533
C_ C_ 0.176206 0.0937708 0.0753148 0.02923
C_ C_ 0.158023 0.0830918 0.0239877 -0.15533
C_ C_ 0.186382 0.0930287 0.984448 0.02923
C_ C_ 0.151464 0.106298 0.424679 0.69207
C_ C_ 0.164657 0.106102 0.1693 0.69661
C_ C_ 0.372592 0.383867 0.381433 -0.30787
C_ C_ 0.138323 0.109552 0.115646 -0.30787
N_ N_ 0.14434 0.0546313 0.314453 -0.32189
N_ N_ 0.0499262 0.137673 0.31392 -0.32189
N_ N_ 0.10486 0.310057 0.0711846 -0.32189
N_ N_ 0.196256 0.325281 0.153784 -0.32189
N_ N_ 0.345683 0.451638 0.187501 -0.32189
N_ N_ 0.432065 0.364746 0.192339 -0.32189
N_ N_ 0.388947 0.195519 0.445203 -0.32189
N_ N_ 0.316076 0.188759 0.355385 -0.32189
O_ O_ 0.510302 0.0810671 0.409989 -0.63271
O_ O_ 0.0482196 0.0284641 0.342725 -0.57982
O_ O_ 0.399612 0.0973625 0.343925 -0.63271
O_ O_ 0.367484 0.0909233 0.42097 -0.57982
O_ O_ 0.240089 0.404544 0.0876256 -0.63271
O_ O_ 0.201153 0.342147 0.0433322 -0.57982
O_ O_ 0.352872 0.35271 0.0969532 -0.63271
O_ O_ 0.380021 0.428978 0.087272 -0.57982
O_ O_ 0.991115 0.408952 0.101075 -0.63271
O_ O_ 0.453441 0.462209 0.15906 -0.57982
O_ O_ 0.0898961 0.400414 0.150133 -0.63271
O_ O_ 0.134667 0.413541 0.0858519 -0.57982
O_ O_ 0.260764 0.107175 0.404614 -0.63271
O_ O_ 0.296716 0.159064 0.464393 -0.57982
O_ O_ 0.143849 0.15213 0.40579 -0.63271
O_ O_ 0.116941 0.074303 0.413283 -0.57982
F_ F_ 0.436846 0.319416 0.416732 -0.20885
F_ F_ 0.423551 0.315054 0.333959 -0.20885
F_ F_ 0.367167 0.292638 0.379374 -0.20885
F_ F_ 0.313677 0.432672 0.327445 -0.20885
F_ F_ 0.322042 0.34902 0.306476 -0.20885
F_ F_ 0.378202 0.398265 0.291085 -0.20885
F_ F_ 0.0833637 0.172322 0.0659684 -0.20885
F_ F_ 0.0926414 0.189018 0.152325 -0.20885
F_ F_ 0.156119 0.196033 0.101485 -0.20885
F_ F_ 0.194606 0.0621959 0.175973 -0.20885
F_ F_ 0.195818 0.145276 0.183369 -0.20885
F_ F_ 0.132745 0.109708 0.2093 -0.20885
Zn Zn 0.0935718 0.0829167 0.849807 0.83971
Zn Zn 0.163259 0.343122 0.582577 0.83971
Zn Zn 0.410819 0.412175 0.655774 0.83971
Zn Zn 0.341439 0.147036 0.914443 0.83971
H_ H_ 0.1746 0.127176 0.805461 0.10394
H_ H_ 0.242821 0.0933607 0.761057 0.10394
H_ H_ 0.207305 0.451783 0.789454 0.10394
H_ H_ 0.139369 0.977362 0.827995 0.10394
H_ H_ 0.528102 0.0892753 0.737457 0.10394
H_ H_ 0.508001 0.170147 0.691238 0.10394
H_ H_ 0.0343217 0.265456 0.843818 0.10394
H_ H_ 0.07658 0.191603 0.883003 0.10394
H_ H_ 0.030149 0.453676 0.871042 0.10394
H_ H_ 0.465348 0.38147 0.853957 0.10394
H_ H_ 0.345274 0.499158 0.89654 0.10394
H_ H_ 0.0826935 0.306419 0.629948 0.10394
H_ H_ 0.487258 0.285782 0.5871 0.10394
H_ H_ 0.0361212 0.284831 0.95875 0.10394
H_ H_ 0.123148 0.309986 0.480654 0.10394
H_ H_ 0.228122 0.251846 0.596844 0.10394
H_ H_ 0.265635 0.200825 0.674358 0.10394
H_ H_ 0.210363 0.332028 0.767654 0.10394
H_ H_ 0.183062 0.377836 0.689366 0.10394
H_ H_ 0.212422 0.367869 0.949644 0.10394
H_ H_ 0.256602 0.389447 0.880756 0.10394
H_ H_ 0.379458 0.431618 0.988202 0.10394
H_ H_ 0.306761 0.399357 0.660369 0.10394
H_ H_ 0.230176 0.447387 0.692469 0.10394
H_ H_ 0.333861 0.0433977 0.774383 0.10394
H_ H_ 0.403634 0.506045 0.73187 0.10394
H_ H_ 0.0165671 0.383899 0.707989 0.10394
H_ H_ 0.0626052 0.306299 0.740839 0.10394
H_ H_ 0.416952 0.234832 0.712875 0.10394
H_ H_ 0.375431 0.316598 0.673819 0.10394
H_ H_ 0.46937 0.0454606 0.611947 0.10394
H_ H_ 0.0171319 0.120917 0.60202 0.10394
H_ H_ 0.151111 0.0102766 0.58899 0.10394
H_ H_ 0.444987 0.15104 0.896439 0.10394
H_ H_ 0.0196999 0.193613 0.955024 0.10394
H_ H_ 0.417191 0.30321 0.517885 0.10394
H_ H_ 0.346434 0.236571 -0.005284999999999984 0.10394
H_ H_ 0.236512 0.184363 0.880866 0.10394
H_ H_ 0.197056 0.232515 0.79982 0.10394
H_ H_ 0.345062 0.231383 0.751784 0.10394
H_ H_ 0.381728 0.204097 0.832826 0.10394
H_ H_ 0.283061 0.122667 0.553189 0.10394
H_ H_ 0.229108 0.126014 0.617313 0.10394
H_ H_ 0.107881 0.0899395 0.504496 0.10394
C_ C_ 0.180256 0.0860064 0.798892 0.18167
C_ C_ 0.22487 0.066223 0.776497 -0.15533
C_ C_ 0.233222 0.012605 0.76353 0.02923
C_ C_ 0.198687 0.491196 0.792506 -0.15533
C_ C_ 0.16192 0.00234377 0.813128 0.18167
C_ C_ 0.0353898 0.135795 0.773042 0.18167
C_ C_ 0.507855 0.170631 0.731762 -0.15533
C_ C_ 0.0126749 0.224981 0.772831 0.02923
C_ C_ 0.0313159 0.22839 0.825108 -0.15533
C_ C_ 0.0549887 0.184143 0.847234 0.18167
C_ C_ 0.00758901 0.0484673 0.869616 0.69207
C_ C_ 0.471154 0.509469 0.880288 0.02923
C_ C_ 0.485524 0.457112 0.870632 -0.15533
C_ C_ 0.452627 0.419132 0.870817 -0.15533
C_ C_ 0.401306 0.433946 0.885748 0.02923
C_ C_ 0.384643 0.487128 0.893259 -0.15533
C_ C_ 0.418343 0.522566 0.892343 0.02923
C_ C_ 0.394903 0.0660072 0.877415 0.69207
C_ C_ 0.393408 0.337571 0.892106 0.69661
C_ C_ 0.0731737 0.302013 0.589378 0.18167
C_ C_ 0.0275703 0.279882 0.570536 -0.15533
C_ C_ 0.0163788 0.270918 0.519187 0.02923
C_ C_ 0.0478201 0.287041 0.998245 -0.15533
C_ C_ 0.096219 0.300314 0.504866 0.18167
C_ C_ 0.229059 0.268107 0.633726 0.18167
C_ C_ 0.249248 0.24054 0.677628 -0.15533
C_ C_ 0.244754 0.263813 0.726496 0.02923
C_ C_ 0.221064 0.312998 0.732201 -0.15533
C_ C_ 0.205307 0.33976 0.686568 0.18167
C_ C_ 0.245353 0.367065 0.546004 0.69207
C_ C_ 0.273034 0.37765 0.00874867 0.02923
C_ C_ 0.250303 0.379575 0.959185 -0.15533
C_ C_ 0.278279 0.385992 0.917664 -0.15533
C_ C_ 0.328097 0.399787 0.927506 0.02923
C_ C_ 0.346231 0.410454 0.978817 -0.15533
C_ C_ 0.323266 0.39168 0.0180129 0.02923
C_ C_ 0.355476 0.388105 0.570737 0.69207
C_ C_ 0.339666 0.383544 0.826345 0.69661
C_ C_ 0.311545 0.434859 0.682367 0.18167
C_ C_ 0.267553 0.460498 0.704087 -0.15533
C_ C_ 0.276968 0.500724 0.744844 0.02923
C_ C_ 0.325991 0.0126831 0.74405 -0.15533
C_ C_ 0.366526 0.490715 0.727068 0.18167
C_ C_ 0.488896 0.353078 0.713569 0.18167
C_ C_ 0.0207768 0.307861 0.731397 -0.15533
C_ C_ 0.485725 0.265117 0.733114 0.02923
C_ C_ 0.437656 0.269076 0.710726 -0.15533
C_ C_ 0.41372 0.314179 0.692044 0.18167
C_ C_ 0.48545 0.447458 0.62649 0.69207
C_ C_ 0.0246551 0.991842 0.606489 0.02923
C_ C_ 0.00904901 0.0445481 0.612271 -0.15533
C_ C_ 0.0373726 0.0833412 0.607848 -0.15533
C_ C_ 0.088641 0.0716224 0.600468 0.02923
C_ C_ 0.109093 0.0194072 0.596335 -0.15533
C_ C_ 0.0767756 0.978292 0.599217 0.02923
C_ C_ 0.101634 0.422321 0.602942 0.69207
C_ C_ 0.100386 0.168251 0.599732 0.69661
C_ C_ 0.440217 0.180064 0.928083 0.18167
C_ C_ 0.480634 0.199729 0.955382 -0.15533
C_ C_ 0.472147 0.243609 0.986833 0.02923
C_ C_ 0.421616 0.262423 0.500631 -0.15533
C_ C_ 0.382031 0.226933 0.982298 0.18167
C_ C_ 0.260013 0.194455 0.851613 0.18167
C_ C_ 0.236767 0.222003 0.808277 -0.15533
C_ C_ 0.266725 0.237178 0.772855 0.02923
C_ C_ 0.31825 0.226154 0.779949 -0.15533
C_ C_ 0.340337 0.207032 0.826762 0.18167
C_ C_ 0.269544 0.109471 0.953057 0.69207
C_ C_ 0.22827 0.115753 0.489013 0.02923
C_ C_ 0.246721 0.114335 0.539641 -0.15533
C_ C_ 0.214184 0.113479 0.57732 -0.15533
C_ C_ 0.164142 0.101807 0.566395 0.02923
C_ C_ 0.147103 0.0944569 0.513981 -0.15533
C_ C_ 0.175628 0.105875 0.475064 0.02923
C_ C_ 0.157692 0.100137 0.933058 0.69207
C_ C_ 0.149524 0.111656 0.662171 0.69661
C_ C_ 0.363495 0.390733 0.881933 -0.30787
C_ C_ 0.126747 0.113563 0.606559 -0.30787
N_ N_ 0.14917 0.0541147 0.815264 -0.32189
N_ N_ 0.0597631 0.139826 0.819597 -0.32189
N_ N_ 0.106005 0.310782 0.556764 -0.32189
N_ N_ 0.203068 0.316146 0.639303 -0.32189
N_ N_ 0.358797 0.448917 0.694885 -0.32189
N_ N_ 0.439642 0.354559 0.691108 -0.32189
N_ N_ 0.391703 0.19168 0.941739 -0.32189
N_ N_ 0.312426 0.182958 0.855946 -0.32189
O_ O_ 0.502972 0.0827088 0.888088 -0.63271
O_ O_ 0.0494003 0.0369536 0.848681 -0.57982
O_ O_ 0.390476 0.0965133 0.839037 -0.63271
O_ O_ 0.382397 0.0846966 0.922903 -0.57982
O_ O_ 0.244737 0.397352 0.58634 -0.63271
O_ O_ 0.207256 0.340369 0.534595 -0.57982
O_ O_ 0.361321 0.344428 0.593323 -0.63271
O_ O_ 0.382494 0.424244 0.590685 -0.57982
O_ O_ 1.00249 0.405434 0.610332 -0.63271
O_ O_ 0.451986 0.461804 0.66003 -0.57982
O_ O_ 0.105298 0.396187 0.644562 -0.63271
O_ O_ 0.132529 0.406781 0.567335 -0.57982
O_ O_ 0.25963 0.0924307 0.906381 -0.63271
O_ O_ 0.301246 0.144471 0.963041 -0.57982
O_ O_ 0.160954 0.14051 0.907249 -0.63271
O_ O_ 0.121017 0.0721171 0.916978 -0.57982
F_ F_ 0.42781 0.345142 0.93408 -0.20885
F_ F_ 0.422644 0.318902 0.852824 -0.20885
F_ F_ 0.36302 0.299782 0.899217 -0.20885
F_ F_ 0.304314 0.424243 0.819105 -0.20885
F_ F_ 0.313514 0.339131 0.815235 -0.20885
F_ F_ 0.373874 0.383643 0.787638 -0.20885
F_ F_ 0.0726606 0.172645 0.552507 -0.20885
F_ F_ 0.0678591 0.184865 0.637117 -0.20885
F_ F_ 0.135159 0.203398 0.598352 -0.20885
F_ F_ 0.184248 0.0707417 0.67236 -0.20885
F_ F_ 0.172195 0.152575 0.680753 -0.20885
F_ F_ 0.115087 0.111022 0.696103 -0.20885
Zn Zn 0.0861751 0.591616 0.350218 0.83971
Zn Zn 0.16193 0.845132 0.0818251 0.83971
Zn Zn 0.409979 0.915079 0.150398 0.83971
Zn Zn 0.340421 0.652789 0.414496 0.83971
H_ H_ 0.164917 0.634928 0.304409 0.10394
H_ H_ 0.239526 0.597742 0.26561 0.10394
H_ H_ 0.209806 0.943441 0.274522 0.10394
H_ H_ 0.129292 0.488458 0.335402 0.10394
H_ H_ 0.519259 0.598797 0.260652 0.10394
H_ H_ 0.483132 0.670009 0.208355 0.10394
H_ H_ 0.0390063 0.77406 0.337982 0.10394
H_ H_ 0.0702129 0.69563 0.385653 0.10394
H_ H_ 0.0246021 0.936968 0.361472 0.10394
H_ H_ 0.481732 0.87537 0.374769 0.10394
H_ H_ 0.352877 0.984346 0.40007 0.10394
H_ H_ 0.0757571 0.813122 0.128348 0.10394
H_ H_ 0.511519 0.763508 0.0974538 0.10394
H_ H_ 0.0289926 0.803935 0.445571 0.10394
H_ H_ 0.126235 0.813054 0.981251 0.10394
H_ H_ 0.200035 0.741946 0.0999154 0.10394
H_ H_ 0.236502 0.696095 0.175884 0.10394
H_ H_ 0.239381 0.84394 0.262681 0.10394
H_ H_ 0.193504 0.881772 0.185766 0.10394
H_ H_ 0.216108 0.887149 0.445572 0.10394
H_ H_ 0.2668 0.891356 0.377828 0.10394
H_ H_ 0.402507 0.876967 0.481218 0.10394
H_ H_ 0.296184 0.905986 0.146301 0.10394
H_ H_ 0.225058 0.965338 0.175363 0.10394
H_ H_ 0.326293 0.543416 0.278284 0.10394
H_ H_ 0.406423 -0.012359000000000009 0.235954 0.10394
H_ H_ 0.0149674 0.879979 0.185873 0.10394
H_ H_ 0.0520098 0.801996 0.227796 0.10394
H_ H_ 0.407091 0.745289 0.225736 0.10394
H_ H_ 0.368181 0.820924 0.181046 0.10394
H_ H_ 0.456805 0.555031 0.104945 0.10394
H_ H_ 0.0101575 0.621682 0.135622 0.10394
H_ H_ 0.1364 0.517853 0.0998973 0.10394
H_ H_ 0.442494 0.661855 0.389023 0.10394
H_ H_ 0.0144721 0.696214 0.444405 0.10394
H_ H_ 0.417837 0.772625 0.0574917 0.10394
H_ H_ 0.348505 0.731274 0.493985 0.10394
H_ H_ 0.254164 0.720471 0.399134 0.10394
H_ H_ 0.207575 0.763865 0.322965 0.10394
H_ H_ 0.332555 0.700449 0.236645 0.10394
H_ H_ 0.382973 0.687766 0.321682 0.10394
H_ H_ 0.277031 0.619413 0.057894 0.10394
H_ H_ 0.222838 0.614857 0.127691 0.10394
H_ H_ 0.0925113 0.604171 0.015204 0.10394
C_ C_ 0.174999 0.594086 0.303995 0.18167
C_ C_ 0.217394 0.573298 0.280494 -0.15533
C_ C_ 0.230157 0.518991 0.276668 0.02923
C_ C_ 0.201566 0.983395 0.282848 -0.15533
C_ C_ 0.155753 0.512888 0.321929 0.18167
C_ C_ 0.0197914 0.640447 0.278803 0.18167
C_ C_ 0.500702 0.675881 0.245672 -0.15533
C_ C_ 0.00583593 0.731644 0.270231 0.02923
C_ C_ 0.0305059 0.737092 0.32106 -0.15533
C_ C_ 0.0525619 0.691778 0.345744 0.18167
C_ C_ 0.006129999999999969 0.551262 0.383305 0.69207
C_ C_ 0.473481 0.00628643 0.37886 0.02923
C_ C_ 0.491543 0.955204 0.370081 -0.15533
C_ C_ 0.46254 0.915801 0.377542 -0.15533
C_ C_ 0.4114 0.926304 0.387992 0.02923
C_ C_ 0.392297 0.977135 0.395818 -0.15533
C_ C_ 0.420832 0.0174235 0.388549 0.02923
C_ C_ 0.3957 0.56665 0.386805 0.69207
C_ C_ 0.402075 0.829343 0.378818 0.69661
C_ C_ 0.0697519 0.8075 0.0875044 0.18167
C_ C_ 0.0210709 0.790494 0.0657117 -0.15533
C_ C_ 0.0149292 0.777722 0.0127609 0.02923
C_ C_ 0.0475395 0.796773 0.483311 -0.15533
C_ C_ 0.0983227 0.803647 0.00666272 0.18167
C_ C_ 0.209286 0.762479 0.135222 0.18167
C_ C_ 0.23118 0.736975 0.179064 -0.15533
C_ C_ 0.240631 0.764027 0.226749 0.02923
C_ C_ 0.22502 0.818684 0.229045 -0.15533
C_ C_ 0.206772 0.841684 0.182949 0.18167
C_ C_ 0.236161 0.872006 0.0405743 0.69207
C_ C_ 0.279465 0.874659 0.503113 0.02923
C_ C_ 0.25599 0.880076 0.452079 -0.15533
C_ C_ 0.286469 0.887362 0.415079 -0.15533
C_ C_ 0.340906 0.883976 0.424987 0.02923
C_ C_ 0.361941 0.879444 0.474223 -0.15533
C_ C_ 0.331407 0.883038 0.513835 0.02923
C_ C_ 0.351886 0.883795 0.0663398 0.69207
C_ C_ 0.345006 0.889848 0.325795 0.69661
C_ C_ 0.305991 0.940878 0.172051 0.18167
C_ C_ 0.264648 0.971574 0.192345 -0.15533
C_ C_ 0.275533 1.00318785 0.23478 0.02923
C_ C_ 0.317696 0.515794 0.248389 -0.15533
C_ C_ 0.366723 0.986443 0.222024 0.18167
C_ C_ 0.492426 0.84964 0.19865 0.18167
C_ C_ 0.0111712 0.809902 0.222069 -0.15533
C_ C_ 0.485325 0.766197 0.230796 0.02923
C_ C_ 0.433382 0.772709 0.215753 -0.15533
C_ C_ 0.410862 0.815862 0.191672 0.18167
C_ C_ 0.482706 0.954479 0.110435 0.69207
C_ C_ 0.0181289 0.494542 0.11628 0.02923
C_ C_ -0.00420100000000001 0.54667 0.117653 -0.15533
C_ C_ 0.0282383 0.586008 0.123208 -0.15533
C_ C_ 0.0774805 0.574833 0.111324 0.02923
C_ C_ 0.0973759 0.523655 0.102547 -0.15533
C_ C_ 0.0704025 0.481924 0.10774 0.02923
C_ C_ 0.102448 0.928691 0.113093 0.69207
C_ C_ 0.0913895 0.669124 0.118229 0.69661
C_ C_ 0.441427 0.679843 0.427097 0.18167
C_ C_ 0.479792 0.708041 0.447728 -0.15533
C_ C_ 0.473226 0.741818 0.490069 0.02923
C_ C_ 0.423073 0.750064 0.0220111 -0.15533
C_ C_ 0.385821 0.722834 0.482894 0.18167
C_ C_ 0.267677 0.716489 0.362065 0.18167
C_ C_ 0.243225 0.742761 0.31922 -0.15533
C_ C_ 0.266307 0.737321 0.273768 0.02923
C_ C_ 0.31648 0.712751 0.272746 -0.15533
C_ C_ 0.341847 0.694544 0.318206 0.18167
C_ C_ 0.263768 0.61807 0.448328 0.69207
C_ C_ 0.214814 0.622418 0.996134 0.02923
C_ C_ 0.235201 0.626257 0.0481389 -0.15533
C_ C_ 0.203642 0.622379 0.0875475 -0.15533
C_ C_ 0.154718 0.60989 0.0778472 0.02923
C_ C_ 0.135074 0.601353 0.0248075 -0.15533
C_ C_ 0.164036 0.609854 0.984217 0.02923
C_ C_ 0.15186 0.609873 0.426994 0.69207
C_ C_ 0.140789 0.611698 0.174188 0.69661
C_ C_ 0.373926 0.883354 0.379381 -0.30787
C_ C_ 0.115008 0.613224 0.118986 -0.30787
N_ N_ 0.142877 0.56272 0.321641 -0.32189
N_ N_ 0.0508936 0.64447 0.322647 -0.32189
N_ N_ 0.106257 0.81328 0.0578473 -0.32189
N_ N_ 0.191335 0.812907 0.140947 -0.32189
N_ N_ 0.355402 0.951035 0.183352 -0.32189
N_ N_ 0.439932 0.853663 0.183992 -0.32189
N_ N_ 0.394465 0.687825 0.445069 -0.32189
N_ N_ 0.315549 0.692567 0.359177 -0.32189
O_ O_ 0.504125 0.587013 0.407653 -0.63271
O_ O_ 0.0408143 0.547059 0.350549 -0.57982
O_ O_ 0.392346 0.583131 0.340002 -0.63271
O_ O_ 0.374969 0.592947 0.424687 -0.57982
O_ O_ 0.233938 0.904332 0.0793359 -0.63271
O_ O_ 0.207988 0.834303 0.0372247 -0.57982
O_ O_ 0.344896 0.846049 0.0925864 -0.63271
O_ O_ 0.38618 0.913267 0.0847326 -0.57982
O_ O_ 0.988477 0.92579 0.089775 -0.63271
O_ O_ 0.454989 0.962253 0.148792 -0.57982
O_ O_ 0.0987083 0.901244 0.152695 -0.63271
O_ O_ 0.127267 0.9079 0.0745668 -0.57982
O_ O_ 0.261127 0.597275 0.402344 -0.63271
O_ O_ 0.293646 0.654714 0.460045 -0.57982
O_ O_ 0.160196 0.649847 0.399491 -0.63271
O_ O_ 0.110496 0.58584 0.41459 -0.57982
F_ F_ 0.440663 0.819268 0.417278 -0.20885
F_ F_ 0.423242 0.81381 0.332959 -0.20885
F_ F_ 0.371863 0.790801 0.38308 -0.20885
F_ F_ 0.313949 0.93445 0.32793 -0.20885
F_ F_ 0.316151 0.850429 0.310387 -0.20885
F_ F_ 0.377317 0.891705 0.288639 -0.20885
F_ F_ 0.0547524 0.675319 0.0755698 -0.20885
F_ F_ 0.0671753 0.685981 0.160261 -0.20885
F_ F_ 0.125322 0.702679 0.112979 -0.20885
F_ F_ 0.175679 0.567373 0.179614 -0.20885
F_ F_ 0.166893 0.652994 0.194324 -0.20885
F_ F_ 0.105607 0.609 0.211467 -0.20885
Zn Zn 0.084755 0.588282 0.848625 0.83971
Zn Zn 0.163347 0.851096 0.582057 0.83971
Zn Zn 0.412121 0.909743 0.651011 0.83971
Zn Zn 0.334562 0.65987 0.921237 0.83971
H_ H_ 0.168512 0.638394 0.81418 0.10394
H_ H_ 0.255388 0.601104 0.786134 0.10394
H_ H_ 0.205591 0.937872 0.779089 0.10394
H_ H_ 0.124349 0.488712 0.818312 0.10394
H_ H_ 0.5274 0.586978 0.762088 0.10394
H_ H_ 0.48689 0.659165 0.703701 0.10394
H_ H_ 0.0150348 0.771047 0.838525 0.10394
H_ H_ 0.0519146 0.692672 0.88377 0.10394
H_ H_ 0.0398746 0.948872 0.886093 0.10394
H_ H_ 0.475726 0.871531 0.869149 0.10394
H_ H_ 0.34841 0.979187 0.890996 0.10394
H_ H_ 0.0934904 0.791076 0.628288 0.10394
H_ H_ 0.503583 0.74724 0.593641 0.10394
H_ H_ 0.0497223 0.776777 0.942237 0.10394
H_ H_ 0.11442 0.830305 0.474762 0.10394
H_ H_ 0.232484 0.762804 0.595353 0.10394
H_ H_ 0.258814 0.706207 0.668626 0.10394
H_ H_ 0.209643 0.831229 0.768862 0.10394
H_ H_ 0.175598 0.878177 0.698199 0.10394
H_ H_ 0.212466 0.863054 0.940005 0.10394
H_ H_ 0.26301 0.879526 0.872469 0.10394
H_ H_ 0.397271 0.88328 0.980309 0.10394
H_ H_ 0.312394 0.889744 0.65931 0.10394
H_ H_ 0.235443 0.933204 0.690087 0.10394
H_ H_ 0.335357 0.543559 0.78654 0.10394
H_ H_ 0.400321 0.000715707 0.721088 0.10394
H_ H_ 0.0189171 0.870628 0.671126 0.10394
H_ H_ 0.059023 0.800302 0.725967 0.10394
H_ H_ 0.40652 0.736039 0.722216 0.10394
H_ H_ 0.370538 0.813473 0.674952 0.10394
H_ H_ 0.468261 0.555175 0.636064 0.10394
H_ H_ 0.0320687 0.61877 0.631967 0.10394
H_ H_ 0.146761 0.50107 0.57967 0.10394
H_ H_ 0.440022 0.663409 0.901573 0.10394
H_ H_ 0.0196919 0.678073 0.969118 0.10394
H_ H_ 0.418593 0.773012 0.541414 0.10394
H_ H_ 0.345161 0.727583 0.0136209 0.10394
H_ H_ 0.228176 0.696421 0.884084 0.10394
H_ H_ 0.187502 0.733125 0.808513 0.10394
H_ H_ 0.333662 0.718579 0.743974 0.10394
H_ H_ 0.372619 0.680122 0.823045 0.10394
H_ H_ 0.293987 0.605298 0.549519 0.10394
H_ H_ 0.241053 0.603146 0.616512 0.10394
H_ H_ 0.107465 0.590557 0.511765 0.10394
C_ C_ 0.179983 0.597577 0.810668 0.18167
C_ C_ 0.224908 0.578076 0.785496 -0.15533
C_ C_ 0.235005 0.523441 0.77898 0.02923
C_ C_ 0.204554 0.978849 0.78642 -0.15533
C_ C_ 0.153367 0.514003 0.811156 0.18167
C_ C_ 0.0365443 0.637953 0.766367 0.18167
C_ C_ 0.50576 0.666653 0.742073 -0.15533
C_ C_ 0.00976726 0.727088 0.765459 0.02923
C_ C_ 0.0250473 0.734128 0.816947 -0.15533
C_ C_ 0.0446502 0.691094 0.842267 0.18167
C_ C_ -0.0028359999999999497 0.551443 0.856415 0.69207
C_ C_ 0.470916 -0.00122001 0.869302 0.02923
C_ C_ 0.491303 0.947526 0.871348 -0.15533
C_ C_ 0.458999 0.909665 0.874834 -0.15533
C_ C_ 0.407958 0.919378 0.880385 0.02923
C_ C_ 0.388414 0.971438 0.882694 -0.15533
C_ C_ 0.417438 0.0119105 0.87408 0.02923
C_ C_ 0.395495 0.575195 0.892328 0.69207
C_ C_ 0.395287 0.823915 0.877943 0.69661
C_ C_ 0.0823305 0.787802 0.586394 0.18167
C_ C_ 0.0360664 0.770538 0.56845 -0.15533
C_ C_ 0.0181187 0.773342 0.515787 0.02923
C_ C_ 0.0564918 0.780042 0.984869 -0.15533
C_ C_ 0.0890552 0.820304 0.50381 0.18167
C_ C_ 0.22465 0.774207 0.634511 0.18167
C_ C_ 0.240199 0.743996 0.675558 -0.15533
C_ C_ 0.235068 0.763199 0.725415 0.02923
C_ C_ 0.207311 0.812695 0.733882 -0.15533
C_ C_ 0.18637 0.838359 0.692252 0.18167
C_ C_ 0.245668 0.870668 0.543046 0.69207
C_ C_ 0.271531 0.879268 0.0018400000000000638 0.02923
C_ C_ 0.250926 0.873081 0.950997 -0.15533
C_ C_ 0.280732 0.882712 0.912012 -0.15533
C_ C_ 0.33314 0.885641 0.919428 0.02923
C_ C_ 0.354903 0.886932 0.971627 -0.15533
C_ C_ 0.323687 0.885885 0.0137229 0.02923
C_ C_ 0.35805 0.88147 0.564683 0.69207
C_ C_ 0.343476 0.881191 0.821772 0.69661
C_ C_ 0.315587 0.922458 0.684382 0.18167
C_ C_ 0.271902 0.94857 0.699685 -0.15533
C_ C_ 0.276376 0.99547 0.730803 0.02923
C_ C_ 0.32623 0.516558 0.753141 -0.15533
C_ C_ 0.365723 0.983187 0.722478 0.18167
C_ C_ 0.49047 0.841492 0.699504 0.18167
C_ C_ 0.0170749 0.808267 0.720439 -0.15533
C_ C_ 0.483862 0.756666 0.726673 0.02923
C_ C_ 0.431328 0.763584 0.708272 -0.15533
C_ C_ 0.410274 0.808826 0.68749 0.18167
C_ C_ 0.49122 0.944187 0.618406 0.69207
C_ C_ 0.0323974 0.489769 0.628399 0.02923
C_ C_ 1.0180772 0.541894 0.639703 -0.15533
C_ C_ 0.044731 0.579279 0.621877 -0.15533
C_ C_ 0.093611 0.564484 0.607539 0.02923
C_ C_ 0.109355 0.512133 0.594846 -0.15533
C_ C_ 0.078974 0.474587 0.605995 0.02923
C_ C_ 0.0993893 0.924584 0.597743 0.69207
C_ C_ 0.113526 0.658011 0.61279 0.69661
C_ C_ 0.433276 0.686468 0.933833 0.18167
C_ C_ 0.47505 0.706433 0.957851 -0.15533
C_ C_ 0.47035 0.74366 -0.000856685 0.02923
C_ C_ 0.425232 0.751204 0.506541 -0.15533
C_ C_ 0.382172 0.726542 0.996275 0.18167
C_ C_ 0.252303 0.698843 0.854092 0.18167
C_ C_ 0.229378 0.725609 0.810808 -0.15533
C_ C_ 0.256916 0.732617 0.769413 0.02923
C_ C_ 0.308827 0.716209 0.775303 -0.15533
C_ C_ 0.330808 0.691888 0.818698 0.18167
C_ C_ 0.247497 0.633798 0.956115 0.69207
C_ C_ 0.233151 0.603624 0.488285 0.02923
C_ C_ 0.254262 0.60018 0.539543 -0.15533
C_ C_ 0.221742 0.602701 0.578841 -0.15533
C_ C_ 0.169427 0.595084 0.568673 0.02923
C_ C_ 0.148365 0.592026 0.518653 -0.15533
C_ C_ 0.178265 0.60648 0.480879 0.02923
C_ C_ 0.136656 0.617453 0.931111 0.69207
C_ C_ 0.163818 0.593494 0.667215 0.69661
C_ C_ 0.370875 0.878488 0.87686 -0.30787
C_ C_ 0.135534 0.600716 0.612456 -0.30787
N_ N_ 0.146005 0.565383 0.821472 -0.32189
N_ N_ 0.0556469 0.645587 0.815321 -0.32189
N_ N_ 0.106967 0.813185 0.553754 -0.32189
N_ N_ 0.192736 0.817375 0.643028 -0.32189
N_ N_ 0.36004 0.942475 0.690204 -0.32189
N_ N_ 0.440867 0.84683 0.679412 -0.32189
N_ N_ 0.386037 0.700644 0.949381 -0.32189
N_ N_ 0.302391 0.684428 0.858001 -0.32189
O_ O_ 0.504591 0.591887 0.89616 -0.63271
O_ O_ 0.0386594 0.540231 0.836362 -0.57982
O_ O_ 0.393475 0.599023 0.850428 -0.63271
O_ O_ 0.364051 0.594544 0.926179 -0.57982
O_ O_ 0.247251 0.900422 0.58648 -0.63271
O_ O_ 0.212855 0.837977 0.535595 -0.57982
O_ O_ 0.360729 0.837896 0.587948 -0.63271
O_ O_ 0.383194 0.917832 0.585403 -0.57982
O_ O_ 0.988385 0.91011 0.586061 -0.63271
O_ O_ 0.460355 0.951381 0.652444 -0.57982
O_ O_ 0.097542 0.896143 0.637165 -0.63271
O_ O_ 0.138727 0.914109 0.571011 -0.57982
O_ O_ 0.252611 0.602041 0.915488 -0.63271
O_ O_ 0.283659 0.666406 0.96587 -0.57982
O_ O_ 0.146117 0.656216 0.905619 -0.63271
O_ O_ 0.095211 0.593206 0.915738 -0.57982
F_ F_ 0.430562 0.819195 0.919752 -0.20885
F_ F_ 0.419121 0.809944 0.833238 -0.20885
F_ F_ 0.365556 0.786325 0.884651 -0.20885
F_ F_ 0.310255 0.924059 0.818474 -0.20885
F_ F_ 0.317288 0.840881 0.808791 -0.20885
F_ F_ 0.376294 0.88324 0.782214 -0.20885
F_ F_ 0.0748839 0.665698 0.573338 -0.20885
F_ F_ 0.100769 0.674234 0.659531 -0.20885
F_ F_ 0.147795 0.691942 0.606212 -0.20885
F_ F_ 0.194934 0.54639 0.67093 -0.20885
F_ F_ 0.189863 0.635592 0.682528 -0.20885
F_ F_ 0.129669 0.59182 0.702857 -0.20885
Zn Zn 0.583399 0.088797 0.341321 0.83971
Zn Zn 0.663575 0.344565 0.0854005 0.83971
Zn Zn 0.910286 0.418969 0.15614 0.83971
Zn Zn 0.843255 0.158041 0.412958 0.83971
H_ H_ 0.661761 0.138892 0.301446 0.10394
H_ H_ 0.74169 0.108023 0.263964 0.10394
H_ H_ 0.71912 0.454252 0.294243 0.10394
H_ H_ 0.62936 0.986304 0.315775 0.10394
H_ H_ 0.0357334 0.0998754 0.241713 0.10394
H_ H_ 0.985154 0.174266 0.200154 0.10394
H_ H_ 0.522447 0.273232 0.324486 0.10394
H_ H_ 0.573078 0.201661 0.364871 0.10394
H_ H_ 0.529324 0.442441 0.357207 0.10394
H_ H_ 0.965812 0.387901 0.365321 0.10394
H_ H_ 0.848634 0.500672 0.412676 0.10394
H_ H_ 0.57765 0.306157 0.130265 0.10394
H_ H_ 1.00831904 0.254903 0.108629 0.10394
H_ H_ 0.540266 0.27637 0.438201 0.10394
H_ H_ 0.621344 0.317648 0.984217 0.10394
H_ H_ 0.708706 0.24963 0.0915232 0.10394
H_ H_ 0.752469 0.195925 0.159 0.10394
H_ H_ 0.717329 0.319697 0.26985 0.10394
H_ H_ 0.683303 0.37426 0.192581 0.10394
H_ H_ 0.712727 0.39996 0.459032 0.10394
H_ H_ 0.760341 0.412108 0.387104 0.10394
H_ H_ 0.90032 0.392583 0.487662 0.10394
H_ H_ 0.804494 0.406705 0.158918 0.10394
H_ H_ 0.73364 0.451398 0.193424 0.10394
H_ H_ 0.823993 0.0648153 0.266677 0.10394
H_ H_ 0.903133 0.510617 0.230531 0.10394
H_ H_ 0.505163 0.394242 0.208086 0.10394
H_ H_ 0.545809 0.315609 0.243428 0.10394
H_ H_ 0.896873 0.261365 0.245407 0.10394
H_ H_ 0.866355 0.33755 0.197865 0.10394
H_ H_ 0.979743 0.0609839 0.151744 0.10394
H_ H_ 0.512872 0.119417 0.0971082 0.10394
H_ H_ 0.638152 0.0108883 0.0807913 0.10394
H_ H_ 0.940142 0.156209 0.400877 0.10394
H_ H_ 0.51741 0.178079 0.464326 0.10394
H_ H_ 0.91878 0.27369 0.0574171 0.10394
H_ H_ 0.843403 0.25276 0.489798 0.10394
H_ H_ 0.735008 0.199359 0.38058 0.10394
H_ H_ 0.693801 0.232009 0.308034 0.10394
H_ H_ 0.835049 0.202231 0.232812 0.10394
H_ H_ 0.878405 0.182625 0.318995 0.10394
H_ H_ 0.784527 0.124635 0.0555786 0.10394
H_ H_ 0.729316 0.117932 0.115936 0.10394
H_ H_ 0.605113 0.088734 0.00191627 0.10394
C_ C_ 0.673307 0.0979403 0.297755 0.18167
C_ C_ 0.717709 0.0805094 0.274902 -0.15533
C_ C_ 0.729455 0.0281352 0.264378 0.02923
C_ C_ 0.70479 0.493675 0.293063 -0.15533
C_ C_ 0.65227 0.0146791 0.305002 0.18167
C_ C_ 0.517788 0.135952 0.265244 0.18167
C_ C_ 0.002502 0.177997 0.24335 -0.15533
C_ C_ 0.501911 0.225993 0.254495 0.02923
C_ C_ 0.525331 0.235865 0.304502 -0.15533
C_ C_ 0.546464 0.19377 0.332694 0.18167
C_ C_ 0.504944 0.0477163 0.371611 0.69207
C_ C_ 0.969483 0.513133 0.381178 0.02923
C_ C_ 0.985497 0.461708 0.371812 -0.15533
C_ C_ 0.952745 0.425187 0.375711 -0.15533
C_ C_ 0.904466 0.437063 0.392236 0.02923
C_ C_ 0.88664 0.489112 0.401137 -0.15533
C_ C_ 0.917778 0.528267 0.390379 0.02923
C_ C_ 0.897495 0.0726857 0.389106 0.69207
C_ C_ 0.893026 0.335905 0.390516 0.69661
C_ C_ 0.572381 0.296344 0.0892397 0.18167
C_ C_ 0.524783 0.278643 0.067859 -0.15533
C_ C_ 0.517889 0.267814 0.0139162 0.02923
C_ C_ 0.549004 0.283 0.479551 -0.15533
C_ C_ 0.596665 0.304507 0.007239999999999913 0.18167
C_ C_ 0.714162 0.26461 0.129132 0.18167
C_ C_ 0.737358 0.234817 0.168014 -0.15533
C_ C_ 0.739565 0.255756 0.220138 0.02923
C_ C_ 0.713885 0.305064 0.229029 -0.15533
C_ C_ 0.695101 0.334433 0.186696 0.18167
C_ C_ 0.741602 0.368387 0.0452484 0.69207
C_ C_ 0.77638 0.387194 0.514487 0.02923
C_ C_ 0.75335 0.396996 0.465201 -0.15533
C_ C_ 0.781281 0.400027 0.423357 -0.15533
C_ C_ 0.835879 0.398304 0.433057 0.02923
C_ C_ 0.858871 0.397963 0.48313 -0.15533
C_ C_ 0.829153 0.38935 0.523966 0.02923
C_ C_ 0.850914 0.385684 0.0733902 0.69207
C_ C_ 0.836234 0.39269 0.331309 0.69661
C_ C_ 0.810357 0.437293 0.186183 0.18167
C_ C_ 0.769973 0.463785 0.208031 -0.15533
C_ C_ 0.775862 0.506379 0.24251 0.02923
C_ C_ 0.820189 0.0285517 0.243233 -0.15533
C_ C_ 0.866223 0.494413 0.228465 0.18167
C_ C_ 0.989267 0.347107 0.199539 0.18167
C_ C_ 0.506653 0.314247 0.228724 -0.15533
C_ C_ 0.975453 0.274666 0.246434 0.02923
C_ C_ 0.923489 0.281283 0.228721 -0.15533
C_ C_ 0.905716 0.323176 0.199174 0.18167
C_ C_ 0.986662 0.453124 0.124791 0.69207
C_ C_ 0.520003 0.992675 0.105836 0.02923
C_ C_ 0.501842 0.0436352 0.109827 -0.15533
C_ C_ 0.531032 0.0820627 0.100667 -0.15533
C_ C_ 0.582431 0.0732012 0.0931476 0.02923
C_ C_ 0.600964 0.0200312 0.0893056 -0.15533
C_ C_ 0.571123 0.981076 0.0987562 0.02923
C_ C_ 0.598905 0.423949 0.113883 0.69207
C_ C_ 0.595776 0.169572 0.0996061 0.69661
C_ C_ 0.935807 0.183174 0.433451 0.18167
C_ C_ 0.978019 0.199886 0.464047 -0.15533
C_ C_ 0.972452 0.242249 0.497706 0.02923
C_ C_ 0.928753 0.242909 0.0303581 -0.15533
C_ C_ 0.882787 0.240543 0.480845 0.18167
C_ C_ 0.758943 0.198543 0.350171 0.18167
C_ C_ 0.735215 0.217968 0.306716 -0.15533
C_ C_ 0.761361 0.221964 0.26233 0.02923
C_ C_ 0.81241 0.201243 0.263578 -0.15533
C_ C_ 0.8378 0.189355 0.312962 0.18167
C_ C_ 0.76415 0.123706 0.44868 0.69207
C_ C_ 0.725957 0.117636 0.990862 0.02923
C_ C_ 0.744679 0.121821 0.0436698 -0.15533
C_ C_ 0.712443 0.115231 0.0797144 -0.15533
C_ C_ 0.661184 0.105545 0.0653736 0.02923
C_ C_ 0.645864 0.0937871 0.0132955 -0.15533
C_ C_ 0.675618 0.102005 0.9747 0.02923
C_ C_ 0.653232 0.110796 0.422793 0.69207
C_ C_ 0.643302 0.108223 0.161299 0.69661
C_ C_ 0.867437 0.392431 0.386297 -0.30787
C_ C_ 0.619951 0.113843 0.104614 -0.30787
N_ N_ 0.637357 0.0656464 0.305503 -0.32189
N_ N_ 0.548698 0.144978 0.309136 -0.32189
N_ N_ 0.607511 0.307063 0.0582123 -0.32189
N_ N_ 0.690862 0.310933 0.140877 -0.32189
N_ N_ 0.857483 0.453401 0.195381 -0.32189
N_ N_ 0.939434 0.354743 0.186339 -0.32189
N_ N_ 0.888811 0.202527 0.442988 -0.32189
N_ N_ 0.808391 0.183428 0.35318 -0.32189
O_ O_ 0.00977713 0.0861825 0.39349 -0.63271
O_ O_ 0.53765 0.0415773 0.338004 -0.57982
O_ O_ 0.895301 0.0943744 0.346959 -0.63271
O_ O_ 0.868859 0.0948229 0.423838 -0.57982
O_ O_ 0.741313 0.395341 0.0877389 -0.63271
O_ O_ 0.704173 0.340039 0.0338652 -0.57982
O_ O_ 0.849686 0.344832 0.0984524 -0.63271
O_ O_ 0.876024 0.422845 0.0938999 -0.57982
O_ O_ 0.486113 0.405176 0.100536 -0.63271
O_ O_ 0.955007 0.46206 0.15971 -0.57982
O_ O_ 0.591979 0.394125 0.149567 -0.63271
O_ O_ 0.629703 0.406718 0.0810751 -0.57982
O_ O_ 0.757493 0.104673 0.400806 -0.63271
O_ O_ 0.797623 0.156911 0.460556 -0.57982
O_ O_ 0.647491 0.158358 0.409205 -0.63271
O_ O_ 0.618233 0.0802203 0.403695 -0.57982
F_ F_ 0.92982 0.328804 0.431849 -0.20885
F_ F_ 0.916351 0.318138 0.34775 -0.20885
F_ F_ 0.860303 0.297565 0.394202 -0.20885
F_ F_ 0.810092 0.439827 0.323855 -0.20885
F_ F_ 0.804491 0.355374 0.320051 -0.20885
F_ F_ 0.867543 0.386641 0.290996 -0.20885
F_ F_ 0.566542 0.178063 0.0553222 -0.20885
F_ F_ 0.563596 0.184423 0.137871 -0.20885
F_ F_ 0.632916 0.202777 0.0985214 -0.20885
F_ F_ 0.672769 0.0607394 0.168334 -0.20885
F_ F_ 0.674921 0.144549 0.182521 -0.20885
F_ F_ 0.608278 0.112955 0.197029 -0.20885
Zn Zn 0.585011 0.0791632 0.841508 0.83971
Zn Zn 0.660031 0.340456 0.581641 0.83971
Zn Zn 0.91721 0.414838 0.656493 0.83971
Zn Zn 0.840283 0.15876 0.919955 0.83971
H_ H_ 0.662019 0.132894 0.79076 0.10394
H_ H_ 0.745382 0.10144 0.761993 0.10394
H_ H_ 0.713263 0.445889 0.780575 0.10394
H_ H_ 0.646586 0.986782 0.833823 0.10394
H_ H_ 0.0319524 0.0979394 0.757013 0.10394
H_ H_ 1.00468 0.173716 0.704804 0.10394
H_ H_ 0.525496 0.258998 0.829236 0.10394
H_ H_ 0.556354 0.179228 0.875032 0.10394
H_ H_ 0.525507 0.442761 0.861507 0.10394
H_ H_ 0.98621 0.383504 0.896869 0.10394
H_ H_ 0.851893 0.483994 0.897271 0.10394
H_ H_ 0.57842 0.311326 0.623127 0.10394
H_ H_ -0.0017059999999999853 0.275833 0.595491 0.10394
H_ H_ 0.549211 0.279671 0.945388 0.10394
H_ H_ 0.626696 0.299285 0.480675 0.10394
H_ H_ 0.719592 0.242286 0.592774 0.10394
H_ H_ 0.75842 0.194622 0.672611 0.10394
H_ H_ 0.708046 0.324465 0.767071 0.10394
H_ H_ 0.677561 0.369895 0.687931 0.10394
H_ H_ 0.722517 0.361482 0.941119 0.10394
H_ H_ 0.775342 0.367371 0.879447 0.10394
H_ H_ 0.893361 0.41118 0.995096 0.10394
H_ H_ 0.817045 0.391022 0.673099 0.10394
H_ H_ 0.741013 0.438503 0.697678 0.10394
H_ H_ 0.833559 0.0528512 0.763331 0.10394
H_ H_ 0.906262 0.505157 0.734393 0.10394
H_ H_ 0.507617 0.388536 0.720695 0.10394
H_ H_ 0.552286 0.307092 0.752973 0.10394
H_ H_ 0.914493 0.250529 0.738051 0.10394
H_ H_ 0.879498 0.323372 0.686059 0.10394
H_ H_ 0.967664 0.0561798 0.611055 0.10394
H_ H_ 0.524176 0.106515 0.588115 0.10394
H_ H_ 0.648952 -0.010943000000000036 0.592554 0.10394
H_ H_ 0.943369 0.165139 0.90163 0.10394
H_ H_ 0.517841 0.179984 0.945204 0.10394
H_ H_ 0.916087 0.293524 0.536837 0.10394
H_ H_ 0.847694 0.229388 0.0154409 0.10394
H_ H_ 0.735016 0.211313 0.891929 0.10394
H_ H_ 0.688244 0.231776 0.810341 0.10394
H_ H_ 0.832682 0.223536 0.751 0.10394
H_ H_ 0.873658 0.189363 0.832228 0.10394
H_ H_ 0.793038 0.116008 0.547538 0.10394
H_ H_ 0.737798 0.102001 0.614389 0.10394
H_ H_ 0.612572 0.078137 0.502774 0.10394
C_ C_ 0.675156 0.0926268 0.793166 0.18167
C_ C_ 0.723629 0.0762742 0.77587 -0.15533
C_ C_ 0.737691 0.0221679 0.769561 0.02923
C_ C_ 0.705259 0.487735 0.784837 -0.15533
C_ C_ 0.661411 0.00719516 0.804162 0.18167
C_ C_ 0.524734 0.127342 0.757485 0.18167
C_ C_ 0.0153934 0.178261 0.747265 -0.15533
C_ C_ 0.505948 0.218053 0.757846 0.02923
C_ C_ 0.519763 0.221332 0.810688 -0.15533
C_ C_ 0.544895 0.179181 0.832115 0.18167
C_ C_ 0.506924 0.0381947 0.862147 0.69207
C_ C_ 0.970224 0.510553 0.873772 0.02923
C_ C_ 0.992937 0.460783 0.879049 -0.15533
C_ C_ 0.96664 0.422109 0.892876 -0.15533
C_ C_ 0.914501 0.428748 0.892986 0.02923
C_ C_ 0.891023 0.47841 0.893711 -0.15533
C_ C_ 0.917145 0.519305 0.886082 0.02923
C_ C_ 0.896279 0.0731587 0.881979 0.69207
C_ C_ 0.909813 0.329654 0.897303 0.69661
C_ C_ 0.569184 0.30384 0.584419 0.18167
C_ C_ 0.520027 0.286552 0.565939 -0.15533
C_ C_ 0.515479 0.271205 0.513276 0.02923
C_ C_ 0.554335 0.283907 0.98431 -0.15533
C_ C_ 0.594694 0.29813 0.501027 0.18167
C_ C_ 0.713427 0.258613 0.633176 0.18167
C_ C_ 0.734611 0.230651 0.676094 -0.15533
C_ C_ 0.735988 0.25492 0.725352 0.02923
C_ C_ 0.712696 0.305979 0.730477 -0.15533
C_ C_ 0.6906 0.331197 0.687491 0.18167
C_ C_ 0.745309 0.371643 0.553408 0.69207
C_ C_ 0.776644 0.376543 1.00626278 0.02923
C_ C_ 0.760169 0.368211 0.953812 -0.15533
C_ C_ 0.789906 0.37883 0.91756 -0.15533
C_ C_ 0.838689 0.394802 0.928148 0.02923
C_ C_ 0.855101 0.40512 0.981114 -0.15533
C_ C_ 0.829447 0.387244 0.0197042 0.02923
C_ C_ 0.85501 0.387551 0.576393 0.69207
C_ C_ 0.862331 0.381997 0.830924 0.69661
C_ C_ 0.819397 0.429451 0.686317 0.18167
C_ C_ 0.775839 0.454914 0.707232 -0.15533
C_ C_ 0.780221 0.498387 0.738959 0.02923
C_ C_ 0.827839 0.0184922 0.741176 -0.15533
C_ C_ 0.870679 0.49026 0.726279 0.18167
C_ C_ 0.997262 0.351631 0.707222 0.18167
C_ C_ 0.515322 0.305806 0.729643 -0.15533
C_ C_ 0.989235 0.273079 0.746822 0.02923
C_ C_ 0.937768 0.279364 0.729106 -0.15533
C_ C_ 0.919258 0.31824 0.69636 0.18167
C_ C_ 0.998411 0.449722 0.635186 0.69207
C_ C_ 0.525994 0.980458 0.610976 0.02923
C_ C_ 0.508899 0.033843 0.608262 -0.15533
C_ C_ 0.540788 0.0680609 0.593652 -0.15533
C_ C_ 0.59416 0.0561852 0.593979 0.02923
C_ C_ 0.61095 0.00361577 0.600251 -0.15533
C_ C_ 0.578692 0.965117 0.609239 0.02923
C_ C_ 0.597185 0.420953 0.607538 0.69207
C_ C_ 0.604012 0.151399 0.595064 0.69661
C_ C_ 0.938807 0.186944 0.936643 0.18167
C_ C_ 0.980508 0.209358 0.963059 -0.15533
C_ C_ 0.973115 0.238722 0.00820705 0.02923
C_ C_ 0.924019 0.259335 0.510942 -0.15533
C_ C_ 0.884763 0.227412 0.99804406 0.18167
C_ C_ 0.755604 0.211364 0.861622 0.18167
C_ C_ 0.729318 0.227523 0.815401 -0.15533
C_ C_ 0.757855 0.228268 0.772306 0.02923
C_ C_ 0.81014 0.214371 0.779041 -0.15533
C_ C_ 0.834313 0.198405 0.826271 0.18167
C_ C_ 0.759955 0.127876 0.950851 0.69207
C_ C_ 0.730948 0.11084 0.487393 0.02923
C_ C_ 0.75042 0.111691 0.537975 -0.15533
C_ C_ 0.71997 0.104043 0.576382 -0.15533
C_ C_ 0.669768 0.0925367 0.563053 0.02923
C_ C_ 0.652151 0.083582 0.512081 -0.15533
C_ C_ 0.68007 0.099754 0.47337 0.02923
C_ C_ 0.650177 0.100651 0.920251 0.69207
C_ C_ 0.651428 0.0971856 0.660878 0.69661
C_ C_ 0.882373 0.38457 0.890136 -0.30787
C_ C_ 0.630405 0.0979204 0.603863 -0.30787
N_ N_ 0.643983 0.0572374 0.802642 -0.32189
N_ N_ 0.546495 0.132074 0.806389 -0.32189
N_ N_ 0.603635 0.307426 0.552876 -0.32189
N_ N_ 0.689218 0.306361 0.641348 -0.32189
N_ N_ 0.865997 0.445559 0.698536 -0.32189
N_ N_ 0.948598 0.354683 0.685952 -0.32189
N_ N_ 0.891608 0.19962 0.95272 -0.32189
N_ N_ 0.805894 0.19475 0.864762 -0.32189
O_ O_ 0.00104855 0.0949929 0.889243 -0.63271
O_ O_ 0.548081 0.0268812 0.838077 -0.57982
O_ O_ 0.881486 0.0934228 0.837207 -0.63271
O_ O_ 0.877049 0.0970337 0.924535 -0.57982
O_ O_ 0.743457 0.394039 0.600606 -0.63271
O_ O_ 0.711159 0.339097 0.538274 -0.57982
O_ O_ 0.862854 0.342495 0.594897 -0.63271
O_ O_ 0.884877 0.422965 0.594284 -0.57982
O_ O_ 0.48999 0.402135 0.605886 -0.63271
O_ O_ 0.962402 0.459169 0.667436 -0.57982
O_ O_ 0.597378 0.395995 0.649387 -0.63271
O_ O_ 0.625091 0.400017 0.569333 -0.57982
O_ O_ 0.766622 0.0956121 0.911366 -0.63271
O_ O_ 0.794746 0.159645 0.964466 -0.57982
O_ O_ 0.651549 0.13982 0.89119 -0.63271
O_ O_ 0.615827 0.070605 0.906146 -0.57982
F_ F_ 0.935484 0.328799 0.945388 -0.20885
F_ F_ 0.944724 0.312581 0.862998 -0.20885
F_ F_ 0.878357 0.291559 0.899538 -0.20885
F_ F_ 0.826441 0.422098 0.817171 -0.20885
F_ F_ 0.843158 0.336955 0.815587 -0.20885
F_ F_ 0.900045 0.387337 0.798243 -0.20885
F_ F_ 0.569313 0.15682 0.551558 -0.20885
F_ F_ 0.576932 0.17457 0.635203 -0.20885
F_ F_ 0.636591 0.186785 0.587401 -0.20885
F_ F_ 0.689323 0.059616 0.671107 -0.20885
F_ F_ 0.673763 0.142245 0.676706 -0.20885
F_ F_ 0.611649 0.091258 0.691409 -0.20885
Zn Zn 0.590841 0.589654 0.350562 0.83971
Zn Zn 0.6612 0.848231 0.0811152 0.83971
Zn Zn 0.910819 0.925656 0.155899 0.83971
Zn Zn 0.838011 0.6665 0.419002 0.83971
H_ H_ 0.664402 0.63691 0.307653 0.10394
H_ H_ 0.734029 0.604709 0.256061 0.10394
H_ H_ 0.703214 0.95318 0.271515 0.10394
H_ H_ 0.636201 0.487571 0.32804 0.10394
H_ H_ 0.0195638 0.601876 0.259424 0.10394
H_ H_ 0.978742 0.677563 0.215398 0.10394
H_ H_ 0.5376 0.770876 0.327081 0.10394
H_ H_ 0.586595 0.698504 0.371244 0.10394
H_ H_ 0.533292 0.944835 0.365158 0.10394
H_ H_ 0.967087 0.875286 0.383176 0.10394
H_ H_ 0.85176 0.997124 0.417334 0.10394
H_ H_ 0.590351 0.802182 0.127896 0.10394
H_ H_ 0.9897873 0.788342 0.0913439 0.10394
H_ H_ 0.551859 0.783791 0.445928 0.10394
H_ H_ 0.610891 0.823204 0.971905 0.10394
H_ H_ 0.717969 0.75132 0.103466 0.10394
H_ H_ 0.744738 0.706198 0.18425 0.10394
H_ H_ 0.708848 0.844112 0.270647 0.10394
H_ H_ 0.673185 0.885148 0.191308 0.10394
H_ H_ 0.708534 0.894465 0.457974 0.10394
H_ H_ 0.754484 0.911835 0.389923 0.10394
H_ H_ 0.894305 0.897914 0.485753 0.10394
H_ H_ 0.810291 0.903516 0.168441 0.10394
H_ H_ 0.730865 0.95821 0.179584 0.10394
H_ H_ 0.832129 0.54647 0.285117 0.10394
H_ H_ 0.900032 1.0176093 0.225008 0.10394
H_ H_ 0.515218 0.882363 0.192371 0.10394
H_ H_ 0.556925 0.802738 0.231953 0.10394
H_ H_ 0.903849 0.758699 0.244097 0.10394
H_ H_ 0.864788 0.8403 0.19889 0.10394
H_ H_ 0.957188 0.554948 0.127483 0.10394
H_ H_ 0.513527 0.617781 0.0952203 0.10394
H_ H_ 0.641478 0.501538 0.0886195 0.10394
H_ H_ 0.932726 0.675866 0.388778 0.10394
H_ H_ 0.517394 0.700681 0.429966 0.10394
H_ H_ 0.912026 0.796851 0.0270799 0.10394
H_ H_ 0.850959 0.73635 0.510302 0.10394
H_ H_ 0.737076 0.72418 0.403641 0.10394
H_ H_ 0.688315 0.761977 0.324758 0.10394
H_ H_ 0.821615 0.716776 0.244742 0.10394
H_ H_ 0.866942 0.687653 0.318972 0.10394
H_ H_ 0.783302 0.585384 0.0490476 0.10394
H_ H_ 0.72982 0.578579 0.114841 0.10394
H_ H_ 0.600536 0.603565 0.00603641 0.10394
C_ C_ 0.673853 0.596271 0.298993 0.18167
C_ C_ 0.7206 0.580214 0.279344 -0.15533
C_ C_ 0.73216 0.528002 0.270181 0.02923
C_ C_ 0.69419 0.994316 0.277596 -0.15533
C_ C_ 0.660882 0.512881 0.314592 0.18167
C_ C_ 0.519398 0.635989 0.276868 0.18167
C_ C_ 0.0020000000000000018 0.682911 0.250279 -0.15533
C_ C_ 0.506239 0.726978 0.265001 0.02923
C_ C_ 0.538018 0.734919 0.310036 -0.15533
C_ C_ 0.562955 0.692489 0.335351 0.18167
C_ C_ 0.508677 0.546202 0.380648 0.69207
C_ C_ 0.972352 0.00241464 0.38054 0.02923
C_ C_ -0.011916999999999955 0.948984 0.377881 -0.15533
C_ C_ 0.95257 0.914709 0.379325 -0.15533
C_ C_ 0.901759 0.931535 0.390564 0.02923
C_ C_ 0.888575 0.984108 0.40302 -0.15533
C_ C_ 0.921817 0.0197652 0.394702 0.02923
C_ C_ 0.896062 0.581375 0.388295 0.69207
C_ C_ 0.878876 0.838123 0.380833 0.69661
C_ C_ 0.579887 0.793981 0.086319 0.18167
C_ C_ 0.534587 0.773343 0.070321 -0.15533
C_ C_ 0.514653 0.774591 0.0176909 0.02923
C_ C_ 0.550708 0.789316 0.487474 -0.15533
C_ C_ 0.59152 0.807543 -0.000309963 0.18167
C_ C_ 0.712628 0.771316 0.140777 0.18167
C_ C_ 0.730443 0.746346 0.18609 -0.15533
C_ C_ 0.724153 0.771285 0.233733 0.02923
C_ C_ 0.70301 0.822399 0.234938 -0.15533
C_ C_ 0.686904 0.845642 0.18871 0.18167
C_ C_ 0.748795 0.869146 0.0497246 0.69207
C_ C_ 0.773502 0.875994 0.510083 0.02923
C_ C_ 0.747523 0.89131 0.463474 -0.15533
C_ C_ 0.776838 0.901891 0.423909 -0.15533
C_ C_ 0.828763 0.904275 0.430349 0.02923
C_ C_ 0.852763 0.894384 0.479957 -0.15533
C_ C_ 0.826652 0.882114 0.51929 0.02923
C_ C_ 0.862192 0.883045 0.0727873 0.69207
C_ C_ 0.829656 0.904147 0.331833 0.69661
C_ C_ 0.81231 0.93913 0.18477 0.18167
C_ C_ 0.767924 0.967549 0.197748 -0.15533
C_ C_ 0.772201 1.0095995 0.234224 0.02923
C_ C_ 0.824695 0.519398 0.255342 -0.15533
C_ C_ 0.862603 1.00079 0.220218 0.18167
C_ C_ 0.989356 0.853184 0.196942 0.18167
C_ C_ 0.51539 0.805458 0.222374 -0.15533
C_ C_ 0.981573 0.778412 0.243629 0.02923
C_ C_ 0.926692 0.787159 0.232124 -0.15533
C_ C_ 0.906692 0.831625 0.205112 0.18167
C_ C_ 0.99397 0.960103 0.127606 0.69207
C_ C_ 0.519831 0.490098 0.115203 0.02923
C_ C_ 0.498307 0.541631 0.105576 -0.15533
C_ C_ 0.530564 0.578882 0.0998432 -0.15533
C_ C_ 0.584295 0.565904 0.0967043 0.02923
C_ C_ 0.602229 0.514904 0.0969497 -0.15533
C_ C_ 0.57275 0.476634 0.108233 0.02923
C_ C_ 0.596351 0.928361 0.102975 0.69207
C_ C_ 0.596698 0.662861 0.108996 0.69661
C_ C_ 0.933428 0.694624 0.427394 0.18167
C_ C_ 0.978731 0.712037 0.454175 -0.15533
C_ C_ 0.972657 0.747919 0.495568 0.02923
C_ C_ 0.920938 0.761997 1.00196762 -0.15533
C_ C_ 0.885235 0.729986 0.492079 0.18167
C_ C_ 0.753965 0.723047 0.368847 0.18167
C_ C_ 0.727225 0.746277 0.325276 -0.15533
C_ C_ 0.752334 0.747806 0.279459 0.02923
C_ C_ 0.801433 0.723144 0.278047 -0.15533
C_ C_ 0.827314 0.702934 0.321964 0.18167
C_ C_ 0.765279 0.628571 0.461536 0.69207
C_ C_ 0.725171 0.612009 0.990646 0.02923
C_ C_ 0.745527 0.600815 0.0419046 -0.15533
C_ C_ 0.712652 0.592123 0.0780772 -0.15533
C_ C_ 0.659527 0.604589 0.0669355 0.02923
C_ C_ 0.639564 0.608026 0.0174782 -0.15533
C_ C_ 0.670714 0.611936 0.978223 0.02923
C_ C_ 0.657122 0.619994 0.432676 0.69207
C_ C_ 0.644496 0.600522 0.162335 0.69661
C_ C_ 0.859547 0.894607 0.383576 -0.30787
C_ C_ 0.623118 0.607052 0.108259 -0.30787
N_ N_ 0.643739 0.56271 0.313099 -0.32189
N_ N_ 0.552926 0.644963 0.317048 -0.32189
N_ N_ 0.608961 0.808378 0.0511333 -0.32189
N_ N_ 0.691105 0.820908 0.143368 -0.32189
N_ N_ 0.858523 0.954632 0.195901 -0.32189
N_ N_ 0.938413 0.86576 0.193375 -0.32189
N_ N_ 0.887927 0.705693 0.446233 -0.32189
N_ N_ 0.801881 0.700603 0.364889 -0.32189
O_ O_ 0.00433875 0.592681 0.412557 -0.63271
O_ O_ 0.541995 0.543531 0.346062 -0.57982
O_ O_ 0.891023 0.606148 0.346449 -0.63271
O_ O_ 0.874092 0.604506 0.427793 -0.57982
O_ O_ 0.747115 0.901492 0.0892053 -0.63271
O_ O_ 0.708857 0.84553 0.0365527 -0.57982
O_ O_ 0.854915 0.850757 0.105002 -0.63271
O_ O_ 0.880421 0.924213 0.0922664 -0.57982
O_ O_ 0.492011 0.90798 0.0894227 -0.63271
O_ O_ 0.959166 0.971287 0.160303 -0.57982
O_ O_ 0.589295 0.901076 0.142514 -0.63271
O_ O_ 0.63464 0.91269 0.0750581 -0.57982
O_ O_ 0.760439 0.608804 0.414356 -0.63271
O_ O_ 0.795871 0.663255 0.472788 -0.57982
O_ O_ 0.664026 0.658968 0.407359 -0.63271
O_ O_ 0.620283 0.590285 0.416115 -0.57982
F_ F_ 0.916605 0.82173 0.417588 -0.20885
F_ F_ 0.897718 0.814674 0.335903 -0.20885
F_ F_ 0.840291 0.8082 0.38499 -0.20885
F_ F_ 0.806964 0.953371 0.331225 -0.20885
F_ F_ 0.793585 0.870217 0.319883 -0.20885
F_ F_ 0.861975 0.895932 0.291688 -0.20885
F_ F_ 0.566278 0.669385 0.0623746 -0.20885
F_ F_ 0.566399 0.678643 0.149401 -0.20885
F_ F_ 0.635671 0.695948 0.110082 -0.20885
F_ F_ 0.675757 0.552692 0.168395 -0.20885
F_ F_ 0.674183 0.637802 0.180339 -0.20885
F_ F_ 0.606065 0.598671 0.196006 -0.20885
Zn Zn 0.591099 0.580871 0.84808 0.83971
Zn Zn 0.664264 0.831382 0.586985 0.83971
Zn Zn 0.913659 0.913319 0.650509 0.83971
Zn Zn 0.841421 0.656191 0.921361 0.83971
H_ H_ 0.673456 0.629703 0.8182 0.10394
H_ H_ 0.757123 0.596311 0.779908 0.10394
H_ H_ 0.718149 0.947936 0.785174 0.10394
H_ H_ 0.633403 0.479997 0.804686 0.10394
H_ H_ 0.0439091 0.599539 0.747879 0.10394
H_ H_ 0.99610761 0.673833 0.703718 0.10394
H_ H_ 0.519913 0.765429 0.830563 0.10394
H_ H_ 0.562343 0.697211 0.882077 0.10394
H_ H_ 0.530638 0.93694 0.866167 0.10394
H_ H_ 0.987277 0.87868 0.885979 0.10394
H_ H_ 0.859265 0.98756 0.900661 0.10394
H_ H_ 0.580929 0.789809 0.631841 0.10394
H_ H_ 0.0114012 0.758771 0.595053 0.10394
H_ H_ 0.531776 0.788781 0.939522 0.10394
H_ H_ 0.617947 0.824485 0.492857 0.10394
H_ H_ 0.719268 0.734504 0.61586 0.10394
H_ H_ 0.742529 0.698577 0.701576 0.10394
H_ H_ 0.706968 0.844508 0.772747 0.10394
H_ H_ 0.684721 0.883939 0.68918 0.10394
H_ H_ 0.724076 0.86555 0.950954 0.10394
H_ H_ 0.780553 0.860879 0.881479 0.10394
H_ H_ 0.900131 0.911063 0.992319 0.10394
H_ H_ 0.808997 0.892028 0.665067 0.10394
H_ H_ 0.734414 0.943874 0.695054 0.10394
H_ H_ 0.831497 0.5519 0.76706 0.10394
H_ H_ 0.899311 1.0147503 0.718642 0.10394
H_ H_ 0.515398 0.870034 0.690155 0.10394
H_ H_ 0.551477 0.791985 0.732563 0.10394
H_ H_ 0.912418 0.748283 0.724471 0.10394
H_ H_ 0.872153 0.820738 0.680613 0.10394
H_ H_ 0.983914 0.554958 0.658773 0.10394
H_ H_ 0.517901 0.616017 0.616956 0.10394
H_ H_ 0.636497 0.499538 0.58104 0.10394
H_ H_ 0.953102 0.626843 0.954093 0.10394
H_ H_ 0.512726 0.69073 0.948933 0.10394
H_ H_ 0.918098 0.783217 0.544943 0.10394
H_ H_ 0.843967 0.73633 0.998852 0.10394
H_ H_ 0.743156 0.70879 0.896294 0.10394
H_ H_ 0.695468 0.744375 0.824434 0.10394
H_ H_ 0.837805 0.747224 0.759331 0.10394
H_ H_ 0.874701 0.68286 0.818813 0.10394
H_ H_ 0.788657 0.611566 0.563295 0.10394
H_ H_ 0.734721 0.589028 0.62312 0.10394
H_ H_ 0.612466 0.589501 0.506438 0.10394
C_ C_ 0.685025 0.589084 0.807098 0.18167
C_ C_ 0.731884 0.569275 0.787372 -0.15533
C_ C_ 0.73831 0.519319 0.768738 0.02923
C_ C_ 0.70713 0.989979 0.786999 -0.15533
C_ C_ 0.656884 0.506187 0.796928 0.18167
C_ C_ 0.532128 0.628028 0.773189 0.18167
C_ C_ 0.0077333 0.678479 0.742598 -0.15533
C_ C_ 0.504646 0.715889 0.762069 0.02923
C_ C_ 0.522065 0.726859 0.814218 -0.15533
C_ C_ 0.547178 0.687851 0.842533 0.18167
C_ C_ 0.512499 0.544848 0.876918 0.69207
C_ C_ 0.975403 0.00821861 0.880306 0.02923
C_ C_ -0.0006669999999999732 0.956353 0.881822 -0.15533
C_ C_ 0.968773 0.918478 0.886669 -0.15533
C_ C_ 0.917645 0.928612 0.89461 0.02923
C_ C_ 0.897097 0.980259 0.897904 -0.15533
C_ C_ 0.923509 0.0197405 0.883496 0.02923
C_ C_ 0.886947 0.569795 0.884917 0.69207
C_ C_ 0.902017 0.833497 0.877261 0.69661
C_ C_ 0.57189 0.786956 0.592401 0.18167
C_ C_ 0.52727 0.76637 0.571246 -0.15533
C_ C_ 0.51621 0.767773 0.517551 0.02923
C_ C_ 0.544086 0.790646 0.982322 -0.15533
C_ C_ 0.597125 0.801384 0.511315 0.18167
C_ C_ 0.719385 0.757987 0.649372 0.18167
C_ C_ 0.730907 0.737979 0.696693 -0.15533
C_ C_ 0.735019 0.772816 0.739549 0.02923
C_ C_ 0.714058 0.822906 0.735967 -0.15533
C_ C_ 0.701284 0.842408 0.687817 0.18167
C_ C_ 0.745094 0.86449 0.552076 0.69207
C_ C_ 0.785142 0.870714 1.010366 0.02923
C_ C_ 0.764649 0.869117 0.95954 -0.15533
C_ C_ 0.795054 0.869946 0.91881 -0.15533
C_ C_ 0.843582 0.886946 0.929634 0.02923
C_ C_ 0.862641 0.896107 0.982095 -0.15533
C_ C_ 0.835655 0.8834 0.0221692 0.02923
C_ C_ 0.853673 0.880651 0.572826 0.69207
C_ C_ 0.849552 0.897042 0.831761 0.69661
C_ C_ 0.81297 0.9295 0.684344 0.18167
C_ C_ 0.771775 0.956003 0.707435 -0.15533
C_ C_ 0.779039 0.000745274 0.737433 0.02923
C_ C_ 0.829352 0.516512 0.747205 -0.15533
C_ C_ 0.86439 0.99652915 0.710604 0.18167
C_ C_ 0.994644 0.847614 0.690819 0.18167
C_ C_ 0.512942 0.795503 0.719586 -0.15533
C_ C_ 0.986661 0.772794 0.73589 0.02923
C_ C_ 0.936157 0.780094 0.723549 -0.15533
C_ C_ 0.913437 0.819617 0.694543 0.18167
C_ C_ 0.989027 0.953616 0.613991 0.69207
C_ C_ 0.52097 0.485415 0.615894 0.02923
C_ C_ 0.502687 0.540184 0.61861 -0.15533
C_ C_ 0.535204 0.576499 0.609947 -0.15533
C_ C_ 0.582165 0.564051 0.597192 0.02923
C_ C_ 0.597342 0.511358 0.588905 -0.15533
C_ C_ 0.569404 0.472885 0.603699 0.02923
C_ C_ 0.60146 0.911486 0.612589 0.69207
C_ C_ 0.604099 0.657618 0.608634 0.69661
C_ C_ 0.942286 0.667863 0.953856 0.18167
C_ C_ 0.981121 0.697382 0.971358 -0.15533
C_ C_ 0.972197 0.746792 0.991179 0.02923
C_ C_ 0.924833 0.756768 0.514968 -0.15533
C_ C_ 0.882604 0.730976 0.986576 0.18167
C_ C_ 0.761582 0.712309 0.864687 0.18167
C_ C_ 0.738244 0.738934 0.825856 -0.15533
C_ C_ 0.764823 0.75262 0.786317 0.02923
C_ C_ 0.815862 0.736318 0.786548 -0.15533
C_ C_ 0.837527 0.701812 0.824183 0.18167
C_ C_ 0.758975 0.623684 0.952076 0.69207
C_ C_ 0.731031 0.617846 0.498991 0.02923
C_ C_ 0.749106 0.611402 0.549735 -0.15533
C_ C_ 0.717304 0.597798 0.584324 -0.15533
C_ C_ 0.665198 0.593993 0.56931 0.02923
C_ C_ 0.648482 0.602235 0.518501 -0.15533
C_ C_ 0.679774 0.617072 0.483874 0.02923
C_ C_ 0.648492 0.610038 0.926021 0.69207
C_ C_ 0.645103 0.587989 0.665307 0.69661
C_ C_ 0.879319 0.88801 0.885308 -0.30787
C_ C_ 0.624845 0.601249 0.610562 -0.30787
N_ N_ 0.647539 0.557145 0.806798 -0.32189
N_ N_ 0.556778 0.640486 0.819014 -0.32189
N_ N_ 0.60618 0.799767 0.562713 -0.32189
N_ N_ 0.70216 0.808719 0.645185 -0.32189
N_ N_ 0.858632 0.949127 0.685337 -0.32189
N_ N_ 0.943115 0.856663 0.684598 -0.32189
N_ N_ 0.893841 0.687579 0.958872 -0.32189
N_ N_ 0.810664 0.690374 0.862996 -0.32189
O_ O_ 0.994068 0.598357 0.876776 -0.63271
O_ O_ 0.54655 0.533895 0.844488 -0.57982
O_ O_ 0.880125 0.59521 0.84185 -0.63271
O_ O_ 0.865573 0.587996 0.925103 -0.57982
O_ O_ 0.738795 0.898734 0.589503 -0.63271
O_ O_ 0.715151 0.828171 0.544145 -0.57982
O_ O_ 0.857977 0.838548 0.597862 -0.63271
O_ O_ 0.885123 0.914294 0.586068 -0.57982
O_ O_ 0.496028 0.899127 0.594143 -0.63271
O_ O_ 0.954159 0.962915 0.648294 -0.57982
O_ O_ 0.597641 0.8841 0.65445 -0.63271
O_ O_ 0.637645 0.893441 0.583337 -0.57982
O_ O_ 0.758793 0.594468 0.908923 -0.63271
O_ O_ 0.795689 0.654638 0.962278 -0.57982
O_ O_ 0.649962 0.650595 0.899435 -0.63271
O_ O_ 0.612887 0.580461 0.913175 -0.57982
F_ F_ 0.93727 0.820101 0.915321 -0.20885
F_ F_ 0.929699 0.827441 0.834531 -0.20885
F_ F_ 0.877728 0.791999 0.868746 -0.20885
F_ F_ 0.816062 0.940199 0.828684 -0.20885
F_ F_ 0.821395 0.860035 0.810788 -0.20885
F_ F_ 0.879645 0.907147 0.794603 -0.20885
F_ F_ 0.568473 0.668761 0.565431 -0.20885
F_ F_ 0.575678 0.6725 0.651351 -0.20885
F_ F_ 0.641363 0.688689 0.612827 -0.20885
F_ F_ 0.669856 0.539482 0.667254 -0.20885
F_ F_ 0.67942 0.622338 0.687684 -0.20885
F_ F_ 0.606804 0.587069 0.696365 -0.20885
