_cell_length_a 26.508
_cell_length_b 26.37200000322088
_cell_length_c 26.311999743092066
_cell_angle_alpha 93.74100058972084
_cell_angle_beta 96.04100104955006
_cell_angle_gamma 83.6869992558723
_symmetry_space_group_name_H-M         'P 1'
_symmetry_Int_Tables_number            1
loop_
_symmetry_equiv_pos_as_xyz
   'x, y, z'
                         
loop_
_atom_site_label
_atom_site_type_symbol
_atom_site_fract_x 
_atom_site_fract_y
_atom_site_fract_z
_atom_site_charge
Zn Zn 0.0882468 0.0892943 0.350945 0.83971
Zn Zn 0.158695 0.347259 0.0796724 0.83971
Zn Zn 0.408245 0.41087 0.151125 0.83971
Zn Zn 0.342918 0.157905 0.419075 0.83971
H_ H_ 0.161967 0.131249 0.290445 0.10394
H_ H_ 0.236383 0.096475 0.251993 0.10394
H_ H_ 0.210417 0.44315 0.278295 0.10394
H_ H_ 0.146832 0.993352 0.353272 0.10394
H_ H_ 0.53458 0.10023 0.245599 0.10394
H_ H_ 0.498694 0.176391 0.203049 0.10394
H_ H_ 0.0272705 0.273159 0.328158 0.10394
H_ H_ 0.0692947 0.203355 0.374753 0.10394
H_ H_ 0.0300647 0.442847 0.363257 0.10394
H_ H_ 0.462405 0.382138 0.348378 0.10394
H_ H_ 0.345076 0.497791 0.395042 0.10394
H_ H_ 0.0785133 0.308369 0.131357 0.10394
H_ H_ 0.501931 0.26171 0.0874281 0.10394
H_ H_ 0.0514929 0.275866 0.442054 0.10394
H_ H_ 0.120434 0.318812 0.978566 0.10394
H_ H_ 0.194697 0.244056 0.0936986 0.10394
H_ H_ 0.235036 0.192398 0.16238 0.10394
H_ H_ 0.2076 0.322309 0.268532 0.10394
H_ H_ 0.182813 0.375645 0.192658 0.10394
H_ H_ 0.206275 0.381429 0.441913 0.10394
H_ H_ 0.256366 0.403119 0.375292 0.10394
H_ H_ 0.388352 0.419152 0.485692 0.10394
H_ H_ 0.30259 0.390935 0.157985 0.10394
H_ H_ 0.227541 0.443756 0.187554 0.10394
H_ H_ 0.330702 0.05038 0.274465 0.10394
H_ H_ 0.395932 0.507813 0.213123 0.10394
H_ H_ 0.0118411 0.387448 0.187902 0.10394
H_ H_ 0.053146 0.31037 0.241455 0.10394
H_ H_ 0.411961 0.249934 0.244611 0.10394
H_ H_ 0.37087 0.327032 0.203609 0.10394
H_ H_ 0.462645 0.0623728 0.125484 0.10394
H_ H_ 0.00687029 0.111958 0.105486 0.10394
H_ H_ 0.138198 0.00416133 0.0879605 0.10394
H_ H_ 0.444392 0.171323 0.389578 0.10394
H_ H_ 0.0158206 0.191769 0.434299 0.10394
H_ H_ 0.410405 0.291676 0.0186675 0.10394
H_ H_ 0.351899 0.232201 0.504121 0.10394
H_ H_ 0.24303 0.195996 0.392985 0.10394
H_ H_ 0.191841 0.22904 0.321559 0.10394
H_ H_ 0.324373 0.205541 0.235885 0.10394
H_ H_ 0.370383 0.163054 0.312283 0.10394
H_ H_ 0.279248 0.112752 0.0559929 0.10394
H_ H_ 0.225868 0.0957416 0.120023 0.10394
H_ H_ 0.0989371 0.0993254 0.00792049 0.10394
C_ C_ 0.176242 0.0929348 0.295438 0.18167
C_ C_ 0.219421 0.0734177 0.275621 -0.15533
C_ C_ 0.234067 0.0200868 0.274002 0.02923
C_ C_ 0.20284 0.483524 0.286327 -0.15533
C_ C_ 0.166792 0.0120864 0.326411 0.18167
C_ C_ 0.0307209 0.138544 0.267123 0.18167
C_ C_ 0.514429 0.179133 0.241741 -0.15533
C_ C_ 0.00514848 0.228282 0.259471 0.02923
C_ C_ 0.0281504 0.238718 0.309395 -0.15533
C_ C_ 0.0556642 0.197497 0.335437 0.18167
C_ C_ 0.013633 0.0409835 0.374944 0.69207
C_ C_ 0.472073 0.510942 0.372844 0.02923
C_ C_ 0.48346 0.458822 0.357076 -0.15533
C_ C_ 0.451568 0.421172 0.363631 -0.15533
C_ C_ 0.402447 0.434741 0.381598 0.02923
C_ C_ 0.385551 0.486278 0.392469 -0.15533
C_ C_ 0.418741 0.525228 0.384451 0.02923
C_ C_ 0.402723 0.0711204 0.393244 0.69207
C_ C_ 0.390638 0.338041 0.383646 0.69661
C_ C_ 0.073518 0.296615 0.0894257 0.18167
C_ C_ 0.0266829 0.279328 0.0715929 -0.15533
C_ C_ 0.0142542 0.272657 0.017964 0.02923
C_ C_ 0.0572076 0.278983 0.482707 -0.15533
C_ C_ 0.0944059 0.306176 0.00536575 0.18167
C_ C_ 0.201572 0.260522 0.13143 0.18167
C_ C_ 0.221844 0.231711 0.171734 -0.15533
C_ C_ 0.231638 0.254657 0.223319 0.02923
C_ C_ 0.21341 0.306013 0.229009 -0.15533
C_ C_ 0.193727 0.334357 0.186877 0.18167
C_ C_ 0.246036 0.355586 0.0437012 0.69207
C_ C_ 0.272613 0.38671 0.504574 0.02923
C_ C_ 0.248181 0.387216 0.453363 -0.15533
C_ C_ 0.274701 0.397354 0.41312 -0.15533
C_ C_ 0.330023 0.402363 0.423719 0.02923
C_ C_ 0.351137 0.408417 0.475405 -0.15533
C_ C_ 0.322654 0.403368 0.516434 0.02923
C_ C_ 0.355796 0.375572 0.0718493 0.69207
C_ C_ 0.335277 0.38836 0.324506 0.69661
C_ C_ 0.307667 0.426862 0.181098 0.18167
C_ C_ 0.266377 0.455401 0.199991 -0.15533
C_ C_ 0.273423 0.495306 0.235719 0.02923
C_ C_ 0.325021 0.016838 0.251667 -0.15533
C_ C_ 0.359875 0.490229 0.213517 0.18167
C_ C_ 0.493494 0.341809 0.189509 0.18167
C_ C_ 0.0131463 0.312363 0.22084 -0.15533
C_ C_ 0.48973 0.270912 0.239724 0.02923
C_ C_ 0.435636 0.276713 0.227875 -0.15533
C_ C_ 0.41198 0.319971 0.20434 0.18167
C_ C_ 0.48447 0.447627 0.116913 0.69207
C_ C_ 0.017301 0.982896 0.108699 0.02923
C_ C_ -0.003109999999999946 0.0324614 0.108359 -0.15533
C_ C_ 0.026808 0.0737868 0.108435 -0.15533
C_ C_ 0.0780789 0.0636199 0.099342 0.02923
C_ C_ 0.0976334 0.0127709 0.0890198 -0.15533
C_ C_ 0.0692009 0.972581 0.100345 0.02923
C_ C_ 0.102241 0.429595 0.115339 0.69207
C_ C_ 0.0889739 0.159378 0.110518 0.69661
C_ C_ 0.440093 0.189521 0.426641 0.18167
C_ C_ 0.48112 0.210251 0.451969 -0.15533
C_ C_ 0.47483 0.245899 0.492097 0.02923
C_ C_ 0.420708 0.253839 0.000417035 -0.15533
C_ C_ 0.385228 0.231884 0.484751 0.18167
C_ C_ 0.259965 0.196801 0.356157 0.18167
C_ C_ 0.232183 0.222937 0.316204 -0.15533
C_ C_ 0.255525 0.223915 0.269106 0.02923
C_ C_ 0.30646 0.202344 0.269836 -0.15533
C_ C_ 0.333383 0.182921 0.315126 0.18167
C_ C_ 0.265626 0.121476 0.45577 0.69207
C_ C_ 0.21819 0.119421 0.993607 0.02923
C_ C_ 0.238289 0.119336 0.0468339 -0.15533
C_ C_ 0.20795 0.109083 0.0834037 -0.15533
C_ C_ 0.156994 0.0988066 0.07091 0.02923
C_ C_ 0.139779 0.0959692 0.0172576 -0.15533
C_ C_ 0.167719 0.109727 0.981539 0.02923
C_ C_ 0.153729 0.108552 0.427319 0.69207
C_ C_ 0.141021 0.0971767 0.166787 0.69661
C_ C_ 0.363251 0.393096 0.379297 -0.30787
C_ C_ 0.115911 0.103568 0.111297 -0.30787
N_ N_ 0.147745 0.0604446 0.31648 -0.32189
N_ N_ 0.0581946 0.1481 0.313436 -0.32189
N_ N_ 0.102902 0.314075 0.0574851 -0.32189
N_ N_ 0.189569 0.312323 0.13823 -0.32189
N_ N_ 0.354039 0.443398 0.188603 -0.32189
N_ N_ 0.440541 0.351013 0.184674 -0.32189
N_ N_ 0.391957 0.202333 0.440641 -0.32189
N_ N_ 0.309649 0.181071 0.356624 -0.32189
O_ O_ 0.505388 0.0897475 0.391377 -0.63271
O_ O_ 0.0497583 0.0339322 0.342359 -0.57982
O_ O_ 0.400929 0.0929644 0.347964 -0.63271
O_ O_ 0.377803 0.09535 0.429606 -0.57982
O_ O_ 0.244976 0.390298 0.0817875 -0.63271
O_ O_ 0.203226 0.332821 0.0321625 -0.57982
O_ O_ 0.350793 0.345699 0.107487 -0.63271
O_ O_ 0.37957 0.415591 0.0875568 -0.57982
O_ O_ 0.993 0.411041 0.0914062 -0.63271
O_ O_ 0.452951 0.45786 0.15302 -0.57982
O_ O_ 0.0938053 0.404062 0.155425 -0.63271
O_ O_ 0.134359 0.410098 0.0841009 -0.57982
O_ O_ 0.263203 0.093604 0.408893 -0.63271
O_ O_ 0.302 0.150839 0.467561 -0.57982
O_ O_ 0.157679 0.148066 0.401916 -0.63271
O_ O_ 0.114076 0.0847375 0.414758 -0.57982
F_ F_ 0.430696 0.33889 0.420865 -0.20885
F_ F_ 0.411931 0.315474 0.342607 -0.20885
F_ F_ 0.35995 0.301293 0.395491 -0.20885
F_ F_ 0.303815 0.433303 0.318365 -0.20885
F_ F_ 0.30491 0.34968 0.31787 -0.20885
F_ F_ 0.367835 0.386978 0.286502 -0.20885
F_ F_ 0.0555658 0.166402 0.0660002 -0.20885
F_ F_ 0.0619462 0.174509 0.152031 -0.20885
F_ F_ 0.124712 0.194433 0.107018 -0.20885
F_ F_ 0.174565 0.0530602 0.171117 -0.20885
F_ F_ 0.165374 0.139028 0.181243 -0.20885
F_ F_ 0.103173 0.0942092 0.199904 -0.20885
Zn Zn 0.0830149 0.0820351 0.845715 0.83971
Zn Zn 0.164061 0.344092 0.586822 0.83971
Zn Zn 0.410634 0.427413 0.649932 0.83971
Zn Zn 0.339435 0.147844 0.913521 0.83971
H_ H_ 0.161658 0.128857 0.803688 0.10394
H_ H_ 0.239528 0.0972695 0.766339 0.10394
H_ H_ 0.206839 0.445887 0.784378 0.10394
H_ H_ 0.135158 0.981413 0.83285 0.10394
H_ H_ 0.521973 0.104989 0.753766 0.10394
H_ H_ 0.484405 0.173913 0.701608 0.10394
H_ H_ 0.0368948 0.269303 0.824813 0.10394
H_ H_ 0.0676773 0.193176 0.87622 0.10394
H_ H_ 0.0356061 0.443542 0.872265 0.10394
H_ H_ 0.489217 0.37104 0.881351 0.10394
H_ H_ 0.358212 0.482719 0.896318 0.10394
H_ H_ 0.0808094 0.299548 0.628966 0.10394
H_ H_ 0.49884 0.270892 0.592402 0.10394
H_ H_ 0.0464484 0.273327 0.943834 0.10394
H_ H_ 0.127481 0.312457 0.482241 0.10394
H_ H_ 0.217675 0.242392 0.598648 0.10394
H_ H_ 0.249374 0.194777 0.672728 0.10394
H_ H_ 0.210555 0.326583 0.772949 0.10394
H_ H_ 0.174599 0.373459 0.699003 0.10394
H_ H_ 0.230679 0.334109 0.940857 0.10394
H_ H_ 0.278981 0.351519 0.876449 0.10394
H_ H_ 0.400106 0.392719 0.987996 0.10394
H_ H_ 0.309405 0.40157 0.66983 0.10394
H_ H_ 0.239099 0.446704 0.705516 0.10394
H_ H_ 0.329994 0.0471254 0.787412 0.10394
H_ H_ 0.400006 0.520623 0.722975 0.10394
H_ H_ 0.0058113 0.387422 0.701449 0.10394
H_ H_ 0.053203 0.307683 0.736811 0.10394
H_ H_ 0.402791 0.261564 0.71962 0.10394
H_ H_ 0.371439 0.340276 0.679974 0.10394
H_ H_ 0.46321 0.0576285 0.613069 0.10394
H_ H_ 0.0187845 0.117884 0.620755 0.10394
H_ H_ 0.132009 0.00538112 0.57164 0.10394
H_ H_ 0.444453 0.156629 0.890995 0.10394
H_ H_ 0.0060669 0.202478 0.934821 0.10394
H_ H_ 0.424128 0.284296 0.545698 0.10394
H_ H_ 0.343218 0.234369 -0.009630999999999945 0.10394
H_ H_ 0.232331 0.19528 0.885664 0.10394
H_ H_ 0.192437 0.243481 0.819584 0.10394
H_ H_ 0.332875 0.234902 0.749881 0.10394
H_ H_ 0.373558 0.182806 0.822 0.10394
H_ H_ 0.289047 0.115857 0.558901 0.10394
H_ H_ 0.230938 0.101318 0.62216 0.10394
H_ H_ 0.10497 0.0946236 0.505678 0.10394
C_ C_ 0.171518 0.087624 0.800304 0.18167
C_ C_ 0.218328 0.0691761 0.782055 -0.15533
C_ C_ 0.236316 0.0167896 0.781442 0.02923
C_ C_ 0.199628 0.488638 0.78795 -0.15533
C_ C_ 0.15936 0.00384228 0.817138 0.18167
C_ C_ 0.02798 0.129116 0.769715 0.18167
C_ C_ 0.503046 0.182911 0.739747 -0.15533
C_ C_ 0.0100885 0.220282 0.758208 0.02923
C_ C_ 0.0350255 0.229099 0.808392 -0.15533
C_ C_ 0.0609211 0.188851 0.836267 0.18167
C_ C_ -0.0005119999999999569 0.0552215 0.864724 0.69207
C_ C_ 0.478171 0.49809 0.875234 0.02923
C_ C_ 0.497336 0.447566 0.871704 -0.15533
C_ C_ 0.468604 0.410033 0.880044 -0.15533
C_ C_ 0.416409 0.420574 0.888909 0.02923
C_ C_ 0.395799 0.472721 0.889662 -0.15533
C_ C_ 0.428314 0.510203 0.890179 0.02923
C_ C_ 0.396333 0.0697186 0.888624 0.69207
C_ C_ 0.407757 0.325222 0.874358 0.69661
C_ C_ 0.0722261 0.299669 0.58753 0.18167
C_ C_ 0.0281224 0.27949 0.567863 -0.15533
C_ C_ 0.0207683 0.265913 0.515216 0.02923
C_ C_ 0.0518474 0.283656 0.985271 -0.15533
C_ C_ 0.0994796 0.300521 0.504793 0.18167
C_ C_ 0.215788 0.26292 0.636723 0.18167
C_ C_ 0.232789 0.235252 0.678938 -0.15533
C_ C_ 0.235792 0.260699 0.727828 0.02923
C_ C_ 0.218897 0.31267 0.735296 -0.15533
C_ C_ 0.202848 0.338768 0.691227 0.18167
C_ C_ 0.246697 0.365368 0.547264 0.69207
C_ C_ 0.283427 0.360244 0.00427882 0.02923
C_ C_ 0.266373 0.351516 0.953191 -0.15533
C_ C_ 0.294687 0.360801 0.915498 -0.15533
C_ C_ 0.343845 0.376739 0.925793 0.02923
C_ C_ 0.365491 0.377059 0.977696 -0.15533
C_ C_ 0.334903 0.369408 0.0175456 0.02923
C_ C_ 0.349326 0.40057 0.569298 0.69207
C_ C_ 0.344881 0.387376 0.827724 0.69661
C_ C_ 0.313166 0.440048 0.68665 0.18167
C_ C_ 0.273861 0.462909 0.710212 -0.15533
C_ C_ 0.278218 0.505269 0.742776 0.02923
C_ C_ 0.325747 0.0139438 0.7615 -0.15533
C_ C_ 0.364231 0.502349 0.723228 0.18167
C_ C_ 0.494075 0.356668 0.69167 0.18167
C_ C_ 0.0137124 0.30993 0.724739 -0.15533
C_ C_ 0.480666 0.280124 0.730594 0.02923
C_ C_ 0.428198 0.291608 0.719339 -0.15533
C_ C_ 0.409716 0.337369 0.695241 0.18167
C_ C_ 0.485507 0.466205 0.621105 0.69207
C_ C_ 0.024424 0.991117 0.622736 0.02923
C_ C_ 0.00665111 0.0418473 0.628227 -0.15533
C_ C_ 0.0373097 0.0797094 0.618694 -0.15533
C_ C_ 0.0863325 0.0667361 0.603531 0.02923
C_ C_ 0.10063 0.0146957 0.592218 -0.15533
C_ C_ 0.0727657 0.976615 0.604327 0.02923
C_ C_ 0.100663 0.421075 0.611384 0.69207
C_ C_ 0.103106 0.15807 0.60799 0.69661
C_ C_ 0.438552 0.176893 0.926456 0.18167
C_ C_ 0.480127 0.200407 0.952113 -0.15533
C_ C_ 0.471738 0.238984 0.989965 0.02923
C_ C_ 0.426812 0.25673 0.510485 -0.15533
C_ C_ 0.380966 0.225582 0.977987 0.18167
C_ C_ 0.254365 0.19605 0.85174 0.18167
C_ C_ 0.231247 0.225068 0.813798 -0.15533
C_ C_ 0.2586 0.23355 0.773408 0.02923
C_ C_ 0.310671 0.218062 0.776364 -0.15533
C_ C_ 0.334065 0.18971 0.81621 0.18167
C_ C_ 0.256077 0.123814 0.954459 0.69207
C_ C_ 0.230799 0.111873 0.494241 0.02923
C_ C_ 0.248927 0.107853 0.545321 -0.15533
C_ C_ 0.215376 0.101929 0.582839 -0.15533
C_ C_ 0.164137 0.0988454 0.570105 0.02923
C_ C_ 0.146388 0.0981299 0.518685 -0.15533
C_ C_ 0.177426 0.107998 0.48125 0.02923
C_ C_ 0.142228 0.112498 0.927402 0.69207
C_ C_ 0.151959 0.097731 0.668736 0.69661
C_ C_ 0.379 0.3784 0.879302 -0.30787
C_ C_ 0.126526 0.103221 0.612868 -0.30787
N_ N_ 0.140939 0.0535592 0.809958 -0.32189
N_ N_ 0.0585853 0.141069 0.812487 -0.32189
N_ N_ 0.10818 0.30809 0.556469 -0.32189
N_ N_ 0.198716 0.313064 0.64391 -0.32189
N_ N_ 0.360065 0.458309 0.694631 -0.32189
N_ N_ 0.443795 0.367178 0.680965 -0.32189
N_ N_ 0.389567 0.19293 0.938257 -0.32189
N_ N_ 0.304406 0.177365 0.852416 -0.32189
O_ O_ 0.508798 0.0877858 0.903602 -0.63271
O_ O_ 0.0352495 0.0418765 0.834312 -0.57982
O_ O_ 0.392638 0.0952366 0.847652 -0.63271
O_ O_ 0.371612 0.0862797 0.927428 -0.57982
O_ O_ 0.24975 0.388781 0.592825 -0.63271
O_ O_ 0.207153 0.339664 0.535034 -0.57982
O_ O_ 0.358784 0.353909 0.58813 -0.63271
O_ O_ 0.379523 0.435137 0.587874 -0.57982
O_ O_ 0.987994 0.40759 0.60056 -0.63271
O_ O_ 0.456649 0.474783 0.659686 -0.57982
O_ O_ 0.091571 0.392069 0.648354 -0.63271
O_ O_ 0.137091 0.406865 0.583096 -0.57982
O_ O_ 0.250437 0.104819 0.908599 -0.63271
O_ O_ 0.295491 0.15094 0.965838 -0.57982
O_ O_ 0.148306 0.147745 0.896451 -0.63271
O_ O_ 0.109725 0.0785037 0.910416 -0.57982
F_ F_ 0.442971 0.309851 0.915432 -0.20885
F_ F_ 0.433033 0.319453 0.831558 -0.20885
F_ F_ 0.375189 0.287801 0.866212 -0.20885
F_ F_ 0.306067 0.427807 0.832397 -0.20885
F_ F_ 0.319852 0.349493 0.799628 -0.20885
F_ F_ 0.374204 0.40471 0.791929 -0.20885
F_ F_ 0.0668627 0.162148 0.56601 -0.20885
F_ F_ 0.0767579 0.176923 0.650026 -0.20885
F_ F_ 0.136864 0.19546 0.599979 -0.20885
F_ F_ 0.181306 0.0519108 0.669454 -0.20885
F_ F_ 0.178589 0.140033 0.681755 -0.20885
F_ F_ 0.115923 0.0995796 0.703122 -0.20885
Zn Zn 0.0944353 0.583905 0.352837 0.83971
Zn Zn 0.154971 0.840192 0.0792155 0.83971
Zn Zn 0.411093 0.917935 0.161392 0.83971
Zn Zn 0.34053 0.660601 0.420887 0.83971
H_ H_ 0.170684 0.632179 0.305165 0.10394
H_ H_ 0.248251 0.597569 0.258857 0.10394
H_ H_ 0.224902 0.950175 0.30678 0.10394
H_ H_ 0.135929 0.481407 0.327416 0.10394
H_ H_ 0.531062 0.600599 0.257273 0.10394
H_ H_ 0.501967 0.674822 0.207235 0.10394
H_ H_ 0.0336002 0.769404 0.341241 0.10394
H_ H_ 0.0819165 0.696612 0.38827 0.10394
H_ H_ 0.0322654 0.937289 0.364549 0.10394
H_ H_ 0.490172 0.873493 0.390513 0.10394
H_ H_ 0.361146 0.990163 0.415534 0.10394
H_ H_ 0.0816709 0.798185 0.130976 0.10394
H_ H_ 0.492923 0.770343 0.0949343 0.10394
H_ H_ 0.0397083 0.781058 0.44652 0.10394
H_ H_ 0.101806 0.832036 0.983514 0.10394
H_ H_ 0.246593 0.766506 0.10388 0.10394
H_ H_ 0.267077 0.711831 0.179191 0.10394
H_ H_ 0.196547 0.830524 0.271825 0.10394
H_ H_ 0.165956 0.877971 0.190916 0.10394
H_ H_ 0.216081 0.880434 0.44747 0.10394
H_ H_ 0.274533 0.891821 0.382661 0.10394
H_ H_ 0.39861 0.896473 0.491653 0.10394
H_ H_ 0.311292 0.887541 0.172511 0.10394
H_ H_ 0.233095 0.938996 0.204104 0.10394
H_ H_ 0.327656 0.544863 0.27053 0.10394
H_ H_ 0.403065 0.00855741 0.232867 0.10394
H_ H_ 0.00739516 0.890387 0.210538 0.10394
H_ H_ 0.0549321 0.817499 0.256417 0.10394
H_ H_ 0.407549 0.751422 0.238828 0.10394
H_ H_ 0.370188 0.832079 0.191419 0.10394
H_ H_ 0.458104 0.547896 0.109807 0.10394
H_ H_ 0.0266418 0.619812 0.089205 0.10394
H_ H_ 0.150393 0.505191 0.0879392 0.10394
H_ H_ 0.445621 0.648212 0.427707 0.10394
H_ H_ 0.0240809 0.685436 0.448332 0.10394
H_ H_ 0.410876 0.779976 0.0377783 0.10394
H_ H_ 0.341233 0.757758 0.501958 0.10394
H_ H_ 0.233354 0.675819 0.37684 0.10394
H_ H_ 0.190843 0.729551 0.308692 0.10394
H_ H_ 0.334881 0.761494 0.267102 0.10394
H_ H_ 0.375604 0.711026 0.336127 0.10394
H_ H_ 0.289329 0.617156 0.0514622 0.10394
H_ H_ 0.235947 0.621634 0.122408 0.10394
H_ H_ 0.108318 0.600493 0.00940294 0.10394
C_ C_ 0.181464 0.590765 0.297906 0.18167
C_ C_ 0.219931 0.571466 0.268947 -0.15533
C_ C_ 0.23084 0.51777 0.264699 0.02923
C_ C_ 0.2074 0.989136 0.300835 -0.15533
C_ C_ 0.157884 0.503506 0.306968 0.18167
C_ C_ 0.0425693 0.633818 0.275368 0.18167
C_ C_ 0.509619 0.678989 0.250436 -0.15533
C_ C_ 0.0208941 0.725311 0.271458 0.02923
C_ C_ 0.0394253 0.731146 0.322447 -0.15533
C_ C_ 0.0631139 0.690477 0.348713 0.18167
C_ C_ 0.010217 0.544732 0.368523 0.69207
C_ C_ 0.479394 0.00479919 0.385284 0.02923
C_ C_ 0.497226 0.952449 0.37389 -0.15533
C_ C_ 0.472044 0.915012 0.391837 -0.15533
C_ C_ 0.420711 0.926428 0.401628 0.02923
C_ C_ 0.401123 0.979806 0.407553 -0.15533
C_ C_ 0.429656 0.0184236 0.399075 0.02923
C_ C_ 0.396879 0.578828 0.390665 0.69207
C_ C_ 0.403992 0.83196 0.391312 0.69661
C_ C_ 0.0699626 0.792945 0.0907144 0.18167
C_ C_ 0.0227107 0.776515 0.0745227 -0.15533
C_ C_ 0.00803881 0.771668 0.0207795 0.02923
C_ C_ 0.048672 0.786037 0.487825 -0.15533
C_ C_ 0.0866431 0.806892 0.005984 0.18167
C_ C_ 0.225605 0.7749 0.139852 0.18167
C_ C_ 0.244972 0.748762 0.182848 -0.15533
C_ C_ 0.230832 0.766846 0.230094 0.02923
C_ C_ 0.200872 0.814646 0.233816 -0.15533
C_ C_ 0.178796 0.838264 0.188031 0.18167
C_ C_ 0.237356 0.868064 0.0491261 0.69207
C_ C_ 0.276801 0.88261 0.511315 0.02923
C_ C_ 0.257446 0.885407 0.456928 -0.15533
C_ C_ 0.289715 0.892877 0.419874 -0.15533
C_ C_ 0.3407 0.897111 0.43233 0.02923
C_ C_ 0.35809 0.900907 0.484551 -0.15533
C_ C_ 0.327904 0.894975 0.524013 0.02923
C_ C_ 0.351708 0.883464 0.0774873 0.69207
C_ C_ 0.356095 0.896257 0.337508 0.69661
C_ C_ 0.314933 0.926434 0.194667 0.18167
C_ C_ 0.271496 0.952843 0.215799 -0.15533
C_ C_ 0.276198 0.997555 0.244513 0.02923
C_ C_ 0.320832 0.514546 0.242879 -0.15533
C_ C_ 0.366173 0.993231 0.229353 0.18167
C_ C_ 0.495449 0.85089 0.206665 0.18167
C_ C_ 0.0165132 0.815092 0.23873 -0.15533
C_ C_ 0.483139 0.772367 0.246104 0.02923
C_ C_ 0.430876 0.780366 0.230106 -0.15533
C_ C_ 0.410753 0.826201 0.207013 0.18167
C_ C_ 0.486823 0.957231 0.13061 0.69207
C_ C_ 0.0252021 0.495806 0.113676 0.02923
C_ C_ 0.0064825 0.548586 0.109415 -0.15533
C_ C_ 0.0409959 0.582648 0.0962583 -0.15533
C_ C_ 0.0920086 0.569001 0.096453 0.02923
C_ C_ 0.11057 0.516462 0.098466 -0.15533
C_ C_ 0.0770266 0.481339 0.109486 0.02923
C_ C_ 0.0970414 0.920669 0.101993 0.69207
C_ C_ 0.108916 0.666772 0.122718 0.69661
C_ C_ 0.440078 0.682225 0.452389 0.18167
C_ C_ 0.481007 0.709599 0.472582 -0.15533
C_ C_ 0.471176 0.750826 0.508136 0.02923
C_ C_ 0.421006 0.749114 0.0102835 -0.15533
C_ C_ 0.381394 0.740161 0.493578 0.18167
C_ C_ 0.254926 0.699015 0.356313 0.18167
C_ C_ 0.231872 0.727385 0.315764 -0.15533
C_ C_ 0.258616 0.741994 0.27689 0.02923
C_ C_ 0.311835 0.738408 0.288099 -0.15533
C_ C_ 0.336007 0.714166 0.331769 0.18167
C_ C_ 0.268936 0.622461 0.463358 0.69207
C_ C_ 0.231442 0.61219 0.990621 0.02923
C_ C_ 0.248898 0.6196 0.0424952 -0.15533
C_ C_ 0.218173 0.61638 0.0827676 -0.15533
C_ C_ 0.166171 0.608145 0.0713637 0.02923
C_ C_ 0.146925 0.606892 0.019047 -0.15533
C_ C_ 0.180762 0.603975 0.980366 0.02923
C_ C_ 0.154356 0.603696 0.434281 0.69207
C_ C_ 0.159834 0.593003 0.165592 0.69661
C_ C_ 0.380951 0.888686 0.391328 -0.30787
C_ C_ 0.130691 0.608623 0.113537 -0.30787
N_ N_ 0.149219 0.557296 0.31195 -0.32189
N_ N_ 0.0635234 0.642725 0.324391 -0.32189
N_ N_ 0.101777 0.804113 0.0558947 -0.32189
N_ N_ 0.188333 0.814212 0.141849 -0.32189
N_ N_ 0.358669 0.949626 0.200267 -0.32189
N_ N_ 0.444279 0.857923 0.192179 -0.32189
N_ N_ 0.391036 0.699449 0.462052 -0.32189
N_ N_ 0.306346 0.691839 0.362015 -0.32189
O_ O_ 0.504259 0.592563 0.382701 -0.63271
O_ O_ 0.043627 0.538162 0.337565 -0.57982
O_ O_ 0.402174 0.609466 0.353797 -0.63271
O_ O_ 0.367809 0.594077 0.425119 -0.57982
O_ O_ 0.244262 0.882272 0.0970638 -0.63271
O_ O_ 0.201222 0.838119 0.0352185 -0.57982
O_ O_ 0.365384 0.838481 0.0961195 -0.63271
O_ O_ 0.375233 0.92381 0.097507 -0.57982
O_ O_ 0.986783 0.897174 0.091295 -0.63271
O_ O_ 0.462448 0.963771 0.171818 -0.57982
O_ O_ 0.0927601 0.890177 0.138019 -0.63271
O_ O_ 0.131191 0.907398 0.071131 -0.57982
O_ O_ 0.270884 0.594226 0.421522 -0.63271
O_ O_ 0.296687 0.66039 0.466921 -0.57982
O_ O_ 0.159342 0.642311 0.407146 -0.63271
O_ O_ 0.121392 0.572915 0.417014 -0.57982
F_ F_ 0.434129 0.821801 0.43639 -0.20885
F_ F_ 0.433264 0.816932 0.349598 -0.20885
F_ F_ 0.368041 0.795319 0.387624 -0.20885
F_ F_ 0.323655 0.940901 0.334385 -0.20885
F_ F_ 0.325431 0.857892 0.322011 -0.20885
F_ F_ 0.392149 0.896071 0.303593 -0.20885
F_ F_ 0.0875042 0.68254 0.0763837 -0.20885
F_ F_ 0.0718792 0.676429 0.156925 -0.20885
F_ F_ 0.145784 0.698811 0.138547 -0.20885
F_ F_ 0.197528 0.550953 0.159168 -0.20885
F_ F_ 0.189509 0.630319 0.192051 -0.20885
F_ F_ 0.125867 0.582095 0.195628 -0.20885
Zn Zn 0.0891931 0.585046 0.852836 0.83971
Zn Zn 0.162656 0.84823 0.585748 0.83971
Zn Zn 0.409007 0.923557 0.659884 0.83971
Zn Zn 0.346046 0.643381 0.911172 0.83971
H_ H_ 0.173902 0.632919 0.818836 0.10394
H_ H_ 0.249118 0.600755 0.772153 0.10394
H_ H_ 0.213658 0.942384 0.796876 0.10394
H_ H_ 0.125224 0.484812 0.817325 0.10394
H_ H_ 0.535259 0.610098 0.742449 0.10394
H_ H_ 0.494473 0.686828 0.706586 0.10394
H_ H_ 0.0421566 0.779176 0.854197 0.10394
H_ H_ 0.0719744 0.69805 0.899892 0.10394
H_ H_ 0.0253165 0.952421 0.870658 0.10394
H_ H_ 0.490975 0.878616 0.890738 0.10394
H_ H_ 0.356628 0.983954 0.90558 0.10394
H_ H_ 0.0804045 0.805007 0.631404 0.10394
H_ H_ 0.503402 0.772361 0.60758 0.10394
H_ H_ 0.025187 0.791113 0.94394 0.10394
H_ H_ 0.117656 0.820793 0.485109 0.10394
H_ H_ 0.217811 0.759491 0.597017 0.10394
H_ H_ 0.258923 0.709559 0.670968 0.10394
H_ H_ 0.205035 0.830552 0.779007 0.10394
H_ H_ 0.174522 0.880396 0.701162 0.10394
H_ H_ 0.218385 0.870308 0.945696 0.10394
H_ H_ 0.276666 0.883163 0.882382 0.10394
H_ H_ 0.397633 0.89847 0.994154 0.10394
H_ H_ 0.305793 0.910879 0.656484 0.10394
H_ H_ 0.236443 0.944671 0.703261 0.10394
H_ H_ 0.330877 0.558231 0.7759 0.10394
H_ H_ 0.403535 0.00121493 0.745245 0.10394
H_ H_ 0.00816179 0.897894 0.716482 0.10394
H_ H_ 0.0491463 0.830195 0.777963 0.10394
H_ H_ 0.401473 0.756618 0.73748 0.10394
H_ H_ 0.366211 0.832086 0.689043 0.10394
H_ H_ 0.46063 0.568456 0.595121 0.10394
H_ H_ 0.0203866 0.615707 0.612113 0.10394
H_ H_ 0.145207 0.503091 0.58824 0.10394
H_ H_ 0.450093 0.655327 0.900575 0.10394
H_ H_ 0.0171368 0.676384 0.976061 0.10394
H_ H_ 0.416022 0.78306 0.554991 0.10394
H_ H_ 0.342879 0.736666 -0.012498000000000009 0.10394
H_ H_ 0.238197 0.697152 0.888999 0.10394
H_ H_ 0.199374 0.745874 0.819411 0.10394
H_ H_ 0.331386 0.708101 0.737983 0.10394
H_ H_ 0.378313 0.672794 0.818821 0.10394
H_ H_ 0.292397 0.619702 0.561281 0.10394
H_ H_ 0.238236 0.606311 0.628111 0.10394
H_ H_ 0.110041 0.589121 0.514742 0.10394
C_ C_ 0.18087 0.592357 0.809326 0.18167
C_ C_ 0.224363 0.572511 0.786862 -0.15533
C_ C_ 0.235486 0.522615 0.776175 0.02923
C_ C_ 0.206348 0.98234 0.79861 -0.15533
C_ C_ 0.156066 0.509216 0.812527 0.18167
C_ C_ 0.0390806 0.645232 0.784934 0.18167
C_ C_ 0.515007 0.690516 0.743499 -0.15533
C_ C_ 0.012875 0.736969 0.786177 0.02923
C_ C_ 0.036272 0.740983 0.836764 -0.15533
C_ C_ 0.0603685 0.695811 0.85979 0.18167
C_ C_ 0.00632811 0.544629 0.864405 0.69207
C_ C_ 0.473791 0.0075653 0.873541 0.02923
C_ C_ 0.494984 0.95619 0.872268 -0.15533
C_ C_ 0.469723 0.915371 0.886578 -0.15533
C_ C_ 0.418172 0.924569 0.898455 0.02923
C_ C_ 0.396455 0.975971 0.897701 -0.15533
C_ C_ 0.423164 0.017695 0.889625 0.02923
C_ C_ 0.404999 0.563273 0.889124 0.69207
C_ C_ 0.406623 0.827023 0.889088 0.69661
C_ C_ 0.0725534 0.798434 0.591055 0.18167
C_ C_ 0.0252234 0.782894 0.571143 -0.15533
C_ C_ 0.0180397 0.767569 0.519495 0.02923
C_ C_ 0.0387504 0.789665 0.985243 -0.15533
C_ C_ 0.0958327 0.80432 0.50957 0.18167
C_ C_ 0.216931 0.772918 0.637931 0.18167
C_ C_ 0.238783 0.745552 0.679485 -0.15533
C_ C_ 0.232484 0.762611 0.730454 0.02923
C_ C_ 0.208099 0.813085 0.738148 -0.15533
C_ C_ 0.190163 0.840809 0.695692 0.18167
C_ C_ 0.240961 0.877281 0.547241 0.69207
C_ C_ 0.274769 0.875693 0.00920263 0.02923
C_ C_ 0.259082 0.873934 0.958037 -0.15533
C_ C_ 0.292624 0.881546 0.920405 -0.15533
C_ C_ 0.342823 0.887321 0.934054 0.02923
C_ C_ 0.35868 0.893223 0.986476 -0.15533
C_ C_ 0.325473 0.884776 0.0246177 0.02923
C_ C_ 0.356119 0.891028 0.574029 0.69207
C_ C_ 0.35594 0.887668 0.835269 0.69661
C_ C_ 0.311378 0.941577 0.683201 0.18167
C_ C_ 0.270026 0.962984 0.708126 -0.15533
C_ C_ 0.276189 0.999331 0.748477 0.02923
C_ C_ 0.325206 0.525026 0.749474 -0.15533
C_ C_ 0.364796 0.991254 0.735713 0.18167
C_ C_ 0.487385 0.860978 0.714296 0.18167
C_ C_ 0.0126166 0.827559 0.757832 -0.15533
C_ C_ 0.479398 0.78279 0.750723 0.02923
C_ C_ 0.427593 0.784574 0.730874 -0.15533
C_ C_ 0.407173 0.828173 0.7025 0.18167
C_ C_ 0.486534 0.960769 0.634429 0.69207
C_ C_ 0.0241372 0.488989 0.614739 0.02923
C_ C_ 1.00606442 0.541022 0.615092 -0.15533
C_ C_ 0.0383499 0.577865 0.614339 -0.15533
C_ C_ 0.0906408 0.565082 0.609228 0.02923
C_ C_ 0.107851 0.512432 0.600072 -0.15533
C_ C_ 0.0750933 0.474516 0.604786 0.02923
C_ C_ 0.0966557 0.922933 0.604974 0.69207
C_ C_ 0.10636 0.660119 0.616122 0.69661
C_ C_ 0.44139 0.675761 0.93289 0.18167
C_ C_ 0.479639 0.702784 0.959499 -0.15533
C_ C_ 0.470982 0.740338 -0.0016159999999999508 0.02923
C_ C_ 0.422287 0.762386 0.520972 -0.15533
C_ C_ 0.381163 0.724114 0.98257 0.18167
C_ C_ 0.260971 0.702618 0.858936 0.18167
C_ C_ 0.237103 0.72699 0.816962 -0.15533
C_ C_ 0.26016 0.733819 0.77382 0.02923
C_ C_ 0.31114 0.710493 0.77124 -0.15533
C_ C_ 0.336983 0.687806 0.815241 0.18167
C_ C_ 0.267807 0.61834 0.950361 0.69207
C_ C_ 0.231986 0.615408 0.499608 0.02923
C_ C_ 0.252225 0.613499 0.550947 -0.15533
C_ C_ 0.219821 0.609956 0.58962 -0.15533
C_ C_ 0.171527 0.598098 0.57865 0.02923
C_ C_ 0.153017 0.591708 0.525964 -0.15533
C_ C_ 0.182159 0.600366 0.485237 0.02923
C_ C_ 0.154516 0.604572 0.927029 0.69207
C_ C_ 0.15523 0.595897 0.671374 0.69661
C_ C_ 0.380394 0.883763 0.89211 -0.30787
C_ C_ 0.130017 0.603397 0.616914 -0.30787
N_ N_ 0.145524 0.56091 0.817904 -0.32189
N_ N_ 0.0599884 0.650759 0.833651 -0.32189
N_ N_ 0.107889 0.808347 0.56018 -0.32189
N_ N_ 0.192092 0.818667 0.646079 -0.32189
N_ N_ 0.358473 0.951661 0.701951 -0.32189
N_ N_ 0.437852 0.864871 0.695181 -0.32189
N_ N_ 0.39229 0.684948 0.947162 -0.32189
N_ N_ 0.310497 0.681768 0.855518 -0.32189
O_ O_ 0.512503 0.581564 0.892226 -0.63271
O_ O_ 0.0438763 0.537 0.837048 -0.57982
O_ O_ 0.401236 0.589341 0.847557 -0.63271
O_ O_ 0.37627 0.581017 0.924406 -0.57982
O_ O_ 0.236719 0.908456 0.586051 -0.63271
O_ O_ 0.208404 0.842733 0.538215 -0.57982
O_ O_ 0.358004 0.849847 0.598695 -0.63271
O_ O_ 0.386502 0.926352 0.592927 -0.57982
O_ O_ 0.991253 0.909557 0.609188 -0.63271
O_ O_ 0.450355 0.974234 0.662765 -0.57982
O_ O_ 0.0980011 0.89672 0.644796 -0.63271
O_ O_ 0.128582 0.906808 0.573625 -0.57982
O_ O_ 0.270772 0.586983 0.909943 -0.63271
O_ O_ 0.301765 0.650692 0.958732 -0.57982
O_ O_ 0.158466 0.645734 0.903703 -0.63271
O_ O_ 0.116474 0.577919 0.91479 -0.57982
F_ F_ 0.440076 0.818885 0.932218 -0.20885
F_ F_ 0.433095 0.812985 0.848409 -0.20885
F_ F_ 0.371485 0.791271 0.889144 -0.20885
F_ F_ 0.32284 0.931023 0.833009 -0.20885
F_ F_ 0.325989 0.850256 0.819351 -0.20885
F_ F_ 0.389553 0.885988 0.7986 -0.20885
F_ F_ 0.074965 0.670641 0.573227 -0.20885
F_ F_ 0.0782172 0.674039 0.656402 -0.20885
F_ F_ 0.14039 0.694912 0.621818 -0.20885
F_ F_ 0.185579 0.552265 0.67405 -0.20885
F_ F_ 0.182709 0.636896 0.690431 -0.20885
F_ F_ 0.121076 0.592768 0.708013 -0.20885
Zn Zn 0.594566 0.0811767 0.348124 0.83971
Zn Zn 0.661615 0.345172 0.0800987 0.83971
Zn Zn 0.907358 0.421695 0.14669 0.83971
Zn Zn 0.840285 0.150369 0.415488 0.83971
H_ H_ 0.677945 0.120582 0.325503 0.10394
H_ H_ 0.749013 0.0897301 0.275677 0.10394
H_ H_ 0.707964 0.455435 0.261151 0.10394
H_ H_ 0.634501 0.972991 0.318432 0.10394
H_ H_ 0.0287762 0.103589 0.25094 0.10394
H_ H_ 0.986276 0.17397 0.203728 0.10394
H_ H_ 0.546868 0.266584 0.333549 0.10394
H_ H_ 0.579545 0.188399 0.378911 0.10394
H_ H_ 0.517127 0.451118 0.336957 0.10394
H_ H_ 0.973307 0.379345 0.366411 0.10394
H_ H_ 0.852991 0.494006 0.401514 0.10394
H_ H_ 0.576565 0.304422 0.120607 0.10394
H_ H_ 1.00164 0.264238 0.0984819 0.10394
H_ H_ 0.549498 0.274891 0.446134 0.10394
H_ H_ 0.620832 0.316454 0.973843 0.10394
H_ H_ 0.713124 0.244689 0.0977018 0.10394
H_ H_ 0.756811 0.200546 0.17497 0.10394
H_ H_ 0.706616 0.332227 0.26433 0.10394
H_ H_ 0.675314 0.376115 0.189444 0.10394
H_ H_ 0.707713 0.396957 0.447126 0.10394
H_ H_ 0.758821 0.397562 0.373118 0.10394
H_ H_ 0.896782 0.392381 0.477989 0.10394
H_ H_ 0.806825 0.405018 0.155909 0.10394
H_ H_ 0.729594 0.456247 0.179395 0.10394
H_ H_ 0.835182 0.0222025 0.293488 0.10394
H_ H_ 0.905201 0.502662 0.241014 0.10394
H_ H_ 0.51697 0.369393 0.17826 0.10394
H_ H_ 0.559812 0.299846 0.226324 0.10394
H_ H_ 0.915942 0.238729 0.195601 0.10394
H_ H_ 0.870843 0.317958 0.166051 0.10394
H_ H_ 0.957478 0.0411979 0.114399 0.10394
H_ H_ 0.519711 0.124823 0.113754 0.10394
H_ H_ 0.639756 0.00564836 0.086212 0.10394
H_ H_ 0.938247 0.15733 0.395701 0.10394
H_ H_ 0.517174 0.189247 0.448507 0.10394
H_ H_ 0.913001 0.286105 0.0445652 0.10394
H_ H_ 0.849038 0.233207 0.508461 0.10394
H_ H_ 0.732267 0.194527 0.38737 0.10394
H_ H_ 0.690237 0.235604 0.309655 0.10394
H_ H_ 0.838487 0.226907 0.250278 0.10394
H_ H_ 0.875259 0.185925 0.326485 0.10394
H_ H_ 0.785317 0.106986 0.0518424 0.10394
H_ H_ 0.730259 0.0995774 0.117694 0.10394
H_ H_ 0.606926 0.0921694 0.00429448 0.10394
C_ C_ 0.684549 0.0804229 0.313516 0.18167
C_ C_ 0.726538 0.0619937 0.286319 -0.15533
C_ C_ 0.736757 0.0129326 0.273817 0.02923
C_ C_ 0.699218 0.495876 0.271163 -0.15533
C_ C_ 0.662141 -0.0020980000000000443 0.315679 0.18167
C_ C_ 0.533678 0.134716 0.266023 0.18167
C_ C_ 0.00649549 0.179249 0.239199 -0.15533
C_ C_ 0.510986 0.226735 0.268832 0.02923
C_ C_ 0.542501 0.230112 0.315369 -0.15533
C_ C_ 0.561034 0.185489 0.340719 0.18167
C_ C_ 0.515835 0.0415381 0.377514 0.69207
C_ C_ 0.97307 0.506435 0.368189 0.02923
C_ C_ 0.991753 0.455892 0.367287 -0.15533
C_ C_ 0.957437 0.417988 0.370067 -0.15533
C_ C_ 0.906141 0.43038 0.381491 0.02923
C_ C_ 0.890559 0.482588 0.388224 -0.15533
C_ C_ 0.92137 0.521149 0.379635 0.02923
C_ C_ 0.895802 0.0656088 0.381642 0.69207
C_ C_ 0.892173 0.335444 0.373557 0.69661
C_ C_ 0.570104 0.295712 0.0815365 0.18167
C_ C_ 0.528343 0.271669 0.0624731 -0.15533
C_ C_ 0.514866 0.266815 0.00999034 0.02923
C_ C_ 0.553294 0.285893 0.485422 -0.15533
C_ C_ 0.59404 0.30389 -0.002139000000000002 0.18167
C_ C_ 0.718587 0.263775 0.134449 0.18167
C_ C_ 0.740894 0.239953 0.177889 -0.15533
C_ C_ 0.737498 0.265562 0.226111 0.02923
C_ C_ 0.710091 0.312786 0.228883 -0.15533
C_ C_ 0.692543 0.337847 0.18443 0.18167
C_ C_ 0.739483 0.382037 0.0390245 0.69207
C_ C_ 0.772567 0.385629 0.500947 0.02923
C_ C_ 0.74899 0.39094 0.450955 -0.15533
C_ C_ 0.778187 0.395213 0.410575 -0.15533
C_ C_ 0.831194 0.39296 0.418114 0.02923
C_ C_ 0.854718 0.391136 0.470101 -0.15533
C_ C_ 0.8276 0.385762 0.509622 0.02923
C_ C_ 0.848977 0.393679 0.0624081 0.69207
C_ C_ 0.836985 0.395967 0.31817 0.69661
C_ C_ 0.811666 0.438181 0.180954 0.18167
C_ C_ 0.768104 0.468676 0.193502 -0.15533
C_ C_ 0.776973 0.508125 0.23162 0.02923
C_ C_ 0.829008 0.00525643 0.25495 -0.15533
C_ C_ 0.866049 0.49528 0.223685 0.18167
C_ C_ 0.988132 0.356673 0.195993 0.18167
C_ C_ 0.51847 0.30424 0.218968 -0.15533
C_ C_ 0.986085 0.269242 0.224508 0.02923
C_ C_ 0.933898 0.271691 0.203928 -0.15533
C_ C_ 0.910501 0.316444 0.176658 0.18167
C_ C_ 0.988798 0.457496 0.118886 0.69207
C_ C_ 0.519673 0.996782 0.1205 0.02923
C_ C_ 0.501724 0.0499003 0.121308 -0.15533
C_ C_ 0.533497 0.0848812 0.108754 -0.15533
C_ C_ 0.585685 0.0690346 0.102204 0.02923
C_ C_ 0.603222 0.0185399 0.102099 -0.15533
C_ C_ 0.572121 0.980773 0.112094 0.02923
C_ C_ 0.592675 0.417715 0.0990922 0.69207
C_ C_ 0.603973 0.170278 0.10781 0.69661
C_ C_ 0.936006 0.182782 0.429651 0.18167
C_ C_ 0.979977 0.204258 0.448921 -0.15533
C_ C_ 0.975446 0.242109 0.488993 0.02923
C_ C_ 0.920863 0.254712 0.0174029 -0.15533
C_ C_ 0.884778 0.227804 0.490457 0.18167
C_ C_ 0.754737 0.19662 0.354832 0.18167
C_ C_ 0.730284 0.225653 0.310602 -0.15533
C_ C_ 0.760846 0.240833 0.27412 0.02923
C_ C_ 0.812633 0.22296 0.279031 -0.15533
C_ C_ 0.834518 0.197461 0.321621 0.18167
C_ C_ 0.769617 0.112445 0.45829 0.69207
C_ C_ 0.72606 0.112329 0.990149 0.02923
C_ C_ 0.744889 0.111478 0.0432181 -0.15533
C_ C_ 0.71429 0.105612 0.081458 -0.15533
C_ C_ 0.662311 0.100451 0.0684766 0.02923
C_ C_ 0.644736 0.101494 0.0151653 -0.15533
C_ C_ 0.675915 0.103173 0.976677 0.02923
C_ C_ 0.652296 0.107951 0.434032 0.69207
C_ C_ 0.648139 0.100567 0.167361 0.69661
C_ C_ 0.865508 0.391432 0.37404 -0.30787
C_ C_ 0.624479 0.110287 0.110952 -0.30787
N_ N_ 0.650964 0.0479527 0.320855 -0.32189
N_ N_ 0.558034 0.139695 0.315453 -0.32189
N_ N_ 0.603514 0.308639 0.0492899 -0.32189
N_ N_ 0.697058 0.314338 0.138424 -0.32189
N_ N_ 0.858389 0.455819 0.188059 -0.32189
N_ N_ 0.936171 0.359332 0.176377 -0.32189
N_ N_ 0.890743 0.19296 0.451683 -0.32189
N_ N_ 0.806208 0.18404 0.35762 -0.32189
O_ O_ 0.00345408 0.0878617 0.39695 -0.63271
O_ O_ 0.556093 0.028879 0.352861 -0.57982
O_ O_ 0.894623 0.0908786 0.339779 -0.63271
O_ O_ 0.873901 0.0880575 0.421077 -0.57982
O_ O_ 0.742112 0.409083 0.0820949 -0.63271
O_ O_ 0.708457 0.344733 0.0343924 -0.57982
O_ O_ 0.849944 0.350513 0.0845198 -0.63271
O_ O_ 0.8735 0.432207 0.0840169 -0.57982
O_ O_ 0.488834 0.402091 0.0955012 -0.63271
O_ O_ 0.95675 0.465631 0.15468 -0.57982
O_ O_ 0.594026 0.393019 0.141567 -0.63271
O_ O_ 0.630123 0.40565 0.070413 -0.57982
O_ O_ 0.761823 0.0942075 0.412021 -0.63271
O_ O_ 0.799741 0.147059 0.466508 -0.57982
O_ O_ 0.660682 0.149153 0.411065 -0.63271
O_ O_ 0.616094 0.0798159 0.414681 -0.57982
F_ F_ 0.932476 0.331523 0.409828 -0.20885
F_ F_ 0.914303 0.314409 0.331298 -0.20885
F_ F_ 0.857647 0.298879 0.382813 -0.20885
F_ F_ 0.807024 0.44267 0.317983 -0.20885
F_ F_ 0.805467 0.355176 0.301303 -0.20885
F_ F_ 0.872814 0.394948 0.282499 -0.20885
F_ F_ 0.572365 0.176607 0.0648156 -0.20885
F_ F_ 0.578262 0.189143 0.148356 -0.20885
F_ F_ 0.640508 0.20208 0.103221 -0.20885
F_ F_ 0.684816 0.0592935 0.176956 -0.20885
F_ F_ 0.666306 0.144162 0.18719 -0.20885
F_ F_ 0.609407 0.0978206 0.198193 -0.20885
Zn Zn 0.584046 0.0904199 0.845279 0.83971
Zn Zn 0.658131 0.353281 0.581709 0.83971
Zn Zn 0.910705 0.414967 0.648974 0.83971
Zn Zn 0.83324 0.16843 0.913107 0.83971
H_ H_ 0.667281 0.144377 0.809029 0.10394
H_ H_ 0.75059 0.107054 0.777254 0.10394
H_ H_ 0.696596 0.445642 0.753217 0.10394
H_ H_ 0.631265 0.993653 0.826949 0.10394
H_ H_ 0.0259045 0.0894597 0.755044 0.10394
H_ H_ 0.991974 0.164617 0.699266 0.10394
H_ H_ 0.523805 0.280722 0.826042 0.10394
H_ H_ 0.571527 0.207083 0.872017 0.10394
H_ H_ 0.536335 0.437704 0.864359 0.10394
H_ H_ 0.981717 0.374077 0.881917 0.10394
H_ H_ 0.8472 0.479581 0.874576 0.10394
H_ H_ 0.573563 0.309993 0.630244 0.10394
H_ H_ 0.00127242 0.270109 0.592894 0.10394
H_ H_ 0.538431 0.275351 0.93572 0.10394
H_ H_ 0.62691 0.317759 0.484132 0.10394
H_ H_ 0.721965 0.256929 0.595765 0.10394
H_ H_ 0.762896 0.215672 0.672699 0.10394
H_ H_ 0.698065 0.343559 0.767086 0.10394
H_ H_ 0.66876 0.386996 0.682564 0.10394
H_ H_ 0.714451 0.365812 0.938849 0.10394
H_ H_ 0.764864 0.378192 0.869264 0.10394
H_ H_ 0.889525 0.421704 0.978324 0.10394
H_ H_ 0.801926 0.397697 0.646392 0.10394
H_ H_ 0.729979 0.45533 0.668512 0.10394
H_ H_ 0.832239 0.0546328 0.77714 0.10394
H_ H_ 0.904306 0.48178 0.743609 0.10394
H_ H_ 0.518693 0.385515 0.683744 0.10394
H_ H_ 0.554756 0.303044 0.726824 0.10394
H_ H_ 0.913018 0.236264 0.70794 0.10394
H_ H_ 0.87178 0.317595 0.67473 0.10394
H_ H_ 0.97805 0.0542512 0.65276 0.10394
H_ H_ 0.523256 0.120619 0.603833 0.10394
H_ H_ 0.645344 0.00396272 0.602081 0.10394
H_ H_ 0.930851 0.171457 0.89383 0.10394
H_ H_ 0.516 0.18225 0.953406 0.10394
H_ H_ 0.921071 0.286114 0.538819 0.10394
H_ H_ 0.840849 0.249982 0.000875152 0.10394
H_ H_ 0.727677 0.188824 0.87524 0.10394
H_ H_ 0.684645 0.235012 0.800995 0.10394
H_ H_ 0.830299 0.242818 0.746057 0.10394
H_ H_ 0.871476 0.192882 0.813522 0.10394
H_ H_ 0.794613 0.0890913 0.556871 0.10394
H_ H_ 0.738588 0.096247 0.62747 0.10394
H_ H_ 0.612235 0.0789326 0.513222 0.10394
C_ C_ 0.676058 0.102181 0.804427 0.18167
C_ C_ 0.7206 0.0827923 0.783518 -0.15533
C_ C_ 0.730599 0.0302831 0.771605 0.02923
C_ C_ 0.694484 0.484782 0.766167 -0.15533
C_ C_ 0.655317 0.0178058 0.811764 0.18167
C_ C_ 0.526346 0.143212 0.767711 0.18167
C_ C_ 0.00763785 0.1699 0.739652 -0.15533
C_ C_ 0.49866 0.234269 0.762205 0.02923
C_ C_ 0.525596 0.242572 0.809628 -0.15533
C_ C_ 0.553213 0.200729 0.834662 0.18167
C_ C_ 0.50532 0.0500225 0.867236 0.69207
C_ C_ 0.970965 0.503671 0.867433 0.02923
C_ C_ 0.992206 0.450596 0.863034 -0.15533
C_ C_ 0.962693 0.412101 0.876396 -0.15533
C_ C_ 0.911038 0.425038 0.884761 0.02923
C_ C_ 0.889663 0.473819 0.878426 -0.15533
C_ C_ 0.91943 0.515674 0.878757 0.02923
C_ C_ 0.887822 0.0834825 0.881695 0.69207
C_ C_ 0.901054 0.327379 0.891058 0.69661
C_ C_ 0.567674 0.306341 0.588877 0.18167
C_ C_ 0.529163 0.278219 0.568589 -0.15533
C_ C_ 0.520298 0.269486 0.516676 0.02923
C_ C_ 0.546574 0.28542 0.977811 -0.15533
C_ C_ 0.595886 0.30805 0.506436 0.18167
C_ C_ 0.712926 0.272913 0.63203 0.18167
C_ C_ 0.735502 0.249196 0.674662 -0.15533
C_ C_ 0.72895 0.272784 0.722642 0.02923
C_ C_ 0.70008 0.321213 0.728262 -0.15533
C_ C_ 0.680632 0.345415 0.683718 0.18167
C_ C_ 0.738515 0.374836 0.54289 0.69207
C_ C_ 0.771747 0.391812 0.99811 0.02923
C_ C_ 0.753429 0.38031 0.94673 -0.15533
C_ C_ 0.78296 0.38576 0.907746 -0.15533
C_ C_ 0.834266 0.395503 0.919486 0.02923
C_ C_ 0.852258 0.407353 0.969272 -0.15533
C_ C_ 0.821992 0.399692 0.00943088 0.02923
C_ C_ 0.851807 0.383826 0.56246 0.69207
C_ C_ 0.848599 0.379135 0.823959 0.69661
C_ C_ 0.80828 0.432252 0.671657 0.18167
C_ C_ 0.766253 0.460412 0.690018 -0.15533
C_ C_ 0.773601 0.498469 0.730806 0.02923
C_ C_ 0.823188 0.0267627 0.744567 -0.15533
C_ C_ 0.864784 0.475624 0.728958 0.18167
C_ C_ 0.990263 0.350908 0.697863 0.18167
C_ C_ 0.514833 0.311934 0.717143 -0.15533
C_ C_ 0.986455 0.2664 0.728559 0.02923
C_ C_ 0.934944 0.268273 0.707678 -0.15533
C_ C_ 0.913352 0.313045 0.683607 0.18167
C_ C_ 0.990003 0.450525 0.628499 0.69207
C_ C_ 0.52186 0.99674 0.625567 0.02923
C_ C_ 0.504085 0.0471756 0.618382 -0.15533
C_ C_ 0.537527 0.0822769 0.608417 -0.15533
C_ C_ 0.591355 0.0671559 0.603949 0.02923
C_ C_ 0.60547 0.0147748 0.602037 -0.15533
C_ C_ 0.572321 0.979843 0.61286 0.02923
C_ C_ 0.594718 0.433259 0.598276 0.69207
C_ C_ 0.605466 0.162256 0.605485 0.69661
C_ C_ 0.929383 0.194507 0.928449 0.18167
C_ C_ 0.972547 0.212464 0.95391 -0.15533
C_ C_ 0.969694 0.244796 -0.002487000000000017 0.02923
C_ C_ 0.926218 0.256175 0.508014 -0.15533
C_ C_ 0.878502 0.233189 0.991117 0.18167
C_ C_ 0.750559 0.203237 0.846684 0.18167
C_ C_ 0.726678 0.230635 0.806146 -0.15533
C_ C_ 0.755973 0.24898 0.771233 0.02923
C_ C_ 0.807908 0.231352 0.773988 -0.15533
C_ C_ 0.830185 0.201974 0.812779 0.18167
C_ C_ 0.760023 0.123655 0.951618 0.69207
C_ C_ 0.734374 0.102777 0.498171 0.02923
C_ C_ 0.755461 0.0973627 0.549453 -0.15533
C_ C_ 0.722004 0.0985645 0.588599 -0.15533
C_ C_ 0.669953 0.091949 0.57341 0.02923
C_ C_ 0.651522 0.0873038 0.522288 -0.15533
C_ C_ 0.680599 0.0979432 0.484759 0.02923
C_ C_ 0.650532 0.109765 0.92421 0.69207
C_ C_ 0.650166 0.106935 0.669949 0.69661
C_ C_ 0.874924 0.381694 0.880877 -0.30787
C_ C_ 0.630527 0.107382 0.611694 -0.30787
N_ N_ 0.639965 0.0690644 0.808695 -0.32189
N_ N_ 0.548615 0.151671 0.815554 -0.32189
N_ N_ 0.602748 0.318789 0.558194 -0.32189
N_ N_ 0.68695 0.319581 0.637736 -0.32189
N_ N_ 0.856755 0.443925 0.687219 -0.32189
N_ N_ 0.941833 0.351883 0.675361 -0.32189
N_ N_ 0.882277 0.208597 0.945239 -0.32189
N_ N_ 0.802579 0.192016 0.85103 -0.32189
O_ O_ 0.000139984 0.0988848 0.892343 -0.63271
O_ O_ 0.540096 0.0426216 0.83667 -0.57982
O_ O_ 0.880117 0.10555 0.838003 -0.63271
O_ O_ 0.865871 0.106679 0.920849 -0.57982
O_ O_ 0.735383 0.409377 0.58045 -0.63271
O_ O_ 0.703219 0.342794 0.534602 -0.57982
O_ O_ 0.852525 0.34249 0.586554 -0.63271
O_ O_ 0.880491 0.418675 0.581612 -0.57982
O_ O_ 0.488029 0.422079 0.596261 -0.63271
O_ O_ 0.952429 0.462949 0.655996 -0.57982
O_ O_ 0.588034 0.403649 0.637049 -0.63271
O_ O_ 0.63269 0.418747 0.573995 -0.57982
O_ O_ 0.756861 0.102312 0.905369 -0.63271
O_ O_ 0.790339 0.161216 0.962723 -0.57982
O_ O_ 0.643626 0.154457 0.902307 -0.63271
O_ O_ 0.619359 0.0766767 0.905007 -0.57982
F_ F_ 0.934195 0.331052 0.934126 -0.20885
F_ F_ 0.930903 0.30109 0.852359 -0.20885
F_ F_ 0.863451 0.296625 0.901524 -0.20885
F_ F_ 0.812645 0.419275 0.813729 -0.20885
F_ F_ 0.826128 0.333972 0.812599 -0.20885
F_ F_ 0.885698 0.376711 0.788912 -0.20885
F_ F_ 0.572083 0.161264 0.560442 -0.20885
F_ F_ 0.579737 0.18367 0.644182 -0.20885
F_ F_ 0.645264 0.193616 0.600477 -0.20885
F_ F_ 0.680001 0.0628705 0.676547 -0.20885
F_ F_ 0.678604 0.14597 0.683782 -0.20885
F_ F_ 0.61106 0.106527 0.69975 -0.20885
Zn Zn 0.589647 0.583519 0.346587 0.83971
Zn Zn 0.656088 0.847282 0.0815477 0.83971
Zn Zn 0.906334 0.908403 0.152578 0.83971
Zn Zn 0.842139 0.656428 0.404544 0.83971
H_ H_ 0.666225 0.640497 0.307455 0.10394
H_ H_ 0.748819 0.609141 0.261869 0.10394
H_ H_ 0.714661 0.936328 0.286409 0.10394
H_ H_ 0.641346 0.486571 0.319712 0.10394
H_ H_ 0.0428647 0.594274 0.262254 0.10394
H_ H_ 1.00589 0.671949 0.206678 0.10394
H_ H_ 0.526981 0.773752 0.347047 0.10394
H_ H_ 0.569949 0.693762 0.390333 0.10394
H_ H_ 0.537303 0.941435 0.371513 0.10394
H_ H_ 0.976238 0.872269 0.368333 0.10394
H_ H_ 0.857607 0.982578 0.411244 0.10394
H_ H_ 0.576801 0.813373 0.131544 0.10394
H_ H_ 0.997154 0.769397 0.100291 0.10394
H_ H_ 0.54316 0.785808 0.455212 0.10394
H_ H_ 0.61738 0.811078 0.982883 0.10394
H_ H_ 0.714022 0.747981 0.0926905 0.10394
H_ H_ 0.75714 0.701996 0.17008 0.10394
H_ H_ 0.722742 0.835363 0.264901 0.10394
H_ H_ 0.67357 0.874383 0.191155 0.10394
H_ H_ 0.717403 0.866994 0.453309 0.10394
H_ H_ 0.771407 0.867159 0.38661 0.10394
H_ H_ 0.897795 0.903503 0.490216 0.10394
H_ H_ 0.806211 0.891198 0.16376 0.10394
H_ H_ 0.730103 0.943252 0.194739 0.10394
H_ H_ 0.831426 0.548905 0.277225 0.10394
H_ H_ 0.906885 0.98408 0.235957 0.10394
H_ H_ 0.519646 0.874034 0.194379 0.10394
H_ H_ 0.556459 0.807936 0.247008 0.10394
H_ H_ 0.927163 0.733825 0.219405 0.10394
H_ H_ 0.881079 0.804692 0.170737 0.10394
H_ H_ 0.967685 0.564336 0.11609 0.10394
H_ H_ 0.510714 0.611587 0.0980313 0.10394
H_ H_ 0.639814 0.500374 0.0931562 0.10394
H_ H_ 0.951484 0.656131 0.394161 0.10394
H_ H_ 0.518022 0.690642 0.469828 0.10394
H_ H_ 0.904602 0.799926 0.0189549 0.10394
H_ H_ 0.845824 0.735888 0.488464 0.10394
H_ H_ 0.741515 0.675725 0.367204 0.10394
H_ H_ 0.698882 0.721627 0.296138 0.10394
H_ H_ 0.839535 0.732403 0.234072 0.10394
H_ H_ 0.884783 0.687098 0.312032 0.10394
H_ H_ 0.785725 0.602779 0.0609 0.10394
H_ H_ 0.725224 0.584588 0.117011 0.10394
H_ H_ 0.59892 0.594979 0.00182618 0.10394
C_ C_ 0.674169 0.600947 0.292167 0.18167
C_ C_ 0.719316 0.583501 0.266948 -0.15533
C_ C_ 0.734136 0.530299 0.260939 0.02923
C_ C_ 0.706556 0.977792 0.293386 -0.15533
C_ C_ 0.661233 0.51372 0.303071 0.18167
C_ C_ 0.529525 0.637287 0.278172 0.18167
C_ C_ 0.0182092 0.676797 0.248042 -0.15533
C_ C_ 0.506116 0.729146 0.275719 0.02923
C_ C_ 0.528656 0.733857 0.327092 -0.15533
C_ C_ 0.554793 0.690824 0.350784 0.18167
C_ C_ 0.507965 0.547712 0.361002 0.69207
C_ C_ 0.976597 0.00248626 0.378394 0.02923
C_ C_ -0.00723600000000002 0.948525 0.373481 -0.15533
C_ C_ 0.960573 0.911211 0.377633 -0.15533
C_ C_ 0.910751 0.922435 0.392161 0.02923
C_ C_ 0.893451 0.972317 0.39642 -0.15533
C_ C_ 0.922891 0.0132486 0.3873 0.02923
C_ C_ 0.89672 0.573187 0.378879 0.69207
C_ C_ 0.896761 0.825129 0.389217 0.69661
C_ C_ 0.568267 0.800339 0.091108 0.18167
C_ C_ 0.521498 0.781063 0.071497 -0.15533
C_ C_ 0.51102 0.774002 0.0180891 0.02923
C_ C_ 0.55028 0.78886 0.496303 -0.15533
C_ C_ 0.59126 0.804933 0.00691585 0.18167
C_ C_ 0.714589 0.764831 0.131284 0.18167
C_ C_ 0.739847 0.740395 0.172119 -0.15533
C_ C_ 0.740852 0.765312 0.219875 0.02923
C_ C_ 0.720904 0.814936 0.226496 -0.15533
C_ C_ 0.692522 0.838218 0.183912 0.18167
C_ C_ 0.735268 0.869496 0.0442161 0.69207
C_ C_ 0.781012 0.869387 0.514392 0.02923
C_ C_ 0.759444 0.870454 0.464353 -0.15533
C_ C_ 0.789503 0.870607 0.424049 -0.15533
C_ C_ 0.838101 0.884378 0.432919 0.02923
C_ C_ 0.860521 0.892048 0.485176 -0.15533
C_ C_ 0.831791 0.881971 0.52531 0.02923
C_ C_ 0.848843 0.881243 0.0684394 0.69207
C_ C_ 0.844226 0.888909 0.331605 0.69661
C_ C_ 0.808905 0.927671 0.180089 0.18167
C_ C_ 0.768421 0.955451 0.20303 -0.15533
C_ C_ 0.77816 0.994305 0.240748 0.02923
C_ C_ 0.824856 0.523763 0.24616 -0.15533
C_ C_ 0.867107 0.979503 0.227358 0.18167
C_ C_ 0.990468 0.854468 0.210068 0.18167
C_ C_ 0.515619 0.807773 0.233655 -0.15533
C_ C_ 0.992463 0.77043 0.243837 0.02923
C_ C_ 0.945019 0.767404 0.216252 -0.15533
C_ C_ 0.920243 0.808225 0.18971 0.18167
C_ C_ 0.985132 0.942688 0.117819 0.69207
C_ C_ 0.516479 0.484506 0.103252 0.02923
C_ C_ 0.496679 0.535612 0.100734 -0.15533
C_ C_ 0.528137 0.57484 0.101676 -0.15533
C_ C_ 0.580531 0.561792 0.0954278 0.02923
C_ C_ 0.600389 0.509399 0.091133 -0.15533
C_ C_ 0.567152 0.471476 0.0937077 0.02923
C_ C_ 0.594074 0.927571 0.113769 0.69207
C_ C_ 0.591204 0.656859 0.102421 0.69661
C_ C_ 0.944678 0.681405 0.426121 0.18167
C_ C_ 0.986069 0.699106 0.456223 -0.15533
C_ C_ 0.978662 0.733885 0.497508 0.02923
C_ C_ 0.913964 0.76228 0.998695 -0.15533
C_ C_ 0.88553 0.722235 0.482758 0.18167
C_ C_ 0.762701 0.692374 0.338592 0.18167
C_ C_ 0.740422 0.724115 0.301687 -0.15533
C_ C_ 0.766555 0.737492 0.262793 0.02923
C_ C_ 0.8191 0.72455 0.266597 -0.15533
C_ C_ 0.842915 0.695621 0.307126 0.18167
C_ C_ 0.768682 0.622244 0.451175 0.69207
C_ C_ 0.727807 0.60287 0.994223 0.02923
C_ C_ 0.7452 0.59805 0.0459901 -0.15533
C_ C_ 0.70995 0.595613 0.0807541 -0.15533
C_ C_ 0.656795 0.594631 0.0662335 0.02923
C_ C_ 0.640492 0.594618 0.0144246 -0.15533
C_ C_ 0.675017 0.600462 0.978313 0.02923
C_ C_ 0.657326 0.608176 0.421357 0.69207
C_ C_ 0.643399 0.599612 0.161433 0.69661
C_ C_ 0.874105 0.883348 0.388294 -0.30787
C_ C_ 0.617548 0.602137 0.105374 -0.30787
N_ N_ 0.645568 0.564225 0.308334 -0.32189
N_ N_ 0.556643 0.643514 0.324321 -0.32189
N_ N_ 0.600183 0.812644 0.0577565 -0.32189
N_ N_ 0.689076 0.813122 0.138406 -0.32189
N_ N_ 0.855578 0.945572 0.187823 -0.32189
N_ N_ 0.942962 0.851096 0.185913 -0.32189
N_ N_ 0.896349 0.691969 0.440706 -0.32189
N_ N_ 0.814296 0.681805 0.34343 -0.32189
O_ O_ 0.00974882 0.581577 0.405493 -0.63271
O_ O_ 0.548753 0.533181 0.337817 -0.57982
O_ O_ 0.891261 0.59398 0.33649 -0.63271
O_ O_ 0.869755 0.590918 0.415417 -0.57982
O_ O_ 0.73894 0.896054 0.0885449 -0.63271
O_ O_ 0.701461 0.837018 0.0340399 -0.57982
O_ O_ 0.845147 0.839255 0.0919335 -0.63271
O_ O_ 0.887436 0.905957 0.084698 -0.57982
O_ O_ 0.482224 0.91634 0.100993 -0.63271
O_ O_ 0.951605 0.953657 0.150358 -0.57982
O_ O_ 0.591521 0.900027 0.152029 -0.63271
O_ O_ 0.629727 0.912798 0.0847765 -0.57982
O_ O_ 0.764527 0.591392 0.409364 -0.63271
O_ O_ 0.797727 0.658648 0.456191 -0.57982
O_ O_ 0.653891 0.648611 0.395536 -0.63271
O_ O_ 0.624631 0.573615 0.405798 -0.57982
F_ F_ 0.935139 0.817877 0.42861 -0.20885
F_ F_ 0.915664 0.809344 0.344065 -0.20885
F_ F_ 0.861976 0.791321 0.397121 -0.20885
F_ F_ 0.805004 0.929052 0.334827 -0.20885
F_ F_ 0.81988 0.846576 0.311272 -0.20885
F_ F_ 0.87594 0.89931 0.296109 -0.20885
F_ F_ 0.559332 0.66623 0.0571792 -0.20885
F_ F_ 0.557876 0.673834 0.140503 -0.20885
F_ F_ 0.628096 0.687845 0.108162 -0.20885
F_ F_ 0.669526 0.552922 0.165742 -0.20885
F_ F_ 0.675916 0.637023 0.173832 -0.20885
F_ F_ 0.603426 0.606774 0.192494 -0.20885
Zn Zn 0.589959 0.582024 0.840824 0.83971
Zn Zn 0.664858 0.847948 0.592292 0.83971
Zn Zn 0.910687 0.917613 0.662848 0.83971
Zn Zn 0.840411 0.65098 0.920968 0.83971
H_ H_ 0.66822 0.630616 0.794483 0.10394
H_ H_ 0.743163 0.601145 0.765072 0.10394
H_ H_ 0.713463 0.957466 0.791434 0.10394
H_ H_ 0.62138 0.478905 0.794292 0.10394
H_ H_ 0.0306412 0.608212 0.764952 0.10394
H_ H_ 0.99795189 0.684235 0.720489 0.10394
H_ H_ 0.527718 0.771176 0.847823 0.10394
H_ H_ 0.565325 0.68705 0.884759 0.10394
H_ H_ 0.534806 0.949354 0.869176 0.10394
H_ H_ 0.973345 0.888717 0.886409 0.10394
H_ H_ 0.84436 1.00199881 0.904337 0.10394
H_ H_ 0.57989 0.812502 0.640658 0.10394
H_ H_ -0.001974999999999949 0.771444 0.594619 0.10394
H_ H_ 0.540296 0.775235 0.944343 0.10394
H_ H_ 0.619431 0.820655 0.488728 0.10394
H_ H_ 0.724321 0.749202 0.601463 0.10394
H_ H_ 0.7649 0.699915 0.679598 0.10394
H_ H_ 0.718913 0.830339 0.776939 0.10394
H_ H_ 0.685464 0.876194 0.698241 0.10394
H_ H_ 0.714326 0.86276 0.943756 0.10394
H_ H_ 0.766441 0.882948 0.875861 0.10394
H_ H_ 0.886302 0.912218 0.987901 0.10394
H_ H_ 0.808807 0.898868 0.670583 0.10394
H_ H_ 0.735776 0.947882 0.699852 0.10394
H_ H_ 0.833637 0.534782 0.777401 0.10394
H_ H_ 0.895532 1.0179402 0.711708 0.10394
H_ H_ 0.509286 0.892252 0.711321 0.10394
H_ H_ 0.549999 0.812303 0.750498 0.10394
H_ H_ 0.925877 0.742178 0.727399 0.10394
H_ H_ 0.875616 0.824359 0.695554 0.10394
H_ H_ 0.965885 0.551939 0.619717 0.10394
H_ H_ 0.517735 0.630652 0.607588 0.10394
H_ H_ 0.641124 0.513649 0.576822 0.10394
H_ H_ 0.94657 0.624232 0.944755 0.10394
H_ H_ 0.518971 0.693135 0.951842 0.10394
H_ H_ 0.919306 0.775426 0.536963 0.10394
H_ H_ 0.836788 0.748361 0.976796 0.10394
H_ H_ 0.736474 0.689845 0.891308 0.10394
H_ H_ 0.697215 0.74094 0.813924 0.10394
H_ H_ 0.845232 0.743206 0.764053 0.10394
H_ H_ 0.881835 0.690037 0.836761 0.10394
H_ H_ 0.782437 0.644154 0.550795 0.10394
H_ H_ 0.727222 0.630745 0.617715 0.10394
H_ H_ 0.606206 0.607168 0.5028 0.10394
C_ C_ 0.6767 0.587794 0.795584 0.18167
C_ C_ 0.721243 0.571185 0.773027 -0.15533
C_ C_ 0.731624 0.518029 0.76038 0.02923
C_ C_ 0.700785 0.997405 0.791022 -0.15533
C_ C_ 0.650704 0.506244 0.787261 0.18167
C_ C_ 0.536396 0.646099 0.765216 0.18167
C_ C_ 0.0150759 0.688457 0.760299 -0.15533
C_ C_ 0.506398 0.734745 0.773629 0.02923
C_ C_ 0.524966 0.734719 0.825286 -0.15533
C_ C_ 0.550707 0.687961 0.845405 0.18167
C_ C_ 0.510733 0.539015 0.863358 0.69207
C_ C_ 0.966203 0.0168176 0.879151 0.02923
C_ C_ -0.014334999999999987 0.965218 0.878839 -0.15533
C_ C_ 0.95557 0.927581 0.88426 -0.15533
C_ C_ 0.903801 0.940115 0.891314 0.02923
C_ C_ 0.886436 0.991662 0.89671 -0.15533
C_ C_ 0.913181 0.0300483 0.88446 0.02923
C_ C_ 0.892313 0.569709 0.878952 0.69207
C_ C_ 0.887307 0.840682 0.884394 0.69661
C_ C_ 0.573963 0.804523 0.600453 0.18167
C_ C_ 0.527519 0.785239 0.581594 -0.15533
C_ C_ 0.513415 0.779863 0.528252 0.02923
C_ C_ 0.54686 0.783285 0.986276 -0.15533
C_ C_ 0.596954 0.805064 0.515929 0.18167
C_ C_ 0.72343 0.767133 0.642248 0.18167
C_ C_ 0.744636 0.739089 0.684391 -0.15533
C_ C_ 0.742087 0.762072 0.734377 0.02923
C_ C_ 0.720664 0.8128 0.739758 -0.15533
C_ C_ 0.700617 0.837896 0.695072 0.18167
C_ C_ 0.746937 0.862846 0.554069 0.69207
C_ C_ 0.771404 0.875554 1.00342388 0.02923
C_ C_ 0.751431 0.8769 0.953107 -0.15533
C_ C_ 0.780047 0.888494 0.91504 -0.15533
C_ C_ 0.82927 0.903734 0.927745 0.02923
C_ C_ 0.849827 0.905254 0.978536 -0.15533
C_ C_ 0.822195 0.88898 0.0164481 0.02923
C_ C_ 0.858515 0.884598 0.580148 0.69207
C_ C_ 0.840475 0.903981 0.829965 0.69661
C_ C_ 0.813334 0.93446 0.6937 0.18167
C_ C_ 0.771171 0.963067 0.708073 -0.15533
C_ C_ 0.773595 0.00708535 0.738842 0.02923
C_ C_ 0.824942 0.505512 0.750565 -0.15533
C_ C_ 0.864435 0.99811388 0.721524 0.18167
C_ C_ 0.988867 0.864426 0.724815 0.18167
C_ C_ 0.509385 0.816528 0.736124 -0.15533
C_ C_ 0.987318 0.783041 0.760051 0.02923
C_ C_ 0.939809 0.778645 0.732715 -0.15533
C_ C_ 0.91411 0.822812 0.711373 0.18167
C_ C_ 0.989421 0.953303 0.633731 0.69207
C_ C_ 0.521723 0.50325 0.609992 0.02923
C_ C_ 0.502387 0.554805 0.605989 -0.15533
C_ C_ 0.535853 0.591435 0.601349 -0.15533
C_ C_ 0.587201 0.577341 0.593685 0.02923
C_ C_ 0.602141 0.524836 0.587169 -0.15533
C_ C_ 0.57149 0.486587 0.59474 0.02923
C_ C_ 0.594726 0.926883 0.618218 0.69207
C_ C_ 0.60692 0.672662 0.609109 0.69661
C_ C_ 0.937431 0.664464 0.95483 0.18167
C_ C_ 0.977231 0.692382 0.97624 -0.15533
C_ C_ 0.965615 0.741248 0.99831 0.02923
C_ C_ 0.927995 0.745342 0.511588 -0.15533
C_ C_ 0.876971 0.73426 0.976077 0.18167
C_ C_ 0.758122 0.700973 0.858689 0.18167
C_ C_ 0.735681 0.726703 0.815094 -0.15533
C_ C_ 0.766636 0.736301 0.778799 0.02923
C_ C_ 0.818597 0.726703 0.786789 -0.15533
C_ C_ 0.839155 0.697626 0.828146 0.18167
C_ C_ 0.767701 0.606661 0.959141 0.69207
C_ C_ 0.730019 0.622058 0.487654 0.02923
C_ C_ 0.743655 0.636213 0.540675 -0.15533
C_ C_ 0.713519 0.625103 0.577887 -0.15533
C_ C_ 0.663712 0.610874 0.565359 0.02923
C_ C_ 0.64835 0.608966 0.512603 -0.15533
C_ C_ 0.678814 0.612548 0.473936 0.02923
C_ C_ 0.653711 0.604588 0.925195 0.69207
C_ C_ 0.649637 0.603562 0.662461 0.69661
C_ C_ 0.865181 0.899243 0.884778 -0.30787
C_ C_ 0.626816 0.614981 0.606434 -0.30787
N_ N_ 0.643645 0.555537 0.802979 -0.32189
N_ N_ 0.556091 0.644763 0.814161 -0.32189
N_ N_ 0.608753 0.812681 0.568172 -0.32189
N_ N_ 0.696776 0.812495 0.650198 -0.32189
N_ N_ 0.859332 0.952411 0.699994 -0.32189
N_ N_ 0.940101 0.86217 0.703317 -0.32189
N_ N_ 0.889487 0.685835 0.95454 -0.32189
N_ N_ 0.808931 0.684191 0.862184 -0.32189
O_ O_ 1.00412563 0.586482 0.894675 -0.63271
O_ O_ 0.54546 0.532594 0.832106 -0.57982
O_ O_ 0.887128 0.593008 0.837055 -0.63271
O_ O_ 0.865206 0.586415 0.918526 -0.57982
O_ O_ 0.749133 0.88537 0.600404 -0.63271
O_ O_ 0.708227 0.835947 0.542095 -0.57982
O_ O_ 0.867386 0.842439 0.605382 -0.63271
O_ O_ 0.88306 0.924202 0.596969 -0.57982
O_ O_ 0.493115 0.913846 0.61712 -0.63271
O_ O_ 0.952856 0.965068 0.663669 -0.57982
O_ O_ 0.600136 0.905467 0.663626 -0.63271
O_ O_ 0.628824 0.908483 0.586918 -0.57982
O_ O_ 0.759368 0.584196 0.914197 -0.63271
O_ O_ 0.798925 0.642743 0.969078 -0.57982
O_ O_ 0.65246 0.647995 0.902392 -0.63271
O_ O_ 0.624599 0.569805 0.905287 -0.57982
F_ F_ 0.924596 0.8334 0.925963 -0.20885
F_ F_ 0.913926 0.828133 0.842425 -0.20885
F_ F_ 0.848017 0.808343 0.879677 -0.20885
F_ F_ 0.803079 0.945532 0.827717 -0.20885
F_ F_ 0.816886 0.86215 0.803288 -0.20885
F_ F_ 0.875314 0.914557 0.798753 -0.20885
F_ F_ 0.576677 0.680127 0.563957 -0.20885
F_ F_ 0.575823 0.687449 0.646625 -0.20885
F_ F_ 0.642315 0.706709 0.614506 -0.20885
F_ F_ 0.689958 0.56443 0.661631 -0.20885
F_ F_ 0.675311 0.642701 0.684342 -0.20885
F_ F_ 0.614356 0.592889 0.691163 -0.20885
_cell_length_a 26.508
_cell_length_b 26.37200000322088
_cell_length_c 26.311999743092066
_cell_angle_alpha 93.74100058972084
_cell_angle_beta 96.04100104955006
_cell_angle_gamma 83.6869992558723
_symmetry_space_group_name_H-M         'P 1'
_symmetry_Int_Tables_number            1
loop_
_symmetry_equiv_pos_as_xyz
   'x, y, z'
                         
loop_
_atom_site_label
_atom_site_type_symbol
_atom_site_fract_x 
_atom_site_fract_y
_atom_site_fract_z
_atom_site_charge
Zn Zn 0.0882468 0.0892943 0.350945 0.83971
Zn Zn 0.158695 0.347259 0.0796724 0.83971
Zn Zn 0.408245 0.41087 0.151125 0.83971
Zn Zn 0.342918 0.157905 0.419075 0.83971
H_ H_ 0.161967 0.131249 0.290445 0.10394
H_ H_ 0.236383 0.096475 0.251993 0.10394
H_ H_ 0.210417 0.44315 0.278295 0.10394
H_ H_ 0.146832 0.993352 0.353272 0.10394
H_ H_ 0.53458 0.10023 0.245599 0.10394
H_ H_ 0.498694 0.176391 0.203049 0.10394
H_ H_ 0.0272705 0.273159 0.328158 0.10394
H_ H_ 0.0692947 0.203355 0.374753 0.10394
H_ H_ 0.0300647 0.442847 0.363257 0.10394
H_ H_ 0.462405 0.382138 0.348378 0.10394
H_ H_ 0.345076 0.497791 0.395042 0.10394
H_ H_ 0.0785133 0.308369 0.131357 0.10394
H_ H_ 0.501931 0.26171 0.0874281 0.10394
H_ H_ 0.0514929 0.275866 0.442054 0.10394
H_ H_ 0.120434 0.318812 0.978566 0.10394
H_ H_ 0.194697 0.244056 0.0936986 0.10394
H_ H_ 0.235036 0.192398 0.16238 0.10394
H_ H_ 0.2076 0.322309 0.268532 0.10394
H_ H_ 0.182813 0.375645 0.192658 0.10394
H_ H_ 0.206275 0.381429 0.441913 0.10394
H_ H_ 0.256366 0.403119 0.375292 0.10394
H_ H_ 0.388352 0.419152 0.485692 0.10394
H_ H_ 0.30259 0.390935 0.157985 0.10394
H_ H_ 0.227541 0.443756 0.187554 0.10394
H_ H_ 0.330702 0.05038 0.274465 0.10394
H_ H_ 0.395932 0.507813 0.213123 0.10394
H_ H_ 0.0118411 0.387448 0.187902 0.10394
H_ H_ 0.053146 0.31037 0.241455 0.10394
H_ H_ 0.411961 0.249934 0.244611 0.10394
H_ H_ 0.37087 0.327032 0.203609 0.10394
H_ H_ 0.462645 0.0623728 0.125484 0.10394
H_ H_ 0.00687029 0.111958 0.105486 0.10394
H_ H_ 0.138198 0.00416133 0.0879605 0.10394
H_ H_ 0.444392 0.171323 0.389578 0.10394
H_ H_ 0.0158206 0.191769 0.434299 0.10394
H_ H_ 0.410405 0.291676 0.0186675 0.10394
H_ H_ 0.351899 0.232201 0.504121 0.10394
H_ H_ 0.24303 0.195996 0.392985 0.10394
H_ H_ 0.191841 0.22904 0.321559 0.10394
H_ H_ 0.324373 0.205541 0.235885 0.10394
H_ H_ 0.370383 0.163054 0.312283 0.10394
H_ H_ 0.279248 0.112752 0.0559929 0.10394
H_ H_ 0.225868 0.0957416 0.120023 0.10394
H_ H_ 0.0989371 0.0993254 0.00792049 0.10394
C_ C_ 0.176242 0.0929348 0.295438 0.18167
C_ C_ 0.219421 0.0734177 0.275621 -0.15533
C_ C_ 0.234067 0.0200868 0.274002 0.02923
C_ C_ 0.20284 0.483524 0.286327 -0.15533
C_ C_ 0.166792 0.0120864 0.326411 0.18167
C_ C_ 0.0307209 0.138544 0.267123 0.18167
C_ C_ 0.514429 0.179133 0.241741 -0.15533
C_ C_ 0.00514848 0.228282 0.259471 0.02923
C_ C_ 0.0281504 0.238718 0.309395 -0.15533
C_ C_ 0.0556642 0.197497 0.335437 0.18167
C_ C_ 0.013633 0.0409835 0.374944 0.69207
C_ C_ 0.472073 0.510942 0.372844 0.02923
C_ C_ 0.48346 0.458822 0.357076 -0.15533
C_ C_ 0.451568 0.421172 0.363631 -0.15533
C_ C_ 0.402447 0.434741 0.381598 0.02923
C_ C_ 0.385551 0.486278 0.392469 -0.15533
C_ C_ 0.418741 0.525228 0.384451 0.02923
C_ C_ 0.402723 0.0711204 0.393244 0.69207
C_ C_ 0.390638 0.338041 0.383646 0.69661
C_ C_ 0.073518 0.296615 0.0894257 0.18167
C_ C_ 0.0266829 0.279328 0.0715929 -0.15533
C_ C_ 0.0142542 0.272657 0.017964 0.02923
C_ C_ 0.0572076 0.278983 0.482707 -0.15533
C_ C_ 0.0944059 0.306176 0.00536575 0.18167
C_ C_ 0.201572 0.260522 0.13143 0.18167
C_ C_ 0.221844 0.231711 0.171734 -0.15533
C_ C_ 0.231638 0.254657 0.223319 0.02923
C_ C_ 0.21341 0.306013 0.229009 -0.15533
C_ C_ 0.193727 0.334357 0.186877 0.18167
C_ C_ 0.246036 0.355586 0.0437012 0.69207
C_ C_ 0.272613 0.38671 0.504574 0.02923
C_ C_ 0.248181 0.387216 0.453363 -0.15533
C_ C_ 0.274701 0.397354 0.41312 -0.15533
C_ C_ 0.330023 0.402363 0.423719 0.02923
C_ C_ 0.351137 0.408417 0.475405 -0.15533
C_ C_ 0.322654 0.403368 0.516434 0.02923
C_ C_ 0.355796 0.375572 0.0718493 0.69207
C_ C_ 0.335277 0.38836 0.324506 0.69661
C_ C_ 0.307667 0.426862 0.181098 0.18167
C_ C_ 0.266377 0.455401 0.199991 -0.15533
C_ C_ 0.273423 0.495306 0.235719 0.02923
C_ C_ 0.325021 0.016838 0.251667 -0.15533
C_ C_ 0.359875 0.490229 0.213517 0.18167
C_ C_ 0.493494 0.341809 0.189509 0.18167
C_ C_ 0.0131463 0.312363 0.22084 -0.15533
C_ C_ 0.48973 0.270912 0.239724 0.02923
C_ C_ 0.435636 0.276713 0.227875 -0.15533
C_ C_ 0.41198 0.319971 0.20434 0.18167
C_ C_ 0.48447 0.447627 0.116913 0.69207
C_ C_ 0.017301 0.982896 0.108699 0.02923
C_ C_ -0.003109999999999946 0.0324614 0.108359 -0.15533
C_ C_ 0.026808 0.0737868 0.108435 -0.15533
C_ C_ 0.0780789 0.0636199 0.099342 0.02923
C_ C_ 0.0976334 0.0127709 0.0890198 -0.15533
C_ C_ 0.0692009 0.972581 0.100345 0.02923
C_ C_ 0.102241 0.429595 0.115339 0.69207
C_ C_ 0.0889739 0.159378 0.110518 0.69661
C_ C_ 0.440093 0.189521 0.426641 0.18167
C_ C_ 0.48112 0.210251 0.451969 -0.15533
C_ C_ 0.47483 0.245899 0.492097 0.02923
C_ C_ 0.420708 0.253839 0.000417035 -0.15533
C_ C_ 0.385228 0.231884 0.484751 0.18167
C_ C_ 0.259965 0.196801 0.356157 0.18167
C_ C_ 0.232183 0.222937 0.316204 -0.15533
C_ C_ 0.255525 0.223915 0.269106 0.02923
C_ C_ 0.30646 0.202344 0.269836 -0.15533
C_ C_ 0.333383 0.182921 0.315126 0.18167
C_ C_ 0.265626 0.121476 0.45577 0.69207
C_ C_ 0.21819 0.119421 0.993607 0.02923
C_ C_ 0.238289 0.119336 0.0468339 -0.15533
C_ C_ 0.20795 0.109083 0.0834037 -0.15533
C_ C_ 0.156994 0.0988066 0.07091 0.02923
C_ C_ 0.139779 0.0959692 0.0172576 -0.15533
C_ C_ 0.167719 0.109727 0.981539 0.02923
C_ C_ 0.153729 0.108552 0.427319 0.69207
C_ C_ 0.141021 0.0971767 0.166787 0.69661
C_ C_ 0.363251 0.393096 0.379297 -0.30787
C_ C_ 0.115911 0.103568 0.111297 -0.30787
N_ N_ 0.147745 0.0604446 0.31648 -0.32189
N_ N_ 0.0581946 0.1481 0.313436 -0.32189
N_ N_ 0.102902 0.314075 0.0574851 -0.32189
N_ N_ 0.189569 0.312323 0.13823 -0.32189
N_ N_ 0.354039 0.443398 0.188603 -0.32189
N_ N_ 0.440541 0.351013 0.184674 -0.32189
N_ N_ 0.391957 0.202333 0.440641 -0.32189
N_ N_ 0.309649 0.181071 0.356624 -0.32189
O_ O_ 0.505388 0.0897475 0.391377 -0.63271
O_ O_ 0.0497583 0.0339322 0.342359 -0.57982
O_ O_ 0.400929 0.0929644 0.347964 -0.63271
O_ O_ 0.377803 0.09535 0.429606 -0.57982
O_ O_ 0.244976 0.390298 0.0817875 -0.63271
O_ O_ 0.203226 0.332821 0.0321625 -0.57982
O_ O_ 0.350793 0.345699 0.107487 -0.63271
O_ O_ 0.37957 0.415591 0.0875568 -0.57982
O_ O_ 0.993 0.411041 0.0914062 -0.63271
O_ O_ 0.452951 0.45786 0.15302 -0.57982
O_ O_ 0.0938053 0.404062 0.155425 -0.63271
O_ O_ 0.134359 0.410098 0.0841009 -0.57982
O_ O_ 0.263203 0.093604 0.408893 -0.63271
O_ O_ 0.302 0.150839 0.467561 -0.57982
O_ O_ 0.157679 0.148066 0.401916 -0.63271
O_ O_ 0.114076 0.0847375 0.414758 -0.57982
F_ F_ 0.430696 0.33889 0.420865 -0.20885
F_ F_ 0.411931 0.315474 0.342607 -0.20885
F_ F_ 0.35995 0.301293 0.395491 -0.20885
F_ F_ 0.303815 0.433303 0.318365 -0.20885
F_ F_ 0.30491 0.34968 0.31787 -0.20885
F_ F_ 0.367835 0.386978 0.286502 -0.20885
F_ F_ 0.0555658 0.166402 0.0660002 -0.20885
F_ F_ 0.0619462 0.174509 0.152031 -0.20885
F_ F_ 0.124712 0.194433 0.107018 -0.20885
F_ F_ 0.174565 0.0530602 0.171117 -0.20885
F_ F_ 0.165374 0.139028 0.181243 -0.20885
F_ F_ 0.103173 0.0942092 0.199904 -0.20885
Zn Zn 0.0830149 0.0820351 0.845715 0.83971
Zn Zn 0.164061 0.344092 0.586822 0.83971
Zn Zn 0.410634 0.427413 0.649932 0.83971
Zn Zn 0.339435 0.147844 0.913521 0.83971
H_ H_ 0.161658 0.128857 0.803688 0.10394
H_ H_ 0.239528 0.0972695 0.766339 0.10394
H_ H_ 0.206839 0.445887 0.784378 0.10394
H_ H_ 0.135158 0.981413 0.83285 0.10394
H_ H_ 0.521973 0.104989 0.753766 0.10394
H_ H_ 0.484405 0.173913 0.701608 0.10394
H_ H_ 0.0368948 0.269303 0.824813 0.10394
H_ H_ 0.0676773 0.193176 0.87622 0.10394
H_ H_ 0.0356061 0.443542 0.872265 0.10394
H_ H_ 0.489217 0.37104 0.881351 0.10394
H_ H_ 0.358212 0.482719 0.896318 0.10394
H_ H_ 0.0808094 0.299548 0.628966 0.10394
H_ H_ 0.49884 0.270892 0.592402 0.10394
H_ H_ 0.0464484 0.273327 0.943834 0.10394
H_ H_ 0.127481 0.312457 0.482241 0.10394
H_ H_ 0.217675 0.242392 0.598648 0.10394
H_ H_ 0.249374 0.194777 0.672728 0.10394
H_ H_ 0.210555 0.326583 0.772949 0.10394
H_ H_ 0.174599 0.373459 0.699003 0.10394
H_ H_ 0.230679 0.334109 0.940857 0.10394
H_ H_ 0.278981 0.351519 0.876449 0.10394
H_ H_ 0.400106 0.392719 0.987996 0.10394
H_ H_ 0.309405 0.40157 0.66983 0.10394
H_ H_ 0.239099 0.446704 0.705516 0.10394
H_ H_ 0.329994 0.0471254 0.787412 0.10394
H_ H_ 0.400006 0.520623 0.722975 0.10394
H_ H_ 0.0058113 0.387422 0.701449 0.10394
H_ H_ 0.053203 0.307683 0.736811 0.10394
H_ H_ 0.402791 0.261564 0.71962 0.10394
H_ H_ 0.371439 0.340276 0.679974 0.10394
H_ H_ 0.46321 0.0576285 0.613069 0.10394
H_ H_ 0.0187845 0.117884 0.620755 0.10394
H_ H_ 0.132009 0.00538112 0.57164 0.10394
H_ H_ 0.444453 0.156629 0.890995 0.10394
H_ H_ 0.0060669 0.202478 0.934821 0.10394
H_ H_ 0.424128 0.284296 0.545698 0.10394
H_ H_ 0.343218 0.234369 -0.009630999999999945 0.10394
H_ H_ 0.232331 0.19528 0.885664 0.10394
H_ H_ 0.192437 0.243481 0.819584 0.10394
H_ H_ 0.332875 0.234902 0.749881 0.10394
H_ H_ 0.373558 0.182806 0.822 0.10394
H_ H_ 0.289047 0.115857 0.558901 0.10394
H_ H_ 0.230938 0.101318 0.62216 0.10394
H_ H_ 0.10497 0.0946236 0.505678 0.10394
C_ C_ 0.171518 0.087624 0.800304 0.18167
C_ C_ 0.218328 0.0691761 0.782055 -0.15533
C_ C_ 0.236316 0.0167896 0.781442 0.02923
C_ C_ 0.199628 0.488638 0.78795 -0.15533
C_ C_ 0.15936 0.00384228 0.817138 0.18167
C_ C_ 0.02798 0.129116 0.769715 0.18167
C_ C_ 0.503046 0.182911 0.739747 -0.15533
C_ C_ 0.0100885 0.220282 0.758208 0.02923
C_ C_ 0.0350255 0.229099 0.808392 -0.15533
C_ C_ 0.0609211 0.188851 0.836267 0.18167
C_ C_ -0.0005119999999999569 0.0552215 0.864724 0.69207
C_ C_ 0.478171 0.49809 0.875234 0.02923
C_ C_ 0.497336 0.447566 0.871704 -0.15533
C_ C_ 0.468604 0.410033 0.880044 -0.15533
C_ C_ 0.416409 0.420574 0.888909 0.02923
C_ C_ 0.395799 0.472721 0.889662 -0.15533
C_ C_ 0.428314 0.510203 0.890179 0.02923
C_ C_ 0.396333 0.0697186 0.888624 0.69207
C_ C_ 0.407757 0.325222 0.874358 0.69661
C_ C_ 0.0722261 0.299669 0.58753 0.18167
C_ C_ 0.0281224 0.27949 0.567863 -0.15533
C_ C_ 0.0207683 0.265913 0.515216 0.02923
C_ C_ 0.0518474 0.283656 0.985271 -0.15533
C_ C_ 0.0994796 0.300521 0.504793 0.18167
C_ C_ 0.215788 0.26292 0.636723 0.18167
C_ C_ 0.232789 0.235252 0.678938 -0.15533
C_ C_ 0.235792 0.260699 0.727828 0.02923
C_ C_ 0.218897 0.31267 0.735296 -0.15533
C_ C_ 0.202848 0.338768 0.691227 0.18167
C_ C_ 0.246697 0.365368 0.547264 0.69207
C_ C_ 0.283427 0.360244 0.00427882 0.02923
C_ C_ 0.266373 0.351516 0.953191 -0.15533
C_ C_ 0.294687 0.360801 0.915498 -0.15533
C_ C_ 0.343845 0.376739 0.925793 0.02923
C_ C_ 0.365491 0.377059 0.977696 -0.15533
C_ C_ 0.334903 0.369408 0.0175456 0.02923
C_ C_ 0.349326 0.40057 0.569298 0.69207
C_ C_ 0.344881 0.387376 0.827724 0.69661
C_ C_ 0.313166 0.440048 0.68665 0.18167
C_ C_ 0.273861 0.462909 0.710212 -0.15533
C_ C_ 0.278218 0.505269 0.742776 0.02923
C_ C_ 0.325747 0.0139438 0.7615 -0.15533
C_ C_ 0.364231 0.502349 0.723228 0.18167
C_ C_ 0.494075 0.356668 0.69167 0.18167
C_ C_ 0.0137124 0.30993 0.724739 -0.15533
C_ C_ 0.480666 0.280124 0.730594 0.02923
C_ C_ 0.428198 0.291608 0.719339 -0.15533
C_ C_ 0.409716 0.337369 0.695241 0.18167
C_ C_ 0.485507 0.466205 0.621105 0.69207
C_ C_ 0.024424 0.991117 0.622736 0.02923
C_ C_ 0.00665111 0.0418473 0.628227 -0.15533
C_ C_ 0.0373097 0.0797094 0.618694 -0.15533
C_ C_ 0.0863325 0.0667361 0.603531 0.02923
C_ C_ 0.10063 0.0146957 0.592218 -0.15533
C_ C_ 0.0727657 0.976615 0.604327 0.02923
C_ C_ 0.100663 0.421075 0.611384 0.69207
C_ C_ 0.103106 0.15807 0.60799 0.69661
C_ C_ 0.438552 0.176893 0.926456 0.18167
C_ C_ 0.480127 0.200407 0.952113 -0.15533
C_ C_ 0.471738 0.238984 0.989965 0.02923
C_ C_ 0.426812 0.25673 0.510485 -0.15533
C_ C_ 0.380966 0.225582 0.977987 0.18167
C_ C_ 0.254365 0.19605 0.85174 0.18167
C_ C_ 0.231247 0.225068 0.813798 -0.15533
C_ C_ 0.2586 0.23355 0.773408 0.02923
C_ C_ 0.310671 0.218062 0.776364 -0.15533
C_ C_ 0.334065 0.18971 0.81621 0.18167
C_ C_ 0.256077 0.123814 0.954459 0.69207
C_ C_ 0.230799 0.111873 0.494241 0.02923
C_ C_ 0.248927 0.107853 0.545321 -0.15533
C_ C_ 0.215376 0.101929 0.582839 -0.15533
C_ C_ 0.164137 0.0988454 0.570105 0.02923
C_ C_ 0.146388 0.0981299 0.518685 -0.15533
C_ C_ 0.177426 0.107998 0.48125 0.02923
C_ C_ 0.142228 0.112498 0.927402 0.69207
C_ C_ 0.151959 0.097731 0.668736 0.69661
C_ C_ 0.379 0.3784 0.879302 -0.30787
C_ C_ 0.126526 0.103221 0.612868 -0.30787
N_ N_ 0.140939 0.0535592 0.809958 -0.32189
N_ N_ 0.0585853 0.141069 0.812487 -0.32189
N_ N_ 0.10818 0.30809 0.556469 -0.32189
N_ N_ 0.198716 0.313064 0.64391 -0.32189
N_ N_ 0.360065 0.458309 0.694631 -0.32189
N_ N_ 0.443795 0.367178 0.680965 -0.32189
N_ N_ 0.389567 0.19293 0.938257 -0.32189
N_ N_ 0.304406 0.177365 0.852416 -0.32189
O_ O_ 0.508798 0.0877858 0.903602 -0.63271
O_ O_ 0.0352495 0.0418765 0.834312 -0.57982
O_ O_ 0.392638 0.0952366 0.847652 -0.63271
O_ O_ 0.371612 0.0862797 0.927428 -0.57982
O_ O_ 0.24975 0.388781 0.592825 -0.63271
O_ O_ 0.207153 0.339664 0.535034 -0.57982
O_ O_ 0.358784 0.353909 0.58813 -0.63271
O_ O_ 0.379523 0.435137 0.587874 -0.57982
O_ O_ 0.987994 0.40759 0.60056 -0.63271
O_ O_ 0.456649 0.474783 0.659686 -0.57982
O_ O_ 0.091571 0.392069 0.648354 -0.63271
O_ O_ 0.137091 0.406865 0.583096 -0.57982
O_ O_ 0.250437 0.104819 0.908599 -0.63271
O_ O_ 0.295491 0.15094 0.965838 -0.57982
O_ O_ 0.148306 0.147745 0.896451 -0.63271
O_ O_ 0.109725 0.0785037 0.910416 -0.57982
F_ F_ 0.442971 0.309851 0.915432 -0.20885
F_ F_ 0.433033 0.319453 0.831558 -0.20885
F_ F_ 0.375189 0.287801 0.866212 -0.20885
F_ F_ 0.306067 0.427807 0.832397 -0.20885
F_ F_ 0.319852 0.349493 0.799628 -0.20885
F_ F_ 0.374204 0.40471 0.791929 -0.20885
F_ F_ 0.0668627 0.162148 0.56601 -0.20885
F_ F_ 0.0767579 0.176923 0.650026 -0.20885
F_ F_ 0.136864 0.19546 0.599979 -0.20885
F_ F_ 0.181306 0.0519108 0.669454 -0.20885
F_ F_ 0.178589 0.140033 0.681755 -0.20885
F_ F_ 0.115923 0.0995796 0.703122 -0.20885
Zn Zn 0.0944353 0.583905 0.352837 0.83971
Zn Zn 0.154971 0.840192 0.0792155 0.83971
Zn Zn 0.411093 0.917935 0.161392 0.83971
Zn Zn 0.34053 0.660601 0.420887 0.83971
H_ H_ 0.170684 0.632179 0.305165 0.10394
H_ H_ 0.248251 0.597569 0.258857 0.10394
H_ H_ 0.224902 0.950175 0.30678 0.10394
H_ H_ 0.135929 0.481407 0.327416 0.10394
H_ H_ 0.531062 0.600599 0.257273 0.10394
H_ H_ 0.501967 0.674822 0.207235 0.10394
H_ H_ 0.0336002 0.769404 0.341241 0.10394
H_ H_ 0.0819165 0.696612 0.38827 0.10394
H_ H_ 0.0322654 0.937289 0.364549 0.10394
H_ H_ 0.490172 0.873493 0.390513 0.10394
H_ H_ 0.361146 0.990163 0.415534 0.10394
H_ H_ 0.0816709 0.798185 0.130976 0.10394
H_ H_ 0.492923 0.770343 0.0949343 0.10394
H_ H_ 0.0397083 0.781058 0.44652 0.10394
H_ H_ 0.101806 0.832036 0.983514 0.10394
H_ H_ 0.246593 0.766506 0.10388 0.10394
H_ H_ 0.267077 0.711831 0.179191 0.10394
H_ H_ 0.196547 0.830524 0.271825 0.10394
H_ H_ 0.165956 0.877971 0.190916 0.10394
H_ H_ 0.216081 0.880434 0.44747 0.10394
H_ H_ 0.274533 0.891821 0.382661 0.10394
H_ H_ 0.39861 0.896473 0.491653 0.10394
H_ H_ 0.311292 0.887541 0.172511 0.10394
H_ H_ 0.233095 0.938996 0.204104 0.10394
H_ H_ 0.327656 0.544863 0.27053 0.10394
H_ H_ 0.403065 0.00855741 0.232867 0.10394
H_ H_ 0.00739516 0.890387 0.210538 0.10394
H_ H_ 0.0549321 0.817499 0.256417 0.10394
H_ H_ 0.407549 0.751422 0.238828 0.10394
H_ H_ 0.370188 0.832079 0.191419 0.10394
H_ H_ 0.458104 0.547896 0.109807 0.10394
H_ H_ 0.0266418 0.619812 0.089205 0.10394
H_ H_ 0.150393 0.505191 0.0879392 0.10394
H_ H_ 0.445621 0.648212 0.427707 0.10394
H_ H_ 0.0240809 0.685436 0.448332 0.10394
H_ H_ 0.410876 0.779976 0.0377783 0.10394
H_ H_ 0.341233 0.757758 0.501958 0.10394
H_ H_ 0.233354 0.675819 0.37684 0.10394
H_ H_ 0.190843 0.729551 0.308692 0.10394
H_ H_ 0.334881 0.761494 0.267102 0.10394
H_ H_ 0.375604 0.711026 0.336127 0.10394
H_ H_ 0.289329 0.617156 0.0514622 0.10394
H_ H_ 0.235947 0.621634 0.122408 0.10394
H_ H_ 0.108318 0.600493 0.00940294 0.10394
C_ C_ 0.181464 0.590765 0.297906 0.18167
C_ C_ 0.219931 0.571466 0.268947 -0.15533
C_ C_ 0.23084 0.51777 0.264699 0.02923
C_ C_ 0.2074 0.989136 0.300835 -0.15533
C_ C_ 0.157884 0.503506 0.306968 0.18167
C_ C_ 0.0425693 0.633818 0.275368 0.18167
C_ C_ 0.509619 0.678989 0.250436 -0.15533
C_ C_ 0.0208941 0.725311 0.271458 0.02923
C_ C_ 0.0394253 0.731146 0.322447 -0.15533
C_ C_ 0.0631139 0.690477 0.348713 0.18167
C_ C_ 0.010217 0.544732 0.368523 0.69207
C_ C_ 0.479394 0.00479919 0.385284 0.02923
C_ C_ 0.497226 0.952449 0.37389 -0.15533
C_ C_ 0.472044 0.915012 0.391837 -0.15533
C_ C_ 0.420711 0.926428 0.401628 0.02923
C_ C_ 0.401123 0.979806 0.407553 -0.15533
C_ C_ 0.429656 0.0184236 0.399075 0.02923
C_ C_ 0.396879 0.578828 0.390665 0.69207
C_ C_ 0.403992 0.83196 0.391312 0.69661
C_ C_ 0.0699626 0.792945 0.0907144 0.18167
C_ C_ 0.0227107 0.776515 0.0745227 -0.15533
C_ C_ 0.00803881 0.771668 0.0207795 0.02923
C_ C_ 0.048672 0.786037 0.487825 -0.15533
C_ C_ 0.0866431 0.806892 0.005984 0.18167
C_ C_ 0.225605 0.7749 0.139852 0.18167
C_ C_ 0.244972 0.748762 0.182848 -0.15533
C_ C_ 0.230832 0.766846 0.230094 0.02923
C_ C_ 0.200872 0.814646 0.233816 -0.15533
C_ C_ 0.178796 0.838264 0.188031 0.18167
C_ C_ 0.237356 0.868064 0.0491261 0.69207
C_ C_ 0.276801 0.88261 0.511315 0.02923
C_ C_ 0.257446 0.885407 0.456928 -0.15533
C_ C_ 0.289715 0.892877 0.419874 -0.15533
C_ C_ 0.3407 0.897111 0.43233 0.02923
C_ C_ 0.35809 0.900907 0.484551 -0.15533
C_ C_ 0.327904 0.894975 0.524013 0.02923
C_ C_ 0.351708 0.883464 0.0774873 0.69207
C_ C_ 0.356095 0.896257 0.337508 0.69661
C_ C_ 0.314933 0.926434 0.194667 0.18167
C_ C_ 0.271496 0.952843 0.215799 -0.15533
C_ C_ 0.276198 0.997555 0.244513 0.02923
C_ C_ 0.320832 0.514546 0.242879 -0.15533
C_ C_ 0.366173 0.993231 0.229353 0.18167
C_ C_ 0.495449 0.85089 0.206665 0.18167
C_ C_ 0.0165132 0.815092 0.23873 -0.15533
C_ C_ 0.483139 0.772367 0.246104 0.02923
C_ C_ 0.430876 0.780366 0.230106 -0.15533
C_ C_ 0.410753 0.826201 0.207013 0.18167
C_ C_ 0.486823 0.957231 0.13061 0.69207
C_ C_ 0.0252021 0.495806 0.113676 0.02923
C_ C_ 0.0064825 0.548586 0.109415 -0.15533
C_ C_ 0.0409959 0.582648 0.0962583 -0.15533
C_ C_ 0.0920086 0.569001 0.096453 0.02923
C_ C_ 0.11057 0.516462 0.098466 -0.15533
C_ C_ 0.0770266 0.481339 0.109486 0.02923
C_ C_ 0.0970414 0.920669 0.101993 0.69207
C_ C_ 0.108916 0.666772 0.122718 0.69661
C_ C_ 0.440078 0.682225 0.452389 0.18167
C_ C_ 0.481007 0.709599 0.472582 -0.15533
C_ C_ 0.471176 0.750826 0.508136 0.02923
C_ C_ 0.421006 0.749114 0.0102835 -0.15533
C_ C_ 0.381394 0.740161 0.493578 0.18167
C_ C_ 0.254926 0.699015 0.356313 0.18167
C_ C_ 0.231872 0.727385 0.315764 -0.15533
C_ C_ 0.258616 0.741994 0.27689 0.02923
C_ C_ 0.311835 0.738408 0.288099 -0.15533
C_ C_ 0.336007 0.714166 0.331769 0.18167
C_ C_ 0.268936 0.622461 0.463358 0.69207
C_ C_ 0.231442 0.61219 0.990621 0.02923
C_ C_ 0.248898 0.6196 0.0424952 -0.15533
C_ C_ 0.218173 0.61638 0.0827676 -0.15533
C_ C_ 0.166171 0.608145 0.0713637 0.02923
C_ C_ 0.146925 0.606892 0.019047 -0.15533
C_ C_ 0.180762 0.603975 0.980366 0.02923
C_ C_ 0.154356 0.603696 0.434281 0.69207
C_ C_ 0.159834 0.593003 0.165592 0.69661
C_ C_ 0.380951 0.888686 0.391328 -0.30787
C_ C_ 0.130691 0.608623 0.113537 -0.30787
N_ N_ 0.149219 0.557296 0.31195 -0.32189
N_ N_ 0.0635234 0.642725 0.324391 -0.32189
N_ N_ 0.101777 0.804113 0.0558947 -0.32189
N_ N_ 0.188333 0.814212 0.141849 -0.32189
N_ N_ 0.358669 0.949626 0.200267 -0.32189
N_ N_ 0.444279 0.857923 0.192179 -0.32189
N_ N_ 0.391036 0.699449 0.462052 -0.32189
N_ N_ 0.306346 0.691839 0.362015 -0.32189
O_ O_ 0.504259 0.592563 0.382701 -0.63271
O_ O_ 0.043627 0.538162 0.337565 -0.57982
O_ O_ 0.402174 0.609466 0.353797 -0.63271
O_ O_ 0.367809 0.594077 0.425119 -0.57982
O_ O_ 0.244262 0.882272 0.0970638 -0.63271
O_ O_ 0.201222 0.838119 0.0352185 -0.57982
O_ O_ 0.365384 0.838481 0.0961195 -0.63271
O_ O_ 0.375233 0.92381 0.097507 -0.57982
O_ O_ 0.986783 0.897174 0.091295 -0.63271
O_ O_ 0.462448 0.963771 0.171818 -0.57982
O_ O_ 0.0927601 0.890177 0.138019 -0.63271
O_ O_ 0.131191 0.907398 0.071131 -0.57982
O_ O_ 0.270884 0.594226 0.421522 -0.63271
O_ O_ 0.296687 0.66039 0.466921 -0.57982
O_ O_ 0.159342 0.642311 0.407146 -0.63271
O_ O_ 0.121392 0.572915 0.417014 -0.57982
F_ F_ 0.434129 0.821801 0.43639 -0.20885
F_ F_ 0.433264 0.816932 0.349598 -0.20885
F_ F_ 0.368041 0.795319 0.387624 -0.20885
F_ F_ 0.323655 0.940901 0.334385 -0.20885
F_ F_ 0.325431 0.857892 0.322011 -0.20885
F_ F_ 0.392149 0.896071 0.303593 -0.20885
F_ F_ 0.0875042 0.68254 0.0763837 -0.20885
F_ F_ 0.0718792 0.676429 0.156925 -0.20885
F_ F_ 0.145784 0.698811 0.138547 -0.20885
F_ F_ 0.197528 0.550953 0.159168 -0.20885
F_ F_ 0.189509 0.630319 0.192051 -0.20885
F_ F_ 0.125867 0.582095 0.195628 -0.20885
Zn Zn 0.0891931 0.585046 0.852836 0.83971
Zn Zn 0.162656 0.84823 0.585748 0.83971
Zn Zn 0.409007 0.923557 0.659884 0.83971
Zn Zn 0.346046 0.643381 0.911172 0.83971
H_ H_ 0.173902 0.632919 0.818836 0.10394
H_ H_ 0.249118 0.600755 0.772153 0.10394
H_ H_ 0.213658 0.942384 0.796876 0.10394
H_ H_ 0.125224 0.484812 0.817325 0.10394
H_ H_ 0.535259 0.610098 0.742449 0.10394
H_ H_ 0.494473 0.686828 0.706586 0.10394
H_ H_ 0.0421566 0.779176 0.854197 0.10394
H_ H_ 0.0719744 0.69805 0.899892 0.10394
H_ H_ 0.0253165 0.952421 0.870658 0.10394
H_ H_ 0.490975 0.878616 0.890738 0.10394
H_ H_ 0.356628 0.983954 0.90558 0.10394
H_ H_ 0.0804045 0.805007 0.631404 0.10394
H_ H_ 0.503402 0.772361 0.60758 0.10394
H_ H_ 0.025187 0.791113 0.94394 0.10394
H_ H_ 0.117656 0.820793 0.485109 0.10394
H_ H_ 0.217811 0.759491 0.597017 0.10394
H_ H_ 0.258923 0.709559 0.670968 0.10394
H_ H_ 0.205035 0.830552 0.779007 0.10394
H_ H_ 0.174522 0.880396 0.701162 0.10394
H_ H_ 0.218385 0.870308 0.945696 0.10394
H_ H_ 0.276666 0.883163 0.882382 0.10394
H_ H_ 0.397633 0.89847 0.994154 0.10394
H_ H_ 0.305793 0.910879 0.656484 0.10394
H_ H_ 0.236443 0.944671 0.703261 0.10394
H_ H_ 0.330877 0.558231 0.7759 0.10394
H_ H_ 0.403535 0.00121493 0.745245 0.10394
H_ H_ 0.00816179 0.897894 0.716482 0.10394
H_ H_ 0.0491463 0.830195 0.777963 0.10394
H_ H_ 0.401473 0.756618 0.73748 0.10394
H_ H_ 0.366211 0.832086 0.689043 0.10394
H_ H_ 0.46063 0.568456 0.595121 0.10394
H_ H_ 0.0203866 0.615707 0.612113 0.10394
H_ H_ 0.145207 0.503091 0.58824 0.10394
H_ H_ 0.450093 0.655327 0.900575 0.10394
H_ H_ 0.0171368 0.676384 0.976061 0.10394
H_ H_ 0.416022 0.78306 0.554991 0.10394
H_ H_ 0.342879 0.736666 -0.012498000000000009 0.10394
H_ H_ 0.238197 0.697152 0.888999 0.10394
H_ H_ 0.199374 0.745874 0.819411 0.10394
H_ H_ 0.331386 0.708101 0.737983 0.10394
H_ H_ 0.378313 0.672794 0.818821 0.10394
H_ H_ 0.292397 0.619702 0.561281 0.10394
H_ H_ 0.238236 0.606311 0.628111 0.10394
H_ H_ 0.110041 0.589121 0.514742 0.10394
C_ C_ 0.18087 0.592357 0.809326 0.18167
C_ C_ 0.224363 0.572511 0.786862 -0.15533
C_ C_ 0.235486 0.522615 0.776175 0.02923
C_ C_ 0.206348 0.98234 0.79861 -0.15533
C_ C_ 0.156066 0.509216 0.812527 0.18167
C_ C_ 0.0390806 0.645232 0.784934 0.18167
C_ C_ 0.515007 0.690516 0.743499 -0.15533
C_ C_ 0.012875 0.736969 0.786177 0.02923
C_ C_ 0.036272 0.740983 0.836764 -0.15533
C_ C_ 0.0603685 0.695811 0.85979 0.18167
C_ C_ 0.00632811 0.544629 0.864405 0.69207
C_ C_ 0.473791 0.0075653 0.873541 0.02923
C_ C_ 0.494984 0.95619 0.872268 -0.15533
C_ C_ 0.469723 0.915371 0.886578 -0.15533
C_ C_ 0.418172 0.924569 0.898455 0.02923
C_ C_ 0.396455 0.975971 0.897701 -0.15533
C_ C_ 0.423164 0.017695 0.889625 0.02923
C_ C_ 0.404999 0.563273 0.889124 0.69207
C_ C_ 0.406623 0.827023 0.889088 0.69661
C_ C_ 0.0725534 0.798434 0.591055 0.18167
C_ C_ 0.0252234 0.782894 0.571143 -0.15533
C_ C_ 0.0180397 0.767569 0.519495 0.02923
C_ C_ 0.0387504 0.789665 0.985243 -0.15533
C_ C_ 0.0958327 0.80432 0.50957 0.18167
C_ C_ 0.216931 0.772918 0.637931 0.18167
C_ C_ 0.238783 0.745552 0.679485 -0.15533
C_ C_ 0.232484 0.762611 0.730454 0.02923
C_ C_ 0.208099 0.813085 0.738148 -0.15533
C_ C_ 0.190163 0.840809 0.695692 0.18167
C_ C_ 0.240961 0.877281 0.547241 0.69207
C_ C_ 0.274769 0.875693 0.00920263 0.02923
C_ C_ 0.259082 0.873934 0.958037 -0.15533
C_ C_ 0.292624 0.881546 0.920405 -0.15533
C_ C_ 0.342823 0.887321 0.934054 0.02923
C_ C_ 0.35868 0.893223 0.986476 -0.15533
C_ C_ 0.325473 0.884776 0.0246177 0.02923
C_ C_ 0.356119 0.891028 0.574029 0.69207
C_ C_ 0.35594 0.887668 0.835269 0.69661
C_ C_ 0.311378 0.941577 0.683201 0.18167
C_ C_ 0.270026 0.962984 0.708126 -0.15533
C_ C_ 0.276189 0.999331 0.748477 0.02923
C_ C_ 0.325206 0.525026 0.749474 -0.15533
C_ C_ 0.364796 0.991254 0.735713 0.18167
C_ C_ 0.487385 0.860978 0.714296 0.18167
C_ C_ 0.0126166 0.827559 0.757832 -0.15533
C_ C_ 0.479398 0.78279 0.750723 0.02923
C_ C_ 0.427593 0.784574 0.730874 -0.15533
C_ C_ 0.407173 0.828173 0.7025 0.18167
C_ C_ 0.486534 0.960769 0.634429 0.69207
C_ C_ 0.0241372 0.488989 0.614739 0.02923
C_ C_ 1.00606442 0.541022 0.615092 -0.15533
C_ C_ 0.0383499 0.577865 0.614339 -0.15533
C_ C_ 0.0906408 0.565082 0.609228 0.02923
C_ C_ 0.107851 0.512432 0.600072 -0.15533
C_ C_ 0.0750933 0.474516 0.604786 0.02923
C_ C_ 0.0966557 0.922933 0.604974 0.69207
C_ C_ 0.10636 0.660119 0.616122 0.69661
C_ C_ 0.44139 0.675761 0.93289 0.18167
C_ C_ 0.479639 0.702784 0.959499 -0.15533
C_ C_ 0.470982 0.740338 -0.0016159999999999508 0.02923
C_ C_ 0.422287 0.762386 0.520972 -0.15533
C_ C_ 0.381163 0.724114 0.98257 0.18167
C_ C_ 0.260971 0.702618 0.858936 0.18167
C_ C_ 0.237103 0.72699 0.816962 -0.15533
C_ C_ 0.26016 0.733819 0.77382 0.02923
C_ C_ 0.31114 0.710493 0.77124 -0.15533
C_ C_ 0.336983 0.687806 0.815241 0.18167
C_ C_ 0.267807 0.61834 0.950361 0.69207
C_ C_ 0.231986 0.615408 0.499608 0.02923
C_ C_ 0.252225 0.613499 0.550947 -0.15533
C_ C_ 0.219821 0.609956 0.58962 -0.15533
C_ C_ 0.171527 0.598098 0.57865 0.02923
C_ C_ 0.153017 0.591708 0.525964 -0.15533
C_ C_ 0.182159 0.600366 0.485237 0.02923
C_ C_ 0.154516 0.604572 0.927029 0.69207
C_ C_ 0.15523 0.595897 0.671374 0.69661
C_ C_ 0.380394 0.883763 0.89211 -0.30787
C_ C_ 0.130017 0.603397 0.616914 -0.30787
N_ N_ 0.145524 0.56091 0.817904 -0.32189
N_ N_ 0.0599884 0.650759 0.833651 -0.32189
N_ N_ 0.107889 0.808347 0.56018 -0.32189
N_ N_ 0.192092 0.818667 0.646079 -0.32189
N_ N_ 0.358473 0.951661 0.701951 -0.32189
N_ N_ 0.437852 0.864871 0.695181 -0.32189
N_ N_ 0.39229 0.684948 0.947162 -0.32189
N_ N_ 0.310497 0.681768 0.855518 -0.32189
O_ O_ 0.512503 0.581564 0.892226 -0.63271
O_ O_ 0.0438763 0.537 0.837048 -0.57982
O_ O_ 0.401236 0.589341 0.847557 -0.63271
O_ O_ 0.37627 0.581017 0.924406 -0.57982
O_ O_ 0.236719 0.908456 0.586051 -0.63271
O_ O_ 0.208404 0.842733 0.538215 -0.57982
O_ O_ 0.358004 0.849847 0.598695 -0.63271
O_ O_ 0.386502 0.926352 0.592927 -0.57982
O_ O_ 0.991253 0.909557 0.609188 -0.63271
O_ O_ 0.450355 0.974234 0.662765 -0.57982
O_ O_ 0.0980011 0.89672 0.644796 -0.63271
O_ O_ 0.128582 0.906808 0.573625 -0.57982
O_ O_ 0.270772 0.586983 0.909943 -0.63271
O_ O_ 0.301765 0.650692 0.958732 -0.57982
O_ O_ 0.158466 0.645734 0.903703 -0.63271
O_ O_ 0.116474 0.577919 0.91479 -0.57982
F_ F_ 0.440076 0.818885 0.932218 -0.20885
F_ F_ 0.433095 0.812985 0.848409 -0.20885
F_ F_ 0.371485 0.791271 0.889144 -0.20885
F_ F_ 0.32284 0.931023 0.833009 -0.20885
F_ F_ 0.325989 0.850256 0.819351 -0.20885
F_ F_ 0.389553 0.885988 0.7986 -0.20885
F_ F_ 0.074965 0.670641 0.573227 -0.20885
F_ F_ 0.0782172 0.674039 0.656402 -0.20885
F_ F_ 0.14039 0.694912 0.621818 -0.20885
F_ F_ 0.185579 0.552265 0.67405 -0.20885
F_ F_ 0.182709 0.636896 0.690431 -0.20885
F_ F_ 0.121076 0.592768 0.708013 -0.20885
Zn Zn 0.594566 0.0811767 0.348124 0.83971
Zn Zn 0.661615 0.345172 0.0800987 0.83971
Zn Zn 0.907358 0.421695 0.14669 0.83971
Zn Zn 0.840285 0.150369 0.415488 0.83971
H_ H_ 0.677945 0.120582 0.325503 0.10394
H_ H_ 0.749013 0.0897301 0.275677 0.10394
H_ H_ 0.707964 0.455435 0.261151 0.10394
H_ H_ 0.634501 0.972991 0.318432 0.10394
H_ H_ 0.0287762 0.103589 0.25094 0.10394
H_ H_ 0.986276 0.17397 0.203728 0.10394
H_ H_ 0.546868 0.266584 0.333549 0.10394
H_ H_ 0.579545 0.188399 0.378911 0.10394
H_ H_ 0.517127 0.451118 0.336957 0.10394
H_ H_ 0.973307 0.379345 0.366411 0.10394
H_ H_ 0.852991 0.494006 0.401514 0.10394
H_ H_ 0.576565 0.304422 0.120607 0.10394
H_ H_ 1.00164 0.264238 0.0984819 0.10394
H_ H_ 0.549498 0.274891 0.446134 0.10394
H_ H_ 0.620832 0.316454 0.973843 0.10394
H_ H_ 0.713124 0.244689 0.0977018 0.10394
H_ H_ 0.756811 0.200546 0.17497 0.10394
H_ H_ 0.706616 0.332227 0.26433 0.10394
H_ H_ 0.675314 0.376115 0.189444 0.10394
H_ H_ 0.707713 0.396957 0.447126 0.10394
H_ H_ 0.758821 0.397562 0.373118 0.10394
H_ H_ 0.896782 0.392381 0.477989 0.10394
H_ H_ 0.806825 0.405018 0.155909 0.10394
H_ H_ 0.729594 0.456247 0.179395 0.10394
H_ H_ 0.835182 0.0222025 0.293488 0.10394
H_ H_ 0.905201 0.502662 0.241014 0.10394
H_ H_ 0.51697 0.369393 0.17826 0.10394
H_ H_ 0.559812 0.299846 0.226324 0.10394
H_ H_ 0.915942 0.238729 0.195601 0.10394
H_ H_ 0.870843 0.317958 0.166051 0.10394
H_ H_ 0.957478 0.0411979 0.114399 0.10394
H_ H_ 0.519711 0.124823 0.113754 0.10394
H_ H_ 0.639756 0.00564836 0.086212 0.10394
H_ H_ 0.938247 0.15733 0.395701 0.10394
H_ H_ 0.517174 0.189247 0.448507 0.10394
H_ H_ 0.913001 0.286105 0.0445652 0.10394
H_ H_ 0.849038 0.233207 0.508461 0.10394
H_ H_ 0.732267 0.194527 0.38737 0.10394
H_ H_ 0.690237 0.235604 0.309655 0.10394
H_ H_ 0.838487 0.226907 0.250278 0.10394
H_ H_ 0.875259 0.185925 0.326485 0.10394
H_ H_ 0.785317 0.106986 0.0518424 0.10394
H_ H_ 0.730259 0.0995774 0.117694 0.10394
H_ H_ 0.606926 0.0921694 0.00429448 0.10394
C_ C_ 0.684549 0.0804229 0.313516 0.18167
C_ C_ 0.726538 0.0619937 0.286319 -0.15533
C_ C_ 0.736757 0.0129326 0.273817 0.02923
C_ C_ 0.699218 0.495876 0.271163 -0.15533
C_ C_ 0.662141 -0.0020980000000000443 0.315679 0.18167
C_ C_ 0.533678 0.134716 0.266023 0.18167
C_ C_ 0.00649549 0.179249 0.239199 -0.15533
C_ C_ 0.510986 0.226735 0.268832 0.02923
C_ C_ 0.542501 0.230112 0.315369 -0.15533
C_ C_ 0.561034 0.185489 0.340719 0.18167
C_ C_ 0.515835 0.0415381 0.377514 0.69207
C_ C_ 0.97307 0.506435 0.368189 0.02923
C_ C_ 0.991753 0.455892 0.367287 -0.15533
C_ C_ 0.957437 0.417988 0.370067 -0.15533
C_ C_ 0.906141 0.43038 0.381491 0.02923
C_ C_ 0.890559 0.482588 0.388224 -0.15533
C_ C_ 0.92137 0.521149 0.379635 0.02923
C_ C_ 0.895802 0.0656088 0.381642 0.69207
C_ C_ 0.892173 0.335444 0.373557 0.69661
C_ C_ 0.570104 0.295712 0.0815365 0.18167
C_ C_ 0.528343 0.271669 0.0624731 -0.15533
C_ C_ 0.514866 0.266815 0.00999034 0.02923
C_ C_ 0.553294 0.285893 0.485422 -0.15533
C_ C_ 0.59404 0.30389 -0.002139000000000002 0.18167
C_ C_ 0.718587 0.263775 0.134449 0.18167
C_ C_ 0.740894 0.239953 0.177889 -0.15533
C_ C_ 0.737498 0.265562 0.226111 0.02923
C_ C_ 0.710091 0.312786 0.228883 -0.15533
C_ C_ 0.692543 0.337847 0.18443 0.18167
C_ C_ 0.739483 0.382037 0.0390245 0.69207
C_ C_ 0.772567 0.385629 0.500947 0.02923
C_ C_ 0.74899 0.39094 0.450955 -0.15533
C_ C_ 0.778187 0.395213 0.410575 -0.15533
C_ C_ 0.831194 0.39296 0.418114 0.02923
C_ C_ 0.854718 0.391136 0.470101 -0.15533
C_ C_ 0.8276 0.385762 0.509622 0.02923
C_ C_ 0.848977 0.393679 0.0624081 0.69207
C_ C_ 0.836985 0.395967 0.31817 0.69661
C_ C_ 0.811666 0.438181 0.180954 0.18167
C_ C_ 0.768104 0.468676 0.193502 -0.15533
C_ C_ 0.776973 0.508125 0.23162 0.02923
C_ C_ 0.829008 0.00525643 0.25495 -0.15533
C_ C_ 0.866049 0.49528 0.223685 0.18167
C_ C_ 0.988132 0.356673 0.195993 0.18167
C_ C_ 0.51847 0.30424 0.218968 -0.15533
C_ C_ 0.986085 0.269242 0.224508 0.02923
C_ C_ 0.933898 0.271691 0.203928 -0.15533
C_ C_ 0.910501 0.316444 0.176658 0.18167
C_ C_ 0.988798 0.457496 0.118886 0.69207
C_ C_ 0.519673 0.996782 0.1205 0.02923
C_ C_ 0.501724 0.0499003 0.121308 -0.15533
C_ C_ 0.533497 0.0848812 0.108754 -0.15533
C_ C_ 0.585685 0.0690346 0.102204 0.02923
C_ C_ 0.603222 0.0185399 0.102099 -0.15533
C_ C_ 0.572121 0.980773 0.112094 0.02923
C_ C_ 0.592675 0.417715 0.0990922 0.69207
C_ C_ 0.603973 0.170278 0.10781 0.69661
C_ C_ 0.936006 0.182782 0.429651 0.18167
C_ C_ 0.979977 0.204258 0.448921 -0.15533
C_ C_ 0.975446 0.242109 0.488993 0.02923
C_ C_ 0.920863 0.254712 0.0174029 -0.15533
C_ C_ 0.884778 0.227804 0.490457 0.18167
C_ C_ 0.754737 0.19662 0.354832 0.18167
C_ C_ 0.730284 0.225653 0.310602 -0.15533
C_ C_ 0.760846 0.240833 0.27412 0.02923
C_ C_ 0.812633 0.22296 0.279031 -0.15533
C_ C_ 0.834518 0.197461 0.321621 0.18167
C_ C_ 0.769617 0.112445 0.45829 0.69207
C_ C_ 0.72606 0.112329 0.990149 0.02923
C_ C_ 0.744889 0.111478 0.0432181 -0.15533
C_ C_ 0.71429 0.105612 0.081458 -0.15533
C_ C_ 0.662311 0.100451 0.0684766 0.02923
C_ C_ 0.644736 0.101494 0.0151653 -0.15533
C_ C_ 0.675915 0.103173 0.976677 0.02923
C_ C_ 0.652296 0.107951 0.434032 0.69207
C_ C_ 0.648139 0.100567 0.167361 0.69661
C_ C_ 0.865508 0.391432 0.37404 -0.30787
C_ C_ 0.624479 0.110287 0.110952 -0.30787
N_ N_ 0.650964 0.0479527 0.320855 -0.32189
N_ N_ 0.558034 0.139695 0.315453 -0.32189
N_ N_ 0.603514 0.308639 0.0492899 -0.32189
N_ N_ 0.697058 0.314338 0.138424 -0.32189
N_ N_ 0.858389 0.455819 0.188059 -0.32189
N_ N_ 0.936171 0.359332 0.176377 -0.32189
N_ N_ 0.890743 0.19296 0.451683 -0.32189
N_ N_ 0.806208 0.18404 0.35762 -0.32189
O_ O_ 0.00345408 0.0878617 0.39695 -0.63271
O_ O_ 0.556093 0.028879 0.352861 -0.57982
O_ O_ 0.894623 0.0908786 0.339779 -0.63271
O_ O_ 0.873901 0.0880575 0.421077 -0.57982
O_ O_ 0.742112 0.409083 0.0820949 -0.63271
O_ O_ 0.708457 0.344733 0.0343924 -0.57982
O_ O_ 0.849944 0.350513 0.0845198 -0.63271
O_ O_ 0.8735 0.432207 0.0840169 -0.57982
O_ O_ 0.488834 0.402091 0.0955012 -0.63271
O_ O_ 0.95675 0.465631 0.15468 -0.57982
O_ O_ 0.594026 0.393019 0.141567 -0.63271
O_ O_ 0.630123 0.40565 0.070413 -0.57982
O_ O_ 0.761823 0.0942075 0.412021 -0.63271
O_ O_ 0.799741 0.147059 0.466508 -0.57982
O_ O_ 0.660682 0.149153 0.411065 -0.63271
O_ O_ 0.616094 0.0798159 0.414681 -0.57982
F_ F_ 0.932476 0.331523 0.409828 -0.20885
F_ F_ 0.914303 0.314409 0.331298 -0.20885
F_ F_ 0.857647 0.298879 0.382813 -0.20885
F_ F_ 0.807024 0.44267 0.317983 -0.20885
F_ F_ 0.805467 0.355176 0.301303 -0.20885
F_ F_ 0.872814 0.394948 0.282499 -0.20885
F_ F_ 0.572365 0.176607 0.0648156 -0.20885
F_ F_ 0.578262 0.189143 0.148356 -0.20885
F_ F_ 0.640508 0.20208 0.103221 -0.20885
F_ F_ 0.684816 0.0592935 0.176956 -0.20885
F_ F_ 0.666306 0.144162 0.18719 -0.20885
F_ F_ 0.609407 0.0978206 0.198193 -0.20885
Zn Zn 0.584046 0.0904199 0.845279 0.83971
Zn Zn 0.658131 0.353281 0.581709 0.83971
Zn Zn 0.910705 0.414967 0.648974 0.83971
Zn Zn 0.83324 0.16843 0.913107 0.83971
H_ H_ 0.667281 0.144377 0.809029 0.10394
H_ H_ 0.75059 0.107054 0.777254 0.10394
H_ H_ 0.696596 0.445642 0.753217 0.10394
H_ H_ 0.631265 0.993653 0.826949 0.10394
H_ H_ 0.0259045 0.0894597 0.755044 0.10394
H_ H_ 0.991974 0.164617 0.699266 0.10394
H_ H_ 0.523805 0.280722 0.826042 0.10394
H_ H_ 0.571527 0.207083 0.872017 0.10394
H_ H_ 0.536335 0.437704 0.864359 0.10394
H_ H_ 0.981717 0.374077 0.881917 0.10394
H_ H_ 0.8472 0.479581 0.874576 0.10394
H_ H_ 0.573563 0.309993 0.630244 0.10394
H_ H_ 0.00127242 0.270109 0.592894 0.10394
H_ H_ 0.538431 0.275351 0.93572 0.10394
H_ H_ 0.62691 0.317759 0.484132 0.10394
H_ H_ 0.721965 0.256929 0.595765 0.10394
H_ H_ 0.762896 0.215672 0.672699 0.10394
H_ H_ 0.698065 0.343559 0.767086 0.10394
H_ H_ 0.66876 0.386996 0.682564 0.10394
H_ H_ 0.714451 0.365812 0.938849 0.10394
H_ H_ 0.764864 0.378192 0.869264 0.10394
H_ H_ 0.889525 0.421704 0.978324 0.10394
H_ H_ 0.801926 0.397697 0.646392 0.10394
H_ H_ 0.729979 0.45533 0.668512 0.10394
H_ H_ 0.832239 0.0546328 0.77714 0.10394
H_ H_ 0.904306 0.48178 0.743609 0.10394
H_ H_ 0.518693 0.385515 0.683744 0.10394
H_ H_ 0.554756 0.303044 0.726824 0.10394
H_ H_ 0.913018 0.236264 0.70794 0.10394
H_ H_ 0.87178 0.317595 0.67473 0.10394
H_ H_ 0.97805 0.0542512 0.65276 0.10394
H_ H_ 0.523256 0.120619 0.603833 0.10394
H_ H_ 0.645344 0.00396272 0.602081 0.10394
H_ H_ 0.930851 0.171457 0.89383 0.10394
H_ H_ 0.516 0.18225 0.953406 0.10394
H_ H_ 0.921071 0.286114 0.538819 0.10394
H_ H_ 0.840849 0.249982 0.000875152 0.10394
H_ H_ 0.727677 0.188824 0.87524 0.10394
H_ H_ 0.684645 0.235012 0.800995 0.10394
H_ H_ 0.830299 0.242818 0.746057 0.10394
H_ H_ 0.871476 0.192882 0.813522 0.10394
H_ H_ 0.794613 0.0890913 0.556871 0.10394
H_ H_ 0.738588 0.096247 0.62747 0.10394
H_ H_ 0.612235 0.0789326 0.513222 0.10394
C_ C_ 0.676058 0.102181 0.804427 0.18167
C_ C_ 0.7206 0.0827923 0.783518 -0.15533
C_ C_ 0.730599 0.0302831 0.771605 0.02923
C_ C_ 0.694484 0.484782 0.766167 -0.15533
C_ C_ 0.655317 0.0178058 0.811764 0.18167
C_ C_ 0.526346 0.143212 0.767711 0.18167
C_ C_ 0.00763785 0.1699 0.739652 -0.15533
C_ C_ 0.49866 0.234269 0.762205 0.02923
C_ C_ 0.525596 0.242572 0.809628 -0.15533
C_ C_ 0.553213 0.200729 0.834662 0.18167
C_ C_ 0.50532 0.0500225 0.867236 0.69207
C_ C_ 0.970965 0.503671 0.867433 0.02923
C_ C_ 0.992206 0.450596 0.863034 -0.15533
C_ C_ 0.962693 0.412101 0.876396 -0.15533
C_ C_ 0.911038 0.425038 0.884761 0.02923
C_ C_ 0.889663 0.473819 0.878426 -0.15533
C_ C_ 0.91943 0.515674 0.878757 0.02923
C_ C_ 0.887822 0.0834825 0.881695 0.69207
C_ C_ 0.901054 0.327379 0.891058 0.69661
C_ C_ 0.567674 0.306341 0.588877 0.18167
C_ C_ 0.529163 0.278219 0.568589 -0.15533
C_ C_ 0.520298 0.269486 0.516676 0.02923
C_ C_ 0.546574 0.28542 0.977811 -0.15533
C_ C_ 0.595886 0.30805 0.506436 0.18167
C_ C_ 0.712926 0.272913 0.63203 0.18167
C_ C_ 0.735502 0.249196 0.674662 -0.15533
C_ C_ 0.72895 0.272784 0.722642 0.02923
C_ C_ 0.70008 0.321213 0.728262 -0.15533
C_ C_ 0.680632 0.345415 0.683718 0.18167
C_ C_ 0.738515 0.374836 0.54289 0.69207
C_ C_ 0.771747 0.391812 0.99811 0.02923
C_ C_ 0.753429 0.38031 0.94673 -0.15533
C_ C_ 0.78296 0.38576 0.907746 -0.15533
C_ C_ 0.834266 0.395503 0.919486 0.02923
C_ C_ 0.852258 0.407353 0.969272 -0.15533
C_ C_ 0.821992 0.399692 0.00943088 0.02923
C_ C_ 0.851807 0.383826 0.56246 0.69207
C_ C_ 0.848599 0.379135 0.823959 0.69661
C_ C_ 0.80828 0.432252 0.671657 0.18167
C_ C_ 0.766253 0.460412 0.690018 -0.15533
C_ C_ 0.773601 0.498469 0.730806 0.02923
C_ C_ 0.823188 0.0267627 0.744567 -0.15533
C_ C_ 0.864784 0.475624 0.728958 0.18167
C_ C_ 0.990263 0.350908 0.697863 0.18167
C_ C_ 0.514833 0.311934 0.717143 -0.15533
C_ C_ 0.986455 0.2664 0.728559 0.02923
C_ C_ 0.934944 0.268273 0.707678 -0.15533
C_ C_ 0.913352 0.313045 0.683607 0.18167
C_ C_ 0.990003 0.450525 0.628499 0.69207
C_ C_ 0.52186 0.99674 0.625567 0.02923
C_ C_ 0.504085 0.0471756 0.618382 -0.15533
C_ C_ 0.537527 0.0822769 0.608417 -0.15533
C_ C_ 0.591355 0.0671559 0.603949 0.02923
C_ C_ 0.60547 0.0147748 0.602037 -0.15533
C_ C_ 0.572321 0.979843 0.61286 0.02923
C_ C_ 0.594718 0.433259 0.598276 0.69207
C_ C_ 0.605466 0.162256 0.605485 0.69661
C_ C_ 0.929383 0.194507 0.928449 0.18167
C_ C_ 0.972547 0.212464 0.95391 -0.15533
C_ C_ 0.969694 0.244796 -0.002487000000000017 0.02923
C_ C_ 0.926218 0.256175 0.508014 -0.15533
C_ C_ 0.878502 0.233189 0.991117 0.18167
C_ C_ 0.750559 0.203237 0.846684 0.18167
C_ C_ 0.726678 0.230635 0.806146 -0.15533
C_ C_ 0.755973 0.24898 0.771233 0.02923
C_ C_ 0.807908 0.231352 0.773988 -0.15533
C_ C_ 0.830185 0.201974 0.812779 0.18167
C_ C_ 0.760023 0.123655 0.951618 0.69207
C_ C_ 0.734374 0.102777 0.498171 0.02923
C_ C_ 0.755461 0.0973627 0.549453 -0.15533
C_ C_ 0.722004 0.0985645 0.588599 -0.15533
C_ C_ 0.669953 0.091949 0.57341 0.02923
C_ C_ 0.651522 0.0873038 0.522288 -0.15533
C_ C_ 0.680599 0.0979432 0.484759 0.02923
C_ C_ 0.650532 0.109765 0.92421 0.69207
C_ C_ 0.650166 0.106935 0.669949 0.69661
C_ C_ 0.874924 0.381694 0.880877 -0.30787
C_ C_ 0.630527 0.107382 0.611694 -0.30787
N_ N_ 0.639965 0.0690644 0.808695 -0.32189
N_ N_ 0.548615 0.151671 0.815554 -0.32189
N_ N_ 0.602748 0.318789 0.558194 -0.32189
N_ N_ 0.68695 0.319581 0.637736 -0.32189
N_ N_ 0.856755 0.443925 0.687219 -0.32189
N_ N_ 0.941833 0.351883 0.675361 -0.32189
N_ N_ 0.882277 0.208597 0.945239 -0.32189
N_ N_ 0.802579 0.192016 0.85103 -0.32189
O_ O_ 0.000139984 0.0988848 0.892343 -0.63271
O_ O_ 0.540096 0.0426216 0.83667 -0.57982
O_ O_ 0.880117 0.10555 0.838003 -0.63271
O_ O_ 0.865871 0.106679 0.920849 -0.57982
O_ O_ 0.735383 0.409377 0.58045 -0.63271
O_ O_ 0.703219 0.342794 0.534602 -0.57982
O_ O_ 0.852525 0.34249 0.586554 -0.63271
O_ O_ 0.880491 0.418675 0.581612 -0.57982
O_ O_ 0.488029 0.422079 0.596261 -0.63271
O_ O_ 0.952429 0.462949 0.655996 -0.57982
O_ O_ 0.588034 0.403649 0.637049 -0.63271
O_ O_ 0.63269 0.418747 0.573995 -0.57982
O_ O_ 0.756861 0.102312 0.905369 -0.63271
O_ O_ 0.790339 0.161216 0.962723 -0.57982
O_ O_ 0.643626 0.154457 0.902307 -0.63271
O_ O_ 0.619359 0.0766767 0.905007 -0.57982
F_ F_ 0.934195 0.331052 0.934126 -0.20885
F_ F_ 0.930903 0.30109 0.852359 -0.20885
F_ F_ 0.863451 0.296625 0.901524 -0.20885
F_ F_ 0.812645 0.419275 0.813729 -0.20885
F_ F_ 0.826128 0.333972 0.812599 -0.20885
F_ F_ 0.885698 0.376711 0.788912 -0.20885
F_ F_ 0.572083 0.161264 0.560442 -0.20885
F_ F_ 0.579737 0.18367 0.644182 -0.20885
F_ F_ 0.645264 0.193616 0.600477 -0.20885
F_ F_ 0.680001 0.0628705 0.676547 -0.20885
F_ F_ 0.678604 0.14597 0.683782 -0.20885
F_ F_ 0.61106 0.106527 0.69975 -0.20885
Zn Zn 0.589647 0.583519 0.346587 0.83971
Zn Zn 0.656088 0.847282 0.0815477 0.83971
Zn Zn 0.906334 0.908403 0.152578 0.83971
Zn Zn 0.842139 0.656428 0.404544 0.83971
H_ H_ 0.666225 0.640497 0.307455 0.10394
H_ H_ 0.748819 0.609141 0.261869 0.10394
H_ H_ 0.714661 0.936328 0.286409 0.10394
H_ H_ 0.641346 0.486571 0.319712 0.10394
H_ H_ 0.0428647 0.594274 0.262254 0.10394
H_ H_ 1.00589 0.671949 0.206678 0.10394
H_ H_ 0.526981 0.773752 0.347047 0.10394
H_ H_ 0.569949 0.693762 0.390333 0.10394
H_ H_ 0.537303 0.941435 0.371513 0.10394
H_ H_ 0.976238 0.872269 0.368333 0.10394
H_ H_ 0.857607 0.982578 0.411244 0.10394
H_ H_ 0.576801 0.813373 0.131544 0.10394
H_ H_ 0.997154 0.769397 0.100291 0.10394
H_ H_ 0.54316 0.785808 0.455212 0.10394
H_ H_ 0.61738 0.811078 0.982883 0.10394
H_ H_ 0.714022 0.747981 0.0926905 0.10394
H_ H_ 0.75714 0.701996 0.17008 0.10394
H_ H_ 0.722742 0.835363 0.264901 0.10394
H_ H_ 0.67357 0.874383 0.191155 0.10394
H_ H_ 0.717403 0.866994 0.453309 0.10394
H_ H_ 0.771407 0.867159 0.38661 0.10394
H_ H_ 0.897795 0.903503 0.490216 0.10394
H_ H_ 0.806211 0.891198 0.16376 0.10394
H_ H_ 0.730103 0.943252 0.194739 0.10394
H_ H_ 0.831426 0.548905 0.277225 0.10394
H_ H_ 0.906885 0.98408 0.235957 0.10394
H_ H_ 0.519646 0.874034 0.194379 0.10394
H_ H_ 0.556459 0.807936 0.247008 0.10394
H_ H_ 0.927163 0.733825 0.219405 0.10394
H_ H_ 0.881079 0.804692 0.170737 0.10394
H_ H_ 0.967685 0.564336 0.11609 0.10394
H_ H_ 0.510714 0.611587 0.0980313 0.10394
H_ H_ 0.639814 0.500374 0.0931562 0.10394
H_ H_ 0.951484 0.656131 0.394161 0.10394
H_ H_ 0.518022 0.690642 0.469828 0.10394
H_ H_ 0.904602 0.799926 0.0189549 0.10394
H_ H_ 0.845824 0.735888 0.488464 0.10394
H_ H_ 0.741515 0.675725 0.367204 0.10394
H_ H_ 0.698882 0.721627 0.296138 0.10394
H_ H_ 0.839535 0.732403 0.234072 0.10394
H_ H_ 0.884783 0.687098 0.312032 0.10394
H_ H_ 0.785725 0.602779 0.0609 0.10394
H_ H_ 0.725224 0.584588 0.117011 0.10394
H_ H_ 0.59892 0.594979 0.00182618 0.10394
C_ C_ 0.674169 0.600947 0.292167 0.18167
C_ C_ 0.719316 0.583501 0.266948 -0.15533
C_ C_ 0.734136 0.530299 0.260939 0.02923
C_ C_ 0.706556 0.977792 0.293386 -0.15533
C_ C_ 0.661233 0.51372 0.303071 0.18167
C_ C_ 0.529525 0.637287 0.278172 0.18167
C_ C_ 0.0182092 0.676797 0.248042 -0.15533
C_ C_ 0.506116 0.729146 0.275719 0.02923
C_ C_ 0.528656 0.733857 0.327092 -0.15533
C_ C_ 0.554793 0.690824 0.350784 0.18167
C_ C_ 0.507965 0.547712 0.361002 0.69207
C_ C_ 0.976597 0.00248626 0.378394 0.02923
C_ C_ -0.00723600000000002 0.948525 0.373481 -0.15533
C_ C_ 0.960573 0.911211 0.377633 -0.15533
C_ C_ 0.910751 0.922435 0.392161 0.02923
C_ C_ 0.893451 0.972317 0.39642 -0.15533
C_ C_ 0.922891 0.0132486 0.3873 0.02923
C_ C_ 0.89672 0.573187 0.378879 0.69207
C_ C_ 0.896761 0.825129 0.389217 0.69661
C_ C_ 0.568267 0.800339 0.091108 0.18167
C_ C_ 0.521498 0.781063 0.071497 -0.15533
C_ C_ 0.51102 0.774002 0.0180891 0.02923
C_ C_ 0.55028 0.78886 0.496303 -0.15533
C_ C_ 0.59126 0.804933 0.00691585 0.18167
C_ C_ 0.714589 0.764831 0.131284 0.18167
C_ C_ 0.739847 0.740395 0.172119 -0.15533
C_ C_ 0.740852 0.765312 0.219875 0.02923
C_ C_ 0.720904 0.814936 0.226496 -0.15533
C_ C_ 0.692522 0.838218 0.183912 0.18167
C_ C_ 0.735268 0.869496 0.0442161 0.69207
C_ C_ 0.781012 0.869387 0.514392 0.02923
C_ C_ 0.759444 0.870454 0.464353 -0.15533
C_ C_ 0.789503 0.870607 0.424049 -0.15533
C_ C_ 0.838101 0.884378 0.432919 0.02923
C_ C_ 0.860521 0.892048 0.485176 -0.15533
C_ C_ 0.831791 0.881971 0.52531 0.02923
C_ C_ 0.848843 0.881243 0.0684394 0.69207
C_ C_ 0.844226 0.888909 0.331605 0.69661
C_ C_ 0.808905 0.927671 0.180089 0.18167
C_ C_ 0.768421 0.955451 0.20303 -0.15533
C_ C_ 0.77816 0.994305 0.240748 0.02923
C_ C_ 0.824856 0.523763 0.24616 -0.15533
C_ C_ 0.867107 0.979503 0.227358 0.18167
C_ C_ 0.990468 0.854468 0.210068 0.18167
C_ C_ 0.515619 0.807773 0.233655 -0.15533
C_ C_ 0.992463 0.77043 0.243837 0.02923
C_ C_ 0.945019 0.767404 0.216252 -0.15533
C_ C_ 0.920243 0.808225 0.18971 0.18167
C_ C_ 0.985132 0.942688 0.117819 0.69207
C_ C_ 0.516479 0.484506 0.103252 0.02923
C_ C_ 0.496679 0.535612 0.100734 -0.15533
C_ C_ 0.528137 0.57484 0.101676 -0.15533
C_ C_ 0.580531 0.561792 0.0954278 0.02923
C_ C_ 0.600389 0.509399 0.091133 -0.15533
C_ C_ 0.567152 0.471476 0.0937077 0.02923
C_ C_ 0.594074 0.927571 0.113769 0.69207
C_ C_ 0.591204 0.656859 0.102421 0.69661
C_ C_ 0.944678 0.681405 0.426121 0.18167
C_ C_ 0.986069 0.699106 0.456223 -0.15533
C_ C_ 0.978662 0.733885 0.497508 0.02923
C_ C_ 0.913964 0.76228 0.998695 -0.15533
C_ C_ 0.88553 0.722235 0.482758 0.18167
C_ C_ 0.762701 0.692374 0.338592 0.18167
C_ C_ 0.740422 0.724115 0.301687 -0.15533
C_ C_ 0.766555 0.737492 0.262793 0.02923
C_ C_ 0.8191 0.72455 0.266597 -0.15533
C_ C_ 0.842915 0.695621 0.307126 0.18167
C_ C_ 0.768682 0.622244 0.451175 0.69207
C_ C_ 0.727807 0.60287 0.994223 0.02923
C_ C_ 0.7452 0.59805 0.0459901 -0.15533
C_ C_ 0.70995 0.595613 0.0807541 -0.15533
C_ C_ 0.656795 0.594631 0.0662335 0.02923
C_ C_ 0.640492 0.594618 0.0144246 -0.15533
C_ C_ 0.675017 0.600462 0.978313 0.02923
C_ C_ 0.657326 0.608176 0.421357 0.69207
C_ C_ 0.643399 0.599612 0.161433 0.69661
C_ C_ 0.874105 0.883348 0.388294 -0.30787
C_ C_ 0.617548 0.602137 0.105374 -0.30787
N_ N_ 0.645568 0.564225 0.308334 -0.32189
N_ N_ 0.556643 0.643514 0.324321 -0.32189
N_ N_ 0.600183 0.812644 0.0577565 -0.32189
N_ N_ 0.689076 0.813122 0.138406 -0.32189
N_ N_ 0.855578 0.945572 0.187823 -0.32189
N_ N_ 0.942962 0.851096 0.185913 -0.32189
N_ N_ 0.896349 0.691969 0.440706 -0.32189
N_ N_ 0.814296 0.681805 0.34343 -0.32189
O_ O_ 0.00974882 0.581577 0.405493 -0.63271
O_ O_ 0.548753 0.533181 0.337817 -0.57982
O_ O_ 0.891261 0.59398 0.33649 -0.63271
O_ O_ 0.869755 0.590918 0.415417 -0.57982
O_ O_ 0.73894 0.896054 0.0885449 -0.63271
O_ O_ 0.701461 0.837018 0.0340399 -0.57982
O_ O_ 0.845147 0.839255 0.0919335 -0.63271
O_ O_ 0.887436 0.905957 0.084698 -0.57982
O_ O_ 0.482224 0.91634 0.100993 -0.63271
O_ O_ 0.951605 0.953657 0.150358 -0.57982
O_ O_ 0.591521 0.900027 0.152029 -0.63271
O_ O_ 0.629727 0.912798 0.0847765 -0.57982
O_ O_ 0.764527 0.591392 0.409364 -0.63271
O_ O_ 0.797727 0.658648 0.456191 -0.57982
O_ O_ 0.653891 0.648611 0.395536 -0.63271
O_ O_ 0.624631 0.573615 0.405798 -0.57982
F_ F_ 0.935139 0.817877 0.42861 -0.20885
F_ F_ 0.915664 0.809344 0.344065 -0.20885
F_ F_ 0.861976 0.791321 0.397121 -0.20885
F_ F_ 0.805004 0.929052 0.334827 -0.20885
F_ F_ 0.81988 0.846576 0.311272 -0.20885
F_ F_ 0.87594 0.89931 0.296109 -0.20885
F_ F_ 0.559332 0.66623 0.0571792 -0.20885
F_ F_ 0.557876 0.673834 0.140503 -0.20885
F_ F_ 0.628096 0.687845 0.108162 -0.20885
F_ F_ 0.669526 0.552922 0.165742 -0.20885
F_ F_ 0.675916 0.637023 0.173832 -0.20885
F_ F_ 0.603426 0.606774 0.192494 -0.20885
Zn Zn 0.589959 0.582024 0.840824 0.83971
Zn Zn 0.664858 0.847948 0.592292 0.83971
Zn Zn 0.910687 0.917613 0.662848 0.83971
Zn Zn 0.840411 0.65098 0.920968 0.83971
H_ H_ 0.66822 0.630616 0.794483 0.10394
H_ H_ 0.743163 0.601145 0.765072 0.10394
H_ H_ 0.713463 0.957466 0.791434 0.10394
H_ H_ 0.62138 0.478905 0.794292 0.10394
H_ H_ 0.0306412 0.608212 0.764952 0.10394
H_ H_ 0.99795189 0.684235 0.720489 0.10394
H_ H_ 0.527718 0.771176 0.847823 0.10394
H_ H_ 0.565325 0.68705 0.884759 0.10394
H_ H_ 0.534806 0.949354 0.869176 0.10394
H_ H_ 0.973345 0.888717 0.886409 0.10394
H_ H_ 0.84436 1.00199881 0.904337 0.10394
H_ H_ 0.57989 0.812502 0.640658 0.10394
H_ H_ -0.001974999999999949 0.771444 0.594619 0.10394
H_ H_ 0.540296 0.775235 0.944343 0.10394
H_ H_ 0.619431 0.820655 0.488728 0.10394
H_ H_ 0.724321 0.749202 0.601463 0.10394
H_ H_ 0.7649 0.699915 0.679598 0.10394
H_ H_ 0.718913 0.830339 0.776939 0.10394
H_ H_ 0.685464 0.876194 0.698241 0.10394
H_ H_ 0.714326 0.86276 0.943756 0.10394
H_ H_ 0.766441 0.882948 0.875861 0.10394
H_ H_ 0.886302 0.912218 0.987901 0.10394
H_ H_ 0.808807 0.898868 0.670583 0.10394
H_ H_ 0.735776 0.947882 0.699852 0.10394
H_ H_ 0.833637 0.534782 0.777401 0.10394
H_ H_ 0.895532 1.0179402 0.711708 0.10394
H_ H_ 0.509286 0.892252 0.711321 0.10394
H_ H_ 0.549999 0.812303 0.750498 0.10394
H_ H_ 0.925877 0.742178 0.727399 0.10394
H_ H_ 0.875616 0.824359 0.695554 0.10394
H_ H_ 0.965885 0.551939 0.619717 0.10394
H_ H_ 0.517735 0.630652 0.607588 0.10394
H_ H_ 0.641124 0.513649 0.576822 0.10394
H_ H_ 0.94657 0.624232 0.944755 0.10394
H_ H_ 0.518971 0.693135 0.951842 0.10394
H_ H_ 0.919306 0.775426 0.536963 0.10394
H_ H_ 0.836788 0.748361 0.976796 0.10394
H_ H_ 0.736474 0.689845 0.891308 0.10394
H_ H_ 0.697215 0.74094 0.813924 0.10394
H_ H_ 0.845232 0.743206 0.764053 0.10394
H_ H_ 0.881835 0.690037 0.836761 0.10394
H_ H_ 0.782437 0.644154 0.550795 0.10394
H_ H_ 0.727222 0.630745 0.617715 0.10394
H_ H_ 0.606206 0.607168 0.5028 0.10394
C_ C_ 0.6767 0.587794 0.795584 0.18167
C_ C_ 0.721243 0.571185 0.773027 -0.15533
C_ C_ 0.731624 0.518029 0.76038 0.02923
C_ C_ 0.700785 0.997405 0.791022 -0.15533
C_ C_ 0.650704 0.506244 0.787261 0.18167
C_ C_ 0.536396 0.646099 0.765216 0.18167
C_ C_ 0.0150759 0.688457 0.760299 -0.15533
C_ C_ 0.506398 0.734745 0.773629 0.02923
C_ C_ 0.524966 0.734719 0.825286 -0.15533
C_ C_ 0.550707 0.687961 0.845405 0.18167
C_ C_ 0.510733 0.539015 0.863358 0.69207
C_ C_ 0.966203 0.0168176 0.879151 0.02923
C_ C_ -0.014334999999999987 0.965218 0.878839 -0.15533
C_ C_ 0.95557 0.927581 0.88426 -0.15533
C_ C_ 0.903801 0.940115 0.891314 0.02923
C_ C_ 0.886436 0.991662 0.89671 -0.15533
C_ C_ 0.913181 0.0300483 0.88446 0.02923
C_ C_ 0.892313 0.569709 0.878952 0.69207
C_ C_ 0.887307 0.840682 0.884394 0.69661
C_ C_ 0.573963 0.804523 0.600453 0.18167
C_ C_ 0.527519 0.785239 0.581594 -0.15533
C_ C_ 0.513415 0.779863 0.528252 0.02923
C_ C_ 0.54686 0.783285 0.986276 -0.15533
C_ C_ 0.596954 0.805064 0.515929 0.18167
C_ C_ 0.72343 0.767133 0.642248 0.18167
C_ C_ 0.744636 0.739089 0.684391 -0.15533
C_ C_ 0.742087 0.762072 0.734377 0.02923
C_ C_ 0.720664 0.8128 0.739758 -0.15533
C_ C_ 0.700617 0.837896 0.695072 0.18167
C_ C_ 0.746937 0.862846 0.554069 0.69207
C_ C_ 0.771404 0.875554 1.00342388 0.02923
C_ C_ 0.751431 0.8769 0.953107 -0.15533
C_ C_ 0.780047 0.888494 0.91504 -0.15533
C_ C_ 0.82927 0.903734 0.927745 0.02923
C_ C_ 0.849827 0.905254 0.978536 -0.15533
C_ C_ 0.822195 0.88898 0.0164481 0.02923
C_ C_ 0.858515 0.884598 0.580148 0.69207
C_ C_ 0.840475 0.903981 0.829965 0.69661
C_ C_ 0.813334 0.93446 0.6937 0.18167
C_ C_ 0.771171 0.963067 0.708073 -0.15533
C_ C_ 0.773595 0.00708535 0.738842 0.02923
C_ C_ 0.824942 0.505512 0.750565 -0.15533
C_ C_ 0.864435 0.99811388 0.721524 0.18167
C_ C_ 0.988867 0.864426 0.724815 0.18167
C_ C_ 0.509385 0.816528 0.736124 -0.15533
C_ C_ 0.987318 0.783041 0.760051 0.02923
C_ C_ 0.939809 0.778645 0.732715 -0.15533
C_ C_ 0.91411 0.822812 0.711373 0.18167
C_ C_ 0.989421 0.953303 0.633731 0.69207
C_ C_ 0.521723 0.50325 0.609992 0.02923
C_ C_ 0.502387 0.554805 0.605989 -0.15533
C_ C_ 0.535853 0.591435 0.601349 -0.15533
C_ C_ 0.587201 0.577341 0.593685 0.02923
C_ C_ 0.602141 0.524836 0.587169 -0.15533
C_ C_ 0.57149 0.486587 0.59474 0.02923
C_ C_ 0.594726 0.926883 0.618218 0.69207
C_ C_ 0.60692 0.672662 0.609109 0.69661
C_ C_ 0.937431 0.664464 0.95483 0.18167
C_ C_ 0.977231 0.692382 0.97624 -0.15533
C_ C_ 0.965615 0.741248 0.99831 0.02923
C_ C_ 0.927995 0.745342 0.511588 -0.15533
C_ C_ 0.876971 0.73426 0.976077 0.18167
C_ C_ 0.758122 0.700973 0.858689 0.18167
C_ C_ 0.735681 0.726703 0.815094 -0.15533
C_ C_ 0.766636 0.736301 0.778799 0.02923
C_ C_ 0.818597 0.726703 0.786789 -0.15533
C_ C_ 0.839155 0.697626 0.828146 0.18167
C_ C_ 0.767701 0.606661 0.959141 0.69207
C_ C_ 0.730019 0.622058 0.487654 0.02923
C_ C_ 0.743655 0.636213 0.540675 -0.15533
C_ C_ 0.713519 0.625103 0.577887 -0.15533
C_ C_ 0.663712 0.610874 0.565359 0.02923
C_ C_ 0.64835 0.608966 0.512603 -0.15533
C_ C_ 0.678814 0.612548 0.473936 0.02923
C_ C_ 0.653711 0.604588 0.925195 0.69207
C_ C_ 0.649637 0.603562 0.662461 0.69661
C_ C_ 0.865181 0.899243 0.884778 -0.30787
C_ C_ 0.626816 0.614981 0.606434 -0.30787
N_ N_ 0.643645 0.555537 0.802979 -0.32189
N_ N_ 0.556091 0.644763 0.814161 -0.32189
N_ N_ 0.608753 0.812681 0.568172 -0.32189
N_ N_ 0.696776 0.812495 0.650198 -0.32189
N_ N_ 0.859332 0.952411 0.699994 -0.32189
N_ N_ 0.940101 0.86217 0.703317 -0.32189
N_ N_ 0.889487 0.685835 0.95454 -0.32189
N_ N_ 0.808931 0.684191 0.862184 -0.32189
O_ O_ 1.00412563 0.586482 0.894675 -0.63271
O_ O_ 0.54546 0.532594 0.832106 -0.57982
O_ O_ 0.887128 0.593008 0.837055 -0.63271
O_ O_ 0.865206 0.586415 0.918526 -0.57982
O_ O_ 0.749133 0.88537 0.600404 -0.63271
O_ O_ 0.708227 0.835947 0.542095 -0.57982
O_ O_ 0.867386 0.842439 0.605382 -0.63271
O_ O_ 0.88306 0.924202 0.596969 -0.57982
O_ O_ 0.493115 0.913846 0.61712 -0.63271
O_ O_ 0.952856 0.965068 0.663669 -0.57982
O_ O_ 0.600136 0.905467 0.663626 -0.63271
O_ O_ 0.628824 0.908483 0.586918 -0.57982
O_ O_ 0.759368 0.584196 0.914197 -0.63271
O_ O_ 0.798925 0.642743 0.969078 -0.57982
O_ O_ 0.65246 0.647995 0.902392 -0.63271
O_ O_ 0.624599 0.569805 0.905287 -0.57982
F_ F_ 0.924596 0.8334 0.925963 -0.20885
F_ F_ 0.913926 0.828133 0.842425 -0.20885
F_ F_ 0.848017 0.808343 0.879677 -0.20885
F_ F_ 0.803079 0.945532 0.827717 -0.20885
F_ F_ 0.816886 0.86215 0.803288 -0.20885
F_ F_ 0.875314 0.914557 0.798753 -0.20885
F_ F_ 0.576677 0.680127 0.563957 -0.20885
F_ F_ 0.575823 0.687449 0.646625 -0.20885
F_ F_ 0.642315 0.706709 0.614506 -0.20885
F_ F_ 0.689958 0.56443 0.661631 -0.20885
F_ F_ 0.675311 0.642701 0.684342 -0.20885
F_ F_ 0.614356 0.592889 0.691163 -0.20885
