_cell_length_a 26.508
_cell_length_b 26.37200000322088
_cell_length_c 26.311999743092066
_cell_angle_alpha 93.74100058972084
_cell_angle_beta 96.04100104955006
_cell_angle_gamma 83.6869992558723
_symmetry_space_group_name_H-M         'P 1'
_symmetry_Int_Tables_number            1
loop_
_symmetry_equiv_pos_as_xyz
   'x, y, z'
                         
loop_
_atom_site_label
_atom_site_type_symbol
_atom_site_fract_x 
_atom_site_fract_y
_atom_site_fract_z
_atom_site_charge
Zn Zn 0.0817341 0.0873747 0.34414 0.83971
Zn Zn 0.162038 0.35325 0.0904358 0.83971
Zn Zn 0.407306 0.421787 0.16544 0.83971
Zn Zn 0.342509 0.153831 0.419204 0.83971
H_ H_ 0.160818 0.133282 0.299499 0.10394
H_ H_ 0.239409 0.102616 0.25854 0.10394
H_ H_ 0.198972 0.452285 0.287059 0.10394
H_ H_ 0.117522 0.985389 0.307373 0.10394
H_ H_ 0.519387 0.0977297 0.266414 0.10394
H_ H_ 0.485144 0.170524 0.213886 0.10394
H_ H_ 0.02564 0.276912 0.342343 0.10394
H_ H_ 0.0610367 0.192616 0.385286 0.10394
H_ H_ 0.0313877 0.45277 0.365193 0.10394
H_ H_ 0.471803 0.377709 0.356412 0.10394
H_ H_ 0.348904 0.490139 0.387613 0.10394
H_ H_ 0.0767575 0.315825 0.13255 0.10394
H_ H_ 0.495702 0.269905 0.101183 0.10394
H_ H_ 0.0333934 0.28394 0.45052 0.10394
H_ H_ 0.118158 0.329228 0.982645 0.10394
H_ H_ 0.231906 0.267537 0.0989593 0.10394
H_ H_ 0.262501 0.207096 0.170319 0.10394
H_ H_ 0.218105 0.329772 0.27283 0.10394
H_ H_ 0.180957 0.382047 0.200144 0.10394
H_ H_ 0.211951 0.380218 0.435913 0.10394
H_ H_ 0.261247 0.402404 0.374375 0.10394
H_ H_ 0.393064 0.399013 0.485568 0.10394
H_ H_ 0.306889 0.402584 0.165309 0.10394
H_ H_ 0.233543 0.453171 0.199438 0.10394
H_ H_ 0.329947 0.0421953 0.275242 0.10394
H_ H_ 0.400176 0.511382 0.235369 0.10394
H_ H_ 0.0114699 0.391893 0.195823 0.10394
H_ H_ 0.0502237 0.324738 0.255219 0.10394
H_ H_ 0.414276 0.242655 0.222924 0.10394
H_ H_ 0.370208 0.321886 0.187223 0.10394
H_ H_ 0.457569 0.0489181 0.119038 0.10394
H_ H_ 0.0102068 0.120785 0.106354 0.10394
H_ H_ 0.137519 0.0119741 0.0754916 0.10394
H_ H_ 0.442656 0.149832 0.404126 0.10394
H_ H_ 0.0137637 0.191278 0.462007 0.10394
H_ H_ 0.415416 0.293408 0.0349227 0.10394
H_ H_ 0.347934 0.238984 0.501557 0.10394
H_ H_ 0.239522 0.181781 0.379312 0.10394
H_ H_ 0.194341 0.213881 0.296984 0.10394
H_ H_ 0.343927 0.238535 0.256778 0.10394
H_ H_ 0.38746 0.197348 0.331978 0.10394
H_ H_ 0.285239 0.105512 0.0569081 0.10394
H_ H_ 0.228178 0.106 0.115949 0.10394
H_ H_ 0.101348 0.102571 0.00272265 0.10394
C_ C_ 0.172094 0.0930589 0.296 0.18167
C_ C_ 0.21685 0.0747651 0.272217 -0.15533
C_ C_ 0.228048 0.0204076 0.265549 0.02923
C_ C_ 0.194052 0.494771 0.292298 -0.15533
C_ C_ 0.147554 0.00871419 0.299999 0.18167
C_ C_ 0.0268181 0.146217 0.26668 0.18167
C_ C_ 0.506953 0.179706 0.249993 -0.15533
C_ C_ 0.00805385 0.235236 0.268612 0.02923
C_ C_ 0.0227931 0.237944 0.320887 -0.15533
C_ C_ 0.0425625 0.192852 0.346448 0.18167
C_ C_ 0.00403417 0.0463885 0.366915 0.69207
C_ C_ 0.472284 0.504846 0.378843 0.02923
C_ C_ 0.48957 0.452872 0.370914 -0.15533
C_ C_ 0.458639 0.416458 0.370906 -0.15533
C_ C_ 0.409643 0.42511 0.384594 0.02923
C_ C_ 0.390078 0.477776 0.388324 -0.15533
C_ C_ 0.421742 0.517844 0.389935 0.02923
C_ C_ 0.395964 0.0705688 0.380683 0.69207
C_ C_ 0.399152 0.32851 0.393164 0.69661
C_ C_ 0.0708085 0.306589 0.0900995 0.18167
C_ C_ 0.0269274 0.286327 0.0689152 -0.15533
C_ C_ 0.0160127 0.278378 0.0160112 0.02923
C_ C_ 0.0437958 0.28877 0.490441 -0.15533
C_ C_ 0.0908143 0.320004 0.00691047 0.18167
C_ C_ 0.22127 0.274606 0.138744 0.18167
C_ C_ 0.244575 0.245105 0.178542 -0.15533
C_ C_ 0.238103 0.26238 0.229472 0.02923
C_ C_ 0.211336 0.310656 0.237254 -0.15533
C_ C_ 0.18985 0.341345 0.196395 0.18167
C_ C_ 0.241475 0.363601 0.0506847 0.69207
C_ C_ 0.271913 0.382898 0.502411 0.02923
C_ C_ 0.250091 0.38628 0.449629 -0.15533
C_ C_ 0.280798 0.392663 0.412389 -0.15533
C_ C_ 0.334264 0.393247 0.423923 0.02923
C_ C_ 0.35474 0.393706 0.475362 -0.15533
C_ C_ 0.324436 0.387778 0.516471 0.02923
C_ C_ 0.356201 0.38458 0.0785102 0.69207
C_ C_ 0.345714 0.377559 0.326307 0.69661
C_ C_ 0.312376 0.434851 0.193605 0.18167
C_ C_ 0.271186 0.46427 0.212383 -0.15533
C_ C_ 0.276039 0.504058 0.248715 0.02923
C_ C_ 0.319245 0.0140556 0.245543 -0.15533
C_ C_ 0.367235 0.491539 0.236936 0.18167
C_ C_ 0.484587 0.358907 0.215752 0.18167
C_ C_ 0.014288 0.32145 0.23516 -0.15533
C_ C_ 0.488582 0.271787 0.238047 0.02923
C_ C_ 0.436278 0.272746 0.218202 -0.15533
C_ C_ 0.4106 0.317187 0.196755 0.18167
C_ C_ 0.491204 0.453962 0.135293 0.69207
C_ C_ 0.0167388 0.990964 0.101681 0.02923
C_ C_ -0.00466295 0.0427496 0.0971466 -0.15533
C_ C_ 0.0267658 0.0810496 0.100222 -0.15533
C_ C_ 0.0781774 0.0712892 0.09273 0.02923
C_ C_ 0.096314 0.0202699 0.0822456 -0.15533
C_ C_ 0.0690508 0.980007 0.0947199 0.02923
C_ C_ 0.104125 0.432179 0.113148 0.69207
C_ C_ 0.0889818 0.168091 0.106997 0.69661
C_ C_ 0.440385 0.17653 0.43733 0.18167
C_ C_ 0.482863 0.20132 0.462061 -0.15533
C_ C_ 0.475373 0.24135 0.50064 0.02923
C_ C_ 0.423227 0.259555 0.00863308 -0.15533
C_ C_ 0.384744 0.226087 0.49144 0.18167
C_ C_ 0.261672 0.192074 0.351311 0.18167
C_ C_ 0.237018 0.214819 0.308213 -0.15533
C_ C_ 0.265829 0.22881 0.270055 0.02923
C_ C_ 0.319871 0.220609 0.280919 -0.15533
C_ C_ 0.344447 0.203011 0.327424 0.18167
C_ C_ 0.262685 0.122514 0.450929 0.69207
C_ C_ 0.225647 0.116441 0.991401 0.02923
C_ C_ 0.244227 0.11112 0.0425663 -0.15533
C_ C_ 0.209739 0.110726 0.0774566 -0.15533
C_ C_ 0.157235 0.107398 0.0648075 0.02923
C_ C_ 0.140834 0.106715 0.0136451 -0.15533
C_ C_ 0.173842 0.11122 0.975996 0.02923
C_ C_ 0.151169 0.103688 0.419016 0.69207
C_ C_ 0.138696 0.0995902 0.162382 0.69661
C_ C_ 0.373213 0.380928 0.382532 -0.30787
C_ C_ 0.117373 0.111988 0.106574 -0.30787
N_ N_ 0.138096 0.0622153 0.308464 -0.32189
N_ N_ 0.0436275 0.147409 0.317265 -0.32189
N_ N_ 0.100531 0.325267 0.0579697 -0.32189
N_ N_ 0.193654 0.318866 0.149069 -0.32189
N_ N_ 0.361486 0.446755 0.210013 -0.32189
N_ N_ 0.438131 0.357886 0.190666 -0.32189
N_ N_ 0.393333 0.190961 0.453209 -0.32189
N_ N_ 0.31489 0.189808 0.362611 -0.32189
O_ O_ 0.506067 0.0888714 0.403085 -0.63271
O_ O_ 0.0396432 0.0350298 0.337441 -0.57982
O_ O_ 0.389209 0.0973865 0.340961 -0.63271
O_ O_ 0.374673 0.0902697 0.420742 -0.57982
O_ O_ 0.248076 0.385449 0.0968442 -0.63271
O_ O_ 0.20066 0.339482 0.040293 -0.57982
O_ O_ 0.353506 0.344536 0.104212 -0.63271
O_ O_ 0.37861 0.422373 0.1018 -0.57982
O_ O_ 0.99203 0.41644 0.100695 -0.63271
O_ O_ 0.456367 0.464778 0.167698 -0.57982
O_ O_ 0.100468 0.408737 0.152875 -0.63271
O_ O_ 0.139636 0.415016 0.0861506 -0.57982
O_ O_ 0.262687 0.0932137 0.408431 -0.63271
O_ O_ 0.296562 0.153526 0.460545 -0.57982
O_ O_ 0.146257 0.145243 0.39447 -0.63271
O_ O_ 0.115955 0.0717942 0.404598 -0.57982
F_ F_ 0.433414 0.325671 0.435596 -0.20885
F_ F_ 0.428942 0.304814 0.354323 -0.20885
F_ F_ 0.362955 0.29676 0.400554 -0.20885
F_ F_ 0.314513 0.419046 0.315459 -0.20885
F_ F_ 0.319751 0.333658 0.316873 -0.20885
F_ F_ 0.3808 0.374973 0.290936 -0.20885
F_ F_ 0.0587904 0.174429 0.0621467 -0.20885
F_ F_ 0.0594672 0.179305 0.148044 -0.20885
F_ F_ 0.128498 0.20092 0.11496 -0.20885
F_ F_ 0.166939 0.0522326 0.164426 -0.20885
F_ F_ 0.171171 0.136622 0.18001 -0.20885
F_ F_ 0.103684 0.100891 0.196151 -0.20885
Zn Zn 0.0911811 0.0833801 0.841158 0.83971
Zn Zn 0.159179 0.346132 0.578364 0.83971
Zn Zn 0.405868 0.415757 0.650676 0.83971
Zn Zn 0.343111 0.15396 0.915606 0.83971
H_ H_ 0.168364 0.129763 0.802678 0.10394
H_ H_ 0.250041 0.0975447 0.76879 0.10394
H_ H_ 0.210596 0.447345 0.791767 0.10394
H_ H_ 0.129138 0.975647 0.803583 0.10394
H_ H_ 0.523374 0.0974285 0.753768 0.10394
H_ H_ 0.49078 0.173889 0.701665 0.10394
H_ H_ 0.0217612 0.267151 0.839865 0.10394
H_ H_ 0.0801006 0.19709 0.87445 0.10394
H_ H_ 0.0327059 0.438714 0.866537 0.10394
H_ H_ 0.483463 0.373366 0.892863 0.10394
H_ H_ 0.35803 0.492184 0.916123 0.10394
H_ H_ 0.072903 0.319286 0.634141 0.10394
H_ H_ 0.505786 0.264097 0.604061 0.10394
H_ H_ 0.046798 0.287909 0.945113 0.10394
H_ H_ 0.113564 0.324632 0.482114 0.10394
H_ H_ 0.203797 0.238811 0.598091 0.10394
H_ H_ 0.246589 0.200983 0.676404 0.10394
H_ H_ 0.199185 0.33264 0.766388 0.10394
H_ H_ 0.180567 0.377421 0.688736 0.10394
H_ H_ 0.216671 0.37315 0.954774 0.10394
H_ H_ 0.265185 0.390787 0.886088 0.10394
H_ H_ 0.399672 0.397242 0.992633 0.10394
H_ H_ 0.305907 0.393864 0.662999 0.10394
H_ H_ 0.234708 0.440432 0.700767 0.10394
H_ H_ 0.334563 0.0431328 0.77333 0.10394
H_ H_ 0.398229 0.504572 0.727126 0.10394
H_ H_ 0.0126695 0.384274 0.703238 0.10394
H_ H_ 0.0396221 0.318763 0.7711 0.10394
H_ H_ 0.407762 0.254937 0.743339 0.10394
H_ H_ 0.370389 0.326066 0.693143 0.10394
H_ H_ 0.471062 0.0507047 0.627771 0.10394
H_ H_ 0.00943906 0.112655 0.575502 0.10394
H_ H_ 0.146701 0.0112994 0.589566 0.10394
H_ H_ 0.443079 0.161413 0.896196 0.10394
H_ H_ 0.0187198 0.193613 0.945256 0.10394
H_ H_ 0.418476 0.277948 0.549775 0.10394
H_ H_ 0.344548 0.249254 -0.007624999999999993 0.10394
H_ H_ 0.238724 0.200183 0.891255 0.10394
H_ H_ 0.186322 0.229776 0.811022 0.10394
H_ H_ 0.328729 0.220852 0.741499 0.10394
H_ H_ 0.369195 0.18493 0.814184 0.10394
H_ H_ 0.280694 0.12428 0.552513 0.10394
H_ H_ 0.222262 0.122664 0.619957 0.10394
H_ H_ 0.105276 0.0841276 0.504322 0.10394
C_ C_ 0.181119 0.0892768 0.79989 0.18167
C_ C_ 0.226839 0.0693193 0.780025 -0.15533
C_ C_ 0.234093 0.0183511 0.760452 0.02923
C_ C_ 0.204463 0.488432 0.791929 -0.15533
C_ C_ 0.155976 0.00421939 0.795405 0.18167
C_ C_ 0.0287498 0.1363 0.772564 0.18167
C_ C_ 0.510306 0.178115 0.740287 -0.15533
C_ C_ 0.00481791 0.226695 0.767787 0.02923
C_ C_ 0.0269983 0.232639 0.817611 -0.15533
C_ C_ 0.0559162 0.19073 0.839791 0.18167
C_ C_ 0.00848276 0.0449253 0.862078 0.69207
C_ C_ 0.480936 0.5005 0.893182 0.02923
C_ C_ 0.500542 0.449234 0.895127 -0.15533
C_ C_ 0.466645 0.413033 0.899717 -0.15533
C_ C_ 0.414676 0.425774 0.904404 0.02923
C_ C_ 0.400619 0.478574 0.912946 -0.15533
C_ C_ 0.4297 0.516184 0.900352 0.02923
C_ C_ 0.397474 0.0697076 0.884154 0.69207
C_ C_ 0.393667 0.329357 0.878576 0.69661
C_ C_ 0.0660174 0.31035 0.592999 0.18167
C_ C_ 0.0213212 0.287764 0.574185 -0.15533
C_ C_ 0.0089757 0.278431 0.522378 0.02923
C_ C_ 0.0543145 0.289137 0.986399 -0.15533
C_ C_ 0.0877724 0.311976 0.508337 0.18167
C_ C_ 0.210567 0.260398 0.634519 0.18167
C_ C_ 0.226192 0.23656 0.679373 -0.15533
C_ C_ 0.22584 0.261703 0.726641 0.02923
C_ C_ 0.206402 0.312717 0.728487 -0.15533
C_ C_ 0.18831 0.336761 0.684124 0.18167
C_ C_ 0.237437 0.373125 0.540169 0.69207
C_ C_ 0.278857 0.369212 0.0133093 0.02923
C_ C_ 0.258103 0.369049 0.961306 -0.15533
C_ C_ 0.286847 0.377125 0.922196 -0.15533
C_ C_ 0.337627 0.388043 0.932489 0.02923
C_ C_ 0.358275 0.392266 0.983899 -0.15533
C_ C_ 0.330057 0.385045 0.0248305 0.02923
C_ C_ 0.349082 0.383642 0.56807 0.69207
C_ C_ 0.341772 0.402299 0.837107 0.69661
C_ C_ 0.313146 0.426143 0.689106 0.18167
C_ C_ 0.272521 0.45093 0.712379 -0.15533
C_ C_ 0.277947 0.496584 0.744122 0.02923
C_ C_ 0.33211 0.010142 0.747682 -0.15533
C_ C_ 0.364586 0.490664 0.721835 0.18167
C_ C_ 0.490357 0.353308 0.700295 0.18167
C_ C_ 0.00449278 0.31743 0.743899 -0.15533
C_ C_ 0.486447 0.272706 0.734697 0.02923
C_ C_ 0.433 0.278548 0.725671 -0.15533
C_ C_ 0.409851 0.320957 0.700278 0.18167
C_ C_ 0.483165 0.452288 0.619918 0.69207
C_ C_ 0.0231159 0.988418 0.608881 0.02923
C_ C_ -0.0019839999999999858 0.0349927 0.594155 -0.15533
C_ C_ 0.0277089 0.076844 0.58416 -0.15533
C_ C_ 0.0808562 0.0687813 0.591132 0.02923
C_ C_ 0.104591 0.0177018 0.591673 -0.15533
C_ C_ 0.0748147 0.977933 0.601883 0.02923
C_ C_ 0.100744 0.431164 0.611531 0.69207
C_ C_ 0.0877416 0.165537 0.599238 0.69661
C_ C_ 0.437384 0.18751 0.928614 0.18167
C_ C_ 0.478474 0.203346 0.959095 -0.15533
C_ C_ 0.473067 0.242967 0.995957 0.02923
C_ C_ 0.426799 0.247232 0.518972 -0.15533
C_ C_ 0.383011 0.234086 0.983404 0.18167
C_ C_ 0.25569 0.200753 0.855336 0.18167
C_ C_ 0.22748 0.224731 0.81232 -0.15533
C_ C_ 0.253927 0.234612 0.770952 0.02923
C_ C_ 0.306042 0.218014 0.771946 -0.15533
C_ C_ 0.330137 0.193993 0.81312 0.18167
C_ C_ 0.262304 0.126484 0.953318 0.69207
C_ C_ 0.223821 0.118712 0.489223 0.02923
C_ C_ 0.241613 0.121235 0.543438 -0.15533
C_ C_ 0.208798 0.115224 0.581221 -0.15533
C_ C_ 0.157472 0.107692 0.566093 0.02923
C_ C_ 0.141125 0.0986998 0.512452 -0.15533
C_ C_ 0.173665 0.105615 0.473932 0.02923
C_ C_ 0.151195 0.107838 0.92123 0.69207
C_ C_ 0.138342 0.106857 0.660866 0.69661
C_ C_ 0.372579 0.387291 0.889342 -0.30787
C_ C_ 0.115698 0.110853 0.605192 -0.30787
N_ N_ 0.147615 0.0553639 0.80855 -0.32189
N_ N_ 0.0551827 0.14304 0.817761 -0.32189
N_ N_ 0.10034 0.317824 0.559517 -0.32189
N_ N_ 0.193643 0.310748 0.637959 -0.32189
N_ N_ 0.35833 0.446097 0.695163 -0.32189
N_ N_ 0.438932 0.356217 0.685778 -0.32189
N_ N_ 0.391684 0.195757 0.945757 -0.32189
N_ N_ 0.306502 0.183354 0.85428 -0.32189
O_ O_ 0.50279 0.0907356 0.87883 -0.63271
O_ O_ 0.0438001 0.0374566 0.831114 -0.57982
O_ O_ 0.396783 0.0966405 0.844298 -0.63271
O_ O_ 0.371141 0.0888748 0.921243 -0.57982
O_ O_ 0.236886 0.395535 0.585091 -0.63271
O_ O_ 0.201736 0.343341 0.527437 -0.57982
O_ O_ 0.346735 0.343698 0.59385 -0.63271
O_ O_ 0.375968 0.419632 0.590188 -0.57982
O_ O_ 0.99679456 0.408111 0.612499 -0.63271
O_ O_ 0.450855 0.459816 0.655357 -0.57982
O_ O_ 0.104271 0.412622 0.656092 -0.63271
O_ O_ 0.135106 0.414027 0.58119 -0.57982
O_ O_ 0.256337 0.108002 0.904886 -0.63271
O_ O_ 0.299426 0.154475 0.968287 -0.57982
O_ O_ 0.158081 0.14443 0.892381 -0.63271
O_ O_ 0.118213 0.0759219 0.905695 -0.57982
F_ F_ 0.422254 0.315617 0.921641 -0.20885
F_ F_ 0.427222 0.323427 0.841003 -0.20885
F_ F_ 0.354832 0.29713 0.869271 -0.20885
F_ F_ 0.31509 0.449035 0.846195 -0.20885
F_ F_ 0.30676 0.370797 0.814565 -0.20885
F_ F_ 0.372874 0.405187 0.801954 -0.20885
F_ F_ 0.0600893 0.170547 0.551908 -0.20885
F_ F_ 0.0507741 0.18033 0.633872 -0.20885
F_ F_ 0.123408 0.201852 0.603222 -0.20885
F_ F_ 0.172966 0.06521 0.663065 -0.20885
F_ F_ 0.161415 0.149059 0.680206 -0.20885
F_ F_ 0.100173 0.0997083 0.690272 -0.20885
Zn Zn 0.0882621 0.595777 0.349797 0.83971
Zn Zn 0.161556 0.845631 0.0816786 0.83971
Zn Zn 0.40467 0.914102 0.151487 0.83971
Zn Zn 0.34484 0.654315 0.41775 0.83971
H_ H_ 0.16748 0.638329 0.309522 0.10394
H_ H_ 0.240324 0.600474 0.264143 0.10394
H_ H_ 0.199969 0.949251 0.278122 0.10394
H_ H_ 0.118352 0.492549 0.311131 0.10394
H_ H_ 0.521425 0.59623 0.25261 0.10394
H_ H_ 0.477385 0.669546 0.212876 0.10394
H_ H_ 0.00361979 0.7675 0.329852 0.10394
H_ H_ 0.0629491 0.704697 0.376514 0.10394
H_ H_ 0.0243183 0.940502 0.358927 0.10394
H_ H_ 0.478381 0.874751 0.356378 0.10394
H_ H_ 0.353516 0.988986 0.389136 0.10394
H_ H_ 0.0804245 0.805219 0.13041 0.10394
H_ H_ 0.506769 0.757142 0.0955149 0.10394
H_ H_ 0.0410384 0.778849 0.443973 0.10394
H_ H_ 0.11659 0.822698 0.978772 0.10394
H_ H_ 0.220484 0.749342 0.105216 0.10394
H_ H_ 0.254717 0.704995 0.185053 0.10394
H_ H_ 0.218087 0.844785 0.267295 0.10394
H_ H_ 0.170985 0.878477 0.18801 0.10394
H_ H_ 0.224179 0.846354 0.436617 0.10394
H_ H_ 0.264463 0.888449 0.372842 0.10394
H_ H_ 0.393821 0.910137 0.482949 0.10394
H_ H_ 0.30773 0.890127 0.172604 0.10394
H_ H_ 0.227485 0.945075 0.185036 0.10394
H_ H_ 0.332619 0.551262 0.283322 0.10394
H_ H_ 0.395201 0.006716 0.223722 0.10394
H_ H_ 0.0126914 0.870922 0.183198 0.10394
H_ H_ 0.0492662 0.795226 0.226847 0.10394
H_ H_ 0.401818 0.739997 0.216109 0.10394
H_ H_ 0.3616 0.817111 0.183135 0.10394
H_ H_ 0.466129 0.552476 0.121243 0.10394
H_ H_ 0.0181442 0.623685 0.0956827 0.10394
H_ H_ 0.145421 0.510931 0.0828221 0.10394
H_ H_ 0.446373 0.667344 0.394119 0.10394
H_ H_ 0.0106012 0.687911 0.440124 0.10394
H_ H_ 0.412957 0.77686 0.0374172 0.10394
H_ H_ 0.353672 0.728399 0.507621 0.10394
H_ H_ 0.244211 0.718478 0.401535 0.10394
H_ H_ 0.19878 0.760257 0.327318 0.10394
H_ H_ 0.332907 0.731931 0.247672 0.10394
H_ H_ 0.37233 0.684188 0.317661 0.10394
H_ H_ 0.296164 0.586014 0.0460701 0.10394
H_ H_ 0.24044 0.590072 0.115242 0.10394
H_ H_ 0.105718 0.610176 0.00378575 0.10394
C_ C_ 0.17671 0.598242 0.306655 0.18167
C_ C_ 0.221609 0.577045 0.284918 -0.15533
C_ C_ 0.231129 0.524452 0.277718 0.02923
C_ C_ 0.191298 0.988458 0.279196 -0.15533
C_ C_ 0.147528 0.516577 0.305034 0.18167
C_ C_ 0.035133 0.635451 0.266725 0.18167
C_ C_ 0.496238 0.676597 0.247782 -0.15533
C_ C_ -0.0013940000000000063 0.721645 0.258441 0.02923
C_ C_ 0.0142578 0.732425 0.310208 -0.15533
C_ C_ 0.0455936 0.6954 0.337279 0.18167
C_ C_ 0.00678661 0.555401 0.373662 0.69207
C_ C_ 0.477064 0.00673143 0.372053 0.02923
C_ C_ 0.497113 0.953109 0.366468 -0.15533
C_ C_ 0.462596 0.91631 0.364437 -0.15533
C_ C_ 0.41317 0.928446 0.380781 0.02923
C_ C_ 0.394016 0.979943 0.383302 -0.15533
C_ C_ 0.423085 0.0188285 0.379661 0.02923
C_ C_ 0.398941 0.571562 0.392076 0.69207
C_ C_ 0.397441 0.830838 0.3821 0.69661
C_ C_ 0.0712931 0.801138 0.0885362 0.18167
C_ C_ 0.0260783 0.780348 0.0679147 -0.15533
C_ C_ 0.0160599 0.770284 0.0157572 0.02923
C_ C_ 0.0504378 0.778855 0.485006 -0.15533
C_ C_ 0.0947465 0.808581 0.005279999999999951 0.18167
C_ C_ 0.215467 0.767813 0.139762 0.18167
C_ C_ 0.235646 0.742863 0.185525 -0.15533
C_ C_ 0.233264 0.769164 0.233063 0.02923
C_ C_ 0.212733 0.819434 0.233299 -0.15533
C_ C_ 0.189511 0.841253 0.187217 0.18167
C_ C_ 0.240046 0.868159 0.0412469 0.69207
C_ C_ 0.279494 0.862239 0.498814 0.02923
C_ C_ 0.25717 0.865598 0.445442 -0.15533
C_ C_ 0.285124 0.883294 0.40958 -0.15533
C_ C_ 0.336732 0.894678 0.420771 0.02923
C_ C_ 0.357053 0.894229 0.471722 -0.15533
C_ C_ 0.327663 0.881202 0.510472 0.02923
C_ C_ 0.354153 0.87873 0.0666569 0.69207
C_ C_ 0.345882 0.891963 0.322974 0.69661
C_ C_ 0.308759 0.927624 0.184641 0.18167
C_ C_ 0.265829 0.956848 0.20213 -0.15533
C_ C_ 0.270896 0.998119 0.235937 0.02923
C_ C_ 0.326623 0.516752 0.262444 -0.15533
C_ C_ 0.358117 0.990433 0.219827 0.18167
C_ C_ 0.477794 0.8545 0.213413 0.18167
C_ C_ 0.00908758 0.798926 0.2109 -0.15533
C_ C_ 0.475896 0.768574 0.23979 0.02923
C_ C_ 0.4254 0.770576 0.217318 -0.15533
C_ C_ 0.402952 0.81459 0.194188 0.18167
C_ C_ 0.481268 0.949437 0.123078 0.69207
C_ C_ 0.0277688 0.498574 0.120803 0.02923
C_ C_ 0.00812094 0.548233 0.121533 -0.15533
C_ C_ 0.0375291 0.585277 0.105921 -0.15533
C_ C_ 0.0902652 0.570663 0.100381 0.02923
C_ C_ 0.10645 0.519752 0.0923663 -0.15533
C_ C_ 0.0781966 0.482382 0.105747 0.02923
C_ C_ 0.0956854 0.928321 0.10387 0.69207
C_ C_ 0.104181 0.669217 0.108897 0.69661
C_ C_ 0.442055 0.689295 0.429447 0.18167
C_ C_ 0.48309 0.709382 0.454631 -0.15533
C_ C_ 0.478844 0.741602 0.499854 0.02923
C_ C_ 0.422412 0.747667 0.00879884 -0.15533
C_ C_ 0.389795 0.725312 0.493282 0.18167
C_ C_ 0.264301 0.716918 0.364632 0.18167
C_ C_ 0.23586 0.741633 0.323022 -0.15533
C_ C_ 0.259747 0.746477 0.279691 0.02923
C_ C_ 0.311001 0.726165 0.279216 -0.15533
C_ C_ 0.334629 0.697279 0.318792 0.18167
C_ C_ 0.263622 0.621958 0.454828 0.69207
C_ C_ 0.234132 0.609571 0.988371 0.02923
C_ C_ 0.255514 0.600879 0.0387092 -0.15533
C_ C_ 0.221657 0.59769 0.0766646 -0.15533
C_ C_ 0.166976 0.607826 0.0665065 0.02923
C_ C_ 0.147837 0.609546 0.0150508 -0.15533
C_ C_ 0.17952 0.609839 0.975139 0.02923
C_ C_ 0.151108 0.619966 0.42684 0.69207
C_ C_ 0.152893 0.604599 0.161534 0.69661
C_ C_ 0.373544 0.88828 0.376423 -0.30787
C_ C_ 0.12707 0.61316 0.106974 -0.30787
N_ N_ 0.138079 0.568786 0.311731 -0.32189
N_ N_ 0.0504026 0.646328 0.315907 -0.32189
N_ N_ 0.104619 0.814164 0.05511 -0.32189
N_ N_ 0.187859 0.813357 0.142014 -0.32189
N_ N_ 0.352934 0.945721 0.189745 -0.32189
N_ N_ 0.429762 0.854393 0.189334 -0.32189
N_ N_ 0.39565 0.698392 0.447716 -0.32189
N_ N_ 0.309841 0.689071 0.359839 -0.32189
O_ O_ 0.508619 0.582395 0.409871 -0.63271
O_ O_ 0.0455988 0.54645 0.346179 -0.57982
O_ O_ 0.401008 0.597879 0.349895 -0.63271
O_ O_ 0.373537 0.590124 0.428249 -0.57982
O_ O_ 0.251993 0.88046 0.0899083 -0.63271
O_ O_ 0.202488 0.839774 0.0323959 -0.57982
O_ O_ 0.36187 0.837073 0.092667 -0.63271
O_ O_ 0.372075 0.919556 0.08587 -0.57982
O_ O_ 0.989496 0.901547 0.0940901 -0.63271
O_ O_ 0.447101 0.961388 0.154323 -0.57982
O_ O_ 0.0869722 0.904881 0.144374 -0.63271
O_ O_ 0.133322 0.911302 0.0790954 -0.57982
O_ O_ 0.24951 0.616109 0.405321 -0.63271
O_ O_ 0.304674 0.642991 0.467668 -0.57982
O_ O_ 0.149692 0.662713 0.405002 -0.63271
O_ O_ 0.117533 0.589119 0.413372 -0.57982
F_ F_ 0.435151 0.828421 0.424998 -0.20885
F_ F_ 0.417341 0.808639 0.337077 -0.20885
F_ F_ 0.362101 0.798354 0.39315 -0.20885
F_ F_ 0.311054 0.932932 0.322471 -0.20885
F_ F_ 0.318137 0.851784 0.304813 -0.20885
F_ F_ 0.382538 0.892614 0.289874 -0.20885
F_ F_ 0.0780248 0.679169 0.0626608 -0.20885
F_ F_ 0.0669988 0.678783 0.144394 -0.20885
F_ F_ 0.140307 0.702751 0.116762 -0.20885
F_ F_ 0.183487 0.558432 0.171341 -0.20885
F_ F_ 0.1877 0.638701 0.175064 -0.20885
F_ F_ 0.119107 0.612053 0.198562 -0.20885
Zn Zn 0.0871017 0.583807 0.838777 0.83971
Zn Zn 0.160517 0.845937 0.580574 0.83971
Zn Zn 0.412885 0.908502 0.649637 0.83971
Zn Zn 0.343204 0.651221 0.913424 0.83971
H_ H_ 0.175881 0.629344 0.817062 0.10394
H_ H_ 0.245783 0.599754 0.766343 0.10394
H_ H_ 0.21242 0.940994 0.770034 0.10394
H_ H_ 0.143205 0.486227 0.834552 0.10394
H_ H_ 0.521314 0.587012 0.760242 0.10394
H_ H_ 0.472453 0.65979 0.711647 0.10394
H_ H_ 0.0278594 0.764127 0.825272 0.10394
H_ H_ 0.0638987 0.688503 0.870139 0.10394
H_ H_ 0.0338575 0.946263 0.862956 0.10394
H_ H_ 0.485519 0.876339 0.890802 0.10394
H_ H_ 0.357179 0.988512 0.903294 0.10394
H_ H_ 0.0708788 0.809191 0.629523 0.10394
H_ H_ 0.506861 0.772174 0.601756 0.10394
H_ H_ 0.0410334 0.783133 0.944732 0.10394
H_ H_ 0.113749 0.815493 0.479951 0.10394
H_ H_ 0.218619 0.746842 0.590968 0.10394
H_ H_ 0.258142 0.700365 0.667411 0.10394
H_ H_ 0.222155 0.835022 0.761002 0.10394
H_ H_ 0.18857 0.880146 0.684533 0.10394
H_ H_ 0.228115 0.840869 0.940825 0.10394
H_ H_ 0.275364 0.85982 0.874235 0.10394
H_ H_ 0.397489 0.902063 0.986988 0.10394
H_ H_ 0.307457 0.898553 0.651041 0.10394
H_ H_ 0.2374 0.952627 0.67928 0.10394
H_ H_ 0.330029 0.550646 0.769823 0.10394
H_ H_ 0.408037 0.0010300000000000864 0.729952 0.10394
H_ H_ 0.00482999999999989 0.887764 0.703623 0.10394
H_ H_ 0.0400632 0.811001 0.753729 0.10394
H_ H_ 0.408181 0.734054 0.709228 0.10394
H_ H_ 0.372757 0.816009 0.677182 0.10394
H_ H_ 0.46641 0.552948 0.628727 0.10394
H_ H_ 0.0175542 0.623208 0.607212 0.10394
H_ H_ 0.14369 0.511417 0.589456 0.10394
H_ H_ 0.449761 0.663131 0.887541 0.10394
H_ H_ 0.0140324 0.687095 0.946283 0.10394
H_ H_ 0.424859 0.774723 0.549181 0.10394
H_ H_ 0.34531 0.726646 -0.00426105 0.10394
H_ H_ 0.241239 0.692018 0.877641 0.10394
H_ H_ 0.203575 0.752458 0.808279 0.10394
H_ H_ 0.338612 0.705473 0.73212 0.10394
H_ H_ 0.38391 0.676166 0.815908 0.10394
H_ H_ 0.289234 0.610078 0.55483 0.10394
H_ H_ 0.235159 0.593612 0.622243 0.10394
H_ H_ 0.105332 0.608611 0.509728 0.10394
C_ C_ 0.177008 0.5928 0.796641 0.18167
C_ C_ 0.221828 0.573866 0.773484 -0.15533
C_ C_ 0.237091 0.52116 0.773056 0.02923
C_ C_ 0.200481 0.984023 0.772512 -0.15533
C_ C_ 0.157555 0.507577 0.806935 0.18167
C_ C_ 0.017389 0.629807 0.763724 0.18167
C_ C_ 0.494355 0.666861 0.748606 -0.15533
C_ C_ 0.0020100000000000673 0.720973 0.756995 0.02923
C_ C_ 0.0270337 0.726229 0.806019 -0.15533
C_ C_ 0.0536714 0.682721 0.829373 0.18167
C_ C_ 0.0111157 0.541901 0.865719 0.69207
C_ C_ 0.479131 0.00432611 0.880887 0.02923
C_ C_ 0.498719 0.953494 0.881174 -0.15533
C_ C_ 0.469816 0.916128 0.892454 -0.15533
C_ C_ 0.41687 0.927023 0.892799 0.02923
C_ C_ 0.396037 0.977864 0.897235 -0.15533
C_ C_ 0.425981 0.0177105 0.889014 0.02923
C_ C_ 0.405995 0.568464 0.894102 0.69207
C_ C_ 0.403572 0.830873 0.876359 0.69661
C_ C_ 0.0645211 0.803161 0.588995 0.18167
C_ C_ 0.023997 0.778131 0.569709 -0.15533
C_ C_ 0.0156104 0.766555 0.516824 0.02923
C_ C_ 0.0522569 0.783449 0.984126 -0.15533
C_ C_ 0.090991 0.80394 0.50619 0.18167
C_ C_ 0.218864 0.764016 0.630581 0.18167
C_ C_ 0.24594 0.74117 0.67063 -0.15533
C_ C_ 0.242622 0.763346 0.720115 0.02923
C_ C_ 0.223935 0.815999 0.724273 -0.15533
C_ C_ 0.197599 0.838558 0.682044 0.18167
C_ C_ 0.243542 0.859996 0.538727 0.69207
C_ C_ 0.277691 0.866258 0.0009300000000000974 0.02923
C_ C_ 0.260303 0.860607 0.948522 -0.15533
C_ C_ 0.290799 0.871468 0.910298 -0.15533
C_ C_ 0.340173 0.886335 0.923341 0.02923
C_ C_ 0.357199 0.892232 0.975303 -0.15533
C_ C_ 0.327639 0.878956 0.0140294 0.02923
C_ C_ 0.351641 0.877665 0.56405 0.69207
C_ C_ 0.353493 0.89773 0.826959 0.69661
C_ C_ 0.315085 0.929617 0.677134 0.18167
C_ C_ 0.273843 0.96404 0.691932 -0.15533
C_ C_ 0.279962 1.000168605 0.731528 0.02923
C_ C_ 0.324663 0.516421 0.746852 -0.15533
C_ C_ 0.372207 0.987889 0.721348 0.18167
C_ C_ 0.492846 0.843077 0.704689 0.18167
C_ C_ 0.00678476 0.807137 0.726768 -0.15533
C_ C_ 0.482082 0.760668 0.734718 0.02923
C_ C_ 0.433149 0.763985 0.710217 -0.15533
C_ C_ 0.413489 0.808673 0.68718 0.18167
C_ C_ 0.495651 0.945305 0.629595 0.69207
C_ C_ 0.0255085 0.495587 0.621752 0.02923
C_ C_ 1.00491661 0.546917 0.620612 -0.15533
C_ C_ 0.0358544 0.58547 0.613358 -0.15533
C_ C_ 0.0866679 0.571917 0.60214 0.02923
C_ C_ 0.103217 0.5215 0.592223 -0.15533
C_ C_ 0.0742632 0.483006 0.603179 0.02923
C_ C_ 0.102325 0.9255 0.606818 0.69207
C_ C_ 0.103451 0.667153 0.612689 0.69661
C_ C_ 0.442374 0.684117 0.924051 0.18167
C_ C_ 0.483417 0.70169 0.952396 -0.15533
C_ C_ 0.472417 0.737233 -0.00589015 0.02923
C_ C_ 0.431373 0.749642 0.518629 -0.15533
C_ C_ 0.383897 0.722785 0.982244 0.18167
C_ C_ 0.264163 0.703697 0.850857 0.18167
C_ C_ 0.241549 0.73248 0.808553 -0.15533
C_ C_ 0.267573 0.736185 0.765785 0.02923
C_ C_ 0.319387 0.711877 0.767399 -0.15533
C_ C_ 0.34094 0.690193 0.813834 0.18167
C_ C_ 0.266467 0.623259 0.950214 0.69207
C_ C_ 0.229311 0.615798 0.494083 0.02923
C_ C_ 0.24957 0.606696 0.543848 -0.15533
C_ C_ 0.21741 0.600543 0.582501 -0.15533
C_ C_ 0.162411 0.602771 0.569249 0.02923
C_ C_ 0.143707 0.606891 0.517713 -0.15533
C_ C_ 0.175358 0.61412 0.479835 0.02923
C_ C_ 0.153757 0.615258 0.92264 0.69207
C_ C_ 0.147409 0.603861 0.668783 0.69661
C_ C_ 0.377525 0.887375 0.882003 -0.30787
C_ C_ 0.126112 0.610241 0.612004 -0.30787
N_ N_ 0.142895 0.558881 0.805778 -0.32189
N_ N_ 0.051981 0.638461 0.805485 -0.32189
N_ N_ 0.100539 0.814121 0.558057 -0.32189
N_ N_ 0.194879 0.811803 0.634728 -0.32189
N_ N_ 0.364781 0.942142 0.692101 -0.32189
N_ N_ 0.443778 0.847292 0.684152 -0.32189
N_ N_ 0.394981 0.689697 0.941341 -0.32189
N_ N_ 0.311969 0.682274 0.851781 -0.32189
O_ O_ 0.508325 0.587485 0.898348 -0.63271
O_ O_ 0.0449463 0.531121 0.835529 -0.57982
O_ O_ 0.411679 0.59367 0.852596 -0.63271
O_ O_ 0.374859 0.589971 0.927938 -0.57982
O_ O_ 0.252948 0.882858 0.583825 -0.63271
O_ O_ 0.202492 0.838168 0.528961 -0.57982
O_ O_ 0.350006 0.834842 0.586846 -0.63271
O_ O_ 0.381964 0.911311 0.584145 -0.57982
O_ O_ 0.985241 0.910381 0.587986 -0.63271
O_ O_ 0.455288 0.957048 0.6519 -0.57982
O_ O_ 0.100665 0.89906 0.645866 -0.63271
O_ O_ 0.138602 0.91023 0.578316 -0.57982
O_ O_ 0.263553 0.602017 0.904128 -0.63271
O_ O_ 0.299376 0.657362 0.960871 -0.57982
O_ O_ 0.155314 0.655952 0.898782 -0.63271
O_ O_ 0.118969 0.585387 0.906571 -0.57982
F_ F_ 0.430865 0.816864 0.921095 -0.20885
F_ F_ 0.436032 0.818283 0.837771 -0.20885
F_ F_ 0.365838 0.796551 0.864709 -0.20885
F_ F_ 0.318767 0.938949 0.824952 -0.20885
F_ F_ 0.324727 0.860667 0.801526 -0.20885
F_ F_ 0.38892 0.90121 0.793201 -0.20885
F_ F_ 0.069046 0.674913 0.571742 -0.20885
F_ F_ 0.0757074 0.688278 0.650707 -0.20885
F_ F_ 0.14292 0.699173 0.613243 -0.20885
F_ F_ 0.174328 0.555011 0.674018 -0.20885
F_ F_ 0.184298 0.633463 0.687813 -0.20885
F_ F_ 0.107962 0.607064 0.699777 -0.20885
Zn Zn 0.591955 0.0900403 0.351776 0.83971
Zn Zn 0.662439 0.345414 0.091303 0.83971
Zn Zn 0.911686 0.426698 0.155964 0.83971
Zn Zn 0.840571 0.156396 0.42157 0.83971
H_ H_ 0.674566 0.13885 0.301998 0.10394
H_ H_ 0.751717 0.102003 0.267435 0.10394
H_ H_ 0.709997 0.451289 0.279713 0.10394
H_ H_ 0.632548 0.992075 0.322034 0.10394
H_ H_ 0.0193404 0.106747 0.247985 0.10394
H_ H_ 0.988103 0.185833 0.200871 0.10394
H_ H_ 0.546399 0.272475 0.333634 0.10394
H_ H_ 0.580523 0.203352 0.379927 0.10394
H_ H_ 0.52981 0.444427 0.362032 0.10394
H_ H_ 0.978956 0.386171 0.384205 0.10394
H_ H_ 0.849922 0.493716 0.395933 0.10394
H_ H_ 0.574678 0.306482 0.138419 0.10394
H_ H_ 1.00049 0.280175 0.0943656 0.10394
H_ H_ 0.541564 0.289783 0.451912 0.10394
H_ H_ 0.623749 0.31695 0.990141 0.10394
H_ H_ 0.704216 0.247212 0.102479 0.10394
H_ H_ 0.752741 0.201917 0.173659 0.10394
H_ H_ 0.740219 0.338601 0.268116 0.10394
H_ H_ 0.703232 0.387941 0.193344 0.10394
H_ H_ 0.714927 0.374841 0.444126 0.10394
H_ H_ 0.771811 0.379304 0.377761 0.10394
H_ H_ 0.89086 0.419625 0.485528 0.10394
H_ H_ 0.81294 0.414052 0.160901 0.10394
H_ H_ 0.734151 0.466574 0.189823 0.10394
H_ H_ 0.833469 0.0475033 0.276638 0.10394
H_ H_ 0.905105 0.519225 0.241831 0.10394
H_ H_ 0.501345 0.393409 0.212787 0.10394
H_ H_ 0.554474 0.316196 0.250514 0.10394
H_ H_ 0.911652 0.251914 0.220226 0.10394
H_ H_ 0.867848 0.340599 0.195727 0.10394
H_ H_ 0.95465 0.0532078 0.100215 0.10394
H_ H_ 0.508578 0.114129 0.102299 0.10394
H_ H_ 0.638068 0.00436275 0.0875637 0.10394
H_ H_ 0.939009 0.160024 0.405881 0.10394
H_ H_ 0.520709 0.188424 0.450131 0.10394
H_ H_ 0.919382 0.274145 0.0532124 0.10394
H_ H_ 0.838736 0.245099 0.503515 0.10394
H_ H_ 0.732056 0.198065 0.383214 0.10394
H_ H_ 0.6976 0.240165 0.304723 0.10394
H_ H_ 0.844699 0.234578 0.255566 0.10394
H_ H_ 0.88288 0.189045 0.334084 0.10394
H_ H_ 0.78549 0.106712 0.0639942 0.10394
H_ H_ 0.730644 0.0946467 0.123129 0.10394
H_ H_ 0.604597 0.0920333 0.00856217 0.10394
C_ C_ 0.681303 0.097757 0.297811 0.18167
C_ C_ 0.724191 0.0758344 0.273696 -0.15533
C_ C_ 0.734742 0.0242884 0.270034 0.02923
C_ C_ 0.697894 0.492896 0.285811 -0.15533
C_ C_ 0.661364 0.0152623 0.311381 0.18167
C_ C_ 0.526963 0.138596 0.279111 0.18167
C_ C_ 0.00655072 0.188351 0.242219 -0.15533
C_ C_ 0.511883 0.230078 0.269283 0.02923
C_ C_ 0.543454 0.235726 0.31254 -0.15533
C_ C_ 0.56232 0.194849 0.341631 0.18167
C_ C_ 0.513047 0.0464022 0.3766 0.69207
C_ C_ 0.973738 0.514746 0.379761 0.02923
C_ C_ 0.991757 0.464421 0.375145 -0.15533
C_ C_ 0.962533 0.425597 0.385214 -0.15533
C_ C_ 0.910314 0.437553 0.390058 0.02923
C_ C_ 0.890481 0.487039 0.392859 -0.15533
C_ C_ 0.923711 0.525881 0.387951 0.02923
C_ C_ 0.894561 0.07253 0.389541 0.69207
C_ C_ 0.897897 0.339024 0.387831 0.69661
C_ C_ 0.566216 0.302176 0.0970901 0.18167
C_ C_ 0.524633 0.276586 0.0755405 -0.15533
C_ C_ 0.517571 0.268029 0.0208132 0.02923
C_ C_ 0.549934 0.289714 0.492735 -0.15533
C_ C_ 0.594547 0.309227 0.0157351 0.18167
C_ C_ 0.711341 0.268064 0.139957 0.18167
C_ C_ 0.741271 0.241581 0.177944 -0.15533
C_ C_ 0.74763 0.264956 0.227079 0.02923
C_ C_ 0.742155 0.319523 0.22927 -0.15533
C_ C_ 0.71504 0.346525 0.189242 0.18167
C_ C_ 0.746162 0.364564 0.0494609 0.69207
C_ C_ 0.773512 0.386724 0.508688 0.02923
C_ C_ 0.755463 0.378524 0.456157 -0.15533
C_ C_ 0.787395 0.385653 0.417014 -0.15533
C_ C_ 0.835217 0.402035 0.428359 0.02923
C_ C_ 0.854551 0.406204 0.480015 -0.15533
C_ C_ 0.824361 0.396552 0.519813 0.02923
C_ C_ 0.856564 0.390326 0.0753865 0.69207
C_ C_ 0.846347 0.396461 0.329477 0.69661
C_ C_ 0.817174 0.442822 0.191901 0.18167
C_ C_ 0.772327 0.470256 0.209453 -0.15533
C_ C_ 0.77835 0.50823 0.247575 0.02923
C_ C_ 0.829043 0.016514 0.24853 -0.15533
C_ C_ 0.867448 0.505986 0.230587 0.18167
C_ C_ 0.989207 0.364088 0.209346 0.18167
C_ C_ 0.514476 0.3159 0.236118 -0.15533
C_ C_ 0.984797 0.28154 0.242254 0.02923
C_ C_ 0.931788 0.286484 0.222572 -0.15533
C_ C_ 0.90921 0.331795 0.201375 0.18167
C_ C_ 0.993804 0.458751 0.129029 0.69207
C_ C_ 0.516742 0.987069 0.113686 0.02923
C_ C_ 0.498921 0.0390485 0.120945 -0.15533
C_ C_ 0.527518 0.0768625 0.108385 -0.15533
C_ C_ 0.577802 0.0670738 0.099475 0.02923
C_ C_ 0.597936 0.0157385 0.0919098 -0.15533
C_ C_ 0.567448 0.975983 0.0984592 0.02923
C_ C_ 0.608901 0.424654 0.12945 0.69207
C_ C_ 0.594038 0.163414 0.11574 0.69661
C_ C_ 0.933465 0.186554 0.439911 0.18167
C_ C_ 0.976094 0.203768 0.471955 -0.15533
C_ C_ 0.967343 0.248843 0.505808 0.02923
C_ C_ 0.92338 0.253174 0.0169094 -0.15533
C_ C_ 0.876892 0.233963 0.495096 0.18167
C_ C_ 0.760272 0.205652 0.354986 0.18167
C_ C_ 0.737326 0.221964 0.308209 -0.15533
C_ C_ 0.768713 0.233178 0.270607 0.02923
C_ C_ 0.821557 0.220721 0.280468 -0.15533
C_ C_ 0.84271 0.198261 0.325457 0.18167
C_ C_ 0.763086 0.124572 0.460794 0.69207
C_ C_ 0.726115 0.117517 0.999191 0.02923
C_ C_ 0.74458 0.111403 0.0519085 -0.15533
C_ C_ 0.712048 0.10596 0.0882915 -0.15533
C_ C_ 0.656518 0.105518 0.0735994 0.02923
C_ C_ 0.639216 0.108672 0.0219548 -0.15533
C_ C_ 0.67349 0.113505 0.98571 0.02923
C_ C_ 0.654968 0.105662 0.432894 0.69207
C_ C_ 0.643729 0.101494 0.167829 0.69661
C_ C_ 0.873214 0.394355 0.385569 -0.30787
C_ C_ 0.617154 0.107462 0.112911 -0.30787
N_ N_ 0.646906 0.0669049 0.310421 -0.32189
N_ N_ 0.551343 0.147995 0.325172 -0.32189
N_ N_ 0.601444 0.318129 0.0674719 -0.32189
N_ N_ 0.699098 0.319523 0.146258 -0.32189
N_ N_ 0.862128 0.464767 0.197114 -0.32189
N_ N_ 0.938655 0.368251 0.196074 -0.32189
N_ N_ 0.886981 0.196679 0.456084 -0.32189
N_ N_ 0.811078 0.18991 0.361131 -0.32189
O_ O_ 0.00479349 0.0902322 0.394395 -0.63271
O_ O_ 0.547187 0.0422192 0.342753 -0.57982
O_ O_ 0.892355 0.0985161 0.348499 -0.63271
O_ O_ 0.869363 0.0916887 0.426765 -0.57982
O_ O_ 0.750216 0.386868 0.0954131 -0.63271
O_ O_ 0.706126 0.34052 0.0367544 -0.57982
O_ O_ 0.874813 0.346093 0.0922146 -0.63271
O_ O_ 0.874814 0.431517 0.0949132 -0.57982
O_ O_ 0.498012 0.407212 0.115648 -0.63271
O_ O_ 0.962408 0.466393 0.165906 -0.57982
O_ O_ 0.600474 0.39321 0.164246 -0.63271
O_ O_ 0.645146 0.412393 0.0998651 -0.57982
O_ O_ 0.75956 0.100963 0.415067 -0.63271
O_ O_ 0.79217 0.160984 0.466685 -0.57982
O_ O_ 0.655992 0.148887 0.408822 -0.63271
O_ O_ 0.62156 0.0740736 0.413636 -0.57982
F_ F_ 0.932702 0.336273 0.43025 -0.20885
F_ F_ 0.923665 0.322774 0.34635 -0.20885
F_ F_ 0.860783 0.306721 0.39018 -0.20885
F_ F_ 0.808312 0.435017 0.326126 -0.20885
F_ F_ 0.821649 0.35507 0.311169 -0.20885
F_ F_ 0.877019 0.404128 0.292054 -0.20885
F_ F_ 0.56531 0.176712 0.070439 -0.20885
F_ F_ 0.561265 0.172918 0.151009 -0.20885
F_ F_ 0.63105 0.197395 0.123703 -0.20885
F_ F_ 0.672838 0.0545228 0.170029 -0.20885
F_ F_ 0.676686 0.138999 0.186657 -0.20885
F_ F_ 0.607113 0.101852 0.202153 -0.20885
Zn Zn 0.587849 0.0826001 0.848422 0.83971
Zn Zn 0.660674 0.347365 0.59052 0.83971
Zn Zn 0.911116 0.42114 0.658847 0.83971
Zn Zn 0.84306 0.150469 0.922693 0.83971
H_ H_ 0.666015 0.132104 0.810717 0.10394
H_ H_ 0.741296 0.10646 0.768101 0.10394
H_ H_ 0.69637 0.446044 0.764337 0.10394
H_ H_ 0.644392 0.981717 0.83368 0.10394
H_ H_ 0.0313822 0.0986806 0.751407 0.10394
H_ H_ 0.98718 0.171787 0.709538 0.10394
H_ H_ 0.532312 0.271016 0.835805 0.10394
H_ H_ 0.571798 0.193763 0.878849 0.10394
H_ H_ 0.539389 0.438387 0.883947 0.10394
H_ H_ 0.98304 0.373314 0.87711 0.10394
H_ H_ 0.859253 0.491206 0.906606 0.10394
H_ H_ 0.580671 0.310721 0.63702 0.10394
H_ H_ -0.0049639999999999684 0.28174 0.601177 0.10394
H_ H_ 0.561673 0.270644 0.954969 0.10394
H_ H_ 0.615786 0.329099 0.488147 0.10394
H_ H_ 0.733973 0.250743 0.60377 0.10394
H_ H_ 0.778077 0.20871 0.679776 0.10394
H_ H_ 0.726403 0.34026 0.771012 0.10394
H_ H_ 0.675874 0.376576 0.694436 0.10394
H_ H_ 0.720048 0.375412 0.948699 0.10394
H_ H_ 0.771787 0.370987 0.878208 0.10394
H_ H_ 0.901898 0.397827 0.98903 0.10394
H_ H_ 0.809443 0.40193 0.657699 0.10394
H_ H_ 0.733595 0.451727 0.684996 0.10394
H_ H_ 0.836994 0.0419727 0.779589 0.10394
H_ H_ 0.903363 0.5021 0.741949 0.10394
H_ H_ 0.510141 0.387289 0.706507 0.10394
H_ H_ 0.55385 0.308883 0.739835 0.10394
H_ H_ 0.910335 0.243848 0.712453 0.10394
H_ H_ 0.869902 0.322946 0.67994 0.10394
H_ H_ 0.955604 0.0415889 0.587821 0.10394
H_ H_ 0.527797 0.114177 0.63246 0.10394
H_ H_ 0.650517 0.00128005 0.592514 0.10394
H_ H_ 0.945996 0.153264 0.908139 0.10394
H_ H_ 0.51361 0.193223 0.948532 0.10394
H_ H_ 0.910163 0.294083 0.543816 0.10394
H_ H_ 0.849912 0.223979 0.013190000000000035 0.10394
H_ H_ 0.732477 0.189749 0.885951 0.10394
H_ H_ 0.699534 0.247211 0.814888 0.10394
H_ H_ 0.845311 0.224658 0.756542 0.10394
H_ H_ 0.883713 0.188237 0.841609 0.10394
H_ H_ 0.786958 0.131516 0.565729 0.10394
H_ H_ 0.736779 0.104136 0.626197 0.10394
H_ H_ 0.609332 0.0838089 0.512932 0.10394
C_ C_ 0.67859 0.093189 0.803317 0.18167
C_ C_ 0.723766 0.0771004 0.781942 -0.15533
C_ C_ 0.738331 0.0233364 0.77377 0.02923
C_ C_ 0.694045 0.48436 0.78082 -0.15533
C_ C_ 0.665285 0.00916291 0.815976 0.18167
C_ C_ 0.531422 0.135426 0.767009 0.18167
C_ C_ 0.00691863 0.177555 0.744235 -0.15533
C_ C_ 0.511527 0.22845 0.764851 0.02923
C_ C_ 0.531898 0.233926 0.815344 -0.15533
C_ C_ 0.553634 0.189474 0.83933 0.18167
C_ C_ 0.515169 0.0405518 0.87438 0.69207
C_ C_ 0.975752 0.502574 0.87271 0.02923
C_ C_ 0.99488 0.45008 0.870624 -0.15533
C_ C_ 0.965576 0.413771 0.882319 -0.15533
C_ C_ 0.915891 0.424946 0.893941 0.02923
C_ C_ 0.897232 0.476961 0.897182 -0.15533
C_ C_ 0.926445 0.516372 0.888722 0.02923
C_ C_ 0.895537 0.0687566 0.881335 0.69207
C_ C_ 0.900762 0.32703 0.883488 0.69661
C_ C_ 0.574206 0.299618 0.597628 0.18167
C_ C_ 0.530417 0.275288 0.577316 -0.15533
C_ C_ 0.519013 0.266309 0.524384 0.02923
C_ C_ 0.555788 0.282064 0.992645 -0.15533
C_ C_ 0.589229 0.316539 0.513425 0.18167
C_ C_ 0.729245 0.269138 0.64067 0.18167
C_ C_ 0.755561 0.245261 0.685563 -0.15533
C_ C_ 0.74753 0.267765 0.7339 0.02923
C_ C_ 0.723521 0.319158 0.736447 -0.15533
C_ C_ 0.696547 0.339417 0.692441 0.18167
C_ C_ 0.736834 0.383377 0.54819 0.69207
C_ C_ 0.777092 0.382588 1.00993394 0.02923
C_ C_ 0.758209 0.381421 0.959295 -0.15533
C_ C_ 0.789152 0.379061 0.918737 -0.15533
C_ C_ 0.84043 0.388031 0.928268 0.02923
C_ C_ 0.860829 0.393997 0.980222 -0.15533
C_ C_ 0.829575 0.393243 0.0209668 0.02923
C_ C_ 0.849699 0.388702 0.571047 0.69207
C_ C_ 0.850971 0.387722 0.83158 0.69661
C_ C_ 0.812713 0.432826 0.684005 0.18167
C_ C_ 0.769799 0.461806 0.703578 -0.15533
C_ C_ 0.774897 0.498638 0.744014 0.02923
C_ C_ 0.825905 0.0189657 0.743833 -0.15533
C_ C_ 0.866108 0.489142 0.734184 0.18167
C_ C_ 0.986916 0.356122 0.710447 0.18167
C_ C_ 0.515256 0.307425 0.719848 -0.15533
C_ C_ 0.981068 0.274655 0.743011 0.02923
C_ C_ 0.933478 0.275651 0.714343 -0.15533
C_ C_ 0.910253 0.320321 0.692839 0.18167
C_ C_ 0.991562 0.45668 0.632739 0.69207
C_ C_ 0.527577 0.986878 0.61569 0.02923
C_ C_ 0.50891 0.0383466 0.617803 -0.15533
C_ C_ 0.541088 0.0743143 0.62285 -0.15533
C_ C_ 0.592005 0.0633458 0.609655 0.02923
C_ C_ 0.609913 0.010622 0.598106 -0.15533
C_ C_ 0.578169 0.971793 0.604997 0.02923
C_ C_ 0.594856 0.422344 0.612139 0.69207
C_ C_ 0.610334 0.158094 0.613842 0.69661
C_ C_ 0.941135 0.18492 0.934412 0.18167
C_ C_ 0.981868 0.210228 0.957984 -0.15533
C_ C_ 0.972954 0.249922 -0.00510465 0.02923
C_ C_ 0.91668 0.262659 0.516214 -0.15533
C_ C_ 0.884502 0.222591 0.994287 0.18167
C_ C_ 0.759368 0.205336 0.859911 0.18167
C_ C_ 0.737998 0.229359 0.816467 -0.15533
C_ C_ 0.769179 0.241321 0.781213 0.02923
C_ C_ 0.822555 0.224977 0.788319 -0.15533
C_ C_ 0.842302 0.19947 0.833075 0.18167
C_ C_ 0.762432 0.122161 0.959083 0.69207
C_ C_ 0.727895 0.119684 0.499937 0.02923
C_ C_ 0.749628 0.117273 0.552097 -0.15533
C_ C_ 0.719906 0.10237 0.587877 -0.15533
C_ C_ 0.668616 0.0938517 0.575961 0.02923
C_ C_ 0.649826 0.0901714 0.523946 -0.15533
C_ C_ 0.678756 0.103107 0.486473 0.02923
C_ C_ 0.650957 0.114365 0.931169 0.69207
C_ C_ 0.657509 0.0976033 0.672015 0.69661
C_ C_ 0.876623 0.383698 0.887859 -0.30787
C_ C_ 0.631699 0.103566 0.618262 -0.30787
N_ N_ 0.648367 0.0593794 0.815746 -0.32189
N_ N_ 0.555385 0.142512 0.815136 -0.32189
N_ N_ 0.604989 0.316457 0.563775 -0.32189
N_ N_ 0.70122 0.315759 0.645369 -0.32189
N_ N_ 0.859247 0.451997 0.695341 -0.32189
N_ N_ 0.937947 0.358393 0.687602 -0.32189
N_ N_ 0.893586 0.191462 0.952563 -0.32189
N_ N_ 0.809672 0.187132 0.865195 -0.32189
O_ O_ 0.00913749 0.0857173 0.893279 -0.63271
O_ O_ 0.55591 0.0261928 0.852636 -0.57982
O_ O_ 0.895549 0.0990159 0.843737 -0.63271
O_ O_ 0.873909 0.0873998 0.92177 -0.57982
O_ O_ 0.738554 0.414073 0.587362 -0.63271
O_ O_ 0.702929 0.349894 0.541531 -0.57982
O_ O_ 0.849404 0.344618 0.59214 -0.63271
O_ O_ 0.879533 0.423427 0.592589 -0.57982
O_ O_ 0.490899 0.407002 0.599197 -0.63271
O_ O_ 0.95655 0.469075 0.666101 -0.57982
O_ O_ 0.592495 0.399397 0.654542 -0.63271
O_ O_ 0.632038 0.407415 0.586256 -0.57982
O_ O_ 0.751346 0.103058 0.911605 -0.63271
O_ O_ 0.800147 0.150667 0.968815 -0.57982
O_ O_ 0.655813 0.152913 0.903552 -0.63271
O_ O_ 0.614158 0.0857303 0.915737 -0.57982
F_ F_ 0.938716 0.320204 0.924867 -0.20885
F_ F_ 0.927245 0.311326 0.84064 -0.20885
F_ F_ 0.862851 0.293709 0.891362 -0.20885
F_ F_ 0.815345 0.429708 0.825541 -0.20885
F_ F_ 0.826612 0.346096 0.810868 -0.20885
F_ F_ 0.885653 0.393276 0.795273 -0.20885
F_ F_ 0.577351 0.159023 0.570139 -0.20885
F_ F_ 0.589245 0.179347 0.657798 -0.20885
F_ F_ 0.647167 0.19075 0.608636 -0.20885
F_ F_ 0.683519 0.0514293 0.67662 -0.20885
F_ F_ 0.69104 0.132794 0.688046 -0.20885
F_ F_ 0.619127 0.099914 0.70679 -0.20885
Zn Zn 0.581985 0.585552 0.349262 0.83971
Zn Zn 0.659885 0.847319 0.0776382 0.83971
Zn Zn 0.906965 0.912935 0.144073 0.83971
Zn Zn 0.834321 0.657825 0.416739 0.83971
H_ H_ 0.668639 0.638359 0.320053 0.10394
H_ H_ 0.748531 0.602891 0.282681 0.10394
H_ H_ 0.710911 0.951703 0.283662 0.10394
H_ H_ 0.626293 0.484579 0.313213 0.10394
H_ H_ 0.0443523 0.596471 0.252944 0.10394
H_ H_ 0.996619 0.663099 0.19761 0.10394
H_ H_ 0.539496 0.768989 0.330757 0.10394
H_ H_ 0.573662 0.695574 0.377414 0.10394
H_ H_ 0.537122 0.941741 0.359195 0.10394
H_ H_ 0.977592 0.877288 0.38728 0.10394
H_ H_ 0.849926 0.989113 0.39962 0.10394
H_ H_ 0.579472 0.799436 0.129035 0.10394
H_ H_ 0.999703534 0.769488 0.0932722 0.10394
H_ H_ 0.547976 0.783305 0.447212 0.10394
H_ H_ 0.607879 0.829245 0.977857 0.10394
H_ H_ 0.730064 0.75508 0.090742 0.10394
H_ H_ 0.763128 0.706811 0.162153 0.10394
H_ H_ 0.708303 0.833694 0.263232 0.10394
H_ H_ 0.667147 0.876247 0.189259 0.10394
H_ H_ 0.714652 0.867217 0.446389 0.10394
H_ H_ 0.758435 0.882136 0.373458 0.10394
H_ H_ 0.896039 0.898008 0.477387 0.10394
H_ H_ 0.802942 0.900006 0.157354 0.10394
H_ H_ 0.735197 0.941888 0.200564 0.10394
H_ H_ 0.831046 0.561261 0.28395 0.10394
H_ H_ 0.906339 1.00449948 0.225658 0.10394
H_ H_ 0.49775 0.886691 0.211155 0.10394
H_ H_ 0.544046 0.80608 0.241742 0.10394
H_ H_ 0.902394 0.751365 0.231291 0.10394
H_ H_ 0.864058 0.829447 0.178496 0.10394
H_ H_ 0.968891 0.558566 0.124194 0.10394
H_ H_ 0.520474 0.621925 0.130623 0.10394
H_ H_ 0.649227 0.507155 0.105147 0.10394
H_ H_ 0.931736 0.672952 0.38603 0.10394
H_ H_ 0.519208 0.695152 0.440199 0.10394
H_ H_ 0.912649 0.789661 0.0275172 0.10394
H_ H_ 0.846881 0.727956 0.512262 0.10394
H_ H_ 0.735385 0.711994 0.38749 0.10394
H_ H_ 0.695155 0.756334 0.308024 0.10394
H_ H_ 0.83249 0.714332 0.234113 0.10394
H_ H_ 0.871752 0.676167 0.312588 0.10394
H_ H_ 0.787444 0.618765 0.0612045 0.10394
H_ H_ 0.737046 0.607509 0.125103 0.10394
H_ H_ 0.610678 0.582239 0.0135452 0.10394
C_ C_ 0.678788 0.597189 0.314392 0.18167
C_ C_ 0.721318 0.578487 0.289729 -0.15533
C_ C_ 0.733632 0.526575 0.278981 0.02923
C_ C_ 0.704006 0.992957 0.289705 -0.15533
C_ C_ 0.65298 0.512999 0.306632 0.18167
C_ C_ 0.520247 0.634549 0.273273 0.18167
C_ C_ 0.00865999999999989 0.672377 0.236243 -0.15533
C_ C_ 0.498999 0.725492 0.269077 0.02923
C_ C_ 0.527819 0.733611 0.31758 -0.15533
C_ C_ 0.548784 0.691091 0.342731 0.18167
C_ C_ 0.506378 0.545136 0.374896 0.69207
C_ C_ 0.97094 0.00694027 0.380042 0.02923
C_ C_ -0.011290000000000022 0.953249 0.372656 -0.15533
C_ C_ 0.958637 0.916421 0.385122 -0.15533
C_ C_ 0.908674 0.926506 0.389474 0.02923
C_ C_ 0.891255 0.978873 0.396763 -0.15533
C_ C_ 0.920532 0.0196513 0.391822 0.02923
C_ C_ 0.898897 0.576031 0.385908 0.69207
C_ C_ 0.894889 0.830215 0.382304 0.69661
C_ C_ 0.568842 0.797242 0.0884963 0.18167
C_ C_ 0.526727 0.77538 0.0700924 -0.15533
C_ C_ 0.514643 0.767192 0.0167085 0.02923
C_ C_ 0.553698 0.788099 0.488442 -0.15533
C_ C_ 0.585549 0.813315 0.00631792 0.18167
C_ C_ 0.721199 0.770421 0.128972 0.18167
C_ C_ 0.740345 0.742958 0.17107 -0.15533
C_ C_ 0.736182 0.763948 0.220612 0.02923
C_ C_ 0.70827 0.812974 0.226834 -0.15533
C_ C_ 0.687802 0.837867 0.182811 0.18167
C_ C_ 0.739351 0.856142 0.0325522 0.69207
C_ C_ 0.773847 0.883584 0.501985 0.02923
C_ C_ 0.75307 0.875108 0.451591 -0.15533
C_ C_ 0.780997 0.879666 0.410805 -0.15533
C_ C_ 0.833858 0.889205 0.418889 0.02923
C_ C_ 0.853018 0.898892 0.468541 -0.15533
C_ C_ 0.825274 0.892929 0.511115 0.02923
C_ C_ 0.851941 0.874264 0.0597321 0.69207
C_ C_ 0.845874 0.889995 0.32173 0.69661
C_ C_ 0.81058 0.937933 0.176997 0.18167
C_ C_ 0.771338 0.9592 0.20668 -0.15533
C_ C_ 0.779319 1.00146673 0.24024 0.02923
C_ C_ 0.825291 0.526197 0.257017 -0.15533
C_ C_ 0.868954 0.991899 0.220378 0.18167
C_ C_ 0.98753 0.842742 0.185269 0.18167
C_ C_ 0.502857 0.811413 0.237246 -0.15533
C_ C_ 0.97716 0.76434 0.22402 0.02923
C_ C_ 0.925815 0.774689 0.214037 -0.15533
C_ C_ 0.904411 0.821209 0.189154 0.18167
C_ C_ 0.983864 0.949968 0.114192 0.69207
C_ C_ 0.526474 0.491538 0.129596 0.02923
C_ C_ 0.506989 0.543853 0.130479 -0.15533
C_ C_ 0.53825 0.582106 0.128885 -0.15533
C_ C_ 0.589671 0.570293 0.118135 0.02923
C_ C_ 0.607607 0.517382 0.111459 -0.15533
C_ C_ 0.580085 0.478627 0.126993 0.02923
C_ C_ 0.594686 0.925045 0.0996218 0.69207
C_ C_ 0.599878 0.661184 0.102487 0.69661
C_ C_ 0.92882 0.689964 0.422614 0.18167
C_ C_ 0.974923 0.705424 0.450022 -0.15533
C_ C_ 0.972693 0.734392 0.496588 0.02923
C_ C_ 0.92211 0.754329 1.00986169 -0.15533
C_ C_ 0.88134 0.723702 0.490836 0.18167
C_ C_ 0.756076 0.710361 0.352338 0.18167
C_ C_ 0.732124 0.735616 0.309253 -0.15533
C_ C_ 0.759251 0.734616 0.264508 0.02923
C_ C_ 0.810718 0.716922 0.267439 -0.15533
C_ C_ 0.832072 0.693117 0.311798 0.18167
C_ C_ 0.757539 0.632903 0.457214 0.69207
C_ C_ 0.729538 0.614461 0.997913 0.02923
C_ C_ 0.749006 0.613192 0.0496522 -0.15533
C_ C_ 0.718705 0.607546 0.0870587 -0.15533
C_ C_ 0.667818 0.597066 0.0757415 0.02923
C_ C_ 0.64828 0.592145 0.023033 -0.15533
C_ C_ 0.678203 0.603318 0.984154 0.02923
C_ C_ 0.646479 0.61506 0.429822 0.69207
C_ C_ 0.65197 0.61307 0.171522 0.69661
C_ C_ 0.870751 0.886865 0.377578 -0.30787
C_ C_ 0.628214 0.609269 0.115837 -0.30787
N_ N_ 0.643838 0.564139 0.321343 -0.32189
N_ N_ 0.546452 0.643485 0.320749 -0.32189
N_ N_ 0.598589 0.816899 0.0570057 -0.32189
N_ N_ 0.691179 0.814563 0.1355 -0.32189
N_ N_ 0.85889 0.953369 0.184772 -0.32189
N_ N_ 0.935406 0.852925 0.1733 -0.32189
N_ N_ 0.882587 0.700608 0.442707 -0.32189
N_ N_ 0.804897 0.687826 0.352119 -0.32189
O_ O_ -0.00157737 0.600199 0.399628 -0.63271
O_ O_ 0.544416 0.536533 0.346279 -0.57982
O_ O_ 0.89296 0.5986 0.345769 -0.63271
O_ O_ 0.869365 0.594133 0.421731 -0.57982
O_ O_ 0.749779 0.873665 0.080295 -0.63271
O_ O_ 0.695895 0.835119 0.0216981 -0.57982
O_ O_ 0.852492 0.833908 0.0868143 -0.63271
O_ O_ 0.874928 0.91253 0.0824544 -0.57982
O_ O_ 0.488516 0.900383 0.106543 -0.63271
O_ O_ 0.951801 0.959302 0.149579 -0.57982
O_ O_ 0.591063 0.898714 0.139198 -0.63271
O_ O_ 0.630403 0.909811 0.0695131 -0.57982
O_ O_ 0.762894 0.604262 0.414463 -0.63271
O_ O_ 0.79261 0.663086 0.466968 -0.57982
O_ O_ 0.647769 0.65471 0.403104 -0.63271
O_ O_ 0.613246 0.5824 0.411901 -0.57982
F_ F_ 0.925924 0.822152 0.426795 -0.20885
F_ F_ 0.9223 0.815388 0.340561 -0.20885
F_ F_ 0.858564 0.797342 0.382766 -0.20885
F_ F_ 0.817625 0.935436 0.313462 -0.20885
F_ F_ 0.813124 0.852021 0.304066 -0.20885
F_ F_ 0.88463 0.889417 0.287278 -0.20885
F_ F_ 0.561545 0.658416 0.0624767 -0.20885
F_ F_ 0.578593 0.691425 0.141039 -0.20885
F_ F_ 0.63279 0.693051 0.085484 -0.20885
F_ F_ 0.680191 0.567035 0.183646 -0.20885
F_ F_ 0.682486 0.655076 0.178237 -0.20885
F_ F_ 0.61752 0.626495 0.206669 -0.20885
Zn Zn 0.58814 0.57867 0.850717 0.83971
Zn Zn 0.669774 0.841405 0.585121 0.83971
Zn Zn 0.906137 0.917277 0.648639 0.83971
Zn Zn 0.839632 0.650645 0.918456 0.83971
H_ H_ 0.663015 0.629408 0.81194 0.10394
H_ H_ 0.749181 0.597309 0.782654 0.10394
H_ H_ 0.715742 0.949648 0.784125 0.10394
H_ H_ 0.624651 0.475106 0.814444 0.10394
H_ H_ 0.00597384 0.59321 0.753019 0.10394
H_ H_ 0.965213 0.666287 0.704619 0.10394
H_ H_ 0.540197 0.760955 0.827657 0.10394
H_ H_ 0.576759 0.687167 0.876613 0.10394
H_ H_ 0.53323 0.940963 0.861695 0.10394
H_ H_ 0.987552 0.876002 0.887451 0.10394
H_ H_ 0.852959 0.984085 0.895039 0.10394
H_ H_ 0.592287 0.793244 0.635708 0.10394
H_ H_ -0.00308638 0.765977 0.592227 0.10394
H_ H_ 0.532068 0.788247 0.94451 0.10394
H_ H_ 0.620536 0.829825 0.483905 0.10394
H_ H_ 0.7141 0.736807 0.603557 0.10394
H_ H_ 0.760301 0.695196 0.674389 0.10394
H_ H_ 0.718147 0.821586 0.776563 0.10394
H_ H_ 0.687861 0.871762 0.700855 0.10394
H_ H_ 0.722681 0.836445 0.92552 0.10394
H_ H_ 0.780915 0.844668 0.86667 0.10394
H_ H_ 0.887791 0.908386 0.981098 0.10394
H_ H_ 0.800476 0.897354 0.662321 0.10394
H_ H_ 0.727489 0.954871 0.692597 0.10394
H_ H_ 0.829898 0.543074 0.788375 0.10394
H_ H_ 0.907603 0.99565746 0.731114 0.10394
H_ H_ 0.514905 0.872342 0.703295 0.10394
H_ H_ 0.552939 0.788618 0.745645 0.10394
H_ H_ 0.902239 0.742108 0.711109 0.10394
H_ H_ 0.86819 0.819798 0.670057 0.10394
H_ H_ 0.965569 0.558037 0.625647 0.10394
H_ H_ 0.518176 0.619597 0.626644 0.10394
H_ H_ 0.637503 0.506201 0.574335 0.10394
H_ H_ 0.941187 0.65244 0.897924 0.10394
H_ H_ 0.523368 0.689943 0.942689 0.10394
H_ H_ 0.918648 0.7599 0.551956 0.10394
H_ H_ 0.843234 0.733635 0.997498 0.10394
H_ H_ 0.73095 0.680635 0.879893 0.10394
H_ H_ 0.688615 0.724292 0.804717 0.10394
H_ H_ 0.836585 0.706478 0.743228 0.10394
H_ H_ 0.878308 0.683323 0.827451 0.10394
H_ H_ 0.785506 0.611004 0.551939 0.10394
H_ H_ 0.737983 0.603082 0.61961 0.10394
H_ H_ 0.603332 0.595871 0.51181 0.10394
C_ C_ 0.674148 0.586992 0.804164 0.18167
C_ C_ 0.721606 0.569373 0.787563 -0.15533
C_ C_ 0.730148 0.518039 0.771389 0.02923
C_ C_ 0.711106 0.990118 0.796909 -0.15533
C_ C_ 0.650899 0.503656 0.806574 0.18167
C_ C_ 0.520948 0.624978 0.775132 0.18167
C_ C_ -0.00799099999999997 0.671486 0.738536 -0.15533
C_ C_ 0.499638 0.71728 0.767376 0.02923
C_ C_ 0.528839 0.724156 0.815824 -0.15533
C_ C_ 0.553916 0.68184 0.839793 0.18167
C_ C_ 0.516006 0.538789 0.882119 0.69207
C_ C_ 0.97322 0.00527565 0.871387 0.02923
C_ C_ -0.004557000000000033 0.954795 0.871475 -0.15533
C_ C_ 0.968312 0.9145 0.884325 -0.15533
C_ C_ 0.913338 0.924692 0.885813 0.02923
C_ C_ 0.891967 0.976494 0.892335 -0.15533
C_ C_ 0.920196 0.0162614 0.879306 0.02923
C_ C_ 0.902014 0.567205 0.883723 0.69207
C_ C_ 0.900225 0.826855 0.870599 0.69661
C_ C_ 0.58235 0.794611 0.593607 0.18167
C_ C_ 0.532942 0.782904 0.574946 -0.15533
C_ C_ 0.521135 0.771558 0.520443 0.02923
C_ C_ 0.544772 0.786888 0.983788 -0.15533
C_ C_ 0.598716 0.809069 0.509123 0.18167
C_ C_ 0.72049 0.759232 0.638397 0.18167
C_ C_ 0.741553 0.73183 0.678683 -0.15533
C_ C_ 0.740055 0.753846 0.72842 0.02923
C_ C_ 0.718572 0.804008 0.737572 -0.15533
C_ C_ 0.699746 0.830536 0.695301 0.18167
C_ C_ 0.744022 0.870043 0.542776 0.69207
C_ C_ 0.776417 0.858974 0.992804 0.02923
C_ C_ 0.756981 0.853729 0.939567 -0.15533
C_ C_ 0.787568 0.864061 0.901313 -0.15533
C_ C_ 0.835259 0.882912 0.914112 0.02923
C_ C_ 0.850671 0.889832 0.966858 -0.15533
C_ C_ 0.824007 0.875707 0.00719358 0.02923
C_ C_ 0.853515 0.885241 0.563053 0.69207
C_ C_ 0.855868 0.888619 0.818488 0.69661
C_ C_ 0.80582 0.934328 0.678255 0.18167
C_ C_ 0.766202 0.962335 0.704217 -0.15533
C_ C_ 0.777222 0.00331169 0.737883 0.02923
C_ C_ 0.82281 0.516256 0.755683 -0.15533
C_ C_ 0.865246 0.99006702 0.720809 0.18167
C_ C_ 0.985242 0.851561 0.701148 0.18167
C_ C_ 0.513171 0.796877 0.729631 -0.15533
C_ C_ 0.976964 0.768674 0.730422 0.02923
C_ C_ 0.927337 0.772548 0.706203 -0.15533
C_ C_ 0.906974 0.816872 0.681421 0.18167
C_ C_ 0.9915 0.948669 0.620951 0.69207
C_ C_ 0.520863 0.49078 0.617808 0.02923
C_ C_ 0.504468 0.54195 0.622011 -0.15533
C_ C_ 0.536367 0.580014 0.621959 -0.15533
C_ C_ 0.586624 0.565974 0.604631 0.02923
C_ C_ 0.603991 0.514704 0.596182 -0.15533
C_ C_ 0.571788 0.47632 0.606841 0.02923
C_ C_ 0.602342 0.91911 0.605847 0.69207
C_ C_ 0.605246 0.660664 0.611493 0.69661
C_ C_ 0.934361 0.678621 0.930537 0.18167
C_ C_ 0.976785 0.701391 0.954744 -0.15533
C_ C_ 0.970994 0.740414 0.993647 0.02923
C_ C_ 0.924536 0.742334 0.516913 -0.15533
C_ C_ 0.880814 0.726478 0.983867 0.18167
C_ C_ 0.75508 0.691758 0.854044 0.18167
C_ C_ 0.731117 0.711047 0.808148 -0.15533
C_ C_ 0.761055 0.72172 0.770033 0.02923
C_ C_ 0.813959 0.707073 0.774489 -0.15533
C_ C_ 0.836387 0.687253 0.819909 0.18167
C_ C_ 0.76527 0.617869 0.957153 0.69207
C_ C_ 0.722902 0.620244 0.494139 0.02923
C_ C_ 0.745135 0.609596 0.544328 -0.15533
C_ C_ 0.717031 0.604323 0.583007 -0.15533
C_ C_ 0.662872 0.60086 0.573538 0.02923
C_ C_ 0.641391 0.601161 0.521551 -0.15533
C_ C_ 0.671351 0.611559 0.481895 0.02923
C_ C_ 0.653935 0.605946 0.930801 0.69207
C_ C_ 0.653656 0.595214 0.669087 0.69661
C_ C_ 0.875629 0.882135 0.874212 -0.30787
C_ C_ 0.627387 0.603255 0.614467 -0.30787
N_ N_ 0.642415 0.553968 0.817151 -0.32189
N_ N_ 0.550814 0.633924 0.819064 -0.32189
N_ N_ 0.614163 0.805961 0.559272 -0.32189
N_ N_ 0.700474 0.80941 0.646628 -0.32189
N_ N_ 0.854731 0.949408 0.687421 -0.32189
N_ N_ 0.935354 0.856546 0.680233 -0.32189
N_ N_ 0.887705 0.693408 0.942827 -0.32189
N_ N_ 0.806539 0.68024 0.858864 -0.32189
O_ O_ 1.008323 0.585778 0.89063 -0.63271
O_ O_ 0.549391 0.528788 0.84799 -0.57982
O_ O_ 0.897694 0.589327 0.84139 -0.63271
O_ O_ 0.874563 0.586868 0.919677 -0.57982
O_ O_ 0.740858 0.899235 0.584516 -0.63271
O_ O_ 0.720333 0.829475 0.541895 -0.57982
O_ O_ 0.859215 0.840673 0.582137 -0.63271
O_ O_ 0.872964 0.922069 0.5872 -0.57982
O_ O_ 0.499986 0.901215 0.604847 -0.63271
O_ O_ 0.956908 0.962549 0.652873 -0.57982
O_ O_ 0.607052 0.895394 0.648406 -0.63271
O_ O_ 0.63339 0.901686 0.570069 -0.57982
O_ O_ 0.765692 0.587912 0.916142 -0.63271
O_ O_ 0.796881 0.651299 0.965916 -0.57982
O_ O_ 0.657442 0.643847 0.901641 -0.63271
O_ O_ 0.620783 0.573691 0.914285 -0.57982
F_ F_ 0.926529 0.812373 0.919268 -0.20885
F_ F_ 0.936697 0.814662 0.837001 -0.20885
F_ F_ 0.861466 0.793929 0.856727 -0.20885
F_ F_ 0.825651 0.936869 0.812308 -0.20885
F_ F_ 0.82598 0.852759 0.79299 -0.20885
F_ F_ 0.895658 0.894856 0.788826 -0.20885
F_ F_ 0.570477 0.668556 0.568626 -0.20885
F_ F_ 0.578029 0.679486 0.653803 -0.20885
F_ F_ 0.637214 0.697047 0.61325 -0.20885
F_ F_ 0.686435 0.551043 0.66897 -0.20885
F_ F_ 0.684395 0.633731 0.688577 -0.20885
F_ F_ 0.620633 0.591637 0.705432 -0.20885
_cell_length_a 26.508
_cell_length_b 26.37200000322088
_cell_length_c 26.311999743092066
_cell_angle_alpha 93.74100058972084
_cell_angle_beta 96.04100104955006
_cell_angle_gamma 83.6869992558723
_symmetry_space_group_name_H-M         'P 1'
_symmetry_Int_Tables_number            1
loop_
_symmetry_equiv_pos_as_xyz
   'x, y, z'
                         
loop_
_atom_site_label
_atom_site_type_symbol
_atom_site_fract_x 
_atom_site_fract_y
_atom_site_fract_z
_atom_site_charge
Zn Zn 0.0817341 0.0873747 0.34414 0.83971
Zn Zn 0.162038 0.35325 0.0904358 0.83971
Zn Zn 0.407306 0.421787 0.16544 0.83971
Zn Zn 0.342509 0.153831 0.419204 0.83971
H_ H_ 0.160818 0.133282 0.299499 0.10394
H_ H_ 0.239409 0.102616 0.25854 0.10394
H_ H_ 0.198972 0.452285 0.287059 0.10394
H_ H_ 0.117522 0.985389 0.307373 0.10394
H_ H_ 0.519387 0.0977297 0.266414 0.10394
H_ H_ 0.485144 0.170524 0.213886 0.10394
H_ H_ 0.02564 0.276912 0.342343 0.10394
H_ H_ 0.0610367 0.192616 0.385286 0.10394
H_ H_ 0.0313877 0.45277 0.365193 0.10394
H_ H_ 0.471803 0.377709 0.356412 0.10394
H_ H_ 0.348904 0.490139 0.387613 0.10394
H_ H_ 0.0767575 0.315825 0.13255 0.10394
H_ H_ 0.495702 0.269905 0.101183 0.10394
H_ H_ 0.0333934 0.28394 0.45052 0.10394
H_ H_ 0.118158 0.329228 0.982645 0.10394
H_ H_ 0.231906 0.267537 0.0989593 0.10394
H_ H_ 0.262501 0.207096 0.170319 0.10394
H_ H_ 0.218105 0.329772 0.27283 0.10394
H_ H_ 0.180957 0.382047 0.200144 0.10394
H_ H_ 0.211951 0.380218 0.435913 0.10394
H_ H_ 0.261247 0.402404 0.374375 0.10394
H_ H_ 0.393064 0.399013 0.485568 0.10394
H_ H_ 0.306889 0.402584 0.165309 0.10394
H_ H_ 0.233543 0.453171 0.199438 0.10394
H_ H_ 0.329947 0.0421953 0.275242 0.10394
H_ H_ 0.400176 0.511382 0.235369 0.10394
H_ H_ 0.0114699 0.391893 0.195823 0.10394
H_ H_ 0.0502237 0.324738 0.255219 0.10394
H_ H_ 0.414276 0.242655 0.222924 0.10394
H_ H_ 0.370208 0.321886 0.187223 0.10394
H_ H_ 0.457569 0.0489181 0.119038 0.10394
H_ H_ 0.0102068 0.120785 0.106354 0.10394
H_ H_ 0.137519 0.0119741 0.0754916 0.10394
H_ H_ 0.442656 0.149832 0.404126 0.10394
H_ H_ 0.0137637 0.191278 0.462007 0.10394
H_ H_ 0.415416 0.293408 0.0349227 0.10394
H_ H_ 0.347934 0.238984 0.501557 0.10394
H_ H_ 0.239522 0.181781 0.379312 0.10394
H_ H_ 0.194341 0.213881 0.296984 0.10394
H_ H_ 0.343927 0.238535 0.256778 0.10394
H_ H_ 0.38746 0.197348 0.331978 0.10394
H_ H_ 0.285239 0.105512 0.0569081 0.10394
H_ H_ 0.228178 0.106 0.115949 0.10394
H_ H_ 0.101348 0.102571 0.00272265 0.10394
C_ C_ 0.172094 0.0930589 0.296 0.18167
C_ C_ 0.21685 0.0747651 0.272217 -0.15533
C_ C_ 0.228048 0.0204076 0.265549 0.02923
C_ C_ 0.194052 0.494771 0.292298 -0.15533
C_ C_ 0.147554 0.00871419 0.299999 0.18167
C_ C_ 0.0268181 0.146217 0.26668 0.18167
C_ C_ 0.506953 0.179706 0.249993 -0.15533
C_ C_ 0.00805385 0.235236 0.268612 0.02923
C_ C_ 0.0227931 0.237944 0.320887 -0.15533
C_ C_ 0.0425625 0.192852 0.346448 0.18167
C_ C_ 0.00403417 0.0463885 0.366915 0.69207
C_ C_ 0.472284 0.504846 0.378843 0.02923
C_ C_ 0.48957 0.452872 0.370914 -0.15533
C_ C_ 0.458639 0.416458 0.370906 -0.15533
C_ C_ 0.409643 0.42511 0.384594 0.02923
C_ C_ 0.390078 0.477776 0.388324 -0.15533
C_ C_ 0.421742 0.517844 0.389935 0.02923
C_ C_ 0.395964 0.0705688 0.380683 0.69207
C_ C_ 0.399152 0.32851 0.393164 0.69661
C_ C_ 0.0708085 0.306589 0.0900995 0.18167
C_ C_ 0.0269274 0.286327 0.0689152 -0.15533
C_ C_ 0.0160127 0.278378 0.0160112 0.02923
C_ C_ 0.0437958 0.28877 0.490441 -0.15533
C_ C_ 0.0908143 0.320004 0.00691047 0.18167
C_ C_ 0.22127 0.274606 0.138744 0.18167
C_ C_ 0.244575 0.245105 0.178542 -0.15533
C_ C_ 0.238103 0.26238 0.229472 0.02923
C_ C_ 0.211336 0.310656 0.237254 -0.15533
C_ C_ 0.18985 0.341345 0.196395 0.18167
C_ C_ 0.241475 0.363601 0.0506847 0.69207
C_ C_ 0.271913 0.382898 0.502411 0.02923
C_ C_ 0.250091 0.38628 0.449629 -0.15533
C_ C_ 0.280798 0.392663 0.412389 -0.15533
C_ C_ 0.334264 0.393247 0.423923 0.02923
C_ C_ 0.35474 0.393706 0.475362 -0.15533
C_ C_ 0.324436 0.387778 0.516471 0.02923
C_ C_ 0.356201 0.38458 0.0785102 0.69207
C_ C_ 0.345714 0.377559 0.326307 0.69661
C_ C_ 0.312376 0.434851 0.193605 0.18167
C_ C_ 0.271186 0.46427 0.212383 -0.15533
C_ C_ 0.276039 0.504058 0.248715 0.02923
C_ C_ 0.319245 0.0140556 0.245543 -0.15533
C_ C_ 0.367235 0.491539 0.236936 0.18167
C_ C_ 0.484587 0.358907 0.215752 0.18167
C_ C_ 0.014288 0.32145 0.23516 -0.15533
C_ C_ 0.488582 0.271787 0.238047 0.02923
C_ C_ 0.436278 0.272746 0.218202 -0.15533
C_ C_ 0.4106 0.317187 0.196755 0.18167
C_ C_ 0.491204 0.453962 0.135293 0.69207
C_ C_ 0.0167388 0.990964 0.101681 0.02923
C_ C_ -0.00466295 0.0427496 0.0971466 -0.15533
C_ C_ 0.0267658 0.0810496 0.100222 -0.15533
C_ C_ 0.0781774 0.0712892 0.09273 0.02923
C_ C_ 0.096314 0.0202699 0.0822456 -0.15533
C_ C_ 0.0690508 0.980007 0.0947199 0.02923
C_ C_ 0.104125 0.432179 0.113148 0.69207
C_ C_ 0.0889818 0.168091 0.106997 0.69661
C_ C_ 0.440385 0.17653 0.43733 0.18167
C_ C_ 0.482863 0.20132 0.462061 -0.15533
C_ C_ 0.475373 0.24135 0.50064 0.02923
C_ C_ 0.423227 0.259555 0.00863308 -0.15533
C_ C_ 0.384744 0.226087 0.49144 0.18167
C_ C_ 0.261672 0.192074 0.351311 0.18167
C_ C_ 0.237018 0.214819 0.308213 -0.15533
C_ C_ 0.265829 0.22881 0.270055 0.02923
C_ C_ 0.319871 0.220609 0.280919 -0.15533
C_ C_ 0.344447 0.203011 0.327424 0.18167
C_ C_ 0.262685 0.122514 0.450929 0.69207
C_ C_ 0.225647 0.116441 0.991401 0.02923
C_ C_ 0.244227 0.11112 0.0425663 -0.15533
C_ C_ 0.209739 0.110726 0.0774566 -0.15533
C_ C_ 0.157235 0.107398 0.0648075 0.02923
C_ C_ 0.140834 0.106715 0.0136451 -0.15533
C_ C_ 0.173842 0.11122 0.975996 0.02923
C_ C_ 0.151169 0.103688 0.419016 0.69207
C_ C_ 0.138696 0.0995902 0.162382 0.69661
C_ C_ 0.373213 0.380928 0.382532 -0.30787
C_ C_ 0.117373 0.111988 0.106574 -0.30787
N_ N_ 0.138096 0.0622153 0.308464 -0.32189
N_ N_ 0.0436275 0.147409 0.317265 -0.32189
N_ N_ 0.100531 0.325267 0.0579697 -0.32189
N_ N_ 0.193654 0.318866 0.149069 -0.32189
N_ N_ 0.361486 0.446755 0.210013 -0.32189
N_ N_ 0.438131 0.357886 0.190666 -0.32189
N_ N_ 0.393333 0.190961 0.453209 -0.32189
N_ N_ 0.31489 0.189808 0.362611 -0.32189
O_ O_ 0.506067 0.0888714 0.403085 -0.63271
O_ O_ 0.0396432 0.0350298 0.337441 -0.57982
O_ O_ 0.389209 0.0973865 0.340961 -0.63271
O_ O_ 0.374673 0.0902697 0.420742 -0.57982
O_ O_ 0.248076 0.385449 0.0968442 -0.63271
O_ O_ 0.20066 0.339482 0.040293 -0.57982
O_ O_ 0.353506 0.344536 0.104212 -0.63271
O_ O_ 0.37861 0.422373 0.1018 -0.57982
O_ O_ 0.99203 0.41644 0.100695 -0.63271
O_ O_ 0.456367 0.464778 0.167698 -0.57982
O_ O_ 0.100468 0.408737 0.152875 -0.63271
O_ O_ 0.139636 0.415016 0.0861506 -0.57982
O_ O_ 0.262687 0.0932137 0.408431 -0.63271
O_ O_ 0.296562 0.153526 0.460545 -0.57982
O_ O_ 0.146257 0.145243 0.39447 -0.63271
O_ O_ 0.115955 0.0717942 0.404598 -0.57982
F_ F_ 0.433414 0.325671 0.435596 -0.20885
F_ F_ 0.428942 0.304814 0.354323 -0.20885
F_ F_ 0.362955 0.29676 0.400554 -0.20885
F_ F_ 0.314513 0.419046 0.315459 -0.20885
F_ F_ 0.319751 0.333658 0.316873 -0.20885
F_ F_ 0.3808 0.374973 0.290936 -0.20885
F_ F_ 0.0587904 0.174429 0.0621467 -0.20885
F_ F_ 0.0594672 0.179305 0.148044 -0.20885
F_ F_ 0.128498 0.20092 0.11496 -0.20885
F_ F_ 0.166939 0.0522326 0.164426 -0.20885
F_ F_ 0.171171 0.136622 0.18001 -0.20885
F_ F_ 0.103684 0.100891 0.196151 -0.20885
Zn Zn 0.0911811 0.0833801 0.841158 0.83971
Zn Zn 0.159179 0.346132 0.578364 0.83971
Zn Zn 0.405868 0.415757 0.650676 0.83971
Zn Zn 0.343111 0.15396 0.915606 0.83971
H_ H_ 0.168364 0.129763 0.802678 0.10394
H_ H_ 0.250041 0.0975447 0.76879 0.10394
H_ H_ 0.210596 0.447345 0.791767 0.10394
H_ H_ 0.129138 0.975647 0.803583 0.10394
H_ H_ 0.523374 0.0974285 0.753768 0.10394
H_ H_ 0.49078 0.173889 0.701665 0.10394
H_ H_ 0.0217612 0.267151 0.839865 0.10394
H_ H_ 0.0801006 0.19709 0.87445 0.10394
H_ H_ 0.0327059 0.438714 0.866537 0.10394
H_ H_ 0.483463 0.373366 0.892863 0.10394
H_ H_ 0.35803 0.492184 0.916123 0.10394
H_ H_ 0.072903 0.319286 0.634141 0.10394
H_ H_ 0.505786 0.264097 0.604061 0.10394
H_ H_ 0.046798 0.287909 0.945113 0.10394
H_ H_ 0.113564 0.324632 0.482114 0.10394
H_ H_ 0.203797 0.238811 0.598091 0.10394
H_ H_ 0.246589 0.200983 0.676404 0.10394
H_ H_ 0.199185 0.33264 0.766388 0.10394
H_ H_ 0.180567 0.377421 0.688736 0.10394
H_ H_ 0.216671 0.37315 0.954774 0.10394
H_ H_ 0.265185 0.390787 0.886088 0.10394
H_ H_ 0.399672 0.397242 0.992633 0.10394
H_ H_ 0.305907 0.393864 0.662999 0.10394
H_ H_ 0.234708 0.440432 0.700767 0.10394
H_ H_ 0.334563 0.0431328 0.77333 0.10394
H_ H_ 0.398229 0.504572 0.727126 0.10394
H_ H_ 0.0126695 0.384274 0.703238 0.10394
H_ H_ 0.0396221 0.318763 0.7711 0.10394
H_ H_ 0.407762 0.254937 0.743339 0.10394
H_ H_ 0.370389 0.326066 0.693143 0.10394
H_ H_ 0.471062 0.0507047 0.627771 0.10394
H_ H_ 0.00943906 0.112655 0.575502 0.10394
H_ H_ 0.146701 0.0112994 0.589566 0.10394
H_ H_ 0.443079 0.161413 0.896196 0.10394
H_ H_ 0.0187198 0.193613 0.945256 0.10394
H_ H_ 0.418476 0.277948 0.549775 0.10394
H_ H_ 0.344548 0.249254 -0.007624999999999993 0.10394
H_ H_ 0.238724 0.200183 0.891255 0.10394
H_ H_ 0.186322 0.229776 0.811022 0.10394
H_ H_ 0.328729 0.220852 0.741499 0.10394
H_ H_ 0.369195 0.18493 0.814184 0.10394
H_ H_ 0.280694 0.12428 0.552513 0.10394
H_ H_ 0.222262 0.122664 0.619957 0.10394
H_ H_ 0.105276 0.0841276 0.504322 0.10394
C_ C_ 0.181119 0.0892768 0.79989 0.18167
C_ C_ 0.226839 0.0693193 0.780025 -0.15533
C_ C_ 0.234093 0.0183511 0.760452 0.02923
C_ C_ 0.204463 0.488432 0.791929 -0.15533
C_ C_ 0.155976 0.00421939 0.795405 0.18167
C_ C_ 0.0287498 0.1363 0.772564 0.18167
C_ C_ 0.510306 0.178115 0.740287 -0.15533
C_ C_ 0.00481791 0.226695 0.767787 0.02923
C_ C_ 0.0269983 0.232639 0.817611 -0.15533
C_ C_ 0.0559162 0.19073 0.839791 0.18167
C_ C_ 0.00848276 0.0449253 0.862078 0.69207
C_ C_ 0.480936 0.5005 0.893182 0.02923
C_ C_ 0.500542 0.449234 0.895127 -0.15533
C_ C_ 0.466645 0.413033 0.899717 -0.15533
C_ C_ 0.414676 0.425774 0.904404 0.02923
C_ C_ 0.400619 0.478574 0.912946 -0.15533
C_ C_ 0.4297 0.516184 0.900352 0.02923
C_ C_ 0.397474 0.0697076 0.884154 0.69207
C_ C_ 0.393667 0.329357 0.878576 0.69661
C_ C_ 0.0660174 0.31035 0.592999 0.18167
C_ C_ 0.0213212 0.287764 0.574185 -0.15533
C_ C_ 0.0089757 0.278431 0.522378 0.02923
C_ C_ 0.0543145 0.289137 0.986399 -0.15533
C_ C_ 0.0877724 0.311976 0.508337 0.18167
C_ C_ 0.210567 0.260398 0.634519 0.18167
C_ C_ 0.226192 0.23656 0.679373 -0.15533
C_ C_ 0.22584 0.261703 0.726641 0.02923
C_ C_ 0.206402 0.312717 0.728487 -0.15533
C_ C_ 0.18831 0.336761 0.684124 0.18167
C_ C_ 0.237437 0.373125 0.540169 0.69207
C_ C_ 0.278857 0.369212 0.0133093 0.02923
C_ C_ 0.258103 0.369049 0.961306 -0.15533
C_ C_ 0.286847 0.377125 0.922196 -0.15533
C_ C_ 0.337627 0.388043 0.932489 0.02923
C_ C_ 0.358275 0.392266 0.983899 -0.15533
C_ C_ 0.330057 0.385045 0.0248305 0.02923
C_ C_ 0.349082 0.383642 0.56807 0.69207
C_ C_ 0.341772 0.402299 0.837107 0.69661
C_ C_ 0.313146 0.426143 0.689106 0.18167
C_ C_ 0.272521 0.45093 0.712379 -0.15533
C_ C_ 0.277947 0.496584 0.744122 0.02923
C_ C_ 0.33211 0.010142 0.747682 -0.15533
C_ C_ 0.364586 0.490664 0.721835 0.18167
C_ C_ 0.490357 0.353308 0.700295 0.18167
C_ C_ 0.00449278 0.31743 0.743899 -0.15533
C_ C_ 0.486447 0.272706 0.734697 0.02923
C_ C_ 0.433 0.278548 0.725671 -0.15533
C_ C_ 0.409851 0.320957 0.700278 0.18167
C_ C_ 0.483165 0.452288 0.619918 0.69207
C_ C_ 0.0231159 0.988418 0.608881 0.02923
C_ C_ -0.0019839999999999858 0.0349927 0.594155 -0.15533
C_ C_ 0.0277089 0.076844 0.58416 -0.15533
C_ C_ 0.0808562 0.0687813 0.591132 0.02923
C_ C_ 0.104591 0.0177018 0.591673 -0.15533
C_ C_ 0.0748147 0.977933 0.601883 0.02923
C_ C_ 0.100744 0.431164 0.611531 0.69207
C_ C_ 0.0877416 0.165537 0.599238 0.69661
C_ C_ 0.437384 0.18751 0.928614 0.18167
C_ C_ 0.478474 0.203346 0.959095 -0.15533
C_ C_ 0.473067 0.242967 0.995957 0.02923
C_ C_ 0.426799 0.247232 0.518972 -0.15533
C_ C_ 0.383011 0.234086 0.983404 0.18167
C_ C_ 0.25569 0.200753 0.855336 0.18167
C_ C_ 0.22748 0.224731 0.81232 -0.15533
C_ C_ 0.253927 0.234612 0.770952 0.02923
C_ C_ 0.306042 0.218014 0.771946 -0.15533
C_ C_ 0.330137 0.193993 0.81312 0.18167
C_ C_ 0.262304 0.126484 0.953318 0.69207
C_ C_ 0.223821 0.118712 0.489223 0.02923
C_ C_ 0.241613 0.121235 0.543438 -0.15533
C_ C_ 0.208798 0.115224 0.581221 -0.15533
C_ C_ 0.157472 0.107692 0.566093 0.02923
C_ C_ 0.141125 0.0986998 0.512452 -0.15533
C_ C_ 0.173665 0.105615 0.473932 0.02923
C_ C_ 0.151195 0.107838 0.92123 0.69207
C_ C_ 0.138342 0.106857 0.660866 0.69661
C_ C_ 0.372579 0.387291 0.889342 -0.30787
C_ C_ 0.115698 0.110853 0.605192 -0.30787
N_ N_ 0.147615 0.0553639 0.80855 -0.32189
N_ N_ 0.0551827 0.14304 0.817761 -0.32189
N_ N_ 0.10034 0.317824 0.559517 -0.32189
N_ N_ 0.193643 0.310748 0.637959 -0.32189
N_ N_ 0.35833 0.446097 0.695163 -0.32189
N_ N_ 0.438932 0.356217 0.685778 -0.32189
N_ N_ 0.391684 0.195757 0.945757 -0.32189
N_ N_ 0.306502 0.183354 0.85428 -0.32189
O_ O_ 0.50279 0.0907356 0.87883 -0.63271
O_ O_ 0.0438001 0.0374566 0.831114 -0.57982
O_ O_ 0.396783 0.0966405 0.844298 -0.63271
O_ O_ 0.371141 0.0888748 0.921243 -0.57982
O_ O_ 0.236886 0.395535 0.585091 -0.63271
O_ O_ 0.201736 0.343341 0.527437 -0.57982
O_ O_ 0.346735 0.343698 0.59385 -0.63271
O_ O_ 0.375968 0.419632 0.590188 -0.57982
O_ O_ 0.99679456 0.408111 0.612499 -0.63271
O_ O_ 0.450855 0.459816 0.655357 -0.57982
O_ O_ 0.104271 0.412622 0.656092 -0.63271
O_ O_ 0.135106 0.414027 0.58119 -0.57982
O_ O_ 0.256337 0.108002 0.904886 -0.63271
O_ O_ 0.299426 0.154475 0.968287 -0.57982
O_ O_ 0.158081 0.14443 0.892381 -0.63271
O_ O_ 0.118213 0.0759219 0.905695 -0.57982
F_ F_ 0.422254 0.315617 0.921641 -0.20885
F_ F_ 0.427222 0.323427 0.841003 -0.20885
F_ F_ 0.354832 0.29713 0.869271 -0.20885
F_ F_ 0.31509 0.449035 0.846195 -0.20885
F_ F_ 0.30676 0.370797 0.814565 -0.20885
F_ F_ 0.372874 0.405187 0.801954 -0.20885
F_ F_ 0.0600893 0.170547 0.551908 -0.20885
F_ F_ 0.0507741 0.18033 0.633872 -0.20885
F_ F_ 0.123408 0.201852 0.603222 -0.20885
F_ F_ 0.172966 0.06521 0.663065 -0.20885
F_ F_ 0.161415 0.149059 0.680206 -0.20885
F_ F_ 0.100173 0.0997083 0.690272 -0.20885
Zn Zn 0.0882621 0.595777 0.349797 0.83971
Zn Zn 0.161556 0.845631 0.0816786 0.83971
Zn Zn 0.40467 0.914102 0.151487 0.83971
Zn Zn 0.34484 0.654315 0.41775 0.83971
H_ H_ 0.16748 0.638329 0.309522 0.10394
H_ H_ 0.240324 0.600474 0.264143 0.10394
H_ H_ 0.199969 0.949251 0.278122 0.10394
H_ H_ 0.118352 0.492549 0.311131 0.10394
H_ H_ 0.521425 0.59623 0.25261 0.10394
H_ H_ 0.477385 0.669546 0.212876 0.10394
H_ H_ 0.00361979 0.7675 0.329852 0.10394
H_ H_ 0.0629491 0.704697 0.376514 0.10394
H_ H_ 0.0243183 0.940502 0.358927 0.10394
H_ H_ 0.478381 0.874751 0.356378 0.10394
H_ H_ 0.353516 0.988986 0.389136 0.10394
H_ H_ 0.0804245 0.805219 0.13041 0.10394
H_ H_ 0.506769 0.757142 0.0955149 0.10394
H_ H_ 0.0410384 0.778849 0.443973 0.10394
H_ H_ 0.11659 0.822698 0.978772 0.10394
H_ H_ 0.220484 0.749342 0.105216 0.10394
H_ H_ 0.254717 0.704995 0.185053 0.10394
H_ H_ 0.218087 0.844785 0.267295 0.10394
H_ H_ 0.170985 0.878477 0.18801 0.10394
H_ H_ 0.224179 0.846354 0.436617 0.10394
H_ H_ 0.264463 0.888449 0.372842 0.10394
H_ H_ 0.393821 0.910137 0.482949 0.10394
H_ H_ 0.30773 0.890127 0.172604 0.10394
H_ H_ 0.227485 0.945075 0.185036 0.10394
H_ H_ 0.332619 0.551262 0.283322 0.10394
H_ H_ 0.395201 0.006716 0.223722 0.10394
H_ H_ 0.0126914 0.870922 0.183198 0.10394
H_ H_ 0.0492662 0.795226 0.226847 0.10394
H_ H_ 0.401818 0.739997 0.216109 0.10394
H_ H_ 0.3616 0.817111 0.183135 0.10394
H_ H_ 0.466129 0.552476 0.121243 0.10394
H_ H_ 0.0181442 0.623685 0.0956827 0.10394
H_ H_ 0.145421 0.510931 0.0828221 0.10394
H_ H_ 0.446373 0.667344 0.394119 0.10394
H_ H_ 0.0106012 0.687911 0.440124 0.10394
H_ H_ 0.412957 0.77686 0.0374172 0.10394
H_ H_ 0.353672 0.728399 0.507621 0.10394
H_ H_ 0.244211 0.718478 0.401535 0.10394
H_ H_ 0.19878 0.760257 0.327318 0.10394
H_ H_ 0.332907 0.731931 0.247672 0.10394
H_ H_ 0.37233 0.684188 0.317661 0.10394
H_ H_ 0.296164 0.586014 0.0460701 0.10394
H_ H_ 0.24044 0.590072 0.115242 0.10394
H_ H_ 0.105718 0.610176 0.00378575 0.10394
C_ C_ 0.17671 0.598242 0.306655 0.18167
C_ C_ 0.221609 0.577045 0.284918 -0.15533
C_ C_ 0.231129 0.524452 0.277718 0.02923
C_ C_ 0.191298 0.988458 0.279196 -0.15533
C_ C_ 0.147528 0.516577 0.305034 0.18167
C_ C_ 0.035133 0.635451 0.266725 0.18167
C_ C_ 0.496238 0.676597 0.247782 -0.15533
C_ C_ -0.0013940000000000063 0.721645 0.258441 0.02923
C_ C_ 0.0142578 0.732425 0.310208 -0.15533
C_ C_ 0.0455936 0.6954 0.337279 0.18167
C_ C_ 0.00678661 0.555401 0.373662 0.69207
C_ C_ 0.477064 0.00673143 0.372053 0.02923
C_ C_ 0.497113 0.953109 0.366468 -0.15533
C_ C_ 0.462596 0.91631 0.364437 -0.15533
C_ C_ 0.41317 0.928446 0.380781 0.02923
C_ C_ 0.394016 0.979943 0.383302 -0.15533
C_ C_ 0.423085 0.0188285 0.379661 0.02923
C_ C_ 0.398941 0.571562 0.392076 0.69207
C_ C_ 0.397441 0.830838 0.3821 0.69661
C_ C_ 0.0712931 0.801138 0.0885362 0.18167
C_ C_ 0.0260783 0.780348 0.0679147 -0.15533
C_ C_ 0.0160599 0.770284 0.0157572 0.02923
C_ C_ 0.0504378 0.778855 0.485006 -0.15533
C_ C_ 0.0947465 0.808581 0.005279999999999951 0.18167
C_ C_ 0.215467 0.767813 0.139762 0.18167
C_ C_ 0.235646 0.742863 0.185525 -0.15533
C_ C_ 0.233264 0.769164 0.233063 0.02923
C_ C_ 0.212733 0.819434 0.233299 -0.15533
C_ C_ 0.189511 0.841253 0.187217 0.18167
C_ C_ 0.240046 0.868159 0.0412469 0.69207
C_ C_ 0.279494 0.862239 0.498814 0.02923
C_ C_ 0.25717 0.865598 0.445442 -0.15533
C_ C_ 0.285124 0.883294 0.40958 -0.15533
C_ C_ 0.336732 0.894678 0.420771 0.02923
C_ C_ 0.357053 0.894229 0.471722 -0.15533
C_ C_ 0.327663 0.881202 0.510472 0.02923
C_ C_ 0.354153 0.87873 0.0666569 0.69207
C_ C_ 0.345882 0.891963 0.322974 0.69661
C_ C_ 0.308759 0.927624 0.184641 0.18167
C_ C_ 0.265829 0.956848 0.20213 -0.15533
C_ C_ 0.270896 0.998119 0.235937 0.02923
C_ C_ 0.326623 0.516752 0.262444 -0.15533
C_ C_ 0.358117 0.990433 0.219827 0.18167
C_ C_ 0.477794 0.8545 0.213413 0.18167
C_ C_ 0.00908758 0.798926 0.2109 -0.15533
C_ C_ 0.475896 0.768574 0.23979 0.02923
C_ C_ 0.4254 0.770576 0.217318 -0.15533
C_ C_ 0.402952 0.81459 0.194188 0.18167
C_ C_ 0.481268 0.949437 0.123078 0.69207
C_ C_ 0.0277688 0.498574 0.120803 0.02923
C_ C_ 0.00812094 0.548233 0.121533 -0.15533
C_ C_ 0.0375291 0.585277 0.105921 -0.15533
C_ C_ 0.0902652 0.570663 0.100381 0.02923
C_ C_ 0.10645 0.519752 0.0923663 -0.15533
C_ C_ 0.0781966 0.482382 0.105747 0.02923
C_ C_ 0.0956854 0.928321 0.10387 0.69207
C_ C_ 0.104181 0.669217 0.108897 0.69661
C_ C_ 0.442055 0.689295 0.429447 0.18167
C_ C_ 0.48309 0.709382 0.454631 -0.15533
C_ C_ 0.478844 0.741602 0.499854 0.02923
C_ C_ 0.422412 0.747667 0.00879884 -0.15533
C_ C_ 0.389795 0.725312 0.493282 0.18167
C_ C_ 0.264301 0.716918 0.364632 0.18167
C_ C_ 0.23586 0.741633 0.323022 -0.15533
C_ C_ 0.259747 0.746477 0.279691 0.02923
C_ C_ 0.311001 0.726165 0.279216 -0.15533
C_ C_ 0.334629 0.697279 0.318792 0.18167
C_ C_ 0.263622 0.621958 0.454828 0.69207
C_ C_ 0.234132 0.609571 0.988371 0.02923
C_ C_ 0.255514 0.600879 0.0387092 -0.15533
C_ C_ 0.221657 0.59769 0.0766646 -0.15533
C_ C_ 0.166976 0.607826 0.0665065 0.02923
C_ C_ 0.147837 0.609546 0.0150508 -0.15533
C_ C_ 0.17952 0.609839 0.975139 0.02923
C_ C_ 0.151108 0.619966 0.42684 0.69207
C_ C_ 0.152893 0.604599 0.161534 0.69661
C_ C_ 0.373544 0.88828 0.376423 -0.30787
C_ C_ 0.12707 0.61316 0.106974 -0.30787
N_ N_ 0.138079 0.568786 0.311731 -0.32189
N_ N_ 0.0504026 0.646328 0.315907 -0.32189
N_ N_ 0.104619 0.814164 0.05511 -0.32189
N_ N_ 0.187859 0.813357 0.142014 -0.32189
N_ N_ 0.352934 0.945721 0.189745 -0.32189
N_ N_ 0.429762 0.854393 0.189334 -0.32189
N_ N_ 0.39565 0.698392 0.447716 -0.32189
N_ N_ 0.309841 0.689071 0.359839 -0.32189
O_ O_ 0.508619 0.582395 0.409871 -0.63271
O_ O_ 0.0455988 0.54645 0.346179 -0.57982
O_ O_ 0.401008 0.597879 0.349895 -0.63271
O_ O_ 0.373537 0.590124 0.428249 -0.57982
O_ O_ 0.251993 0.88046 0.0899083 -0.63271
O_ O_ 0.202488 0.839774 0.0323959 -0.57982
O_ O_ 0.36187 0.837073 0.092667 -0.63271
O_ O_ 0.372075 0.919556 0.08587 -0.57982
O_ O_ 0.989496 0.901547 0.0940901 -0.63271
O_ O_ 0.447101 0.961388 0.154323 -0.57982
O_ O_ 0.0869722 0.904881 0.144374 -0.63271
O_ O_ 0.133322 0.911302 0.0790954 -0.57982
O_ O_ 0.24951 0.616109 0.405321 -0.63271
O_ O_ 0.304674 0.642991 0.467668 -0.57982
O_ O_ 0.149692 0.662713 0.405002 -0.63271
O_ O_ 0.117533 0.589119 0.413372 -0.57982
F_ F_ 0.435151 0.828421 0.424998 -0.20885
F_ F_ 0.417341 0.808639 0.337077 -0.20885
F_ F_ 0.362101 0.798354 0.39315 -0.20885
F_ F_ 0.311054 0.932932 0.322471 -0.20885
F_ F_ 0.318137 0.851784 0.304813 -0.20885
F_ F_ 0.382538 0.892614 0.289874 -0.20885
F_ F_ 0.0780248 0.679169 0.0626608 -0.20885
F_ F_ 0.0669988 0.678783 0.144394 -0.20885
F_ F_ 0.140307 0.702751 0.116762 -0.20885
F_ F_ 0.183487 0.558432 0.171341 -0.20885
F_ F_ 0.1877 0.638701 0.175064 -0.20885
F_ F_ 0.119107 0.612053 0.198562 -0.20885
Zn Zn 0.0871017 0.583807 0.838777 0.83971
Zn Zn 0.160517 0.845937 0.580574 0.83971
Zn Zn 0.412885 0.908502 0.649637 0.83971
Zn Zn 0.343204 0.651221 0.913424 0.83971
H_ H_ 0.175881 0.629344 0.817062 0.10394
H_ H_ 0.245783 0.599754 0.766343 0.10394
H_ H_ 0.21242 0.940994 0.770034 0.10394
H_ H_ 0.143205 0.486227 0.834552 0.10394
H_ H_ 0.521314 0.587012 0.760242 0.10394
H_ H_ 0.472453 0.65979 0.711647 0.10394
H_ H_ 0.0278594 0.764127 0.825272 0.10394
H_ H_ 0.0638987 0.688503 0.870139 0.10394
H_ H_ 0.0338575 0.946263 0.862956 0.10394
H_ H_ 0.485519 0.876339 0.890802 0.10394
H_ H_ 0.357179 0.988512 0.903294 0.10394
H_ H_ 0.0708788 0.809191 0.629523 0.10394
H_ H_ 0.506861 0.772174 0.601756 0.10394
H_ H_ 0.0410334 0.783133 0.944732 0.10394
H_ H_ 0.113749 0.815493 0.479951 0.10394
H_ H_ 0.218619 0.746842 0.590968 0.10394
H_ H_ 0.258142 0.700365 0.667411 0.10394
H_ H_ 0.222155 0.835022 0.761002 0.10394
H_ H_ 0.18857 0.880146 0.684533 0.10394
H_ H_ 0.228115 0.840869 0.940825 0.10394
H_ H_ 0.275364 0.85982 0.874235 0.10394
H_ H_ 0.397489 0.902063 0.986988 0.10394
H_ H_ 0.307457 0.898553 0.651041 0.10394
H_ H_ 0.2374 0.952627 0.67928 0.10394
H_ H_ 0.330029 0.550646 0.769823 0.10394
H_ H_ 0.408037 0.0010300000000000864 0.729952 0.10394
H_ H_ 0.00482999999999989 0.887764 0.703623 0.10394
H_ H_ 0.0400632 0.811001 0.753729 0.10394
H_ H_ 0.408181 0.734054 0.709228 0.10394
H_ H_ 0.372757 0.816009 0.677182 0.10394
H_ H_ 0.46641 0.552948 0.628727 0.10394
H_ H_ 0.0175542 0.623208 0.607212 0.10394
H_ H_ 0.14369 0.511417 0.589456 0.10394
H_ H_ 0.449761 0.663131 0.887541 0.10394
H_ H_ 0.0140324 0.687095 0.946283 0.10394
H_ H_ 0.424859 0.774723 0.549181 0.10394
H_ H_ 0.34531 0.726646 -0.00426105 0.10394
H_ H_ 0.241239 0.692018 0.877641 0.10394
H_ H_ 0.203575 0.752458 0.808279 0.10394
H_ H_ 0.338612 0.705473 0.73212 0.10394
H_ H_ 0.38391 0.676166 0.815908 0.10394
H_ H_ 0.289234 0.610078 0.55483 0.10394
H_ H_ 0.235159 0.593612 0.622243 0.10394
H_ H_ 0.105332 0.608611 0.509728 0.10394
C_ C_ 0.177008 0.5928 0.796641 0.18167
C_ C_ 0.221828 0.573866 0.773484 -0.15533
C_ C_ 0.237091 0.52116 0.773056 0.02923
C_ C_ 0.200481 0.984023 0.772512 -0.15533
C_ C_ 0.157555 0.507577 0.806935 0.18167
C_ C_ 0.017389 0.629807 0.763724 0.18167
C_ C_ 0.494355 0.666861 0.748606 -0.15533
C_ C_ 0.0020100000000000673 0.720973 0.756995 0.02923
C_ C_ 0.0270337 0.726229 0.806019 -0.15533
C_ C_ 0.0536714 0.682721 0.829373 0.18167
C_ C_ 0.0111157 0.541901 0.865719 0.69207
C_ C_ 0.479131 0.00432611 0.880887 0.02923
C_ C_ 0.498719 0.953494 0.881174 -0.15533
C_ C_ 0.469816 0.916128 0.892454 -0.15533
C_ C_ 0.41687 0.927023 0.892799 0.02923
C_ C_ 0.396037 0.977864 0.897235 -0.15533
C_ C_ 0.425981 0.0177105 0.889014 0.02923
C_ C_ 0.405995 0.568464 0.894102 0.69207
C_ C_ 0.403572 0.830873 0.876359 0.69661
C_ C_ 0.0645211 0.803161 0.588995 0.18167
C_ C_ 0.023997 0.778131 0.569709 -0.15533
C_ C_ 0.0156104 0.766555 0.516824 0.02923
C_ C_ 0.0522569 0.783449 0.984126 -0.15533
C_ C_ 0.090991 0.80394 0.50619 0.18167
C_ C_ 0.218864 0.764016 0.630581 0.18167
C_ C_ 0.24594 0.74117 0.67063 -0.15533
C_ C_ 0.242622 0.763346 0.720115 0.02923
C_ C_ 0.223935 0.815999 0.724273 -0.15533
C_ C_ 0.197599 0.838558 0.682044 0.18167
C_ C_ 0.243542 0.859996 0.538727 0.69207
C_ C_ 0.277691 0.866258 0.0009300000000000974 0.02923
C_ C_ 0.260303 0.860607 0.948522 -0.15533
C_ C_ 0.290799 0.871468 0.910298 -0.15533
C_ C_ 0.340173 0.886335 0.923341 0.02923
C_ C_ 0.357199 0.892232 0.975303 -0.15533
C_ C_ 0.327639 0.878956 0.0140294 0.02923
C_ C_ 0.351641 0.877665 0.56405 0.69207
C_ C_ 0.353493 0.89773 0.826959 0.69661
C_ C_ 0.315085 0.929617 0.677134 0.18167
C_ C_ 0.273843 0.96404 0.691932 -0.15533
C_ C_ 0.279962 1.000168605 0.731528 0.02923
C_ C_ 0.324663 0.516421 0.746852 -0.15533
C_ C_ 0.372207 0.987889 0.721348 0.18167
C_ C_ 0.492846 0.843077 0.704689 0.18167
C_ C_ 0.00678476 0.807137 0.726768 -0.15533
C_ C_ 0.482082 0.760668 0.734718 0.02923
C_ C_ 0.433149 0.763985 0.710217 -0.15533
C_ C_ 0.413489 0.808673 0.68718 0.18167
C_ C_ 0.495651 0.945305 0.629595 0.69207
C_ C_ 0.0255085 0.495587 0.621752 0.02923
C_ C_ 1.00491661 0.546917 0.620612 -0.15533
C_ C_ 0.0358544 0.58547 0.613358 -0.15533
C_ C_ 0.0866679 0.571917 0.60214 0.02923
C_ C_ 0.103217 0.5215 0.592223 -0.15533
C_ C_ 0.0742632 0.483006 0.603179 0.02923
C_ C_ 0.102325 0.9255 0.606818 0.69207
C_ C_ 0.103451 0.667153 0.612689 0.69661
C_ C_ 0.442374 0.684117 0.924051 0.18167
C_ C_ 0.483417 0.70169 0.952396 -0.15533
C_ C_ 0.472417 0.737233 -0.00589015 0.02923
C_ C_ 0.431373 0.749642 0.518629 -0.15533
C_ C_ 0.383897 0.722785 0.982244 0.18167
C_ C_ 0.264163 0.703697 0.850857 0.18167
C_ C_ 0.241549 0.73248 0.808553 -0.15533
C_ C_ 0.267573 0.736185 0.765785 0.02923
C_ C_ 0.319387 0.711877 0.767399 -0.15533
C_ C_ 0.34094 0.690193 0.813834 0.18167
C_ C_ 0.266467 0.623259 0.950214 0.69207
C_ C_ 0.229311 0.615798 0.494083 0.02923
C_ C_ 0.24957 0.606696 0.543848 -0.15533
C_ C_ 0.21741 0.600543 0.582501 -0.15533
C_ C_ 0.162411 0.602771 0.569249 0.02923
C_ C_ 0.143707 0.606891 0.517713 -0.15533
C_ C_ 0.175358 0.61412 0.479835 0.02923
C_ C_ 0.153757 0.615258 0.92264 0.69207
C_ C_ 0.147409 0.603861 0.668783 0.69661
C_ C_ 0.377525 0.887375 0.882003 -0.30787
C_ C_ 0.126112 0.610241 0.612004 -0.30787
N_ N_ 0.142895 0.558881 0.805778 -0.32189
N_ N_ 0.051981 0.638461 0.805485 -0.32189
N_ N_ 0.100539 0.814121 0.558057 -0.32189
N_ N_ 0.194879 0.811803 0.634728 -0.32189
N_ N_ 0.364781 0.942142 0.692101 -0.32189
N_ N_ 0.443778 0.847292 0.684152 -0.32189
N_ N_ 0.394981 0.689697 0.941341 -0.32189
N_ N_ 0.311969 0.682274 0.851781 -0.32189
O_ O_ 0.508325 0.587485 0.898348 -0.63271
O_ O_ 0.0449463 0.531121 0.835529 -0.57982
O_ O_ 0.411679 0.59367 0.852596 -0.63271
O_ O_ 0.374859 0.589971 0.927938 -0.57982
O_ O_ 0.252948 0.882858 0.583825 -0.63271
O_ O_ 0.202492 0.838168 0.528961 -0.57982
O_ O_ 0.350006 0.834842 0.586846 -0.63271
O_ O_ 0.381964 0.911311 0.584145 -0.57982
O_ O_ 0.985241 0.910381 0.587986 -0.63271
O_ O_ 0.455288 0.957048 0.6519 -0.57982
O_ O_ 0.100665 0.89906 0.645866 -0.63271
O_ O_ 0.138602 0.91023 0.578316 -0.57982
O_ O_ 0.263553 0.602017 0.904128 -0.63271
O_ O_ 0.299376 0.657362 0.960871 -0.57982
O_ O_ 0.155314 0.655952 0.898782 -0.63271
O_ O_ 0.118969 0.585387 0.906571 -0.57982
F_ F_ 0.430865 0.816864 0.921095 -0.20885
F_ F_ 0.436032 0.818283 0.837771 -0.20885
F_ F_ 0.365838 0.796551 0.864709 -0.20885
F_ F_ 0.318767 0.938949 0.824952 -0.20885
F_ F_ 0.324727 0.860667 0.801526 -0.20885
F_ F_ 0.38892 0.90121 0.793201 -0.20885
F_ F_ 0.069046 0.674913 0.571742 -0.20885
F_ F_ 0.0757074 0.688278 0.650707 -0.20885
F_ F_ 0.14292 0.699173 0.613243 -0.20885
F_ F_ 0.174328 0.555011 0.674018 -0.20885
F_ F_ 0.184298 0.633463 0.687813 -0.20885
F_ F_ 0.107962 0.607064 0.699777 -0.20885
Zn Zn 0.591955 0.0900403 0.351776 0.83971
Zn Zn 0.662439 0.345414 0.091303 0.83971
Zn Zn 0.911686 0.426698 0.155964 0.83971
Zn Zn 0.840571 0.156396 0.42157 0.83971
H_ H_ 0.674566 0.13885 0.301998 0.10394
H_ H_ 0.751717 0.102003 0.267435 0.10394
H_ H_ 0.709997 0.451289 0.279713 0.10394
H_ H_ 0.632548 0.992075 0.322034 0.10394
H_ H_ 0.0193404 0.106747 0.247985 0.10394
H_ H_ 0.988103 0.185833 0.200871 0.10394
H_ H_ 0.546399 0.272475 0.333634 0.10394
H_ H_ 0.580523 0.203352 0.379927 0.10394
H_ H_ 0.52981 0.444427 0.362032 0.10394
H_ H_ 0.978956 0.386171 0.384205 0.10394
H_ H_ 0.849922 0.493716 0.395933 0.10394
H_ H_ 0.574678 0.306482 0.138419 0.10394
H_ H_ 1.00049 0.280175 0.0943656 0.10394
H_ H_ 0.541564 0.289783 0.451912 0.10394
H_ H_ 0.623749 0.31695 0.990141 0.10394
H_ H_ 0.704216 0.247212 0.102479 0.10394
H_ H_ 0.752741 0.201917 0.173659 0.10394
H_ H_ 0.740219 0.338601 0.268116 0.10394
H_ H_ 0.703232 0.387941 0.193344 0.10394
H_ H_ 0.714927 0.374841 0.444126 0.10394
H_ H_ 0.771811 0.379304 0.377761 0.10394
H_ H_ 0.89086 0.419625 0.485528 0.10394
H_ H_ 0.81294 0.414052 0.160901 0.10394
H_ H_ 0.734151 0.466574 0.189823 0.10394
H_ H_ 0.833469 0.0475033 0.276638 0.10394
H_ H_ 0.905105 0.519225 0.241831 0.10394
H_ H_ 0.501345 0.393409 0.212787 0.10394
H_ H_ 0.554474 0.316196 0.250514 0.10394
H_ H_ 0.911652 0.251914 0.220226 0.10394
H_ H_ 0.867848 0.340599 0.195727 0.10394
H_ H_ 0.95465 0.0532078 0.100215 0.10394
H_ H_ 0.508578 0.114129 0.102299 0.10394
H_ H_ 0.638068 0.00436275 0.0875637 0.10394
H_ H_ 0.939009 0.160024 0.405881 0.10394
H_ H_ 0.520709 0.188424 0.450131 0.10394
H_ H_ 0.919382 0.274145 0.0532124 0.10394
H_ H_ 0.838736 0.245099 0.503515 0.10394
H_ H_ 0.732056 0.198065 0.383214 0.10394
H_ H_ 0.6976 0.240165 0.304723 0.10394
H_ H_ 0.844699 0.234578 0.255566 0.10394
H_ H_ 0.88288 0.189045 0.334084 0.10394
H_ H_ 0.78549 0.106712 0.0639942 0.10394
H_ H_ 0.730644 0.0946467 0.123129 0.10394
H_ H_ 0.604597 0.0920333 0.00856217 0.10394
C_ C_ 0.681303 0.097757 0.297811 0.18167
C_ C_ 0.724191 0.0758344 0.273696 -0.15533
C_ C_ 0.734742 0.0242884 0.270034 0.02923
C_ C_ 0.697894 0.492896 0.285811 -0.15533
C_ C_ 0.661364 0.0152623 0.311381 0.18167
C_ C_ 0.526963 0.138596 0.279111 0.18167
C_ C_ 0.00655072 0.188351 0.242219 -0.15533
C_ C_ 0.511883 0.230078 0.269283 0.02923
C_ C_ 0.543454 0.235726 0.31254 -0.15533
C_ C_ 0.56232 0.194849 0.341631 0.18167
C_ C_ 0.513047 0.0464022 0.3766 0.69207
C_ C_ 0.973738 0.514746 0.379761 0.02923
C_ C_ 0.991757 0.464421 0.375145 -0.15533
C_ C_ 0.962533 0.425597 0.385214 -0.15533
C_ C_ 0.910314 0.437553 0.390058 0.02923
C_ C_ 0.890481 0.487039 0.392859 -0.15533
C_ C_ 0.923711 0.525881 0.387951 0.02923
C_ C_ 0.894561 0.07253 0.389541 0.69207
C_ C_ 0.897897 0.339024 0.387831 0.69661
C_ C_ 0.566216 0.302176 0.0970901 0.18167
C_ C_ 0.524633 0.276586 0.0755405 -0.15533
C_ C_ 0.517571 0.268029 0.0208132 0.02923
C_ C_ 0.549934 0.289714 0.492735 -0.15533
C_ C_ 0.594547 0.309227 0.0157351 0.18167
C_ C_ 0.711341 0.268064 0.139957 0.18167
C_ C_ 0.741271 0.241581 0.177944 -0.15533
C_ C_ 0.74763 0.264956 0.227079 0.02923
C_ C_ 0.742155 0.319523 0.22927 -0.15533
C_ C_ 0.71504 0.346525 0.189242 0.18167
C_ C_ 0.746162 0.364564 0.0494609 0.69207
C_ C_ 0.773512 0.386724 0.508688 0.02923
C_ C_ 0.755463 0.378524 0.456157 -0.15533
C_ C_ 0.787395 0.385653 0.417014 -0.15533
C_ C_ 0.835217 0.402035 0.428359 0.02923
C_ C_ 0.854551 0.406204 0.480015 -0.15533
C_ C_ 0.824361 0.396552 0.519813 0.02923
C_ C_ 0.856564 0.390326 0.0753865 0.69207
C_ C_ 0.846347 0.396461 0.329477 0.69661
C_ C_ 0.817174 0.442822 0.191901 0.18167
C_ C_ 0.772327 0.470256 0.209453 -0.15533
C_ C_ 0.77835 0.50823 0.247575 0.02923
C_ C_ 0.829043 0.016514 0.24853 -0.15533
C_ C_ 0.867448 0.505986 0.230587 0.18167
C_ C_ 0.989207 0.364088 0.209346 0.18167
C_ C_ 0.514476 0.3159 0.236118 -0.15533
C_ C_ 0.984797 0.28154 0.242254 0.02923
C_ C_ 0.931788 0.286484 0.222572 -0.15533
C_ C_ 0.90921 0.331795 0.201375 0.18167
C_ C_ 0.993804 0.458751 0.129029 0.69207
C_ C_ 0.516742 0.987069 0.113686 0.02923
C_ C_ 0.498921 0.0390485 0.120945 -0.15533
C_ C_ 0.527518 0.0768625 0.108385 -0.15533
C_ C_ 0.577802 0.0670738 0.099475 0.02923
C_ C_ 0.597936 0.0157385 0.0919098 -0.15533
C_ C_ 0.567448 0.975983 0.0984592 0.02923
C_ C_ 0.608901 0.424654 0.12945 0.69207
C_ C_ 0.594038 0.163414 0.11574 0.69661
C_ C_ 0.933465 0.186554 0.439911 0.18167
C_ C_ 0.976094 0.203768 0.471955 -0.15533
C_ C_ 0.967343 0.248843 0.505808 0.02923
C_ C_ 0.92338 0.253174 0.0169094 -0.15533
C_ C_ 0.876892 0.233963 0.495096 0.18167
C_ C_ 0.760272 0.205652 0.354986 0.18167
C_ C_ 0.737326 0.221964 0.308209 -0.15533
C_ C_ 0.768713 0.233178 0.270607 0.02923
C_ C_ 0.821557 0.220721 0.280468 -0.15533
C_ C_ 0.84271 0.198261 0.325457 0.18167
C_ C_ 0.763086 0.124572 0.460794 0.69207
C_ C_ 0.726115 0.117517 0.999191 0.02923
C_ C_ 0.74458 0.111403 0.0519085 -0.15533
C_ C_ 0.712048 0.10596 0.0882915 -0.15533
C_ C_ 0.656518 0.105518 0.0735994 0.02923
C_ C_ 0.639216 0.108672 0.0219548 -0.15533
C_ C_ 0.67349 0.113505 0.98571 0.02923
C_ C_ 0.654968 0.105662 0.432894 0.69207
C_ C_ 0.643729 0.101494 0.167829 0.69661
C_ C_ 0.873214 0.394355 0.385569 -0.30787
C_ C_ 0.617154 0.107462 0.112911 -0.30787
N_ N_ 0.646906 0.0669049 0.310421 -0.32189
N_ N_ 0.551343 0.147995 0.325172 -0.32189
N_ N_ 0.601444 0.318129 0.0674719 -0.32189
N_ N_ 0.699098 0.319523 0.146258 -0.32189
N_ N_ 0.862128 0.464767 0.197114 -0.32189
N_ N_ 0.938655 0.368251 0.196074 -0.32189
N_ N_ 0.886981 0.196679 0.456084 -0.32189
N_ N_ 0.811078 0.18991 0.361131 -0.32189
O_ O_ 0.00479349 0.0902322 0.394395 -0.63271
O_ O_ 0.547187 0.0422192 0.342753 -0.57982
O_ O_ 0.892355 0.0985161 0.348499 -0.63271
O_ O_ 0.869363 0.0916887 0.426765 -0.57982
O_ O_ 0.750216 0.386868 0.0954131 -0.63271
O_ O_ 0.706126 0.34052 0.0367544 -0.57982
O_ O_ 0.874813 0.346093 0.0922146 -0.63271
O_ O_ 0.874814 0.431517 0.0949132 -0.57982
O_ O_ 0.498012 0.407212 0.115648 -0.63271
O_ O_ 0.962408 0.466393 0.165906 -0.57982
O_ O_ 0.600474 0.39321 0.164246 -0.63271
O_ O_ 0.645146 0.412393 0.0998651 -0.57982
O_ O_ 0.75956 0.100963 0.415067 -0.63271
O_ O_ 0.79217 0.160984 0.466685 -0.57982
O_ O_ 0.655992 0.148887 0.408822 -0.63271
O_ O_ 0.62156 0.0740736 0.413636 -0.57982
F_ F_ 0.932702 0.336273 0.43025 -0.20885
F_ F_ 0.923665 0.322774 0.34635 -0.20885
F_ F_ 0.860783 0.306721 0.39018 -0.20885
F_ F_ 0.808312 0.435017 0.326126 -0.20885
F_ F_ 0.821649 0.35507 0.311169 -0.20885
F_ F_ 0.877019 0.404128 0.292054 -0.20885
F_ F_ 0.56531 0.176712 0.070439 -0.20885
F_ F_ 0.561265 0.172918 0.151009 -0.20885
F_ F_ 0.63105 0.197395 0.123703 -0.20885
F_ F_ 0.672838 0.0545228 0.170029 -0.20885
F_ F_ 0.676686 0.138999 0.186657 -0.20885
F_ F_ 0.607113 0.101852 0.202153 -0.20885
Zn Zn 0.587849 0.0826001 0.848422 0.83971
Zn Zn 0.660674 0.347365 0.59052 0.83971
Zn Zn 0.911116 0.42114 0.658847 0.83971
Zn Zn 0.84306 0.150469 0.922693 0.83971
H_ H_ 0.666015 0.132104 0.810717 0.10394
H_ H_ 0.741296 0.10646 0.768101 0.10394
H_ H_ 0.69637 0.446044 0.764337 0.10394
H_ H_ 0.644392 0.981717 0.83368 0.10394
H_ H_ 0.0313822 0.0986806 0.751407 0.10394
H_ H_ 0.98718 0.171787 0.709538 0.10394
H_ H_ 0.532312 0.271016 0.835805 0.10394
H_ H_ 0.571798 0.193763 0.878849 0.10394
H_ H_ 0.539389 0.438387 0.883947 0.10394
H_ H_ 0.98304 0.373314 0.87711 0.10394
H_ H_ 0.859253 0.491206 0.906606 0.10394
H_ H_ 0.580671 0.310721 0.63702 0.10394
H_ H_ -0.0049639999999999684 0.28174 0.601177 0.10394
H_ H_ 0.561673 0.270644 0.954969 0.10394
H_ H_ 0.615786 0.329099 0.488147 0.10394
H_ H_ 0.733973 0.250743 0.60377 0.10394
H_ H_ 0.778077 0.20871 0.679776 0.10394
H_ H_ 0.726403 0.34026 0.771012 0.10394
H_ H_ 0.675874 0.376576 0.694436 0.10394
H_ H_ 0.720048 0.375412 0.948699 0.10394
H_ H_ 0.771787 0.370987 0.878208 0.10394
H_ H_ 0.901898 0.397827 0.98903 0.10394
H_ H_ 0.809443 0.40193 0.657699 0.10394
H_ H_ 0.733595 0.451727 0.684996 0.10394
H_ H_ 0.836994 0.0419727 0.779589 0.10394
H_ H_ 0.903363 0.5021 0.741949 0.10394
H_ H_ 0.510141 0.387289 0.706507 0.10394
H_ H_ 0.55385 0.308883 0.739835 0.10394
H_ H_ 0.910335 0.243848 0.712453 0.10394
H_ H_ 0.869902 0.322946 0.67994 0.10394
H_ H_ 0.955604 0.0415889 0.587821 0.10394
H_ H_ 0.527797 0.114177 0.63246 0.10394
H_ H_ 0.650517 0.00128005 0.592514 0.10394
H_ H_ 0.945996 0.153264 0.908139 0.10394
H_ H_ 0.51361 0.193223 0.948532 0.10394
H_ H_ 0.910163 0.294083 0.543816 0.10394
H_ H_ 0.849912 0.223979 0.013190000000000035 0.10394
H_ H_ 0.732477 0.189749 0.885951 0.10394
H_ H_ 0.699534 0.247211 0.814888 0.10394
H_ H_ 0.845311 0.224658 0.756542 0.10394
H_ H_ 0.883713 0.188237 0.841609 0.10394
H_ H_ 0.786958 0.131516 0.565729 0.10394
H_ H_ 0.736779 0.104136 0.626197 0.10394
H_ H_ 0.609332 0.0838089 0.512932 0.10394
C_ C_ 0.67859 0.093189 0.803317 0.18167
C_ C_ 0.723766 0.0771004 0.781942 -0.15533
C_ C_ 0.738331 0.0233364 0.77377 0.02923
C_ C_ 0.694045 0.48436 0.78082 -0.15533
C_ C_ 0.665285 0.00916291 0.815976 0.18167
C_ C_ 0.531422 0.135426 0.767009 0.18167
C_ C_ 0.00691863 0.177555 0.744235 -0.15533
C_ C_ 0.511527 0.22845 0.764851 0.02923
C_ C_ 0.531898 0.233926 0.815344 -0.15533
C_ C_ 0.553634 0.189474 0.83933 0.18167
C_ C_ 0.515169 0.0405518 0.87438 0.69207
C_ C_ 0.975752 0.502574 0.87271 0.02923
C_ C_ 0.99488 0.45008 0.870624 -0.15533
C_ C_ 0.965576 0.413771 0.882319 -0.15533
C_ C_ 0.915891 0.424946 0.893941 0.02923
C_ C_ 0.897232 0.476961 0.897182 -0.15533
C_ C_ 0.926445 0.516372 0.888722 0.02923
C_ C_ 0.895537 0.0687566 0.881335 0.69207
C_ C_ 0.900762 0.32703 0.883488 0.69661
C_ C_ 0.574206 0.299618 0.597628 0.18167
C_ C_ 0.530417 0.275288 0.577316 -0.15533
C_ C_ 0.519013 0.266309 0.524384 0.02923
C_ C_ 0.555788 0.282064 0.992645 -0.15533
C_ C_ 0.589229 0.316539 0.513425 0.18167
C_ C_ 0.729245 0.269138 0.64067 0.18167
C_ C_ 0.755561 0.245261 0.685563 -0.15533
C_ C_ 0.74753 0.267765 0.7339 0.02923
C_ C_ 0.723521 0.319158 0.736447 -0.15533
C_ C_ 0.696547 0.339417 0.692441 0.18167
C_ C_ 0.736834 0.383377 0.54819 0.69207
C_ C_ 0.777092 0.382588 1.00993394 0.02923
C_ C_ 0.758209 0.381421 0.959295 -0.15533
C_ C_ 0.789152 0.379061 0.918737 -0.15533
C_ C_ 0.84043 0.388031 0.928268 0.02923
C_ C_ 0.860829 0.393997 0.980222 -0.15533
C_ C_ 0.829575 0.393243 0.0209668 0.02923
C_ C_ 0.849699 0.388702 0.571047 0.69207
C_ C_ 0.850971 0.387722 0.83158 0.69661
C_ C_ 0.812713 0.432826 0.684005 0.18167
C_ C_ 0.769799 0.461806 0.703578 -0.15533
C_ C_ 0.774897 0.498638 0.744014 0.02923
C_ C_ 0.825905 0.0189657 0.743833 -0.15533
C_ C_ 0.866108 0.489142 0.734184 0.18167
C_ C_ 0.986916 0.356122 0.710447 0.18167
C_ C_ 0.515256 0.307425 0.719848 -0.15533
C_ C_ 0.981068 0.274655 0.743011 0.02923
C_ C_ 0.933478 0.275651 0.714343 -0.15533
C_ C_ 0.910253 0.320321 0.692839 0.18167
C_ C_ 0.991562 0.45668 0.632739 0.69207
C_ C_ 0.527577 0.986878 0.61569 0.02923
C_ C_ 0.50891 0.0383466 0.617803 -0.15533
C_ C_ 0.541088 0.0743143 0.62285 -0.15533
C_ C_ 0.592005 0.0633458 0.609655 0.02923
C_ C_ 0.609913 0.010622 0.598106 -0.15533
C_ C_ 0.578169 0.971793 0.604997 0.02923
C_ C_ 0.594856 0.422344 0.612139 0.69207
C_ C_ 0.610334 0.158094 0.613842 0.69661
C_ C_ 0.941135 0.18492 0.934412 0.18167
C_ C_ 0.981868 0.210228 0.957984 -0.15533
C_ C_ 0.972954 0.249922 -0.00510465 0.02923
C_ C_ 0.91668 0.262659 0.516214 -0.15533
C_ C_ 0.884502 0.222591 0.994287 0.18167
C_ C_ 0.759368 0.205336 0.859911 0.18167
C_ C_ 0.737998 0.229359 0.816467 -0.15533
C_ C_ 0.769179 0.241321 0.781213 0.02923
C_ C_ 0.822555 0.224977 0.788319 -0.15533
C_ C_ 0.842302 0.19947 0.833075 0.18167
C_ C_ 0.762432 0.122161 0.959083 0.69207
C_ C_ 0.727895 0.119684 0.499937 0.02923
C_ C_ 0.749628 0.117273 0.552097 -0.15533
C_ C_ 0.719906 0.10237 0.587877 -0.15533
C_ C_ 0.668616 0.0938517 0.575961 0.02923
C_ C_ 0.649826 0.0901714 0.523946 -0.15533
C_ C_ 0.678756 0.103107 0.486473 0.02923
C_ C_ 0.650957 0.114365 0.931169 0.69207
C_ C_ 0.657509 0.0976033 0.672015 0.69661
C_ C_ 0.876623 0.383698 0.887859 -0.30787
C_ C_ 0.631699 0.103566 0.618262 -0.30787
N_ N_ 0.648367 0.0593794 0.815746 -0.32189
N_ N_ 0.555385 0.142512 0.815136 -0.32189
N_ N_ 0.604989 0.316457 0.563775 -0.32189
N_ N_ 0.70122 0.315759 0.645369 -0.32189
N_ N_ 0.859247 0.451997 0.695341 -0.32189
N_ N_ 0.937947 0.358393 0.687602 -0.32189
N_ N_ 0.893586 0.191462 0.952563 -0.32189
N_ N_ 0.809672 0.187132 0.865195 -0.32189
O_ O_ 0.00913749 0.0857173 0.893279 -0.63271
O_ O_ 0.55591 0.0261928 0.852636 -0.57982
O_ O_ 0.895549 0.0990159 0.843737 -0.63271
O_ O_ 0.873909 0.0873998 0.92177 -0.57982
O_ O_ 0.738554 0.414073 0.587362 -0.63271
O_ O_ 0.702929 0.349894 0.541531 -0.57982
O_ O_ 0.849404 0.344618 0.59214 -0.63271
O_ O_ 0.879533 0.423427 0.592589 -0.57982
O_ O_ 0.490899 0.407002 0.599197 -0.63271
O_ O_ 0.95655 0.469075 0.666101 -0.57982
O_ O_ 0.592495 0.399397 0.654542 -0.63271
O_ O_ 0.632038 0.407415 0.586256 -0.57982
O_ O_ 0.751346 0.103058 0.911605 -0.63271
O_ O_ 0.800147 0.150667 0.968815 -0.57982
O_ O_ 0.655813 0.152913 0.903552 -0.63271
O_ O_ 0.614158 0.0857303 0.915737 -0.57982
F_ F_ 0.938716 0.320204 0.924867 -0.20885
F_ F_ 0.927245 0.311326 0.84064 -0.20885
F_ F_ 0.862851 0.293709 0.891362 -0.20885
F_ F_ 0.815345 0.429708 0.825541 -0.20885
F_ F_ 0.826612 0.346096 0.810868 -0.20885
F_ F_ 0.885653 0.393276 0.795273 -0.20885
F_ F_ 0.577351 0.159023 0.570139 -0.20885
F_ F_ 0.589245 0.179347 0.657798 -0.20885
F_ F_ 0.647167 0.19075 0.608636 -0.20885
F_ F_ 0.683519 0.0514293 0.67662 -0.20885
F_ F_ 0.69104 0.132794 0.688046 -0.20885
F_ F_ 0.619127 0.099914 0.70679 -0.20885
Zn Zn 0.581985 0.585552 0.349262 0.83971
Zn Zn 0.659885 0.847319 0.0776382 0.83971
Zn Zn 0.906965 0.912935 0.144073 0.83971
Zn Zn 0.834321 0.657825 0.416739 0.83971
H_ H_ 0.668639 0.638359 0.320053 0.10394
H_ H_ 0.748531 0.602891 0.282681 0.10394
H_ H_ 0.710911 0.951703 0.283662 0.10394
H_ H_ 0.626293 0.484579 0.313213 0.10394
H_ H_ 0.0443523 0.596471 0.252944 0.10394
H_ H_ 0.996619 0.663099 0.19761 0.10394
H_ H_ 0.539496 0.768989 0.330757 0.10394
H_ H_ 0.573662 0.695574 0.377414 0.10394
H_ H_ 0.537122 0.941741 0.359195 0.10394
H_ H_ 0.977592 0.877288 0.38728 0.10394
H_ H_ 0.849926 0.989113 0.39962 0.10394
H_ H_ 0.579472 0.799436 0.129035 0.10394
H_ H_ 0.999703534 0.769488 0.0932722 0.10394
H_ H_ 0.547976 0.783305 0.447212 0.10394
H_ H_ 0.607879 0.829245 0.977857 0.10394
H_ H_ 0.730064 0.75508 0.090742 0.10394
H_ H_ 0.763128 0.706811 0.162153 0.10394
H_ H_ 0.708303 0.833694 0.263232 0.10394
H_ H_ 0.667147 0.876247 0.189259 0.10394
H_ H_ 0.714652 0.867217 0.446389 0.10394
H_ H_ 0.758435 0.882136 0.373458 0.10394
H_ H_ 0.896039 0.898008 0.477387 0.10394
H_ H_ 0.802942 0.900006 0.157354 0.10394
H_ H_ 0.735197 0.941888 0.200564 0.10394
H_ H_ 0.831046 0.561261 0.28395 0.10394
H_ H_ 0.906339 1.00449948 0.225658 0.10394
H_ H_ 0.49775 0.886691 0.211155 0.10394
H_ H_ 0.544046 0.80608 0.241742 0.10394
H_ H_ 0.902394 0.751365 0.231291 0.10394
H_ H_ 0.864058 0.829447 0.178496 0.10394
H_ H_ 0.968891 0.558566 0.124194 0.10394
H_ H_ 0.520474 0.621925 0.130623 0.10394
H_ H_ 0.649227 0.507155 0.105147 0.10394
H_ H_ 0.931736 0.672952 0.38603 0.10394
H_ H_ 0.519208 0.695152 0.440199 0.10394
H_ H_ 0.912649 0.789661 0.0275172 0.10394
H_ H_ 0.846881 0.727956 0.512262 0.10394
H_ H_ 0.735385 0.711994 0.38749 0.10394
H_ H_ 0.695155 0.756334 0.308024 0.10394
H_ H_ 0.83249 0.714332 0.234113 0.10394
H_ H_ 0.871752 0.676167 0.312588 0.10394
H_ H_ 0.787444 0.618765 0.0612045 0.10394
H_ H_ 0.737046 0.607509 0.125103 0.10394
H_ H_ 0.610678 0.582239 0.0135452 0.10394
C_ C_ 0.678788 0.597189 0.314392 0.18167
C_ C_ 0.721318 0.578487 0.289729 -0.15533
C_ C_ 0.733632 0.526575 0.278981 0.02923
C_ C_ 0.704006 0.992957 0.289705 -0.15533
C_ C_ 0.65298 0.512999 0.306632 0.18167
C_ C_ 0.520247 0.634549 0.273273 0.18167
C_ C_ 0.00865999999999989 0.672377 0.236243 -0.15533
C_ C_ 0.498999 0.725492 0.269077 0.02923
C_ C_ 0.527819 0.733611 0.31758 -0.15533
C_ C_ 0.548784 0.691091 0.342731 0.18167
C_ C_ 0.506378 0.545136 0.374896 0.69207
C_ C_ 0.97094 0.00694027 0.380042 0.02923
C_ C_ -0.011290000000000022 0.953249 0.372656 -0.15533
C_ C_ 0.958637 0.916421 0.385122 -0.15533
C_ C_ 0.908674 0.926506 0.389474 0.02923
C_ C_ 0.891255 0.978873 0.396763 -0.15533
C_ C_ 0.920532 0.0196513 0.391822 0.02923
C_ C_ 0.898897 0.576031 0.385908 0.69207
C_ C_ 0.894889 0.830215 0.382304 0.69661
C_ C_ 0.568842 0.797242 0.0884963 0.18167
C_ C_ 0.526727 0.77538 0.0700924 -0.15533
C_ C_ 0.514643 0.767192 0.0167085 0.02923
C_ C_ 0.553698 0.788099 0.488442 -0.15533
C_ C_ 0.585549 0.813315 0.00631792 0.18167
C_ C_ 0.721199 0.770421 0.128972 0.18167
C_ C_ 0.740345 0.742958 0.17107 -0.15533
C_ C_ 0.736182 0.763948 0.220612 0.02923
C_ C_ 0.70827 0.812974 0.226834 -0.15533
C_ C_ 0.687802 0.837867 0.182811 0.18167
C_ C_ 0.739351 0.856142 0.0325522 0.69207
C_ C_ 0.773847 0.883584 0.501985 0.02923
C_ C_ 0.75307 0.875108 0.451591 -0.15533
C_ C_ 0.780997 0.879666 0.410805 -0.15533
C_ C_ 0.833858 0.889205 0.418889 0.02923
C_ C_ 0.853018 0.898892 0.468541 -0.15533
C_ C_ 0.825274 0.892929 0.511115 0.02923
C_ C_ 0.851941 0.874264 0.0597321 0.69207
C_ C_ 0.845874 0.889995 0.32173 0.69661
C_ C_ 0.81058 0.937933 0.176997 0.18167
C_ C_ 0.771338 0.9592 0.20668 -0.15533
C_ C_ 0.779319 1.00146673 0.24024 0.02923
C_ C_ 0.825291 0.526197 0.257017 -0.15533
C_ C_ 0.868954 0.991899 0.220378 0.18167
C_ C_ 0.98753 0.842742 0.185269 0.18167
C_ C_ 0.502857 0.811413 0.237246 -0.15533
C_ C_ 0.97716 0.76434 0.22402 0.02923
C_ C_ 0.925815 0.774689 0.214037 -0.15533
C_ C_ 0.904411 0.821209 0.189154 0.18167
C_ C_ 0.983864 0.949968 0.114192 0.69207
C_ C_ 0.526474 0.491538 0.129596 0.02923
C_ C_ 0.506989 0.543853 0.130479 -0.15533
C_ C_ 0.53825 0.582106 0.128885 -0.15533
C_ C_ 0.589671 0.570293 0.118135 0.02923
C_ C_ 0.607607 0.517382 0.111459 -0.15533
C_ C_ 0.580085 0.478627 0.126993 0.02923
C_ C_ 0.594686 0.925045 0.0996218 0.69207
C_ C_ 0.599878 0.661184 0.102487 0.69661
C_ C_ 0.92882 0.689964 0.422614 0.18167
C_ C_ 0.974923 0.705424 0.450022 -0.15533
C_ C_ 0.972693 0.734392 0.496588 0.02923
C_ C_ 0.92211 0.754329 1.00986169 -0.15533
C_ C_ 0.88134 0.723702 0.490836 0.18167
C_ C_ 0.756076 0.710361 0.352338 0.18167
C_ C_ 0.732124 0.735616 0.309253 -0.15533
C_ C_ 0.759251 0.734616 0.264508 0.02923
C_ C_ 0.810718 0.716922 0.267439 -0.15533
C_ C_ 0.832072 0.693117 0.311798 0.18167
C_ C_ 0.757539 0.632903 0.457214 0.69207
C_ C_ 0.729538 0.614461 0.997913 0.02923
C_ C_ 0.749006 0.613192 0.0496522 -0.15533
C_ C_ 0.718705 0.607546 0.0870587 -0.15533
C_ C_ 0.667818 0.597066 0.0757415 0.02923
C_ C_ 0.64828 0.592145 0.023033 -0.15533
C_ C_ 0.678203 0.603318 0.984154 0.02923
C_ C_ 0.646479 0.61506 0.429822 0.69207
C_ C_ 0.65197 0.61307 0.171522 0.69661
C_ C_ 0.870751 0.886865 0.377578 -0.30787
C_ C_ 0.628214 0.609269 0.115837 -0.30787
N_ N_ 0.643838 0.564139 0.321343 -0.32189
N_ N_ 0.546452 0.643485 0.320749 -0.32189
N_ N_ 0.598589 0.816899 0.0570057 -0.32189
N_ N_ 0.691179 0.814563 0.1355 -0.32189
N_ N_ 0.85889 0.953369 0.184772 -0.32189
N_ N_ 0.935406 0.852925 0.1733 -0.32189
N_ N_ 0.882587 0.700608 0.442707 -0.32189
N_ N_ 0.804897 0.687826 0.352119 -0.32189
O_ O_ -0.00157737 0.600199 0.399628 -0.63271
O_ O_ 0.544416 0.536533 0.346279 -0.57982
O_ O_ 0.89296 0.5986 0.345769 -0.63271
O_ O_ 0.869365 0.594133 0.421731 -0.57982
O_ O_ 0.749779 0.873665 0.080295 -0.63271
O_ O_ 0.695895 0.835119 0.0216981 -0.57982
O_ O_ 0.852492 0.833908 0.0868143 -0.63271
O_ O_ 0.874928 0.91253 0.0824544 -0.57982
O_ O_ 0.488516 0.900383 0.106543 -0.63271
O_ O_ 0.951801 0.959302 0.149579 -0.57982
O_ O_ 0.591063 0.898714 0.139198 -0.63271
O_ O_ 0.630403 0.909811 0.0695131 -0.57982
O_ O_ 0.762894 0.604262 0.414463 -0.63271
O_ O_ 0.79261 0.663086 0.466968 -0.57982
O_ O_ 0.647769 0.65471 0.403104 -0.63271
O_ O_ 0.613246 0.5824 0.411901 -0.57982
F_ F_ 0.925924 0.822152 0.426795 -0.20885
F_ F_ 0.9223 0.815388 0.340561 -0.20885
F_ F_ 0.858564 0.797342 0.382766 -0.20885
F_ F_ 0.817625 0.935436 0.313462 -0.20885
F_ F_ 0.813124 0.852021 0.304066 -0.20885
F_ F_ 0.88463 0.889417 0.287278 -0.20885
F_ F_ 0.561545 0.658416 0.0624767 -0.20885
F_ F_ 0.578593 0.691425 0.141039 -0.20885
F_ F_ 0.63279 0.693051 0.085484 -0.20885
F_ F_ 0.680191 0.567035 0.183646 -0.20885
F_ F_ 0.682486 0.655076 0.178237 -0.20885
F_ F_ 0.61752 0.626495 0.206669 -0.20885
Zn Zn 0.58814 0.57867 0.850717 0.83971
Zn Zn 0.669774 0.841405 0.585121 0.83971
Zn Zn 0.906137 0.917277 0.648639 0.83971
Zn Zn 0.839632 0.650645 0.918456 0.83971
H_ H_ 0.663015 0.629408 0.81194 0.10394
H_ H_ 0.749181 0.597309 0.782654 0.10394
H_ H_ 0.715742 0.949648 0.784125 0.10394
H_ H_ 0.624651 0.475106 0.814444 0.10394
H_ H_ 0.00597384 0.59321 0.753019 0.10394
H_ H_ 0.965213 0.666287 0.704619 0.10394
H_ H_ 0.540197 0.760955 0.827657 0.10394
H_ H_ 0.576759 0.687167 0.876613 0.10394
H_ H_ 0.53323 0.940963 0.861695 0.10394
H_ H_ 0.987552 0.876002 0.887451 0.10394
H_ H_ 0.852959 0.984085 0.895039 0.10394
H_ H_ 0.592287 0.793244 0.635708 0.10394
H_ H_ -0.00308638 0.765977 0.592227 0.10394
H_ H_ 0.532068 0.788247 0.94451 0.10394
H_ H_ 0.620536 0.829825 0.483905 0.10394
H_ H_ 0.7141 0.736807 0.603557 0.10394
H_ H_ 0.760301 0.695196 0.674389 0.10394
H_ H_ 0.718147 0.821586 0.776563 0.10394
H_ H_ 0.687861 0.871762 0.700855 0.10394
H_ H_ 0.722681 0.836445 0.92552 0.10394
H_ H_ 0.780915 0.844668 0.86667 0.10394
H_ H_ 0.887791 0.908386 0.981098 0.10394
H_ H_ 0.800476 0.897354 0.662321 0.10394
H_ H_ 0.727489 0.954871 0.692597 0.10394
H_ H_ 0.829898 0.543074 0.788375 0.10394
H_ H_ 0.907603 0.99565746 0.731114 0.10394
H_ H_ 0.514905 0.872342 0.703295 0.10394
H_ H_ 0.552939 0.788618 0.745645 0.10394
H_ H_ 0.902239 0.742108 0.711109 0.10394
H_ H_ 0.86819 0.819798 0.670057 0.10394
H_ H_ 0.965569 0.558037 0.625647 0.10394
H_ H_ 0.518176 0.619597 0.626644 0.10394
H_ H_ 0.637503 0.506201 0.574335 0.10394
H_ H_ 0.941187 0.65244 0.897924 0.10394
H_ H_ 0.523368 0.689943 0.942689 0.10394
H_ H_ 0.918648 0.7599 0.551956 0.10394
H_ H_ 0.843234 0.733635 0.997498 0.10394
H_ H_ 0.73095 0.680635 0.879893 0.10394
H_ H_ 0.688615 0.724292 0.804717 0.10394
H_ H_ 0.836585 0.706478 0.743228 0.10394
H_ H_ 0.878308 0.683323 0.827451 0.10394
H_ H_ 0.785506 0.611004 0.551939 0.10394
H_ H_ 0.737983 0.603082 0.61961 0.10394
H_ H_ 0.603332 0.595871 0.51181 0.10394
C_ C_ 0.674148 0.586992 0.804164 0.18167
C_ C_ 0.721606 0.569373 0.787563 -0.15533
C_ C_ 0.730148 0.518039 0.771389 0.02923
C_ C_ 0.711106 0.990118 0.796909 -0.15533
C_ C_ 0.650899 0.503656 0.806574 0.18167
C_ C_ 0.520948 0.624978 0.775132 0.18167
C_ C_ -0.00799099999999997 0.671486 0.738536 -0.15533
C_ C_ 0.499638 0.71728 0.767376 0.02923
C_ C_ 0.528839 0.724156 0.815824 -0.15533
C_ C_ 0.553916 0.68184 0.839793 0.18167
C_ C_ 0.516006 0.538789 0.882119 0.69207
C_ C_ 0.97322 0.00527565 0.871387 0.02923
C_ C_ -0.004557000000000033 0.954795 0.871475 -0.15533
C_ C_ 0.968312 0.9145 0.884325 -0.15533
C_ C_ 0.913338 0.924692 0.885813 0.02923
C_ C_ 0.891967 0.976494 0.892335 -0.15533
C_ C_ 0.920196 0.0162614 0.879306 0.02923
C_ C_ 0.902014 0.567205 0.883723 0.69207
C_ C_ 0.900225 0.826855 0.870599 0.69661
C_ C_ 0.58235 0.794611 0.593607 0.18167
C_ C_ 0.532942 0.782904 0.574946 -0.15533
C_ C_ 0.521135 0.771558 0.520443 0.02923
C_ C_ 0.544772 0.786888 0.983788 -0.15533
C_ C_ 0.598716 0.809069 0.509123 0.18167
C_ C_ 0.72049 0.759232 0.638397 0.18167
C_ C_ 0.741553 0.73183 0.678683 -0.15533
C_ C_ 0.740055 0.753846 0.72842 0.02923
C_ C_ 0.718572 0.804008 0.737572 -0.15533
C_ C_ 0.699746 0.830536 0.695301 0.18167
C_ C_ 0.744022 0.870043 0.542776 0.69207
C_ C_ 0.776417 0.858974 0.992804 0.02923
C_ C_ 0.756981 0.853729 0.939567 -0.15533
C_ C_ 0.787568 0.864061 0.901313 -0.15533
C_ C_ 0.835259 0.882912 0.914112 0.02923
C_ C_ 0.850671 0.889832 0.966858 -0.15533
C_ C_ 0.824007 0.875707 0.00719358 0.02923
C_ C_ 0.853515 0.885241 0.563053 0.69207
C_ C_ 0.855868 0.888619 0.818488 0.69661
C_ C_ 0.80582 0.934328 0.678255 0.18167
C_ C_ 0.766202 0.962335 0.704217 -0.15533
C_ C_ 0.777222 0.00331169 0.737883 0.02923
C_ C_ 0.82281 0.516256 0.755683 -0.15533
C_ C_ 0.865246 0.99006702 0.720809 0.18167
C_ C_ 0.985242 0.851561 0.701148 0.18167
C_ C_ 0.513171 0.796877 0.729631 -0.15533
C_ C_ 0.976964 0.768674 0.730422 0.02923
C_ C_ 0.927337 0.772548 0.706203 -0.15533
C_ C_ 0.906974 0.816872 0.681421 0.18167
C_ C_ 0.9915 0.948669 0.620951 0.69207
C_ C_ 0.520863 0.49078 0.617808 0.02923
C_ C_ 0.504468 0.54195 0.622011 -0.15533
C_ C_ 0.536367 0.580014 0.621959 -0.15533
C_ C_ 0.586624 0.565974 0.604631 0.02923
C_ C_ 0.603991 0.514704 0.596182 -0.15533
C_ C_ 0.571788 0.47632 0.606841 0.02923
C_ C_ 0.602342 0.91911 0.605847 0.69207
C_ C_ 0.605246 0.660664 0.611493 0.69661
C_ C_ 0.934361 0.678621 0.930537 0.18167
C_ C_ 0.976785 0.701391 0.954744 -0.15533
C_ C_ 0.970994 0.740414 0.993647 0.02923
C_ C_ 0.924536 0.742334 0.516913 -0.15533
C_ C_ 0.880814 0.726478 0.983867 0.18167
C_ C_ 0.75508 0.691758 0.854044 0.18167
C_ C_ 0.731117 0.711047 0.808148 -0.15533
C_ C_ 0.761055 0.72172 0.770033 0.02923
C_ C_ 0.813959 0.707073 0.774489 -0.15533
C_ C_ 0.836387 0.687253 0.819909 0.18167
C_ C_ 0.76527 0.617869 0.957153 0.69207
C_ C_ 0.722902 0.620244 0.494139 0.02923
C_ C_ 0.745135 0.609596 0.544328 -0.15533
C_ C_ 0.717031 0.604323 0.583007 -0.15533
C_ C_ 0.662872 0.60086 0.573538 0.02923
C_ C_ 0.641391 0.601161 0.521551 -0.15533
C_ C_ 0.671351 0.611559 0.481895 0.02923
C_ C_ 0.653935 0.605946 0.930801 0.69207
C_ C_ 0.653656 0.595214 0.669087 0.69661
C_ C_ 0.875629 0.882135 0.874212 -0.30787
C_ C_ 0.627387 0.603255 0.614467 -0.30787
N_ N_ 0.642415 0.553968 0.817151 -0.32189
N_ N_ 0.550814 0.633924 0.819064 -0.32189
N_ N_ 0.614163 0.805961 0.559272 -0.32189
N_ N_ 0.700474 0.80941 0.646628 -0.32189
N_ N_ 0.854731 0.949408 0.687421 -0.32189
N_ N_ 0.935354 0.856546 0.680233 -0.32189
N_ N_ 0.887705 0.693408 0.942827 -0.32189
N_ N_ 0.806539 0.68024 0.858864 -0.32189
O_ O_ 1.008323 0.585778 0.89063 -0.63271
O_ O_ 0.549391 0.528788 0.84799 -0.57982
O_ O_ 0.897694 0.589327 0.84139 -0.63271
O_ O_ 0.874563 0.586868 0.919677 -0.57982
O_ O_ 0.740858 0.899235 0.584516 -0.63271
O_ O_ 0.720333 0.829475 0.541895 -0.57982
O_ O_ 0.859215 0.840673 0.582137 -0.63271
O_ O_ 0.872964 0.922069 0.5872 -0.57982
O_ O_ 0.499986 0.901215 0.604847 -0.63271
O_ O_ 0.956908 0.962549 0.652873 -0.57982
O_ O_ 0.607052 0.895394 0.648406 -0.63271
O_ O_ 0.63339 0.901686 0.570069 -0.57982
O_ O_ 0.765692 0.587912 0.916142 -0.63271
O_ O_ 0.796881 0.651299 0.965916 -0.57982
O_ O_ 0.657442 0.643847 0.901641 -0.63271
O_ O_ 0.620783 0.573691 0.914285 -0.57982
F_ F_ 0.926529 0.812373 0.919268 -0.20885
F_ F_ 0.936697 0.814662 0.837001 -0.20885
F_ F_ 0.861466 0.793929 0.856727 -0.20885
F_ F_ 0.825651 0.936869 0.812308 -0.20885
F_ F_ 0.82598 0.852759 0.79299 -0.20885
F_ F_ 0.895658 0.894856 0.788826 -0.20885
F_ F_ 0.570477 0.668556 0.568626 -0.20885
F_ F_ 0.578029 0.679486 0.653803 -0.20885
F_ F_ 0.637214 0.697047 0.61325 -0.20885
F_ F_ 0.686435 0.551043 0.66897 -0.20885
F_ F_ 0.684395 0.633731 0.688577 -0.20885
F_ F_ 0.620633 0.591637 0.705432 -0.20885
