_cell_length_a 26.508
_cell_length_b 26.37200000322088
_cell_length_c 26.311999743092066
_cell_angle_alpha 93.74100058972084
_cell_angle_beta 96.04100104955006
_cell_angle_gamma 83.6869992558723
_symmetry_space_group_name_H-M         'P 1'
_symmetry_Int_Tables_number            1
loop_
_symmetry_equiv_pos_as_xyz
   'x, y, z'
                         
loop_
_atom_site_label
_atom_site_type_symbol
_atom_site_fract_x 
_atom_site_fract_y
_atom_site_fract_z
_atom_site_charge
Zn Zn 0.0853861 0.0909572 0.349931 0.83971
Zn Zn 0.160219 0.3478 0.0816894 0.83971
Zn Zn 0.405278 0.413262 0.155733 0.83971
Zn Zn 0.339192 0.156736 0.416134 0.83971
H_ H_ 0.168238 0.134463 0.308925 0.10394
H_ H_ 0.250035 0.101654 0.27183 0.10394
H_ H_ 0.203375 0.45027 0.269732 0.10394
H_ H_ 0.128706 0.98773 0.322945 0.10394
H_ H_ 0.518163 0.0927353 0.261652 0.10394
H_ H_ 0.47037 0.15847 0.214893 0.10394
H_ H_ 0.0376376 0.270469 0.315545 0.10394
H_ H_ 0.0689477 0.200513 0.369976 0.10394
H_ H_ 0.0386714 0.445516 0.384647 0.10394
H_ H_ 0.463522 0.376963 0.349225 0.10394
H_ H_ 0.352967 0.493204 0.401057 0.10394
H_ H_ 0.0818584 0.299178 0.127824 0.10394
H_ H_ 0.494696 0.284937 0.0975609 0.10394
H_ H_ 0.0332055 0.287694 0.448598 0.10394
H_ H_ 0.112738 0.326768 0.980362 0.10394
H_ H_ 0.220191 0.253565 0.097682 0.10394
H_ H_ 0.253482 0.205223 0.170517 0.10394
H_ H_ 0.206412 0.337256 0.268223 0.10394
H_ H_ 0.172859 0.3793 0.188565 0.10394
H_ H_ 0.205066 0.371159 0.44224 0.10394
H_ H_ 0.255139 0.387238 0.373832 0.10394
H_ H_ 0.387641 0.407915 0.484377 0.10394
H_ H_ 0.309476 0.391156 0.162953 0.10394
H_ H_ 0.23175 0.443146 0.181801 0.10394
H_ H_ 0.327999 0.0623593 0.265184 0.10394
H_ H_ 0.403894 0.49891 0.23609 0.10394
H_ H_ 0.0104167 0.381452 0.19177 0.10394
H_ H_ 0.0554838 0.301387 0.219463 0.10394
H_ H_ 0.40313 0.236395 0.214954 0.10394
H_ H_ 0.363582 0.323645 0.189276 0.10394
H_ H_ 0.461026 0.0497026 0.12838 0.10394
H_ H_ 0.0139313 0.120369 0.0990441 0.10394
H_ H_ 0.144708 0.00867644 0.110933 0.10394
H_ H_ 0.440562 0.165743 0.398478 0.10394
H_ H_ 0.010274 0.19589 0.442516 0.10394
H_ H_ 0.423627 0.305666 0.0131365 0.10394
H_ H_ 0.339803 0.250758 0.494941 0.10394
H_ H_ 0.2235 0.198553 0.382013 0.10394
H_ H_ 0.185333 0.241788 0.315381 0.10394
H_ H_ 0.331645 0.240044 0.25491 0.10394
H_ H_ 0.37057 0.198282 0.327204 0.10394
H_ H_ 0.280847 0.128692 0.0650225 0.10394
H_ H_ 0.225556 0.122542 0.129399 0.10394
H_ H_ 0.11192 0.0691731 0.016488 0.10394
C_ C_ 0.179811 0.0937016 0.30342 0.18167
C_ C_ 0.223081 0.073835 0.277983 -0.15533
C_ C_ 0.235627 0.020527 0.272131 0.02923
C_ C_ 0.193632 0.48893 0.271285 -0.15533
C_ C_ 0.15466 0.0125272 0.309632 0.18167
C_ C_ 0.0270076 0.133807 0.266957 0.18167
C_ C_ 0.49516 0.169569 0.247431 -0.15533
C_ C_ 0.00889633 0.224062 0.25437 0.02923
C_ C_ 0.0302177 0.232086 0.305055 -0.15533
C_ C_ 0.0562602 0.193142 0.330058 0.18167
C_ C_ 0.0045999999999999375 0.0535263 0.374984 0.69207
C_ C_ 0.467156 0.504226 0.361365 0.02923
C_ C_ 0.482494 0.452371 0.348106 -0.15533
C_ C_ 0.451426 0.415581 0.359905 -0.15533
C_ C_ 0.404245 0.429483 0.381146 0.02923
C_ C_ 0.388221 0.482479 0.386741 -0.15533
C_ C_ 0.419843 0.517819 0.379742 0.02923
C_ C_ 0.393338 0.0715704 0.378565 0.69207
C_ C_ 0.392662 0.333787 0.383717 0.69661
C_ C_ 0.0690834 0.301123 0.0856001 0.18167
C_ C_ 0.0277205 0.276469 0.0663747 -0.15533
C_ C_ 0.0130693 0.270295 0.0135702 0.02923
C_ C_ 0.0490537 0.283059 0.488547 -0.15533
C_ C_ 0.0862479 0.315501 0.00220866 0.18167
C_ C_ 0.215959 0.269749 0.135126 0.18167
C_ C_ 0.234975 0.243358 0.178507 -0.15533
C_ C_ 0.230443 0.266015 0.227309 0.02923
C_ C_ 0.209052 0.315852 0.231029 -0.15533
C_ C_ 0.186251 0.339399 0.187094 0.18167
C_ C_ 0.245061 0.367141 0.0445918 0.69207
C_ C_ 0.26685 0.378761 0.504365 0.02923
C_ C_ 0.24554 0.377594 0.451691 -0.15533
C_ C_ 0.273827 0.388706 0.412923 -0.15533
C_ C_ 0.326405 0.393547 0.424408 0.02923
C_ C_ 0.348511 0.39299 0.473927 -0.15533
C_ C_ 0.319918 0.382781 0.514159 0.02923
C_ C_ 0.355566 0.378696 0.06799 0.69207
C_ C_ 0.335379 0.395221 0.324984 0.69661
C_ C_ 0.311069 0.427361 0.183509 0.18167
C_ C_ 0.267471 0.458072 0.193443 -0.15533
C_ C_ 0.271065 0.501607 0.229339 0.02923
C_ C_ 0.323774 0.0223846 0.251513 -0.15533
C_ C_ 0.364224 0.487084 0.226988 0.18167
C_ C_ 0.486664 0.346936 0.201002 0.18167
C_ C_ 0.0133231 0.305049 0.212048 -0.15533
C_ C_ 0.477938 0.260866 0.229249 0.02923
C_ C_ 0.42663 0.269204 0.215295 -0.15533
C_ C_ 0.40433 0.315227 0.194181 0.18167
C_ C_ 0.487009 0.455436 0.12396 0.69207
C_ C_ 0.0221662 0.990703 0.11566 0.02923
C_ C_ 0.0023100000000000342 0.0428615 0.110835 -0.15533
C_ C_ 0.0331601 0.0819134 0.10972 -0.15533
C_ C_ 0.0845661 0.0709659 0.105538 0.02923
C_ C_ 0.104935 0.0194357 0.108246 -0.15533
C_ C_ 0.0736824 0.980727 0.107555 0.02923
C_ C_ 0.090178 0.424644 0.0993086 0.69207
C_ C_ 0.0952208 0.171181 0.106827 0.69661
C_ C_ 0.436714 0.184719 0.436965 0.18167
C_ C_ 0.477806 0.208901 0.459642 -0.15533
C_ C_ 0.470412 0.245156 0.49998 0.02923
C_ C_ 0.42587 0.264273 0.00220453 -0.15533
C_ C_ 0.379667 0.229431 0.491171 0.18167
C_ C_ 0.248355 0.203972 0.352801 0.18167
C_ C_ 0.224445 0.231934 0.314361 -0.15533
C_ C_ 0.253013 0.237535 0.272259 0.02923
C_ C_ 0.307503 0.230713 0.282307 -0.15533
C_ C_ 0.329023 0.203547 0.322204 0.18167
C_ C_ 0.252785 0.130342 0.451908 0.69207
C_ C_ 0.224513 0.121568 1.00155612 0.02923
C_ C_ 0.242917 0.120403 0.0523206 -0.15533
C_ C_ 0.209086 0.120662 0.0897178 -0.15533
C_ C_ 0.159892 0.107727 0.0766123 0.02923
C_ C_ 0.147613 0.0902178 0.0259452 -0.15533
C_ C_ 0.174477 0.105697 0.986342 0.02923
C_ C_ 0.140032 0.119515 0.432957 0.69207
C_ C_ 0.137696 0.116322 0.17247 0.69661
C_ C_ 0.365371 0.389868 0.381259 -0.30787
C_ C_ 0.119631 0.11557 0.114485 -0.30787
N_ N_ 0.145093 0.0624912 0.317761 -0.32189
N_ N_ 0.0549029 0.144097 0.312571 -0.32189
N_ N_ 0.100676 0.316112 0.0528259 -0.32189
N_ N_ 0.186838 0.31479 0.139565 -0.32189
N_ N_ 0.356129 0.446956 0.193276 -0.32189
N_ N_ 0.435225 0.350676 0.184072 -0.32189
N_ N_ 0.388877 0.194936 0.451309 -0.32189
N_ N_ 0.301683 0.192702 0.359323 -0.32189
O_ O_ 0.500248 0.0859714 0.403096 -0.63271
O_ O_ 0.041762 0.0417238 0.346892 -0.57982
O_ O_ 0.401214 0.0982091 0.340778 -0.63271
O_ O_ 0.364339 0.0929965 0.412181 -0.57982
O_ O_ 0.246283 0.397207 0.0879444 -0.63271
O_ O_ 0.208229 0.337187 0.0357454 -0.57982
O_ O_ 0.359554 0.336045 0.0937775 -0.63271
O_ O_ 0.374448 0.418471 0.0894971 -0.57982
O_ O_ 0.98016 0.407881 0.0846978 -0.63271
O_ O_ 0.449662 0.462226 0.154391 -0.57982
O_ O_ 0.0877696 0.408433 0.144892 -0.63271
O_ O_ 0.129149 0.410189 0.0744926 -0.57982
O_ O_ 0.247177 0.103016 0.408952 -0.63271
O_ O_ 0.285922 0.162432 0.457745 -0.57982
O_ O_ 0.146442 0.155989 0.402132 -0.63271
O_ O_ 0.108192 0.0882544 0.417248 -0.57982
F_ F_ 0.430341 0.329112 0.42531 -0.20885
F_ F_ 0.412908 0.314551 0.33939 -0.20885
F_ F_ 0.358278 0.301545 0.392854 -0.20885
F_ F_ 0.305678 0.441591 0.319076 -0.20885
F_ F_ 0.305613 0.356662 0.311303 -0.20885
F_ F_ 0.368971 0.394884 0.289181 -0.20885
F_ F_ 0.0644242 0.171989 0.0591531 -0.20885
F_ F_ 0.0593512 0.18959 0.140003 -0.20885
F_ F_ 0.130564 0.203984 0.108403 -0.20885
F_ F_ 0.168644 0.0729391 0.18045 -0.20885
F_ F_ 0.161109 0.156334 0.195493 -0.20885
F_ F_ 0.096297 0.114195 0.20112 -0.20885
Zn Zn 0.0870841 0.0788277 0.852527 0.83971
Zn Zn 0.158742 0.342972 0.585891 0.83971
Zn Zn 0.403437 0.41758 0.647099 0.83971
Zn Zn 0.335317 0.156666 0.921322 0.83971
H_ H_ 0.172786 0.127449 0.816961 0.10394
H_ H_ 0.245988 0.0887556 0.770827 0.10394
H_ H_ 0.230861 0.45015 0.80234 0.10394
H_ H_ 0.133943 0.977567 0.830449 0.10394
H_ H_ 0.532241 0.104782 0.74778 0.10394
H_ H_ 0.486909 0.179555 0.702206 0.10394
H_ H_ 0.0250498 0.268183 0.84096 0.10394
H_ H_ 0.0821737 0.198253 0.874339 0.10394
H_ H_ 0.0298272 0.432172 0.840436 0.10394
H_ H_ 0.492533 0.378187 0.876912 0.10394
H_ H_ 0.359618 0.483976 0.891127 0.10394
H_ H_ 0.0892149 0.304758 0.63072 0.10394
H_ H_ 0.502642 0.274446 0.599272 0.10394
H_ H_ 0.030024 0.298935 0.943026 0.10394
H_ H_ 0.119188 0.312091 0.478916 0.10394
H_ H_ 0.210433 0.248738 0.599969 0.10394
H_ H_ 0.257246 0.20403 0.672053 0.10394
H_ H_ 0.216309 0.335328 0.770783 0.10394
H_ H_ 0.177176 0.379562 0.692167 0.10394
H_ H_ 0.220653 0.372531 0.941144 0.10394
H_ H_ 0.273179 0.385461 0.872839 0.10394
H_ H_ 0.401985 0.402686 0.98762 0.10394
H_ H_ 0.305417 0.396919 0.665263 0.10394
H_ H_ 0.2351 0.444659 0.70195 0.10394
H_ H_ 0.32909 0.0329285 0.788086 0.10394
H_ H_ 0.407019 0.508879 0.720473 0.10394
H_ H_ 0.0218948 0.363934 0.673777 0.10394
H_ H_ 0.0561908 0.283107 0.716581 0.10394
H_ H_ 0.412397 0.247579 0.715595 0.10394
H_ H_ 0.369159 0.327011 0.681889 0.10394
H_ H_ 0.462832 0.0577458 0.626771 0.10394
H_ H_ 0.023845 0.12063 0.627896 0.10394
H_ H_ 0.139847 0.00172563 0.588813 0.10394
H_ H_ 0.442892 0.123785 0.950408 0.10394
H_ H_ 0.00955358 0.195173 0.933292 0.10394
H_ H_ 0.413974 0.288919 0.539028 0.10394
H_ H_ 0.348877 0.255133 -0.015422999999999965 0.10394
H_ H_ 0.230863 0.196714 0.883947 0.10394
H_ H_ 0.19277 0.231757 0.808323 0.10394
H_ H_ 0.336212 0.246546 0.756769 0.10394
H_ H_ 0.374753 0.201753 0.834391 0.10394
H_ H_ 0.285394 0.120355 0.549924 0.10394
H_ H_ 0.23697 0.109013 0.619739 0.10394
H_ H_ 0.103372 0.0849068 0.51438 0.10394
C_ C_ 0.181674 0.084332 0.808944 0.18167
C_ C_ 0.221994 0.0642416 0.78343 -0.15533
C_ C_ 0.235817 0.0110074 0.779399 0.02923
C_ C_ 0.214415 0.489221 0.794235 -0.15533
C_ C_ 0.158879 0.000896386 0.815613 0.18167
C_ C_ 0.0233248 0.132599 0.778214 0.18167
C_ C_ 0.507734 0.184528 0.740248 -0.15533
C_ C_ 0.00628531 0.224593 0.768503 0.02923
C_ C_ 0.0319099 0.231017 0.817042 -0.15533
C_ C_ 0.0613375 0.189106 0.837708 0.18167
C_ C_ 0.00852614 0.0444438 0.886883 0.69207
C_ C_ 0.48071 0.507046 0.873124 0.02923
C_ C_ 0.502168 0.455319 0.872618 -0.15533
C_ C_ 0.470731 0.416709 0.874933 -0.15533
C_ C_ 0.41842 0.425877 0.88563 0.02923
C_ C_ 0.398604 0.477123 0.886277 -0.15533
C_ C_ 0.427261 0.51912 0.876142 0.02923
C_ C_ 0.385612 0.0707543 0.878288 0.69207
C_ C_ 0.401429 0.327756 0.877579 0.69661
C_ C_ 0.0774713 0.296374 0.590323 0.18167
C_ C_ 0.0330785 0.274492 0.576859 -0.15533
C_ C_ 0.0175866 0.268515 0.523226 0.02923
C_ C_ 0.0439341 0.292146 0.981029 -0.15533
C_ C_ 0.0957072 0.298683 0.50496 0.18167
C_ C_ 0.210843 0.265792 0.639042 0.18167
C_ C_ 0.231355 0.238814 0.680624 -0.15533
C_ C_ 0.236136 0.264441 0.730013 0.02923
C_ C_ 0.218852 0.315908 0.734102 -0.15533
C_ C_ 0.200906 0.341387 0.689657 0.18167
C_ C_ 0.237659 0.363815 0.546306 0.69207
C_ C_ 0.280911 0.3743 0.0022400000000000198 0.02923
C_ C_ 0.261549 0.377321 0.950766 -0.15533
C_ C_ 0.293402 0.384402 0.911745 -0.15533
C_ C_ 0.344082 0.393585 0.922789 0.02923
C_ C_ 0.363064 0.396599 0.975538 -0.15533
C_ C_ 0.333295 0.381731 0.0146153 0.02923
C_ C_ 0.341721 0.387531 0.567328 0.69207
C_ C_ 0.353591 0.389054 0.823135 0.69661
C_ C_ 0.311341 0.433407 0.684294 0.18167
C_ C_ 0.270914 0.461189 0.703517 -0.15533
C_ C_ 0.280999 0.504261 0.736932 0.02923
C_ C_ 0.327251 0.0016400000000000858 0.763281 -0.15533
C_ C_ 0.367321 0.49446 0.712476 0.18167
C_ C_ 0.490195 0.354735 0.693553 0.18167
C_ C_ 0.0173735 0.29643 0.715246 -0.15533
C_ C_ 0.484306 0.276607 0.735281 0.02923
C_ C_ 0.433243 0.279616 0.716754 -0.15533
C_ C_ 0.410617 0.321834 0.69181 0.18167
C_ C_ 0.485592 0.453597 0.615922 0.69207
C_ C_ 0.0211259 0.992063 0.621211 0.02923
C_ C_ 0.00622515 0.0453091 0.630825 -0.15533
C_ C_ 0.0373062 0.0831224 0.620572 -0.15533
C_ C_ 0.0867839 0.0673537 0.608368 0.02923
C_ C_ 0.100695 0.0143053 0.597517 -0.15533
C_ C_ 0.0699495 0.97571 0.605618 0.02923
C_ C_ 0.101594 0.425725 0.60289 0.69207
C_ C_ 0.10325 0.163074 0.618254 0.69661
C_ C_ 0.438568 0.164694 0.960315 0.18167
C_ C_ 0.480866 0.187128 0.982312 -0.15533
C_ C_ 0.475462 0.237342 1.00310468 0.02923
C_ C_ 0.421926 0.252922 0.518364 -0.15533
C_ C_ 0.384633 0.241196 0.979037 0.18167
C_ C_ 0.255404 0.202507 0.856729 0.18167
C_ C_ 0.232982 0.223072 0.812874 -0.15533
C_ C_ 0.260529 0.239412 0.774908 0.02923
C_ C_ 0.312462 0.22812 0.780622 -0.15533
C_ C_ 0.336012 0.203191 0.827125 0.18167
C_ C_ 0.258353 0.12792 0.962572 0.69207
C_ C_ 0.218167 0.128091 0.493941 0.02923
C_ C_ 0.242658 0.119351 0.543319 -0.15533
C_ C_ 0.215215 0.109146 0.583538 -0.15533
C_ C_ 0.162919 0.102109 0.574409 0.02923
C_ C_ 0.140388 0.101084 0.522611 -0.15533
C_ C_ 0.166303 0.115868 0.483121 0.02923
C_ C_ 0.148134 0.105344 0.933909 0.69207
C_ C_ 0.155084 0.0957561 0.670262 0.69661
C_ C_ 0.378953 0.385287 0.878883 -0.30787
C_ C_ 0.128345 0.107075 0.617598 -0.30787
N_ N_ 0.147176 0.0525956 0.820153 -0.32189
N_ N_ 0.0546158 0.140775 0.821092 -0.32189
N_ N_ 0.110333 0.300857 0.55636 -0.32189
N_ N_ 0.191023 0.313513 0.644569 -0.32189
N_ N_ 0.358454 0.449314 0.688594 -0.32189
N_ N_ 0.438305 0.361806 0.685774 -0.32189
N_ N_ 0.392878 0.194194 0.954931 -0.32189
N_ N_ 0.306162 0.192642 0.863877 -0.32189
O_ O_ 0.493262 0.0993044 0.881782 -0.63271
O_ O_ 0.0440307 0.0321434 0.855939 -0.57982
O_ O_ 0.38288 0.0949747 0.83707 -0.63271
O_ O_ 0.362286 0.0906573 0.918203 -0.57982
O_ O_ 0.235983 0.395995 0.586282 -0.63271
O_ O_ 0.201185 0.334491 0.535101 -0.57982
O_ O_ 0.341104 0.346732 0.593451 -0.63271
O_ O_ 0.377105 0.417844 0.58272 -0.57982
O_ O_ 0.990791 0.409675 0.587803 -0.63271
O_ O_ 0.448573 0.462142 0.648575 -0.57982
O_ O_ 0.0996503 0.401847 0.643394 -0.63271
O_ O_ 0.130386 0.406099 0.568822 -0.57982
O_ O_ 0.260809 0.0961974 0.920868 -0.63271
O_ O_ 0.294167 0.159045 0.971661 -0.57982
O_ O_ 0.154374 0.140716 0.904527 -0.63271
O_ O_ 0.110985 0.0776046 0.920061 -0.57982
F_ F_ 0.43865 0.319019 0.922389 -0.20885
F_ F_ 0.429989 0.314032 0.836261 -0.20885
F_ F_ 0.363959 0.294028 0.875925 -0.20885
F_ F_ 0.322351 0.434213 0.817955 -0.20885
F_ F_ 0.327326 0.349178 0.803657 -0.20885
F_ F_ 0.39216 0.390045 0.790617 -0.20885
F_ F_ 0.0651551 0.171011 0.576284 -0.20885
F_ F_ 0.0855461 0.181233 0.664606 -0.20885
F_ F_ 0.140467 0.196795 0.615509 -0.20885
F_ F_ 0.188319 0.052776 0.671119 -0.20885
F_ F_ 0.183853 0.132528 0.68878 -0.20885
F_ F_ 0.120547 0.0925879 0.704533 -0.20885
Zn Zn 0.0913909 0.586084 0.34499 0.83971
Zn Zn 0.158987 0.850503 0.0906569 0.83971
Zn Zn 0.410965 0.917544 0.158358 0.83971
Zn Zn 0.34416 0.653775 0.418924 0.83971
H_ H_ 0.166786 0.633129 0.300821 0.10394
H_ H_ 0.247812 0.601565 0.26671 0.10394
H_ H_ 0.20961 0.949799 0.28596 0.10394
H_ H_ 0.125739 0.486537 0.31198 0.10394
H_ H_ 0.547265 0.602089 0.2502 0.10394
H_ H_ 0.502745 0.677772 0.206304 0.10394
H_ H_ 0.0213402 0.766031 0.347031 0.10394
H_ H_ 0.0687916 0.689419 0.380596 0.10394
H_ H_ 0.033361 0.950661 0.371358 0.10394
H_ H_ 0.459722 0.875868 0.339126 0.10394
H_ H_ 0.353761 0.988249 0.409573 0.10394
H_ H_ 0.0707816 0.813583 0.129207 0.10394
H_ H_ 0.503243 0.757142 0.0975305 0.10394
H_ H_ 0.0402975 0.783201 0.449904 0.10394
H_ H_ 0.113262 0.842757 0.986443 0.10394
H_ H_ 0.210531 0.752615 0.0993448 0.10394
H_ H_ 0.257286 0.702302 0.170691 0.10394
H_ H_ 0.20472 0.824183 0.275797 0.10394
H_ H_ 0.163498 0.87314 0.207058 0.10394
H_ H_ 0.208063 0.904661 0.453703 0.10394
H_ H_ 0.259612 0.918865 0.385109 0.10394
H_ H_ 0.396968 0.887095 0.489934 0.10394
H_ H_ 0.312829 0.897135 0.166532 0.10394
H_ H_ 0.242512 0.935265 0.206183 0.10394
H_ H_ 0.325848 0.544109 0.276567 0.10394
H_ H_ 0.400637 0.0162373 0.227127 0.10394
H_ H_ 0.0113145 0.884104 0.188742 0.10394
H_ H_ 0.0567573 0.807353 0.230897 0.10394
H_ H_ 0.418937 0.749946 0.234984 0.10394
H_ H_ 0.379781 0.817249 0.180073 0.10394
H_ H_ 0.473999 0.555445 0.152867 0.10394
H_ H_ 0.00786584 0.620114 0.0797412 0.10394
H_ H_ 0.137515 0.501976 0.0797968 0.10394
H_ H_ 0.450516 0.659233 0.403893 0.10394
H_ H_ 0.0228085 0.691983 0.460431 0.10394
H_ H_ 0.416417 0.77229 0.0471863 0.10394
H_ H_ 0.348209 0.74052 0.504206 0.10394
H_ H_ 0.233752 0.681727 0.38064 0.10394
H_ H_ 0.190333 0.716869 0.308958 0.10394
H_ H_ 0.333605 0.733279 0.2508 0.10394
H_ H_ 0.375891 0.703439 0.332108 0.10394
H_ H_ 0.280247 0.630314 0.0584931 0.10394
H_ H_ 0.220995 0.612197 0.118477 0.10394
H_ H_ 0.104692 0.593414 -0.0006939999999999724 0.10394
C_ C_ 0.17684 0.592501 0.29808 0.18167
C_ C_ 0.22043 0.57469 0.272923 -0.15533
C_ C_ 0.227344 0.522746 0.256246 0.02923
C_ C_ 0.20132 0.992087 0.291021 -0.15533
C_ C_ 0.150802 0.509401 0.297206 0.18167
C_ C_ 0.0301248 0.640589 0.266747 0.18167
C_ C_ 0.518634 0.682914 0.247211 -0.15533
C_ C_ 0.00874565 0.731996 0.270023 0.02923
C_ C_ 0.0312804 0.733024 0.319487 -0.15533
C_ C_ 0.0556342 0.689072 0.340123 0.18167
C_ C_ 0.0124921 0.544835 0.370275 0.69207
C_ C_ 0.468678 0.00591238 0.368364 0.02923
C_ C_ 0.483256 0.95207 0.352675 -0.15533
C_ C_ 0.45109 0.915445 0.357612 -0.15533
C_ C_ 0.405193 0.927047 0.382691 0.02923
C_ C_ 0.390364 0.979245 0.394879 -0.15533
C_ C_ 0.419123 0.0175136 0.382323 0.02923
C_ C_ 0.399764 0.573601 0.386301 0.69207
C_ C_ 0.395766 0.829933 0.387467 0.69661
C_ C_ 0.0652351 0.807759 0.0898406 0.18167
C_ C_ 0.0233579 0.782929 0.0675055 -0.15533
C_ C_ 0.0147866 0.779053 0.0155307 0.02923
C_ C_ 0.0499851 0.789248 0.490505 -0.15533
C_ C_ 0.0918793 0.820357 0.0110153 0.18167
C_ C_ 0.213179 0.769968 0.138861 0.18167
C_ C_ 0.236394 0.740398 0.1783 -0.15533
C_ C_ 0.232512 0.75801 0.22921 0.02923
C_ C_ 0.202058 0.804528 0.23909 -0.15533
C_ C_ 0.180276 0.833817 0.199323 0.18167
C_ C_ 0.240909 0.872102 0.0502608 0.69207
C_ C_ 0.271956 0.885291 0.508534 0.02923
C_ C_ 0.25045 0.899461 0.458979 -0.15533
C_ C_ 0.279559 0.900983 0.418416 -0.15533
C_ C_ 0.333416 0.892988 0.427394 0.02923
C_ C_ 0.356434 0.891007 0.477719 -0.15533
C_ C_ 0.327033 0.887836 0.518578 0.02923
C_ C_ 0.355776 0.888441 0.0750546 0.69207
C_ C_ 0.336733 0.88924 0.330147 0.69661
C_ C_ 0.318008 0.930437 0.193588 0.18167
C_ C_ 0.276765 0.951914 0.215283 -0.15533
C_ C_ 0.277546 0.9999121115 0.242979 0.02923
C_ C_ 0.321126 0.516073 0.246171 -0.15533
C_ C_ 0.367658 0.995562 0.231591 0.18167
C_ C_ 0.497949 0.853823 0.20511 0.18167
C_ C_ 0.0153701 0.814141 0.226589 -0.15533
C_ C_ 0.493173 0.774613 0.243216 0.02923
C_ C_ 0.440661 0.779476 0.225887 -0.15533
C_ C_ 0.41755 0.820747 0.19905 0.18167
C_ C_ 0.482687 0.954408 0.122125 0.69207
C_ C_ 0.0125915 0.492284 0.0941447 0.02923
C_ C_ -0.007993999999999946 0.544579 0.0875597 -0.15533
C_ C_ 0.0244665 0.579863 0.084737 -0.15533
C_ C_ 0.0776115 0.567067 0.0837166 0.02923
C_ C_ 0.09716 0.5143 0.0799271 -0.15533
C_ C_ 0.0657417 0.477026 0.0911964 0.02923
C_ C_ 0.0971578 0.929153 0.108291 0.69207
C_ C_ 0.0923576 0.665937 0.0971799 0.69661
C_ C_ 0.440423 0.68816 0.432338 0.18167
C_ C_ 0.481799 0.711457 0.460248 -0.15533
C_ C_ 0.473664 0.741283 0.507061 0.02923
C_ C_ 0.423449 0.749432 0.0117967 -0.15533
C_ C_ 0.386332 0.729815 0.492243 0.18167
C_ C_ 0.258312 0.693908 0.354564 0.18167
C_ C_ 0.231824 0.713226 0.310977 -0.15533
C_ C_ 0.258562 0.728672 0.272658 0.02923
C_ C_ 0.311667 0.726015 0.280597 -0.15533
C_ C_ 0.337081 0.705578 0.326507 0.18167
C_ C_ 0.272641 0.60941 0.457279 0.69207
C_ C_ 0.225615 0.622786 0.991678 0.02923
C_ C_ 0.24267 0.621642 0.0439626 -0.15533
C_ C_ 0.20806 0.612203 0.0793491 -0.15533
C_ C_ 0.157818 0.602683 0.0648241 0.02923
C_ C_ 0.142542 0.601671 0.0130122 -0.15533
C_ C_ 0.174774 0.612408 0.975183 0.02923
C_ C_ 0.159102 0.600485 0.423441 0.69207
C_ C_ 0.13166 0.604956 0.15688 0.69661
C_ C_ 0.366962 0.886918 0.382643 -0.30787
C_ C_ 0.114366 0.608905 0.0994292 -0.30787
N_ N_ 0.139654 0.560693 0.300135 -0.32189
N_ N_ 0.0562328 0.643252 0.314574 -0.32189
N_ N_ 0.101886 0.818316 0.0624062 -0.32189
N_ N_ 0.190201 0.816709 0.149924 -0.32189
N_ N_ 0.36305 0.9534 0.202342 -0.32189
N_ N_ 0.447076 0.85922 0.190076 -0.32189
N_ N_ 0.395052 0.695193 0.450884 -0.32189
N_ N_ 0.309766 0.688095 0.361539 -0.32189
O_ O_ 0.500082 0.587112 0.389528 -0.63271
O_ O_ 0.0440676 0.539421 0.335668 -0.57982
O_ O_ 0.386868 0.599289 0.343777 -0.63271
O_ O_ 0.382247 0.59312 0.427784 -0.57982
O_ O_ 0.248312 0.891702 0.098581 -0.63271
O_ O_ 0.202897 0.843545 0.0400206 -0.57982
O_ O_ 0.360061 0.845057 0.100244 -0.63271
O_ O_ 0.372906 0.928199 0.098012 -0.57982
O_ O_ 0.987788 0.909987 0.0958072 -0.63271
O_ O_ 0.455945 0.963008 0.161553 -0.57982
O_ O_ 0.0958303 0.904712 0.148052 -0.63271
O_ O_ 0.132216 0.913709 0.0774873 -0.57982
O_ O_ 0.269364 0.589734 0.409048 -0.63271
O_ O_ 0.298798 0.648161 0.465844 -0.57982
O_ O_ 0.153942 0.644385 0.40291 -0.63271
O_ O_ 0.127498 0.567045 0.404175 -0.57982
F_ F_ 0.438805 0.826383 0.423456 -0.20885
F_ F_ 0.411561 0.80412 0.340465 -0.20885
F_ F_ 0.362956 0.798245 0.403704 -0.20885
F_ F_ 0.310925 0.936586 0.322883 -0.20885
F_ F_ 0.301609 0.8554 0.320132 -0.20885
F_ F_ 0.370318 0.881105 0.293025 -0.20885
F_ F_ 0.0663476 0.669788 0.0480089 -0.20885
F_ F_ 0.0570847 0.678255 0.131304 -0.20885
F_ F_ 0.126529 0.702063 0.104753 -0.20885
F_ F_ 0.159912 0.556504 0.16471 -0.20885
F_ F_ 0.163738 0.645823 0.172697 -0.20885
F_ F_ 0.0905476 0.607891 0.187882 -0.20885
Zn Zn 0.0891151 0.581697 0.841656 0.83971
Zn Zn 0.162296 0.848827 0.584042 0.83971
Zn Zn 0.41106 0.915846 0.655031 0.83971
Zn Zn 0.339028 0.654762 0.911655 0.83971
H_ H_ 0.162461 0.631162 0.791198 0.10394
H_ H_ 0.244851 0.604064 0.760505 0.10394
H_ H_ 0.215169 0.94081 0.798934 0.10394
H_ H_ 0.146593 0.484114 0.831751 0.10394
H_ H_ 0.523143 0.596044 0.753557 0.10394
H_ H_ 0.488443 0.673319 0.704337 0.10394
H_ H_ 0.0511151 0.768626 0.824215 0.10394
H_ H_ 0.0769132 0.693439 0.874573 0.10394
H_ H_ 0.0365399 0.945068 0.888106 0.10394
H_ H_ 0.484222 0.882244 0.879337 0.10394
H_ H_ 0.349448 0.982981 0.903589 0.10394
H_ H_ 0.0907889 0.806989 0.635093 0.10394
H_ H_ 0.505434 0.767378 0.610368 0.10394
H_ H_ 0.0418053 0.799181 0.946215 0.10394
H_ H_ 0.124704 0.820047 0.483826 0.10394
H_ H_ 0.226632 0.758272 0.59422 0.10394
H_ H_ 0.261174 0.707639 0.667238 0.10394
H_ H_ 0.226474 0.843391 0.764601 0.10394
H_ H_ 0.176946 0.881693 0.68859 0.10394
H_ H_ 0.222899 0.85387 0.951325 0.10394
H_ H_ 0.280146 0.849637 0.884585 0.10394
H_ H_ 0.400576 0.907502 0.991855 0.10394
H_ H_ 0.307193 0.89323 0.665496 0.10394
H_ H_ 0.233394 0.939213 0.695816 0.10394
H_ H_ 0.334194 0.556487 0.762318 0.10394
H_ H_ 0.404401 -0.007480000000000042 0.741663 0.10394
H_ H_ 0.0100477 0.890671 0.705699 0.10394
H_ H_ 0.0575512 0.8152 0.74713 0.10394
H_ H_ 0.417535 0.740711 0.705608 0.10394
H_ H_ 0.372715 0.827585 0.688916 0.10394
H_ H_ 0.457719 0.547705 0.610161 0.10394
H_ H_ 0.0214159 0.623309 0.615378 0.10394
H_ H_ 0.146701 0.505435 0.586322 0.10394
H_ H_ 0.434805 0.667902 0.887696 0.10394
H_ H_ 0.0243925 0.692363 0.952157 0.10394
H_ H_ 0.416234 0.775049 0.554731 0.10394
H_ H_ 0.343272 0.738926 -0.0029287 0.10394
H_ H_ 0.241797 0.682414 0.870591 0.10394
H_ H_ 0.197293 0.73486 0.799515 0.10394
H_ H_ 0.34298 0.746968 0.74545 0.10394
H_ H_ 0.387817 0.697372 0.817799 0.10394
H_ H_ 0.297604 0.59564 0.558941 0.10394
H_ H_ 0.236933 0.582806 0.621025 0.10394
H_ H_ 0.109789 0.593998 0.503438 0.10394
C_ C_ 0.177747 0.59168 0.792402 0.18167
C_ C_ 0.226056 0.575491 0.776901 -0.15533
C_ C_ 0.239594 0.523926 0.768828 0.02923
C_ C_ 0.204738 0.97885 0.79656 -0.15533
C_ C_ 0.166048 0.50711 0.812477 0.18167
C_ C_ 0.0279373 0.634753 0.767197 0.18167
C_ C_ 0.508587 0.675924 0.742452 -0.15533
C_ C_ 0.0139452 0.726035 0.76327 0.02923
C_ C_ 0.042355 0.731469 0.809388 -0.15533
C_ C_ 0.0603164 0.686863 0.8361 0.18167
C_ C_ 0.0113228 0.535823 0.858966 0.69207
C_ C_ 0.468159 0.0115048 0.872035 0.02923
C_ C_ 0.490133 0.961146 0.867426 -0.15533
C_ C_ 0.462766 0.920184 0.877732 -0.15533
C_ C_ 0.412424 0.925903 0.891273 0.02923
C_ C_ 0.388895 0.975736 0.891465 -0.15533
C_ C_ 0.415127 0.0190804 0.880739 0.02923
C_ C_ 0.397073 0.571797 0.873935 0.69207
C_ C_ 0.413151 0.830919 0.886819 0.69661
C_ C_ 0.0788285 0.797798 0.595058 0.18167
C_ C_ 0.0318095 0.781366 0.577453 -0.15533
C_ C_ 0.0177674 0.774525 0.52374 0.02923
C_ C_ 0.0509569 0.797623 0.987097 -0.15533
C_ C_ 0.0974036 0.807793 0.510143 0.18167
C_ C_ 0.21795 0.771153 0.630125 0.18167
C_ C_ 0.243117 0.746144 0.673715 -0.15533
C_ C_ 0.243393 0.7692 0.722104 0.02923
C_ C_ 0.22427 0.821382 0.728427 -0.15533
C_ C_ 0.198779 0.844692 0.686612 0.18167
C_ C_ 0.238307 0.874253 0.547486 0.69207
C_ C_ 0.279951 0.875454 0.00982513 0.02923
C_ C_ 0.263573 0.861244 0.959515 -0.15533
C_ C_ 0.295027 0.86413 0.921382 -0.15533
C_ C_ 0.344041 0.882121 0.930821 0.02923
C_ C_ 0.362397 0.896887 0.981828 -0.15533
C_ C_ 0.331462 0.887515 0.021108 0.02923
C_ C_ 0.353235 0.885365 0.571708 0.69207
C_ C_ 0.352784 0.884651 0.831067 0.69661
C_ C_ 0.311729 0.929833 0.685749 0.18167
C_ C_ 0.26862 0.953372 0.708846 -0.15533
C_ C_ 0.276062 0.990763 0.747612 0.02923
C_ C_ 0.327424 0.522431 0.73955 -0.15533
C_ C_ 0.366892 0.978062 0.735577 0.18167
C_ C_ 0.492463 0.854768 0.710621 0.18167
C_ C_ 0.0181242 0.816503 0.7323 -0.15533
C_ C_ 0.487679 0.771562 0.736958 0.02923
C_ C_ 0.436038 0.774868 0.714 -0.15533
C_ C_ 0.414217 0.822034 0.697768 0.18167
C_ C_ 0.490872 0.954591 0.630868 0.69207
C_ C_ 0.0235958 0.492988 0.60693 0.02923
C_ C_ 1.00529001 0.54406 0.609882 -0.15533
C_ C_ 0.0374627 0.582806 0.607154 -0.15533
C_ C_ 0.0885248 0.569496 0.599243 0.02923
C_ C_ 0.106247 0.517173 0.592179 -0.15533
C_ C_ 0.0744942 0.478341 0.597195 0.02923
C_ C_ 0.0935185 0.922906 0.607227 0.69207
C_ C_ 0.108341 0.666752 0.600246 0.69661
C_ C_ 0.434365 0.686345 0.925502 0.18167
C_ C_ 0.477428 0.709075 0.950961 -0.15533
C_ C_ 0.473648 0.737222 -0.0030120000000000147 0.02923
C_ C_ 0.424935 0.752576 0.521502 -0.15533
C_ C_ 0.382933 0.723751 0.988725 0.18167
C_ C_ 0.264006 0.700131 0.846251 0.18167
C_ C_ 0.238823 0.724448 0.802926 -0.15533
C_ C_ 0.267782 0.741563 0.767814 0.02923
C_ C_ 0.321229 0.731089 0.7723 -0.15533
C_ C_ 0.344733 0.704975 0.814656 0.18167
C_ C_ 0.263504 0.625037 0.955785 0.69207
C_ C_ 0.237988 0.600397 0.494585 0.02923
C_ C_ 0.255304 0.59989 0.546698 -0.15533
C_ C_ 0.221052 0.594249 0.583535 -0.15533
C_ C_ 0.167944 0.597786 0.569572 0.02923
C_ C_ 0.150784 0.597452 0.516591 -0.15533
C_ C_ 0.186045 0.595574 0.47816 0.02923
C_ C_ 0.151921 0.612003 0.920627 0.69207
C_ C_ 0.149879 0.606919 0.664457 0.69661
C_ C_ 0.380023 0.882097 0.886518 -0.30787
C_ C_ 0.128461 0.610775 0.608011 -0.30787
N_ N_ 0.146911 0.557141 0.80665 -0.32189
N_ N_ 0.0569997 0.640924 0.813438 -0.32189
N_ N_ 0.110387 0.807901 0.560774 -0.32189
N_ N_ 0.19591 0.819194 0.638401 -0.32189
N_ N_ 0.359481 0.943544 0.698094 -0.32189
N_ N_ 0.443598 0.858345 0.688862 -0.32189
N_ N_ 0.388372 0.695507 0.944943 -0.32189
N_ N_ 0.314673 0.686237 0.849134 -0.32189
O_ O_ 0.503478 0.593793 0.878098 -0.63271
O_ O_ 0.0488855 0.528885 0.829011 -0.57982
O_ O_ 0.396017 0.599817 0.834198 -0.63271
O_ O_ 0.373628 0.590743 0.913986 -0.57982
O_ O_ 0.237262 0.89966 0.591386 -0.63271
O_ O_ 0.208701 0.837596 0.538797 -0.57982
O_ O_ 0.353437 0.844497 0.598087 -0.63271
O_ O_ 0.381157 0.920908 0.5914 -0.57982
O_ O_ 0.983334 0.911365 0.601044 -0.63271
O_ O_ 0.457267 0.963279 0.6637 -0.57982
O_ O_ 0.0943826 0.900566 0.650097 -0.63271
O_ O_ 0.126814 0.906991 0.574618 -0.57982
O_ O_ 0.262935 0.595666 0.91228 -0.63271
O_ O_ 0.2896 0.664329 0.959059 -0.57982
O_ O_ 0.159275 0.645287 0.88783 -0.63271
O_ O_ 0.122108 0.578882 0.905685 -0.57982
F_ F_ 0.446927 0.827258 0.932816 -0.20885
F_ F_ 0.437099 0.816816 0.842948 -0.20885
F_ F_ 0.382223 0.791475 0.888948 -0.20885
F_ F_ 0.311418 0.922986 0.828246 -0.20885
F_ F_ 0.333792 0.841252 0.814272 -0.20885
F_ F_ 0.388453 0.893429 0.796529 -0.20885
F_ F_ 0.0749671 0.669871 0.556069 -0.20885
F_ F_ 0.0794619 0.686725 0.639027 -0.20885
F_ F_ 0.146674 0.697049 0.591548 -0.20885
F_ F_ 0.179046 0.561102 0.669706 -0.20885
F_ F_ 0.179124 0.645302 0.683917 -0.20885
F_ F_ 0.112845 0.610687 0.697251 -0.20885
Zn Zn 0.581636 0.0864778 0.353083 0.83971
Zn Zn 0.662084 0.349499 0.0803065 0.83971
Zn Zn 0.905527 0.412283 0.144111 0.83971
Zn Zn 0.833563 0.163175 0.420416 0.83971
H_ H_ 0.659302 0.133739 0.311451 0.10394
H_ H_ 0.74129 0.102428 0.275195 0.10394
H_ H_ 0.715011 0.440938 0.284874 0.10394
H_ H_ 0.633119 0.985914 0.336891 0.10394
H_ H_ 0.0310599 0.0934446 0.250118 0.10394
H_ H_ 0.985019 0.163666 0.199579 0.10394
H_ H_ 0.53209 0.270663 0.323103 0.10394
H_ H_ 0.570043 0.201967 0.375896 0.10394
H_ H_ 0.512609 0.4444 0.322981 0.10394
H_ H_ 0.985851 0.375983 0.383234 0.10394
H_ H_ 0.856903 0.486995 0.400131 0.10394
H_ H_ 0.575117 0.320921 0.130289 0.10394
H_ H_ 1.0023 0.266304 0.0910515 0.10394
H_ H_ 0.532739 0.290646 0.443258 0.10394
H_ H_ 0.630338 0.296462 0.983326 0.10394
H_ H_ 0.712407 0.246671 0.101451 0.10394
H_ H_ 0.763394 0.207338 0.171902 0.10394
H_ H_ 0.707844 0.334984 0.270853 0.10394
H_ H_ 0.67822 0.380202 0.193941 0.10394
H_ H_ 0.728745 0.3406 0.436362 0.10394
H_ H_ 0.782084 0.345223 0.367825 0.10394
H_ H_ 0.895357 0.410236 0.478574 0.10394
H_ H_ 0.806096 0.39459 0.153354 0.10394
H_ H_ 0.734693 0.441448 0.187037 0.10394
H_ H_ 0.828255 0.0488515 0.282513 0.10394
H_ H_ 0.908923 0.488764 0.22975 0.10394
H_ H_ 0.511184 0.372754 0.190367 0.10394
H_ H_ 0.550475 0.290848 0.224245 0.10394
H_ H_ 0.913306 0.235576 0.202545 0.10394
H_ H_ 0.866776 0.31398 0.173993 0.10394
H_ H_ 0.963293 0.0529777 0.117331 0.10394
H_ H_ 0.517726 0.120503 0.126317 0.10394
H_ H_ 0.637907 0.00482101 0.0811978 0.10394
H_ H_ 0.93255 0.174033 0.392908 0.10394
H_ H_ 0.516213 0.195522 0.446983 0.10394
H_ H_ 0.917138 0.270078 0.0490961 0.10394
H_ H_ 0.852904 0.219925 0.522272 0.10394
H_ H_ 0.72399 0.194493 0.383695 0.10394
H_ H_ 0.682997 0.238207 0.310174 0.10394
H_ H_ 0.82935 0.218075 0.248315 0.10394
H_ H_ 0.869028 0.189085 0.329191 0.10394
H_ H_ 0.785664 0.11388 0.0494339 0.10394
H_ H_ 0.735604 0.105078 0.119611 0.10394
H_ H_ 0.601301 0.0987008 0.0120617 0.10394
C_ C_ 0.671794 0.0948467 0.308856 0.18167
C_ C_ 0.718643 0.0759235 0.289759 -0.15533
C_ C_ 0.728862 0.0232253 0.278539 0.02923
C_ C_ 0.705042 0.481009 0.28605 -0.15533
C_ C_ 0.655485 0.011579 0.319903 0.18167
C_ C_ 0.52515 0.131801 0.273771 0.18167
C_ C_ 0.0031581 0.172997 0.236262 -0.15533
C_ C_ 0.499948 0.220478 0.263798 0.02923
C_ C_ 0.522938 0.231867 0.312916 -0.15533
C_ C_ 0.549399 0.192533 0.34105 0.18167
C_ C_ 0.502977 0.0464883 0.368088 0.69207
C_ C_ 0.977632 0.504364 0.376838 0.02923
C_ C_ 0.998934 0.452869 0.374944 -0.15533
C_ C_ 0.96703 0.414437 0.374477 -0.15533
C_ C_ 0.915521 0.423306 0.384655 0.02923
C_ C_ 0.895186 0.475627 0.39061 -0.15533
C_ C_ 0.924521 0.51597 0.388073 0.02923
C_ C_ 0.890246 0.0777948 0.387696 0.69207
C_ C_ 0.909408 0.325555 0.380724 0.69661
C_ C_ 0.568393 0.307055 0.0911347 0.18167
C_ C_ 0.524702 0.282433 0.0729636 -0.15533
C_ C_ 0.519842 0.261133 0.0236507 0.02923
C_ C_ 0.544814 0.292527 0.484599 -0.15533
C_ C_ 0.599483 0.295107 0.0093964 0.18167
C_ C_ 0.716187 0.270025 0.137786 0.18167
C_ C_ 0.740607 0.243595 0.179359 -0.15533
C_ C_ 0.73207 0.264125 0.227637 0.02923
C_ C_ 0.708348 0.31511 0.233393 -0.15533
C_ C_ 0.692611 0.341496 0.190205 0.18167
C_ C_ 0.737472 0.367561 0.037275 0.69207
C_ C_ 0.779342 0.371809 0.49508 0.02923
C_ C_ 0.763899 0.357807 0.444931 -0.15533
C_ C_ 0.797249 0.360047 0.40646 -0.15533
C_ C_ 0.840842 0.383254 0.414627 0.02923
C_ C_ 0.857123 0.39754 0.46769 -0.15533
C_ C_ 0.832027 0.383305 0.507744 0.02923
C_ C_ 0.8506 0.380723 0.0619025 0.69207
C_ C_ 0.853409 0.382461 0.320331 0.69661
C_ C_ 0.810283 0.427885 0.176841 0.18167
C_ C_ 0.770725 0.452808 0.200065 -0.15533
C_ C_ 0.779786 0.491512 0.237012 0.02923
C_ C_ 0.822162 0.0163638 0.256178 -0.15533
C_ C_ 0.869202 0.483401 0.220349 0.18167
C_ C_ 0.988386 0.350012 0.191864 0.18167
C_ C_ 0.50921 0.299278 0.220375 -0.15533
C_ C_ 0.984545 0.268528 0.223212 0.02923
C_ C_ 0.932247 0.271616 0.206448 -0.15533
C_ C_ 0.907907 0.314686 0.185339 0.18167
C_ C_ 0.976315 0.454777 0.106915 0.69207
C_ C_ 0.519757 0.99032 0.113164 0.02923
C_ C_ 0.50079 0.0410613 0.119484 -0.15533
C_ C_ 0.533163 0.0807894 0.11729 -0.15533
C_ C_ 0.585584 0.0677182 0.106536 0.02923
C_ C_ 0.601894 0.0149323 0.0956014 -0.15533
C_ C_ 0.572306 0.976316 0.103752 0.02923
C_ C_ 0.600349 0.426141 0.104134 0.69207
C_ C_ 0.605704 0.163171 0.122189 0.69661
C_ C_ 0.930732 0.192644 0.43143 0.18167
C_ C_ 0.974951 0.207006 0.456305 -0.15533
C_ C_ 0.97333 0.239688 0.501948 0.02923
C_ C_ 0.921962 0.246586 0.0121805 -0.15533
C_ C_ 0.886556 0.222574 0.501228 0.18167
C_ C_ 0.748365 0.202076 0.354991 0.18167
C_ C_ 0.723574 0.230325 0.313436 -0.15533
C_ C_ 0.753762 0.234348 0.271581 0.02923
C_ C_ 0.804194 0.213424 0.277624 -0.15533
C_ C_ 0.828335 0.199342 0.323904 0.18167
C_ C_ 0.755067 0.134324 0.456441 0.69207
C_ C_ 0.722186 0.117195 0.990758 0.02923
C_ C_ 0.744889 0.112283 0.0424143 -0.15533
C_ C_ 0.714123 0.111067 0.0834173 -0.15533
C_ C_ 0.663244 0.100385 0.0742703 0.02923
C_ C_ 0.642106 0.0980876 0.0211183 -0.15533
C_ C_ 0.669975 0.109327 0.98097 0.02923
C_ C_ 0.646765 0.109361 0.431755 0.69207
C_ C_ 0.655912 0.0895682 0.170769 0.69661
C_ C_ 0.879563 0.378953 0.376191 -0.30787
C_ C_ 0.626201 0.106401 0.117315 -0.30787
N_ N_ 0.638348 0.0616873 0.314862 -0.32189
N_ N_ 0.548129 0.143298 0.322178 -0.32189
N_ N_ 0.605131 0.311079 0.0590984 -0.32189
N_ N_ 0.693751 0.317441 0.142799 -0.32189
N_ N_ 0.857541 0.443752 0.187122 -0.32189
N_ N_ 0.936256 0.353178 0.177888 -0.32189
N_ N_ 0.885533 0.203447 0.451189 -0.32189
N_ N_ 0.799523 0.193347 0.362919 -0.32189
O_ O_ -0.00858099999999995 0.102736 0.386121 -0.63271
O_ O_ 0.539598 0.0408563 0.338792 -0.57982
O_ O_ 0.879793 0.0958966 0.343063 -0.63271
O_ O_ 0.869871 0.101655 0.427205 -0.57982
O_ O_ 0.739389 0.392822 0.0818682 -0.63271
O_ O_ 0.700983 0.337374 0.0272548 -0.57982
O_ O_ 0.85695 0.338694 0.0831807 -0.63271
O_ O_ 0.874964 0.41727 0.0814993 -0.57982
O_ O_ 0.486745 0.41683 0.0908648 -0.63271
O_ O_ 0.946067 0.464297 0.142809 -0.57982
O_ O_ 0.605283 0.40002 0.144349 -0.63271
O_ O_ 0.623737 0.406997 0.0651258 -0.57982
O_ O_ 0.754399 0.109107 0.412151 -0.63271
O_ O_ 0.792802 0.163242 0.468992 -0.57982
O_ O_ 0.650098 0.148746 0.404704 -0.63271
O_ O_ 0.605969 0.0830093 0.417812 -0.57982
F_ F_ 0.937905 0.317809 0.427629 -0.20885
F_ F_ 0.940602 0.312767 0.342021 -0.20885
F_ F_ 0.875786 0.287422 0.37696 -0.20885
F_ F_ 0.820142 0.426418 0.316349 -0.20885
F_ F_ 0.828907 0.340366 0.302584 -0.20885
F_ F_ 0.887451 0.388684 0.283846 -0.20885
F_ F_ 0.567699 0.17274 0.0844336 -0.20885
F_ F_ 0.588881 0.182108 0.170341 -0.20885
F_ F_ 0.644815 0.194534 0.120597 -0.20885
F_ F_ 0.683173 0.0418882 0.162237 -0.20885
F_ F_ 0.688594 0.123495 0.195541 -0.20885
F_ F_ 0.621982 0.0818271 0.205274 -0.20885
Zn Zn 0.586282 0.0891838 0.846166 0.83971
Zn Zn 0.660483 0.348425 0.57632 0.83971
Zn Zn 0.915698 0.414095 0.650595 0.83971
Zn Zn 0.832985 0.156554 0.913217 0.83971
H_ H_ 0.671734 0.136331 0.812813 0.10394
H_ H_ 0.750368 0.102365 0.772439 0.10394
H_ H_ 0.717442 0.44575 0.78032 0.10394
H_ H_ 0.635215 0.989125 0.835192 0.10394
H_ H_ 0.0285255 0.0947884 0.76234 0.10394
H_ H_ 0.984499 0.16234 0.711268 0.10394
H_ H_ 0.526618 0.279139 0.828092 0.10394
H_ H_ 0.567853 0.20357 0.877755 0.10394
H_ H_ 0.542805 0.445189 0.8791 0.10394
H_ H_ 0.983483 0.370709 0.87734 0.10394
H_ H_ 0.8581 0.486791 0.903033 0.10394
H_ H_ 0.584658 0.304689 0.626737 0.10394
H_ H_ 0.012604 0.261479 0.607071 0.10394
H_ H_ 0.54985 0.263222 0.950097 0.10394
H_ H_ 0.613577 0.321125 0.477461 0.10394
H_ H_ 0.731258 0.254658 0.590159 0.10394
H_ H_ 0.749377 0.201172 0.663121 0.10394
H_ H_ 0.708133 0.335369 0.762555 0.10394
H_ H_ 0.676317 0.381407 0.686926 0.10394
H_ H_ 0.70726 0.375576 0.935955 0.10394
H_ H_ 0.763285 0.38693 0.869636 0.10394
H_ H_ 0.894275 0.392597 0.978344 0.10394
H_ H_ 0.811326 0.417299 0.645408 0.10394
H_ H_ 0.741201 0.457686 0.684167 0.10394
H_ H_ 0.837577 0.0366405 0.797993 0.10394
H_ H_ 0.912506 0.484285 0.752554 0.10394
H_ H_ 0.511314 0.387754 0.689713 0.10394
H_ H_ 0.553978 0.312081 0.733533 0.10394
H_ H_ 0.90614 0.255834 0.741329 0.10394
H_ H_ 0.871974 0.327273 0.688091 0.10394
H_ H_ 0.971233 0.057067 0.644052 0.10394
H_ H_ 0.519863 0.12443 0.610488 0.10394
H_ H_ 0.643548 0.00910157 0.596771 0.10394
H_ H_ 0.93537 0.162634 0.888858 0.10394
H_ H_ 0.517227 0.164864 0.980503 0.10394
H_ H_ 0.921322 0.270086 0.558364 0.10394
H_ H_ 0.846734 0.227837 0.008550000000000058 0.10394
H_ H_ 0.730392 0.209775 0.886775 0.10394
H_ H_ 0.684689 0.254538 0.807533 0.10394
H_ H_ 0.825483 0.223527 0.742153 0.10394
H_ H_ 0.865144 0.18739 0.817785 0.10394
H_ H_ 0.784871 0.114536 0.558258 0.10394
H_ H_ 0.735678 0.108686 0.627408 0.10394
H_ H_ 0.606009 0.0966693 0.516194 0.10394
C_ C_ 0.681727 0.0962931 0.80816 0.18167
C_ C_ 0.725657 0.0751943 0.787378 -0.15533
C_ C_ 0.735964 0.0222321 0.78227 0.02923
C_ C_ 0.708375 0.48682 0.787189 -0.15533
C_ C_ 0.661371 0.0148009 0.826054 0.18167
C_ C_ 0.535646 0.143899 0.764694 0.18167
C_ C_ -0.0018529999999999935 0.173051 0.750799 -0.15533
C_ C_ 0.506036 0.232402 0.763657 0.02923
C_ C_ 0.528304 0.240177 0.811762 -0.15533
C_ C_ 0.553814 0.197946 0.838031 0.18167
C_ C_ 0.495727 0.0539638 0.857057 0.69207
C_ C_ 0.974784 0.498079 0.863016 0.02923
C_ C_ 0.992617 0.446327 0.856662 -0.15533
C_ C_ 0.962102 0.407277 0.86486 -0.15533
C_ C_ 0.91298 0.419752 0.883482 0.02923
C_ C_ 0.896883 0.47228 0.894523 -0.15533
C_ C_ 0.926143 0.511386 0.88058 0.02923
C_ C_ 0.89277 0.0662629 0.891095 0.69207
C_ C_ 0.896265 0.324417 0.881874 0.69661
C_ C_ 0.571707 0.301996 0.58761 0.18167
C_ C_ 0.527472 0.281842 0.570576 -0.15533
C_ C_ 0.513289 0.274914 0.518889 0.02923
C_ C_ 0.556661 0.267393 0.991251 -0.15533
C_ C_ 0.589643 0.311581 0.503403 0.18167
C_ C_ 0.722779 0.272355 0.628397 0.18167
C_ C_ 0.739348 0.242376 0.670518 -0.15533
C_ C_ 0.72813 0.263657 0.720277 0.02923
C_ C_ 0.710957 0.316181 0.72464 -0.15533
C_ C_ 0.686768 0.339963 0.681705 0.18167
C_ C_ 0.743612 0.37272 0.53495 0.69207
C_ C_ 0.772047 0.375431 0.999679 0.02923
C_ C_ 0.750086 0.377701 0.947107 -0.15533
C_ C_ 0.780267 0.388226 0.908681 -0.15533
C_ C_ 0.834997 0.388025 0.920321 0.02923
C_ C_ 0.854526 0.392515 0.970751 -0.15533
C_ C_ 0.82382 0.385039 0.0111343 0.02923
C_ C_ 0.856398 0.382642 0.562114 0.69207
C_ C_ 0.843563 0.38423 0.820782 0.69661
C_ C_ 0.817656 0.445663 0.675652 0.18167
C_ C_ 0.777731 0.470399 0.699647 -0.15533
C_ C_ 0.785767 0.502944 0.741271 0.02923
C_ C_ 0.828493 0.0120753 0.766658 -0.15533
C_ C_ 0.876156 0.487199 0.732382 0.18167
C_ C_ 0.99743 0.339716 0.686373 0.18167
C_ C_ 0.514374 0.313394 0.720935 -0.15533
C_ C_ 0.984748 0.266977 0.733834 0.02923
C_ C_ 0.930602 0.277996 0.723981 -0.15533
C_ C_ 0.912154 0.316952 0.690177 0.18167
C_ C_ 0.987752 0.455425 0.612636 0.69207
C_ C_ 0.522859 0.995408 0.620597 0.02923
C_ C_ 0.503535 0.046087 0.624794 -0.15533
C_ C_ 0.535413 0.0858841 0.622127 -0.15533
C_ C_ 0.586473 0.0706238 0.614167 0.02923
C_ C_ 0.603982 0.0201424 0.602454 -0.15533
C_ C_ 0.575505 0.981453 0.607781 0.02923
C_ C_ 0.597228 0.423193 0.607668 0.69207
C_ C_ 0.603317 0.166307 0.615747 0.69661
C_ C_ 0.931875 0.184128 0.925113 0.18167
C_ C_ 0.974609 0.206845 0.950534 -0.15533
C_ C_ 0.970905 0.237571 -0.00504899999999997 0.02923
C_ C_ 0.924772 0.25055 0.52176 -0.15533
C_ C_ 0.881173 0.221812 0.988416 0.18167
C_ C_ 0.74942 0.210863 0.855038 0.18167
C_ C_ 0.723513 0.235341 0.809248 -0.15533
C_ C_ 0.750638 0.239483 0.767936 0.02923
C_ C_ 0.801629 0.220236 0.77144 -0.15533
C_ C_ 0.822936 0.194888 0.814318 0.18167
C_ C_ 0.756489 0.127559 0.951807 0.69207
C_ C_ 0.724356 0.116761 0.495218 0.02923
C_ C_ 0.745489 0.10923 0.547601 -0.15533
C_ C_ 0.716493 0.10609 0.588569 -0.15533
C_ C_ 0.665046 0.102251 0.577516 0.02923
C_ C_ 0.645308 0.0960612 0.524728 -0.15533
C_ C_ 0.673407 0.105516 0.48443 0.02923
C_ C_ 0.643236 0.113647 0.929354 0.69207
C_ C_ 0.647824 0.104899 0.675619 0.69661
C_ C_ 0.873209 0.379755 0.876749 -0.30787
C_ C_ 0.626012 0.109786 0.618911 -0.30787
N_ N_ 0.646285 0.0651466 0.819446 -0.32189
N_ N_ 0.556933 0.150643 0.8137 -0.32189
N_ N_ 0.603629 0.314795 0.55465 -0.32189
N_ N_ 0.691899 0.317007 0.634218 -0.32189
N_ N_ 0.865222 0.453174 0.692499 -0.32189
N_ N_ 0.945878 0.35128 0.681257 -0.32189
N_ N_ 0.885543 0.194355 0.94345 -0.32189
N_ N_ 0.795634 0.184282 0.852586 -0.32189
O_ O_ 0.00277244 0.0906848 0.909625 -0.63271
O_ O_ 0.539058 0.0409628 0.835854 -0.57982
O_ O_ 0.899692 0.0882224 0.849128 -0.63271
O_ O_ 0.858511 0.0878112 0.920705 -0.57982
O_ O_ 0.747454 0.402169 0.577483 -0.63271
O_ O_ 0.708388 0.343575 0.527786 -0.57982
O_ O_ 0.84897 0.343435 0.589845 -0.63271
O_ O_ 0.88201 0.419913 0.582483 -0.57982
O_ O_ 0.488838 0.411384 0.587796 -0.63271
O_ O_ 0.960623 0.461778 0.650958 -0.57982
O_ O_ 0.591478 0.396062 0.64532 -0.63271
O_ O_ 0.637062 0.413572 0.581724 -0.57982
O_ O_ 0.747571 0.111527 0.904605 -0.63271
O_ O_ 0.793543 0.156263 0.962816 -0.57982
O_ O_ 0.645287 0.153912 0.904625 -0.63271
O_ O_ 0.608621 0.0838732 0.912533 -0.57982
F_ F_ 0.921302 0.314076 0.927489 -0.20885
F_ F_ 0.926405 0.31146 0.841255 -0.20885
F_ F_ 0.858236 0.291332 0.878223 -0.20885
F_ F_ 0.81487 0.429306 0.819048 -0.20885
F_ F_ 0.815626 0.344626 0.803927 -0.20885
F_ F_ 0.875675 0.389575 0.785035 -0.20885
F_ F_ 0.568857 0.173535 0.573001 -0.20885
F_ F_ 0.579985 0.185693 0.65968 -0.20885
F_ F_ 0.643091 0.197957 0.61141 -0.20885
F_ F_ 0.676378 0.0597531 0.682524 -0.20885
F_ F_ 0.681314 0.140626 0.691405 -0.20885
F_ F_ 0.609466 0.10736 0.709641 -0.20885
Zn Zn 0.592962 0.581929 0.348265 0.83971
Zn Zn 0.659284 0.844307 0.0872734 0.83971
Zn Zn 0.908722 0.91957 0.156951 0.83971
Zn Zn 0.844025 0.656868 0.424077 0.83971
H_ H_ 0.670874 0.626479 0.304734 0.10394
H_ H_ 0.747 0.594467 0.261605 0.10394
H_ H_ 0.706615 0.952086 0.294333 0.10394
H_ H_ 0.642158 0.477933 0.32556 0.10394
H_ H_ 0.0251368 0.603331 0.246802 0.10394
H_ H_ 0.993922 0.68459 0.201138 0.10394
H_ H_ 0.545037 0.768796 0.346781 0.10394
H_ H_ 0.579795 0.690337 0.386579 0.10394
H_ H_ 0.520816 0.940536 0.339821 0.10394
H_ H_ 0.986927 0.884296 0.398957 0.10394
H_ H_ 0.852343 0.992087 0.408444 0.10394
H_ H_ 0.581944 0.799685 0.132472 0.10394
H_ H_ 0.998218 0.767749 0.0924887 0.10394
H_ H_ 0.534764 0.795758 0.455578 0.10394
H_ H_ 0.617318 0.821597 0.985545 0.10394
H_ H_ 0.724911 0.751309 0.103144 0.10394
H_ H_ 0.766923 0.704155 0.175023 0.10394
H_ H_ 0.7072 0.829185 0.275057 0.10394
H_ H_ 0.670964 0.876181 0.199397 0.10394
H_ H_ 0.718601 0.869293 0.448883 0.10394
H_ H_ 0.774132 0.862284 0.38222 0.10394
H_ H_ 0.901425 0.899959 0.489776 0.10394
H_ H_ 0.805311 0.899473 0.168339 0.10394
H_ H_ 0.728963 0.952792 0.194969 0.10394
H_ H_ 0.833554 0.544163 0.272165 0.10394
H_ H_ 0.898443 1.0134782 0.225396 0.10394
H_ H_ 0.521546 0.886562 0.200953 0.10394
H_ H_ 0.561196 0.814491 0.247832 0.10394
H_ H_ 0.906653 0.761993 0.249508 0.10394
H_ H_ 0.867451 0.836731 0.206055 0.10394
H_ H_ 0.950704 0.553524 0.0897589 0.10394
H_ H_ 0.525894 0.622155 0.128033 0.10394
H_ H_ 0.638171 0.509653 0.0733834 0.10394
H_ H_ 0.950344 0.657694 0.410169 0.10394
H_ H_ 0.520238 0.6957 0.453558 0.10394
H_ H_ 0.913451 0.787243 0.0341204 0.10394
H_ H_ 0.846943 0.731056 0.50667 0.10394
H_ H_ 0.740712 0.71088 0.397321 0.10394
H_ H_ 0.701659 0.758558 0.323528 0.10394
H_ H_ 0.834985 0.716984 0.247188 0.10394
H_ H_ 0.877843 0.683419 0.326362 0.10394
H_ H_ 0.794062 0.612907 0.0507989 0.10394
H_ H_ 0.736035 0.600555 0.118415 0.10394
H_ H_ 0.611437 0.588748 0.00137212 0.10394
C_ C_ 0.681524 0.585667 0.300329 0.18167
C_ C_ 0.726471 0.565915 0.277962 -0.15533
C_ C_ 0.737931 0.513627 0.270024 0.02923
C_ C_ 0.698688 0.991982 0.299156 -0.15533
C_ C_ 0.662049 0.503198 0.309234 0.18167
C_ C_ 0.543048 0.638518 0.271116 0.18167
C_ C_ 0.00944066 0.685158 0.242149 -0.15533
C_ C_ 0.5174 0.731111 0.273157 0.02923
C_ C_ 0.538246 0.733204 0.324717 -0.15533
C_ C_ 0.561295 0.68868 0.347407 0.18167
C_ C_ 0.504551 0.544445 0.36278 0.69207
C_ C_ 0.970586 0.014027 0.380642 0.02923
C_ C_ -0.004794999999999994 0.96378 0.386669 -0.15533
C_ C_ 0.966748 0.922566 0.393599 -0.15533
C_ C_ 0.91425 0.932217 0.399083 0.02923
C_ C_ 0.891558 0.985346 0.404384 -0.15533
C_ C_ 0.91839 0.0256135 0.393645 0.02923
C_ C_ 0.900013 0.570014 0.389542 0.69207
C_ C_ 0.905255 0.832352 0.383488 0.69661
C_ C_ 0.575165 0.789223 0.0934548 0.18167
C_ C_ 0.527642 0.772783 0.0718595 -0.15533
C_ C_ 0.515498 0.766427 0.0188445 0.02923
C_ C_ 0.548597 0.787323 0.495707 -0.15533
C_ C_ 0.594091 0.803213 0.00986467 0.18167
C_ C_ 0.719148 0.766878 0.141155 0.18167
C_ C_ 0.745279 0.740842 0.184373 -0.15533
C_ C_ 0.740911 0.764159 0.233259 0.02923
C_ C_ 0.712664 0.811042 0.237602 -0.15533
C_ C_ 0.69087 0.837681 0.195388 0.18167
C_ C_ 0.741752 0.859836 0.0458963 0.69207
C_ C_ 0.778663 0.875562 0.510079 0.02923
C_ C_ 0.758645 0.874263 0.460012 -0.15533
C_ C_ 0.789845 0.876978 0.420466 -0.15533
C_ C_ 0.841083 0.891679 0.43056 0.02923
C_ C_ 0.861012 0.892261 0.480964 -0.15533
C_ C_ 0.830603 0.881375 0.52186 0.02923
C_ C_ 0.850709 0.876197 0.0763985 0.69207
C_ C_ 0.847513 0.896717 0.333789 0.69661
C_ C_ 0.809015 0.933817 0.188963 0.18167
C_ C_ 0.766686 0.956431 0.211717 -0.15533
C_ C_ 0.772692 1.00037 0.246928 0.02923
C_ C_ 0.829539 0.506632 0.249447 -0.15533
C_ C_ 0.862 0.996653 0.225826 0.18167
C_ C_ 0.98957 0.852956 0.19705 0.18167
C_ C_ 0.52081 0.813579 0.233544 -0.15533
C_ C_ 0.984853 0.779861 0.24505 0.02923
C_ C_ 0.930255 0.789842 0.238972 -0.15533
C_ C_ 0.908092 0.828346 0.20834 0.18167
C_ C_ 0.987432 0.951763 0.124192 0.69207
C_ C_ 0.526178 0.493325 0.124398 0.02923
C_ C_ 0.511576 0.545352 0.138335 -0.15533
C_ C_ 0.542851 0.581549 0.127941 -0.15533
C_ C_ 0.587727 0.570834 0.104334 0.02923
C_ C_ 0.603348 0.51966 0.0934201 -0.15533
C_ C_ 0.5753 0.480087 0.106373 0.02923
C_ C_ 0.599449 0.922608 0.104985 0.69207
C_ C_ 0.606762 0.665118 0.103661 0.69661
C_ C_ 0.945637 0.678795 0.44502 0.18167
C_ C_ 0.985284 0.703899 0.469627 -0.15533
C_ C_ 0.973837 0.746339 0.503333 0.02923
C_ C_ 0.924517 0.758507 1.00631361 -0.15533
C_ C_ 0.884639 0.728124 0.49546 0.18167
C_ C_ 0.764691 0.714627 0.365982 0.18167
C_ C_ 0.74137 0.740665 0.324491 -0.15533
C_ C_ 0.767204 0.74105 0.279548 0.02923
C_ C_ 0.814298 0.714644 0.279061 -0.15533
C_ C_ 0.839158 0.695173 0.325136 0.18167
C_ C_ 0.764751 0.625818 0.457232 0.69207
C_ C_ 0.73302 0.609163 0.987861 0.02923
C_ C_ 0.754007 0.604167 0.0403728 -0.15533
C_ C_ 0.719543 0.604489 0.0797687 -0.15533
C_ C_ 0.666385 0.598531 0.0660328 0.02923
C_ C_ 0.651209 0.597146 0.0124945 -0.15533
C_ C_ 0.681737 0.602786 0.973726 0.02923
C_ C_ 0.651857 0.604913 0.430059 0.69207
C_ C_ 0.653064 0.608471 0.164483 0.69661
C_ C_ 0.877391 0.88847 0.388524 -0.30787
C_ C_ 0.629392 0.608566 0.109069 -0.30787
N_ N_ 0.646972 0.553665 0.309349 -0.32189
N_ N_ 0.563136 0.643405 0.320588 -0.32189
N_ N_ 0.604696 0.806313 0.0607187 -0.32189
N_ N_ 0.692417 0.812175 0.148025 -0.32189
N_ N_ 0.855714 0.951228 0.198549 -0.32189
N_ N_ 0.936849 0.859695 0.189637 -0.32189
N_ N_ 0.89671 0.692363 0.457276 -0.32189
N_ N_ 0.811185 0.689445 0.36411 -0.32189
O_ O_ 0.00925011 0.589113 0.399251 -0.63271
O_ O_ 0.546284 0.534746 0.338696 -0.57982
O_ O_ 0.889358 0.591553 0.345175 -0.63271
O_ O_ 0.878465 0.592358 0.430299 -0.57982
O_ O_ 0.747245 0.883401 0.0912061 -0.63271
O_ O_ 0.699714 0.837161 0.0344882 -0.57982
O_ O_ 0.853677 0.83884 0.107449 -0.63271
O_ O_ 0.879777 0.911622 0.0921093 -0.57982
O_ O_ 0.478022 0.910542 0.095894 -0.63271
O_ O_ 0.95192 0.96613 0.157431 -0.57982
O_ O_ 0.59353 0.892925 0.142169 -0.63271
O_ O_ 0.637877 0.909152 0.0766494 -0.57982
O_ O_ 0.763867 0.604383 0.410504 -0.63271
O_ O_ 0.799493 0.656609 0.468226 -0.57982
O_ O_ 0.656817 0.640157 0.399176 -0.63271
O_ O_ 0.619357 0.57289 0.414784 -0.57982
F_ F_ 0.930404 0.816888 0.42777 -0.20885
F_ F_ 0.937946 0.826949 0.346347 -0.20885
F_ F_ 0.869386 0.797787 0.37393 -0.20885
F_ F_ 0.806072 0.934803 0.3369 -0.20885
F_ F_ 0.824254 0.858255 0.306857 -0.20885
F_ F_ 0.879589 0.915524 0.302322 -0.20885
F_ F_ 0.573184 0.671011 0.0594969 -0.20885
F_ F_ 0.581474 0.688219 0.145064 -0.20885
F_ F_ 0.643997 0.697555 0.099008 -0.20885
F_ F_ 0.678706 0.562147 0.177316 -0.20885
F_ F_ 0.685748 0.643524 0.176916 -0.20885
F_ F_ 0.617085 0.616196 0.199685 -0.20885
Zn Zn 0.59751 0.582486 0.842301 0.83971
Zn Zn 0.666747 0.846326 0.585616 0.83971
Zn Zn 0.907796 0.917844 0.658564 0.83971
Zn Zn 0.846658 0.648627 0.916088 0.83971
H_ H_ 0.677357 0.629822 0.800422 0.10394
H_ H_ 0.759027 0.594505 0.772937 0.10394
H_ H_ 0.71715 0.950958 0.806212 0.10394
H_ H_ 0.633327 0.483213 0.806326 0.10394
H_ H_ 0.0284015 0.598893 0.74362 0.10394
H_ H_ 0.987584 0.675274 0.701432 0.10394
H_ H_ 0.537746 0.767631 0.834429 0.10394
H_ H_ 0.582405 0.690222 0.877236 0.10394
H_ H_ 0.529277 0.952752 0.859017 0.10394
H_ H_ 0.983324 0.87761 0.896509 0.10394
H_ H_ 0.856475 0.983838 0.926406 0.10394
H_ H_ 0.583228 0.796954 0.643743 0.10394
H_ H_ 0.00980958 0.762858 0.602442 0.10394
H_ H_ 0.538342 0.788313 0.946971 0.10394
H_ H_ 0.613115 0.826679 0.489904 0.10394
H_ H_ 0.724589 0.746189 0.60271 0.10394
H_ H_ 0.748185 0.696077 0.680933 0.10394
H_ H_ 0.72837 0.838674 0.769347 0.10394
H_ H_ 0.693073 0.881356 0.690552 0.10394
H_ H_ 0.726938 0.830771 0.945564 0.10394
H_ H_ 0.778215 0.84589 0.883168 0.10394
H_ H_ 0.896202 0.889518 0.995919 0.10394
H_ H_ 0.801833 0.908906 0.659848 0.10394
H_ H_ 0.731148 0.961183 0.693403 0.10394
H_ H_ 0.843721 0.537789 0.790911 0.10394
H_ H_ 0.907158 0.989936 0.754437 0.10394
H_ H_ 0.514259 0.884274 0.708498 0.10394
H_ H_ 0.551776 0.813851 0.756657 0.10394
H_ H_ 0.910442 0.756023 0.735539 0.10394
H_ H_ 0.869791 0.826545 0.695353 0.10394
H_ H_ 0.967863 0.557297 0.622961 0.10394
H_ H_ 0.517412 0.619917 0.610784 0.10394
H_ H_ 0.645907 0.508271 0.603124 0.10394
H_ H_ 0.952228 0.64832 0.905666 0.10394
H_ H_ 0.512551 0.704611 0.933374 0.10394
H_ H_ 0.917379 0.780979 0.55201 0.10394
H_ H_ 0.846036 0.737492 0.98573 0.10394
H_ H_ 0.744554 0.703196 0.895587 0.10394
H_ H_ 0.698265 0.741504 0.822175 0.10394
H_ H_ 0.838829 0.737158 0.756125 0.10394
H_ H_ 0.879711 0.682622 0.828031 0.10394
H_ H_ 0.793916 0.617545 0.555942 0.10394
H_ H_ 0.740514 0.601992 0.621084 0.10394
H_ H_ 0.605545 0.595067 0.510684 0.10394
C_ C_ 0.687038 0.590161 0.801825 0.18167
C_ C_ 0.73228 0.571475 0.783791 -0.15533
C_ C_ 0.742966 0.519752 0.774353 0.02923
C_ C_ 0.707037 0.992171 0.80741 -0.15533
C_ C_ 0.662428 0.504715 0.802385 0.18167
C_ C_ 0.533722 0.633838 0.766595 0.18167
C_ C_ 0.00690495 0.677585 0.740089 -0.15533
C_ C_ 0.512225 0.72479 0.764178 0.02923
C_ C_ 0.537774 0.729637 0.815625 -0.15533
C_ C_ 0.566053 0.686935 0.837276 0.18167
C_ C_ 0.516105 0.54624 0.867514 0.69207
C_ C_ 0.976242 0.00568675 0.896704 0.02923
C_ C_ -0.004921999999999982 0.954182 0.893612 -0.15533
C_ C_ 0.964775 0.914965 0.897985 -0.15533
C_ C_ 0.91284 0.923761 0.907641 0.02923
C_ C_ 0.89539 0.975811 0.915518 -0.15533
C_ C_ 0.922272 0.0166309 0.903894 0.02923
C_ C_ 0.903987 0.566109 0.882223 0.69207
C_ C_ 0.900117 0.82862 0.875272 0.69661
C_ C_ 0.575603 0.795078 0.601077 0.18167
C_ C_ 0.53043 0.774362 0.583379 -0.15533
C_ C_ 0.516725 0.768882 0.52993 0.02923
C_ C_ 0.549594 0.785201 0.988186 -0.15533
C_ C_ 0.592798 0.809562 0.515755 0.18167
C_ C_ 0.722795 0.765695 0.640423 0.18167
C_ C_ 0.740391 0.739634 0.684981 -0.15533
C_ C_ 0.736174 0.763648 0.73273 0.02923
C_ C_ 0.722148 0.816268 0.733731 -0.15533
C_ C_ 0.705371 0.841804 0.689902 0.18167
C_ C_ 0.744515 0.867687 0.54891 0.69207
C_ C_ 0.779994 0.85605 1.00941287 0.02923
C_ C_ 0.764456 0.843286 0.958465 -0.15533
C_ C_ 0.794556 0.854326 0.92012 -0.15533
C_ C_ 0.84116 0.877525 0.931736 0.02923
C_ C_ 0.860036 0.880583 0.983915 -0.15533
C_ C_ 0.830557 0.86875 0.0225485 0.02923
C_ C_ 0.853859 0.883839 0.575818 0.69207
C_ C_ 0.846721 0.901039 0.839909 0.69661
C_ C_ 0.810301 0.939173 0.685497 0.18167
C_ C_ 0.768829 0.96296 0.712464 -0.15533
C_ C_ 0.778354 0.000180000000000069 0.752861 0.02923
C_ C_ 0.835729 0.512161 0.75805 -0.15533
C_ C_ 0.868374 0.987663 0.738864 0.18167
C_ C_ 0.991081 0.861095 0.711978 0.18167
C_ C_ 0.514487 0.812291 0.734431 -0.15533
C_ C_ 0.989383 0.774302 0.736953 0.02923
C_ C_ 0.936356 0.780546 0.724068 -0.15533
C_ C_ 0.911296 0.824736 0.702173 0.18167
C_ C_ 0.986263 0.954371 0.629898 0.69207
C_ C_ 0.521815 0.491899 0.614442 0.02923
C_ C_ 0.500671 0.541438 0.610765 -0.15533
C_ C_ 0.533861 0.579512 0.604524 -0.15533
C_ C_ 0.587947 0.568958 0.603492 0.02923
C_ C_ 0.606041 0.516851 0.602611 -0.15533
C_ C_ 0.573528 0.47869 0.608721 0.02923
C_ C_ 0.59974 0.925995 0.603489 0.69207
C_ C_ 0.602115 0.663371 0.60786 0.69661
C_ C_ 0.946505 0.675686 0.935656 0.18167
C_ C_ 0.986191 0.705951 0.955774 -0.15533
C_ C_ 0.975027 0.744857 0.993557 0.02923
C_ C_ 0.925012 0.755185 0.52259 -0.15533
C_ C_ 0.88597 0.729372 0.979916 0.18167
C_ C_ 0.763068 0.704798 0.862893 0.18167
C_ C_ 0.736866 0.729599 0.819323 -0.15533
C_ C_ 0.764244 0.741035 0.778967 0.02923
C_ C_ 0.815104 0.723961 0.78145 -0.15533
C_ C_ 0.838557 0.695561 0.823687 0.18167
C_ C_ 0.770161 0.616124 0.951618 0.69207
C_ C_ 0.731339 0.611557 0.496093 0.02923
C_ C_ 0.752703 0.613089 0.547961 -0.15533
C_ C_ 0.71927 0.612402 0.587325 -0.15533
C_ C_ 0.666529 0.603186 0.575154 0.02923
C_ C_ 0.648392 0.596364 0.521522 -0.15533
C_ C_ 0.678636 0.603384 0.482306 0.02923
C_ C_ 0.659256 0.604964 0.919574 0.69207
C_ C_ 0.651514 0.6039 0.668762 0.69661
C_ C_ 0.875593 0.883151 0.890339 -0.30787
C_ C_ 0.628397 0.608623 0.613776 -0.30787
N_ N_ 0.650878 0.558029 0.806319 -0.32189
N_ N_ 0.560387 0.639271 0.814673 -0.32189
N_ N_ 0.605537 0.812524 0.568631 -0.32189
N_ N_ 0.704189 0.815772 0.644441 -0.32189
N_ N_ 0.858673 0.949677 0.701477 -0.32189
N_ N_ 0.940143 0.862683 0.693325 -0.32189
N_ N_ 0.898502 0.689855 0.944754 -0.32189
N_ N_ 0.8106 0.683027 0.860234 -0.32189
O_ O_ 1.0108719 0.578433 0.888186 -0.63271
O_ O_ 0.552651 0.535718 0.840077 -0.57982
O_ O_ 0.897613 0.592412 0.841198 -0.63271
O_ O_ 0.881965 0.586852 0.922759 -0.57982
O_ O_ 0.736911 0.900458 0.586001 -0.63271
O_ O_ 0.710103 0.834333 0.538475 -0.57982
O_ O_ 0.853391 0.844024 0.601604 -0.63271
O_ O_ 0.876683 0.923771 0.594981 -0.57982
O_ O_ 0.493576 0.910937 0.603509 -0.63271
O_ O_ 0.952795 0.966926 0.66507 -0.57982
O_ O_ 0.602728 0.899562 0.645011 -0.63271
O_ O_ 0.634765 0.910949 0.572687 -0.57982
O_ O_ 0.775211 0.585248 0.909602 -0.63271
O_ O_ 0.801121 0.652146 0.960925 -0.57982
O_ O_ 0.665817 0.643135 0.891657 -0.63271
O_ O_ 0.623029 0.577375 0.903577 -0.57982
F_ F_ 0.934666 0.813581 0.913912 -0.20885
F_ F_ 0.924106 0.823555 0.829512 -0.20885
F_ F_ 0.867666 0.791643 0.868335 -0.20885
F_ F_ 0.811032 0.940741 0.848771 -0.20885
F_ F_ 0.81765 0.862784 0.815266 -0.20885
F_ F_ 0.880242 0.910697 0.807801 -0.20885
F_ F_ 0.573898 0.670769 0.560354 -0.20885
F_ F_ 0.569139 0.679576 0.643613 -0.20885
F_ F_ 0.638043 0.698363 0.611874 -0.20885
F_ F_ 0.680494 0.55727 0.67412 -0.20885
F_ F_ 0.679526 0.64168 0.688075 -0.20885
F_ F_ 0.615657 0.6037 0.70349 -0.20885
_cell_length_a 26.508
_cell_length_b 26.37200000322088
_cell_length_c 26.311999743092066
_cell_angle_alpha 93.74100058972084
_cell_angle_beta 96.04100104955006
_cell_angle_gamma 83.6869992558723
_symmetry_space_group_name_H-M         'P 1'
_symmetry_Int_Tables_number            1
loop_
_symmetry_equiv_pos_as_xyz
   'x, y, z'
                         
loop_
_atom_site_label
_atom_site_type_symbol
_atom_site_fract_x 
_atom_site_fract_y
_atom_site_fract_z
_atom_site_charge
Zn Zn 0.0853861 0.0909572 0.349931 0.83971
Zn Zn 0.160219 0.3478 0.0816894 0.83971
Zn Zn 0.405278 0.413262 0.155733 0.83971
Zn Zn 0.339192 0.156736 0.416134 0.83971
H_ H_ 0.168238 0.134463 0.308925 0.10394
H_ H_ 0.250035 0.101654 0.27183 0.10394
H_ H_ 0.203375 0.45027 0.269732 0.10394
H_ H_ 0.128706 0.98773 0.322945 0.10394
H_ H_ 0.518163 0.0927353 0.261652 0.10394
H_ H_ 0.47037 0.15847 0.214893 0.10394
H_ H_ 0.0376376 0.270469 0.315545 0.10394
H_ H_ 0.0689477 0.200513 0.369976 0.10394
H_ H_ 0.0386714 0.445516 0.384647 0.10394
H_ H_ 0.463522 0.376963 0.349225 0.10394
H_ H_ 0.352967 0.493204 0.401057 0.10394
H_ H_ 0.0818584 0.299178 0.127824 0.10394
H_ H_ 0.494696 0.284937 0.0975609 0.10394
H_ H_ 0.0332055 0.287694 0.448598 0.10394
H_ H_ 0.112738 0.326768 0.980362 0.10394
H_ H_ 0.220191 0.253565 0.097682 0.10394
H_ H_ 0.253482 0.205223 0.170517 0.10394
H_ H_ 0.206412 0.337256 0.268223 0.10394
H_ H_ 0.172859 0.3793 0.188565 0.10394
H_ H_ 0.205066 0.371159 0.44224 0.10394
H_ H_ 0.255139 0.387238 0.373832 0.10394
H_ H_ 0.387641 0.407915 0.484377 0.10394
H_ H_ 0.309476 0.391156 0.162953 0.10394
H_ H_ 0.23175 0.443146 0.181801 0.10394
H_ H_ 0.327999 0.0623593 0.265184 0.10394
H_ H_ 0.403894 0.49891 0.23609 0.10394
H_ H_ 0.0104167 0.381452 0.19177 0.10394
H_ H_ 0.0554838 0.301387 0.219463 0.10394
H_ H_ 0.40313 0.236395 0.214954 0.10394
H_ H_ 0.363582 0.323645 0.189276 0.10394
H_ H_ 0.461026 0.0497026 0.12838 0.10394
H_ H_ 0.0139313 0.120369 0.0990441 0.10394
H_ H_ 0.144708 0.00867644 0.110933 0.10394
H_ H_ 0.440562 0.165743 0.398478 0.10394
H_ H_ 0.010274 0.19589 0.442516 0.10394
H_ H_ 0.423627 0.305666 0.0131365 0.10394
H_ H_ 0.339803 0.250758 0.494941 0.10394
H_ H_ 0.2235 0.198553 0.382013 0.10394
H_ H_ 0.185333 0.241788 0.315381 0.10394
H_ H_ 0.331645 0.240044 0.25491 0.10394
H_ H_ 0.37057 0.198282 0.327204 0.10394
H_ H_ 0.280847 0.128692 0.0650225 0.10394
H_ H_ 0.225556 0.122542 0.129399 0.10394
H_ H_ 0.11192 0.0691731 0.016488 0.10394
C_ C_ 0.179811 0.0937016 0.30342 0.18167
C_ C_ 0.223081 0.073835 0.277983 -0.15533
C_ C_ 0.235627 0.020527 0.272131 0.02923
C_ C_ 0.193632 0.48893 0.271285 -0.15533
C_ C_ 0.15466 0.0125272 0.309632 0.18167
C_ C_ 0.0270076 0.133807 0.266957 0.18167
C_ C_ 0.49516 0.169569 0.247431 -0.15533
C_ C_ 0.00889633 0.224062 0.25437 0.02923
C_ C_ 0.0302177 0.232086 0.305055 -0.15533
C_ C_ 0.0562602 0.193142 0.330058 0.18167
C_ C_ 0.0045999999999999375 0.0535263 0.374984 0.69207
C_ C_ 0.467156 0.504226 0.361365 0.02923
C_ C_ 0.482494 0.452371 0.348106 -0.15533
C_ C_ 0.451426 0.415581 0.359905 -0.15533
C_ C_ 0.404245 0.429483 0.381146 0.02923
C_ C_ 0.388221 0.482479 0.386741 -0.15533
C_ C_ 0.419843 0.517819 0.379742 0.02923
C_ C_ 0.393338 0.0715704 0.378565 0.69207
C_ C_ 0.392662 0.333787 0.383717 0.69661
C_ C_ 0.0690834 0.301123 0.0856001 0.18167
C_ C_ 0.0277205 0.276469 0.0663747 -0.15533
C_ C_ 0.0130693 0.270295 0.0135702 0.02923
C_ C_ 0.0490537 0.283059 0.488547 -0.15533
C_ C_ 0.0862479 0.315501 0.00220866 0.18167
C_ C_ 0.215959 0.269749 0.135126 0.18167
C_ C_ 0.234975 0.243358 0.178507 -0.15533
C_ C_ 0.230443 0.266015 0.227309 0.02923
C_ C_ 0.209052 0.315852 0.231029 -0.15533
C_ C_ 0.186251 0.339399 0.187094 0.18167
C_ C_ 0.245061 0.367141 0.0445918 0.69207
C_ C_ 0.26685 0.378761 0.504365 0.02923
C_ C_ 0.24554 0.377594 0.451691 -0.15533
C_ C_ 0.273827 0.388706 0.412923 -0.15533
C_ C_ 0.326405 0.393547 0.424408 0.02923
C_ C_ 0.348511 0.39299 0.473927 -0.15533
C_ C_ 0.319918 0.382781 0.514159 0.02923
C_ C_ 0.355566 0.378696 0.06799 0.69207
C_ C_ 0.335379 0.395221 0.324984 0.69661
C_ C_ 0.311069 0.427361 0.183509 0.18167
C_ C_ 0.267471 0.458072 0.193443 -0.15533
C_ C_ 0.271065 0.501607 0.229339 0.02923
C_ C_ 0.323774 0.0223846 0.251513 -0.15533
C_ C_ 0.364224 0.487084 0.226988 0.18167
C_ C_ 0.486664 0.346936 0.201002 0.18167
C_ C_ 0.0133231 0.305049 0.212048 -0.15533
C_ C_ 0.477938 0.260866 0.229249 0.02923
C_ C_ 0.42663 0.269204 0.215295 -0.15533
C_ C_ 0.40433 0.315227 0.194181 0.18167
C_ C_ 0.487009 0.455436 0.12396 0.69207
C_ C_ 0.0221662 0.990703 0.11566 0.02923
C_ C_ 0.0023100000000000342 0.0428615 0.110835 -0.15533
C_ C_ 0.0331601 0.0819134 0.10972 -0.15533
C_ C_ 0.0845661 0.0709659 0.105538 0.02923
C_ C_ 0.104935 0.0194357 0.108246 -0.15533
C_ C_ 0.0736824 0.980727 0.107555 0.02923
C_ C_ 0.090178 0.424644 0.0993086 0.69207
C_ C_ 0.0952208 0.171181 0.106827 0.69661
C_ C_ 0.436714 0.184719 0.436965 0.18167
C_ C_ 0.477806 0.208901 0.459642 -0.15533
C_ C_ 0.470412 0.245156 0.49998 0.02923
C_ C_ 0.42587 0.264273 0.00220453 -0.15533
C_ C_ 0.379667 0.229431 0.491171 0.18167
C_ C_ 0.248355 0.203972 0.352801 0.18167
C_ C_ 0.224445 0.231934 0.314361 -0.15533
C_ C_ 0.253013 0.237535 0.272259 0.02923
C_ C_ 0.307503 0.230713 0.282307 -0.15533
C_ C_ 0.329023 0.203547 0.322204 0.18167
C_ C_ 0.252785 0.130342 0.451908 0.69207
C_ C_ 0.224513 0.121568 1.00155612 0.02923
C_ C_ 0.242917 0.120403 0.0523206 -0.15533
C_ C_ 0.209086 0.120662 0.0897178 -0.15533
C_ C_ 0.159892 0.107727 0.0766123 0.02923
C_ C_ 0.147613 0.0902178 0.0259452 -0.15533
C_ C_ 0.174477 0.105697 0.986342 0.02923
C_ C_ 0.140032 0.119515 0.432957 0.69207
C_ C_ 0.137696 0.116322 0.17247 0.69661
C_ C_ 0.365371 0.389868 0.381259 -0.30787
C_ C_ 0.119631 0.11557 0.114485 -0.30787
N_ N_ 0.145093 0.0624912 0.317761 -0.32189
N_ N_ 0.0549029 0.144097 0.312571 -0.32189
N_ N_ 0.100676 0.316112 0.0528259 -0.32189
N_ N_ 0.186838 0.31479 0.139565 -0.32189
N_ N_ 0.356129 0.446956 0.193276 -0.32189
N_ N_ 0.435225 0.350676 0.184072 -0.32189
N_ N_ 0.388877 0.194936 0.451309 -0.32189
N_ N_ 0.301683 0.192702 0.359323 -0.32189
O_ O_ 0.500248 0.0859714 0.403096 -0.63271
O_ O_ 0.041762 0.0417238 0.346892 -0.57982
O_ O_ 0.401214 0.0982091 0.340778 -0.63271
O_ O_ 0.364339 0.0929965 0.412181 -0.57982
O_ O_ 0.246283 0.397207 0.0879444 -0.63271
O_ O_ 0.208229 0.337187 0.0357454 -0.57982
O_ O_ 0.359554 0.336045 0.0937775 -0.63271
O_ O_ 0.374448 0.418471 0.0894971 -0.57982
O_ O_ 0.98016 0.407881 0.0846978 -0.63271
O_ O_ 0.449662 0.462226 0.154391 -0.57982
O_ O_ 0.0877696 0.408433 0.144892 -0.63271
O_ O_ 0.129149 0.410189 0.0744926 -0.57982
O_ O_ 0.247177 0.103016 0.408952 -0.63271
O_ O_ 0.285922 0.162432 0.457745 -0.57982
O_ O_ 0.146442 0.155989 0.402132 -0.63271
O_ O_ 0.108192 0.0882544 0.417248 -0.57982
F_ F_ 0.430341 0.329112 0.42531 -0.20885
F_ F_ 0.412908 0.314551 0.33939 -0.20885
F_ F_ 0.358278 0.301545 0.392854 -0.20885
F_ F_ 0.305678 0.441591 0.319076 -0.20885
F_ F_ 0.305613 0.356662 0.311303 -0.20885
F_ F_ 0.368971 0.394884 0.289181 -0.20885
F_ F_ 0.0644242 0.171989 0.0591531 -0.20885
F_ F_ 0.0593512 0.18959 0.140003 -0.20885
F_ F_ 0.130564 0.203984 0.108403 -0.20885
F_ F_ 0.168644 0.0729391 0.18045 -0.20885
F_ F_ 0.161109 0.156334 0.195493 -0.20885
F_ F_ 0.096297 0.114195 0.20112 -0.20885
Zn Zn 0.0870841 0.0788277 0.852527 0.83971
Zn Zn 0.158742 0.342972 0.585891 0.83971
Zn Zn 0.403437 0.41758 0.647099 0.83971
Zn Zn 0.335317 0.156666 0.921322 0.83971
H_ H_ 0.172786 0.127449 0.816961 0.10394
H_ H_ 0.245988 0.0887556 0.770827 0.10394
H_ H_ 0.230861 0.45015 0.80234 0.10394
H_ H_ 0.133943 0.977567 0.830449 0.10394
H_ H_ 0.532241 0.104782 0.74778 0.10394
H_ H_ 0.486909 0.179555 0.702206 0.10394
H_ H_ 0.0250498 0.268183 0.84096 0.10394
H_ H_ 0.0821737 0.198253 0.874339 0.10394
H_ H_ 0.0298272 0.432172 0.840436 0.10394
H_ H_ 0.492533 0.378187 0.876912 0.10394
H_ H_ 0.359618 0.483976 0.891127 0.10394
H_ H_ 0.0892149 0.304758 0.63072 0.10394
H_ H_ 0.502642 0.274446 0.599272 0.10394
H_ H_ 0.030024 0.298935 0.943026 0.10394
H_ H_ 0.119188 0.312091 0.478916 0.10394
H_ H_ 0.210433 0.248738 0.599969 0.10394
H_ H_ 0.257246 0.20403 0.672053 0.10394
H_ H_ 0.216309 0.335328 0.770783 0.10394
H_ H_ 0.177176 0.379562 0.692167 0.10394
H_ H_ 0.220653 0.372531 0.941144 0.10394
H_ H_ 0.273179 0.385461 0.872839 0.10394
H_ H_ 0.401985 0.402686 0.98762 0.10394
H_ H_ 0.305417 0.396919 0.665263 0.10394
H_ H_ 0.2351 0.444659 0.70195 0.10394
H_ H_ 0.32909 0.0329285 0.788086 0.10394
H_ H_ 0.407019 0.508879 0.720473 0.10394
H_ H_ 0.0218948 0.363934 0.673777 0.10394
H_ H_ 0.0561908 0.283107 0.716581 0.10394
H_ H_ 0.412397 0.247579 0.715595 0.10394
H_ H_ 0.369159 0.327011 0.681889 0.10394
H_ H_ 0.462832 0.0577458 0.626771 0.10394
H_ H_ 0.023845 0.12063 0.627896 0.10394
H_ H_ 0.139847 0.00172563 0.588813 0.10394
H_ H_ 0.442892 0.123785 0.950408 0.10394
H_ H_ 0.00955358 0.195173 0.933292 0.10394
H_ H_ 0.413974 0.288919 0.539028 0.10394
H_ H_ 0.348877 0.255133 -0.015422999999999965 0.10394
H_ H_ 0.230863 0.196714 0.883947 0.10394
H_ H_ 0.19277 0.231757 0.808323 0.10394
H_ H_ 0.336212 0.246546 0.756769 0.10394
H_ H_ 0.374753 0.201753 0.834391 0.10394
H_ H_ 0.285394 0.120355 0.549924 0.10394
H_ H_ 0.23697 0.109013 0.619739 0.10394
H_ H_ 0.103372 0.0849068 0.51438 0.10394
C_ C_ 0.181674 0.084332 0.808944 0.18167
C_ C_ 0.221994 0.0642416 0.78343 -0.15533
C_ C_ 0.235817 0.0110074 0.779399 0.02923
C_ C_ 0.214415 0.489221 0.794235 -0.15533
C_ C_ 0.158879 0.000896386 0.815613 0.18167
C_ C_ 0.0233248 0.132599 0.778214 0.18167
C_ C_ 0.507734 0.184528 0.740248 -0.15533
C_ C_ 0.00628531 0.224593 0.768503 0.02923
C_ C_ 0.0319099 0.231017 0.817042 -0.15533
C_ C_ 0.0613375 0.189106 0.837708 0.18167
C_ C_ 0.00852614 0.0444438 0.886883 0.69207
C_ C_ 0.48071 0.507046 0.873124 0.02923
C_ C_ 0.502168 0.455319 0.872618 -0.15533
C_ C_ 0.470731 0.416709 0.874933 -0.15533
C_ C_ 0.41842 0.425877 0.88563 0.02923
C_ C_ 0.398604 0.477123 0.886277 -0.15533
C_ C_ 0.427261 0.51912 0.876142 0.02923
C_ C_ 0.385612 0.0707543 0.878288 0.69207
C_ C_ 0.401429 0.327756 0.877579 0.69661
C_ C_ 0.0774713 0.296374 0.590323 0.18167
C_ C_ 0.0330785 0.274492 0.576859 -0.15533
C_ C_ 0.0175866 0.268515 0.523226 0.02923
C_ C_ 0.0439341 0.292146 0.981029 -0.15533
C_ C_ 0.0957072 0.298683 0.50496 0.18167
C_ C_ 0.210843 0.265792 0.639042 0.18167
C_ C_ 0.231355 0.238814 0.680624 -0.15533
C_ C_ 0.236136 0.264441 0.730013 0.02923
C_ C_ 0.218852 0.315908 0.734102 -0.15533
C_ C_ 0.200906 0.341387 0.689657 0.18167
C_ C_ 0.237659 0.363815 0.546306 0.69207
C_ C_ 0.280911 0.3743 0.0022400000000000198 0.02923
C_ C_ 0.261549 0.377321 0.950766 -0.15533
C_ C_ 0.293402 0.384402 0.911745 -0.15533
C_ C_ 0.344082 0.393585 0.922789 0.02923
C_ C_ 0.363064 0.396599 0.975538 -0.15533
C_ C_ 0.333295 0.381731 0.0146153 0.02923
C_ C_ 0.341721 0.387531 0.567328 0.69207
C_ C_ 0.353591 0.389054 0.823135 0.69661
C_ C_ 0.311341 0.433407 0.684294 0.18167
C_ C_ 0.270914 0.461189 0.703517 -0.15533
C_ C_ 0.280999 0.504261 0.736932 0.02923
C_ C_ 0.327251 0.0016400000000000858 0.763281 -0.15533
C_ C_ 0.367321 0.49446 0.712476 0.18167
C_ C_ 0.490195 0.354735 0.693553 0.18167
C_ C_ 0.0173735 0.29643 0.715246 -0.15533
C_ C_ 0.484306 0.276607 0.735281 0.02923
C_ C_ 0.433243 0.279616 0.716754 -0.15533
C_ C_ 0.410617 0.321834 0.69181 0.18167
C_ C_ 0.485592 0.453597 0.615922 0.69207
C_ C_ 0.0211259 0.992063 0.621211 0.02923
C_ C_ 0.00622515 0.0453091 0.630825 -0.15533
C_ C_ 0.0373062 0.0831224 0.620572 -0.15533
C_ C_ 0.0867839 0.0673537 0.608368 0.02923
C_ C_ 0.100695 0.0143053 0.597517 -0.15533
C_ C_ 0.0699495 0.97571 0.605618 0.02923
C_ C_ 0.101594 0.425725 0.60289 0.69207
C_ C_ 0.10325 0.163074 0.618254 0.69661
C_ C_ 0.438568 0.164694 0.960315 0.18167
C_ C_ 0.480866 0.187128 0.982312 -0.15533
C_ C_ 0.475462 0.237342 1.00310468 0.02923
C_ C_ 0.421926 0.252922 0.518364 -0.15533
C_ C_ 0.384633 0.241196 0.979037 0.18167
C_ C_ 0.255404 0.202507 0.856729 0.18167
C_ C_ 0.232982 0.223072 0.812874 -0.15533
C_ C_ 0.260529 0.239412 0.774908 0.02923
C_ C_ 0.312462 0.22812 0.780622 -0.15533
C_ C_ 0.336012 0.203191 0.827125 0.18167
C_ C_ 0.258353 0.12792 0.962572 0.69207
C_ C_ 0.218167 0.128091 0.493941 0.02923
C_ C_ 0.242658 0.119351 0.543319 -0.15533
C_ C_ 0.215215 0.109146 0.583538 -0.15533
C_ C_ 0.162919 0.102109 0.574409 0.02923
C_ C_ 0.140388 0.101084 0.522611 -0.15533
C_ C_ 0.166303 0.115868 0.483121 0.02923
C_ C_ 0.148134 0.105344 0.933909 0.69207
C_ C_ 0.155084 0.0957561 0.670262 0.69661
C_ C_ 0.378953 0.385287 0.878883 -0.30787
C_ C_ 0.128345 0.107075 0.617598 -0.30787
N_ N_ 0.147176 0.0525956 0.820153 -0.32189
N_ N_ 0.0546158 0.140775 0.821092 -0.32189
N_ N_ 0.110333 0.300857 0.55636 -0.32189
N_ N_ 0.191023 0.313513 0.644569 -0.32189
N_ N_ 0.358454 0.449314 0.688594 -0.32189
N_ N_ 0.438305 0.361806 0.685774 -0.32189
N_ N_ 0.392878 0.194194 0.954931 -0.32189
N_ N_ 0.306162 0.192642 0.863877 -0.32189
O_ O_ 0.493262 0.0993044 0.881782 -0.63271
O_ O_ 0.0440307 0.0321434 0.855939 -0.57982
O_ O_ 0.38288 0.0949747 0.83707 -0.63271
O_ O_ 0.362286 0.0906573 0.918203 -0.57982
O_ O_ 0.235983 0.395995 0.586282 -0.63271
O_ O_ 0.201185 0.334491 0.535101 -0.57982
O_ O_ 0.341104 0.346732 0.593451 -0.63271
O_ O_ 0.377105 0.417844 0.58272 -0.57982
O_ O_ 0.990791 0.409675 0.587803 -0.63271
O_ O_ 0.448573 0.462142 0.648575 -0.57982
O_ O_ 0.0996503 0.401847 0.643394 -0.63271
O_ O_ 0.130386 0.406099 0.568822 -0.57982
O_ O_ 0.260809 0.0961974 0.920868 -0.63271
O_ O_ 0.294167 0.159045 0.971661 -0.57982
O_ O_ 0.154374 0.140716 0.904527 -0.63271
O_ O_ 0.110985 0.0776046 0.920061 -0.57982
F_ F_ 0.43865 0.319019 0.922389 -0.20885
F_ F_ 0.429989 0.314032 0.836261 -0.20885
F_ F_ 0.363959 0.294028 0.875925 -0.20885
F_ F_ 0.322351 0.434213 0.817955 -0.20885
F_ F_ 0.327326 0.349178 0.803657 -0.20885
F_ F_ 0.39216 0.390045 0.790617 -0.20885
F_ F_ 0.0651551 0.171011 0.576284 -0.20885
F_ F_ 0.0855461 0.181233 0.664606 -0.20885
F_ F_ 0.140467 0.196795 0.615509 -0.20885
F_ F_ 0.188319 0.052776 0.671119 -0.20885
F_ F_ 0.183853 0.132528 0.68878 -0.20885
F_ F_ 0.120547 0.0925879 0.704533 -0.20885
Zn Zn 0.0913909 0.586084 0.34499 0.83971
Zn Zn 0.158987 0.850503 0.0906569 0.83971
Zn Zn 0.410965 0.917544 0.158358 0.83971
Zn Zn 0.34416 0.653775 0.418924 0.83971
H_ H_ 0.166786 0.633129 0.300821 0.10394
H_ H_ 0.247812 0.601565 0.26671 0.10394
H_ H_ 0.20961 0.949799 0.28596 0.10394
H_ H_ 0.125739 0.486537 0.31198 0.10394
H_ H_ 0.547265 0.602089 0.2502 0.10394
H_ H_ 0.502745 0.677772 0.206304 0.10394
H_ H_ 0.0213402 0.766031 0.347031 0.10394
H_ H_ 0.0687916 0.689419 0.380596 0.10394
H_ H_ 0.033361 0.950661 0.371358 0.10394
H_ H_ 0.459722 0.875868 0.339126 0.10394
H_ H_ 0.353761 0.988249 0.409573 0.10394
H_ H_ 0.0707816 0.813583 0.129207 0.10394
H_ H_ 0.503243 0.757142 0.0975305 0.10394
H_ H_ 0.0402975 0.783201 0.449904 0.10394
H_ H_ 0.113262 0.842757 0.986443 0.10394
H_ H_ 0.210531 0.752615 0.0993448 0.10394
H_ H_ 0.257286 0.702302 0.170691 0.10394
H_ H_ 0.20472 0.824183 0.275797 0.10394
H_ H_ 0.163498 0.87314 0.207058 0.10394
H_ H_ 0.208063 0.904661 0.453703 0.10394
H_ H_ 0.259612 0.918865 0.385109 0.10394
H_ H_ 0.396968 0.887095 0.489934 0.10394
H_ H_ 0.312829 0.897135 0.166532 0.10394
H_ H_ 0.242512 0.935265 0.206183 0.10394
H_ H_ 0.325848 0.544109 0.276567 0.10394
H_ H_ 0.400637 0.0162373 0.227127 0.10394
H_ H_ 0.0113145 0.884104 0.188742 0.10394
H_ H_ 0.0567573 0.807353 0.230897 0.10394
H_ H_ 0.418937 0.749946 0.234984 0.10394
H_ H_ 0.379781 0.817249 0.180073 0.10394
H_ H_ 0.473999 0.555445 0.152867 0.10394
H_ H_ 0.00786584 0.620114 0.0797412 0.10394
H_ H_ 0.137515 0.501976 0.0797968 0.10394
H_ H_ 0.450516 0.659233 0.403893 0.10394
H_ H_ 0.0228085 0.691983 0.460431 0.10394
H_ H_ 0.416417 0.77229 0.0471863 0.10394
H_ H_ 0.348209 0.74052 0.504206 0.10394
H_ H_ 0.233752 0.681727 0.38064 0.10394
H_ H_ 0.190333 0.716869 0.308958 0.10394
H_ H_ 0.333605 0.733279 0.2508 0.10394
H_ H_ 0.375891 0.703439 0.332108 0.10394
H_ H_ 0.280247 0.630314 0.0584931 0.10394
H_ H_ 0.220995 0.612197 0.118477 0.10394
H_ H_ 0.104692 0.593414 -0.0006939999999999724 0.10394
C_ C_ 0.17684 0.592501 0.29808 0.18167
C_ C_ 0.22043 0.57469 0.272923 -0.15533
C_ C_ 0.227344 0.522746 0.256246 0.02923
C_ C_ 0.20132 0.992087 0.291021 -0.15533
C_ C_ 0.150802 0.509401 0.297206 0.18167
C_ C_ 0.0301248 0.640589 0.266747 0.18167
C_ C_ 0.518634 0.682914 0.247211 -0.15533
C_ C_ 0.00874565 0.731996 0.270023 0.02923
C_ C_ 0.0312804 0.733024 0.319487 -0.15533
C_ C_ 0.0556342 0.689072 0.340123 0.18167
C_ C_ 0.0124921 0.544835 0.370275 0.69207
C_ C_ 0.468678 0.00591238 0.368364 0.02923
C_ C_ 0.483256 0.95207 0.352675 -0.15533
C_ C_ 0.45109 0.915445 0.357612 -0.15533
C_ C_ 0.405193 0.927047 0.382691 0.02923
C_ C_ 0.390364 0.979245 0.394879 -0.15533
C_ C_ 0.419123 0.0175136 0.382323 0.02923
C_ C_ 0.399764 0.573601 0.386301 0.69207
C_ C_ 0.395766 0.829933 0.387467 0.69661
C_ C_ 0.0652351 0.807759 0.0898406 0.18167
C_ C_ 0.0233579 0.782929 0.0675055 -0.15533
C_ C_ 0.0147866 0.779053 0.0155307 0.02923
C_ C_ 0.0499851 0.789248 0.490505 -0.15533
C_ C_ 0.0918793 0.820357 0.0110153 0.18167
C_ C_ 0.213179 0.769968 0.138861 0.18167
C_ C_ 0.236394 0.740398 0.1783 -0.15533
C_ C_ 0.232512 0.75801 0.22921 0.02923
C_ C_ 0.202058 0.804528 0.23909 -0.15533
C_ C_ 0.180276 0.833817 0.199323 0.18167
C_ C_ 0.240909 0.872102 0.0502608 0.69207
C_ C_ 0.271956 0.885291 0.508534 0.02923
C_ C_ 0.25045 0.899461 0.458979 -0.15533
C_ C_ 0.279559 0.900983 0.418416 -0.15533
C_ C_ 0.333416 0.892988 0.427394 0.02923
C_ C_ 0.356434 0.891007 0.477719 -0.15533
C_ C_ 0.327033 0.887836 0.518578 0.02923
C_ C_ 0.355776 0.888441 0.0750546 0.69207
C_ C_ 0.336733 0.88924 0.330147 0.69661
C_ C_ 0.318008 0.930437 0.193588 0.18167
C_ C_ 0.276765 0.951914 0.215283 -0.15533
C_ C_ 0.277546 0.9999121115 0.242979 0.02923
C_ C_ 0.321126 0.516073 0.246171 -0.15533
C_ C_ 0.367658 0.995562 0.231591 0.18167
C_ C_ 0.497949 0.853823 0.20511 0.18167
C_ C_ 0.0153701 0.814141 0.226589 -0.15533
C_ C_ 0.493173 0.774613 0.243216 0.02923
C_ C_ 0.440661 0.779476 0.225887 -0.15533
C_ C_ 0.41755 0.820747 0.19905 0.18167
C_ C_ 0.482687 0.954408 0.122125 0.69207
C_ C_ 0.0125915 0.492284 0.0941447 0.02923
C_ C_ -0.007993999999999946 0.544579 0.0875597 -0.15533
C_ C_ 0.0244665 0.579863 0.084737 -0.15533
C_ C_ 0.0776115 0.567067 0.0837166 0.02923
C_ C_ 0.09716 0.5143 0.0799271 -0.15533
C_ C_ 0.0657417 0.477026 0.0911964 0.02923
C_ C_ 0.0971578 0.929153 0.108291 0.69207
C_ C_ 0.0923576 0.665937 0.0971799 0.69661
C_ C_ 0.440423 0.68816 0.432338 0.18167
C_ C_ 0.481799 0.711457 0.460248 -0.15533
C_ C_ 0.473664 0.741283 0.507061 0.02923
C_ C_ 0.423449 0.749432 0.0117967 -0.15533
C_ C_ 0.386332 0.729815 0.492243 0.18167
C_ C_ 0.258312 0.693908 0.354564 0.18167
C_ C_ 0.231824 0.713226 0.310977 -0.15533
C_ C_ 0.258562 0.728672 0.272658 0.02923
C_ C_ 0.311667 0.726015 0.280597 -0.15533
C_ C_ 0.337081 0.705578 0.326507 0.18167
C_ C_ 0.272641 0.60941 0.457279 0.69207
C_ C_ 0.225615 0.622786 0.991678 0.02923
C_ C_ 0.24267 0.621642 0.0439626 -0.15533
C_ C_ 0.20806 0.612203 0.0793491 -0.15533
C_ C_ 0.157818 0.602683 0.0648241 0.02923
C_ C_ 0.142542 0.601671 0.0130122 -0.15533
C_ C_ 0.174774 0.612408 0.975183 0.02923
C_ C_ 0.159102 0.600485 0.423441 0.69207
C_ C_ 0.13166 0.604956 0.15688 0.69661
C_ C_ 0.366962 0.886918 0.382643 -0.30787
C_ C_ 0.114366 0.608905 0.0994292 -0.30787
N_ N_ 0.139654 0.560693 0.300135 -0.32189
N_ N_ 0.0562328 0.643252 0.314574 -0.32189
N_ N_ 0.101886 0.818316 0.0624062 -0.32189
N_ N_ 0.190201 0.816709 0.149924 -0.32189
N_ N_ 0.36305 0.9534 0.202342 -0.32189
N_ N_ 0.447076 0.85922 0.190076 -0.32189
N_ N_ 0.395052 0.695193 0.450884 -0.32189
N_ N_ 0.309766 0.688095 0.361539 -0.32189
O_ O_ 0.500082 0.587112 0.389528 -0.63271
O_ O_ 0.0440676 0.539421 0.335668 -0.57982
O_ O_ 0.386868 0.599289 0.343777 -0.63271
O_ O_ 0.382247 0.59312 0.427784 -0.57982
O_ O_ 0.248312 0.891702 0.098581 -0.63271
O_ O_ 0.202897 0.843545 0.0400206 -0.57982
O_ O_ 0.360061 0.845057 0.100244 -0.63271
O_ O_ 0.372906 0.928199 0.098012 -0.57982
O_ O_ 0.987788 0.909987 0.0958072 -0.63271
O_ O_ 0.455945 0.963008 0.161553 -0.57982
O_ O_ 0.0958303 0.904712 0.148052 -0.63271
O_ O_ 0.132216 0.913709 0.0774873 -0.57982
O_ O_ 0.269364 0.589734 0.409048 -0.63271
O_ O_ 0.298798 0.648161 0.465844 -0.57982
O_ O_ 0.153942 0.644385 0.40291 -0.63271
O_ O_ 0.127498 0.567045 0.404175 -0.57982
F_ F_ 0.438805 0.826383 0.423456 -0.20885
F_ F_ 0.411561 0.80412 0.340465 -0.20885
F_ F_ 0.362956 0.798245 0.403704 -0.20885
F_ F_ 0.310925 0.936586 0.322883 -0.20885
F_ F_ 0.301609 0.8554 0.320132 -0.20885
F_ F_ 0.370318 0.881105 0.293025 -0.20885
F_ F_ 0.0663476 0.669788 0.0480089 -0.20885
F_ F_ 0.0570847 0.678255 0.131304 -0.20885
F_ F_ 0.126529 0.702063 0.104753 -0.20885
F_ F_ 0.159912 0.556504 0.16471 -0.20885
F_ F_ 0.163738 0.645823 0.172697 -0.20885
F_ F_ 0.0905476 0.607891 0.187882 -0.20885
Zn Zn 0.0891151 0.581697 0.841656 0.83971
Zn Zn 0.162296 0.848827 0.584042 0.83971
Zn Zn 0.41106 0.915846 0.655031 0.83971
Zn Zn 0.339028 0.654762 0.911655 0.83971
H_ H_ 0.162461 0.631162 0.791198 0.10394
H_ H_ 0.244851 0.604064 0.760505 0.10394
H_ H_ 0.215169 0.94081 0.798934 0.10394
H_ H_ 0.146593 0.484114 0.831751 0.10394
H_ H_ 0.523143 0.596044 0.753557 0.10394
H_ H_ 0.488443 0.673319 0.704337 0.10394
H_ H_ 0.0511151 0.768626 0.824215 0.10394
H_ H_ 0.0769132 0.693439 0.874573 0.10394
H_ H_ 0.0365399 0.945068 0.888106 0.10394
H_ H_ 0.484222 0.882244 0.879337 0.10394
H_ H_ 0.349448 0.982981 0.903589 0.10394
H_ H_ 0.0907889 0.806989 0.635093 0.10394
H_ H_ 0.505434 0.767378 0.610368 0.10394
H_ H_ 0.0418053 0.799181 0.946215 0.10394
H_ H_ 0.124704 0.820047 0.483826 0.10394
H_ H_ 0.226632 0.758272 0.59422 0.10394
H_ H_ 0.261174 0.707639 0.667238 0.10394
H_ H_ 0.226474 0.843391 0.764601 0.10394
H_ H_ 0.176946 0.881693 0.68859 0.10394
H_ H_ 0.222899 0.85387 0.951325 0.10394
H_ H_ 0.280146 0.849637 0.884585 0.10394
H_ H_ 0.400576 0.907502 0.991855 0.10394
H_ H_ 0.307193 0.89323 0.665496 0.10394
H_ H_ 0.233394 0.939213 0.695816 0.10394
H_ H_ 0.334194 0.556487 0.762318 0.10394
H_ H_ 0.404401 -0.007480000000000042 0.741663 0.10394
H_ H_ 0.0100477 0.890671 0.705699 0.10394
H_ H_ 0.0575512 0.8152 0.74713 0.10394
H_ H_ 0.417535 0.740711 0.705608 0.10394
H_ H_ 0.372715 0.827585 0.688916 0.10394
H_ H_ 0.457719 0.547705 0.610161 0.10394
H_ H_ 0.0214159 0.623309 0.615378 0.10394
H_ H_ 0.146701 0.505435 0.586322 0.10394
H_ H_ 0.434805 0.667902 0.887696 0.10394
H_ H_ 0.0243925 0.692363 0.952157 0.10394
H_ H_ 0.416234 0.775049 0.554731 0.10394
H_ H_ 0.343272 0.738926 -0.0029287 0.10394
H_ H_ 0.241797 0.682414 0.870591 0.10394
H_ H_ 0.197293 0.73486 0.799515 0.10394
H_ H_ 0.34298 0.746968 0.74545 0.10394
H_ H_ 0.387817 0.697372 0.817799 0.10394
H_ H_ 0.297604 0.59564 0.558941 0.10394
H_ H_ 0.236933 0.582806 0.621025 0.10394
H_ H_ 0.109789 0.593998 0.503438 0.10394
C_ C_ 0.177747 0.59168 0.792402 0.18167
C_ C_ 0.226056 0.575491 0.776901 -0.15533
C_ C_ 0.239594 0.523926 0.768828 0.02923
C_ C_ 0.204738 0.97885 0.79656 -0.15533
C_ C_ 0.166048 0.50711 0.812477 0.18167
C_ C_ 0.0279373 0.634753 0.767197 0.18167
C_ C_ 0.508587 0.675924 0.742452 -0.15533
C_ C_ 0.0139452 0.726035 0.76327 0.02923
C_ C_ 0.042355 0.731469 0.809388 -0.15533
C_ C_ 0.0603164 0.686863 0.8361 0.18167
C_ C_ 0.0113228 0.535823 0.858966 0.69207
C_ C_ 0.468159 0.0115048 0.872035 0.02923
C_ C_ 0.490133 0.961146 0.867426 -0.15533
C_ C_ 0.462766 0.920184 0.877732 -0.15533
C_ C_ 0.412424 0.925903 0.891273 0.02923
C_ C_ 0.388895 0.975736 0.891465 -0.15533
C_ C_ 0.415127 0.0190804 0.880739 0.02923
C_ C_ 0.397073 0.571797 0.873935 0.69207
C_ C_ 0.413151 0.830919 0.886819 0.69661
C_ C_ 0.0788285 0.797798 0.595058 0.18167
C_ C_ 0.0318095 0.781366 0.577453 -0.15533
C_ C_ 0.0177674 0.774525 0.52374 0.02923
C_ C_ 0.0509569 0.797623 0.987097 -0.15533
C_ C_ 0.0974036 0.807793 0.510143 0.18167
C_ C_ 0.21795 0.771153 0.630125 0.18167
C_ C_ 0.243117 0.746144 0.673715 -0.15533
C_ C_ 0.243393 0.7692 0.722104 0.02923
C_ C_ 0.22427 0.821382 0.728427 -0.15533
C_ C_ 0.198779 0.844692 0.686612 0.18167
C_ C_ 0.238307 0.874253 0.547486 0.69207
C_ C_ 0.279951 0.875454 0.00982513 0.02923
C_ C_ 0.263573 0.861244 0.959515 -0.15533
C_ C_ 0.295027 0.86413 0.921382 -0.15533
C_ C_ 0.344041 0.882121 0.930821 0.02923
C_ C_ 0.362397 0.896887 0.981828 -0.15533
C_ C_ 0.331462 0.887515 0.021108 0.02923
C_ C_ 0.353235 0.885365 0.571708 0.69207
C_ C_ 0.352784 0.884651 0.831067 0.69661
C_ C_ 0.311729 0.929833 0.685749 0.18167
C_ C_ 0.26862 0.953372 0.708846 -0.15533
C_ C_ 0.276062 0.990763 0.747612 0.02923
C_ C_ 0.327424 0.522431 0.73955 -0.15533
C_ C_ 0.366892 0.978062 0.735577 0.18167
C_ C_ 0.492463 0.854768 0.710621 0.18167
C_ C_ 0.0181242 0.816503 0.7323 -0.15533
C_ C_ 0.487679 0.771562 0.736958 0.02923
C_ C_ 0.436038 0.774868 0.714 -0.15533
C_ C_ 0.414217 0.822034 0.697768 0.18167
C_ C_ 0.490872 0.954591 0.630868 0.69207
C_ C_ 0.0235958 0.492988 0.60693 0.02923
C_ C_ 1.00529001 0.54406 0.609882 -0.15533
C_ C_ 0.0374627 0.582806 0.607154 -0.15533
C_ C_ 0.0885248 0.569496 0.599243 0.02923
C_ C_ 0.106247 0.517173 0.592179 -0.15533
C_ C_ 0.0744942 0.478341 0.597195 0.02923
C_ C_ 0.0935185 0.922906 0.607227 0.69207
C_ C_ 0.108341 0.666752 0.600246 0.69661
C_ C_ 0.434365 0.686345 0.925502 0.18167
C_ C_ 0.477428 0.709075 0.950961 -0.15533
C_ C_ 0.473648 0.737222 -0.0030120000000000147 0.02923
C_ C_ 0.424935 0.752576 0.521502 -0.15533
C_ C_ 0.382933 0.723751 0.988725 0.18167
C_ C_ 0.264006 0.700131 0.846251 0.18167
C_ C_ 0.238823 0.724448 0.802926 -0.15533
C_ C_ 0.267782 0.741563 0.767814 0.02923
C_ C_ 0.321229 0.731089 0.7723 -0.15533
C_ C_ 0.344733 0.704975 0.814656 0.18167
C_ C_ 0.263504 0.625037 0.955785 0.69207
C_ C_ 0.237988 0.600397 0.494585 0.02923
C_ C_ 0.255304 0.59989 0.546698 -0.15533
C_ C_ 0.221052 0.594249 0.583535 -0.15533
C_ C_ 0.167944 0.597786 0.569572 0.02923
C_ C_ 0.150784 0.597452 0.516591 -0.15533
C_ C_ 0.186045 0.595574 0.47816 0.02923
C_ C_ 0.151921 0.612003 0.920627 0.69207
C_ C_ 0.149879 0.606919 0.664457 0.69661
C_ C_ 0.380023 0.882097 0.886518 -0.30787
C_ C_ 0.128461 0.610775 0.608011 -0.30787
N_ N_ 0.146911 0.557141 0.80665 -0.32189
N_ N_ 0.0569997 0.640924 0.813438 -0.32189
N_ N_ 0.110387 0.807901 0.560774 -0.32189
N_ N_ 0.19591 0.819194 0.638401 -0.32189
N_ N_ 0.359481 0.943544 0.698094 -0.32189
N_ N_ 0.443598 0.858345 0.688862 -0.32189
N_ N_ 0.388372 0.695507 0.944943 -0.32189
N_ N_ 0.314673 0.686237 0.849134 -0.32189
O_ O_ 0.503478 0.593793 0.878098 -0.63271
O_ O_ 0.0488855 0.528885 0.829011 -0.57982
O_ O_ 0.396017 0.599817 0.834198 -0.63271
O_ O_ 0.373628 0.590743 0.913986 -0.57982
O_ O_ 0.237262 0.89966 0.591386 -0.63271
O_ O_ 0.208701 0.837596 0.538797 -0.57982
O_ O_ 0.353437 0.844497 0.598087 -0.63271
O_ O_ 0.381157 0.920908 0.5914 -0.57982
O_ O_ 0.983334 0.911365 0.601044 -0.63271
O_ O_ 0.457267 0.963279 0.6637 -0.57982
O_ O_ 0.0943826 0.900566 0.650097 -0.63271
O_ O_ 0.126814 0.906991 0.574618 -0.57982
O_ O_ 0.262935 0.595666 0.91228 -0.63271
O_ O_ 0.2896 0.664329 0.959059 -0.57982
O_ O_ 0.159275 0.645287 0.88783 -0.63271
O_ O_ 0.122108 0.578882 0.905685 -0.57982
F_ F_ 0.446927 0.827258 0.932816 -0.20885
F_ F_ 0.437099 0.816816 0.842948 -0.20885
F_ F_ 0.382223 0.791475 0.888948 -0.20885
F_ F_ 0.311418 0.922986 0.828246 -0.20885
F_ F_ 0.333792 0.841252 0.814272 -0.20885
F_ F_ 0.388453 0.893429 0.796529 -0.20885
F_ F_ 0.0749671 0.669871 0.556069 -0.20885
F_ F_ 0.0794619 0.686725 0.639027 -0.20885
F_ F_ 0.146674 0.697049 0.591548 -0.20885
F_ F_ 0.179046 0.561102 0.669706 -0.20885
F_ F_ 0.179124 0.645302 0.683917 -0.20885
F_ F_ 0.112845 0.610687 0.697251 -0.20885
Zn Zn 0.581636 0.0864778 0.353083 0.83971
Zn Zn 0.662084 0.349499 0.0803065 0.83971
Zn Zn 0.905527 0.412283 0.144111 0.83971
Zn Zn 0.833563 0.163175 0.420416 0.83971
H_ H_ 0.659302 0.133739 0.311451 0.10394
H_ H_ 0.74129 0.102428 0.275195 0.10394
H_ H_ 0.715011 0.440938 0.284874 0.10394
H_ H_ 0.633119 0.985914 0.336891 0.10394
H_ H_ 0.0310599 0.0934446 0.250118 0.10394
H_ H_ 0.985019 0.163666 0.199579 0.10394
H_ H_ 0.53209 0.270663 0.323103 0.10394
H_ H_ 0.570043 0.201967 0.375896 0.10394
H_ H_ 0.512609 0.4444 0.322981 0.10394
H_ H_ 0.985851 0.375983 0.383234 0.10394
H_ H_ 0.856903 0.486995 0.400131 0.10394
H_ H_ 0.575117 0.320921 0.130289 0.10394
H_ H_ 1.0023 0.266304 0.0910515 0.10394
H_ H_ 0.532739 0.290646 0.443258 0.10394
H_ H_ 0.630338 0.296462 0.983326 0.10394
H_ H_ 0.712407 0.246671 0.101451 0.10394
H_ H_ 0.763394 0.207338 0.171902 0.10394
H_ H_ 0.707844 0.334984 0.270853 0.10394
H_ H_ 0.67822 0.380202 0.193941 0.10394
H_ H_ 0.728745 0.3406 0.436362 0.10394
H_ H_ 0.782084 0.345223 0.367825 0.10394
H_ H_ 0.895357 0.410236 0.478574 0.10394
H_ H_ 0.806096 0.39459 0.153354 0.10394
H_ H_ 0.734693 0.441448 0.187037 0.10394
H_ H_ 0.828255 0.0488515 0.282513 0.10394
H_ H_ 0.908923 0.488764 0.22975 0.10394
H_ H_ 0.511184 0.372754 0.190367 0.10394
H_ H_ 0.550475 0.290848 0.224245 0.10394
H_ H_ 0.913306 0.235576 0.202545 0.10394
H_ H_ 0.866776 0.31398 0.173993 0.10394
H_ H_ 0.963293 0.0529777 0.117331 0.10394
H_ H_ 0.517726 0.120503 0.126317 0.10394
H_ H_ 0.637907 0.00482101 0.0811978 0.10394
H_ H_ 0.93255 0.174033 0.392908 0.10394
H_ H_ 0.516213 0.195522 0.446983 0.10394
H_ H_ 0.917138 0.270078 0.0490961 0.10394
H_ H_ 0.852904 0.219925 0.522272 0.10394
H_ H_ 0.72399 0.194493 0.383695 0.10394
H_ H_ 0.682997 0.238207 0.310174 0.10394
H_ H_ 0.82935 0.218075 0.248315 0.10394
H_ H_ 0.869028 0.189085 0.329191 0.10394
H_ H_ 0.785664 0.11388 0.0494339 0.10394
H_ H_ 0.735604 0.105078 0.119611 0.10394
H_ H_ 0.601301 0.0987008 0.0120617 0.10394
C_ C_ 0.671794 0.0948467 0.308856 0.18167
C_ C_ 0.718643 0.0759235 0.289759 -0.15533
C_ C_ 0.728862 0.0232253 0.278539 0.02923
C_ C_ 0.705042 0.481009 0.28605 -0.15533
C_ C_ 0.655485 0.011579 0.319903 0.18167
C_ C_ 0.52515 0.131801 0.273771 0.18167
C_ C_ 0.0031581 0.172997 0.236262 -0.15533
C_ C_ 0.499948 0.220478 0.263798 0.02923
C_ C_ 0.522938 0.231867 0.312916 -0.15533
C_ C_ 0.549399 0.192533 0.34105 0.18167
C_ C_ 0.502977 0.0464883 0.368088 0.69207
C_ C_ 0.977632 0.504364 0.376838 0.02923
C_ C_ 0.998934 0.452869 0.374944 -0.15533
C_ C_ 0.96703 0.414437 0.374477 -0.15533
C_ C_ 0.915521 0.423306 0.384655 0.02923
C_ C_ 0.895186 0.475627 0.39061 -0.15533
C_ C_ 0.924521 0.51597 0.388073 0.02923
C_ C_ 0.890246 0.0777948 0.387696 0.69207
C_ C_ 0.909408 0.325555 0.380724 0.69661
C_ C_ 0.568393 0.307055 0.0911347 0.18167
C_ C_ 0.524702 0.282433 0.0729636 -0.15533
C_ C_ 0.519842 0.261133 0.0236507 0.02923
C_ C_ 0.544814 0.292527 0.484599 -0.15533
C_ C_ 0.599483 0.295107 0.0093964 0.18167
C_ C_ 0.716187 0.270025 0.137786 0.18167
C_ C_ 0.740607 0.243595 0.179359 -0.15533
C_ C_ 0.73207 0.264125 0.227637 0.02923
C_ C_ 0.708348 0.31511 0.233393 -0.15533
C_ C_ 0.692611 0.341496 0.190205 0.18167
C_ C_ 0.737472 0.367561 0.037275 0.69207
C_ C_ 0.779342 0.371809 0.49508 0.02923
C_ C_ 0.763899 0.357807 0.444931 -0.15533
C_ C_ 0.797249 0.360047 0.40646 -0.15533
C_ C_ 0.840842 0.383254 0.414627 0.02923
C_ C_ 0.857123 0.39754 0.46769 -0.15533
C_ C_ 0.832027 0.383305 0.507744 0.02923
C_ C_ 0.8506 0.380723 0.0619025 0.69207
C_ C_ 0.853409 0.382461 0.320331 0.69661
C_ C_ 0.810283 0.427885 0.176841 0.18167
C_ C_ 0.770725 0.452808 0.200065 -0.15533
C_ C_ 0.779786 0.491512 0.237012 0.02923
C_ C_ 0.822162 0.0163638 0.256178 -0.15533
C_ C_ 0.869202 0.483401 0.220349 0.18167
C_ C_ 0.988386 0.350012 0.191864 0.18167
C_ C_ 0.50921 0.299278 0.220375 -0.15533
C_ C_ 0.984545 0.268528 0.223212 0.02923
C_ C_ 0.932247 0.271616 0.206448 -0.15533
C_ C_ 0.907907 0.314686 0.185339 0.18167
C_ C_ 0.976315 0.454777 0.106915 0.69207
C_ C_ 0.519757 0.99032 0.113164 0.02923
C_ C_ 0.50079 0.0410613 0.119484 -0.15533
C_ C_ 0.533163 0.0807894 0.11729 -0.15533
C_ C_ 0.585584 0.0677182 0.106536 0.02923
C_ C_ 0.601894 0.0149323 0.0956014 -0.15533
C_ C_ 0.572306 0.976316 0.103752 0.02923
C_ C_ 0.600349 0.426141 0.104134 0.69207
C_ C_ 0.605704 0.163171 0.122189 0.69661
C_ C_ 0.930732 0.192644 0.43143 0.18167
C_ C_ 0.974951 0.207006 0.456305 -0.15533
C_ C_ 0.97333 0.239688 0.501948 0.02923
C_ C_ 0.921962 0.246586 0.0121805 -0.15533
C_ C_ 0.886556 0.222574 0.501228 0.18167
C_ C_ 0.748365 0.202076 0.354991 0.18167
C_ C_ 0.723574 0.230325 0.313436 -0.15533
C_ C_ 0.753762 0.234348 0.271581 0.02923
C_ C_ 0.804194 0.213424 0.277624 -0.15533
C_ C_ 0.828335 0.199342 0.323904 0.18167
C_ C_ 0.755067 0.134324 0.456441 0.69207
C_ C_ 0.722186 0.117195 0.990758 0.02923
C_ C_ 0.744889 0.112283 0.0424143 -0.15533
C_ C_ 0.714123 0.111067 0.0834173 -0.15533
C_ C_ 0.663244 0.100385 0.0742703 0.02923
C_ C_ 0.642106 0.0980876 0.0211183 -0.15533
C_ C_ 0.669975 0.109327 0.98097 0.02923
C_ C_ 0.646765 0.109361 0.431755 0.69207
C_ C_ 0.655912 0.0895682 0.170769 0.69661
C_ C_ 0.879563 0.378953 0.376191 -0.30787
C_ C_ 0.626201 0.106401 0.117315 -0.30787
N_ N_ 0.638348 0.0616873 0.314862 -0.32189
N_ N_ 0.548129 0.143298 0.322178 -0.32189
N_ N_ 0.605131 0.311079 0.0590984 -0.32189
N_ N_ 0.693751 0.317441 0.142799 -0.32189
N_ N_ 0.857541 0.443752 0.187122 -0.32189
N_ N_ 0.936256 0.353178 0.177888 -0.32189
N_ N_ 0.885533 0.203447 0.451189 -0.32189
N_ N_ 0.799523 0.193347 0.362919 -0.32189
O_ O_ -0.00858099999999995 0.102736 0.386121 -0.63271
O_ O_ 0.539598 0.0408563 0.338792 -0.57982
O_ O_ 0.879793 0.0958966 0.343063 -0.63271
O_ O_ 0.869871 0.101655 0.427205 -0.57982
O_ O_ 0.739389 0.392822 0.0818682 -0.63271
O_ O_ 0.700983 0.337374 0.0272548 -0.57982
O_ O_ 0.85695 0.338694 0.0831807 -0.63271
O_ O_ 0.874964 0.41727 0.0814993 -0.57982
O_ O_ 0.486745 0.41683 0.0908648 -0.63271
O_ O_ 0.946067 0.464297 0.142809 -0.57982
O_ O_ 0.605283 0.40002 0.144349 -0.63271
O_ O_ 0.623737 0.406997 0.0651258 -0.57982
O_ O_ 0.754399 0.109107 0.412151 -0.63271
O_ O_ 0.792802 0.163242 0.468992 -0.57982
O_ O_ 0.650098 0.148746 0.404704 -0.63271
O_ O_ 0.605969 0.0830093 0.417812 -0.57982
F_ F_ 0.937905 0.317809 0.427629 -0.20885
F_ F_ 0.940602 0.312767 0.342021 -0.20885
F_ F_ 0.875786 0.287422 0.37696 -0.20885
F_ F_ 0.820142 0.426418 0.316349 -0.20885
F_ F_ 0.828907 0.340366 0.302584 -0.20885
F_ F_ 0.887451 0.388684 0.283846 -0.20885
F_ F_ 0.567699 0.17274 0.0844336 -0.20885
F_ F_ 0.588881 0.182108 0.170341 -0.20885
F_ F_ 0.644815 0.194534 0.120597 -0.20885
F_ F_ 0.683173 0.0418882 0.162237 -0.20885
F_ F_ 0.688594 0.123495 0.195541 -0.20885
F_ F_ 0.621982 0.0818271 0.205274 -0.20885
Zn Zn 0.586282 0.0891838 0.846166 0.83971
Zn Zn 0.660483 0.348425 0.57632 0.83971
Zn Zn 0.915698 0.414095 0.650595 0.83971
Zn Zn 0.832985 0.156554 0.913217 0.83971
H_ H_ 0.671734 0.136331 0.812813 0.10394
H_ H_ 0.750368 0.102365 0.772439 0.10394
H_ H_ 0.717442 0.44575 0.78032 0.10394
H_ H_ 0.635215 0.989125 0.835192 0.10394
H_ H_ 0.0285255 0.0947884 0.76234 0.10394
H_ H_ 0.984499 0.16234 0.711268 0.10394
H_ H_ 0.526618 0.279139 0.828092 0.10394
H_ H_ 0.567853 0.20357 0.877755 0.10394
H_ H_ 0.542805 0.445189 0.8791 0.10394
H_ H_ 0.983483 0.370709 0.87734 0.10394
H_ H_ 0.8581 0.486791 0.903033 0.10394
H_ H_ 0.584658 0.304689 0.626737 0.10394
H_ H_ 0.012604 0.261479 0.607071 0.10394
H_ H_ 0.54985 0.263222 0.950097 0.10394
H_ H_ 0.613577 0.321125 0.477461 0.10394
H_ H_ 0.731258 0.254658 0.590159 0.10394
H_ H_ 0.749377 0.201172 0.663121 0.10394
H_ H_ 0.708133 0.335369 0.762555 0.10394
H_ H_ 0.676317 0.381407 0.686926 0.10394
H_ H_ 0.70726 0.375576 0.935955 0.10394
H_ H_ 0.763285 0.38693 0.869636 0.10394
H_ H_ 0.894275 0.392597 0.978344 0.10394
H_ H_ 0.811326 0.417299 0.645408 0.10394
H_ H_ 0.741201 0.457686 0.684167 0.10394
H_ H_ 0.837577 0.0366405 0.797993 0.10394
H_ H_ 0.912506 0.484285 0.752554 0.10394
H_ H_ 0.511314 0.387754 0.689713 0.10394
H_ H_ 0.553978 0.312081 0.733533 0.10394
H_ H_ 0.90614 0.255834 0.741329 0.10394
H_ H_ 0.871974 0.327273 0.688091 0.10394
H_ H_ 0.971233 0.057067 0.644052 0.10394
H_ H_ 0.519863 0.12443 0.610488 0.10394
H_ H_ 0.643548 0.00910157 0.596771 0.10394
H_ H_ 0.93537 0.162634 0.888858 0.10394
H_ H_ 0.517227 0.164864 0.980503 0.10394
H_ H_ 0.921322 0.270086 0.558364 0.10394
H_ H_ 0.846734 0.227837 0.008550000000000058 0.10394
H_ H_ 0.730392 0.209775 0.886775 0.10394
H_ H_ 0.684689 0.254538 0.807533 0.10394
H_ H_ 0.825483 0.223527 0.742153 0.10394
H_ H_ 0.865144 0.18739 0.817785 0.10394
H_ H_ 0.784871 0.114536 0.558258 0.10394
H_ H_ 0.735678 0.108686 0.627408 0.10394
H_ H_ 0.606009 0.0966693 0.516194 0.10394
C_ C_ 0.681727 0.0962931 0.80816 0.18167
C_ C_ 0.725657 0.0751943 0.787378 -0.15533
C_ C_ 0.735964 0.0222321 0.78227 0.02923
C_ C_ 0.708375 0.48682 0.787189 -0.15533
C_ C_ 0.661371 0.0148009 0.826054 0.18167
C_ C_ 0.535646 0.143899 0.764694 0.18167
C_ C_ -0.0018529999999999935 0.173051 0.750799 -0.15533
C_ C_ 0.506036 0.232402 0.763657 0.02923
C_ C_ 0.528304 0.240177 0.811762 -0.15533
C_ C_ 0.553814 0.197946 0.838031 0.18167
C_ C_ 0.495727 0.0539638 0.857057 0.69207
C_ C_ 0.974784 0.498079 0.863016 0.02923
C_ C_ 0.992617 0.446327 0.856662 -0.15533
C_ C_ 0.962102 0.407277 0.86486 -0.15533
C_ C_ 0.91298 0.419752 0.883482 0.02923
C_ C_ 0.896883 0.47228 0.894523 -0.15533
C_ C_ 0.926143 0.511386 0.88058 0.02923
C_ C_ 0.89277 0.0662629 0.891095 0.69207
C_ C_ 0.896265 0.324417 0.881874 0.69661
C_ C_ 0.571707 0.301996 0.58761 0.18167
C_ C_ 0.527472 0.281842 0.570576 -0.15533
C_ C_ 0.513289 0.274914 0.518889 0.02923
C_ C_ 0.556661 0.267393 0.991251 -0.15533
C_ C_ 0.589643 0.311581 0.503403 0.18167
C_ C_ 0.722779 0.272355 0.628397 0.18167
C_ C_ 0.739348 0.242376 0.670518 -0.15533
C_ C_ 0.72813 0.263657 0.720277 0.02923
C_ C_ 0.710957 0.316181 0.72464 -0.15533
C_ C_ 0.686768 0.339963 0.681705 0.18167
C_ C_ 0.743612 0.37272 0.53495 0.69207
C_ C_ 0.772047 0.375431 0.999679 0.02923
C_ C_ 0.750086 0.377701 0.947107 -0.15533
C_ C_ 0.780267 0.388226 0.908681 -0.15533
C_ C_ 0.834997 0.388025 0.920321 0.02923
C_ C_ 0.854526 0.392515 0.970751 -0.15533
C_ C_ 0.82382 0.385039 0.0111343 0.02923
C_ C_ 0.856398 0.382642 0.562114 0.69207
C_ C_ 0.843563 0.38423 0.820782 0.69661
C_ C_ 0.817656 0.445663 0.675652 0.18167
C_ C_ 0.777731 0.470399 0.699647 -0.15533
C_ C_ 0.785767 0.502944 0.741271 0.02923
C_ C_ 0.828493 0.0120753 0.766658 -0.15533
C_ C_ 0.876156 0.487199 0.732382 0.18167
C_ C_ 0.99743 0.339716 0.686373 0.18167
C_ C_ 0.514374 0.313394 0.720935 -0.15533
C_ C_ 0.984748 0.266977 0.733834 0.02923
C_ C_ 0.930602 0.277996 0.723981 -0.15533
C_ C_ 0.912154 0.316952 0.690177 0.18167
C_ C_ 0.987752 0.455425 0.612636 0.69207
C_ C_ 0.522859 0.995408 0.620597 0.02923
C_ C_ 0.503535 0.046087 0.624794 -0.15533
C_ C_ 0.535413 0.0858841 0.622127 -0.15533
C_ C_ 0.586473 0.0706238 0.614167 0.02923
C_ C_ 0.603982 0.0201424 0.602454 -0.15533
C_ C_ 0.575505 0.981453 0.607781 0.02923
C_ C_ 0.597228 0.423193 0.607668 0.69207
C_ C_ 0.603317 0.166307 0.615747 0.69661
C_ C_ 0.931875 0.184128 0.925113 0.18167
C_ C_ 0.974609 0.206845 0.950534 -0.15533
C_ C_ 0.970905 0.237571 -0.00504899999999997 0.02923
C_ C_ 0.924772 0.25055 0.52176 -0.15533
C_ C_ 0.881173 0.221812 0.988416 0.18167
C_ C_ 0.74942 0.210863 0.855038 0.18167
C_ C_ 0.723513 0.235341 0.809248 -0.15533
C_ C_ 0.750638 0.239483 0.767936 0.02923
C_ C_ 0.801629 0.220236 0.77144 -0.15533
C_ C_ 0.822936 0.194888 0.814318 0.18167
C_ C_ 0.756489 0.127559 0.951807 0.69207
C_ C_ 0.724356 0.116761 0.495218 0.02923
C_ C_ 0.745489 0.10923 0.547601 -0.15533
C_ C_ 0.716493 0.10609 0.588569 -0.15533
C_ C_ 0.665046 0.102251 0.577516 0.02923
C_ C_ 0.645308 0.0960612 0.524728 -0.15533
C_ C_ 0.673407 0.105516 0.48443 0.02923
C_ C_ 0.643236 0.113647 0.929354 0.69207
C_ C_ 0.647824 0.104899 0.675619 0.69661
C_ C_ 0.873209 0.379755 0.876749 -0.30787
C_ C_ 0.626012 0.109786 0.618911 -0.30787
N_ N_ 0.646285 0.0651466 0.819446 -0.32189
N_ N_ 0.556933 0.150643 0.8137 -0.32189
N_ N_ 0.603629 0.314795 0.55465 -0.32189
N_ N_ 0.691899 0.317007 0.634218 -0.32189
N_ N_ 0.865222 0.453174 0.692499 -0.32189
N_ N_ 0.945878 0.35128 0.681257 -0.32189
N_ N_ 0.885543 0.194355 0.94345 -0.32189
N_ N_ 0.795634 0.184282 0.852586 -0.32189
O_ O_ 0.00277244 0.0906848 0.909625 -0.63271
O_ O_ 0.539058 0.0409628 0.835854 -0.57982
O_ O_ 0.899692 0.0882224 0.849128 -0.63271
O_ O_ 0.858511 0.0878112 0.920705 -0.57982
O_ O_ 0.747454 0.402169 0.577483 -0.63271
O_ O_ 0.708388 0.343575 0.527786 -0.57982
O_ O_ 0.84897 0.343435 0.589845 -0.63271
O_ O_ 0.88201 0.419913 0.582483 -0.57982
O_ O_ 0.488838 0.411384 0.587796 -0.63271
O_ O_ 0.960623 0.461778 0.650958 -0.57982
O_ O_ 0.591478 0.396062 0.64532 -0.63271
O_ O_ 0.637062 0.413572 0.581724 -0.57982
O_ O_ 0.747571 0.111527 0.904605 -0.63271
O_ O_ 0.793543 0.156263 0.962816 -0.57982
O_ O_ 0.645287 0.153912 0.904625 -0.63271
O_ O_ 0.608621 0.0838732 0.912533 -0.57982
F_ F_ 0.921302 0.314076 0.927489 -0.20885
F_ F_ 0.926405 0.31146 0.841255 -0.20885
F_ F_ 0.858236 0.291332 0.878223 -0.20885
F_ F_ 0.81487 0.429306 0.819048 -0.20885
F_ F_ 0.815626 0.344626 0.803927 -0.20885
F_ F_ 0.875675 0.389575 0.785035 -0.20885
F_ F_ 0.568857 0.173535 0.573001 -0.20885
F_ F_ 0.579985 0.185693 0.65968 -0.20885
F_ F_ 0.643091 0.197957 0.61141 -0.20885
F_ F_ 0.676378 0.0597531 0.682524 -0.20885
F_ F_ 0.681314 0.140626 0.691405 -0.20885
F_ F_ 0.609466 0.10736 0.709641 -0.20885
Zn Zn 0.592962 0.581929 0.348265 0.83971
Zn Zn 0.659284 0.844307 0.0872734 0.83971
Zn Zn 0.908722 0.91957 0.156951 0.83971
Zn Zn 0.844025 0.656868 0.424077 0.83971
H_ H_ 0.670874 0.626479 0.304734 0.10394
H_ H_ 0.747 0.594467 0.261605 0.10394
H_ H_ 0.706615 0.952086 0.294333 0.10394
H_ H_ 0.642158 0.477933 0.32556 0.10394
H_ H_ 0.0251368 0.603331 0.246802 0.10394
H_ H_ 0.993922 0.68459 0.201138 0.10394
H_ H_ 0.545037 0.768796 0.346781 0.10394
H_ H_ 0.579795 0.690337 0.386579 0.10394
H_ H_ 0.520816 0.940536 0.339821 0.10394
H_ H_ 0.986927 0.884296 0.398957 0.10394
H_ H_ 0.852343 0.992087 0.408444 0.10394
H_ H_ 0.581944 0.799685 0.132472 0.10394
H_ H_ 0.998218 0.767749 0.0924887 0.10394
H_ H_ 0.534764 0.795758 0.455578 0.10394
H_ H_ 0.617318 0.821597 0.985545 0.10394
H_ H_ 0.724911 0.751309 0.103144 0.10394
H_ H_ 0.766923 0.704155 0.175023 0.10394
H_ H_ 0.7072 0.829185 0.275057 0.10394
H_ H_ 0.670964 0.876181 0.199397 0.10394
H_ H_ 0.718601 0.869293 0.448883 0.10394
H_ H_ 0.774132 0.862284 0.38222 0.10394
H_ H_ 0.901425 0.899959 0.489776 0.10394
H_ H_ 0.805311 0.899473 0.168339 0.10394
H_ H_ 0.728963 0.952792 0.194969 0.10394
H_ H_ 0.833554 0.544163 0.272165 0.10394
H_ H_ 0.898443 1.0134782 0.225396 0.10394
H_ H_ 0.521546 0.886562 0.200953 0.10394
H_ H_ 0.561196 0.814491 0.247832 0.10394
H_ H_ 0.906653 0.761993 0.249508 0.10394
H_ H_ 0.867451 0.836731 0.206055 0.10394
H_ H_ 0.950704 0.553524 0.0897589 0.10394
H_ H_ 0.525894 0.622155 0.128033 0.10394
H_ H_ 0.638171 0.509653 0.0733834 0.10394
H_ H_ 0.950344 0.657694 0.410169 0.10394
H_ H_ 0.520238 0.6957 0.453558 0.10394
H_ H_ 0.913451 0.787243 0.0341204 0.10394
H_ H_ 0.846943 0.731056 0.50667 0.10394
H_ H_ 0.740712 0.71088 0.397321 0.10394
H_ H_ 0.701659 0.758558 0.323528 0.10394
H_ H_ 0.834985 0.716984 0.247188 0.10394
H_ H_ 0.877843 0.683419 0.326362 0.10394
H_ H_ 0.794062 0.612907 0.0507989 0.10394
H_ H_ 0.736035 0.600555 0.118415 0.10394
H_ H_ 0.611437 0.588748 0.00137212 0.10394
C_ C_ 0.681524 0.585667 0.300329 0.18167
C_ C_ 0.726471 0.565915 0.277962 -0.15533
C_ C_ 0.737931 0.513627 0.270024 0.02923
C_ C_ 0.698688 0.991982 0.299156 -0.15533
C_ C_ 0.662049 0.503198 0.309234 0.18167
C_ C_ 0.543048 0.638518 0.271116 0.18167
C_ C_ 0.00944066 0.685158 0.242149 -0.15533
C_ C_ 0.5174 0.731111 0.273157 0.02923
C_ C_ 0.538246 0.733204 0.324717 -0.15533
C_ C_ 0.561295 0.68868 0.347407 0.18167
C_ C_ 0.504551 0.544445 0.36278 0.69207
C_ C_ 0.970586 0.014027 0.380642 0.02923
C_ C_ -0.004794999999999994 0.96378 0.386669 -0.15533
C_ C_ 0.966748 0.922566 0.393599 -0.15533
C_ C_ 0.91425 0.932217 0.399083 0.02923
C_ C_ 0.891558 0.985346 0.404384 -0.15533
C_ C_ 0.91839 0.0256135 0.393645 0.02923
C_ C_ 0.900013 0.570014 0.389542 0.69207
C_ C_ 0.905255 0.832352 0.383488 0.69661
C_ C_ 0.575165 0.789223 0.0934548 0.18167
C_ C_ 0.527642 0.772783 0.0718595 -0.15533
C_ C_ 0.515498 0.766427 0.0188445 0.02923
C_ C_ 0.548597 0.787323 0.495707 -0.15533
C_ C_ 0.594091 0.803213 0.00986467 0.18167
C_ C_ 0.719148 0.766878 0.141155 0.18167
C_ C_ 0.745279 0.740842 0.184373 -0.15533
C_ C_ 0.740911 0.764159 0.233259 0.02923
C_ C_ 0.712664 0.811042 0.237602 -0.15533
C_ C_ 0.69087 0.837681 0.195388 0.18167
C_ C_ 0.741752 0.859836 0.0458963 0.69207
C_ C_ 0.778663 0.875562 0.510079 0.02923
C_ C_ 0.758645 0.874263 0.460012 -0.15533
C_ C_ 0.789845 0.876978 0.420466 -0.15533
C_ C_ 0.841083 0.891679 0.43056 0.02923
C_ C_ 0.861012 0.892261 0.480964 -0.15533
C_ C_ 0.830603 0.881375 0.52186 0.02923
C_ C_ 0.850709 0.876197 0.0763985 0.69207
C_ C_ 0.847513 0.896717 0.333789 0.69661
C_ C_ 0.809015 0.933817 0.188963 0.18167
C_ C_ 0.766686 0.956431 0.211717 -0.15533
C_ C_ 0.772692 1.00037 0.246928 0.02923
C_ C_ 0.829539 0.506632 0.249447 -0.15533
C_ C_ 0.862 0.996653 0.225826 0.18167
C_ C_ 0.98957 0.852956 0.19705 0.18167
C_ C_ 0.52081 0.813579 0.233544 -0.15533
C_ C_ 0.984853 0.779861 0.24505 0.02923
C_ C_ 0.930255 0.789842 0.238972 -0.15533
C_ C_ 0.908092 0.828346 0.20834 0.18167
C_ C_ 0.987432 0.951763 0.124192 0.69207
C_ C_ 0.526178 0.493325 0.124398 0.02923
C_ C_ 0.511576 0.545352 0.138335 -0.15533
C_ C_ 0.542851 0.581549 0.127941 -0.15533
C_ C_ 0.587727 0.570834 0.104334 0.02923
C_ C_ 0.603348 0.51966 0.0934201 -0.15533
C_ C_ 0.5753 0.480087 0.106373 0.02923
C_ C_ 0.599449 0.922608 0.104985 0.69207
C_ C_ 0.606762 0.665118 0.103661 0.69661
C_ C_ 0.945637 0.678795 0.44502 0.18167
C_ C_ 0.985284 0.703899 0.469627 -0.15533
C_ C_ 0.973837 0.746339 0.503333 0.02923
C_ C_ 0.924517 0.758507 1.00631361 -0.15533
C_ C_ 0.884639 0.728124 0.49546 0.18167
C_ C_ 0.764691 0.714627 0.365982 0.18167
C_ C_ 0.74137 0.740665 0.324491 -0.15533
C_ C_ 0.767204 0.74105 0.279548 0.02923
C_ C_ 0.814298 0.714644 0.279061 -0.15533
C_ C_ 0.839158 0.695173 0.325136 0.18167
C_ C_ 0.764751 0.625818 0.457232 0.69207
C_ C_ 0.73302 0.609163 0.987861 0.02923
C_ C_ 0.754007 0.604167 0.0403728 -0.15533
C_ C_ 0.719543 0.604489 0.0797687 -0.15533
C_ C_ 0.666385 0.598531 0.0660328 0.02923
C_ C_ 0.651209 0.597146 0.0124945 -0.15533
C_ C_ 0.681737 0.602786 0.973726 0.02923
C_ C_ 0.651857 0.604913 0.430059 0.69207
C_ C_ 0.653064 0.608471 0.164483 0.69661
C_ C_ 0.877391 0.88847 0.388524 -0.30787
C_ C_ 0.629392 0.608566 0.109069 -0.30787
N_ N_ 0.646972 0.553665 0.309349 -0.32189
N_ N_ 0.563136 0.643405 0.320588 -0.32189
N_ N_ 0.604696 0.806313 0.0607187 -0.32189
N_ N_ 0.692417 0.812175 0.148025 -0.32189
N_ N_ 0.855714 0.951228 0.198549 -0.32189
N_ N_ 0.936849 0.859695 0.189637 -0.32189
N_ N_ 0.89671 0.692363 0.457276 -0.32189
N_ N_ 0.811185 0.689445 0.36411 -0.32189
O_ O_ 0.00925011 0.589113 0.399251 -0.63271
O_ O_ 0.546284 0.534746 0.338696 -0.57982
O_ O_ 0.889358 0.591553 0.345175 -0.63271
O_ O_ 0.878465 0.592358 0.430299 -0.57982
O_ O_ 0.747245 0.883401 0.0912061 -0.63271
O_ O_ 0.699714 0.837161 0.0344882 -0.57982
O_ O_ 0.853677 0.83884 0.107449 -0.63271
O_ O_ 0.879777 0.911622 0.0921093 -0.57982
O_ O_ 0.478022 0.910542 0.095894 -0.63271
O_ O_ 0.95192 0.96613 0.157431 -0.57982
O_ O_ 0.59353 0.892925 0.142169 -0.63271
O_ O_ 0.637877 0.909152 0.0766494 -0.57982
O_ O_ 0.763867 0.604383 0.410504 -0.63271
O_ O_ 0.799493 0.656609 0.468226 -0.57982
O_ O_ 0.656817 0.640157 0.399176 -0.63271
O_ O_ 0.619357 0.57289 0.414784 -0.57982
F_ F_ 0.930404 0.816888 0.42777 -0.20885
F_ F_ 0.937946 0.826949 0.346347 -0.20885
F_ F_ 0.869386 0.797787 0.37393 -0.20885
F_ F_ 0.806072 0.934803 0.3369 -0.20885
F_ F_ 0.824254 0.858255 0.306857 -0.20885
F_ F_ 0.879589 0.915524 0.302322 -0.20885
F_ F_ 0.573184 0.671011 0.0594969 -0.20885
F_ F_ 0.581474 0.688219 0.145064 -0.20885
F_ F_ 0.643997 0.697555 0.099008 -0.20885
F_ F_ 0.678706 0.562147 0.177316 -0.20885
F_ F_ 0.685748 0.643524 0.176916 -0.20885
F_ F_ 0.617085 0.616196 0.199685 -0.20885
Zn Zn 0.59751 0.582486 0.842301 0.83971
Zn Zn 0.666747 0.846326 0.585616 0.83971
Zn Zn 0.907796 0.917844 0.658564 0.83971
Zn Zn 0.846658 0.648627 0.916088 0.83971
H_ H_ 0.677357 0.629822 0.800422 0.10394
H_ H_ 0.759027 0.594505 0.772937 0.10394
H_ H_ 0.71715 0.950958 0.806212 0.10394
H_ H_ 0.633327 0.483213 0.806326 0.10394
H_ H_ 0.0284015 0.598893 0.74362 0.10394
H_ H_ 0.987584 0.675274 0.701432 0.10394
H_ H_ 0.537746 0.767631 0.834429 0.10394
H_ H_ 0.582405 0.690222 0.877236 0.10394
H_ H_ 0.529277 0.952752 0.859017 0.10394
H_ H_ 0.983324 0.87761 0.896509 0.10394
H_ H_ 0.856475 0.983838 0.926406 0.10394
H_ H_ 0.583228 0.796954 0.643743 0.10394
H_ H_ 0.00980958 0.762858 0.602442 0.10394
H_ H_ 0.538342 0.788313 0.946971 0.10394
H_ H_ 0.613115 0.826679 0.489904 0.10394
H_ H_ 0.724589 0.746189 0.60271 0.10394
H_ H_ 0.748185 0.696077 0.680933 0.10394
H_ H_ 0.72837 0.838674 0.769347 0.10394
H_ H_ 0.693073 0.881356 0.690552 0.10394
H_ H_ 0.726938 0.830771 0.945564 0.10394
H_ H_ 0.778215 0.84589 0.883168 0.10394
H_ H_ 0.896202 0.889518 0.995919 0.10394
H_ H_ 0.801833 0.908906 0.659848 0.10394
H_ H_ 0.731148 0.961183 0.693403 0.10394
H_ H_ 0.843721 0.537789 0.790911 0.10394
H_ H_ 0.907158 0.989936 0.754437 0.10394
H_ H_ 0.514259 0.884274 0.708498 0.10394
H_ H_ 0.551776 0.813851 0.756657 0.10394
H_ H_ 0.910442 0.756023 0.735539 0.10394
H_ H_ 0.869791 0.826545 0.695353 0.10394
H_ H_ 0.967863 0.557297 0.622961 0.10394
H_ H_ 0.517412 0.619917 0.610784 0.10394
H_ H_ 0.645907 0.508271 0.603124 0.10394
H_ H_ 0.952228 0.64832 0.905666 0.10394
H_ H_ 0.512551 0.704611 0.933374 0.10394
H_ H_ 0.917379 0.780979 0.55201 0.10394
H_ H_ 0.846036 0.737492 0.98573 0.10394
H_ H_ 0.744554 0.703196 0.895587 0.10394
H_ H_ 0.698265 0.741504 0.822175 0.10394
H_ H_ 0.838829 0.737158 0.756125 0.10394
H_ H_ 0.879711 0.682622 0.828031 0.10394
H_ H_ 0.793916 0.617545 0.555942 0.10394
H_ H_ 0.740514 0.601992 0.621084 0.10394
H_ H_ 0.605545 0.595067 0.510684 0.10394
C_ C_ 0.687038 0.590161 0.801825 0.18167
C_ C_ 0.73228 0.571475 0.783791 -0.15533
C_ C_ 0.742966 0.519752 0.774353 0.02923
C_ C_ 0.707037 0.992171 0.80741 -0.15533
C_ C_ 0.662428 0.504715 0.802385 0.18167
C_ C_ 0.533722 0.633838 0.766595 0.18167
C_ C_ 0.00690495 0.677585 0.740089 -0.15533
C_ C_ 0.512225 0.72479 0.764178 0.02923
C_ C_ 0.537774 0.729637 0.815625 -0.15533
C_ C_ 0.566053 0.686935 0.837276 0.18167
C_ C_ 0.516105 0.54624 0.867514 0.69207
C_ C_ 0.976242 0.00568675 0.896704 0.02923
C_ C_ -0.004921999999999982 0.954182 0.893612 -0.15533
C_ C_ 0.964775 0.914965 0.897985 -0.15533
C_ C_ 0.91284 0.923761 0.907641 0.02923
C_ C_ 0.89539 0.975811 0.915518 -0.15533
C_ C_ 0.922272 0.0166309 0.903894 0.02923
C_ C_ 0.903987 0.566109 0.882223 0.69207
C_ C_ 0.900117 0.82862 0.875272 0.69661
C_ C_ 0.575603 0.795078 0.601077 0.18167
C_ C_ 0.53043 0.774362 0.583379 -0.15533
C_ C_ 0.516725 0.768882 0.52993 0.02923
C_ C_ 0.549594 0.785201 0.988186 -0.15533
C_ C_ 0.592798 0.809562 0.515755 0.18167
C_ C_ 0.722795 0.765695 0.640423 0.18167
C_ C_ 0.740391 0.739634 0.684981 -0.15533
C_ C_ 0.736174 0.763648 0.73273 0.02923
C_ C_ 0.722148 0.816268 0.733731 -0.15533
C_ C_ 0.705371 0.841804 0.689902 0.18167
C_ C_ 0.744515 0.867687 0.54891 0.69207
C_ C_ 0.779994 0.85605 1.00941287 0.02923
C_ C_ 0.764456 0.843286 0.958465 -0.15533
C_ C_ 0.794556 0.854326 0.92012 -0.15533
C_ C_ 0.84116 0.877525 0.931736 0.02923
C_ C_ 0.860036 0.880583 0.983915 -0.15533
C_ C_ 0.830557 0.86875 0.0225485 0.02923
C_ C_ 0.853859 0.883839 0.575818 0.69207
C_ C_ 0.846721 0.901039 0.839909 0.69661
C_ C_ 0.810301 0.939173 0.685497 0.18167
C_ C_ 0.768829 0.96296 0.712464 -0.15533
C_ C_ 0.778354 0.000180000000000069 0.752861 0.02923
C_ C_ 0.835729 0.512161 0.75805 -0.15533
C_ C_ 0.868374 0.987663 0.738864 0.18167
C_ C_ 0.991081 0.861095 0.711978 0.18167
C_ C_ 0.514487 0.812291 0.734431 -0.15533
C_ C_ 0.989383 0.774302 0.736953 0.02923
C_ C_ 0.936356 0.780546 0.724068 -0.15533
C_ C_ 0.911296 0.824736 0.702173 0.18167
C_ C_ 0.986263 0.954371 0.629898 0.69207
C_ C_ 0.521815 0.491899 0.614442 0.02923
C_ C_ 0.500671 0.541438 0.610765 -0.15533
C_ C_ 0.533861 0.579512 0.604524 -0.15533
C_ C_ 0.587947 0.568958 0.603492 0.02923
C_ C_ 0.606041 0.516851 0.602611 -0.15533
C_ C_ 0.573528 0.47869 0.608721 0.02923
C_ C_ 0.59974 0.925995 0.603489 0.69207
C_ C_ 0.602115 0.663371 0.60786 0.69661
C_ C_ 0.946505 0.675686 0.935656 0.18167
C_ C_ 0.986191 0.705951 0.955774 -0.15533
C_ C_ 0.975027 0.744857 0.993557 0.02923
C_ C_ 0.925012 0.755185 0.52259 -0.15533
C_ C_ 0.88597 0.729372 0.979916 0.18167
C_ C_ 0.763068 0.704798 0.862893 0.18167
C_ C_ 0.736866 0.729599 0.819323 -0.15533
C_ C_ 0.764244 0.741035 0.778967 0.02923
C_ C_ 0.815104 0.723961 0.78145 -0.15533
C_ C_ 0.838557 0.695561 0.823687 0.18167
C_ C_ 0.770161 0.616124 0.951618 0.69207
C_ C_ 0.731339 0.611557 0.496093 0.02923
C_ C_ 0.752703 0.613089 0.547961 -0.15533
C_ C_ 0.71927 0.612402 0.587325 -0.15533
C_ C_ 0.666529 0.603186 0.575154 0.02923
C_ C_ 0.648392 0.596364 0.521522 -0.15533
C_ C_ 0.678636 0.603384 0.482306 0.02923
C_ C_ 0.659256 0.604964 0.919574 0.69207
C_ C_ 0.651514 0.6039 0.668762 0.69661
C_ C_ 0.875593 0.883151 0.890339 -0.30787
C_ C_ 0.628397 0.608623 0.613776 -0.30787
N_ N_ 0.650878 0.558029 0.806319 -0.32189
N_ N_ 0.560387 0.639271 0.814673 -0.32189
N_ N_ 0.605537 0.812524 0.568631 -0.32189
N_ N_ 0.704189 0.815772 0.644441 -0.32189
N_ N_ 0.858673 0.949677 0.701477 -0.32189
N_ N_ 0.940143 0.862683 0.693325 -0.32189
N_ N_ 0.898502 0.689855 0.944754 -0.32189
N_ N_ 0.8106 0.683027 0.860234 -0.32189
O_ O_ 1.0108719 0.578433 0.888186 -0.63271
O_ O_ 0.552651 0.535718 0.840077 -0.57982
O_ O_ 0.897613 0.592412 0.841198 -0.63271
O_ O_ 0.881965 0.586852 0.922759 -0.57982
O_ O_ 0.736911 0.900458 0.586001 -0.63271
O_ O_ 0.710103 0.834333 0.538475 -0.57982
O_ O_ 0.853391 0.844024 0.601604 -0.63271
O_ O_ 0.876683 0.923771 0.594981 -0.57982
O_ O_ 0.493576 0.910937 0.603509 -0.63271
O_ O_ 0.952795 0.966926 0.66507 -0.57982
O_ O_ 0.602728 0.899562 0.645011 -0.63271
O_ O_ 0.634765 0.910949 0.572687 -0.57982
O_ O_ 0.775211 0.585248 0.909602 -0.63271
O_ O_ 0.801121 0.652146 0.960925 -0.57982
O_ O_ 0.665817 0.643135 0.891657 -0.63271
O_ O_ 0.623029 0.577375 0.903577 -0.57982
F_ F_ 0.934666 0.813581 0.913912 -0.20885
F_ F_ 0.924106 0.823555 0.829512 -0.20885
F_ F_ 0.867666 0.791643 0.868335 -0.20885
F_ F_ 0.811032 0.940741 0.848771 -0.20885
F_ F_ 0.81765 0.862784 0.815266 -0.20885
F_ F_ 0.880242 0.910697 0.807801 -0.20885
F_ F_ 0.573898 0.670769 0.560354 -0.20885
F_ F_ 0.569139 0.679576 0.643613 -0.20885
F_ F_ 0.638043 0.698363 0.611874 -0.20885
F_ F_ 0.680494 0.55727 0.67412 -0.20885
F_ F_ 0.679526 0.64168 0.688075 -0.20885
F_ F_ 0.615657 0.6037 0.70349 -0.20885
