_cell_length_a 26.508
_cell_length_b 26.37200000322088
_cell_length_c 26.311999743092066
_cell_angle_alpha 93.74100058972084
_cell_angle_beta 96.04100104955006
_cell_angle_gamma 83.6869992558723
_symmetry_space_group_name_H-M         'P 1'
_symmetry_Int_Tables_number            1
loop_
_symmetry_equiv_pos_as_xyz
   'x, y, z'
                         
loop_
_atom_site_label
_atom_site_type_symbol
_atom_site_fract_x 
_atom_site_fract_y
_atom_site_fract_z
_atom_site_charge
Zn Zn 0.0865538 0.0797597 0.343899 0.83971
Zn Zn 0.156151 0.342396 0.0861395 0.83971
Zn Zn 0.408436 0.422169 0.160815 0.83971
Zn Zn 0.34006 0.153449 0.41923 0.83971
H_ H_ 0.169184 0.131807 0.311104 0.10394
H_ H_ 0.246301 0.0996842 0.270472 0.10394
H_ H_ 0.199144 0.449289 0.28048 0.10394
H_ H_ 0.136332 0.979782 0.331156 0.10394
H_ H_ 0.533454 0.0942973 0.253173 0.10394
H_ H_ 0.494336 0.168071 0.199805 0.10394
H_ H_ 0.0230746 0.263088 0.345808 0.10394
H_ H_ 0.0665429 0.177886 0.380343 0.10394
H_ H_ 0.0346626 0.444177 0.383868 0.10394
H_ H_ 0.477434 0.375398 0.387598 0.10394
H_ H_ 0.347972 0.487095 0.403265 0.10394
H_ H_ 0.072876 0.307771 0.13797 0.10394
H_ H_ 0.478197 0.292934 0.0988569 0.10394
H_ H_ 0.0308915 0.314886 0.461223 0.10394
H_ H_ 0.112192 0.330768 0.990095 0.10394
H_ H_ 0.214957 0.242093 0.100508 0.10394
H_ H_ 0.259368 0.201978 0.177509 0.10394
H_ H_ 0.22883 0.342313 0.26786 0.10394
H_ H_ 0.182128 0.38309 0.1918 0.10394
H_ H_ 0.212483 0.380075 0.46118 0.10394
H_ H_ 0.2633 0.37821 0.391883 0.10394
H_ H_ 0.39445 0.40018 0.498841 0.10394
H_ H_ 0.311678 0.398762 0.168754 0.10394
H_ H_ 0.233939 0.450235 0.192867 0.10394
H_ H_ 0.338853 0.0535243 0.281438 0.10394
H_ H_ 0.399764 0.510037 0.242554 0.10394
H_ H_ 0.00530983 0.392455 0.222124 0.10394
H_ H_ 0.0394569 0.316938 0.276742 0.10394
H_ H_ 0.419801 0.240878 0.204986 0.10394
H_ H_ 0.376377 0.322447 0.179961 0.10394
H_ H_ 0.468343 0.0480075 0.0958756 0.10394
H_ H_ 0.0166144 0.1163 0.105922 0.10394
H_ H_ 0.148266 0.00141521 0.109839 0.10394
H_ H_ 0.447427 0.154192 0.415939 0.10394
H_ H_ 0.0223148 0.206144 0.454055 0.10394
H_ H_ 0.401164 0.297926 0.0232036 0.10394
H_ H_ 0.341191 0.231902 0.510008 0.10394
H_ H_ 0.236348 0.185283 0.375406 0.10394
H_ H_ 0.196396 0.231053 0.299019 0.10394
H_ H_ 0.346976 0.24728 0.261747 0.10394
H_ H_ 0.38651 0.194103 0.337206 0.10394
H_ H_ 0.281407 0.121455 0.0488524 0.10394
H_ H_ 0.231124 0.0960313 0.117005 0.10394
H_ H_ 0.105463 0.0775056 0.00759888 0.10394
C_ C_ 0.179878 0.090852 0.303564 0.18167
C_ C_ 0.226305 0.0735628 0.286169 -0.15533
C_ C_ 0.242021 0.0206077 0.28349 0.02923
C_ C_ 0.196261 0.49185 0.291191 -0.15533
C_ C_ 0.161071 0.00516164 0.31646 0.18167
C_ C_ 0.0252432 0.135293 0.262788 0.18167
C_ C_ 0.514183 0.174337 0.238417 -0.15533
C_ C_ 0.00420071 0.227294 0.270892 0.02923
C_ C_ 0.0282951 0.228602 0.321966 -0.15533
C_ C_ 0.049345 0.180084 0.341908 0.18167
C_ C_ 0.0108521 0.0386319 0.376194 0.69207
C_ C_ 0.472514 0.500459 0.379107 0.02923
C_ C_ 0.491542 0.446979 0.374349 -0.15533
C_ C_ 0.458321 0.410677 0.379687 -0.15533
C_ C_ 0.408241 0.424797 0.393975 0.02923
C_ C_ 0.388238 0.476957 0.3918 -0.15533
C_ C_ 0.423098 0.514265 0.390424 0.02923
C_ C_ 0.402466 0.0716713 0.388586 0.69207
C_ C_ 0.391909 0.330605 0.39357 0.69661
C_ C_ 0.065061 0.298194 0.0965495 0.18167
C_ C_ 0.0211904 0.27848 0.0764508 -0.15533
C_ C_ 0.0127886 0.269469 0.0227664 0.02923
C_ C_ 0.0455429 0.302663 0.49781 -0.15533
C_ C_ 0.0874061 0.311968 0.0129189 0.18167
C_ C_ 0.221021 0.264448 0.137828 0.18167
C_ C_ 0.244524 0.242126 0.180956 -0.15533
C_ C_ 0.248864 0.270281 0.227953 0.02923
C_ C_ 0.225656 0.320587 0.233068 -0.15533
C_ C_ 0.198585 0.342839 0.189774 0.18167
C_ C_ 0.239239 0.366071 0.0467792 0.69207
C_ C_ 0.274313 0.388638 0.51881 0.02923
C_ C_ 0.253347 0.382432 0.468891 -0.15533
C_ C_ 0.281209 0.391125 0.429636 -0.15533
C_ C_ 0.33555 0.396 0.436874 0.02923
C_ C_ 0.355466 0.402034 0.489262 -0.15533
C_ C_ 0.327442 0.393478 0.528766 0.02923
C_ C_ 0.349305 0.386937 0.0728223 0.69207
C_ C_ 0.340446 0.389999 0.338968 0.69661
C_ C_ 0.314423 0.434632 0.189865 0.18167
C_ C_ 0.271539 0.459661 0.210142 -0.15533
C_ C_ 0.277373 0.497519 0.250014 0.02923
C_ C_ 0.333628 0.0190159 0.257631 -0.15533
C_ C_ 0.363541 0.498034 0.22935 0.18167
C_ C_ 0.490744 0.360889 0.217882 0.18167
C_ C_ 0.00589796 0.317668 0.251222 -0.15533
C_ C_ 0.491041 0.27004 0.235624 0.02923
C_ C_ 0.439688 0.273255 0.212214 -0.15533
C_ C_ 0.415744 0.320564 0.194753 0.18167
C_ C_ 0.486124 0.464287 0.129593 0.69207
C_ C_ 0.0216038 0.986898 0.115214 0.02923
C_ C_ 0.00450883 0.0406745 0.121493 -0.15533
C_ C_ 0.0341031 0.0768671 0.106213 -0.15533
C_ C_ 0.0880039 0.0656277 0.103539 0.02923
C_ C_ 0.107176 0.0136722 0.104911 -0.15533
C_ C_ 0.0738723 0.97505 0.105837 0.02923
C_ C_ 0.0975501 0.421609 0.112323 0.69207
C_ C_ 0.099585 0.158136 0.101917 0.69661
C_ C_ 0.439394 0.180655 0.447273 0.18167
C_ C_ 0.478209 0.201729 0.477737 -0.15533
C_ C_ 0.466904 0.243586 0.510847 0.02923
C_ C_ 0.414769 0.262284 0.00599885 -0.15533
C_ C_ 0.379955 0.223769 0.50076 0.18167
C_ C_ 0.261191 0.199181 0.350909 0.18167
C_ C_ 0.239267 0.227317 0.309059 -0.15533
C_ C_ 0.269961 0.242525 0.273119 0.02923
C_ C_ 0.322572 0.233604 0.287935 -0.15533
C_ C_ 0.34392 0.200856 0.327309 0.18167
C_ C_ 0.25976 0.122575 0.453106 0.69207
C_ C_ 0.223487 0.108768 0.988439 0.02923
C_ C_ 0.242766 0.107422 0.038994 -0.15533
C_ C_ 0.213526 0.0989808 0.0786162 -0.15533
C_ C_ 0.161581 0.096357 0.0693144 0.02923
C_ C_ 0.142593 0.0850303 0.0181466 -0.15533
C_ C_ 0.172545 0.094143 0.977955 0.02923
C_ C_ 0.147303 0.11214 0.429337 0.69207
C_ C_ 0.149616 0.108936 0.166943 0.69661
C_ C_ 0.368906 0.38531 0.391836 -0.30787
C_ C_ 0.125124 0.104969 0.109805 -0.30787
N_ N_ 0.145914 0.056208 0.314475 -0.32189
N_ N_ 0.0499634 0.137202 0.312024 -0.32189
N_ N_ 0.100101 0.309117 0.0654424 -0.32189
N_ N_ 0.196323 0.313382 0.143754 -0.32189
N_ N_ 0.359356 0.453153 0.200497 -0.32189
N_ N_ 0.44208 0.361435 0.19447 -0.32189
N_ N_ 0.390842 0.190211 0.461083 -0.32189
N_ N_ 0.311745 0.185612 0.358614 -0.32189
O_ O_ 0.509921 0.0813979 0.398957 -0.63271
O_ O_ 0.0388222 0.0332404 0.33714 -0.57982
O_ O_ 0.409223 0.102112 0.35519 -0.63271
O_ O_ 0.369131 0.089741 0.420047 -0.57982
O_ O_ 0.243915 0.389113 0.0909159 -0.63271
O_ O_ 0.198747 0.342589 0.0330104 -0.57982
O_ O_ 0.349348 0.34289 0.0951608 -0.63271
O_ O_ 0.38541 0.417868 0.0904876 -0.57982
O_ O_ 0.99061 0.403408 0.104532 -0.63271
O_ O_ 0.450161 0.475416 0.160142 -0.57982
O_ O_ 0.0931885 0.395808 0.151446 -0.63271
O_ O_ 0.131375 0.403948 0.0793731 -0.57982
O_ O_ 0.252469 0.105228 0.404596 -0.63271
O_ O_ 0.298549 0.149994 0.464363 -0.57982
O_ O_ 0.151344 0.152407 0.400069 -0.63271
O_ O_ 0.115837 0.0804029 0.408926 -0.57982
F_ F_ 0.431464 0.319482 0.432775 -0.20885
F_ F_ 0.409161 0.314436 0.345722 -0.20885
F_ F_ 0.356144 0.298348 0.401439 -0.20885
F_ F_ 0.306252 0.431623 0.332893 -0.20885
F_ F_ 0.31379 0.349161 0.323472 -0.20885
F_ F_ 0.373154 0.392244 0.300709 -0.20885
F_ F_ 0.0725361 0.164378 0.0560901 -0.20885
F_ F_ 0.0644179 0.17853 0.135844 -0.20885
F_ F_ 0.131399 0.19613 0.103031 -0.20885
F_ F_ 0.179297 0.0633785 0.178257 -0.20885
F_ F_ 0.183055 0.147113 0.176381 -0.20885
F_ F_ 0.113952 0.121565 0.201658 -0.20885
Zn Zn 0.093166 0.0758484 0.843238 0.83971
Zn Zn 0.162784 0.347773 0.592685 0.83971
Zn Zn 0.404767 0.422119 0.662985 0.83971
Zn Zn 0.338536 0.151949 0.916474 0.83971
H_ H_ 0.167934 0.124817 0.800052 0.10394
H_ H_ 0.252527 0.0906122 0.767826 0.10394
H_ H_ 0.206059 0.444894 0.796135 0.10394
H_ H_ 0.139276 0.971366 0.816541 0.10394
H_ H_ 0.55626 0.110418 0.744364 0.10394
H_ H_ 0.509282 0.182419 0.703381 0.10394
H_ H_ 0.0292091 0.255361 0.829418 0.10394
H_ H_ 0.0705885 0.180196 0.877222 0.10394
H_ H_ 0.0268382 0.441302 0.872469 0.10394
H_ H_ 0.484884 0.387638 0.888223 0.10394
H_ H_ 0.349219 0.494972 0.89551 0.10394
H_ H_ 0.0851165 0.296121 0.641668 0.10394
H_ H_ 0.493749 0.297006 0.603346 0.10394
H_ H_ 0.0342725 0.286492 0.947471 0.10394
H_ H_ 0.11928 0.331773 0.497032 0.10394
H_ H_ 0.234805 0.261038 0.597073 0.10394
H_ H_ 0.269021 0.205072 0.667944 0.10394
H_ H_ 0.216512 0.322812 0.7756 0.10394
H_ H_ 0.180929 0.374397 0.704404 0.10394
H_ H_ 0.219084 0.360595 0.946552 0.10394
H_ H_ 0.26545 0.383824 0.881854 0.10394
H_ H_ 0.392817 0.414459 0.995515 0.10394
H_ H_ 0.304562 0.389878 0.677799 0.10394
H_ H_ 0.227961 0.44314 0.703851 0.10394
H_ H_ 0.339393 0.0432366 0.768813 0.10394
H_ H_ 0.394745 0.510232 0.733439 0.10394
H_ H_ 0.00308405 0.38058 0.706783 0.10394
H_ H_ 0.0500858 0.306938 0.748411 0.10394
H_ H_ 0.421335 0.240273 0.721464 0.10394
H_ H_ 0.371236 0.31946 0.69049 0.10394
H_ H_ 0.471239 0.0598624 0.615357 0.10394
H_ H_ 0.0246153 0.120632 0.612947 0.10394
H_ H_ 0.140263 -0.00064148 0.586077 0.10394
H_ H_ 0.445172 0.131113 0.945482 0.10394
H_ H_ 0.0192737 0.196897 0.948159 0.10394
H_ H_ 0.404946 0.285188 0.545053 0.10394
H_ H_ 0.334155 0.249662 -0.012959000000000054 0.10394
H_ H_ 0.233627 0.176071 0.875086 0.10394
H_ H_ 0.19633 0.211888 0.793472 0.10394
H_ H_ 0.347643 0.238572 0.762633 0.10394
H_ H_ 0.380983 0.194956 0.836259 0.10394
H_ H_ 0.288368 0.115033 0.556761 0.10394
H_ H_ 0.236131 0.0980483 0.622109 0.10394
H_ H_ 0.104601 0.0964788 0.51515 0.10394
C_ C_ 0.180257 0.0822318 0.797821 0.18167
C_ C_ 0.227204 0.0658064 0.780847 -0.15533
C_ C_ 0.238976 0.011921 0.766548 0.02923
C_ C_ 0.198363 0.485956 0.797816 -0.15533
C_ C_ 0.16199 -0.0034089999999999954 0.799722 0.18167
C_ C_ 0.0320594 0.125972 0.76254 0.18167
C_ C_ 0.521843 0.185766 0.743881 -0.15533
C_ C_ 0.0110377 0.216231 0.760931 0.02923
C_ C_ 0.0263917 0.219746 0.813364 -0.15533
C_ C_ 0.052831 0.178899 0.837683 0.18167
C_ C_ 0.0132396 0.0361171 0.865486 0.69207
C_ C_ 0.472255 0.518909 0.88878 0.02923
C_ C_ 0.495298 0.467404 0.890664 -0.15533
C_ C_ 0.465274 0.425699 0.892777 -0.15533
C_ C_ 0.412053 0.436329 0.897125 0.02923
C_ C_ 0.391248 0.487439 0.895363 -0.15533
C_ C_ 0.420628 0.529384 0.893292 0.02923
C_ C_ 0.394681 0.0759775 0.875959 0.69207
C_ C_ 0.40455 0.336511 0.898355 0.69661
C_ C_ 0.0741361 0.29582 0.600621 0.18167
C_ C_ 0.0278583 0.27568 0.579599 -0.15533
C_ C_ 0.0135685 0.27952 0.527378 0.02923
C_ C_ 0.0436244 0.291214 0.990798 -0.15533
C_ C_ 0.0938744 0.31503 0.518718 0.18167
C_ C_ 0.229295 0.270114 0.636036 0.18167
C_ C_ 0.251032 0.241206 0.676118 -0.15533
C_ C_ 0.245813 0.259731 0.726851 0.02923
C_ C_ 0.221513 0.308622 0.73647 -0.15533
C_ C_ 0.198204 0.335468 0.696063 0.18167
C_ C_ 0.240416 0.379464 0.559955 0.69207
C_ C_ 0.272812 0.379059 0.00827712 0.02923
C_ C_ 0.255197 0.374436 0.957964 -0.15533
C_ C_ 0.286636 0.382611 0.919954 -0.15533
C_ C_ 0.335742 0.398894 0.930296 0.02923
C_ C_ 0.354327 0.403929 0.98231 -0.15533
C_ C_ 0.323912 0.39199 0.0210049 0.02923
C_ C_ 0.351125 0.394144 0.581767 0.69207
C_ C_ 0.354599 0.391102 0.833385 0.69661
C_ C_ 0.30936 0.425309 0.702163 0.18167
C_ C_ 0.26459 0.454378 0.717022 -0.15533
C_ C_ 0.272187 0.497965 0.750051 0.02923
C_ C_ 0.329555 0.0137186 0.743057 -0.15533
C_ C_ 0.358239 0.493442 0.729267 0.18167
C_ C_ 0.486437 0.361768 0.721316 0.18167
C_ C_ 0.00817679 0.306971 0.734558 -0.15533
C_ C_ 0.486006 0.277944 0.750063 0.02923
C_ C_ 0.438167 0.276026 0.725514 -0.15533
C_ C_ 0.412234 0.320855 0.70432 0.18167
C_ C_ 0.479799 0.459168 0.630958 0.69207
C_ C_ 0.0179633 0.991689 0.602127 0.02923
C_ C_ 0.00212503 0.0446635 0.60795 -0.15533
C_ C_ 0.0359329 0.0794176 0.608848 -0.15533
C_ C_ 0.0884362 0.0652713 0.601443 0.02923
C_ C_ 0.102107 0.0139142 0.594596 -0.15533
C_ C_ 0.0698593 0.978224 0.600195 0.02923
C_ C_ 0.0950016 0.422032 0.617573 0.69207
C_ C_ 0.111588 0.162924 0.617308 0.69661
C_ C_ 0.435971 0.170255 0.955837 0.18167
C_ C_ 0.47525 0.194226 0.982896 -0.15533
C_ C_ 0.46635 0.243796 1.00553325 0.02923
C_ C_ 0.41772 0.253145 0.527253 -0.15533
C_ C_ 0.37583 0.23794 0.977719 0.18167
C_ C_ 0.256868 0.187899 0.846966 0.18167
C_ C_ 0.236717 0.210524 0.802891 -0.15533
C_ C_ 0.268524 0.231296 0.771531 0.02923
C_ C_ 0.321253 0.227052 0.787192 -0.15533
C_ C_ 0.340572 0.202776 0.828184 0.18167
C_ C_ 0.256198 0.119458 0.948936 0.69207
C_ C_ 0.22983 0.110679 0.492232 0.02923
C_ C_ 0.250923 0.10639 0.543196 -0.15533
C_ C_ 0.217584 0.101308 0.581626 -0.15533
C_ C_ 0.16668 0.0999737 0.570325 0.02923
C_ C_ 0.145857 0.100261 0.520839 -0.15533
C_ C_ 0.176145 0.106961 0.480377 0.02923
C_ C_ 0.147699 0.100226 0.926782 0.69207
C_ C_ 0.151596 0.0914948 0.668873 0.69661
C_ C_ 0.37525 0.392561 0.891087 -0.30787
C_ C_ 0.129664 0.104204 0.61262 -0.30787
N_ N_ 0.14741 0.04866 0.804989 -0.32189
N_ N_ 0.0546837 0.132128 0.810722 -0.32189
N_ N_ 0.107302 0.308743 0.568362 -0.32189
N_ N_ 0.201864 0.315965 0.646518 -0.32189
N_ N_ 0.35282 0.44933 0.702404 -0.32189
N_ N_ 0.437959 0.361103 0.697527 -0.32189
N_ N_ 0.386569 0.189597 0.954504 -0.32189
N_ N_ 0.309868 0.179117 0.855102 -0.32189
O_ O_ 0.504556 0.0927312 0.887612 -0.63271
O_ O_ 0.0500973 0.0261566 0.836304 -0.57982
O_ O_ 0.390346 0.101601 0.834601 -0.63271
O_ O_ 0.363341 0.0877436 0.911519 -0.57982
O_ O_ 0.242899 0.404596 0.604792 -0.63271
O_ O_ 0.207642 0.347005 0.549249 -0.57982
O_ O_ 0.367656 0.350891 0.60172 -0.63271
O_ O_ 0.365601 0.435341 0.603966 -0.57982
O_ O_ 0.987726 0.404077 0.603973 -0.63271
O_ O_ 0.442333 0.472525 0.659973 -0.57982
O_ O_ 0.0911716 0.395664 0.657048 -0.63271
O_ O_ 0.132396 0.409825 0.588817 -0.57982
O_ O_ 0.263037 0.0857252 0.910515 -0.63271
O_ O_ 0.285599 0.155414 0.956468 -0.57982
O_ O_ 0.152293 0.138554 0.900459 -0.63271
O_ O_ 0.121931 0.063735 0.904461 -0.57982
F_ F_ 0.441722 0.333045 0.939878 -0.20885
F_ F_ 0.433745 0.319389 0.857738 -0.20885
F_ F_ 0.371579 0.298528 0.90008 -0.20885
F_ F_ 0.317981 0.431438 0.826153 -0.20885
F_ F_ 0.331348 0.347351 0.814849 -0.20885
F_ F_ 0.391465 0.388657 0.802084 -0.20885
F_ F_ 0.0810637 0.181311 0.573213 -0.20885
F_ F_ 0.0829032 0.173641 0.659489 -0.20885
F_ F_ 0.148791 0.196733 0.624248 -0.20885
F_ F_ 0.177977 0.0454888 0.674245 -0.20885
F_ F_ 0.186013 0.125095 0.691381 -0.20885
F_ F_ 0.111953 0.0929664 0.700044 -0.20885
Zn Zn 0.0913183 0.584776 0.352846 0.83971
Zn Zn 0.168403 0.845958 0.0814842 0.83971
Zn Zn 0.416892 0.921559 0.155247 0.83971
Zn Zn 0.338544 0.648357 0.418765 0.83971
H_ H_ 0.168488 0.635852 0.308013 0.10394
H_ H_ 0.24958 0.600611 0.276555 0.10394
H_ H_ 0.221945 0.948273 0.304574 0.10394
H_ H_ 0.125129 0.488399 0.319483 0.10394
H_ H_ 0.530456 0.598795 0.246512 0.10394
H_ H_ 0.488518 0.668919 0.201393 0.10394
H_ H_ 0.0352087 0.771364 0.336959 0.10394
H_ H_ 0.0769123 0.693877 0.38956 0.10394
H_ H_ 0.0330003 0.937973 0.38258 0.10394
H_ H_ 0.478503 0.873934 0.358238 0.10394
H_ H_ 0.360154 0.983781 0.410767 0.10394
H_ H_ 0.0909702 0.790577 0.126635 0.10394
H_ H_ 0.505455 0.767257 0.0959467 0.10394
H_ H_ 0.0413588 0.785376 0.443651 0.10394
H_ H_ 0.11772 0.831959 0.977531 0.10394
H_ H_ 0.208479 0.741745 0.0955621 0.10394
H_ H_ 0.252697 0.696775 0.166055 0.10394
H_ H_ 0.215277 0.823622 0.268636 0.10394
H_ H_ 0.180329 0.871784 0.191734 0.10394
H_ H_ 0.217063 0.872614 0.430221 0.10394
H_ H_ 0.279941 0.86385 0.366661 0.10394
H_ H_ 0.393131 0.911885 0.4866 0.10394
H_ H_ 0.322449 0.89856 0.171565 0.10394
H_ H_ 0.245307 0.942757 0.210364 0.10394
H_ H_ 0.331776 0.547611 0.287245 0.10394
H_ H_ 0.405921 0.0184819 0.234196 0.10394
H_ H_ -0.000234657 0.887561 0.218062 0.10394
H_ H_ 0.0358092 0.81915 0.268607 0.10394
H_ H_ 0.417597 0.752048 0.227297 0.10394
H_ H_ 0.379643 0.826035 0.174465 0.10394
H_ H_ 0.465922 0.565192 0.130219 0.10394
H_ H_ 0.0148341 0.612616 0.110922 0.10394
H_ H_ 0.139489 0.500338 0.07813 0.10394
H_ H_ 0.437772 0.663728 0.387609 0.10394
H_ H_ 0.0190089 0.683689 0.446116 0.10394
H_ H_ 0.419792 0.771673 0.0508736 0.10394
H_ H_ 0.345489 0.726293 0.499851 0.10394
H_ H_ 0.230938 0.681979 0.381578 0.10394
H_ H_ 0.19009 0.715047 0.298318 0.10394
H_ H_ 0.338406 0.739013 0.260094 0.10394
H_ H_ 0.375995 0.683558 0.326675 0.10394
H_ H_ 0.281767 0.620799 0.0520627 0.10394
H_ H_ 0.230328 0.598292 0.120105 0.10394
H_ H_ 0.102151 0.591162 0.00757644 0.10394
C_ C_ 0.177419 0.59624 0.305981 0.18167
C_ C_ 0.22336 0.574975 0.287259 -0.15533
C_ C_ 0.233445 0.521755 0.27885 0.02923
C_ C_ 0.207711 0.986978 0.299519 -0.15533
C_ C_ 0.152351 0.513403 0.30713 0.18167
C_ C_ 0.0312107 0.635427 0.280245 0.18167
C_ C_ 0.510705 0.676484 0.237407 -0.15533
C_ C_ 0.00330121 0.725133 0.275085 0.02923
C_ C_ 0.0319064 0.733685 0.323559 -0.15533
C_ C_ 0.0542839 0.691007 0.351357 0.18167
C_ C_ 0.0103841 0.545708 0.380251 0.69207
C_ C_ 0.473732 0.0051997 0.36502 0.02923
C_ C_ 0.491935 0.954138 0.354869 -0.15533
C_ C_ 0.46152 0.913644 0.36363 -0.15533
C_ C_ 0.415222 0.923424 0.386187 0.02923
C_ C_ 0.398032 0.975758 0.396776 -0.15533
C_ C_ 0.426144 0.0158504 0.385116 0.02923
C_ C_ 0.399569 0.568391 0.390339 0.69207
C_ C_ 0.402835 0.826117 0.38369 0.69661
C_ C_ 0.0805429 0.795102 0.0869688 0.18167
C_ C_ 0.0336567 0.775939 0.0689366 -0.15533
C_ C_ 0.0246463 0.767359 0.0159366 0.02923
C_ C_ 0.0489881 0.786358 0.485553 -0.15533
C_ C_ 0.0987345 0.811121 0.0029808 0.18167
C_ C_ 0.216107 0.76224 0.133281 0.18167
C_ C_ 0.238087 0.734003 0.173545 -0.15533
C_ C_ 0.236455 0.75276 0.223568 0.02923
C_ C_ 0.214204 0.804939 0.229705 -0.15533
C_ C_ 0.198331 0.833484 0.187726 0.18167
C_ C_ 0.256014 0.869973 0.0475083 0.69207
C_ C_ 0.272943 0.880532 0.495422 0.02923
C_ C_ 0.256543 0.87457 0.442446 -0.15533
C_ C_ 0.290692 0.875192 0.406646 -0.15533
C_ C_ 0.340503 0.88616 0.419479 0.02923
C_ C_ 0.353831 0.90167 0.471833 -0.15533
C_ C_ 0.324815 0.889859 0.510133 0.02923
C_ C_ 0.368067 0.889513 0.0643281 0.69207
C_ C_ 0.353973 0.884544 0.323508 0.69661
C_ C_ 0.323386 0.932177 0.193543 0.18167
C_ C_ 0.280415 0.955877 0.218057 -0.15533
C_ C_ 0.285593 0.99914 0.251397 0.02923
C_ C_ 0.324633 0.518498 0.257118 -0.15533
C_ C_ 0.373453 0.999932 0.228834 0.18167
C_ C_ 0.498134 0.857082 0.20082 0.18167
C_ C_ 0.00288627 0.813469 0.244056 -0.15533
C_ C_ 0.494706 0.770832 0.229764 0.02923
C_ C_ 0.440567 0.778519 0.214542 -0.15533
C_ C_ 0.419498 0.82208 0.190819 0.18167
C_ C_ 0.499468 0.953317 0.123016 0.69207
C_ C_ 0.0223332 0.485258 0.117235 0.02923
C_ C_ 0.0016899999999999693 0.536197 0.109441 -0.15533
C_ C_ 0.0328146 0.573216 0.102676 -0.15533
C_ C_ 0.0834781 0.562852 0.0971741 0.02923
C_ C_ 0.0998409 0.511319 0.0894258 -0.15533
C_ C_ 0.0707586 0.472688 0.103321 0.02923
C_ C_ 0.100342 0.920732 0.107426 0.69207
C_ C_ 0.100647 0.659337 0.107322 0.69661
C_ C_ 0.43721 0.68357 0.425446 0.18167
C_ C_ 0.477436 0.705984 0.450242 -0.15533
C_ C_ 0.470444 0.742317 0.490588 0.02923
C_ C_ 0.42533 0.745808 0.0166894 -0.15533
C_ C_ 0.383084 0.722447 0.484491 0.18167
C_ C_ 0.255615 0.687298 0.352515 0.18167
C_ C_ 0.230433 0.712163 0.306873 -0.15533
C_ C_ 0.260772 0.724888 0.268887 0.02923
C_ C_ 0.31385 0.714191 0.276799 -0.15533
C_ C_ 0.335692 0.690078 0.320816 0.18167
C_ C_ 0.2652 0.617078 0.458488 0.69207
C_ C_ 0.22039 0.619844 0.991193 0.02923
C_ C_ 0.240435 0.617955 0.0429677 -0.15533
C_ C_ 0.212821 0.604892 0.0820836 -0.15533
C_ C_ 0.160314 0.59685 0.068785 0.02923
C_ C_ 0.141342 0.598678 0.0176731 -0.15533
C_ C_ 0.171407 0.605312 0.979003 0.02923
C_ C_ 0.154531 0.602676 0.430611 0.69207
C_ C_ 0.143562 0.595277 0.165467 0.69661
C_ C_ 0.378537 0.882 0.378252 -0.30787
C_ C_ 0.121444 0.601753 0.106849 -0.30787
N_ N_ 0.143259 0.564283 0.313955 -0.32189
N_ N_ 0.0539293 0.644004 0.328336 -0.32189
N_ N_ 0.112805 0.810245 0.0536693 -0.32189
N_ N_ 0.199519 0.811561 0.140125 -0.32189
N_ N_ 0.366521 0.956453 0.193685 -0.32189
N_ N_ 0.447613 0.85895 0.182577 -0.32189
N_ N_ 0.393066 0.68654 0.446286 -0.32189
N_ N_ 0.30627 0.679772 0.357215 -0.32189
O_ O_ 0.504926 0.585015 0.402619 -0.63271
O_ O_ 0.0457409 0.538134 0.348421 -0.57982
O_ O_ 0.391363 0.588356 0.345582 -0.63271
O_ O_ 0.369531 0.585329 0.423958 -0.57982
O_ O_ 0.258064 0.896827 0.090733 -0.63271
O_ O_ 0.216563 0.841818 0.0354002 -0.57982
O_ O_ 0.367188 0.848091 0.0875869 -0.63271
O_ O_ 0.381052 0.928837 0.0924033 -0.57982
O_ O_ 0.993443 0.900909 0.105588 -0.63271
O_ O_ 0.46507 0.967213 0.155431 -0.57982
O_ O_ 0.101908 0.893923 0.147089 -0.63271
O_ O_ 0.136962 0.910558 0.0805629 -0.57982
O_ O_ 0.264816 0.589639 0.415997 -0.63271
O_ O_ 0.294572 0.655216 0.465299 -0.57982
O_ O_ 0.160616 0.643269 0.407438 -0.63271
O_ O_ 0.115977 0.576288 0.415386 -0.57982
F_ F_ 0.438297 0.824277 0.424831 -0.20885
F_ F_ 0.427107 0.807574 0.342774 -0.20885
F_ F_ 0.370778 0.787532 0.390138 -0.20885
F_ F_ 0.323624 0.928446 0.320228 -0.20885
F_ F_ 0.326687 0.844341 0.304464 -0.20885
F_ F_ 0.387241 0.888062 0.286917 -0.20885
F_ F_ 0.0643229 0.668089 0.0661918 -0.20885
F_ F_ 0.0714286 0.674184 0.149159 -0.20885
F_ F_ 0.135596 0.693017 0.108439 -0.20885
F_ F_ 0.172172 0.548244 0.17035 -0.20885
F_ F_ 0.17315 0.632306 0.19038 -0.20885
F_ F_ 0.104148 0.590645 0.194683 -0.20885
Zn Zn 0.0809664 0.586064 0.843366 0.83971
Zn Zn 0.160316 0.843974 0.579765 0.83971
Zn Zn 0.411455 0.918084 0.642209 0.83971
Zn Zn 0.332473 0.662282 0.916411 0.83971
H_ H_ 0.16348 0.630483 0.813507 0.10394
H_ H_ 0.247897 0.595235 0.779209 0.10394
H_ H_ 0.21447 0.93465 0.772124 0.10394
H_ H_ 0.126235 0.482729 0.830158 0.10394
H_ H_ 0.5223 0.601623 0.752979 0.10394
H_ H_ 0.48368 0.674724 0.69642 0.10394
H_ H_ 0.0332907 0.772738 0.820513 0.10394
H_ H_ 0.0698568 0.699598 0.873782 0.10394
H_ H_ 0.0325468 0.930124 0.856439 0.10394
H_ H_ 0.473777 0.880442 0.848636 0.10394
H_ H_ 0.352352 0.992011 0.884358 0.10394
H_ H_ 0.0817113 0.80608 0.631019 0.10394
H_ H_ 0.504828 0.756253 0.589932 0.10394
H_ H_ 0.0422186 0.789864 0.945125 0.10394
H_ H_ 0.121495 0.813574 0.482271 0.10394
H_ H_ 0.227242 0.749506 0.594537 0.10394
H_ H_ 0.267022 0.710575 0.677545 0.10394
H_ H_ 0.228558 0.851919 0.756561 0.10394
H_ H_ 0.179691 0.885714 0.67547 0.10394
H_ H_ 0.224389 0.87587 0.948995 0.10394
H_ H_ 0.265665 0.883101 0.874963 0.10394
H_ H_ 0.401937 0.908044 0.975826 0.10394
H_ H_ 0.310533 0.898729 0.647044 0.10394
H_ H_ 0.235954 0.948327 0.677973 0.10394
H_ H_ 0.32649 0.549666 0.777338 0.10394
H_ H_ 0.406553 0.0006900000000000794 0.728395 0.10394
H_ H_ 0.00884065 0.884189 0.697755 0.10394
H_ H_ 0.050756 0.807162 0.73642 0.10394
H_ H_ 0.413912 0.754125 0.728663 0.10394
H_ H_ 0.367859 0.836022 0.693995 0.10394
H_ H_ 0.46219 0.561533 0.618798 0.10394
H_ H_ 0.0119203 0.615398 0.602483 0.10394
H_ H_ 0.145334 0.501115 0.613354 0.10394
H_ H_ 0.432688 0.673837 0.886754 0.10394
H_ H_ 0.0222951 0.689316 0.94461 0.10394
H_ H_ 0.417013 0.782787 0.535708 0.10394
H_ H_ 0.350456 0.723925 0.0127398 0.10394
H_ H_ 0.225944 0.709593 0.885797 0.10394
H_ H_ 0.190245 0.75097 0.807397 0.10394
H_ H_ 0.334061 0.733302 0.748657 0.10394
H_ H_ 0.370213 0.686186 0.825063 0.10394
H_ H_ 0.282582 0.628303 0.559599 0.10394
H_ H_ 0.22877 0.619386 0.625717 0.10394
H_ H_ 0.114026 0.575246 0.508962 0.10394
C_ C_ 0.174396 0.589961 0.8088 0.18167
C_ C_ 0.220132 0.569734 0.789032 -0.15533
C_ C_ 0.232381 0.518673 0.782852 0.02923
C_ C_ 0.206963 0.978062 0.779422 -0.15533
C_ C_ 0.150837 0.506773 0.81092 0.18167
C_ C_ 0.0199873 0.633344 0.769449 0.18167
C_ C_ 0.506168 0.681502 0.732183 -0.15533
C_ C_ 0.00184105 0.724361 0.759964 0.02923
C_ C_ 0.0293455 0.732222 0.80688 -0.15533
C_ C_ 0.0515086 0.69053 0.834058 0.18167
C_ C_ 0.00409881 0.543202 0.864671 0.69207
C_ C_ 0.471233 0.0105548 0.862354 0.02923
C_ C_ 0.489353 0.959733 0.853137 -0.15533
C_ C_ 0.458854 0.920141 0.859437 -0.15533
C_ C_ 0.410269 0.931676 0.878403 0.02923
C_ C_ 0.392867 0.982749 0.884865 -0.15533
C_ C_ 0.421788 0.0224605 0.874733 0.02923
C_ C_ 0.393688 0.57911 0.881967 0.69207
C_ C_ 0.398265 0.83281 0.877688 0.69661
C_ C_ 0.0711192 0.797837 0.590586 0.18167
C_ C_ 0.027755 0.775562 0.572086 -0.15533
C_ C_ 0.0168615 0.768989 0.517342 0.02923
C_ C_ 0.056906 0.786174 0.982891 -0.15533
C_ C_ 0.0950472 0.802772 0.507043 0.18167
C_ C_ 0.220851 0.767766 0.631285 0.18167
C_ C_ 0.241236 0.746485 0.677814 -0.15533
C_ C_ 0.238605 0.772998 0.724386 0.02923
C_ C_ 0.215813 0.825488 0.727 -0.15533
C_ C_ 0.194222 0.845064 0.680244 0.18167
C_ C_ 0.240021 0.87638 0.535202 0.69207
C_ C_ 0.28633 0.881479 0.00558402 0.02923
C_ C_ 0.263174 0.883105 0.956083 -0.15533
C_ C_ 0.288923 0.886833 0.912974 -0.15533
C_ C_ 0.337785 0.899416 0.919565 0.02923
C_ C_ 0.361946 0.903065 0.970964 -0.15533
C_ C_ 0.338311 0.894656 0.0153667 0.02923
C_ C_ 0.351533 0.889758 0.563468 0.69207
C_ C_ 0.342641 0.891189 0.819679 0.69661
C_ C_ 0.315026 0.934828 0.669776 0.18167
C_ C_ 0.271661 0.96152 0.689663 -0.15533
C_ C_ 0.280814 0.996605 0.732419 0.02923
C_ C_ 0.317873 0.518664 0.751906 -0.15533
C_ C_ 0.369145 0.988447 0.717608 0.18167
C_ C_ 0.490098 0.853556 0.680139 0.18167
C_ C_ 0.0107251 0.8069 0.719593 -0.15533
C_ C_ 0.485748 0.776372 0.719864 0.02923
C_ C_ 0.433698 0.784556 0.715313 -0.15533
C_ C_ 0.408927 0.827568 0.692312 0.18167
C_ C_ 0.491659 0.957653 0.613654 0.69207
C_ C_ 0.0202958 0.487795 0.623577 0.02923
C_ C_ 0.999678565 0.536689 0.613742 -0.15533
C_ C_ 0.0327346 0.575742 0.609702 -0.15533
C_ C_ 0.0854938 0.564225 0.608578 0.02923
C_ C_ 0.105055 0.513585 0.613832 -0.15533
C_ C_ 0.0733872 0.475074 0.622328 0.02923
C_ C_ 0.0933153 0.924607 0.602642 0.69207
C_ C_ 0.0958451 0.660387 0.604141 0.69661
C_ C_ 0.428458 0.699709 0.91986 0.18167
C_ C_ 0.473013 0.714438 0.945724 -0.15533
C_ C_ 0.470897 0.742697 -0.007665999999999951 0.02923
C_ C_ 0.423943 0.749723 0.509213 -0.15533
C_ C_ 0.382319 0.725037 0.991683 0.18167
C_ C_ 0.252492 0.714239 0.857313 0.18167
C_ C_ 0.230894 0.742432 0.814595 -0.15533
C_ C_ 0.261396 0.751008 0.774585 0.02923
C_ C_ 0.312347 0.732736 0.779875 -0.15533
C_ C_ 0.331245 0.703459 0.822057 0.18167
C_ C_ 0.255633 0.625638 0.952286 0.69207
C_ C_ 0.231319 0.607028 0.497222 0.02923
C_ C_ 0.248891 0.612318 0.550582 -0.15533
C_ C_ 0.215846 0.609005 0.587223 -0.15533
C_ C_ 0.165061 0.601485 0.575007 0.02923
C_ C_ 0.14965 0.589998 0.521842 -0.15533
C_ C_ 0.179736 0.599338 0.482628 0.02923
C_ C_ 0.14558 0.61496 0.927079 0.69207
C_ C_ 0.146831 0.611848 0.669857 0.69661
C_ C_ 0.372753 0.88955 0.874804 -0.30787
C_ C_ 0.123542 0.605832 0.612591 -0.30787
N_ N_ 0.139571 0.558367 0.815343 -0.32189
N_ N_ 0.0511178 0.644107 0.81215 -0.32189
N_ N_ 0.106933 0.804158 0.558433 -0.32189
N_ N_ 0.194326 0.815606 0.635448 -0.32189
N_ N_ 0.361652 0.949712 0.683072 -0.32189
N_ N_ 0.437733 0.860492 0.676187 -0.32189
N_ N_ 0.384683 0.7012 0.943761 -0.32189
N_ N_ 0.301337 0.692983 0.858252 -0.32189
O_ O_ 0.496372 0.603319 0.89389 -0.63271
O_ O_ 0.0349199 0.542008 0.82844 -0.57982
O_ O_ 0.38393 0.598883 0.837245 -0.63271
O_ O_ 0.374135 0.602326 0.920408 -0.57982
O_ O_ 0.24177 0.909806 0.575275 -0.63271
O_ O_ 0.205682 0.843376 0.530083 -0.57982
O_ O_ 0.360125 0.84732 0.586974 -0.63271
O_ O_ 0.373492 0.92881 0.58274 -0.57982
O_ O_ 0.981714 0.912042 0.579383 -0.63271
O_ O_ 0.456057 0.963106 0.645876 -0.57982
O_ O_ 0.091827 0.901973 0.646715 -0.63271
O_ O_ 0.12981 0.908276 0.5748 -0.57982
O_ O_ 0.251903 0.600245 0.90797 -0.63271
O_ O_ 0.289644 0.658612 0.962767 -0.57982
O_ O_ 0.147767 0.659307 0.907758 -0.63271
O_ O_ 0.112699 0.583426 0.906855 -0.57982
F_ F_ 0.443751 0.825378 0.907277 -0.20885
F_ F_ 0.413984 0.812456 0.830421 -0.20885
F_ F_ 0.362462 0.799974 0.889814 -0.20885
F_ F_ 0.309141 0.932085 0.814577 -0.20885
F_ F_ 0.314781 0.849514 0.809711 -0.20885
F_ F_ 0.376299 0.889585 0.782973 -0.20885
F_ F_ 0.0640928 0.658779 0.559035 -0.20885
F_ F_ 0.0628194 0.678455 0.640856 -0.20885
F_ F_ 0.12817 0.697165 0.596529 -0.20885
F_ F_ 0.181317 0.570262 0.6812 -0.20885
F_ F_ 0.168373 0.656954 0.679058 -0.20885
F_ F_ 0.111112 0.61394 0.702868 -0.20885
Zn Zn 0.59288 0.0854422 0.34937 0.83971
Zn Zn 0.65493 0.347465 0.0884813 0.83971
Zn Zn 0.905176 0.414852 0.152703 0.83971
Zn Zn 0.849533 0.155623 0.415731 0.83971
H_ H_ 0.664775 0.131603 0.304288 0.10394
H_ H_ 0.74169 0.101892 0.267488 0.10394
H_ H_ 0.703108 0.440103 0.282157 0.10394
H_ H_ 0.63322 0.983519 0.32581 0.10394
H_ H_ 0.0283928 0.101353 0.243052 0.10394
H_ H_ 0.995544 0.181658 0.199213 0.10394
H_ H_ 0.542099 0.267957 0.32976 0.10394
H_ H_ 0.577327 0.193484 0.375907 0.10394
H_ H_ 0.531245 0.432738 0.370953 0.10394
H_ H_ 0.976767 0.375632 0.380468 0.10394
H_ H_ 0.851321 0.489507 0.406082 0.10394
H_ H_ 0.554641 0.333961 0.135305 0.10394
H_ H_ 0.9962131 0.259643 0.0980712 0.10394
H_ H_ 0.52272 0.294175 0.453183 0.10394
H_ H_ 0.616418 0.308692 0.991446 0.10394
H_ H_ 0.714449 0.258469 0.0953962 0.10394
H_ H_ 0.778591 0.21439 0.161069 0.10394
H_ H_ 0.726854 0.330553 0.270858 0.10394
H_ H_ 0.679749 0.381768 0.203972 0.10394
H_ H_ 0.711978 0.374611 0.449057 0.10394
H_ H_ 0.762278 0.39716 0.379606 0.10394
H_ H_ 0.89195 0.397536 0.494088 0.10394
H_ H_ 0.809363 0.393164 0.160305 0.10394
H_ H_ 0.731905 0.433824 0.193844 0.10394
H_ H_ 0.833649 0.0499917 0.272613 0.10394
H_ H_ 0.887314 0.511379 0.222539 0.10394
H_ H_ 0.509451 0.395233 0.227387 0.10394
H_ H_ 0.552605 0.31551 0.259997 0.10394
H_ H_ 0.910831 0.241154 0.215498 0.10394
H_ H_ 0.873748 0.319307 0.177749 0.10394
H_ H_ 0.963597 0.0523573 0.127397 0.10394
H_ H_ 0.52299 0.119704 0.100813 0.10394
H_ H_ 0.653624 0.00707236 0.0912956 0.10394
H_ H_ 0.951324 0.165587 0.404238 0.10394
H_ H_ 0.519251 0.187772 0.468708 0.10394
H_ H_ 0.912266 0.27545 0.0440029 0.10394
H_ H_ 0.845633 0.236455 0.499083 0.10394
H_ H_ 0.745634 0.165149 0.358501 0.10394
H_ H_ 0.708132 0.206165 0.283772 0.10394
H_ H_ 0.848842 0.258407 0.261115 0.10394
H_ H_ 0.891056 0.203928 0.335251 0.10394
H_ H_ 0.790302 0.130189 0.0485541 0.10394
H_ H_ 0.737936 0.122901 0.118725 0.10394
H_ H_ 0.610803 0.099394 0.00746794 0.10394
C_ C_ 0.676842 0.0926619 0.30204 0.18167
C_ C_ 0.718676 0.0746739 0.279232 -0.15533
C_ C_ 0.734571 0.0221066 0.272402 0.02923
C_ C_ 0.692308 0.48159 0.283435 -0.15533
C_ C_ 0.659038 0.00875336 0.315082 0.18167
C_ C_ 0.535714 0.132167 0.267749 0.18167
C_ C_ 0.00331352 0.180667 0.241736 -0.15533
C_ C_ 0.513374 0.223679 0.26241 0.02923
C_ C_ 0.541856 0.230687 0.312036 -0.15533
C_ C_ 0.561257 0.187549 0.337724 0.18167
C_ C_ 0.507976 0.0455902 0.363449 0.69207
C_ C_ 0.974771 0.508661 0.384614 0.02923
C_ C_ 0.992772 0.455851 0.383895 -0.15533
C_ C_ 0.962361 0.41717 0.387671 -0.15533
C_ C_ 0.91105 0.431276 0.396734 0.02923
C_ C_ 0.891976 0.48062 0.399456 -0.15533
C_ C_ 0.922231 0.51994 0.391497 0.02923
C_ C_ 0.904171 0.0728997 0.385786 0.69207
C_ C_ 0.895557 0.332364 0.394881 0.69661
C_ C_ 0.554068 0.315957 0.0970315 0.18167
C_ C_ 0.509841 0.293905 0.0755918 -0.15533
C_ C_ 0.506352 0.273589 0.0247654 0.02923
C_ C_ 0.536142 0.295169 0.492355 -0.15533
C_ C_ 0.59121 0.29959 0.0164976 0.18167
C_ C_ 0.721716 0.274488 0.132677 0.18167
C_ C_ 0.74994 0.246021 0.172039 -0.15533
C_ C_ 0.750019 0.265811 0.223619 0.02923
C_ C_ 0.727973 0.315632 0.232605 -0.15533
C_ C_ 0.698615 0.341988 0.19493 0.18167
C_ C_ 0.737524 0.367605 0.0466229 0.69207
C_ C_ 0.767588 0.387921 0.508207 0.02923
C_ C_ 0.748416 0.390262 0.458096 -0.15533
C_ C_ 0.779808 0.3962 0.41896 -0.15533
C_ C_ 0.832192 0.398435 0.432656 0.02923
C_ C_ 0.850883 0.398334 0.483677 -0.15533
C_ C_ 0.817561 0.396722 0.523007 0.02923
C_ C_ 0.849094 0.385044 0.0692542 0.69207
C_ C_ 0.845791 0.39359 0.335196 0.69661
C_ C_ 0.811957 0.42383 0.186246 0.18167
C_ C_ 0.767773 0.446685 0.209468 -0.15533
C_ C_ 0.769002 0.494739 0.235973 0.02923
C_ C_ 0.825701 0.0157913 0.252286 -0.15533
C_ C_ 0.858505 0.48835 0.226628 0.18167
C_ C_ 0.985257 0.358889 0.221059 0.18167
C_ C_ 0.513896 0.316716 0.240951 -0.15533
C_ C_ 0.97995 0.275713 0.249797 0.02923
C_ C_ 0.933694 0.274039 0.219728 -0.15533
C_ C_ 0.912534 0.316914 0.195773 0.18167
C_ C_ 0.9878 0.449757 0.126949 0.69207
C_ C_ 0.530211 0.991258 0.108732 0.02923
C_ C_ 0.507817 0.0411763 0.102521 -0.15533
C_ C_ 0.53781 0.0794136 0.0979156 -0.15533
C_ C_ 0.592732 0.0689465 0.0977993 0.02923
C_ C_ 0.613234 0.0158894 0.0942067 -0.15533
C_ C_ 0.580711 0.976875 0.0979314 0.02923
C_ C_ 0.598374 0.43301 0.113245 0.69207
C_ C_ 0.605484 0.165926 0.11336 0.69661
C_ C_ 0.94229 0.187386 0.436177 0.18167
C_ C_ 0.983101 0.212616 0.463358 -0.15533
C_ C_ 0.97395 0.247352 0.503986 0.02923
C_ C_ 0.91999 0.247524 0.0116124 -0.15533
C_ C_ 0.88405 0.230077 0.48889 0.18167
C_ C_ 0.769965 0.182797 0.337941 0.18167
C_ C_ 0.748012 0.210648 0.297966 -0.15533
C_ C_ 0.775768 0.237072 0.267524 0.02923
C_ C_ 0.827791 0.236191 0.28144 -0.15533
C_ C_ 0.850422 0.208209 0.322671 0.18167
C_ C_ 0.769257 0.111462 0.446471 0.69207
C_ C_ 0.733663 0.113513 0.989434 0.02923
C_ C_ 0.749977 0.126377 0.0392333 -0.15533
C_ C_ 0.719867 0.120213 0.0788077 -0.15533
C_ C_ 0.668881 0.111274 0.068151 0.02923
C_ C_ 0.650116 0.104885 0.0169639 -0.15533
C_ C_ 0.682831 0.104569 0.977203 0.02923
C_ C_ 0.657577 0.109939 0.425795 0.69207
C_ C_ 0.654835 0.101709 0.166257 0.69661
C_ C_ 0.871796 0.389928 0.391289 -0.30787
C_ C_ 0.631655 0.111434 0.109981 -0.30787
N_ N_ 0.643894 0.0599321 0.313104 -0.32189
N_ N_ 0.559223 0.140125 0.315378 -0.32189
N_ N_ 0.593242 0.318733 0.0670727 -0.32189
N_ N_ 0.693604 0.320466 0.145809 -0.32189
N_ N_ 0.8547 0.445786 0.194307 -0.32189
N_ N_ 0.938404 0.35736 0.19164 -0.32189
N_ N_ 0.895818 0.193863 0.452251 -0.32189
N_ N_ 0.821237 0.184662 0.35227 -0.32189
O_ O_ 0.0148558 0.078765 0.40788 -0.63271
O_ O_ 0.546157 0.0383749 0.333423 -0.57982
O_ O_ 0.90722 0.10015 0.344928 -0.63271
O_ O_ 0.878576 0.0912059 0.423221 -0.57982
O_ O_ 0.744355 0.391894 0.0907092 -0.63271
O_ O_ 0.696764 0.341283 0.0373429 -0.57982
O_ O_ 0.847802 0.344346 0.0936579 -0.63271
O_ O_ 0.878882 0.419712 0.0898526 -0.57982
O_ O_ 0.501484 0.415913 0.119866 -0.63271
O_ O_ 0.951832 0.461715 0.157605 -0.57982
O_ O_ 0.598975 0.410951 0.157613 -0.63271
O_ O_ 0.631369 0.414359 0.0805966 -0.57982
O_ O_ 0.762678 0.0867979 0.402327 -0.63271
O_ O_ 0.799305 0.147373 0.454083 -0.57982
O_ O_ 0.660272 0.147448 0.396716 -0.63271
O_ O_ 0.625678 0.0756117 0.411028 -0.57982
F_ F_ 0.931184 0.32759 0.436408 -0.20885
F_ F_ 0.922884 0.312578 0.35337 -0.20885
F_ F_ 0.856406 0.30265 0.400432 -0.20885
F_ F_ 0.812643 0.437258 0.327936 -0.20885
F_ F_ 0.818137 0.352489 0.322521 -0.20885
F_ F_ 0.881674 0.388944 0.29844 -0.20885
F_ F_ 0.580906 0.177373 0.0643238 -0.20885
F_ F_ 0.572198 0.177346 0.149672 -0.20885
F_ F_ 0.641756 0.199631 0.121852 -0.20885
F_ F_ 0.691082 0.0615335 0.163224 -0.20885
F_ F_ 0.676677 0.142503 0.192439 -0.20885
F_ F_ 0.618366 0.089795 0.198961 -0.20885
Zn Zn 0.589776 0.0823244 0.846544 0.83971
Zn Zn 0.652464 0.35281 0.587506 0.83971
Zn Zn 0.906969 0.411767 0.66063 0.83971
Zn Zn 0.842158 0.155189 0.908127 0.83971
H_ H_ 0.670507 0.13301 0.802336 0.10394
H_ H_ 0.748423 0.094427 0.768852 0.10394
H_ H_ 0.698372 0.450762 0.783696 0.10394
H_ H_ 0.633457 0.985364 0.821646 0.10394
H_ H_ 0.0296701 0.0887614 0.743271 0.10394
H_ H_ 0.983383 0.161153 0.703723 0.10394
H_ H_ 0.515005 0.265043 0.851458 0.10394
H_ H_ 0.542348 0.184341 0.886553 0.10394
H_ H_ 0.53399 0.459898 0.877483 0.10394
H_ H_ 0.98422 0.376803 0.893769 0.10394
H_ H_ 0.847995 0.489992 0.903743 0.10394
H_ H_ 0.588365 0.306352 0.633685 0.10394
H_ H_ 0.00756661 0.254396 0.601182 0.10394
H_ H_ 0.547295 0.26062 0.955782 0.10394
H_ H_ 0.602945 0.332478 0.483268 0.10394
H_ H_ 0.719899 0.260058 0.597675 0.10394
H_ H_ 0.760045 0.211349 0.67205 0.10394
H_ H_ 0.706198 0.336678 0.770729 0.10394
H_ H_ 0.66565 0.381162 0.697962 0.10394
H_ H_ 0.71807 0.354673 0.940846 0.10394
H_ H_ 0.770322 0.365265 0.877807 0.10394
H_ H_ 0.890421 0.406404 0.990438 0.10394
H_ H_ 0.807619 0.394275 0.668588 0.10394
H_ H_ 0.732832 0.441399 0.702595 0.10394
H_ H_ 0.832106 0.0460424 0.766604 0.10394
H_ H_ 0.902761 0.499855 0.740548 0.10394
H_ H_ 0.505284 0.397034 0.720579 0.10394
H_ H_ 0.552326 0.321482 0.761236 0.10394
H_ H_ 0.916772 0.225307 0.698173 0.10394
H_ H_ 0.872503 0.306236 0.669894 0.10394
H_ H_ 0.963138 0.0548151 0.618517 0.10394
H_ H_ 0.529566 0.124497 0.61366 0.10394
H_ H_ 0.649404 0.00816579 0.584449 0.10394
H_ H_ 0.949256 0.154499 0.895099 0.10394
H_ H_ 0.514782 0.174805 0.987437 0.10394
H_ H_ 0.912232 0.284642 0.545925 0.10394
H_ H_ 0.842308 0.235586 -0.014132999999999951 0.10394
H_ H_ 0.738956 0.200064 0.88085 0.10394
H_ H_ 0.696402 0.249794 0.816827 0.10394
H_ H_ 0.83293 0.217688 0.735123 0.10394
H_ H_ 0.8773 0.173801 0.813427 0.10394
H_ H_ 0.798552 0.102584 0.547515 0.10394
H_ H_ 0.740983 0.106723 0.615709 0.10394
H_ H_ 0.609525 0.102549 0.508025 0.10394
C_ C_ 0.679008 0.0921103 0.798025 0.18167
C_ C_ 0.723219 0.0710282 0.776803 -0.15533
C_ C_ 0.735864 0.0194236 0.771461 0.02923
C_ C_ 0.6916 0.491492 0.790381 -0.15533
C_ C_ 0.656058 0.0083736 0.804031 0.18167
C_ C_ 0.541421 0.14074 0.768099 0.18167
C_ C_ 0.00607857 0.167719 0.739697 -0.15533
C_ C_ 0.514936 0.232445 0.772731 0.02923
C_ C_ 0.525451 0.231704 0.827265 -0.15533
C_ C_ 0.546533 0.187585 0.848047 0.18167
C_ C_ 0.508304 0.0485716 0.861261 0.69207
C_ C_ 0.96784 0.504321 0.866329 0.02923
C_ C_ 0.987203 0.453756 0.870102 -0.15533
C_ C_ 0.961008 0.41498 0.885544 -0.15533
C_ C_ 0.908069 0.425172 0.891733 0.02923
C_ C_ 0.887256 0.478323 0.89429 -0.15533
C_ C_ 0.914882 0.517185 0.87831 0.02923
C_ C_ 0.898607 0.0677087 0.875154 0.69207
C_ C_ 0.902601 0.32754 0.893998 0.69661
C_ C_ 0.571506 0.302744 0.595504 0.18167
C_ C_ 0.522212 0.285945 0.579372 -0.15533
C_ C_ 0.509177 0.276042 0.528688 0.02923
C_ C_ 0.547438 0.27899 0.994573 -0.15533
C_ C_ 0.581175 0.315892 0.508936 0.18167
C_ C_ 0.71705 0.276473 0.636006 0.18167
C_ C_ 0.735118 0.246201 0.676995 -0.15533
C_ C_ 0.735533 0.26867 0.725462 0.02923
C_ C_ 0.707484 0.315583 0.732504 -0.15533
C_ C_ 0.684473 0.342708 0.689636 0.18167
C_ C_ 0.732169 0.375826 0.546931 0.69207
C_ C_ 0.76881 0.377325 1.00485859 0.02923
C_ C_ 0.754196 0.364365 0.951357 -0.15533
C_ C_ 0.784645 0.372214 0.915419 -0.15533
C_ C_ 0.834558 0.388125 0.925923 0.02923
C_ C_ 0.850331 0.398711 0.978453 -0.15533
C_ C_ 0.82126 0.39235 0.01692 0.02923
C_ C_ 0.844009 0.387198 0.575659 0.69207
C_ C_ 0.848963 0.377233 0.829494 0.69661
C_ C_ 0.81304 0.424249 0.697151 0.18167
C_ C_ 0.769258 0.449343 0.719114 -0.15533
C_ C_ 0.775781 0.492376 0.753723 0.02923
C_ C_ 0.824096 0.0135856 0.743546 -0.15533
C_ C_ 0.866705 0.482991 0.738642 0.18167
C_ C_ 0.983673 0.347515 0.709905 0.18167
C_ C_ 0.510953 0.322182 0.748543 -0.15533
C_ C_ 0.983144 0.262463 0.734943 0.02923
C_ C_ 0.933974 0.261877 0.710103 -0.15533
C_ C_ 0.910103 0.306865 0.69007 0.18167
C_ C_ 0.987567 0.446755 0.631975 0.69207
C_ C_ 0.528948 0.996079 0.616046 0.02923
C_ C_ 0.511869 0.0487135 0.616175 -0.15533
C_ C_ 0.546459 0.0855413 0.615846 -0.15533
C_ C_ 0.595383 0.0702173 0.602701 0.02923
C_ C_ 0.611745 0.0191068 0.595889 -0.15533
C_ C_ 0.581777 0.982267 0.609451 0.02923
C_ C_ 0.589311 0.429925 0.615489 0.69207
C_ C_ 0.61366 0.166245 0.610792 0.69661
C_ C_ 0.942916 0.17859 0.930436 0.18167
C_ C_ 0.980567 0.20594 0.955661 -0.15533
C_ C_ 0.970505 0.239879 -0.00214991 0.02923
C_ C_ 0.922055 0.258994 0.51456 -0.15533
C_ C_ 0.880802 0.225006 0.980578 0.18167
C_ C_ 0.760078 0.205654 0.853321 0.18167
C_ C_ 0.73555 0.23385 0.813665 -0.15533
C_ C_ 0.761165 0.242382 0.771213 0.02923
C_ C_ 0.812592 0.217738 0.770091 -0.15533
C_ C_ 0.835614 0.186901 0.810682 0.18167
C_ C_ 0.768484 0.118585 0.950575 0.69207
C_ C_ 0.735521 0.104405 0.487008 0.02923
C_ C_ 0.757971 0.100594 0.538332 -0.15533
C_ C_ 0.726269 0.0985709 0.577494 -0.15533
C_ C_ 0.671894 0.0995901 0.56766 0.02923
C_ C_ 0.65177 0.106018 0.517566 -0.15533
C_ C_ 0.683469 0.111155 0.478069 0.02923
C_ C_ 0.659846 0.102867 0.923006 0.69207
C_ C_ 0.663517 0.102871 0.664497 0.69661
C_ C_ 0.873786 0.382136 0.885141 -0.30787
C_ C_ 0.636627 0.109635 0.610606 -0.30787
N_ N_ 0.642977 0.0591094 0.806666 -0.32189
N_ N_ 0.55963 0.145938 0.818236 -0.32189
N_ N_ 0.600167 0.314635 0.55929 -0.32189
N_ N_ 0.684048 0.319094 0.643133 -0.32189
N_ N_ 0.860295 0.442112 0.705015 -0.32189
N_ N_ 0.935504 0.348317 0.686131 -0.32189
N_ N_ 0.892417 0.196159 0.937825 -0.32189
N_ N_ 0.80831 0.181794 0.85143 -0.32189
O_ O_ 0.00776729 0.0811174 0.888472 -0.63271
O_ O_ 0.547343 0.0370354 0.836133 -0.57982
O_ O_ 0.89879 0.0887875 0.83285 -0.63271
O_ O_ 0.874368 0.092177 0.910552 -0.57982
O_ O_ 0.737329 0.396461 0.59345 -0.63271
O_ O_ 0.694511 0.347153 0.535734 -0.57982
O_ O_ 0.844935 0.341732 0.594009 -0.63271
O_ O_ 0.878652 0.417727 0.595757 -0.57982
O_ O_ 0.480462 0.415826 0.602343 -0.63271
O_ O_ 0.957354 0.454439 0.66885 -0.57982
O_ O_ 0.579315 0.402229 0.652545 -0.63271
O_ O_ 0.627455 0.418707 0.589787 -0.57982
O_ O_ 0.772477 0.084625 0.913067 -0.63271
O_ O_ 0.800886 0.153828 0.957455 -0.57982
O_ O_ 0.661016 0.143685 0.896358 -0.63271
O_ O_ 0.623009 0.0741451 0.9097 -0.57982
F_ F_ 0.932486 0.329082 0.940806 -0.20885
F_ F_ 0.933722 0.307858 0.856901 -0.20885
F_ F_ 0.867974 0.292882 0.8955 -0.20885
F_ F_ 0.813945 0.417521 0.817499 -0.20885
F_ F_ 0.824559 0.334504 0.815094 -0.20885
F_ F_ 0.884761 0.378718 0.795334 -0.20885
F_ F_ 0.579091 0.180266 0.569321 -0.20885
F_ F_ 0.587069 0.180486 0.652672 -0.20885
F_ F_ 0.652706 0.197103 0.612809 -0.20885
F_ F_ 0.697672 0.0579892 0.667545 -0.20885
F_ F_ 0.695141 0.141687 0.679509 -0.20885
F_ F_ 0.626016 0.102429 0.700317 -0.20885
Zn Zn 0.583455 0.584009 0.344331 0.83971
Zn Zn 0.664401 0.838872 0.0795628 0.83971
Zn Zn 0.907881 0.911469 0.152247 0.83971
Zn Zn 0.840099 0.654359 0.418534 0.83971
H_ H_ 0.654447 0.62481 0.296644 0.10394
H_ H_ 0.730962 0.594061 0.259601 0.10394
H_ H_ 0.70282 0.947725 0.278068 0.10394
H_ H_ 0.627077 0.474508 0.321174 0.10394
H_ H_ 0.0311167 0.597331 0.262487 0.10394
H_ H_ 0.978998 0.666227 0.220045 0.10394
H_ H_ 0.541631 0.771208 0.323705 0.10394
H_ H_ 0.575969 0.693693 0.3742 0.10394
H_ H_ 0.524897 0.946006 0.334332 0.10394
H_ H_ 0.981556 0.873472 0.391026 0.10394
H_ H_ 0.855546 0.989515 0.406181 0.10394
H_ H_ 0.586175 0.794242 0.124046 0.10394
H_ H_ 1.0101709 0.762234 0.0950962 0.10394
H_ H_ 0.53396 0.789174 0.437909 0.10394
H_ H_ 0.613826 0.818369 0.973481 0.10394
H_ H_ 0.736202 0.748435 0.0916485 0.10394
H_ H_ 0.77598 0.699991 0.159394 0.10394
H_ H_ 0.727729 0.822516 0.262811 0.10394
H_ H_ 0.682624 0.868625 0.189903 0.10394
H_ H_ 0.716201 0.860147 0.438298 0.10394
H_ H_ 0.772308 0.858754 0.37074 0.10394
H_ H_ 0.891209 0.900647 0.482828 0.10394
H_ H_ 0.803276 0.906427 0.152786 0.10394
H_ H_ 0.728209 0.961552 0.18383 0.10394
H_ H_ 0.821675 0.548136 0.270159 0.10394
H_ H_ 0.902534 1.00154512 0.234167 0.10394
H_ H_ 0.52101 0.888057 0.20034 0.10394
H_ H_ 0.563087 0.807799 0.235019 0.10394
H_ H_ 0.915057 0.737707 0.209701 0.10394
H_ H_ 0.864795 0.821781 0.189156 0.10394
H_ H_ 0.960706 0.546531 0.11251 0.10394
H_ H_ 0.51375 0.629567 0.108108 0.10394
H_ H_ 0.640008 0.516666 0.0889839 0.10394
H_ H_ 0.943155 0.657397 0.396755 0.10394
H_ H_ 0.515214 0.695375 0.438442 0.10394
H_ H_ 0.920885 0.778582 0.0361055 0.10394
H_ H_ 0.847861 0.740041 0.501829 0.10394
H_ H_ 0.737259 0.707778 0.384153 0.10394
H_ H_ 0.694079 0.715485 0.29633 0.10394
H_ H_ 0.838353 0.706827 0.239615 0.10394
H_ H_ 0.880023 0.683619 0.325342 0.10394
H_ H_ 0.783694 0.637595 0.057775 0.10394
H_ H_ 0.728085 0.625613 0.124139 0.10394
H_ H_ 0.604962 0.599093 0.00618348 0.10394
C_ C_ 0.66848 0.585859 0.297556 0.18167
C_ C_ 0.710276 0.566919 0.272336 -0.15533
C_ C_ 0.724036 0.514784 0.263362 0.02923
C_ C_ 0.702771 0.987263 0.290122 -0.15533
C_ C_ 0.65029 0.502016 0.307522 0.18167
C_ C_ 0.533034 0.636382 0.26428 0.18167
C_ C_ 0.00405386 0.675539 0.25356 -0.15533
C_ C_ 0.518855 0.727242 0.256137 0.02923
C_ C_ 0.53955 0.732878 0.306633 -0.15533
C_ C_ 0.559754 0.688415 0.33467 0.18167
C_ C_ 0.505233 0.542708 0.371888 0.69207
C_ C_ 0.97739 0.00183616 0.383342 0.02923
C_ C_ -0.005628999999999995 0.951268 0.381578 -0.15533
C_ C_ 0.961566 0.911417 0.380636 -0.15533
C_ C_ 0.909688 0.92506 0.390146 0.02923
C_ C_ 0.895359 0.978244 0.399224 -0.15533
C_ C_ 0.924388 0.0166023 0.387521 0.02923
C_ C_ 0.896173 0.569115 0.385693 0.69207
C_ C_ 0.892427 0.831804 0.378252 0.69661
C_ C_ 0.572616 0.799206 0.0859387 0.18167
C_ C_ 0.526676 0.780097 0.0682054 -0.15533
C_ C_ 0.513116 0.772765 0.0140013 0.02923
C_ C_ 0.541999 0.79387 0.479871 -0.15533
C_ C_ 0.593456 0.805223 -0.000233814 0.18167
C_ C_ 0.72255 0.759951 0.129084 0.18167
C_ C_ 0.745961 0.72939 0.168641 -0.15533
C_ C_ 0.741321 0.748664 0.219346 0.02923
C_ C_ 0.721307 0.800348 0.226929 -0.15533
C_ C_ 0.694033 0.826913 0.184946 0.18167
C_ C_ 0.737768 0.856956 0.0387514 0.69207
C_ C_ 0.774252 0.8785 0.500983 0.02923
C_ C_ 0.754331 0.873245 0.448361 -0.15533
C_ C_ 0.784937 0.873509 0.409385 -0.15533
C_ C_ 0.832685 0.892745 0.419805 0.02923
C_ C_ 0.853204 0.896479 0.472861 -0.15533
C_ C_ 0.821528 0.893687 0.512758 0.02923
C_ C_ 0.85375 0.872152 0.0683954 0.69207
C_ C_ 0.846352 0.896189 0.322063 0.69661
C_ C_ 0.809663 0.937391 0.178742 0.18167
C_ C_ 0.76711 0.968126 0.197192 -0.15533
C_ C_ 0.777056 1.00146343 0.240335 0.02923
C_ C_ 0.815437 0.514646 0.244748 -0.15533
C_ C_ 0.866094 0.987677 0.227705 0.18167
C_ C_ 0.981755 0.854752 0.213383 0.18167
C_ C_ 0.523269 0.810733 0.22135 -0.15533
C_ C_ 0.978721 0.770073 0.244703 0.02923
C_ C_ 0.930508 0.772091 0.216078 -0.15533
C_ C_ 0.905498 0.816253 0.193179 0.18167
C_ C_ 0.985265 0.947986 0.123838 0.69207
C_ C_ 0.521712 0.502534 0.122234 0.02923
C_ C_ 0.505726 0.553864 0.129004 -0.15533
C_ C_ 0.534865 0.59121 0.115139 -0.15533
C_ C_ 0.584826 0.578125 0.101588 0.02923
C_ C_ 0.602289 0.525666 0.097967 -0.15533
C_ C_ 0.571452 0.487411 0.106951 0.02923
C_ C_ 0.603823 0.92241 0.0991746 0.69207
C_ C_ 0.600568 0.674497 0.105067 0.69661
C_ C_ 0.939735 0.675288 0.434597 0.18167
C_ C_ 0.981984 0.698296 0.455259 -0.15533
C_ C_ 0.977286 0.733933 0.49651 0.02923
C_ C_ 0.928304 0.756136 1.00381637 -0.15533
C_ C_ 0.886134 0.727717 0.489031 0.18167
C_ C_ 0.758754 0.70012 0.352064 0.18167
C_ C_ 0.734633 0.710741 0.303005 -0.15533
C_ C_ 0.764951 0.717612 0.263098 0.02923
C_ C_ 0.81849 0.706497 0.271366 -0.15533
C_ C_ 0.84082 0.691294 0.318421 0.18167
C_ C_ 0.760465 0.627085 0.458537 0.69207
C_ C_ 0.726784 0.629883 0.99384 0.02923
C_ C_ 0.746095 0.624619 0.0454363 -0.15533
C_ C_ 0.714583 0.617664 0.0837622 -0.15533
C_ C_ 0.662542 0.60925 0.0697453 0.02923
C_ C_ 0.645882 0.600031 0.0167476 -0.15533
C_ C_ 0.677762 0.611658 0.979957 0.02923
C_ C_ 0.64583 0.614887 0.428511 0.69207
C_ C_ 0.647226 0.613092 0.166574 0.69661
C_ C_ 0.870577 0.885984 0.379458 -0.30787
C_ C_ 0.6234 0.618097 0.109239 -0.30787
N_ N_ 0.637197 0.552671 0.31012 -0.32189
N_ N_ 0.551595 0.641293 0.31307 -0.32189
N_ N_ 0.605017 0.811833 0.052153 -0.32189
N_ N_ 0.692072 0.804673 0.136424 -0.32189
N_ N_ 0.857545 0.947877 0.193494 -0.32189
N_ N_ 0.934569 0.855932 0.191402 -0.32189
N_ N_ 0.890612 0.692268 0.448817 -0.32189
N_ N_ 0.811649 0.687891 0.357666 -0.32189
O_ O_ 0.00461719 0.591487 0.400851 -0.63271
O_ O_ 0.540282 0.533413 0.34125 -0.57982
O_ O_ 0.895944 0.591663 0.342629 -0.63271
O_ O_ 0.872906 0.593756 0.425072 -0.57982
O_ O_ 0.743126 0.878373 0.0855336 -0.63271
O_ O_ 0.704037 0.825736 0.0287926 -0.57982
O_ O_ 0.860482 0.832476 0.0945224 -0.63271
O_ O_ 0.875768 0.91233 0.0891355 -0.57982
O_ O_ 0.498112 0.909718 0.0976983 -0.63271
O_ O_ 0.952354 0.956829 0.157367 -0.57982
O_ O_ 0.599039 0.895567 0.137936 -0.63271
O_ O_ 0.639564 0.904495 0.0698201 -0.57982
O_ O_ 0.75689 0.601468 0.415197 -0.63271
O_ O_ 0.797817 0.654442 0.47111 -0.57982
O_ O_ 0.654912 0.651282 0.401491 -0.63271
O_ O_ 0.613585 0.580311 0.41011 -0.57982
F_ F_ 0.919536 0.820179 0.424488 -0.20885
F_ F_ 0.924712 0.819955 0.341832 -0.20885
F_ F_ 0.859854 0.794107 0.370578 -0.20885
F_ F_ 0.816139 0.940793 0.321295 -0.20885
F_ F_ 0.820647 0.855757 0.299706 -0.20885
F_ F_ 0.885589 0.900151 0.290909 -0.20885
F_ F_ 0.568124 0.676366 0.0605598 -0.20885
F_ F_ 0.57312 0.691195 0.146012 -0.20885
F_ F_ 0.634391 0.710989 0.102655 -0.20885
F_ F_ 0.678792 0.568313 0.169911 -0.20885
F_ F_ 0.672322 0.655516 0.187215 -0.20885
F_ F_ 0.609362 0.608414 0.196547 -0.20885
Zn Zn 0.582927 0.600123 0.848682 0.83971
Zn Zn 0.655993 0.84608 0.578001 0.83971
Zn Zn 0.909889 0.917396 0.646774 0.83971
Zn Zn 0.841646 0.656121 0.914705 0.83971
H_ H_ 0.674041 0.634105 0.816797 0.10394
H_ H_ 0.749743 0.5974 0.76792 0.10394
H_ H_ 0.71346 0.949037 0.791384 0.10394
H_ H_ 0.618097 0.494639 0.818873 0.10394
H_ H_ 0.0154339 0.594117 0.753762 0.10394
H_ H_ 0.978125 0.666321 0.699537 0.10394
H_ H_ 0.534858 0.782843 0.815897 0.10394
H_ H_ 0.575303 0.710071 0.86638 0.10394
H_ H_ 0.527522 0.950628 0.842322 0.10394
H_ H_ 0.97513 0.872554 0.87331 0.10394
H_ H_ 0.855718 0.986979 0.901837 0.10394
H_ H_ 0.577901 0.808984 0.62523 0.10394
H_ H_ 0.00132154 0.76501 0.597107 0.10394
H_ H_ 0.535662 0.787495 0.939455 0.10394
H_ H_ 0.608492 0.830089 0.475313 0.10394
H_ H_ 0.711371 0.749559 0.595568 0.10394
H_ H_ 0.748543 0.701515 0.666251 0.10394
H_ H_ 0.710144 0.829929 0.768192 0.10394
H_ H_ 0.672286 0.877801 0.692928 0.10394
H_ H_ 0.708978 0.87223 0.93758 0.10394
H_ H_ 0.75951 0.888994 0.875005 0.10394
H_ H_ 0.895052 0.886082 0.982549 0.10394
H_ H_ 0.810199 0.894311 0.657365 0.10394
H_ H_ 0.731182 0.944261 0.689437 0.10394
H_ H_ 0.833124 0.541774 0.789135 0.10394
H_ H_ 0.899085 1.00807971 0.710866 0.10394
H_ H_ 0.513213 0.883335 0.672137 0.10394
H_ H_ 0.555606 0.810068 0.711682 0.10394
H_ H_ 0.906882 0.744534 0.716425 0.10394
H_ H_ 0.865587 0.827954 0.676279 0.10394
H_ H_ 0.959952 0.546085 0.612298 0.10394
H_ H_ 0.519728 0.627222 0.635018 0.10394
H_ H_ 0.636846 0.509144 0.593578 0.10394
H_ H_ 0.947964 0.658019 0.892795 0.10394
H_ H_ 0.508506 0.70587 0.927986 0.10394
H_ H_ 0.921169 0.776544 0.540367 0.10394
H_ H_ 0.849232 0.734234 0.997573 0.10394
H_ H_ 0.737478 0.70073 0.88616 0.10394
H_ H_ 0.693146 0.746113 0.813519 0.10394
H_ H_ 0.832776 0.719957 0.737113 0.10394
H_ H_ 0.879708 0.686679 0.815631 0.10394
H_ H_ 0.778053 0.629797 0.558553 0.10394
H_ H_ 0.729958 0.6055 0.621289 0.10394
H_ H_ 0.602203 0.602665 0.515492 0.10394
C_ C_ 0.679457 0.59465 0.809498 0.18167
C_ C_ 0.72157 0.574987 0.782457 -0.15533
C_ C_ 0.7306 0.520874 0.776921 0.02923
C_ C_ 0.701131 0.986728 0.784233 -0.15533
C_ C_ 0.645384 0.516268 0.807725 0.18167
C_ C_ 0.527885 0.642718 0.764596 0.18167
C_ C_ -0.0004129999999999967 0.673413 0.737619 -0.15533
C_ C_ 0.512839 0.73286 0.748954 0.02923
C_ C_ 0.531571 0.74295 0.801505 -0.15533
C_ C_ 0.556623 0.702224 0.829336 0.18167
C_ C_ 0.504604 0.556922 0.876218 0.69207
C_ C_ 0.976287 -0.0005730000000000457 0.869645 0.02923
C_ C_ -0.005306999999999951 0.94562 0.863433 -0.15533
C_ C_ 0.960946 0.911159 0.871064 -0.15533
C_ C_ 0.911176 0.924622 0.886061 0.02923
C_ C_ 0.894216 0.976685 0.891586 -0.15533
C_ C_ 0.924946 0.0155912 0.882671 0.02923
C_ C_ 0.890371 0.570306 0.878884 0.69207
C_ C_ 0.891482 0.829934 0.874069 0.69661
C_ C_ 0.572249 0.796217 0.583086 0.18167
C_ C_ 0.526062 0.773741 0.563799 -0.15533
C_ C_ 0.509658 0.77387 0.512308 0.02923
C_ C_ 0.546506 0.785929 0.979277 -0.15533
C_ C_ 0.587664 0.814065 0.500892 0.18167
C_ C_ 0.713603 0.767419 0.631926 0.18167
C_ C_ 0.736784 0.740037 0.673815 -0.15533
C_ C_ 0.735508 0.761486 0.723841 0.02923
C_ C_ 0.708541 0.810113 0.73041 -0.15533
C_ C_ 0.691625 0.838593 0.687437 0.18167
C_ C_ 0.741444 0.871209 0.542063 0.69207
C_ C_ 0.77057 0.867662 1.00094634 0.02923
C_ C_ 0.750986 0.872487 0.949145 -0.15533
C_ C_ 0.780835 0.882949 0.912252 -0.15533
C_ C_ 0.834406 0.886748 0.922515 0.02923
C_ C_ 0.854393 0.884509 0.973283 -0.15533
C_ C_ 0.824437 0.874058 0.0136758 0.02923
C_ C_ 0.848699 0.89066 0.564956 0.69207
C_ C_ 0.841308 0.897129 0.825432 0.69661
C_ C_ 0.812398 0.928282 0.679254 0.18167
C_ C_ 0.768126 0.956713 0.700689 -0.15533
C_ C_ 0.774134 -0.0022360000000000158 0.736862 0.02923
C_ C_ 0.825057 0.510505 0.760816 -0.15533
C_ C_ 0.863564 0.990459 0.71269 0.18167
C_ C_ 0.987765 0.851175 0.696125 0.18167
C_ C_ 0.515102 0.812558 0.705356 -0.15533
C_ C_ 0.979502 0.76979 0.731182 0.02923
C_ C_ 0.928658 0.774495 0.71203 -0.15533
C_ C_ 0.907161 0.81926 0.686657 0.18167
C_ C_ 0.982914 0.953585 0.610293 0.69207
C_ C_ 0.514965 0.497003 0.621601 0.02923
C_ C_ 0.501181 0.549027 0.629968 -0.15533
C_ C_ 0.535033 0.585323 0.629344 -0.15533
C_ C_ 0.58278 0.574008 0.614067 0.02923
C_ C_ 0.599311 0.522583 0.606463 -0.15533
C_ C_ 0.566775 0.48416 0.613361 0.02923
C_ C_ 0.602408 0.928957 0.606955 0.69207
C_ C_ 0.596191 0.668689 0.605656 0.69661
C_ C_ 0.941204 0.686595 0.924342 0.18167
C_ C_ 0.984235 0.707305 0.950986 -0.15533
C_ C_ 0.979272 0.741984 0.991132 0.02923
C_ C_ 0.928441 0.745743 0.514459 -0.15533
C_ C_ 0.88591 0.732913 0.980504 0.18167
C_ C_ 0.758299 0.703862 0.853379 0.18167
C_ C_ 0.73596 0.73407 0.81455 -0.15533
C_ C_ 0.75954 0.732243 0.768075 0.02923
C_ C_ 0.811855 0.714021 0.768985 -0.15533
C_ C_ 0.837933 0.693038 0.814438 0.18167
C_ C_ 0.764975 0.628505 0.955778 0.69207
C_ C_ 0.722794 0.622304 0.494621 0.02923
C_ C_ 0.740152 0.6206 0.54619 -0.15533
C_ C_ 0.710368 0.60778 0.58403 -0.15533
C_ C_ 0.658823 0.601466 0.573141 0.02923
C_ C_ 0.640475 0.598891 0.521005 -0.15533
C_ C_ 0.672209 0.609546 0.480778 0.02923
C_ C_ 0.650602 0.617451 0.928547 0.69207
C_ C_ 0.645441 0.60975 0.669371 0.69661
C_ C_ 0.870265 0.884953 0.879169 -0.30787
C_ C_ 0.621148 0.612078 0.613554 -0.30787
N_ N_ 0.642029 0.566282 0.817998 -0.32189
N_ N_ 0.556821 0.654906 0.80902 -0.32189
N_ N_ 0.598266 0.817716 0.552251 -0.32189
N_ N_ 0.690485 0.81526 0.63889 -0.32189
N_ N_ 0.857099 0.946814 0.683225 -0.32189
N_ N_ 0.936596 0.856572 0.680941 -0.32189
N_ N_ 0.893759 0.698997 0.941047 -0.32189
N_ N_ 0.812031 0.686819 0.855581 -0.32189
O_ O_ 1.0028956 0.583751 0.896741 -0.63271
O_ O_ 0.535371 0.550483 0.839358 -0.57982
O_ O_ 0.890148 0.595301 0.838235 -0.63271
O_ O_ 0.871882 0.592632 0.919294 -0.57982
O_ O_ 0.744152 0.898693 0.584997 -0.63271
O_ O_ 0.701257 0.844615 0.532419 -0.57982
O_ O_ 0.850794 0.849576 0.588448 -0.63271
O_ O_ 0.875087 0.926727 0.583878 -0.57982
O_ O_ 0.494435 0.91442 0.583964 -0.63271
O_ O_ 0.955604 0.9584 0.64918 -0.57982
O_ O_ 0.593319 0.899993 0.64365 -0.63271
O_ O_ 0.640517 0.914396 0.580867 -0.57982
O_ O_ 0.757009 0.606696 0.909114 -0.63271
O_ O_ 0.79732 0.662264 0.96087 -0.57982
O_ O_ 0.648197 0.66081 0.905238 -0.63271
O_ O_ 0.613807 0.587979 0.913897 -0.57982
F_ F_ 0.928323 0.816509 0.917206 -0.20885
F_ F_ 0.917776 0.819192 0.832459 -0.20885
F_ F_ 0.859185 0.792185 0.869851 -0.20885
F_ F_ 0.809079 0.942165 0.828807 -0.20885
F_ F_ 0.809284 0.863539 0.807328 -0.20885
F_ F_ 0.874933 0.898191 0.788699 -0.20885
F_ F_ 0.558857 0.670385 0.563577 -0.20885
F_ F_ 0.575356 0.690582 0.647619 -0.20885
F_ F_ 0.634346 0.698803 0.600491 -0.20885
F_ F_ 0.676652 0.563714 0.674743 -0.20885
F_ F_ 0.67288 0.648385 0.684273 -0.20885
F_ F_ 0.613381 0.609398 0.705537 -0.20885
_cell_length_a 26.508
_cell_length_b 26.37200000322088
_cell_length_c 26.311999743092066
_cell_angle_alpha 93.74100058972084
_cell_angle_beta 96.04100104955006
_cell_angle_gamma 83.6869992558723
_symmetry_space_group_name_H-M         'P 1'
_symmetry_Int_Tables_number            1
loop_
_symmetry_equiv_pos_as_xyz
   'x, y, z'
                         
loop_
_atom_site_label
_atom_site_type_symbol
_atom_site_fract_x 
_atom_site_fract_y
_atom_site_fract_z
_atom_site_charge
Zn Zn 0.0865538 0.0797597 0.343899 0.83971
Zn Zn 0.156151 0.342396 0.0861395 0.83971
Zn Zn 0.408436 0.422169 0.160815 0.83971
Zn Zn 0.34006 0.153449 0.41923 0.83971
H_ H_ 0.169184 0.131807 0.311104 0.10394
H_ H_ 0.246301 0.0996842 0.270472 0.10394
H_ H_ 0.199144 0.449289 0.28048 0.10394
H_ H_ 0.136332 0.979782 0.331156 0.10394
H_ H_ 0.533454 0.0942973 0.253173 0.10394
H_ H_ 0.494336 0.168071 0.199805 0.10394
H_ H_ 0.0230746 0.263088 0.345808 0.10394
H_ H_ 0.0665429 0.177886 0.380343 0.10394
H_ H_ 0.0346626 0.444177 0.383868 0.10394
H_ H_ 0.477434 0.375398 0.387598 0.10394
H_ H_ 0.347972 0.487095 0.403265 0.10394
H_ H_ 0.072876 0.307771 0.13797 0.10394
H_ H_ 0.478197 0.292934 0.0988569 0.10394
H_ H_ 0.0308915 0.314886 0.461223 0.10394
H_ H_ 0.112192 0.330768 0.990095 0.10394
H_ H_ 0.214957 0.242093 0.100508 0.10394
H_ H_ 0.259368 0.201978 0.177509 0.10394
H_ H_ 0.22883 0.342313 0.26786 0.10394
H_ H_ 0.182128 0.38309 0.1918 0.10394
H_ H_ 0.212483 0.380075 0.46118 0.10394
H_ H_ 0.2633 0.37821 0.391883 0.10394
H_ H_ 0.39445 0.40018 0.498841 0.10394
H_ H_ 0.311678 0.398762 0.168754 0.10394
H_ H_ 0.233939 0.450235 0.192867 0.10394
H_ H_ 0.338853 0.0535243 0.281438 0.10394
H_ H_ 0.399764 0.510037 0.242554 0.10394
H_ H_ 0.00530983 0.392455 0.222124 0.10394
H_ H_ 0.0394569 0.316938 0.276742 0.10394
H_ H_ 0.419801 0.240878 0.204986 0.10394
H_ H_ 0.376377 0.322447 0.179961 0.10394
H_ H_ 0.468343 0.0480075 0.0958756 0.10394
H_ H_ 0.0166144 0.1163 0.105922 0.10394
H_ H_ 0.148266 0.00141521 0.109839 0.10394
H_ H_ 0.447427 0.154192 0.415939 0.10394
H_ H_ 0.0223148 0.206144 0.454055 0.10394
H_ H_ 0.401164 0.297926 0.0232036 0.10394
H_ H_ 0.341191 0.231902 0.510008 0.10394
H_ H_ 0.236348 0.185283 0.375406 0.10394
H_ H_ 0.196396 0.231053 0.299019 0.10394
H_ H_ 0.346976 0.24728 0.261747 0.10394
H_ H_ 0.38651 0.194103 0.337206 0.10394
H_ H_ 0.281407 0.121455 0.0488524 0.10394
H_ H_ 0.231124 0.0960313 0.117005 0.10394
H_ H_ 0.105463 0.0775056 0.00759888 0.10394
C_ C_ 0.179878 0.090852 0.303564 0.18167
C_ C_ 0.226305 0.0735628 0.286169 -0.15533
C_ C_ 0.242021 0.0206077 0.28349 0.02923
C_ C_ 0.196261 0.49185 0.291191 -0.15533
C_ C_ 0.161071 0.00516164 0.31646 0.18167
C_ C_ 0.0252432 0.135293 0.262788 0.18167
C_ C_ 0.514183 0.174337 0.238417 -0.15533
C_ C_ 0.00420071 0.227294 0.270892 0.02923
C_ C_ 0.0282951 0.228602 0.321966 -0.15533
C_ C_ 0.049345 0.180084 0.341908 0.18167
C_ C_ 0.0108521 0.0386319 0.376194 0.69207
C_ C_ 0.472514 0.500459 0.379107 0.02923
C_ C_ 0.491542 0.446979 0.374349 -0.15533
C_ C_ 0.458321 0.410677 0.379687 -0.15533
C_ C_ 0.408241 0.424797 0.393975 0.02923
C_ C_ 0.388238 0.476957 0.3918 -0.15533
C_ C_ 0.423098 0.514265 0.390424 0.02923
C_ C_ 0.402466 0.0716713 0.388586 0.69207
C_ C_ 0.391909 0.330605 0.39357 0.69661
C_ C_ 0.065061 0.298194 0.0965495 0.18167
C_ C_ 0.0211904 0.27848 0.0764508 -0.15533
C_ C_ 0.0127886 0.269469 0.0227664 0.02923
C_ C_ 0.0455429 0.302663 0.49781 -0.15533
C_ C_ 0.0874061 0.311968 0.0129189 0.18167
C_ C_ 0.221021 0.264448 0.137828 0.18167
C_ C_ 0.244524 0.242126 0.180956 -0.15533
C_ C_ 0.248864 0.270281 0.227953 0.02923
C_ C_ 0.225656 0.320587 0.233068 -0.15533
C_ C_ 0.198585 0.342839 0.189774 0.18167
C_ C_ 0.239239 0.366071 0.0467792 0.69207
C_ C_ 0.274313 0.388638 0.51881 0.02923
C_ C_ 0.253347 0.382432 0.468891 -0.15533
C_ C_ 0.281209 0.391125 0.429636 -0.15533
C_ C_ 0.33555 0.396 0.436874 0.02923
C_ C_ 0.355466 0.402034 0.489262 -0.15533
C_ C_ 0.327442 0.393478 0.528766 0.02923
C_ C_ 0.349305 0.386937 0.0728223 0.69207
C_ C_ 0.340446 0.389999 0.338968 0.69661
C_ C_ 0.314423 0.434632 0.189865 0.18167
C_ C_ 0.271539 0.459661 0.210142 -0.15533
C_ C_ 0.277373 0.497519 0.250014 0.02923
C_ C_ 0.333628 0.0190159 0.257631 -0.15533
C_ C_ 0.363541 0.498034 0.22935 0.18167
C_ C_ 0.490744 0.360889 0.217882 0.18167
C_ C_ 0.00589796 0.317668 0.251222 -0.15533
C_ C_ 0.491041 0.27004 0.235624 0.02923
C_ C_ 0.439688 0.273255 0.212214 -0.15533
C_ C_ 0.415744 0.320564 0.194753 0.18167
C_ C_ 0.486124 0.464287 0.129593 0.69207
C_ C_ 0.0216038 0.986898 0.115214 0.02923
C_ C_ 0.00450883 0.0406745 0.121493 -0.15533
C_ C_ 0.0341031 0.0768671 0.106213 -0.15533
C_ C_ 0.0880039 0.0656277 0.103539 0.02923
C_ C_ 0.107176 0.0136722 0.104911 -0.15533
C_ C_ 0.0738723 0.97505 0.105837 0.02923
C_ C_ 0.0975501 0.421609 0.112323 0.69207
C_ C_ 0.099585 0.158136 0.101917 0.69661
C_ C_ 0.439394 0.180655 0.447273 0.18167
C_ C_ 0.478209 0.201729 0.477737 -0.15533
C_ C_ 0.466904 0.243586 0.510847 0.02923
C_ C_ 0.414769 0.262284 0.00599885 -0.15533
C_ C_ 0.379955 0.223769 0.50076 0.18167
C_ C_ 0.261191 0.199181 0.350909 0.18167
C_ C_ 0.239267 0.227317 0.309059 -0.15533
C_ C_ 0.269961 0.242525 0.273119 0.02923
C_ C_ 0.322572 0.233604 0.287935 -0.15533
C_ C_ 0.34392 0.200856 0.327309 0.18167
C_ C_ 0.25976 0.122575 0.453106 0.69207
C_ C_ 0.223487 0.108768 0.988439 0.02923
C_ C_ 0.242766 0.107422 0.038994 -0.15533
C_ C_ 0.213526 0.0989808 0.0786162 -0.15533
C_ C_ 0.161581 0.096357 0.0693144 0.02923
C_ C_ 0.142593 0.0850303 0.0181466 -0.15533
C_ C_ 0.172545 0.094143 0.977955 0.02923
C_ C_ 0.147303 0.11214 0.429337 0.69207
C_ C_ 0.149616 0.108936 0.166943 0.69661
C_ C_ 0.368906 0.38531 0.391836 -0.30787
C_ C_ 0.125124 0.104969 0.109805 -0.30787
N_ N_ 0.145914 0.056208 0.314475 -0.32189
N_ N_ 0.0499634 0.137202 0.312024 -0.32189
N_ N_ 0.100101 0.309117 0.0654424 -0.32189
N_ N_ 0.196323 0.313382 0.143754 -0.32189
N_ N_ 0.359356 0.453153 0.200497 -0.32189
N_ N_ 0.44208 0.361435 0.19447 -0.32189
N_ N_ 0.390842 0.190211 0.461083 -0.32189
N_ N_ 0.311745 0.185612 0.358614 -0.32189
O_ O_ 0.509921 0.0813979 0.398957 -0.63271
O_ O_ 0.0388222 0.0332404 0.33714 -0.57982
O_ O_ 0.409223 0.102112 0.35519 -0.63271
O_ O_ 0.369131 0.089741 0.420047 -0.57982
O_ O_ 0.243915 0.389113 0.0909159 -0.63271
O_ O_ 0.198747 0.342589 0.0330104 -0.57982
O_ O_ 0.349348 0.34289 0.0951608 -0.63271
O_ O_ 0.38541 0.417868 0.0904876 -0.57982
O_ O_ 0.99061 0.403408 0.104532 -0.63271
O_ O_ 0.450161 0.475416 0.160142 -0.57982
O_ O_ 0.0931885 0.395808 0.151446 -0.63271
O_ O_ 0.131375 0.403948 0.0793731 -0.57982
O_ O_ 0.252469 0.105228 0.404596 -0.63271
O_ O_ 0.298549 0.149994 0.464363 -0.57982
O_ O_ 0.151344 0.152407 0.400069 -0.63271
O_ O_ 0.115837 0.0804029 0.408926 -0.57982
F_ F_ 0.431464 0.319482 0.432775 -0.20885
F_ F_ 0.409161 0.314436 0.345722 -0.20885
F_ F_ 0.356144 0.298348 0.401439 -0.20885
F_ F_ 0.306252 0.431623 0.332893 -0.20885
F_ F_ 0.31379 0.349161 0.323472 -0.20885
F_ F_ 0.373154 0.392244 0.300709 -0.20885
F_ F_ 0.0725361 0.164378 0.0560901 -0.20885
F_ F_ 0.0644179 0.17853 0.135844 -0.20885
F_ F_ 0.131399 0.19613 0.103031 -0.20885
F_ F_ 0.179297 0.0633785 0.178257 -0.20885
F_ F_ 0.183055 0.147113 0.176381 -0.20885
F_ F_ 0.113952 0.121565 0.201658 -0.20885
Zn Zn 0.093166 0.0758484 0.843238 0.83971
Zn Zn 0.162784 0.347773 0.592685 0.83971
Zn Zn 0.404767 0.422119 0.662985 0.83971
Zn Zn 0.338536 0.151949 0.916474 0.83971
H_ H_ 0.167934 0.124817 0.800052 0.10394
H_ H_ 0.252527 0.0906122 0.767826 0.10394
H_ H_ 0.206059 0.444894 0.796135 0.10394
H_ H_ 0.139276 0.971366 0.816541 0.10394
H_ H_ 0.55626 0.110418 0.744364 0.10394
H_ H_ 0.509282 0.182419 0.703381 0.10394
H_ H_ 0.0292091 0.255361 0.829418 0.10394
H_ H_ 0.0705885 0.180196 0.877222 0.10394
H_ H_ 0.0268382 0.441302 0.872469 0.10394
H_ H_ 0.484884 0.387638 0.888223 0.10394
H_ H_ 0.349219 0.494972 0.89551 0.10394
H_ H_ 0.0851165 0.296121 0.641668 0.10394
H_ H_ 0.493749 0.297006 0.603346 0.10394
H_ H_ 0.0342725 0.286492 0.947471 0.10394
H_ H_ 0.11928 0.331773 0.497032 0.10394
H_ H_ 0.234805 0.261038 0.597073 0.10394
H_ H_ 0.269021 0.205072 0.667944 0.10394
H_ H_ 0.216512 0.322812 0.7756 0.10394
H_ H_ 0.180929 0.374397 0.704404 0.10394
H_ H_ 0.219084 0.360595 0.946552 0.10394
H_ H_ 0.26545 0.383824 0.881854 0.10394
H_ H_ 0.392817 0.414459 0.995515 0.10394
H_ H_ 0.304562 0.389878 0.677799 0.10394
H_ H_ 0.227961 0.44314 0.703851 0.10394
H_ H_ 0.339393 0.0432366 0.768813 0.10394
H_ H_ 0.394745 0.510232 0.733439 0.10394
H_ H_ 0.00308405 0.38058 0.706783 0.10394
H_ H_ 0.0500858 0.306938 0.748411 0.10394
H_ H_ 0.421335 0.240273 0.721464 0.10394
H_ H_ 0.371236 0.31946 0.69049 0.10394
H_ H_ 0.471239 0.0598624 0.615357 0.10394
H_ H_ 0.0246153 0.120632 0.612947 0.10394
H_ H_ 0.140263 -0.00064148 0.586077 0.10394
H_ H_ 0.445172 0.131113 0.945482 0.10394
H_ H_ 0.0192737 0.196897 0.948159 0.10394
H_ H_ 0.404946 0.285188 0.545053 0.10394
H_ H_ 0.334155 0.249662 -0.012959000000000054 0.10394
H_ H_ 0.233627 0.176071 0.875086 0.10394
H_ H_ 0.19633 0.211888 0.793472 0.10394
H_ H_ 0.347643 0.238572 0.762633 0.10394
H_ H_ 0.380983 0.194956 0.836259 0.10394
H_ H_ 0.288368 0.115033 0.556761 0.10394
H_ H_ 0.236131 0.0980483 0.622109 0.10394
H_ H_ 0.104601 0.0964788 0.51515 0.10394
C_ C_ 0.180257 0.0822318 0.797821 0.18167
C_ C_ 0.227204 0.0658064 0.780847 -0.15533
C_ C_ 0.238976 0.011921 0.766548 0.02923
C_ C_ 0.198363 0.485956 0.797816 -0.15533
C_ C_ 0.16199 -0.0034089999999999954 0.799722 0.18167
C_ C_ 0.0320594 0.125972 0.76254 0.18167
C_ C_ 0.521843 0.185766 0.743881 -0.15533
C_ C_ 0.0110377 0.216231 0.760931 0.02923
C_ C_ 0.0263917 0.219746 0.813364 -0.15533
C_ C_ 0.052831 0.178899 0.837683 0.18167
C_ C_ 0.0132396 0.0361171 0.865486 0.69207
C_ C_ 0.472255 0.518909 0.88878 0.02923
C_ C_ 0.495298 0.467404 0.890664 -0.15533
C_ C_ 0.465274 0.425699 0.892777 -0.15533
C_ C_ 0.412053 0.436329 0.897125 0.02923
C_ C_ 0.391248 0.487439 0.895363 -0.15533
C_ C_ 0.420628 0.529384 0.893292 0.02923
C_ C_ 0.394681 0.0759775 0.875959 0.69207
C_ C_ 0.40455 0.336511 0.898355 0.69661
C_ C_ 0.0741361 0.29582 0.600621 0.18167
C_ C_ 0.0278583 0.27568 0.579599 -0.15533
C_ C_ 0.0135685 0.27952 0.527378 0.02923
C_ C_ 0.0436244 0.291214 0.990798 -0.15533
C_ C_ 0.0938744 0.31503 0.518718 0.18167
C_ C_ 0.229295 0.270114 0.636036 0.18167
C_ C_ 0.251032 0.241206 0.676118 -0.15533
C_ C_ 0.245813 0.259731 0.726851 0.02923
C_ C_ 0.221513 0.308622 0.73647 -0.15533
C_ C_ 0.198204 0.335468 0.696063 0.18167
C_ C_ 0.240416 0.379464 0.559955 0.69207
C_ C_ 0.272812 0.379059 0.00827712 0.02923
C_ C_ 0.255197 0.374436 0.957964 -0.15533
C_ C_ 0.286636 0.382611 0.919954 -0.15533
C_ C_ 0.335742 0.398894 0.930296 0.02923
C_ C_ 0.354327 0.403929 0.98231 -0.15533
C_ C_ 0.323912 0.39199 0.0210049 0.02923
C_ C_ 0.351125 0.394144 0.581767 0.69207
C_ C_ 0.354599 0.391102 0.833385 0.69661
C_ C_ 0.30936 0.425309 0.702163 0.18167
C_ C_ 0.26459 0.454378 0.717022 -0.15533
C_ C_ 0.272187 0.497965 0.750051 0.02923
C_ C_ 0.329555 0.0137186 0.743057 -0.15533
C_ C_ 0.358239 0.493442 0.729267 0.18167
C_ C_ 0.486437 0.361768 0.721316 0.18167
C_ C_ 0.00817679 0.306971 0.734558 -0.15533
C_ C_ 0.486006 0.277944 0.750063 0.02923
C_ C_ 0.438167 0.276026 0.725514 -0.15533
C_ C_ 0.412234 0.320855 0.70432 0.18167
C_ C_ 0.479799 0.459168 0.630958 0.69207
C_ C_ 0.0179633 0.991689 0.602127 0.02923
C_ C_ 0.00212503 0.0446635 0.60795 -0.15533
C_ C_ 0.0359329 0.0794176 0.608848 -0.15533
C_ C_ 0.0884362 0.0652713 0.601443 0.02923
C_ C_ 0.102107 0.0139142 0.594596 -0.15533
C_ C_ 0.0698593 0.978224 0.600195 0.02923
C_ C_ 0.0950016 0.422032 0.617573 0.69207
C_ C_ 0.111588 0.162924 0.617308 0.69661
C_ C_ 0.435971 0.170255 0.955837 0.18167
C_ C_ 0.47525 0.194226 0.982896 -0.15533
C_ C_ 0.46635 0.243796 1.00553325 0.02923
C_ C_ 0.41772 0.253145 0.527253 -0.15533
C_ C_ 0.37583 0.23794 0.977719 0.18167
C_ C_ 0.256868 0.187899 0.846966 0.18167
C_ C_ 0.236717 0.210524 0.802891 -0.15533
C_ C_ 0.268524 0.231296 0.771531 0.02923
C_ C_ 0.321253 0.227052 0.787192 -0.15533
C_ C_ 0.340572 0.202776 0.828184 0.18167
C_ C_ 0.256198 0.119458 0.948936 0.69207
C_ C_ 0.22983 0.110679 0.492232 0.02923
C_ C_ 0.250923 0.10639 0.543196 -0.15533
C_ C_ 0.217584 0.101308 0.581626 -0.15533
C_ C_ 0.16668 0.0999737 0.570325 0.02923
C_ C_ 0.145857 0.100261 0.520839 -0.15533
C_ C_ 0.176145 0.106961 0.480377 0.02923
C_ C_ 0.147699 0.100226 0.926782 0.69207
C_ C_ 0.151596 0.0914948 0.668873 0.69661
C_ C_ 0.37525 0.392561 0.891087 -0.30787
C_ C_ 0.129664 0.104204 0.61262 -0.30787
N_ N_ 0.14741 0.04866 0.804989 -0.32189
N_ N_ 0.0546837 0.132128 0.810722 -0.32189
N_ N_ 0.107302 0.308743 0.568362 -0.32189
N_ N_ 0.201864 0.315965 0.646518 -0.32189
N_ N_ 0.35282 0.44933 0.702404 -0.32189
N_ N_ 0.437959 0.361103 0.697527 -0.32189
N_ N_ 0.386569 0.189597 0.954504 -0.32189
N_ N_ 0.309868 0.179117 0.855102 -0.32189
O_ O_ 0.504556 0.0927312 0.887612 -0.63271
O_ O_ 0.0500973 0.0261566 0.836304 -0.57982
O_ O_ 0.390346 0.101601 0.834601 -0.63271
O_ O_ 0.363341 0.0877436 0.911519 -0.57982
O_ O_ 0.242899 0.404596 0.604792 -0.63271
O_ O_ 0.207642 0.347005 0.549249 -0.57982
O_ O_ 0.367656 0.350891 0.60172 -0.63271
O_ O_ 0.365601 0.435341 0.603966 -0.57982
O_ O_ 0.987726 0.404077 0.603973 -0.63271
O_ O_ 0.442333 0.472525 0.659973 -0.57982
O_ O_ 0.0911716 0.395664 0.657048 -0.63271
O_ O_ 0.132396 0.409825 0.588817 -0.57982
O_ O_ 0.263037 0.0857252 0.910515 -0.63271
O_ O_ 0.285599 0.155414 0.956468 -0.57982
O_ O_ 0.152293 0.138554 0.900459 -0.63271
O_ O_ 0.121931 0.063735 0.904461 -0.57982
F_ F_ 0.441722 0.333045 0.939878 -0.20885
F_ F_ 0.433745 0.319389 0.857738 -0.20885
F_ F_ 0.371579 0.298528 0.90008 -0.20885
F_ F_ 0.317981 0.431438 0.826153 -0.20885
F_ F_ 0.331348 0.347351 0.814849 -0.20885
F_ F_ 0.391465 0.388657 0.802084 -0.20885
F_ F_ 0.0810637 0.181311 0.573213 -0.20885
F_ F_ 0.0829032 0.173641 0.659489 -0.20885
F_ F_ 0.148791 0.196733 0.624248 -0.20885
F_ F_ 0.177977 0.0454888 0.674245 -0.20885
F_ F_ 0.186013 0.125095 0.691381 -0.20885
F_ F_ 0.111953 0.0929664 0.700044 -0.20885
Zn Zn 0.0913183 0.584776 0.352846 0.83971
Zn Zn 0.168403 0.845958 0.0814842 0.83971
Zn Zn 0.416892 0.921559 0.155247 0.83971
Zn Zn 0.338544 0.648357 0.418765 0.83971
H_ H_ 0.168488 0.635852 0.308013 0.10394
H_ H_ 0.24958 0.600611 0.276555 0.10394
H_ H_ 0.221945 0.948273 0.304574 0.10394
H_ H_ 0.125129 0.488399 0.319483 0.10394
H_ H_ 0.530456 0.598795 0.246512 0.10394
H_ H_ 0.488518 0.668919 0.201393 0.10394
H_ H_ 0.0352087 0.771364 0.336959 0.10394
H_ H_ 0.0769123 0.693877 0.38956 0.10394
H_ H_ 0.0330003 0.937973 0.38258 0.10394
H_ H_ 0.478503 0.873934 0.358238 0.10394
H_ H_ 0.360154 0.983781 0.410767 0.10394
H_ H_ 0.0909702 0.790577 0.126635 0.10394
H_ H_ 0.505455 0.767257 0.0959467 0.10394
H_ H_ 0.0413588 0.785376 0.443651 0.10394
H_ H_ 0.11772 0.831959 0.977531 0.10394
H_ H_ 0.208479 0.741745 0.0955621 0.10394
H_ H_ 0.252697 0.696775 0.166055 0.10394
H_ H_ 0.215277 0.823622 0.268636 0.10394
H_ H_ 0.180329 0.871784 0.191734 0.10394
H_ H_ 0.217063 0.872614 0.430221 0.10394
H_ H_ 0.279941 0.86385 0.366661 0.10394
H_ H_ 0.393131 0.911885 0.4866 0.10394
H_ H_ 0.322449 0.89856 0.171565 0.10394
H_ H_ 0.245307 0.942757 0.210364 0.10394
H_ H_ 0.331776 0.547611 0.287245 0.10394
H_ H_ 0.405921 0.0184819 0.234196 0.10394
H_ H_ -0.000234657 0.887561 0.218062 0.10394
H_ H_ 0.0358092 0.81915 0.268607 0.10394
H_ H_ 0.417597 0.752048 0.227297 0.10394
H_ H_ 0.379643 0.826035 0.174465 0.10394
H_ H_ 0.465922 0.565192 0.130219 0.10394
H_ H_ 0.0148341 0.612616 0.110922 0.10394
H_ H_ 0.139489 0.500338 0.07813 0.10394
H_ H_ 0.437772 0.663728 0.387609 0.10394
H_ H_ 0.0190089 0.683689 0.446116 0.10394
H_ H_ 0.419792 0.771673 0.0508736 0.10394
H_ H_ 0.345489 0.726293 0.499851 0.10394
H_ H_ 0.230938 0.681979 0.381578 0.10394
H_ H_ 0.19009 0.715047 0.298318 0.10394
H_ H_ 0.338406 0.739013 0.260094 0.10394
H_ H_ 0.375995 0.683558 0.326675 0.10394
H_ H_ 0.281767 0.620799 0.0520627 0.10394
H_ H_ 0.230328 0.598292 0.120105 0.10394
H_ H_ 0.102151 0.591162 0.00757644 0.10394
C_ C_ 0.177419 0.59624 0.305981 0.18167
C_ C_ 0.22336 0.574975 0.287259 -0.15533
C_ C_ 0.233445 0.521755 0.27885 0.02923
C_ C_ 0.207711 0.986978 0.299519 -0.15533
C_ C_ 0.152351 0.513403 0.30713 0.18167
C_ C_ 0.0312107 0.635427 0.280245 0.18167
C_ C_ 0.510705 0.676484 0.237407 -0.15533
C_ C_ 0.00330121 0.725133 0.275085 0.02923
C_ C_ 0.0319064 0.733685 0.323559 -0.15533
C_ C_ 0.0542839 0.691007 0.351357 0.18167
C_ C_ 0.0103841 0.545708 0.380251 0.69207
C_ C_ 0.473732 0.0051997 0.36502 0.02923
C_ C_ 0.491935 0.954138 0.354869 -0.15533
C_ C_ 0.46152 0.913644 0.36363 -0.15533
C_ C_ 0.415222 0.923424 0.386187 0.02923
C_ C_ 0.398032 0.975758 0.396776 -0.15533
C_ C_ 0.426144 0.0158504 0.385116 0.02923
C_ C_ 0.399569 0.568391 0.390339 0.69207
C_ C_ 0.402835 0.826117 0.38369 0.69661
C_ C_ 0.0805429 0.795102 0.0869688 0.18167
C_ C_ 0.0336567 0.775939 0.0689366 -0.15533
C_ C_ 0.0246463 0.767359 0.0159366 0.02923
C_ C_ 0.0489881 0.786358 0.485553 -0.15533
C_ C_ 0.0987345 0.811121 0.0029808 0.18167
C_ C_ 0.216107 0.76224 0.133281 0.18167
C_ C_ 0.238087 0.734003 0.173545 -0.15533
C_ C_ 0.236455 0.75276 0.223568 0.02923
C_ C_ 0.214204 0.804939 0.229705 -0.15533
C_ C_ 0.198331 0.833484 0.187726 0.18167
C_ C_ 0.256014 0.869973 0.0475083 0.69207
C_ C_ 0.272943 0.880532 0.495422 0.02923
C_ C_ 0.256543 0.87457 0.442446 -0.15533
C_ C_ 0.290692 0.875192 0.406646 -0.15533
C_ C_ 0.340503 0.88616 0.419479 0.02923
C_ C_ 0.353831 0.90167 0.471833 -0.15533
C_ C_ 0.324815 0.889859 0.510133 0.02923
C_ C_ 0.368067 0.889513 0.0643281 0.69207
C_ C_ 0.353973 0.884544 0.323508 0.69661
C_ C_ 0.323386 0.932177 0.193543 0.18167
C_ C_ 0.280415 0.955877 0.218057 -0.15533
C_ C_ 0.285593 0.99914 0.251397 0.02923
C_ C_ 0.324633 0.518498 0.257118 -0.15533
C_ C_ 0.373453 0.999932 0.228834 0.18167
C_ C_ 0.498134 0.857082 0.20082 0.18167
C_ C_ 0.00288627 0.813469 0.244056 -0.15533
C_ C_ 0.494706 0.770832 0.229764 0.02923
C_ C_ 0.440567 0.778519 0.214542 -0.15533
C_ C_ 0.419498 0.82208 0.190819 0.18167
C_ C_ 0.499468 0.953317 0.123016 0.69207
C_ C_ 0.0223332 0.485258 0.117235 0.02923
C_ C_ 0.0016899999999999693 0.536197 0.109441 -0.15533
C_ C_ 0.0328146 0.573216 0.102676 -0.15533
C_ C_ 0.0834781 0.562852 0.0971741 0.02923
C_ C_ 0.0998409 0.511319 0.0894258 -0.15533
C_ C_ 0.0707586 0.472688 0.103321 0.02923
C_ C_ 0.100342 0.920732 0.107426 0.69207
C_ C_ 0.100647 0.659337 0.107322 0.69661
C_ C_ 0.43721 0.68357 0.425446 0.18167
C_ C_ 0.477436 0.705984 0.450242 -0.15533
C_ C_ 0.470444 0.742317 0.490588 0.02923
C_ C_ 0.42533 0.745808 0.0166894 -0.15533
C_ C_ 0.383084 0.722447 0.484491 0.18167
C_ C_ 0.255615 0.687298 0.352515 0.18167
C_ C_ 0.230433 0.712163 0.306873 -0.15533
C_ C_ 0.260772 0.724888 0.268887 0.02923
C_ C_ 0.31385 0.714191 0.276799 -0.15533
C_ C_ 0.335692 0.690078 0.320816 0.18167
C_ C_ 0.2652 0.617078 0.458488 0.69207
C_ C_ 0.22039 0.619844 0.991193 0.02923
C_ C_ 0.240435 0.617955 0.0429677 -0.15533
C_ C_ 0.212821 0.604892 0.0820836 -0.15533
C_ C_ 0.160314 0.59685 0.068785 0.02923
C_ C_ 0.141342 0.598678 0.0176731 -0.15533
C_ C_ 0.171407 0.605312 0.979003 0.02923
C_ C_ 0.154531 0.602676 0.430611 0.69207
C_ C_ 0.143562 0.595277 0.165467 0.69661
C_ C_ 0.378537 0.882 0.378252 -0.30787
C_ C_ 0.121444 0.601753 0.106849 -0.30787
N_ N_ 0.143259 0.564283 0.313955 -0.32189
N_ N_ 0.0539293 0.644004 0.328336 -0.32189
N_ N_ 0.112805 0.810245 0.0536693 -0.32189
N_ N_ 0.199519 0.811561 0.140125 -0.32189
N_ N_ 0.366521 0.956453 0.193685 -0.32189
N_ N_ 0.447613 0.85895 0.182577 -0.32189
N_ N_ 0.393066 0.68654 0.446286 -0.32189
N_ N_ 0.30627 0.679772 0.357215 -0.32189
O_ O_ 0.504926 0.585015 0.402619 -0.63271
O_ O_ 0.0457409 0.538134 0.348421 -0.57982
O_ O_ 0.391363 0.588356 0.345582 -0.63271
O_ O_ 0.369531 0.585329 0.423958 -0.57982
O_ O_ 0.258064 0.896827 0.090733 -0.63271
O_ O_ 0.216563 0.841818 0.0354002 -0.57982
O_ O_ 0.367188 0.848091 0.0875869 -0.63271
O_ O_ 0.381052 0.928837 0.0924033 -0.57982
O_ O_ 0.993443 0.900909 0.105588 -0.63271
O_ O_ 0.46507 0.967213 0.155431 -0.57982
O_ O_ 0.101908 0.893923 0.147089 -0.63271
O_ O_ 0.136962 0.910558 0.0805629 -0.57982
O_ O_ 0.264816 0.589639 0.415997 -0.63271
O_ O_ 0.294572 0.655216 0.465299 -0.57982
O_ O_ 0.160616 0.643269 0.407438 -0.63271
O_ O_ 0.115977 0.576288 0.415386 -0.57982
F_ F_ 0.438297 0.824277 0.424831 -0.20885
F_ F_ 0.427107 0.807574 0.342774 -0.20885
F_ F_ 0.370778 0.787532 0.390138 -0.20885
F_ F_ 0.323624 0.928446 0.320228 -0.20885
F_ F_ 0.326687 0.844341 0.304464 -0.20885
F_ F_ 0.387241 0.888062 0.286917 -0.20885
F_ F_ 0.0643229 0.668089 0.0661918 -0.20885
F_ F_ 0.0714286 0.674184 0.149159 -0.20885
F_ F_ 0.135596 0.693017 0.108439 -0.20885
F_ F_ 0.172172 0.548244 0.17035 -0.20885
F_ F_ 0.17315 0.632306 0.19038 -0.20885
F_ F_ 0.104148 0.590645 0.194683 -0.20885
Zn Zn 0.0809664 0.586064 0.843366 0.83971
Zn Zn 0.160316 0.843974 0.579765 0.83971
Zn Zn 0.411455 0.918084 0.642209 0.83971
Zn Zn 0.332473 0.662282 0.916411 0.83971
H_ H_ 0.16348 0.630483 0.813507 0.10394
H_ H_ 0.247897 0.595235 0.779209 0.10394
H_ H_ 0.21447 0.93465 0.772124 0.10394
H_ H_ 0.126235 0.482729 0.830158 0.10394
H_ H_ 0.5223 0.601623 0.752979 0.10394
H_ H_ 0.48368 0.674724 0.69642 0.10394
H_ H_ 0.0332907 0.772738 0.820513 0.10394
H_ H_ 0.0698568 0.699598 0.873782 0.10394
H_ H_ 0.0325468 0.930124 0.856439 0.10394
H_ H_ 0.473777 0.880442 0.848636 0.10394
H_ H_ 0.352352 0.992011 0.884358 0.10394
H_ H_ 0.0817113 0.80608 0.631019 0.10394
H_ H_ 0.504828 0.756253 0.589932 0.10394
H_ H_ 0.0422186 0.789864 0.945125 0.10394
H_ H_ 0.121495 0.813574 0.482271 0.10394
H_ H_ 0.227242 0.749506 0.594537 0.10394
H_ H_ 0.267022 0.710575 0.677545 0.10394
H_ H_ 0.228558 0.851919 0.756561 0.10394
H_ H_ 0.179691 0.885714 0.67547 0.10394
H_ H_ 0.224389 0.87587 0.948995 0.10394
H_ H_ 0.265665 0.883101 0.874963 0.10394
H_ H_ 0.401937 0.908044 0.975826 0.10394
H_ H_ 0.310533 0.898729 0.647044 0.10394
H_ H_ 0.235954 0.948327 0.677973 0.10394
H_ H_ 0.32649 0.549666 0.777338 0.10394
H_ H_ 0.406553 0.0006900000000000794 0.728395 0.10394
H_ H_ 0.00884065 0.884189 0.697755 0.10394
H_ H_ 0.050756 0.807162 0.73642 0.10394
H_ H_ 0.413912 0.754125 0.728663 0.10394
H_ H_ 0.367859 0.836022 0.693995 0.10394
H_ H_ 0.46219 0.561533 0.618798 0.10394
H_ H_ 0.0119203 0.615398 0.602483 0.10394
H_ H_ 0.145334 0.501115 0.613354 0.10394
H_ H_ 0.432688 0.673837 0.886754 0.10394
H_ H_ 0.0222951 0.689316 0.94461 0.10394
H_ H_ 0.417013 0.782787 0.535708 0.10394
H_ H_ 0.350456 0.723925 0.0127398 0.10394
H_ H_ 0.225944 0.709593 0.885797 0.10394
H_ H_ 0.190245 0.75097 0.807397 0.10394
H_ H_ 0.334061 0.733302 0.748657 0.10394
H_ H_ 0.370213 0.686186 0.825063 0.10394
H_ H_ 0.282582 0.628303 0.559599 0.10394
H_ H_ 0.22877 0.619386 0.625717 0.10394
H_ H_ 0.114026 0.575246 0.508962 0.10394
C_ C_ 0.174396 0.589961 0.8088 0.18167
C_ C_ 0.220132 0.569734 0.789032 -0.15533
C_ C_ 0.232381 0.518673 0.782852 0.02923
C_ C_ 0.206963 0.978062 0.779422 -0.15533
C_ C_ 0.150837 0.506773 0.81092 0.18167
C_ C_ 0.0199873 0.633344 0.769449 0.18167
C_ C_ 0.506168 0.681502 0.732183 -0.15533
C_ C_ 0.00184105 0.724361 0.759964 0.02923
C_ C_ 0.0293455 0.732222 0.80688 -0.15533
C_ C_ 0.0515086 0.69053 0.834058 0.18167
C_ C_ 0.00409881 0.543202 0.864671 0.69207
C_ C_ 0.471233 0.0105548 0.862354 0.02923
C_ C_ 0.489353 0.959733 0.853137 -0.15533
C_ C_ 0.458854 0.920141 0.859437 -0.15533
C_ C_ 0.410269 0.931676 0.878403 0.02923
C_ C_ 0.392867 0.982749 0.884865 -0.15533
C_ C_ 0.421788 0.0224605 0.874733 0.02923
C_ C_ 0.393688 0.57911 0.881967 0.69207
C_ C_ 0.398265 0.83281 0.877688 0.69661
C_ C_ 0.0711192 0.797837 0.590586 0.18167
C_ C_ 0.027755 0.775562 0.572086 -0.15533
C_ C_ 0.0168615 0.768989 0.517342 0.02923
C_ C_ 0.056906 0.786174 0.982891 -0.15533
C_ C_ 0.0950472 0.802772 0.507043 0.18167
C_ C_ 0.220851 0.767766 0.631285 0.18167
C_ C_ 0.241236 0.746485 0.677814 -0.15533
C_ C_ 0.238605 0.772998 0.724386 0.02923
C_ C_ 0.215813 0.825488 0.727 -0.15533
C_ C_ 0.194222 0.845064 0.680244 0.18167
C_ C_ 0.240021 0.87638 0.535202 0.69207
C_ C_ 0.28633 0.881479 0.00558402 0.02923
C_ C_ 0.263174 0.883105 0.956083 -0.15533
C_ C_ 0.288923 0.886833 0.912974 -0.15533
C_ C_ 0.337785 0.899416 0.919565 0.02923
C_ C_ 0.361946 0.903065 0.970964 -0.15533
C_ C_ 0.338311 0.894656 0.0153667 0.02923
C_ C_ 0.351533 0.889758 0.563468 0.69207
C_ C_ 0.342641 0.891189 0.819679 0.69661
C_ C_ 0.315026 0.934828 0.669776 0.18167
C_ C_ 0.271661 0.96152 0.689663 -0.15533
C_ C_ 0.280814 0.996605 0.732419 0.02923
C_ C_ 0.317873 0.518664 0.751906 -0.15533
C_ C_ 0.369145 0.988447 0.717608 0.18167
C_ C_ 0.490098 0.853556 0.680139 0.18167
C_ C_ 0.0107251 0.8069 0.719593 -0.15533
C_ C_ 0.485748 0.776372 0.719864 0.02923
C_ C_ 0.433698 0.784556 0.715313 -0.15533
C_ C_ 0.408927 0.827568 0.692312 0.18167
C_ C_ 0.491659 0.957653 0.613654 0.69207
C_ C_ 0.0202958 0.487795 0.623577 0.02923
C_ C_ 0.999678565 0.536689 0.613742 -0.15533
C_ C_ 0.0327346 0.575742 0.609702 -0.15533
C_ C_ 0.0854938 0.564225 0.608578 0.02923
C_ C_ 0.105055 0.513585 0.613832 -0.15533
C_ C_ 0.0733872 0.475074 0.622328 0.02923
C_ C_ 0.0933153 0.924607 0.602642 0.69207
C_ C_ 0.0958451 0.660387 0.604141 0.69661
C_ C_ 0.428458 0.699709 0.91986 0.18167
C_ C_ 0.473013 0.714438 0.945724 -0.15533
C_ C_ 0.470897 0.742697 -0.007665999999999951 0.02923
C_ C_ 0.423943 0.749723 0.509213 -0.15533
C_ C_ 0.382319 0.725037 0.991683 0.18167
C_ C_ 0.252492 0.714239 0.857313 0.18167
C_ C_ 0.230894 0.742432 0.814595 -0.15533
C_ C_ 0.261396 0.751008 0.774585 0.02923
C_ C_ 0.312347 0.732736 0.779875 -0.15533
C_ C_ 0.331245 0.703459 0.822057 0.18167
C_ C_ 0.255633 0.625638 0.952286 0.69207
C_ C_ 0.231319 0.607028 0.497222 0.02923
C_ C_ 0.248891 0.612318 0.550582 -0.15533
C_ C_ 0.215846 0.609005 0.587223 -0.15533
C_ C_ 0.165061 0.601485 0.575007 0.02923
C_ C_ 0.14965 0.589998 0.521842 -0.15533
C_ C_ 0.179736 0.599338 0.482628 0.02923
C_ C_ 0.14558 0.61496 0.927079 0.69207
C_ C_ 0.146831 0.611848 0.669857 0.69661
C_ C_ 0.372753 0.88955 0.874804 -0.30787
C_ C_ 0.123542 0.605832 0.612591 -0.30787
N_ N_ 0.139571 0.558367 0.815343 -0.32189
N_ N_ 0.0511178 0.644107 0.81215 -0.32189
N_ N_ 0.106933 0.804158 0.558433 -0.32189
N_ N_ 0.194326 0.815606 0.635448 -0.32189
N_ N_ 0.361652 0.949712 0.683072 -0.32189
N_ N_ 0.437733 0.860492 0.676187 -0.32189
N_ N_ 0.384683 0.7012 0.943761 -0.32189
N_ N_ 0.301337 0.692983 0.858252 -0.32189
O_ O_ 0.496372 0.603319 0.89389 -0.63271
O_ O_ 0.0349199 0.542008 0.82844 -0.57982
O_ O_ 0.38393 0.598883 0.837245 -0.63271
O_ O_ 0.374135 0.602326 0.920408 -0.57982
O_ O_ 0.24177 0.909806 0.575275 -0.63271
O_ O_ 0.205682 0.843376 0.530083 -0.57982
O_ O_ 0.360125 0.84732 0.586974 -0.63271
O_ O_ 0.373492 0.92881 0.58274 -0.57982
O_ O_ 0.981714 0.912042 0.579383 -0.63271
O_ O_ 0.456057 0.963106 0.645876 -0.57982
O_ O_ 0.091827 0.901973 0.646715 -0.63271
O_ O_ 0.12981 0.908276 0.5748 -0.57982
O_ O_ 0.251903 0.600245 0.90797 -0.63271
O_ O_ 0.289644 0.658612 0.962767 -0.57982
O_ O_ 0.147767 0.659307 0.907758 -0.63271
O_ O_ 0.112699 0.583426 0.906855 -0.57982
F_ F_ 0.443751 0.825378 0.907277 -0.20885
F_ F_ 0.413984 0.812456 0.830421 -0.20885
F_ F_ 0.362462 0.799974 0.889814 -0.20885
F_ F_ 0.309141 0.932085 0.814577 -0.20885
F_ F_ 0.314781 0.849514 0.809711 -0.20885
F_ F_ 0.376299 0.889585 0.782973 -0.20885
F_ F_ 0.0640928 0.658779 0.559035 -0.20885
F_ F_ 0.0628194 0.678455 0.640856 -0.20885
F_ F_ 0.12817 0.697165 0.596529 -0.20885
F_ F_ 0.181317 0.570262 0.6812 -0.20885
F_ F_ 0.168373 0.656954 0.679058 -0.20885
F_ F_ 0.111112 0.61394 0.702868 -0.20885
Zn Zn 0.59288 0.0854422 0.34937 0.83971
Zn Zn 0.65493 0.347465 0.0884813 0.83971
Zn Zn 0.905176 0.414852 0.152703 0.83971
Zn Zn 0.849533 0.155623 0.415731 0.83971
H_ H_ 0.664775 0.131603 0.304288 0.10394
H_ H_ 0.74169 0.101892 0.267488 0.10394
H_ H_ 0.703108 0.440103 0.282157 0.10394
H_ H_ 0.63322 0.983519 0.32581 0.10394
H_ H_ 0.0283928 0.101353 0.243052 0.10394
H_ H_ 0.995544 0.181658 0.199213 0.10394
H_ H_ 0.542099 0.267957 0.32976 0.10394
H_ H_ 0.577327 0.193484 0.375907 0.10394
H_ H_ 0.531245 0.432738 0.370953 0.10394
H_ H_ 0.976767 0.375632 0.380468 0.10394
H_ H_ 0.851321 0.489507 0.406082 0.10394
H_ H_ 0.554641 0.333961 0.135305 0.10394
H_ H_ 0.9962131 0.259643 0.0980712 0.10394
H_ H_ 0.52272 0.294175 0.453183 0.10394
H_ H_ 0.616418 0.308692 0.991446 0.10394
H_ H_ 0.714449 0.258469 0.0953962 0.10394
H_ H_ 0.778591 0.21439 0.161069 0.10394
H_ H_ 0.726854 0.330553 0.270858 0.10394
H_ H_ 0.679749 0.381768 0.203972 0.10394
H_ H_ 0.711978 0.374611 0.449057 0.10394
H_ H_ 0.762278 0.39716 0.379606 0.10394
H_ H_ 0.89195 0.397536 0.494088 0.10394
H_ H_ 0.809363 0.393164 0.160305 0.10394
H_ H_ 0.731905 0.433824 0.193844 0.10394
H_ H_ 0.833649 0.0499917 0.272613 0.10394
H_ H_ 0.887314 0.511379 0.222539 0.10394
H_ H_ 0.509451 0.395233 0.227387 0.10394
H_ H_ 0.552605 0.31551 0.259997 0.10394
H_ H_ 0.910831 0.241154 0.215498 0.10394
H_ H_ 0.873748 0.319307 0.177749 0.10394
H_ H_ 0.963597 0.0523573 0.127397 0.10394
H_ H_ 0.52299 0.119704 0.100813 0.10394
H_ H_ 0.653624 0.00707236 0.0912956 0.10394
H_ H_ 0.951324 0.165587 0.404238 0.10394
H_ H_ 0.519251 0.187772 0.468708 0.10394
H_ H_ 0.912266 0.27545 0.0440029 0.10394
H_ H_ 0.845633 0.236455 0.499083 0.10394
H_ H_ 0.745634 0.165149 0.358501 0.10394
H_ H_ 0.708132 0.206165 0.283772 0.10394
H_ H_ 0.848842 0.258407 0.261115 0.10394
H_ H_ 0.891056 0.203928 0.335251 0.10394
H_ H_ 0.790302 0.130189 0.0485541 0.10394
H_ H_ 0.737936 0.122901 0.118725 0.10394
H_ H_ 0.610803 0.099394 0.00746794 0.10394
C_ C_ 0.676842 0.0926619 0.30204 0.18167
C_ C_ 0.718676 0.0746739 0.279232 -0.15533
C_ C_ 0.734571 0.0221066 0.272402 0.02923
C_ C_ 0.692308 0.48159 0.283435 -0.15533
C_ C_ 0.659038 0.00875336 0.315082 0.18167
C_ C_ 0.535714 0.132167 0.267749 0.18167
C_ C_ 0.00331352 0.180667 0.241736 -0.15533
C_ C_ 0.513374 0.223679 0.26241 0.02923
C_ C_ 0.541856 0.230687 0.312036 -0.15533
C_ C_ 0.561257 0.187549 0.337724 0.18167
C_ C_ 0.507976 0.0455902 0.363449 0.69207
C_ C_ 0.974771 0.508661 0.384614 0.02923
C_ C_ 0.992772 0.455851 0.383895 -0.15533
C_ C_ 0.962361 0.41717 0.387671 -0.15533
C_ C_ 0.91105 0.431276 0.396734 0.02923
C_ C_ 0.891976 0.48062 0.399456 -0.15533
C_ C_ 0.922231 0.51994 0.391497 0.02923
C_ C_ 0.904171 0.0728997 0.385786 0.69207
C_ C_ 0.895557 0.332364 0.394881 0.69661
C_ C_ 0.554068 0.315957 0.0970315 0.18167
C_ C_ 0.509841 0.293905 0.0755918 -0.15533
C_ C_ 0.506352 0.273589 0.0247654 0.02923
C_ C_ 0.536142 0.295169 0.492355 -0.15533
C_ C_ 0.59121 0.29959 0.0164976 0.18167
C_ C_ 0.721716 0.274488 0.132677 0.18167
C_ C_ 0.74994 0.246021 0.172039 -0.15533
C_ C_ 0.750019 0.265811 0.223619 0.02923
C_ C_ 0.727973 0.315632 0.232605 -0.15533
C_ C_ 0.698615 0.341988 0.19493 0.18167
C_ C_ 0.737524 0.367605 0.0466229 0.69207
C_ C_ 0.767588 0.387921 0.508207 0.02923
C_ C_ 0.748416 0.390262 0.458096 -0.15533
C_ C_ 0.779808 0.3962 0.41896 -0.15533
C_ C_ 0.832192 0.398435 0.432656 0.02923
C_ C_ 0.850883 0.398334 0.483677 -0.15533
C_ C_ 0.817561 0.396722 0.523007 0.02923
C_ C_ 0.849094 0.385044 0.0692542 0.69207
C_ C_ 0.845791 0.39359 0.335196 0.69661
C_ C_ 0.811957 0.42383 0.186246 0.18167
C_ C_ 0.767773 0.446685 0.209468 -0.15533
C_ C_ 0.769002 0.494739 0.235973 0.02923
C_ C_ 0.825701 0.0157913 0.252286 -0.15533
C_ C_ 0.858505 0.48835 0.226628 0.18167
C_ C_ 0.985257 0.358889 0.221059 0.18167
C_ C_ 0.513896 0.316716 0.240951 -0.15533
C_ C_ 0.97995 0.275713 0.249797 0.02923
C_ C_ 0.933694 0.274039 0.219728 -0.15533
C_ C_ 0.912534 0.316914 0.195773 0.18167
C_ C_ 0.9878 0.449757 0.126949 0.69207
C_ C_ 0.530211 0.991258 0.108732 0.02923
C_ C_ 0.507817 0.0411763 0.102521 -0.15533
C_ C_ 0.53781 0.0794136 0.0979156 -0.15533
C_ C_ 0.592732 0.0689465 0.0977993 0.02923
C_ C_ 0.613234 0.0158894 0.0942067 -0.15533
C_ C_ 0.580711 0.976875 0.0979314 0.02923
C_ C_ 0.598374 0.43301 0.113245 0.69207
C_ C_ 0.605484 0.165926 0.11336 0.69661
C_ C_ 0.94229 0.187386 0.436177 0.18167
C_ C_ 0.983101 0.212616 0.463358 -0.15533
C_ C_ 0.97395 0.247352 0.503986 0.02923
C_ C_ 0.91999 0.247524 0.0116124 -0.15533
C_ C_ 0.88405 0.230077 0.48889 0.18167
C_ C_ 0.769965 0.182797 0.337941 0.18167
C_ C_ 0.748012 0.210648 0.297966 -0.15533
C_ C_ 0.775768 0.237072 0.267524 0.02923
C_ C_ 0.827791 0.236191 0.28144 -0.15533
C_ C_ 0.850422 0.208209 0.322671 0.18167
C_ C_ 0.769257 0.111462 0.446471 0.69207
C_ C_ 0.733663 0.113513 0.989434 0.02923
C_ C_ 0.749977 0.126377 0.0392333 -0.15533
C_ C_ 0.719867 0.120213 0.0788077 -0.15533
C_ C_ 0.668881 0.111274 0.068151 0.02923
C_ C_ 0.650116 0.104885 0.0169639 -0.15533
C_ C_ 0.682831 0.104569 0.977203 0.02923
C_ C_ 0.657577 0.109939 0.425795 0.69207
C_ C_ 0.654835 0.101709 0.166257 0.69661
C_ C_ 0.871796 0.389928 0.391289 -0.30787
C_ C_ 0.631655 0.111434 0.109981 -0.30787
N_ N_ 0.643894 0.0599321 0.313104 -0.32189
N_ N_ 0.559223 0.140125 0.315378 -0.32189
N_ N_ 0.593242 0.318733 0.0670727 -0.32189
N_ N_ 0.693604 0.320466 0.145809 -0.32189
N_ N_ 0.8547 0.445786 0.194307 -0.32189
N_ N_ 0.938404 0.35736 0.19164 -0.32189
N_ N_ 0.895818 0.193863 0.452251 -0.32189
N_ N_ 0.821237 0.184662 0.35227 -0.32189
O_ O_ 0.0148558 0.078765 0.40788 -0.63271
O_ O_ 0.546157 0.0383749 0.333423 -0.57982
O_ O_ 0.90722 0.10015 0.344928 -0.63271
O_ O_ 0.878576 0.0912059 0.423221 -0.57982
O_ O_ 0.744355 0.391894 0.0907092 -0.63271
O_ O_ 0.696764 0.341283 0.0373429 -0.57982
O_ O_ 0.847802 0.344346 0.0936579 -0.63271
O_ O_ 0.878882 0.419712 0.0898526 -0.57982
O_ O_ 0.501484 0.415913 0.119866 -0.63271
O_ O_ 0.951832 0.461715 0.157605 -0.57982
O_ O_ 0.598975 0.410951 0.157613 -0.63271
O_ O_ 0.631369 0.414359 0.0805966 -0.57982
O_ O_ 0.762678 0.0867979 0.402327 -0.63271
O_ O_ 0.799305 0.147373 0.454083 -0.57982
O_ O_ 0.660272 0.147448 0.396716 -0.63271
O_ O_ 0.625678 0.0756117 0.411028 -0.57982
F_ F_ 0.931184 0.32759 0.436408 -0.20885
F_ F_ 0.922884 0.312578 0.35337 -0.20885
F_ F_ 0.856406 0.30265 0.400432 -0.20885
F_ F_ 0.812643 0.437258 0.327936 -0.20885
F_ F_ 0.818137 0.352489 0.322521 -0.20885
F_ F_ 0.881674 0.388944 0.29844 -0.20885
F_ F_ 0.580906 0.177373 0.0643238 -0.20885
F_ F_ 0.572198 0.177346 0.149672 -0.20885
F_ F_ 0.641756 0.199631 0.121852 -0.20885
F_ F_ 0.691082 0.0615335 0.163224 -0.20885
F_ F_ 0.676677 0.142503 0.192439 -0.20885
F_ F_ 0.618366 0.089795 0.198961 -0.20885
Zn Zn 0.589776 0.0823244 0.846544 0.83971
Zn Zn 0.652464 0.35281 0.587506 0.83971
Zn Zn 0.906969 0.411767 0.66063 0.83971
Zn Zn 0.842158 0.155189 0.908127 0.83971
H_ H_ 0.670507 0.13301 0.802336 0.10394
H_ H_ 0.748423 0.094427 0.768852 0.10394
H_ H_ 0.698372 0.450762 0.783696 0.10394
H_ H_ 0.633457 0.985364 0.821646 0.10394
H_ H_ 0.0296701 0.0887614 0.743271 0.10394
H_ H_ 0.983383 0.161153 0.703723 0.10394
H_ H_ 0.515005 0.265043 0.851458 0.10394
H_ H_ 0.542348 0.184341 0.886553 0.10394
H_ H_ 0.53399 0.459898 0.877483 0.10394
H_ H_ 0.98422 0.376803 0.893769 0.10394
H_ H_ 0.847995 0.489992 0.903743 0.10394
H_ H_ 0.588365 0.306352 0.633685 0.10394
H_ H_ 0.00756661 0.254396 0.601182 0.10394
H_ H_ 0.547295 0.26062 0.955782 0.10394
H_ H_ 0.602945 0.332478 0.483268 0.10394
H_ H_ 0.719899 0.260058 0.597675 0.10394
H_ H_ 0.760045 0.211349 0.67205 0.10394
H_ H_ 0.706198 0.336678 0.770729 0.10394
H_ H_ 0.66565 0.381162 0.697962 0.10394
H_ H_ 0.71807 0.354673 0.940846 0.10394
H_ H_ 0.770322 0.365265 0.877807 0.10394
H_ H_ 0.890421 0.406404 0.990438 0.10394
H_ H_ 0.807619 0.394275 0.668588 0.10394
H_ H_ 0.732832 0.441399 0.702595 0.10394
H_ H_ 0.832106 0.0460424 0.766604 0.10394
H_ H_ 0.902761 0.499855 0.740548 0.10394
H_ H_ 0.505284 0.397034 0.720579 0.10394
H_ H_ 0.552326 0.321482 0.761236 0.10394
H_ H_ 0.916772 0.225307 0.698173 0.10394
H_ H_ 0.872503 0.306236 0.669894 0.10394
H_ H_ 0.963138 0.0548151 0.618517 0.10394
H_ H_ 0.529566 0.124497 0.61366 0.10394
H_ H_ 0.649404 0.00816579 0.584449 0.10394
H_ H_ 0.949256 0.154499 0.895099 0.10394
H_ H_ 0.514782 0.174805 0.987437 0.10394
H_ H_ 0.912232 0.284642 0.545925 0.10394
H_ H_ 0.842308 0.235586 -0.014132999999999951 0.10394
H_ H_ 0.738956 0.200064 0.88085 0.10394
H_ H_ 0.696402 0.249794 0.816827 0.10394
H_ H_ 0.83293 0.217688 0.735123 0.10394
H_ H_ 0.8773 0.173801 0.813427 0.10394
H_ H_ 0.798552 0.102584 0.547515 0.10394
H_ H_ 0.740983 0.106723 0.615709 0.10394
H_ H_ 0.609525 0.102549 0.508025 0.10394
C_ C_ 0.679008 0.0921103 0.798025 0.18167
C_ C_ 0.723219 0.0710282 0.776803 -0.15533
C_ C_ 0.735864 0.0194236 0.771461 0.02923
C_ C_ 0.6916 0.491492 0.790381 -0.15533
C_ C_ 0.656058 0.0083736 0.804031 0.18167
C_ C_ 0.541421 0.14074 0.768099 0.18167
C_ C_ 0.00607857 0.167719 0.739697 -0.15533
C_ C_ 0.514936 0.232445 0.772731 0.02923
C_ C_ 0.525451 0.231704 0.827265 -0.15533
C_ C_ 0.546533 0.187585 0.848047 0.18167
C_ C_ 0.508304 0.0485716 0.861261 0.69207
C_ C_ 0.96784 0.504321 0.866329 0.02923
C_ C_ 0.987203 0.453756 0.870102 -0.15533
C_ C_ 0.961008 0.41498 0.885544 -0.15533
C_ C_ 0.908069 0.425172 0.891733 0.02923
C_ C_ 0.887256 0.478323 0.89429 -0.15533
C_ C_ 0.914882 0.517185 0.87831 0.02923
C_ C_ 0.898607 0.0677087 0.875154 0.69207
C_ C_ 0.902601 0.32754 0.893998 0.69661
C_ C_ 0.571506 0.302744 0.595504 0.18167
C_ C_ 0.522212 0.285945 0.579372 -0.15533
C_ C_ 0.509177 0.276042 0.528688 0.02923
C_ C_ 0.547438 0.27899 0.994573 -0.15533
C_ C_ 0.581175 0.315892 0.508936 0.18167
C_ C_ 0.71705 0.276473 0.636006 0.18167
C_ C_ 0.735118 0.246201 0.676995 -0.15533
C_ C_ 0.735533 0.26867 0.725462 0.02923
C_ C_ 0.707484 0.315583 0.732504 -0.15533
C_ C_ 0.684473 0.342708 0.689636 0.18167
C_ C_ 0.732169 0.375826 0.546931 0.69207
C_ C_ 0.76881 0.377325 1.00485859 0.02923
C_ C_ 0.754196 0.364365 0.951357 -0.15533
C_ C_ 0.784645 0.372214 0.915419 -0.15533
C_ C_ 0.834558 0.388125 0.925923 0.02923
C_ C_ 0.850331 0.398711 0.978453 -0.15533
C_ C_ 0.82126 0.39235 0.01692 0.02923
C_ C_ 0.844009 0.387198 0.575659 0.69207
C_ C_ 0.848963 0.377233 0.829494 0.69661
C_ C_ 0.81304 0.424249 0.697151 0.18167
C_ C_ 0.769258 0.449343 0.719114 -0.15533
C_ C_ 0.775781 0.492376 0.753723 0.02923
C_ C_ 0.824096 0.0135856 0.743546 -0.15533
C_ C_ 0.866705 0.482991 0.738642 0.18167
C_ C_ 0.983673 0.347515 0.709905 0.18167
C_ C_ 0.510953 0.322182 0.748543 -0.15533
C_ C_ 0.983144 0.262463 0.734943 0.02923
C_ C_ 0.933974 0.261877 0.710103 -0.15533
C_ C_ 0.910103 0.306865 0.69007 0.18167
C_ C_ 0.987567 0.446755 0.631975 0.69207
C_ C_ 0.528948 0.996079 0.616046 0.02923
C_ C_ 0.511869 0.0487135 0.616175 -0.15533
C_ C_ 0.546459 0.0855413 0.615846 -0.15533
C_ C_ 0.595383 0.0702173 0.602701 0.02923
C_ C_ 0.611745 0.0191068 0.595889 -0.15533
C_ C_ 0.581777 0.982267 0.609451 0.02923
C_ C_ 0.589311 0.429925 0.615489 0.69207
C_ C_ 0.61366 0.166245 0.610792 0.69661
C_ C_ 0.942916 0.17859 0.930436 0.18167
C_ C_ 0.980567 0.20594 0.955661 -0.15533
C_ C_ 0.970505 0.239879 -0.00214991 0.02923
C_ C_ 0.922055 0.258994 0.51456 -0.15533
C_ C_ 0.880802 0.225006 0.980578 0.18167
C_ C_ 0.760078 0.205654 0.853321 0.18167
C_ C_ 0.73555 0.23385 0.813665 -0.15533
C_ C_ 0.761165 0.242382 0.771213 0.02923
C_ C_ 0.812592 0.217738 0.770091 -0.15533
C_ C_ 0.835614 0.186901 0.810682 0.18167
C_ C_ 0.768484 0.118585 0.950575 0.69207
C_ C_ 0.735521 0.104405 0.487008 0.02923
C_ C_ 0.757971 0.100594 0.538332 -0.15533
C_ C_ 0.726269 0.0985709 0.577494 -0.15533
C_ C_ 0.671894 0.0995901 0.56766 0.02923
C_ C_ 0.65177 0.106018 0.517566 -0.15533
C_ C_ 0.683469 0.111155 0.478069 0.02923
C_ C_ 0.659846 0.102867 0.923006 0.69207
C_ C_ 0.663517 0.102871 0.664497 0.69661
C_ C_ 0.873786 0.382136 0.885141 -0.30787
C_ C_ 0.636627 0.109635 0.610606 -0.30787
N_ N_ 0.642977 0.0591094 0.806666 -0.32189
N_ N_ 0.55963 0.145938 0.818236 -0.32189
N_ N_ 0.600167 0.314635 0.55929 -0.32189
N_ N_ 0.684048 0.319094 0.643133 -0.32189
N_ N_ 0.860295 0.442112 0.705015 -0.32189
N_ N_ 0.935504 0.348317 0.686131 -0.32189
N_ N_ 0.892417 0.196159 0.937825 -0.32189
N_ N_ 0.80831 0.181794 0.85143 -0.32189
O_ O_ 0.00776729 0.0811174 0.888472 -0.63271
O_ O_ 0.547343 0.0370354 0.836133 -0.57982
O_ O_ 0.89879 0.0887875 0.83285 -0.63271
O_ O_ 0.874368 0.092177 0.910552 -0.57982
O_ O_ 0.737329 0.396461 0.59345 -0.63271
O_ O_ 0.694511 0.347153 0.535734 -0.57982
O_ O_ 0.844935 0.341732 0.594009 -0.63271
O_ O_ 0.878652 0.417727 0.595757 -0.57982
O_ O_ 0.480462 0.415826 0.602343 -0.63271
O_ O_ 0.957354 0.454439 0.66885 -0.57982
O_ O_ 0.579315 0.402229 0.652545 -0.63271
O_ O_ 0.627455 0.418707 0.589787 -0.57982
O_ O_ 0.772477 0.084625 0.913067 -0.63271
O_ O_ 0.800886 0.153828 0.957455 -0.57982
O_ O_ 0.661016 0.143685 0.896358 -0.63271
O_ O_ 0.623009 0.0741451 0.9097 -0.57982
F_ F_ 0.932486 0.329082 0.940806 -0.20885
F_ F_ 0.933722 0.307858 0.856901 -0.20885
F_ F_ 0.867974 0.292882 0.8955 -0.20885
F_ F_ 0.813945 0.417521 0.817499 -0.20885
F_ F_ 0.824559 0.334504 0.815094 -0.20885
F_ F_ 0.884761 0.378718 0.795334 -0.20885
F_ F_ 0.579091 0.180266 0.569321 -0.20885
F_ F_ 0.587069 0.180486 0.652672 -0.20885
F_ F_ 0.652706 0.197103 0.612809 -0.20885
F_ F_ 0.697672 0.0579892 0.667545 -0.20885
F_ F_ 0.695141 0.141687 0.679509 -0.20885
F_ F_ 0.626016 0.102429 0.700317 -0.20885
Zn Zn 0.583455 0.584009 0.344331 0.83971
Zn Zn 0.664401 0.838872 0.0795628 0.83971
Zn Zn 0.907881 0.911469 0.152247 0.83971
Zn Zn 0.840099 0.654359 0.418534 0.83971
H_ H_ 0.654447 0.62481 0.296644 0.10394
H_ H_ 0.730962 0.594061 0.259601 0.10394
H_ H_ 0.70282 0.947725 0.278068 0.10394
H_ H_ 0.627077 0.474508 0.321174 0.10394
H_ H_ 0.0311167 0.597331 0.262487 0.10394
H_ H_ 0.978998 0.666227 0.220045 0.10394
H_ H_ 0.541631 0.771208 0.323705 0.10394
H_ H_ 0.575969 0.693693 0.3742 0.10394
H_ H_ 0.524897 0.946006 0.334332 0.10394
H_ H_ 0.981556 0.873472 0.391026 0.10394
H_ H_ 0.855546 0.989515 0.406181 0.10394
H_ H_ 0.586175 0.794242 0.124046 0.10394
H_ H_ 1.0101709 0.762234 0.0950962 0.10394
H_ H_ 0.53396 0.789174 0.437909 0.10394
H_ H_ 0.613826 0.818369 0.973481 0.10394
H_ H_ 0.736202 0.748435 0.0916485 0.10394
H_ H_ 0.77598 0.699991 0.159394 0.10394
H_ H_ 0.727729 0.822516 0.262811 0.10394
H_ H_ 0.682624 0.868625 0.189903 0.10394
H_ H_ 0.716201 0.860147 0.438298 0.10394
H_ H_ 0.772308 0.858754 0.37074 0.10394
H_ H_ 0.891209 0.900647 0.482828 0.10394
H_ H_ 0.803276 0.906427 0.152786 0.10394
H_ H_ 0.728209 0.961552 0.18383 0.10394
H_ H_ 0.821675 0.548136 0.270159 0.10394
H_ H_ 0.902534 1.00154512 0.234167 0.10394
H_ H_ 0.52101 0.888057 0.20034 0.10394
H_ H_ 0.563087 0.807799 0.235019 0.10394
H_ H_ 0.915057 0.737707 0.209701 0.10394
H_ H_ 0.864795 0.821781 0.189156 0.10394
H_ H_ 0.960706 0.546531 0.11251 0.10394
H_ H_ 0.51375 0.629567 0.108108 0.10394
H_ H_ 0.640008 0.516666 0.0889839 0.10394
H_ H_ 0.943155 0.657397 0.396755 0.10394
H_ H_ 0.515214 0.695375 0.438442 0.10394
H_ H_ 0.920885 0.778582 0.0361055 0.10394
H_ H_ 0.847861 0.740041 0.501829 0.10394
H_ H_ 0.737259 0.707778 0.384153 0.10394
H_ H_ 0.694079 0.715485 0.29633 0.10394
H_ H_ 0.838353 0.706827 0.239615 0.10394
H_ H_ 0.880023 0.683619 0.325342 0.10394
H_ H_ 0.783694 0.637595 0.057775 0.10394
H_ H_ 0.728085 0.625613 0.124139 0.10394
H_ H_ 0.604962 0.599093 0.00618348 0.10394
C_ C_ 0.66848 0.585859 0.297556 0.18167
C_ C_ 0.710276 0.566919 0.272336 -0.15533
C_ C_ 0.724036 0.514784 0.263362 0.02923
C_ C_ 0.702771 0.987263 0.290122 -0.15533
C_ C_ 0.65029 0.502016 0.307522 0.18167
C_ C_ 0.533034 0.636382 0.26428 0.18167
C_ C_ 0.00405386 0.675539 0.25356 -0.15533
C_ C_ 0.518855 0.727242 0.256137 0.02923
C_ C_ 0.53955 0.732878 0.306633 -0.15533
C_ C_ 0.559754 0.688415 0.33467 0.18167
C_ C_ 0.505233 0.542708 0.371888 0.69207
C_ C_ 0.97739 0.00183616 0.383342 0.02923
C_ C_ -0.005628999999999995 0.951268 0.381578 -0.15533
C_ C_ 0.961566 0.911417 0.380636 -0.15533
C_ C_ 0.909688 0.92506 0.390146 0.02923
C_ C_ 0.895359 0.978244 0.399224 -0.15533
C_ C_ 0.924388 0.0166023 0.387521 0.02923
C_ C_ 0.896173 0.569115 0.385693 0.69207
C_ C_ 0.892427 0.831804 0.378252 0.69661
C_ C_ 0.572616 0.799206 0.0859387 0.18167
C_ C_ 0.526676 0.780097 0.0682054 -0.15533
C_ C_ 0.513116 0.772765 0.0140013 0.02923
C_ C_ 0.541999 0.79387 0.479871 -0.15533
C_ C_ 0.593456 0.805223 -0.000233814 0.18167
C_ C_ 0.72255 0.759951 0.129084 0.18167
C_ C_ 0.745961 0.72939 0.168641 -0.15533
C_ C_ 0.741321 0.748664 0.219346 0.02923
C_ C_ 0.721307 0.800348 0.226929 -0.15533
C_ C_ 0.694033 0.826913 0.184946 0.18167
C_ C_ 0.737768 0.856956 0.0387514 0.69207
C_ C_ 0.774252 0.8785 0.500983 0.02923
C_ C_ 0.754331 0.873245 0.448361 -0.15533
C_ C_ 0.784937 0.873509 0.409385 -0.15533
C_ C_ 0.832685 0.892745 0.419805 0.02923
C_ C_ 0.853204 0.896479 0.472861 -0.15533
C_ C_ 0.821528 0.893687 0.512758 0.02923
C_ C_ 0.85375 0.872152 0.0683954 0.69207
C_ C_ 0.846352 0.896189 0.322063 0.69661
C_ C_ 0.809663 0.937391 0.178742 0.18167
C_ C_ 0.76711 0.968126 0.197192 -0.15533
C_ C_ 0.777056 1.00146343 0.240335 0.02923
C_ C_ 0.815437 0.514646 0.244748 -0.15533
C_ C_ 0.866094 0.987677 0.227705 0.18167
C_ C_ 0.981755 0.854752 0.213383 0.18167
C_ C_ 0.523269 0.810733 0.22135 -0.15533
C_ C_ 0.978721 0.770073 0.244703 0.02923
C_ C_ 0.930508 0.772091 0.216078 -0.15533
C_ C_ 0.905498 0.816253 0.193179 0.18167
C_ C_ 0.985265 0.947986 0.123838 0.69207
C_ C_ 0.521712 0.502534 0.122234 0.02923
C_ C_ 0.505726 0.553864 0.129004 -0.15533
C_ C_ 0.534865 0.59121 0.115139 -0.15533
C_ C_ 0.584826 0.578125 0.101588 0.02923
C_ C_ 0.602289 0.525666 0.097967 -0.15533
C_ C_ 0.571452 0.487411 0.106951 0.02923
C_ C_ 0.603823 0.92241 0.0991746 0.69207
C_ C_ 0.600568 0.674497 0.105067 0.69661
C_ C_ 0.939735 0.675288 0.434597 0.18167
C_ C_ 0.981984 0.698296 0.455259 -0.15533
C_ C_ 0.977286 0.733933 0.49651 0.02923
C_ C_ 0.928304 0.756136 1.00381637 -0.15533
C_ C_ 0.886134 0.727717 0.489031 0.18167
C_ C_ 0.758754 0.70012 0.352064 0.18167
C_ C_ 0.734633 0.710741 0.303005 -0.15533
C_ C_ 0.764951 0.717612 0.263098 0.02923
C_ C_ 0.81849 0.706497 0.271366 -0.15533
C_ C_ 0.84082 0.691294 0.318421 0.18167
C_ C_ 0.760465 0.627085 0.458537 0.69207
C_ C_ 0.726784 0.629883 0.99384 0.02923
C_ C_ 0.746095 0.624619 0.0454363 -0.15533
C_ C_ 0.714583 0.617664 0.0837622 -0.15533
C_ C_ 0.662542 0.60925 0.0697453 0.02923
C_ C_ 0.645882 0.600031 0.0167476 -0.15533
C_ C_ 0.677762 0.611658 0.979957 0.02923
C_ C_ 0.64583 0.614887 0.428511 0.69207
C_ C_ 0.647226 0.613092 0.166574 0.69661
C_ C_ 0.870577 0.885984 0.379458 -0.30787
C_ C_ 0.6234 0.618097 0.109239 -0.30787
N_ N_ 0.637197 0.552671 0.31012 -0.32189
N_ N_ 0.551595 0.641293 0.31307 -0.32189
N_ N_ 0.605017 0.811833 0.052153 -0.32189
N_ N_ 0.692072 0.804673 0.136424 -0.32189
N_ N_ 0.857545 0.947877 0.193494 -0.32189
N_ N_ 0.934569 0.855932 0.191402 -0.32189
N_ N_ 0.890612 0.692268 0.448817 -0.32189
N_ N_ 0.811649 0.687891 0.357666 -0.32189
O_ O_ 0.00461719 0.591487 0.400851 -0.63271
O_ O_ 0.540282 0.533413 0.34125 -0.57982
O_ O_ 0.895944 0.591663 0.342629 -0.63271
O_ O_ 0.872906 0.593756 0.425072 -0.57982
O_ O_ 0.743126 0.878373 0.0855336 -0.63271
O_ O_ 0.704037 0.825736 0.0287926 -0.57982
O_ O_ 0.860482 0.832476 0.0945224 -0.63271
O_ O_ 0.875768 0.91233 0.0891355 -0.57982
O_ O_ 0.498112 0.909718 0.0976983 -0.63271
O_ O_ 0.952354 0.956829 0.157367 -0.57982
O_ O_ 0.599039 0.895567 0.137936 -0.63271
O_ O_ 0.639564 0.904495 0.0698201 -0.57982
O_ O_ 0.75689 0.601468 0.415197 -0.63271
O_ O_ 0.797817 0.654442 0.47111 -0.57982
O_ O_ 0.654912 0.651282 0.401491 -0.63271
O_ O_ 0.613585 0.580311 0.41011 -0.57982
F_ F_ 0.919536 0.820179 0.424488 -0.20885
F_ F_ 0.924712 0.819955 0.341832 -0.20885
F_ F_ 0.859854 0.794107 0.370578 -0.20885
F_ F_ 0.816139 0.940793 0.321295 -0.20885
F_ F_ 0.820647 0.855757 0.299706 -0.20885
F_ F_ 0.885589 0.900151 0.290909 -0.20885
F_ F_ 0.568124 0.676366 0.0605598 -0.20885
F_ F_ 0.57312 0.691195 0.146012 -0.20885
F_ F_ 0.634391 0.710989 0.102655 -0.20885
F_ F_ 0.678792 0.568313 0.169911 -0.20885
F_ F_ 0.672322 0.655516 0.187215 -0.20885
F_ F_ 0.609362 0.608414 0.196547 -0.20885
Zn Zn 0.582927 0.600123 0.848682 0.83971
Zn Zn 0.655993 0.84608 0.578001 0.83971
Zn Zn 0.909889 0.917396 0.646774 0.83971
Zn Zn 0.841646 0.656121 0.914705 0.83971
H_ H_ 0.674041 0.634105 0.816797 0.10394
H_ H_ 0.749743 0.5974 0.76792 0.10394
H_ H_ 0.71346 0.949037 0.791384 0.10394
H_ H_ 0.618097 0.494639 0.818873 0.10394
H_ H_ 0.0154339 0.594117 0.753762 0.10394
H_ H_ 0.978125 0.666321 0.699537 0.10394
H_ H_ 0.534858 0.782843 0.815897 0.10394
H_ H_ 0.575303 0.710071 0.86638 0.10394
H_ H_ 0.527522 0.950628 0.842322 0.10394
H_ H_ 0.97513 0.872554 0.87331 0.10394
H_ H_ 0.855718 0.986979 0.901837 0.10394
H_ H_ 0.577901 0.808984 0.62523 0.10394
H_ H_ 0.00132154 0.76501 0.597107 0.10394
H_ H_ 0.535662 0.787495 0.939455 0.10394
H_ H_ 0.608492 0.830089 0.475313 0.10394
H_ H_ 0.711371 0.749559 0.595568 0.10394
H_ H_ 0.748543 0.701515 0.666251 0.10394
H_ H_ 0.710144 0.829929 0.768192 0.10394
H_ H_ 0.672286 0.877801 0.692928 0.10394
H_ H_ 0.708978 0.87223 0.93758 0.10394
H_ H_ 0.75951 0.888994 0.875005 0.10394
H_ H_ 0.895052 0.886082 0.982549 0.10394
H_ H_ 0.810199 0.894311 0.657365 0.10394
H_ H_ 0.731182 0.944261 0.689437 0.10394
H_ H_ 0.833124 0.541774 0.789135 0.10394
H_ H_ 0.899085 1.00807971 0.710866 0.10394
H_ H_ 0.513213 0.883335 0.672137 0.10394
H_ H_ 0.555606 0.810068 0.711682 0.10394
H_ H_ 0.906882 0.744534 0.716425 0.10394
H_ H_ 0.865587 0.827954 0.676279 0.10394
H_ H_ 0.959952 0.546085 0.612298 0.10394
H_ H_ 0.519728 0.627222 0.635018 0.10394
H_ H_ 0.636846 0.509144 0.593578 0.10394
H_ H_ 0.947964 0.658019 0.892795 0.10394
H_ H_ 0.508506 0.70587 0.927986 0.10394
H_ H_ 0.921169 0.776544 0.540367 0.10394
H_ H_ 0.849232 0.734234 0.997573 0.10394
H_ H_ 0.737478 0.70073 0.88616 0.10394
H_ H_ 0.693146 0.746113 0.813519 0.10394
H_ H_ 0.832776 0.719957 0.737113 0.10394
H_ H_ 0.879708 0.686679 0.815631 0.10394
H_ H_ 0.778053 0.629797 0.558553 0.10394
H_ H_ 0.729958 0.6055 0.621289 0.10394
H_ H_ 0.602203 0.602665 0.515492 0.10394
C_ C_ 0.679457 0.59465 0.809498 0.18167
C_ C_ 0.72157 0.574987 0.782457 -0.15533
C_ C_ 0.7306 0.520874 0.776921 0.02923
C_ C_ 0.701131 0.986728 0.784233 -0.15533
C_ C_ 0.645384 0.516268 0.807725 0.18167
C_ C_ 0.527885 0.642718 0.764596 0.18167
C_ C_ -0.0004129999999999967 0.673413 0.737619 -0.15533
C_ C_ 0.512839 0.73286 0.748954 0.02923
C_ C_ 0.531571 0.74295 0.801505 -0.15533
C_ C_ 0.556623 0.702224 0.829336 0.18167
C_ C_ 0.504604 0.556922 0.876218 0.69207
C_ C_ 0.976287 -0.0005730000000000457 0.869645 0.02923
C_ C_ -0.005306999999999951 0.94562 0.863433 -0.15533
C_ C_ 0.960946 0.911159 0.871064 -0.15533
C_ C_ 0.911176 0.924622 0.886061 0.02923
C_ C_ 0.894216 0.976685 0.891586 -0.15533
C_ C_ 0.924946 0.0155912 0.882671 0.02923
C_ C_ 0.890371 0.570306 0.878884 0.69207
C_ C_ 0.891482 0.829934 0.874069 0.69661
C_ C_ 0.572249 0.796217 0.583086 0.18167
C_ C_ 0.526062 0.773741 0.563799 -0.15533
C_ C_ 0.509658 0.77387 0.512308 0.02923
C_ C_ 0.546506 0.785929 0.979277 -0.15533
C_ C_ 0.587664 0.814065 0.500892 0.18167
C_ C_ 0.713603 0.767419 0.631926 0.18167
C_ C_ 0.736784 0.740037 0.673815 -0.15533
C_ C_ 0.735508 0.761486 0.723841 0.02923
C_ C_ 0.708541 0.810113 0.73041 -0.15533
C_ C_ 0.691625 0.838593 0.687437 0.18167
C_ C_ 0.741444 0.871209 0.542063 0.69207
C_ C_ 0.77057 0.867662 1.00094634 0.02923
C_ C_ 0.750986 0.872487 0.949145 -0.15533
C_ C_ 0.780835 0.882949 0.912252 -0.15533
C_ C_ 0.834406 0.886748 0.922515 0.02923
C_ C_ 0.854393 0.884509 0.973283 -0.15533
C_ C_ 0.824437 0.874058 0.0136758 0.02923
C_ C_ 0.848699 0.89066 0.564956 0.69207
C_ C_ 0.841308 0.897129 0.825432 0.69661
C_ C_ 0.812398 0.928282 0.679254 0.18167
C_ C_ 0.768126 0.956713 0.700689 -0.15533
C_ C_ 0.774134 -0.0022360000000000158 0.736862 0.02923
C_ C_ 0.825057 0.510505 0.760816 -0.15533
C_ C_ 0.863564 0.990459 0.71269 0.18167
C_ C_ 0.987765 0.851175 0.696125 0.18167
C_ C_ 0.515102 0.812558 0.705356 -0.15533
C_ C_ 0.979502 0.76979 0.731182 0.02923
C_ C_ 0.928658 0.774495 0.71203 -0.15533
C_ C_ 0.907161 0.81926 0.686657 0.18167
C_ C_ 0.982914 0.953585 0.610293 0.69207
C_ C_ 0.514965 0.497003 0.621601 0.02923
C_ C_ 0.501181 0.549027 0.629968 -0.15533
C_ C_ 0.535033 0.585323 0.629344 -0.15533
C_ C_ 0.58278 0.574008 0.614067 0.02923
C_ C_ 0.599311 0.522583 0.606463 -0.15533
C_ C_ 0.566775 0.48416 0.613361 0.02923
C_ C_ 0.602408 0.928957 0.606955 0.69207
C_ C_ 0.596191 0.668689 0.605656 0.69661
C_ C_ 0.941204 0.686595 0.924342 0.18167
C_ C_ 0.984235 0.707305 0.950986 -0.15533
C_ C_ 0.979272 0.741984 0.991132 0.02923
C_ C_ 0.928441 0.745743 0.514459 -0.15533
C_ C_ 0.88591 0.732913 0.980504 0.18167
C_ C_ 0.758299 0.703862 0.853379 0.18167
C_ C_ 0.73596 0.73407 0.81455 -0.15533
C_ C_ 0.75954 0.732243 0.768075 0.02923
C_ C_ 0.811855 0.714021 0.768985 -0.15533
C_ C_ 0.837933 0.693038 0.814438 0.18167
C_ C_ 0.764975 0.628505 0.955778 0.69207
C_ C_ 0.722794 0.622304 0.494621 0.02923
C_ C_ 0.740152 0.6206 0.54619 -0.15533
C_ C_ 0.710368 0.60778 0.58403 -0.15533
C_ C_ 0.658823 0.601466 0.573141 0.02923
C_ C_ 0.640475 0.598891 0.521005 -0.15533
C_ C_ 0.672209 0.609546 0.480778 0.02923
C_ C_ 0.650602 0.617451 0.928547 0.69207
C_ C_ 0.645441 0.60975 0.669371 0.69661
C_ C_ 0.870265 0.884953 0.879169 -0.30787
C_ C_ 0.621148 0.612078 0.613554 -0.30787
N_ N_ 0.642029 0.566282 0.817998 -0.32189
N_ N_ 0.556821 0.654906 0.80902 -0.32189
N_ N_ 0.598266 0.817716 0.552251 -0.32189
N_ N_ 0.690485 0.81526 0.63889 -0.32189
N_ N_ 0.857099 0.946814 0.683225 -0.32189
N_ N_ 0.936596 0.856572 0.680941 -0.32189
N_ N_ 0.893759 0.698997 0.941047 -0.32189
N_ N_ 0.812031 0.686819 0.855581 -0.32189
O_ O_ 1.0028956 0.583751 0.896741 -0.63271
O_ O_ 0.535371 0.550483 0.839358 -0.57982
O_ O_ 0.890148 0.595301 0.838235 -0.63271
O_ O_ 0.871882 0.592632 0.919294 -0.57982
O_ O_ 0.744152 0.898693 0.584997 -0.63271
O_ O_ 0.701257 0.844615 0.532419 -0.57982
O_ O_ 0.850794 0.849576 0.588448 -0.63271
O_ O_ 0.875087 0.926727 0.583878 -0.57982
O_ O_ 0.494435 0.91442 0.583964 -0.63271
O_ O_ 0.955604 0.9584 0.64918 -0.57982
O_ O_ 0.593319 0.899993 0.64365 -0.63271
O_ O_ 0.640517 0.914396 0.580867 -0.57982
O_ O_ 0.757009 0.606696 0.909114 -0.63271
O_ O_ 0.79732 0.662264 0.96087 -0.57982
O_ O_ 0.648197 0.66081 0.905238 -0.63271
O_ O_ 0.613807 0.587979 0.913897 -0.57982
F_ F_ 0.928323 0.816509 0.917206 -0.20885
F_ F_ 0.917776 0.819192 0.832459 -0.20885
F_ F_ 0.859185 0.792185 0.869851 -0.20885
F_ F_ 0.809079 0.942165 0.828807 -0.20885
F_ F_ 0.809284 0.863539 0.807328 -0.20885
F_ F_ 0.874933 0.898191 0.788699 -0.20885
F_ F_ 0.558857 0.670385 0.563577 -0.20885
F_ F_ 0.575356 0.690582 0.647619 -0.20885
F_ F_ 0.634346 0.698803 0.600491 -0.20885
F_ F_ 0.676652 0.563714 0.674743 -0.20885
F_ F_ 0.67288 0.648385 0.684273 -0.20885
F_ F_ 0.613381 0.609398 0.705537 -0.20885
