_cell_length_a 26.508
_cell_length_b 26.37200000322088
_cell_length_c 26.311999743092066
_cell_angle_alpha 93.74100058972084
_cell_angle_beta 96.04100104955006
_cell_angle_gamma 83.6869992558723
_symmetry_space_group_name_H-M         'P 1'
_symmetry_Int_Tables_number            1
loop_
_symmetry_equiv_pos_as_xyz
   'x, y, z'
                         
loop_
_atom_site_label
_atom_site_type_symbol
_atom_site_fract_x 
_atom_site_fract_y
_atom_site_fract_z
_atom_site_charge
Zn Zn 0.0869325 0.0841111 0.350062 0.83971
Zn Zn 0.160784 0.349646 0.078978 0.83971
Zn Zn 0.41205 0.412213 0.140505 0.83971
Zn Zn 0.339267 0.162589 0.418806 0.83971
H_ H_ 0.165124 0.128134 0.300062 0.10394
H_ H_ 0.248249 0.0914746 0.273607 0.10394
H_ H_ 0.220249 0.451009 0.272854 0.10394
H_ H_ 0.127622 0.984857 0.333479 0.10394
H_ H_ 0.531242 0.0941802 0.250799 0.10394
H_ H_ 0.493784 0.16675 0.197413 0.10394
H_ H_ 0.0383703 0.269248 0.332804 0.10394
H_ H_ 0.0714149 0.194336 0.377252 0.10394
H_ H_ 0.0292777 0.448118 0.357912 0.10394
H_ H_ 0.484328 0.375807 0.376471 0.10394
H_ H_ 0.352597 0.48603 0.383969 0.10394
H_ H_ 0.0847185 0.308805 0.121377 0.10394
H_ H_ 0.4954 0.293086 0.0922239 0.10394
H_ H_ 0.0385022 0.300988 0.444726 0.10394
H_ H_ 0.115102 0.327766 0.971784 0.10394
H_ H_ 0.206025 0.249187 0.101994 0.10394
H_ H_ 0.242166 0.20776 0.178899 0.10394
H_ H_ 0.218913 0.354076 0.264886 0.10394
H_ H_ 0.190396 0.391918 0.186205 0.10394
H_ H_ 0.222519 0.343514 0.435861 0.10394
H_ H_ 0.275266 0.354015 0.365573 0.10394
H_ H_ 0.396175 0.392612 0.482079 0.10394
H_ H_ 0.306369 0.404488 0.149236 0.10394
H_ H_ 0.236322 0.461833 0.181111 0.10394
H_ H_ 0.326763 0.0411197 0.28255 0.10394
H_ H_ 0.415574 0.495461 0.222121 0.10394
H_ H_ 0.0113653 0.371711 0.173494 0.10394
H_ H_ 0.0585009 0.301125 0.223842 0.10394
H_ H_ 0.41084 0.241066 0.209667 0.10394
H_ H_ 0.374259 0.316927 0.170366 0.10394
H_ H_ 0.464942 0.0625767 0.143416 0.10394
H_ H_ 0.0195283 0.127351 0.121525 0.10394
H_ H_ 0.139809 0.00900596 0.0906144 0.10394
H_ H_ 0.440573 0.160276 0.402462 0.10394
H_ H_ 0.0171322 0.197917 0.4385 0.10394
H_ H_ 0.415317 0.303187 0.0126453 0.10394
H_ H_ 0.346821 0.242493 0.506242 0.10394
H_ H_ 0.236303 0.205955 0.386806 0.10394
H_ H_ 0.193317 0.258061 0.312252 0.10394
H_ H_ 0.336194 0.236611 0.243664 0.10394
H_ H_ 0.377664 0.187374 0.320809 0.10394
H_ H_ 0.284725 0.103894 0.0511476 0.10394
H_ H_ 0.232517 0.0968597 0.120288 0.10394
H_ H_ 0.0988845 0.0914893 0.00910715 0.10394
C_ C_ 0.17558 0.0864937 0.303834 0.18167
C_ C_ 0.22096 0.0659114 0.283585 -0.15533
C_ C_ 0.230701 0.0138909 0.277356 0.02923
C_ C_ 0.210252 0.489512 0.278368 -0.15533
C_ C_ 0.14989 0.00479117 0.311376 0.18167
C_ C_ 0.0308636 0.134348 0.266639 0.18167
C_ C_ 0.507463 0.173525 0.236506 -0.15533
C_ C_ 0.0163748 0.224913 0.262557 0.02923
C_ C_ 0.0358074 0.231553 0.313396 -0.15533
C_ C_ 0.0515272 0.188578 0.340208 0.18167
C_ C_ 0.00414591 0.0469137 0.379759 0.69207
C_ C_ 0.477426 0.505012 0.376691 0.02923
C_ C_ 0.497671 0.451775 0.374889 -0.15533
C_ C_ 0.465579 0.412201 0.378943 -0.15533
C_ C_ 0.411058 0.424394 0.382865 0.02923
C_ C_ 0.392645 0.476795 0.38507 -0.15533
C_ C_ 0.426143 0.516406 0.385388 0.02923
C_ C_ 0.387941 0.0731192 0.384134 0.69207
C_ C_ 0.404856 0.32457 0.380306 0.69661
C_ C_ 0.0758572 0.298465 0.0802724 0.18167
C_ C_ 0.0348231 0.270873 0.0615173 -0.15533
C_ C_ 0.017744 0.267916 0.00809531 0.02923
C_ C_ 0.0485793 0.296484 0.486061 -0.15533
C_ C_ 0.0947654 0.309375 -0.0030850000000000044 0.18167
C_ C_ 0.214902 0.273229 0.136197 0.18167
C_ C_ 0.232831 0.247904 0.181203 -0.15533
C_ C_ 0.236593 0.274794 0.229331 0.02923
C_ C_ 0.219756 0.328613 0.229375 -0.15533
C_ C_ 0.202291 0.351197 0.184158 0.18167
C_ C_ 0.239386 0.368171 0.0356144 0.69207
C_ C_ 0.274056 0.37389 0.496469 0.02923
C_ C_ 0.256645 0.362617 0.445231 -0.15533
C_ C_ 0.28757 0.368557 0.404952 -0.15533
C_ C_ 0.336426 0.385295 0.417131 0.02923
C_ C_ 0.353865 0.397618 0.469839 -0.15533
C_ C_ 0.32212 0.3945 0.508026 0.02923
C_ C_ 0.353498 0.385445 0.0598857 0.69207
C_ C_ 0.354733 0.385383 0.317971 0.69661
C_ C_ 0.315706 0.439273 0.169754 0.18167
C_ C_ 0.27598 0.467318 0.194151 -0.15533
C_ C_ 0.286129 0.505118 0.231463 0.02923
C_ C_ 0.322075 0.00648875 0.2589 -0.15533
C_ C_ 0.376942 0.486539 0.218561 0.18167
C_ C_ 0.492683 0.348156 0.191764 0.18167
C_ C_ 0.017427 0.301792 0.212923 -0.15533
C_ C_ 0.486304 0.264958 0.222854 0.02923
C_ C_ 0.435324 0.27067 0.205775 -0.15533
C_ C_ 0.413397 0.315066 0.183205 0.18167
C_ C_ 0.488145 0.449355 0.112864 0.69207
C_ C_ 0.0212642 1.00001 0.1254 0.02923
C_ C_ 0.007169 0.0517472 0.136009 -0.15533
C_ C_ 0.0371433 0.0877243 0.122968 -0.15533
C_ C_ 0.0857585 0.0735203 0.109808 0.02923
C_ C_ 0.102691 0.0203675 0.103397 -0.15533
C_ C_ 0.0719109 0.982265 0.112223 0.02923
C_ C_ 0.101903 0.42887 0.108138 0.69207
C_ C_ 0.0967812 0.167588 0.0969251 0.69661
C_ C_ 0.437383 0.18304 0.437468 0.18167
C_ C_ 0.478864 0.203128 0.462038 -0.15533
C_ C_ 0.472566 0.241944 0.500299 0.02923
C_ C_ 0.424558 0.265142 -0.0011430000000000051 -0.15533
C_ C_ 0.384235 0.235163 0.490653 0.18167
C_ C_ 0.25489 0.2093 0.353396 0.18167
C_ C_ 0.231142 0.23982 0.311738 -0.15533
C_ C_ 0.26185 0.24996 0.274803 0.02923
C_ C_ 0.31499 0.230494 0.276082 -0.15533
C_ C_ 0.336441 0.201916 0.31825 0.18167
C_ C_ 0.261594 0.133073 0.455389 0.69207
C_ C_ 0.22569 0.103154 0.990821 0.02923
C_ C_ 0.246313 0.100346 0.0429586 -0.15533
C_ C_ 0.214571 0.0982892 0.0829158 -0.15533
C_ C_ 0.160739 0.0994973 0.0712602 0.02923
C_ C_ 0.141955 0.0945638 0.0204603 -0.15533
C_ C_ 0.171417 0.100994 0.97945 0.02923
C_ C_ 0.149682 0.12386 0.429597 0.69207
C_ C_ 0.145545 0.118218 0.165242 0.69661
C_ C_ 0.375314 0.381489 0.375966 -0.30787
C_ C_ 0.122502 0.114259 0.111459 -0.30787
N_ N_ 0.139722 0.0558758 0.313769 -0.32189
N_ N_ 0.0562048 0.141821 0.313444 -0.32189
N_ N_ 0.108647 0.311273 0.0493396 -0.32189
N_ N_ 0.196898 0.324428 0.138791 -0.32189
N_ N_ 0.365373 0.448432 0.183697 -0.32189
N_ N_ 0.443065 0.353065 0.173368 -0.32189
N_ N_ 0.390988 0.201102 0.4515 -0.32189
N_ N_ 0.305703 0.193419 0.355535 -0.32189
O_ O_ 0.502413 0.0823574 0.411213 -0.63271
O_ O_ 0.0427361 0.035046 0.350348 -0.57982
O_ O_ 0.390138 0.0940395 0.3411 -0.63271
O_ O_ 0.362341 0.0961328 0.41959 -0.57982
O_ O_ 0.243836 0.397738 0.0779282 -0.63271
O_ O_ 0.201753 0.340906 0.0279305 -0.57982
O_ O_ 0.355926 0.345623 0.0873847 -0.63271
O_ O_ 0.378549 0.422487 0.0771931 -0.57982
O_ O_ 0.990783 0.416741 0.101903 -0.63271
O_ O_ 0.461378 0.45621 0.151827 -0.57982
O_ O_ 0.0993703 0.40046 0.146661 -0.63271
O_ O_ 0.137944 0.415827 0.0794792 -0.57982
O_ O_ 0.259323 0.106135 0.411023 -0.63271
O_ O_ 0.297436 0.16177 0.469572 -0.57982
O_ O_ 0.15683 0.162066 0.403458 -0.63271
O_ O_ 0.12048 0.0897234 0.411646 -0.57982
F_ F_ 0.434749 0.318451 0.425845 -0.20885
F_ F_ 0.434872 0.309958 0.340322 -0.20885
F_ F_ 0.371466 0.289092 0.381087 -0.20885
F_ F_ 0.317721 0.426588 0.314642 -0.20885
F_ F_ 0.328252 0.34552 0.299921 -0.20885
F_ F_ 0.390334 0.391166 0.285033 -0.20885
F_ F_ 0.0675295 0.165264 0.0503675 -0.20885
F_ F_ 0.0648612 0.193523 0.131147 -0.20885
F_ F_ 0.133037 0.198349 0.0901797 -0.20885
F_ F_ 0.175932 0.0739042 0.172723 -0.20885
F_ F_ 0.172222 0.157221 0.178873 -0.20885
F_ F_ 0.11227 0.124943 0.200189 -0.20885
Zn Zn 0.0876175 0.0839795 0.845804 0.83971
Zn Zn 0.166104 0.341598 0.585879 0.83971
Zn Zn 0.409732 0.413982 0.646597 0.83971
Zn Zn 0.340752 0.149579 0.921238 0.83971
H_ H_ 0.175844 0.13065 0.81008 0.10394
H_ H_ 0.260605 0.0875147 0.775933 0.10394
H_ H_ 0.213802 0.442078 0.783524 0.10394
H_ H_ 0.117639 0.986843 0.79508 0.10394
H_ H_ 0.521563 0.0894636 0.756339 0.10394
H_ H_ 0.479482 0.155375 0.70273 0.10394
H_ H_ 0.0443778 0.272262 0.832012 0.10394
H_ H_ 0.0863502 0.194344 0.869285 0.10394
H_ H_ 0.0373406 0.453203 0.870451 0.10394
H_ H_ 0.478406 0.374624 0.859829 0.10394
H_ H_ 0.350452 0.479068 0.892804 0.10394
H_ H_ 0.0758749 0.294406 0.631136 0.10394
H_ H_ 0.513936 0.253276 0.596009 0.10394
H_ H_ 0.0451498 0.277866 0.936088 0.10394
H_ H_ 0.122652 0.322151 0.484956 0.10394
H_ H_ 0.220948 0.246817 0.601676 0.10394
H_ H_ 0.25614 0.198584 0.680012 0.10394
H_ H_ 0.221719 0.337607 0.773238 0.10394
H_ H_ 0.186327 0.37815 0.69376 0.10394
H_ H_ 0.216275 0.351031 0.934594 0.10394
H_ H_ 0.276931 0.343803 0.867479 0.10394
H_ H_ 0.383763 0.420694 0.973285 0.10394
H_ H_ 0.302134 0.39458 0.650938 0.10394
H_ H_ 0.23354 0.443309 0.68635 0.10394
H_ H_ 0.332924 0.0323762 0.782301 0.10394
H_ H_ 0.403361 0.490693 0.731196 0.10394
H_ H_ 0.0142828 0.385405 0.6999 0.10394
H_ H_ 0.0518396 0.304588 0.730699 0.10394
H_ H_ 0.406261 0.23352 0.703379 0.10394
H_ H_ 0.366414 0.315389 0.672489 0.10394
H_ H_ 0.474948 0.0488774 0.639754 0.10394
H_ H_ 0.0160674 0.121793 0.602605 0.10394
H_ H_ 0.143968 0.00715366 0.591325 0.10394
H_ H_ 0.451563 0.125447 0.952228 0.10394
H_ H_ 0.0132213 0.194935 0.9284 0.10394
H_ H_ 0.418494 0.290876 0.538831 0.10394
H_ H_ 0.345698 0.250062 -0.01513399999999998 0.10394
H_ H_ 0.234276 0.207356 0.89913 0.10394
H_ H_ 0.193585 0.251536 0.824352 0.10394
H_ H_ 0.33384 0.217013 0.752628 0.10394
H_ H_ 0.375665 0.187491 0.83176 0.10394
H_ H_ 0.282547 0.131482 0.55959 0.10394
H_ H_ 0.234325 0.110493 0.622665 0.10394
H_ H_ 0.104076 0.0977435 0.506985 0.10394
C_ C_ 0.183048 0.0867719 0.805404 0.18167
C_ C_ 0.228961 0.0665389 0.784742 -0.15533
C_ C_ 0.236986 0.0117554 0.774554 0.02923
C_ C_ 0.205086 0.481793 0.785921 -0.15533
C_ C_ 0.150625 0.00742645 0.795683 0.18167
C_ C_ 0.0227658 0.13603 0.772076 0.18167
C_ C_ 0.502308 0.166781 0.736875 -0.15533
C_ C_ 0.00809484 0.226572 0.763627 0.02923
C_ C_ 0.0367665 0.234084 0.81157 -0.15533
C_ C_ 0.0611848 0.192197 0.835088 0.18167
C_ C_ 0.00955393 0.0429102 0.875163 0.69207
C_ C_ 0.470431 0.50047 0.86749 0.02923
C_ C_ 0.48568 0.450031 0.850066 -0.15533
C_ C_ 0.459659 0.412418 0.862272 -0.15533
C_ C_ 0.410363 0.421745 0.877892 0.02923
C_ C_ 0.390634 0.471036 0.88752 -0.15533
C_ C_ 0.421161 0.511064 0.88296 0.02923
C_ C_ 0.392629 0.0684615 0.879044 0.69207
C_ C_ 0.401778 0.323977 0.879148 0.69661
C_ C_ 0.0688136 0.298242 0.590615 0.18167
C_ C_ 0.0249297 0.279415 0.5685 -0.15533
C_ C_ 0.0138188 0.277658 0.515217 0.02923
C_ C_ 0.0534036 0.283787 0.976413 -0.15533
C_ C_ 0.0979993 0.306081 0.508033 0.18167
C_ C_ 0.21795 0.266642 0.639098 0.18167
C_ C_ 0.239314 0.240235 0.683327 -0.15533
C_ C_ 0.236542 0.264676 0.734196 0.02923
C_ C_ 0.220854 0.316366 0.735857 -0.15533
C_ C_ 0.200979 0.3394 0.690974 0.18167
C_ C_ 0.238177 0.373555 0.53503 0.69207
C_ C_ 0.276462 0.368599 -0.0036049999999999693 0.02923
C_ C_ 0.257722 0.356462 0.943003 -0.15533
C_ C_ 0.288532 0.36267 0.904358 -0.15533
C_ C_ 0.335316 0.384759 0.913557 0.02923
C_ C_ 0.352196 0.397279 0.966109 -0.15533
C_ C_ 0.327593 0.384193 0.00758521 0.02923
C_ C_ 0.346753 0.392635 0.5624 0.69207
C_ C_ 0.351856 0.378705 0.816596 0.69661
C_ C_ 0.30923 0.429156 0.675559 0.18167
C_ C_ 0.270494 0.455069 0.698677 -0.15533
C_ C_ 0.277548 0.496469 0.735233 0.02923
C_ C_ 0.326647 0.00333036 0.754779 -0.15533
C_ C_ 0.367647 0.479632 0.726355 0.18167
C_ C_ 0.484891 0.343708 0.688954 0.18167
C_ C_ 0.012081 0.308976 0.72195 -0.15533
C_ C_ 0.480742 0.258905 0.716437 0.02923
C_ C_ 0.429009 0.263221 0.697754 -0.15533
C_ C_ 0.40756 0.306079 0.673163 0.18167
C_ C_ 0.486477 0.459743 0.61841 0.69207
C_ C_ 0.0205711 0.9953 0.623965 0.02923
C_ C_ 0.00182631 0.0463069 0.621627 -0.15533
C_ C_ 0.0316749 0.0818286 0.607007 -0.15533
C_ C_ 0.0838416 0.0699003 0.604215 0.02923
C_ C_ 0.104334 0.0199045 0.601666 -0.15533
C_ C_ 0.0738742 0.981226 0.612973 0.02923
C_ C_ 0.103069 0.417252 0.608542 0.69207
C_ C_ 0.100142 0.16759 0.616008 0.69661
C_ C_ 0.44471 0.166453 0.955536 0.18167
C_ C_ 0.486038 0.194975 0.975195 -0.15533
C_ C_ 0.476953 0.245508 0.993999 0.02923
C_ C_ 0.424582 0.259321 0.51263 -0.15533
C_ C_ 0.38472 0.235878 0.980519 0.18167
C_ C_ 0.258399 0.20919 0.866716 0.18167
C_ C_ 0.233778 0.234567 0.822831 -0.15533
C_ C_ 0.260172 0.238603 0.780939 0.02923
C_ C_ 0.310426 0.21535 0.782383 -0.15533
C_ C_ 0.335423 0.199345 0.82962 0.18167
C_ C_ 0.262533 0.114479 0.952855 0.69207
C_ C_ 0.223964 0.124526 0.497052 0.02923
C_ C_ 0.24387 0.122108 0.548035 -0.15533
C_ C_ 0.21204 0.116609 0.585343 -0.15533
C_ C_ 0.160638 0.106582 0.572696 0.02923
C_ C_ 0.143145 0.105702 0.519336 -0.15533
C_ C_ 0.173041 0.119495 0.482496 0.02923
C_ C_ 0.148693 0.104075 0.926296 0.69207
C_ C_ 0.146303 0.104628 0.667944 0.69661
C_ C_ 0.374111 0.378843 0.873022 -0.30787
C_ C_ 0.12186 0.111144 0.613797 -0.30787
N_ N_ 0.144118 0.058919 0.807497 -0.32189
N_ N_ 0.0529885 0.143897 0.815574 -0.32189
N_ N_ 0.105707 0.312182 0.560575 -0.32189
N_ N_ 0.198969 0.313811 0.644972 -0.32189
N_ N_ 0.357995 0.440654 0.689026 -0.32189
N_ N_ 0.435039 0.344925 0.671036 -0.32189
N_ N_ 0.394659 0.188655 0.955591 -0.32189
N_ N_ 0.309072 0.192419 0.869939 -0.32189
O_ O_ 0.494484 0.0863842 0.879363 -0.63271
O_ O_ 0.044562 0.0338499 0.841147 -0.57982
O_ O_ 0.390052 0.0984044 0.841542 -0.63271
O_ O_ 0.366639 0.0846303 0.917355 -0.57982
O_ O_ 0.239156 0.408723 0.572511 -0.63271
O_ O_ 0.208297 0.336709 0.535376 -0.57982
O_ O_ 0.347033 0.350655 0.586431 -0.63271
O_ O_ 0.380191 0.422717 0.582615 -0.57982
O_ O_ 0.993276 0.404563 0.600537 -0.63271
O_ O_ 0.455567 0.460156 0.655893 -0.57982
O_ O_ 0.0988864 0.391137 0.649245 -0.63271
O_ O_ 0.138174 0.401807 0.578722 -0.57982
O_ O_ 0.255562 0.0990833 0.905546 -0.63271
O_ O_ 0.298824 0.142144 0.967199 -0.57982
O_ O_ 0.153951 0.145576 0.902485 -0.63271
O_ O_ 0.111784 0.0772214 0.911006 -0.57982
F_ F_ 0.438247 0.328863 0.921797 -0.20885
F_ F_ 0.430588 0.301613 0.837997 -0.20885
F_ F_ 0.369964 0.286752 0.884303 -0.20885
F_ F_ 0.315624 0.419425 0.809445 -0.20885
F_ F_ 0.328691 0.332846 0.8035 -0.20885
F_ F_ 0.388828 0.373432 0.783165 -0.20885
F_ F_ 0.0669596 0.175971 0.573901 -0.20885
F_ F_ 0.0726845 0.186772 0.657458 -0.20885
F_ F_ 0.134998 0.202073 0.61117 -0.20885
F_ F_ 0.177058 0.0579491 0.67567 -0.20885
F_ F_ 0.176999 0.142266 0.683484 -0.20885
F_ F_ 0.111024 0.103232 0.701516 -0.20885
Zn Zn 0.0949964 0.589025 0.342999 0.83971
Zn Zn 0.161845 0.854032 0.0923041 0.83971
Zn Zn 0.408374 0.913829 0.156531 0.83971
Zn Zn 0.343589 0.65178 0.413788 0.83971
H_ H_ 0.179816 0.636184 0.306735 0.10394
H_ H_ 0.253234 0.602027 0.265263 0.10394
H_ H_ 0.204196 0.940638 0.28744 0.10394
H_ H_ 0.138919 0.484297 0.307846 0.10394
H_ H_ 0.534308 0.596077 0.24899 0.10394
H_ H_ 0.491302 0.671297 0.200815 0.10394
H_ H_ 0.0589813 0.775668 0.340003 0.10394
H_ H_ 0.0854298 0.697862 0.381173 0.10394
H_ H_ 0.0265617 0.943658 0.373483 0.10394
H_ H_ 0.469158 0.877843 0.387426 0.10394
H_ H_ 0.338017 0.994403 0.393838 0.10394
H_ H_ 0.0811711 0.798831 0.136295 0.10394
H_ H_ 0.493639 0.770088 0.10258 0.10394
H_ H_ 0.0411888 0.783591 0.446372 0.10394
H_ H_ 0.116631 0.832372 0.990288 0.10394
H_ H_ 0.220112 0.764775 0.0980558 0.10394
H_ H_ 0.261051 0.708608 0.16834 0.10394
H_ H_ 0.205275 0.828539 0.275589 0.10394
H_ H_ 0.162931 0.875577 0.204543 0.10394
H_ H_ 0.206656 0.862874 0.452874 0.10394
H_ H_ 0.254138 0.881808 0.381418 0.10394
H_ H_ 0.384967 0.911827 0.485776 0.10394
H_ H_ 0.305236 0.898204 0.161277 0.10394
H_ H_ 0.228322 0.946363 0.196809 0.10394
H_ H_ 0.346722 0.546853 0.270434 0.10394
H_ H_ 0.395543 0.00920999999999994 0.230342 0.10394
H_ H_ 0.0133621 0.898026 0.199844 0.10394
H_ H_ 0.062818 0.82546 0.244988 0.10394
H_ H_ 0.412437 0.743927 0.226197 0.10394
H_ H_ 0.372528 0.817397 0.179062 0.10394
H_ H_ 0.453435 0.546402 0.0959728 0.10394
H_ H_ 0.0262988 0.622361 0.133471 0.10394
H_ H_ 0.147418 0.508325 0.102757 0.10394
H_ H_ 0.439524 0.658867 0.393888 0.10394
H_ H_ 0.0101107 0.704081 0.429426 0.10394
H_ H_ 0.406178 0.782336 0.0428921 0.10394
H_ H_ 0.349975 0.724739 0.506352 0.10394
H_ H_ 0.233972 0.701699 0.382568 0.10394
H_ H_ 0.196739 0.747854 0.312371 0.10394
H_ H_ 0.340147 0.72464 0.245393 0.10394
H_ H_ 0.382017 0.684096 0.324573 0.10394
H_ H_ 0.286418 0.602056 0.0468814 0.10394
H_ H_ 0.237497 0.606696 0.113565 0.10394
H_ H_ 0.102677 0.596345 0.00353171 0.10394
C_ C_ 0.185005 0.594871 0.297535 0.18167
C_ C_ 0.227925 0.575383 0.272049 -0.15533
C_ C_ 0.242905 0.523858 0.26289 0.02923
C_ C_ 0.196361 0.982525 0.293694 -0.15533
C_ C_ 0.166435 0.510328 0.304365 0.18167
C_ C_ 0.0375016 0.645349 0.270691 0.18167
C_ C_ 0.507268 0.677429 0.240061 -0.15533
C_ C_ 0.021376 0.738741 0.270357 0.02923
C_ C_ 0.0508197 0.740153 0.317448 -0.15533
C_ C_ 0.0655893 0.695494 0.342808 0.18167
C_ C_ 0.0121716 0.549349 0.367697 0.69207
C_ C_ 0.462267 0.00564669 0.377746 0.02923
C_ C_ 0.477984 0.953925 0.37471 -0.15533
C_ C_ 0.449569 0.915961 0.387557 -0.15533
C_ C_ 0.3959 0.929699 0.39193 0.02923
C_ C_ 0.378859 0.982047 0.397782 -0.15533
C_ C_ 0.412826 0.0199666 0.391593 0.02923
C_ C_ 0.403391 0.569502 0.384031 0.69207
C_ C_ 0.38623 0.83169 0.38387 0.69661
C_ C_ 0.0724285 0.802193 0.0957427 0.18167
C_ C_ 0.0291929 0.777883 0.0755882 -0.15533
C_ C_ 0.0154006 0.776333 0.0216608 0.02923
C_ C_ 0.0506665 0.783442 0.487267 -0.15533
C_ C_ 0.0932609 0.816434 0.0134425 0.18167
C_ C_ 0.220899 0.779762 0.136584 0.18167
C_ C_ 0.244456 0.749835 0.176395 -0.15533
C_ C_ 0.241458 0.770662 0.227242 0.02923
C_ C_ 0.214002 0.817916 0.237752 -0.15533
C_ C_ 0.192145 0.844504 0.198091 0.18167
C_ C_ 0.242576 0.867769 0.047698 0.69207
C_ C_ 0.268147 0.87675 0.511573 0.02923
C_ C_ 0.24434 0.8747 0.462054 -0.15533
C_ C_ 0.272675 0.879928 0.421619 -0.15533
C_ C_ 0.324616 0.891668 0.430051 0.02923
C_ C_ 0.346329 0.904413 0.480455 -0.15533
C_ C_ 0.320603 0.891227 0.521837 0.02923
C_ C_ 0.354475 0.88205 0.071552 0.69207
C_ C_ 0.330352 0.888271 0.332887 0.69661
C_ C_ 0.310179 0.929235 0.188534 0.18167
C_ C_ 0.267359 0.95384 0.210186 -0.15533
C_ C_ 0.271966 0.991205 0.246506 0.02923
C_ C_ 0.337934 0.516506 0.24211 -0.15533
C_ C_ 0.36411 0.985562 0.231023 0.18167
C_ C_ 0.492987 0.851078 0.199036 0.18167
C_ C_ 0.0203207 0.826389 0.236083 -0.15533
C_ C_ 0.488226 0.771273 0.236349 0.02923
C_ C_ 0.436737 0.773682 0.218655 -0.15533
C_ C_ 0.412099 0.818298 0.195861 0.18167
C_ C_ 0.483943 0.956245 0.127143 0.69207
C_ C_ 0.029803 0.493664 0.130109 0.02923
C_ C_ 0.0118541 0.546175 0.134065 -0.15533
C_ C_ 0.0426378 0.583786 0.123536 -0.15533
C_ C_ 0.0913528 0.571914 0.10459 0.02923
C_ C_ 0.108306 0.519009 0.0998906 -0.15533
C_ C_ 0.0762886 0.481428 0.106845 0.02923
C_ C_ 0.0960509 0.929744 0.110981 0.69207
C_ C_ 0.11075 0.668983 0.10692 0.69661
C_ C_ 0.43638 0.684708 0.427674 0.18167
C_ C_ 0.479614 0.703014 0.453103 -0.15533
C_ C_ 0.473099 0.740091 0.495186 0.02923
C_ C_ 0.415587 0.75509 0.0110852 -0.15533
C_ C_ 0.386024 0.722871 0.491514 0.18167
C_ C_ 0.260839 0.710078 0.355616 0.18167
C_ C_ 0.236767 0.731641 0.310676 -0.15533
C_ C_ 0.265039 0.738625 0.270266 0.02923
C_ C_ 0.316459 0.718477 0.273819 -0.15533
C_ C_ 0.3388 0.693915 0.316921 0.18167
C_ C_ 0.270777 0.619187 0.450722 0.69207
C_ C_ 0.227816 0.597768 0.986278 0.02923
C_ C_ 0.247397 0.598278 0.0381611 -0.15533
C_ C_ 0.217315 0.599789 0.0768987 -0.15533
C_ C_ 0.164826 0.602837 0.0670697 0.02923
C_ C_ 0.14339 0.600802 0.0132706 -0.15533
C_ C_ 0.174539 0.596601 0.97389 0.02923
C_ C_ 0.157058 0.605466 0.427347 0.69207
C_ C_ 0.154623 0.606444 0.166112 0.69661
C_ C_ 0.359422 0.887249 0.385945 -0.30787
C_ C_ 0.128681 0.612842 0.109567 -0.30787
N_ N_ 0.155153 0.56232 0.312427 -0.32189
N_ N_ 0.0611351 0.648827 0.319883 -0.32189
N_ N_ 0.103755 0.818912 0.0634605 -0.32189
N_ N_ 0.195328 0.8259 0.148638 -0.32189
N_ N_ 0.356128 0.947932 0.196531 -0.32189
N_ N_ 0.440032 0.856306 0.185911 -0.32189
N_ N_ 0.388583 0.694327 0.445664 -0.32189
N_ N_ 0.310402 0.690329 0.358239 -0.32189
O_ O_ 0.500151 0.591623 0.388413 -0.63271
O_ O_ 0.0486191 0.541638 0.338734 -0.57982
O_ O_ 0.395214 0.590488 0.339508 -0.63271
O_ O_ 0.380164 0.591296 0.423412 -0.57982
O_ O_ 0.248609 0.896917 0.0894282 -0.63271
O_ O_ 0.20037 0.847806 0.0382372 -0.57982
O_ O_ 0.350352 0.841093 0.0961916 -0.63271
O_ O_ 0.386538 0.913783 0.0881366 -0.57982
O_ O_ 0.987131 0.921526 0.104666 -0.63271
O_ O_ 0.449001 0.964305 0.15701 -0.57982
O_ O_ 0.0917948 0.899904 0.14639 -0.63271
O_ O_ 0.134551 0.916807 0.0833342 -0.57982
O_ O_ 0.267042 0.597932 0.404775 -0.63271
O_ O_ 0.303031 0.653933 0.463401 -0.57982
O_ O_ 0.165026 0.644993 0.401233 -0.63271
O_ O_ 0.122316 0.57675 0.410384 -0.57982
F_ F_ 0.420709 0.824211 0.424639 -0.20885
F_ F_ 0.410438 0.814224 0.340171 -0.20885
F_ F_ 0.351533 0.798277 0.38619 -0.20885
F_ F_ 0.291305 0.925706 0.331926 -0.20885
F_ F_ 0.308726 0.844602 0.314914 -0.20885
F_ F_ 0.362108 0.896833 0.296205 -0.20885
F_ F_ 0.076328 0.677863 0.0653159 -0.20885
F_ F_ 0.0868093 0.688195 0.148692 -0.20885
F_ F_ 0.152037 0.698445 0.103977 -0.20885
F_ F_ 0.18384 0.560454 0.17367 -0.20885
F_ F_ 0.187476 0.643714 0.1825 -0.20885
F_ F_ 0.121899 0.608254 0.201587 -0.20885
Zn Zn 0.0894155 0.581468 0.83758 0.83971
Zn Zn 0.158856 0.843128 0.588915 0.83971
Zn Zn 0.411781 0.91478 0.65176 0.83971
Zn Zn 0.337615 0.649177 0.916538 0.83971
H_ H_ 0.172549 0.627641 0.804691 0.10394
H_ H_ 0.247465 0.594345 0.758319 0.10394
H_ H_ 0.202459 0.943085 0.777693 0.10394
H_ H_ 0.132775 0.4774 0.813334 0.10394
H_ H_ 0.533786 0.600801 0.745646 0.10394
H_ H_ 0.491962 0.672077 0.698761 0.10394
H_ H_ 0.0289238 0.766402 0.841299 0.10394
H_ H_ 0.066091 0.688803 0.881952 0.10394
H_ H_ 0.0336361 0.940065 0.872781 0.10394
H_ H_ 0.478646 0.874947 0.867129 0.10394
H_ H_ 0.346172 0.981916 0.88321 0.10394
H_ H_ 0.0825694 0.795048 0.635414 0.10394
H_ H_ 0.500641 0.761514 0.594174 0.10394
H_ H_ 0.0421838 0.787373 0.949334 0.10394
H_ H_ 0.129005 0.800704 0.48959 0.10394
H_ H_ 0.224854 0.751573 0.600347 0.10394
H_ H_ 0.262975 0.70627 0.677091 0.10394
H_ H_ 0.195829 0.825706 0.776979 0.10394
H_ H_ 0.176915 0.876897 0.699516 0.10394
H_ H_ 0.216071 0.87086 0.945101 0.10394
H_ H_ 0.26731 0.880274 0.878657 0.10394
H_ H_ 0.399581 0.898249 0.986951 0.10394
H_ H_ 0.30985 0.89112 0.660913 0.10394
H_ H_ 0.237079 0.938872 0.69352 0.10394
H_ H_ 0.33358 0.54043 0.775453 0.10394
H_ H_ 0.404393 0.00015999999999993797 0.732625 0.10394
H_ H_ 0.003549999999999942 0.896971 0.712724 0.10394
H_ H_ 0.047114 0.825739 0.760005 0.10394
H_ H_ 0.412797 0.748761 0.725241 0.10394
H_ H_ 0.375349 0.825949 0.679699 0.10394
H_ H_ 0.470301 0.563954 0.637309 0.10394
H_ H_ 0.0268471 0.616434 0.604365 0.10394
H_ H_ 0.153387 0.497913 0.59892 0.10394
H_ H_ 0.44567 0.650608 0.908634 0.10394
H_ H_ 0.0145113 0.703172 0.940601 0.10394
H_ H_ 0.417411 0.771736 0.547905 0.10394
H_ H_ 0.339208 0.734767 -0.004414000000000029 0.10394
H_ H_ 0.234323 0.690156 0.885775 0.10394
H_ H_ 0.189825 0.728357 0.804463 0.10394
H_ H_ 0.338951 0.736231 0.758135 0.10394
H_ H_ 0.376069 0.690851 0.834891 0.10394
H_ H_ 0.300987 0.610733 0.549817 0.10394
H_ H_ 0.251865 0.578697 0.61158 0.10394
H_ H_ 0.121424 0.56461 0.509837 0.10394
C_ C_ 0.180016 0.587936 0.795687 0.18167
C_ C_ 0.223241 0.569496 0.773258 -0.15533
C_ C_ 0.235549 0.516311 0.76592 0.02923
C_ C_ 0.199269 0.983638 0.784362 -0.15533
C_ C_ 0.160583 0.503233 0.805461 0.18167
C_ C_ 0.0412849 0.639842 0.761881 0.18167
C_ C_ 0.509112 0.67836 0.738453 -0.15533
C_ C_ 0.0129474 0.729573 0.767712 0.02923
C_ C_ 0.0289881 0.73021 0.819766 -0.15533
C_ C_ 0.0531038 0.68608 0.841648 0.18167
C_ C_ 0.0060611 0.551588 0.858925 0.69207
C_ C_ 0.467086 0.0025518 0.859558 0.02923
C_ C_ 0.489495 0.951334 0.858344 -0.15533
C_ C_ 0.459558 0.912114 0.864981 -0.15533
C_ C_ 0.410148 0.921552 0.88112 0.02923
C_ C_ 0.38724 0.973177 0.883091 -0.15533
C_ C_ 0.416534 0.0127781 0.87465 0.02923
C_ C_ 0.396642 0.564664 0.886436 0.69207
C_ C_ 0.403957 0.823878 0.890777 0.69661
C_ C_ 0.0735369 0.790173 0.594332 0.18167
C_ C_ 0.0273258 0.771288 0.572421 -0.15533
C_ C_ 0.0162849 0.767304 0.518318 0.02923
C_ C_ 0.050567 0.793647 0.99214 -0.15533
C_ C_ 0.0990541 0.793969 0.510652 0.18167
C_ C_ 0.221427 0.768791 0.640469 0.18167
C_ C_ 0.244557 0.742527 0.682798 -0.15533
C_ C_ 0.239083 0.762878 0.732964 0.02923
C_ C_ 0.209685 0.81027 0.738677 -0.15533
C_ C_ 0.193851 0.838453 0.693621 0.18167
C_ C_ 0.237184 0.865757 0.553547 0.69207
C_ C_ 0.278056 0.871864 0.00707501 0.02923
C_ C_ 0.256978 0.87128 0.956796 -0.15533
C_ C_ 0.287538 0.875462 0.917189 -0.15533
C_ C_ 0.338089 0.88397 0.926913 0.02923
C_ C_ 0.358358 0.88943 0.977239 -0.15533
C_ C_ 0.329092 0.883573 0.0196765 0.02923
C_ C_ 0.349045 0.889397 0.573012 0.69207
C_ C_ 0.349375 0.873994 0.828649 0.69661
C_ C_ 0.315741 0.922668 0.687981 0.18167
C_ C_ 0.274227 0.948196 0.70759 -0.15533
C_ C_ 0.278712 0.987598 0.744088 0.02923
C_ C_ 0.326539 0.507651 0.75011 -0.15533
C_ C_ 0.368049 0.984932 0.726301 0.18167
C_ C_ 0.496575 0.849901 0.700563 0.18167
C_ C_ 0.00981652 0.822024 0.742296 -0.15533
C_ C_ 0.486055 0.771792 0.737769 0.02923
C_ C_ 0.436588 0.774857 0.716298 -0.15533
C_ C_ 0.415462 0.818823 0.691383 0.18167
C_ C_ 0.484652 0.951817 0.620455 0.69207
C_ C_ 0.0259921 0.488421 0.612677 0.02923
C_ C_ 1.00853213 0.540886 0.609256 -0.15533
C_ C_ 0.0427899 0.576206 0.600758 -0.15533
C_ C_ 0.0963342 0.561772 0.6067 0.02923
C_ C_ 0.112449 0.509018 0.601841 -0.15533
C_ C_ 0.0787713 0.471733 0.608777 0.02923
C_ C_ 0.0983888 0.930201 0.621084 0.69207
C_ C_ 0.112332 0.656062 0.593533 0.69661
C_ C_ 0.437807 0.676406 0.940144 0.18167
C_ C_ 0.476286 0.702277 0.968032 -0.15533
C_ C_ 0.465518 0.741719 0.00294821 0.02923
C_ C_ 0.425294 0.74872 0.513021 -0.15533
C_ C_ 0.377446 0.725676 0.987963 0.18167
C_ C_ 0.254034 0.692765 0.852212 0.18167
C_ C_ 0.231318 0.718251 0.810491 -0.15533
C_ C_ 0.262684 0.734462 0.778567 0.02923
C_ C_ 0.31615 0.719526 0.78353 -0.15533
C_ C_ 0.336627 0.698644 0.827742 0.18167
C_ C_ 0.260564 0.611625 0.946838 0.69207
C_ C_ 0.236914 0.607945 0.489493 0.02923
C_ C_ 0.258243 0.605984 0.541205 -0.15533
C_ C_ 0.230211 0.593905 0.578289 -0.15533
C_ C_ 0.177073 0.587671 0.567741 0.02923
C_ C_ 0.160662 0.575966 0.518036 -0.15533
C_ C_ 0.184595 0.596533 0.478843 0.02923
C_ C_ 0.152364 0.600386 0.92002 0.69207
C_ C_ 0.163218 0.606773 0.661518 0.69661
C_ C_ 0.374103 0.87829 0.883907 -0.30787
C_ C_ 0.137485 0.600789 0.606426 -0.30787
N_ N_ 0.149375 0.555454 0.809665 -0.32189
N_ N_ 0.0591823 0.641858 0.812212 -0.32189
N_ N_ 0.104987 0.805874 0.562474 -0.32189
N_ N_ 0.194228 0.815175 0.646204 -0.32189
N_ N_ 0.361282 0.941367 0.695902 -0.32189
N_ N_ 0.446066 0.854576 0.683184 -0.32189
N_ N_ 0.3889 0.691513 0.948773 -0.32189
N_ N_ 0.304913 0.681126 0.858069 -0.32189
O_ O_ 0.508703 0.578964 0.902791 -0.63271
O_ O_ 0.0423608 0.536706 0.828679 -0.57982
O_ O_ 0.396583 0.592765 0.845655 -0.63271
O_ O_ 0.366355 0.580316 0.92175 -0.57982
O_ O_ 0.242728 0.888878 0.599263 -0.63271
O_ O_ 0.201884 0.835004 0.543125 -0.57982
O_ O_ 0.352438 0.848971 0.597366 -0.63271
O_ O_ 0.375569 0.926347 0.591321 -0.57982
O_ O_ 0.988456 0.911108 0.605211 -0.63271
O_ O_ 0.454087 0.962691 0.656678 -0.57982
O_ O_ 0.0891123 0.902343 0.657017 -0.63271
O_ O_ 0.134718 0.910294 0.592405 -0.57982
O_ O_ 0.260372 0.584842 0.90311 -0.63271
O_ O_ 0.293657 0.644722 0.958176 -0.57982
O_ O_ 0.159366 0.640496 0.89495 -0.63271
O_ O_ 0.113756 0.573158 0.903398 -0.57982
F_ F_ 0.441387 0.8237 0.931922 -0.20885
F_ F_ 0.42908 0.801409 0.851404 -0.20885
F_ F_ 0.370035 0.78914 0.893127 -0.20885
F_ F_ 0.310448 0.913369 0.821125 -0.20885
F_ F_ 0.328377 0.8302 0.815758 -0.20885
F_ F_ 0.380042 0.87803 0.789036 -0.20885
F_ F_ 0.0825255 0.657941 0.546395 -0.20885
F_ F_ 0.0832727 0.68076 0.631478 -0.20885
F_ F_ 0.149038 0.688805 0.588869 -0.20885
F_ F_ 0.19038 0.560117 0.67057 -0.20885
F_ F_ 0.19229 0.648211 0.675106 -0.20885
F_ F_ 0.127108 0.612551 0.694839 -0.20885
Zn Zn 0.579277 0.0850086 0.352618 0.83971
Zn Zn 0.663549 0.348648 0.0844067 0.83971
Zn Zn 0.910702 0.413201 0.153049 0.83971
Zn Zn 0.839317 0.158827 0.419478 0.83971
H_ H_ 0.647986 0.136345 0.308286 0.10394
H_ H_ 0.736404 0.109959 0.281154 0.10394
H_ H_ 0.700267 0.447443 0.270926 0.10394
H_ H_ 0.625816 0.983492 0.31918 0.10394
H_ H_ 0.0228691 0.094038 0.253762 0.10394
H_ H_ 0.996532 0.177433 0.199961 0.10394
H_ H_ 0.532104 0.269522 0.322743 0.10394
H_ H_ 0.563929 0.196903 0.37476 0.10394
H_ H_ 0.5365 0.440837 0.367272 0.10394
H_ H_ 0.979018 0.379598 0.369758 0.10394
H_ H_ 0.853614 0.494854 0.404007 0.10394
H_ H_ 0.578345 0.312188 0.130673 0.10394
H_ H_ 1.00763665 0.262908 0.0878197 0.10394
H_ H_ 0.531114 0.290533 0.440766 0.10394
H_ H_ 0.631746 0.305594 0.985575 0.10394
H_ H_ 0.71462 0.259452 0.0963876 0.10394
H_ H_ 0.757822 0.210007 0.161673 0.10394
H_ H_ 0.718894 0.332454 0.275309 0.10394
H_ H_ 0.677667 0.381129 0.20315 0.10394
H_ H_ 0.71539 0.383077 0.437133 0.10394
H_ H_ 0.768568 0.392754 0.374925 0.10394
H_ H_ 0.891667 0.409291 0.492022 0.10394
H_ H_ 0.804863 0.39409 0.15608 0.10394
H_ H_ 0.733427 0.437036 0.193191 0.10394
H_ H_ 0.82335 0.053666 0.291195 0.10394
H_ H_ 0.902912 0.497788 0.229824 0.10394
H_ H_ 0.5171 0.378588 0.183585 0.10394
H_ H_ 0.55709 0.298661 0.218455 0.10394
H_ H_ 0.917755 0.251169 0.248176 0.10394
H_ H_ 0.870083 0.323573 0.196625 0.10394
H_ H_ 0.969238 0.0628458 0.144768 0.10394
H_ H_ 0.519582 0.123879 0.121801 0.10394
H_ H_ 0.639025 0.00972111 0.0946434 0.10394
H_ H_ 0.944379 0.162744 0.393587 0.10394
H_ H_ 0.514196 0.190454 0.446469 0.10394
H_ H_ 0.920638 0.274561 0.0417653 0.10394
H_ H_ 0.846669 0.231934 0.501695 0.10394
H_ H_ 0.734744 0.192046 0.381835 0.10394
H_ H_ 0.69603 0.236103 0.304085 0.10394
H_ H_ 0.841829 0.225549 0.248199 0.10394
H_ H_ 0.880524 0.181542 0.326742 0.10394
H_ H_ 0.78153 0.120534 0.0471313 0.10394
H_ H_ 0.732427 0.112127 0.11629 0.10394
H_ H_ 0.601615 0.0860851 0.00980321 0.10394
C_ C_ 0.664371 0.0967532 0.307494 0.18167
C_ C_ 0.712387 0.0809976 0.288804 -0.15533
C_ C_ 0.727491 0.0285894 0.278308 0.02923
C_ C_ 0.692104 0.487324 0.276508 -0.15533
C_ C_ 0.653385 0.00987686 0.317096 0.18167
C_ C_ 0.523866 0.132668 0.267455 0.18167
C_ C_ 0.0107303 0.176735 0.240204 -0.15533
C_ C_ 0.50534 0.222494 0.257541 0.02923
C_ C_ 0.527026 0.230634 0.308484 -0.15533
C_ C_ 0.548446 0.189712 0.337474 0.18167
C_ C_ 0.501258 0.0431849 0.376832 0.69207
C_ C_ 0.973226 0.510078 0.374697 0.02923
C_ C_ 0.992628 0.458834 0.370757 -0.15533
C_ C_ 0.963053 0.419352 0.378308 -0.15533
C_ C_ 0.912279 0.430157 0.39026 0.02923
C_ C_ 0.892292 0.48419 0.397417 -0.15533
C_ C_ 0.921574 0.523518 0.388666 0.02923
C_ C_ 0.890867 0.0717673 0.391847 0.69207
C_ C_ 0.904711 0.333837 0.389856 0.69661
C_ C_ 0.572691 0.305149 0.0898574 0.18167
C_ C_ 0.524907 0.29255 0.068093 -0.15533
C_ C_ 0.518969 0.272647 0.0167054 0.02923
C_ C_ 0.542426 0.295403 0.481254 -0.15533
C_ C_ 0.604546 0.296087 0.00955099 0.18167
C_ C_ 0.716434 0.275462 0.134923 0.18167
C_ C_ 0.742998 0.248869 0.173815 -0.15533
C_ C_ 0.743803 0.267671 0.227059 0.02923
C_ C_ 0.716881 0.314182 0.23636 -0.15533
C_ C_ 0.693269 0.342622 0.19423 0.18167
C_ C_ 0.744127 0.370643 0.0424776 0.69207
C_ C_ 0.772832 0.378537 0.500687 0.02923
C_ C_ 0.755484 0.374134 0.44781 -0.15533
C_ C_ 0.786271 0.388184 0.413532 -0.15533
C_ C_ 0.83728 0.396883 0.425009 0.02923
C_ C_ 0.855311 0.399115 0.477739 -0.15533
C_ C_ 0.82549 0.388588 0.515731 0.02923
C_ C_ 0.855504 0.385444 0.0709979 0.69207
C_ C_ 0.850879 0.389137 0.329148 0.69661
C_ C_ 0.809697 0.427889 0.178479 0.18167
C_ C_ 0.767863 0.450448 0.20182 -0.15533
C_ C_ 0.773271 0.493353 0.237882 0.02923
C_ C_ 0.818278 0.0236189 0.263247 -0.15533
C_ C_ 0.863672 0.488252 0.218912 0.18167
C_ C_ 0.991411 0.344176 0.188542 0.18167
C_ C_ 0.516565 0.304451 0.21424 -0.15533
C_ C_ 0.990098 0.269332 0.234696 0.02923
C_ C_ 0.937803 0.277476 0.230725 -0.15533
C_ C_ 0.911874 0.316559 0.199526 0.18167
C_ C_ 0.993669 0.455942 0.135286 0.69207
C_ C_ 0.520797 0.995703 0.126032 0.02923
C_ C_ 0.5013 0.0483631 0.12479 -0.15533
C_ C_ 0.534589 0.083944 0.117136 -0.15533
C_ C_ 0.583652 0.0712673 0.103893 0.02923
C_ C_ 0.600396 0.019432 0.100692 -0.15533
C_ C_ 0.570998 0.982021 0.11109 0.02923
C_ C_ 0.600899 0.427392 0.106266 0.69207
C_ C_ 0.604864 0.165015 0.11255 0.69661
C_ C_ 0.936935 0.19143 0.421349 0.18167
C_ C_ 0.979169 0.212154 0.447437 -0.15533
C_ C_ 0.970858 0.249663 0.489302 0.02923
C_ C_ 0.927354 0.246386 0.00787292 -0.15533
C_ C_ 0.88298 0.231027 0.485706 0.18167
C_ C_ 0.75716 0.191982 0.348275 0.18167
C_ C_ 0.734896 0.222464 0.307767 -0.15533
C_ C_ 0.766029 0.236115 0.270842 0.02923
C_ C_ 0.817683 0.21684 0.27679 -0.15533
C_ C_ 0.837855 0.191189 0.320466 0.18167
C_ C_ 0.75971 0.121217 0.456078 0.69207
C_ C_ 0.720858 0.114702 0.985803 0.02923
C_ C_ 0.741503 0.115339 0.0364318 -0.15533
C_ C_ 0.712681 0.111656 0.0759084 -0.15533
C_ C_ 0.661128 0.103669 0.0674077 0.02923
C_ C_ 0.638039 0.105002 0.0173176 -0.15533
C_ C_ 0.666852 0.112626 0.975777 0.02923
C_ C_ 0.648493 0.110136 0.430982 0.69207
C_ C_ 0.657491 0.100343 0.164814 0.69661
C_ C_ 0.875293 0.388806 0.384982 -0.30787
C_ C_ 0.625927 0.107605 0.111825 -0.30787
N_ N_ 0.636531 0.0596489 0.321207 -0.32189
N_ N_ 0.542747 0.14009 0.317007 -0.32189
N_ N_ 0.611053 0.307981 0.0607425 -0.32189
N_ N_ 0.6957 0.322864 0.144523 -0.32189
N_ N_ 0.856787 0.445824 0.186829 -0.32189
N_ N_ 0.941567 0.349524 0.179828 -0.32189
N_ N_ 0.890435 0.201273 0.440885 -0.32189
N_ N_ 0.80753 0.179444 0.355604 -0.32189
O_ O_ 0.00439785 0.0913146 0.406809 -0.63271
O_ O_ 0.535936 0.0339578 0.345145 -0.57982
O_ O_ 0.897128 0.0940138 0.351411 -0.63271
O_ O_ 0.874322 0.0980094 0.429055 -0.57982
O_ O_ 0.738405 0.404207 0.0813941 -0.63271
O_ O_ 0.708193 0.340308 0.0333195 -0.57982
O_ O_ 0.851584 0.346702 0.0984651 -0.63271
O_ O_ 0.883493 0.420547 0.0908719 -0.57982
O_ O_ 0.484845 0.407739 0.0817327 -0.63271
O_ O_ 0.954483 0.464703 0.162639 -0.57982
O_ O_ 0.599551 0.402886 0.148141 -0.63271
O_ O_ 0.632722 0.410962 0.0736021 -0.57982
O_ O_ 0.759568 0.0913347 0.413633 -0.63271
O_ O_ 0.787858 0.160054 0.459534 -0.57982
O_ O_ 0.648702 0.152552 0.40761 -0.63271
O_ O_ 0.612049 0.081794 0.415883 -0.57982
F_ F_ 0.938294 0.332987 0.432325 -0.20885
F_ F_ 0.9314 0.313613 0.349461 -0.20885
F_ F_ 0.86867 0.299203 0.399005 -0.20885
F_ F_ 0.81803 0.433824 0.324222 -0.20885
F_ F_ 0.820324 0.3498 0.312338 -0.20885
F_ F_ 0.885358 0.385594 0.291627 -0.20885
F_ F_ 0.572589 0.176017 0.0710519 -0.20885
F_ F_ 0.578483 0.178431 0.154791 -0.20885
F_ F_ 0.63775 0.202022 0.116845 -0.20885
F_ F_ 0.687905 0.0549724 0.165039 -0.20885
F_ F_ 0.688121 0.138021 0.1841 -0.20885
F_ F_ 0.627112 0.0969137 0.205666 -0.20885
Zn Zn 0.58475 0.0847963 0.848427 0.83971
Zn Zn 0.657932 0.35101 0.579497 0.83971
Zn Zn 0.910588 0.41497 0.650843 0.83971
Zn Zn 0.83951 0.152483 0.911982 0.83971
H_ H_ 0.662461 0.133351 0.806489 0.10394
H_ H_ 0.740236 0.103094 0.763602 0.10394
H_ H_ 0.706297 0.443599 0.775544 0.10394
H_ H_ 0.646199 0.984712 0.847309 0.10394
H_ H_ 0.0175005 0.0971414 0.758472 0.10394
H_ H_ 0.966147 0.173958 0.716065 0.10394
H_ H_ 0.511625 0.269408 0.817092 0.10394
H_ H_ 0.55817 0.201885 0.870473 0.10394
H_ H_ 0.523228 0.43934 0.842739 0.10394
H_ H_ 0.987172 0.385092 0.896094 0.10394
H_ H_ 0.854318 0.487976 0.894399 0.10394
H_ H_ 0.588531 0.304031 0.623994 0.10394
H_ H_ 0.000120286 0.2606 0.591738 0.10394
H_ H_ 0.554657 0.271196 0.94638 0.10394
H_ H_ 0.6159 0.32373 0.473533 0.10394
H_ H_ 0.719621 0.250222 0.592201 0.10394
H_ H_ 0.776631 0.21414 0.664391 0.10394
H_ H_ 0.719572 0.343958 0.758597 0.10394
H_ H_ 0.68829 0.385321 0.684948 0.10394
H_ H_ 0.725093 0.360472 0.941517 0.10394
H_ H_ 0.773593 0.382456 0.875911 0.10394
H_ H_ 0.899306 0.407093 0.991567 0.10394
H_ H_ 0.798165 0.404859 0.65009 0.10394
H_ H_ 0.731502 0.454858 0.681969 0.10394
H_ H_ 0.827362 0.0591476 0.777213 0.10394
H_ H_ 0.904279 0.487967 0.742465 0.10394
H_ H_ 0.507008 0.376762 0.687107 0.10394
H_ H_ 0.547999 0.302328 0.726763 0.10394
H_ H_ 0.904456 0.250439 0.726171 0.10394
H_ H_ 0.868926 0.329745 0.687078 0.10394
H_ H_ 0.961204 0.0575512 0.624862 0.10394
H_ H_ 0.525442 0.112794 0.630237 0.10394
H_ H_ 0.646914 -0.000177822 0.593288 0.10394
H_ H_ 0.937499 0.16268 0.88381 0.10394
H_ H_ 0.52574 0.175021 0.967794 0.10394
H_ H_ 0.915263 0.284141 0.539434 0.10394
H_ H_ 0.855198 0.217104 0.00760299 0.10394
H_ H_ 0.736405 0.206636 0.883488 0.10394
H_ H_ 0.697659 0.256665 0.804195 0.10394
H_ H_ 0.831892 0.205553 0.731014 0.10394
H_ H_ 0.872805 0.165188 0.807971 0.10394
H_ H_ 0.789858 0.111252 0.554562 0.10394
H_ H_ 0.737713 0.0918289 0.620062 0.10394
H_ H_ 0.60769 0.08267 0.513598 0.10394
C_ C_ 0.671755 0.0917217 0.801421 0.18167
C_ C_ 0.7184 0.0745114 0.780851 -0.15533
C_ C_ 0.731294 0.0212881 0.7747 0.02923
C_ C_ 0.693762 0.483209 0.77522 -0.15533
C_ C_ 0.663351 0.00808952 0.82375 0.18167
C_ C_ 0.527931 0.128661 0.767194 0.18167
C_ C_ -0.004857 0.178224 0.747649 -0.15533
C_ C_ 0.504974 0.218245 0.750912 0.02923
C_ C_ 0.519047 0.230723 0.801407 -0.15533
C_ C_ 0.544922 0.191927 0.832601 0.18167
C_ C_ 0.501211 0.0424071 0.853963 0.69207
C_ C_ 0.972836 0.513468 0.872998 0.02923
C_ C_ 0.99565 0.461698 0.874528 -0.15533
C_ C_ 0.968927 0.422897 0.888384 -0.15533
C_ C_ 0.915313 0.430532 0.890387 0.02923
C_ C_ 0.893094 0.480276 0.884988 -0.15533
C_ C_ 0.923225 0.523434 0.885961 0.02923
C_ C_ 0.895368 0.0676226 0.888394 0.69207
C_ C_ 0.912326 0.330435 0.892108 0.69661
C_ C_ 0.575125 0.300025 0.584547 0.18167
C_ C_ 0.531716 0.276788 0.568518 -0.15533
C_ C_ 0.513951 0.277151 0.51679 0.02923
C_ C_ 0.558622 0.277947 0.988095 -0.15533
C_ C_ 0.586845 0.317851 0.498839 0.18167
C_ C_ 0.720663 0.269677 0.629371 0.18167
C_ C_ 0.750531 0.248887 0.670917 -0.15533
C_ C_ 0.749353 0.27307 0.719625 0.02923
C_ C_ 0.72467 0.322566 0.724872 -0.15533
C_ C_ 0.701786 0.345272 0.679686 0.18167
C_ C_ 0.735591 0.376729 0.540246 0.69207
C_ C_ 0.77976 0.379661 1.00457714 0.02923
C_ C_ 0.760618 0.37712 0.952558 -0.15533
C_ C_ 0.792049 0.381793 0.913192 -0.15533
C_ C_ 0.843993 0.38856 0.927015 0.02923
C_ C_ 0.861036 0.397398 0.978494 -0.15533
C_ C_ 0.830023 0.389399 0.0169232 0.02923
C_ C_ 0.851086 0.38178 0.567983 0.69207
C_ C_ 0.86035 0.380506 0.829307 0.69661
C_ C_ 0.807578 0.434272 0.677952 0.18167
C_ C_ 0.769071 0.46556 0.697533 -0.15533
C_ C_ 0.776667 0.499319 0.738857 0.02923
C_ C_ 0.824855 0.0235858 0.757601 -0.15533
C_ C_ 0.865534 0.481658 0.728989 0.18167
C_ C_ 0.99144 0.351363 0.697741 0.18167
C_ C_ 0.508823 0.300059 0.712748 -0.15533
C_ C_ 0.981029 0.270499 0.734097 0.02923
C_ C_ 0.930552 0.27525 0.71529 -0.15533
C_ C_ 0.910931 0.320529 0.690465 0.18167
C_ C_ 0.989708 0.451273 0.620995 0.69207
C_ C_ 0.52471 0.98636 0.614478 0.02923
C_ C_ 0.511162 0.0390967 0.624373 -0.15533
C_ C_ 0.541661 0.0759663 0.621508 -0.15533
C_ C_ 0.59051 0.0647976 0.608214 0.02923
C_ C_ 0.607331 0.0112369 0.601752 -0.15533
C_ C_ 0.574481 0.972259 0.604262 0.02923
C_ C_ 0.600102 0.430339 0.610132 0.69207
C_ C_ 0.605468 0.162035 0.614163 0.69661
C_ C_ 0.934789 0.185851 0.918729 0.18167
C_ C_ 0.977634 0.208363 0.940392 -0.15533
C_ C_ 0.975033 0.238356 -0.011932000000000054 0.02923
C_ C_ 0.921307 0.257959 0.507468 -0.15533
C_ C_ 0.889525 0.214023 0.989609 0.18167
C_ C_ 0.757173 0.209898 0.850161 0.18167
C_ C_ 0.735416 0.236136 0.804499 -0.15533
C_ C_ 0.768126 0.242646 0.764804 0.02923
C_ C_ 0.813681 0.211746 0.765333 -0.15533
C_ C_ 0.832456 0.183166 0.807561 0.18167
C_ C_ 0.755656 0.125579 0.945027 0.69207
C_ C_ 0.72643 0.115025 0.496383 0.02923
C_ C_ 0.749147 0.110915 0.546787 -0.15533
C_ C_ 0.717541 0.102366 0.585128 -0.15533
C_ C_ 0.665365 0.0981997 0.575116 0.02923
C_ C_ 0.643835 0.0981195 0.523197 -0.15533
C_ C_ 0.672698 0.108636 0.483623 0.02923
C_ C_ 0.64101 0.110554 0.92346 0.69207
C_ C_ 0.651605 0.102618 0.674489 0.69661
C_ C_ 0.88123 0.384416 0.885908 -0.30787
C_ C_ 0.628279 0.105892 0.61788 -0.30787
N_ N_ 0.644854 0.0583536 0.819302 -0.32189
N_ N_ 0.549404 0.1417 0.81424 -0.32189
N_ N_ 0.602497 0.320258 0.55052 -0.32189
N_ N_ 0.696935 0.317589 0.635416 -0.32189
N_ N_ 0.856875 0.444573 0.691232 -0.32189
N_ N_ 0.941448 0.354459 0.681015 -0.32189
N_ N_ 0.893304 0.188224 0.944104 -0.32189
N_ N_ 0.805824 0.185412 0.849415 -0.32189
O_ O_ 0.00519193 0.0878277 0.900329 -0.63271
O_ O_ 0.5449 0.0315724 0.836315 -0.57982
O_ O_ 0.892571 0.0897277 0.846011 -0.63271
O_ O_ 0.86489 0.0881273 0.920329 -0.57982
O_ O_ 0.734115 0.40964 0.579761 -0.63271
O_ O_ 0.703061 0.342848 0.531471 -0.57982
O_ O_ 0.850462 0.339511 0.591031 -0.63271
O_ O_ 0.876113 0.418201 0.589788 -0.57982
O_ O_ 0.486571 0.419944 0.586949 -0.63271
O_ O_ 0.955696 0.462686 0.654145 -0.57982
O_ O_ 0.597844 0.400217 0.646547 -0.63271
O_ O_ 0.631687 0.416534 0.576969 -0.57982
O_ O_ 0.749176 0.107723 0.897003 -0.63271
O_ O_ 0.788923 0.159127 0.955784 -0.57982
O_ O_ 0.644783 0.148481 0.894096 -0.63271
O_ O_ 0.603783 0.0835635 0.914548 -0.57982
F_ F_ 0.94049 0.333279 0.938685 -0.20885
F_ F_ 0.945335 0.314787 0.855255 -0.20885
F_ F_ 0.877177 0.294088 0.894015 -0.20885
F_ F_ 0.825098 0.420277 0.817738 -0.20885
F_ F_ 0.83699 0.336607 0.814164 -0.20885
F_ F_ 0.897334 0.381683 0.797008 -0.20885
F_ F_ 0.570737 0.167014 0.570772 -0.20885
F_ F_ 0.577692 0.180902 0.654424 -0.20885
F_ F_ 0.64492 0.193582 0.614606 -0.20885
F_ F_ 0.680565 0.0553284 0.678261 -0.20885
F_ F_ 0.685174 0.139991 0.685705 -0.20885
F_ F_ 0.612712 0.108059 0.709028 -0.20885
Zn Zn 0.587468 0.587271 0.34647 0.83971
Zn Zn 0.655935 0.849398 0.0883101 0.83971
Zn Zn 0.907132 0.928121 0.168609 0.83971
Zn Zn 0.837083 0.661691 0.415459 0.83971
H_ H_ 0.669278 0.633938 0.297127 0.10394
H_ H_ 0.742915 0.596933 0.24804 0.10394
H_ H_ 0.711629 0.953781 0.297303 0.10394
H_ H_ 0.631216 0.482155 0.321465 0.10394
H_ H_ 0.0278341 0.61021 0.254818 0.10394
H_ H_ 0.99095 0.686232 0.208424 0.10394
H_ H_ 0.534813 0.767973 0.332318 0.10394
H_ H_ 0.566215 0.694966 0.379666 0.10394
H_ H_ 0.519849 0.940639 0.377721 0.10394
H_ H_ 0.975535 0.877802 0.393304 0.10394
H_ H_ 0.851234 0.988683 0.418268 0.10394
H_ H_ 0.574545 0.807027 0.13899 0.10394
H_ H_ 1.00599473 0.765 0.103608 0.10394
H_ H_ 0.543985 0.778037 0.442949 0.10394
H_ H_ 0.614803 0.824026 0.990512 0.10394
H_ H_ 0.712897 0.748706 0.109892 0.10394
H_ H_ 0.750725 0.707554 0.185373 0.10394
H_ H_ 0.703446 0.848968 0.27547 0.10394
H_ H_ 0.671303 0.88811 0.195746 0.10394
H_ H_ 0.714238 0.878271 0.451998 0.10394
H_ H_ 0.758508 0.90084 0.389037 0.10394
H_ H_ 0.896761 0.900353 0.492453 0.10394
H_ H_ 0.808258 0.908777 0.172493 0.10394
H_ H_ 0.729896 0.955043 0.199317 0.10394
H_ H_ 0.831974 0.53882 0.278018 0.10394
H_ H_ 0.897951 1.0177564 0.2473 0.10394
H_ H_ 0.513657 0.880829 0.195785 0.10394
H_ H_ 0.557753 0.804276 0.235321 0.10394
H_ H_ 0.917803 0.763061 0.246842 0.10394
H_ H_ 0.874946 0.835653 0.200523 0.10394
H_ H_ 0.978289 0.557468 0.15369 0.10394
H_ H_ 0.506219 0.608444 0.0680224 0.10394
H_ H_ 0.643333 0.507726 0.091472 0.10394
H_ H_ 0.931283 0.669924 0.387351 0.10394
H_ H_ 0.518499 0.682692 0.448903 0.10394
H_ H_ 0.924115 0.772467 0.0578684 0.10394
H_ H_ 0.845348 0.742355 0.501078 0.10394
H_ H_ 0.731327 0.699892 0.392423 0.10394
H_ H_ 0.686501 0.751456 0.317365 0.10394
H_ H_ 0.834377 0.744819 0.260449 0.10394
H_ H_ 0.867065 0.686374 0.327055 0.10394
H_ H_ 0.779644 0.613018 0.0544444 0.10394
H_ H_ 0.727698 0.592139 0.114121 0.10394
H_ H_ 0.602787 0.590111 -0.0028719999999999857 0.10394
C_ C_ 0.674929 0.592189 0.290758 0.18167
C_ C_ 0.720356 0.571787 0.269403 -0.15533
C_ C_ 0.728375 0.518859 0.260915 0.02923
C_ C_ 0.695417 0.992978 0.292836 -0.15533
C_ C_ 0.653001 0.509072 0.304985 0.18167
C_ C_ 0.528028 0.633618 0.268058 0.18167
C_ C_ 0.0123829 0.690154 0.247365 -0.15533
C_ C_ 0.51173 0.726505 0.265061 0.02923
C_ C_ 0.528604 0.730597 0.315603 -0.15533
C_ C_ 0.550842 0.688476 0.339458 0.18167
C_ C_ 0.511582 0.545831 0.371193 0.69207
C_ C_ 0.970214 0.00794908 0.390476 0.02923
C_ C_ -0.008761000000000019 0.956205 0.39239 -0.15533
C_ C_ 0.959424 0.917493 0.395452 -0.15533
C_ C_ 0.906449 0.931431 0.395967 0.02923
C_ C_ 0.89035 0.982561 0.407778 -0.15533
C_ C_ 0.919503 0.0219243 0.401241 0.02923
C_ C_ 0.897119 0.576415 0.382338 0.69207
C_ C_ 0.890402 0.834139 0.387164 0.69661
C_ C_ 0.567921 0.798399 0.0985336 0.18167
C_ C_ 0.520183 0.780232 0.0763105 -0.15533
C_ C_ 0.508059 0.773807 0.0236696 0.02923
C_ C_ 0.548732 0.785408 0.484407 -0.15533
C_ C_ 0.588976 0.809353 0.0150529 0.18167
C_ C_ 0.716966 0.772453 0.14497 0.18167
C_ C_ 0.73705 0.749014 0.190349 -0.15533
C_ C_ 0.73231 0.77683 0.237135 0.02923
C_ C_ 0.709814 0.827406 0.239231 -0.15533
C_ C_ 0.688738 0.848695 0.194303 0.18167
C_ C_ 0.741863 0.869586 0.0567274 0.69207
C_ C_ 0.774451 0.874158 0.512087 0.02923
C_ C_ 0.753428 0.877421 0.461328 -0.15533
C_ C_ 0.780091 0.89249 0.424037 -0.15533
C_ C_ 0.831285 0.898067 0.432434 0.02923
C_ C_ 0.855367 0.890418 0.482123 -0.15533
C_ C_ 0.826984 0.882301 0.52309 0.02923
C_ C_ 0.855654 0.881243 0.0819673 0.69207
C_ C_ 0.840559 0.896929 0.335459 0.69661
C_ C_ 0.807572 0.946094 0.191276 0.18167
C_ C_ 0.765196 0.970589 0.212047 -0.15533
C_ C_ 0.769349 1.0114338 0.248001 0.02923
C_ C_ 0.821917 0.513062 0.245864 -0.15533
C_ C_ 0.86063 1.00215593 0.238412 0.18167
C_ C_ 0.992695 0.868666 0.213457 0.18167
C_ C_ 0.516267 0.809271 0.223358 -0.15533
C_ C_ 0.993386 0.787012 0.250035 0.02923
C_ C_ 0.94035 0.789746 0.235509 -0.15533
C_ C_ 0.915802 0.830422 0.208866 0.18167
C_ C_ 0.987173 0.963442 0.133156 0.69207
C_ C_ 0.519296 0.488781 0.103571 0.02923
C_ C_ 0.495605 0.537567 0.0979399 -0.15533
C_ C_ 0.525289 0.575692 0.086088 -0.15533
C_ C_ 0.579113 0.565721 0.0894281 0.02923
C_ C_ 0.60131 0.51507 0.0888606 -0.15533
C_ C_ 0.572436 0.477771 0.101311 0.02923
C_ C_ 0.593681 0.929007 0.110007 0.69207
C_ C_ 0.592438 0.664603 0.095844 0.69661
C_ C_ 0.931813 0.685633 0.426379 0.18167
C_ C_ 0.973376 0.712765 0.445206 -0.15533
C_ C_ 0.971862 0.746263 0.490998 0.02923
C_ C_ 0.92847 0.75169 1.0236986 -0.15533
C_ C_ 0.882054 0.733962 0.486315 0.18167
C_ C_ 0.750414 0.707973 0.359095 0.18167
C_ C_ 0.72715 0.73925 0.319956 -0.15533
C_ C_ 0.757081 0.749811 0.281544 0.02923
C_ C_ 0.80911 0.736933 0.289259 -0.15533
C_ C_ 0.830675 0.704052 0.326771 0.18167
C_ C_ 0.76345 0.622033 0.454985 0.69207
C_ C_ 0.725069 0.610942 0.989269 0.02923
C_ C_ 0.741712 0.60808 0.0408243 -0.15533
C_ C_ 0.708623 0.604689 0.0772397 -0.15533
C_ C_ 0.657993 0.595621 0.063032 0.02923
C_ C_ 0.642156 0.591765 0.0098011 -0.15533
C_ C_ 0.672773 0.605003 0.972294 0.02923
C_ C_ 0.652345 0.608614 0.424841 0.69207
C_ C_ 0.634659 0.605183 0.154626 0.69661
C_ C_ 0.867388 0.891482 0.390766 -0.30787
C_ C_ 0.615207 0.607908 0.0983592 -0.30787
N_ N_ 0.641189 0.560215 0.306967 -0.32189
N_ N_ 0.550142 0.640357 0.316696 -0.32189
N_ N_ 0.60143 0.809894 0.0670143 -0.32189
N_ N_ 0.689852 0.819918 0.149765 -0.32189
N_ N_ 0.853596 0.961503 0.205177 -0.32189
N_ N_ 0.940478 0.871736 0.201256 -0.32189
N_ N_ 0.888573 0.698419 0.44633 -0.32189
N_ N_ 0.800679 0.69224 0.360994 -0.32189
O_ O_ 0.00109848 0.597173 0.385256 -0.63271
O_ O_ 0.546656 0.537332 0.337225 -0.57982
O_ O_ 0.893772 0.60054 0.339883 -0.63271
O_ O_ 0.873913 0.596018 0.420483 -0.57982
O_ O_ 0.751325 0.884596 0.104697 -0.63271
O_ O_ 0.701576 0.845798 0.0419484 -0.57982
O_ O_ 0.857814 0.838243 0.103105 -0.63271
O_ O_ 0.871693 0.923016 0.106551 -0.57982
O_ O_ 0.489966 0.912333 0.102007 -0.63271
O_ O_ 0.953678 0.970489 0.169848 -0.57982
O_ O_ 0.592309 0.905734 0.152383 -0.63271
O_ O_ 0.627579 0.91048 0.0811164 -0.57982
O_ O_ 0.760032 0.600221 0.408749 -0.63271
O_ O_ 0.794155 0.658307 0.464605 -0.57982
O_ O_ 0.653161 0.650692 0.401901 -0.63271
O_ O_ 0.614671 0.583122 0.410601 -0.57982
F_ F_ 0.922563 0.826717 0.429769 -0.20885
F_ F_ 0.918467 0.818432 0.345513 -0.20885
F_ F_ 0.85425 0.801452 0.391766 -0.20885
F_ F_ 0.807531 0.940975 0.335045 -0.20885
F_ F_ 0.814036 0.857032 0.316454 -0.20885
F_ F_ 0.879002 0.901366 0.305022 -0.20885
F_ F_ 0.569834 0.668673 0.0452642 -0.20885
F_ F_ 0.555173 0.682471 0.128999 -0.20885
F_ F_ 0.629134 0.699071 0.100775 -0.20885
F_ F_ 0.661245 0.559071 0.166725 -0.20885
F_ F_ 0.663807 0.643893 0.173113 -0.20885
F_ F_ 0.594601 0.611297 0.184215 -0.20885
Zn Zn 0.587186 0.583225 0.84449 0.83971
Zn Zn 0.65756 0.842232 0.58771 0.83971
Zn Zn 0.905721 0.915696 0.662378 0.83971
Zn Zn 0.839936 0.656087 0.927751 0.83971
H_ H_ 0.667863 0.627381 0.795712 0.10394
H_ H_ 0.754799 0.591257 0.782564 0.10394
H_ H_ 0.721735 0.949374 0.805047 0.10394
H_ H_ 0.62636 0.477719 0.816339 0.10394
H_ H_ 0.0421577 0.605101 0.739998 0.10394
H_ H_ 1.00752426 0.6791 0.696956 0.10394
H_ H_ 0.526809 0.767883 0.838484 0.10394
H_ H_ 0.558818 0.69277 0.882094 0.10394
H_ H_ 0.528795 0.941012 0.84747 0.10394
H_ H_ 0.977243 0.874743 0.880127 0.10394
H_ H_ 0.853056 0.988388 0.904583 0.10394
H_ H_ 0.57951 0.802391 0.633511 0.10394
H_ H_ 0.00249676 0.758331 0.595013 0.10394
H_ H_ 0.537503 0.77957 0.950938 0.10394
H_ H_ 0.614093 0.824202 0.48033 0.10394
H_ H_ 0.729168 0.750848 0.598709 0.10394
H_ H_ 0.77802 0.709822 0.678332 0.10394
H_ H_ 0.711032 0.82666 0.770878 0.10394
H_ H_ 0.669813 0.866121 0.698552 0.10394
H_ H_ 0.7152 0.881823 0.955429 0.10394
H_ H_ 0.76723 0.894161 0.88654 0.10394
H_ H_ 0.899925 0.900352 0.999878849 0.10394
H_ H_ 0.808672 0.895005 0.674118 0.10394
H_ H_ 0.738743 0.936071 0.712964 0.10394
H_ H_ 0.836672 0.53483 0.788794 0.10394
H_ H_ 0.897785 1.0188372 0.728388 0.10394
H_ H_ 0.517689 0.882643 0.69509 0.10394
H_ H_ 0.558218 0.805833 0.741929 0.10394
H_ H_ 0.918187 0.738728 0.715493 0.10394
H_ H_ 0.868882 0.822573 0.689979 0.10394
H_ H_ 0.96587 0.550699 0.610287 0.10394
H_ H_ 0.514452 0.625546 0.609293 0.10394
H_ H_ 0.646997 0.512014 0.599406 0.10394
H_ H_ 0.94086 0.670276 0.899028 0.10394
H_ H_ 0.516909 0.686285 0.969537 0.10394
H_ H_ 0.919888 0.780121 0.545307 0.10394
H_ H_ 0.851224 0.729326 1.0177197 0.10394
H_ H_ 0.738691 0.709701 0.902467 0.10394
H_ H_ 0.69558 0.73861 0.822226 0.10394
H_ H_ 0.838195 0.734477 0.758789 0.10394
H_ H_ 0.880685 0.693335 0.836261 0.10394
H_ H_ 0.788204 0.622932 0.555493 0.10394
H_ H_ 0.73181 0.616349 0.621422 0.10394
H_ H_ 0.610312 0.578287 0.511472 0.10394
C_ C_ 0.674804 0.58525 0.794801 0.18167
C_ C_ 0.724635 0.56638 0.785155 -0.15533
C_ C_ 0.732141 0.514977 0.769155 0.02923
C_ C_ 0.706904 0.989637 0.801874 -0.15533
C_ C_ 0.650661 0.50526 0.799121 0.18167
C_ C_ 0.534165 0.63681 0.764569 0.18167
C_ C_ 0.017613 0.68243 0.738099 -0.15533
C_ C_ 0.509187 0.726163 0.765563 0.02923
C_ C_ 0.525582 0.731481 0.817851 -0.15533
C_ C_ 0.54266 0.68746 0.843202 0.18167
C_ C_ 0.506644 0.539883 0.867073 0.69207
C_ C_ 0.970885 0.00458375 0.87905 0.02923
C_ C_ -0.00703699999999996 0.952049 0.878417 -0.15533
C_ C_ 0.961837 0.913318 0.884439 -0.15533
C_ C_ 0.91081 0.924435 0.897914 0.02923
C_ C_ 0.892236 0.977011 0.902453 -0.15533
C_ C_ 0.921116 0.0164176 0.893511 0.02923
C_ C_ 0.898505 0.577151 0.888305 0.69207
C_ C_ 0.899415 0.826765 0.898614 0.69661
C_ C_ 0.570927 0.797694 0.588902 0.18167
C_ C_ 0.524463 0.777164 0.569444 -0.15533
C_ C_ 0.515051 0.769146 0.516723 0.02923
C_ C_ 0.543457 0.78786 0.992405 -0.15533
C_ C_ 0.59561 0.800652 0.505278 0.18167
C_ C_ 0.723469 0.765276 0.639531 0.18167
C_ C_ 0.747704 0.741106 0.683434 -0.15533
C_ C_ 0.735895 0.758898 0.732634 0.02923
C_ C_ 0.707227 0.805264 0.734833 -0.15533
C_ C_ 0.682675 0.827933 0.692605 0.18167
C_ C_ 0.741267 0.864416 0.552271 0.69207
C_ C_ 0.778159 0.878354 1.0165379 0.02923
C_ C_ 0.755308 0.880873 0.964998 -0.15533
C_ C_ 0.785455 0.887302 0.925967 -0.15533
C_ C_ 0.838662 0.889489 0.937188 0.02923
C_ C_ 0.858707 0.893325 0.989398 -0.15533
C_ C_ 0.830107 0.886357 0.0290425 0.02923
C_ C_ 0.850421 0.881113 0.578529 0.69207
C_ C_ 0.847861 0.888251 0.839998 0.69661
C_ C_ 0.812976 0.931744 0.696727 0.18167
C_ C_ 0.771342 0.957008 0.71582 -0.15533
C_ C_ 0.777165 0.00194131 0.747188 0.02923
C_ C_ 0.826938 0.508512 0.755851 -0.15533
C_ C_ 0.864885 0.997117 0.733319 0.18167
C_ C_ 0.983969 0.863444 0.715785 0.18167
C_ C_ 0.517019 0.80788 0.728324 -0.15533
C_ C_ 0.982856 0.777841 0.747372 0.02923
C_ C_ 0.933516 0.776587 0.72638 -0.15533
C_ C_ 0.908348 0.820166 0.705085 0.18167
C_ C_ 0.983164 0.956087 0.628694 0.69207
C_ C_ 0.524338 0.497554 0.620053 0.02923
C_ C_ 0.505491 0.550098 0.621117 -0.15533
C_ C_ 0.534785 0.587148 0.607692 -0.15533
C_ C_ 0.587794 0.573799 0.602406 0.02923
C_ C_ 0.606948 0.522667 0.603549 -0.15533
C_ C_ 0.576858 0.483904 0.613668 0.02923
C_ C_ 0.596523 0.919109 0.607006 0.69207
C_ C_ 0.602844 0.667864 0.607224 0.69661
C_ C_ 0.936188 0.691624 0.934771 0.18167
C_ C_ 0.979269 0.711899 0.958417 -0.15533
C_ C_ 0.973774 0.745673 1.000725811 0.02923
C_ C_ 0.923892 0.756111 0.512071 -0.15533
C_ C_ 0.887392 0.725252 1.00114982 0.18167
C_ C_ 0.761318 0.711368 0.869422 0.18167
C_ C_ 0.734561 0.729368 0.824259 -0.15533
C_ C_ 0.762037 0.735736 0.779936 0.02923
C_ C_ 0.815974 0.726815 0.78791 -0.15533
C_ C_ 0.839346 0.702642 0.831849 0.18167
C_ C_ 0.761946 0.62559 0.956194 0.69207
C_ C_ 0.729786 0.610061 0.492983 0.02923
C_ C_ 0.749201 0.611436 0.543828 -0.15533
C_ C_ 0.71568 0.615951 0.581865 -0.15533
C_ C_ 0.664632 0.605349 0.572071 0.02923
C_ C_ 0.648897 0.594894 0.520137 -0.15533
C_ C_ 0.678163 0.604434 0.479374 0.02923
C_ C_ 0.64703 0.608261 0.920252 0.69207
C_ C_ 0.650154 0.606894 0.664138 0.69661
C_ C_ 0.874797 0.883686 0.896351 -0.30787
C_ C_ 0.625566 0.614049 0.609694 -0.30787
N_ N_ 0.639507 0.55449 0.802757 -0.32189
N_ N_ 0.549678 0.641917 0.816369 -0.32189
N_ N_ 0.605938 0.807165 0.555504 -0.32189
N_ N_ 0.691435 0.807899 0.644998 -0.32189
N_ N_ 0.858397 0.950422 0.704079 -0.32189
N_ N_ 0.93351 0.861441 0.700274 -0.32189
N_ N_ 0.89132 0.696486 0.956406 -0.32189
N_ N_ 0.812658 0.697201 0.871209 -0.32189
O_ O_ 1.00856598 0.596183 0.884618 -0.63271
O_ O_ 0.540021 0.537434 0.833987 -0.57982
O_ O_ 0.887145 0.599571 0.846644 -0.63271
O_ O_ 0.873175 0.594181 0.927493 -0.57982
O_ O_ 0.746488 0.888243 0.59679 -0.63271
O_ O_ 0.702075 0.836136 0.541457 -0.57982
O_ O_ 0.852747 0.840552 0.605411 -0.63271
O_ O_ 0.872136 0.920144 0.59869 -0.57982
O_ O_ 0.486677 0.908054 0.595804 -0.63271
O_ O_ 0.946473 0.965714 0.660726 -0.57982
O_ O_ 0.591536 0.896319 0.648763 -0.63271
O_ O_ 0.63758 0.906519 0.583932 -0.57982
O_ O_ 0.76285 0.609974 0.910188 -0.63271
O_ O_ 0.795475 0.654275 0.974945 -0.57982
O_ O_ 0.64662 0.648729 0.894336 -0.63271
O_ O_ 0.619039 0.572189 0.90387 -0.57982
F_ F_ 0.941662 0.824249 0.933412 -0.20885
F_ F_ 0.916887 0.812002 0.850651 -0.20885
F_ F_ 0.862327 0.793215 0.904054 -0.20885
F_ F_ 0.815733 0.931371 0.832728 -0.20885
F_ F_ 0.818245 0.851604 0.821454 -0.20885
F_ F_ 0.880243 0.887911 0.805405 -0.20885
F_ F_ 0.57347 0.671243 0.561524 -0.20885
F_ F_ 0.570307 0.683496 0.646427 -0.20885
F_ F_ 0.636466 0.704682 0.613086 -0.20885
F_ F_ 0.683659 0.567078 0.67231 -0.20885
F_ F_ 0.675548 0.648517 0.68348 -0.20885
F_ F_ 0.614797 0.603549 0.70042 -0.20885
_cell_length_a 26.508
_cell_length_b 26.37200000322088
_cell_length_c 26.311999743092066
_cell_angle_alpha 93.74100058972084
_cell_angle_beta 96.04100104955006
_cell_angle_gamma 83.6869992558723
_symmetry_space_group_name_H-M         'P 1'
_symmetry_Int_Tables_number            1
loop_
_symmetry_equiv_pos_as_xyz
   'x, y, z'
                         
loop_
_atom_site_label
_atom_site_type_symbol
_atom_site_fract_x 
_atom_site_fract_y
_atom_site_fract_z
_atom_site_charge
Zn Zn 0.0869325 0.0841111 0.350062 0.83971
Zn Zn 0.160784 0.349646 0.078978 0.83971
Zn Zn 0.41205 0.412213 0.140505 0.83971
Zn Zn 0.339267 0.162589 0.418806 0.83971
H_ H_ 0.165124 0.128134 0.300062 0.10394
H_ H_ 0.248249 0.0914746 0.273607 0.10394
H_ H_ 0.220249 0.451009 0.272854 0.10394
H_ H_ 0.127622 0.984857 0.333479 0.10394
H_ H_ 0.531242 0.0941802 0.250799 0.10394
H_ H_ 0.493784 0.16675 0.197413 0.10394
H_ H_ 0.0383703 0.269248 0.332804 0.10394
H_ H_ 0.0714149 0.194336 0.377252 0.10394
H_ H_ 0.0292777 0.448118 0.357912 0.10394
H_ H_ 0.484328 0.375807 0.376471 0.10394
H_ H_ 0.352597 0.48603 0.383969 0.10394
H_ H_ 0.0847185 0.308805 0.121377 0.10394
H_ H_ 0.4954 0.293086 0.0922239 0.10394
H_ H_ 0.0385022 0.300988 0.444726 0.10394
H_ H_ 0.115102 0.327766 0.971784 0.10394
H_ H_ 0.206025 0.249187 0.101994 0.10394
H_ H_ 0.242166 0.20776 0.178899 0.10394
H_ H_ 0.218913 0.354076 0.264886 0.10394
H_ H_ 0.190396 0.391918 0.186205 0.10394
H_ H_ 0.222519 0.343514 0.435861 0.10394
H_ H_ 0.275266 0.354015 0.365573 0.10394
H_ H_ 0.396175 0.392612 0.482079 0.10394
H_ H_ 0.306369 0.404488 0.149236 0.10394
H_ H_ 0.236322 0.461833 0.181111 0.10394
H_ H_ 0.326763 0.0411197 0.28255 0.10394
H_ H_ 0.415574 0.495461 0.222121 0.10394
H_ H_ 0.0113653 0.371711 0.173494 0.10394
H_ H_ 0.0585009 0.301125 0.223842 0.10394
H_ H_ 0.41084 0.241066 0.209667 0.10394
H_ H_ 0.374259 0.316927 0.170366 0.10394
H_ H_ 0.464942 0.0625767 0.143416 0.10394
H_ H_ 0.0195283 0.127351 0.121525 0.10394
H_ H_ 0.139809 0.00900596 0.0906144 0.10394
H_ H_ 0.440573 0.160276 0.402462 0.10394
H_ H_ 0.0171322 0.197917 0.4385 0.10394
H_ H_ 0.415317 0.303187 0.0126453 0.10394
H_ H_ 0.346821 0.242493 0.506242 0.10394
H_ H_ 0.236303 0.205955 0.386806 0.10394
H_ H_ 0.193317 0.258061 0.312252 0.10394
H_ H_ 0.336194 0.236611 0.243664 0.10394
H_ H_ 0.377664 0.187374 0.320809 0.10394
H_ H_ 0.284725 0.103894 0.0511476 0.10394
H_ H_ 0.232517 0.0968597 0.120288 0.10394
H_ H_ 0.0988845 0.0914893 0.00910715 0.10394
C_ C_ 0.17558 0.0864937 0.303834 0.18167
C_ C_ 0.22096 0.0659114 0.283585 -0.15533
C_ C_ 0.230701 0.0138909 0.277356 0.02923
C_ C_ 0.210252 0.489512 0.278368 -0.15533
C_ C_ 0.14989 0.00479117 0.311376 0.18167
C_ C_ 0.0308636 0.134348 0.266639 0.18167
C_ C_ 0.507463 0.173525 0.236506 -0.15533
C_ C_ 0.0163748 0.224913 0.262557 0.02923
C_ C_ 0.0358074 0.231553 0.313396 -0.15533
C_ C_ 0.0515272 0.188578 0.340208 0.18167
C_ C_ 0.00414591 0.0469137 0.379759 0.69207
C_ C_ 0.477426 0.505012 0.376691 0.02923
C_ C_ 0.497671 0.451775 0.374889 -0.15533
C_ C_ 0.465579 0.412201 0.378943 -0.15533
C_ C_ 0.411058 0.424394 0.382865 0.02923
C_ C_ 0.392645 0.476795 0.38507 -0.15533
C_ C_ 0.426143 0.516406 0.385388 0.02923
C_ C_ 0.387941 0.0731192 0.384134 0.69207
C_ C_ 0.404856 0.32457 0.380306 0.69661
C_ C_ 0.0758572 0.298465 0.0802724 0.18167
C_ C_ 0.0348231 0.270873 0.0615173 -0.15533
C_ C_ 0.017744 0.267916 0.00809531 0.02923
C_ C_ 0.0485793 0.296484 0.486061 -0.15533
C_ C_ 0.0947654 0.309375 -0.0030850000000000044 0.18167
C_ C_ 0.214902 0.273229 0.136197 0.18167
C_ C_ 0.232831 0.247904 0.181203 -0.15533
C_ C_ 0.236593 0.274794 0.229331 0.02923
C_ C_ 0.219756 0.328613 0.229375 -0.15533
C_ C_ 0.202291 0.351197 0.184158 0.18167
C_ C_ 0.239386 0.368171 0.0356144 0.69207
C_ C_ 0.274056 0.37389 0.496469 0.02923
C_ C_ 0.256645 0.362617 0.445231 -0.15533
C_ C_ 0.28757 0.368557 0.404952 -0.15533
C_ C_ 0.336426 0.385295 0.417131 0.02923
C_ C_ 0.353865 0.397618 0.469839 -0.15533
C_ C_ 0.32212 0.3945 0.508026 0.02923
C_ C_ 0.353498 0.385445 0.0598857 0.69207
C_ C_ 0.354733 0.385383 0.317971 0.69661
C_ C_ 0.315706 0.439273 0.169754 0.18167
C_ C_ 0.27598 0.467318 0.194151 -0.15533
C_ C_ 0.286129 0.505118 0.231463 0.02923
C_ C_ 0.322075 0.00648875 0.2589 -0.15533
C_ C_ 0.376942 0.486539 0.218561 0.18167
C_ C_ 0.492683 0.348156 0.191764 0.18167
C_ C_ 0.017427 0.301792 0.212923 -0.15533
C_ C_ 0.486304 0.264958 0.222854 0.02923
C_ C_ 0.435324 0.27067 0.205775 -0.15533
C_ C_ 0.413397 0.315066 0.183205 0.18167
C_ C_ 0.488145 0.449355 0.112864 0.69207
C_ C_ 0.0212642 1.00001 0.1254 0.02923
C_ C_ 0.007169 0.0517472 0.136009 -0.15533
C_ C_ 0.0371433 0.0877243 0.122968 -0.15533
C_ C_ 0.0857585 0.0735203 0.109808 0.02923
C_ C_ 0.102691 0.0203675 0.103397 -0.15533
C_ C_ 0.0719109 0.982265 0.112223 0.02923
C_ C_ 0.101903 0.42887 0.108138 0.69207
C_ C_ 0.0967812 0.167588 0.0969251 0.69661
C_ C_ 0.437383 0.18304 0.437468 0.18167
C_ C_ 0.478864 0.203128 0.462038 -0.15533
C_ C_ 0.472566 0.241944 0.500299 0.02923
C_ C_ 0.424558 0.265142 -0.0011430000000000051 -0.15533
C_ C_ 0.384235 0.235163 0.490653 0.18167
C_ C_ 0.25489 0.2093 0.353396 0.18167
C_ C_ 0.231142 0.23982 0.311738 -0.15533
C_ C_ 0.26185 0.24996 0.274803 0.02923
C_ C_ 0.31499 0.230494 0.276082 -0.15533
C_ C_ 0.336441 0.201916 0.31825 0.18167
C_ C_ 0.261594 0.133073 0.455389 0.69207
C_ C_ 0.22569 0.103154 0.990821 0.02923
C_ C_ 0.246313 0.100346 0.0429586 -0.15533
C_ C_ 0.214571 0.0982892 0.0829158 -0.15533
C_ C_ 0.160739 0.0994973 0.0712602 0.02923
C_ C_ 0.141955 0.0945638 0.0204603 -0.15533
C_ C_ 0.171417 0.100994 0.97945 0.02923
C_ C_ 0.149682 0.12386 0.429597 0.69207
C_ C_ 0.145545 0.118218 0.165242 0.69661
C_ C_ 0.375314 0.381489 0.375966 -0.30787
C_ C_ 0.122502 0.114259 0.111459 -0.30787
N_ N_ 0.139722 0.0558758 0.313769 -0.32189
N_ N_ 0.0562048 0.141821 0.313444 -0.32189
N_ N_ 0.108647 0.311273 0.0493396 -0.32189
N_ N_ 0.196898 0.324428 0.138791 -0.32189
N_ N_ 0.365373 0.448432 0.183697 -0.32189
N_ N_ 0.443065 0.353065 0.173368 -0.32189
N_ N_ 0.390988 0.201102 0.4515 -0.32189
N_ N_ 0.305703 0.193419 0.355535 -0.32189
O_ O_ 0.502413 0.0823574 0.411213 -0.63271
O_ O_ 0.0427361 0.035046 0.350348 -0.57982
O_ O_ 0.390138 0.0940395 0.3411 -0.63271
O_ O_ 0.362341 0.0961328 0.41959 -0.57982
O_ O_ 0.243836 0.397738 0.0779282 -0.63271
O_ O_ 0.201753 0.340906 0.0279305 -0.57982
O_ O_ 0.355926 0.345623 0.0873847 -0.63271
O_ O_ 0.378549 0.422487 0.0771931 -0.57982
O_ O_ 0.990783 0.416741 0.101903 -0.63271
O_ O_ 0.461378 0.45621 0.151827 -0.57982
O_ O_ 0.0993703 0.40046 0.146661 -0.63271
O_ O_ 0.137944 0.415827 0.0794792 -0.57982
O_ O_ 0.259323 0.106135 0.411023 -0.63271
O_ O_ 0.297436 0.16177 0.469572 -0.57982
O_ O_ 0.15683 0.162066 0.403458 -0.63271
O_ O_ 0.12048 0.0897234 0.411646 -0.57982
F_ F_ 0.434749 0.318451 0.425845 -0.20885
F_ F_ 0.434872 0.309958 0.340322 -0.20885
F_ F_ 0.371466 0.289092 0.381087 -0.20885
F_ F_ 0.317721 0.426588 0.314642 -0.20885
F_ F_ 0.328252 0.34552 0.299921 -0.20885
F_ F_ 0.390334 0.391166 0.285033 -0.20885
F_ F_ 0.0675295 0.165264 0.0503675 -0.20885
F_ F_ 0.0648612 0.193523 0.131147 -0.20885
F_ F_ 0.133037 0.198349 0.0901797 -0.20885
F_ F_ 0.175932 0.0739042 0.172723 -0.20885
F_ F_ 0.172222 0.157221 0.178873 -0.20885
F_ F_ 0.11227 0.124943 0.200189 -0.20885
Zn Zn 0.0876175 0.0839795 0.845804 0.83971
Zn Zn 0.166104 0.341598 0.585879 0.83971
Zn Zn 0.409732 0.413982 0.646597 0.83971
Zn Zn 0.340752 0.149579 0.921238 0.83971
H_ H_ 0.175844 0.13065 0.81008 0.10394
H_ H_ 0.260605 0.0875147 0.775933 0.10394
H_ H_ 0.213802 0.442078 0.783524 0.10394
H_ H_ 0.117639 0.986843 0.79508 0.10394
H_ H_ 0.521563 0.0894636 0.756339 0.10394
H_ H_ 0.479482 0.155375 0.70273 0.10394
H_ H_ 0.0443778 0.272262 0.832012 0.10394
H_ H_ 0.0863502 0.194344 0.869285 0.10394
H_ H_ 0.0373406 0.453203 0.870451 0.10394
H_ H_ 0.478406 0.374624 0.859829 0.10394
H_ H_ 0.350452 0.479068 0.892804 0.10394
H_ H_ 0.0758749 0.294406 0.631136 0.10394
H_ H_ 0.513936 0.253276 0.596009 0.10394
H_ H_ 0.0451498 0.277866 0.936088 0.10394
H_ H_ 0.122652 0.322151 0.484956 0.10394
H_ H_ 0.220948 0.246817 0.601676 0.10394
H_ H_ 0.25614 0.198584 0.680012 0.10394
H_ H_ 0.221719 0.337607 0.773238 0.10394
H_ H_ 0.186327 0.37815 0.69376 0.10394
H_ H_ 0.216275 0.351031 0.934594 0.10394
H_ H_ 0.276931 0.343803 0.867479 0.10394
H_ H_ 0.383763 0.420694 0.973285 0.10394
H_ H_ 0.302134 0.39458 0.650938 0.10394
H_ H_ 0.23354 0.443309 0.68635 0.10394
H_ H_ 0.332924 0.0323762 0.782301 0.10394
H_ H_ 0.403361 0.490693 0.731196 0.10394
H_ H_ 0.0142828 0.385405 0.6999 0.10394
H_ H_ 0.0518396 0.304588 0.730699 0.10394
H_ H_ 0.406261 0.23352 0.703379 0.10394
H_ H_ 0.366414 0.315389 0.672489 0.10394
H_ H_ 0.474948 0.0488774 0.639754 0.10394
H_ H_ 0.0160674 0.121793 0.602605 0.10394
H_ H_ 0.143968 0.00715366 0.591325 0.10394
H_ H_ 0.451563 0.125447 0.952228 0.10394
H_ H_ 0.0132213 0.194935 0.9284 0.10394
H_ H_ 0.418494 0.290876 0.538831 0.10394
H_ H_ 0.345698 0.250062 -0.01513399999999998 0.10394
H_ H_ 0.234276 0.207356 0.89913 0.10394
H_ H_ 0.193585 0.251536 0.824352 0.10394
H_ H_ 0.33384 0.217013 0.752628 0.10394
H_ H_ 0.375665 0.187491 0.83176 0.10394
H_ H_ 0.282547 0.131482 0.55959 0.10394
H_ H_ 0.234325 0.110493 0.622665 0.10394
H_ H_ 0.104076 0.0977435 0.506985 0.10394
C_ C_ 0.183048 0.0867719 0.805404 0.18167
C_ C_ 0.228961 0.0665389 0.784742 -0.15533
C_ C_ 0.236986 0.0117554 0.774554 0.02923
C_ C_ 0.205086 0.481793 0.785921 -0.15533
C_ C_ 0.150625 0.00742645 0.795683 0.18167
C_ C_ 0.0227658 0.13603 0.772076 0.18167
C_ C_ 0.502308 0.166781 0.736875 -0.15533
C_ C_ 0.00809484 0.226572 0.763627 0.02923
C_ C_ 0.0367665 0.234084 0.81157 -0.15533
C_ C_ 0.0611848 0.192197 0.835088 0.18167
C_ C_ 0.00955393 0.0429102 0.875163 0.69207
C_ C_ 0.470431 0.50047 0.86749 0.02923
C_ C_ 0.48568 0.450031 0.850066 -0.15533
C_ C_ 0.459659 0.412418 0.862272 -0.15533
C_ C_ 0.410363 0.421745 0.877892 0.02923
C_ C_ 0.390634 0.471036 0.88752 -0.15533
C_ C_ 0.421161 0.511064 0.88296 0.02923
C_ C_ 0.392629 0.0684615 0.879044 0.69207
C_ C_ 0.401778 0.323977 0.879148 0.69661
C_ C_ 0.0688136 0.298242 0.590615 0.18167
C_ C_ 0.0249297 0.279415 0.5685 -0.15533
C_ C_ 0.0138188 0.277658 0.515217 0.02923
C_ C_ 0.0534036 0.283787 0.976413 -0.15533
C_ C_ 0.0979993 0.306081 0.508033 0.18167
C_ C_ 0.21795 0.266642 0.639098 0.18167
C_ C_ 0.239314 0.240235 0.683327 -0.15533
C_ C_ 0.236542 0.264676 0.734196 0.02923
C_ C_ 0.220854 0.316366 0.735857 -0.15533
C_ C_ 0.200979 0.3394 0.690974 0.18167
C_ C_ 0.238177 0.373555 0.53503 0.69207
C_ C_ 0.276462 0.368599 -0.0036049999999999693 0.02923
C_ C_ 0.257722 0.356462 0.943003 -0.15533
C_ C_ 0.288532 0.36267 0.904358 -0.15533
C_ C_ 0.335316 0.384759 0.913557 0.02923
C_ C_ 0.352196 0.397279 0.966109 -0.15533
C_ C_ 0.327593 0.384193 0.00758521 0.02923
C_ C_ 0.346753 0.392635 0.5624 0.69207
C_ C_ 0.351856 0.378705 0.816596 0.69661
C_ C_ 0.30923 0.429156 0.675559 0.18167
C_ C_ 0.270494 0.455069 0.698677 -0.15533
C_ C_ 0.277548 0.496469 0.735233 0.02923
C_ C_ 0.326647 0.00333036 0.754779 -0.15533
C_ C_ 0.367647 0.479632 0.726355 0.18167
C_ C_ 0.484891 0.343708 0.688954 0.18167
C_ C_ 0.012081 0.308976 0.72195 -0.15533
C_ C_ 0.480742 0.258905 0.716437 0.02923
C_ C_ 0.429009 0.263221 0.697754 -0.15533
C_ C_ 0.40756 0.306079 0.673163 0.18167
C_ C_ 0.486477 0.459743 0.61841 0.69207
C_ C_ 0.0205711 0.9953 0.623965 0.02923
C_ C_ 0.00182631 0.0463069 0.621627 -0.15533
C_ C_ 0.0316749 0.0818286 0.607007 -0.15533
C_ C_ 0.0838416 0.0699003 0.604215 0.02923
C_ C_ 0.104334 0.0199045 0.601666 -0.15533
C_ C_ 0.0738742 0.981226 0.612973 0.02923
C_ C_ 0.103069 0.417252 0.608542 0.69207
C_ C_ 0.100142 0.16759 0.616008 0.69661
C_ C_ 0.44471 0.166453 0.955536 0.18167
C_ C_ 0.486038 0.194975 0.975195 -0.15533
C_ C_ 0.476953 0.245508 0.993999 0.02923
C_ C_ 0.424582 0.259321 0.51263 -0.15533
C_ C_ 0.38472 0.235878 0.980519 0.18167
C_ C_ 0.258399 0.20919 0.866716 0.18167
C_ C_ 0.233778 0.234567 0.822831 -0.15533
C_ C_ 0.260172 0.238603 0.780939 0.02923
C_ C_ 0.310426 0.21535 0.782383 -0.15533
C_ C_ 0.335423 0.199345 0.82962 0.18167
C_ C_ 0.262533 0.114479 0.952855 0.69207
C_ C_ 0.223964 0.124526 0.497052 0.02923
C_ C_ 0.24387 0.122108 0.548035 -0.15533
C_ C_ 0.21204 0.116609 0.585343 -0.15533
C_ C_ 0.160638 0.106582 0.572696 0.02923
C_ C_ 0.143145 0.105702 0.519336 -0.15533
C_ C_ 0.173041 0.119495 0.482496 0.02923
C_ C_ 0.148693 0.104075 0.926296 0.69207
C_ C_ 0.146303 0.104628 0.667944 0.69661
C_ C_ 0.374111 0.378843 0.873022 -0.30787
C_ C_ 0.12186 0.111144 0.613797 -0.30787
N_ N_ 0.144118 0.058919 0.807497 -0.32189
N_ N_ 0.0529885 0.143897 0.815574 -0.32189
N_ N_ 0.105707 0.312182 0.560575 -0.32189
N_ N_ 0.198969 0.313811 0.644972 -0.32189
N_ N_ 0.357995 0.440654 0.689026 -0.32189
N_ N_ 0.435039 0.344925 0.671036 -0.32189
N_ N_ 0.394659 0.188655 0.955591 -0.32189
N_ N_ 0.309072 0.192419 0.869939 -0.32189
O_ O_ 0.494484 0.0863842 0.879363 -0.63271
O_ O_ 0.044562 0.0338499 0.841147 -0.57982
O_ O_ 0.390052 0.0984044 0.841542 -0.63271
O_ O_ 0.366639 0.0846303 0.917355 -0.57982
O_ O_ 0.239156 0.408723 0.572511 -0.63271
O_ O_ 0.208297 0.336709 0.535376 -0.57982
O_ O_ 0.347033 0.350655 0.586431 -0.63271
O_ O_ 0.380191 0.422717 0.582615 -0.57982
O_ O_ 0.993276 0.404563 0.600537 -0.63271
O_ O_ 0.455567 0.460156 0.655893 -0.57982
O_ O_ 0.0988864 0.391137 0.649245 -0.63271
O_ O_ 0.138174 0.401807 0.578722 -0.57982
O_ O_ 0.255562 0.0990833 0.905546 -0.63271
O_ O_ 0.298824 0.142144 0.967199 -0.57982
O_ O_ 0.153951 0.145576 0.902485 -0.63271
O_ O_ 0.111784 0.0772214 0.911006 -0.57982
F_ F_ 0.438247 0.328863 0.921797 -0.20885
F_ F_ 0.430588 0.301613 0.837997 -0.20885
F_ F_ 0.369964 0.286752 0.884303 -0.20885
F_ F_ 0.315624 0.419425 0.809445 -0.20885
F_ F_ 0.328691 0.332846 0.8035 -0.20885
F_ F_ 0.388828 0.373432 0.783165 -0.20885
F_ F_ 0.0669596 0.175971 0.573901 -0.20885
F_ F_ 0.0726845 0.186772 0.657458 -0.20885
F_ F_ 0.134998 0.202073 0.61117 -0.20885
F_ F_ 0.177058 0.0579491 0.67567 -0.20885
F_ F_ 0.176999 0.142266 0.683484 -0.20885
F_ F_ 0.111024 0.103232 0.701516 -0.20885
Zn Zn 0.0949964 0.589025 0.342999 0.83971
Zn Zn 0.161845 0.854032 0.0923041 0.83971
Zn Zn 0.408374 0.913829 0.156531 0.83971
Zn Zn 0.343589 0.65178 0.413788 0.83971
H_ H_ 0.179816 0.636184 0.306735 0.10394
H_ H_ 0.253234 0.602027 0.265263 0.10394
H_ H_ 0.204196 0.940638 0.28744 0.10394
H_ H_ 0.138919 0.484297 0.307846 0.10394
H_ H_ 0.534308 0.596077 0.24899 0.10394
H_ H_ 0.491302 0.671297 0.200815 0.10394
H_ H_ 0.0589813 0.775668 0.340003 0.10394
H_ H_ 0.0854298 0.697862 0.381173 0.10394
H_ H_ 0.0265617 0.943658 0.373483 0.10394
H_ H_ 0.469158 0.877843 0.387426 0.10394
H_ H_ 0.338017 0.994403 0.393838 0.10394
H_ H_ 0.0811711 0.798831 0.136295 0.10394
H_ H_ 0.493639 0.770088 0.10258 0.10394
H_ H_ 0.0411888 0.783591 0.446372 0.10394
H_ H_ 0.116631 0.832372 0.990288 0.10394
H_ H_ 0.220112 0.764775 0.0980558 0.10394
H_ H_ 0.261051 0.708608 0.16834 0.10394
H_ H_ 0.205275 0.828539 0.275589 0.10394
H_ H_ 0.162931 0.875577 0.204543 0.10394
H_ H_ 0.206656 0.862874 0.452874 0.10394
H_ H_ 0.254138 0.881808 0.381418 0.10394
H_ H_ 0.384967 0.911827 0.485776 0.10394
H_ H_ 0.305236 0.898204 0.161277 0.10394
H_ H_ 0.228322 0.946363 0.196809 0.10394
H_ H_ 0.346722 0.546853 0.270434 0.10394
H_ H_ 0.395543 0.00920999999999994 0.230342 0.10394
H_ H_ 0.0133621 0.898026 0.199844 0.10394
H_ H_ 0.062818 0.82546 0.244988 0.10394
H_ H_ 0.412437 0.743927 0.226197 0.10394
H_ H_ 0.372528 0.817397 0.179062 0.10394
H_ H_ 0.453435 0.546402 0.0959728 0.10394
H_ H_ 0.0262988 0.622361 0.133471 0.10394
H_ H_ 0.147418 0.508325 0.102757 0.10394
H_ H_ 0.439524 0.658867 0.393888 0.10394
H_ H_ 0.0101107 0.704081 0.429426 0.10394
H_ H_ 0.406178 0.782336 0.0428921 0.10394
H_ H_ 0.349975 0.724739 0.506352 0.10394
H_ H_ 0.233972 0.701699 0.382568 0.10394
H_ H_ 0.196739 0.747854 0.312371 0.10394
H_ H_ 0.340147 0.72464 0.245393 0.10394
H_ H_ 0.382017 0.684096 0.324573 0.10394
H_ H_ 0.286418 0.602056 0.0468814 0.10394
H_ H_ 0.237497 0.606696 0.113565 0.10394
H_ H_ 0.102677 0.596345 0.00353171 0.10394
C_ C_ 0.185005 0.594871 0.297535 0.18167
C_ C_ 0.227925 0.575383 0.272049 -0.15533
C_ C_ 0.242905 0.523858 0.26289 0.02923
C_ C_ 0.196361 0.982525 0.293694 -0.15533
C_ C_ 0.166435 0.510328 0.304365 0.18167
C_ C_ 0.0375016 0.645349 0.270691 0.18167
C_ C_ 0.507268 0.677429 0.240061 -0.15533
C_ C_ 0.021376 0.738741 0.270357 0.02923
C_ C_ 0.0508197 0.740153 0.317448 -0.15533
C_ C_ 0.0655893 0.695494 0.342808 0.18167
C_ C_ 0.0121716 0.549349 0.367697 0.69207
C_ C_ 0.462267 0.00564669 0.377746 0.02923
C_ C_ 0.477984 0.953925 0.37471 -0.15533
C_ C_ 0.449569 0.915961 0.387557 -0.15533
C_ C_ 0.3959 0.929699 0.39193 0.02923
C_ C_ 0.378859 0.982047 0.397782 -0.15533
C_ C_ 0.412826 0.0199666 0.391593 0.02923
C_ C_ 0.403391 0.569502 0.384031 0.69207
C_ C_ 0.38623 0.83169 0.38387 0.69661
C_ C_ 0.0724285 0.802193 0.0957427 0.18167
C_ C_ 0.0291929 0.777883 0.0755882 -0.15533
C_ C_ 0.0154006 0.776333 0.0216608 0.02923
C_ C_ 0.0506665 0.783442 0.487267 -0.15533
C_ C_ 0.0932609 0.816434 0.0134425 0.18167
C_ C_ 0.220899 0.779762 0.136584 0.18167
C_ C_ 0.244456 0.749835 0.176395 -0.15533
C_ C_ 0.241458 0.770662 0.227242 0.02923
C_ C_ 0.214002 0.817916 0.237752 -0.15533
C_ C_ 0.192145 0.844504 0.198091 0.18167
C_ C_ 0.242576 0.867769 0.047698 0.69207
C_ C_ 0.268147 0.87675 0.511573 0.02923
C_ C_ 0.24434 0.8747 0.462054 -0.15533
C_ C_ 0.272675 0.879928 0.421619 -0.15533
C_ C_ 0.324616 0.891668 0.430051 0.02923
C_ C_ 0.346329 0.904413 0.480455 -0.15533
C_ C_ 0.320603 0.891227 0.521837 0.02923
C_ C_ 0.354475 0.88205 0.071552 0.69207
C_ C_ 0.330352 0.888271 0.332887 0.69661
C_ C_ 0.310179 0.929235 0.188534 0.18167
C_ C_ 0.267359 0.95384 0.210186 -0.15533
C_ C_ 0.271966 0.991205 0.246506 0.02923
C_ C_ 0.337934 0.516506 0.24211 -0.15533
C_ C_ 0.36411 0.985562 0.231023 0.18167
C_ C_ 0.492987 0.851078 0.199036 0.18167
C_ C_ 0.0203207 0.826389 0.236083 -0.15533
C_ C_ 0.488226 0.771273 0.236349 0.02923
C_ C_ 0.436737 0.773682 0.218655 -0.15533
C_ C_ 0.412099 0.818298 0.195861 0.18167
C_ C_ 0.483943 0.956245 0.127143 0.69207
C_ C_ 0.029803 0.493664 0.130109 0.02923
C_ C_ 0.0118541 0.546175 0.134065 -0.15533
C_ C_ 0.0426378 0.583786 0.123536 -0.15533
C_ C_ 0.0913528 0.571914 0.10459 0.02923
C_ C_ 0.108306 0.519009 0.0998906 -0.15533
C_ C_ 0.0762886 0.481428 0.106845 0.02923
C_ C_ 0.0960509 0.929744 0.110981 0.69207
C_ C_ 0.11075 0.668983 0.10692 0.69661
C_ C_ 0.43638 0.684708 0.427674 0.18167
C_ C_ 0.479614 0.703014 0.453103 -0.15533
C_ C_ 0.473099 0.740091 0.495186 0.02923
C_ C_ 0.415587 0.75509 0.0110852 -0.15533
C_ C_ 0.386024 0.722871 0.491514 0.18167
C_ C_ 0.260839 0.710078 0.355616 0.18167
C_ C_ 0.236767 0.731641 0.310676 -0.15533
C_ C_ 0.265039 0.738625 0.270266 0.02923
C_ C_ 0.316459 0.718477 0.273819 -0.15533
C_ C_ 0.3388 0.693915 0.316921 0.18167
C_ C_ 0.270777 0.619187 0.450722 0.69207
C_ C_ 0.227816 0.597768 0.986278 0.02923
C_ C_ 0.247397 0.598278 0.0381611 -0.15533
C_ C_ 0.217315 0.599789 0.0768987 -0.15533
C_ C_ 0.164826 0.602837 0.0670697 0.02923
C_ C_ 0.14339 0.600802 0.0132706 -0.15533
C_ C_ 0.174539 0.596601 0.97389 0.02923
C_ C_ 0.157058 0.605466 0.427347 0.69207
C_ C_ 0.154623 0.606444 0.166112 0.69661
C_ C_ 0.359422 0.887249 0.385945 -0.30787
C_ C_ 0.128681 0.612842 0.109567 -0.30787
N_ N_ 0.155153 0.56232 0.312427 -0.32189
N_ N_ 0.0611351 0.648827 0.319883 -0.32189
N_ N_ 0.103755 0.818912 0.0634605 -0.32189
N_ N_ 0.195328 0.8259 0.148638 -0.32189
N_ N_ 0.356128 0.947932 0.196531 -0.32189
N_ N_ 0.440032 0.856306 0.185911 -0.32189
N_ N_ 0.388583 0.694327 0.445664 -0.32189
N_ N_ 0.310402 0.690329 0.358239 -0.32189
O_ O_ 0.500151 0.591623 0.388413 -0.63271
O_ O_ 0.0486191 0.541638 0.338734 -0.57982
O_ O_ 0.395214 0.590488 0.339508 -0.63271
O_ O_ 0.380164 0.591296 0.423412 -0.57982
O_ O_ 0.248609 0.896917 0.0894282 -0.63271
O_ O_ 0.20037 0.847806 0.0382372 -0.57982
O_ O_ 0.350352 0.841093 0.0961916 -0.63271
O_ O_ 0.386538 0.913783 0.0881366 -0.57982
O_ O_ 0.987131 0.921526 0.104666 -0.63271
O_ O_ 0.449001 0.964305 0.15701 -0.57982
O_ O_ 0.0917948 0.899904 0.14639 -0.63271
O_ O_ 0.134551 0.916807 0.0833342 -0.57982
O_ O_ 0.267042 0.597932 0.404775 -0.63271
O_ O_ 0.303031 0.653933 0.463401 -0.57982
O_ O_ 0.165026 0.644993 0.401233 -0.63271
O_ O_ 0.122316 0.57675 0.410384 -0.57982
F_ F_ 0.420709 0.824211 0.424639 -0.20885
F_ F_ 0.410438 0.814224 0.340171 -0.20885
F_ F_ 0.351533 0.798277 0.38619 -0.20885
F_ F_ 0.291305 0.925706 0.331926 -0.20885
F_ F_ 0.308726 0.844602 0.314914 -0.20885
F_ F_ 0.362108 0.896833 0.296205 -0.20885
F_ F_ 0.076328 0.677863 0.0653159 -0.20885
F_ F_ 0.0868093 0.688195 0.148692 -0.20885
F_ F_ 0.152037 0.698445 0.103977 -0.20885
F_ F_ 0.18384 0.560454 0.17367 -0.20885
F_ F_ 0.187476 0.643714 0.1825 -0.20885
F_ F_ 0.121899 0.608254 0.201587 -0.20885
Zn Zn 0.0894155 0.581468 0.83758 0.83971
Zn Zn 0.158856 0.843128 0.588915 0.83971
Zn Zn 0.411781 0.91478 0.65176 0.83971
Zn Zn 0.337615 0.649177 0.916538 0.83971
H_ H_ 0.172549 0.627641 0.804691 0.10394
H_ H_ 0.247465 0.594345 0.758319 0.10394
H_ H_ 0.202459 0.943085 0.777693 0.10394
H_ H_ 0.132775 0.4774 0.813334 0.10394
H_ H_ 0.533786 0.600801 0.745646 0.10394
H_ H_ 0.491962 0.672077 0.698761 0.10394
H_ H_ 0.0289238 0.766402 0.841299 0.10394
H_ H_ 0.066091 0.688803 0.881952 0.10394
H_ H_ 0.0336361 0.940065 0.872781 0.10394
H_ H_ 0.478646 0.874947 0.867129 0.10394
H_ H_ 0.346172 0.981916 0.88321 0.10394
H_ H_ 0.0825694 0.795048 0.635414 0.10394
H_ H_ 0.500641 0.761514 0.594174 0.10394
H_ H_ 0.0421838 0.787373 0.949334 0.10394
H_ H_ 0.129005 0.800704 0.48959 0.10394
H_ H_ 0.224854 0.751573 0.600347 0.10394
H_ H_ 0.262975 0.70627 0.677091 0.10394
H_ H_ 0.195829 0.825706 0.776979 0.10394
H_ H_ 0.176915 0.876897 0.699516 0.10394
H_ H_ 0.216071 0.87086 0.945101 0.10394
H_ H_ 0.26731 0.880274 0.878657 0.10394
H_ H_ 0.399581 0.898249 0.986951 0.10394
H_ H_ 0.30985 0.89112 0.660913 0.10394
H_ H_ 0.237079 0.938872 0.69352 0.10394
H_ H_ 0.33358 0.54043 0.775453 0.10394
H_ H_ 0.404393 0.00015999999999993797 0.732625 0.10394
H_ H_ 0.003549999999999942 0.896971 0.712724 0.10394
H_ H_ 0.047114 0.825739 0.760005 0.10394
H_ H_ 0.412797 0.748761 0.725241 0.10394
H_ H_ 0.375349 0.825949 0.679699 0.10394
H_ H_ 0.470301 0.563954 0.637309 0.10394
H_ H_ 0.0268471 0.616434 0.604365 0.10394
H_ H_ 0.153387 0.497913 0.59892 0.10394
H_ H_ 0.44567 0.650608 0.908634 0.10394
H_ H_ 0.0145113 0.703172 0.940601 0.10394
H_ H_ 0.417411 0.771736 0.547905 0.10394
H_ H_ 0.339208 0.734767 -0.004414000000000029 0.10394
H_ H_ 0.234323 0.690156 0.885775 0.10394
H_ H_ 0.189825 0.728357 0.804463 0.10394
H_ H_ 0.338951 0.736231 0.758135 0.10394
H_ H_ 0.376069 0.690851 0.834891 0.10394
H_ H_ 0.300987 0.610733 0.549817 0.10394
H_ H_ 0.251865 0.578697 0.61158 0.10394
H_ H_ 0.121424 0.56461 0.509837 0.10394
C_ C_ 0.180016 0.587936 0.795687 0.18167
C_ C_ 0.223241 0.569496 0.773258 -0.15533
C_ C_ 0.235549 0.516311 0.76592 0.02923
C_ C_ 0.199269 0.983638 0.784362 -0.15533
C_ C_ 0.160583 0.503233 0.805461 0.18167
C_ C_ 0.0412849 0.639842 0.761881 0.18167
C_ C_ 0.509112 0.67836 0.738453 -0.15533
C_ C_ 0.0129474 0.729573 0.767712 0.02923
C_ C_ 0.0289881 0.73021 0.819766 -0.15533
C_ C_ 0.0531038 0.68608 0.841648 0.18167
C_ C_ 0.0060611 0.551588 0.858925 0.69207
C_ C_ 0.467086 0.0025518 0.859558 0.02923
C_ C_ 0.489495 0.951334 0.858344 -0.15533
C_ C_ 0.459558 0.912114 0.864981 -0.15533
C_ C_ 0.410148 0.921552 0.88112 0.02923
C_ C_ 0.38724 0.973177 0.883091 -0.15533
C_ C_ 0.416534 0.0127781 0.87465 0.02923
C_ C_ 0.396642 0.564664 0.886436 0.69207
C_ C_ 0.403957 0.823878 0.890777 0.69661
C_ C_ 0.0735369 0.790173 0.594332 0.18167
C_ C_ 0.0273258 0.771288 0.572421 -0.15533
C_ C_ 0.0162849 0.767304 0.518318 0.02923
C_ C_ 0.050567 0.793647 0.99214 -0.15533
C_ C_ 0.0990541 0.793969 0.510652 0.18167
C_ C_ 0.221427 0.768791 0.640469 0.18167
C_ C_ 0.244557 0.742527 0.682798 -0.15533
C_ C_ 0.239083 0.762878 0.732964 0.02923
C_ C_ 0.209685 0.81027 0.738677 -0.15533
C_ C_ 0.193851 0.838453 0.693621 0.18167
C_ C_ 0.237184 0.865757 0.553547 0.69207
C_ C_ 0.278056 0.871864 0.00707501 0.02923
C_ C_ 0.256978 0.87128 0.956796 -0.15533
C_ C_ 0.287538 0.875462 0.917189 -0.15533
C_ C_ 0.338089 0.88397 0.926913 0.02923
C_ C_ 0.358358 0.88943 0.977239 -0.15533
C_ C_ 0.329092 0.883573 0.0196765 0.02923
C_ C_ 0.349045 0.889397 0.573012 0.69207
C_ C_ 0.349375 0.873994 0.828649 0.69661
C_ C_ 0.315741 0.922668 0.687981 0.18167
C_ C_ 0.274227 0.948196 0.70759 -0.15533
C_ C_ 0.278712 0.987598 0.744088 0.02923
C_ C_ 0.326539 0.507651 0.75011 -0.15533
C_ C_ 0.368049 0.984932 0.726301 0.18167
C_ C_ 0.496575 0.849901 0.700563 0.18167
C_ C_ 0.00981652 0.822024 0.742296 -0.15533
C_ C_ 0.486055 0.771792 0.737769 0.02923
C_ C_ 0.436588 0.774857 0.716298 -0.15533
C_ C_ 0.415462 0.818823 0.691383 0.18167
C_ C_ 0.484652 0.951817 0.620455 0.69207
C_ C_ 0.0259921 0.488421 0.612677 0.02923
C_ C_ 1.00853213 0.540886 0.609256 -0.15533
C_ C_ 0.0427899 0.576206 0.600758 -0.15533
C_ C_ 0.0963342 0.561772 0.6067 0.02923
C_ C_ 0.112449 0.509018 0.601841 -0.15533
C_ C_ 0.0787713 0.471733 0.608777 0.02923
C_ C_ 0.0983888 0.930201 0.621084 0.69207
C_ C_ 0.112332 0.656062 0.593533 0.69661
C_ C_ 0.437807 0.676406 0.940144 0.18167
C_ C_ 0.476286 0.702277 0.968032 -0.15533
C_ C_ 0.465518 0.741719 0.00294821 0.02923
C_ C_ 0.425294 0.74872 0.513021 -0.15533
C_ C_ 0.377446 0.725676 0.987963 0.18167
C_ C_ 0.254034 0.692765 0.852212 0.18167
C_ C_ 0.231318 0.718251 0.810491 -0.15533
C_ C_ 0.262684 0.734462 0.778567 0.02923
C_ C_ 0.31615 0.719526 0.78353 -0.15533
C_ C_ 0.336627 0.698644 0.827742 0.18167
C_ C_ 0.260564 0.611625 0.946838 0.69207
C_ C_ 0.236914 0.607945 0.489493 0.02923
C_ C_ 0.258243 0.605984 0.541205 -0.15533
C_ C_ 0.230211 0.593905 0.578289 -0.15533
C_ C_ 0.177073 0.587671 0.567741 0.02923
C_ C_ 0.160662 0.575966 0.518036 -0.15533
C_ C_ 0.184595 0.596533 0.478843 0.02923
C_ C_ 0.152364 0.600386 0.92002 0.69207
C_ C_ 0.163218 0.606773 0.661518 0.69661
C_ C_ 0.374103 0.87829 0.883907 -0.30787
C_ C_ 0.137485 0.600789 0.606426 -0.30787
N_ N_ 0.149375 0.555454 0.809665 -0.32189
N_ N_ 0.0591823 0.641858 0.812212 -0.32189
N_ N_ 0.104987 0.805874 0.562474 -0.32189
N_ N_ 0.194228 0.815175 0.646204 -0.32189
N_ N_ 0.361282 0.941367 0.695902 -0.32189
N_ N_ 0.446066 0.854576 0.683184 -0.32189
N_ N_ 0.3889 0.691513 0.948773 -0.32189
N_ N_ 0.304913 0.681126 0.858069 -0.32189
O_ O_ 0.508703 0.578964 0.902791 -0.63271
O_ O_ 0.0423608 0.536706 0.828679 -0.57982
O_ O_ 0.396583 0.592765 0.845655 -0.63271
O_ O_ 0.366355 0.580316 0.92175 -0.57982
O_ O_ 0.242728 0.888878 0.599263 -0.63271
O_ O_ 0.201884 0.835004 0.543125 -0.57982
O_ O_ 0.352438 0.848971 0.597366 -0.63271
O_ O_ 0.375569 0.926347 0.591321 -0.57982
O_ O_ 0.988456 0.911108 0.605211 -0.63271
O_ O_ 0.454087 0.962691 0.656678 -0.57982
O_ O_ 0.0891123 0.902343 0.657017 -0.63271
O_ O_ 0.134718 0.910294 0.592405 -0.57982
O_ O_ 0.260372 0.584842 0.90311 -0.63271
O_ O_ 0.293657 0.644722 0.958176 -0.57982
O_ O_ 0.159366 0.640496 0.89495 -0.63271
O_ O_ 0.113756 0.573158 0.903398 -0.57982
F_ F_ 0.441387 0.8237 0.931922 -0.20885
F_ F_ 0.42908 0.801409 0.851404 -0.20885
F_ F_ 0.370035 0.78914 0.893127 -0.20885
F_ F_ 0.310448 0.913369 0.821125 -0.20885
F_ F_ 0.328377 0.8302 0.815758 -0.20885
F_ F_ 0.380042 0.87803 0.789036 -0.20885
F_ F_ 0.0825255 0.657941 0.546395 -0.20885
F_ F_ 0.0832727 0.68076 0.631478 -0.20885
F_ F_ 0.149038 0.688805 0.588869 -0.20885
F_ F_ 0.19038 0.560117 0.67057 -0.20885
F_ F_ 0.19229 0.648211 0.675106 -0.20885
F_ F_ 0.127108 0.612551 0.694839 -0.20885
Zn Zn 0.579277 0.0850086 0.352618 0.83971
Zn Zn 0.663549 0.348648 0.0844067 0.83971
Zn Zn 0.910702 0.413201 0.153049 0.83971
Zn Zn 0.839317 0.158827 0.419478 0.83971
H_ H_ 0.647986 0.136345 0.308286 0.10394
H_ H_ 0.736404 0.109959 0.281154 0.10394
H_ H_ 0.700267 0.447443 0.270926 0.10394
H_ H_ 0.625816 0.983492 0.31918 0.10394
H_ H_ 0.0228691 0.094038 0.253762 0.10394
H_ H_ 0.996532 0.177433 0.199961 0.10394
H_ H_ 0.532104 0.269522 0.322743 0.10394
H_ H_ 0.563929 0.196903 0.37476 0.10394
H_ H_ 0.5365 0.440837 0.367272 0.10394
H_ H_ 0.979018 0.379598 0.369758 0.10394
H_ H_ 0.853614 0.494854 0.404007 0.10394
H_ H_ 0.578345 0.312188 0.130673 0.10394
H_ H_ 1.00763665 0.262908 0.0878197 0.10394
H_ H_ 0.531114 0.290533 0.440766 0.10394
H_ H_ 0.631746 0.305594 0.985575 0.10394
H_ H_ 0.71462 0.259452 0.0963876 0.10394
H_ H_ 0.757822 0.210007 0.161673 0.10394
H_ H_ 0.718894 0.332454 0.275309 0.10394
H_ H_ 0.677667 0.381129 0.20315 0.10394
H_ H_ 0.71539 0.383077 0.437133 0.10394
H_ H_ 0.768568 0.392754 0.374925 0.10394
H_ H_ 0.891667 0.409291 0.492022 0.10394
H_ H_ 0.804863 0.39409 0.15608 0.10394
H_ H_ 0.733427 0.437036 0.193191 0.10394
H_ H_ 0.82335 0.053666 0.291195 0.10394
H_ H_ 0.902912 0.497788 0.229824 0.10394
H_ H_ 0.5171 0.378588 0.183585 0.10394
H_ H_ 0.55709 0.298661 0.218455 0.10394
H_ H_ 0.917755 0.251169 0.248176 0.10394
H_ H_ 0.870083 0.323573 0.196625 0.10394
H_ H_ 0.969238 0.0628458 0.144768 0.10394
H_ H_ 0.519582 0.123879 0.121801 0.10394
H_ H_ 0.639025 0.00972111 0.0946434 0.10394
H_ H_ 0.944379 0.162744 0.393587 0.10394
H_ H_ 0.514196 0.190454 0.446469 0.10394
H_ H_ 0.920638 0.274561 0.0417653 0.10394
H_ H_ 0.846669 0.231934 0.501695 0.10394
H_ H_ 0.734744 0.192046 0.381835 0.10394
H_ H_ 0.69603 0.236103 0.304085 0.10394
H_ H_ 0.841829 0.225549 0.248199 0.10394
H_ H_ 0.880524 0.181542 0.326742 0.10394
H_ H_ 0.78153 0.120534 0.0471313 0.10394
H_ H_ 0.732427 0.112127 0.11629 0.10394
H_ H_ 0.601615 0.0860851 0.00980321 0.10394
C_ C_ 0.664371 0.0967532 0.307494 0.18167
C_ C_ 0.712387 0.0809976 0.288804 -0.15533
C_ C_ 0.727491 0.0285894 0.278308 0.02923
C_ C_ 0.692104 0.487324 0.276508 -0.15533
C_ C_ 0.653385 0.00987686 0.317096 0.18167
C_ C_ 0.523866 0.132668 0.267455 0.18167
C_ C_ 0.0107303 0.176735 0.240204 -0.15533
C_ C_ 0.50534 0.222494 0.257541 0.02923
C_ C_ 0.527026 0.230634 0.308484 -0.15533
C_ C_ 0.548446 0.189712 0.337474 0.18167
C_ C_ 0.501258 0.0431849 0.376832 0.69207
C_ C_ 0.973226 0.510078 0.374697 0.02923
C_ C_ 0.992628 0.458834 0.370757 -0.15533
C_ C_ 0.963053 0.419352 0.378308 -0.15533
C_ C_ 0.912279 0.430157 0.39026 0.02923
C_ C_ 0.892292 0.48419 0.397417 -0.15533
C_ C_ 0.921574 0.523518 0.388666 0.02923
C_ C_ 0.890867 0.0717673 0.391847 0.69207
C_ C_ 0.904711 0.333837 0.389856 0.69661
C_ C_ 0.572691 0.305149 0.0898574 0.18167
C_ C_ 0.524907 0.29255 0.068093 -0.15533
C_ C_ 0.518969 0.272647 0.0167054 0.02923
C_ C_ 0.542426 0.295403 0.481254 -0.15533
C_ C_ 0.604546 0.296087 0.00955099 0.18167
C_ C_ 0.716434 0.275462 0.134923 0.18167
C_ C_ 0.742998 0.248869 0.173815 -0.15533
C_ C_ 0.743803 0.267671 0.227059 0.02923
C_ C_ 0.716881 0.314182 0.23636 -0.15533
C_ C_ 0.693269 0.342622 0.19423 0.18167
C_ C_ 0.744127 0.370643 0.0424776 0.69207
C_ C_ 0.772832 0.378537 0.500687 0.02923
C_ C_ 0.755484 0.374134 0.44781 -0.15533
C_ C_ 0.786271 0.388184 0.413532 -0.15533
C_ C_ 0.83728 0.396883 0.425009 0.02923
C_ C_ 0.855311 0.399115 0.477739 -0.15533
C_ C_ 0.82549 0.388588 0.515731 0.02923
C_ C_ 0.855504 0.385444 0.0709979 0.69207
C_ C_ 0.850879 0.389137 0.329148 0.69661
C_ C_ 0.809697 0.427889 0.178479 0.18167
C_ C_ 0.767863 0.450448 0.20182 -0.15533
C_ C_ 0.773271 0.493353 0.237882 0.02923
C_ C_ 0.818278 0.0236189 0.263247 -0.15533
C_ C_ 0.863672 0.488252 0.218912 0.18167
C_ C_ 0.991411 0.344176 0.188542 0.18167
C_ C_ 0.516565 0.304451 0.21424 -0.15533
C_ C_ 0.990098 0.269332 0.234696 0.02923
C_ C_ 0.937803 0.277476 0.230725 -0.15533
C_ C_ 0.911874 0.316559 0.199526 0.18167
C_ C_ 0.993669 0.455942 0.135286 0.69207
C_ C_ 0.520797 0.995703 0.126032 0.02923
C_ C_ 0.5013 0.0483631 0.12479 -0.15533
C_ C_ 0.534589 0.083944 0.117136 -0.15533
C_ C_ 0.583652 0.0712673 0.103893 0.02923
C_ C_ 0.600396 0.019432 0.100692 -0.15533
C_ C_ 0.570998 0.982021 0.11109 0.02923
C_ C_ 0.600899 0.427392 0.106266 0.69207
C_ C_ 0.604864 0.165015 0.11255 0.69661
C_ C_ 0.936935 0.19143 0.421349 0.18167
C_ C_ 0.979169 0.212154 0.447437 -0.15533
C_ C_ 0.970858 0.249663 0.489302 0.02923
C_ C_ 0.927354 0.246386 0.00787292 -0.15533
C_ C_ 0.88298 0.231027 0.485706 0.18167
C_ C_ 0.75716 0.191982 0.348275 0.18167
C_ C_ 0.734896 0.222464 0.307767 -0.15533
C_ C_ 0.766029 0.236115 0.270842 0.02923
C_ C_ 0.817683 0.21684 0.27679 -0.15533
C_ C_ 0.837855 0.191189 0.320466 0.18167
C_ C_ 0.75971 0.121217 0.456078 0.69207
C_ C_ 0.720858 0.114702 0.985803 0.02923
C_ C_ 0.741503 0.115339 0.0364318 -0.15533
C_ C_ 0.712681 0.111656 0.0759084 -0.15533
C_ C_ 0.661128 0.103669 0.0674077 0.02923
C_ C_ 0.638039 0.105002 0.0173176 -0.15533
C_ C_ 0.666852 0.112626 0.975777 0.02923
C_ C_ 0.648493 0.110136 0.430982 0.69207
C_ C_ 0.657491 0.100343 0.164814 0.69661
C_ C_ 0.875293 0.388806 0.384982 -0.30787
C_ C_ 0.625927 0.107605 0.111825 -0.30787
N_ N_ 0.636531 0.0596489 0.321207 -0.32189
N_ N_ 0.542747 0.14009 0.317007 -0.32189
N_ N_ 0.611053 0.307981 0.0607425 -0.32189
N_ N_ 0.6957 0.322864 0.144523 -0.32189
N_ N_ 0.856787 0.445824 0.186829 -0.32189
N_ N_ 0.941567 0.349524 0.179828 -0.32189
N_ N_ 0.890435 0.201273 0.440885 -0.32189
N_ N_ 0.80753 0.179444 0.355604 -0.32189
O_ O_ 0.00439785 0.0913146 0.406809 -0.63271
O_ O_ 0.535936 0.0339578 0.345145 -0.57982
O_ O_ 0.897128 0.0940138 0.351411 -0.63271
O_ O_ 0.874322 0.0980094 0.429055 -0.57982
O_ O_ 0.738405 0.404207 0.0813941 -0.63271
O_ O_ 0.708193 0.340308 0.0333195 -0.57982
O_ O_ 0.851584 0.346702 0.0984651 -0.63271
O_ O_ 0.883493 0.420547 0.0908719 -0.57982
O_ O_ 0.484845 0.407739 0.0817327 -0.63271
O_ O_ 0.954483 0.464703 0.162639 -0.57982
O_ O_ 0.599551 0.402886 0.148141 -0.63271
O_ O_ 0.632722 0.410962 0.0736021 -0.57982
O_ O_ 0.759568 0.0913347 0.413633 -0.63271
O_ O_ 0.787858 0.160054 0.459534 -0.57982
O_ O_ 0.648702 0.152552 0.40761 -0.63271
O_ O_ 0.612049 0.081794 0.415883 -0.57982
F_ F_ 0.938294 0.332987 0.432325 -0.20885
F_ F_ 0.9314 0.313613 0.349461 -0.20885
F_ F_ 0.86867 0.299203 0.399005 -0.20885
F_ F_ 0.81803 0.433824 0.324222 -0.20885
F_ F_ 0.820324 0.3498 0.312338 -0.20885
F_ F_ 0.885358 0.385594 0.291627 -0.20885
F_ F_ 0.572589 0.176017 0.0710519 -0.20885
F_ F_ 0.578483 0.178431 0.154791 -0.20885
F_ F_ 0.63775 0.202022 0.116845 -0.20885
F_ F_ 0.687905 0.0549724 0.165039 -0.20885
F_ F_ 0.688121 0.138021 0.1841 -0.20885
F_ F_ 0.627112 0.0969137 0.205666 -0.20885
Zn Zn 0.58475 0.0847963 0.848427 0.83971
Zn Zn 0.657932 0.35101 0.579497 0.83971
Zn Zn 0.910588 0.41497 0.650843 0.83971
Zn Zn 0.83951 0.152483 0.911982 0.83971
H_ H_ 0.662461 0.133351 0.806489 0.10394
H_ H_ 0.740236 0.103094 0.763602 0.10394
H_ H_ 0.706297 0.443599 0.775544 0.10394
H_ H_ 0.646199 0.984712 0.847309 0.10394
H_ H_ 0.0175005 0.0971414 0.758472 0.10394
H_ H_ 0.966147 0.173958 0.716065 0.10394
H_ H_ 0.511625 0.269408 0.817092 0.10394
H_ H_ 0.55817 0.201885 0.870473 0.10394
H_ H_ 0.523228 0.43934 0.842739 0.10394
H_ H_ 0.987172 0.385092 0.896094 0.10394
H_ H_ 0.854318 0.487976 0.894399 0.10394
H_ H_ 0.588531 0.304031 0.623994 0.10394
H_ H_ 0.000120286 0.2606 0.591738 0.10394
H_ H_ 0.554657 0.271196 0.94638 0.10394
H_ H_ 0.6159 0.32373 0.473533 0.10394
H_ H_ 0.719621 0.250222 0.592201 0.10394
H_ H_ 0.776631 0.21414 0.664391 0.10394
H_ H_ 0.719572 0.343958 0.758597 0.10394
H_ H_ 0.68829 0.385321 0.684948 0.10394
H_ H_ 0.725093 0.360472 0.941517 0.10394
H_ H_ 0.773593 0.382456 0.875911 0.10394
H_ H_ 0.899306 0.407093 0.991567 0.10394
H_ H_ 0.798165 0.404859 0.65009 0.10394
H_ H_ 0.731502 0.454858 0.681969 0.10394
H_ H_ 0.827362 0.0591476 0.777213 0.10394
H_ H_ 0.904279 0.487967 0.742465 0.10394
H_ H_ 0.507008 0.376762 0.687107 0.10394
H_ H_ 0.547999 0.302328 0.726763 0.10394
H_ H_ 0.904456 0.250439 0.726171 0.10394
H_ H_ 0.868926 0.329745 0.687078 0.10394
H_ H_ 0.961204 0.0575512 0.624862 0.10394
H_ H_ 0.525442 0.112794 0.630237 0.10394
H_ H_ 0.646914 -0.000177822 0.593288 0.10394
H_ H_ 0.937499 0.16268 0.88381 0.10394
H_ H_ 0.52574 0.175021 0.967794 0.10394
H_ H_ 0.915263 0.284141 0.539434 0.10394
H_ H_ 0.855198 0.217104 0.00760299 0.10394
H_ H_ 0.736405 0.206636 0.883488 0.10394
H_ H_ 0.697659 0.256665 0.804195 0.10394
H_ H_ 0.831892 0.205553 0.731014 0.10394
H_ H_ 0.872805 0.165188 0.807971 0.10394
H_ H_ 0.789858 0.111252 0.554562 0.10394
H_ H_ 0.737713 0.0918289 0.620062 0.10394
H_ H_ 0.60769 0.08267 0.513598 0.10394
C_ C_ 0.671755 0.0917217 0.801421 0.18167
C_ C_ 0.7184 0.0745114 0.780851 -0.15533
C_ C_ 0.731294 0.0212881 0.7747 0.02923
C_ C_ 0.693762 0.483209 0.77522 -0.15533
C_ C_ 0.663351 0.00808952 0.82375 0.18167
C_ C_ 0.527931 0.128661 0.767194 0.18167
C_ C_ -0.004857 0.178224 0.747649 -0.15533
C_ C_ 0.504974 0.218245 0.750912 0.02923
C_ C_ 0.519047 0.230723 0.801407 -0.15533
C_ C_ 0.544922 0.191927 0.832601 0.18167
C_ C_ 0.501211 0.0424071 0.853963 0.69207
C_ C_ 0.972836 0.513468 0.872998 0.02923
C_ C_ 0.99565 0.461698 0.874528 -0.15533
C_ C_ 0.968927 0.422897 0.888384 -0.15533
C_ C_ 0.915313 0.430532 0.890387 0.02923
C_ C_ 0.893094 0.480276 0.884988 -0.15533
C_ C_ 0.923225 0.523434 0.885961 0.02923
C_ C_ 0.895368 0.0676226 0.888394 0.69207
C_ C_ 0.912326 0.330435 0.892108 0.69661
C_ C_ 0.575125 0.300025 0.584547 0.18167
C_ C_ 0.531716 0.276788 0.568518 -0.15533
C_ C_ 0.513951 0.277151 0.51679 0.02923
C_ C_ 0.558622 0.277947 0.988095 -0.15533
C_ C_ 0.586845 0.317851 0.498839 0.18167
C_ C_ 0.720663 0.269677 0.629371 0.18167
C_ C_ 0.750531 0.248887 0.670917 -0.15533
C_ C_ 0.749353 0.27307 0.719625 0.02923
C_ C_ 0.72467 0.322566 0.724872 -0.15533
C_ C_ 0.701786 0.345272 0.679686 0.18167
C_ C_ 0.735591 0.376729 0.540246 0.69207
C_ C_ 0.77976 0.379661 1.00457714 0.02923
C_ C_ 0.760618 0.37712 0.952558 -0.15533
C_ C_ 0.792049 0.381793 0.913192 -0.15533
C_ C_ 0.843993 0.38856 0.927015 0.02923
C_ C_ 0.861036 0.397398 0.978494 -0.15533
C_ C_ 0.830023 0.389399 0.0169232 0.02923
C_ C_ 0.851086 0.38178 0.567983 0.69207
C_ C_ 0.86035 0.380506 0.829307 0.69661
C_ C_ 0.807578 0.434272 0.677952 0.18167
C_ C_ 0.769071 0.46556 0.697533 -0.15533
C_ C_ 0.776667 0.499319 0.738857 0.02923
C_ C_ 0.824855 0.0235858 0.757601 -0.15533
C_ C_ 0.865534 0.481658 0.728989 0.18167
C_ C_ 0.99144 0.351363 0.697741 0.18167
C_ C_ 0.508823 0.300059 0.712748 -0.15533
C_ C_ 0.981029 0.270499 0.734097 0.02923
C_ C_ 0.930552 0.27525 0.71529 -0.15533
C_ C_ 0.910931 0.320529 0.690465 0.18167
C_ C_ 0.989708 0.451273 0.620995 0.69207
C_ C_ 0.52471 0.98636 0.614478 0.02923
C_ C_ 0.511162 0.0390967 0.624373 -0.15533
C_ C_ 0.541661 0.0759663 0.621508 -0.15533
C_ C_ 0.59051 0.0647976 0.608214 0.02923
C_ C_ 0.607331 0.0112369 0.601752 -0.15533
C_ C_ 0.574481 0.972259 0.604262 0.02923
C_ C_ 0.600102 0.430339 0.610132 0.69207
C_ C_ 0.605468 0.162035 0.614163 0.69661
C_ C_ 0.934789 0.185851 0.918729 0.18167
C_ C_ 0.977634 0.208363 0.940392 -0.15533
C_ C_ 0.975033 0.238356 -0.011932000000000054 0.02923
C_ C_ 0.921307 0.257959 0.507468 -0.15533
C_ C_ 0.889525 0.214023 0.989609 0.18167
C_ C_ 0.757173 0.209898 0.850161 0.18167
C_ C_ 0.735416 0.236136 0.804499 -0.15533
C_ C_ 0.768126 0.242646 0.764804 0.02923
C_ C_ 0.813681 0.211746 0.765333 -0.15533
C_ C_ 0.832456 0.183166 0.807561 0.18167
C_ C_ 0.755656 0.125579 0.945027 0.69207
C_ C_ 0.72643 0.115025 0.496383 0.02923
C_ C_ 0.749147 0.110915 0.546787 -0.15533
C_ C_ 0.717541 0.102366 0.585128 -0.15533
C_ C_ 0.665365 0.0981997 0.575116 0.02923
C_ C_ 0.643835 0.0981195 0.523197 -0.15533
C_ C_ 0.672698 0.108636 0.483623 0.02923
C_ C_ 0.64101 0.110554 0.92346 0.69207
C_ C_ 0.651605 0.102618 0.674489 0.69661
C_ C_ 0.88123 0.384416 0.885908 -0.30787
C_ C_ 0.628279 0.105892 0.61788 -0.30787
N_ N_ 0.644854 0.0583536 0.819302 -0.32189
N_ N_ 0.549404 0.1417 0.81424 -0.32189
N_ N_ 0.602497 0.320258 0.55052 -0.32189
N_ N_ 0.696935 0.317589 0.635416 -0.32189
N_ N_ 0.856875 0.444573 0.691232 -0.32189
N_ N_ 0.941448 0.354459 0.681015 -0.32189
N_ N_ 0.893304 0.188224 0.944104 -0.32189
N_ N_ 0.805824 0.185412 0.849415 -0.32189
O_ O_ 0.00519193 0.0878277 0.900329 -0.63271
O_ O_ 0.5449 0.0315724 0.836315 -0.57982
O_ O_ 0.892571 0.0897277 0.846011 -0.63271
O_ O_ 0.86489 0.0881273 0.920329 -0.57982
O_ O_ 0.734115 0.40964 0.579761 -0.63271
O_ O_ 0.703061 0.342848 0.531471 -0.57982
O_ O_ 0.850462 0.339511 0.591031 -0.63271
O_ O_ 0.876113 0.418201 0.589788 -0.57982
O_ O_ 0.486571 0.419944 0.586949 -0.63271
O_ O_ 0.955696 0.462686 0.654145 -0.57982
O_ O_ 0.597844 0.400217 0.646547 -0.63271
O_ O_ 0.631687 0.416534 0.576969 -0.57982
O_ O_ 0.749176 0.107723 0.897003 -0.63271
O_ O_ 0.788923 0.159127 0.955784 -0.57982
O_ O_ 0.644783 0.148481 0.894096 -0.63271
O_ O_ 0.603783 0.0835635 0.914548 -0.57982
F_ F_ 0.94049 0.333279 0.938685 -0.20885
F_ F_ 0.945335 0.314787 0.855255 -0.20885
F_ F_ 0.877177 0.294088 0.894015 -0.20885
F_ F_ 0.825098 0.420277 0.817738 -0.20885
F_ F_ 0.83699 0.336607 0.814164 -0.20885
F_ F_ 0.897334 0.381683 0.797008 -0.20885
F_ F_ 0.570737 0.167014 0.570772 -0.20885
F_ F_ 0.577692 0.180902 0.654424 -0.20885
F_ F_ 0.64492 0.193582 0.614606 -0.20885
F_ F_ 0.680565 0.0553284 0.678261 -0.20885
F_ F_ 0.685174 0.139991 0.685705 -0.20885
F_ F_ 0.612712 0.108059 0.709028 -0.20885
Zn Zn 0.587468 0.587271 0.34647 0.83971
Zn Zn 0.655935 0.849398 0.0883101 0.83971
Zn Zn 0.907132 0.928121 0.168609 0.83971
Zn Zn 0.837083 0.661691 0.415459 0.83971
H_ H_ 0.669278 0.633938 0.297127 0.10394
H_ H_ 0.742915 0.596933 0.24804 0.10394
H_ H_ 0.711629 0.953781 0.297303 0.10394
H_ H_ 0.631216 0.482155 0.321465 0.10394
H_ H_ 0.0278341 0.61021 0.254818 0.10394
H_ H_ 0.99095 0.686232 0.208424 0.10394
H_ H_ 0.534813 0.767973 0.332318 0.10394
H_ H_ 0.566215 0.694966 0.379666 0.10394
H_ H_ 0.519849 0.940639 0.377721 0.10394
H_ H_ 0.975535 0.877802 0.393304 0.10394
H_ H_ 0.851234 0.988683 0.418268 0.10394
H_ H_ 0.574545 0.807027 0.13899 0.10394
H_ H_ 1.00599473 0.765 0.103608 0.10394
H_ H_ 0.543985 0.778037 0.442949 0.10394
H_ H_ 0.614803 0.824026 0.990512 0.10394
H_ H_ 0.712897 0.748706 0.109892 0.10394
H_ H_ 0.750725 0.707554 0.185373 0.10394
H_ H_ 0.703446 0.848968 0.27547 0.10394
H_ H_ 0.671303 0.88811 0.195746 0.10394
H_ H_ 0.714238 0.878271 0.451998 0.10394
H_ H_ 0.758508 0.90084 0.389037 0.10394
H_ H_ 0.896761 0.900353 0.492453 0.10394
H_ H_ 0.808258 0.908777 0.172493 0.10394
H_ H_ 0.729896 0.955043 0.199317 0.10394
H_ H_ 0.831974 0.53882 0.278018 0.10394
H_ H_ 0.897951 1.0177564 0.2473 0.10394
H_ H_ 0.513657 0.880829 0.195785 0.10394
H_ H_ 0.557753 0.804276 0.235321 0.10394
H_ H_ 0.917803 0.763061 0.246842 0.10394
H_ H_ 0.874946 0.835653 0.200523 0.10394
H_ H_ 0.978289 0.557468 0.15369 0.10394
H_ H_ 0.506219 0.608444 0.0680224 0.10394
H_ H_ 0.643333 0.507726 0.091472 0.10394
H_ H_ 0.931283 0.669924 0.387351 0.10394
H_ H_ 0.518499 0.682692 0.448903 0.10394
H_ H_ 0.924115 0.772467 0.0578684 0.10394
H_ H_ 0.845348 0.742355 0.501078 0.10394
H_ H_ 0.731327 0.699892 0.392423 0.10394
H_ H_ 0.686501 0.751456 0.317365 0.10394
H_ H_ 0.834377 0.744819 0.260449 0.10394
H_ H_ 0.867065 0.686374 0.327055 0.10394
H_ H_ 0.779644 0.613018 0.0544444 0.10394
H_ H_ 0.727698 0.592139 0.114121 0.10394
H_ H_ 0.602787 0.590111 -0.0028719999999999857 0.10394
C_ C_ 0.674929 0.592189 0.290758 0.18167
C_ C_ 0.720356 0.571787 0.269403 -0.15533
C_ C_ 0.728375 0.518859 0.260915 0.02923
C_ C_ 0.695417 0.992978 0.292836 -0.15533
C_ C_ 0.653001 0.509072 0.304985 0.18167
C_ C_ 0.528028 0.633618 0.268058 0.18167
C_ C_ 0.0123829 0.690154 0.247365 -0.15533
C_ C_ 0.51173 0.726505 0.265061 0.02923
C_ C_ 0.528604 0.730597 0.315603 -0.15533
C_ C_ 0.550842 0.688476 0.339458 0.18167
C_ C_ 0.511582 0.545831 0.371193 0.69207
C_ C_ 0.970214 0.00794908 0.390476 0.02923
C_ C_ -0.008761000000000019 0.956205 0.39239 -0.15533
C_ C_ 0.959424 0.917493 0.395452 -0.15533
C_ C_ 0.906449 0.931431 0.395967 0.02923
C_ C_ 0.89035 0.982561 0.407778 -0.15533
C_ C_ 0.919503 0.0219243 0.401241 0.02923
C_ C_ 0.897119 0.576415 0.382338 0.69207
C_ C_ 0.890402 0.834139 0.387164 0.69661
C_ C_ 0.567921 0.798399 0.0985336 0.18167
C_ C_ 0.520183 0.780232 0.0763105 -0.15533
C_ C_ 0.508059 0.773807 0.0236696 0.02923
C_ C_ 0.548732 0.785408 0.484407 -0.15533
C_ C_ 0.588976 0.809353 0.0150529 0.18167
C_ C_ 0.716966 0.772453 0.14497 0.18167
C_ C_ 0.73705 0.749014 0.190349 -0.15533
C_ C_ 0.73231 0.77683 0.237135 0.02923
C_ C_ 0.709814 0.827406 0.239231 -0.15533
C_ C_ 0.688738 0.848695 0.194303 0.18167
C_ C_ 0.741863 0.869586 0.0567274 0.69207
C_ C_ 0.774451 0.874158 0.512087 0.02923
C_ C_ 0.753428 0.877421 0.461328 -0.15533
C_ C_ 0.780091 0.89249 0.424037 -0.15533
C_ C_ 0.831285 0.898067 0.432434 0.02923
C_ C_ 0.855367 0.890418 0.482123 -0.15533
C_ C_ 0.826984 0.882301 0.52309 0.02923
C_ C_ 0.855654 0.881243 0.0819673 0.69207
C_ C_ 0.840559 0.896929 0.335459 0.69661
C_ C_ 0.807572 0.946094 0.191276 0.18167
C_ C_ 0.765196 0.970589 0.212047 -0.15533
C_ C_ 0.769349 1.0114338 0.248001 0.02923
C_ C_ 0.821917 0.513062 0.245864 -0.15533
C_ C_ 0.86063 1.00215593 0.238412 0.18167
C_ C_ 0.992695 0.868666 0.213457 0.18167
C_ C_ 0.516267 0.809271 0.223358 -0.15533
C_ C_ 0.993386 0.787012 0.250035 0.02923
C_ C_ 0.94035 0.789746 0.235509 -0.15533
C_ C_ 0.915802 0.830422 0.208866 0.18167
C_ C_ 0.987173 0.963442 0.133156 0.69207
C_ C_ 0.519296 0.488781 0.103571 0.02923
C_ C_ 0.495605 0.537567 0.0979399 -0.15533
C_ C_ 0.525289 0.575692 0.086088 -0.15533
C_ C_ 0.579113 0.565721 0.0894281 0.02923
C_ C_ 0.60131 0.51507 0.0888606 -0.15533
C_ C_ 0.572436 0.477771 0.101311 0.02923
C_ C_ 0.593681 0.929007 0.110007 0.69207
C_ C_ 0.592438 0.664603 0.095844 0.69661
C_ C_ 0.931813 0.685633 0.426379 0.18167
C_ C_ 0.973376 0.712765 0.445206 -0.15533
C_ C_ 0.971862 0.746263 0.490998 0.02923
C_ C_ 0.92847 0.75169 1.0236986 -0.15533
C_ C_ 0.882054 0.733962 0.486315 0.18167
C_ C_ 0.750414 0.707973 0.359095 0.18167
C_ C_ 0.72715 0.73925 0.319956 -0.15533
C_ C_ 0.757081 0.749811 0.281544 0.02923
C_ C_ 0.80911 0.736933 0.289259 -0.15533
C_ C_ 0.830675 0.704052 0.326771 0.18167
C_ C_ 0.76345 0.622033 0.454985 0.69207
C_ C_ 0.725069 0.610942 0.989269 0.02923
C_ C_ 0.741712 0.60808 0.0408243 -0.15533
C_ C_ 0.708623 0.604689 0.0772397 -0.15533
C_ C_ 0.657993 0.595621 0.063032 0.02923
C_ C_ 0.642156 0.591765 0.0098011 -0.15533
C_ C_ 0.672773 0.605003 0.972294 0.02923
C_ C_ 0.652345 0.608614 0.424841 0.69207
C_ C_ 0.634659 0.605183 0.154626 0.69661
C_ C_ 0.867388 0.891482 0.390766 -0.30787
C_ C_ 0.615207 0.607908 0.0983592 -0.30787
N_ N_ 0.641189 0.560215 0.306967 -0.32189
N_ N_ 0.550142 0.640357 0.316696 -0.32189
N_ N_ 0.60143 0.809894 0.0670143 -0.32189
N_ N_ 0.689852 0.819918 0.149765 -0.32189
N_ N_ 0.853596 0.961503 0.205177 -0.32189
N_ N_ 0.940478 0.871736 0.201256 -0.32189
N_ N_ 0.888573 0.698419 0.44633 -0.32189
N_ N_ 0.800679 0.69224 0.360994 -0.32189
O_ O_ 0.00109848 0.597173 0.385256 -0.63271
O_ O_ 0.546656 0.537332 0.337225 -0.57982
O_ O_ 0.893772 0.60054 0.339883 -0.63271
O_ O_ 0.873913 0.596018 0.420483 -0.57982
O_ O_ 0.751325 0.884596 0.104697 -0.63271
O_ O_ 0.701576 0.845798 0.0419484 -0.57982
O_ O_ 0.857814 0.838243 0.103105 -0.63271
O_ O_ 0.871693 0.923016 0.106551 -0.57982
O_ O_ 0.489966 0.912333 0.102007 -0.63271
O_ O_ 0.953678 0.970489 0.169848 -0.57982
O_ O_ 0.592309 0.905734 0.152383 -0.63271
O_ O_ 0.627579 0.91048 0.0811164 -0.57982
O_ O_ 0.760032 0.600221 0.408749 -0.63271
O_ O_ 0.794155 0.658307 0.464605 -0.57982
O_ O_ 0.653161 0.650692 0.401901 -0.63271
O_ O_ 0.614671 0.583122 0.410601 -0.57982
F_ F_ 0.922563 0.826717 0.429769 -0.20885
F_ F_ 0.918467 0.818432 0.345513 -0.20885
F_ F_ 0.85425 0.801452 0.391766 -0.20885
F_ F_ 0.807531 0.940975 0.335045 -0.20885
F_ F_ 0.814036 0.857032 0.316454 -0.20885
F_ F_ 0.879002 0.901366 0.305022 -0.20885
F_ F_ 0.569834 0.668673 0.0452642 -0.20885
F_ F_ 0.555173 0.682471 0.128999 -0.20885
F_ F_ 0.629134 0.699071 0.100775 -0.20885
F_ F_ 0.661245 0.559071 0.166725 -0.20885
F_ F_ 0.663807 0.643893 0.173113 -0.20885
F_ F_ 0.594601 0.611297 0.184215 -0.20885
Zn Zn 0.587186 0.583225 0.84449 0.83971
Zn Zn 0.65756 0.842232 0.58771 0.83971
Zn Zn 0.905721 0.915696 0.662378 0.83971
Zn Zn 0.839936 0.656087 0.927751 0.83971
H_ H_ 0.667863 0.627381 0.795712 0.10394
H_ H_ 0.754799 0.591257 0.782564 0.10394
H_ H_ 0.721735 0.949374 0.805047 0.10394
H_ H_ 0.62636 0.477719 0.816339 0.10394
H_ H_ 0.0421577 0.605101 0.739998 0.10394
H_ H_ 1.00752426 0.6791 0.696956 0.10394
H_ H_ 0.526809 0.767883 0.838484 0.10394
H_ H_ 0.558818 0.69277 0.882094 0.10394
H_ H_ 0.528795 0.941012 0.84747 0.10394
H_ H_ 0.977243 0.874743 0.880127 0.10394
H_ H_ 0.853056 0.988388 0.904583 0.10394
H_ H_ 0.57951 0.802391 0.633511 0.10394
H_ H_ 0.00249676 0.758331 0.595013 0.10394
H_ H_ 0.537503 0.77957 0.950938 0.10394
H_ H_ 0.614093 0.824202 0.48033 0.10394
H_ H_ 0.729168 0.750848 0.598709 0.10394
H_ H_ 0.77802 0.709822 0.678332 0.10394
H_ H_ 0.711032 0.82666 0.770878 0.10394
H_ H_ 0.669813 0.866121 0.698552 0.10394
H_ H_ 0.7152 0.881823 0.955429 0.10394
H_ H_ 0.76723 0.894161 0.88654 0.10394
H_ H_ 0.899925 0.900352 0.999878849 0.10394
H_ H_ 0.808672 0.895005 0.674118 0.10394
H_ H_ 0.738743 0.936071 0.712964 0.10394
H_ H_ 0.836672 0.53483 0.788794 0.10394
H_ H_ 0.897785 1.0188372 0.728388 0.10394
H_ H_ 0.517689 0.882643 0.69509 0.10394
H_ H_ 0.558218 0.805833 0.741929 0.10394
H_ H_ 0.918187 0.738728 0.715493 0.10394
H_ H_ 0.868882 0.822573 0.689979 0.10394
H_ H_ 0.96587 0.550699 0.610287 0.10394
H_ H_ 0.514452 0.625546 0.609293 0.10394
H_ H_ 0.646997 0.512014 0.599406 0.10394
H_ H_ 0.94086 0.670276 0.899028 0.10394
H_ H_ 0.516909 0.686285 0.969537 0.10394
H_ H_ 0.919888 0.780121 0.545307 0.10394
H_ H_ 0.851224 0.729326 1.0177197 0.10394
H_ H_ 0.738691 0.709701 0.902467 0.10394
H_ H_ 0.69558 0.73861 0.822226 0.10394
H_ H_ 0.838195 0.734477 0.758789 0.10394
H_ H_ 0.880685 0.693335 0.836261 0.10394
H_ H_ 0.788204 0.622932 0.555493 0.10394
H_ H_ 0.73181 0.616349 0.621422 0.10394
H_ H_ 0.610312 0.578287 0.511472 0.10394
C_ C_ 0.674804 0.58525 0.794801 0.18167
C_ C_ 0.724635 0.56638 0.785155 -0.15533
C_ C_ 0.732141 0.514977 0.769155 0.02923
C_ C_ 0.706904 0.989637 0.801874 -0.15533
C_ C_ 0.650661 0.50526 0.799121 0.18167
C_ C_ 0.534165 0.63681 0.764569 0.18167
C_ C_ 0.017613 0.68243 0.738099 -0.15533
C_ C_ 0.509187 0.726163 0.765563 0.02923
C_ C_ 0.525582 0.731481 0.817851 -0.15533
C_ C_ 0.54266 0.68746 0.843202 0.18167
C_ C_ 0.506644 0.539883 0.867073 0.69207
C_ C_ 0.970885 0.00458375 0.87905 0.02923
C_ C_ -0.00703699999999996 0.952049 0.878417 -0.15533
C_ C_ 0.961837 0.913318 0.884439 -0.15533
C_ C_ 0.91081 0.924435 0.897914 0.02923
C_ C_ 0.892236 0.977011 0.902453 -0.15533
C_ C_ 0.921116 0.0164176 0.893511 0.02923
C_ C_ 0.898505 0.577151 0.888305 0.69207
C_ C_ 0.899415 0.826765 0.898614 0.69661
C_ C_ 0.570927 0.797694 0.588902 0.18167
C_ C_ 0.524463 0.777164 0.569444 -0.15533
C_ C_ 0.515051 0.769146 0.516723 0.02923
C_ C_ 0.543457 0.78786 0.992405 -0.15533
C_ C_ 0.59561 0.800652 0.505278 0.18167
C_ C_ 0.723469 0.765276 0.639531 0.18167
C_ C_ 0.747704 0.741106 0.683434 -0.15533
C_ C_ 0.735895 0.758898 0.732634 0.02923
C_ C_ 0.707227 0.805264 0.734833 -0.15533
C_ C_ 0.682675 0.827933 0.692605 0.18167
C_ C_ 0.741267 0.864416 0.552271 0.69207
C_ C_ 0.778159 0.878354 1.0165379 0.02923
C_ C_ 0.755308 0.880873 0.964998 -0.15533
C_ C_ 0.785455 0.887302 0.925967 -0.15533
C_ C_ 0.838662 0.889489 0.937188 0.02923
C_ C_ 0.858707 0.893325 0.989398 -0.15533
C_ C_ 0.830107 0.886357 0.0290425 0.02923
C_ C_ 0.850421 0.881113 0.578529 0.69207
C_ C_ 0.847861 0.888251 0.839998 0.69661
C_ C_ 0.812976 0.931744 0.696727 0.18167
C_ C_ 0.771342 0.957008 0.71582 -0.15533
C_ C_ 0.777165 0.00194131 0.747188 0.02923
C_ C_ 0.826938 0.508512 0.755851 -0.15533
C_ C_ 0.864885 0.997117 0.733319 0.18167
C_ C_ 0.983969 0.863444 0.715785 0.18167
C_ C_ 0.517019 0.80788 0.728324 -0.15533
C_ C_ 0.982856 0.777841 0.747372 0.02923
C_ C_ 0.933516 0.776587 0.72638 -0.15533
C_ C_ 0.908348 0.820166 0.705085 0.18167
C_ C_ 0.983164 0.956087 0.628694 0.69207
C_ C_ 0.524338 0.497554 0.620053 0.02923
C_ C_ 0.505491 0.550098 0.621117 -0.15533
C_ C_ 0.534785 0.587148 0.607692 -0.15533
C_ C_ 0.587794 0.573799 0.602406 0.02923
C_ C_ 0.606948 0.522667 0.603549 -0.15533
C_ C_ 0.576858 0.483904 0.613668 0.02923
C_ C_ 0.596523 0.919109 0.607006 0.69207
C_ C_ 0.602844 0.667864 0.607224 0.69661
C_ C_ 0.936188 0.691624 0.934771 0.18167
C_ C_ 0.979269 0.711899 0.958417 -0.15533
C_ C_ 0.973774 0.745673 1.000725811 0.02923
C_ C_ 0.923892 0.756111 0.512071 -0.15533
C_ C_ 0.887392 0.725252 1.00114982 0.18167
C_ C_ 0.761318 0.711368 0.869422 0.18167
C_ C_ 0.734561 0.729368 0.824259 -0.15533
C_ C_ 0.762037 0.735736 0.779936 0.02923
C_ C_ 0.815974 0.726815 0.78791 -0.15533
C_ C_ 0.839346 0.702642 0.831849 0.18167
C_ C_ 0.761946 0.62559 0.956194 0.69207
C_ C_ 0.729786 0.610061 0.492983 0.02923
C_ C_ 0.749201 0.611436 0.543828 -0.15533
C_ C_ 0.71568 0.615951 0.581865 -0.15533
C_ C_ 0.664632 0.605349 0.572071 0.02923
C_ C_ 0.648897 0.594894 0.520137 -0.15533
C_ C_ 0.678163 0.604434 0.479374 0.02923
C_ C_ 0.64703 0.608261 0.920252 0.69207
C_ C_ 0.650154 0.606894 0.664138 0.69661
C_ C_ 0.874797 0.883686 0.896351 -0.30787
C_ C_ 0.625566 0.614049 0.609694 -0.30787
N_ N_ 0.639507 0.55449 0.802757 -0.32189
N_ N_ 0.549678 0.641917 0.816369 -0.32189
N_ N_ 0.605938 0.807165 0.555504 -0.32189
N_ N_ 0.691435 0.807899 0.644998 -0.32189
N_ N_ 0.858397 0.950422 0.704079 -0.32189
N_ N_ 0.93351 0.861441 0.700274 -0.32189
N_ N_ 0.89132 0.696486 0.956406 -0.32189
N_ N_ 0.812658 0.697201 0.871209 -0.32189
O_ O_ 1.00856598 0.596183 0.884618 -0.63271
O_ O_ 0.540021 0.537434 0.833987 -0.57982
O_ O_ 0.887145 0.599571 0.846644 -0.63271
O_ O_ 0.873175 0.594181 0.927493 -0.57982
O_ O_ 0.746488 0.888243 0.59679 -0.63271
O_ O_ 0.702075 0.836136 0.541457 -0.57982
O_ O_ 0.852747 0.840552 0.605411 -0.63271
O_ O_ 0.872136 0.920144 0.59869 -0.57982
O_ O_ 0.486677 0.908054 0.595804 -0.63271
O_ O_ 0.946473 0.965714 0.660726 -0.57982
O_ O_ 0.591536 0.896319 0.648763 -0.63271
O_ O_ 0.63758 0.906519 0.583932 -0.57982
O_ O_ 0.76285 0.609974 0.910188 -0.63271
O_ O_ 0.795475 0.654275 0.974945 -0.57982
O_ O_ 0.64662 0.648729 0.894336 -0.63271
O_ O_ 0.619039 0.572189 0.90387 -0.57982
F_ F_ 0.941662 0.824249 0.933412 -0.20885
F_ F_ 0.916887 0.812002 0.850651 -0.20885
F_ F_ 0.862327 0.793215 0.904054 -0.20885
F_ F_ 0.815733 0.931371 0.832728 -0.20885
F_ F_ 0.818245 0.851604 0.821454 -0.20885
F_ F_ 0.880243 0.887911 0.805405 -0.20885
F_ F_ 0.57347 0.671243 0.561524 -0.20885
F_ F_ 0.570307 0.683496 0.646427 -0.20885
F_ F_ 0.636466 0.704682 0.613086 -0.20885
F_ F_ 0.683659 0.567078 0.67231 -0.20885
F_ F_ 0.675548 0.648517 0.68348 -0.20885
F_ F_ 0.614797 0.603549 0.70042 -0.20885
