_cell_length_a 26.508
_cell_length_b 26.37200000322088
_cell_length_c 26.311999743092066
_cell_angle_alpha 93.74100058972084
_cell_angle_beta 96.04100104955006
_cell_angle_gamma 83.6869992558723
_symmetry_space_group_name_H-M         'P 1'
_symmetry_Int_Tables_number            1
loop_
_symmetry_equiv_pos_as_xyz
   'x, y, z'
                         
loop_
_atom_site_label
_atom_site_type_symbol
_atom_site_fract_x 
_atom_site_fract_y
_atom_site_fract_z
_atom_site_charge
Zn Zn 0.0909738 0.075626 0.342558 0.83971
Zn Zn 0.16079 0.349821 0.0910543 0.83971
Zn Zn 0.407232 0.422064 0.160017 0.83971
Zn Zn 0.345443 0.153183 0.418173 0.83971
H_ H_ 0.156319 0.126837 0.289975 0.10394
H_ H_ 0.233787 0.102951 0.252156 0.10394
H_ H_ 0.215274 0.448816 0.295353 0.10394
H_ H_ 0.148468 0.974629 0.334857 0.10394
H_ H_ 0.529273 0.102532 0.254607 0.10394
H_ H_ 0.488567 0.182162 0.210246 0.10394
H_ H_ 0.0516148 0.265128 0.333193 0.10394
H_ H_ 0.0843904 0.188423 0.375773 0.10394
H_ H_ 0.0325113 0.447988 0.367352 0.10394
H_ H_ 0.481551 0.388227 0.402221 0.10394
H_ H_ 0.346457 0.493924 0.396312 0.10394
H_ H_ 0.087302 0.299539 0.135536 0.10394
H_ H_ 0.505895 0.257877 0.101948 0.10394
H_ H_ 0.0422737 0.296592 0.445639 0.10394
H_ H_ 0.115216 0.33459 0.988652 0.10394
H_ H_ 0.217937 0.248833 0.1018 0.10394
H_ H_ 0.250728 0.202256 0.180362 0.10394
H_ H_ 0.235722 0.333877 0.27416 0.10394
H_ H_ 0.179376 0.377615 0.198279 0.10394
H_ H_ 0.212858 0.360482 0.455028 0.10394
H_ H_ 0.259682 0.390133 0.389674 0.10394
H_ H_ 0.385715 0.41295 0.496258 0.10394
H_ H_ 0.305332 0.40257 0.171494 0.10394
H_ H_ 0.232692 0.45371 0.202017 0.10394
H_ H_ 0.327152 0.0587431 0.267598 0.10394
H_ H_ 0.407803 0.502508 0.240551 0.10394
H_ H_ 0.0188138 0.391073 0.218241 0.10394
H_ H_ 0.0620999 0.31236 0.255206 0.10394
H_ H_ 0.419147 0.24371 0.224997 0.10394
H_ H_ 0.377422 0.325993 0.184019 0.10394
H_ H_ 0.46181 0.0430901 0.0771599 0.10394
H_ H_ 0.00692501 0.111047 0.0766665 0.10394
H_ H_ 0.144227 0.00523807 0.0881744 0.10394
H_ H_ 0.447705 0.14887 0.42352 0.10394
H_ H_ 0.0211809 0.196521 0.438968 0.10394
H_ H_ 0.427242 0.266714 0.0583001 0.10394
H_ H_ 0.337272 0.245848 0.497267 0.10394
H_ H_ 0.23915 0.179683 0.373518 0.10394
H_ H_ 0.200822 0.225021 0.301017 0.10394
H_ H_ 0.348551 0.244337 0.264634 0.10394
H_ H_ 0.385849 0.19163 0.331984 0.10394
H_ H_ 0.282723 0.119117 0.0588502 0.10394
H_ H_ 0.22381 0.117588 0.120749 0.10394
H_ H_ 0.104938 0.0921194 0.006469999999999976 0.10394
C_ C_ 0.171135 0.0856267 0.288162 0.18167
C_ C_ 0.216011 0.07239 0.268327 -0.15533
C_ C_ 0.235073 0.0181725 0.268644 0.02923
C_ C_ 0.203871 0.49183 0.297869 -0.15533
C_ C_ 0.165804 0.000596954 0.313789 0.18167
C_ C_ 0.033311 0.131412 0.2673 0.18167
C_ C_ 0.511667 0.185358 0.246819 -0.15533
C_ C_ 0.0159326 0.223335 0.264099 0.02923
C_ C_ 0.0451312 0.227748 0.314894 -0.15533
C_ C_ 0.0647081 0.182838 0.337515 0.18167
C_ C_ 0.0165367 0.0345902 0.366092 0.69207
C_ C_ 0.467932 0.512878 0.383279 0.02923
C_ C_ 0.490513 0.461767 0.385928 -0.15533
C_ C_ 0.462252 0.422373 0.39638 -0.15533
C_ C_ 0.407325 0.432519 0.397424 0.02923
C_ C_ 0.38708 0.48366 0.396823 -0.15533
C_ C_ 0.417439 0.524389 0.392793 0.02923
C_ C_ 0.399132 0.0722969 0.387691 0.69207
C_ C_ 0.395266 0.337246 0.392217 0.69661
C_ C_ 0.0774963 0.295447 0.0942467 0.18167
C_ C_ 0.034637 0.270551 0.0751304 -0.15533
C_ C_ 0.0179337 0.269005 0.0210351 0.02923
C_ C_ 0.0497727 0.294639 0.485374 -0.15533
C_ C_ 0.0901985 0.31807 0.0111293 0.18167
C_ C_ 0.22651 0.270395 0.138658 0.18167
C_ C_ 0.246731 0.243788 0.181 -0.15533
C_ C_ 0.251078 0.266229 0.229552 0.02923
C_ C_ 0.228065 0.315402 0.238085 -0.15533
C_ C_ 0.201419 0.342151 0.195381 0.18167
C_ C_ 0.244568 0.363267 0.0504802 0.69207
C_ C_ 0.271774 0.371685 0.515386 0.02923
C_ C_ 0.253476 0.366975 0.463564 -0.15533
C_ C_ 0.282163 0.380817 0.425519 -0.15533
C_ C_ 0.33139 0.395555 0.434997 0.02923
C_ C_ 0.350219 0.395719 0.48697 -0.15533
C_ C_ 0.321802 0.385858 0.526428 0.02923
C_ C_ 0.354748 0.385642 0.0709614 0.69207
C_ C_ 0.34174 0.387653 0.337508 0.69661
C_ C_ 0.310606 0.438357 0.191587 0.18167
C_ C_ 0.270786 0.46403 0.214233 -0.15533
C_ C_ 0.279245 0.504479 0.251246 0.02923
C_ C_ 0.324077 0.0225913 0.244296 -0.15533
C_ C_ 0.368021 0.494077 0.232764 0.18167
C_ C_ 0.487425 0.366325 0.218404 0.18167
C_ C_ 0.0225589 0.313331 0.240595 -0.15533
C_ C_ 0.485872 0.2816 0.249916 0.02923
C_ C_ 0.43828 0.278727 0.224268 -0.15533
C_ C_ 0.416484 0.320274 0.195574 0.18167
C_ C_ 0.482849 0.456133 0.125802 0.69207
C_ C_ 0.0240675 0.987887 0.110473 0.02923
C_ C_ 0.00188928 0.038202 0.102622 -0.15533
C_ C_ 0.0293289 0.0778047 0.0937627 -0.15533
C_ C_ 0.082678 0.0685939 0.0940254 0.02923
C_ C_ 0.103709 0.0165177 0.092003 -0.15533
C_ C_ 0.0770223 0.977236 0.109174 0.02923
C_ C_ 0.0942441 0.427906 0.113139 0.69207
C_ C_ 0.0950341 0.164494 0.0984271 0.69661
C_ C_ 0.437718 0.18225 0.44541 0.18167
C_ C_ 0.477814 0.206309 0.46838 -0.15533
C_ C_ 0.466685 0.248947 0.501484 0.02923
C_ C_ 0.427287 0.249752 0.0194265 -0.15533
C_ C_ 0.376689 0.233153 0.491067 0.18167
C_ C_ 0.263951 0.193454 0.349725 0.18167
C_ C_ 0.242696 0.222365 0.308022 -0.15533
C_ C_ 0.272671 0.235681 0.27328 0.02923
C_ C_ 0.324893 0.221928 0.280243 -0.15533
C_ C_ 0.34699 0.194643 0.323281 0.18167
C_ C_ 0.27019 0.112535 0.449861 0.69207
C_ C_ 0.225931 0.118067 0.993306 0.02923
C_ C_ 0.242319 0.115711 0.0446035 -0.15533
C_ C_ 0.210222 0.111645 0.0805871 -0.15533
C_ C_ 0.160562 0.102521 0.0662002 0.02923
C_ C_ 0.144381 0.0964211 0.0154215 -0.15533
C_ C_ 0.176141 0.108783 0.97714 0.02923
C_ C_ 0.160896 0.0946969 0.419309 0.69207
C_ C_ 0.139024 0.107141 0.162483 0.69661
C_ C_ 0.369275 0.392826 0.391351 -0.30787
C_ C_ 0.120045 0.109904 0.104515 -0.30787
N_ N_ 0.145603 0.0500466 0.307793 -0.32189
N_ N_ 0.0601741 0.13576 0.315593 -0.32189
N_ N_ 0.10662 0.316111 0.0613188 -0.32189
N_ N_ 0.198981 0.317416 0.148693 -0.32189
N_ N_ 0.358147 0.453057 0.202407 -0.32189
N_ N_ 0.440377 0.361863 0.193362 -0.32189
N_ N_ 0.388384 0.19305 0.45744 -0.32189
N_ N_ 0.315952 0.181647 0.358208 -0.32189
O_ O_ 0.502545 0.0897687 0.382565 -0.63271
O_ O_ 0.049452 0.0245415 0.330652 -0.57982
O_ O_ 0.396772 0.0985522 0.347093 -0.63271
O_ O_ 0.379271 0.092461 0.42771 -0.57982
O_ O_ 0.246213 0.389802 0.0954157 -0.63271
O_ O_ 0.205418 0.335975 0.0414259 -0.57982
O_ O_ 0.357089 0.344755 0.0980778 -0.63271
O_ O_ 0.375292 0.424334 0.0941021 -0.57982
O_ O_ 0.986851 0.411354 0.111563 -0.63271
O_ O_ 0.448787 0.468973 0.157497 -0.57982
O_ O_ 0.0895635 0.400479 0.151335 -0.63271
O_ O_ 0.133193 0.415097 0.0861885 -0.57982
O_ O_ 0.269319 0.0878359 0.404964 -0.63271
O_ O_ 0.302982 0.144603 0.463415 -0.57982
O_ O_ 0.159689 0.135666 0.395814 -0.63271
O_ O_ 0.123352 0.0661355 0.405371 -0.57982
F_ F_ 0.429093 0.327596 0.435925 -0.20885
F_ F_ 0.421475 0.317734 0.350509 -0.20885
F_ F_ 0.362149 0.301087 0.397901 -0.20885
F_ F_ 0.301038 0.426392 0.328522 -0.20885
F_ F_ 0.3188 0.343045 0.322641 -0.20885
F_ F_ 0.375155 0.394007 0.300389 -0.20885
F_ F_ 0.0716045 0.171188 0.0514404 -0.20885
F_ F_ 0.0616994 0.178335 0.134507 -0.20885
F_ F_ 0.12948 0.197699 0.10221 -0.20885
F_ F_ 0.174068 0.0652412 0.169174 -0.20885
F_ F_ 0.160539 0.150813 0.18153 -0.20885
F_ F_ 0.100612 0.106139 0.193411 -0.20885
Zn Zn 0.0903945 0.081823 0.841184 0.83971
Zn Zn 0.155937 0.350317 0.589639 0.83971
Zn Zn 0.406505 0.425088 0.660192 0.83971
Zn Zn 0.340086 0.157338 0.921528 0.83971
H_ H_ 0.176661 0.133553 0.797493 0.10394
H_ H_ 0.2525 0.0916638 0.76635 0.10394
H_ H_ 0.211092 0.458409 0.791737 0.10394
H_ H_ 0.136791 0.985103 0.832133 0.10394
H_ H_ 0.542512 0.104171 0.740447 0.10394
H_ H_ 0.495399 0.179614 0.697904 0.10394
H_ H_ 0.0436858 0.26896 0.827463 0.10394
H_ H_ 0.074492 0.193416 0.874242 0.10394
H_ H_ 0.0338679 0.436656 0.874805 0.10394
H_ H_ 0.481425 0.380179 0.882018 0.10394
H_ H_ 0.349079 0.483521 0.901807 0.10394
H_ H_ 0.0863335 0.291436 0.627839 0.10394
H_ H_ 0.490501 0.286327 0.597876 0.10394
H_ H_ 0.0285493 0.304764 0.951907 0.10394
H_ H_ 0.114599 0.337354 0.486949 0.10394
H_ H_ 0.224081 0.256335 0.605744 0.10394
H_ H_ 0.265928 0.221002 0.679836 0.10394
H_ H_ 0.20385 0.335742 0.780816 0.10394
H_ H_ 0.164357 0.384241 0.701696 0.10394
H_ H_ 0.221667 0.353056 0.948858 0.10394
H_ H_ 0.272347 0.367951 0.878851 0.10394
H_ H_ 0.399052 0.396154 0.985389 0.10394
H_ H_ 0.300097 0.409733 0.665066 0.10394
H_ H_ 0.22901 0.460903 0.700018 0.10394
H_ H_ 0.33774 0.043808 0.77814 0.10394
H_ H_ 0.407549 0.499291 0.751687 0.10394
H_ H_ 0.00880856 0.385321 0.687943 0.10394
H_ H_ 0.0529706 0.300165 0.707253 0.10394
H_ H_ 0.407027 0.262507 0.745494 0.10394
H_ H_ 0.366463 0.341129 0.702174 0.10394
H_ H_ 0.467648 0.0574404 0.623471 0.10394
H_ H_ 0.0210452 0.117475 0.597209 0.10394
H_ H_ 0.136509 -0.000103274 0.567952 0.10394
H_ H_ 0.435223 0.171106 0.890587 0.10394
H_ H_ 0.022139 0.19639 0.948105 0.10394
H_ H_ 0.406125 0.292499 0.541102 0.10394
H_ H_ 0.350059 0.234636 0.0132101 0.10394
H_ H_ 0.241826 0.212768 0.898824 0.10394
H_ H_ 0.191 0.245486 0.820083 0.10394
H_ H_ 0.33013 0.218703 0.746366 0.10394
H_ H_ 0.373472 0.182629 0.827936 0.10394
H_ H_ 0.292864 0.100386 0.554683 0.10394
H_ H_ 0.233347 0.0990929 0.616025 0.10394
H_ H_ 0.108853 0.095689 0.500682 0.10394
C_ C_ 0.183982 0.0894478 0.794906 0.18167
C_ C_ 0.224928 0.068431 0.772279 -0.15533
C_ C_ 0.237876 0.01752 0.772995 0.02923
C_ C_ 0.199986 0.501455 0.790207 -0.15533
C_ C_ 0.16311 0.00817171 0.816289 0.18167
C_ C_ 0.0311598 0.138562 0.761768 0.18167
C_ C_ 0.510984 0.184157 0.736922 -0.15533
C_ C_ 0.00995365 0.228786 0.761125 0.02923
C_ C_ 0.0360394 0.232822 0.810473 -0.15533
C_ C_ 0.0593659 0.187841 0.834309 0.18167
C_ C_ 0.00989573 0.0453177 0.863931 0.69207
C_ C_ 0.466715 0.507197 0.873381 0.02923
C_ C_ 0.48808 0.455281 0.871408 -0.15533
C_ C_ 0.461558 0.416257 0.882304 -0.15533
C_ C_ 0.410857 0.425035 0.893824 0.02923
C_ C_ 0.389484 0.476242 0.899789 -0.15533
C_ C_ 0.416767 0.517273 0.891207 0.02923
C_ C_ 0.396727 0.0749617 0.888668 0.69207
C_ C_ 0.401295 0.327492 0.889408 0.69661
C_ C_ 0.0767 0.289794 0.587691 0.18167
C_ C_ 0.0293024 0.273877 0.565465 -0.15533
C_ C_ 0.0178684 0.270923 0.512336 0.02923
C_ C_ 0.044892 0.297005 0.989767 -0.15533
C_ C_ 0.0885583 0.320311 0.509843 0.18167
C_ C_ 0.217862 0.276386 0.643093 0.18167
C_ C_ 0.239117 0.251519 0.686392 -0.15533
C_ C_ 0.234478 0.270656 0.73613 0.02923
C_ C_ 0.207938 0.319233 0.742283 -0.15533
C_ C_ 0.185516 0.34414 0.696183 0.18167
C_ C_ 0.239334 0.362608 0.554524 0.69207
C_ C_ 0.277238 0.372597 0.00822633 0.02923
C_ C_ 0.258043 0.366895 0.956776 -0.15533
C_ C_ 0.288224 0.373577 0.917459 -0.15533
C_ C_ 0.339122 0.387264 0.926785 0.02923
C_ C_ 0.358326 0.39425 0.978723 -0.15533
C_ C_ 0.32845 0.387589 0.018453 0.02923
C_ C_ 0.34844 0.384531 0.579487 0.69207
C_ C_ 0.348105 0.385091 0.832162 0.69661
C_ C_ 0.308757 0.444363 0.688393 0.18167
C_ C_ 0.267182 0.471247 0.710492 -0.15533
C_ C_ 0.277052 0.50893 0.747943 0.02923
C_ C_ 0.329846 0.0115454 0.75239 -0.15533
C_ C_ 0.366191 0.497283 0.733783 0.18167
C_ C_ 0.488487 0.354161 0.69466 0.18167
C_ C_ 0.0132272 0.311039 0.715766 -0.15533
C_ C_ 0.481583 0.278305 0.738111 0.02923
C_ C_ 0.429989 0.288596 0.732262 -0.15533
C_ C_ 0.407072 0.333109 0.709009 0.18167
C_ C_ 0.485708 0.459568 0.626534 0.69207
C_ C_ 0.0202538 0.991321 0.605957 0.02923
C_ C_ -0.000633054 0.0413375 0.598265 -0.15533
C_ C_ 0.0329028 0.0790385 0.592858 -0.15533
C_ C_ 0.0861996 0.0654577 0.592044 0.02923
C_ C_ 0.10261 0.0151603 0.585718 -0.15533
C_ C_ 0.0713711 0.977186 0.59744 0.02923
C_ C_ 0.0904891 0.424856 0.607043 0.69207
C_ C_ 0.106912 0.161587 0.602466 0.69661
C_ C_ 0.434078 0.189358 0.928337 0.18167
C_ C_ 0.478611 0.205241 0.955662 -0.15533
C_ C_ 0.476341 0.239884 0.999773176 0.02923
C_ C_ 0.41657 0.263021 0.513313 -0.15533
C_ C_ 0.386058 0.22431 0.998153 0.18167
C_ C_ 0.257098 0.210723 0.865158 0.18167
C_ C_ 0.23126 0.236954 0.823243 -0.15533
C_ C_ 0.258995 0.240166 0.780528 0.02923
C_ C_ 0.309288 0.221512 0.779958 -0.15533
C_ C_ 0.333158 0.193495 0.823635 0.18167
C_ C_ 0.264039 0.132167 0.95771 0.69207
C_ C_ 0.234091 0.101996 0.489824 0.02923
C_ C_ 0.251455 0.0996273 0.542202 -0.15533
C_ C_ 0.217042 0.0966398 0.577541 -0.15533
C_ C_ 0.164826 0.0941408 0.563865 0.02923
C_ C_ 0.148506 0.0973241 0.511637 -0.15533
C_ C_ 0.181818 0.0975436 0.4739 0.02923
C_ C_ 0.154088 0.11226 0.923728 0.69207
C_ C_ 0.145451 0.0976203 0.659469 0.69661
C_ C_ 0.376228 0.382817 0.885609 -0.30787
C_ C_ 0.124845 0.103627 0.602562 -0.30787
N_ N_ 0.148952 0.0581192 0.809456 -0.32189
N_ N_ 0.0578104 0.140993 0.810101 -0.32189
N_ N_ 0.105874 0.30937 0.55853 -0.32189
N_ N_ 0.189245 0.321359 0.648904 -0.32189
N_ N_ 0.356334 0.460035 0.698209 -0.32189
N_ N_ 0.436789 0.36351 0.688125 -0.32189
N_ N_ 0.391887 0.193588 0.953916 -0.32189
N_ N_ 0.307137 0.19404 0.86641 -0.32189
O_ O_ 0.498572 0.0937361 0.881204 -0.63271
O_ O_ 0.04482 0.0328629 0.831235 -0.57982
O_ O_ 0.387603 0.0983415 0.846238 -0.63271
O_ O_ 0.374511 0.0936893 0.928012 -0.57982
O_ O_ 0.242626 0.388754 0.598584 -0.63271
O_ O_ 0.20436 0.331683 0.547719 -0.57982
O_ O_ 0.356459 0.341643 0.601164 -0.63271
O_ O_ 0.366376 0.425123 0.602013 -0.57982
O_ O_ 0.983837 0.412883 0.593622 -0.63271
O_ O_ 0.455523 0.470511 0.663859 -0.57982
O_ O_ 0.0865593 0.393524 0.64427 -0.63271
O_ O_ 0.125439 0.41129 0.575784 -0.57982
O_ O_ 0.261607 0.116241 0.908991 -0.63271
O_ O_ 0.299091 0.163889 0.971532 -0.57982
O_ O_ 0.163448 0.150116 0.896516 -0.63271
O_ O_ 0.115085 0.0872796 0.906614 -0.57982
F_ F_ 0.437411 0.323841 0.933035 -0.20885
F_ F_ 0.42801 0.30627 0.851878 -0.20885
F_ F_ 0.367122 0.292956 0.895116 -0.20885
F_ F_ 0.310756 0.427108 0.831339 -0.20885
F_ F_ 0.319396 0.347434 0.817756 -0.20885
F_ F_ 0.376788 0.390256 0.794661 -0.20885
F_ F_ 0.0736219 0.17353 0.560014 -0.20885
F_ F_ 0.0815369 0.180175 0.644901 -0.20885
F_ F_ 0.146096 0.189581 0.599174 -0.20885
F_ F_ 0.175737 0.0522789 0.666791 -0.20885
F_ F_ 0.176953 0.133014 0.678931 -0.20885
F_ F_ 0.107114 0.0986611 0.691717 -0.20885
Zn Zn 0.0864144 0.587356 0.351425 0.83971
Zn Zn 0.158239 0.840911 0.0830064 0.83971
Zn Zn 0.412187 0.915986 0.157035 0.83971
Zn Zn 0.337581 0.663462 0.421256 0.83971
H_ H_ 0.167003 0.635576 0.308911 0.10394
H_ H_ 0.24324 0.604016 0.268847 0.10394
H_ H_ 0.2226 0.94466 0.290965 0.10394
H_ H_ 0.144812 0.486157 0.341419 0.10394
H_ H_ 0.526689 0.594717 0.258428 0.10394
H_ H_ 0.49466 0.66872 0.202485 0.10394
H_ H_ 0.029031 0.766817 0.323771 0.10394
H_ H_ 0.073634 0.697154 0.371873 0.10394
H_ H_ 0.0374232 0.930443 0.363509 0.10394
H_ H_ 0.483788 0.876145 0.376675 0.10394
H_ H_ 0.357423 0.990731 0.402123 0.10394
H_ H_ 0.0808537 0.801915 0.123423 0.10394
H_ H_ 0.486794 0.790121 0.0891207 0.10394
H_ H_ 0.0397676 0.783505 0.439941 0.10394
H_ H_ 0.116703 0.807793 0.972119 0.10394
H_ H_ 0.226886 0.745185 0.100809 0.10394
H_ H_ 0.251947 0.701834 0.179048 0.10394
H_ H_ 0.217315 0.837337 0.268435 0.10394
H_ H_ 0.180499 0.880342 0.185681 0.10394
H_ H_ 0.213126 0.892104 0.441792 0.10394
H_ H_ 0.264539 0.890087 0.374964 0.10394
H_ H_ 0.401912 0.881324 0.487028 0.10394
H_ H_ 0.315552 0.897437 0.162487 0.10394
H_ H_ 0.237679 0.935834 0.2049 0.10394
H_ H_ 0.33467 0.547328 0.290011 0.10394
H_ H_ 0.40276 0.0126163 0.232542 0.10394
H_ H_ 0.00898196 0.884949 0.212512 0.10394
H_ H_ 0.0466076 0.806719 0.251051 0.10394
H_ H_ 0.410216 0.747287 0.220137 0.10394
H_ H_ 0.371461 0.828631 0.188245 0.10394
H_ H_ 0.45752 0.557859 0.114639 0.10394
H_ H_ 0.0161699 0.625717 0.105734 0.10394
H_ H_ 0.142928 0.507712 0.0941033 0.10394
H_ H_ 0.439425 0.66324 0.408855 0.10394
H_ H_ 0.01866 0.6856 0.451517 0.10394
H_ H_ 0.414415 0.7883 0.0269144 0.10394
H_ H_ 0.343163 0.75944 0.497087 0.10394
H_ H_ 0.232764 0.710352 0.390115 0.10394
H_ H_ 0.186982 0.735702 0.306342 0.10394
H_ H_ 0.336242 0.727808 0.250337 0.10394
H_ H_ 0.371368 0.679432 0.322328 0.10394
H_ H_ 0.282706 0.636154 0.0575498 0.10394
H_ H_ 0.238916 0.604209 0.124789 0.10394
H_ H_ 0.108923 0.590765 0.0134908 0.10394
C_ C_ 0.175419 0.595539 0.30358 0.18167
C_ C_ 0.223224 0.577519 0.287379 -0.15533
C_ C_ 0.238174 0.524412 0.28576 0.02923
C_ C_ 0.208005 0.984087 0.290091 -0.15533
C_ C_ 0.161407 0.512586 0.320176 0.18167
C_ C_ 0.0294332 0.628749 0.267676 0.18167
C_ C_ 0.507307 0.673977 0.24167 -0.15533
C_ C_ 0.0044648 0.718996 0.258595 0.02923
C_ C_ 0.0287426 0.72914 0.307031 -0.15533
C_ C_ 0.0581677 0.689591 0.333671 0.18167
C_ C_ 0.00499337 0.543932 0.36634 0.69207
C_ C_ 0.476606 0.00467454 0.376251 0.02923
C_ C_ 0.49521 0.951702 0.368871 -0.15533
C_ C_ 0.466189 0.914779 0.379445 -0.15533
C_ C_ 0.41537 0.926567 0.390131 0.02923
C_ C_ 0.397102 0.979131 0.398779 -0.15533
C_ C_ 0.4255 0.0193641 0.390764 0.02923
C_ C_ 0.391684 0.578228 0.389552 0.69207
C_ C_ 0.400142 0.829403 0.38002 0.69661
C_ C_ 0.0671927 0.803558 0.0851727 0.18167
C_ C_ 0.0225744 0.778131 0.0674134 -0.15533
C_ C_ 0.00900561 0.770763 0.0144908 0.02923
C_ C_ 0.0501197 0.783399 0.48164 -0.15533
C_ C_ 0.0897949 0.803021 0.000326055 0.18167
C_ C_ 0.221689 0.766367 0.136113 0.18167
C_ C_ 0.239928 0.741769 0.180061 -0.15533
C_ C_ 0.2358 0.76476 0.228486 0.02923
C_ C_ 0.21904 0.817142 0.231688 -0.15533
C_ C_ 0.193898 0.839302 0.185122 0.18167
C_ C_ 0.241918 0.860299 0.0395869 0.69207
C_ C_ 0.274785 0.883186 0.504406 0.02923
C_ C_ 0.254116 0.890777 0.454373 -0.15533
C_ C_ 0.285146 0.890252 0.414529 -0.15533
C_ C_ 0.339138 0.890802 0.425227 0.02923
C_ C_ 0.360382 0.884985 0.476352 -0.15533
C_ C_ 0.327574 0.881809 0.516018 0.02923
C_ C_ 0.352091 0.875453 0.0692481 0.69207
C_ C_ 0.34594 0.897319 0.326821 0.69661
C_ C_ 0.315735 0.932585 0.184102 0.18167
C_ C_ 0.273001 0.954269 0.207564 -0.15533
C_ C_ 0.278429 1.00021 0.239549 0.02923
C_ C_ 0.328208 0.518308 0.259371 -0.15533
C_ C_ 0.36498 0.996241 0.224025 0.18167
C_ C_ 0.495782 0.849792 0.200809 0.18167
C_ C_ 0.010124 0.807573 0.230239 -0.15533
C_ C_ 0.487595 0.769381 0.234842 0.02923
C_ C_ 0.433484 0.778661 0.221439 -0.15533
C_ C_ 0.413562 0.819883 0.193036 0.18167
C_ C_ 0.485879 0.950754 0.113193 0.69207
C_ C_ 0.0199951 0.495654 0.117131 0.02923
C_ C_ 0.0011200000000000099 0.547815 0.114452 -0.15533
C_ C_ 0.032365 0.585682 0.106544 -0.15533
C_ C_ 0.0830249 0.570493 0.10292 0.02923
C_ C_ 0.101602 0.518534 0.100446 -0.15533
C_ C_ 0.071767 0.481026 0.111002 0.02923
C_ C_ 0.1034 0.92484 0.113055 0.69207
C_ C_ 0.104349 0.667481 0.109309 0.69661
C_ C_ 0.435636 0.691007 0.437275 0.18167
C_ C_ 0.478754 0.705123 0.466806 -0.15533
C_ C_ 0.470361 0.746396 0.505528 0.02923
C_ C_ 0.420654 0.753514 0.00353908 -0.15533
C_ C_ 0.380183 0.743768 0.487516 0.18167
C_ C_ 0.250995 0.708399 0.356377 0.18167
C_ C_ 0.2282 0.728337 0.311892 -0.15533
C_ C_ 0.258479 0.738729 0.274172 0.02923
C_ C_ 0.309633 0.720605 0.279026 -0.15533
C_ C_ 0.330043 0.698191 0.323327 0.18167
C_ C_ 0.25657 0.631713 0.458694 0.69207
C_ C_ 0.226364 0.6127 0.995734 0.02923
C_ C_ 0.246568 0.618236 0.0467637 -0.15533
C_ C_ 0.218906 0.608251 0.0866107 -0.15533
C_ C_ 0.164991 0.59995 0.0747719 0.02923
C_ C_ 0.147593 0.59821 0.0231526 -0.15533
C_ C_ 0.17642 0.605465 0.983091 0.02923
C_ C_ 0.146671 0.617101 0.431902 0.69207
C_ C_ 0.149871 0.601493 0.168219 0.69661
C_ C_ 0.374059 0.886089 0.381231 -0.30787
C_ C_ 0.123871 0.610403 0.114133 -0.30787
N_ N_ 0.145853 0.562728 0.319996 -0.32189
N_ N_ 0.0559054 0.640137 0.312946 -0.32189
N_ N_ 0.0989938 0.812329 0.0502492 -0.32189
N_ N_ 0.195871 0.812762 0.138773 -0.32189
N_ N_ 0.361003 0.952725 0.19628 -0.32189
N_ N_ 0.444547 0.854645 0.183741 -0.32189
N_ N_ 0.388189 0.705182 0.450181 -0.32189
N_ N_ 0.300478 0.688397 0.359408 -0.32189
O_ O_ 0.505888 0.590971 0.411903 -0.63271
O_ O_ 0.0468538 0.535245 0.34419 -0.57982
O_ O_ 0.384287 0.601134 0.346418 -0.63271
O_ O_ 0.368471 0.599344 0.427321 -0.57982
O_ O_ 0.250506 0.880875 0.0865465 -0.63271
O_ O_ 0.201017 0.835786 0.0299773 -0.57982
O_ O_ 0.352254 0.83354 0.0917505 -0.63271
O_ O_ 0.380278 0.910248 0.0920101 -0.57982
O_ O_ 0.99598 0.899342 0.0997014 -0.63271
O_ O_ 0.452633 0.964582 0.146696 -0.57982
O_ O_ 0.0940584 0.896553 0.150621 -0.63271
O_ O_ 0.138832 0.909494 0.0845006 -0.57982
O_ O_ 0.248405 0.61238 0.412203 -0.63271
O_ O_ 0.292693 0.661437 0.469403 -0.57982
O_ O_ 0.147507 0.658592 0.408592 -0.63271
O_ O_ 0.108463 0.591316 0.416827 -0.57982
F_ F_ 0.430912 0.820083 0.425838 -0.20885
F_ F_ 0.428819 0.814481 0.337755 -0.20885
F_ F_ 0.363531 0.793539 0.375691 -0.20885
F_ F_ 0.322595 0.946571 0.324342 -0.20885
F_ F_ 0.310693 0.863004 0.310162 -0.20885
F_ F_ 0.380374 0.888162 0.289733 -0.20885
F_ F_ 0.073586 0.670828 0.0605399 -0.20885
F_ F_ 0.0752632 0.687824 0.145526 -0.20885
F_ F_ 0.144387 0.697613 0.109825 -0.20885
F_ F_ 0.179096 0.554891 0.172803 -0.20885
F_ F_ 0.177397 0.642049 0.184616 -0.20885
F_ F_ 0.113015 0.601686 0.201273 -0.20885
Zn Zn 0.0859156 0.587857 0.852446 0.83971
Zn Zn 0.161547 0.846239 0.580688 0.83971
Zn Zn 0.411701 0.916873 0.651274 0.83971
Zn Zn 0.332995 0.653899 0.912324 0.83971
H_ H_ 0.160537 0.644048 0.801625 0.10394
H_ H_ 0.242509 0.610471 0.771141 0.10394
H_ H_ 0.218765 0.946208 0.794638 0.10394
H_ H_ 0.133432 0.496448 0.823907 0.10394
H_ H_ 0.527763 0.595355 0.748214 0.10394
H_ H_ 0.493719 0.668224 0.696061 0.10394
H_ H_ 0.0384456 0.771083 0.836518 0.10394
H_ H_ 0.0640613 0.693476 0.890229 0.10394
H_ H_ 0.0333929 0.946114 0.876076 0.10394
H_ H_ 0.48305 0.880094 0.876784 0.10394
H_ H_ 0.358898 0.987823 0.910181 0.10394
H_ H_ 0.0829026 0.802237 0.629545 0.10394
H_ H_ 0.502718 0.767687 0.605104 0.10394
H_ H_ 0.0311408 0.776552 0.940868 0.10394
H_ H_ 0.118927 0.821168 0.480844 0.10394
H_ H_ 0.216639 0.749004 0.600671 0.10394
H_ H_ 0.248901 0.700385 0.67263 0.10394
H_ H_ 0.208988 0.836822 0.768606 0.10394
H_ H_ 0.174604 0.881888 0.692026 0.10394
H_ H_ 0.22746 0.847054 0.939959 0.10394
H_ H_ 0.277356 0.871512 0.875333 0.10394
H_ H_ 0.39599 0.900415 0.993345 0.10394
H_ H_ 0.303734 0.89872 0.654644 0.10394
H_ H_ 0.231359 0.947859 0.693813 0.10394
H_ H_ 0.336509 0.545396 0.794079 0.10394
H_ H_ 0.404661 0.005239999999999911 0.728149 0.10394
H_ H_ 0.0162224 0.88764 0.687928 0.10394
H_ H_ 0.0584642 0.816921 0.739716 0.10394
H_ H_ 0.411881 0.741104 0.720409 0.10394
H_ H_ 0.371278 0.824123 0.688242 0.10394
H_ H_ 0.465066 0.564861 0.634959 0.10394
H_ H_ 0.00959342 0.620505 0.620982 0.10394
H_ H_ 0.137289 0.507553 0.599795 0.10394
H_ H_ 0.441755 0.648461 0.900679 0.10394
H_ H_ 0.0154523 0.670564 0.983015 0.10394
H_ H_ 0.416427 0.786248 0.551961 0.10394
H_ H_ 0.339103 0.748845 -0.01634599999999997 0.10394
H_ H_ 0.228024 0.689295 0.878574 0.10394
H_ H_ 0.189919 0.734142 0.799947 0.10394
H_ H_ 0.33527 0.736465 0.753453 0.10394
H_ H_ 0.372528 0.682875 0.826238 0.10394
H_ H_ 0.281284 0.625304 0.559055 0.10394
H_ H_ 0.230719 0.607719 0.624067 0.10394
H_ H_ 0.104637 0.592605 0.511733 0.10394
C_ C_ 0.170234 0.604266 0.801496 0.18167
C_ C_ 0.215176 0.585087 0.77894 -0.15533
C_ C_ 0.231361 0.533332 0.774376 0.02923
C_ C_ 0.208383 0.986811 0.797317 -0.15533
C_ C_ 0.151988 0.520906 0.805441 0.18167
C_ C_ 0.0251408 0.63745 0.775055 0.18167
C_ C_ 0.508805 0.67476 0.736045 -0.15533
C_ C_ 0.0134424 0.730913 0.768421 0.02923
C_ C_ 0.0321324 0.734799 0.819998 -0.15533
C_ C_ 0.0469263 0.691718 0.848067 0.18167
C_ C_ 0.0114013 0.540193 0.873266 0.69207
C_ C_ 0.472067 0.00936776 0.870947 0.02923
C_ C_ 0.49458 0.957734 0.871784 -0.15533
C_ C_ 0.467682 0.918707 0.883415 -0.15533
C_ C_ 0.417826 0.929508 0.897382 0.02923
C_ C_ 0.397365 0.980638 0.899731 -0.15533
C_ C_ 0.421851 0.0209196 0.887498 0.02923
C_ C_ 0.391149 0.567675 0.885878 0.69207
C_ C_ 0.406682 0.833519 0.895073 0.69661
C_ C_ 0.0732371 0.79929 0.588743 0.18167
C_ C_ 0.0302859 0.775154 0.568854 -0.15533
C_ C_ 0.0176997 0.767738 0.515027 0.02923
C_ C_ 0.0417335 0.784511 0.980227 -0.15533
C_ C_ 0.0917583 0.806209 0.50363 0.18167
C_ C_ 0.211696 0.767552 0.637124 0.18167
C_ C_ 0.237474 0.741247 0.679053 -0.15533
C_ C_ 0.234735 0.767827 0.726941 0.02923
C_ C_ 0.21384 0.818489 0.731924 -0.15533
C_ C_ 0.196248 0.844242 0.68777 0.18167
C_ C_ 0.239641 0.872548 0.542987 0.69207
C_ C_ 0.280759 0.860974 0.00222411 0.02923
C_ C_ 0.260906 0.866169 0.950711 -0.15533
C_ C_ 0.290564 0.88033 0.915963 -0.15533
C_ C_ 0.340879 0.893185 0.929855 0.02923
C_ C_ 0.358787 0.892974 0.98111 -0.15533
C_ C_ 0.328229 0.878353 0.0171864 0.02923
C_ C_ 0.352261 0.881351 0.569259 0.69207
C_ C_ 0.356735 0.889558 0.832145 0.69661
C_ C_ 0.31149 0.930905 0.679322 0.18167
C_ C_ 0.269883 0.958311 0.703817 -0.15533
C_ C_ 0.280439 0.995657 0.742366 0.02923
C_ C_ 0.327288 0.518042 0.761844 -0.15533
C_ C_ 0.366963 0.9894 0.723078 0.18167
C_ C_ 0.490357 0.852361 0.703938 0.18167
C_ C_ 0.0180432 0.817249 0.724332 -0.15533
C_ C_ 0.486968 0.767443 0.728654 0.02923
C_ C_ 0.436367 0.770906 0.712477 -0.15533
C_ C_ 0.411979 0.816039 0.68959 0.18167
C_ C_ 0.487662 0.956387 0.617375 0.69207
C_ C_ 0.013428 0.492655 0.616652 0.02923
C_ C_ 0.996097 0.54471 0.624759 -0.15533
C_ C_ 0.0260075 0.581741 0.614533 -0.15533
C_ C_ 0.0797861 0.570282 0.606896 0.02923
C_ C_ 0.0986038 0.51934 0.60842 -0.15533
C_ C_ 0.0666171 0.479366 0.608303 0.02923
C_ C_ 0.0945609 0.924397 0.602484 0.69207
C_ C_ 0.0963861 0.668277 0.60958 0.69661
C_ C_ 0.434556 0.673132 0.933812 0.18167
C_ C_ 0.475496 0.694682 0.956674 -0.15533
C_ C_ 0.469083 0.733505 -0.006120000000000014 0.02923
C_ C_ 0.422858 0.758345 0.520249 -0.15533
C_ C_ 0.379035 0.732681 0.975184 0.18167
C_ C_ 0.249191 0.694924 0.848114 0.18167
C_ C_ 0.229606 0.725991 0.808578 -0.15533
C_ C_ 0.258461 0.740763 0.774515 0.02923
C_ C_ 0.311931 0.72654 0.780922 -0.15533
C_ C_ 0.331664 0.693526 0.821103 0.18167
C_ C_ 0.261184 0.62152 0.957052 0.69207
C_ C_ 0.223545 0.624188 0.496647 0.02923
C_ C_ 0.243992 0.620574 0.546387 -0.15533
C_ C_ 0.212094 0.613304 0.585809 -0.15533
C_ C_ 0.16128 0.602292 0.574414 0.02923
C_ C_ 0.144959 0.596785 0.522543 -0.15533
C_ C_ 0.173984 0.612945 0.484296 0.02923
C_ C_ 0.150393 0.608655 0.930271 0.69207
C_ C_ 0.142942 0.609093 0.669492 0.69661
C_ C_ 0.3787 0.888076 0.888395 -0.30787
C_ C_ 0.119559 0.610703 0.61421 -0.30787
N_ N_ 0.136818 0.571107 0.808125 -0.32189
N_ N_ 0.0480068 0.644997 0.823414 -0.32189
N_ N_ 0.108429 0.80483 0.555452 -0.32189
N_ N_ 0.193794 0.81679 0.642716 -0.32189
N_ N_ 0.358943 0.95009 0.68665 -0.32189
N_ N_ 0.440143 0.854484 0.683 -0.32189
N_ N_ 0.386012 0.692375 0.940869 -0.32189
N_ N_ 0.299042 0.677498 0.851628 -0.32189
O_ O_ 0.507614 0.581058 0.903808 -0.63271
O_ O_ 0.0467796 0.532627 0.843537 -0.57982
O_ O_ 0.394586 0.594663 0.846009 -0.63271
O_ O_ 0.362904 0.587418 0.919232 -0.57982
O_ O_ 0.239057 0.900084 0.584784 -0.63271
O_ O_ 0.206372 0.839417 0.533277 -0.57982
O_ O_ 0.351011 0.844135 0.597591 -0.63271
O_ O_ 0.380971 0.917185 0.588347 -0.57982
O_ O_ 0.989161 0.907266 0.590384 -0.63271
O_ O_ 0.457146 0.964576 0.653505 -0.57982
O_ O_ 0.0927524 0.898962 0.641955 -0.63271
O_ O_ 0.12265 0.90343 0.567658 -0.57982
O_ O_ 0.254629 0.599066 0.910557 -0.63271
O_ O_ 0.291535 0.658414 0.962054 -0.57982
O_ O_ 0.148733 0.651515 0.905874 -0.63271
O_ O_ 0.121699 0.57353 0.911739 -0.57982
F_ F_ 0.43984 0.830782 0.938824 -0.20885
F_ F_ 0.432628 0.815354 0.854858 -0.20885
F_ F_ 0.374063 0.797632 0.89417 -0.20885
F_ F_ 0.323652 0.933417 0.825251 -0.20885
F_ F_ 0.333548 0.847136 0.808765 -0.20885
F_ F_ 0.393938 0.890608 0.799162 -0.20885
F_ F_ 0.0654902 0.677443 0.565099 -0.20885
F_ F_ 0.0700186 0.687545 0.650061 -0.20885
F_ F_ 0.132278 0.701063 0.61262 -0.20885
F_ F_ 0.173768 0.563651 0.679626 -0.20885
F_ F_ 0.171788 0.648217 0.691884 -0.20885
F_ F_ 0.102113 0.610321 0.701196 -0.20885
Zn Zn 0.589619 0.0847858 0.34589 0.83971
Zn Zn 0.661131 0.346089 0.0882896 0.83971
Zn Zn 0.913154 0.416022 0.16028 0.83971
Zn Zn 0.842595 0.151336 0.411786 0.83971
H_ H_ 0.669372 0.132971 0.299211 0.10394
H_ H_ 0.741223 0.0990957 0.25595 0.10394
H_ H_ 0.691406 0.446511 0.261916 0.10394
H_ H_ 0.63838 0.988888 0.334184 0.10394
H_ H_ 0.0220933 0.0916682 0.251743 0.10394
H_ H_ 0.992454 0.168253 0.206503 0.10394
H_ H_ 0.537473 0.272614 0.343669 0.10394
H_ H_ 0.585497 0.193835 0.382612 0.10394
H_ H_ 0.532304 0.450742 0.385842 0.10394
H_ H_ 0.977684 0.377669 0.370031 0.10394
H_ H_ 0.852621 0.489791 0.404631 0.10394
H_ H_ 0.580846 0.300038 0.138231 0.10394
H_ H_ 1.0142384 0.254829 0.10173 0.10394
H_ H_ 0.530863 0.289489 0.44552 0.10394
H_ H_ 0.623436 0.314529 0.985985 0.10394
H_ H_ 0.742593 0.268659 0.0873586 0.10394
H_ H_ 0.771227 0.205443 0.156289 0.10394
H_ H_ 0.703963 0.315645 0.268695 0.10394
H_ H_ 0.671833 0.367517 0.196775 0.10394
H_ H_ 0.714526 0.361433 0.440417 0.10394
H_ H_ 0.761778 0.386563 0.374629 0.10394
H_ H_ 0.892896 0.40069 0.487369 0.10394
H_ H_ 0.810658 0.387887 0.174627 0.10394
H_ H_ 0.735243 0.43858 0.195682 0.10394
H_ H_ 0.834785 0.041068 0.279626 0.10394
H_ H_ 0.898584 0.507696 0.241789 0.10394
H_ H_ 0.503897 0.402652 0.223095 0.10394
H_ H_ 0.550285 0.327015 0.264913 0.10394
H_ H_ 0.92167 0.240358 0.2212 0.10394
H_ H_ 0.882742 0.319528 0.181324 0.10394
H_ H_ 0.962032 0.048804 0.11034 0.10394
H_ H_ 0.515924 0.108214 0.0679752 0.10394
H_ H_ 0.647755 -0.0007359999999999589 0.0848614 0.10394
H_ H_ 0.950031 0.15718 0.390642 0.10394
H_ H_ 0.517737 0.190831 0.466763 0.10394
H_ H_ 0.916542 0.2779 0.0474311 0.10394
H_ H_ 0.846708 0.228596 0.491016 0.10394
H_ H_ 0.739219 0.190848 0.377954 0.10394
H_ H_ 0.693104 0.226951 0.299981 0.10394
H_ H_ 0.83979 0.21136 0.235767 0.10394
H_ H_ 0.876856 0.183268 0.31885 0.10394
H_ H_ 0.781041 0.132417 0.0432276 0.10394
H_ H_ 0.72573 0.120278 0.111378 0.10394
H_ H_ 0.607765 0.089177 -0.005237000000000047 0.10394
C_ C_ 0.67565 0.0920189 0.292507 0.18167
C_ C_ 0.716834 0.0723218 0.265814 -0.15533
C_ C_ 0.733225 0.0208456 0.268642 0.02923
C_ C_ 0.688331 0.487419 0.275024 -0.15533
C_ C_ 0.660901 0.00973488 0.311968 0.18167
C_ C_ 0.53798 0.142511 0.268723 0.18167
C_ C_ 0.0116828 0.175056 0.24087 -0.15533
C_ C_ 0.517992 0.234713 0.269985 0.02923
C_ C_ 0.542705 0.237174 0.320401 -0.15533
C_ C_ 0.562993 0.192037 0.344642 0.18167
C_ C_ 0.5102 0.0434453 0.364807 0.69207
C_ C_ 0.969326 0.505346 0.368612 0.02923
C_ C_ 0.99064 0.455209 0.370126 -0.15533
C_ C_ 0.961435 0.415998 0.375638 -0.15533
C_ C_ 0.910822 0.428353 0.387925 0.02923
C_ C_ 0.887201 0.47957 0.38517 -0.15533
C_ C_ 0.916512 0.519705 0.377401 0.02923
C_ C_ 0.90052 0.0622429 0.380437 0.69207
C_ C_ 0.901033 0.332193 0.397613 0.69661
C_ C_ 0.575528 0.29352 0.0959259 0.18167
C_ C_ 0.53037 0.273769 0.0763573 -0.15533
C_ C_ 0.518192 0.266228 0.0219647 0.02923
C_ C_ 0.539399 0.296095 0.485635 -0.15533
C_ C_ 0.595893 0.303505 0.0121721 0.18167
C_ C_ 0.730804 0.274574 0.127479 0.18167
C_ C_ 0.745531 0.239214 0.166446 -0.15533
C_ C_ 0.737016 0.254171 0.218713 0.02923
C_ C_ 0.709736 0.300849 0.229977 -0.15533
C_ C_ 0.697375 0.334042 0.190393 0.18167
C_ C_ 0.746695 0.367274 0.0504948 0.69207
C_ C_ 0.770126 0.382531 0.505007 0.02923
C_ C_ 0.751664 0.37425 0.452115 -0.15533
C_ C_ 0.779664 0.387624 0.412667 -0.15533
C_ C_ 0.832611 0.397296 0.427364 0.02923
C_ C_ 0.850869 0.403333 0.478366 -0.15533
C_ C_ 0.820895 0.392437 0.51698 0.02923
C_ C_ 0.857955 0.383493 0.0715986 0.69207
C_ C_ 0.849477 0.380135 0.328197 0.69661
C_ C_ 0.814146 0.424239 0.193281 0.18167
C_ C_ 0.76969 0.451747 0.206647 -0.15533
C_ C_ 0.772768 0.494132 0.241494 0.02923
C_ C_ 0.824515 0.0150341 0.250258 -0.15533
C_ C_ 0.863436 0.49077 0.231889 0.18167
C_ C_ 0.998018 0.356688 0.215121 0.18167
C_ C_ 0.511309 0.325081 0.246535 -0.15533
C_ C_ 0.993939 0.271615 0.240043 0.02923
C_ C_ 0.9438 0.272673 0.217336 -0.15533
C_ C_ 0.922202 0.317528 0.19354 0.18167
C_ C_ 0.982709 0.457375 0.128171 0.69207
C_ C_ 0.520408 0.986296 0.100979 0.02923
C_ C_ 0.500538 0.037665 0.0887821 -0.15533
C_ C_ 0.533971 0.0732232 0.079827 -0.15533
C_ C_ 0.587507 0.0605124 0.0905139 0.02923
C_ C_ 0.605775 0.00907176 0.0902375 -0.15533
C_ C_ 0.573963 0.972561 0.0995343 0.02923
C_ C_ 0.5924 0.423719 0.108784 0.69207
C_ C_ 0.597458 0.157809 0.0931878 0.69661
C_ C_ 0.944877 0.177875 0.42712 0.18167
C_ C_ 0.983321 0.206919 0.450925 -0.15533
C_ C_ 0.974939 0.244721 0.488734 0.02923
C_ C_ 0.924687 0.256344 0.0101229 -0.15533
C_ C_ 0.887006 0.221787 0.482357 0.18167
C_ C_ 0.758215 0.188575 0.344123 0.18167
C_ C_ 0.733805 0.210148 0.299595 -0.15533
C_ C_ 0.7625 0.224579 0.261195 0.02923
C_ C_ 0.815468 0.203416 0.263893 -0.15533
C_ C_ 0.83787 0.187413 0.311706 0.18167
C_ C_ 0.770463 0.113249 0.454794 0.69207
C_ C_ 0.726239 0.111534 0.9806 0.02923
C_ C_ 0.744663 0.116561 0.0315891 -0.15533
C_ C_ 0.713957 0.107805 0.0711279 -0.15533
C_ C_ 0.664207 0.0965552 0.0586465 0.02923
C_ C_ 0.646263 0.0926576 0.00547463 -0.15533
C_ C_ 0.67555 0.102474 0.966424 0.02923
C_ C_ 0.658265 0.106328 0.424447 0.69207
C_ C_ 0.642711 0.0980689 0.156105 0.69661
C_ C_ 0.873227 0.385738 0.386508 -0.30787
C_ C_ 0.623285 0.10249 0.0984932 -0.30787
N_ N_ 0.644504 0.0604288 0.308112 -0.32189
N_ N_ 0.561874 0.147101 0.316892 -0.32189
N_ N_ 0.609406 0.305462 0.0636849 -0.32189
N_ N_ 0.702041 0.317643 0.141483 -0.32189
N_ N_ 0.860934 0.445277 0.203897 -0.32189
N_ N_ 0.948883 0.356385 0.192271 -0.32189
N_ N_ 0.896666 0.188826 0.4414 -0.32189
N_ N_ 0.809357 0.175331 0.348182 -0.32189
O_ O_ 0.0128347 0.0813564 0.385748 -0.63271
O_ O_ 0.54662 0.0343643 0.333802 -0.57982
O_ O_ 0.906935 0.0879743 0.342265 -0.63271
O_ O_ 0.870264 0.0850154 0.41508 -0.57982
O_ O_ 0.754695 0.390961 0.0954451 -0.63271
O_ O_ 0.705925 0.342623 0.0388476 -0.57982
O_ O_ 0.857303 0.340082 0.0933002 -0.63271
O_ O_ 0.879661 0.422596 0.095285 -0.57982
O_ O_ 0.487065 0.408887 0.107818 -0.63271
O_ O_ 0.952945 0.468445 0.164007 -0.57982
O_ O_ 0.592194 0.398572 0.150596 -0.63271
O_ O_ 0.627465 0.408139 0.0777533 -0.57982
O_ O_ 0.771137 0.0832525 0.414134 -0.63271
O_ O_ 0.801581 0.149707 0.460126 -0.57982
O_ O_ 0.663847 0.144131 0.395599 -0.63271
O_ O_ 0.620024 0.0801099 0.411968 -0.57982
F_ F_ 0.936797 0.336875 0.438154 -0.20885
F_ F_ 0.930268 0.307107 0.362234 -0.20885
F_ F_ 0.869882 0.29924 0.413395 -0.20885
F_ F_ 0.817506 0.420373 0.311193 -0.20885
F_ F_ 0.822394 0.339253 0.31909 -0.20885
F_ F_ 0.889468 0.375855 0.297511 -0.20885
F_ F_ 0.569749 0.167099 0.0471611 -0.20885
F_ F_ 0.565082 0.168816 0.129044 -0.20885
F_ F_ 0.634207 0.192337 0.0983744 -0.20885
F_ F_ 0.67728 0.0548467 0.159341 -0.20885
F_ F_ 0.669852 0.136919 0.172638 -0.20885
F_ F_ 0.606297 0.0931597 0.189097 -0.20885
Zn Zn 0.586214 0.0812834 0.83537 0.83971
Zn Zn 0.652971 0.356216 0.587885 0.83971
Zn Zn 0.900677 0.41624 0.656492 0.83971
Zn Zn 0.84277 0.156497 0.911008 0.83971
H_ H_ 0.663342 0.126574 0.790468 0.10394
H_ H_ 0.741693 0.0902062 0.751923 0.10394
H_ H_ 0.708735 0.449829 0.789246 0.10394
H_ H_ 0.646662 0.981381 0.840607 0.10394
H_ H_ 0.0295433 0.100064 0.743966 0.10394
H_ H_ 0.990174 0.173616 0.698958 0.10394
H_ H_ 0.511159 0.267943 0.841842 0.10394
H_ H_ 0.565449 0.191403 0.878113 0.10394
H_ H_ 0.525934 0.442241 0.854679 0.10394
H_ H_ 0.976499 0.373688 0.872965 0.10394
H_ H_ 0.851326 0.482878 0.893428 0.10394
H_ H_ 0.572889 0.323859 0.627922 0.10394
H_ H_ 0.00139068 0.264809 0.588302 0.10394
H_ H_ 0.540814 0.285204 0.951483 0.10394
H_ H_ 0.609844 0.335683 0.4813 0.10394
H_ H_ 0.708797 0.258561 0.600489 0.10394
H_ H_ 0.753966 0.21716 0.666277 0.10394
H_ H_ 0.727208 0.350028 0.772792 0.10394
H_ H_ 0.675049 0.390258 0.698104 0.10394
H_ H_ 0.71054 0.386072 0.950177 0.10394
H_ H_ 0.763821 0.380345 0.882687 0.10394
H_ H_ 0.894759 0.409544 0.990342 0.10394
H_ H_ 0.796989 0.410488 0.654227 0.10394
H_ H_ 0.724849 0.459073 0.695545 0.10394
H_ H_ 0.832975 0.0385053 0.774958 0.10394
H_ H_ 0.900687 0.501503 0.741256 0.10394
H_ H_ 0.512991 0.380861 0.684987 0.10394
H_ H_ 0.552174 0.302577 0.719365 0.10394
H_ H_ 0.914177 0.265611 0.760202 0.10394
H_ H_ 0.865661 0.335034 0.713449 0.10394
H_ H_ 0.961188 0.0528397 0.603576 0.10394
H_ H_ 0.524229 0.119972 0.622089 0.10394
H_ H_ 0.650508 0.00533287 0.601762 0.10394
H_ H_ 0.945951 0.173984 0.888223 0.10394
H_ H_ 0.513337 0.190608 0.939863 0.10394
H_ H_ 0.912694 0.288025 0.521778 0.10394
H_ H_ 0.849977 0.226446 0.005619999999999958 0.10394
H_ H_ 0.73792 0.208896 0.882103 0.10394
H_ H_ 0.69703 0.244255 0.8043 0.10394
H_ H_ 0.839947 0.226983 0.737519 0.10394
H_ H_ 0.879636 0.183772 0.814743 0.10394
H_ H_ 0.793786 0.10658 0.551873 0.10394
H_ H_ 0.740733 0.0834361 0.617862 0.10394
H_ H_ 0.611192 0.0997003 0.507354 0.10394
C_ C_ 0.676651 0.0847289 0.790461 0.18167
C_ C_ 0.719336 0.0656051 0.768587 -0.15533
C_ C_ 0.734783 0.0130514 0.769505 0.02923
C_ C_ 0.700139 0.488301 0.800937 -0.15533
C_ C_ 0.658184 0.00345491 0.809197 0.18167
C_ C_ 0.542545 0.143394 0.759639 0.18167
C_ C_ 0.0101009 0.181449 0.736964 -0.15533
C_ C_ 0.503816 0.232952 0.765804 0.02923
C_ C_ 0.525771 0.236263 0.81675 -0.15533
C_ C_ 0.55384 0.191518 0.838034 0.18167
C_ C_ 0.501778 0.0491049 0.856627 0.69207
C_ C_ 0.974261 0.499682 0.874567 0.02923
C_ C_ 0.994501 0.447848 0.877164 -0.15533
C_ C_ 0.962558 0.411748 0.879913 -0.15533
C_ C_ 0.909813 0.422024 0.885085 0.02923
C_ C_ 0.892018 0.473696 0.892056 -0.15533
C_ C_ 0.923494 0.51178 0.885599 0.02923
C_ C_ 0.899395 0.0736005 0.880507 0.69207
C_ C_ 0.894373 0.328461 0.8927 0.69661
C_ C_ 0.564909 0.3111 0.589507 0.18167
C_ C_ 0.518445 0.289988 0.572591 -0.15533
C_ C_ 0.507884 0.278284 0.520907 0.02923
C_ C_ 0.550773 0.286755 0.991731 -0.15533
C_ C_ 0.58521 0.31773 0.505171 0.18167
C_ C_ 0.710752 0.280387 0.637243 0.18167
C_ C_ 0.737996 0.254759 0.677306 -0.15533
C_ C_ 0.743771 0.278215 0.727355 0.02923
C_ C_ 0.716975 0.326601 0.736085 -0.15533
C_ C_ 0.692461 0.351423 0.694184 0.18167
C_ C_ 0.73251 0.382093 0.543981 0.69207
C_ C_ 0.776192 0.381081 1.00910747 0.02923
C_ C_ 0.752806 0.383659 0.960342 -0.15533
C_ C_ 0.782954 0.389121 0.919221 -0.15533
C_ C_ 0.835964 0.392405 0.927948 0.02923
C_ C_ 0.856759 0.400029 0.980052 -0.15533
C_ C_ 0.828758 0.391636 0.0209501 0.02923
C_ C_ 0.847014 0.388044 0.569803 0.69207
C_ C_ 0.844494 0.38333 0.830666 0.69661
C_ C_ 0.801663 0.441691 0.683418 0.18167
C_ C_ 0.762013 0.469895 0.706974 -0.15533
C_ C_ 0.772739 0.502353 0.748108 0.02923
C_ C_ 0.823598 0.0161953 0.74141 -0.15533
C_ C_ 0.861609 0.491961 0.733083 0.18167
C_ C_ 0.987287 0.356278 0.696036 0.18167
C_ C_ 0.510966 0.30835 0.715097 -0.15533
C_ C_ 0.984035 0.27567 0.736469 0.02923
C_ C_ 0.932255 0.285391 0.735834 -0.15533
C_ C_ 0.906345 0.328967 0.712928 0.18167
C_ C_ 0.97699 0.455523 0.619034 0.69207
C_ C_ 0.523058 0.99375 0.609088 0.02923
C_ C_ 0.50645 0.0470629 0.616538 -0.15533
C_ C_ 0.540838 0.0821361 0.615269 -0.15533
C_ C_ 0.591826 0.06862 0.607322 0.02923
C_ C_ 0.610574 0.0168732 0.606748 -0.15533
C_ C_ 0.57614 0.979589 0.611824 0.02923
C_ C_ 0.593588 0.430584 0.602578 0.69207
C_ C_ 0.607259 0.163894 0.60171 0.69661
C_ C_ 0.942409 0.193961 0.925044 0.18167
C_ C_ 0.983956 0.209129 0.956815 -0.15533
C_ C_ 0.973727 0.24398 -0.00170318 0.02923
C_ C_ 0.925522 0.251804 0.50235 -0.15533
C_ C_ 0.88597 0.226926 0.987359 0.18167
C_ C_ 0.76067 0.209138 0.848554 0.18167
C_ C_ 0.736621 0.230668 0.804895 -0.15533
C_ C_ 0.766504 0.246511 0.769736 0.02923
C_ C_ 0.817394 0.224018 0.769738 -0.15533
C_ C_ 0.840435 0.198243 0.814134 0.18167
C_ C_ 0.76286 0.120546 0.94434 0.69207
C_ C_ 0.733275 0.112544 0.491909 0.02923
C_ C_ 0.751549 0.109286 0.543222 -0.15533
C_ C_ 0.722351 0.0931856 0.579718 -0.15533
C_ C_ 0.669146 0.0971966 0.566576 0.02923
C_ C_ 0.652231 0.0980029 0.515409 -0.15533
C_ C_ 0.680657 0.107775 0.477443 0.02923
C_ C_ 0.653227 0.106863 0.911569 0.69207
C_ C_ 0.657805 0.108729 0.661632 0.69661
C_ C_ 0.870843 0.383 0.885354 -0.30787
C_ C_ 0.629933 0.106772 0.606333 -0.30787
N_ N_ 0.644772 0.0537844 0.806732 -0.32189
N_ N_ 0.564738 0.147448 0.80817 -0.32189
N_ N_ 0.599618 0.31813 0.556085 -0.32189
N_ N_ 0.686363 0.327596 0.646959 -0.32189
N_ N_ 0.850487 0.451927 0.698509 -0.32189
N_ N_ 0.934697 0.36185 0.691805 -0.32189
N_ N_ 0.894084 0.19851 0.941582 -0.32189
N_ N_ 0.811972 0.192114 0.853673 -0.32189
O_ O_ 0.00755862 0.0918647 0.886768 -0.63271
O_ O_ 0.539795 0.0366725 0.826962 -0.57982
O_ O_ 0.885705 0.0949636 0.837688 -0.63271
O_ O_ 0.887352 0.100889 0.921024 -0.57982
O_ O_ 0.735874 0.409252 0.585573 -0.63271
O_ O_ 0.702148 0.345824 0.542023 -0.57982
O_ O_ 0.842934 0.348581 0.596583 -0.63271
O_ O_ 0.871585 0.425226 0.592033 -0.57982
O_ O_ 0.481341 0.419422 0.594604 -0.63271
O_ O_ 0.947589 0.460498 0.655871 -0.57982
O_ O_ 0.598834 0.407628 0.646359 -0.63271
O_ O_ 0.626253 0.41397 0.569813 -0.57982
O_ O_ 0.764873 0.0957671 0.900453 -0.63271
O_ O_ 0.797527 0.152901 0.958985 -0.57982
O_ O_ 0.652696 0.149437 0.888919 -0.63271
O_ O_ 0.614172 0.081009 0.897801 -0.57982
F_ F_ 0.93143 0.324165 0.933968 -0.20885
F_ F_ 0.917993 0.311407 0.849384 -0.20885
F_ F_ 0.858694 0.294187 0.897907 -0.20885
F_ F_ 0.810008 0.425761 0.828617 -0.20885
F_ F_ 0.823098 0.338684 0.818561 -0.20885
F_ F_ 0.872474 0.391539 0.791129 -0.20885
F_ F_ 0.574663 0.169703 0.557622 -0.20885
F_ F_ 0.580578 0.185948 0.64113 -0.20885
F_ F_ 0.648327 0.19099 0.594932 -0.20885
F_ F_ 0.685299 0.061676 0.667374 -0.20885
F_ F_ 0.693401 0.144497 0.673387 -0.20885
F_ F_ 0.619978 0.117073 0.693971 -0.20885
Zn Zn 0.585182 0.585404 0.353824 0.83971
Zn Zn 0.657826 0.836593 0.0795292 0.83971
Zn Zn 0.907752 0.91357 0.152906 0.83971
Zn Zn 0.841101 0.657889 0.414576 0.83971
H_ H_ 0.673443 0.6275 0.323188 0.10394
H_ H_ 0.753984 0.589262 0.28953 0.10394
H_ H_ 0.724248 0.950359 0.300734 0.10394
H_ H_ 0.615454 0.482549 0.304072 0.10394
H_ H_ 0.0223195 0.589938 0.255419 0.10394
H_ H_ 0.997426 0.659671 0.198448 0.10394
H_ H_ 0.532138 0.772395 0.327743 0.10394
H_ H_ 0.568687 0.694749 0.381411 0.10394
H_ H_ 0.525719 0.941057 0.348668 0.10394
H_ H_ 0.982317 0.86915 0.369528 0.10394
H_ H_ 0.867409 0.978074 0.419018 0.10394
H_ H_ 0.576368 0.799799 0.126469 0.10394
H_ H_ 0.999321 0.764332 0.0930186 0.10394
H_ H_ 0.538416 0.777307 0.44967 0.10394
H_ H_ 0.620777 0.797819 0.974306 0.10394
H_ H_ 0.713485 0.747953 0.105646 0.10394
H_ H_ 0.770791 0.718647 0.175199 0.10394
H_ H_ 0.720687 0.845065 0.268546 0.10394
H_ H_ 0.676696 0.885272 0.187418 0.10394
H_ H_ 0.715858 0.871253 0.443713 0.10394
H_ H_ 0.766569 0.880022 0.380104 0.10394
H_ H_ 0.900076 0.883235 0.483993 0.10394
H_ H_ 0.802101 0.896677 0.159409 0.10394
H_ H_ 0.730598 0.952917 0.188294 0.10394
H_ H_ 0.825858 0.546784 0.274764 0.10394
H_ H_ 0.902787 0.999191 0.241314 0.10394
H_ H_ 0.517108 0.883467 0.199178 0.10394
H_ H_ 0.558617 0.802761 0.238937 0.10394
H_ H_ 0.912178 0.733775 0.199963 0.10394
H_ H_ 0.868494 0.820344 0.175434 0.10394
H_ H_ 0.964749 0.560542 0.128643 0.10394
H_ H_ 0.513594 0.620488 0.10485 0.10394
H_ H_ 0.637811 0.503245 0.0841112 0.10394
H_ H_ 0.942051 0.654301 0.402367 0.10394
H_ H_ 0.516752 0.687504 0.456208 0.10394
H_ H_ 0.904131 0.798293 0.0144252 0.10394
H_ H_ 0.842631 0.746143 0.49152 0.10394
H_ H_ 0.736553 0.703867 0.381403 0.10394
H_ H_ 0.69662 0.74399 0.30562 0.10394
H_ H_ 0.843428 0.740321 0.251343 0.10394
H_ H_ 0.881526 0.697032 0.324167 0.10394
H_ H_ 0.789003 0.600208 0.0574416 0.10394
H_ H_ 0.728529 0.604625 0.120598 0.10394
H_ H_ 0.60104 0.599232 0.00734754 0.10394
C_ C_ 0.676718 0.588726 0.310547 0.18167
C_ C_ 0.721931 0.569048 0.285323 -0.15533
C_ C_ 0.727818 0.517566 0.267172 0.02923
C_ C_ 0.707366 0.989173 0.295578 -0.15533
C_ C_ 0.644288 0.508211 0.298469 0.18167
C_ C_ 0.53283 0.634511 0.270055 0.18167
C_ C_ 0.00795279 0.667717 0.239202 -0.15533
C_ C_ 0.51015 0.723732 0.262766 0.02923
C_ C_ 0.530013 0.732721 0.314096 -0.15533
C_ C_ 0.556425 0.690986 0.34274 0.18167
C_ C_ 0.503869 0.550502 0.379698 0.69207
C_ C_ 0.980637 -0.00418099999999999 0.374144 0.02923
C_ C_ -0.002578999999999998 0.943583 0.365934 -0.15533
C_ C_ 0.966093 0.908636 0.375148 -0.15533
C_ C_ 0.917843 0.920033 0.389936 0.02923
C_ C_ 0.902307 0.970363 0.402165 -0.15533
C_ C_ 0.930816 0.0099286 0.390281 0.02923
C_ C_ 0.889559 0.572928 0.376109 0.69207
C_ C_ 0.896766 0.826031 0.374572 0.69661
C_ C_ 0.566822 0.797296 0.0849857 0.18167
C_ C_ 0.520427 0.778903 0.0667913 -0.15533
C_ C_ 0.513923 0.760329 0.0149513 0.02923
C_ C_ 0.547848 0.784691 0.491638 -0.15533
C_ C_ 0.591592 0.792314 0.00151191 0.18167
C_ C_ 0.716915 0.772774 0.139991 0.18167
C_ C_ 0.745207 0.752108 0.1813 -0.15533
C_ C_ 0.747234 0.77747 0.229823 0.02923
C_ C_ 0.718251 0.825204 0.231928 -0.15533
C_ C_ 0.691249 0.846881 0.186694 0.18167
C_ C_ 0.739739 0.874567 0.0445886 0.69207
C_ C_ 0.778634 0.867255 0.504794 0.02923
C_ C_ 0.758197 0.866891 0.454502 -0.15533
C_ C_ 0.786968 0.879174 0.415761 -0.15533
C_ C_ 0.83998 0.882483 0.424021 0.02923
C_ C_ 0.860937 0.882929 0.474228 -0.15533
C_ C_ 0.831637 0.877062 0.514613 0.02923
C_ C_ 0.851129 0.894902 0.068671 0.69207
C_ C_ 0.846782 0.89383 0.330271 0.69661
C_ C_ 0.809785 0.931581 0.185219 0.18167
C_ C_ 0.768549 0.95723 0.20609 -0.15533
C_ C_ 0.77769 0.996242 0.243949 0.02923
C_ C_ 0.819341 0.513771 0.251772 -0.15533
C_ C_ 0.865229 0.98756 0.228543 0.18167
C_ C_ 0.987571 0.850519 0.206988 0.18167
C_ C_ 0.519413 0.806975 0.227778 -0.15533
C_ C_ 0.984453 0.762712 0.227229 0.02923
C_ C_ 0.933577 0.768006 0.203467 -0.15533
C_ C_ 0.910475 0.815291 0.183816 0.18167
C_ C_ 0.989775 0.946549 0.121447 0.69207
C_ C_ 0.519546 0.494525 0.119647 0.02923
C_ C_ 0.496248 0.544656 0.111393 -0.15533
C_ C_ 0.530155 0.581959 0.10727 -0.15533
C_ C_ 0.58227 0.567734 0.096267 0.02923
C_ C_ 0.599109 0.514587 0.0927698 -0.15533
C_ C_ 0.569267 0.47742 0.106258 0.02923
C_ C_ 0.599671 0.919644 0.105227 0.69207
C_ C_ 0.601153 0.661879 0.111387 0.69661
C_ C_ 0.937441 0.679098 0.435523 0.18167
C_ C_ 0.979302 0.70059 0.45916 -0.15533
C_ C_ 0.972155 0.743073 0.494299 0.02923
C_ C_ 0.914608 0.762828 0.99831095 -0.15533
C_ C_ 0.8818 0.732539 0.483101 0.18167
C_ C_ 0.760544 0.709364 0.350448 0.18167
C_ C_ 0.73707 0.737049 0.310712 -0.15533
C_ C_ 0.768548 0.749019 0.274222 0.02923
C_ C_ 0.820198 0.729035 0.278016 -0.15533
C_ C_ 0.841868 0.706004 0.321436 0.18167
C_ C_ 0.762497 0.629978 0.456387 0.69207
C_ C_ 0.728053 0.602739 0.991995 0.02923
C_ C_ 0.747697 0.596584 0.0436523 -0.15533
C_ C_ 0.714831 0.598202 0.081047 -0.15533
C_ C_ 0.66126 0.602069 0.0666539 0.02923
C_ C_ 0.643228 0.596433 0.0166218 -0.15533
C_ C_ 0.675067 0.603105 0.977397 0.02923
C_ C_ 0.651965 0.609768 0.431309 0.69207
C_ C_ 0.649074 0.59827 0.164113 0.69661
C_ C_ 0.87637 0.882981 0.380919 -0.30787
C_ C_ 0.62376 0.605019 0.107717 -0.30787
N_ N_ 0.637417 0.559317 0.311902 -0.32189
N_ N_ 0.552669 0.644242 0.319429 -0.32189
N_ N_ 0.602929 0.800658 0.0520876 -0.32189
N_ N_ 0.686883 0.817486 0.144577 -0.32189
N_ N_ 0.856975 0.949169 0.191938 -0.32189
N_ N_ 0.939752 0.852947 0.18171 -0.32189
N_ N_ 0.890235 0.698534 0.442554 -0.32189
N_ N_ 0.811293 0.69309 0.355647 -0.32189
O_ O_ 0.00336579 0.582352 0.399404 -0.63271
O_ O_ 0.537464 0.54348 0.347405 -0.57982
O_ O_ 0.892177 0.600151 0.338997 -0.63271
O_ O_ 0.862327 0.593175 0.415452 -0.57982
O_ O_ 0.737407 0.903563 0.0869038 -0.63271
O_ O_ 0.709879 0.83572 0.0377257 -0.57982
O_ O_ 0.850671 0.852264 0.0911501 -0.63271
O_ O_ 0.880793 0.928596 0.0905603 -0.57982
O_ O_ 0.493378 0.901693 0.0969857 -0.63271
O_ O_ 0.956299 0.954814 0.155339 -0.57982
O_ O_ 0.593733 0.892794 0.144884 -0.63271
O_ O_ 0.632773 0.900846 0.0728947 -0.57982
O_ O_ 0.761548 0.600274 0.414217 -0.63271
O_ O_ 0.792075 0.66819 0.461169 -0.57982
O_ O_ 0.649723 0.65286 0.407198 -0.63271
O_ O_ 0.623949 0.574588 0.414297 -0.57982
F_ F_ 0.93522 0.810743 0.409542 -0.20885
F_ F_ 0.91554 0.809134 0.329496 -0.20885
F_ F_ 0.863712 0.791622 0.382242 -0.20885
F_ F_ 0.821307 0.942414 0.337075 -0.20885
F_ F_ 0.81544 0.855821 0.310586 -0.20885
F_ F_ 0.877812 0.896417 0.290104 -0.20885
F_ F_ 0.563583 0.670882 0.0731093 -0.20885
F_ F_ 0.572637 0.676146 0.154002 -0.20885
F_ F_ 0.638754 0.696545 0.115174 -0.20885
F_ F_ 0.682026 0.552964 0.166472 -0.20885
F_ F_ 0.678821 0.636794 0.18181 -0.20885
F_ F_ 0.614452 0.596783 0.201168 -0.20885
Zn Zn 0.580228 0.584616 0.848834 0.83971
Zn Zn 0.663004 0.844568 0.586321 0.83971
Zn Zn 0.910635 0.913964 0.64974 0.83971
Zn Zn 0.84083 0.646952 0.918922 0.83971
H_ H_ 0.659252 0.632468 0.813086 0.10394
H_ H_ 0.740536 0.602053 0.776623 0.10394
H_ H_ 0.717938 0.940417 0.788277 0.10394
H_ H_ 0.625751 0.474601 0.823136 0.10394
H_ H_ 0.0294659 0.597029 0.758443 0.10394
H_ H_ 0.988814 0.676082 0.707704 0.10394
H_ H_ 0.530911 0.770851 0.825086 0.10394
H_ H_ 0.562527 0.694003 0.877872 0.10394
H_ H_ 0.531639 0.94734 0.860937 0.10394
H_ H_ 0.988669 0.882943 0.906855 0.10394
H_ H_ 0.850611 0.991515 0.891923 0.10394
H_ H_ 0.585397 0.796457 0.635359 0.10394
H_ H_ 0.008329999999999949 0.76257 0.59764 0.10394
H_ H_ 0.538405 0.770783 0.939707 0.10394
H_ H_ 0.619765 0.821583 0.485572 0.10394
H_ H_ 0.722571 0.740307 0.599897 0.10394
H_ H_ 0.768133 0.705511 0.669471 0.10394
H_ H_ 0.713417 0.837626 0.765507 0.10394
H_ H_ 0.681988 0.875499 0.68715 0.10394
H_ H_ 0.721964 0.852005 0.940935 0.10394
H_ H_ 0.77767 0.857766 0.875824 0.10394
H_ H_ 0.88599 0.922579 0.986016 0.10394
H_ H_ 0.814787 0.885553 0.662538 0.10394
H_ H_ 0.739577 0.932818 0.699404 0.10394
H_ H_ 0.828976 0.54725 0.78708 0.10394
H_ H_ 0.90419 1.00114528 0.727132 0.10394
H_ H_ 0.513475 0.881041 0.697642 0.10394
H_ H_ 0.550511 0.811446 0.746774 0.10394
H_ H_ 0.913291 0.755166 0.734178 0.10394
H_ H_ 0.876162 0.824809 0.683874 0.10394
H_ H_ 0.957684 0.554595 0.62875 0.10394
H_ H_ 0.521821 0.62546 0.619296 0.10394
H_ H_ 0.643078 0.512171 0.585626 0.10394
H_ H_ 0.945907 0.620432 0.957104 0.10394
H_ H_ 0.51263 0.682493 0.943881 0.10394
H_ H_ 0.91457 0.785358 0.538103 0.10394
H_ H_ 0.83786 0.75184 0.964695 0.10394
H_ H_ 0.736765 0.67631 0.872374 0.10394
H_ H_ 0.695011 0.723781 0.799353 0.10394
H_ H_ 0.843666 0.715969 0.747491 0.10394
H_ H_ 0.885791 0.690178 0.833808 0.10394
H_ H_ 0.781018 0.643677 0.558286 0.10394
H_ H_ 0.735266 0.619717 0.624715 0.10394
H_ H_ 0.609199 0.591007 0.511356 0.10394
C_ C_ 0.664409 0.590883 0.80066 0.18167
C_ C_ 0.713887 0.574629 0.786268 -0.15533
C_ C_ 0.730347 0.522513 0.781697 0.02923
C_ C_ 0.705935 0.982672 0.790957 -0.15533
C_ C_ 0.649325 0.504913 0.811997 0.18167
C_ C_ 0.534443 0.633646 0.763296 0.18167
C_ C_ 0.00700371 0.680115 0.747204 -0.15533
C_ C_ 0.512715 0.724914 0.757826 0.02923
C_ C_ 0.536345 0.732421 0.807216 -0.15533
C_ C_ 0.551639 0.688963 0.836549 0.18167
C_ C_ 0.500786 0.547624 0.867676 0.69207
C_ C_ 0.97422 0.00665688 0.875721 0.02923
C_ C_ -0.005978999999999957 0.955627 0.880524 -0.15533
C_ C_ 0.967589 0.920553 0.896175 -0.15533
C_ C_ 0.911633 0.931615 0.891331 0.02923
C_ C_ 0.891623 0.981491 0.887236 -0.15533
C_ C_ 0.922703 0.0199178 0.882466 0.02923
C_ C_ 0.898313 0.565465 0.88589 0.69207
C_ C_ 0.905086 0.835571 0.888145 0.69661
C_ C_ 0.572943 0.800831 0.595128 0.18167
C_ C_ 0.527522 0.780065 0.577176 -0.15533
C_ C_ 0.514707 0.772901 0.52548 0.02923
C_ C_ 0.544806 0.776807 0.980774 -0.15533
C_ C_ 0.594382 0.806995 0.510998 0.18167
C_ C_ 0.721105 0.760517 0.636388 0.18167
C_ C_ 0.742616 0.738094 0.678034 -0.15533
C_ C_ 0.743266 0.764284 0.727257 0.02923
C_ C_ 0.720455 0.814516 0.730192 -0.15533
C_ C_ 0.697795 0.836132 0.68564 0.18167
C_ C_ 0.742574 0.866286 0.54595 0.69207
C_ C_ 0.77262 0.887514 1.00394777 0.02923
C_ C_ 0.757037 0.871773 0.952036 -0.15533
C_ C_ 0.786336 0.879517 0.912142 -0.15533
C_ C_ 0.835918 0.894096 0.924629 0.02923
C_ C_ 0.852121 0.90711 0.977069 -0.15533
C_ C_ 0.822054 0.901257 0.0167055 0.02923
C_ C_ 0.857459 0.879296 0.568033 0.69207
C_ C_ 0.851437 0.888336 0.829616 0.69661
C_ C_ 0.816792 0.928069 0.68005 0.18167
C_ C_ 0.774251 0.952548 0.700025 -0.15533
C_ C_ 0.777501 -0.006761000000000017 0.736412 0.02923
C_ C_ 0.820889 0.519289 0.756074 -0.15533
C_ C_ 0.866595 0.990887 0.719129 0.18167
C_ C_ 0.993933 0.858073 0.696186 0.18167
C_ C_ 0.51472 0.809207 0.725876 -0.15533
C_ C_ 0.9901 0.775629 0.738692 0.02923
C_ C_ 0.938539 0.779527 0.7214 -0.15533
C_ C_ 0.916045 0.822783 0.694045 0.18167
C_ C_ 0.983254 0.953822 0.61201 0.69207
C_ C_ 0.522514 0.498401 0.619077 0.02923
C_ C_ 0.504615 0.551024 0.624597 -0.15533
C_ C_ 0.537046 0.588161 0.616378 -0.15533
C_ C_ 0.587878 0.575163 0.604583 0.02923
C_ C_ 0.604658 0.523067 0.592663 -0.15533
C_ C_ 0.571008 0.485436 0.601256 0.02923
C_ C_ 0.596878 0.925737 0.615033 0.69207
C_ C_ 0.604938 0.669632 0.615016 0.69661
C_ C_ 0.937979 0.662911 0.960281 0.18167
C_ C_ 0.977575 0.690985 0.977927 -0.15533
C_ C_ 0.96518 0.742655 0.996735 0.02923
C_ C_ 0.921076 0.758526 0.508141 -0.15533
C_ C_ 0.876862 0.734094 0.971512 0.18167
C_ C_ 0.761061 0.695085 0.852375 0.18167
C_ C_ 0.737961 0.723021 0.809638 -0.15533
C_ C_ 0.769115 0.73612 0.772967 0.02923
C_ C_ 0.821782 0.721963 0.78068 -0.15533
C_ C_ 0.843783 0.701114 0.826516 0.18167
C_ C_ 0.762098 0.611113 0.952748 0.69207
C_ C_ 0.726992 0.623421 0.496042 0.02923
C_ C_ 0.744541 0.630562 0.546281 -0.15533
C_ C_ 0.717138 0.618149 0.58509 -0.15533
C_ C_ 0.666624 0.607975 0.57267 0.02923
C_ C_ 0.648062 0.597892 0.521735 -0.15533
C_ C_ 0.676121 0.609519 0.483427 0.02923
C_ C_ 0.649467 0.60559 0.924703 0.69207
C_ C_ 0.652959 0.605808 0.670553 0.69661
C_ C_ 0.875066 0.889713 0.884655 -0.30787
C_ C_ 0.627643 0.613646 0.614608 -0.30787
N_ N_ 0.63512 0.555966 0.814794 -0.32189
N_ N_ 0.553428 0.641935 0.812785 -0.32189
N_ N_ 0.604775 0.812109 0.562035 -0.32189
N_ N_ 0.697413 0.808581 0.639501 -0.32189
N_ N_ 0.863548 0.946753 0.691696 -0.32189
N_ N_ 0.943968 0.859386 0.682999 -0.32189
N_ N_ 0.889941 0.686297 0.953184 -0.32189
N_ N_ 0.813043 0.683799 0.858947 -0.32189
O_ O_ 1.00584824 0.582542 0.901865 -0.63271
O_ O_ 0.535225 0.539579 0.834291 -0.57982
O_ O_ 0.901728 0.593977 0.848544 -0.63271
O_ O_ 0.870591 0.582934 0.921781 -0.57982
O_ O_ 0.75625 0.883367 0.593091 -0.63271
O_ O_ 0.703617 0.838132 0.539038 -0.57982
O_ O_ 0.864208 0.838542 0.593934 -0.63271
O_ O_ 0.876833 0.91879 0.587058 -0.57982
O_ O_ 0.487443 0.91389 0.590735 -0.63271
O_ O_ 0.953461 0.964451 0.647313 -0.57982
O_ O_ 0.589846 0.898439 0.652519 -0.63271
O_ O_ 0.635257 0.909757 0.58792 -0.57982
O_ O_ 0.755087 0.588328 0.906914 -0.63271
O_ O_ 0.793593 0.647767 0.96157 -0.57982
O_ O_ 0.643716 0.651344 0.904542 -0.63271
O_ O_ 0.615697 0.573605 0.909879 -0.57982
F_ F_ 0.935894 0.831462 0.937469 -0.20885
F_ F_ 0.937113 0.823933 0.851831 -0.20885
F_ F_ 0.872352 0.798788 0.883137 -0.20885
F_ F_ 0.820961 0.933472 0.821974 -0.20885
F_ F_ 0.827942 0.845075 0.808857 -0.20885
F_ F_ 0.890012 0.887084 0.797267 -0.20885
F_ F_ 0.569486 0.67317 0.573541 -0.20885
F_ F_ 0.586137 0.683537 0.658398 -0.20885
F_ F_ 0.642961 0.70219 0.613292 -0.20885
F_ F_ 0.683125 0.558767 0.674499 -0.20885
F_ F_ 0.684677 0.640315 0.686932 -0.20885
F_ F_ 0.617529 0.608267 0.703374 -0.20885
_cell_length_a 26.508
_cell_length_b 26.37200000322088
_cell_length_c 26.311999743092066
_cell_angle_alpha 93.74100058972084
_cell_angle_beta 96.04100104955006
_cell_angle_gamma 83.6869992558723
_symmetry_space_group_name_H-M         'P 1'
_symmetry_Int_Tables_number            1
loop_
_symmetry_equiv_pos_as_xyz
   'x, y, z'
                         
loop_
_atom_site_label
_atom_site_type_symbol
_atom_site_fract_x 
_atom_site_fract_y
_atom_site_fract_z
_atom_site_charge
Zn Zn 0.0909738 0.075626 0.342558 0.83971
Zn Zn 0.16079 0.349821 0.0910543 0.83971
Zn Zn 0.407232 0.422064 0.160017 0.83971
Zn Zn 0.345443 0.153183 0.418173 0.83971
H_ H_ 0.156319 0.126837 0.289975 0.10394
H_ H_ 0.233787 0.102951 0.252156 0.10394
H_ H_ 0.215274 0.448816 0.295353 0.10394
H_ H_ 0.148468 0.974629 0.334857 0.10394
H_ H_ 0.529273 0.102532 0.254607 0.10394
H_ H_ 0.488567 0.182162 0.210246 0.10394
H_ H_ 0.0516148 0.265128 0.333193 0.10394
H_ H_ 0.0843904 0.188423 0.375773 0.10394
H_ H_ 0.0325113 0.447988 0.367352 0.10394
H_ H_ 0.481551 0.388227 0.402221 0.10394
H_ H_ 0.346457 0.493924 0.396312 0.10394
H_ H_ 0.087302 0.299539 0.135536 0.10394
H_ H_ 0.505895 0.257877 0.101948 0.10394
H_ H_ 0.0422737 0.296592 0.445639 0.10394
H_ H_ 0.115216 0.33459 0.988652 0.10394
H_ H_ 0.217937 0.248833 0.1018 0.10394
H_ H_ 0.250728 0.202256 0.180362 0.10394
H_ H_ 0.235722 0.333877 0.27416 0.10394
H_ H_ 0.179376 0.377615 0.198279 0.10394
H_ H_ 0.212858 0.360482 0.455028 0.10394
H_ H_ 0.259682 0.390133 0.389674 0.10394
H_ H_ 0.385715 0.41295 0.496258 0.10394
H_ H_ 0.305332 0.40257 0.171494 0.10394
H_ H_ 0.232692 0.45371 0.202017 0.10394
H_ H_ 0.327152 0.0587431 0.267598 0.10394
H_ H_ 0.407803 0.502508 0.240551 0.10394
H_ H_ 0.0188138 0.391073 0.218241 0.10394
H_ H_ 0.0620999 0.31236 0.255206 0.10394
H_ H_ 0.419147 0.24371 0.224997 0.10394
H_ H_ 0.377422 0.325993 0.184019 0.10394
H_ H_ 0.46181 0.0430901 0.0771599 0.10394
H_ H_ 0.00692501 0.111047 0.0766665 0.10394
H_ H_ 0.144227 0.00523807 0.0881744 0.10394
H_ H_ 0.447705 0.14887 0.42352 0.10394
H_ H_ 0.0211809 0.196521 0.438968 0.10394
H_ H_ 0.427242 0.266714 0.0583001 0.10394
H_ H_ 0.337272 0.245848 0.497267 0.10394
H_ H_ 0.23915 0.179683 0.373518 0.10394
H_ H_ 0.200822 0.225021 0.301017 0.10394
H_ H_ 0.348551 0.244337 0.264634 0.10394
H_ H_ 0.385849 0.19163 0.331984 0.10394
H_ H_ 0.282723 0.119117 0.0588502 0.10394
H_ H_ 0.22381 0.117588 0.120749 0.10394
H_ H_ 0.104938 0.0921194 0.006469999999999976 0.10394
C_ C_ 0.171135 0.0856267 0.288162 0.18167
C_ C_ 0.216011 0.07239 0.268327 -0.15533
C_ C_ 0.235073 0.0181725 0.268644 0.02923
C_ C_ 0.203871 0.49183 0.297869 -0.15533
C_ C_ 0.165804 0.000596954 0.313789 0.18167
C_ C_ 0.033311 0.131412 0.2673 0.18167
C_ C_ 0.511667 0.185358 0.246819 -0.15533
C_ C_ 0.0159326 0.223335 0.264099 0.02923
C_ C_ 0.0451312 0.227748 0.314894 -0.15533
C_ C_ 0.0647081 0.182838 0.337515 0.18167
C_ C_ 0.0165367 0.0345902 0.366092 0.69207
C_ C_ 0.467932 0.512878 0.383279 0.02923
C_ C_ 0.490513 0.461767 0.385928 -0.15533
C_ C_ 0.462252 0.422373 0.39638 -0.15533
C_ C_ 0.407325 0.432519 0.397424 0.02923
C_ C_ 0.38708 0.48366 0.396823 -0.15533
C_ C_ 0.417439 0.524389 0.392793 0.02923
C_ C_ 0.399132 0.0722969 0.387691 0.69207
C_ C_ 0.395266 0.337246 0.392217 0.69661
C_ C_ 0.0774963 0.295447 0.0942467 0.18167
C_ C_ 0.034637 0.270551 0.0751304 -0.15533
C_ C_ 0.0179337 0.269005 0.0210351 0.02923
C_ C_ 0.0497727 0.294639 0.485374 -0.15533
C_ C_ 0.0901985 0.31807 0.0111293 0.18167
C_ C_ 0.22651 0.270395 0.138658 0.18167
C_ C_ 0.246731 0.243788 0.181 -0.15533
C_ C_ 0.251078 0.266229 0.229552 0.02923
C_ C_ 0.228065 0.315402 0.238085 -0.15533
C_ C_ 0.201419 0.342151 0.195381 0.18167
C_ C_ 0.244568 0.363267 0.0504802 0.69207
C_ C_ 0.271774 0.371685 0.515386 0.02923
C_ C_ 0.253476 0.366975 0.463564 -0.15533
C_ C_ 0.282163 0.380817 0.425519 -0.15533
C_ C_ 0.33139 0.395555 0.434997 0.02923
C_ C_ 0.350219 0.395719 0.48697 -0.15533
C_ C_ 0.321802 0.385858 0.526428 0.02923
C_ C_ 0.354748 0.385642 0.0709614 0.69207
C_ C_ 0.34174 0.387653 0.337508 0.69661
C_ C_ 0.310606 0.438357 0.191587 0.18167
C_ C_ 0.270786 0.46403 0.214233 -0.15533
C_ C_ 0.279245 0.504479 0.251246 0.02923
C_ C_ 0.324077 0.0225913 0.244296 -0.15533
C_ C_ 0.368021 0.494077 0.232764 0.18167
C_ C_ 0.487425 0.366325 0.218404 0.18167
C_ C_ 0.0225589 0.313331 0.240595 -0.15533
C_ C_ 0.485872 0.2816 0.249916 0.02923
C_ C_ 0.43828 0.278727 0.224268 -0.15533
C_ C_ 0.416484 0.320274 0.195574 0.18167
C_ C_ 0.482849 0.456133 0.125802 0.69207
C_ C_ 0.0240675 0.987887 0.110473 0.02923
C_ C_ 0.00188928 0.038202 0.102622 -0.15533
C_ C_ 0.0293289 0.0778047 0.0937627 -0.15533
C_ C_ 0.082678 0.0685939 0.0940254 0.02923
C_ C_ 0.103709 0.0165177 0.092003 -0.15533
C_ C_ 0.0770223 0.977236 0.109174 0.02923
C_ C_ 0.0942441 0.427906 0.113139 0.69207
C_ C_ 0.0950341 0.164494 0.0984271 0.69661
C_ C_ 0.437718 0.18225 0.44541 0.18167
C_ C_ 0.477814 0.206309 0.46838 -0.15533
C_ C_ 0.466685 0.248947 0.501484 0.02923
C_ C_ 0.427287 0.249752 0.0194265 -0.15533
C_ C_ 0.376689 0.233153 0.491067 0.18167
C_ C_ 0.263951 0.193454 0.349725 0.18167
C_ C_ 0.242696 0.222365 0.308022 -0.15533
C_ C_ 0.272671 0.235681 0.27328 0.02923
C_ C_ 0.324893 0.221928 0.280243 -0.15533
C_ C_ 0.34699 0.194643 0.323281 0.18167
C_ C_ 0.27019 0.112535 0.449861 0.69207
C_ C_ 0.225931 0.118067 0.993306 0.02923
C_ C_ 0.242319 0.115711 0.0446035 -0.15533
C_ C_ 0.210222 0.111645 0.0805871 -0.15533
C_ C_ 0.160562 0.102521 0.0662002 0.02923
C_ C_ 0.144381 0.0964211 0.0154215 -0.15533
C_ C_ 0.176141 0.108783 0.97714 0.02923
C_ C_ 0.160896 0.0946969 0.419309 0.69207
C_ C_ 0.139024 0.107141 0.162483 0.69661
C_ C_ 0.369275 0.392826 0.391351 -0.30787
C_ C_ 0.120045 0.109904 0.104515 -0.30787
N_ N_ 0.145603 0.0500466 0.307793 -0.32189
N_ N_ 0.0601741 0.13576 0.315593 -0.32189
N_ N_ 0.10662 0.316111 0.0613188 -0.32189
N_ N_ 0.198981 0.317416 0.148693 -0.32189
N_ N_ 0.358147 0.453057 0.202407 -0.32189
N_ N_ 0.440377 0.361863 0.193362 -0.32189
N_ N_ 0.388384 0.19305 0.45744 -0.32189
N_ N_ 0.315952 0.181647 0.358208 -0.32189
O_ O_ 0.502545 0.0897687 0.382565 -0.63271
O_ O_ 0.049452 0.0245415 0.330652 -0.57982
O_ O_ 0.396772 0.0985522 0.347093 -0.63271
O_ O_ 0.379271 0.092461 0.42771 -0.57982
O_ O_ 0.246213 0.389802 0.0954157 -0.63271
O_ O_ 0.205418 0.335975 0.0414259 -0.57982
O_ O_ 0.357089 0.344755 0.0980778 -0.63271
O_ O_ 0.375292 0.424334 0.0941021 -0.57982
O_ O_ 0.986851 0.411354 0.111563 -0.63271
O_ O_ 0.448787 0.468973 0.157497 -0.57982
O_ O_ 0.0895635 0.400479 0.151335 -0.63271
O_ O_ 0.133193 0.415097 0.0861885 -0.57982
O_ O_ 0.269319 0.0878359 0.404964 -0.63271
O_ O_ 0.302982 0.144603 0.463415 -0.57982
O_ O_ 0.159689 0.135666 0.395814 -0.63271
O_ O_ 0.123352 0.0661355 0.405371 -0.57982
F_ F_ 0.429093 0.327596 0.435925 -0.20885
F_ F_ 0.421475 0.317734 0.350509 -0.20885
F_ F_ 0.362149 0.301087 0.397901 -0.20885
F_ F_ 0.301038 0.426392 0.328522 -0.20885
F_ F_ 0.3188 0.343045 0.322641 -0.20885
F_ F_ 0.375155 0.394007 0.300389 -0.20885
F_ F_ 0.0716045 0.171188 0.0514404 -0.20885
F_ F_ 0.0616994 0.178335 0.134507 -0.20885
F_ F_ 0.12948 0.197699 0.10221 -0.20885
F_ F_ 0.174068 0.0652412 0.169174 -0.20885
F_ F_ 0.160539 0.150813 0.18153 -0.20885
F_ F_ 0.100612 0.106139 0.193411 -0.20885
Zn Zn 0.0903945 0.081823 0.841184 0.83971
Zn Zn 0.155937 0.350317 0.589639 0.83971
Zn Zn 0.406505 0.425088 0.660192 0.83971
Zn Zn 0.340086 0.157338 0.921528 0.83971
H_ H_ 0.176661 0.133553 0.797493 0.10394
H_ H_ 0.2525 0.0916638 0.76635 0.10394
H_ H_ 0.211092 0.458409 0.791737 0.10394
H_ H_ 0.136791 0.985103 0.832133 0.10394
H_ H_ 0.542512 0.104171 0.740447 0.10394
H_ H_ 0.495399 0.179614 0.697904 0.10394
H_ H_ 0.0436858 0.26896 0.827463 0.10394
H_ H_ 0.074492 0.193416 0.874242 0.10394
H_ H_ 0.0338679 0.436656 0.874805 0.10394
H_ H_ 0.481425 0.380179 0.882018 0.10394
H_ H_ 0.349079 0.483521 0.901807 0.10394
H_ H_ 0.0863335 0.291436 0.627839 0.10394
H_ H_ 0.490501 0.286327 0.597876 0.10394
H_ H_ 0.0285493 0.304764 0.951907 0.10394
H_ H_ 0.114599 0.337354 0.486949 0.10394
H_ H_ 0.224081 0.256335 0.605744 0.10394
H_ H_ 0.265928 0.221002 0.679836 0.10394
H_ H_ 0.20385 0.335742 0.780816 0.10394
H_ H_ 0.164357 0.384241 0.701696 0.10394
H_ H_ 0.221667 0.353056 0.948858 0.10394
H_ H_ 0.272347 0.367951 0.878851 0.10394
H_ H_ 0.399052 0.396154 0.985389 0.10394
H_ H_ 0.300097 0.409733 0.665066 0.10394
H_ H_ 0.22901 0.460903 0.700018 0.10394
H_ H_ 0.33774 0.043808 0.77814 0.10394
H_ H_ 0.407549 0.499291 0.751687 0.10394
H_ H_ 0.00880856 0.385321 0.687943 0.10394
H_ H_ 0.0529706 0.300165 0.707253 0.10394
H_ H_ 0.407027 0.262507 0.745494 0.10394
H_ H_ 0.366463 0.341129 0.702174 0.10394
H_ H_ 0.467648 0.0574404 0.623471 0.10394
H_ H_ 0.0210452 0.117475 0.597209 0.10394
H_ H_ 0.136509 -0.000103274 0.567952 0.10394
H_ H_ 0.435223 0.171106 0.890587 0.10394
H_ H_ 0.022139 0.19639 0.948105 0.10394
H_ H_ 0.406125 0.292499 0.541102 0.10394
H_ H_ 0.350059 0.234636 0.0132101 0.10394
H_ H_ 0.241826 0.212768 0.898824 0.10394
H_ H_ 0.191 0.245486 0.820083 0.10394
H_ H_ 0.33013 0.218703 0.746366 0.10394
H_ H_ 0.373472 0.182629 0.827936 0.10394
H_ H_ 0.292864 0.100386 0.554683 0.10394
H_ H_ 0.233347 0.0990929 0.616025 0.10394
H_ H_ 0.108853 0.095689 0.500682 0.10394
C_ C_ 0.183982 0.0894478 0.794906 0.18167
C_ C_ 0.224928 0.068431 0.772279 -0.15533
C_ C_ 0.237876 0.01752 0.772995 0.02923
C_ C_ 0.199986 0.501455 0.790207 -0.15533
C_ C_ 0.16311 0.00817171 0.816289 0.18167
C_ C_ 0.0311598 0.138562 0.761768 0.18167
C_ C_ 0.510984 0.184157 0.736922 -0.15533
C_ C_ 0.00995365 0.228786 0.761125 0.02923
C_ C_ 0.0360394 0.232822 0.810473 -0.15533
C_ C_ 0.0593659 0.187841 0.834309 0.18167
C_ C_ 0.00989573 0.0453177 0.863931 0.69207
C_ C_ 0.466715 0.507197 0.873381 0.02923
C_ C_ 0.48808 0.455281 0.871408 -0.15533
C_ C_ 0.461558 0.416257 0.882304 -0.15533
C_ C_ 0.410857 0.425035 0.893824 0.02923
C_ C_ 0.389484 0.476242 0.899789 -0.15533
C_ C_ 0.416767 0.517273 0.891207 0.02923
C_ C_ 0.396727 0.0749617 0.888668 0.69207
C_ C_ 0.401295 0.327492 0.889408 0.69661
C_ C_ 0.0767 0.289794 0.587691 0.18167
C_ C_ 0.0293024 0.273877 0.565465 -0.15533
C_ C_ 0.0178684 0.270923 0.512336 0.02923
C_ C_ 0.044892 0.297005 0.989767 -0.15533
C_ C_ 0.0885583 0.320311 0.509843 0.18167
C_ C_ 0.217862 0.276386 0.643093 0.18167
C_ C_ 0.239117 0.251519 0.686392 -0.15533
C_ C_ 0.234478 0.270656 0.73613 0.02923
C_ C_ 0.207938 0.319233 0.742283 -0.15533
C_ C_ 0.185516 0.34414 0.696183 0.18167
C_ C_ 0.239334 0.362608 0.554524 0.69207
C_ C_ 0.277238 0.372597 0.00822633 0.02923
C_ C_ 0.258043 0.366895 0.956776 -0.15533
C_ C_ 0.288224 0.373577 0.917459 -0.15533
C_ C_ 0.339122 0.387264 0.926785 0.02923
C_ C_ 0.358326 0.39425 0.978723 -0.15533
C_ C_ 0.32845 0.387589 0.018453 0.02923
C_ C_ 0.34844 0.384531 0.579487 0.69207
C_ C_ 0.348105 0.385091 0.832162 0.69661
C_ C_ 0.308757 0.444363 0.688393 0.18167
C_ C_ 0.267182 0.471247 0.710492 -0.15533
C_ C_ 0.277052 0.50893 0.747943 0.02923
C_ C_ 0.329846 0.0115454 0.75239 -0.15533
C_ C_ 0.366191 0.497283 0.733783 0.18167
C_ C_ 0.488487 0.354161 0.69466 0.18167
C_ C_ 0.0132272 0.311039 0.715766 -0.15533
C_ C_ 0.481583 0.278305 0.738111 0.02923
C_ C_ 0.429989 0.288596 0.732262 -0.15533
C_ C_ 0.407072 0.333109 0.709009 0.18167
C_ C_ 0.485708 0.459568 0.626534 0.69207
C_ C_ 0.0202538 0.991321 0.605957 0.02923
C_ C_ -0.000633054 0.0413375 0.598265 -0.15533
C_ C_ 0.0329028 0.0790385 0.592858 -0.15533
C_ C_ 0.0861996 0.0654577 0.592044 0.02923
C_ C_ 0.10261 0.0151603 0.585718 -0.15533
C_ C_ 0.0713711 0.977186 0.59744 0.02923
C_ C_ 0.0904891 0.424856 0.607043 0.69207
C_ C_ 0.106912 0.161587 0.602466 0.69661
C_ C_ 0.434078 0.189358 0.928337 0.18167
C_ C_ 0.478611 0.205241 0.955662 -0.15533
C_ C_ 0.476341 0.239884 0.999773176 0.02923
C_ C_ 0.41657 0.263021 0.513313 -0.15533
C_ C_ 0.386058 0.22431 0.998153 0.18167
C_ C_ 0.257098 0.210723 0.865158 0.18167
C_ C_ 0.23126 0.236954 0.823243 -0.15533
C_ C_ 0.258995 0.240166 0.780528 0.02923
C_ C_ 0.309288 0.221512 0.779958 -0.15533
C_ C_ 0.333158 0.193495 0.823635 0.18167
C_ C_ 0.264039 0.132167 0.95771 0.69207
C_ C_ 0.234091 0.101996 0.489824 0.02923
C_ C_ 0.251455 0.0996273 0.542202 -0.15533
C_ C_ 0.217042 0.0966398 0.577541 -0.15533
C_ C_ 0.164826 0.0941408 0.563865 0.02923
C_ C_ 0.148506 0.0973241 0.511637 -0.15533
C_ C_ 0.181818 0.0975436 0.4739 0.02923
C_ C_ 0.154088 0.11226 0.923728 0.69207
C_ C_ 0.145451 0.0976203 0.659469 0.69661
C_ C_ 0.376228 0.382817 0.885609 -0.30787
C_ C_ 0.124845 0.103627 0.602562 -0.30787
N_ N_ 0.148952 0.0581192 0.809456 -0.32189
N_ N_ 0.0578104 0.140993 0.810101 -0.32189
N_ N_ 0.105874 0.30937 0.55853 -0.32189
N_ N_ 0.189245 0.321359 0.648904 -0.32189
N_ N_ 0.356334 0.460035 0.698209 -0.32189
N_ N_ 0.436789 0.36351 0.688125 -0.32189
N_ N_ 0.391887 0.193588 0.953916 -0.32189
N_ N_ 0.307137 0.19404 0.86641 -0.32189
O_ O_ 0.498572 0.0937361 0.881204 -0.63271
O_ O_ 0.04482 0.0328629 0.831235 -0.57982
O_ O_ 0.387603 0.0983415 0.846238 -0.63271
O_ O_ 0.374511 0.0936893 0.928012 -0.57982
O_ O_ 0.242626 0.388754 0.598584 -0.63271
O_ O_ 0.20436 0.331683 0.547719 -0.57982
O_ O_ 0.356459 0.341643 0.601164 -0.63271
O_ O_ 0.366376 0.425123 0.602013 -0.57982
O_ O_ 0.983837 0.412883 0.593622 -0.63271
O_ O_ 0.455523 0.470511 0.663859 -0.57982
O_ O_ 0.0865593 0.393524 0.64427 -0.63271
O_ O_ 0.125439 0.41129 0.575784 -0.57982
O_ O_ 0.261607 0.116241 0.908991 -0.63271
O_ O_ 0.299091 0.163889 0.971532 -0.57982
O_ O_ 0.163448 0.150116 0.896516 -0.63271
O_ O_ 0.115085 0.0872796 0.906614 -0.57982
F_ F_ 0.437411 0.323841 0.933035 -0.20885
F_ F_ 0.42801 0.30627 0.851878 -0.20885
F_ F_ 0.367122 0.292956 0.895116 -0.20885
F_ F_ 0.310756 0.427108 0.831339 -0.20885
F_ F_ 0.319396 0.347434 0.817756 -0.20885
F_ F_ 0.376788 0.390256 0.794661 -0.20885
F_ F_ 0.0736219 0.17353 0.560014 -0.20885
F_ F_ 0.0815369 0.180175 0.644901 -0.20885
F_ F_ 0.146096 0.189581 0.599174 -0.20885
F_ F_ 0.175737 0.0522789 0.666791 -0.20885
F_ F_ 0.176953 0.133014 0.678931 -0.20885
F_ F_ 0.107114 0.0986611 0.691717 -0.20885
Zn Zn 0.0864144 0.587356 0.351425 0.83971
Zn Zn 0.158239 0.840911 0.0830064 0.83971
Zn Zn 0.412187 0.915986 0.157035 0.83971
Zn Zn 0.337581 0.663462 0.421256 0.83971
H_ H_ 0.167003 0.635576 0.308911 0.10394
H_ H_ 0.24324 0.604016 0.268847 0.10394
H_ H_ 0.2226 0.94466 0.290965 0.10394
H_ H_ 0.144812 0.486157 0.341419 0.10394
H_ H_ 0.526689 0.594717 0.258428 0.10394
H_ H_ 0.49466 0.66872 0.202485 0.10394
H_ H_ 0.029031 0.766817 0.323771 0.10394
H_ H_ 0.073634 0.697154 0.371873 0.10394
H_ H_ 0.0374232 0.930443 0.363509 0.10394
H_ H_ 0.483788 0.876145 0.376675 0.10394
H_ H_ 0.357423 0.990731 0.402123 0.10394
H_ H_ 0.0808537 0.801915 0.123423 0.10394
H_ H_ 0.486794 0.790121 0.0891207 0.10394
H_ H_ 0.0397676 0.783505 0.439941 0.10394
H_ H_ 0.116703 0.807793 0.972119 0.10394
H_ H_ 0.226886 0.745185 0.100809 0.10394
H_ H_ 0.251947 0.701834 0.179048 0.10394
H_ H_ 0.217315 0.837337 0.268435 0.10394
H_ H_ 0.180499 0.880342 0.185681 0.10394
H_ H_ 0.213126 0.892104 0.441792 0.10394
H_ H_ 0.264539 0.890087 0.374964 0.10394
H_ H_ 0.401912 0.881324 0.487028 0.10394
H_ H_ 0.315552 0.897437 0.162487 0.10394
H_ H_ 0.237679 0.935834 0.2049 0.10394
H_ H_ 0.33467 0.547328 0.290011 0.10394
H_ H_ 0.40276 0.0126163 0.232542 0.10394
H_ H_ 0.00898196 0.884949 0.212512 0.10394
H_ H_ 0.0466076 0.806719 0.251051 0.10394
H_ H_ 0.410216 0.747287 0.220137 0.10394
H_ H_ 0.371461 0.828631 0.188245 0.10394
H_ H_ 0.45752 0.557859 0.114639 0.10394
H_ H_ 0.0161699 0.625717 0.105734 0.10394
H_ H_ 0.142928 0.507712 0.0941033 0.10394
H_ H_ 0.439425 0.66324 0.408855 0.10394
H_ H_ 0.01866 0.6856 0.451517 0.10394
H_ H_ 0.414415 0.7883 0.0269144 0.10394
H_ H_ 0.343163 0.75944 0.497087 0.10394
H_ H_ 0.232764 0.710352 0.390115 0.10394
H_ H_ 0.186982 0.735702 0.306342 0.10394
H_ H_ 0.336242 0.727808 0.250337 0.10394
H_ H_ 0.371368 0.679432 0.322328 0.10394
H_ H_ 0.282706 0.636154 0.0575498 0.10394
H_ H_ 0.238916 0.604209 0.124789 0.10394
H_ H_ 0.108923 0.590765 0.0134908 0.10394
C_ C_ 0.175419 0.595539 0.30358 0.18167
C_ C_ 0.223224 0.577519 0.287379 -0.15533
C_ C_ 0.238174 0.524412 0.28576 0.02923
C_ C_ 0.208005 0.984087 0.290091 -0.15533
C_ C_ 0.161407 0.512586 0.320176 0.18167
C_ C_ 0.0294332 0.628749 0.267676 0.18167
C_ C_ 0.507307 0.673977 0.24167 -0.15533
C_ C_ 0.0044648 0.718996 0.258595 0.02923
C_ C_ 0.0287426 0.72914 0.307031 -0.15533
C_ C_ 0.0581677 0.689591 0.333671 0.18167
C_ C_ 0.00499337 0.543932 0.36634 0.69207
C_ C_ 0.476606 0.00467454 0.376251 0.02923
C_ C_ 0.49521 0.951702 0.368871 -0.15533
C_ C_ 0.466189 0.914779 0.379445 -0.15533
C_ C_ 0.41537 0.926567 0.390131 0.02923
C_ C_ 0.397102 0.979131 0.398779 -0.15533
C_ C_ 0.4255 0.0193641 0.390764 0.02923
C_ C_ 0.391684 0.578228 0.389552 0.69207
C_ C_ 0.400142 0.829403 0.38002 0.69661
C_ C_ 0.0671927 0.803558 0.0851727 0.18167
C_ C_ 0.0225744 0.778131 0.0674134 -0.15533
C_ C_ 0.00900561 0.770763 0.0144908 0.02923
C_ C_ 0.0501197 0.783399 0.48164 -0.15533
C_ C_ 0.0897949 0.803021 0.000326055 0.18167
C_ C_ 0.221689 0.766367 0.136113 0.18167
C_ C_ 0.239928 0.741769 0.180061 -0.15533
C_ C_ 0.2358 0.76476 0.228486 0.02923
C_ C_ 0.21904 0.817142 0.231688 -0.15533
C_ C_ 0.193898 0.839302 0.185122 0.18167
C_ C_ 0.241918 0.860299 0.0395869 0.69207
C_ C_ 0.274785 0.883186 0.504406 0.02923
C_ C_ 0.254116 0.890777 0.454373 -0.15533
C_ C_ 0.285146 0.890252 0.414529 -0.15533
C_ C_ 0.339138 0.890802 0.425227 0.02923
C_ C_ 0.360382 0.884985 0.476352 -0.15533
C_ C_ 0.327574 0.881809 0.516018 0.02923
C_ C_ 0.352091 0.875453 0.0692481 0.69207
C_ C_ 0.34594 0.897319 0.326821 0.69661
C_ C_ 0.315735 0.932585 0.184102 0.18167
C_ C_ 0.273001 0.954269 0.207564 -0.15533
C_ C_ 0.278429 1.00021 0.239549 0.02923
C_ C_ 0.328208 0.518308 0.259371 -0.15533
C_ C_ 0.36498 0.996241 0.224025 0.18167
C_ C_ 0.495782 0.849792 0.200809 0.18167
C_ C_ 0.010124 0.807573 0.230239 -0.15533
C_ C_ 0.487595 0.769381 0.234842 0.02923
C_ C_ 0.433484 0.778661 0.221439 -0.15533
C_ C_ 0.413562 0.819883 0.193036 0.18167
C_ C_ 0.485879 0.950754 0.113193 0.69207
C_ C_ 0.0199951 0.495654 0.117131 0.02923
C_ C_ 0.0011200000000000099 0.547815 0.114452 -0.15533
C_ C_ 0.032365 0.585682 0.106544 -0.15533
C_ C_ 0.0830249 0.570493 0.10292 0.02923
C_ C_ 0.101602 0.518534 0.100446 -0.15533
C_ C_ 0.071767 0.481026 0.111002 0.02923
C_ C_ 0.1034 0.92484 0.113055 0.69207
C_ C_ 0.104349 0.667481 0.109309 0.69661
C_ C_ 0.435636 0.691007 0.437275 0.18167
C_ C_ 0.478754 0.705123 0.466806 -0.15533
C_ C_ 0.470361 0.746396 0.505528 0.02923
C_ C_ 0.420654 0.753514 0.00353908 -0.15533
C_ C_ 0.380183 0.743768 0.487516 0.18167
C_ C_ 0.250995 0.708399 0.356377 0.18167
C_ C_ 0.2282 0.728337 0.311892 -0.15533
C_ C_ 0.258479 0.738729 0.274172 0.02923
C_ C_ 0.309633 0.720605 0.279026 -0.15533
C_ C_ 0.330043 0.698191 0.323327 0.18167
C_ C_ 0.25657 0.631713 0.458694 0.69207
C_ C_ 0.226364 0.6127 0.995734 0.02923
C_ C_ 0.246568 0.618236 0.0467637 -0.15533
C_ C_ 0.218906 0.608251 0.0866107 -0.15533
C_ C_ 0.164991 0.59995 0.0747719 0.02923
C_ C_ 0.147593 0.59821 0.0231526 -0.15533
C_ C_ 0.17642 0.605465 0.983091 0.02923
C_ C_ 0.146671 0.617101 0.431902 0.69207
C_ C_ 0.149871 0.601493 0.168219 0.69661
C_ C_ 0.374059 0.886089 0.381231 -0.30787
C_ C_ 0.123871 0.610403 0.114133 -0.30787
N_ N_ 0.145853 0.562728 0.319996 -0.32189
N_ N_ 0.0559054 0.640137 0.312946 -0.32189
N_ N_ 0.0989938 0.812329 0.0502492 -0.32189
N_ N_ 0.195871 0.812762 0.138773 -0.32189
N_ N_ 0.361003 0.952725 0.19628 -0.32189
N_ N_ 0.444547 0.854645 0.183741 -0.32189
N_ N_ 0.388189 0.705182 0.450181 -0.32189
N_ N_ 0.300478 0.688397 0.359408 -0.32189
O_ O_ 0.505888 0.590971 0.411903 -0.63271
O_ O_ 0.0468538 0.535245 0.34419 -0.57982
O_ O_ 0.384287 0.601134 0.346418 -0.63271
O_ O_ 0.368471 0.599344 0.427321 -0.57982
O_ O_ 0.250506 0.880875 0.0865465 -0.63271
O_ O_ 0.201017 0.835786 0.0299773 -0.57982
O_ O_ 0.352254 0.83354 0.0917505 -0.63271
O_ O_ 0.380278 0.910248 0.0920101 -0.57982
O_ O_ 0.99598 0.899342 0.0997014 -0.63271
O_ O_ 0.452633 0.964582 0.146696 -0.57982
O_ O_ 0.0940584 0.896553 0.150621 -0.63271
O_ O_ 0.138832 0.909494 0.0845006 -0.57982
O_ O_ 0.248405 0.61238 0.412203 -0.63271
O_ O_ 0.292693 0.661437 0.469403 -0.57982
O_ O_ 0.147507 0.658592 0.408592 -0.63271
O_ O_ 0.108463 0.591316 0.416827 -0.57982
F_ F_ 0.430912 0.820083 0.425838 -0.20885
F_ F_ 0.428819 0.814481 0.337755 -0.20885
F_ F_ 0.363531 0.793539 0.375691 -0.20885
F_ F_ 0.322595 0.946571 0.324342 -0.20885
F_ F_ 0.310693 0.863004 0.310162 -0.20885
F_ F_ 0.380374 0.888162 0.289733 -0.20885
F_ F_ 0.073586 0.670828 0.0605399 -0.20885
F_ F_ 0.0752632 0.687824 0.145526 -0.20885
F_ F_ 0.144387 0.697613 0.109825 -0.20885
F_ F_ 0.179096 0.554891 0.172803 -0.20885
F_ F_ 0.177397 0.642049 0.184616 -0.20885
F_ F_ 0.113015 0.601686 0.201273 -0.20885
Zn Zn 0.0859156 0.587857 0.852446 0.83971
Zn Zn 0.161547 0.846239 0.580688 0.83971
Zn Zn 0.411701 0.916873 0.651274 0.83971
Zn Zn 0.332995 0.653899 0.912324 0.83971
H_ H_ 0.160537 0.644048 0.801625 0.10394
H_ H_ 0.242509 0.610471 0.771141 0.10394
H_ H_ 0.218765 0.946208 0.794638 0.10394
H_ H_ 0.133432 0.496448 0.823907 0.10394
H_ H_ 0.527763 0.595355 0.748214 0.10394
H_ H_ 0.493719 0.668224 0.696061 0.10394
H_ H_ 0.0384456 0.771083 0.836518 0.10394
H_ H_ 0.0640613 0.693476 0.890229 0.10394
H_ H_ 0.0333929 0.946114 0.876076 0.10394
H_ H_ 0.48305 0.880094 0.876784 0.10394
H_ H_ 0.358898 0.987823 0.910181 0.10394
H_ H_ 0.0829026 0.802237 0.629545 0.10394
H_ H_ 0.502718 0.767687 0.605104 0.10394
H_ H_ 0.0311408 0.776552 0.940868 0.10394
H_ H_ 0.118927 0.821168 0.480844 0.10394
H_ H_ 0.216639 0.749004 0.600671 0.10394
H_ H_ 0.248901 0.700385 0.67263 0.10394
H_ H_ 0.208988 0.836822 0.768606 0.10394
H_ H_ 0.174604 0.881888 0.692026 0.10394
H_ H_ 0.22746 0.847054 0.939959 0.10394
H_ H_ 0.277356 0.871512 0.875333 0.10394
H_ H_ 0.39599 0.900415 0.993345 0.10394
H_ H_ 0.303734 0.89872 0.654644 0.10394
H_ H_ 0.231359 0.947859 0.693813 0.10394
H_ H_ 0.336509 0.545396 0.794079 0.10394
H_ H_ 0.404661 0.005239999999999911 0.728149 0.10394
H_ H_ 0.0162224 0.88764 0.687928 0.10394
H_ H_ 0.0584642 0.816921 0.739716 0.10394
H_ H_ 0.411881 0.741104 0.720409 0.10394
H_ H_ 0.371278 0.824123 0.688242 0.10394
H_ H_ 0.465066 0.564861 0.634959 0.10394
H_ H_ 0.00959342 0.620505 0.620982 0.10394
H_ H_ 0.137289 0.507553 0.599795 0.10394
H_ H_ 0.441755 0.648461 0.900679 0.10394
H_ H_ 0.0154523 0.670564 0.983015 0.10394
H_ H_ 0.416427 0.786248 0.551961 0.10394
H_ H_ 0.339103 0.748845 -0.01634599999999997 0.10394
H_ H_ 0.228024 0.689295 0.878574 0.10394
H_ H_ 0.189919 0.734142 0.799947 0.10394
H_ H_ 0.33527 0.736465 0.753453 0.10394
H_ H_ 0.372528 0.682875 0.826238 0.10394
H_ H_ 0.281284 0.625304 0.559055 0.10394
H_ H_ 0.230719 0.607719 0.624067 0.10394
H_ H_ 0.104637 0.592605 0.511733 0.10394
C_ C_ 0.170234 0.604266 0.801496 0.18167
C_ C_ 0.215176 0.585087 0.77894 -0.15533
C_ C_ 0.231361 0.533332 0.774376 0.02923
C_ C_ 0.208383 0.986811 0.797317 -0.15533
C_ C_ 0.151988 0.520906 0.805441 0.18167
C_ C_ 0.0251408 0.63745 0.775055 0.18167
C_ C_ 0.508805 0.67476 0.736045 -0.15533
C_ C_ 0.0134424 0.730913 0.768421 0.02923
C_ C_ 0.0321324 0.734799 0.819998 -0.15533
C_ C_ 0.0469263 0.691718 0.848067 0.18167
C_ C_ 0.0114013 0.540193 0.873266 0.69207
C_ C_ 0.472067 0.00936776 0.870947 0.02923
C_ C_ 0.49458 0.957734 0.871784 -0.15533
C_ C_ 0.467682 0.918707 0.883415 -0.15533
C_ C_ 0.417826 0.929508 0.897382 0.02923
C_ C_ 0.397365 0.980638 0.899731 -0.15533
C_ C_ 0.421851 0.0209196 0.887498 0.02923
C_ C_ 0.391149 0.567675 0.885878 0.69207
C_ C_ 0.406682 0.833519 0.895073 0.69661
C_ C_ 0.0732371 0.79929 0.588743 0.18167
C_ C_ 0.0302859 0.775154 0.568854 -0.15533
C_ C_ 0.0176997 0.767738 0.515027 0.02923
C_ C_ 0.0417335 0.784511 0.980227 -0.15533
C_ C_ 0.0917583 0.806209 0.50363 0.18167
C_ C_ 0.211696 0.767552 0.637124 0.18167
C_ C_ 0.237474 0.741247 0.679053 -0.15533
C_ C_ 0.234735 0.767827 0.726941 0.02923
C_ C_ 0.21384 0.818489 0.731924 -0.15533
C_ C_ 0.196248 0.844242 0.68777 0.18167
C_ C_ 0.239641 0.872548 0.542987 0.69207
C_ C_ 0.280759 0.860974 0.00222411 0.02923
C_ C_ 0.260906 0.866169 0.950711 -0.15533
C_ C_ 0.290564 0.88033 0.915963 -0.15533
C_ C_ 0.340879 0.893185 0.929855 0.02923
C_ C_ 0.358787 0.892974 0.98111 -0.15533
C_ C_ 0.328229 0.878353 0.0171864 0.02923
C_ C_ 0.352261 0.881351 0.569259 0.69207
C_ C_ 0.356735 0.889558 0.832145 0.69661
C_ C_ 0.31149 0.930905 0.679322 0.18167
C_ C_ 0.269883 0.958311 0.703817 -0.15533
C_ C_ 0.280439 0.995657 0.742366 0.02923
C_ C_ 0.327288 0.518042 0.761844 -0.15533
C_ C_ 0.366963 0.9894 0.723078 0.18167
C_ C_ 0.490357 0.852361 0.703938 0.18167
C_ C_ 0.0180432 0.817249 0.724332 -0.15533
C_ C_ 0.486968 0.767443 0.728654 0.02923
C_ C_ 0.436367 0.770906 0.712477 -0.15533
C_ C_ 0.411979 0.816039 0.68959 0.18167
C_ C_ 0.487662 0.956387 0.617375 0.69207
C_ C_ 0.013428 0.492655 0.616652 0.02923
C_ C_ 0.996097 0.54471 0.624759 -0.15533
C_ C_ 0.0260075 0.581741 0.614533 -0.15533
C_ C_ 0.0797861 0.570282 0.606896 0.02923
C_ C_ 0.0986038 0.51934 0.60842 -0.15533
C_ C_ 0.0666171 0.479366 0.608303 0.02923
C_ C_ 0.0945609 0.924397 0.602484 0.69207
C_ C_ 0.0963861 0.668277 0.60958 0.69661
C_ C_ 0.434556 0.673132 0.933812 0.18167
C_ C_ 0.475496 0.694682 0.956674 -0.15533
C_ C_ 0.469083 0.733505 -0.006120000000000014 0.02923
C_ C_ 0.422858 0.758345 0.520249 -0.15533
C_ C_ 0.379035 0.732681 0.975184 0.18167
C_ C_ 0.249191 0.694924 0.848114 0.18167
C_ C_ 0.229606 0.725991 0.808578 -0.15533
C_ C_ 0.258461 0.740763 0.774515 0.02923
C_ C_ 0.311931 0.72654 0.780922 -0.15533
C_ C_ 0.331664 0.693526 0.821103 0.18167
C_ C_ 0.261184 0.62152 0.957052 0.69207
C_ C_ 0.223545 0.624188 0.496647 0.02923
C_ C_ 0.243992 0.620574 0.546387 -0.15533
C_ C_ 0.212094 0.613304 0.585809 -0.15533
C_ C_ 0.16128 0.602292 0.574414 0.02923
C_ C_ 0.144959 0.596785 0.522543 -0.15533
C_ C_ 0.173984 0.612945 0.484296 0.02923
C_ C_ 0.150393 0.608655 0.930271 0.69207
C_ C_ 0.142942 0.609093 0.669492 0.69661
C_ C_ 0.3787 0.888076 0.888395 -0.30787
C_ C_ 0.119559 0.610703 0.61421 -0.30787
N_ N_ 0.136818 0.571107 0.808125 -0.32189
N_ N_ 0.0480068 0.644997 0.823414 -0.32189
N_ N_ 0.108429 0.80483 0.555452 -0.32189
N_ N_ 0.193794 0.81679 0.642716 -0.32189
N_ N_ 0.358943 0.95009 0.68665 -0.32189
N_ N_ 0.440143 0.854484 0.683 -0.32189
N_ N_ 0.386012 0.692375 0.940869 -0.32189
N_ N_ 0.299042 0.677498 0.851628 -0.32189
O_ O_ 0.507614 0.581058 0.903808 -0.63271
O_ O_ 0.0467796 0.532627 0.843537 -0.57982
O_ O_ 0.394586 0.594663 0.846009 -0.63271
O_ O_ 0.362904 0.587418 0.919232 -0.57982
O_ O_ 0.239057 0.900084 0.584784 -0.63271
O_ O_ 0.206372 0.839417 0.533277 -0.57982
O_ O_ 0.351011 0.844135 0.597591 -0.63271
O_ O_ 0.380971 0.917185 0.588347 -0.57982
O_ O_ 0.989161 0.907266 0.590384 -0.63271
O_ O_ 0.457146 0.964576 0.653505 -0.57982
O_ O_ 0.0927524 0.898962 0.641955 -0.63271
O_ O_ 0.12265 0.90343 0.567658 -0.57982
O_ O_ 0.254629 0.599066 0.910557 -0.63271
O_ O_ 0.291535 0.658414 0.962054 -0.57982
O_ O_ 0.148733 0.651515 0.905874 -0.63271
O_ O_ 0.121699 0.57353 0.911739 -0.57982
F_ F_ 0.43984 0.830782 0.938824 -0.20885
F_ F_ 0.432628 0.815354 0.854858 -0.20885
F_ F_ 0.374063 0.797632 0.89417 -0.20885
F_ F_ 0.323652 0.933417 0.825251 -0.20885
F_ F_ 0.333548 0.847136 0.808765 -0.20885
F_ F_ 0.393938 0.890608 0.799162 -0.20885
F_ F_ 0.0654902 0.677443 0.565099 -0.20885
F_ F_ 0.0700186 0.687545 0.650061 -0.20885
F_ F_ 0.132278 0.701063 0.61262 -0.20885
F_ F_ 0.173768 0.563651 0.679626 -0.20885
F_ F_ 0.171788 0.648217 0.691884 -0.20885
F_ F_ 0.102113 0.610321 0.701196 -0.20885
Zn Zn 0.589619 0.0847858 0.34589 0.83971
Zn Zn 0.661131 0.346089 0.0882896 0.83971
Zn Zn 0.913154 0.416022 0.16028 0.83971
Zn Zn 0.842595 0.151336 0.411786 0.83971
H_ H_ 0.669372 0.132971 0.299211 0.10394
H_ H_ 0.741223 0.0990957 0.25595 0.10394
H_ H_ 0.691406 0.446511 0.261916 0.10394
H_ H_ 0.63838 0.988888 0.334184 0.10394
H_ H_ 0.0220933 0.0916682 0.251743 0.10394
H_ H_ 0.992454 0.168253 0.206503 0.10394
H_ H_ 0.537473 0.272614 0.343669 0.10394
H_ H_ 0.585497 0.193835 0.382612 0.10394
H_ H_ 0.532304 0.450742 0.385842 0.10394
H_ H_ 0.977684 0.377669 0.370031 0.10394
H_ H_ 0.852621 0.489791 0.404631 0.10394
H_ H_ 0.580846 0.300038 0.138231 0.10394
H_ H_ 1.0142384 0.254829 0.10173 0.10394
H_ H_ 0.530863 0.289489 0.44552 0.10394
H_ H_ 0.623436 0.314529 0.985985 0.10394
H_ H_ 0.742593 0.268659 0.0873586 0.10394
H_ H_ 0.771227 0.205443 0.156289 0.10394
H_ H_ 0.703963 0.315645 0.268695 0.10394
H_ H_ 0.671833 0.367517 0.196775 0.10394
H_ H_ 0.714526 0.361433 0.440417 0.10394
H_ H_ 0.761778 0.386563 0.374629 0.10394
H_ H_ 0.892896 0.40069 0.487369 0.10394
H_ H_ 0.810658 0.387887 0.174627 0.10394
H_ H_ 0.735243 0.43858 0.195682 0.10394
H_ H_ 0.834785 0.041068 0.279626 0.10394
H_ H_ 0.898584 0.507696 0.241789 0.10394
H_ H_ 0.503897 0.402652 0.223095 0.10394
H_ H_ 0.550285 0.327015 0.264913 0.10394
H_ H_ 0.92167 0.240358 0.2212 0.10394
H_ H_ 0.882742 0.319528 0.181324 0.10394
H_ H_ 0.962032 0.048804 0.11034 0.10394
H_ H_ 0.515924 0.108214 0.0679752 0.10394
H_ H_ 0.647755 -0.0007359999999999589 0.0848614 0.10394
H_ H_ 0.950031 0.15718 0.390642 0.10394
H_ H_ 0.517737 0.190831 0.466763 0.10394
H_ H_ 0.916542 0.2779 0.0474311 0.10394
H_ H_ 0.846708 0.228596 0.491016 0.10394
H_ H_ 0.739219 0.190848 0.377954 0.10394
H_ H_ 0.693104 0.226951 0.299981 0.10394
H_ H_ 0.83979 0.21136 0.235767 0.10394
H_ H_ 0.876856 0.183268 0.31885 0.10394
H_ H_ 0.781041 0.132417 0.0432276 0.10394
H_ H_ 0.72573 0.120278 0.111378 0.10394
H_ H_ 0.607765 0.089177 -0.005237000000000047 0.10394
C_ C_ 0.67565 0.0920189 0.292507 0.18167
C_ C_ 0.716834 0.0723218 0.265814 -0.15533
C_ C_ 0.733225 0.0208456 0.268642 0.02923
C_ C_ 0.688331 0.487419 0.275024 -0.15533
C_ C_ 0.660901 0.00973488 0.311968 0.18167
C_ C_ 0.53798 0.142511 0.268723 0.18167
C_ C_ 0.0116828 0.175056 0.24087 -0.15533
C_ C_ 0.517992 0.234713 0.269985 0.02923
C_ C_ 0.542705 0.237174 0.320401 -0.15533
C_ C_ 0.562993 0.192037 0.344642 0.18167
C_ C_ 0.5102 0.0434453 0.364807 0.69207
C_ C_ 0.969326 0.505346 0.368612 0.02923
C_ C_ 0.99064 0.455209 0.370126 -0.15533
C_ C_ 0.961435 0.415998 0.375638 -0.15533
C_ C_ 0.910822 0.428353 0.387925 0.02923
C_ C_ 0.887201 0.47957 0.38517 -0.15533
C_ C_ 0.916512 0.519705 0.377401 0.02923
C_ C_ 0.90052 0.0622429 0.380437 0.69207
C_ C_ 0.901033 0.332193 0.397613 0.69661
C_ C_ 0.575528 0.29352 0.0959259 0.18167
C_ C_ 0.53037 0.273769 0.0763573 -0.15533
C_ C_ 0.518192 0.266228 0.0219647 0.02923
C_ C_ 0.539399 0.296095 0.485635 -0.15533
C_ C_ 0.595893 0.303505 0.0121721 0.18167
C_ C_ 0.730804 0.274574 0.127479 0.18167
C_ C_ 0.745531 0.239214 0.166446 -0.15533
C_ C_ 0.737016 0.254171 0.218713 0.02923
C_ C_ 0.709736 0.300849 0.229977 -0.15533
C_ C_ 0.697375 0.334042 0.190393 0.18167
C_ C_ 0.746695 0.367274 0.0504948 0.69207
C_ C_ 0.770126 0.382531 0.505007 0.02923
C_ C_ 0.751664 0.37425 0.452115 -0.15533
C_ C_ 0.779664 0.387624 0.412667 -0.15533
C_ C_ 0.832611 0.397296 0.427364 0.02923
C_ C_ 0.850869 0.403333 0.478366 -0.15533
C_ C_ 0.820895 0.392437 0.51698 0.02923
C_ C_ 0.857955 0.383493 0.0715986 0.69207
C_ C_ 0.849477 0.380135 0.328197 0.69661
C_ C_ 0.814146 0.424239 0.193281 0.18167
C_ C_ 0.76969 0.451747 0.206647 -0.15533
C_ C_ 0.772768 0.494132 0.241494 0.02923
C_ C_ 0.824515 0.0150341 0.250258 -0.15533
C_ C_ 0.863436 0.49077 0.231889 0.18167
C_ C_ 0.998018 0.356688 0.215121 0.18167
C_ C_ 0.511309 0.325081 0.246535 -0.15533
C_ C_ 0.993939 0.271615 0.240043 0.02923
C_ C_ 0.9438 0.272673 0.217336 -0.15533
C_ C_ 0.922202 0.317528 0.19354 0.18167
C_ C_ 0.982709 0.457375 0.128171 0.69207
C_ C_ 0.520408 0.986296 0.100979 0.02923
C_ C_ 0.500538 0.037665 0.0887821 -0.15533
C_ C_ 0.533971 0.0732232 0.079827 -0.15533
C_ C_ 0.587507 0.0605124 0.0905139 0.02923
C_ C_ 0.605775 0.00907176 0.0902375 -0.15533
C_ C_ 0.573963 0.972561 0.0995343 0.02923
C_ C_ 0.5924 0.423719 0.108784 0.69207
C_ C_ 0.597458 0.157809 0.0931878 0.69661
C_ C_ 0.944877 0.177875 0.42712 0.18167
C_ C_ 0.983321 0.206919 0.450925 -0.15533
C_ C_ 0.974939 0.244721 0.488734 0.02923
C_ C_ 0.924687 0.256344 0.0101229 -0.15533
C_ C_ 0.887006 0.221787 0.482357 0.18167
C_ C_ 0.758215 0.188575 0.344123 0.18167
C_ C_ 0.733805 0.210148 0.299595 -0.15533
C_ C_ 0.7625 0.224579 0.261195 0.02923
C_ C_ 0.815468 0.203416 0.263893 -0.15533
C_ C_ 0.83787 0.187413 0.311706 0.18167
C_ C_ 0.770463 0.113249 0.454794 0.69207
C_ C_ 0.726239 0.111534 0.9806 0.02923
C_ C_ 0.744663 0.116561 0.0315891 -0.15533
C_ C_ 0.713957 0.107805 0.0711279 -0.15533
C_ C_ 0.664207 0.0965552 0.0586465 0.02923
C_ C_ 0.646263 0.0926576 0.00547463 -0.15533
C_ C_ 0.67555 0.102474 0.966424 0.02923
C_ C_ 0.658265 0.106328 0.424447 0.69207
C_ C_ 0.642711 0.0980689 0.156105 0.69661
C_ C_ 0.873227 0.385738 0.386508 -0.30787
C_ C_ 0.623285 0.10249 0.0984932 -0.30787
N_ N_ 0.644504 0.0604288 0.308112 -0.32189
N_ N_ 0.561874 0.147101 0.316892 -0.32189
N_ N_ 0.609406 0.305462 0.0636849 -0.32189
N_ N_ 0.702041 0.317643 0.141483 -0.32189
N_ N_ 0.860934 0.445277 0.203897 -0.32189
N_ N_ 0.948883 0.356385 0.192271 -0.32189
N_ N_ 0.896666 0.188826 0.4414 -0.32189
N_ N_ 0.809357 0.175331 0.348182 -0.32189
O_ O_ 0.0128347 0.0813564 0.385748 -0.63271
O_ O_ 0.54662 0.0343643 0.333802 -0.57982
O_ O_ 0.906935 0.0879743 0.342265 -0.63271
O_ O_ 0.870264 0.0850154 0.41508 -0.57982
O_ O_ 0.754695 0.390961 0.0954451 -0.63271
O_ O_ 0.705925 0.342623 0.0388476 -0.57982
O_ O_ 0.857303 0.340082 0.0933002 -0.63271
O_ O_ 0.879661 0.422596 0.095285 -0.57982
O_ O_ 0.487065 0.408887 0.107818 -0.63271
O_ O_ 0.952945 0.468445 0.164007 -0.57982
O_ O_ 0.592194 0.398572 0.150596 -0.63271
O_ O_ 0.627465 0.408139 0.0777533 -0.57982
O_ O_ 0.771137 0.0832525 0.414134 -0.63271
O_ O_ 0.801581 0.149707 0.460126 -0.57982
O_ O_ 0.663847 0.144131 0.395599 -0.63271
O_ O_ 0.620024 0.0801099 0.411968 -0.57982
F_ F_ 0.936797 0.336875 0.438154 -0.20885
F_ F_ 0.930268 0.307107 0.362234 -0.20885
F_ F_ 0.869882 0.29924 0.413395 -0.20885
F_ F_ 0.817506 0.420373 0.311193 -0.20885
F_ F_ 0.822394 0.339253 0.31909 -0.20885
F_ F_ 0.889468 0.375855 0.297511 -0.20885
F_ F_ 0.569749 0.167099 0.0471611 -0.20885
F_ F_ 0.565082 0.168816 0.129044 -0.20885
F_ F_ 0.634207 0.192337 0.0983744 -0.20885
F_ F_ 0.67728 0.0548467 0.159341 -0.20885
F_ F_ 0.669852 0.136919 0.172638 -0.20885
F_ F_ 0.606297 0.0931597 0.189097 -0.20885
Zn Zn 0.586214 0.0812834 0.83537 0.83971
Zn Zn 0.652971 0.356216 0.587885 0.83971
Zn Zn 0.900677 0.41624 0.656492 0.83971
Zn Zn 0.84277 0.156497 0.911008 0.83971
H_ H_ 0.663342 0.126574 0.790468 0.10394
H_ H_ 0.741693 0.0902062 0.751923 0.10394
H_ H_ 0.708735 0.449829 0.789246 0.10394
H_ H_ 0.646662 0.981381 0.840607 0.10394
H_ H_ 0.0295433 0.100064 0.743966 0.10394
H_ H_ 0.990174 0.173616 0.698958 0.10394
H_ H_ 0.511159 0.267943 0.841842 0.10394
H_ H_ 0.565449 0.191403 0.878113 0.10394
H_ H_ 0.525934 0.442241 0.854679 0.10394
H_ H_ 0.976499 0.373688 0.872965 0.10394
H_ H_ 0.851326 0.482878 0.893428 0.10394
H_ H_ 0.572889 0.323859 0.627922 0.10394
H_ H_ 0.00139068 0.264809 0.588302 0.10394
H_ H_ 0.540814 0.285204 0.951483 0.10394
H_ H_ 0.609844 0.335683 0.4813 0.10394
H_ H_ 0.708797 0.258561 0.600489 0.10394
H_ H_ 0.753966 0.21716 0.666277 0.10394
H_ H_ 0.727208 0.350028 0.772792 0.10394
H_ H_ 0.675049 0.390258 0.698104 0.10394
H_ H_ 0.71054 0.386072 0.950177 0.10394
H_ H_ 0.763821 0.380345 0.882687 0.10394
H_ H_ 0.894759 0.409544 0.990342 0.10394
H_ H_ 0.796989 0.410488 0.654227 0.10394
H_ H_ 0.724849 0.459073 0.695545 0.10394
H_ H_ 0.832975 0.0385053 0.774958 0.10394
H_ H_ 0.900687 0.501503 0.741256 0.10394
H_ H_ 0.512991 0.380861 0.684987 0.10394
H_ H_ 0.552174 0.302577 0.719365 0.10394
H_ H_ 0.914177 0.265611 0.760202 0.10394
H_ H_ 0.865661 0.335034 0.713449 0.10394
H_ H_ 0.961188 0.0528397 0.603576 0.10394
H_ H_ 0.524229 0.119972 0.622089 0.10394
H_ H_ 0.650508 0.00533287 0.601762 0.10394
H_ H_ 0.945951 0.173984 0.888223 0.10394
H_ H_ 0.513337 0.190608 0.939863 0.10394
H_ H_ 0.912694 0.288025 0.521778 0.10394
H_ H_ 0.849977 0.226446 0.005619999999999958 0.10394
H_ H_ 0.73792 0.208896 0.882103 0.10394
H_ H_ 0.69703 0.244255 0.8043 0.10394
H_ H_ 0.839947 0.226983 0.737519 0.10394
H_ H_ 0.879636 0.183772 0.814743 0.10394
H_ H_ 0.793786 0.10658 0.551873 0.10394
H_ H_ 0.740733 0.0834361 0.617862 0.10394
H_ H_ 0.611192 0.0997003 0.507354 0.10394
C_ C_ 0.676651 0.0847289 0.790461 0.18167
C_ C_ 0.719336 0.0656051 0.768587 -0.15533
C_ C_ 0.734783 0.0130514 0.769505 0.02923
C_ C_ 0.700139 0.488301 0.800937 -0.15533
C_ C_ 0.658184 0.00345491 0.809197 0.18167
C_ C_ 0.542545 0.143394 0.759639 0.18167
C_ C_ 0.0101009 0.181449 0.736964 -0.15533
C_ C_ 0.503816 0.232952 0.765804 0.02923
C_ C_ 0.525771 0.236263 0.81675 -0.15533
C_ C_ 0.55384 0.191518 0.838034 0.18167
C_ C_ 0.501778 0.0491049 0.856627 0.69207
C_ C_ 0.974261 0.499682 0.874567 0.02923
C_ C_ 0.994501 0.447848 0.877164 -0.15533
C_ C_ 0.962558 0.411748 0.879913 -0.15533
C_ C_ 0.909813 0.422024 0.885085 0.02923
C_ C_ 0.892018 0.473696 0.892056 -0.15533
C_ C_ 0.923494 0.51178 0.885599 0.02923
C_ C_ 0.899395 0.0736005 0.880507 0.69207
C_ C_ 0.894373 0.328461 0.8927 0.69661
C_ C_ 0.564909 0.3111 0.589507 0.18167
C_ C_ 0.518445 0.289988 0.572591 -0.15533
C_ C_ 0.507884 0.278284 0.520907 0.02923
C_ C_ 0.550773 0.286755 0.991731 -0.15533
C_ C_ 0.58521 0.31773 0.505171 0.18167
C_ C_ 0.710752 0.280387 0.637243 0.18167
C_ C_ 0.737996 0.254759 0.677306 -0.15533
C_ C_ 0.743771 0.278215 0.727355 0.02923
C_ C_ 0.716975 0.326601 0.736085 -0.15533
C_ C_ 0.692461 0.351423 0.694184 0.18167
C_ C_ 0.73251 0.382093 0.543981 0.69207
C_ C_ 0.776192 0.381081 1.00910747 0.02923
C_ C_ 0.752806 0.383659 0.960342 -0.15533
C_ C_ 0.782954 0.389121 0.919221 -0.15533
C_ C_ 0.835964 0.392405 0.927948 0.02923
C_ C_ 0.856759 0.400029 0.980052 -0.15533
C_ C_ 0.828758 0.391636 0.0209501 0.02923
C_ C_ 0.847014 0.388044 0.569803 0.69207
C_ C_ 0.844494 0.38333 0.830666 0.69661
C_ C_ 0.801663 0.441691 0.683418 0.18167
C_ C_ 0.762013 0.469895 0.706974 -0.15533
C_ C_ 0.772739 0.502353 0.748108 0.02923
C_ C_ 0.823598 0.0161953 0.74141 -0.15533
C_ C_ 0.861609 0.491961 0.733083 0.18167
C_ C_ 0.987287 0.356278 0.696036 0.18167
C_ C_ 0.510966 0.30835 0.715097 -0.15533
C_ C_ 0.984035 0.27567 0.736469 0.02923
C_ C_ 0.932255 0.285391 0.735834 -0.15533
C_ C_ 0.906345 0.328967 0.712928 0.18167
C_ C_ 0.97699 0.455523 0.619034 0.69207
C_ C_ 0.523058 0.99375 0.609088 0.02923
C_ C_ 0.50645 0.0470629 0.616538 -0.15533
C_ C_ 0.540838 0.0821361 0.615269 -0.15533
C_ C_ 0.591826 0.06862 0.607322 0.02923
C_ C_ 0.610574 0.0168732 0.606748 -0.15533
C_ C_ 0.57614 0.979589 0.611824 0.02923
C_ C_ 0.593588 0.430584 0.602578 0.69207
C_ C_ 0.607259 0.163894 0.60171 0.69661
C_ C_ 0.942409 0.193961 0.925044 0.18167
C_ C_ 0.983956 0.209129 0.956815 -0.15533
C_ C_ 0.973727 0.24398 -0.00170318 0.02923
C_ C_ 0.925522 0.251804 0.50235 -0.15533
C_ C_ 0.88597 0.226926 0.987359 0.18167
C_ C_ 0.76067 0.209138 0.848554 0.18167
C_ C_ 0.736621 0.230668 0.804895 -0.15533
C_ C_ 0.766504 0.246511 0.769736 0.02923
C_ C_ 0.817394 0.224018 0.769738 -0.15533
C_ C_ 0.840435 0.198243 0.814134 0.18167
C_ C_ 0.76286 0.120546 0.94434 0.69207
C_ C_ 0.733275 0.112544 0.491909 0.02923
C_ C_ 0.751549 0.109286 0.543222 -0.15533
C_ C_ 0.722351 0.0931856 0.579718 -0.15533
C_ C_ 0.669146 0.0971966 0.566576 0.02923
C_ C_ 0.652231 0.0980029 0.515409 -0.15533
C_ C_ 0.680657 0.107775 0.477443 0.02923
C_ C_ 0.653227 0.106863 0.911569 0.69207
C_ C_ 0.657805 0.108729 0.661632 0.69661
C_ C_ 0.870843 0.383 0.885354 -0.30787
C_ C_ 0.629933 0.106772 0.606333 -0.30787
N_ N_ 0.644772 0.0537844 0.806732 -0.32189
N_ N_ 0.564738 0.147448 0.80817 -0.32189
N_ N_ 0.599618 0.31813 0.556085 -0.32189
N_ N_ 0.686363 0.327596 0.646959 -0.32189
N_ N_ 0.850487 0.451927 0.698509 -0.32189
N_ N_ 0.934697 0.36185 0.691805 -0.32189
N_ N_ 0.894084 0.19851 0.941582 -0.32189
N_ N_ 0.811972 0.192114 0.853673 -0.32189
O_ O_ 0.00755862 0.0918647 0.886768 -0.63271
O_ O_ 0.539795 0.0366725 0.826962 -0.57982
O_ O_ 0.885705 0.0949636 0.837688 -0.63271
O_ O_ 0.887352 0.100889 0.921024 -0.57982
O_ O_ 0.735874 0.409252 0.585573 -0.63271
O_ O_ 0.702148 0.345824 0.542023 -0.57982
O_ O_ 0.842934 0.348581 0.596583 -0.63271
O_ O_ 0.871585 0.425226 0.592033 -0.57982
O_ O_ 0.481341 0.419422 0.594604 -0.63271
O_ O_ 0.947589 0.460498 0.655871 -0.57982
O_ O_ 0.598834 0.407628 0.646359 -0.63271
O_ O_ 0.626253 0.41397 0.569813 -0.57982
O_ O_ 0.764873 0.0957671 0.900453 -0.63271
O_ O_ 0.797527 0.152901 0.958985 -0.57982
O_ O_ 0.652696 0.149437 0.888919 -0.63271
O_ O_ 0.614172 0.081009 0.897801 -0.57982
F_ F_ 0.93143 0.324165 0.933968 -0.20885
F_ F_ 0.917993 0.311407 0.849384 -0.20885
F_ F_ 0.858694 0.294187 0.897907 -0.20885
F_ F_ 0.810008 0.425761 0.828617 -0.20885
F_ F_ 0.823098 0.338684 0.818561 -0.20885
F_ F_ 0.872474 0.391539 0.791129 -0.20885
F_ F_ 0.574663 0.169703 0.557622 -0.20885
F_ F_ 0.580578 0.185948 0.64113 -0.20885
F_ F_ 0.648327 0.19099 0.594932 -0.20885
F_ F_ 0.685299 0.061676 0.667374 -0.20885
F_ F_ 0.693401 0.144497 0.673387 -0.20885
F_ F_ 0.619978 0.117073 0.693971 -0.20885
Zn Zn 0.585182 0.585404 0.353824 0.83971
Zn Zn 0.657826 0.836593 0.0795292 0.83971
Zn Zn 0.907752 0.91357 0.152906 0.83971
Zn Zn 0.841101 0.657889 0.414576 0.83971
H_ H_ 0.673443 0.6275 0.323188 0.10394
H_ H_ 0.753984 0.589262 0.28953 0.10394
H_ H_ 0.724248 0.950359 0.300734 0.10394
H_ H_ 0.615454 0.482549 0.304072 0.10394
H_ H_ 0.0223195 0.589938 0.255419 0.10394
H_ H_ 0.997426 0.659671 0.198448 0.10394
H_ H_ 0.532138 0.772395 0.327743 0.10394
H_ H_ 0.568687 0.694749 0.381411 0.10394
H_ H_ 0.525719 0.941057 0.348668 0.10394
H_ H_ 0.982317 0.86915 0.369528 0.10394
H_ H_ 0.867409 0.978074 0.419018 0.10394
H_ H_ 0.576368 0.799799 0.126469 0.10394
H_ H_ 0.999321 0.764332 0.0930186 0.10394
H_ H_ 0.538416 0.777307 0.44967 0.10394
H_ H_ 0.620777 0.797819 0.974306 0.10394
H_ H_ 0.713485 0.747953 0.105646 0.10394
H_ H_ 0.770791 0.718647 0.175199 0.10394
H_ H_ 0.720687 0.845065 0.268546 0.10394
H_ H_ 0.676696 0.885272 0.187418 0.10394
H_ H_ 0.715858 0.871253 0.443713 0.10394
H_ H_ 0.766569 0.880022 0.380104 0.10394
H_ H_ 0.900076 0.883235 0.483993 0.10394
H_ H_ 0.802101 0.896677 0.159409 0.10394
H_ H_ 0.730598 0.952917 0.188294 0.10394
H_ H_ 0.825858 0.546784 0.274764 0.10394
H_ H_ 0.902787 0.999191 0.241314 0.10394
H_ H_ 0.517108 0.883467 0.199178 0.10394
H_ H_ 0.558617 0.802761 0.238937 0.10394
H_ H_ 0.912178 0.733775 0.199963 0.10394
H_ H_ 0.868494 0.820344 0.175434 0.10394
H_ H_ 0.964749 0.560542 0.128643 0.10394
H_ H_ 0.513594 0.620488 0.10485 0.10394
H_ H_ 0.637811 0.503245 0.0841112 0.10394
H_ H_ 0.942051 0.654301 0.402367 0.10394
H_ H_ 0.516752 0.687504 0.456208 0.10394
H_ H_ 0.904131 0.798293 0.0144252 0.10394
H_ H_ 0.842631 0.746143 0.49152 0.10394
H_ H_ 0.736553 0.703867 0.381403 0.10394
H_ H_ 0.69662 0.74399 0.30562 0.10394
H_ H_ 0.843428 0.740321 0.251343 0.10394
H_ H_ 0.881526 0.697032 0.324167 0.10394
H_ H_ 0.789003 0.600208 0.0574416 0.10394
H_ H_ 0.728529 0.604625 0.120598 0.10394
H_ H_ 0.60104 0.599232 0.00734754 0.10394
C_ C_ 0.676718 0.588726 0.310547 0.18167
C_ C_ 0.721931 0.569048 0.285323 -0.15533
C_ C_ 0.727818 0.517566 0.267172 0.02923
C_ C_ 0.707366 0.989173 0.295578 -0.15533
C_ C_ 0.644288 0.508211 0.298469 0.18167
C_ C_ 0.53283 0.634511 0.270055 0.18167
C_ C_ 0.00795279 0.667717 0.239202 -0.15533
C_ C_ 0.51015 0.723732 0.262766 0.02923
C_ C_ 0.530013 0.732721 0.314096 -0.15533
C_ C_ 0.556425 0.690986 0.34274 0.18167
C_ C_ 0.503869 0.550502 0.379698 0.69207
C_ C_ 0.980637 -0.00418099999999999 0.374144 0.02923
C_ C_ -0.002578999999999998 0.943583 0.365934 -0.15533
C_ C_ 0.966093 0.908636 0.375148 -0.15533
C_ C_ 0.917843 0.920033 0.389936 0.02923
C_ C_ 0.902307 0.970363 0.402165 -0.15533
C_ C_ 0.930816 0.0099286 0.390281 0.02923
C_ C_ 0.889559 0.572928 0.376109 0.69207
C_ C_ 0.896766 0.826031 0.374572 0.69661
C_ C_ 0.566822 0.797296 0.0849857 0.18167
C_ C_ 0.520427 0.778903 0.0667913 -0.15533
C_ C_ 0.513923 0.760329 0.0149513 0.02923
C_ C_ 0.547848 0.784691 0.491638 -0.15533
C_ C_ 0.591592 0.792314 0.00151191 0.18167
C_ C_ 0.716915 0.772774 0.139991 0.18167
C_ C_ 0.745207 0.752108 0.1813 -0.15533
C_ C_ 0.747234 0.77747 0.229823 0.02923
C_ C_ 0.718251 0.825204 0.231928 -0.15533
C_ C_ 0.691249 0.846881 0.186694 0.18167
C_ C_ 0.739739 0.874567 0.0445886 0.69207
C_ C_ 0.778634 0.867255 0.504794 0.02923
C_ C_ 0.758197 0.866891 0.454502 -0.15533
C_ C_ 0.786968 0.879174 0.415761 -0.15533
C_ C_ 0.83998 0.882483 0.424021 0.02923
C_ C_ 0.860937 0.882929 0.474228 -0.15533
C_ C_ 0.831637 0.877062 0.514613 0.02923
C_ C_ 0.851129 0.894902 0.068671 0.69207
C_ C_ 0.846782 0.89383 0.330271 0.69661
C_ C_ 0.809785 0.931581 0.185219 0.18167
C_ C_ 0.768549 0.95723 0.20609 -0.15533
C_ C_ 0.77769 0.996242 0.243949 0.02923
C_ C_ 0.819341 0.513771 0.251772 -0.15533
C_ C_ 0.865229 0.98756 0.228543 0.18167
C_ C_ 0.987571 0.850519 0.206988 0.18167
C_ C_ 0.519413 0.806975 0.227778 -0.15533
C_ C_ 0.984453 0.762712 0.227229 0.02923
C_ C_ 0.933577 0.768006 0.203467 -0.15533
C_ C_ 0.910475 0.815291 0.183816 0.18167
C_ C_ 0.989775 0.946549 0.121447 0.69207
C_ C_ 0.519546 0.494525 0.119647 0.02923
C_ C_ 0.496248 0.544656 0.111393 -0.15533
C_ C_ 0.530155 0.581959 0.10727 -0.15533
C_ C_ 0.58227 0.567734 0.096267 0.02923
C_ C_ 0.599109 0.514587 0.0927698 -0.15533
C_ C_ 0.569267 0.47742 0.106258 0.02923
C_ C_ 0.599671 0.919644 0.105227 0.69207
C_ C_ 0.601153 0.661879 0.111387 0.69661
C_ C_ 0.937441 0.679098 0.435523 0.18167
C_ C_ 0.979302 0.70059 0.45916 -0.15533
C_ C_ 0.972155 0.743073 0.494299 0.02923
C_ C_ 0.914608 0.762828 0.99831095 -0.15533
C_ C_ 0.8818 0.732539 0.483101 0.18167
C_ C_ 0.760544 0.709364 0.350448 0.18167
C_ C_ 0.73707 0.737049 0.310712 -0.15533
C_ C_ 0.768548 0.749019 0.274222 0.02923
C_ C_ 0.820198 0.729035 0.278016 -0.15533
C_ C_ 0.841868 0.706004 0.321436 0.18167
C_ C_ 0.762497 0.629978 0.456387 0.69207
C_ C_ 0.728053 0.602739 0.991995 0.02923
C_ C_ 0.747697 0.596584 0.0436523 -0.15533
C_ C_ 0.714831 0.598202 0.081047 -0.15533
C_ C_ 0.66126 0.602069 0.0666539 0.02923
C_ C_ 0.643228 0.596433 0.0166218 -0.15533
C_ C_ 0.675067 0.603105 0.977397 0.02923
C_ C_ 0.651965 0.609768 0.431309 0.69207
C_ C_ 0.649074 0.59827 0.164113 0.69661
C_ C_ 0.87637 0.882981 0.380919 -0.30787
C_ C_ 0.62376 0.605019 0.107717 -0.30787
N_ N_ 0.637417 0.559317 0.311902 -0.32189
N_ N_ 0.552669 0.644242 0.319429 -0.32189
N_ N_ 0.602929 0.800658 0.0520876 -0.32189
N_ N_ 0.686883 0.817486 0.144577 -0.32189
N_ N_ 0.856975 0.949169 0.191938 -0.32189
N_ N_ 0.939752 0.852947 0.18171 -0.32189
N_ N_ 0.890235 0.698534 0.442554 -0.32189
N_ N_ 0.811293 0.69309 0.355647 -0.32189
O_ O_ 0.00336579 0.582352 0.399404 -0.63271
O_ O_ 0.537464 0.54348 0.347405 -0.57982
O_ O_ 0.892177 0.600151 0.338997 -0.63271
O_ O_ 0.862327 0.593175 0.415452 -0.57982
O_ O_ 0.737407 0.903563 0.0869038 -0.63271
O_ O_ 0.709879 0.83572 0.0377257 -0.57982
O_ O_ 0.850671 0.852264 0.0911501 -0.63271
O_ O_ 0.880793 0.928596 0.0905603 -0.57982
O_ O_ 0.493378 0.901693 0.0969857 -0.63271
O_ O_ 0.956299 0.954814 0.155339 -0.57982
O_ O_ 0.593733 0.892794 0.144884 -0.63271
O_ O_ 0.632773 0.900846 0.0728947 -0.57982
O_ O_ 0.761548 0.600274 0.414217 -0.63271
O_ O_ 0.792075 0.66819 0.461169 -0.57982
O_ O_ 0.649723 0.65286 0.407198 -0.63271
O_ O_ 0.623949 0.574588 0.414297 -0.57982
F_ F_ 0.93522 0.810743 0.409542 -0.20885
F_ F_ 0.91554 0.809134 0.329496 -0.20885
F_ F_ 0.863712 0.791622 0.382242 -0.20885
F_ F_ 0.821307 0.942414 0.337075 -0.20885
F_ F_ 0.81544 0.855821 0.310586 -0.20885
F_ F_ 0.877812 0.896417 0.290104 -0.20885
F_ F_ 0.563583 0.670882 0.0731093 -0.20885
F_ F_ 0.572637 0.676146 0.154002 -0.20885
F_ F_ 0.638754 0.696545 0.115174 -0.20885
F_ F_ 0.682026 0.552964 0.166472 -0.20885
F_ F_ 0.678821 0.636794 0.18181 -0.20885
F_ F_ 0.614452 0.596783 0.201168 -0.20885
Zn Zn 0.580228 0.584616 0.848834 0.83971
Zn Zn 0.663004 0.844568 0.586321 0.83971
Zn Zn 0.910635 0.913964 0.64974 0.83971
Zn Zn 0.84083 0.646952 0.918922 0.83971
H_ H_ 0.659252 0.632468 0.813086 0.10394
H_ H_ 0.740536 0.602053 0.776623 0.10394
H_ H_ 0.717938 0.940417 0.788277 0.10394
H_ H_ 0.625751 0.474601 0.823136 0.10394
H_ H_ 0.0294659 0.597029 0.758443 0.10394
H_ H_ 0.988814 0.676082 0.707704 0.10394
H_ H_ 0.530911 0.770851 0.825086 0.10394
H_ H_ 0.562527 0.694003 0.877872 0.10394
H_ H_ 0.531639 0.94734 0.860937 0.10394
H_ H_ 0.988669 0.882943 0.906855 0.10394
H_ H_ 0.850611 0.991515 0.891923 0.10394
H_ H_ 0.585397 0.796457 0.635359 0.10394
H_ H_ 0.008329999999999949 0.76257 0.59764 0.10394
H_ H_ 0.538405 0.770783 0.939707 0.10394
H_ H_ 0.619765 0.821583 0.485572 0.10394
H_ H_ 0.722571 0.740307 0.599897 0.10394
H_ H_ 0.768133 0.705511 0.669471 0.10394
H_ H_ 0.713417 0.837626 0.765507 0.10394
H_ H_ 0.681988 0.875499 0.68715 0.10394
H_ H_ 0.721964 0.852005 0.940935 0.10394
H_ H_ 0.77767 0.857766 0.875824 0.10394
H_ H_ 0.88599 0.922579 0.986016 0.10394
H_ H_ 0.814787 0.885553 0.662538 0.10394
H_ H_ 0.739577 0.932818 0.699404 0.10394
H_ H_ 0.828976 0.54725 0.78708 0.10394
H_ H_ 0.90419 1.00114528 0.727132 0.10394
H_ H_ 0.513475 0.881041 0.697642 0.10394
H_ H_ 0.550511 0.811446 0.746774 0.10394
H_ H_ 0.913291 0.755166 0.734178 0.10394
H_ H_ 0.876162 0.824809 0.683874 0.10394
H_ H_ 0.957684 0.554595 0.62875 0.10394
H_ H_ 0.521821 0.62546 0.619296 0.10394
H_ H_ 0.643078 0.512171 0.585626 0.10394
H_ H_ 0.945907 0.620432 0.957104 0.10394
H_ H_ 0.51263 0.682493 0.943881 0.10394
H_ H_ 0.91457 0.785358 0.538103 0.10394
H_ H_ 0.83786 0.75184 0.964695 0.10394
H_ H_ 0.736765 0.67631 0.872374 0.10394
H_ H_ 0.695011 0.723781 0.799353 0.10394
H_ H_ 0.843666 0.715969 0.747491 0.10394
H_ H_ 0.885791 0.690178 0.833808 0.10394
H_ H_ 0.781018 0.643677 0.558286 0.10394
H_ H_ 0.735266 0.619717 0.624715 0.10394
H_ H_ 0.609199 0.591007 0.511356 0.10394
C_ C_ 0.664409 0.590883 0.80066 0.18167
C_ C_ 0.713887 0.574629 0.786268 -0.15533
C_ C_ 0.730347 0.522513 0.781697 0.02923
C_ C_ 0.705935 0.982672 0.790957 -0.15533
C_ C_ 0.649325 0.504913 0.811997 0.18167
C_ C_ 0.534443 0.633646 0.763296 0.18167
C_ C_ 0.00700371 0.680115 0.747204 -0.15533
C_ C_ 0.512715 0.724914 0.757826 0.02923
C_ C_ 0.536345 0.732421 0.807216 -0.15533
C_ C_ 0.551639 0.688963 0.836549 0.18167
C_ C_ 0.500786 0.547624 0.867676 0.69207
C_ C_ 0.97422 0.00665688 0.875721 0.02923
C_ C_ -0.005978999999999957 0.955627 0.880524 -0.15533
C_ C_ 0.967589 0.920553 0.896175 -0.15533
C_ C_ 0.911633 0.931615 0.891331 0.02923
C_ C_ 0.891623 0.981491 0.887236 -0.15533
C_ C_ 0.922703 0.0199178 0.882466 0.02923
C_ C_ 0.898313 0.565465 0.88589 0.69207
C_ C_ 0.905086 0.835571 0.888145 0.69661
C_ C_ 0.572943 0.800831 0.595128 0.18167
C_ C_ 0.527522 0.780065 0.577176 -0.15533
C_ C_ 0.514707 0.772901 0.52548 0.02923
C_ C_ 0.544806 0.776807 0.980774 -0.15533
C_ C_ 0.594382 0.806995 0.510998 0.18167
C_ C_ 0.721105 0.760517 0.636388 0.18167
C_ C_ 0.742616 0.738094 0.678034 -0.15533
C_ C_ 0.743266 0.764284 0.727257 0.02923
C_ C_ 0.720455 0.814516 0.730192 -0.15533
C_ C_ 0.697795 0.836132 0.68564 0.18167
C_ C_ 0.742574 0.866286 0.54595 0.69207
C_ C_ 0.77262 0.887514 1.00394777 0.02923
C_ C_ 0.757037 0.871773 0.952036 -0.15533
C_ C_ 0.786336 0.879517 0.912142 -0.15533
C_ C_ 0.835918 0.894096 0.924629 0.02923
C_ C_ 0.852121 0.90711 0.977069 -0.15533
C_ C_ 0.822054 0.901257 0.0167055 0.02923
C_ C_ 0.857459 0.879296 0.568033 0.69207
C_ C_ 0.851437 0.888336 0.829616 0.69661
C_ C_ 0.816792 0.928069 0.68005 0.18167
C_ C_ 0.774251 0.952548 0.700025 -0.15533
C_ C_ 0.777501 -0.006761000000000017 0.736412 0.02923
C_ C_ 0.820889 0.519289 0.756074 -0.15533
C_ C_ 0.866595 0.990887 0.719129 0.18167
C_ C_ 0.993933 0.858073 0.696186 0.18167
C_ C_ 0.51472 0.809207 0.725876 -0.15533
C_ C_ 0.9901 0.775629 0.738692 0.02923
C_ C_ 0.938539 0.779527 0.7214 -0.15533
C_ C_ 0.916045 0.822783 0.694045 0.18167
C_ C_ 0.983254 0.953822 0.61201 0.69207
C_ C_ 0.522514 0.498401 0.619077 0.02923
C_ C_ 0.504615 0.551024 0.624597 -0.15533
C_ C_ 0.537046 0.588161 0.616378 -0.15533
C_ C_ 0.587878 0.575163 0.604583 0.02923
C_ C_ 0.604658 0.523067 0.592663 -0.15533
C_ C_ 0.571008 0.485436 0.601256 0.02923
C_ C_ 0.596878 0.925737 0.615033 0.69207
C_ C_ 0.604938 0.669632 0.615016 0.69661
C_ C_ 0.937979 0.662911 0.960281 0.18167
C_ C_ 0.977575 0.690985 0.977927 -0.15533
C_ C_ 0.96518 0.742655 0.996735 0.02923
C_ C_ 0.921076 0.758526 0.508141 -0.15533
C_ C_ 0.876862 0.734094 0.971512 0.18167
C_ C_ 0.761061 0.695085 0.852375 0.18167
C_ C_ 0.737961 0.723021 0.809638 -0.15533
C_ C_ 0.769115 0.73612 0.772967 0.02923
C_ C_ 0.821782 0.721963 0.78068 -0.15533
C_ C_ 0.843783 0.701114 0.826516 0.18167
C_ C_ 0.762098 0.611113 0.952748 0.69207
C_ C_ 0.726992 0.623421 0.496042 0.02923
C_ C_ 0.744541 0.630562 0.546281 -0.15533
C_ C_ 0.717138 0.618149 0.58509 -0.15533
C_ C_ 0.666624 0.607975 0.57267 0.02923
C_ C_ 0.648062 0.597892 0.521735 -0.15533
C_ C_ 0.676121 0.609519 0.483427 0.02923
C_ C_ 0.649467 0.60559 0.924703 0.69207
C_ C_ 0.652959 0.605808 0.670553 0.69661
C_ C_ 0.875066 0.889713 0.884655 -0.30787
C_ C_ 0.627643 0.613646 0.614608 -0.30787
N_ N_ 0.63512 0.555966 0.814794 -0.32189
N_ N_ 0.553428 0.641935 0.812785 -0.32189
N_ N_ 0.604775 0.812109 0.562035 -0.32189
N_ N_ 0.697413 0.808581 0.639501 -0.32189
N_ N_ 0.863548 0.946753 0.691696 -0.32189
N_ N_ 0.943968 0.859386 0.682999 -0.32189
N_ N_ 0.889941 0.686297 0.953184 -0.32189
N_ N_ 0.813043 0.683799 0.858947 -0.32189
O_ O_ 1.00584824 0.582542 0.901865 -0.63271
O_ O_ 0.535225 0.539579 0.834291 -0.57982
O_ O_ 0.901728 0.593977 0.848544 -0.63271
O_ O_ 0.870591 0.582934 0.921781 -0.57982
O_ O_ 0.75625 0.883367 0.593091 -0.63271
O_ O_ 0.703617 0.838132 0.539038 -0.57982
O_ O_ 0.864208 0.838542 0.593934 -0.63271
O_ O_ 0.876833 0.91879 0.587058 -0.57982
O_ O_ 0.487443 0.91389 0.590735 -0.63271
O_ O_ 0.953461 0.964451 0.647313 -0.57982
O_ O_ 0.589846 0.898439 0.652519 -0.63271
O_ O_ 0.635257 0.909757 0.58792 -0.57982
O_ O_ 0.755087 0.588328 0.906914 -0.63271
O_ O_ 0.793593 0.647767 0.96157 -0.57982
O_ O_ 0.643716 0.651344 0.904542 -0.63271
O_ O_ 0.615697 0.573605 0.909879 -0.57982
F_ F_ 0.935894 0.831462 0.937469 -0.20885
F_ F_ 0.937113 0.823933 0.851831 -0.20885
F_ F_ 0.872352 0.798788 0.883137 -0.20885
F_ F_ 0.820961 0.933472 0.821974 -0.20885
F_ F_ 0.827942 0.845075 0.808857 -0.20885
F_ F_ 0.890012 0.887084 0.797267 -0.20885
F_ F_ 0.569486 0.67317 0.573541 -0.20885
F_ F_ 0.586137 0.683537 0.658398 -0.20885
F_ F_ 0.642961 0.70219 0.613292 -0.20885
F_ F_ 0.683125 0.558767 0.674499 -0.20885
F_ F_ 0.684677 0.640315 0.686932 -0.20885
F_ F_ 0.617529 0.608267 0.703374 -0.20885
