_cell_length_a 26.508
_cell_length_b 26.37200000322088
_cell_length_c 26.311999743092066
_cell_angle_alpha 93.74100058972084
_cell_angle_beta 96.04100104955006
_cell_angle_gamma 83.6869992558723
_symmetry_space_group_name_H-M         'P 1'
_symmetry_Int_Tables_number            1
loop_
_symmetry_equiv_pos_as_xyz
   'x, y, z'
                         
loop_
_atom_site_label
_atom_site_type_symbol
_atom_site_fract_x 
_atom_site_fract_y
_atom_site_fract_z
_atom_site_charge
Zn Zn 0.0804981 0.0890477 0.350017 0.83971
Zn Zn 0.16192 0.344407 0.0815605 0.83971
Zn Zn 0.404136 0.415007 0.159362 0.83971
Zn Zn 0.338325 0.158568 0.416698 0.83971
H_ H_ 0.157627 0.138978 0.306926 0.10394
H_ H_ 0.237078 0.102716 0.26844 0.10394
H_ H_ 0.216256 0.453651 0.289438 0.10394
H_ H_ 0.125211 0.992762 0.339779 0.10394
H_ H_ 0.529382 0.0997595 0.254077 0.10394
H_ H_ 0.497109 0.173342 0.204709 0.10394
H_ H_ 0.0227165 0.273573 0.336224 0.10394
H_ H_ 0.0649674 0.196261 0.377559 0.10394
H_ H_ 0.0223553 0.438326 0.334764 0.10394
H_ H_ 0.483967 0.374995 0.362477 0.10394
H_ H_ 0.359432 0.484728 0.400141 0.10394
H_ H_ 0.081617 0.309904 0.130203 0.10394
H_ H_ 0.498715 0.273267 0.0938199 0.10394
H_ H_ 0.0394174 0.28536 0.445401 0.10394
H_ H_ 0.12819 0.306832 0.981582 0.10394
H_ H_ 0.21873 0.253953 0.0972576 0.10394
H_ H_ 0.25702 0.201477 0.173981 0.10394
H_ H_ 0.219729 0.336084 0.270067 0.10394
H_ H_ 0.186487 0.382119 0.19303 0.10394
H_ H_ 0.221327 0.36391 0.443613 0.10394
H_ H_ 0.272841 0.365837 0.37297 0.10394
H_ H_ 0.398352 0.398996 0.480004 0.10394
H_ H_ 0.300251 0.409324 0.160409 0.10394
H_ H_ 0.225716 0.465442 0.186845 0.10394
H_ H_ 0.316587 0.0559174 0.281142 0.10394
H_ H_ 0.400276 0.513344 0.233211 0.10394
H_ H_ 0.00857557 0.390751 0.20703 0.10394
H_ H_ 0.0524469 0.310119 0.242998 0.10394
H_ H_ 0.414781 0.230664 0.213917 0.10394
H_ H_ 0.3634 0.309434 0.181369 0.10394
H_ H_ 0.45857 0.0579569 0.110486 0.10394
H_ H_ 0.00871314 0.118928 0.0940691 0.10394
H_ H_ 0.131383 0.00287368 0.0687884 0.10394
H_ H_ 0.440593 0.164931 0.397279 0.10394
H_ H_ 0.016879 0.183754 0.456077 0.10394
H_ H_ 0.409534 0.278901 0.0411838 0.10394
H_ H_ 0.350972 0.229934 0.512001 0.10394
H_ H_ 0.235445 0.196759 0.384697 0.10394
H_ H_ 0.194103 0.239243 0.305564 0.10394
H_ H_ 0.339647 0.223384 0.245231 0.10394
H_ H_ 0.371647 0.168491 0.314211 0.10394
H_ H_ 0.282999 0.130491 0.0484054 0.10394
H_ H_ 0.228943 0.130478 0.114492 0.10394
H_ H_ 0.111991 0.0831049 0.00571905 0.10394
C_ C_ 0.168258 0.0972129 0.302223 0.18167
C_ C_ 0.214231 0.0757624 0.280722 -0.15533
C_ C_ 0.226879 0.0208114 0.277205 0.02923
C_ C_ 0.203817 0.492583 0.293685 -0.15533
C_ C_ 0.148392 0.0148965 0.318928 0.18167
C_ C_ 0.0225105 0.138255 0.266312 0.18167
C_ C_ 0.511463 0.177927 0.243027 -0.15533
C_ C_ 0.0005599999999998939 0.230139 0.264756 0.02923
C_ C_ 0.0215235 0.236323 0.314748 -0.15533
C_ C_ 0.0431076 0.193409 0.341515 0.18167
C_ C_ -0.0023940000000000072 0.0554426 0.369546 0.69207
C_ C_ 0.478921 0.501984 0.368752 0.02923
C_ C_ 0.498982 0.45127 0.36773 -0.15533
C_ C_ 0.468445 0.411007 0.374295 -0.15533
C_ C_ 0.416739 0.421123 0.384965 0.02923
C_ C_ 0.398282 0.472098 0.389363 -0.15533
C_ C_ 0.427299 0.511871 0.378088 0.02923
C_ C_ 0.395029 0.067033 0.394764 0.69207
C_ C_ 0.403104 0.325322 0.377526 0.69661
C_ C_ 0.0757661 0.299909 0.0895553 0.18167
C_ C_ 0.0299286 0.279911 0.0705405 -0.15533
C_ C_ 0.0193588 0.271487 0.0187692 0.02923
C_ C_ 0.0514539 0.287295 0.486853 -0.15533
C_ C_ 0.0996142 0.298811 0.0053221 0.18167
C_ C_ 0.224941 0.271403 0.134679 0.18167
C_ C_ 0.240998 0.241269 0.176907 -0.15533
C_ C_ 0.241642 0.266426 0.226539 0.02923
C_ C_ 0.222509 0.318736 0.231391 -0.15533
C_ C_ 0.202773 0.343313 0.188031 0.18167
C_ C_ 0.244198 0.369255 0.0445598 0.69207
C_ C_ 0.279952 0.372344 0.505117 0.02923
C_ C_ 0.260988 0.367594 0.452064 -0.15533
C_ C_ 0.28953 0.375839 0.41225 -0.15533
C_ C_ 0.342227 0.382175 0.42125 0.02923
C_ C_ 0.361873 0.387102 0.472885 -0.15533
C_ C_ 0.333495 0.37831 0.514718 0.02923
C_ C_ 0.355175 0.385357 0.0721419 0.69207
C_ C_ 0.349577 0.386195 0.323773 0.69661
C_ C_ 0.306777 0.441414 0.18584 0.18167
C_ C_ 0.264814 0.472986 0.203918 -0.15533
C_ C_ 0.274028 0.510491 0.244463 0.02923
C_ C_ 0.312883 0.0237022 0.252065 -0.15533
C_ C_ 0.36367 0.498316 0.227236 0.18167
C_ C_ 0.476844 0.357239 0.221029 0.18167
C_ C_ 0.0109373 0.314247 0.233415 -0.15533
C_ C_ 0.480034 0.269935 0.240994 0.02923
C_ C_ 0.429696 0.267778 0.217878 -0.15533
C_ C_ 0.40234 0.31281 0.198938 0.18167
C_ C_ 0.487422 0.449156 0.129761 0.69207
C_ C_ 0.0181087 0.993594 0.116371 0.02923
C_ C_ -0.000532176 0.0460509 0.117922 -0.15533
C_ C_ 0.0292668 0.0824566 0.104817 -0.15533
C_ C_ 0.0799505 0.0677027 0.0920337 0.02923
C_ C_ 0.0942886 0.0166418 0.0811276 -0.15533
C_ C_ 0.0690578 0.979174 0.100567 0.02923
C_ C_ 0.099805 0.420442 0.104541 0.69207
C_ C_ 0.0993542 0.165872 0.0992822 0.69661
C_ C_ 0.435362 0.190592 0.429792 0.18167
C_ C_ 0.478905 0.207604 0.455677 -0.15533
C_ C_ 0.472603 0.243204 0.497492 0.02923
C_ C_ 0.420964 0.24978 0.0115151 -0.15533
C_ C_ 0.383637 0.22836 0.49324 0.18167
C_ C_ 0.256206 0.20134 0.350919 0.18167
C_ C_ 0.233158 0.228178 0.308869 -0.15533
C_ C_ 0.264017 0.235946 0.270555 0.02923
C_ C_ 0.313674 0.212288 0.272234 -0.15533
C_ C_ 0.335222 0.188325 0.315403 0.18167
C_ C_ 0.259096 0.123207 0.456154 0.69207
C_ C_ 0.224331 0.119251 0.989546 0.02923
C_ C_ 0.243028 0.12282 0.0378244 -0.15533
C_ C_ 0.212618 0.119061 0.0752769 -0.15533
C_ C_ 0.162745 0.103892 0.065957 0.02923
C_ C_ 0.144561 0.0985579 0.0145756 -0.15533
C_ C_ 0.171356 0.113694 0.977437 0.02923
C_ C_ 0.150496 0.104665 0.427239 0.69207
C_ C_ 0.146356 0.09676 0.157995 0.69661
C_ C_ 0.377737 0.379922 0.378237 -0.30787
C_ C_ 0.122214 0.107145 0.102365 -0.30787
N_ N_ 0.132843 0.066217 0.313199 -0.32189
N_ N_ 0.0439376 0.146369 0.315393 -0.32189
N_ N_ 0.109283 0.307381 0.0559784 -0.32189
N_ N_ 0.200124 0.319432 0.140603 -0.32189
N_ N_ 0.356204 0.454959 0.196442 -0.32189
N_ N_ 0.429351 0.353222 0.194619 -0.32189
N_ N_ 0.390225 0.198617 0.448229 -0.32189
N_ N_ 0.305705 0.184297 0.354545 -0.32189
O_ O_ 0.506322 0.0919951 0.398153 -0.63271
O_ O_ 0.03285 0.043353 0.340766 -0.57982
O_ O_ 0.396369 0.0848881 0.348836 -0.63271
O_ O_ 0.36607 0.0919083 0.427888 -0.57982
O_ O_ 0.241961 0.400323 0.0858451 -0.63271
O_ O_ 0.207637 0.338902 0.0339119 -0.57982
O_ O_ 0.359371 0.342125 0.0975607 -0.63271
O_ O_ 0.373923 0.425578 0.0958979 -0.57982
O_ O_ 0.993011 0.402017 0.110697 -0.63271
O_ O_ 0.453799 0.460024 0.161109 -0.57982
O_ O_ 0.101708 0.396105 0.14858 -0.63271
O_ O_ 0.134212 0.406694 0.0755662 -0.57982
O_ O_ 0.256734 0.0999975 0.408098 -0.63271
O_ O_ 0.295967 0.15374 0.466646 -0.57982
O_ O_ 0.147413 0.14704 0.403409 -0.63271
O_ O_ 0.115667 0.0753953 0.40909 -0.57982
F_ F_ 0.441829 0.314797 0.415939 -0.20885
F_ F_ 0.426619 0.313108 0.331844 -0.20885
F_ F_ 0.368912 0.290217 0.378601 -0.20885
F_ F_ 0.317321 0.429055 0.322037 -0.20885
F_ F_ 0.32033 0.345555 0.308594 -0.20885
F_ F_ 0.382842 0.388456 0.290942 -0.20885
F_ F_ 0.0669088 0.170738 0.0556513 -0.20885
F_ F_ 0.0706127 0.17912 0.138918 -0.20885
F_ F_ 0.134114 0.202071 0.0966129 -0.20885
F_ F_ 0.177761 0.0525751 0.165989 -0.20885
F_ F_ 0.175036 0.134122 0.178972 -0.20885
F_ F_ 0.108906 0.0966437 0.190522 -0.20885
Zn Zn 0.0936918 0.087009 0.84484 0.83971
Zn Zn 0.163903 0.345523 0.579769 0.83971
Zn Zn 0.408783 0.41845 0.651082 0.83971
Zn Zn 0.337323 0.153218 0.911955 0.83971
H_ H_ 0.183527 0.126997 0.810093 0.10394
H_ H_ 0.257551 0.0922788 0.765862 0.10394
H_ H_ 0.215331 0.448759 0.785695 0.10394
H_ H_ 0.131371 0.983863 0.818361 0.10394
H_ H_ 0.529503 0.0979007 0.745779 0.10394
H_ H_ 0.489538 0.172624 0.695817 0.10394
H_ H_ 0.0220579 0.272296 0.826708 0.10394
H_ H_ 0.0831424 0.205307 0.866344 0.10394
H_ H_ 0.0355318 0.44438 0.867409 0.10394
H_ H_ 0.482953 0.373113 0.874311 0.10394
H_ H_ 0.363247 0.491064 0.914825 0.10394
H_ H_ 0.0867398 0.304665 0.633496 0.10394
H_ H_ 0.506516 0.264634 0.601354 0.10394
H_ H_ 0.0462 0.276576 0.944092 0.10394
H_ H_ 0.125935 0.313802 0.481951 0.10394
H_ H_ 0.211876 0.250783 0.586075 0.10394
H_ H_ 0.255006 0.196494 0.660797 0.10394
H_ H_ 0.234652 0.328596 0.76249 0.10394
H_ H_ 0.190054 0.373986 0.694677 0.10394
H_ H_ 0.215733 0.39148 0.949625 0.10394
H_ H_ 0.265686 0.405646 0.882173 0.10394
H_ H_ 0.39637 0.409576 0.985133 0.10394
H_ H_ 0.308749 0.395688 0.669964 0.10394
H_ H_ 0.234511 0.452914 0.688513 0.10394
H_ H_ 0.334205 0.0406886 0.776353 0.10394
H_ H_ 0.404325 0.505151 0.724259 0.10394
H_ H_ 0.0177097 0.370726 0.67775 0.10394
H_ H_ 0.0525451 0.299896 0.734953 0.10394
H_ H_ 0.411127 0.247929 0.711014 0.10394
H_ H_ 0.370892 0.325081 0.682794 0.10394
H_ H_ 0.46606 0.0576667 0.618889 0.10394
H_ H_ 0.0084129 0.113333 0.582856 0.10394
H_ H_ 0.142951 0.0075967 0.594576 0.10394
H_ H_ 0.436474 0.167995 0.890833 0.10394
H_ H_ 0.0122523 0.202982 0.931493 0.10394
H_ H_ 0.411859 0.289614 0.537399 0.10394
H_ H_ 0.342963 0.224542 0.00823457 0.10394
H_ H_ 0.236753 0.193879 0.878981 0.10394
H_ H_ 0.195785 0.23537 0.798125 0.10394
H_ H_ 0.33812 0.217006 0.732277 0.10394
H_ H_ 0.379953 0.182672 0.817663 0.10394
H_ H_ 0.278943 0.1263 0.555753 0.10394
H_ H_ 0.222179 0.116167 0.619387 0.10394
H_ H_ 0.100245 0.0938856 0.506371 0.10394
C_ C_ 0.186858 0.0867017 0.797078 0.18167
C_ C_ 0.232632 0.0642153 0.776603 -0.15533
C_ C_ 0.239635 0.0106043 0.76884 0.02923
C_ C_ 0.209715 0.48725 0.795136 -0.15533
C_ C_ 0.157102 0.007022 0.803693 0.18167
C_ C_ 0.0214941 0.133708 0.772911 0.18167
C_ C_ 0.506185 0.177724 0.73588 -0.15533
C_ C_ -0.00154387 0.225295 0.764294 0.02923
C_ C_ 0.024074 0.232762 0.812365 -0.15533
C_ C_ 0.0594759 0.194982 0.833449 0.18167
C_ C_ 0.0091232 0.050087 0.87077 0.69207
C_ C_ 0.475665 0.502941 0.872029 0.02923
C_ C_ 0.496747 0.448859 0.871689 -0.15533
C_ C_ 0.464609 0.411149 0.878294 -0.15533
C_ C_ 0.413654 0.425426 0.889184 0.02923
C_ C_ 0.396816 0.478571 0.893204 -0.15533
C_ C_ 0.425535 0.516356 0.883211 0.02923
C_ C_ 0.394625 0.0726781 0.88671 0.69207
C_ C_ 0.397856 0.333684 0.887611 0.69661
C_ C_ 0.0764871 0.303779 0.592313 0.18167
C_ C_ 0.0305833 0.286544 0.57614 -0.15533
C_ C_ 0.0187095 0.273407 0.523261 0.02923
C_ C_ 0.0560569 0.279701 0.985451 -0.15533
C_ C_ 0.0990057 0.303883 0.50646 0.18167
C_ C_ 0.217534 0.267227 0.625099 0.18167
C_ C_ 0.239116 0.236438 0.665562 -0.15533
C_ C_ 0.240253 0.257114 0.715655 0.02923
C_ C_ 0.22513 0.30833 0.725562 -0.15533
C_ C_ 0.199762 0.336293 0.686484 0.18167
C_ C_ 0.245551 0.368646 0.544749 0.69207
C_ C_ 0.278505 0.379439 0.00595833 0.02923
C_ C_ 0.256929 0.384352 0.95662 -0.15533
C_ C_ 0.285889 0.390241 0.916794 -0.15533
C_ C_ 0.337512 0.398483 0.92747 0.02923
C_ C_ 0.358072 0.397297 0.977792 -0.15533
C_ C_ 0.328816 0.388455 0.0187841 0.02923
C_ C_ 0.35878 0.380542 0.567822 0.69207
C_ C_ 0.348351 0.394902 0.829489 0.69661
C_ C_ 0.312422 0.434343 0.684533 0.18167
C_ C_ 0.269211 0.463073 0.700964 -0.15533
C_ C_ 0.277933 0.502586 0.739641 0.02923
C_ C_ 0.328177 0.0115843 0.745312 -0.15533
C_ C_ 0.364997 0.497274 0.713962 0.18167
C_ C_ 0.490418 0.358425 0.705387 0.18167
C_ C_ 0.013245 0.303442 0.720654 -0.15533
C_ C_ 0.483555 0.275796 0.73593 0.02923
C_ C_ 0.435475 0.279045 0.71271 -0.15533
C_ C_ 0.411998 0.323039 0.692463 0.18167
C_ C_ 0.485811 0.451722 0.617096 0.69207
C_ C_ 0.021061 0.989731 0.612011 0.02923
C_ C_ 0.0002500000000000835 0.0408126 0.607205 -0.15533
C_ C_ 0.0297785 0.0793429 0.596573 -0.15533
C_ C_ 0.0824198 0.0693412 0.598191 0.02923
C_ C_ 0.101587 0.0187387 0.593982 -0.15533
C_ C_ 0.0722565 0.978409 0.604059 0.02923
C_ C_ 0.0957668 0.422784 0.598054 0.69207
C_ C_ 0.0916727 0.164893 0.604059 0.69661
C_ C_ 0.431181 0.191008 0.924368 0.18167
C_ C_ 0.47384 0.208616 0.950429 -0.15533
C_ C_ 0.471069 0.238887 0.995268 0.02923
C_ C_ 0.424259 0.251905 0.515974 -0.15533
C_ C_ 0.379851 0.223012 0.989322 0.18167
C_ C_ 0.257583 0.192491 0.843561 0.18167
C_ C_ 0.23459 0.215013 0.798078 -0.15533
C_ C_ 0.265108 0.226543 0.75988 0.02923
C_ C_ 0.318092 0.216931 0.767803 -0.15533
C_ C_ 0.339423 0.194617 0.813452 0.18167
C_ C_ 0.258848 0.124447 0.949921 0.69207
C_ C_ 0.22634 0.110712 0.492318 0.02923
C_ C_ 0.242027 0.116513 0.544918 -0.15533
C_ C_ 0.210018 0.110487 0.581391 -0.15533
C_ C_ 0.156349 0.106754 0.567247 0.02923
C_ C_ 0.141089 0.0988319 0.516029 -0.15533
C_ C_ 0.176247 0.0983763 0.478245 0.02923
C_ C_ 0.144545 0.118678 0.925907 0.69207
C_ C_ 0.140837 0.104543 0.665967 0.69661
C_ C_ 0.373437 0.387998 0.884249 -0.30787
C_ C_ 0.11813 0.110059 0.607771 -0.30787
N_ N_ 0.151327 0.0579143 0.810352 -0.32189
N_ N_ 0.0572663 0.146417 0.812789 -0.32189
N_ N_ 0.108868 0.313267 0.557804 -0.32189
N_ N_ 0.194479 0.314869 0.638535 -0.32189
N_ N_ 0.358607 0.451111 0.690943 -0.32189
N_ N_ 0.440316 0.360368 0.685274 -0.32189
N_ N_ 0.384735 0.195855 0.944211 -0.32189
N_ N_ 0.309718 0.184963 0.850527 -0.32189
O_ O_ 0.508115 0.0908737 0.898997 -0.63271
O_ O_ 0.0514688 0.0354992 0.849409 -0.57982
O_ O_ 0.390465 0.0950447 0.842115 -0.63271
O_ O_ 0.37097 0.0939433 0.923213 -0.57982
O_ O_ 0.24911 0.392692 0.589998 -0.63271
O_ O_ 0.211801 0.337089 0.535449 -0.57982
O_ O_ 0.359937 0.344034 0.598331 -0.63271
O_ O_ 0.374602 0.423594 0.586781 -0.57982
O_ O_ 0.980063 0.415678 0.583136 -0.63271
O_ O_ 0.454271 0.462197 0.65098 -0.57982
O_ O_ 0.099921 0.394566 0.637782 -0.63271
O_ O_ 0.131189 0.406605 0.568315 -0.57982
O_ O_ 0.253992 0.097996 0.904829 -0.63271
O_ O_ 0.290112 0.160303 0.957106 -0.57982
O_ O_ 0.157507 0.149702 0.892525 -0.63271
O_ O_ 0.105064 0.0924189 0.912989 -0.57982
F_ F_ 0.437832 0.322119 0.923861 -0.20885
F_ F_ 0.420281 0.314849 0.842435 -0.20885
F_ F_ 0.361913 0.303167 0.892995 -0.20885
F_ F_ 0.318835 0.440279 0.826746 -0.20885
F_ F_ 0.318362 0.357051 0.806439 -0.20885
F_ F_ 0.381018 0.393849 0.79162 -0.20885
F_ F_ 0.0627224 0.172507 0.557916 -0.20885
F_ F_ 0.0550006 0.177336 0.63711 -0.20885
F_ F_ 0.125223 0.200744 0.609847 -0.20885
F_ F_ 0.174124 0.0621495 0.675095 -0.20885
F_ F_ 0.174631 0.142707 0.682041 -0.20885
F_ F_ 0.104074 0.106416 0.699528 -0.20885
Zn Zn 0.0851119 0.583446 0.346398 0.83971
Zn Zn 0.156049 0.845732 0.0865113 0.83971
Zn Zn 0.407017 0.921658 0.168655 0.83971
Zn Zn 0.342942 0.648643 0.413297 0.83971
H_ H_ 0.15661 0.635776 0.304375 0.10394
H_ H_ 0.24182 0.608061 0.276525 0.10394
H_ H_ 0.204961 0.951976 0.302413 0.10394
H_ H_ 0.130656 0.48116 0.317288 0.10394
H_ H_ 0.528205 0.594067 0.244353 0.10394
H_ H_ 0.491693 0.671553 0.195778 0.10394
H_ H_ 0.0237302 0.771226 0.347951 0.10394
H_ H_ 0.0681024 0.696585 0.384606 0.10394
H_ H_ 0.0247025 0.958327 0.36469 0.10394
H_ H_ 0.483829 0.876148 0.390761 0.10394
H_ H_ 0.355444 0.986112 0.412713 0.10394
H_ H_ 0.075244 0.799758 0.135905 0.10394
H_ H_ 0.495411 0.769347 0.103341 0.10394
H_ H_ 0.0403469 0.776511 0.441649 0.10394
H_ H_ 0.1202 0.802271 0.985437 0.10394
H_ H_ 0.213926 0.756466 0.0972229 0.10394
H_ H_ 0.267615 0.713448 0.17192 0.10394
H_ H_ 0.219472 0.842 0.27479 0.10394
H_ H_ 0.169136 0.87795 0.203299 0.10394
H_ H_ 0.215066 0.880649 0.439986 0.10394
H_ H_ 0.268676 0.890112 0.377729 0.10394
H_ H_ 0.394321 0.898009 0.49453 0.10394
H_ H_ 0.306082 0.900083 0.164105 0.10394
H_ H_ 0.228812 0.939512 0.206142 0.10394
H_ H_ 0.33243 0.556906 0.277859 0.10394
H_ H_ 0.39189 0.0151132 0.236313 0.10394
H_ H_ 0.00615261 0.886468 0.202689 0.10394
H_ H_ 0.0470627 0.812149 0.250434 0.10394
H_ H_ 0.412085 0.748239 0.235731 0.10394
H_ H_ 0.368017 0.831955 0.205031 0.10394
H_ H_ 0.464845 0.555319 0.130925 0.10394
H_ H_ 0.014898 0.616447 0.100844 0.10394
H_ H_ 0.140133 0.503714 0.0806453 0.10394
H_ H_ 0.447818 0.651089 0.391696 0.10394
H_ H_ 0.0184783 0.68654 0.453544 0.10394
H_ H_ 0.411744 0.770146 0.0501328 0.10394
H_ H_ 0.345604 0.735404 0.492549 0.10394
H_ H_ 0.240703 0.69158 0.380165 0.10394
H_ H_ 0.196124 0.735659 0.304315 0.10394
H_ H_ 0.340077 0.72608 0.245973 0.10394
H_ H_ 0.375917 0.676537 0.31547 0.10394
H_ H_ 0.282952 0.629537 0.0608487 0.10394
H_ H_ 0.228094 0.593987 0.11535 0.10394
H_ H_ 0.106142 0.589237 -0.00121899999999997 0.10394
C_ C_ 0.167007 0.594942 0.294868 0.18167
C_ C_ 0.216087 0.579356 0.280843 -0.15533
C_ C_ 0.233295 0.528543 0.276789 0.02923
C_ C_ 0.194351 0.992527 0.298921 -0.15533
C_ C_ 0.1533 0.509594 0.304971 0.18167
C_ C_ 0.0299652 0.641101 0.275042 0.18167
C_ C_ 0.503993 0.674192 0.237058 -0.15533
C_ C_ 0.00246832 0.732272 0.274541 0.02923
C_ C_ 0.0263212 0.734987 0.324803 -0.15533
C_ C_ 0.0539101 0.693615 0.344878 0.18167
C_ C_ 0.00679216 0.539973 0.361535 0.69207
C_ C_ 0.477518 0.00445364 0.394316 0.02923
C_ C_ 0.500046 0.951743 0.395575 -0.15533
C_ C_ 0.467087 0.91411 0.392195 -0.15533
C_ C_ 0.41685 0.925965 0.400385 0.02923
C_ C_ 0.397383 0.976173 0.411735 -0.15533
C_ C_ 0.425209 0.0164816 0.407319 0.02923
C_ C_ 0.401652 0.563372 0.376961 0.69207
C_ C_ 0.40191 0.829272 0.388444 0.69661
C_ C_ 0.0659587 0.80172 0.0967896 0.18167
C_ C_ 0.0199782 0.782614 0.080526 -0.15533
C_ C_ 0.0129786 0.767668 0.027861 0.02923
C_ C_ 0.0460854 0.783877 0.481437 -0.15533
C_ C_ 0.0912249 0.798583 0.0122465 0.18167
C_ C_ 0.214178 0.772563 0.138271 0.18167
C_ C_ 0.246224 0.750242 0.17801 -0.15533
C_ C_ 0.241916 0.769082 0.229905 0.02923
C_ C_ 0.210479 0.817322 0.238187 -0.15533
C_ C_ 0.186072 0.840365 0.19628 0.18167
C_ C_ 0.243055 0.870193 0.0544549 0.69207
C_ C_ 0.275093 0.872714 0.504154 0.02923
C_ C_ 0.256174 0.872838 0.451754 -0.15533
C_ C_ 0.287264 0.883459 0.416275 -0.15533
C_ C_ 0.33786 0.88982 0.430126 0.02923
C_ C_ 0.356029 0.890906 0.481047 -0.15533
C_ C_ 0.324565 0.886572 0.518673 0.02923
C_ C_ 0.352303 0.883637 0.0809322 0.69207
C_ C_ 0.352512 0.892278 0.331787 0.69661
C_ C_ 0.309793 0.932204 0.192215 0.18167
C_ C_ 0.267323 0.953881 0.215507 -0.15533
C_ C_ 0.269994 0.9956971 0.250312 0.02923
C_ C_ 0.324869 0.523184 0.253794 -0.15533
C_ C_ 0.358869 0.996187 0.232664 0.18167
C_ C_ 0.488901 0.854367 0.206278 0.18167
C_ C_ 0.00654955 0.814684 0.236041 -0.15533
C_ C_ 0.486497 0.76996 0.230862 0.02923
C_ C_ 0.4338 0.779515 0.227918 -0.15533
C_ C_ 0.408892 0.824334 0.209003 0.18167
C_ C_ 0.478698 0.958542 0.122818 0.69207
C_ C_ 0.023237 0.488132 0.116105 0.02923
C_ C_ 0.00293009 0.538699 0.108777 -0.15533
C_ C_ 0.0321516 0.577156 0.0990075 -0.15533
C_ C_ 0.0831912 0.564635 0.0912216 0.02923
C_ C_ 0.101915 0.512661 0.0877072 -0.15533
C_ C_ 0.0749079 0.473789 0.105289 0.02923
C_ C_ 0.0968633 0.92994 0.11353 0.69207
C_ C_ 0.100286 0.661726 0.0908794 0.69661
C_ C_ 0.442051 0.681163 0.421264 0.18167
C_ C_ 0.478813 0.712637 0.439117 -0.15533
C_ C_ 0.47574 0.740339 0.48626 0.02923
C_ C_ 0.420691 0.744527 0.019137 -0.15533
C_ C_ 0.386375 0.72326 0.481876 0.18167
C_ C_ 0.26004 0.709325 0.354806 0.18167
C_ C_ 0.236937 0.730158 0.309593 -0.15533
C_ C_ 0.265466 0.736113 0.270747 0.02923
C_ C_ 0.318089 0.724476 0.27655 -0.15533
C_ C_ 0.338486 0.696794 0.317693 0.18167
C_ C_ 0.264711 0.622024 0.453818 0.69207
C_ C_ 0.230828 0.616212 0.992912 0.02923
C_ C_ 0.246179 0.619878 0.0448036 -0.15533
C_ C_ 0.214508 0.604283 0.0766876 -0.15533
C_ C_ 0.162542 0.60003 0.0622244 0.02923
C_ C_ 0.145842 0.595385 0.0107723 -0.15533
C_ C_ 0.182146 0.598186 0.975704 0.02923
C_ C_ 0.155115 0.607948 0.422526 0.69207
C_ C_ 0.141836 0.597269 0.155718 0.69661
C_ C_ 0.376448 0.886829 0.388968 -0.30787
C_ C_ 0.122305 0.605214 0.099824 -0.30787
N_ N_ 0.138459 0.559786 0.308396 -0.32189
N_ N_ 0.0510696 0.646163 0.322281 -0.32189
N_ N_ 0.101498 0.809364 0.0635198 -0.32189
N_ N_ 0.188577 0.819066 0.148394 -0.32189
N_ N_ 0.354572 0.952167 0.203041 -0.32189
N_ N_ 0.436963 0.861279 0.196692 -0.32189
N_ N_ 0.396473 0.687374 0.442993 -0.32189
N_ N_ 0.311144 0.689315 0.355886 -0.32189
O_ O_ 0.513596 0.578437 0.39348 -0.63271
O_ O_ 0.0420087 0.534266 0.330571 -0.57982
O_ O_ 0.398807 0.5887 0.335274 -0.63271
O_ O_ 0.381292 0.587005 0.417527 -0.57982
O_ O_ 0.240511 0.901814 0.094971 -0.63271
O_ O_ 0.206958 0.83876 0.0422706 -0.57982
O_ O_ 0.36446 0.83946 0.103012 -0.63271
O_ O_ 0.370522 0.92491 0.105657 -0.57982
O_ O_ 0.985567 0.909356 0.102114 -0.63271
O_ O_ 0.454195 0.965371 0.163283 -0.57982
O_ O_ 0.0894616 0.900691 0.148906 -0.63271
O_ O_ 0.129715 0.911077 0.0834357 -0.57982
O_ O_ 0.256417 0.599394 0.408426 -0.63271
O_ O_ 0.300155 0.654411 0.463463 -0.57982
O_ O_ 0.159665 0.647937 0.395591 -0.63271
O_ O_ 0.117663 0.58024 0.409343 -0.57982
F_ F_ 0.433874 0.824718 0.433138 -0.20885
F_ F_ 0.432835 0.808897 0.349549 -0.20885
F_ F_ 0.367506 0.792701 0.392462 -0.20885
F_ F_ 0.319681 0.937173 0.329099 -0.20885
F_ F_ 0.32447 0.851765 0.313698 -0.20885
F_ F_ 0.389136 0.891945 0.297193 -0.20885
F_ F_ 0.0658559 0.666714 0.0496071 -0.20885
F_ F_ 0.0711096 0.677805 0.131053 -0.20885
F_ F_ 0.136558 0.696309 0.0912722 -0.20885
F_ F_ 0.17345 0.55387 0.16365 -0.20885
F_ F_ 0.172661 0.636166 0.17583 -0.20885
F_ F_ 0.101944 0.601019 0.187612 -0.20885
Zn Zn 0.0883359 0.586905 0.846089 0.83971
Zn Zn 0.15969 0.849419 0.58244 0.83971
Zn Zn 0.413727 0.917449 0.648121 0.83971
Zn Zn 0.340132 0.653626 0.912611 0.83971
H_ H_ 0.171297 0.632277 0.80777 0.10394
H_ H_ 0.244017 0.597593 0.760882 0.10394
H_ H_ 0.206673 0.941119 0.779402 0.10394
H_ H_ 0.141481 0.480693 0.824484 0.10394
H_ H_ 0.534469 0.599987 0.739559 0.10394
H_ H_ 0.494958 0.679817 0.699876 0.10394
H_ H_ 0.02745 0.771531 0.831177 0.10394
H_ H_ 0.069743 0.693866 0.876701 0.10394
H_ H_ 0.0371112 0.952859 0.893757 0.10394
H_ H_ 0.478472 0.882277 0.881909 0.10394
H_ H_ 0.360604 0.994622 0.925635 0.10394
H_ H_ 0.0723871 0.821457 0.626525 0.10394
H_ H_ 0.501686 0.757782 0.586705 0.10394
H_ H_ 0.0391492 0.775717 0.951139 0.10394
H_ H_ 0.118563 0.815967 0.476277 0.10394
H_ H_ 0.240779 0.762037 0.600313 0.10394
H_ H_ 0.266004 0.702403 0.669813 0.10394
H_ H_ 0.217565 0.832071 0.768545 0.10394
H_ H_ 0.172865 0.875008 0.695277 0.10394
H_ H_ 0.218073 0.868656 0.952422 0.10394
H_ H_ 0.269611 0.894826 0.886046 0.10394
H_ H_ 0.400176 0.900279 0.996489 0.10394
H_ H_ 0.316967 0.8862 0.663387 0.10394
H_ H_ 0.237608 0.936814 0.691973 0.10394
H_ H_ 0.338255 0.543437 0.778811 0.10394
H_ H_ 0.406859 -0.003422000000000036 0.726452 0.10394
H_ H_ 0.0161966 0.889366 0.697295 0.10394
H_ H_ 0.0592476 0.810681 0.72402 0.10394
H_ H_ 0.422164 0.75439 0.727086 0.10394
H_ H_ 0.383528 0.830609 0.68405 0.10394
H_ H_ 0.465169 0.55401 0.6139 0.10394
H_ H_ 0.0176195 0.617563 0.59864 0.10394
H_ H_ 0.146276 0.507976 0.595238 0.10394
H_ H_ 0.438062 0.662011 0.896313 0.10394
H_ H_ 0.0129875 0.691149 0.954926 0.10394
H_ H_ 0.420934 0.776208 0.538654 0.10394
H_ H_ 0.34378 0.730776 0.00381766 0.10394
H_ H_ 0.241747 0.668635 0.865656 0.10394
H_ H_ 0.194 0.713655 0.790187 0.10394
H_ H_ 0.342385 0.755489 0.758249 0.10394
H_ H_ 0.383307 0.705974 0.82595 0.10394
H_ H_ 0.287585 0.623954 0.557146 0.10394
H_ H_ 0.232486 0.613505 0.619313 0.10394
H_ H_ 0.109779 0.584999 0.502809 0.10394
C_ C_ 0.177466 0.592262 0.796936 0.18167
C_ C_ 0.223309 0.572936 0.777786 -0.15533
C_ C_ 0.239141 0.520702 0.77496 0.02923
C_ C_ 0.200698 0.982353 0.785816 -0.15533
C_ C_ 0.165888 0.50798 0.815966 0.18167
C_ C_ 0.0329322 0.638972 0.765314 0.18167
C_ C_ 0.511808 0.681184 0.737729 -0.15533
C_ C_ 0.015272 0.730271 0.759376 0.02923
C_ C_ 0.0356941 0.735293 0.809305 -0.15533
C_ C_ 0.0551148 0.692918 0.837194 0.18167
C_ C_ 0.010341 0.547076 0.872114 0.69207
C_ C_ 0.472632 0.00878317 0.882092 0.02923
C_ C_ 0.492982 0.957913 0.882246 -0.15533
C_ C_ 0.463889 0.919705 0.892739 -0.15533
C_ C_ 0.414334 0.93077 0.905774 0.02923
C_ C_ 0.395999 0.982527 0.909629 -0.15533
C_ C_ 0.422093 0.0198467 0.89294 0.02923
C_ C_ 0.401625 0.569659 0.883092 0.69207
C_ C_ 0.39517 0.834573 0.894782 0.69661
C_ C_ 0.067126 0.807296 0.587197 0.18167
C_ C_ 0.0237544 0.785354 0.566269 -0.15533
C_ C_ 0.0149932 0.768327 0.515076 0.02923
C_ C_ 0.0474191 0.780093 0.992976 -0.15533
C_ C_ 0.0923757 0.803883 0.503303 0.18167
C_ C_ 0.226358 0.771948 0.634776 0.18167
C_ C_ 0.249357 0.743631 0.67629 -0.15533
C_ C_ 0.240716 0.764182 0.724124 0.02923
C_ C_ 0.21529 0.812413 0.731427 -0.15533
C_ C_ 0.191804 0.83782 0.68875 0.18167
C_ C_ 0.237362 0.871056 0.540547 0.69207
C_ C_ 0.275972 0.880463 0.0158596 0.02923
C_ C_ 0.256408 0.881474 0.964564 -0.15533
C_ C_ 0.285582 0.892117 0.925451 -0.15533
C_ C_ 0.33837 0.897913 0.935878 0.02923
C_ C_ 0.358332 0.897836 0.988328 -0.15533
C_ C_ 0.329817 0.885683 0.0280583 0.02923
C_ C_ 0.34987 0.886269 0.571427 0.69207
C_ C_ 0.352173 0.905673 0.838231 0.69661
C_ C_ 0.317765 0.922808 0.683741 0.18167
C_ C_ 0.275157 0.945256 0.706852 -0.15533
C_ C_ 0.279244 0.990486 0.735922 0.02923
C_ C_ 0.328268 0.517899 0.746593 -0.15533
C_ C_ 0.368701 0.986099 0.719172 0.18167
C_ C_ 0.501957 0.860908 0.707955 0.18167
C_ C_ 0.0186689 0.814258 0.72204 -0.15533
C_ C_ 0.493377 0.776797 0.738044 0.02923
C_ C_ 0.445099 0.778482 0.714051 -0.15533
C_ C_ 0.424189 0.82279 0.69063 0.18167
C_ C_ 0.487014 0.956356 0.612769 0.69207
C_ C_ 0.024047 0.49057 0.607664 0.02923
C_ C_ 1.00278423 0.542468 0.604351 -0.15533
C_ C_ 0.0346832 0.579306 0.597751 -0.15533
C_ C_ 0.0870354 0.569398 0.596215 0.02923
C_ C_ 0.107297 0.518065 0.601918 -0.15533
C_ C_ 0.0758068 0.47791 0.601963 0.02923
C_ C_ 0.0975607 0.928044 0.606253 0.69207
C_ C_ 0.0951194 0.666609 0.59767 0.69661
C_ C_ 0.435296 0.681852 0.934314 0.18167
C_ C_ 0.476714 0.699858 0.963657 -0.15533
C_ C_ 0.468515 0.738057 0.00369519 0.02923
C_ C_ 0.429157 0.746812 0.506497 -0.15533
C_ C_ 0.380711 0.721455 0.991231 0.18167
C_ C_ 0.263029 0.685347 0.840581 0.18167
C_ C_ 0.236162 0.710837 0.799701 -0.15533
C_ C_ 0.265541 0.735892 0.768264 0.02923
C_ C_ 0.31989 0.735289 0.78015 -0.15533
C_ C_ 0.342856 0.708895 0.819123 0.18167
C_ C_ 0.268518 0.619148 0.956717 0.69207
C_ C_ 0.228533 0.615391 0.490521 0.02923
C_ C_ 0.246818 0.618582 0.54238 -0.15533
C_ C_ 0.21641 0.609681 0.580532 -0.15533
C_ C_ 0.164187 0.599516 0.567233 0.02923
C_ C_ 0.147615 0.595189 0.513808 -0.15533
C_ C_ 0.177699 0.604618 0.476397 0.02923
C_ C_ 0.158198 0.603024 0.923416 0.69207
C_ C_ 0.145771 0.604441 0.660231 0.69661
C_ C_ 0.374096 0.89231 0.894253 -0.30787
C_ C_ 0.122605 0.611223 0.60508 -0.30787
N_ N_ 0.147328 0.558515 0.811531 -0.32189
N_ N_ 0.0559422 0.644389 0.81427 -0.32189
N_ N_ 0.1029 0.814746 0.554718 -0.32189
N_ N_ 0.194667 0.814415 0.640751 -0.32189
N_ N_ 0.361646 0.943167 0.68942 -0.32189
N_ N_ 0.45187 0.862418 0.68653 -0.32189
N_ N_ 0.389976 0.688166 0.951524 -0.32189
N_ N_ 0.315105 0.683422 0.848848 -0.32189
O_ O_ 0.508732 0.584569 0.89392 -0.63271
O_ O_ 0.0429611 0.53993 0.838046 -0.57982
O_ O_ 0.399763 0.594436 0.840749 -0.63271
O_ O_ 0.377276 0.589886 0.920381 -0.57982
O_ O_ 0.245827 0.888385 0.588344 -0.63271
O_ O_ 0.196897 0.846073 0.530087 -0.57982
O_ O_ 0.357448 0.842036 0.594221 -0.63271
O_ O_ 0.379371 0.921957 0.587782 -0.57982
O_ O_ 0.988113 0.907062 0.603714 -0.63271
O_ O_ 0.458233 0.963125 0.651138 -0.57982
O_ O_ 0.0943483 0.903764 0.64659 -0.63271
O_ O_ 0.138577 0.915373 0.580661 -0.57982
O_ O_ 0.269814 0.588924 0.915712 -0.63271
O_ O_ 0.29224 0.659295 0.958778 -0.57982
O_ O_ 0.15749 0.645798 0.903082 -0.63271
O_ O_ 0.1222 0.573829 0.90415 -0.57982
F_ F_ 0.428875 0.821315 0.937747 -0.20885
F_ F_ 0.423112 0.821733 0.85344 -0.20885
F_ F_ 0.354265 0.803265 0.885282 -0.20885
F_ F_ 0.320324 0.951226 0.834299 -0.20885
F_ F_ 0.320496 0.870145 0.81865 -0.20885
F_ F_ 0.38862 0.90802 0.805923 -0.20885
F_ F_ 0.0642259 0.669232 0.553977 -0.20885
F_ F_ 0.0720151 0.68435 0.638402 -0.20885
F_ F_ 0.131729 0.699763 0.597549 -0.20885
F_ F_ 0.184827 0.563445 0.663542 -0.20885
F_ F_ 0.168932 0.646219 0.677312 -0.20885
F_ F_ 0.110722 0.600599 0.695392 -0.20885
Zn Zn 0.585829 0.0854799 0.351013 0.83971
Zn Zn 0.660918 0.337727 0.0807525 0.83971
Zn Zn 0.904981 0.418265 0.156458 0.83971
Zn Zn 0.836953 0.165703 0.42156 0.83971
H_ H_ 0.663526 0.132298 0.316899 0.10394
H_ H_ 0.740183 0.0962831 0.267956 0.10394
H_ H_ 0.724732 0.45777 0.306143 0.10394
H_ H_ 0.624405 0.981706 0.319934 0.10394
H_ H_ 0.0302824 0.101844 0.246964 0.10394
H_ H_ 0.979845 0.176918 0.200354 0.10394
H_ H_ 0.51782 0.268681 0.339484 0.10394
H_ H_ 0.570618 0.197076 0.379573 0.10394
H_ H_ 0.537644 0.442498 0.362252 0.10394
H_ H_ 0.971483 0.374947 0.352939 0.10394
H_ H_ 0.856986 0.485506 0.404731 0.10394
H_ H_ 0.576312 0.300617 0.126334 0.10394
H_ H_ 1.00530181 0.270185 0.099784 0.10394
H_ H_ 0.545743 0.27867 0.450721 0.10394
H_ H_ 0.617866 0.321453 0.977125 0.10394
H_ H_ 0.734987 0.242156 0.101182 0.10394
H_ H_ 0.765987 0.203845 0.179968 0.10394
H_ H_ 0.692424 0.330776 0.262441 0.10394
H_ H_ 0.668378 0.374884 0.183892 0.10394
H_ H_ 0.713458 0.367859 0.440405 0.10394
H_ H_ 0.759721 0.394831 0.374342 0.10394
H_ H_ 0.890085 0.406667 0.482899 0.10394
H_ H_ 0.798617 0.403008 0.159785 0.10394
H_ H_ 0.725353 0.450058 0.201151 0.10394
H_ H_ 0.832151 0.036534 0.288983 0.10394
H_ H_ 0.89384 0.508021 0.229006 0.10394
H_ H_ 0.497684 0.389644 0.218835 0.10394
H_ H_ 0.535286 0.32024 0.272278 0.10394
H_ H_ 0.911227 0.243879 0.215424 0.10394
H_ H_ 0.869011 0.328651 0.177798 0.10394
H_ H_ 0.959963 0.0562413 0.123776 0.10394
H_ H_ 0.514119 0.117366 0.0946335 0.10394
H_ H_ 0.642287 0.0048914 0.0976796 0.10394
H_ H_ 0.940241 0.161731 0.40693 0.10394
H_ H_ 0.517564 0.190875 0.450692 0.10394
H_ H_ 0.924011 0.261679 0.0552471 0.10394
H_ H_ 0.848259 0.249535 0.50831 0.10394
H_ H_ 0.736338 0.218962 0.391942 0.10394
H_ H_ 0.693649 0.253812 0.316729 0.10394
H_ H_ 0.840166 0.246637 0.258584 0.10394
H_ H_ 0.877433 0.200119 0.333522 0.10394
H_ H_ 0.788491 0.102701 0.0543812 0.10394
H_ H_ 0.73581 0.0994515 0.121804 0.10394
H_ H_ 0.604374 0.0926588 0.00779882 0.10394
C_ C_ 0.672632 0.0918618 0.307658 0.18167
C_ C_ 0.71772 0.071348 0.283519 -0.15533
C_ C_ 0.730255 0.0190817 0.2768 0.02923
C_ C_ 0.711686 0.495933 0.304244 -0.15533
C_ C_ 0.654769 0.00517058 0.316749 0.18167
C_ C_ 0.529547 0.137425 0.271811 0.18167
C_ C_ -0.00182699 0.180956 0.241721 -0.15533
C_ C_ 0.504245 0.225486 0.269489 0.02923
C_ C_ 0.519553 0.231393 0.32094 -0.15533
C_ C_ 0.545989 0.190884 0.344191 0.18167
C_ C_ 0.508449 0.0448457 0.379238 0.69207
C_ C_ 0.969567 0.502005 0.360985 0.02923
C_ C_ 0.987073 0.449934 0.350312 -0.15533
C_ C_ 0.957286 0.412596 0.362229 -0.15533
C_ C_ 0.909299 0.424053 0.379676 0.02923
C_ C_ 0.891936 0.476328 0.385234 -0.15533
C_ C_ 0.919661 0.515703 0.37912 0.02923
C_ C_ 0.888577 0.080364 0.387771 0.69207
C_ C_ 0.893055 0.330081 0.380442 0.69661
C_ C_ 0.570538 0.294542 0.0848184 0.18167
C_ C_ 0.524014 0.280063 0.0652489 -0.15533
C_ C_ 0.511917 0.271145 0.0123965 0.02923
C_ C_ 0.550179 0.288914 0.489997 -0.15533
C_ C_ 0.592673 0.305662 0.000273385 0.18167
C_ C_ 0.718211 0.259772 0.136243 0.18167
C_ C_ 0.741571 0.24044 0.182174 -0.15533
C_ C_ 0.738933 0.268948 0.229388 0.02923
C_ C_ 0.708307 0.313349 0.22828 -0.15533
C_ C_ 0.694981 0.337809 0.183584 0.18167
C_ C_ 0.739871 0.362814 0.0389803 0.69207
C_ C_ 0.771232 0.379707 0.499653 0.02923
C_ C_ 0.751129 0.380567 0.449374 -0.15533
C_ C_ 0.781077 0.389129 0.410082 -0.15533
C_ C_ 0.832501 0.396199 0.41957 0.02923
C_ C_ 0.850968 0.400751 0.470765 -0.15533
C_ C_ 0.820304 0.397171 0.511473 0.02923
C_ C_ 0.848709 0.38231 0.0680097 0.69207
C_ C_ 0.839467 0.387498 0.322505 0.69661
C_ C_ 0.802482 0.436729 0.182068 0.18167
C_ C_ 0.76239 0.462736 0.206435 -0.15533
C_ C_ 0.772869 0.505682 0.239628 0.02923
C_ C_ 0.819848 0.0169314 0.255542 -0.15533
C_ C_ 0.857431 0.496998 0.214803 0.18167
C_ C_ 0.987669 0.357458 0.208921 0.18167
C_ C_ 0.501695 0.315682 0.246775 -0.15533
C_ C_ 0.981723 0.274611 0.235873 0.02923
C_ C_ 0.932287 0.278198 0.213617 -0.15533
C_ C_ 0.909885 0.320616 0.187396 0.18167
C_ C_ 0.987744 0.449999 0.128368 0.69207
C_ C_ 0.516768 0.99389 0.112537 0.02923
C_ C_ 0.499715 0.0443087 0.109045 -0.15533
C_ C_ 0.530313 0.0810912 0.100138 -0.15533
C_ C_ 0.582383 0.0691112 0.0985639 0.02923
C_ C_ 0.603016 0.0176911 0.099965 -0.15533
C_ C_ 0.570903 0.980301 0.110584 0.02923
C_ C_ 0.596229 0.419226 0.11218 0.69207
C_ C_ 0.599442 0.164203 0.111571 0.69661
C_ C_ 0.934344 0.187054 0.441952 0.18167
C_ C_ 0.97974 0.202248 0.466985 -0.15533
C_ C_ 0.973644 0.245325 0.503323 0.02923
C_ C_ 0.931017 0.242318 0.0181301 -0.15533
C_ C_ 0.88338 0.241399 0.493649 0.18167
C_ C_ 0.757391 0.217256 0.360245 0.18167
C_ C_ 0.732311 0.238931 0.316577 -0.15533
C_ C_ 0.762898 0.248201 0.278014 0.02923
C_ C_ 0.815654 0.23232 0.283804 -0.15533
C_ C_ 0.837187 0.206601 0.324623 0.18167
C_ C_ 0.761747 0.135089 0.456896 0.69207
C_ C_ 0.727689 0.116328 0.994382 0.02923
C_ C_ 0.748039 0.108576 0.0451154 -0.15533
C_ C_ 0.716199 0.109877 0.0853077 -0.15533
C_ C_ 0.66342 0.103483 0.072603 0.02923
C_ C_ 0.645978 0.0980885 0.0197354 -0.15533
C_ C_ 0.674928 0.111537 0.981321 0.02923
C_ C_ 0.653683 0.110313 0.428386 0.69207
C_ C_ 0.644705 0.100027 0.16847 0.69661
C_ C_ 0.870119 0.385189 0.377103 -0.30787
C_ C_ 0.62254 0.108349 0.112542 -0.30787
N_ N_ 0.641816 0.0573694 0.319723 -0.32189
N_ N_ 0.549679 0.144721 0.320534 -0.32189
N_ N_ 0.60501 0.304837 0.0525887 -0.32189
N_ N_ 0.696502 0.310233 0.137971 -0.32189
N_ N_ 0.850828 0.451699 0.189224 -0.32189
N_ N_ 0.938941 0.360097 0.188959 -0.32189
N_ N_ 0.888782 0.203523 0.456096 -0.32189
N_ N_ 0.805837 0.194062 0.359782 -0.32189
O_ O_ 0.00541981 0.0913612 0.403021 -0.63271
O_ O_ 0.546562 0.0318355 0.352475 -0.57982
O_ O_ 0.887982 0.106204 0.346447 -0.63271
O_ O_ 0.867373 0.102037 0.427353 -0.57982
O_ O_ 0.745608 0.385894 0.0841443 -0.63271
O_ O_ 0.698817 0.339683 0.0286266 -0.57982
O_ O_ 0.855997 0.33912 0.088806 -0.63271
O_ O_ 0.872532 0.420158 0.0915933 -0.57982
O_ O_ 0.487227 0.406465 0.103904 -0.63271
O_ O_ 0.949024 0.467297 0.154582 -0.57982
O_ O_ 0.586924 0.391585 0.149842 -0.63271
O_ O_ 0.630001 0.402478 0.0795689 -0.57982
O_ O_ 0.761582 0.113831 0.410474 -0.63271
O_ O_ 0.790212 0.170676 0.467952 -0.57982
O_ O_ 0.65283 0.154914 0.407703 -0.63271
O_ O_ 0.617812 0.0827033 0.412661 -0.57982
F_ F_ 0.928773 0.326895 0.418927 -0.20885
F_ F_ 0.917429 0.310492 0.339488 -0.20885
F_ F_ 0.854368 0.297516 0.384024 -0.20885
F_ F_ 0.811308 0.433435 0.315102 -0.20885
F_ F_ 0.812691 0.344715 0.30858 -0.20885
F_ F_ 0.874712 0.382514 0.28725 -0.20885
F_ F_ 0.575248 0.175923 0.0639441 -0.20885
F_ F_ 0.560841 0.177709 0.142433 -0.20885
F_ F_ 0.635079 0.199257 0.122599 -0.20885
F_ F_ 0.675535 0.0546952 0.168886 -0.20885
F_ F_ 0.679893 0.135358 0.187553 -0.20885
F_ F_ 0.609123 0.102569 0.205639 -0.20885
Zn Zn 0.585354 0.0859679 0.85122 0.83971
Zn Zn 0.662156 0.346632 0.586014 0.83971
Zn Zn 0.912117 0.409717 0.647519 0.83971
Zn Zn 0.838115 0.156745 0.917378 0.83971
H_ H_ 0.660944 0.133578 0.804863 0.10394
H_ H_ 0.747516 0.103089 0.778063 0.10394
H_ H_ 0.723291 0.450599 0.792803 0.10394
H_ H_ 0.641932 0.980922 0.834532 0.10394
H_ H_ 0.0164592 0.0958529 0.762984 0.10394
H_ H_ 0.976209 0.164839 0.708962 0.10394
H_ H_ 0.524867 0.270432 0.82774 0.10394
H_ H_ 0.563502 0.19727 0.873296 0.10394
H_ H_ 0.533928 0.437709 0.864123 0.10394
H_ H_ 0.988909 0.381966 0.901514 0.10394
H_ H_ 0.852394 0.486238 0.897828 0.10394
H_ H_ 0.586355 0.300966 0.633364 0.10394
H_ H_ 0.00986872 0.270513 0.604321 0.10394
H_ H_ 0.537589 0.289364 0.938772 0.10394
H_ H_ 0.616571 0.321919 0.485354 0.10394
H_ H_ 0.710691 0.24793 0.596285 0.10394
H_ H_ 0.753829 0.198249 0.672888 0.10394
H_ H_ 0.72728 0.331498 0.769303 0.10394
H_ H_ 0.685802 0.380208 0.693287 0.10394
H_ H_ 0.730109 0.339225 0.936096 0.10394
H_ H_ 0.771701 0.381526 0.873649 0.10394
H_ H_ 0.894544 0.406325 0.985534 0.10394
H_ H_ 0.803652 0.396095 0.656677 0.10394
H_ H_ 0.735802 0.460645 0.685793 0.10394
H_ H_ 0.829785 0.0552078 0.77467 0.10394
H_ H_ 0.914909 0.484791 0.733981 0.10394
H_ H_ 0.511168 0.390414 0.702036 0.10394
H_ H_ 0.550046 0.314117 0.754627 0.10394
H_ H_ 0.903052 0.247705 0.719714 0.10394
H_ H_ 0.870644 0.326409 0.677823 0.10394
H_ H_ 0.957732 0.0487801 0.599362 0.10394
H_ H_ 0.522338 0.122353 0.614022 0.10394
H_ H_ 0.643234 0.00348872 0.578532 0.10394
H_ H_ 0.937654 0.169331 0.890037 0.10394
H_ H_ 0.509946 0.18951 0.940212 0.10394
H_ H_ 0.919637 0.29677 0.547361 0.10394
H_ H_ 0.859275 0.216254 0.0168378 0.10394
H_ H_ 0.737732 0.206725 0.892081 0.10394
H_ H_ 0.701858 0.256762 0.816754 0.10394
H_ H_ 0.836948 0.209965 0.743295 0.10394
H_ H_ 0.874622 0.177704 0.818583 0.10394
H_ H_ 0.791933 0.111301 0.55568 0.10394
H_ H_ 0.738979 0.096687 0.622771 0.10394
H_ H_ 0.611763 0.0791872 0.506052 0.10394
C_ C_ 0.674046 0.0919279 0.800693 0.18167
C_ C_ 0.721685 0.0753881 0.784417 -0.15533
C_ C_ 0.73319 0.0220126 0.773516 0.02923
C_ C_ 0.710766 0.490205 0.787636 -0.15533
C_ C_ 0.664252 0.00791199 0.821238 0.18167
C_ C_ 0.52781 0.135931 0.763673 0.18167
C_ C_ -0.005383000000000027 0.174165 0.745229 -0.15533
C_ C_ 0.506031 0.229026 0.760623 0.02923
C_ C_ 0.527211 0.233827 0.80939 -0.15533
C_ C_ 0.552788 0.193501 0.833242 0.18167
C_ C_ 0.50767 0.0472466 0.871522 0.69207
C_ C_ 0.976043 0.507468 0.876252 0.02923
C_ C_ 0.99618 0.454617 0.875535 -0.15533
C_ C_ 0.968512 0.415768 0.887914 -0.15533
C_ C_ 0.91405 0.426935 0.892008 0.02923
C_ C_ 0.894338 0.478766 0.893097 -0.15533
C_ C_ 0.925474 0.517482 0.886399 0.02923
C_ C_ 0.898535 0.0770047 0.888638 0.69207
C_ C_ 0.907477 0.330267 0.891442 0.69661
C_ C_ 0.574406 0.298349 0.592253 0.18167
C_ C_ 0.530208 0.276783 0.573986 -0.15533
C_ C_ 0.516181 0.271471 0.521541 0.02923
C_ C_ 0.544583 0.288758 0.98023 -0.15533
C_ C_ 0.590919 0.313148 0.510139 0.18167
C_ C_ 0.718671 0.267641 0.634907 0.18167
C_ C_ 0.739048 0.239419 0.678133 -0.15533
C_ C_ 0.742474 0.263236 0.727259 0.02923
C_ C_ 0.721116 0.312604 0.733649 -0.15533
C_ C_ 0.69999 0.340768 0.690875 0.18167
C_ C_ 0.73731 0.37155 0.539523 0.69207
C_ C_ 0.776452 0.367869 1.00042579 0.02923
C_ C_ 0.760515 0.359829 0.948491 -0.15533
C_ C_ 0.787635 0.379693 0.912652 -0.15533
C_ C_ 0.837159 0.392431 0.924745 0.02923
C_ C_ 0.854644 0.398235 0.974801 -0.15533
C_ C_ 0.825701 0.383893 0.0147131 0.02923
C_ C_ 0.84442 0.391757 0.565862 0.69207
C_ C_ 0.856195 0.382012 0.827885 0.69661
C_ C_ 0.813637 0.430682 0.681915 0.18167
C_ C_ 0.773483 0.4616 0.70558 -0.15533
C_ C_ 0.785708 0.500774 0.7407 0.02923
C_ C_ 0.826525 0.0186582 0.755283 -0.15533
C_ C_ 0.874916 0.476262 0.728921 0.18167
C_ C_ 0.992591 0.349116 0.696352 0.18167
C_ C_ 0.511658 0.3179 0.736078 -0.15533
C_ C_ 0.980605 0.267454 0.732138 0.02923
C_ C_ 0.929147 0.274256 0.712425 -0.15533
C_ C_ 0.912421 0.319279 0.688306 0.18167
C_ C_ 0.986678 0.453479 0.616574 0.69207
C_ C_ 0.524962 0.991764 0.608074 0.02923
C_ C_ 0.506365 0.0445181 0.615413 -0.15533
C_ C_ 0.539024 0.0819199 0.611534 -0.15533
C_ C_ 0.591079 0.0667156 0.602632 0.02923
C_ C_ 0.607716 0.0143215 0.595494 -0.15533
C_ C_ 0.576283 0.975713 0.599894 0.02923
C_ C_ 0.594962 0.422318 0.606425 0.69207
C_ C_ 0.609047 0.159774 0.601873 0.69661
C_ C_ 0.934803 0.191079 0.925352 0.18167
C_ C_ 0.978564 0.21098 0.949887 -0.15533
C_ C_ 0.977067 0.239715 -0.004197000000000006 0.02923
C_ C_ 0.9262 0.264698 0.518737 -0.15533
C_ C_ 0.890112 0.216837 0.994963 0.18167
C_ C_ 0.759154 0.204548 0.856864 0.18167
C_ C_ 0.735297 0.230399 0.812895 -0.15533
C_ C_ 0.763348 0.233129 0.770847 0.02923
C_ C_ 0.814044 0.205756 0.77188 -0.15533
C_ C_ 0.837637 0.191437 0.817466 0.18167
C_ C_ 0.763594 0.12835 0.957618 0.69207
C_ C_ 0.730135 0.114818 0.495103 0.02923
C_ C_ 0.752343 0.107638 0.545416 -0.15533
C_ C_ 0.721603 0.101613 0.583408 -0.15533
C_ C_ 0.668597 0.0944387 0.569789 0.02923
C_ C_ 0.649788 0.0903774 0.517713 -0.15533
C_ C_ 0.67999 0.103557 0.480811 0.02923
C_ C_ 0.651356 0.109281 0.928527 0.69207
C_ C_ 0.655675 0.0990138 0.666571 0.69661
C_ C_ 0.877811 0.384299 0.886424 -0.30787
C_ C_ 0.631499 0.103831 0.610121 -0.30787
N_ N_ 0.646834 0.0587033 0.820131 -0.32189
N_ N_ 0.554329 0.14473 0.811675 -0.32189
N_ N_ 0.604582 0.312552 0.559372 -0.32189
N_ N_ 0.699635 0.317392 0.64397 -0.32189
N_ N_ 0.861495 0.441298 0.691327 -0.32189
N_ N_ 0.943986 0.351951 0.675521 -0.32189
N_ N_ 0.891536 0.194789 0.948238 -0.32189
N_ N_ 0.809912 0.186881 0.858038 -0.32189
O_ O_ -0.00496264 0.0997757 0.881002 -0.63271
O_ O_ 0.54468 0.0359502 0.843797 -0.57982
O_ O_ 0.875633 0.0933932 0.844354 -0.63271
O_ O_ 0.877781 0.0962404 0.927572 -0.57982
O_ O_ 0.737802 0.402324 0.582273 -0.63271
O_ O_ 0.703275 0.338454 0.532342 -0.57982
O_ O_ 0.842983 0.347996 0.585693 -0.63271
O_ O_ 0.878622 0.421195 0.58582 -0.57982
O_ O_ 0.487053 0.407481 0.592344 -0.63271
O_ O_ 0.958484 0.457946 0.654608 -0.57982
O_ O_ 0.600963 0.399778 0.649119 -0.63271
O_ O_ 0.6339 0.412394 0.579772 -0.57982
O_ O_ 0.765964 0.102852 0.913148 -0.63271
O_ O_ 0.796501 0.161486 0.966623 -0.57982
O_ O_ 0.652926 0.148701 0.903175 -0.63271
O_ O_ 0.613355 0.0811919 0.916098 -0.57982
F_ F_ 0.93691 0.325329 0.938534 -0.20885
F_ F_ 0.939601 0.313918 0.853287 -0.20885
F_ F_ 0.874819 0.292768 0.892299 -0.20885
F_ F_ 0.820527 0.421853 0.814084 -0.20885
F_ F_ 0.828629 0.339644 0.811847 -0.20885
F_ F_ 0.896101 0.381169 0.798747 -0.20885
F_ F_ 0.574157 0.172032 0.560188 -0.20885
F_ F_ 0.587989 0.183515 0.644468 -0.20885
F_ F_ 0.644721 0.193244 0.595421 -0.20885
F_ F_ 0.683269 0.0523334 0.677534 -0.20885
F_ F_ 0.682462 0.139092 0.690688 -0.20885
F_ F_ 0.615526 0.0995585 0.69632 -0.20885
Zn Zn 0.587576 0.583873 0.34438 0.83971
Zn Zn 0.654764 0.844297 0.0845567 0.83971
Zn Zn 0.907255 0.919594 0.162137 0.83971
Zn Zn 0.839191 0.656085 0.417516 0.83971
H_ H_ 0.660802 0.636689 0.299962 0.10394
H_ H_ 0.741638 0.608451 0.264646 0.10394
H_ H_ 0.710781 0.947199 0.291607 0.10394
H_ H_ 0.644854 0.489768 0.338117 0.10394
H_ H_ 0.0333537 0.602284 0.255913 0.10394
H_ H_ 1.00224 0.677914 0.209905 0.10394
H_ H_ 0.539058 0.76912 0.324509 0.10394
H_ H_ 0.581401 0.69611 0.367983 0.10394
H_ H_ 0.542992 0.941679 0.396988 0.10394
H_ H_ 0.981549 0.888407 0.384815 0.10394
H_ H_ 0.850206 0.996543 0.418929 0.10394
H_ H_ 0.575604 0.802038 0.1344 0.10394
H_ H_ 0.9896971999999999 0.778885 0.106858 0.10394
H_ H_ 0.560238 0.772264 0.444999 0.10394
H_ H_ 0.606861 0.821508 0.984913 0.10394
H_ H_ 0.71261 0.743859 0.0916746 0.10394
H_ H_ 0.758398 0.693532 0.167142 0.10394
H_ H_ 0.710183 0.821658 0.266653 0.10394
H_ H_ 0.66805 0.865714 0.194991 0.10394
H_ H_ 0.719876 0.864285 0.4498 0.10394
H_ H_ 0.764544 0.895979 0.386227 0.10394
H_ H_ 0.893785 0.910377 0.496622 0.10394
H_ H_ 0.801967 0.897888 0.162018 0.10394
H_ H_ 0.727335 0.947184 0.197626 0.10394
H_ H_ 0.827909 0.554965 0.264787 0.10394
H_ H_ 0.89976 1.00415826 0.236544 0.10394
H_ H_ 0.511167 0.8848 0.19722 0.10394
H_ H_ 0.558328 0.804787 0.222492 0.10394
H_ H_ 0.906204 0.745896 0.23065 0.10394
H_ H_ 0.863686 0.826539 0.193612 0.10394
H_ H_ 0.961871 0.547842 0.10625 0.10394
H_ H_ 0.515629 0.614725 0.103886 0.10394
H_ H_ 0.641808 0.503816 0.0959739 0.10394
H_ H_ 0.943673 0.654684 0.402925 0.10394
H_ H_ 0.519095 0.699653 0.429245 0.10394
H_ H_ 0.913009 0.777143 0.0507293 0.10394
H_ H_ 0.842535 0.740739 0.500814 0.10394
H_ H_ 0.731978 0.693821 0.38208 0.10394
H_ H_ 0.690972 0.723819 0.30189 0.10394
H_ H_ 0.839024 0.73119 0.251918 0.10394
H_ H_ 0.876015 0.684845 0.323623 0.10394
H_ H_ 0.784096 0.624868 0.0565327 0.10394
H_ H_ 0.726154 0.624407 0.118041 0.10394
H_ H_ 0.612535 0.575411 0.00604285 0.10394
C_ C_ 0.674695 0.597549 0.300431 0.18167
C_ C_ 0.720486 0.580905 0.278733 -0.15533
C_ C_ 0.737018 0.528799 0.277305 0.02923
C_ C_ 0.70076 0.986547 0.298755 -0.15533
C_ C_ 0.665953 0.514142 0.322049 0.18167
C_ C_ 0.53121 0.633476 0.26231 0.18167
C_ C_ 0.0100658 0.684521 0.249134 -0.15533
C_ C_ 0.509581 0.724336 0.25713 0.02923
C_ C_ 0.536304 0.731139 0.306033 -0.15533
C_ C_ 0.560604 0.689405 0.328922 0.18167
C_ C_ 0.507413 0.542375 0.358319 0.69207
C_ C_ 0.965612 0.0159661 0.383272 0.02923
C_ C_ -0.01219899999999996 0.965283 0.380099 -0.15533
C_ C_ 0.960841 0.92571 0.389005 -0.15533
C_ C_ 0.907072 0.936001 0.394543 0.02923
C_ C_ 0.887981 0.986401 0.403114 -0.15533
C_ C_ 0.915217 0.0265861 0.392229 0.02923
C_ C_ 0.89699 0.569706 0.379584 0.69207
C_ C_ 0.897564 0.835057 0.387006 0.69661
C_ C_ 0.56259 0.802591 0.0941089 0.18167
C_ C_ 0.519842 0.776881 0.0765524 -0.15533
C_ C_ 0.508157 0.768911 0.0233121 0.02923
C_ C_ 0.563095 0.772756 0.4858 -0.15533
C_ C_ 0.579913 0.81208 0.00864603 0.18167
C_ C_ 0.713838 0.759498 0.131712 0.18167
C_ C_ 0.737205 0.731091 0.171479 -0.15533
C_ C_ 0.73649 0.755124 0.221717 0.02923
C_ C_ 0.711083 0.803027 0.22897 -0.15533
C_ C_ 0.691591 0.830454 0.188427 0.18167
C_ C_ 0.737474 0.867309 0.0493849 0.69207
C_ C_ 0.771914 0.88286 0.511807 0.02923
C_ C_ 0.752242 0.881906 0.46079 -0.15533
C_ C_ 0.783572 0.888287 0.422134 -0.15533
C_ C_ 0.834671 0.900148 0.433063 0.02923
C_ C_ 0.855003 0.901273 0.48473 -0.15533
C_ C_ 0.824016 0.89304 0.524451 0.02923
C_ C_ 0.846537 0.890398 0.0799165 0.69207
C_ C_ 0.842487 0.898338 0.336111 0.69661
C_ C_ 0.805884 0.935712 0.18437 0.18167
C_ C_ 0.765354 0.958336 0.208412 -0.15533
C_ C_ 0.772097 0.998834 0.24575 0.02923
C_ C_ 0.817624 0.526204 0.237102 -0.15533
C_ C_ 0.860145 0.993261 0.227039 0.18167
C_ C_ 0.982685 0.85709 0.211461 0.18167
C_ C_ 0.515169 0.806327 0.21739 -0.15533
C_ C_ 0.977065 0.775721 0.247284 0.02923
C_ C_ 0.925593 0.780001 0.229002 -0.15533
C_ C_ 0.903955 0.822334 0.206555 0.18167
C_ C_ 0.983663 0.954595 0.126908 0.69207
C_ C_ 0.520709 0.487472 0.117459 0.02923
C_ C_ 0.501946 0.540568 0.117063 -0.15533
C_ C_ 0.534085 0.578165 0.11127 -0.15533
C_ C_ 0.584554 0.56433 0.103544 0.02923
C_ C_ 0.602066 0.513106 0.100201 -0.15533
C_ C_ 0.573783 0.473606 0.113154 0.02923
C_ C_ 0.593336 0.927673 0.112688 0.69207
C_ C_ 0.60017 0.661751 0.105187 0.69661
C_ C_ 0.937808 0.677333 0.438 0.18167
C_ C_ 0.978762 0.699755 0.461309 -0.15533
C_ C_ 0.9707 0.74222 0.495926 0.02923
C_ C_ 0.920039 0.751462 1.0175709 -0.15533
C_ C_ 0.8817 0.729792 0.489524 0.18167
C_ C_ 0.755359 0.699744 0.351646 0.18167
C_ C_ 0.732848 0.721048 0.306723 -0.15533
C_ C_ 0.76137 0.726167 0.266212 0.02923
C_ C_ 0.813308 0.715857 0.274544 -0.15533
C_ C_ 0.835574 0.696477 0.320092 0.18167
C_ C_ 0.76245 0.610651 0.454104 0.69207
C_ C_ 0.732881 0.605712 0.991608 0.02923
C_ C_ 0.747117 0.615076 0.0439121 -0.15533
C_ C_ 0.713808 0.609837 0.0806333 -0.15533
C_ C_ 0.665558 0.592664 0.0688632 0.02923
C_ C_ 0.649635 0.585589 0.0159698 -0.15533
C_ C_ 0.680689 0.592523 0.977698 0.02923
C_ C_ 0.648949 0.605227 0.428623 0.69207
C_ C_ 0.650169 0.599029 0.166867 0.69661
C_ C_ 0.870883 0.89233 0.389646 -0.30787
C_ C_ 0.624816 0.602884 0.108337 -0.30787
N_ N_ 0.646528 0.563548 0.313958 -0.32189
N_ N_ 0.552536 0.641389 0.311228 -0.32189
N_ N_ 0.592455 0.816121 0.0599734 -0.32189
N_ N_ 0.689127 0.8074 0.141941 -0.32189
N_ N_ 0.854023 0.949425 0.197626 -0.32189
N_ N_ 0.931661 0.860979 0.199233 -0.32189
N_ N_ 0.890267 0.693367 0.452579 -0.32189
N_ N_ 0.806819 0.685803 0.357751 -0.32189
O_ O_ 0.00218789 0.582246 0.392655 -0.63271
O_ O_ 0.543609 0.533563 0.328295 -0.57982
O_ O_ 0.89717 0.592692 0.337533 -0.63271
O_ O_ 0.868392 0.588753 0.416961 -0.57982
O_ O_ 0.743882 0.875688 0.0983557 -0.63271
O_ O_ 0.699941 0.839565 0.0341239 -0.57982
O_ O_ 0.857194 0.84568 0.10361 -0.63271
O_ O_ 0.871957 0.926729 0.0999861 -0.57982
O_ O_ 0.478544 0.913665 0.0972086 -0.63271
O_ O_ 0.95171 0.964876 0.162968 -0.57982
O_ O_ 0.585145 0.90071 0.149907 -0.63271
O_ O_ 0.629409 0.908986 0.0831049 -0.57982
O_ O_ 0.760963 0.582072 0.410987 -0.63271
O_ O_ 0.791974 0.648906 0.458547 -0.57982
O_ O_ 0.654913 0.645922 0.405495 -0.63271
O_ O_ 0.619623 0.570914 0.407683 -0.57982
F_ F_ 0.931812 0.823746 0.426425 -0.20885
F_ F_ 0.923321 0.825541 0.344083 -0.20885
F_ F_ 0.867067 0.797671 0.38801 -0.20885
F_ F_ 0.807571 0.940398 0.334798 -0.20885
F_ F_ 0.814139 0.856518 0.320991 -0.20885
F_ F_ 0.875444 0.900646 0.299538 -0.20885
F_ F_ 0.57176 0.664645 0.0580464 -0.20885
F_ F_ 0.567226 0.675762 0.142653 -0.20885
F_ F_ 0.631244 0.699306 0.109618 -0.20885
F_ F_ 0.680617 0.553666 0.170441 -0.20885
F_ F_ 0.679806 0.63859 0.185992 -0.20885
F_ F_ 0.615967 0.599423 0.202877 -0.20885
Zn Zn 0.590942 0.584073 0.841793 0.83971
Zn Zn 0.659304 0.841295 0.586259 0.83971
Zn Zn 0.909925 0.918245 0.658653 0.83971
Zn Zn 0.841773 0.654249 0.914926 0.83971
H_ H_ 0.671177 0.635488 0.793839 0.10394
H_ H_ 0.755097 0.602502 0.769471 0.10394
H_ H_ 0.722475 0.952217 0.804694 0.10394
H_ H_ 0.640688 0.484839 0.820345 0.10394
H_ H_ 0.0325863 0.600557 0.74761 0.10394
H_ H_ 1.00311 0.67651 0.698391 0.10394
H_ H_ 0.537931 0.768398 0.835127 0.10394
H_ H_ 0.573672 0.690789 0.877434 0.10394
H_ H_ 0.533489 0.944648 0.876525 0.10394
H_ H_ 0.992027 0.886376 0.915108 0.10394
H_ H_ 0.855773 0.992458 0.911982 0.10394
H_ H_ 0.574132 0.79945 0.62835 0.10394
H_ H_ -0.002923000000000009 0.782068 0.595489 0.10394
H_ H_ 0.52858 0.787529 0.948069 0.10394
H_ H_ 0.635486 0.795469 0.4859 0.10394
H_ H_ 0.73903 0.758483 0.597526 0.10394
H_ H_ 0.775579 0.709733 0.672342 0.10394
H_ H_ 0.714178 0.831725 0.771733 0.10394
H_ H_ 0.676045 0.877109 0.692689 0.10394
H_ H_ 0.718688 0.866924 0.946828 0.10394
H_ H_ 0.774425 0.869675 0.885473 0.10394
H_ H_ 0.897228 0.897676 1.00574053 0.10394
H_ H_ 0.807464 0.896629 0.665818 0.10394
H_ H_ 0.733222 0.944823 0.708169 0.10394
H_ H_ 0.85272 0.530138 0.788352 0.10394
H_ H_ 0.907006 1.00812813 0.73797 0.10394
H_ H_ 0.525182 0.890879 0.70681 0.10394
H_ H_ 0.562236 0.81711 0.75526 0.10394
H_ H_ 0.913607 0.766707 0.754489 0.10394
H_ H_ 0.873961 0.832983 0.701249 0.10394
H_ H_ 0.960778 0.555584 0.604751 0.10394
H_ H_ 0.522744 0.620172 0.613182 0.10394
H_ H_ 0.643795 0.499474 0.591235 0.10394
H_ H_ 0.946401 0.661022 0.901107 0.10394
H_ H_ 0.513372 0.690069 0.949518 0.10394
H_ H_ 0.915898 0.789016 0.538194 0.10394
H_ H_ 0.842776 0.733832 1.00535652 0.10394
H_ H_ 0.740995 0.685671 0.880088 0.10394
H_ H_ 0.701311 0.742685 0.813232 0.10394
H_ H_ 0.843955 0.733426 0.744647 0.10394
H_ H_ 0.883005 0.6804 0.821173 0.10394
H_ H_ 0.789116 0.597817 0.552738 0.10394
H_ H_ 0.733387 0.604271 0.619225 0.10394
H_ H_ 0.60707 0.579644 0.507208 0.10394
C_ C_ 0.682056 0.594217 0.79472 0.18167
C_ C_ 0.729042 0.577893 0.778227 -0.15533
C_ C_ 0.743868 0.524247 0.772097 0.02923
C_ C_ 0.706252 0.99001 0.797652 -0.15533
C_ C_ 0.666001 0.510388 0.809705 0.18167
C_ C_ 0.537023 0.638516 0.761782 0.18167
C_ C_ 0.0140804 0.680948 0.737869 -0.15533
C_ C_ 0.5177 0.730685 0.762173 0.02923
C_ C_ 0.541179 0.732593 0.812827 -0.15533
C_ C_ 0.555502 0.687694 0.839013 0.18167
C_ C_ 0.509199 0.543509 0.862747 0.69207
C_ C_ 0.973875 0.0106117 0.882603 0.02923
C_ C_ -0.0038249999999999673 0.962631 0.894882 -0.15533
C_ C_ 0.969591 0.924205 0.907173 -0.15533
C_ C_ 0.916312 0.932063 0.90965 0.02923
C_ C_ 0.894739 0.983527 0.905812 -0.15533
C_ C_ 0.921994 0.0229691 0.891301 0.02923
C_ C_ 0.900237 0.571273 0.884473 0.69207
C_ C_ 0.911512 0.83507 0.90261 0.69661
C_ C_ 0.570167 0.794606 0.588486 0.18167
C_ C_ 0.52577 0.772715 0.564182 -0.15533
C_ C_ 0.52082 0.764331 0.512888 0.02923
C_ C_ 0.534741 0.792154 0.990008 -0.15533
C_ C_ 0.605853 0.790524 0.508986 0.18167
C_ C_ 0.726749 0.768496 0.63527 0.18167
C_ C_ 0.748326 0.742717 0.679354 -0.15533
C_ C_ 0.742832 0.76649 0.729135 0.02923
C_ C_ 0.717059 0.81358 0.734539 -0.15533
C_ C_ 0.69622 0.839156 0.691734 0.18167
C_ C_ 0.739669 0.8741 0.55239 0.69207
C_ C_ 0.770982 0.879687 1.0123216 0.02923
C_ C_ 0.755952 0.876902 0.959697 -0.15533
C_ C_ 0.788887 0.881016 0.924001 -0.15533
C_ C_ 0.841288 0.892287 0.936228 0.02923
C_ C_ 0.854552 0.898532 0.98969 -0.15533
C_ C_ 0.822195 0.893271 0.0264158 0.02923
C_ C_ 0.849507 0.892535 0.579813 0.69207
C_ C_ 0.857522 0.896531 0.841523 0.69661
C_ C_ 0.813465 0.935363 0.688465 0.18167
C_ C_ 0.771072 0.960539 0.709925 -0.15533
C_ C_ 0.777788 0.00114756 0.74502 0.02923
C_ C_ 0.837834 0.507895 0.754468 -0.15533
C_ C_ 0.868223 0.994398 0.73203 0.18167
C_ C_ 0.995122 0.85725 0.69915 0.18167
C_ C_ 0.522955 0.818436 0.735729 -0.15533
C_ C_ 0.990944 0.775654 0.733874 0.02923
C_ C_ 0.936509 0.785274 0.730319 -0.15533
C_ C_ 0.914451 0.823696 0.701952 0.18167
C_ C_ 0.989064 0.95255 0.627633 0.69207
C_ C_ 0.520464 0.489862 0.609465 0.02923
C_ C_ 0.502582 0.543454 0.608715 -0.15533
C_ C_ 0.536483 0.580737 0.607346 -0.15533
C_ C_ 0.588798 0.566997 0.605346 0.02923
C_ C_ 0.60361 0.513923 0.598835 -0.15533
C_ C_ 0.570551 0.475881 0.604297 0.02923
C_ C_ 0.600059 0.922985 0.605689 0.69207
C_ C_ 0.609621 0.661074 0.606286 0.69661
C_ C_ 0.937623 0.687439 0.933945 0.18167
C_ C_ 0.977572 0.706571 0.964141 -0.15533
C_ C_ 0.96845 0.740275 1.00650877 0.02923
C_ C_ 0.922248 0.757892 0.510747 -0.15533
C_ C_ 0.879867 0.726215 0.99134 0.18167
C_ C_ 0.762679 0.698516 0.852448 0.18167
C_ C_ 0.740184 0.729943 0.813684 -0.15533
C_ C_ 0.769988 0.742953 0.77356 0.02923
C_ C_ 0.821679 0.723017 0.774604 -0.15533
C_ C_ 0.842915 0.697212 0.819241 0.18167
C_ C_ 0.769128 0.614325 0.954104 0.69207
C_ C_ 0.72721 0.602246 0.493312 0.02923
C_ C_ 0.749062 0.594146 0.543036 -0.15533
C_ C_ 0.717402 0.599376 0.579696 -0.15533
C_ C_ 0.666112 0.588828 0.570095 0.02923
C_ C_ 0.644801 0.588094 0.519076 -0.15533
C_ C_ 0.672955 0.598225 0.480599 0.02923
C_ C_ 0.653949 0.599601 0.925643 0.69207
C_ C_ 0.654502 0.595373 0.66471 0.69661
C_ C_ 0.880327 0.88863 0.896497 -0.30787
C_ C_ 0.628861 0.604295 0.61206 -0.30787
N_ N_ 0.649283 0.561345 0.805725 -0.32189
N_ N_ 0.553973 0.642496 0.812 -0.32189
N_ N_ 0.608615 0.802072 0.560609 -0.32189
N_ N_ 0.694263 0.812611 0.644286 -0.32189
N_ N_ 0.85925 0.951864 0.699023 -0.32189
N_ N_ 0.942284 0.861154 0.687391 -0.32189
N_ N_ 0.890109 0.691976 0.951315 -0.32189
N_ N_ 0.811483 0.679534 0.8505 -0.32189
O_ O_ 1.0117771 0.587324 0.904116 -0.63271
O_ O_ 0.545626 0.533789 0.832987 -0.57982
O_ O_ 0.903124 0.597293 0.844117 -0.63271
O_ O_ 0.879701 0.594549 0.924199 -0.57982
O_ O_ 0.741357 0.901977 0.596793 -0.63271
O_ O_ 0.710719 0.836257 0.546331 -0.57982
O_ O_ 0.855202 0.849261 0.604074 -0.63271
O_ O_ 0.880922 0.926301 0.595851 -0.57982
O_ O_ 0.489302 0.909761 0.589018 -0.63271
O_ O_ 0.955596 0.964603 0.662488 -0.57982
O_ O_ 0.587167 0.89689 0.641358 -0.63271
O_ O_ 0.638778 0.90554 0.582838 -0.57982
O_ O_ 0.771784 0.58864 0.909722 -0.63271
O_ O_ 0.798638 0.65096 0.964524 -0.57982
O_ O_ 0.660066 0.639251 0.90063 -0.63271
O_ O_ 0.619877 0.571084 0.905705 -0.57982
F_ F_ 0.944552 0.831296 0.94574 -0.20885
F_ F_ 0.932994 0.816955 0.858031 -0.20885
F_ F_ 0.875306 0.801191 0.904915 -0.20885
F_ F_ 0.822593 0.939511 0.835124 -0.20885
F_ F_ 0.830236 0.857421 0.822873 -0.20885
F_ F_ 0.893993 0.899173 0.811005 -0.20885
F_ F_ 0.584494 0.671909 0.560067 -0.20885
F_ F_ 0.579991 0.677046 0.646581 -0.20885
F_ F_ 0.653248 0.685215 0.610258 -0.20885
F_ F_ 0.691963 0.555207 0.66955 -0.20885
F_ F_ 0.678324 0.637257 0.687914 -0.20885
F_ F_ 0.619702 0.587635 0.699431 -0.20885
_cell_length_a 26.508
_cell_length_b 26.37200000322088
_cell_length_c 26.311999743092066
_cell_angle_alpha 93.74100058972084
_cell_angle_beta 96.04100104955006
_cell_angle_gamma 83.6869992558723
_symmetry_space_group_name_H-M         'P 1'
_symmetry_Int_Tables_number            1
loop_
_symmetry_equiv_pos_as_xyz
   'x, y, z'
                         
loop_
_atom_site_label
_atom_site_type_symbol
_atom_site_fract_x 
_atom_site_fract_y
_atom_site_fract_z
_atom_site_charge
Zn Zn 0.0804981 0.0890477 0.350017 0.83971
Zn Zn 0.16192 0.344407 0.0815605 0.83971
Zn Zn 0.404136 0.415007 0.159362 0.83971
Zn Zn 0.338325 0.158568 0.416698 0.83971
H_ H_ 0.157627 0.138978 0.306926 0.10394
H_ H_ 0.237078 0.102716 0.26844 0.10394
H_ H_ 0.216256 0.453651 0.289438 0.10394
H_ H_ 0.125211 0.992762 0.339779 0.10394
H_ H_ 0.529382 0.0997595 0.254077 0.10394
H_ H_ 0.497109 0.173342 0.204709 0.10394
H_ H_ 0.0227165 0.273573 0.336224 0.10394
H_ H_ 0.0649674 0.196261 0.377559 0.10394
H_ H_ 0.0223553 0.438326 0.334764 0.10394
H_ H_ 0.483967 0.374995 0.362477 0.10394
H_ H_ 0.359432 0.484728 0.400141 0.10394
H_ H_ 0.081617 0.309904 0.130203 0.10394
H_ H_ 0.498715 0.273267 0.0938199 0.10394
H_ H_ 0.0394174 0.28536 0.445401 0.10394
H_ H_ 0.12819 0.306832 0.981582 0.10394
H_ H_ 0.21873 0.253953 0.0972576 0.10394
H_ H_ 0.25702 0.201477 0.173981 0.10394
H_ H_ 0.219729 0.336084 0.270067 0.10394
H_ H_ 0.186487 0.382119 0.19303 0.10394
H_ H_ 0.221327 0.36391 0.443613 0.10394
H_ H_ 0.272841 0.365837 0.37297 0.10394
H_ H_ 0.398352 0.398996 0.480004 0.10394
H_ H_ 0.300251 0.409324 0.160409 0.10394
H_ H_ 0.225716 0.465442 0.186845 0.10394
H_ H_ 0.316587 0.0559174 0.281142 0.10394
H_ H_ 0.400276 0.513344 0.233211 0.10394
H_ H_ 0.00857557 0.390751 0.20703 0.10394
H_ H_ 0.0524469 0.310119 0.242998 0.10394
H_ H_ 0.414781 0.230664 0.213917 0.10394
H_ H_ 0.3634 0.309434 0.181369 0.10394
H_ H_ 0.45857 0.0579569 0.110486 0.10394
H_ H_ 0.00871314 0.118928 0.0940691 0.10394
H_ H_ 0.131383 0.00287368 0.0687884 0.10394
H_ H_ 0.440593 0.164931 0.397279 0.10394
H_ H_ 0.016879 0.183754 0.456077 0.10394
H_ H_ 0.409534 0.278901 0.0411838 0.10394
H_ H_ 0.350972 0.229934 0.512001 0.10394
H_ H_ 0.235445 0.196759 0.384697 0.10394
H_ H_ 0.194103 0.239243 0.305564 0.10394
H_ H_ 0.339647 0.223384 0.245231 0.10394
H_ H_ 0.371647 0.168491 0.314211 0.10394
H_ H_ 0.282999 0.130491 0.0484054 0.10394
H_ H_ 0.228943 0.130478 0.114492 0.10394
H_ H_ 0.111991 0.0831049 0.00571905 0.10394
C_ C_ 0.168258 0.0972129 0.302223 0.18167
C_ C_ 0.214231 0.0757624 0.280722 -0.15533
C_ C_ 0.226879 0.0208114 0.277205 0.02923
C_ C_ 0.203817 0.492583 0.293685 -0.15533
C_ C_ 0.148392 0.0148965 0.318928 0.18167
C_ C_ 0.0225105 0.138255 0.266312 0.18167
C_ C_ 0.511463 0.177927 0.243027 -0.15533
C_ C_ 0.0005599999999998939 0.230139 0.264756 0.02923
C_ C_ 0.0215235 0.236323 0.314748 -0.15533
C_ C_ 0.0431076 0.193409 0.341515 0.18167
C_ C_ -0.0023940000000000072 0.0554426 0.369546 0.69207
C_ C_ 0.478921 0.501984 0.368752 0.02923
C_ C_ 0.498982 0.45127 0.36773 -0.15533
C_ C_ 0.468445 0.411007 0.374295 -0.15533
C_ C_ 0.416739 0.421123 0.384965 0.02923
C_ C_ 0.398282 0.472098 0.389363 -0.15533
C_ C_ 0.427299 0.511871 0.378088 0.02923
C_ C_ 0.395029 0.067033 0.394764 0.69207
C_ C_ 0.403104 0.325322 0.377526 0.69661
C_ C_ 0.0757661 0.299909 0.0895553 0.18167
C_ C_ 0.0299286 0.279911 0.0705405 -0.15533
C_ C_ 0.0193588 0.271487 0.0187692 0.02923
C_ C_ 0.0514539 0.287295 0.486853 -0.15533
C_ C_ 0.0996142 0.298811 0.0053221 0.18167
C_ C_ 0.224941 0.271403 0.134679 0.18167
C_ C_ 0.240998 0.241269 0.176907 -0.15533
C_ C_ 0.241642 0.266426 0.226539 0.02923
C_ C_ 0.222509 0.318736 0.231391 -0.15533
C_ C_ 0.202773 0.343313 0.188031 0.18167
C_ C_ 0.244198 0.369255 0.0445598 0.69207
C_ C_ 0.279952 0.372344 0.505117 0.02923
C_ C_ 0.260988 0.367594 0.452064 -0.15533
C_ C_ 0.28953 0.375839 0.41225 -0.15533
C_ C_ 0.342227 0.382175 0.42125 0.02923
C_ C_ 0.361873 0.387102 0.472885 -0.15533
C_ C_ 0.333495 0.37831 0.514718 0.02923
C_ C_ 0.355175 0.385357 0.0721419 0.69207
C_ C_ 0.349577 0.386195 0.323773 0.69661
C_ C_ 0.306777 0.441414 0.18584 0.18167
C_ C_ 0.264814 0.472986 0.203918 -0.15533
C_ C_ 0.274028 0.510491 0.244463 0.02923
C_ C_ 0.312883 0.0237022 0.252065 -0.15533
C_ C_ 0.36367 0.498316 0.227236 0.18167
C_ C_ 0.476844 0.357239 0.221029 0.18167
C_ C_ 0.0109373 0.314247 0.233415 -0.15533
C_ C_ 0.480034 0.269935 0.240994 0.02923
C_ C_ 0.429696 0.267778 0.217878 -0.15533
C_ C_ 0.40234 0.31281 0.198938 0.18167
C_ C_ 0.487422 0.449156 0.129761 0.69207
C_ C_ 0.0181087 0.993594 0.116371 0.02923
C_ C_ -0.000532176 0.0460509 0.117922 -0.15533
C_ C_ 0.0292668 0.0824566 0.104817 -0.15533
C_ C_ 0.0799505 0.0677027 0.0920337 0.02923
C_ C_ 0.0942886 0.0166418 0.0811276 -0.15533
C_ C_ 0.0690578 0.979174 0.100567 0.02923
C_ C_ 0.099805 0.420442 0.104541 0.69207
C_ C_ 0.0993542 0.165872 0.0992822 0.69661
C_ C_ 0.435362 0.190592 0.429792 0.18167
C_ C_ 0.478905 0.207604 0.455677 -0.15533
C_ C_ 0.472603 0.243204 0.497492 0.02923
C_ C_ 0.420964 0.24978 0.0115151 -0.15533
C_ C_ 0.383637 0.22836 0.49324 0.18167
C_ C_ 0.256206 0.20134 0.350919 0.18167
C_ C_ 0.233158 0.228178 0.308869 -0.15533
C_ C_ 0.264017 0.235946 0.270555 0.02923
C_ C_ 0.313674 0.212288 0.272234 -0.15533
C_ C_ 0.335222 0.188325 0.315403 0.18167
C_ C_ 0.259096 0.123207 0.456154 0.69207
C_ C_ 0.224331 0.119251 0.989546 0.02923
C_ C_ 0.243028 0.12282 0.0378244 -0.15533
C_ C_ 0.212618 0.119061 0.0752769 -0.15533
C_ C_ 0.162745 0.103892 0.065957 0.02923
C_ C_ 0.144561 0.0985579 0.0145756 -0.15533
C_ C_ 0.171356 0.113694 0.977437 0.02923
C_ C_ 0.150496 0.104665 0.427239 0.69207
C_ C_ 0.146356 0.09676 0.157995 0.69661
C_ C_ 0.377737 0.379922 0.378237 -0.30787
C_ C_ 0.122214 0.107145 0.102365 -0.30787
N_ N_ 0.132843 0.066217 0.313199 -0.32189
N_ N_ 0.0439376 0.146369 0.315393 -0.32189
N_ N_ 0.109283 0.307381 0.0559784 -0.32189
N_ N_ 0.200124 0.319432 0.140603 -0.32189
N_ N_ 0.356204 0.454959 0.196442 -0.32189
N_ N_ 0.429351 0.353222 0.194619 -0.32189
N_ N_ 0.390225 0.198617 0.448229 -0.32189
N_ N_ 0.305705 0.184297 0.354545 -0.32189
O_ O_ 0.506322 0.0919951 0.398153 -0.63271
O_ O_ 0.03285 0.043353 0.340766 -0.57982
O_ O_ 0.396369 0.0848881 0.348836 -0.63271
O_ O_ 0.36607 0.0919083 0.427888 -0.57982
O_ O_ 0.241961 0.400323 0.0858451 -0.63271
O_ O_ 0.207637 0.338902 0.0339119 -0.57982
O_ O_ 0.359371 0.342125 0.0975607 -0.63271
O_ O_ 0.373923 0.425578 0.0958979 -0.57982
O_ O_ 0.993011 0.402017 0.110697 -0.63271
O_ O_ 0.453799 0.460024 0.161109 -0.57982
O_ O_ 0.101708 0.396105 0.14858 -0.63271
O_ O_ 0.134212 0.406694 0.0755662 -0.57982
O_ O_ 0.256734 0.0999975 0.408098 -0.63271
O_ O_ 0.295967 0.15374 0.466646 -0.57982
O_ O_ 0.147413 0.14704 0.403409 -0.63271
O_ O_ 0.115667 0.0753953 0.40909 -0.57982
F_ F_ 0.441829 0.314797 0.415939 -0.20885
F_ F_ 0.426619 0.313108 0.331844 -0.20885
F_ F_ 0.368912 0.290217 0.378601 -0.20885
F_ F_ 0.317321 0.429055 0.322037 -0.20885
F_ F_ 0.32033 0.345555 0.308594 -0.20885
F_ F_ 0.382842 0.388456 0.290942 -0.20885
F_ F_ 0.0669088 0.170738 0.0556513 -0.20885
F_ F_ 0.0706127 0.17912 0.138918 -0.20885
F_ F_ 0.134114 0.202071 0.0966129 -0.20885
F_ F_ 0.177761 0.0525751 0.165989 -0.20885
F_ F_ 0.175036 0.134122 0.178972 -0.20885
F_ F_ 0.108906 0.0966437 0.190522 -0.20885
Zn Zn 0.0936918 0.087009 0.84484 0.83971
Zn Zn 0.163903 0.345523 0.579769 0.83971
Zn Zn 0.408783 0.41845 0.651082 0.83971
Zn Zn 0.337323 0.153218 0.911955 0.83971
H_ H_ 0.183527 0.126997 0.810093 0.10394
H_ H_ 0.257551 0.0922788 0.765862 0.10394
H_ H_ 0.215331 0.448759 0.785695 0.10394
H_ H_ 0.131371 0.983863 0.818361 0.10394
H_ H_ 0.529503 0.0979007 0.745779 0.10394
H_ H_ 0.489538 0.172624 0.695817 0.10394
H_ H_ 0.0220579 0.272296 0.826708 0.10394
H_ H_ 0.0831424 0.205307 0.866344 0.10394
H_ H_ 0.0355318 0.44438 0.867409 0.10394
H_ H_ 0.482953 0.373113 0.874311 0.10394
H_ H_ 0.363247 0.491064 0.914825 0.10394
H_ H_ 0.0867398 0.304665 0.633496 0.10394
H_ H_ 0.506516 0.264634 0.601354 0.10394
H_ H_ 0.0462 0.276576 0.944092 0.10394
H_ H_ 0.125935 0.313802 0.481951 0.10394
H_ H_ 0.211876 0.250783 0.586075 0.10394
H_ H_ 0.255006 0.196494 0.660797 0.10394
H_ H_ 0.234652 0.328596 0.76249 0.10394
H_ H_ 0.190054 0.373986 0.694677 0.10394
H_ H_ 0.215733 0.39148 0.949625 0.10394
H_ H_ 0.265686 0.405646 0.882173 0.10394
H_ H_ 0.39637 0.409576 0.985133 0.10394
H_ H_ 0.308749 0.395688 0.669964 0.10394
H_ H_ 0.234511 0.452914 0.688513 0.10394
H_ H_ 0.334205 0.0406886 0.776353 0.10394
H_ H_ 0.404325 0.505151 0.724259 0.10394
H_ H_ 0.0177097 0.370726 0.67775 0.10394
H_ H_ 0.0525451 0.299896 0.734953 0.10394
H_ H_ 0.411127 0.247929 0.711014 0.10394
H_ H_ 0.370892 0.325081 0.682794 0.10394
H_ H_ 0.46606 0.0576667 0.618889 0.10394
H_ H_ 0.0084129 0.113333 0.582856 0.10394
H_ H_ 0.142951 0.0075967 0.594576 0.10394
H_ H_ 0.436474 0.167995 0.890833 0.10394
H_ H_ 0.0122523 0.202982 0.931493 0.10394
H_ H_ 0.411859 0.289614 0.537399 0.10394
H_ H_ 0.342963 0.224542 0.00823457 0.10394
H_ H_ 0.236753 0.193879 0.878981 0.10394
H_ H_ 0.195785 0.23537 0.798125 0.10394
H_ H_ 0.33812 0.217006 0.732277 0.10394
H_ H_ 0.379953 0.182672 0.817663 0.10394
H_ H_ 0.278943 0.1263 0.555753 0.10394
H_ H_ 0.222179 0.116167 0.619387 0.10394
H_ H_ 0.100245 0.0938856 0.506371 0.10394
C_ C_ 0.186858 0.0867017 0.797078 0.18167
C_ C_ 0.232632 0.0642153 0.776603 -0.15533
C_ C_ 0.239635 0.0106043 0.76884 0.02923
C_ C_ 0.209715 0.48725 0.795136 -0.15533
C_ C_ 0.157102 0.007022 0.803693 0.18167
C_ C_ 0.0214941 0.133708 0.772911 0.18167
C_ C_ 0.506185 0.177724 0.73588 -0.15533
C_ C_ -0.00154387 0.225295 0.764294 0.02923
C_ C_ 0.024074 0.232762 0.812365 -0.15533
C_ C_ 0.0594759 0.194982 0.833449 0.18167
C_ C_ 0.0091232 0.050087 0.87077 0.69207
C_ C_ 0.475665 0.502941 0.872029 0.02923
C_ C_ 0.496747 0.448859 0.871689 -0.15533
C_ C_ 0.464609 0.411149 0.878294 -0.15533
C_ C_ 0.413654 0.425426 0.889184 0.02923
C_ C_ 0.396816 0.478571 0.893204 -0.15533
C_ C_ 0.425535 0.516356 0.883211 0.02923
C_ C_ 0.394625 0.0726781 0.88671 0.69207
C_ C_ 0.397856 0.333684 0.887611 0.69661
C_ C_ 0.0764871 0.303779 0.592313 0.18167
C_ C_ 0.0305833 0.286544 0.57614 -0.15533
C_ C_ 0.0187095 0.273407 0.523261 0.02923
C_ C_ 0.0560569 0.279701 0.985451 -0.15533
C_ C_ 0.0990057 0.303883 0.50646 0.18167
C_ C_ 0.217534 0.267227 0.625099 0.18167
C_ C_ 0.239116 0.236438 0.665562 -0.15533
C_ C_ 0.240253 0.257114 0.715655 0.02923
C_ C_ 0.22513 0.30833 0.725562 -0.15533
C_ C_ 0.199762 0.336293 0.686484 0.18167
C_ C_ 0.245551 0.368646 0.544749 0.69207
C_ C_ 0.278505 0.379439 0.00595833 0.02923
C_ C_ 0.256929 0.384352 0.95662 -0.15533
C_ C_ 0.285889 0.390241 0.916794 -0.15533
C_ C_ 0.337512 0.398483 0.92747 0.02923
C_ C_ 0.358072 0.397297 0.977792 -0.15533
C_ C_ 0.328816 0.388455 0.0187841 0.02923
C_ C_ 0.35878 0.380542 0.567822 0.69207
C_ C_ 0.348351 0.394902 0.829489 0.69661
C_ C_ 0.312422 0.434343 0.684533 0.18167
C_ C_ 0.269211 0.463073 0.700964 -0.15533
C_ C_ 0.277933 0.502586 0.739641 0.02923
C_ C_ 0.328177 0.0115843 0.745312 -0.15533
C_ C_ 0.364997 0.497274 0.713962 0.18167
C_ C_ 0.490418 0.358425 0.705387 0.18167
C_ C_ 0.013245 0.303442 0.720654 -0.15533
C_ C_ 0.483555 0.275796 0.73593 0.02923
C_ C_ 0.435475 0.279045 0.71271 -0.15533
C_ C_ 0.411998 0.323039 0.692463 0.18167
C_ C_ 0.485811 0.451722 0.617096 0.69207
C_ C_ 0.021061 0.989731 0.612011 0.02923
C_ C_ 0.0002500000000000835 0.0408126 0.607205 -0.15533
C_ C_ 0.0297785 0.0793429 0.596573 -0.15533
C_ C_ 0.0824198 0.0693412 0.598191 0.02923
C_ C_ 0.101587 0.0187387 0.593982 -0.15533
C_ C_ 0.0722565 0.978409 0.604059 0.02923
C_ C_ 0.0957668 0.422784 0.598054 0.69207
C_ C_ 0.0916727 0.164893 0.604059 0.69661
C_ C_ 0.431181 0.191008 0.924368 0.18167
C_ C_ 0.47384 0.208616 0.950429 -0.15533
C_ C_ 0.471069 0.238887 0.995268 0.02923
C_ C_ 0.424259 0.251905 0.515974 -0.15533
C_ C_ 0.379851 0.223012 0.989322 0.18167
C_ C_ 0.257583 0.192491 0.843561 0.18167
C_ C_ 0.23459 0.215013 0.798078 -0.15533
C_ C_ 0.265108 0.226543 0.75988 0.02923
C_ C_ 0.318092 0.216931 0.767803 -0.15533
C_ C_ 0.339423 0.194617 0.813452 0.18167
C_ C_ 0.258848 0.124447 0.949921 0.69207
C_ C_ 0.22634 0.110712 0.492318 0.02923
C_ C_ 0.242027 0.116513 0.544918 -0.15533
C_ C_ 0.210018 0.110487 0.581391 -0.15533
C_ C_ 0.156349 0.106754 0.567247 0.02923
C_ C_ 0.141089 0.0988319 0.516029 -0.15533
C_ C_ 0.176247 0.0983763 0.478245 0.02923
C_ C_ 0.144545 0.118678 0.925907 0.69207
C_ C_ 0.140837 0.104543 0.665967 0.69661
C_ C_ 0.373437 0.387998 0.884249 -0.30787
C_ C_ 0.11813 0.110059 0.607771 -0.30787
N_ N_ 0.151327 0.0579143 0.810352 -0.32189
N_ N_ 0.0572663 0.146417 0.812789 -0.32189
N_ N_ 0.108868 0.313267 0.557804 -0.32189
N_ N_ 0.194479 0.314869 0.638535 -0.32189
N_ N_ 0.358607 0.451111 0.690943 -0.32189
N_ N_ 0.440316 0.360368 0.685274 -0.32189
N_ N_ 0.384735 0.195855 0.944211 -0.32189
N_ N_ 0.309718 0.184963 0.850527 -0.32189
O_ O_ 0.508115 0.0908737 0.898997 -0.63271
O_ O_ 0.0514688 0.0354992 0.849409 -0.57982
O_ O_ 0.390465 0.0950447 0.842115 -0.63271
O_ O_ 0.37097 0.0939433 0.923213 -0.57982
O_ O_ 0.24911 0.392692 0.589998 -0.63271
O_ O_ 0.211801 0.337089 0.535449 -0.57982
O_ O_ 0.359937 0.344034 0.598331 -0.63271
O_ O_ 0.374602 0.423594 0.586781 -0.57982
O_ O_ 0.980063 0.415678 0.583136 -0.63271
O_ O_ 0.454271 0.462197 0.65098 -0.57982
O_ O_ 0.099921 0.394566 0.637782 -0.63271
O_ O_ 0.131189 0.406605 0.568315 -0.57982
O_ O_ 0.253992 0.097996 0.904829 -0.63271
O_ O_ 0.290112 0.160303 0.957106 -0.57982
O_ O_ 0.157507 0.149702 0.892525 -0.63271
O_ O_ 0.105064 0.0924189 0.912989 -0.57982
F_ F_ 0.437832 0.322119 0.923861 -0.20885
F_ F_ 0.420281 0.314849 0.842435 -0.20885
F_ F_ 0.361913 0.303167 0.892995 -0.20885
F_ F_ 0.318835 0.440279 0.826746 -0.20885
F_ F_ 0.318362 0.357051 0.806439 -0.20885
F_ F_ 0.381018 0.393849 0.79162 -0.20885
F_ F_ 0.0627224 0.172507 0.557916 -0.20885
F_ F_ 0.0550006 0.177336 0.63711 -0.20885
F_ F_ 0.125223 0.200744 0.609847 -0.20885
F_ F_ 0.174124 0.0621495 0.675095 -0.20885
F_ F_ 0.174631 0.142707 0.682041 -0.20885
F_ F_ 0.104074 0.106416 0.699528 -0.20885
Zn Zn 0.0851119 0.583446 0.346398 0.83971
Zn Zn 0.156049 0.845732 0.0865113 0.83971
Zn Zn 0.407017 0.921658 0.168655 0.83971
Zn Zn 0.342942 0.648643 0.413297 0.83971
H_ H_ 0.15661 0.635776 0.304375 0.10394
H_ H_ 0.24182 0.608061 0.276525 0.10394
H_ H_ 0.204961 0.951976 0.302413 0.10394
H_ H_ 0.130656 0.48116 0.317288 0.10394
H_ H_ 0.528205 0.594067 0.244353 0.10394
H_ H_ 0.491693 0.671553 0.195778 0.10394
H_ H_ 0.0237302 0.771226 0.347951 0.10394
H_ H_ 0.0681024 0.696585 0.384606 0.10394
H_ H_ 0.0247025 0.958327 0.36469 0.10394
H_ H_ 0.483829 0.876148 0.390761 0.10394
H_ H_ 0.355444 0.986112 0.412713 0.10394
H_ H_ 0.075244 0.799758 0.135905 0.10394
H_ H_ 0.495411 0.769347 0.103341 0.10394
H_ H_ 0.0403469 0.776511 0.441649 0.10394
H_ H_ 0.1202 0.802271 0.985437 0.10394
H_ H_ 0.213926 0.756466 0.0972229 0.10394
H_ H_ 0.267615 0.713448 0.17192 0.10394
H_ H_ 0.219472 0.842 0.27479 0.10394
H_ H_ 0.169136 0.87795 0.203299 0.10394
H_ H_ 0.215066 0.880649 0.439986 0.10394
H_ H_ 0.268676 0.890112 0.377729 0.10394
H_ H_ 0.394321 0.898009 0.49453 0.10394
H_ H_ 0.306082 0.900083 0.164105 0.10394
H_ H_ 0.228812 0.939512 0.206142 0.10394
H_ H_ 0.33243 0.556906 0.277859 0.10394
H_ H_ 0.39189 0.0151132 0.236313 0.10394
H_ H_ 0.00615261 0.886468 0.202689 0.10394
H_ H_ 0.0470627 0.812149 0.250434 0.10394
H_ H_ 0.412085 0.748239 0.235731 0.10394
H_ H_ 0.368017 0.831955 0.205031 0.10394
H_ H_ 0.464845 0.555319 0.130925 0.10394
H_ H_ 0.014898 0.616447 0.100844 0.10394
H_ H_ 0.140133 0.503714 0.0806453 0.10394
H_ H_ 0.447818 0.651089 0.391696 0.10394
H_ H_ 0.0184783 0.68654 0.453544 0.10394
H_ H_ 0.411744 0.770146 0.0501328 0.10394
H_ H_ 0.345604 0.735404 0.492549 0.10394
H_ H_ 0.240703 0.69158 0.380165 0.10394
H_ H_ 0.196124 0.735659 0.304315 0.10394
H_ H_ 0.340077 0.72608 0.245973 0.10394
H_ H_ 0.375917 0.676537 0.31547 0.10394
H_ H_ 0.282952 0.629537 0.0608487 0.10394
H_ H_ 0.228094 0.593987 0.11535 0.10394
H_ H_ 0.106142 0.589237 -0.00121899999999997 0.10394
C_ C_ 0.167007 0.594942 0.294868 0.18167
C_ C_ 0.216087 0.579356 0.280843 -0.15533
C_ C_ 0.233295 0.528543 0.276789 0.02923
C_ C_ 0.194351 0.992527 0.298921 -0.15533
C_ C_ 0.1533 0.509594 0.304971 0.18167
C_ C_ 0.0299652 0.641101 0.275042 0.18167
C_ C_ 0.503993 0.674192 0.237058 -0.15533
C_ C_ 0.00246832 0.732272 0.274541 0.02923
C_ C_ 0.0263212 0.734987 0.324803 -0.15533
C_ C_ 0.0539101 0.693615 0.344878 0.18167
C_ C_ 0.00679216 0.539973 0.361535 0.69207
C_ C_ 0.477518 0.00445364 0.394316 0.02923
C_ C_ 0.500046 0.951743 0.395575 -0.15533
C_ C_ 0.467087 0.91411 0.392195 -0.15533
C_ C_ 0.41685 0.925965 0.400385 0.02923
C_ C_ 0.397383 0.976173 0.411735 -0.15533
C_ C_ 0.425209 0.0164816 0.407319 0.02923
C_ C_ 0.401652 0.563372 0.376961 0.69207
C_ C_ 0.40191 0.829272 0.388444 0.69661
C_ C_ 0.0659587 0.80172 0.0967896 0.18167
C_ C_ 0.0199782 0.782614 0.080526 -0.15533
C_ C_ 0.0129786 0.767668 0.027861 0.02923
C_ C_ 0.0460854 0.783877 0.481437 -0.15533
C_ C_ 0.0912249 0.798583 0.0122465 0.18167
C_ C_ 0.214178 0.772563 0.138271 0.18167
C_ C_ 0.246224 0.750242 0.17801 -0.15533
C_ C_ 0.241916 0.769082 0.229905 0.02923
C_ C_ 0.210479 0.817322 0.238187 -0.15533
C_ C_ 0.186072 0.840365 0.19628 0.18167
C_ C_ 0.243055 0.870193 0.0544549 0.69207
C_ C_ 0.275093 0.872714 0.504154 0.02923
C_ C_ 0.256174 0.872838 0.451754 -0.15533
C_ C_ 0.287264 0.883459 0.416275 -0.15533
C_ C_ 0.33786 0.88982 0.430126 0.02923
C_ C_ 0.356029 0.890906 0.481047 -0.15533
C_ C_ 0.324565 0.886572 0.518673 0.02923
C_ C_ 0.352303 0.883637 0.0809322 0.69207
C_ C_ 0.352512 0.892278 0.331787 0.69661
C_ C_ 0.309793 0.932204 0.192215 0.18167
C_ C_ 0.267323 0.953881 0.215507 -0.15533
C_ C_ 0.269994 0.9956971 0.250312 0.02923
C_ C_ 0.324869 0.523184 0.253794 -0.15533
C_ C_ 0.358869 0.996187 0.232664 0.18167
C_ C_ 0.488901 0.854367 0.206278 0.18167
C_ C_ 0.00654955 0.814684 0.236041 -0.15533
C_ C_ 0.486497 0.76996 0.230862 0.02923
C_ C_ 0.4338 0.779515 0.227918 -0.15533
C_ C_ 0.408892 0.824334 0.209003 0.18167
C_ C_ 0.478698 0.958542 0.122818 0.69207
C_ C_ 0.023237 0.488132 0.116105 0.02923
C_ C_ 0.00293009 0.538699 0.108777 -0.15533
C_ C_ 0.0321516 0.577156 0.0990075 -0.15533
C_ C_ 0.0831912 0.564635 0.0912216 0.02923
C_ C_ 0.101915 0.512661 0.0877072 -0.15533
C_ C_ 0.0749079 0.473789 0.105289 0.02923
C_ C_ 0.0968633 0.92994 0.11353 0.69207
C_ C_ 0.100286 0.661726 0.0908794 0.69661
C_ C_ 0.442051 0.681163 0.421264 0.18167
C_ C_ 0.478813 0.712637 0.439117 -0.15533
C_ C_ 0.47574 0.740339 0.48626 0.02923
C_ C_ 0.420691 0.744527 0.019137 -0.15533
C_ C_ 0.386375 0.72326 0.481876 0.18167
C_ C_ 0.26004 0.709325 0.354806 0.18167
C_ C_ 0.236937 0.730158 0.309593 -0.15533
C_ C_ 0.265466 0.736113 0.270747 0.02923
C_ C_ 0.318089 0.724476 0.27655 -0.15533
C_ C_ 0.338486 0.696794 0.317693 0.18167
C_ C_ 0.264711 0.622024 0.453818 0.69207
C_ C_ 0.230828 0.616212 0.992912 0.02923
C_ C_ 0.246179 0.619878 0.0448036 -0.15533
C_ C_ 0.214508 0.604283 0.0766876 -0.15533
C_ C_ 0.162542 0.60003 0.0622244 0.02923
C_ C_ 0.145842 0.595385 0.0107723 -0.15533
C_ C_ 0.182146 0.598186 0.975704 0.02923
C_ C_ 0.155115 0.607948 0.422526 0.69207
C_ C_ 0.141836 0.597269 0.155718 0.69661
C_ C_ 0.376448 0.886829 0.388968 -0.30787
C_ C_ 0.122305 0.605214 0.099824 -0.30787
N_ N_ 0.138459 0.559786 0.308396 -0.32189
N_ N_ 0.0510696 0.646163 0.322281 -0.32189
N_ N_ 0.101498 0.809364 0.0635198 -0.32189
N_ N_ 0.188577 0.819066 0.148394 -0.32189
N_ N_ 0.354572 0.952167 0.203041 -0.32189
N_ N_ 0.436963 0.861279 0.196692 -0.32189
N_ N_ 0.396473 0.687374 0.442993 -0.32189
N_ N_ 0.311144 0.689315 0.355886 -0.32189
O_ O_ 0.513596 0.578437 0.39348 -0.63271
O_ O_ 0.0420087 0.534266 0.330571 -0.57982
O_ O_ 0.398807 0.5887 0.335274 -0.63271
O_ O_ 0.381292 0.587005 0.417527 -0.57982
O_ O_ 0.240511 0.901814 0.094971 -0.63271
O_ O_ 0.206958 0.83876 0.0422706 -0.57982
O_ O_ 0.36446 0.83946 0.103012 -0.63271
O_ O_ 0.370522 0.92491 0.105657 -0.57982
O_ O_ 0.985567 0.909356 0.102114 -0.63271
O_ O_ 0.454195 0.965371 0.163283 -0.57982
O_ O_ 0.0894616 0.900691 0.148906 -0.63271
O_ O_ 0.129715 0.911077 0.0834357 -0.57982
O_ O_ 0.256417 0.599394 0.408426 -0.63271
O_ O_ 0.300155 0.654411 0.463463 -0.57982
O_ O_ 0.159665 0.647937 0.395591 -0.63271
O_ O_ 0.117663 0.58024 0.409343 -0.57982
F_ F_ 0.433874 0.824718 0.433138 -0.20885
F_ F_ 0.432835 0.808897 0.349549 -0.20885
F_ F_ 0.367506 0.792701 0.392462 -0.20885
F_ F_ 0.319681 0.937173 0.329099 -0.20885
F_ F_ 0.32447 0.851765 0.313698 -0.20885
F_ F_ 0.389136 0.891945 0.297193 -0.20885
F_ F_ 0.0658559 0.666714 0.0496071 -0.20885
F_ F_ 0.0711096 0.677805 0.131053 -0.20885
F_ F_ 0.136558 0.696309 0.0912722 -0.20885
F_ F_ 0.17345 0.55387 0.16365 -0.20885
F_ F_ 0.172661 0.636166 0.17583 -0.20885
F_ F_ 0.101944 0.601019 0.187612 -0.20885
Zn Zn 0.0883359 0.586905 0.846089 0.83971
Zn Zn 0.15969 0.849419 0.58244 0.83971
Zn Zn 0.413727 0.917449 0.648121 0.83971
Zn Zn 0.340132 0.653626 0.912611 0.83971
H_ H_ 0.171297 0.632277 0.80777 0.10394
H_ H_ 0.244017 0.597593 0.760882 0.10394
H_ H_ 0.206673 0.941119 0.779402 0.10394
H_ H_ 0.141481 0.480693 0.824484 0.10394
H_ H_ 0.534469 0.599987 0.739559 0.10394
H_ H_ 0.494958 0.679817 0.699876 0.10394
H_ H_ 0.02745 0.771531 0.831177 0.10394
H_ H_ 0.069743 0.693866 0.876701 0.10394
H_ H_ 0.0371112 0.952859 0.893757 0.10394
H_ H_ 0.478472 0.882277 0.881909 0.10394
H_ H_ 0.360604 0.994622 0.925635 0.10394
H_ H_ 0.0723871 0.821457 0.626525 0.10394
H_ H_ 0.501686 0.757782 0.586705 0.10394
H_ H_ 0.0391492 0.775717 0.951139 0.10394
H_ H_ 0.118563 0.815967 0.476277 0.10394
H_ H_ 0.240779 0.762037 0.600313 0.10394
H_ H_ 0.266004 0.702403 0.669813 0.10394
H_ H_ 0.217565 0.832071 0.768545 0.10394
H_ H_ 0.172865 0.875008 0.695277 0.10394
H_ H_ 0.218073 0.868656 0.952422 0.10394
H_ H_ 0.269611 0.894826 0.886046 0.10394
H_ H_ 0.400176 0.900279 0.996489 0.10394
H_ H_ 0.316967 0.8862 0.663387 0.10394
H_ H_ 0.237608 0.936814 0.691973 0.10394
H_ H_ 0.338255 0.543437 0.778811 0.10394
H_ H_ 0.406859 -0.003422000000000036 0.726452 0.10394
H_ H_ 0.0161966 0.889366 0.697295 0.10394
H_ H_ 0.0592476 0.810681 0.72402 0.10394
H_ H_ 0.422164 0.75439 0.727086 0.10394
H_ H_ 0.383528 0.830609 0.68405 0.10394
H_ H_ 0.465169 0.55401 0.6139 0.10394
H_ H_ 0.0176195 0.617563 0.59864 0.10394
H_ H_ 0.146276 0.507976 0.595238 0.10394
H_ H_ 0.438062 0.662011 0.896313 0.10394
H_ H_ 0.0129875 0.691149 0.954926 0.10394
H_ H_ 0.420934 0.776208 0.538654 0.10394
H_ H_ 0.34378 0.730776 0.00381766 0.10394
H_ H_ 0.241747 0.668635 0.865656 0.10394
H_ H_ 0.194 0.713655 0.790187 0.10394
H_ H_ 0.342385 0.755489 0.758249 0.10394
H_ H_ 0.383307 0.705974 0.82595 0.10394
H_ H_ 0.287585 0.623954 0.557146 0.10394
H_ H_ 0.232486 0.613505 0.619313 0.10394
H_ H_ 0.109779 0.584999 0.502809 0.10394
C_ C_ 0.177466 0.592262 0.796936 0.18167
C_ C_ 0.223309 0.572936 0.777786 -0.15533
C_ C_ 0.239141 0.520702 0.77496 0.02923
C_ C_ 0.200698 0.982353 0.785816 -0.15533
C_ C_ 0.165888 0.50798 0.815966 0.18167
C_ C_ 0.0329322 0.638972 0.765314 0.18167
C_ C_ 0.511808 0.681184 0.737729 -0.15533
C_ C_ 0.015272 0.730271 0.759376 0.02923
C_ C_ 0.0356941 0.735293 0.809305 -0.15533
C_ C_ 0.0551148 0.692918 0.837194 0.18167
C_ C_ 0.010341 0.547076 0.872114 0.69207
C_ C_ 0.472632 0.00878317 0.882092 0.02923
C_ C_ 0.492982 0.957913 0.882246 -0.15533
C_ C_ 0.463889 0.919705 0.892739 -0.15533
C_ C_ 0.414334 0.93077 0.905774 0.02923
C_ C_ 0.395999 0.982527 0.909629 -0.15533
C_ C_ 0.422093 0.0198467 0.89294 0.02923
C_ C_ 0.401625 0.569659 0.883092 0.69207
C_ C_ 0.39517 0.834573 0.894782 0.69661
C_ C_ 0.067126 0.807296 0.587197 0.18167
C_ C_ 0.0237544 0.785354 0.566269 -0.15533
C_ C_ 0.0149932 0.768327 0.515076 0.02923
C_ C_ 0.0474191 0.780093 0.992976 -0.15533
C_ C_ 0.0923757 0.803883 0.503303 0.18167
C_ C_ 0.226358 0.771948 0.634776 0.18167
C_ C_ 0.249357 0.743631 0.67629 -0.15533
C_ C_ 0.240716 0.764182 0.724124 0.02923
C_ C_ 0.21529 0.812413 0.731427 -0.15533
C_ C_ 0.191804 0.83782 0.68875 0.18167
C_ C_ 0.237362 0.871056 0.540547 0.69207
C_ C_ 0.275972 0.880463 0.0158596 0.02923
C_ C_ 0.256408 0.881474 0.964564 -0.15533
C_ C_ 0.285582 0.892117 0.925451 -0.15533
C_ C_ 0.33837 0.897913 0.935878 0.02923
C_ C_ 0.358332 0.897836 0.988328 -0.15533
C_ C_ 0.329817 0.885683 0.0280583 0.02923
C_ C_ 0.34987 0.886269 0.571427 0.69207
C_ C_ 0.352173 0.905673 0.838231 0.69661
C_ C_ 0.317765 0.922808 0.683741 0.18167
C_ C_ 0.275157 0.945256 0.706852 -0.15533
C_ C_ 0.279244 0.990486 0.735922 0.02923
C_ C_ 0.328268 0.517899 0.746593 -0.15533
C_ C_ 0.368701 0.986099 0.719172 0.18167
C_ C_ 0.501957 0.860908 0.707955 0.18167
C_ C_ 0.0186689 0.814258 0.72204 -0.15533
C_ C_ 0.493377 0.776797 0.738044 0.02923
C_ C_ 0.445099 0.778482 0.714051 -0.15533
C_ C_ 0.424189 0.82279 0.69063 0.18167
C_ C_ 0.487014 0.956356 0.612769 0.69207
C_ C_ 0.024047 0.49057 0.607664 0.02923
C_ C_ 1.00278423 0.542468 0.604351 -0.15533
C_ C_ 0.0346832 0.579306 0.597751 -0.15533
C_ C_ 0.0870354 0.569398 0.596215 0.02923
C_ C_ 0.107297 0.518065 0.601918 -0.15533
C_ C_ 0.0758068 0.47791 0.601963 0.02923
C_ C_ 0.0975607 0.928044 0.606253 0.69207
C_ C_ 0.0951194 0.666609 0.59767 0.69661
C_ C_ 0.435296 0.681852 0.934314 0.18167
C_ C_ 0.476714 0.699858 0.963657 -0.15533
C_ C_ 0.468515 0.738057 0.00369519 0.02923
C_ C_ 0.429157 0.746812 0.506497 -0.15533
C_ C_ 0.380711 0.721455 0.991231 0.18167
C_ C_ 0.263029 0.685347 0.840581 0.18167
C_ C_ 0.236162 0.710837 0.799701 -0.15533
C_ C_ 0.265541 0.735892 0.768264 0.02923
C_ C_ 0.31989 0.735289 0.78015 -0.15533
C_ C_ 0.342856 0.708895 0.819123 0.18167
C_ C_ 0.268518 0.619148 0.956717 0.69207
C_ C_ 0.228533 0.615391 0.490521 0.02923
C_ C_ 0.246818 0.618582 0.54238 -0.15533
C_ C_ 0.21641 0.609681 0.580532 -0.15533
C_ C_ 0.164187 0.599516 0.567233 0.02923
C_ C_ 0.147615 0.595189 0.513808 -0.15533
C_ C_ 0.177699 0.604618 0.476397 0.02923
C_ C_ 0.158198 0.603024 0.923416 0.69207
C_ C_ 0.145771 0.604441 0.660231 0.69661
C_ C_ 0.374096 0.89231 0.894253 -0.30787
C_ C_ 0.122605 0.611223 0.60508 -0.30787
N_ N_ 0.147328 0.558515 0.811531 -0.32189
N_ N_ 0.0559422 0.644389 0.81427 -0.32189
N_ N_ 0.1029 0.814746 0.554718 -0.32189
N_ N_ 0.194667 0.814415 0.640751 -0.32189
N_ N_ 0.361646 0.943167 0.68942 -0.32189
N_ N_ 0.45187 0.862418 0.68653 -0.32189
N_ N_ 0.389976 0.688166 0.951524 -0.32189
N_ N_ 0.315105 0.683422 0.848848 -0.32189
O_ O_ 0.508732 0.584569 0.89392 -0.63271
O_ O_ 0.0429611 0.53993 0.838046 -0.57982
O_ O_ 0.399763 0.594436 0.840749 -0.63271
O_ O_ 0.377276 0.589886 0.920381 -0.57982
O_ O_ 0.245827 0.888385 0.588344 -0.63271
O_ O_ 0.196897 0.846073 0.530087 -0.57982
O_ O_ 0.357448 0.842036 0.594221 -0.63271
O_ O_ 0.379371 0.921957 0.587782 -0.57982
O_ O_ 0.988113 0.907062 0.603714 -0.63271
O_ O_ 0.458233 0.963125 0.651138 -0.57982
O_ O_ 0.0943483 0.903764 0.64659 -0.63271
O_ O_ 0.138577 0.915373 0.580661 -0.57982
O_ O_ 0.269814 0.588924 0.915712 -0.63271
O_ O_ 0.29224 0.659295 0.958778 -0.57982
O_ O_ 0.15749 0.645798 0.903082 -0.63271
O_ O_ 0.1222 0.573829 0.90415 -0.57982
F_ F_ 0.428875 0.821315 0.937747 -0.20885
F_ F_ 0.423112 0.821733 0.85344 -0.20885
F_ F_ 0.354265 0.803265 0.885282 -0.20885
F_ F_ 0.320324 0.951226 0.834299 -0.20885
F_ F_ 0.320496 0.870145 0.81865 -0.20885
F_ F_ 0.38862 0.90802 0.805923 -0.20885
F_ F_ 0.0642259 0.669232 0.553977 -0.20885
F_ F_ 0.0720151 0.68435 0.638402 -0.20885
F_ F_ 0.131729 0.699763 0.597549 -0.20885
F_ F_ 0.184827 0.563445 0.663542 -0.20885
F_ F_ 0.168932 0.646219 0.677312 -0.20885
F_ F_ 0.110722 0.600599 0.695392 -0.20885
Zn Zn 0.585829 0.0854799 0.351013 0.83971
Zn Zn 0.660918 0.337727 0.0807525 0.83971
Zn Zn 0.904981 0.418265 0.156458 0.83971
Zn Zn 0.836953 0.165703 0.42156 0.83971
H_ H_ 0.663526 0.132298 0.316899 0.10394
H_ H_ 0.740183 0.0962831 0.267956 0.10394
H_ H_ 0.724732 0.45777 0.306143 0.10394
H_ H_ 0.624405 0.981706 0.319934 0.10394
H_ H_ 0.0302824 0.101844 0.246964 0.10394
H_ H_ 0.979845 0.176918 0.200354 0.10394
H_ H_ 0.51782 0.268681 0.339484 0.10394
H_ H_ 0.570618 0.197076 0.379573 0.10394
H_ H_ 0.537644 0.442498 0.362252 0.10394
H_ H_ 0.971483 0.374947 0.352939 0.10394
H_ H_ 0.856986 0.485506 0.404731 0.10394
H_ H_ 0.576312 0.300617 0.126334 0.10394
H_ H_ 1.00530181 0.270185 0.099784 0.10394
H_ H_ 0.545743 0.27867 0.450721 0.10394
H_ H_ 0.617866 0.321453 0.977125 0.10394
H_ H_ 0.734987 0.242156 0.101182 0.10394
H_ H_ 0.765987 0.203845 0.179968 0.10394
H_ H_ 0.692424 0.330776 0.262441 0.10394
H_ H_ 0.668378 0.374884 0.183892 0.10394
H_ H_ 0.713458 0.367859 0.440405 0.10394
H_ H_ 0.759721 0.394831 0.374342 0.10394
H_ H_ 0.890085 0.406667 0.482899 0.10394
H_ H_ 0.798617 0.403008 0.159785 0.10394
H_ H_ 0.725353 0.450058 0.201151 0.10394
H_ H_ 0.832151 0.036534 0.288983 0.10394
H_ H_ 0.89384 0.508021 0.229006 0.10394
H_ H_ 0.497684 0.389644 0.218835 0.10394
H_ H_ 0.535286 0.32024 0.272278 0.10394
H_ H_ 0.911227 0.243879 0.215424 0.10394
H_ H_ 0.869011 0.328651 0.177798 0.10394
H_ H_ 0.959963 0.0562413 0.123776 0.10394
H_ H_ 0.514119 0.117366 0.0946335 0.10394
H_ H_ 0.642287 0.0048914 0.0976796 0.10394
H_ H_ 0.940241 0.161731 0.40693 0.10394
H_ H_ 0.517564 0.190875 0.450692 0.10394
H_ H_ 0.924011 0.261679 0.0552471 0.10394
H_ H_ 0.848259 0.249535 0.50831 0.10394
H_ H_ 0.736338 0.218962 0.391942 0.10394
H_ H_ 0.693649 0.253812 0.316729 0.10394
H_ H_ 0.840166 0.246637 0.258584 0.10394
H_ H_ 0.877433 0.200119 0.333522 0.10394
H_ H_ 0.788491 0.102701 0.0543812 0.10394
H_ H_ 0.73581 0.0994515 0.121804 0.10394
H_ H_ 0.604374 0.0926588 0.00779882 0.10394
C_ C_ 0.672632 0.0918618 0.307658 0.18167
C_ C_ 0.71772 0.071348 0.283519 -0.15533
C_ C_ 0.730255 0.0190817 0.2768 0.02923
C_ C_ 0.711686 0.495933 0.304244 -0.15533
C_ C_ 0.654769 0.00517058 0.316749 0.18167
C_ C_ 0.529547 0.137425 0.271811 0.18167
C_ C_ -0.00182699 0.180956 0.241721 -0.15533
C_ C_ 0.504245 0.225486 0.269489 0.02923
C_ C_ 0.519553 0.231393 0.32094 -0.15533
C_ C_ 0.545989 0.190884 0.344191 0.18167
C_ C_ 0.508449 0.0448457 0.379238 0.69207
C_ C_ 0.969567 0.502005 0.360985 0.02923
C_ C_ 0.987073 0.449934 0.350312 -0.15533
C_ C_ 0.957286 0.412596 0.362229 -0.15533
C_ C_ 0.909299 0.424053 0.379676 0.02923
C_ C_ 0.891936 0.476328 0.385234 -0.15533
C_ C_ 0.919661 0.515703 0.37912 0.02923
C_ C_ 0.888577 0.080364 0.387771 0.69207
C_ C_ 0.893055 0.330081 0.380442 0.69661
C_ C_ 0.570538 0.294542 0.0848184 0.18167
C_ C_ 0.524014 0.280063 0.0652489 -0.15533
C_ C_ 0.511917 0.271145 0.0123965 0.02923
C_ C_ 0.550179 0.288914 0.489997 -0.15533
C_ C_ 0.592673 0.305662 0.000273385 0.18167
C_ C_ 0.718211 0.259772 0.136243 0.18167
C_ C_ 0.741571 0.24044 0.182174 -0.15533
C_ C_ 0.738933 0.268948 0.229388 0.02923
C_ C_ 0.708307 0.313349 0.22828 -0.15533
C_ C_ 0.694981 0.337809 0.183584 0.18167
C_ C_ 0.739871 0.362814 0.0389803 0.69207
C_ C_ 0.771232 0.379707 0.499653 0.02923
C_ C_ 0.751129 0.380567 0.449374 -0.15533
C_ C_ 0.781077 0.389129 0.410082 -0.15533
C_ C_ 0.832501 0.396199 0.41957 0.02923
C_ C_ 0.850968 0.400751 0.470765 -0.15533
C_ C_ 0.820304 0.397171 0.511473 0.02923
C_ C_ 0.848709 0.38231 0.0680097 0.69207
C_ C_ 0.839467 0.387498 0.322505 0.69661
C_ C_ 0.802482 0.436729 0.182068 0.18167
C_ C_ 0.76239 0.462736 0.206435 -0.15533
C_ C_ 0.772869 0.505682 0.239628 0.02923
C_ C_ 0.819848 0.0169314 0.255542 -0.15533
C_ C_ 0.857431 0.496998 0.214803 0.18167
C_ C_ 0.987669 0.357458 0.208921 0.18167
C_ C_ 0.501695 0.315682 0.246775 -0.15533
C_ C_ 0.981723 0.274611 0.235873 0.02923
C_ C_ 0.932287 0.278198 0.213617 -0.15533
C_ C_ 0.909885 0.320616 0.187396 0.18167
C_ C_ 0.987744 0.449999 0.128368 0.69207
C_ C_ 0.516768 0.99389 0.112537 0.02923
C_ C_ 0.499715 0.0443087 0.109045 -0.15533
C_ C_ 0.530313 0.0810912 0.100138 -0.15533
C_ C_ 0.582383 0.0691112 0.0985639 0.02923
C_ C_ 0.603016 0.0176911 0.099965 -0.15533
C_ C_ 0.570903 0.980301 0.110584 0.02923
C_ C_ 0.596229 0.419226 0.11218 0.69207
C_ C_ 0.599442 0.164203 0.111571 0.69661
C_ C_ 0.934344 0.187054 0.441952 0.18167
C_ C_ 0.97974 0.202248 0.466985 -0.15533
C_ C_ 0.973644 0.245325 0.503323 0.02923
C_ C_ 0.931017 0.242318 0.0181301 -0.15533
C_ C_ 0.88338 0.241399 0.493649 0.18167
C_ C_ 0.757391 0.217256 0.360245 0.18167
C_ C_ 0.732311 0.238931 0.316577 -0.15533
C_ C_ 0.762898 0.248201 0.278014 0.02923
C_ C_ 0.815654 0.23232 0.283804 -0.15533
C_ C_ 0.837187 0.206601 0.324623 0.18167
C_ C_ 0.761747 0.135089 0.456896 0.69207
C_ C_ 0.727689 0.116328 0.994382 0.02923
C_ C_ 0.748039 0.108576 0.0451154 -0.15533
C_ C_ 0.716199 0.109877 0.0853077 -0.15533
C_ C_ 0.66342 0.103483 0.072603 0.02923
C_ C_ 0.645978 0.0980885 0.0197354 -0.15533
C_ C_ 0.674928 0.111537 0.981321 0.02923
C_ C_ 0.653683 0.110313 0.428386 0.69207
C_ C_ 0.644705 0.100027 0.16847 0.69661
C_ C_ 0.870119 0.385189 0.377103 -0.30787
C_ C_ 0.62254 0.108349 0.112542 -0.30787
N_ N_ 0.641816 0.0573694 0.319723 -0.32189
N_ N_ 0.549679 0.144721 0.320534 -0.32189
N_ N_ 0.60501 0.304837 0.0525887 -0.32189
N_ N_ 0.696502 0.310233 0.137971 -0.32189
N_ N_ 0.850828 0.451699 0.189224 -0.32189
N_ N_ 0.938941 0.360097 0.188959 -0.32189
N_ N_ 0.888782 0.203523 0.456096 -0.32189
N_ N_ 0.805837 0.194062 0.359782 -0.32189
O_ O_ 0.00541981 0.0913612 0.403021 -0.63271
O_ O_ 0.546562 0.0318355 0.352475 -0.57982
O_ O_ 0.887982 0.106204 0.346447 -0.63271
O_ O_ 0.867373 0.102037 0.427353 -0.57982
O_ O_ 0.745608 0.385894 0.0841443 -0.63271
O_ O_ 0.698817 0.339683 0.0286266 -0.57982
O_ O_ 0.855997 0.33912 0.088806 -0.63271
O_ O_ 0.872532 0.420158 0.0915933 -0.57982
O_ O_ 0.487227 0.406465 0.103904 -0.63271
O_ O_ 0.949024 0.467297 0.154582 -0.57982
O_ O_ 0.586924 0.391585 0.149842 -0.63271
O_ O_ 0.630001 0.402478 0.0795689 -0.57982
O_ O_ 0.761582 0.113831 0.410474 -0.63271
O_ O_ 0.790212 0.170676 0.467952 -0.57982
O_ O_ 0.65283 0.154914 0.407703 -0.63271
O_ O_ 0.617812 0.0827033 0.412661 -0.57982
F_ F_ 0.928773 0.326895 0.418927 -0.20885
F_ F_ 0.917429 0.310492 0.339488 -0.20885
F_ F_ 0.854368 0.297516 0.384024 -0.20885
F_ F_ 0.811308 0.433435 0.315102 -0.20885
F_ F_ 0.812691 0.344715 0.30858 -0.20885
F_ F_ 0.874712 0.382514 0.28725 -0.20885
F_ F_ 0.575248 0.175923 0.0639441 -0.20885
F_ F_ 0.560841 0.177709 0.142433 -0.20885
F_ F_ 0.635079 0.199257 0.122599 -0.20885
F_ F_ 0.675535 0.0546952 0.168886 -0.20885
F_ F_ 0.679893 0.135358 0.187553 -0.20885
F_ F_ 0.609123 0.102569 0.205639 -0.20885
Zn Zn 0.585354 0.0859679 0.85122 0.83971
Zn Zn 0.662156 0.346632 0.586014 0.83971
Zn Zn 0.912117 0.409717 0.647519 0.83971
Zn Zn 0.838115 0.156745 0.917378 0.83971
H_ H_ 0.660944 0.133578 0.804863 0.10394
H_ H_ 0.747516 0.103089 0.778063 0.10394
H_ H_ 0.723291 0.450599 0.792803 0.10394
H_ H_ 0.641932 0.980922 0.834532 0.10394
H_ H_ 0.0164592 0.0958529 0.762984 0.10394
H_ H_ 0.976209 0.164839 0.708962 0.10394
H_ H_ 0.524867 0.270432 0.82774 0.10394
H_ H_ 0.563502 0.19727 0.873296 0.10394
H_ H_ 0.533928 0.437709 0.864123 0.10394
H_ H_ 0.988909 0.381966 0.901514 0.10394
H_ H_ 0.852394 0.486238 0.897828 0.10394
H_ H_ 0.586355 0.300966 0.633364 0.10394
H_ H_ 0.00986872 0.270513 0.604321 0.10394
H_ H_ 0.537589 0.289364 0.938772 0.10394
H_ H_ 0.616571 0.321919 0.485354 0.10394
H_ H_ 0.710691 0.24793 0.596285 0.10394
H_ H_ 0.753829 0.198249 0.672888 0.10394
H_ H_ 0.72728 0.331498 0.769303 0.10394
H_ H_ 0.685802 0.380208 0.693287 0.10394
H_ H_ 0.730109 0.339225 0.936096 0.10394
H_ H_ 0.771701 0.381526 0.873649 0.10394
H_ H_ 0.894544 0.406325 0.985534 0.10394
H_ H_ 0.803652 0.396095 0.656677 0.10394
H_ H_ 0.735802 0.460645 0.685793 0.10394
H_ H_ 0.829785 0.0552078 0.77467 0.10394
H_ H_ 0.914909 0.484791 0.733981 0.10394
H_ H_ 0.511168 0.390414 0.702036 0.10394
H_ H_ 0.550046 0.314117 0.754627 0.10394
H_ H_ 0.903052 0.247705 0.719714 0.10394
H_ H_ 0.870644 0.326409 0.677823 0.10394
H_ H_ 0.957732 0.0487801 0.599362 0.10394
H_ H_ 0.522338 0.122353 0.614022 0.10394
H_ H_ 0.643234 0.00348872 0.578532 0.10394
H_ H_ 0.937654 0.169331 0.890037 0.10394
H_ H_ 0.509946 0.18951 0.940212 0.10394
H_ H_ 0.919637 0.29677 0.547361 0.10394
H_ H_ 0.859275 0.216254 0.0168378 0.10394
H_ H_ 0.737732 0.206725 0.892081 0.10394
H_ H_ 0.701858 0.256762 0.816754 0.10394
H_ H_ 0.836948 0.209965 0.743295 0.10394
H_ H_ 0.874622 0.177704 0.818583 0.10394
H_ H_ 0.791933 0.111301 0.55568 0.10394
H_ H_ 0.738979 0.096687 0.622771 0.10394
H_ H_ 0.611763 0.0791872 0.506052 0.10394
C_ C_ 0.674046 0.0919279 0.800693 0.18167
C_ C_ 0.721685 0.0753881 0.784417 -0.15533
C_ C_ 0.73319 0.0220126 0.773516 0.02923
C_ C_ 0.710766 0.490205 0.787636 -0.15533
C_ C_ 0.664252 0.00791199 0.821238 0.18167
C_ C_ 0.52781 0.135931 0.763673 0.18167
C_ C_ -0.005383000000000027 0.174165 0.745229 -0.15533
C_ C_ 0.506031 0.229026 0.760623 0.02923
C_ C_ 0.527211 0.233827 0.80939 -0.15533
C_ C_ 0.552788 0.193501 0.833242 0.18167
C_ C_ 0.50767 0.0472466 0.871522 0.69207
C_ C_ 0.976043 0.507468 0.876252 0.02923
C_ C_ 0.99618 0.454617 0.875535 -0.15533
C_ C_ 0.968512 0.415768 0.887914 -0.15533
C_ C_ 0.91405 0.426935 0.892008 0.02923
C_ C_ 0.894338 0.478766 0.893097 -0.15533
C_ C_ 0.925474 0.517482 0.886399 0.02923
C_ C_ 0.898535 0.0770047 0.888638 0.69207
C_ C_ 0.907477 0.330267 0.891442 0.69661
C_ C_ 0.574406 0.298349 0.592253 0.18167
C_ C_ 0.530208 0.276783 0.573986 -0.15533
C_ C_ 0.516181 0.271471 0.521541 0.02923
C_ C_ 0.544583 0.288758 0.98023 -0.15533
C_ C_ 0.590919 0.313148 0.510139 0.18167
C_ C_ 0.718671 0.267641 0.634907 0.18167
C_ C_ 0.739048 0.239419 0.678133 -0.15533
C_ C_ 0.742474 0.263236 0.727259 0.02923
C_ C_ 0.721116 0.312604 0.733649 -0.15533
C_ C_ 0.69999 0.340768 0.690875 0.18167
C_ C_ 0.73731 0.37155 0.539523 0.69207
C_ C_ 0.776452 0.367869 1.00042579 0.02923
C_ C_ 0.760515 0.359829 0.948491 -0.15533
C_ C_ 0.787635 0.379693 0.912652 -0.15533
C_ C_ 0.837159 0.392431 0.924745 0.02923
C_ C_ 0.854644 0.398235 0.974801 -0.15533
C_ C_ 0.825701 0.383893 0.0147131 0.02923
C_ C_ 0.84442 0.391757 0.565862 0.69207
C_ C_ 0.856195 0.382012 0.827885 0.69661
C_ C_ 0.813637 0.430682 0.681915 0.18167
C_ C_ 0.773483 0.4616 0.70558 -0.15533
C_ C_ 0.785708 0.500774 0.7407 0.02923
C_ C_ 0.826525 0.0186582 0.755283 -0.15533
C_ C_ 0.874916 0.476262 0.728921 0.18167
C_ C_ 0.992591 0.349116 0.696352 0.18167
C_ C_ 0.511658 0.3179 0.736078 -0.15533
C_ C_ 0.980605 0.267454 0.732138 0.02923
C_ C_ 0.929147 0.274256 0.712425 -0.15533
C_ C_ 0.912421 0.319279 0.688306 0.18167
C_ C_ 0.986678 0.453479 0.616574 0.69207
C_ C_ 0.524962 0.991764 0.608074 0.02923
C_ C_ 0.506365 0.0445181 0.615413 -0.15533
C_ C_ 0.539024 0.0819199 0.611534 -0.15533
C_ C_ 0.591079 0.0667156 0.602632 0.02923
C_ C_ 0.607716 0.0143215 0.595494 -0.15533
C_ C_ 0.576283 0.975713 0.599894 0.02923
C_ C_ 0.594962 0.422318 0.606425 0.69207
C_ C_ 0.609047 0.159774 0.601873 0.69661
C_ C_ 0.934803 0.191079 0.925352 0.18167
C_ C_ 0.978564 0.21098 0.949887 -0.15533
C_ C_ 0.977067 0.239715 -0.004197000000000006 0.02923
C_ C_ 0.9262 0.264698 0.518737 -0.15533
C_ C_ 0.890112 0.216837 0.994963 0.18167
C_ C_ 0.759154 0.204548 0.856864 0.18167
C_ C_ 0.735297 0.230399 0.812895 -0.15533
C_ C_ 0.763348 0.233129 0.770847 0.02923
C_ C_ 0.814044 0.205756 0.77188 -0.15533
C_ C_ 0.837637 0.191437 0.817466 0.18167
C_ C_ 0.763594 0.12835 0.957618 0.69207
C_ C_ 0.730135 0.114818 0.495103 0.02923
C_ C_ 0.752343 0.107638 0.545416 -0.15533
C_ C_ 0.721603 0.101613 0.583408 -0.15533
C_ C_ 0.668597 0.0944387 0.569789 0.02923
C_ C_ 0.649788 0.0903774 0.517713 -0.15533
C_ C_ 0.67999 0.103557 0.480811 0.02923
C_ C_ 0.651356 0.109281 0.928527 0.69207
C_ C_ 0.655675 0.0990138 0.666571 0.69661
C_ C_ 0.877811 0.384299 0.886424 -0.30787
C_ C_ 0.631499 0.103831 0.610121 -0.30787
N_ N_ 0.646834 0.0587033 0.820131 -0.32189
N_ N_ 0.554329 0.14473 0.811675 -0.32189
N_ N_ 0.604582 0.312552 0.559372 -0.32189
N_ N_ 0.699635 0.317392 0.64397 -0.32189
N_ N_ 0.861495 0.441298 0.691327 -0.32189
N_ N_ 0.943986 0.351951 0.675521 -0.32189
N_ N_ 0.891536 0.194789 0.948238 -0.32189
N_ N_ 0.809912 0.186881 0.858038 -0.32189
O_ O_ -0.00496264 0.0997757 0.881002 -0.63271
O_ O_ 0.54468 0.0359502 0.843797 -0.57982
O_ O_ 0.875633 0.0933932 0.844354 -0.63271
O_ O_ 0.877781 0.0962404 0.927572 -0.57982
O_ O_ 0.737802 0.402324 0.582273 -0.63271
O_ O_ 0.703275 0.338454 0.532342 -0.57982
O_ O_ 0.842983 0.347996 0.585693 -0.63271
O_ O_ 0.878622 0.421195 0.58582 -0.57982
O_ O_ 0.487053 0.407481 0.592344 -0.63271
O_ O_ 0.958484 0.457946 0.654608 -0.57982
O_ O_ 0.600963 0.399778 0.649119 -0.63271
O_ O_ 0.6339 0.412394 0.579772 -0.57982
O_ O_ 0.765964 0.102852 0.913148 -0.63271
O_ O_ 0.796501 0.161486 0.966623 -0.57982
O_ O_ 0.652926 0.148701 0.903175 -0.63271
O_ O_ 0.613355 0.0811919 0.916098 -0.57982
F_ F_ 0.93691 0.325329 0.938534 -0.20885
F_ F_ 0.939601 0.313918 0.853287 -0.20885
F_ F_ 0.874819 0.292768 0.892299 -0.20885
F_ F_ 0.820527 0.421853 0.814084 -0.20885
F_ F_ 0.828629 0.339644 0.811847 -0.20885
F_ F_ 0.896101 0.381169 0.798747 -0.20885
F_ F_ 0.574157 0.172032 0.560188 -0.20885
F_ F_ 0.587989 0.183515 0.644468 -0.20885
F_ F_ 0.644721 0.193244 0.595421 -0.20885
F_ F_ 0.683269 0.0523334 0.677534 -0.20885
F_ F_ 0.682462 0.139092 0.690688 -0.20885
F_ F_ 0.615526 0.0995585 0.69632 -0.20885
Zn Zn 0.587576 0.583873 0.34438 0.83971
Zn Zn 0.654764 0.844297 0.0845567 0.83971
Zn Zn 0.907255 0.919594 0.162137 0.83971
Zn Zn 0.839191 0.656085 0.417516 0.83971
H_ H_ 0.660802 0.636689 0.299962 0.10394
H_ H_ 0.741638 0.608451 0.264646 0.10394
H_ H_ 0.710781 0.947199 0.291607 0.10394
H_ H_ 0.644854 0.489768 0.338117 0.10394
H_ H_ 0.0333537 0.602284 0.255913 0.10394
H_ H_ 1.00224 0.677914 0.209905 0.10394
H_ H_ 0.539058 0.76912 0.324509 0.10394
H_ H_ 0.581401 0.69611 0.367983 0.10394
H_ H_ 0.542992 0.941679 0.396988 0.10394
H_ H_ 0.981549 0.888407 0.384815 0.10394
H_ H_ 0.850206 0.996543 0.418929 0.10394
H_ H_ 0.575604 0.802038 0.1344 0.10394
H_ H_ 0.9896971999999999 0.778885 0.106858 0.10394
H_ H_ 0.560238 0.772264 0.444999 0.10394
H_ H_ 0.606861 0.821508 0.984913 0.10394
H_ H_ 0.71261 0.743859 0.0916746 0.10394
H_ H_ 0.758398 0.693532 0.167142 0.10394
H_ H_ 0.710183 0.821658 0.266653 0.10394
H_ H_ 0.66805 0.865714 0.194991 0.10394
H_ H_ 0.719876 0.864285 0.4498 0.10394
H_ H_ 0.764544 0.895979 0.386227 0.10394
H_ H_ 0.893785 0.910377 0.496622 0.10394
H_ H_ 0.801967 0.897888 0.162018 0.10394
H_ H_ 0.727335 0.947184 0.197626 0.10394
H_ H_ 0.827909 0.554965 0.264787 0.10394
H_ H_ 0.89976 1.00415826 0.236544 0.10394
H_ H_ 0.511167 0.8848 0.19722 0.10394
H_ H_ 0.558328 0.804787 0.222492 0.10394
H_ H_ 0.906204 0.745896 0.23065 0.10394
H_ H_ 0.863686 0.826539 0.193612 0.10394
H_ H_ 0.961871 0.547842 0.10625 0.10394
H_ H_ 0.515629 0.614725 0.103886 0.10394
H_ H_ 0.641808 0.503816 0.0959739 0.10394
H_ H_ 0.943673 0.654684 0.402925 0.10394
H_ H_ 0.519095 0.699653 0.429245 0.10394
H_ H_ 0.913009 0.777143 0.0507293 0.10394
H_ H_ 0.842535 0.740739 0.500814 0.10394
H_ H_ 0.731978 0.693821 0.38208 0.10394
H_ H_ 0.690972 0.723819 0.30189 0.10394
H_ H_ 0.839024 0.73119 0.251918 0.10394
H_ H_ 0.876015 0.684845 0.323623 0.10394
H_ H_ 0.784096 0.624868 0.0565327 0.10394
H_ H_ 0.726154 0.624407 0.118041 0.10394
H_ H_ 0.612535 0.575411 0.00604285 0.10394
C_ C_ 0.674695 0.597549 0.300431 0.18167
C_ C_ 0.720486 0.580905 0.278733 -0.15533
C_ C_ 0.737018 0.528799 0.277305 0.02923
C_ C_ 0.70076 0.986547 0.298755 -0.15533
C_ C_ 0.665953 0.514142 0.322049 0.18167
C_ C_ 0.53121 0.633476 0.26231 0.18167
C_ C_ 0.0100658 0.684521 0.249134 -0.15533
C_ C_ 0.509581 0.724336 0.25713 0.02923
C_ C_ 0.536304 0.731139 0.306033 -0.15533
C_ C_ 0.560604 0.689405 0.328922 0.18167
C_ C_ 0.507413 0.542375 0.358319 0.69207
C_ C_ 0.965612 0.0159661 0.383272 0.02923
C_ C_ -0.01219899999999996 0.965283 0.380099 -0.15533
C_ C_ 0.960841 0.92571 0.389005 -0.15533
C_ C_ 0.907072 0.936001 0.394543 0.02923
C_ C_ 0.887981 0.986401 0.403114 -0.15533
C_ C_ 0.915217 0.0265861 0.392229 0.02923
C_ C_ 0.89699 0.569706 0.379584 0.69207
C_ C_ 0.897564 0.835057 0.387006 0.69661
C_ C_ 0.56259 0.802591 0.0941089 0.18167
C_ C_ 0.519842 0.776881 0.0765524 -0.15533
C_ C_ 0.508157 0.768911 0.0233121 0.02923
C_ C_ 0.563095 0.772756 0.4858 -0.15533
C_ C_ 0.579913 0.81208 0.00864603 0.18167
C_ C_ 0.713838 0.759498 0.131712 0.18167
C_ C_ 0.737205 0.731091 0.171479 -0.15533
C_ C_ 0.73649 0.755124 0.221717 0.02923
C_ C_ 0.711083 0.803027 0.22897 -0.15533
C_ C_ 0.691591 0.830454 0.188427 0.18167
C_ C_ 0.737474 0.867309 0.0493849 0.69207
C_ C_ 0.771914 0.88286 0.511807 0.02923
C_ C_ 0.752242 0.881906 0.46079 -0.15533
C_ C_ 0.783572 0.888287 0.422134 -0.15533
C_ C_ 0.834671 0.900148 0.433063 0.02923
C_ C_ 0.855003 0.901273 0.48473 -0.15533
C_ C_ 0.824016 0.89304 0.524451 0.02923
C_ C_ 0.846537 0.890398 0.0799165 0.69207
C_ C_ 0.842487 0.898338 0.336111 0.69661
C_ C_ 0.805884 0.935712 0.18437 0.18167
C_ C_ 0.765354 0.958336 0.208412 -0.15533
C_ C_ 0.772097 0.998834 0.24575 0.02923
C_ C_ 0.817624 0.526204 0.237102 -0.15533
C_ C_ 0.860145 0.993261 0.227039 0.18167
C_ C_ 0.982685 0.85709 0.211461 0.18167
C_ C_ 0.515169 0.806327 0.21739 -0.15533
C_ C_ 0.977065 0.775721 0.247284 0.02923
C_ C_ 0.925593 0.780001 0.229002 -0.15533
C_ C_ 0.903955 0.822334 0.206555 0.18167
C_ C_ 0.983663 0.954595 0.126908 0.69207
C_ C_ 0.520709 0.487472 0.117459 0.02923
C_ C_ 0.501946 0.540568 0.117063 -0.15533
C_ C_ 0.534085 0.578165 0.11127 -0.15533
C_ C_ 0.584554 0.56433 0.103544 0.02923
C_ C_ 0.602066 0.513106 0.100201 -0.15533
C_ C_ 0.573783 0.473606 0.113154 0.02923
C_ C_ 0.593336 0.927673 0.112688 0.69207
C_ C_ 0.60017 0.661751 0.105187 0.69661
C_ C_ 0.937808 0.677333 0.438 0.18167
C_ C_ 0.978762 0.699755 0.461309 -0.15533
C_ C_ 0.9707 0.74222 0.495926 0.02923
C_ C_ 0.920039 0.751462 1.0175709 -0.15533
C_ C_ 0.8817 0.729792 0.489524 0.18167
C_ C_ 0.755359 0.699744 0.351646 0.18167
C_ C_ 0.732848 0.721048 0.306723 -0.15533
C_ C_ 0.76137 0.726167 0.266212 0.02923
C_ C_ 0.813308 0.715857 0.274544 -0.15533
C_ C_ 0.835574 0.696477 0.320092 0.18167
C_ C_ 0.76245 0.610651 0.454104 0.69207
C_ C_ 0.732881 0.605712 0.991608 0.02923
C_ C_ 0.747117 0.615076 0.0439121 -0.15533
C_ C_ 0.713808 0.609837 0.0806333 -0.15533
C_ C_ 0.665558 0.592664 0.0688632 0.02923
C_ C_ 0.649635 0.585589 0.0159698 -0.15533
C_ C_ 0.680689 0.592523 0.977698 0.02923
C_ C_ 0.648949 0.605227 0.428623 0.69207
C_ C_ 0.650169 0.599029 0.166867 0.69661
C_ C_ 0.870883 0.89233 0.389646 -0.30787
C_ C_ 0.624816 0.602884 0.108337 -0.30787
N_ N_ 0.646528 0.563548 0.313958 -0.32189
N_ N_ 0.552536 0.641389 0.311228 -0.32189
N_ N_ 0.592455 0.816121 0.0599734 -0.32189
N_ N_ 0.689127 0.8074 0.141941 -0.32189
N_ N_ 0.854023 0.949425 0.197626 -0.32189
N_ N_ 0.931661 0.860979 0.199233 -0.32189
N_ N_ 0.890267 0.693367 0.452579 -0.32189
N_ N_ 0.806819 0.685803 0.357751 -0.32189
O_ O_ 0.00218789 0.582246 0.392655 -0.63271
O_ O_ 0.543609 0.533563 0.328295 -0.57982
O_ O_ 0.89717 0.592692 0.337533 -0.63271
O_ O_ 0.868392 0.588753 0.416961 -0.57982
O_ O_ 0.743882 0.875688 0.0983557 -0.63271
O_ O_ 0.699941 0.839565 0.0341239 -0.57982
O_ O_ 0.857194 0.84568 0.10361 -0.63271
O_ O_ 0.871957 0.926729 0.0999861 -0.57982
O_ O_ 0.478544 0.913665 0.0972086 -0.63271
O_ O_ 0.95171 0.964876 0.162968 -0.57982
O_ O_ 0.585145 0.90071 0.149907 -0.63271
O_ O_ 0.629409 0.908986 0.0831049 -0.57982
O_ O_ 0.760963 0.582072 0.410987 -0.63271
O_ O_ 0.791974 0.648906 0.458547 -0.57982
O_ O_ 0.654913 0.645922 0.405495 -0.63271
O_ O_ 0.619623 0.570914 0.407683 -0.57982
F_ F_ 0.931812 0.823746 0.426425 -0.20885
F_ F_ 0.923321 0.825541 0.344083 -0.20885
F_ F_ 0.867067 0.797671 0.38801 -0.20885
F_ F_ 0.807571 0.940398 0.334798 -0.20885
F_ F_ 0.814139 0.856518 0.320991 -0.20885
F_ F_ 0.875444 0.900646 0.299538 -0.20885
F_ F_ 0.57176 0.664645 0.0580464 -0.20885
F_ F_ 0.567226 0.675762 0.142653 -0.20885
F_ F_ 0.631244 0.699306 0.109618 -0.20885
F_ F_ 0.680617 0.553666 0.170441 -0.20885
F_ F_ 0.679806 0.63859 0.185992 -0.20885
F_ F_ 0.615967 0.599423 0.202877 -0.20885
Zn Zn 0.590942 0.584073 0.841793 0.83971
Zn Zn 0.659304 0.841295 0.586259 0.83971
Zn Zn 0.909925 0.918245 0.658653 0.83971
Zn Zn 0.841773 0.654249 0.914926 0.83971
H_ H_ 0.671177 0.635488 0.793839 0.10394
H_ H_ 0.755097 0.602502 0.769471 0.10394
H_ H_ 0.722475 0.952217 0.804694 0.10394
H_ H_ 0.640688 0.484839 0.820345 0.10394
H_ H_ 0.0325863 0.600557 0.74761 0.10394
H_ H_ 1.00311 0.67651 0.698391 0.10394
H_ H_ 0.537931 0.768398 0.835127 0.10394
H_ H_ 0.573672 0.690789 0.877434 0.10394
H_ H_ 0.533489 0.944648 0.876525 0.10394
H_ H_ 0.992027 0.886376 0.915108 0.10394
H_ H_ 0.855773 0.992458 0.911982 0.10394
H_ H_ 0.574132 0.79945 0.62835 0.10394
H_ H_ -0.002923000000000009 0.782068 0.595489 0.10394
H_ H_ 0.52858 0.787529 0.948069 0.10394
H_ H_ 0.635486 0.795469 0.4859 0.10394
H_ H_ 0.73903 0.758483 0.597526 0.10394
H_ H_ 0.775579 0.709733 0.672342 0.10394
H_ H_ 0.714178 0.831725 0.771733 0.10394
H_ H_ 0.676045 0.877109 0.692689 0.10394
H_ H_ 0.718688 0.866924 0.946828 0.10394
H_ H_ 0.774425 0.869675 0.885473 0.10394
H_ H_ 0.897228 0.897676 1.00574053 0.10394
H_ H_ 0.807464 0.896629 0.665818 0.10394
H_ H_ 0.733222 0.944823 0.708169 0.10394
H_ H_ 0.85272 0.530138 0.788352 0.10394
H_ H_ 0.907006 1.00812813 0.73797 0.10394
H_ H_ 0.525182 0.890879 0.70681 0.10394
H_ H_ 0.562236 0.81711 0.75526 0.10394
H_ H_ 0.913607 0.766707 0.754489 0.10394
H_ H_ 0.873961 0.832983 0.701249 0.10394
H_ H_ 0.960778 0.555584 0.604751 0.10394
H_ H_ 0.522744 0.620172 0.613182 0.10394
H_ H_ 0.643795 0.499474 0.591235 0.10394
H_ H_ 0.946401 0.661022 0.901107 0.10394
H_ H_ 0.513372 0.690069 0.949518 0.10394
H_ H_ 0.915898 0.789016 0.538194 0.10394
H_ H_ 0.842776 0.733832 1.00535652 0.10394
H_ H_ 0.740995 0.685671 0.880088 0.10394
H_ H_ 0.701311 0.742685 0.813232 0.10394
H_ H_ 0.843955 0.733426 0.744647 0.10394
H_ H_ 0.883005 0.6804 0.821173 0.10394
H_ H_ 0.789116 0.597817 0.552738 0.10394
H_ H_ 0.733387 0.604271 0.619225 0.10394
H_ H_ 0.60707 0.579644 0.507208 0.10394
C_ C_ 0.682056 0.594217 0.79472 0.18167
C_ C_ 0.729042 0.577893 0.778227 -0.15533
C_ C_ 0.743868 0.524247 0.772097 0.02923
C_ C_ 0.706252 0.99001 0.797652 -0.15533
C_ C_ 0.666001 0.510388 0.809705 0.18167
C_ C_ 0.537023 0.638516 0.761782 0.18167
C_ C_ 0.0140804 0.680948 0.737869 -0.15533
C_ C_ 0.5177 0.730685 0.762173 0.02923
C_ C_ 0.541179 0.732593 0.812827 -0.15533
C_ C_ 0.555502 0.687694 0.839013 0.18167
C_ C_ 0.509199 0.543509 0.862747 0.69207
C_ C_ 0.973875 0.0106117 0.882603 0.02923
C_ C_ -0.0038249999999999673 0.962631 0.894882 -0.15533
C_ C_ 0.969591 0.924205 0.907173 -0.15533
C_ C_ 0.916312 0.932063 0.90965 0.02923
C_ C_ 0.894739 0.983527 0.905812 -0.15533
C_ C_ 0.921994 0.0229691 0.891301 0.02923
C_ C_ 0.900237 0.571273 0.884473 0.69207
C_ C_ 0.911512 0.83507 0.90261 0.69661
C_ C_ 0.570167 0.794606 0.588486 0.18167
C_ C_ 0.52577 0.772715 0.564182 -0.15533
C_ C_ 0.52082 0.764331 0.512888 0.02923
C_ C_ 0.534741 0.792154 0.990008 -0.15533
C_ C_ 0.605853 0.790524 0.508986 0.18167
C_ C_ 0.726749 0.768496 0.63527 0.18167
C_ C_ 0.748326 0.742717 0.679354 -0.15533
C_ C_ 0.742832 0.76649 0.729135 0.02923
C_ C_ 0.717059 0.81358 0.734539 -0.15533
C_ C_ 0.69622 0.839156 0.691734 0.18167
C_ C_ 0.739669 0.8741 0.55239 0.69207
C_ C_ 0.770982 0.879687 1.0123216 0.02923
C_ C_ 0.755952 0.876902 0.959697 -0.15533
C_ C_ 0.788887 0.881016 0.924001 -0.15533
C_ C_ 0.841288 0.892287 0.936228 0.02923
C_ C_ 0.854552 0.898532 0.98969 -0.15533
C_ C_ 0.822195 0.893271 0.0264158 0.02923
C_ C_ 0.849507 0.892535 0.579813 0.69207
C_ C_ 0.857522 0.896531 0.841523 0.69661
C_ C_ 0.813465 0.935363 0.688465 0.18167
C_ C_ 0.771072 0.960539 0.709925 -0.15533
C_ C_ 0.777788 0.00114756 0.74502 0.02923
C_ C_ 0.837834 0.507895 0.754468 -0.15533
C_ C_ 0.868223 0.994398 0.73203 0.18167
C_ C_ 0.995122 0.85725 0.69915 0.18167
C_ C_ 0.522955 0.818436 0.735729 -0.15533
C_ C_ 0.990944 0.775654 0.733874 0.02923
C_ C_ 0.936509 0.785274 0.730319 -0.15533
C_ C_ 0.914451 0.823696 0.701952 0.18167
C_ C_ 0.989064 0.95255 0.627633 0.69207
C_ C_ 0.520464 0.489862 0.609465 0.02923
C_ C_ 0.502582 0.543454 0.608715 -0.15533
C_ C_ 0.536483 0.580737 0.607346 -0.15533
C_ C_ 0.588798 0.566997 0.605346 0.02923
C_ C_ 0.60361 0.513923 0.598835 -0.15533
C_ C_ 0.570551 0.475881 0.604297 0.02923
C_ C_ 0.600059 0.922985 0.605689 0.69207
C_ C_ 0.609621 0.661074 0.606286 0.69661
C_ C_ 0.937623 0.687439 0.933945 0.18167
C_ C_ 0.977572 0.706571 0.964141 -0.15533
C_ C_ 0.96845 0.740275 1.00650877 0.02923
C_ C_ 0.922248 0.757892 0.510747 -0.15533
C_ C_ 0.879867 0.726215 0.99134 0.18167
C_ C_ 0.762679 0.698516 0.852448 0.18167
C_ C_ 0.740184 0.729943 0.813684 -0.15533
C_ C_ 0.769988 0.742953 0.77356 0.02923
C_ C_ 0.821679 0.723017 0.774604 -0.15533
C_ C_ 0.842915 0.697212 0.819241 0.18167
C_ C_ 0.769128 0.614325 0.954104 0.69207
C_ C_ 0.72721 0.602246 0.493312 0.02923
C_ C_ 0.749062 0.594146 0.543036 -0.15533
C_ C_ 0.717402 0.599376 0.579696 -0.15533
C_ C_ 0.666112 0.588828 0.570095 0.02923
C_ C_ 0.644801 0.588094 0.519076 -0.15533
C_ C_ 0.672955 0.598225 0.480599 0.02923
C_ C_ 0.653949 0.599601 0.925643 0.69207
C_ C_ 0.654502 0.595373 0.66471 0.69661
C_ C_ 0.880327 0.88863 0.896497 -0.30787
C_ C_ 0.628861 0.604295 0.61206 -0.30787
N_ N_ 0.649283 0.561345 0.805725 -0.32189
N_ N_ 0.553973 0.642496 0.812 -0.32189
N_ N_ 0.608615 0.802072 0.560609 -0.32189
N_ N_ 0.694263 0.812611 0.644286 -0.32189
N_ N_ 0.85925 0.951864 0.699023 -0.32189
N_ N_ 0.942284 0.861154 0.687391 -0.32189
N_ N_ 0.890109 0.691976 0.951315 -0.32189
N_ N_ 0.811483 0.679534 0.8505 -0.32189
O_ O_ 1.0117771 0.587324 0.904116 -0.63271
O_ O_ 0.545626 0.533789 0.832987 -0.57982
O_ O_ 0.903124 0.597293 0.844117 -0.63271
O_ O_ 0.879701 0.594549 0.924199 -0.57982
O_ O_ 0.741357 0.901977 0.596793 -0.63271
O_ O_ 0.710719 0.836257 0.546331 -0.57982
O_ O_ 0.855202 0.849261 0.604074 -0.63271
O_ O_ 0.880922 0.926301 0.595851 -0.57982
O_ O_ 0.489302 0.909761 0.589018 -0.63271
O_ O_ 0.955596 0.964603 0.662488 -0.57982
O_ O_ 0.587167 0.89689 0.641358 -0.63271
O_ O_ 0.638778 0.90554 0.582838 -0.57982
O_ O_ 0.771784 0.58864 0.909722 -0.63271
O_ O_ 0.798638 0.65096 0.964524 -0.57982
O_ O_ 0.660066 0.639251 0.90063 -0.63271
O_ O_ 0.619877 0.571084 0.905705 -0.57982
F_ F_ 0.944552 0.831296 0.94574 -0.20885
F_ F_ 0.932994 0.816955 0.858031 -0.20885
F_ F_ 0.875306 0.801191 0.904915 -0.20885
F_ F_ 0.822593 0.939511 0.835124 -0.20885
F_ F_ 0.830236 0.857421 0.822873 -0.20885
F_ F_ 0.893993 0.899173 0.811005 -0.20885
F_ F_ 0.584494 0.671909 0.560067 -0.20885
F_ F_ 0.579991 0.677046 0.646581 -0.20885
F_ F_ 0.653248 0.685215 0.610258 -0.20885
F_ F_ 0.691963 0.555207 0.66955 -0.20885
F_ F_ 0.678324 0.637257 0.687914 -0.20885
F_ F_ 0.619702 0.587635 0.699431 -0.20885
