_cell_length_a 26.508
_cell_length_b 26.37200000322088
_cell_length_c 26.311999743092066
_cell_angle_alpha 93.74100058972084
_cell_angle_beta 96.04100104955006
_cell_angle_gamma 83.6869992558723
_symmetry_space_group_name_H-M         'P 1'
_symmetry_Int_Tables_number            1
loop_
_symmetry_equiv_pos_as_xyz
   'x, y, z'
                         
loop_
_atom_site_label
_atom_site_type_symbol
_atom_site_fract_x 
_atom_site_fract_y
_atom_site_fract_z
_atom_site_charge
Zn Zn 0.0860125 0.0892693 0.347269 0.83971
Zn Zn 0.160541 0.353282 0.0861177 0.83971
Zn Zn 0.408491 0.422549 0.160745 0.83971
Zn Zn 0.342793 0.152298 0.413498 0.83971
H_ H_ 0.164221 0.131716 0.296347 0.10394
H_ H_ 0.244055 0.0951669 0.267422 0.10394
H_ H_ 0.212387 0.447201 0.302517 0.10394
H_ H_ 0.117097 0.98733 0.309562 0.10394
H_ H_ 0.511878 0.0988332 0.25378 0.10394
H_ H_ 0.498855 0.173156 0.196191 0.10394
H_ H_ 0.0465701 0.275011 0.324989 0.10394
H_ H_ 0.0855032 0.201397 0.373707 0.10394
H_ H_ 0.034223 0.437449 0.375669 0.10394
H_ H_ 0.4869 0.376896 0.380766 0.10394
H_ H_ 0.360652 0.482344 0.407395 0.10394
H_ H_ 0.083824 0.308406 0.130465 0.10394
H_ H_ 0.514242 0.249688 0.10182 0.10394
H_ H_ 0.047339 0.283608 0.446168 0.10394
H_ H_ 0.119009 0.327543 0.980612 0.10394
H_ H_ 0.201774 0.255358 0.0966925 0.10394
H_ H_ 0.230592 0.199703 0.167602 0.10394
H_ H_ 0.21114 0.32915 0.273573 0.10394
H_ H_ 0.173461 0.380471 0.201668 0.10394
H_ H_ 0.228814 0.345221 0.445797 0.10394
H_ H_ 0.274547 0.367513 0.377773 0.10394
H_ H_ 0.404878 0.399115 0.488126 0.10394
H_ H_ 0.304122 0.400656 0.173213 0.10394
H_ H_ 0.235039 0.433909 0.222364 0.10394
H_ H_ 0.31906 0.0559167 0.257808 0.10394
H_ H_ 0.391289 0.523433 0.230837 0.10394
H_ H_ 0.0224506 0.37716 0.180958 0.10394
H_ H_ 0.0639299 0.303191 0.234389 0.10394
H_ H_ 0.408135 0.252375 0.227003 0.10394
H_ H_ 0.371648 0.327697 0.184917 0.10394
H_ H_ 0.464778 0.0508033 0.122282 0.10394
H_ H_ 0.00742313 0.109847 0.0789243 0.10394
H_ H_ 0.144304 0.0011678 0.0902804 0.10394
H_ H_ 0.445688 0.163558 0.392996 0.10394
H_ H_ 0.0155154 0.205971 0.431205 0.10394
H_ H_ 0.415988 0.270029 0.0561132 0.10394
H_ H_ 0.345574 0.237899 0.492799 0.10394
H_ H_ 0.243442 0.215767 0.394911 0.10394
H_ H_ 0.193067 0.251097 0.322248 0.10394
H_ H_ 0.323199 0.215629 0.232275 0.10394
H_ H_ 0.371899 0.184533 0.316446 0.10394
H_ H_ 0.273249 0.136362 0.0545057 0.10394
H_ H_ 0.219836 0.116994 0.120479 0.10394
H_ H_ 0.101453 0.0761622 0.00184595 0.10394
C_ C_ 0.172794 0.0899583 0.29324 0.18167
C_ C_ 0.217672 0.0693273 0.277747 -0.15533
C_ C_ 0.226227 0.0177552 0.267976 0.02923
C_ C_ 0.202139 0.489692 0.307341 -0.15533
C_ C_ 0.145456 0.00875504 0.298907 0.18167
C_ C_ 0.0257071 0.141432 0.27631 0.18167
C_ C_ 0.506214 0.177335 0.239644 -0.15533
C_ C_ 0.0122288 0.231634 0.26525 0.02923
C_ C_ 0.0365428 0.240291 0.313177 -0.15533
C_ C_ 0.0599079 0.199042 0.339806 0.18167
C_ C_ 0.00350819 0.0481098 0.37252 0.69207
C_ C_ 0.475629 0.502852 0.374832 0.02923
C_ C_ 0.496251 0.451983 0.373948 -0.15533
C_ C_ 0.466333 0.412068 0.381527 -0.15533
C_ C_ 0.415551 0.422385 0.392283 0.02923
C_ C_ 0.398223 0.473922 0.399388 -0.15533
C_ C_ 0.424991 0.513853 0.386449 0.02923
C_ C_ 0.397679 0.0734467 0.389179 0.69207
C_ C_ 0.399068 0.327479 0.371242 0.69661
C_ C_ 0.0721122 0.306918 0.0893585 0.18167
C_ C_ 0.0295595 0.278779 0.0698778 -0.15533
C_ C_ 0.0181084 0.270448 0.018122 0.02923
C_ C_ 0.0522223 0.290222 0.487787 -0.15533
C_ C_ 0.0940778 0.313959 0.00589184 0.18167
C_ C_ 0.204675 0.27019 0.136177 0.18167
C_ C_ 0.219671 0.240302 0.176077 -0.15533
C_ C_ 0.226582 0.262335 0.22532 0.02923
C_ C_ 0.210284 0.315046 0.234169 -0.15533
C_ C_ 0.189245 0.342332 0.192993 0.18167
C_ C_ 0.243648 0.370632 0.0519425 0.69207
C_ C_ 0.284552 0.368723 0.507042 0.02923
C_ C_ 0.263743 0.364236 0.456368 -0.15533
C_ C_ 0.292818 0.37044 0.41668 -0.15533
C_ C_ 0.344048 0.380683 0.42519 0.02923
C_ C_ 0.365056 0.387861 0.477579 -0.15533
C_ C_ 0.33227 0.387003 0.517627 0.02923
C_ C_ 0.355564 0.394452 0.0730736 0.69207
C_ C_ 0.348266 0.395133 0.328996 0.69661
C_ C_ 0.307783 0.436141 0.197226 0.18167
C_ C_ 0.268651 0.455456 0.225568 -0.15533
C_ C_ 0.27363 0.501369 0.256235 0.02923
C_ C_ 0.317615 0.0185635 0.240974 -0.15533
C_ C_ 0.356687 0.504829 0.225965 0.18167
C_ C_ 0.491914 0.3543 0.206375 0.18167
C_ C_ 0.0237691 0.309374 0.220637 -0.15533
C_ C_ 0.485793 0.272085 0.23719 0.02923
C_ C_ 0.435165 0.275859 0.213188 -0.15533
C_ C_ 0.413012 0.320111 0.188626 0.18167
C_ C_ 0.490268 0.452642 0.127548 0.69207
C_ C_ 0.0188555 0.982334 0.105422 0.02923
C_ C_ -0.0025020000000000042 0.035086 0.10475 -0.15533
C_ C_ 0.0266866 0.0720876 0.0887507 -0.15533
C_ C_ 0.0801011 0.063265 0.0934797 0.02923
C_ C_ 0.103663 0.012359 0.0946464 -0.15533
C_ C_ 0.0727155 0.971124 0.101051 0.02923
C_ C_ 0.096394 0.428157 0.105344 0.69207
C_ C_ 0.0872564 0.162951 0.0989455 0.69661
C_ C_ 0.440543 0.18061 0.429381 0.18167
C_ C_ 0.4814 0.200265 0.45604 -0.15533
C_ C_ 0.47454 0.241761 0.492623 0.02923
C_ C_ 0.42132 0.245692 0.021515 -0.15533
C_ C_ 0.384853 0.227074 0.485152 0.18167
C_ C_ 0.258475 0.208612 0.35683 0.18167
C_ C_ 0.230758 0.229527 0.31509 -0.15533
C_ C_ 0.253264 0.233229 0.270733 0.02923
C_ C_ 0.303097 0.210842 0.267485 -0.15533
C_ C_ 0.331505 0.189724 0.312248 0.18167
C_ C_ 0.26805 0.123993 0.457564 0.69207
C_ C_ 0.222016 0.111336 0.99373 0.02923
C_ C_ 0.238225 0.119044 0.0450079 -0.15533
C_ C_ 0.204516 0.113769 0.0807952 -0.15533
C_ C_ 0.155629 0.0978914 0.0679121 0.02923
C_ C_ 0.142557 0.0882921 0.0162147 -0.15533
C_ C_ 0.175527 0.0933741 0.978043 0.02923
C_ C_ 0.157336 0.113132 0.425257 0.69207
C_ C_ 0.129164 0.106737 0.161283 0.69661
C_ C_ 0.37616 0.382812 0.380353 -0.30787
C_ C_ 0.11462 0.108271 0.104232 -0.30787
N_ N_ 0.136675 0.0597433 0.305527 -0.32189
N_ N_ 0.0555388 0.149419 0.3208 -0.32189
N_ N_ 0.106282 0.315504 0.0587441 -0.32189
N_ N_ 0.190868 0.320719 0.143843 -0.32189
N_ N_ 0.352769 0.457879 0.200205 -0.32189
N_ N_ 0.442121 0.357325 0.184335 -0.32189
N_ N_ 0.3931 0.193936 0.443632 -0.32189
N_ N_ 0.307827 0.187135 0.352937 -0.32189
O_ O_ 0.504538 0.0885395 0.400806 -0.63271
O_ O_ 0.036804 0.0434886 0.338894 -0.57982
O_ O_ 0.396755 0.102298 0.350314 -0.63271
O_ O_ 0.373336 0.0904854 0.427518 -0.57982
O_ O_ 0.245238 0.396097 0.0951034 -0.63271
O_ O_ 0.201563 0.350883 0.0379083 -0.57982
O_ O_ 0.351656 0.354972 0.0996754 -0.63271
O_ O_ 0.375918 0.43433 0.0965821 -0.57982
O_ O_ 0.98833 0.411111 0.088652 -0.63271
O_ O_ 0.45634 0.464849 0.160778 -0.57982
O_ O_ 0.0987685 0.400886 0.145156 -0.63271
O_ O_ 0.121472 0.409337 0.069025 -0.57982
O_ O_ 0.261868 0.0979293 0.412068 -0.63271
O_ O_ 0.301236 0.156866 0.464155 -0.57982
O_ O_ 0.158655 0.154704 0.399381 -0.63271
O_ O_ 0.126817 0.0798441 0.407147 -0.57982
F_ F_ 0.441143 0.31565 0.408727 -0.20885
F_ F_ 0.419853 0.320373 0.327163 -0.20885
F_ F_ 0.363093 0.292457 0.370015 -0.20885
F_ F_ 0.306546 0.431773 0.334364 -0.20885
F_ F_ 0.326621 0.354279 0.301451 -0.20885
F_ F_ 0.379261 0.41679 0.298318 -0.20885
F_ F_ 0.0621568 0.167305 0.0520668 -0.20885
F_ F_ 0.0501998 0.176346 0.131609 -0.20885
F_ F_ 0.122857 0.199009 0.108816 -0.20885
F_ F_ 0.162053 0.0629587 0.17149 -0.20885
F_ F_ 0.160732 0.141506 0.185655 -0.20885
F_ F_ 0.0868408 0.103446 0.188932 -0.20885
Zn Zn 0.0882442 0.0849144 0.8447 0.83971
Zn Zn 0.163886 0.350964 0.587836 0.83971
Zn Zn 0.413053 0.421358 0.655691 0.83971
Zn Zn 0.339424 0.152965 0.919411 0.83971
H_ H_ 0.172081 0.127903 0.798141 0.10394
H_ H_ 0.25393 0.097598 0.779599 0.10394
H_ H_ 0.214878 0.44928 0.790121 0.10394
H_ H_ 0.123455 0.982017 0.800863 0.10394
H_ H_ 0.530784 0.0970852 0.751347 0.10394
H_ H_ 0.480814 0.163574 0.70281 0.10394
H_ H_ 0.0332837 0.265192 0.83647 0.10394
H_ H_ 0.0789616 0.194826 0.876271 0.10394
H_ H_ 0.0320839 0.445604 0.870966 0.10394
H_ H_ 0.484366 0.379155 0.891537 0.10394
H_ H_ 0.35161 0.48152 0.904503 0.10394
H_ H_ 0.0817808 0.313693 0.633307 0.10394
H_ H_ 0.503146 0.269562 0.594046 0.10394
H_ H_ 0.0432423 0.285766 0.945566 0.10394
H_ H_ 0.124768 0.314686 0.483603 0.10394
H_ H_ 0.226068 0.256074 0.604349 0.10394
H_ H_ 0.25951 0.207731 0.675382 0.10394
H_ H_ 0.214307 0.335942 0.774924 0.10394
H_ H_ 0.188324 0.387522 0.692771 0.10394
H_ H_ 0.218925 0.361386 0.949193 0.10394
H_ H_ 0.277058 0.349367 0.884303 0.10394
H_ H_ 0.393558 0.418668 0.984455 0.10394
H_ H_ 0.309994 0.40973 0.657822 0.10394
H_ H_ 0.233873 0.457179 0.698591 0.10394
H_ H_ 0.340926 0.0359803 0.784627 0.10394
H_ H_ 0.408992 0.502501 0.742474 0.10394
H_ H_ 0.014376 0.384317 0.696625 0.10394
H_ H_ 0.0551983 0.303227 0.725082 0.10394
H_ H_ 0.408752 0.253278 0.72666 0.10394
H_ H_ 0.373371 0.331517 0.681648 0.10394
H_ H_ 0.459787 0.05797 0.605091 0.10394
H_ H_ 0.0157918 0.123993 0.617941 0.10394
H_ H_ 0.142834 0.00658468 0.585427 0.10394
H_ H_ 0.441858 0.154444 0.902329 0.10394
H_ H_ 0.016191 0.200221 0.935452 0.10394
H_ H_ 0.419155 0.283019 0.540014 0.10394
H_ H_ 0.348934 0.221086 0.0150513 0.10394
H_ H_ 0.238671 0.194926 0.889163 0.10394
H_ H_ 0.193573 0.233762 0.809441 0.10394
H_ H_ 0.337981 0.228274 0.749648 0.10394
H_ H_ 0.378693 0.194878 0.832654 0.10394
H_ H_ 0.285947 0.12278 0.558037 0.10394
H_ H_ 0.223897 0.121736 0.621523 0.10394
H_ H_ 0.107232 0.0984726 0.500671 0.10394
C_ C_ 0.181568 0.0883195 0.798677 0.18167
C_ C_ 0.22894 0.0693035 0.785088 -0.15533
C_ C_ 0.237133 0.0164636 0.774025 0.02923
C_ C_ 0.205719 0.491097 0.795779 -0.15533
C_ C_ 0.153757 0.00683346 0.800304 0.18167
C_ C_ 0.0240312 0.135848 0.773746 0.18167
C_ C_ 0.507008 0.173234 0.736429 -0.15533
C_ C_ 0.0100624 0.227179 0.765118 0.02923
C_ C_ 0.0399556 0.230598 0.812217 -0.15533
C_ C_ 0.0583501 0.188412 0.838921 0.18167
C_ C_ 0.00235987 0.0487697 0.858281 0.69207
C_ C_ 0.470353 0.504941 0.873627 0.02923
C_ C_ 0.492217 0.4543 0.877931 -0.15533
C_ C_ 0.463598 0.415753 0.889102 -0.15533
C_ C_ 0.413128 0.424075 0.895505 0.02923
C_ C_ 0.390022 0.475944 0.896464 -0.15533
C_ C_ 0.419426 0.514301 0.888189 0.02923
C_ C_ 0.394428 0.069628 0.879978 0.69207
C_ C_ 0.407326 0.325237 0.896874 0.69661
C_ C_ 0.0746675 0.306072 0.592554 0.18167
C_ C_ 0.0310262 0.278713 0.571819 -0.15533
C_ C_ 0.0184634 0.274127 0.518753 0.02923
C_ C_ 0.0526833 0.289539 0.985086 -0.15533
C_ C_ 0.0965376 0.308217 0.507788 0.18167
C_ C_ 0.222314 0.273514 0.641052 0.18167
C_ C_ 0.242559 0.24673 0.682954 -0.15533
C_ C_ 0.241632 0.270798 0.730663 0.02923
C_ C_ 0.221805 0.320676 0.736168 -0.15533
C_ C_ 0.201954 0.345764 0.691947 0.18167
C_ C_ 0.252101 0.363041 0.548845 0.69207
C_ C_ 0.279111 0.379713 0.0107968 0.02923
C_ C_ 0.259256 0.37267 0.958038 -0.15533
C_ C_ 0.289399 0.372248 0.917683 -0.15533
C_ C_ 0.337339 0.388915 0.92861 0.02923
C_ C_ 0.355351 0.405765 0.979801 -0.15533
C_ C_ 0.329454 0.394739 0.0209609 0.02923
C_ C_ 0.357811 0.386392 0.569642 0.69207
C_ C_ 0.355808 0.37656 0.829733 0.69661
C_ C_ 0.315488 0.44306 0.685887 0.18167
C_ C_ 0.271981 0.470469 0.706096 -0.15533
C_ C_ 0.2818 0.503876 0.748508 0.02923
C_ C_ 0.328041 0.00893207 0.753283 -0.15533
C_ C_ 0.373104 0.49713 0.729346 0.18167
C_ C_ 0.49648 0.348136 0.690283 0.18167
C_ C_ 0.0136964 0.310013 0.723562 -0.15533
C_ C_ 0.485243 0.268196 0.723842 0.02923
C_ C_ 0.433442 0.279153 0.717845 -0.15533
C_ C_ 0.4137 0.323335 0.692666 0.18167
C_ C_ 0.486104 0.456291 0.613703 0.69207
C_ C_ 0.0208449 0.993325 0.614003 0.02923
C_ C_ 0.00185359 0.0451399 0.619954 -0.15533
C_ C_ 0.0332264 0.0827906 0.614228 -0.15533
C_ C_ 0.0848741 0.0715003 0.602015 0.02923
C_ C_ 0.102898 0.0168685 0.591638 -0.15533
C_ C_ 0.0715574 0.977764 0.597715 0.02923
C_ C_ 0.098269 0.428641 0.610652 0.69207
C_ C_ 0.0991339 0.165305 0.609035 0.69661
C_ C_ 0.437123 0.176988 0.937549 0.18167
C_ C_ 0.478152 0.203164 0.960735 -0.15533
C_ C_ 0.471152 0.239818 1.00226625 0.02923
C_ C_ 0.424676 0.256737 0.50464 -0.15533
C_ C_ 0.38338 0.217846 0.997339 0.18167
C_ C_ 0.25875 0.201797 0.858919 0.18167
C_ C_ 0.236117 0.22952 0.816972 -0.15533
C_ C_ 0.264188 0.240665 0.777352 0.02923
C_ C_ 0.315151 0.22236 0.78108 -0.15533
C_ C_ 0.337077 0.198202 0.826493 0.18167
C_ C_ 0.263571 0.107809 0.960654 0.69207
C_ C_ 0.230627 0.117958 0.494804 0.02923
C_ C_ 0.246525 0.120551 0.546705 -0.15533
C_ C_ 0.211822 0.114323 0.58239 -0.15533
C_ C_ 0.160209 0.106112 0.568589 0.02923
C_ C_ 0.145 0.10524 0.5165 -0.15533
C_ C_ 0.177133 0.11324 0.47959 0.02923
C_ C_ 0.151812 0.0945213 0.923816 0.69207
C_ C_ 0.145639 0.10038 0.66668 0.69661
C_ C_ 0.378154 0.378986 0.888736 -0.30787
C_ C_ 0.123543 0.110172 0.608117 -0.30787
N_ N_ 0.143915 0.0588007 0.806185 -0.32189
N_ N_ 0.0572311 0.142486 0.81506 -0.32189
N_ N_ 0.106279 0.318652 0.558748 -0.32189
N_ N_ 0.200523 0.321076 0.645929 -0.32189
N_ N_ 0.364284 0.456032 0.697657 -0.32189
N_ N_ 0.445485 0.358808 0.683028 -0.32189
N_ N_ 0.389322 0.190054 0.952072 -0.32189
N_ N_ 0.309192 0.18997 0.865124 -0.32189
O_ O_ 0.505898 0.0865745 0.888808 -0.63271
O_ O_ 0.0464277 0.0352767 0.837007 -0.57982
O_ O_ 0.38797 0.098588 0.84033 -0.63271
O_ O_ 0.368993 0.0855647 0.920453 -0.57982
O_ O_ 0.250307 0.39765 0.589234 -0.63271
O_ O_ 0.212049 0.337967 0.538045 -0.57982
O_ O_ 0.365497 0.3449 0.592826 -0.63271
O_ O_ 0.379656 0.425784 0.591458 -0.57982
O_ O_ 0.992878 0.414916 0.594395 -0.63271
O_ O_ 0.46342 0.464298 0.65434 -0.57982
O_ O_ 0.0976653 0.402469 0.652316 -0.63271
O_ O_ 0.139378 0.416919 0.58653 -0.57982
O_ O_ 0.253711 0.0875155 0.915281 -0.63271
O_ O_ 0.29587 0.141992 0.966233 -0.57982
O_ O_ 0.152181 0.134777 0.898539 -0.63271
O_ O_ 0.111423 0.0715478 0.909687 -0.57982
F_ F_ 0.437052 0.326194 0.944118 -0.20885
F_ F_ 0.43947 0.310837 0.859979 -0.20885
F_ F_ 0.377671 0.286937 0.898723 -0.20885
F_ F_ 0.313371 0.412244 0.816064 -0.20885
F_ F_ 0.334469 0.329659 0.817381 -0.20885
F_ F_ 0.392813 0.379265 0.796215 -0.20885
F_ F_ 0.0617846 0.173887 0.566756 -0.20885
F_ F_ 0.075769 0.183484 0.653276 -0.20885
F_ F_ 0.136746 0.197699 0.602373 -0.20885
F_ F_ 0.181504 0.0566768 0.668084 -0.20885
F_ F_ 0.170996 0.141462 0.685322 -0.20885
F_ F_ 0.108294 0.0954983 0.699103 -0.20885
Zn Zn 0.0812079 0.585655 0.35109 0.83971
Zn Zn 0.163799 0.835529 0.0797818 0.83971
Zn Zn 0.405119 0.920705 0.153172 0.83971
Zn Zn 0.339936 0.649607 0.422866 0.83971
H_ H_ 0.151972 0.634325 0.309489 0.10394
H_ H_ 0.232773 0.605413 0.274751 0.10394
H_ H_ 0.188861 0.943571 0.27023 0.10394
H_ H_ 0.129972 0.481273 0.336101 0.10394
H_ H_ 0.518981 0.601009 0.252799 0.10394
H_ H_ 0.485401 0.672951 0.20453 0.10394
H_ H_ 0.0104358 0.762839 0.34456 0.10394
H_ H_ 0.052033 0.688097 0.382147 0.10394
H_ H_ 0.0201376 0.947989 0.353765 0.10394
H_ H_ 0.4853 0.878417 0.383568 0.10394
H_ H_ 0.356463 0.990561 0.402322 0.10394
H_ H_ 0.0775882 0.807743 0.126145 0.10394
H_ H_ 0.505561 0.766025 0.099932 0.10394
H_ H_ 0.0518319 0.76459 0.456975 0.10394
H_ H_ 0.125335 0.808298 0.978355 0.10394
H_ H_ 0.229736 0.73815 0.0952105 0.10394
H_ H_ 0.271916 0.691933 0.1683 0.10394
H_ H_ 0.213795 0.809931 0.268172 0.10394
H_ H_ 0.188216 0.862504 0.192643 0.10394
H_ H_ 0.236048 0.836579 0.437201 0.10394
H_ H_ 0.275831 0.874746 0.372459 0.10394
H_ H_ 0.395429 0.908324 0.485844 0.10394
H_ H_ 0.304558 0.895068 0.16107 0.10394
H_ H_ 0.232775 0.931874 0.205365 0.10394
H_ H_ 0.32178 0.563225 0.276867 0.10394
H_ H_ 0.391474 0.0148723 0.220981 0.10394
H_ H_ 0.00618552 0.886829 0.212836 0.10394
H_ H_ 0.0425382 0.815722 0.255476 0.10394
H_ H_ 0.41448 0.742605 0.214786 0.10394
H_ H_ 0.375368 0.815881 0.16911 0.10394
H_ H_ 0.46631 0.553233 0.129566 0.10394
H_ H_ 0.0217544 0.624286 0.11418 0.10394
H_ H_ 0.145887 0.511886 0.0993646 0.10394
H_ H_ 0.440096 0.655241 0.404798 0.10394
H_ H_ 0.0203775 0.682284 0.470285 0.10394
H_ H_ 0.419747 0.791434 0.0346484 0.10394
H_ H_ 0.34867 0.719511 0.518575 0.10394
H_ H_ 0.230688 0.690021 0.383573 0.10394
H_ H_ 0.191958 0.710768 0.300617 0.10394
H_ H_ 0.342199 0.728096 0.255072 0.10394
H_ H_ 0.378389 0.692255 0.335943 0.10394
H_ H_ 0.281382 0.644135 0.0565075 0.10394
H_ H_ 0.23012 0.612946 0.122038 0.10394
H_ H_ 0.107723 0.590523 0.0046712 0.10394
C_ C_ 0.163302 0.592546 0.302698 0.18167
C_ C_ 0.209277 0.576778 0.28367 -0.15533
C_ C_ 0.229857 0.524829 0.283106 0.02923
C_ C_ 0.188274 0.985544 0.279606 -0.15533
C_ C_ 0.155128 0.508342 0.322841 0.18167
C_ C_ 0.0259103 0.633174 0.266841 0.18167
C_ C_ 0.512508 0.679038 0.237561 -0.15533
C_ C_ 0.000633316 0.724835 0.266825 0.02923
C_ C_ 0.0147043 0.728572 0.319517 -0.15533
C_ C_ 0.0415709 0.686772 0.342908 0.18167
C_ C_ 0.00858528 0.541749 0.377931 0.69207
C_ C_ 0.474281 0.00781707 0.374981 0.02923
C_ C_ 0.494454 0.957054 0.375571 -0.15533
C_ C_ 0.464541 0.917621 0.384392 -0.15533
C_ C_ 0.411101 0.928015 0.38775 0.02923
C_ C_ 0.393684 0.979747 0.391883 -0.15533
C_ C_ 0.425313 0.0199786 0.390382 0.02923
C_ C_ 0.396669 0.564272 0.38124 0.69207
C_ C_ 0.40172 0.829638 0.380746 0.69661
C_ C_ 0.0724868 0.79325 0.0864168 0.18167
C_ C_ 0.0261058 0.777469 0.0650071 -0.15533
C_ C_ 0.0135649 0.773344 0.0135173 0.02923
C_ C_ 0.0562369 0.775086 0.497421 -0.15533
C_ C_ 0.0977193 0.798418 0.00211215 0.18167
C_ C_ 0.232013 0.756985 0.132115 0.18167
C_ C_ 0.253333 0.730344 0.173206 -0.15533
C_ C_ 0.244239 0.748932 0.223218 0.02923
C_ C_ 0.215997 0.796281 0.23005 -0.15533
C_ C_ 0.199771 0.825461 0.187779 0.18167
C_ C_ 0.241173 0.861718 0.0393412 0.69207
C_ C_ 0.276223 0.875031 0.500963 0.02923
C_ C_ 0.26001 0.866141 0.447911 -0.15533
C_ C_ 0.290224 0.879611 0.412075 -0.15533
C_ C_ 0.339826 0.890528 0.424009 0.02923
C_ C_ 0.356849 0.896774 0.474689 -0.15533
C_ C_ 0.327407 0.888122 0.51331 0.02923
C_ C_ 0.354845 0.887519 0.0638996 0.69207
C_ C_ 0.350556 0.886797 0.322023 0.69661
C_ C_ 0.306204 0.930725 0.18106 0.18167
C_ C_ 0.267592 0.950081 0.209932 -0.15533
C_ C_ 0.27119 0.994176 0.239728 0.02923
C_ C_ 0.316092 0.529133 0.251177 -0.15533
C_ C_ 0.35529 0.998158 0.213261 0.18167
C_ C_ 0.484438 0.861289 0.212438 0.18167
C_ C_ 0.00571507 0.814295 0.237206 -0.15533
C_ C_ 0.489568 0.771274 0.230087 0.02923
C_ C_ 0.437888 0.773088 0.210274 -0.15533
C_ C_ 0.412846 0.817061 0.187098 0.18167
C_ C_ 0.487065 0.949216 0.126097 0.69207
C_ C_ 0.0210972 0.494778 0.112186 0.02923
C_ C_ 0.00247322 0.546669 0.113232 -0.15533
C_ C_ 0.0348173 0.585043 0.10784 -0.15533
C_ C_ 0.086428 0.570688 0.103777 0.02923
C_ C_ 0.104398 0.519452 0.101004 -0.15533
C_ C_ 0.0741024 0.481511 0.108639 0.02923
C_ C_ 0.0984119 0.918059 0.103809 0.69207
C_ C_ 0.103956 0.667161 0.107628 0.69661
C_ C_ 0.437502 0.675651 0.440946 0.18167
C_ C_ 0.478949 0.698829 0.463556 -0.15533
C_ C_ 0.47107 0.73647 0.503362 0.02923
C_ C_ 0.42631 0.759887 0.00778825 -0.15533
C_ C_ 0.382518 0.719937 0.499467 0.18167
C_ C_ 0.25425 0.695058 0.354222 0.18167
C_ C_ 0.232708 0.713203 0.308545 -0.15533
C_ C_ 0.263504 0.72309 0.271156 0.02923
C_ C_ 0.315552 0.720238 0.282943 -0.15533
C_ C_ 0.337158 0.701755 0.330317 0.18167
C_ C_ 0.256274 0.631464 0.454922 0.69207
C_ C_ 0.226326 0.626087 0.99477 0.02923
C_ C_ 0.24143 0.636382 0.0458755 -0.15533
C_ C_ 0.212622 0.619021 0.0843425 -0.15533
C_ C_ 0.162957 0.605947 0.0716583 0.02923
C_ C_ 0.14644 0.599094 0.0180283 -0.15533
C_ C_ 0.175753 0.611568 0.980504 0.02923
C_ C_ 0.143442 0.62061 0.429245 0.69207
C_ C_ 0.14611 0.609656 0.16825 0.69661
C_ C_ 0.37485 0.885163 0.37823 -0.30787
C_ C_ 0.124931 0.609403 0.110982 -0.30787
N_ N_ 0.136696 0.55739 0.317484 -0.32189
N_ N_ 0.0504354 0.641851 0.314173 -0.32189
N_ N_ 0.107693 0.802552 0.0541224 -0.32189
N_ N_ 0.199818 0.801484 0.139525 -0.32189
N_ N_ 0.350564 0.954174 0.185979 -0.32189
N_ N_ 0.437169 0.85979 0.188645 -0.32189
N_ N_ 0.390968 0.687789 0.458543 -0.32189
N_ N_ 0.306179 0.687936 0.365091 -0.32189
O_ O_ 0.509249 0.587063 0.387601 -0.63271
O_ O_ 0.0416602 0.535948 0.347038 -0.57982
O_ O_ 0.398152 0.592345 0.341508 -0.63271
O_ O_ 0.371765 0.583396 0.4207 -0.57982
O_ O_ 0.250289 0.876085 0.0873993 -0.63271
O_ O_ 0.204188 0.834074 0.02738 -0.57982
O_ O_ 0.35454 0.84737 0.0917672 -0.63271
O_ O_ 0.375324 0.926593 0.0872357 -0.57982
O_ O_ 0.989822 0.898053 0.0957554 -0.63271
O_ O_ 0.454444 0.963872 0.158979 -0.57982
O_ O_ 0.0928019 0.894373 0.143873 -0.63271
O_ O_ 0.139328 0.90162 0.081542 -0.57982
O_ O_ 0.257462 0.601422 0.413218 -0.63271
O_ O_ 0.294337 0.657758 0.469301 -0.57982
O_ O_ 0.137779 0.662949 0.404194 -0.63271
O_ O_ 0.112408 0.585924 0.414873 -0.57982
F_ F_ 0.424638 0.821852 0.429064 -0.20885
F_ F_ 0.436519 0.815621 0.343813 -0.20885
F_ F_ 0.364968 0.794026 0.373805 -0.20885
F_ F_ 0.3082 0.923638 0.319183 -0.20885
F_ F_ 0.333958 0.840745 0.301672 -0.20885
F_ F_ 0.386352 0.894042 0.288512 -0.20885
F_ F_ 0.0749943 0.675224 0.0617918 -0.20885
F_ F_ 0.0719216 0.685093 0.14408 -0.20885
F_ F_ 0.140628 0.702303 0.112375 -0.20885
F_ F_ 0.175479 0.562798 0.17496 -0.20885
F_ F_ 0.174365 0.646174 0.18702 -0.20885
F_ F_ 0.105571 0.60936 0.199995 -0.20885
Zn Zn 0.0857043 0.586737 0.84432 0.83971
Zn Zn 0.165516 0.849806 0.593764 0.83971
Zn Zn 0.404319 0.915607 0.649371 0.83971
Zn Zn 0.34214 0.648573 0.920897 0.83971
H_ H_ 0.166891 0.636544 0.810372 0.10394
H_ H_ 0.249819 0.606659 0.780697 0.10394
H_ H_ 0.207632 0.944869 0.776265 0.10394
H_ H_ 0.127847 0.483992 0.813061 0.10394
H_ H_ 0.532752 0.595401 0.752162 0.10394
H_ H_ 0.491684 0.663867 0.700032 0.10394
H_ H_ 0.0359308 0.767218 0.820806 0.10394
H_ H_ 0.065398 0.692457 0.873636 0.10394
H_ H_ 0.0248039 0.947181 0.85268 0.10394
H_ H_ 0.481839 0.879758 0.864894 0.10394
H_ H_ 0.352604 0.987069 0.896556 0.10394
H_ H_ 0.0838044 0.810544 0.642531 0.10394
H_ H_ 0.493522 0.774582 0.603725 0.10394
H_ H_ 0.0439187 0.776392 0.940744 0.10394
H_ H_ 0.132355 0.79302 0.494733 0.10394
H_ H_ 0.213624 0.753436 0.608088 0.10394
H_ H_ 0.27608 0.713216 0.680074 0.10394
H_ H_ 0.229386 0.839142 0.777342 0.10394
H_ H_ 0.198953 0.88758 0.703827 0.10394
H_ H_ 0.230145 0.839573 0.93844 0.10394
H_ H_ 0.287193 0.839945 0.873468 0.10394
H_ H_ 0.390672 0.91664 0.977698 0.10394
H_ H_ 0.301618 0.900552 0.654371 0.10394
H_ H_ 0.23016 0.958686 0.684827 0.10394
H_ H_ 0.340482 0.538322 0.791596 0.10394
H_ H_ 0.406337 -0.017110999999999987 0.746551 0.10394
H_ H_ 0.00955869 0.881939 0.684961 0.10394
H_ H_ 0.0504306 0.80138 0.722355 0.10394
H_ H_ 0.413809 0.736227 0.711662 0.10394
H_ H_ 0.371587 0.812858 0.670467 0.10394
H_ H_ 0.4598 0.557461 0.609362 0.10394
H_ H_ 0.0205052 0.624867 0.621347 0.10394
H_ H_ 0.149678 0.51026 0.611081 0.10394
H_ H_ 0.444373 0.651889 0.906596 0.10394
H_ H_ 0.0119361 0.692507 0.941492 0.10394
H_ H_ 0.415317 0.77724 0.549223 0.10394
H_ H_ 0.347999 0.744462 0.00217337 0.10394
H_ H_ 0.236414 0.69186 0.886663 0.10394
H_ H_ 0.200564 0.740909 0.813577 0.10394
H_ H_ 0.346417 0.740656 0.760903 0.10394
H_ H_ 0.382607 0.684966 0.83371 0.10394
H_ H_ 0.285154 0.602889 0.552529 0.10394
H_ H_ 0.236462 0.593384 0.619841 0.10394
H_ H_ 0.105628 0.591478 0.510252 0.10394
C_ C_ 0.177143 0.594983 0.803545 0.18167
C_ C_ 0.226111 0.577169 0.789954 -0.15533
C_ C_ 0.239166 0.525354 0.779089 0.02923
C_ C_ 0.197523 0.985301 0.778443 -0.15533
C_ C_ 0.157859 0.510802 0.80759 0.18167
C_ C_ 0.0217599 0.630976 0.765067 0.18167
C_ C_ 0.506456 0.673126 0.740614 -0.15533
C_ C_ 0.000949004 0.722183 0.760373 0.02923
C_ C_ 0.0322626 0.728936 0.805985 -0.15533
C_ C_ 0.053447 0.687279 0.83316 0.18167
C_ C_ 0.0101491 0.546665 0.872641 0.69207
C_ C_ 0.46913 0.00580999 0.86109 0.02923
C_ C_ 0.48956 0.95464 0.858427 -0.15533
C_ C_ 0.461249 0.916158 0.86791 -0.15533
C_ C_ 0.411325 0.926467 0.882087 0.02923
C_ C_ 0.392695 0.978182 0.889864 -0.15533
C_ C_ 0.420352 0.0173079 0.876962 0.02923
C_ C_ 0.394484 0.567379 0.888546 0.69207
C_ C_ 0.403599 0.830975 0.882388 0.69661
C_ C_ 0.07406 0.800181 0.602182 0.18167
C_ C_ 0.0258496 0.785507 0.580944 -0.15533
C_ C_ 0.0175667 0.768911 0.529095 0.02923
C_ C_ 0.0490763 0.786362 0.981317 -0.15533
C_ C_ 0.103144 0.789076 0.519828 0.18167
C_ C_ 0.218874 0.772546 0.644326 0.18167
C_ C_ 0.249296 0.748355 0.686698 -0.15533
C_ C_ 0.246324 0.768043 0.735536 0.02923
C_ C_ 0.226031 0.8197 0.740497 -0.15533
C_ C_ 0.201216 0.846589 0.700265 0.18167
C_ C_ 0.24288 0.870314 0.542296 0.69207
C_ C_ 0.278366 0.871389 0.00128011 0.02923
C_ C_ 0.266237 0.850388 0.951213 -0.15533
C_ C_ 0.292536 0.860642 0.910859 -0.15533
C_ C_ 0.339192 0.88391 0.921637 0.02923
C_ C_ 0.355428 0.899078 0.971539 -0.15533
C_ C_ 0.32672 0.89005 0.0130768 0.02923
C_ C_ 0.347667 0.889148 0.565945 0.69207
C_ C_ 0.348802 0.885804 0.823159 0.69661
C_ C_ 0.310048 0.929039 0.683522 0.18167
C_ C_ 0.268841 0.961442 0.702921 -0.15533
C_ C_ 0.279377 0.992531 0.744979 0.02923
C_ C_ 0.332099 0.52014 0.756543 -0.15533
C_ C_ 0.368156 0.981116 0.730782 0.18167
C_ C_ 0.483491 0.855019 0.705161 0.18167
C_ C_ 0.00840982 0.808445 0.723891 -0.15533
C_ C_ 0.483346 0.767527 0.73216 0.02923
C_ C_ 0.435608 0.769183 0.710546 -0.15533
C_ C_ 0.41161 0.812498 0.683915 0.18167
C_ C_ 0.479867 0.956166 0.614686 0.69207
C_ C_ 0.0235519 0.496317 0.617851 0.02923
C_ C_ 1.00480039 0.548184 0.619809 -0.15533
C_ C_ 0.0365612 0.586222 0.614849 -0.15533
C_ C_ 0.0897605 0.574091 0.606747 0.02923
C_ C_ 0.108108 0.521666 0.606241 -0.15533
C_ C_ 0.0753362 0.482257 0.609664 0.02923
C_ C_ 0.0974979 0.925807 0.606229 0.69207
C_ C_ 0.104789 0.672826 0.609731 0.69661
C_ C_ 0.441033 0.674431 0.940091 0.18167
C_ C_ 0.485114 0.69283 0.968181 -0.15533
C_ C_ 0.477397 0.737129 0.000910578 0.02923
C_ C_ 0.423333 0.746409 0.522537 -0.15533
C_ C_ 0.384982 0.731744 0.990005 0.18167
C_ C_ 0.262319 0.704371 0.859911 0.18167
C_ C_ 0.240177 0.732318 0.81899 -0.15533
C_ C_ 0.269552 0.740701 0.779882 0.02923
C_ C_ 0.322779 0.727461 0.786992 -0.15533
C_ C_ 0.343457 0.699907 0.832 0.18167
C_ C_ 0.262527 0.631774 0.957735 0.69207
C_ C_ 0.223366 0.615893 0.492444 0.02923
C_ C_ 0.245385 0.60476 0.544059 -0.15533
C_ C_ 0.2165 0.596985 0.580568 -0.15533
C_ C_ 0.163489 0.601148 0.571839 0.02923
C_ C_ 0.14268 0.603649 0.522265 -0.15533
C_ C_ 0.16991 0.615462 0.482583 0.02923
C_ C_ 0.153967 0.611476 0.925271 0.69207
C_ C_ 0.1528 0.612816 0.669161 0.69661
C_ C_ 0.375411 0.883387 0.879263 -0.30787
C_ C_ 0.127714 0.615833 0.614478 -0.30787
N_ N_ 0.143828 0.561452 0.809832 -0.32189
N_ N_ 0.04651 0.641105 0.812198 -0.32189
N_ N_ 0.109379 0.808723 0.569923 -0.32189
N_ N_ 0.192821 0.81864 0.655056 -0.32189
N_ N_ 0.358009 0.941839 0.696506 -0.32189
N_ N_ 0.437491 0.853903 0.67893 -0.32189
N_ N_ 0.393304 0.69195 0.954214 -0.32189
N_ N_ 0.312273 0.686588 0.865205 -0.32189
O_ O_ 0.503533 0.58467 0.901522 -0.63271
O_ O_ 0.0445855 0.538582 0.840804 -0.57982
O_ O_ 0.391325 0.59346 0.846785 -0.63271
O_ O_ 0.374885 0.58859 0.928826 -0.57982
O_ O_ 0.243341 0.902519 0.582195 -0.63271
O_ O_ 0.20989 0.835605 0.53995 -0.57982
O_ O_ 0.349249 0.846423 0.590056 -0.63271
O_ O_ 0.376709 0.923921 0.585199 -0.57982
O_ O_ 0.989629 0.90909 0.598781 -0.63271
O_ O_ 0.454082 0.959864 0.654637 -0.57982
O_ O_ 0.0955765 0.905007 0.651232 -0.63271
O_ O_ 0.131869 0.907929 0.577683 -0.57982
O_ O_ 0.257318 0.605539 0.914231 -0.63271
O_ O_ 0.299003 0.660495 0.969134 -0.57982
O_ O_ 0.15465 0.65329 0.900586 -0.63271
O_ O_ 0.121599 0.579009 0.90835 -0.57982
F_ F_ 0.443721 0.829493 0.922508 -0.20885
F_ F_ 0.430619 0.81499 0.841057 -0.20885
F_ F_ 0.376048 0.790493 0.883959 -0.20885
F_ F_ 0.305306 0.917599 0.823358 -0.20885
F_ F_ 0.330008 0.841955 0.805618 -0.20885
F_ F_ 0.380234 0.893623 0.786453 -0.20885
F_ F_ 0.0688319 0.677051 0.570912 -0.20885
F_ F_ 0.0788232 0.692374 0.651537 -0.20885
F_ F_ 0.141752 0.703105 0.60707 -0.20885
F_ F_ 0.183573 0.568444 0.679644 -0.20885
F_ F_ 0.182136 0.652655 0.683424 -0.20885
F_ F_ 0.118704 0.617092 0.707149 -0.20885
Zn Zn 0.593734 0.0864822 0.342378 0.83971
Zn Zn 0.662343 0.34355 0.0868022 0.83971
Zn Zn 0.909703 0.415046 0.149114 0.83971
Zn Zn 0.842606 0.156119 0.417667 0.83971
H_ H_ 0.671912 0.131629 0.298812 0.10394
H_ H_ 0.751793 0.0991746 0.268706 0.10394
H_ H_ 0.709557 0.441941 0.288622 0.10394
H_ H_ 0.636187 0.980374 0.314834 0.10394
H_ H_ 0.022686 0.105239 0.260053 0.10394
H_ H_ 0.985863 0.172731 0.21128 0.10394
H_ H_ 0.508257 0.260971 0.341056 0.10394
H_ H_ 0.571958 0.189179 0.377422 0.10394
H_ H_ 0.53813 0.441674 0.372756 0.10394
H_ H_ 0.983021 0.373815 0.380893 0.10394
H_ H_ 0.8494 0.478651 0.391463 0.10394
H_ H_ 0.585232 0.292683 0.132526 0.10394
H_ H_ 1.00744944 0.269235 0.0986808 0.10394
H_ H_ 0.545121 0.274167 0.436883 0.10394
H_ H_ 0.608096 0.330987 0.984572 0.10394
H_ H_ 0.716166 0.244849 0.107101 0.10394
H_ H_ 0.752964 0.203758 0.184034 0.10394
H_ H_ 0.732466 0.34752 0.271194 0.10394
H_ H_ 0.681197 0.383398 0.191537 0.10394
H_ H_ 0.718393 0.370281 0.446734 0.10394
H_ H_ 0.767212 0.371406 0.377318 0.10394
H_ H_ 0.898651 0.402868 0.484597 0.10394
H_ H_ 0.809146 0.395344 0.154172 0.10394
H_ H_ 0.734698 0.446469 0.192807 0.10394
H_ H_ 0.84177 0.0505402 0.273438 0.10394
H_ H_ 0.902835 0.506808 0.221589 0.10394
H_ H_ 0.510108 0.386861 0.201336 0.10394
H_ H_ 0.557153 0.304553 0.244249 0.10394
H_ H_ 0.914658 0.254024 0.234111 0.10394
H_ H_ 0.876099 0.327554 0.190711 0.10394
H_ H_ 0.957725 0.046817 0.110397 0.10394
H_ H_ 0.527053 0.11609 0.113124 0.10394
H_ H_ 0.644671 -0.004182000000000019 0.0902553 0.10394
H_ H_ 0.937206 0.168312 0.389777 0.10394
H_ H_ 0.518398 0.183772 0.450104 0.10394
H_ H_ 0.922742 0.265634 0.0571816 0.10394
H_ H_ 0.84935 0.23355 0.50486 0.10394
H_ H_ 0.74241 0.215343 0.400759 0.10394
H_ H_ 0.694294 0.25226 0.317266 0.10394
H_ H_ 0.837881 0.240597 0.25659 0.10394
H_ H_ 0.876494 0.187883 0.327278 0.10394
H_ H_ 0.791173 0.0950423 0.0497836 0.10394
H_ H_ 0.742525 0.0918752 0.118764 0.10394
H_ H_ 0.60875 0.0871403 0.00833664 0.10394
C_ C_ 0.684457 0.0908672 0.300306 0.18167
C_ C_ 0.728922 0.0720755 0.282099 -0.15533
C_ C_ 0.744065 0.0200737 0.277447 0.02923
C_ C_ 0.700412 0.484876 0.2863 -0.15533
C_ C_ 0.663549 0.00672162 0.307791 0.18167
C_ C_ 0.524358 0.13433 0.267546 0.18167
C_ C_ 0.00371489 0.18203 0.248436 -0.15533
C_ C_ 0.508248 0.225225 0.265522 0.02923
C_ C_ 0.523888 0.228739 0.318138 -0.15533
C_ C_ 0.553075 0.186185 0.339494 0.18167
C_ C_ 0.507276 0.0482433 0.369968 0.69207
C_ C_ 0.97202 0.503445 0.377354 0.02923
C_ C_ 0.993399 0.450397 0.378407 -0.15533
C_ C_ 0.965608 0.41214 0.386157 -0.15533
C_ C_ 0.91325 0.422279 0.390631 0.02923
C_ C_ 0.88974 0.472796 0.392054 -0.15533
C_ C_ 0.920966 0.514291 0.389539 0.02923
C_ C_ 0.889977 0.074545 0.388163 0.69207
C_ C_ 0.905712 0.323087 0.382587 0.69661
C_ C_ 0.577929 0.285515 0.0926977 0.18167
C_ C_ 0.532978 0.263802 0.0736072 -0.15533
C_ C_ 0.514867 0.266743 0.0228371 0.02923
C_ C_ 0.554567 0.281679 0.47977 -0.15533
C_ C_ 0.58701 0.313106 0.00904721 0.18167
C_ C_ 0.715613 0.26508 0.145018 0.18167
C_ C_ 0.736889 0.242493 0.187396 -0.15533
C_ C_ 0.741067 0.27114 0.235264 0.02923
C_ C_ 0.718323 0.321541 0.23997 -0.15533
C_ C_ 0.694482 0.343436 0.193205 0.18167
C_ C_ 0.741258 0.370147 0.0438589 0.69207
C_ C_ 0.779061 0.373341 0.505273 0.02923
C_ C_ 0.758396 0.372338 0.455684 -0.15533
C_ C_ 0.786499 0.37971 0.415503 -0.15533
C_ C_ 0.839019 0.383788 0.42453 0.02923
C_ C_ 0.862001 0.386812 0.475708 -0.15533
C_ C_ 0.832777 0.37838 0.517069 0.02923
C_ C_ 0.85189 0.385813 0.068605 0.69207
C_ C_ 0.848012 0.382893 0.32979 0.69661
C_ C_ 0.8123 0.427964 0.182492 0.18167
C_ C_ 0.770895 0.453266 0.204607 -0.15533
C_ C_ 0.779816 0.493449 0.243078 0.02923
C_ C_ 0.834495 0.0177027 0.251095 -0.15533
C_ C_ 0.864711 0.491738 0.216982 0.18167
C_ C_ 0.999181 0.352277 0.195663 0.18167
C_ C_ 0.515367 0.310983 0.23263 -0.15533
C_ C_ 0.991909 0.27358 0.235207 0.02923
C_ C_ 0.938987 0.282237 0.225133 -0.15533
C_ C_ 0.917858 0.323944 0.197476 0.18167
C_ C_ 0.988487 0.454127 0.117632 0.69207
C_ C_ 0.521744 0.987165 0.110969 0.02923
C_ C_ 0.503325 0.0389071 0.112352 -0.15533
C_ C_ 0.53992 0.0759584 0.110259 -0.15533
C_ C_ 0.590494 0.0588997 0.0991612 0.02923
C_ C_ 0.605064 0.00648016 0.0901801 -0.15533
C_ C_ 0.572788 0.970348 0.0971933 0.02923
C_ C_ 0.598848 0.423235 0.111645 0.69207
C_ C_ 0.607302 0.153376 0.110275 0.69661
C_ C_ 0.937002 0.18762 0.42658 0.18167
C_ C_ 0.979095 0.212359 0.448538 -0.15533
C_ C_ 0.975761 0.243374 0.494272 0.02923
C_ C_ 0.926803 0.244004 0.0196534 -0.15533
C_ C_ 0.889216 0.223588 0.493543 0.18167
C_ C_ 0.758931 0.212464 0.363577 0.18167
C_ C_ 0.73468 0.236782 0.318179 -0.15533
C_ C_ 0.763948 0.246377 0.280185 0.02923
C_ C_ 0.815126 0.227016 0.283699 -0.15533
C_ C_ 0.837375 0.197576 0.325014 0.18167
C_ C_ 0.765253 0.12333 0.455092 0.69207
C_ C_ 0.731901 0.101636 0.988655 0.02923
C_ C_ 0.75127 0.0996017 0.0414728 -0.15533
C_ C_ 0.723222 0.0903907 0.0802273 -0.15533
C_ C_ 0.670386 0.0887156 0.0695815 0.02923
C_ C_ 0.649005 0.0877536 0.017685 -0.15533
C_ C_ 0.677453 0.1008 0.978328 0.02923
C_ C_ 0.651799 0.116284 0.425437 0.69207
C_ C_ 0.656569 0.0898405 0.165031 0.69661
C_ C_ 0.877879 0.379103 0.382399 -0.30787
C_ C_ 0.632296 0.0969959 0.108875 -0.30787
N_ N_ 0.649799 0.0585843 0.309289 -0.32189
N_ N_ 0.555913 0.140869 0.312917 -0.32189
N_ N_ 0.603685 0.30717 0.0597546 -0.32189
N_ N_ 0.690252 0.313782 0.149469 -0.32189
N_ N_ 0.858179 0.446219 0.190541 -0.32189
N_ N_ 0.946664 0.359452 0.185852 -0.32189
N_ N_ 0.893341 0.195624 0.448599 -0.32189
N_ N_ 0.808812 0.191325 0.362965 -0.32189
O_ O_ 0.000954695 0.0902414 0.400512 -0.63271
O_ O_ 0.547827 0.0372577 0.346478 -0.57982
O_ O_ 0.890834 0.104751 0.34897 -0.63271
O_ O_ 0.867889 0.0929821 0.42754 -0.57982
O_ O_ 0.744745 0.399224 0.0874021 -0.63271
O_ O_ 0.707521 0.337614 0.0359133 -0.57982
O_ O_ 0.855878 0.344259 0.0943141 -0.63271
O_ O_ 0.880468 0.420012 0.0857231 -0.57982
O_ O_ 0.484369 0.413675 0.0934765 -0.63271
O_ O_ 0.948974 0.465905 0.146707 -0.57982
O_ O_ 0.591818 0.397103 0.14957 -0.63271
O_ O_ 0.634499 0.405292 0.0826448 -0.57982
O_ O_ 0.756106 0.106213 0.40821 -0.63271
O_ O_ 0.804127 0.151267 0.467319 -0.57982
O_ O_ 0.654671 0.154177 0.396882 -0.63271
O_ O_ 0.619889 0.0818695 0.40616 -0.57982
F_ F_ 0.939959 0.318292 0.424701 -0.20885
F_ F_ 0.933223 0.310759 0.340765 -0.20885
F_ F_ 0.871902 0.285955 0.384312 -0.20885
F_ F_ 0.812837 0.423226 0.327098 -0.20885
F_ F_ 0.823684 0.340174 0.314224 -0.20885
F_ F_ 0.87694 0.387448 0.288509 -0.20885
F_ F_ 0.572957 0.156628 0.0667381 -0.20885
F_ F_ 0.58164 0.176805 0.151472 -0.20885
F_ F_ 0.644348 0.185233 0.104731 -0.20885
F_ F_ 0.678781 0.0379772 0.170052 -0.20885
F_ F_ 0.690562 0.124882 0.18257 -0.20885
F_ F_ 0.618889 0.0989355 0.198169 -0.20885
Zn Zn 0.58791 0.0860686 0.846362 0.83971
Zn Zn 0.659226 0.3517 0.583171 0.83971
Zn Zn 0.910085 0.415549 0.656176 0.83971
Zn Zn 0.83581 0.159577 0.916172 0.83971
H_ H_ 0.66757 0.138065 0.805716 0.10394
H_ H_ 0.739347 0.109473 0.759579 0.10394
H_ H_ 0.70833 0.445361 0.777968 0.10394
H_ H_ 0.633143 0.986335 0.81638 0.10394
H_ H_ 0.0169585 0.0960182 0.756473 0.10394
H_ H_ 0.977626 0.172545 0.708249 0.10394
H_ H_ 0.52986 0.271549 0.821087 0.10394
H_ H_ 0.575696 0.198507 0.868918 0.10394
H_ H_ 0.534852 0.446459 0.875013 0.10394
H_ H_ 0.984728 0.381767 0.892378 0.10394
H_ H_ 0.855523 0.489917 0.910201 0.10394
H_ H_ 0.577844 0.309707 0.627032 0.10394
H_ H_ 0.0103602 0.259249 0.595283 0.10394
H_ H_ 0.526056 0.29973 0.953292 0.10394
H_ H_ 0.625532 0.313731 0.475339 0.10394
H_ H_ 0.706242 0.257615 0.604868 0.10394
H_ H_ 0.742325 0.209605 0.674762 0.10394
H_ H_ 0.70431 0.343365 0.772473 0.10394
H_ H_ 0.683295 0.389319 0.696399 0.10394
H_ H_ 0.716286 0.367089 0.943675 0.10394
H_ H_ 0.774083 0.369628 0.876729 0.10394
H_ H_ 0.892702 0.410724 0.989593 0.10394
H_ H_ 0.809532 0.396669 0.663849 0.10394
H_ H_ 0.732636 0.450825 0.685959 0.10394
H_ H_ 0.833934 0.0560987 0.77674 0.10394
H_ H_ 0.902184 0.499562 0.736027 0.10394
H_ H_ 0.521373 0.371388 0.673993 0.10394
H_ H_ 0.560197 0.29843 0.717937 0.10394
H_ H_ 0.905965 0.257502 0.740931 0.10394
H_ H_ 0.867616 0.333567 0.705365 0.10394
H_ H_ 0.963184 0.0526298 0.627232 0.10394
H_ H_ 0.514515 0.124951 0.605688 0.10394
H_ H_ 0.637894 0.00816949 0.580862 0.10394
H_ H_ 0.938641 0.16629 0.891713 0.10394
H_ H_ 0.51736 0.192664 0.948213 0.10394
H_ H_ 0.924165 0.274934 0.547903 0.10394
H_ H_ 0.851757 0.211832 0.0144927 0.10394
H_ H_ 0.739689 0.213538 0.896208 0.10394
H_ H_ 0.690133 0.256642 0.824318 0.10394
H_ H_ 0.824152 0.228533 0.741061 0.10394
H_ H_ 0.871633 0.185548 0.82046 0.10394
H_ H_ 0.78824 0.104622 0.558814 0.10394
H_ H_ 0.733177 0.0843638 0.615496 0.10394
H_ H_ 0.602058 0.10778 0.50452 0.10394
C_ C_ 0.679587 0.0969213 0.803543 0.18167
C_ C_ 0.720388 0.0815 0.775369 -0.15533
C_ C_ 0.737647 0.0298232 0.770512 0.02923
C_ C_ 0.699186 0.487713 0.78787 -0.15533
C_ C_ 0.65715 0.0128233 0.804737 0.18167
C_ C_ 0.533102 0.134606 0.764937 0.18167
C_ C_ -0.0011640000000000539 0.177629 0.747094 -0.15533
C_ C_ 0.504545 0.225197 0.757042 0.02923
C_ C_ 0.525177 0.233135 0.805744 -0.15533
C_ C_ 0.550695 0.192512 0.833697 0.18167
C_ C_ 0.504435 0.0459879 0.857661 0.69207
C_ C_ 0.972563 0.508907 0.877259 0.02923
C_ C_ 0.994678 0.45804 0.883374 -0.15533
C_ C_ 0.965131 0.418734 0.890074 -0.15533
C_ C_ 0.91352 0.428515 0.896219 0.02923
C_ C_ 0.89356 0.482777 0.903164 -0.15533
C_ C_ 0.922736 0.52164 0.891955 0.02923
C_ C_ 0.89199 0.0724524 0.885107 0.69207
C_ C_ 0.904583 0.32992 0.892418 0.69661
C_ C_ 0.572993 0.300131 0.585256 0.18167
C_ C_ 0.529487 0.275059 0.565761 -0.15533
C_ C_ 0.518785 0.269791 0.512877 0.02923
C_ C_ 0.540431 0.296451 0.993227 -0.15533
C_ C_ 0.59723 0.307329 0.500586 0.18167
C_ C_ 0.7085 0.275975 0.639407 0.18167
C_ C_ 0.729946 0.24949 0.680791 -0.15533
C_ C_ 0.727138 0.271845 0.731877 0.02923
C_ C_ 0.713009 0.323499 0.73538 -0.15533
C_ C_ 0.693569 0.349873 0.6917 0.18167
C_ C_ 0.743772 0.367678 0.545254 0.69207
C_ C_ 0.776797 0.37427 1.00475012 0.02923
C_ C_ 0.758338 0.372805 0.953276 -0.15533
C_ C_ 0.788444 0.378462 0.914571 -0.15533
C_ C_ 0.838463 0.393287 0.925812 0.02923
C_ C_ 0.854123 0.402064 0.978043 -0.15533
C_ C_ 0.826931 0.38933 0.0167987 0.02923
C_ C_ 0.856726 0.380127 0.573143 0.69207
C_ C_ 0.854569 0.3897 0.829986 0.69661
C_ C_ 0.81093 0.433827 0.6815 0.18167
C_ C_ 0.769008 0.462408 0.70132 -0.15533
C_ C_ 0.776427 0.499888 0.741208 0.02923
C_ C_ 0.827186 0.0234011 0.750786 -0.15533
C_ C_ 0.864285 0.49147 0.726388 0.18167
C_ C_ 0.99069 0.35243 0.699674 0.18167
C_ C_ 0.517548 0.303456 0.711802 -0.15533
C_ C_ 0.984255 0.273389 0.739295 0.02923
C_ C_ 0.931221 0.281059 0.730353 -0.15533
C_ C_ 0.908956 0.324494 0.706398 0.18167
C_ C_ 0.988535 0.456337 0.624332 0.69207
C_ C_ 0.517501 0.997577 0.610607 0.02923
C_ C_ 0.499044 0.0468331 0.605538 -0.15533
C_ C_ 0.530917 0.0855939 0.601347 -0.15533
C_ C_ 0.583195 0.0717662 0.598089 0.02923
C_ C_ 0.600117 0.0201827 0.591762 -0.15533
C_ C_ 0.569386 0.98293 0.601224 0.02923
C_ C_ 0.596342 0.428372 0.605801 0.69207
C_ C_ 0.597981 0.167376 0.606529 0.69661
C_ C_ 0.93785 0.184576 0.929527 0.18167
C_ C_ 0.980364 0.207289 0.95274 -0.15533
C_ C_ 0.974017 0.240681 -0.004496999999999973 0.02923
C_ C_ 0.92966 0.248338 0.514376 -0.15533
C_ C_ 0.88613 0.217717 0.995204 0.18167
C_ C_ 0.755794 0.212945 0.860448 0.18167
C_ C_ 0.728151 0.238507 0.819256 -0.15533
C_ C_ 0.75266 0.242676 0.774716 0.02923
C_ C_ 0.804741 0.225014 0.775566 -0.15533
C_ C_ 0.830817 0.197029 0.81752 0.18167
C_ C_ 0.762142 0.123925 0.951453 0.69207
C_ C_ 0.729924 0.11326 0.493158 0.02923
C_ C_ 0.747729 0.103001 0.543741 -0.15533
C_ C_ 0.714363 0.0961587 0.579417 -0.15533
C_ C_ 0.660732 0.101717 0.567176 0.02923
C_ C_ 0.641809 0.113658 0.515969 -0.15533
C_ C_ 0.676469 0.112374 0.477219 0.02923
C_ C_ 0.652616 0.105946 0.925397 0.69207
C_ C_ 0.647112 0.103275 0.663067 0.69661
C_ C_ 0.879261 0.386112 0.886735 -0.30787
C_ C_ 0.622245 0.109424 0.607254 -0.30787
N_ N_ 0.642691 0.0638352 0.805998 -0.32189
N_ N_ 0.554007 0.144333 0.813367 -0.32189
N_ N_ 0.60732 0.312833 0.552776 -0.32189
N_ N_ 0.691607 0.326076 0.644209 -0.32189
N_ N_ 0.857117 0.451591 0.691481 -0.32189
N_ N_ 0.937762 0.358691 0.68899 -0.32189
N_ N_ 0.892155 0.192986 0.949424 -0.32189
N_ N_ 0.803644 0.190195 0.856756 -0.32189
O_ O_ -0.002483000000000013 0.0950003 0.876604 -0.63271
O_ O_ 0.545876 0.0339205 0.832458 -0.57982
O_ O_ 0.887955 0.0958266 0.84265 -0.63271
O_ O_ 0.864316 0.0950992 0.920158 -0.57982
O_ O_ 0.749921 0.396339 0.58765 -0.63271
O_ O_ 0.703086 0.342613 0.53928 -0.57982
O_ O_ 0.861079 0.340325 0.600658 -0.63271
O_ O_ 0.878157 0.421227 0.592283 -0.57982
O_ O_ 0.483175 0.41204 0.587316 -0.63271
O_ O_ 0.958571 0.458363 0.661899 -0.57982
O_ O_ 0.5951 0.399982 0.644393 -0.63271
O_ O_ 0.627705 0.413522 0.571908 -0.57982
O_ O_ 0.753417 0.112371 0.901537 -0.63271
O_ O_ 0.794295 0.15682 0.9648 -0.57982
O_ O_ 0.654157 0.149323 0.901841 -0.63271
O_ O_ 0.61668 0.0754288 0.909847 -0.57982
F_ F_ 0.932431 0.326386 0.941102 -0.20885
F_ F_ 0.938553 0.311213 0.855361 -0.20885
F_ F_ 0.870766 0.291092 0.890812 -0.20885
F_ F_ 0.818591 0.431663 0.823239 -0.20885
F_ F_ 0.828414 0.347508 0.812499 -0.20885
F_ F_ 0.89068 0.396234 0.796426 -0.20885
F_ F_ 0.564971 0.171715 0.562242 -0.20885
F_ F_ 0.570411 0.183474 0.64799 -0.20885
F_ F_ 0.635575 0.198614 0.603826 -0.20885
F_ F_ 0.669447 0.052997 0.671007 -0.20885
F_ F_ 0.682782 0.136912 0.673878 -0.20885
F_ F_ 0.614326 0.10761 0.700293 -0.20885
Zn Zn 0.589145 0.582233 0.338232 0.83971
Zn Zn 0.660579 0.840237 0.0819725 0.83971
Zn Zn 0.909254 0.913154 0.152071 0.83971
Zn Zn 0.83956 0.65387 0.415955 0.83971
H_ H_ 0.672371 0.63126 0.305916 0.10394
H_ H_ 0.754279 0.597935 0.274084 0.10394
H_ H_ 0.722394 0.944034 0.289211 0.10394
H_ H_ 0.638559 0.487307 0.336443 0.10394
H_ H_ 0.0254659 0.594601 0.250742 0.10394
H_ H_ 0.986759 0.668416 0.201845 0.10394
H_ H_ 0.537924 0.772026 0.328324 0.10394
H_ H_ 0.576107 0.693937 0.372221 0.10394
H_ H_ 0.533017 0.94647 0.374851 0.10394
H_ H_ 0.972319 0.884529 0.360294 0.10394
H_ H_ 0.847471 0.990585 0.402851 0.10394
H_ H_ 0.578675 0.807993 0.132643 0.10394
H_ H_ 0.993991 0.777946 0.0880581 0.10394
H_ H_ 0.539618 0.78217 0.447161 0.10394
H_ H_ 0.630222 0.798361 0.983213 0.10394
H_ H_ 0.718632 0.74145 0.103749 0.10394
H_ H_ 0.756474 0.698145 0.181126 0.10394
H_ H_ 0.713188 0.837286 0.269181 0.10394
H_ H_ 0.676629 0.87765 0.185525 0.10394
H_ H_ 0.711759 0.87635 0.446353 0.10394
H_ H_ 0.771736 0.867678 0.377576 0.10394
H_ H_ 0.88345 0.927151 0.487867 0.10394
H_ H_ 0.809581 0.897893 0.162734 0.10394
H_ H_ 0.737535 0.953389 0.196616 0.10394
H_ H_ 0.833434 0.545861 0.274609 0.10394
H_ H_ 0.912621 1.000150555 0.233575 0.10394
H_ H_ 0.498369 0.897485 0.21918 0.10394
H_ H_ 0.54954 0.821324 0.249716 0.10394
H_ H_ 0.907003 0.74029 0.212656 0.10394
H_ H_ 0.865903 0.820602 0.181031 0.10394
H_ H_ 0.963695 0.559229 0.12097 0.10394
H_ H_ 0.520131 0.618462 0.131136 0.10394
H_ H_ 0.642551 0.507228 0.0910181 0.10394
H_ H_ 0.945003 0.649775 0.410109 0.10394
H_ H_ 0.515295 0.688833 0.450781 0.10394
H_ H_ 0.913858 0.793369 0.0375689 0.10394
H_ H_ 0.845258 0.739221 0.505719 0.10394
H_ H_ 0.738511 0.69881 0.393317 0.10394
H_ H_ 0.69249 0.745199 0.32044 0.10394
H_ H_ 0.837062 0.740736 0.256812 0.10394
H_ H_ 0.876319 0.685674 0.327163 0.10394
H_ H_ 0.788717 0.612527 0.0539597 0.10394
H_ H_ 0.735956 0.606305 0.119375 0.10394
H_ H_ 0.607243 0.584637 0.00638187 0.10394
C_ C_ 0.680756 0.590427 0.30263 0.18167
C_ C_ 0.726616 0.570312 0.279752 -0.15533
C_ C_ 0.73493 0.517079 0.26775 0.02923
C_ C_ 0.708608 0.985771 0.288584 -0.15533
C_ C_ 0.658613 0.508054 0.310164 0.18167
C_ C_ 0.532539 0.636479 0.265552 0.18167
C_ C_ 0.00624801 0.676573 0.240758 -0.15533
C_ C_ 0.515103 0.727549 0.2598 0.02923
C_ C_ 0.540882 0.733695 0.309295 -0.15533
C_ C_ 0.556158 0.688898 0.33611 0.18167
C_ C_ 0.511115 0.54172 0.362196 0.69207
C_ C_ 0.967303 0.00975166 0.375438 0.02923
C_ C_ -0.014216000000000006 0.95853 0.369383 -0.15533
C_ C_ 0.956881 0.919612 0.37628 -0.15533
C_ C_ 0.907445 0.929705 0.390973 0.02923
C_ C_ 0.886597 0.98171 0.396877 -0.15533
C_ C_ 0.915329 0.0216325 0.389589 0.02923
C_ C_ 0.893924 0.569372 0.384495 0.69207
C_ C_ 0.897965 0.832332 0.387909 0.69661
C_ C_ 0.574867 0.795683 0.0906604 0.18167
C_ C_ 0.531677 0.773031 0.0723806 -0.15533
C_ C_ 0.519374 0.766149 0.0207054 0.02923
C_ C_ 0.547276 0.781253 0.488968 -0.15533
C_ C_ 0.603526 0.789756 0.00750873 0.18167
C_ C_ 0.71736 0.76015 0.140162 0.18167
C_ C_ 0.734873 0.73563 0.18371 -0.15533
C_ C_ 0.737146 0.765699 0.232039 0.02923
C_ C_ 0.713233 0.816359 0.231591 -0.15533
C_ C_ 0.693921 0.838358 0.185811 0.18167
C_ C_ 0.739154 0.873118 0.0438072 0.69207
C_ C_ 0.773605 0.876435 0.505361 0.02923
C_ C_ 0.75274 0.876896 0.454332 -0.15533
C_ C_ 0.782772 0.879442 0.414803 -0.15533
C_ C_ 0.833316 0.893815 0.426057 0.02923
C_ C_ 0.849676 0.906003 0.477704 -0.15533
C_ C_ 0.823132 0.890202 0.517035 0.02923
C_ C_ 0.851846 0.883744 0.0710123 0.69207
C_ C_ 0.847413 0.889646 0.328026 0.69661
C_ C_ 0.81653 0.934804 0.185336 0.18167
C_ C_ 0.776093 0.960695 0.208094 -0.15533
C_ C_ 0.786672 0.999253 0.246588 0.02923
C_ C_ 0.825126 0.516235 0.245954 -0.15533
C_ C_ 0.872712 0.993176 0.221428 0.18167
C_ C_ 0.983459 0.856117 0.211573 0.18167
C_ C_ 0.512445 0.816381 0.2324 -0.15533
C_ C_ 0.977405 0.771564 0.239255 0.02923
C_ C_ 0.929671 0.771725 0.21106 -0.15533
C_ C_ 0.904555 0.818826 0.195858 0.18167
C_ C_ 0.98769 0.942917 0.120658 0.69207
C_ C_ 0.524633 0.490838 0.120815 0.02923
C_ C_ 0.504712 0.541948 0.122494 -0.15533
C_ C_ 0.534921 0.581105 0.117631 -0.15533
C_ C_ 0.586567 0.568885 0.106559 0.02923
C_ C_ 0.601757 0.51573 0.096122 -0.15533
C_ C_ 0.57272 0.476763 0.105791 0.02923
C_ C_ 0.592949 0.918628 0.102297 0.69207
C_ C_ 0.603436 0.663371 0.107688 0.69661
C_ C_ 0.938928 0.676698 0.443446 0.18167
C_ C_ 0.980284 0.698766 0.472798 -0.15533
C_ C_ 0.973067 0.741037 0.506332 0.02923
C_ C_ 0.921162 0.761886 1.00723888 -0.15533
C_ C_ 0.882377 0.727337 0.495508 0.18167
C_ C_ 0.756565 0.705156 0.360929 0.18167
C_ C_ 0.732762 0.734803 0.321561 -0.15533
C_ C_ 0.76217 0.744604 0.280714 0.02923
C_ C_ 0.811889 0.725809 0.281714 -0.15533
C_ C_ 0.834928 0.698024 0.32322 0.18167
C_ C_ 0.764228 0.614223 0.450848 0.69207
C_ C_ 0.725202 0.614958 0.99278 0.02923
C_ C_ 0.746956 0.611473 0.0446174 -0.15533
C_ C_ 0.715525 0.608061 0.0825604 -0.15533
C_ C_ 0.663787 0.600064 0.0707757 0.02923
C_ C_ 0.645451 0.597915 0.0178927 -0.15533
C_ C_ 0.674735 0.607742 0.979145 0.02923
C_ C_ 0.652634 0.604042 0.421723 0.69207
C_ C_ 0.65258 0.604294 0.16752 0.69661
C_ C_ 0.872441 0.886618 0.386575 -0.30787
C_ C_ 0.626543 0.60791 0.113201 -0.30787
N_ N_ 0.644512 0.557701 0.306711 -0.32189
N_ N_ 0.559815 0.643469 0.310266 -0.32189
N_ N_ 0.608507 0.804729 0.0588161 -0.32189
N_ N_ 0.69613 0.809239 0.141315 -0.32189
N_ N_ 0.861838 0.952469 0.189534 -0.32189
N_ N_ 0.935342 0.855447 0.187576 -0.32189
N_ N_ 0.890766 0.68951 0.457693 -0.32189
N_ N_ 0.805608 0.68618 0.357905 -0.32189
O_ O_ 0.00341674 0.586604 0.405289 -0.63271
O_ O_ 0.544637 0.530617 0.328603 -0.57982
O_ O_ 0.896769 0.597937 0.345818 -0.63271
O_ O_ 0.86835 0.590895 0.423202 -0.57982
O_ O_ 0.743708 0.887921 0.0920122 -0.63271
O_ O_ 0.704433 0.842836 0.0299415 -0.57982
O_ O_ 0.861734 0.840703 0.0976282 -0.63271
O_ O_ 0.876691 0.921818 0.0894502 -0.57982
O_ O_ 0.479771 0.908326 0.0951778 -0.63271
O_ O_ 0.962338 0.950985 0.15982 -0.57982
O_ O_ 0.588368 0.894901 0.143377 -0.63271
O_ O_ 0.629857 0.903751 0.0751693 -0.57982
O_ O_ 0.771615 0.580548 0.41125 -0.63271
O_ O_ 0.78977 0.653919 0.45855 -0.57982
O_ O_ 0.65679 0.646482 0.399854 -0.63271
O_ O_ 0.614706 0.578733 0.404285 -0.57982
F_ F_ 0.938891 0.832127 0.425071 -0.20885
F_ F_ 0.920011 0.810994 0.345532 -0.20885
F_ F_ 0.867005 0.795043 0.398861 -0.20885
F_ F_ 0.808805 0.929384 0.321967 -0.20885
F_ F_ 0.822383 0.847696 0.313868 -0.20885
F_ F_ 0.881955 0.893575 0.292263 -0.20885
F_ F_ 0.570639 0.663276 0.0639105 -0.20885
F_ F_ 0.57747 0.68637 0.146049 -0.20885
F_ F_ 0.640985 0.695898 0.101908 -0.20885
F_ F_ 0.684215 0.558556 0.174777 -0.20885
F_ F_ 0.682024 0.645322 0.185957 -0.20885
F_ F_ 0.619562 0.599786 0.203459 -0.20885
Zn Zn 0.583063 0.58404 0.848822 0.83971
Zn Zn 0.654605 0.845052 0.583631 0.83971
Zn Zn 0.906214 0.919172 0.656111 0.83971
Zn Zn 0.834097 0.658991 0.917398 0.83971
H_ H_ 0.663818 0.629207 0.807835 0.10394
H_ H_ 0.738734 0.598873 0.763118 0.10394
H_ H_ 0.71543 0.955591 0.78744 0.10394
H_ H_ 0.634678 0.485017 0.827104 0.10394
H_ H_ 0.0179285 0.589476 0.751286 0.10394
H_ H_ 0.977057 0.665011 0.699212 0.10394
H_ H_ 0.523325 0.771168 0.830032 0.10394
H_ H_ 0.576277 0.698249 0.873555 0.10394
H_ H_ 0.527123 0.945022 0.848647 0.10394
H_ H_ 0.980788 0.879368 0.876827 0.10394
H_ H_ 0.855905 0.990185 0.917474 0.10394
H_ H_ 0.574207 0.803078 0.633732 0.10394
H_ H_ -0.0017380000000000173 0.789123 0.606995 0.10394
H_ H_ 0.544239 0.781849 0.945333 0.10394
H_ H_ 0.61689 0.815141 0.483731 0.10394
H_ H_ 0.720314 0.764369 0.600306 0.10394
H_ H_ 0.755154 0.713286 0.673149 0.10394
H_ H_ 0.703827 0.840886 0.774552 0.10394
H_ H_ 0.672097 0.885202 0.698986 0.10394
H_ H_ 0.712304 0.912672 0.947939 0.10394
H_ H_ 0.76784 0.922048 0.885305 0.10394
H_ H_ 0.895314 0.886078 0.987371 0.10394
H_ H_ 0.807509 0.905032 0.65665 0.10394
H_ H_ 0.730378 0.965498 0.685719 0.10394
H_ H_ 0.829775 0.548101 0.778656 0.10394
H_ H_ 0.906262 1.00553756 0.739703 0.10394
H_ H_ 0.501366 0.890473 0.70696 0.10394
H_ H_ 0.548988 0.815211 0.738175 0.10394
H_ H_ 0.908119 0.740505 0.70822 0.10394
H_ H_ 0.864243 0.832663 0.691007 0.10394
H_ H_ 0.967347 0.560085 0.627869 0.10394
H_ H_ 0.516974 0.620316 0.610713 0.10394
H_ H_ 0.646949 0.509199 0.605714 0.10394
H_ H_ 0.936372 0.665062 0.892904 0.10394
H_ H_ 0.523161 0.671619 0.964239 0.10394
H_ H_ 0.915555 0.785198 0.544136 0.10394
H_ H_ 0.844682 0.737133 1.00476148 0.10394
H_ H_ 0.737487 0.713165 0.893536 0.10394
H_ H_ 0.693964 0.749193 0.817802 0.10394
H_ H_ 0.834349 0.740439 0.746059 0.10394
H_ H_ 0.875297 0.68897 0.81668 0.10394
H_ H_ 0.789172 0.609546 0.549149 0.10394
H_ H_ 0.731069 0.598522 0.622965 0.10394
H_ H_ 0.600765 0.591104 0.506283 0.10394
C_ C_ 0.675633 0.589133 0.803003 0.18167
C_ C_ 0.722126 0.571934 0.78464 -0.15533
C_ C_ 0.734633 0.518768 0.772892 0.02923
C_ C_ 0.703648 0.994119 0.784043 -0.15533
C_ C_ 0.65421 0.507179 0.806234 0.18167
C_ C_ 0.52823 0.632905 0.769406 0.18167
C_ C_ -0.002994000000000052 0.671904 0.737276 -0.15533
C_ C_ 0.504287 0.723287 0.763471 0.02923
C_ C_ 0.524809 0.731384 0.812792 -0.15533
C_ C_ 0.548567 0.689953 0.840309 0.18167
C_ C_ 0.5043 0.545396 0.868293 0.69207
C_ C_ 0.967407 0.00992871 0.868803 0.02923
C_ C_ -0.013293 0.957327 0.863205 -0.15533
C_ C_ 0.960333 0.917848 0.875251 -0.15533
C_ C_ 0.911572 0.928963 0.89317 0.02923
C_ C_ 0.893682 0.980825 0.902555 -0.15533
C_ C_ 0.919119 0.0211539 0.889 0.02923
C_ C_ 0.894268 0.57483 0.886164 0.69207
C_ C_ 0.897343 0.834024 0.883054 0.69661
C_ C_ 0.565842 0.798142 0.594681 0.18167
C_ C_ 0.523089 0.77664 0.576745 -0.15533
C_ C_ 0.512072 0.767915 0.524733 0.02923
C_ C_ 0.55476 0.778408 0.986852 -0.15533
C_ C_ 0.591257 0.801808 0.508774 0.18167
C_ C_ 0.716809 0.778704 0.639643 0.18167
C_ C_ 0.738368 0.752518 0.680835 -0.15533
C_ C_ 0.736656 0.773805 0.730749 0.02923
C_ C_ 0.712048 0.822062 0.736757 -0.15533
C_ C_ 0.692603 0.848049 0.693147 0.18167
C_ C_ 0.739156 0.872032 0.547224 0.69207
C_ C_ 0.775217 0.884874 1.00703536 0.02923
C_ C_ 0.753708 0.898699 0.956125 -0.15533
C_ C_ 0.78446 0.902449 0.919519 -0.15533
C_ C_ 0.838406 0.892091 0.927365 0.02923
C_ C_ 0.858546 0.883389 0.977506 -0.15533
C_ C_ 0.827932 0.881148 0.0171557 0.02923
C_ C_ 0.850391 0.887558 0.569534 0.69207
C_ C_ 0.845967 0.897535 0.828445 0.69661
C_ C_ 0.813443 0.942067 0.680135 0.18167
C_ C_ 0.770107 0.971568 0.69779 -0.15533
C_ C_ 0.777679 0.0102649 0.736246 0.02923
C_ C_ 0.824081 0.515067 0.752986 -0.15533
C_ C_ 0.868035 0.994551 0.728225 0.18167
C_ C_ 0.985868 0.85165 0.696512 0.18167
C_ C_ 0.509029 0.812408 0.728851 -0.15533
C_ C_ 0.980416 0.768005 0.732422 0.02923
C_ C_ 0.928028 0.774448 0.71402 -0.15533
C_ C_ 0.905015 0.820273 0.691026 0.18167
C_ C_ 0.98657 0.955344 0.622057 0.69207
C_ C_ 0.52034 0.492862 0.604784 0.02923
C_ C_ 0.502457 0.544599 0.611029 -0.15533
C_ C_ 0.534243 0.582107 0.613097 -0.15533
C_ C_ 0.586791 0.5692 0.605051 0.02923
C_ C_ 0.607272 0.518927 0.609116 -0.15533
C_ C_ 0.574428 0.479718 0.608065 0.02923
C_ C_ 0.588684 0.928121 0.601904 0.69207
C_ C_ 0.599536 0.666667 0.603193 0.69661
C_ C_ 0.932597 0.689131 0.929069 0.18167
C_ C_ 0.975409 0.705198 0.955885 -0.15533
C_ C_ 0.968848 0.747964 0.991141 0.02923
C_ C_ 0.924738 0.750327 0.521862 -0.15533
C_ C_ 0.879203 0.736456 0.986874 0.18167
C_ C_ 0.76102 0.7191 0.862073 0.18167
C_ C_ 0.736634 0.74571 0.820875 -0.15533
C_ C_ 0.762446 0.749361 0.776345 0.02923
C_ C_ 0.812455 0.729958 0.776442 -0.15533
C_ C_ 0.83506 0.701977 0.817787 0.18167
C_ C_ 0.757549 0.627618 0.952926 0.69207
C_ C_ 0.728049 0.60579 0.488338 0.02923
C_ C_ 0.748385 0.602669 0.541487 -0.15533
C_ C_ 0.717722 0.599594 0.581872 -0.15533
C_ C_ 0.664618 0.595104 0.569057 0.02923
C_ C_ 0.644616 0.593389 0.517538 -0.15533
C_ C_ 0.674438 0.600004 0.477102 0.02923
C_ C_ 0.651201 0.606249 0.925491 0.69207
C_ C_ 0.64609 0.613035 0.669562 0.69661
C_ C_ 0.873917 0.88904 0.883157 -0.30787
C_ C_ 0.62487 0.610986 0.610668 -0.30787
N_ N_ 0.642746 0.557702 0.816477 -0.32189
N_ N_ 0.547461 0.642101 0.819228 -0.32189
N_ N_ 0.601008 0.805408 0.561811 -0.32189
N_ N_ 0.689464 0.825421 0.646391 -0.32189
N_ N_ 0.860221 0.950766 0.697698 -0.32189
N_ N_ 0.936013 0.856744 0.680597 -0.32189
N_ N_ 0.885834 0.703422 0.945631 -0.32189
N_ N_ 0.808822 0.695085 0.858903 -0.32189
O_ O_ 1.0059939 0.593506 0.894905 -0.63271
O_ O_ 0.54418 0.531934 0.842793 -0.57982
O_ O_ 0.894381 0.601702 0.843733 -0.63271
O_ O_ 0.869028 0.595612 0.922238 -0.57982
O_ O_ 0.743235 0.901446 0.590491 -0.63271
O_ O_ 0.703715 0.839181 0.538699 -0.57982
O_ O_ 0.854428 0.845659 0.593729 -0.63271
O_ O_ 0.872092 0.928619 0.591124 -0.57982
O_ O_ 0.491809 0.909236 0.594171 -0.63271
O_ O_ 0.954994 0.961775 0.657648 -0.57982
O_ O_ 0.590672 0.906727 0.646156 -0.63271
O_ O_ 0.62037 0.90754 0.567708 -0.57982
O_ O_ 0.759771 0.600787 0.907507 -0.63271
O_ O_ 0.790257 0.659854 0.965015 -0.57982
O_ O_ 0.656387 0.645521 0.900115 -0.63271
O_ O_ 0.612571 0.578208 0.912115 -0.57982
F_ F_ 0.931537 0.827452 0.928057 -0.20885
F_ F_ 0.927133 0.822263 0.845081 -0.20885
F_ F_ 0.86165 0.799736 0.876755 -0.20885
F_ F_ 0.819866 0.943078 0.82119 -0.20885
F_ F_ 0.81321 0.863739 0.816158 -0.20885
F_ F_ 0.881074 0.894803 0.792275 -0.20885
F_ F_ 0.567722 0.666325 0.558039 -0.20885
F_ F_ 0.574579 0.68853 0.64385 -0.20885
F_ F_ 0.636261 0.696866 0.592575 -0.20885
F_ F_ 0.680534 0.569642 0.680541 -0.20885
F_ F_ 0.673354 0.654994 0.677881 -0.20885
F_ F_ 0.611275 0.619666 0.708789 -0.20885
_cell_length_a 26.508
_cell_length_b 26.37200000322088
_cell_length_c 26.311999743092066
_cell_angle_alpha 93.74100058972084
_cell_angle_beta 96.04100104955006
_cell_angle_gamma 83.6869992558723
_symmetry_space_group_name_H-M         'P 1'
_symmetry_Int_Tables_number            1
loop_
_symmetry_equiv_pos_as_xyz
   'x, y, z'
                         
loop_
_atom_site_label
_atom_site_type_symbol
_atom_site_fract_x 
_atom_site_fract_y
_atom_site_fract_z
_atom_site_charge
Zn Zn 0.0860125 0.0892693 0.347269 0.83971
Zn Zn 0.160541 0.353282 0.0861177 0.83971
Zn Zn 0.408491 0.422549 0.160745 0.83971
Zn Zn 0.342793 0.152298 0.413498 0.83971
H_ H_ 0.164221 0.131716 0.296347 0.10394
H_ H_ 0.244055 0.0951669 0.267422 0.10394
H_ H_ 0.212387 0.447201 0.302517 0.10394
H_ H_ 0.117097 0.98733 0.309562 0.10394
H_ H_ 0.511878 0.0988332 0.25378 0.10394
H_ H_ 0.498855 0.173156 0.196191 0.10394
H_ H_ 0.0465701 0.275011 0.324989 0.10394
H_ H_ 0.0855032 0.201397 0.373707 0.10394
H_ H_ 0.034223 0.437449 0.375669 0.10394
H_ H_ 0.4869 0.376896 0.380766 0.10394
H_ H_ 0.360652 0.482344 0.407395 0.10394
H_ H_ 0.083824 0.308406 0.130465 0.10394
H_ H_ 0.514242 0.249688 0.10182 0.10394
H_ H_ 0.047339 0.283608 0.446168 0.10394
H_ H_ 0.119009 0.327543 0.980612 0.10394
H_ H_ 0.201774 0.255358 0.0966925 0.10394
H_ H_ 0.230592 0.199703 0.167602 0.10394
H_ H_ 0.21114 0.32915 0.273573 0.10394
H_ H_ 0.173461 0.380471 0.201668 0.10394
H_ H_ 0.228814 0.345221 0.445797 0.10394
H_ H_ 0.274547 0.367513 0.377773 0.10394
H_ H_ 0.404878 0.399115 0.488126 0.10394
H_ H_ 0.304122 0.400656 0.173213 0.10394
H_ H_ 0.235039 0.433909 0.222364 0.10394
H_ H_ 0.31906 0.0559167 0.257808 0.10394
H_ H_ 0.391289 0.523433 0.230837 0.10394
H_ H_ 0.0224506 0.37716 0.180958 0.10394
H_ H_ 0.0639299 0.303191 0.234389 0.10394
H_ H_ 0.408135 0.252375 0.227003 0.10394
H_ H_ 0.371648 0.327697 0.184917 0.10394
H_ H_ 0.464778 0.0508033 0.122282 0.10394
H_ H_ 0.00742313 0.109847 0.0789243 0.10394
H_ H_ 0.144304 0.0011678 0.0902804 0.10394
H_ H_ 0.445688 0.163558 0.392996 0.10394
H_ H_ 0.0155154 0.205971 0.431205 0.10394
H_ H_ 0.415988 0.270029 0.0561132 0.10394
H_ H_ 0.345574 0.237899 0.492799 0.10394
H_ H_ 0.243442 0.215767 0.394911 0.10394
H_ H_ 0.193067 0.251097 0.322248 0.10394
H_ H_ 0.323199 0.215629 0.232275 0.10394
H_ H_ 0.371899 0.184533 0.316446 0.10394
H_ H_ 0.273249 0.136362 0.0545057 0.10394
H_ H_ 0.219836 0.116994 0.120479 0.10394
H_ H_ 0.101453 0.0761622 0.00184595 0.10394
C_ C_ 0.172794 0.0899583 0.29324 0.18167
C_ C_ 0.217672 0.0693273 0.277747 -0.15533
C_ C_ 0.226227 0.0177552 0.267976 0.02923
C_ C_ 0.202139 0.489692 0.307341 -0.15533
C_ C_ 0.145456 0.00875504 0.298907 0.18167
C_ C_ 0.0257071 0.141432 0.27631 0.18167
C_ C_ 0.506214 0.177335 0.239644 -0.15533
C_ C_ 0.0122288 0.231634 0.26525 0.02923
C_ C_ 0.0365428 0.240291 0.313177 -0.15533
C_ C_ 0.0599079 0.199042 0.339806 0.18167
C_ C_ 0.00350819 0.0481098 0.37252 0.69207
C_ C_ 0.475629 0.502852 0.374832 0.02923
C_ C_ 0.496251 0.451983 0.373948 -0.15533
C_ C_ 0.466333 0.412068 0.381527 -0.15533
C_ C_ 0.415551 0.422385 0.392283 0.02923
C_ C_ 0.398223 0.473922 0.399388 -0.15533
C_ C_ 0.424991 0.513853 0.386449 0.02923
C_ C_ 0.397679 0.0734467 0.389179 0.69207
C_ C_ 0.399068 0.327479 0.371242 0.69661
C_ C_ 0.0721122 0.306918 0.0893585 0.18167
C_ C_ 0.0295595 0.278779 0.0698778 -0.15533
C_ C_ 0.0181084 0.270448 0.018122 0.02923
C_ C_ 0.0522223 0.290222 0.487787 -0.15533
C_ C_ 0.0940778 0.313959 0.00589184 0.18167
C_ C_ 0.204675 0.27019 0.136177 0.18167
C_ C_ 0.219671 0.240302 0.176077 -0.15533
C_ C_ 0.226582 0.262335 0.22532 0.02923
C_ C_ 0.210284 0.315046 0.234169 -0.15533
C_ C_ 0.189245 0.342332 0.192993 0.18167
C_ C_ 0.243648 0.370632 0.0519425 0.69207
C_ C_ 0.284552 0.368723 0.507042 0.02923
C_ C_ 0.263743 0.364236 0.456368 -0.15533
C_ C_ 0.292818 0.37044 0.41668 -0.15533
C_ C_ 0.344048 0.380683 0.42519 0.02923
C_ C_ 0.365056 0.387861 0.477579 -0.15533
C_ C_ 0.33227 0.387003 0.517627 0.02923
C_ C_ 0.355564 0.394452 0.0730736 0.69207
C_ C_ 0.348266 0.395133 0.328996 0.69661
C_ C_ 0.307783 0.436141 0.197226 0.18167
C_ C_ 0.268651 0.455456 0.225568 -0.15533
C_ C_ 0.27363 0.501369 0.256235 0.02923
C_ C_ 0.317615 0.0185635 0.240974 -0.15533
C_ C_ 0.356687 0.504829 0.225965 0.18167
C_ C_ 0.491914 0.3543 0.206375 0.18167
C_ C_ 0.0237691 0.309374 0.220637 -0.15533
C_ C_ 0.485793 0.272085 0.23719 0.02923
C_ C_ 0.435165 0.275859 0.213188 -0.15533
C_ C_ 0.413012 0.320111 0.188626 0.18167
C_ C_ 0.490268 0.452642 0.127548 0.69207
C_ C_ 0.0188555 0.982334 0.105422 0.02923
C_ C_ -0.0025020000000000042 0.035086 0.10475 -0.15533
C_ C_ 0.0266866 0.0720876 0.0887507 -0.15533
C_ C_ 0.0801011 0.063265 0.0934797 0.02923
C_ C_ 0.103663 0.012359 0.0946464 -0.15533
C_ C_ 0.0727155 0.971124 0.101051 0.02923
C_ C_ 0.096394 0.428157 0.105344 0.69207
C_ C_ 0.0872564 0.162951 0.0989455 0.69661
C_ C_ 0.440543 0.18061 0.429381 0.18167
C_ C_ 0.4814 0.200265 0.45604 -0.15533
C_ C_ 0.47454 0.241761 0.492623 0.02923
C_ C_ 0.42132 0.245692 0.021515 -0.15533
C_ C_ 0.384853 0.227074 0.485152 0.18167
C_ C_ 0.258475 0.208612 0.35683 0.18167
C_ C_ 0.230758 0.229527 0.31509 -0.15533
C_ C_ 0.253264 0.233229 0.270733 0.02923
C_ C_ 0.303097 0.210842 0.267485 -0.15533
C_ C_ 0.331505 0.189724 0.312248 0.18167
C_ C_ 0.26805 0.123993 0.457564 0.69207
C_ C_ 0.222016 0.111336 0.99373 0.02923
C_ C_ 0.238225 0.119044 0.0450079 -0.15533
C_ C_ 0.204516 0.113769 0.0807952 -0.15533
C_ C_ 0.155629 0.0978914 0.0679121 0.02923
C_ C_ 0.142557 0.0882921 0.0162147 -0.15533
C_ C_ 0.175527 0.0933741 0.978043 0.02923
C_ C_ 0.157336 0.113132 0.425257 0.69207
C_ C_ 0.129164 0.106737 0.161283 0.69661
C_ C_ 0.37616 0.382812 0.380353 -0.30787
C_ C_ 0.11462 0.108271 0.104232 -0.30787
N_ N_ 0.136675 0.0597433 0.305527 -0.32189
N_ N_ 0.0555388 0.149419 0.3208 -0.32189
N_ N_ 0.106282 0.315504 0.0587441 -0.32189
N_ N_ 0.190868 0.320719 0.143843 -0.32189
N_ N_ 0.352769 0.457879 0.200205 -0.32189
N_ N_ 0.442121 0.357325 0.184335 -0.32189
N_ N_ 0.3931 0.193936 0.443632 -0.32189
N_ N_ 0.307827 0.187135 0.352937 -0.32189
O_ O_ 0.504538 0.0885395 0.400806 -0.63271
O_ O_ 0.036804 0.0434886 0.338894 -0.57982
O_ O_ 0.396755 0.102298 0.350314 -0.63271
O_ O_ 0.373336 0.0904854 0.427518 -0.57982
O_ O_ 0.245238 0.396097 0.0951034 -0.63271
O_ O_ 0.201563 0.350883 0.0379083 -0.57982
O_ O_ 0.351656 0.354972 0.0996754 -0.63271
O_ O_ 0.375918 0.43433 0.0965821 -0.57982
O_ O_ 0.98833 0.411111 0.088652 -0.63271
O_ O_ 0.45634 0.464849 0.160778 -0.57982
O_ O_ 0.0987685 0.400886 0.145156 -0.63271
O_ O_ 0.121472 0.409337 0.069025 -0.57982
O_ O_ 0.261868 0.0979293 0.412068 -0.63271
O_ O_ 0.301236 0.156866 0.464155 -0.57982
O_ O_ 0.158655 0.154704 0.399381 -0.63271
O_ O_ 0.126817 0.0798441 0.407147 -0.57982
F_ F_ 0.441143 0.31565 0.408727 -0.20885
F_ F_ 0.419853 0.320373 0.327163 -0.20885
F_ F_ 0.363093 0.292457 0.370015 -0.20885
F_ F_ 0.306546 0.431773 0.334364 -0.20885
F_ F_ 0.326621 0.354279 0.301451 -0.20885
F_ F_ 0.379261 0.41679 0.298318 -0.20885
F_ F_ 0.0621568 0.167305 0.0520668 -0.20885
F_ F_ 0.0501998 0.176346 0.131609 -0.20885
F_ F_ 0.122857 0.199009 0.108816 -0.20885
F_ F_ 0.162053 0.0629587 0.17149 -0.20885
F_ F_ 0.160732 0.141506 0.185655 -0.20885
F_ F_ 0.0868408 0.103446 0.188932 -0.20885
Zn Zn 0.0882442 0.0849144 0.8447 0.83971
Zn Zn 0.163886 0.350964 0.587836 0.83971
Zn Zn 0.413053 0.421358 0.655691 0.83971
Zn Zn 0.339424 0.152965 0.919411 0.83971
H_ H_ 0.172081 0.127903 0.798141 0.10394
H_ H_ 0.25393 0.097598 0.779599 0.10394
H_ H_ 0.214878 0.44928 0.790121 0.10394
H_ H_ 0.123455 0.982017 0.800863 0.10394
H_ H_ 0.530784 0.0970852 0.751347 0.10394
H_ H_ 0.480814 0.163574 0.70281 0.10394
H_ H_ 0.0332837 0.265192 0.83647 0.10394
H_ H_ 0.0789616 0.194826 0.876271 0.10394
H_ H_ 0.0320839 0.445604 0.870966 0.10394
H_ H_ 0.484366 0.379155 0.891537 0.10394
H_ H_ 0.35161 0.48152 0.904503 0.10394
H_ H_ 0.0817808 0.313693 0.633307 0.10394
H_ H_ 0.503146 0.269562 0.594046 0.10394
H_ H_ 0.0432423 0.285766 0.945566 0.10394
H_ H_ 0.124768 0.314686 0.483603 0.10394
H_ H_ 0.226068 0.256074 0.604349 0.10394
H_ H_ 0.25951 0.207731 0.675382 0.10394
H_ H_ 0.214307 0.335942 0.774924 0.10394
H_ H_ 0.188324 0.387522 0.692771 0.10394
H_ H_ 0.218925 0.361386 0.949193 0.10394
H_ H_ 0.277058 0.349367 0.884303 0.10394
H_ H_ 0.393558 0.418668 0.984455 0.10394
H_ H_ 0.309994 0.40973 0.657822 0.10394
H_ H_ 0.233873 0.457179 0.698591 0.10394
H_ H_ 0.340926 0.0359803 0.784627 0.10394
H_ H_ 0.408992 0.502501 0.742474 0.10394
H_ H_ 0.014376 0.384317 0.696625 0.10394
H_ H_ 0.0551983 0.303227 0.725082 0.10394
H_ H_ 0.408752 0.253278 0.72666 0.10394
H_ H_ 0.373371 0.331517 0.681648 0.10394
H_ H_ 0.459787 0.05797 0.605091 0.10394
H_ H_ 0.0157918 0.123993 0.617941 0.10394
H_ H_ 0.142834 0.00658468 0.585427 0.10394
H_ H_ 0.441858 0.154444 0.902329 0.10394
H_ H_ 0.016191 0.200221 0.935452 0.10394
H_ H_ 0.419155 0.283019 0.540014 0.10394
H_ H_ 0.348934 0.221086 0.0150513 0.10394
H_ H_ 0.238671 0.194926 0.889163 0.10394
H_ H_ 0.193573 0.233762 0.809441 0.10394
H_ H_ 0.337981 0.228274 0.749648 0.10394
H_ H_ 0.378693 0.194878 0.832654 0.10394
H_ H_ 0.285947 0.12278 0.558037 0.10394
H_ H_ 0.223897 0.121736 0.621523 0.10394
H_ H_ 0.107232 0.0984726 0.500671 0.10394
C_ C_ 0.181568 0.0883195 0.798677 0.18167
C_ C_ 0.22894 0.0693035 0.785088 -0.15533
C_ C_ 0.237133 0.0164636 0.774025 0.02923
C_ C_ 0.205719 0.491097 0.795779 -0.15533
C_ C_ 0.153757 0.00683346 0.800304 0.18167
C_ C_ 0.0240312 0.135848 0.773746 0.18167
C_ C_ 0.507008 0.173234 0.736429 -0.15533
C_ C_ 0.0100624 0.227179 0.765118 0.02923
C_ C_ 0.0399556 0.230598 0.812217 -0.15533
C_ C_ 0.0583501 0.188412 0.838921 0.18167
C_ C_ 0.00235987 0.0487697 0.858281 0.69207
C_ C_ 0.470353 0.504941 0.873627 0.02923
C_ C_ 0.492217 0.4543 0.877931 -0.15533
C_ C_ 0.463598 0.415753 0.889102 -0.15533
C_ C_ 0.413128 0.424075 0.895505 0.02923
C_ C_ 0.390022 0.475944 0.896464 -0.15533
C_ C_ 0.419426 0.514301 0.888189 0.02923
C_ C_ 0.394428 0.069628 0.879978 0.69207
C_ C_ 0.407326 0.325237 0.896874 0.69661
C_ C_ 0.0746675 0.306072 0.592554 0.18167
C_ C_ 0.0310262 0.278713 0.571819 -0.15533
C_ C_ 0.0184634 0.274127 0.518753 0.02923
C_ C_ 0.0526833 0.289539 0.985086 -0.15533
C_ C_ 0.0965376 0.308217 0.507788 0.18167
C_ C_ 0.222314 0.273514 0.641052 0.18167
C_ C_ 0.242559 0.24673 0.682954 -0.15533
C_ C_ 0.241632 0.270798 0.730663 0.02923
C_ C_ 0.221805 0.320676 0.736168 -0.15533
C_ C_ 0.201954 0.345764 0.691947 0.18167
C_ C_ 0.252101 0.363041 0.548845 0.69207
C_ C_ 0.279111 0.379713 0.0107968 0.02923
C_ C_ 0.259256 0.37267 0.958038 -0.15533
C_ C_ 0.289399 0.372248 0.917683 -0.15533
C_ C_ 0.337339 0.388915 0.92861 0.02923
C_ C_ 0.355351 0.405765 0.979801 -0.15533
C_ C_ 0.329454 0.394739 0.0209609 0.02923
C_ C_ 0.357811 0.386392 0.569642 0.69207
C_ C_ 0.355808 0.37656 0.829733 0.69661
C_ C_ 0.315488 0.44306 0.685887 0.18167
C_ C_ 0.271981 0.470469 0.706096 -0.15533
C_ C_ 0.2818 0.503876 0.748508 0.02923
C_ C_ 0.328041 0.00893207 0.753283 -0.15533
C_ C_ 0.373104 0.49713 0.729346 0.18167
C_ C_ 0.49648 0.348136 0.690283 0.18167
C_ C_ 0.0136964 0.310013 0.723562 -0.15533
C_ C_ 0.485243 0.268196 0.723842 0.02923
C_ C_ 0.433442 0.279153 0.717845 -0.15533
C_ C_ 0.4137 0.323335 0.692666 0.18167
C_ C_ 0.486104 0.456291 0.613703 0.69207
C_ C_ 0.0208449 0.993325 0.614003 0.02923
C_ C_ 0.00185359 0.0451399 0.619954 -0.15533
C_ C_ 0.0332264 0.0827906 0.614228 -0.15533
C_ C_ 0.0848741 0.0715003 0.602015 0.02923
C_ C_ 0.102898 0.0168685 0.591638 -0.15533
C_ C_ 0.0715574 0.977764 0.597715 0.02923
C_ C_ 0.098269 0.428641 0.610652 0.69207
C_ C_ 0.0991339 0.165305 0.609035 0.69661
C_ C_ 0.437123 0.176988 0.937549 0.18167
C_ C_ 0.478152 0.203164 0.960735 -0.15533
C_ C_ 0.471152 0.239818 1.00226625 0.02923
C_ C_ 0.424676 0.256737 0.50464 -0.15533
C_ C_ 0.38338 0.217846 0.997339 0.18167
C_ C_ 0.25875 0.201797 0.858919 0.18167
C_ C_ 0.236117 0.22952 0.816972 -0.15533
C_ C_ 0.264188 0.240665 0.777352 0.02923
C_ C_ 0.315151 0.22236 0.78108 -0.15533
C_ C_ 0.337077 0.198202 0.826493 0.18167
C_ C_ 0.263571 0.107809 0.960654 0.69207
C_ C_ 0.230627 0.117958 0.494804 0.02923
C_ C_ 0.246525 0.120551 0.546705 -0.15533
C_ C_ 0.211822 0.114323 0.58239 -0.15533
C_ C_ 0.160209 0.106112 0.568589 0.02923
C_ C_ 0.145 0.10524 0.5165 -0.15533
C_ C_ 0.177133 0.11324 0.47959 0.02923
C_ C_ 0.151812 0.0945213 0.923816 0.69207
C_ C_ 0.145639 0.10038 0.66668 0.69661
C_ C_ 0.378154 0.378986 0.888736 -0.30787
C_ C_ 0.123543 0.110172 0.608117 -0.30787
N_ N_ 0.143915 0.0588007 0.806185 -0.32189
N_ N_ 0.0572311 0.142486 0.81506 -0.32189
N_ N_ 0.106279 0.318652 0.558748 -0.32189
N_ N_ 0.200523 0.321076 0.645929 -0.32189
N_ N_ 0.364284 0.456032 0.697657 -0.32189
N_ N_ 0.445485 0.358808 0.683028 -0.32189
N_ N_ 0.389322 0.190054 0.952072 -0.32189
N_ N_ 0.309192 0.18997 0.865124 -0.32189
O_ O_ 0.505898 0.0865745 0.888808 -0.63271
O_ O_ 0.0464277 0.0352767 0.837007 -0.57982
O_ O_ 0.38797 0.098588 0.84033 -0.63271
O_ O_ 0.368993 0.0855647 0.920453 -0.57982
O_ O_ 0.250307 0.39765 0.589234 -0.63271
O_ O_ 0.212049 0.337967 0.538045 -0.57982
O_ O_ 0.365497 0.3449 0.592826 -0.63271
O_ O_ 0.379656 0.425784 0.591458 -0.57982
O_ O_ 0.992878 0.414916 0.594395 -0.63271
O_ O_ 0.46342 0.464298 0.65434 -0.57982
O_ O_ 0.0976653 0.402469 0.652316 -0.63271
O_ O_ 0.139378 0.416919 0.58653 -0.57982
O_ O_ 0.253711 0.0875155 0.915281 -0.63271
O_ O_ 0.29587 0.141992 0.966233 -0.57982
O_ O_ 0.152181 0.134777 0.898539 -0.63271
O_ O_ 0.111423 0.0715478 0.909687 -0.57982
F_ F_ 0.437052 0.326194 0.944118 -0.20885
F_ F_ 0.43947 0.310837 0.859979 -0.20885
F_ F_ 0.377671 0.286937 0.898723 -0.20885
F_ F_ 0.313371 0.412244 0.816064 -0.20885
F_ F_ 0.334469 0.329659 0.817381 -0.20885
F_ F_ 0.392813 0.379265 0.796215 -0.20885
F_ F_ 0.0617846 0.173887 0.566756 -0.20885
F_ F_ 0.075769 0.183484 0.653276 -0.20885
F_ F_ 0.136746 0.197699 0.602373 -0.20885
F_ F_ 0.181504 0.0566768 0.668084 -0.20885
F_ F_ 0.170996 0.141462 0.685322 -0.20885
F_ F_ 0.108294 0.0954983 0.699103 -0.20885
Zn Zn 0.0812079 0.585655 0.35109 0.83971
Zn Zn 0.163799 0.835529 0.0797818 0.83971
Zn Zn 0.405119 0.920705 0.153172 0.83971
Zn Zn 0.339936 0.649607 0.422866 0.83971
H_ H_ 0.151972 0.634325 0.309489 0.10394
H_ H_ 0.232773 0.605413 0.274751 0.10394
H_ H_ 0.188861 0.943571 0.27023 0.10394
H_ H_ 0.129972 0.481273 0.336101 0.10394
H_ H_ 0.518981 0.601009 0.252799 0.10394
H_ H_ 0.485401 0.672951 0.20453 0.10394
H_ H_ 0.0104358 0.762839 0.34456 0.10394
H_ H_ 0.052033 0.688097 0.382147 0.10394
H_ H_ 0.0201376 0.947989 0.353765 0.10394
H_ H_ 0.4853 0.878417 0.383568 0.10394
H_ H_ 0.356463 0.990561 0.402322 0.10394
H_ H_ 0.0775882 0.807743 0.126145 0.10394
H_ H_ 0.505561 0.766025 0.099932 0.10394
H_ H_ 0.0518319 0.76459 0.456975 0.10394
H_ H_ 0.125335 0.808298 0.978355 0.10394
H_ H_ 0.229736 0.73815 0.0952105 0.10394
H_ H_ 0.271916 0.691933 0.1683 0.10394
H_ H_ 0.213795 0.809931 0.268172 0.10394
H_ H_ 0.188216 0.862504 0.192643 0.10394
H_ H_ 0.236048 0.836579 0.437201 0.10394
H_ H_ 0.275831 0.874746 0.372459 0.10394
H_ H_ 0.395429 0.908324 0.485844 0.10394
H_ H_ 0.304558 0.895068 0.16107 0.10394
H_ H_ 0.232775 0.931874 0.205365 0.10394
H_ H_ 0.32178 0.563225 0.276867 0.10394
H_ H_ 0.391474 0.0148723 0.220981 0.10394
H_ H_ 0.00618552 0.886829 0.212836 0.10394
H_ H_ 0.0425382 0.815722 0.255476 0.10394
H_ H_ 0.41448 0.742605 0.214786 0.10394
H_ H_ 0.375368 0.815881 0.16911 0.10394
H_ H_ 0.46631 0.553233 0.129566 0.10394
H_ H_ 0.0217544 0.624286 0.11418 0.10394
H_ H_ 0.145887 0.511886 0.0993646 0.10394
H_ H_ 0.440096 0.655241 0.404798 0.10394
H_ H_ 0.0203775 0.682284 0.470285 0.10394
H_ H_ 0.419747 0.791434 0.0346484 0.10394
H_ H_ 0.34867 0.719511 0.518575 0.10394
H_ H_ 0.230688 0.690021 0.383573 0.10394
H_ H_ 0.191958 0.710768 0.300617 0.10394
H_ H_ 0.342199 0.728096 0.255072 0.10394
H_ H_ 0.378389 0.692255 0.335943 0.10394
H_ H_ 0.281382 0.644135 0.0565075 0.10394
H_ H_ 0.23012 0.612946 0.122038 0.10394
H_ H_ 0.107723 0.590523 0.0046712 0.10394
C_ C_ 0.163302 0.592546 0.302698 0.18167
C_ C_ 0.209277 0.576778 0.28367 -0.15533
C_ C_ 0.229857 0.524829 0.283106 0.02923
C_ C_ 0.188274 0.985544 0.279606 -0.15533
C_ C_ 0.155128 0.508342 0.322841 0.18167
C_ C_ 0.0259103 0.633174 0.266841 0.18167
C_ C_ 0.512508 0.679038 0.237561 -0.15533
C_ C_ 0.000633316 0.724835 0.266825 0.02923
C_ C_ 0.0147043 0.728572 0.319517 -0.15533
C_ C_ 0.0415709 0.686772 0.342908 0.18167
C_ C_ 0.00858528 0.541749 0.377931 0.69207
C_ C_ 0.474281 0.00781707 0.374981 0.02923
C_ C_ 0.494454 0.957054 0.375571 -0.15533
C_ C_ 0.464541 0.917621 0.384392 -0.15533
C_ C_ 0.411101 0.928015 0.38775 0.02923
C_ C_ 0.393684 0.979747 0.391883 -0.15533
C_ C_ 0.425313 0.0199786 0.390382 0.02923
C_ C_ 0.396669 0.564272 0.38124 0.69207
C_ C_ 0.40172 0.829638 0.380746 0.69661
C_ C_ 0.0724868 0.79325 0.0864168 0.18167
C_ C_ 0.0261058 0.777469 0.0650071 -0.15533
C_ C_ 0.0135649 0.773344 0.0135173 0.02923
C_ C_ 0.0562369 0.775086 0.497421 -0.15533
C_ C_ 0.0977193 0.798418 0.00211215 0.18167
C_ C_ 0.232013 0.756985 0.132115 0.18167
C_ C_ 0.253333 0.730344 0.173206 -0.15533
C_ C_ 0.244239 0.748932 0.223218 0.02923
C_ C_ 0.215997 0.796281 0.23005 -0.15533
C_ C_ 0.199771 0.825461 0.187779 0.18167
C_ C_ 0.241173 0.861718 0.0393412 0.69207
C_ C_ 0.276223 0.875031 0.500963 0.02923
C_ C_ 0.26001 0.866141 0.447911 -0.15533
C_ C_ 0.290224 0.879611 0.412075 -0.15533
C_ C_ 0.339826 0.890528 0.424009 0.02923
C_ C_ 0.356849 0.896774 0.474689 -0.15533
C_ C_ 0.327407 0.888122 0.51331 0.02923
C_ C_ 0.354845 0.887519 0.0638996 0.69207
C_ C_ 0.350556 0.886797 0.322023 0.69661
C_ C_ 0.306204 0.930725 0.18106 0.18167
C_ C_ 0.267592 0.950081 0.209932 -0.15533
C_ C_ 0.27119 0.994176 0.239728 0.02923
C_ C_ 0.316092 0.529133 0.251177 -0.15533
C_ C_ 0.35529 0.998158 0.213261 0.18167
C_ C_ 0.484438 0.861289 0.212438 0.18167
C_ C_ 0.00571507 0.814295 0.237206 -0.15533
C_ C_ 0.489568 0.771274 0.230087 0.02923
C_ C_ 0.437888 0.773088 0.210274 -0.15533
C_ C_ 0.412846 0.817061 0.187098 0.18167
C_ C_ 0.487065 0.949216 0.126097 0.69207
C_ C_ 0.0210972 0.494778 0.112186 0.02923
C_ C_ 0.00247322 0.546669 0.113232 -0.15533
C_ C_ 0.0348173 0.585043 0.10784 -0.15533
C_ C_ 0.086428 0.570688 0.103777 0.02923
C_ C_ 0.104398 0.519452 0.101004 -0.15533
C_ C_ 0.0741024 0.481511 0.108639 0.02923
C_ C_ 0.0984119 0.918059 0.103809 0.69207
C_ C_ 0.103956 0.667161 0.107628 0.69661
C_ C_ 0.437502 0.675651 0.440946 0.18167
C_ C_ 0.478949 0.698829 0.463556 -0.15533
C_ C_ 0.47107 0.73647 0.503362 0.02923
C_ C_ 0.42631 0.759887 0.00778825 -0.15533
C_ C_ 0.382518 0.719937 0.499467 0.18167
C_ C_ 0.25425 0.695058 0.354222 0.18167
C_ C_ 0.232708 0.713203 0.308545 -0.15533
C_ C_ 0.263504 0.72309 0.271156 0.02923
C_ C_ 0.315552 0.720238 0.282943 -0.15533
C_ C_ 0.337158 0.701755 0.330317 0.18167
C_ C_ 0.256274 0.631464 0.454922 0.69207
C_ C_ 0.226326 0.626087 0.99477 0.02923
C_ C_ 0.24143 0.636382 0.0458755 -0.15533
C_ C_ 0.212622 0.619021 0.0843425 -0.15533
C_ C_ 0.162957 0.605947 0.0716583 0.02923
C_ C_ 0.14644 0.599094 0.0180283 -0.15533
C_ C_ 0.175753 0.611568 0.980504 0.02923
C_ C_ 0.143442 0.62061 0.429245 0.69207
C_ C_ 0.14611 0.609656 0.16825 0.69661
C_ C_ 0.37485 0.885163 0.37823 -0.30787
C_ C_ 0.124931 0.609403 0.110982 -0.30787
N_ N_ 0.136696 0.55739 0.317484 -0.32189
N_ N_ 0.0504354 0.641851 0.314173 -0.32189
N_ N_ 0.107693 0.802552 0.0541224 -0.32189
N_ N_ 0.199818 0.801484 0.139525 -0.32189
N_ N_ 0.350564 0.954174 0.185979 -0.32189
N_ N_ 0.437169 0.85979 0.188645 -0.32189
N_ N_ 0.390968 0.687789 0.458543 -0.32189
N_ N_ 0.306179 0.687936 0.365091 -0.32189
O_ O_ 0.509249 0.587063 0.387601 -0.63271
O_ O_ 0.0416602 0.535948 0.347038 -0.57982
O_ O_ 0.398152 0.592345 0.341508 -0.63271
O_ O_ 0.371765 0.583396 0.4207 -0.57982
O_ O_ 0.250289 0.876085 0.0873993 -0.63271
O_ O_ 0.204188 0.834074 0.02738 -0.57982
O_ O_ 0.35454 0.84737 0.0917672 -0.63271
O_ O_ 0.375324 0.926593 0.0872357 -0.57982
O_ O_ 0.989822 0.898053 0.0957554 -0.63271
O_ O_ 0.454444 0.963872 0.158979 -0.57982
O_ O_ 0.0928019 0.894373 0.143873 -0.63271
O_ O_ 0.139328 0.90162 0.081542 -0.57982
O_ O_ 0.257462 0.601422 0.413218 -0.63271
O_ O_ 0.294337 0.657758 0.469301 -0.57982
O_ O_ 0.137779 0.662949 0.404194 -0.63271
O_ O_ 0.112408 0.585924 0.414873 -0.57982
F_ F_ 0.424638 0.821852 0.429064 -0.20885
F_ F_ 0.436519 0.815621 0.343813 -0.20885
F_ F_ 0.364968 0.794026 0.373805 -0.20885
F_ F_ 0.3082 0.923638 0.319183 -0.20885
F_ F_ 0.333958 0.840745 0.301672 -0.20885
F_ F_ 0.386352 0.894042 0.288512 -0.20885
F_ F_ 0.0749943 0.675224 0.0617918 -0.20885
F_ F_ 0.0719216 0.685093 0.14408 -0.20885
F_ F_ 0.140628 0.702303 0.112375 -0.20885
F_ F_ 0.175479 0.562798 0.17496 -0.20885
F_ F_ 0.174365 0.646174 0.18702 -0.20885
F_ F_ 0.105571 0.60936 0.199995 -0.20885
Zn Zn 0.0857043 0.586737 0.84432 0.83971
Zn Zn 0.165516 0.849806 0.593764 0.83971
Zn Zn 0.404319 0.915607 0.649371 0.83971
Zn Zn 0.34214 0.648573 0.920897 0.83971
H_ H_ 0.166891 0.636544 0.810372 0.10394
H_ H_ 0.249819 0.606659 0.780697 0.10394
H_ H_ 0.207632 0.944869 0.776265 0.10394
H_ H_ 0.127847 0.483992 0.813061 0.10394
H_ H_ 0.532752 0.595401 0.752162 0.10394
H_ H_ 0.491684 0.663867 0.700032 0.10394
H_ H_ 0.0359308 0.767218 0.820806 0.10394
H_ H_ 0.065398 0.692457 0.873636 0.10394
H_ H_ 0.0248039 0.947181 0.85268 0.10394
H_ H_ 0.481839 0.879758 0.864894 0.10394
H_ H_ 0.352604 0.987069 0.896556 0.10394
H_ H_ 0.0838044 0.810544 0.642531 0.10394
H_ H_ 0.493522 0.774582 0.603725 0.10394
H_ H_ 0.0439187 0.776392 0.940744 0.10394
H_ H_ 0.132355 0.79302 0.494733 0.10394
H_ H_ 0.213624 0.753436 0.608088 0.10394
H_ H_ 0.27608 0.713216 0.680074 0.10394
H_ H_ 0.229386 0.839142 0.777342 0.10394
H_ H_ 0.198953 0.88758 0.703827 0.10394
H_ H_ 0.230145 0.839573 0.93844 0.10394
H_ H_ 0.287193 0.839945 0.873468 0.10394
H_ H_ 0.390672 0.91664 0.977698 0.10394
H_ H_ 0.301618 0.900552 0.654371 0.10394
H_ H_ 0.23016 0.958686 0.684827 0.10394
H_ H_ 0.340482 0.538322 0.791596 0.10394
H_ H_ 0.406337 -0.017110999999999987 0.746551 0.10394
H_ H_ 0.00955869 0.881939 0.684961 0.10394
H_ H_ 0.0504306 0.80138 0.722355 0.10394
H_ H_ 0.413809 0.736227 0.711662 0.10394
H_ H_ 0.371587 0.812858 0.670467 0.10394
H_ H_ 0.4598 0.557461 0.609362 0.10394
H_ H_ 0.0205052 0.624867 0.621347 0.10394
H_ H_ 0.149678 0.51026 0.611081 0.10394
H_ H_ 0.444373 0.651889 0.906596 0.10394
H_ H_ 0.0119361 0.692507 0.941492 0.10394
H_ H_ 0.415317 0.77724 0.549223 0.10394
H_ H_ 0.347999 0.744462 0.00217337 0.10394
H_ H_ 0.236414 0.69186 0.886663 0.10394
H_ H_ 0.200564 0.740909 0.813577 0.10394
H_ H_ 0.346417 0.740656 0.760903 0.10394
H_ H_ 0.382607 0.684966 0.83371 0.10394
H_ H_ 0.285154 0.602889 0.552529 0.10394
H_ H_ 0.236462 0.593384 0.619841 0.10394
H_ H_ 0.105628 0.591478 0.510252 0.10394
C_ C_ 0.177143 0.594983 0.803545 0.18167
C_ C_ 0.226111 0.577169 0.789954 -0.15533
C_ C_ 0.239166 0.525354 0.779089 0.02923
C_ C_ 0.197523 0.985301 0.778443 -0.15533
C_ C_ 0.157859 0.510802 0.80759 0.18167
C_ C_ 0.0217599 0.630976 0.765067 0.18167
C_ C_ 0.506456 0.673126 0.740614 -0.15533
C_ C_ 0.000949004 0.722183 0.760373 0.02923
C_ C_ 0.0322626 0.728936 0.805985 -0.15533
C_ C_ 0.053447 0.687279 0.83316 0.18167
C_ C_ 0.0101491 0.546665 0.872641 0.69207
C_ C_ 0.46913 0.00580999 0.86109 0.02923
C_ C_ 0.48956 0.95464 0.858427 -0.15533
C_ C_ 0.461249 0.916158 0.86791 -0.15533
C_ C_ 0.411325 0.926467 0.882087 0.02923
C_ C_ 0.392695 0.978182 0.889864 -0.15533
C_ C_ 0.420352 0.0173079 0.876962 0.02923
C_ C_ 0.394484 0.567379 0.888546 0.69207
C_ C_ 0.403599 0.830975 0.882388 0.69661
C_ C_ 0.07406 0.800181 0.602182 0.18167
C_ C_ 0.0258496 0.785507 0.580944 -0.15533
C_ C_ 0.0175667 0.768911 0.529095 0.02923
C_ C_ 0.0490763 0.786362 0.981317 -0.15533
C_ C_ 0.103144 0.789076 0.519828 0.18167
C_ C_ 0.218874 0.772546 0.644326 0.18167
C_ C_ 0.249296 0.748355 0.686698 -0.15533
C_ C_ 0.246324 0.768043 0.735536 0.02923
C_ C_ 0.226031 0.8197 0.740497 -0.15533
C_ C_ 0.201216 0.846589 0.700265 0.18167
C_ C_ 0.24288 0.870314 0.542296 0.69207
C_ C_ 0.278366 0.871389 0.00128011 0.02923
C_ C_ 0.266237 0.850388 0.951213 -0.15533
C_ C_ 0.292536 0.860642 0.910859 -0.15533
C_ C_ 0.339192 0.88391 0.921637 0.02923
C_ C_ 0.355428 0.899078 0.971539 -0.15533
C_ C_ 0.32672 0.89005 0.0130768 0.02923
C_ C_ 0.347667 0.889148 0.565945 0.69207
C_ C_ 0.348802 0.885804 0.823159 0.69661
C_ C_ 0.310048 0.929039 0.683522 0.18167
C_ C_ 0.268841 0.961442 0.702921 -0.15533
C_ C_ 0.279377 0.992531 0.744979 0.02923
C_ C_ 0.332099 0.52014 0.756543 -0.15533
C_ C_ 0.368156 0.981116 0.730782 0.18167
C_ C_ 0.483491 0.855019 0.705161 0.18167
C_ C_ 0.00840982 0.808445 0.723891 -0.15533
C_ C_ 0.483346 0.767527 0.73216 0.02923
C_ C_ 0.435608 0.769183 0.710546 -0.15533
C_ C_ 0.41161 0.812498 0.683915 0.18167
C_ C_ 0.479867 0.956166 0.614686 0.69207
C_ C_ 0.0235519 0.496317 0.617851 0.02923
C_ C_ 1.00480039 0.548184 0.619809 -0.15533
C_ C_ 0.0365612 0.586222 0.614849 -0.15533
C_ C_ 0.0897605 0.574091 0.606747 0.02923
C_ C_ 0.108108 0.521666 0.606241 -0.15533
C_ C_ 0.0753362 0.482257 0.609664 0.02923
C_ C_ 0.0974979 0.925807 0.606229 0.69207
C_ C_ 0.104789 0.672826 0.609731 0.69661
C_ C_ 0.441033 0.674431 0.940091 0.18167
C_ C_ 0.485114 0.69283 0.968181 -0.15533
C_ C_ 0.477397 0.737129 0.000910578 0.02923
C_ C_ 0.423333 0.746409 0.522537 -0.15533
C_ C_ 0.384982 0.731744 0.990005 0.18167
C_ C_ 0.262319 0.704371 0.859911 0.18167
C_ C_ 0.240177 0.732318 0.81899 -0.15533
C_ C_ 0.269552 0.740701 0.779882 0.02923
C_ C_ 0.322779 0.727461 0.786992 -0.15533
C_ C_ 0.343457 0.699907 0.832 0.18167
C_ C_ 0.262527 0.631774 0.957735 0.69207
C_ C_ 0.223366 0.615893 0.492444 0.02923
C_ C_ 0.245385 0.60476 0.544059 -0.15533
C_ C_ 0.2165 0.596985 0.580568 -0.15533
C_ C_ 0.163489 0.601148 0.571839 0.02923
C_ C_ 0.14268 0.603649 0.522265 -0.15533
C_ C_ 0.16991 0.615462 0.482583 0.02923
C_ C_ 0.153967 0.611476 0.925271 0.69207
C_ C_ 0.1528 0.612816 0.669161 0.69661
C_ C_ 0.375411 0.883387 0.879263 -0.30787
C_ C_ 0.127714 0.615833 0.614478 -0.30787
N_ N_ 0.143828 0.561452 0.809832 -0.32189
N_ N_ 0.04651 0.641105 0.812198 -0.32189
N_ N_ 0.109379 0.808723 0.569923 -0.32189
N_ N_ 0.192821 0.81864 0.655056 -0.32189
N_ N_ 0.358009 0.941839 0.696506 -0.32189
N_ N_ 0.437491 0.853903 0.67893 -0.32189
N_ N_ 0.393304 0.69195 0.954214 -0.32189
N_ N_ 0.312273 0.686588 0.865205 -0.32189
O_ O_ 0.503533 0.58467 0.901522 -0.63271
O_ O_ 0.0445855 0.538582 0.840804 -0.57982
O_ O_ 0.391325 0.59346 0.846785 -0.63271
O_ O_ 0.374885 0.58859 0.928826 -0.57982
O_ O_ 0.243341 0.902519 0.582195 -0.63271
O_ O_ 0.20989 0.835605 0.53995 -0.57982
O_ O_ 0.349249 0.846423 0.590056 -0.63271
O_ O_ 0.376709 0.923921 0.585199 -0.57982
O_ O_ 0.989629 0.90909 0.598781 -0.63271
O_ O_ 0.454082 0.959864 0.654637 -0.57982
O_ O_ 0.0955765 0.905007 0.651232 -0.63271
O_ O_ 0.131869 0.907929 0.577683 -0.57982
O_ O_ 0.257318 0.605539 0.914231 -0.63271
O_ O_ 0.299003 0.660495 0.969134 -0.57982
O_ O_ 0.15465 0.65329 0.900586 -0.63271
O_ O_ 0.121599 0.579009 0.90835 -0.57982
F_ F_ 0.443721 0.829493 0.922508 -0.20885
F_ F_ 0.430619 0.81499 0.841057 -0.20885
F_ F_ 0.376048 0.790493 0.883959 -0.20885
F_ F_ 0.305306 0.917599 0.823358 -0.20885
F_ F_ 0.330008 0.841955 0.805618 -0.20885
F_ F_ 0.380234 0.893623 0.786453 -0.20885
F_ F_ 0.0688319 0.677051 0.570912 -0.20885
F_ F_ 0.0788232 0.692374 0.651537 -0.20885
F_ F_ 0.141752 0.703105 0.60707 -0.20885
F_ F_ 0.183573 0.568444 0.679644 -0.20885
F_ F_ 0.182136 0.652655 0.683424 -0.20885
F_ F_ 0.118704 0.617092 0.707149 -0.20885
Zn Zn 0.593734 0.0864822 0.342378 0.83971
Zn Zn 0.662343 0.34355 0.0868022 0.83971
Zn Zn 0.909703 0.415046 0.149114 0.83971
Zn Zn 0.842606 0.156119 0.417667 0.83971
H_ H_ 0.671912 0.131629 0.298812 0.10394
H_ H_ 0.751793 0.0991746 0.268706 0.10394
H_ H_ 0.709557 0.441941 0.288622 0.10394
H_ H_ 0.636187 0.980374 0.314834 0.10394
H_ H_ 0.022686 0.105239 0.260053 0.10394
H_ H_ 0.985863 0.172731 0.21128 0.10394
H_ H_ 0.508257 0.260971 0.341056 0.10394
H_ H_ 0.571958 0.189179 0.377422 0.10394
H_ H_ 0.53813 0.441674 0.372756 0.10394
H_ H_ 0.983021 0.373815 0.380893 0.10394
H_ H_ 0.8494 0.478651 0.391463 0.10394
H_ H_ 0.585232 0.292683 0.132526 0.10394
H_ H_ 1.00744944 0.269235 0.0986808 0.10394
H_ H_ 0.545121 0.274167 0.436883 0.10394
H_ H_ 0.608096 0.330987 0.984572 0.10394
H_ H_ 0.716166 0.244849 0.107101 0.10394
H_ H_ 0.752964 0.203758 0.184034 0.10394
H_ H_ 0.732466 0.34752 0.271194 0.10394
H_ H_ 0.681197 0.383398 0.191537 0.10394
H_ H_ 0.718393 0.370281 0.446734 0.10394
H_ H_ 0.767212 0.371406 0.377318 0.10394
H_ H_ 0.898651 0.402868 0.484597 0.10394
H_ H_ 0.809146 0.395344 0.154172 0.10394
H_ H_ 0.734698 0.446469 0.192807 0.10394
H_ H_ 0.84177 0.0505402 0.273438 0.10394
H_ H_ 0.902835 0.506808 0.221589 0.10394
H_ H_ 0.510108 0.386861 0.201336 0.10394
H_ H_ 0.557153 0.304553 0.244249 0.10394
H_ H_ 0.914658 0.254024 0.234111 0.10394
H_ H_ 0.876099 0.327554 0.190711 0.10394
H_ H_ 0.957725 0.046817 0.110397 0.10394
H_ H_ 0.527053 0.11609 0.113124 0.10394
H_ H_ 0.644671 -0.004182000000000019 0.0902553 0.10394
H_ H_ 0.937206 0.168312 0.389777 0.10394
H_ H_ 0.518398 0.183772 0.450104 0.10394
H_ H_ 0.922742 0.265634 0.0571816 0.10394
H_ H_ 0.84935 0.23355 0.50486 0.10394
H_ H_ 0.74241 0.215343 0.400759 0.10394
H_ H_ 0.694294 0.25226 0.317266 0.10394
H_ H_ 0.837881 0.240597 0.25659 0.10394
H_ H_ 0.876494 0.187883 0.327278 0.10394
H_ H_ 0.791173 0.0950423 0.0497836 0.10394
H_ H_ 0.742525 0.0918752 0.118764 0.10394
H_ H_ 0.60875 0.0871403 0.00833664 0.10394
C_ C_ 0.684457 0.0908672 0.300306 0.18167
C_ C_ 0.728922 0.0720755 0.282099 -0.15533
C_ C_ 0.744065 0.0200737 0.277447 0.02923
C_ C_ 0.700412 0.484876 0.2863 -0.15533
C_ C_ 0.663549 0.00672162 0.307791 0.18167
C_ C_ 0.524358 0.13433 0.267546 0.18167
C_ C_ 0.00371489 0.18203 0.248436 -0.15533
C_ C_ 0.508248 0.225225 0.265522 0.02923
C_ C_ 0.523888 0.228739 0.318138 -0.15533
C_ C_ 0.553075 0.186185 0.339494 0.18167
C_ C_ 0.507276 0.0482433 0.369968 0.69207
C_ C_ 0.97202 0.503445 0.377354 0.02923
C_ C_ 0.993399 0.450397 0.378407 -0.15533
C_ C_ 0.965608 0.41214 0.386157 -0.15533
C_ C_ 0.91325 0.422279 0.390631 0.02923
C_ C_ 0.88974 0.472796 0.392054 -0.15533
C_ C_ 0.920966 0.514291 0.389539 0.02923
C_ C_ 0.889977 0.074545 0.388163 0.69207
C_ C_ 0.905712 0.323087 0.382587 0.69661
C_ C_ 0.577929 0.285515 0.0926977 0.18167
C_ C_ 0.532978 0.263802 0.0736072 -0.15533
C_ C_ 0.514867 0.266743 0.0228371 0.02923
C_ C_ 0.554567 0.281679 0.47977 -0.15533
C_ C_ 0.58701 0.313106 0.00904721 0.18167
C_ C_ 0.715613 0.26508 0.145018 0.18167
C_ C_ 0.736889 0.242493 0.187396 -0.15533
C_ C_ 0.741067 0.27114 0.235264 0.02923
C_ C_ 0.718323 0.321541 0.23997 -0.15533
C_ C_ 0.694482 0.343436 0.193205 0.18167
C_ C_ 0.741258 0.370147 0.0438589 0.69207
C_ C_ 0.779061 0.373341 0.505273 0.02923
C_ C_ 0.758396 0.372338 0.455684 -0.15533
C_ C_ 0.786499 0.37971 0.415503 -0.15533
C_ C_ 0.839019 0.383788 0.42453 0.02923
C_ C_ 0.862001 0.386812 0.475708 -0.15533
C_ C_ 0.832777 0.37838 0.517069 0.02923
C_ C_ 0.85189 0.385813 0.068605 0.69207
C_ C_ 0.848012 0.382893 0.32979 0.69661
C_ C_ 0.8123 0.427964 0.182492 0.18167
C_ C_ 0.770895 0.453266 0.204607 -0.15533
C_ C_ 0.779816 0.493449 0.243078 0.02923
C_ C_ 0.834495 0.0177027 0.251095 -0.15533
C_ C_ 0.864711 0.491738 0.216982 0.18167
C_ C_ 0.999181 0.352277 0.195663 0.18167
C_ C_ 0.515367 0.310983 0.23263 -0.15533
C_ C_ 0.991909 0.27358 0.235207 0.02923
C_ C_ 0.938987 0.282237 0.225133 -0.15533
C_ C_ 0.917858 0.323944 0.197476 0.18167
C_ C_ 0.988487 0.454127 0.117632 0.69207
C_ C_ 0.521744 0.987165 0.110969 0.02923
C_ C_ 0.503325 0.0389071 0.112352 -0.15533
C_ C_ 0.53992 0.0759584 0.110259 -0.15533
C_ C_ 0.590494 0.0588997 0.0991612 0.02923
C_ C_ 0.605064 0.00648016 0.0901801 -0.15533
C_ C_ 0.572788 0.970348 0.0971933 0.02923
C_ C_ 0.598848 0.423235 0.111645 0.69207
C_ C_ 0.607302 0.153376 0.110275 0.69661
C_ C_ 0.937002 0.18762 0.42658 0.18167
C_ C_ 0.979095 0.212359 0.448538 -0.15533
C_ C_ 0.975761 0.243374 0.494272 0.02923
C_ C_ 0.926803 0.244004 0.0196534 -0.15533
C_ C_ 0.889216 0.223588 0.493543 0.18167
C_ C_ 0.758931 0.212464 0.363577 0.18167
C_ C_ 0.73468 0.236782 0.318179 -0.15533
C_ C_ 0.763948 0.246377 0.280185 0.02923
C_ C_ 0.815126 0.227016 0.283699 -0.15533
C_ C_ 0.837375 0.197576 0.325014 0.18167
C_ C_ 0.765253 0.12333 0.455092 0.69207
C_ C_ 0.731901 0.101636 0.988655 0.02923
C_ C_ 0.75127 0.0996017 0.0414728 -0.15533
C_ C_ 0.723222 0.0903907 0.0802273 -0.15533
C_ C_ 0.670386 0.0887156 0.0695815 0.02923
C_ C_ 0.649005 0.0877536 0.017685 -0.15533
C_ C_ 0.677453 0.1008 0.978328 0.02923
C_ C_ 0.651799 0.116284 0.425437 0.69207
C_ C_ 0.656569 0.0898405 0.165031 0.69661
C_ C_ 0.877879 0.379103 0.382399 -0.30787
C_ C_ 0.632296 0.0969959 0.108875 -0.30787
N_ N_ 0.649799 0.0585843 0.309289 -0.32189
N_ N_ 0.555913 0.140869 0.312917 -0.32189
N_ N_ 0.603685 0.30717 0.0597546 -0.32189
N_ N_ 0.690252 0.313782 0.149469 -0.32189
N_ N_ 0.858179 0.446219 0.190541 -0.32189
N_ N_ 0.946664 0.359452 0.185852 -0.32189
N_ N_ 0.893341 0.195624 0.448599 -0.32189
N_ N_ 0.808812 0.191325 0.362965 -0.32189
O_ O_ 0.000954695 0.0902414 0.400512 -0.63271
O_ O_ 0.547827 0.0372577 0.346478 -0.57982
O_ O_ 0.890834 0.104751 0.34897 -0.63271
O_ O_ 0.867889 0.0929821 0.42754 -0.57982
O_ O_ 0.744745 0.399224 0.0874021 -0.63271
O_ O_ 0.707521 0.337614 0.0359133 -0.57982
O_ O_ 0.855878 0.344259 0.0943141 -0.63271
O_ O_ 0.880468 0.420012 0.0857231 -0.57982
O_ O_ 0.484369 0.413675 0.0934765 -0.63271
O_ O_ 0.948974 0.465905 0.146707 -0.57982
O_ O_ 0.591818 0.397103 0.14957 -0.63271
O_ O_ 0.634499 0.405292 0.0826448 -0.57982
O_ O_ 0.756106 0.106213 0.40821 -0.63271
O_ O_ 0.804127 0.151267 0.467319 -0.57982
O_ O_ 0.654671 0.154177 0.396882 -0.63271
O_ O_ 0.619889 0.0818695 0.40616 -0.57982
F_ F_ 0.939959 0.318292 0.424701 -0.20885
F_ F_ 0.933223 0.310759 0.340765 -0.20885
F_ F_ 0.871902 0.285955 0.384312 -0.20885
F_ F_ 0.812837 0.423226 0.327098 -0.20885
F_ F_ 0.823684 0.340174 0.314224 -0.20885
F_ F_ 0.87694 0.387448 0.288509 -0.20885
F_ F_ 0.572957 0.156628 0.0667381 -0.20885
F_ F_ 0.58164 0.176805 0.151472 -0.20885
F_ F_ 0.644348 0.185233 0.104731 -0.20885
F_ F_ 0.678781 0.0379772 0.170052 -0.20885
F_ F_ 0.690562 0.124882 0.18257 -0.20885
F_ F_ 0.618889 0.0989355 0.198169 -0.20885
Zn Zn 0.58791 0.0860686 0.846362 0.83971
Zn Zn 0.659226 0.3517 0.583171 0.83971
Zn Zn 0.910085 0.415549 0.656176 0.83971
Zn Zn 0.83581 0.159577 0.916172 0.83971
H_ H_ 0.66757 0.138065 0.805716 0.10394
H_ H_ 0.739347 0.109473 0.759579 0.10394
H_ H_ 0.70833 0.445361 0.777968 0.10394
H_ H_ 0.633143 0.986335 0.81638 0.10394
H_ H_ 0.0169585 0.0960182 0.756473 0.10394
H_ H_ 0.977626 0.172545 0.708249 0.10394
H_ H_ 0.52986 0.271549 0.821087 0.10394
H_ H_ 0.575696 0.198507 0.868918 0.10394
H_ H_ 0.534852 0.446459 0.875013 0.10394
H_ H_ 0.984728 0.381767 0.892378 0.10394
H_ H_ 0.855523 0.489917 0.910201 0.10394
H_ H_ 0.577844 0.309707 0.627032 0.10394
H_ H_ 0.0103602 0.259249 0.595283 0.10394
H_ H_ 0.526056 0.29973 0.953292 0.10394
H_ H_ 0.625532 0.313731 0.475339 0.10394
H_ H_ 0.706242 0.257615 0.604868 0.10394
H_ H_ 0.742325 0.209605 0.674762 0.10394
H_ H_ 0.70431 0.343365 0.772473 0.10394
H_ H_ 0.683295 0.389319 0.696399 0.10394
H_ H_ 0.716286 0.367089 0.943675 0.10394
H_ H_ 0.774083 0.369628 0.876729 0.10394
H_ H_ 0.892702 0.410724 0.989593 0.10394
H_ H_ 0.809532 0.396669 0.663849 0.10394
H_ H_ 0.732636 0.450825 0.685959 0.10394
H_ H_ 0.833934 0.0560987 0.77674 0.10394
H_ H_ 0.902184 0.499562 0.736027 0.10394
H_ H_ 0.521373 0.371388 0.673993 0.10394
H_ H_ 0.560197 0.29843 0.717937 0.10394
H_ H_ 0.905965 0.257502 0.740931 0.10394
H_ H_ 0.867616 0.333567 0.705365 0.10394
H_ H_ 0.963184 0.0526298 0.627232 0.10394
H_ H_ 0.514515 0.124951 0.605688 0.10394
H_ H_ 0.637894 0.00816949 0.580862 0.10394
H_ H_ 0.938641 0.16629 0.891713 0.10394
H_ H_ 0.51736 0.192664 0.948213 0.10394
H_ H_ 0.924165 0.274934 0.547903 0.10394
H_ H_ 0.851757 0.211832 0.0144927 0.10394
H_ H_ 0.739689 0.213538 0.896208 0.10394
H_ H_ 0.690133 0.256642 0.824318 0.10394
H_ H_ 0.824152 0.228533 0.741061 0.10394
H_ H_ 0.871633 0.185548 0.82046 0.10394
H_ H_ 0.78824 0.104622 0.558814 0.10394
H_ H_ 0.733177 0.0843638 0.615496 0.10394
H_ H_ 0.602058 0.10778 0.50452 0.10394
C_ C_ 0.679587 0.0969213 0.803543 0.18167
C_ C_ 0.720388 0.0815 0.775369 -0.15533
C_ C_ 0.737647 0.0298232 0.770512 0.02923
C_ C_ 0.699186 0.487713 0.78787 -0.15533
C_ C_ 0.65715 0.0128233 0.804737 0.18167
C_ C_ 0.533102 0.134606 0.764937 0.18167
C_ C_ -0.0011640000000000539 0.177629 0.747094 -0.15533
C_ C_ 0.504545 0.225197 0.757042 0.02923
C_ C_ 0.525177 0.233135 0.805744 -0.15533
C_ C_ 0.550695 0.192512 0.833697 0.18167
C_ C_ 0.504435 0.0459879 0.857661 0.69207
C_ C_ 0.972563 0.508907 0.877259 0.02923
C_ C_ 0.994678 0.45804 0.883374 -0.15533
C_ C_ 0.965131 0.418734 0.890074 -0.15533
C_ C_ 0.91352 0.428515 0.896219 0.02923
C_ C_ 0.89356 0.482777 0.903164 -0.15533
C_ C_ 0.922736 0.52164 0.891955 0.02923
C_ C_ 0.89199 0.0724524 0.885107 0.69207
C_ C_ 0.904583 0.32992 0.892418 0.69661
C_ C_ 0.572993 0.300131 0.585256 0.18167
C_ C_ 0.529487 0.275059 0.565761 -0.15533
C_ C_ 0.518785 0.269791 0.512877 0.02923
C_ C_ 0.540431 0.296451 0.993227 -0.15533
C_ C_ 0.59723 0.307329 0.500586 0.18167
C_ C_ 0.7085 0.275975 0.639407 0.18167
C_ C_ 0.729946 0.24949 0.680791 -0.15533
C_ C_ 0.727138 0.271845 0.731877 0.02923
C_ C_ 0.713009 0.323499 0.73538 -0.15533
C_ C_ 0.693569 0.349873 0.6917 0.18167
C_ C_ 0.743772 0.367678 0.545254 0.69207
C_ C_ 0.776797 0.37427 1.00475012 0.02923
C_ C_ 0.758338 0.372805 0.953276 -0.15533
C_ C_ 0.788444 0.378462 0.914571 -0.15533
C_ C_ 0.838463 0.393287 0.925812 0.02923
C_ C_ 0.854123 0.402064 0.978043 -0.15533
C_ C_ 0.826931 0.38933 0.0167987 0.02923
C_ C_ 0.856726 0.380127 0.573143 0.69207
C_ C_ 0.854569 0.3897 0.829986 0.69661
C_ C_ 0.81093 0.433827 0.6815 0.18167
C_ C_ 0.769008 0.462408 0.70132 -0.15533
C_ C_ 0.776427 0.499888 0.741208 0.02923
C_ C_ 0.827186 0.0234011 0.750786 -0.15533
C_ C_ 0.864285 0.49147 0.726388 0.18167
C_ C_ 0.99069 0.35243 0.699674 0.18167
C_ C_ 0.517548 0.303456 0.711802 -0.15533
C_ C_ 0.984255 0.273389 0.739295 0.02923
C_ C_ 0.931221 0.281059 0.730353 -0.15533
C_ C_ 0.908956 0.324494 0.706398 0.18167
C_ C_ 0.988535 0.456337 0.624332 0.69207
C_ C_ 0.517501 0.997577 0.610607 0.02923
C_ C_ 0.499044 0.0468331 0.605538 -0.15533
C_ C_ 0.530917 0.0855939 0.601347 -0.15533
C_ C_ 0.583195 0.0717662 0.598089 0.02923
C_ C_ 0.600117 0.0201827 0.591762 -0.15533
C_ C_ 0.569386 0.98293 0.601224 0.02923
C_ C_ 0.596342 0.428372 0.605801 0.69207
C_ C_ 0.597981 0.167376 0.606529 0.69661
C_ C_ 0.93785 0.184576 0.929527 0.18167
C_ C_ 0.980364 0.207289 0.95274 -0.15533
C_ C_ 0.974017 0.240681 -0.004496999999999973 0.02923
C_ C_ 0.92966 0.248338 0.514376 -0.15533
C_ C_ 0.88613 0.217717 0.995204 0.18167
C_ C_ 0.755794 0.212945 0.860448 0.18167
C_ C_ 0.728151 0.238507 0.819256 -0.15533
C_ C_ 0.75266 0.242676 0.774716 0.02923
C_ C_ 0.804741 0.225014 0.775566 -0.15533
C_ C_ 0.830817 0.197029 0.81752 0.18167
C_ C_ 0.762142 0.123925 0.951453 0.69207
C_ C_ 0.729924 0.11326 0.493158 0.02923
C_ C_ 0.747729 0.103001 0.543741 -0.15533
C_ C_ 0.714363 0.0961587 0.579417 -0.15533
C_ C_ 0.660732 0.101717 0.567176 0.02923
C_ C_ 0.641809 0.113658 0.515969 -0.15533
C_ C_ 0.676469 0.112374 0.477219 0.02923
C_ C_ 0.652616 0.105946 0.925397 0.69207
C_ C_ 0.647112 0.103275 0.663067 0.69661
C_ C_ 0.879261 0.386112 0.886735 -0.30787
C_ C_ 0.622245 0.109424 0.607254 -0.30787
N_ N_ 0.642691 0.0638352 0.805998 -0.32189
N_ N_ 0.554007 0.144333 0.813367 -0.32189
N_ N_ 0.60732 0.312833 0.552776 -0.32189
N_ N_ 0.691607 0.326076 0.644209 -0.32189
N_ N_ 0.857117 0.451591 0.691481 -0.32189
N_ N_ 0.937762 0.358691 0.68899 -0.32189
N_ N_ 0.892155 0.192986 0.949424 -0.32189
N_ N_ 0.803644 0.190195 0.856756 -0.32189
O_ O_ -0.002483000000000013 0.0950003 0.876604 -0.63271
O_ O_ 0.545876 0.0339205 0.832458 -0.57982
O_ O_ 0.887955 0.0958266 0.84265 -0.63271
O_ O_ 0.864316 0.0950992 0.920158 -0.57982
O_ O_ 0.749921 0.396339 0.58765 -0.63271
O_ O_ 0.703086 0.342613 0.53928 -0.57982
O_ O_ 0.861079 0.340325 0.600658 -0.63271
O_ O_ 0.878157 0.421227 0.592283 -0.57982
O_ O_ 0.483175 0.41204 0.587316 -0.63271
O_ O_ 0.958571 0.458363 0.661899 -0.57982
O_ O_ 0.5951 0.399982 0.644393 -0.63271
O_ O_ 0.627705 0.413522 0.571908 -0.57982
O_ O_ 0.753417 0.112371 0.901537 -0.63271
O_ O_ 0.794295 0.15682 0.9648 -0.57982
O_ O_ 0.654157 0.149323 0.901841 -0.63271
O_ O_ 0.61668 0.0754288 0.909847 -0.57982
F_ F_ 0.932431 0.326386 0.941102 -0.20885
F_ F_ 0.938553 0.311213 0.855361 -0.20885
F_ F_ 0.870766 0.291092 0.890812 -0.20885
F_ F_ 0.818591 0.431663 0.823239 -0.20885
F_ F_ 0.828414 0.347508 0.812499 -0.20885
F_ F_ 0.89068 0.396234 0.796426 -0.20885
F_ F_ 0.564971 0.171715 0.562242 -0.20885
F_ F_ 0.570411 0.183474 0.64799 -0.20885
F_ F_ 0.635575 0.198614 0.603826 -0.20885
F_ F_ 0.669447 0.052997 0.671007 -0.20885
F_ F_ 0.682782 0.136912 0.673878 -0.20885
F_ F_ 0.614326 0.10761 0.700293 -0.20885
Zn Zn 0.589145 0.582233 0.338232 0.83971
Zn Zn 0.660579 0.840237 0.0819725 0.83971
Zn Zn 0.909254 0.913154 0.152071 0.83971
Zn Zn 0.83956 0.65387 0.415955 0.83971
H_ H_ 0.672371 0.63126 0.305916 0.10394
H_ H_ 0.754279 0.597935 0.274084 0.10394
H_ H_ 0.722394 0.944034 0.289211 0.10394
H_ H_ 0.638559 0.487307 0.336443 0.10394
H_ H_ 0.0254659 0.594601 0.250742 0.10394
H_ H_ 0.986759 0.668416 0.201845 0.10394
H_ H_ 0.537924 0.772026 0.328324 0.10394
H_ H_ 0.576107 0.693937 0.372221 0.10394
H_ H_ 0.533017 0.94647 0.374851 0.10394
H_ H_ 0.972319 0.884529 0.360294 0.10394
H_ H_ 0.847471 0.990585 0.402851 0.10394
H_ H_ 0.578675 0.807993 0.132643 0.10394
H_ H_ 0.993991 0.777946 0.0880581 0.10394
H_ H_ 0.539618 0.78217 0.447161 0.10394
H_ H_ 0.630222 0.798361 0.983213 0.10394
H_ H_ 0.718632 0.74145 0.103749 0.10394
H_ H_ 0.756474 0.698145 0.181126 0.10394
H_ H_ 0.713188 0.837286 0.269181 0.10394
H_ H_ 0.676629 0.87765 0.185525 0.10394
H_ H_ 0.711759 0.87635 0.446353 0.10394
H_ H_ 0.771736 0.867678 0.377576 0.10394
H_ H_ 0.88345 0.927151 0.487867 0.10394
H_ H_ 0.809581 0.897893 0.162734 0.10394
H_ H_ 0.737535 0.953389 0.196616 0.10394
H_ H_ 0.833434 0.545861 0.274609 0.10394
H_ H_ 0.912621 1.000150555 0.233575 0.10394
H_ H_ 0.498369 0.897485 0.21918 0.10394
H_ H_ 0.54954 0.821324 0.249716 0.10394
H_ H_ 0.907003 0.74029 0.212656 0.10394
H_ H_ 0.865903 0.820602 0.181031 0.10394
H_ H_ 0.963695 0.559229 0.12097 0.10394
H_ H_ 0.520131 0.618462 0.131136 0.10394
H_ H_ 0.642551 0.507228 0.0910181 0.10394
H_ H_ 0.945003 0.649775 0.410109 0.10394
H_ H_ 0.515295 0.688833 0.450781 0.10394
H_ H_ 0.913858 0.793369 0.0375689 0.10394
H_ H_ 0.845258 0.739221 0.505719 0.10394
H_ H_ 0.738511 0.69881 0.393317 0.10394
H_ H_ 0.69249 0.745199 0.32044 0.10394
H_ H_ 0.837062 0.740736 0.256812 0.10394
H_ H_ 0.876319 0.685674 0.327163 0.10394
H_ H_ 0.788717 0.612527 0.0539597 0.10394
H_ H_ 0.735956 0.606305 0.119375 0.10394
H_ H_ 0.607243 0.584637 0.00638187 0.10394
C_ C_ 0.680756 0.590427 0.30263 0.18167
C_ C_ 0.726616 0.570312 0.279752 -0.15533
C_ C_ 0.73493 0.517079 0.26775 0.02923
C_ C_ 0.708608 0.985771 0.288584 -0.15533
C_ C_ 0.658613 0.508054 0.310164 0.18167
C_ C_ 0.532539 0.636479 0.265552 0.18167
C_ C_ 0.00624801 0.676573 0.240758 -0.15533
C_ C_ 0.515103 0.727549 0.2598 0.02923
C_ C_ 0.540882 0.733695 0.309295 -0.15533
C_ C_ 0.556158 0.688898 0.33611 0.18167
C_ C_ 0.511115 0.54172 0.362196 0.69207
C_ C_ 0.967303 0.00975166 0.375438 0.02923
C_ C_ -0.014216000000000006 0.95853 0.369383 -0.15533
C_ C_ 0.956881 0.919612 0.37628 -0.15533
C_ C_ 0.907445 0.929705 0.390973 0.02923
C_ C_ 0.886597 0.98171 0.396877 -0.15533
C_ C_ 0.915329 0.0216325 0.389589 0.02923
C_ C_ 0.893924 0.569372 0.384495 0.69207
C_ C_ 0.897965 0.832332 0.387909 0.69661
C_ C_ 0.574867 0.795683 0.0906604 0.18167
C_ C_ 0.531677 0.773031 0.0723806 -0.15533
C_ C_ 0.519374 0.766149 0.0207054 0.02923
C_ C_ 0.547276 0.781253 0.488968 -0.15533
C_ C_ 0.603526 0.789756 0.00750873 0.18167
C_ C_ 0.71736 0.76015 0.140162 0.18167
C_ C_ 0.734873 0.73563 0.18371 -0.15533
C_ C_ 0.737146 0.765699 0.232039 0.02923
C_ C_ 0.713233 0.816359 0.231591 -0.15533
C_ C_ 0.693921 0.838358 0.185811 0.18167
C_ C_ 0.739154 0.873118 0.0438072 0.69207
C_ C_ 0.773605 0.876435 0.505361 0.02923
C_ C_ 0.75274 0.876896 0.454332 -0.15533
C_ C_ 0.782772 0.879442 0.414803 -0.15533
C_ C_ 0.833316 0.893815 0.426057 0.02923
C_ C_ 0.849676 0.906003 0.477704 -0.15533
C_ C_ 0.823132 0.890202 0.517035 0.02923
C_ C_ 0.851846 0.883744 0.0710123 0.69207
C_ C_ 0.847413 0.889646 0.328026 0.69661
C_ C_ 0.81653 0.934804 0.185336 0.18167
C_ C_ 0.776093 0.960695 0.208094 -0.15533
C_ C_ 0.786672 0.999253 0.246588 0.02923
C_ C_ 0.825126 0.516235 0.245954 -0.15533
C_ C_ 0.872712 0.993176 0.221428 0.18167
C_ C_ 0.983459 0.856117 0.211573 0.18167
C_ C_ 0.512445 0.816381 0.2324 -0.15533
C_ C_ 0.977405 0.771564 0.239255 0.02923
C_ C_ 0.929671 0.771725 0.21106 -0.15533
C_ C_ 0.904555 0.818826 0.195858 0.18167
C_ C_ 0.98769 0.942917 0.120658 0.69207
C_ C_ 0.524633 0.490838 0.120815 0.02923
C_ C_ 0.504712 0.541948 0.122494 -0.15533
C_ C_ 0.534921 0.581105 0.117631 -0.15533
C_ C_ 0.586567 0.568885 0.106559 0.02923
C_ C_ 0.601757 0.51573 0.096122 -0.15533
C_ C_ 0.57272 0.476763 0.105791 0.02923
C_ C_ 0.592949 0.918628 0.102297 0.69207
C_ C_ 0.603436 0.663371 0.107688 0.69661
C_ C_ 0.938928 0.676698 0.443446 0.18167
C_ C_ 0.980284 0.698766 0.472798 -0.15533
C_ C_ 0.973067 0.741037 0.506332 0.02923
C_ C_ 0.921162 0.761886 1.00723888 -0.15533
C_ C_ 0.882377 0.727337 0.495508 0.18167
C_ C_ 0.756565 0.705156 0.360929 0.18167
C_ C_ 0.732762 0.734803 0.321561 -0.15533
C_ C_ 0.76217 0.744604 0.280714 0.02923
C_ C_ 0.811889 0.725809 0.281714 -0.15533
C_ C_ 0.834928 0.698024 0.32322 0.18167
C_ C_ 0.764228 0.614223 0.450848 0.69207
C_ C_ 0.725202 0.614958 0.99278 0.02923
C_ C_ 0.746956 0.611473 0.0446174 -0.15533
C_ C_ 0.715525 0.608061 0.0825604 -0.15533
C_ C_ 0.663787 0.600064 0.0707757 0.02923
C_ C_ 0.645451 0.597915 0.0178927 -0.15533
C_ C_ 0.674735 0.607742 0.979145 0.02923
C_ C_ 0.652634 0.604042 0.421723 0.69207
C_ C_ 0.65258 0.604294 0.16752 0.69661
C_ C_ 0.872441 0.886618 0.386575 -0.30787
C_ C_ 0.626543 0.60791 0.113201 -0.30787
N_ N_ 0.644512 0.557701 0.306711 -0.32189
N_ N_ 0.559815 0.643469 0.310266 -0.32189
N_ N_ 0.608507 0.804729 0.0588161 -0.32189
N_ N_ 0.69613 0.809239 0.141315 -0.32189
N_ N_ 0.861838 0.952469 0.189534 -0.32189
N_ N_ 0.935342 0.855447 0.187576 -0.32189
N_ N_ 0.890766 0.68951 0.457693 -0.32189
N_ N_ 0.805608 0.68618 0.357905 -0.32189
O_ O_ 0.00341674 0.586604 0.405289 -0.63271
O_ O_ 0.544637 0.530617 0.328603 -0.57982
O_ O_ 0.896769 0.597937 0.345818 -0.63271
O_ O_ 0.86835 0.590895 0.423202 -0.57982
O_ O_ 0.743708 0.887921 0.0920122 -0.63271
O_ O_ 0.704433 0.842836 0.0299415 -0.57982
O_ O_ 0.861734 0.840703 0.0976282 -0.63271
O_ O_ 0.876691 0.921818 0.0894502 -0.57982
O_ O_ 0.479771 0.908326 0.0951778 -0.63271
O_ O_ 0.962338 0.950985 0.15982 -0.57982
O_ O_ 0.588368 0.894901 0.143377 -0.63271
O_ O_ 0.629857 0.903751 0.0751693 -0.57982
O_ O_ 0.771615 0.580548 0.41125 -0.63271
O_ O_ 0.78977 0.653919 0.45855 -0.57982
O_ O_ 0.65679 0.646482 0.399854 -0.63271
O_ O_ 0.614706 0.578733 0.404285 -0.57982
F_ F_ 0.938891 0.832127 0.425071 -0.20885
F_ F_ 0.920011 0.810994 0.345532 -0.20885
F_ F_ 0.867005 0.795043 0.398861 -0.20885
F_ F_ 0.808805 0.929384 0.321967 -0.20885
F_ F_ 0.822383 0.847696 0.313868 -0.20885
F_ F_ 0.881955 0.893575 0.292263 -0.20885
F_ F_ 0.570639 0.663276 0.0639105 -0.20885
F_ F_ 0.57747 0.68637 0.146049 -0.20885
F_ F_ 0.640985 0.695898 0.101908 -0.20885
F_ F_ 0.684215 0.558556 0.174777 -0.20885
F_ F_ 0.682024 0.645322 0.185957 -0.20885
F_ F_ 0.619562 0.599786 0.203459 -0.20885
Zn Zn 0.583063 0.58404 0.848822 0.83971
Zn Zn 0.654605 0.845052 0.583631 0.83971
Zn Zn 0.906214 0.919172 0.656111 0.83971
Zn Zn 0.834097 0.658991 0.917398 0.83971
H_ H_ 0.663818 0.629207 0.807835 0.10394
H_ H_ 0.738734 0.598873 0.763118 0.10394
H_ H_ 0.71543 0.955591 0.78744 0.10394
H_ H_ 0.634678 0.485017 0.827104 0.10394
H_ H_ 0.0179285 0.589476 0.751286 0.10394
H_ H_ 0.977057 0.665011 0.699212 0.10394
H_ H_ 0.523325 0.771168 0.830032 0.10394
H_ H_ 0.576277 0.698249 0.873555 0.10394
H_ H_ 0.527123 0.945022 0.848647 0.10394
H_ H_ 0.980788 0.879368 0.876827 0.10394
H_ H_ 0.855905 0.990185 0.917474 0.10394
H_ H_ 0.574207 0.803078 0.633732 0.10394
H_ H_ -0.0017380000000000173 0.789123 0.606995 0.10394
H_ H_ 0.544239 0.781849 0.945333 0.10394
H_ H_ 0.61689 0.815141 0.483731 0.10394
H_ H_ 0.720314 0.764369 0.600306 0.10394
H_ H_ 0.755154 0.713286 0.673149 0.10394
H_ H_ 0.703827 0.840886 0.774552 0.10394
H_ H_ 0.672097 0.885202 0.698986 0.10394
H_ H_ 0.712304 0.912672 0.947939 0.10394
H_ H_ 0.76784 0.922048 0.885305 0.10394
H_ H_ 0.895314 0.886078 0.987371 0.10394
H_ H_ 0.807509 0.905032 0.65665 0.10394
H_ H_ 0.730378 0.965498 0.685719 0.10394
H_ H_ 0.829775 0.548101 0.778656 0.10394
H_ H_ 0.906262 1.00553756 0.739703 0.10394
H_ H_ 0.501366 0.890473 0.70696 0.10394
H_ H_ 0.548988 0.815211 0.738175 0.10394
H_ H_ 0.908119 0.740505 0.70822 0.10394
H_ H_ 0.864243 0.832663 0.691007 0.10394
H_ H_ 0.967347 0.560085 0.627869 0.10394
H_ H_ 0.516974 0.620316 0.610713 0.10394
H_ H_ 0.646949 0.509199 0.605714 0.10394
H_ H_ 0.936372 0.665062 0.892904 0.10394
H_ H_ 0.523161 0.671619 0.964239 0.10394
H_ H_ 0.915555 0.785198 0.544136 0.10394
H_ H_ 0.844682 0.737133 1.00476148 0.10394
H_ H_ 0.737487 0.713165 0.893536 0.10394
H_ H_ 0.693964 0.749193 0.817802 0.10394
H_ H_ 0.834349 0.740439 0.746059 0.10394
H_ H_ 0.875297 0.68897 0.81668 0.10394
H_ H_ 0.789172 0.609546 0.549149 0.10394
H_ H_ 0.731069 0.598522 0.622965 0.10394
H_ H_ 0.600765 0.591104 0.506283 0.10394
C_ C_ 0.675633 0.589133 0.803003 0.18167
C_ C_ 0.722126 0.571934 0.78464 -0.15533
C_ C_ 0.734633 0.518768 0.772892 0.02923
C_ C_ 0.703648 0.994119 0.784043 -0.15533
C_ C_ 0.65421 0.507179 0.806234 0.18167
C_ C_ 0.52823 0.632905 0.769406 0.18167
C_ C_ -0.002994000000000052 0.671904 0.737276 -0.15533
C_ C_ 0.504287 0.723287 0.763471 0.02923
C_ C_ 0.524809 0.731384 0.812792 -0.15533
C_ C_ 0.548567 0.689953 0.840309 0.18167
C_ C_ 0.5043 0.545396 0.868293 0.69207
C_ C_ 0.967407 0.00992871 0.868803 0.02923
C_ C_ -0.013293 0.957327 0.863205 -0.15533
C_ C_ 0.960333 0.917848 0.875251 -0.15533
C_ C_ 0.911572 0.928963 0.89317 0.02923
C_ C_ 0.893682 0.980825 0.902555 -0.15533
C_ C_ 0.919119 0.0211539 0.889 0.02923
C_ C_ 0.894268 0.57483 0.886164 0.69207
C_ C_ 0.897343 0.834024 0.883054 0.69661
C_ C_ 0.565842 0.798142 0.594681 0.18167
C_ C_ 0.523089 0.77664 0.576745 -0.15533
C_ C_ 0.512072 0.767915 0.524733 0.02923
C_ C_ 0.55476 0.778408 0.986852 -0.15533
C_ C_ 0.591257 0.801808 0.508774 0.18167
C_ C_ 0.716809 0.778704 0.639643 0.18167
C_ C_ 0.738368 0.752518 0.680835 -0.15533
C_ C_ 0.736656 0.773805 0.730749 0.02923
C_ C_ 0.712048 0.822062 0.736757 -0.15533
C_ C_ 0.692603 0.848049 0.693147 0.18167
C_ C_ 0.739156 0.872032 0.547224 0.69207
C_ C_ 0.775217 0.884874 1.00703536 0.02923
C_ C_ 0.753708 0.898699 0.956125 -0.15533
C_ C_ 0.78446 0.902449 0.919519 -0.15533
C_ C_ 0.838406 0.892091 0.927365 0.02923
C_ C_ 0.858546 0.883389 0.977506 -0.15533
C_ C_ 0.827932 0.881148 0.0171557 0.02923
C_ C_ 0.850391 0.887558 0.569534 0.69207
C_ C_ 0.845967 0.897535 0.828445 0.69661
C_ C_ 0.813443 0.942067 0.680135 0.18167
C_ C_ 0.770107 0.971568 0.69779 -0.15533
C_ C_ 0.777679 0.0102649 0.736246 0.02923
C_ C_ 0.824081 0.515067 0.752986 -0.15533
C_ C_ 0.868035 0.994551 0.728225 0.18167
C_ C_ 0.985868 0.85165 0.696512 0.18167
C_ C_ 0.509029 0.812408 0.728851 -0.15533
C_ C_ 0.980416 0.768005 0.732422 0.02923
C_ C_ 0.928028 0.774448 0.71402 -0.15533
C_ C_ 0.905015 0.820273 0.691026 0.18167
C_ C_ 0.98657 0.955344 0.622057 0.69207
C_ C_ 0.52034 0.492862 0.604784 0.02923
C_ C_ 0.502457 0.544599 0.611029 -0.15533
C_ C_ 0.534243 0.582107 0.613097 -0.15533
C_ C_ 0.586791 0.5692 0.605051 0.02923
C_ C_ 0.607272 0.518927 0.609116 -0.15533
C_ C_ 0.574428 0.479718 0.608065 0.02923
C_ C_ 0.588684 0.928121 0.601904 0.69207
C_ C_ 0.599536 0.666667 0.603193 0.69661
C_ C_ 0.932597 0.689131 0.929069 0.18167
C_ C_ 0.975409 0.705198 0.955885 -0.15533
C_ C_ 0.968848 0.747964 0.991141 0.02923
C_ C_ 0.924738 0.750327 0.521862 -0.15533
C_ C_ 0.879203 0.736456 0.986874 0.18167
C_ C_ 0.76102 0.7191 0.862073 0.18167
C_ C_ 0.736634 0.74571 0.820875 -0.15533
C_ C_ 0.762446 0.749361 0.776345 0.02923
C_ C_ 0.812455 0.729958 0.776442 -0.15533
C_ C_ 0.83506 0.701977 0.817787 0.18167
C_ C_ 0.757549 0.627618 0.952926 0.69207
C_ C_ 0.728049 0.60579 0.488338 0.02923
C_ C_ 0.748385 0.602669 0.541487 -0.15533
C_ C_ 0.717722 0.599594 0.581872 -0.15533
C_ C_ 0.664618 0.595104 0.569057 0.02923
C_ C_ 0.644616 0.593389 0.517538 -0.15533
C_ C_ 0.674438 0.600004 0.477102 0.02923
C_ C_ 0.651201 0.606249 0.925491 0.69207
C_ C_ 0.64609 0.613035 0.669562 0.69661
C_ C_ 0.873917 0.88904 0.883157 -0.30787
C_ C_ 0.62487 0.610986 0.610668 -0.30787
N_ N_ 0.642746 0.557702 0.816477 -0.32189
N_ N_ 0.547461 0.642101 0.819228 -0.32189
N_ N_ 0.601008 0.805408 0.561811 -0.32189
N_ N_ 0.689464 0.825421 0.646391 -0.32189
N_ N_ 0.860221 0.950766 0.697698 -0.32189
N_ N_ 0.936013 0.856744 0.680597 -0.32189
N_ N_ 0.885834 0.703422 0.945631 -0.32189
N_ N_ 0.808822 0.695085 0.858903 -0.32189
O_ O_ 1.0059939 0.593506 0.894905 -0.63271
O_ O_ 0.54418 0.531934 0.842793 -0.57982
O_ O_ 0.894381 0.601702 0.843733 -0.63271
O_ O_ 0.869028 0.595612 0.922238 -0.57982
O_ O_ 0.743235 0.901446 0.590491 -0.63271
O_ O_ 0.703715 0.839181 0.538699 -0.57982
O_ O_ 0.854428 0.845659 0.593729 -0.63271
O_ O_ 0.872092 0.928619 0.591124 -0.57982
O_ O_ 0.491809 0.909236 0.594171 -0.63271
O_ O_ 0.954994 0.961775 0.657648 -0.57982
O_ O_ 0.590672 0.906727 0.646156 -0.63271
O_ O_ 0.62037 0.90754 0.567708 -0.57982
O_ O_ 0.759771 0.600787 0.907507 -0.63271
O_ O_ 0.790257 0.659854 0.965015 -0.57982
O_ O_ 0.656387 0.645521 0.900115 -0.63271
O_ O_ 0.612571 0.578208 0.912115 -0.57982
F_ F_ 0.931537 0.827452 0.928057 -0.20885
F_ F_ 0.927133 0.822263 0.845081 -0.20885
F_ F_ 0.86165 0.799736 0.876755 -0.20885
F_ F_ 0.819866 0.943078 0.82119 -0.20885
F_ F_ 0.81321 0.863739 0.816158 -0.20885
F_ F_ 0.881074 0.894803 0.792275 -0.20885
F_ F_ 0.567722 0.666325 0.558039 -0.20885
F_ F_ 0.574579 0.68853 0.64385 -0.20885
F_ F_ 0.636261 0.696866 0.592575 -0.20885
F_ F_ 0.680534 0.569642 0.680541 -0.20885
F_ F_ 0.673354 0.654994 0.677881 -0.20885
F_ F_ 0.611275 0.619666 0.708789 -0.20885
