_cell_length_a 26.508
_cell_length_b 26.37200000322088
_cell_length_c 26.311999743092066
_cell_angle_alpha 93.74100058972084
_cell_angle_beta 96.04100104955006
_cell_angle_gamma 83.6869992558723
_symmetry_space_group_name_H-M         'P 1'
_symmetry_Int_Tables_number            1
loop_
_symmetry_equiv_pos_as_xyz
   'x, y, z'
                         
loop_
_atom_site_label
_atom_site_type_symbol
_atom_site_fract_x 
_atom_site_fract_y
_atom_site_fract_z
_atom_site_charge
Zn Zn 0.086131 0.0812209 0.345309 0.83971
Zn Zn 0.164503 0.350073 0.092658 0.83971
Zn Zn 0.414521 0.412252 0.154381 0.83971
Zn Zn 0.339509 0.149159 0.420427 0.83971
H_ H_ 0.167572 0.12773 0.308957 0.10394
H_ H_ 0.248611 0.0900467 0.271078 0.10394
H_ H_ 0.213277 0.443493 0.286823 0.10394
H_ H_ 0.128848 0.975549 0.316465 0.10394
H_ H_ 0.536302 0.0951893 0.251735 0.10394
H_ H_ 0.489722 0.161273 0.204899 0.10394
H_ H_ 0.0263004 0.264893 0.347054 0.10394
H_ H_ 0.0676062 0.187263 0.383552 0.10394
H_ H_ 0.0334898 0.437329 0.376491 0.10394
H_ H_ 0.485289 0.382347 0.377908 0.10394
H_ H_ 0.349293 0.488942 0.392472 0.10394
H_ H_ 0.0883858 0.297057 0.137085 0.10394
H_ H_ 0.504262 0.267963 0.0947724 0.10394
H_ H_ 0.0238302 0.294255 0.431173 0.10394
H_ H_ 0.124567 0.331861 0.98974 0.10394
H_ H_ 0.219008 0.25986 0.107542 0.10394
H_ H_ 0.245784 0.205213 0.180964 0.10394
H_ H_ 0.197416 0.332556 0.281617 0.10394
H_ H_ 0.165356 0.382025 0.207113 0.10394
H_ H_ 0.221735 0.352557 0.439081 0.10394
H_ H_ 0.276462 0.360755 0.371309 0.10394
H_ H_ 0.38999 0.415878 0.480707 0.10394
H_ H_ 0.309199 0.390402 0.164407 0.10394
H_ H_ 0.234199 0.44136 0.196232 0.10394
H_ H_ 0.332129 0.0420049 0.290994 0.10394
H_ H_ 0.403683 0.500891 0.230031 0.10394
H_ H_ 0.0163195 0.387778 0.198767 0.10394
H_ H_ 0.0556603 0.313977 0.247449 0.10394
H_ H_ 0.412858 0.232443 0.212774 0.10394
H_ H_ 0.371642 0.317483 0.181644 0.10394
H_ H_ 0.460575 0.0518815 0.10749 0.10394
H_ H_ 0.022267 0.128075 0.127529 0.10394
H_ H_ 0.142769 0.0138553 0.096652 0.10394
H_ H_ 0.436026 0.156003 0.401713 0.10394
H_ H_ 0.0202292 0.187496 0.455175 0.10394
H_ H_ 0.415096 0.287027 0.0305347 0.10394
H_ H_ 0.337426 0.230212 0.509947 0.10394
H_ H_ 0.23162 0.192421 0.395813 0.10394
H_ H_ 0.18409 0.234428 0.322164 0.10394
H_ H_ 0.327484 0.241432 0.262082 0.10394
H_ H_ 0.375015 0.191076 0.331803 0.10394
H_ H_ 0.29107 0.108989 0.0507083 0.10394
H_ H_ 0.238129 0.115959 0.117478 0.10394
H_ H_ 0.112354 0.0807567 0.0105266 0.10394
C_ C_ 0.17536 0.0858678 0.302117 0.18167
C_ C_ 0.224059 0.0656698 0.285077 -0.15533
C_ C_ 0.236971 0.0135098 0.279851 0.02923
C_ C_ 0.199869 0.481891 0.284118 -0.15533
C_ C_ 0.155547 0.00212391 0.310817 0.18167
C_ C_ 0.0344827 0.137483 0.266938 0.18167
C_ C_ 0.506022 0.171649 0.241409 -0.15533
C_ C_ 0.0145087 0.229681 0.267855 0.02923
C_ C_ 0.0303073 0.2315 0.321411 -0.15533
C_ C_ 0.0545156 0.186235 0.342445 0.18167
C_ C_ 0.00802681 0.0366466 0.368219 0.69207
C_ C_ 0.475131 0.510861 0.38041 0.02923
C_ C_ 0.494014 0.459535 0.376581 -0.15533
C_ C_ 0.464148 0.420032 0.3803 -0.15533
C_ C_ 0.411707 0.42683 0.386505 0.02923
C_ C_ 0.391475 0.478326 0.388954 -0.15533
C_ C_ 0.419897 0.519637 0.381495 0.02923
C_ C_ 0.399213 0.0700159 0.387868 0.69207
C_ C_ 0.401215 0.329873 0.385569 0.69661
C_ C_ 0.077243 0.298919 0.0963431 0.18167
C_ C_ 0.031906 0.283095 0.0756662 -0.15533
C_ C_ 0.0197191 0.281906 0.022649 0.02923
C_ C_ 0.0331697 0.299279 0.471832 -0.15533
C_ C_ 0.0983333 0.3166 0.0133997 0.18167
C_ C_ 0.219845 0.27555 0.146481 0.18167
C_ C_ 0.236068 0.24482 0.187962 -0.15533
C_ C_ 0.22953 0.26474 0.23771 0.02923
C_ C_ 0.201667 0.313492 0.24366 -0.15533
C_ C_ 0.185956 0.342279 0.201873 0.18167
C_ C_ 0.243845 0.370821 0.0528043 0.69207
C_ C_ 0.276037 0.371699 0.502258 0.02923
C_ C_ 0.259368 0.362471 0.44916 -0.15533
C_ C_ 0.288112 0.372746 0.409563 -0.15533
C_ C_ 0.335203 0.392704 0.419091 0.02923
C_ C_ 0.353151 0.397302 0.47186 -0.15533
C_ C_ 0.326891 0.382033 0.512737 0.02923
C_ C_ 0.356571 0.384653 0.0726398 0.69207
C_ C_ 0.353123 0.386256 0.321404 0.69661
C_ C_ 0.314646 0.425576 0.185074 0.18167
C_ C_ 0.271114 0.452188 0.206322 -0.15533
C_ C_ 0.277233 0.494606 0.241474 0.02923
C_ C_ 0.324529 0.0149507 0.256043 -0.15533
C_ C_ 0.36685 0.48816 0.221683 0.18167
C_ C_ 0.488668 0.351492 0.205383 0.18167
C_ C_ 0.0159975 0.317832 0.237461 -0.15533
C_ C_ 0.4849 0.267072 0.234504 0.02923
C_ C_ 0.432554 0.268493 0.214083 -0.15533
C_ C_ 0.410105 0.312109 0.190812 0.18167
C_ C_ 0.496894 0.449141 0.126185 0.69207
C_ C_ 0.0233179 1.000376815 0.119183 0.02923
C_ C_ 0.00262648 0.0541311 0.124728 -0.15533
C_ C_ 0.0337836 0.0916864 0.114112 -0.15533
C_ C_ 0.0869467 0.0771653 0.103207 0.02923
C_ C_ 0.10454 0.0243433 0.0967665 -0.15533
C_ C_ 0.0754952 0.987103 0.110849 0.02923
C_ C_ 0.0947412 0.427332 0.110309 0.69207
C_ C_ 0.110516 0.171648 0.114021 0.69661
C_ C_ 0.429707 0.179532 0.437329 0.18167
C_ C_ 0.469806 0.20596 0.45951 -0.15533
C_ C_ 0.460494 0.247549 0.495608 0.02923
C_ C_ 0.426347 0.250252 0.00820838 -0.15533
C_ C_ 0.374827 0.223187 0.495807 0.18167
C_ C_ 0.254386 0.199243 0.364563 0.18167
C_ C_ 0.227085 0.225893 0.322539 -0.15533
C_ C_ 0.254709 0.235896 0.282277 0.02923
C_ C_ 0.306701 0.227355 0.288959 -0.15533
C_ C_ 0.33327 0.196356 0.327609 0.18167
C_ C_ 0.264924 0.108758 0.456172 0.69207
C_ C_ 0.228622 0.115848 0.992127 0.02923
C_ C_ 0.250904 0.109928 0.0413131 -0.15533
C_ C_ 0.219426 0.108906 0.0797667 -0.15533
C_ C_ 0.167717 0.102527 0.0713926 0.02923
C_ C_ 0.15012 0.0965165 0.0203488 -0.15533
C_ C_ 0.177283 0.111786 0.982742 0.02923
C_ C_ 0.15437 0.098775 0.424984 0.69207
C_ C_ 0.152332 0.103072 0.166685 0.69661
C_ C_ 0.37568 0.38652 0.378165 -0.30787
C_ C_ 0.128049 0.113932 0.112484 -0.30787
N_ N_ 0.142128 0.0543343 0.311104 -0.32189
N_ N_ 0.0597487 0.142358 0.313588 -0.32189
N_ N_ 0.108196 0.31588 0.0653999 -0.32189
N_ N_ 0.196368 0.322824 0.154397 -0.32189
N_ N_ 0.36097 0.443755 0.190441 -0.32189
N_ N_ 0.439556 0.351893 0.184275 -0.32189
N_ N_ 0.384468 0.188284 0.45541 -0.32189
N_ N_ 0.305381 0.181098 0.363895 -0.32189
O_ O_ 0.505753 0.0847499 0.379645 -0.63271
O_ O_ 0.0381657 0.0364373 0.332252 -0.57982
O_ O_ 0.391338 0.0952114 0.346788 -0.63271
O_ O_ 0.376786 0.0898788 0.428383 -0.57982
O_ O_ 0.247954 0.396621 0.0982583 -0.63271
O_ O_ 0.202081 0.348151 0.0427866 -0.57982
O_ O_ 0.3581 0.343228 0.100105 -0.63271
O_ O_ 0.387079 0.42076 0.0876623 -0.57982
O_ O_ 0.984093 0.41688 0.0985733 -0.63271
O_ O_ 0.45504 0.462164 0.148902 -0.57982
O_ O_ 0.0894395 0.397116 0.147656 -0.63271
O_ O_ 0.13274 0.413302 0.08475 -0.57982
O_ O_ 0.264528 0.0821249 0.411722 -0.63271
O_ O_ 0.297526 0.143079 0.466445 -0.57982
O_ O_ 0.152266 0.143858 0.405845 -0.63271
O_ O_ 0.125148 0.0659406 0.401481 -0.57982
F_ F_ 0.437079 0.333051 0.427605 -0.20885
F_ F_ 0.432328 0.314849 0.347368 -0.20885
F_ F_ 0.372166 0.289805 0.390255 -0.20885
F_ F_ 0.319089 0.42785 0.313372 -0.20885
F_ F_ 0.323678 0.347668 0.30529 -0.20885
F_ F_ 0.389471 0.391559 0.288533 -0.20885
F_ F_ 0.0725829 0.184955 0.0757928 -0.20885
F_ F_ 0.0894323 0.190476 0.159126 -0.20885
F_ F_ 0.149029 0.202357 0.11044 -0.20885
F_ F_ 0.184655 0.0590299 0.165018 -0.20885
F_ F_ 0.17904 0.142594 0.18671 -0.20885
F_ F_ 0.113505 0.0989891 0.199672 -0.20885
Zn Zn 0.0929535 0.087665 0.847562 0.83971
Zn Zn 0.154156 0.347906 0.570799 0.83971
Zn Zn 0.407428 0.420295 0.65299 0.83971
Zn Zn 0.338899 0.153432 0.909464 0.83971
H_ H_ 0.167207 0.131971 0.800897 0.10394
H_ H_ 0.25123 0.100867 0.768504 0.10394
H_ H_ 0.223245 0.454548 0.808884 0.10394
H_ H_ 0.14363 0.983937 0.830745 0.10394
H_ H_ 0.538748 0.0998654 0.761679 0.10394
H_ H_ 0.49247 0.175309 0.708169 0.10394
H_ H_ 0.0361154 0.26962 0.827439 0.10394
H_ H_ 0.0749401 0.196382 0.876365 0.10394
H_ H_ 0.0313901 0.440582 0.854028 0.10394
H_ H_ 0.479655 0.380086 0.883867 0.10394
H_ H_ 0.345904 0.487397 0.901331 0.10394
H_ H_ 0.0725411 0.30903 0.616601 0.10394
H_ H_ 0.488781 0.27311 0.595057 0.10394
H_ H_ 0.0475977 0.295266 0.950551 0.10394
H_ H_ 0.103015 0.334085 0.465255 0.10394
H_ H_ 0.205219 0.240495 0.585318 0.10394
H_ H_ 0.246179 0.19394 0.659395 0.10394
H_ H_ 0.216114 0.327353 0.755655 0.10394
H_ H_ 0.174546 0.373475 0.682875 0.10394
H_ H_ 0.217383 0.356984 0.95227 0.10394
H_ H_ 0.264499 0.370879 0.880725 0.10394
H_ H_ 0.395184 0.403684 0.984513 0.10394
H_ H_ 0.29527 0.412056 0.649496 0.10394
H_ H_ 0.230237 0.446845 0.706383 0.10394
H_ H_ 0.338367 0.0466672 0.770602 0.10394
H_ H_ 0.399312 0.51067 0.726507 0.10394
H_ H_ 0.0173982 0.368512 0.665473 0.10394
H_ H_ 0.0539836 0.290903 0.708246 0.10394
H_ H_ 0.417848 0.244877 0.706853 0.10394
H_ H_ 0.380815 0.319027 0.669532 0.10394
H_ H_ 0.465931 0.0540086 0.608471 0.10394
H_ H_ 0.0156343 0.109552 0.615516 0.10394
H_ H_ 0.138531 -0.007927000000000017 0.588642 0.10394
H_ H_ 0.438568 0.160038 0.890683 0.10394
H_ H_ 0.0238173 0.205538 0.941352 0.10394
H_ H_ 0.401626 0.285148 0.541952 0.10394
H_ H_ 0.35197 0.231882 0.000646011 0.10394
H_ H_ 0.238869 0.205022 0.880383 0.10394
H_ H_ 0.192712 0.243905 0.801609 0.10394
H_ H_ 0.332401 0.206466 0.726795 0.10394
H_ H_ 0.378672 0.177762 0.808884 0.10394
H_ H_ 0.282553 0.115336 0.556307 0.10394
H_ H_ 0.2303 0.0897469 0.624634 0.10394
H_ H_ 0.110455 0.0616598 0.501107 0.10394
C_ C_ 0.178465 0.0919466 0.793488 0.18167
C_ C_ 0.223562 0.073755 0.771891 -0.15533
C_ C_ 0.236807 0.0210189 0.768606 0.02923
C_ C_ 0.209657 0.494839 0.80374 -0.15533
C_ C_ 0.165246 0.00931459 0.814581 0.18167
C_ C_ 0.0301396 0.137426 0.764484 0.18167
C_ C_ 0.510866 0.181108 0.746792 -0.15533
C_ C_ 0.00710525 0.229584 0.762119 0.02923
C_ C_ 0.0301831 0.235048 0.812752 -0.15533
C_ C_ 0.057606 0.194145 0.836143 0.18167
C_ C_ 0.00598629 0.0549223 0.871594 0.69207
C_ C_ 0.465554 0.507786 0.871933 0.02923
C_ C_ 0.483125 0.455339 0.86159 -0.15533
C_ C_ 0.460561 0.417849 0.885406 -0.15533
C_ C_ 0.407801 0.426018 0.889927 0.02923
C_ C_ 0.386062 0.478358 0.894246 -0.15533
C_ C_ 0.414165 0.51834 0.886439 0.02923
C_ C_ 0.395608 0.0719614 0.879755 0.69207
C_ C_ 0.399767 0.328512 0.886735 0.69661
C_ C_ 0.0653936 0.297906 0.57698 0.18167
C_ C_ 0.0174526 0.281404 0.55827 -0.15533
C_ C_ 0.00204523 0.281699 0.50571 0.02923
C_ C_ 0.0549279 0.297394 0.990781 -0.15533
C_ C_ 0.0819828 0.315228 0.490844 0.18167
C_ C_ 0.208244 0.260838 0.621168 0.18167
C_ C_ 0.23273 0.23364 0.663826 -0.15533
C_ C_ 0.231224 0.255383 0.712787 0.02923
C_ C_ 0.210312 0.308008 0.71929 -0.15533
C_ C_ 0.185374 0.332599 0.675933 0.18167
C_ C_ 0.238981 0.363344 0.541467 0.69207
C_ C_ 0.280067 0.373947 0.0119527 0.02923
C_ C_ 0.259654 0.364427 0.961683 -0.15533
C_ C_ 0.285028 0.373918 0.919475 -0.15533
C_ C_ 0.337364 0.385169 0.927568 0.02923
C_ C_ 0.356439 0.393715 0.977021 -0.15533
C_ C_ 0.329766 0.385048 0.021273 0.02923
C_ C_ 0.353134 0.381836 0.56602 0.69207
C_ C_ 0.342629 0.384269 0.829338 0.69661
C_ C_ 0.305356 0.437827 0.681561 0.18167
C_ C_ 0.268918 0.458659 0.713338 -0.15533
C_ C_ 0.279117 0.50021 0.747038 0.02923
C_ C_ 0.328817 0.0140043 0.747422 -0.15533
C_ C_ 0.362786 0.493603 0.72196 0.18167
C_ C_ 0.493308 0.361837 0.707785 0.18167
C_ C_ 0.0144399 0.302669 0.707562 -0.15533
C_ C_ 0.490019 0.277877 0.739093 0.02923
C_ C_ 0.441341 0.276624 0.713353 -0.15533
C_ C_ 0.417602 0.321551 0.691038 0.18167
C_ C_ 0.485659 0.454983 0.621656 0.69207
C_ C_ 0.0155891 0.981658 0.605767 0.02923
C_ C_ 0.00303174 0.0330302 0.619711 -0.15533
C_ C_ 0.0315747 0.0704457 0.611658 -0.15533
C_ C_ 0.0820707 0.0592897 0.59908 0.02923
C_ C_ 0.0979804 0.00557543 0.590049 -0.15533
C_ C_ 0.0675708 0.966395 0.596979 0.02923
C_ C_ 0.0925334 0.426446 0.594481 0.69207
C_ C_ 0.0976774 0.15074 0.587172 0.69661
C_ C_ 0.43519 0.181746 0.926687 0.18167
C_ C_ 0.478498 0.199459 0.953641 -0.15533
C_ C_ 0.474525 0.237523 0.992374 0.02923
C_ C_ 0.413107 0.254205 0.514705 -0.15533
C_ C_ 0.386317 0.221772 0.989493 0.18167
C_ C_ 0.259196 0.204321 0.84629 0.18167
C_ C_ 0.233073 0.230549 0.803307 -0.15533
C_ C_ 0.257129 0.225926 0.757951 0.02923
C_ C_ 0.309584 0.2051 0.759203 -0.15533
C_ C_ 0.33709 0.190536 0.807033 0.18167
C_ C_ 0.260847 0.121812 0.949755 0.69207
C_ C_ 0.22759 0.101028 0.493475 0.02923
C_ C_ 0.243977 0.10437 0.545249 -0.15533
C_ C_ 0.21293 0.0917908 0.583115 -0.15533
C_ C_ 0.16147 0.0819013 0.566994 0.02923
C_ C_ 0.148129 0.072443 0.513041 -0.15533
C_ C_ 0.178334 0.0873973 0.477502 0.02923
C_ C_ 0.149752 0.11822 0.928857 0.69207
C_ C_ 0.138918 0.102701 0.660166 0.69661
C_ C_ 0.371545 0.38233 0.88362 -0.30787
C_ C_ 0.119691 0.0982504 0.603096 -0.30787
N_ N_ 0.151723 0.061339 0.817494 -0.32189
N_ N_ 0.0574728 0.146033 0.81216 -0.32189
N_ N_ 0.0957493 0.314315 0.542077 -0.32189
N_ N_ 0.185075 0.309805 0.628702 -0.32189
N_ N_ 0.353009 0.45262 0.688449 -0.32189
N_ N_ 0.441914 0.364734 0.691219 -0.32189
N_ N_ 0.389965 0.192545 0.946123 -0.32189
N_ N_ 0.31134 0.189398 0.849251 -0.32189
O_ O_ 0.505651 0.0899378 0.895615 -0.63271
O_ O_ 0.0453804 0.0449563 0.846136 -0.57982
O_ O_ 0.391767 0.0942284 0.836862 -0.63271
O_ O_ 0.370795 0.092247 0.917125 -0.57982
O_ O_ 0.235866 0.394259 0.582805 -0.63271
O_ O_ 0.199066 0.336989 0.526694 -0.57982
O_ O_ 0.345685 0.344479 0.594686 -0.63271
O_ O_ 0.376735 0.42014 0.588279 -0.57982
O_ O_ 0.985816 0.409533 0.591901 -0.63271
O_ O_ 0.451785 0.469361 0.653143 -0.57982
O_ O_ 0.0948511 0.3999 0.635816 -0.63271
O_ O_ 0.121711 0.410512 0.558232 -0.57982
O_ O_ 0.260521 0.0918803 0.907849 -0.63271
O_ O_ 0.292929 0.155015 0.955864 -0.57982
O_ O_ 0.159797 0.154804 0.900281 -0.63271
O_ O_ 0.112907 0.089302 0.914065 -0.57982
F_ F_ 0.43213 0.326739 0.930193 -0.20885
F_ F_ 0.429444 0.313062 0.847581 -0.20885
F_ F_ 0.364773 0.292111 0.887099 -0.20885
F_ F_ 0.311942 0.427626 0.82334 -0.20885
F_ F_ 0.317897 0.341158 0.811323 -0.20885
F_ F_ 0.377333 0.385222 0.791964 -0.20885
F_ F_ 0.0696923 0.144677 0.539745 -0.20885
F_ F_ 0.0634381 0.176622 0.620519 -0.20885
F_ F_ 0.136839 0.181886 0.588614 -0.20885
F_ F_ 0.169172 0.0569485 0.674024 -0.20885
F_ F_ 0.166602 0.145508 0.672615 -0.20885
F_ F_ 0.104505 0.106811 0.694329 -0.20885
Zn Zn 0.0840736 0.583386 0.343102 0.83971
Zn Zn 0.158763 0.851003 0.088477 0.83971
Zn Zn 0.4072 0.912629 0.157477 0.83971
Zn Zn 0.340369 0.657975 0.418941 0.83971
H_ H_ 0.169048 0.625814 0.313033 0.10394
H_ H_ 0.250002 0.593189 0.277771 0.10394
H_ H_ 0.211064 0.939619 0.297904 0.10394
H_ H_ 0.133776 0.475485 0.321513 0.10394
H_ H_ 0.509421 0.595671 0.262789 0.10394
H_ H_ 0.481559 0.662295 0.205084 0.10394
H_ H_ 0.0229717 0.771231 0.323994 0.10394
H_ H_ 0.0710799 0.69986 0.37205 0.10394
H_ H_ 0.0250064 0.93564 0.34905 0.10394
H_ H_ 0.478162 0.873779 0.384717 0.10394
H_ H_ 0.351276 0.990088 0.405656 0.10394
H_ H_ 0.0755926 0.804541 0.134986 0.10394
H_ H_ 0.503755 0.766903 0.105966 0.10394
H_ H_ 0.0486191 0.775224 0.451058 0.10394
H_ H_ 0.115451 0.828383 0.985084 0.10394
H_ H_ 0.23672 0.761811 0.100614 0.10394
H_ H_ 0.273234 0.714184 0.169093 0.10394
H_ H_ 0.209032 0.8271 0.274253 0.10394
H_ H_ 0.168506 0.873235 0.196987 0.10394
H_ H_ 0.216634 0.867303 0.457431 0.10394
H_ H_ 0.265618 0.879151 0.38507 0.10394
H_ H_ 0.392069 0.911883 0.494102 0.10394
H_ H_ 0.310773 0.894914 0.164328 0.10394
H_ H_ 0.236635 0.933599 0.205296 0.10394
H_ H_ 0.331374 0.547853 0.273608 0.10394
H_ H_ 0.403139 0.00247727 0.237723 0.10394
H_ H_ 0.00526469 0.883713 0.195536 0.10394
H_ H_ 0.0493714 0.80374 0.236715 0.10394
H_ H_ 0.418929 0.738872 0.222836 0.10394
H_ H_ 0.374368 0.819321 0.195184 0.10394
H_ H_ 0.474377 0.549806 0.120217 0.10394
H_ H_ 0.0139932 0.62342 0.127195 0.10394
H_ H_ 0.142624 0.511311 0.0947537 0.10394
H_ H_ 0.44506 0.66612 0.394808 0.10394
H_ H_ 0.0182195 0.686815 0.449151 0.10394
H_ H_ 0.415961 0.7929 0.0479861 0.10394
H_ H_ 0.351352 0.722653 0.514566 0.10394
H_ H_ 0.229356 0.688159 0.375478 0.10394
H_ H_ 0.193435 0.723288 0.290551 0.10394
H_ H_ 0.343126 0.738519 0.258798 0.10394
H_ H_ 0.376968 0.701887 0.337974 0.10394
H_ H_ 0.279188 0.629846 0.0628309 0.10394
H_ H_ 0.223931 0.623794 0.124685 0.10394
H_ H_ 0.105104 0.582495 0.0155696 0.10394
C_ C_ 0.175726 0.585988 0.299536 0.18167
C_ C_ 0.222021 0.568717 0.281167 -0.15533
C_ C_ 0.233131 0.516034 0.270602 0.02923
C_ C_ 0.204046 0.981104 0.298751 -0.15533
C_ C_ 0.156487 0.501876 0.307285 0.18167
C_ C_ 0.0214156 0.633135 0.267376 0.18167
C_ C_ 0.507759 0.67079 0.23735 -0.15533
C_ C_ -0.000299525 0.724902 0.261258 0.02923
C_ C_ 0.0298253 0.733364 0.306208 -0.15533
C_ C_ 0.0538756 0.691349 0.333445 0.18167
C_ C_ 0.0048734 0.543913 0.37218 0.69207
C_ C_ 0.468136 0.00368215 0.363629 0.02923
C_ C_ 0.491139 0.95132 0.369308 -0.15533
C_ C_ 0.460611 0.913171 0.379901 -0.15533
C_ C_ 0.408802 0.926419 0.391073 0.02923
C_ C_ 0.390798 0.979633 0.394449 -0.15533
C_ C_ 0.421715 0.0184322 0.383451 0.02923
C_ C_ 0.39246 0.572542 0.381891 0.69207
C_ C_ 0.394772 0.828319 0.395528 0.69661
C_ C_ 0.0687084 0.802303 0.0930026 0.18167
C_ C_ 0.0246591 0.785494 0.0713228 -0.15533
C_ C_ 0.0106826 0.784218 0.0181098 0.02923
C_ C_ 0.0566312 0.780108 0.491333 -0.15533
C_ C_ 0.0893833 0.821399 0.00931581 0.18167
C_ C_ 0.232327 0.779029 0.136139 0.18167
C_ C_ 0.255373 0.751894 0.177496 -0.15533
C_ C_ 0.242956 0.767462 0.226724 0.02923
C_ C_ 0.214944 0.813465 0.235563 -0.15533
C_ C_ 0.192256 0.838323 0.192359 0.18167
C_ C_ 0.235009 0.883992 0.0406101 0.69207
C_ C_ 0.273423 0.884584 0.516708 0.02923
C_ C_ 0.254271 0.876494 0.464708 -0.15533
C_ C_ 0.282867 0.882958 0.424092 -0.15533
C_ C_ 0.333584 0.892071 0.433024 0.02923
C_ C_ 0.353803 0.899628 0.48411 -0.15533
C_ C_ 0.325987 0.892644 0.525722 0.02923
C_ C_ 0.34834 0.886419 0.0733998 0.69207
C_ C_ 0.341758 0.885072 0.336207 0.69661
C_ C_ 0.315009 0.929639 0.190274 0.18167
C_ C_ 0.27364 0.95147 0.212051 -0.15533
C_ C_ 0.276966 0.993218 0.246644 0.02923
C_ C_ 0.326242 0.513321 0.248809 -0.15533
C_ C_ 0.367039 0.989548 0.23331 0.18167
C_ C_ 0.495332 0.848951 0.195124 0.18167
C_ C_ 0.00868342 0.805395 0.219192 -0.15533
C_ C_ 0.493776 0.764555 0.225258 0.02923
C_ C_ 0.441385 0.770659 0.217393 -0.15533
C_ C_ 0.414836 0.814018 0.197279 0.18167
C_ C_ 0.485716 0.949669 0.121063 0.69207
C_ C_ 0.0220257 0.496176 0.11848 0.02923
C_ C_ 0.00409213 0.544869 0.126715 -0.15533
C_ C_ 0.0331095 0.584428 0.123047 -0.15533
C_ C_ 0.0852877 0.573934 0.116093 0.02923
C_ C_ 0.10497 0.521388 0.108166 -0.15533
C_ C_ 0.0724877 0.482249 0.109028 0.02923
C_ C_ 0.102219 0.934214 0.116853 0.69207
C_ C_ 0.094361 0.672694 0.111778 0.69661
C_ C_ 0.441823 0.687527 0.43111 0.18167
C_ C_ 0.482387 0.710721 0.457223 -0.15533
C_ C_ 0.475089 0.741409 0.502587 0.02923
C_ C_ 0.421343 0.76046 0.0204736 -0.15533
C_ C_ 0.38879 0.718209 0.498697 0.18167
C_ C_ 0.253443 0.693821 0.345923 0.18167
C_ C_ 0.232083 0.721159 0.30353 -0.15533
C_ C_ 0.26532 0.736448 0.271118 0.02923
C_ C_ 0.317723 0.734973 0.286741 -0.15533
C_ C_ 0.336692 0.712355 0.33144 0.18167
C_ C_ 0.261917 0.623612 0.453499 0.69207
C_ C_ 0.221835 0.61779 0.998468 0.02923
C_ C_ 0.239686 0.622593 0.0508798 -0.15533
C_ C_ 0.209298 0.61127 0.0896341 -0.15533
C_ C_ 0.15657 0.607592 0.0774195 0.02923
C_ C_ 0.140012 0.599824 0.0248799 -0.15533
C_ C_ 0.170049 0.606719 0.986118 0.02923
C_ C_ 0.148936 0.61191 0.422593 0.69207
C_ C_ 0.143834 0.615781 0.175987 0.69661
C_ C_ 0.369928 0.88499 0.390102 -0.30787
C_ C_ 0.120181 0.617749 0.118355 -0.30787
N_ N_ 0.143513 0.552374 0.310598 -0.32189
N_ N_ 0.0541519 0.642694 0.31023 -0.32189
N_ N_ 0.100248 0.820296 0.0603732 -0.32189
N_ N_ 0.200554 0.820379 0.145129 -0.32189
N_ N_ 0.360139 0.949582 0.198307 -0.32189
N_ N_ 0.442876 0.854215 0.190782 -0.32189
N_ N_ 0.395316 0.692878 0.452189 -0.32189
N_ N_ 0.306707 0.686259 0.356852 -0.32189
O_ O_ 0.50378 0.595465 0.392639 -0.63271
O_ O_ 0.042043 0.532586 0.342583 -0.57982
O_ O_ 0.391167 0.598305 0.342057 -0.63271
O_ O_ 0.368234 0.592177 0.420788 -0.57982
O_ O_ 0.245738 0.902078 0.0864229 -0.63271
O_ O_ 0.196475 0.855996 0.0323168 -0.57982
O_ O_ 0.347509 0.844049 0.0972192 -0.63271
O_ O_ 0.375377 0.921146 0.0941468 -0.57982
O_ O_ 0.993402 0.916533 0.0962082 -0.63271
O_ O_ 0.451523 0.9597 0.154588 -0.57982
O_ O_ 0.0922468 0.904621 0.153769 -0.63271
O_ O_ 0.14021 0.91853 0.0891612 -0.57982
O_ O_ 0.255541 0.604456 0.405842 -0.63271
O_ O_ 0.299677 0.650354 0.467273 -0.57982
O_ O_ 0.148709 0.654736 0.399692 -0.63271
O_ O_ 0.11374 0.582135 0.407934 -0.57982
F_ F_ 0.429796 0.827973 0.43783 -0.20885
F_ F_ 0.418182 0.806127 0.353343 -0.20885
F_ F_ 0.362445 0.793823 0.40369 -0.20885
F_ F_ 0.312856 0.928956 0.32873 -0.20885
F_ F_ 0.312355 0.847192 0.31968 -0.20885
F_ F_ 0.380311 0.880437 0.301949 -0.20885
F_ F_ 0.0627449 0.677842 0.069271 -0.20885
F_ F_ 0.0620145 0.694619 0.14764 -0.20885
F_ F_ 0.126868 0.710349 0.114952 -0.20885
F_ F_ 0.176063 0.569406 0.178929 -0.20885
F_ F_ 0.172332 0.655303 0.190139 -0.20885
F_ F_ 0.11154 0.618587 0.212005 -0.20885
Zn Zn 0.0908108 0.587381 0.851689 0.83971
Zn Zn 0.164673 0.84123 0.591158 0.83971
Zn Zn 0.41534 0.913522 0.65342 0.83971
Zn Zn 0.336344 0.655158 0.931571 0.83971
H_ H_ 0.178637 0.634635 0.821637 0.10394
H_ H_ 0.252485 0.602785 0.771936 0.10394
H_ H_ 0.210947 0.948782 0.785213 0.10394
H_ H_ 0.137821 0.485723 0.830025 0.10394
H_ H_ 0.522565 0.59265 0.748852 0.10394
H_ H_ 0.470966 0.664276 0.705026 0.10394
H_ H_ 0.0258049 0.771332 0.836002 0.10394
H_ H_ 0.0578604 0.694985 0.883374 0.10394
H_ H_ 0.0314033 0.953986 0.882826 0.10394
H_ H_ 0.487936 0.883097 0.898855 0.10394
H_ H_ 0.356666 0.990388 0.911804 0.10394
H_ H_ 0.0837327 0.807852 0.631961 0.10394
H_ H_ 0.503876 0.772089 0.602747 0.10394
H_ H_ 0.0311134 0.813406 0.947148 0.10394
H_ H_ 0.126272 0.816439 0.489537 0.10394
H_ H_ 0.217065 0.745382 0.614498 0.10394
H_ H_ 0.25864 0.707692 0.689441 0.10394
H_ H_ 0.22403 0.850083 0.775964 0.10394
H_ H_ 0.170574 0.880022 0.699042 0.10394
H_ H_ 0.220802 0.854739 0.941353 0.10394
H_ H_ 0.279133 0.856549 0.877072 0.10394
H_ H_ 0.391961 0.906859 0.99238 0.10394
H_ H_ 0.310461 0.890032 0.665517 0.10394
H_ H_ 0.238312 0.937718 0.701543 0.10394
H_ H_ 0.334092 0.553585 0.77039 0.10394
H_ H_ 0.408884 -0.00327235 0.733834 0.10394
H_ H_ 0.0012352 0.894879 0.721058 0.10394
H_ H_ 0.0530434 0.812118 0.751402 0.10394
H_ H_ 0.405884 0.74333 0.722224 0.10394
H_ H_ 0.375244 0.817622 0.670831 0.10394
H_ H_ 0.46036 0.556547 0.607358 0.10394
H_ H_ 0.021001 0.622656 0.610488 0.10394
H_ H_ 0.145011 0.505993 0.583459 0.10394
H_ H_ 0.447097 0.638208 0.938124 0.10394
H_ H_ 0.0235839 0.698733 0.95641 0.10394
H_ H_ 0.420981 0.770044 0.555825 0.10394
H_ H_ 0.344974 0.743486 0.0073197 0.10394
H_ H_ 0.228432 0.705233 0.896124 0.10394
H_ H_ 0.190187 0.745106 0.818176 0.10394
H_ H_ 0.338993 0.742602 0.770525 0.10394
H_ H_ 0.371477 0.686784 0.841558 0.10394
H_ H_ 0.28561 0.613844 0.551252 0.10394
H_ H_ 0.237108 0.583229 0.61904 0.10394
H_ H_ 0.105625 0.607274 0.509239 0.10394
C_ C_ 0.182814 0.594512 0.810248 0.18167
C_ C_ 0.226074 0.576668 0.786532 -0.15533
C_ C_ 0.238436 0.525827 0.779636 0.02923
C_ C_ 0.205056 0.990478 0.787795 -0.15533
C_ C_ 0.163453 0.510788 0.819434 0.18167
C_ C_ 0.03467 0.633505 0.767721 0.18167
C_ C_ 0.496416 0.669871 0.739961 -0.15533
C_ C_ 0.0101613 0.722614 0.764231 0.02923
C_ C_ 0.0302914 0.731019 0.814977 -0.15533
C_ C_ 0.0453052 0.688403 0.842507 0.18167
C_ C_ 0.0117178 0.545455 0.864445 0.69207
C_ C_ 0.472847 0.00689076 0.873005 0.02923
C_ C_ 0.49456 0.95653 0.874338 -0.15533
C_ C_ 0.467128 0.918864 0.886722 -0.15533
C_ C_ 0.414432 0.928354 0.892513 0.02923
C_ C_ 0.393279 0.980363 0.897475 -0.15533
C_ C_ 0.422753 0.0208243 0.886692 0.02923
C_ C_ 0.387024 0.569386 0.885478 0.69207
C_ C_ 0.405768 0.829279 0.887147 0.69661
C_ C_ 0.0744596 0.796505 0.593235 0.18167
C_ C_ 0.0264073 0.784604 0.574465 -0.15533
C_ C_ 0.0206232 0.768408 0.521863 0.02923
C_ C_ 0.0428518 0.804212 0.986332 -0.15533
C_ C_ 0.104165 0.795806 0.511276 0.18167
C_ C_ 0.217627 0.766966 0.650311 0.18167
C_ C_ 0.239325 0.744788 0.695245 -0.15533
C_ C_ 0.244447 0.775628 0.742585 0.02923
C_ C_ 0.221092 0.825911 0.743208 -0.15533
C_ C_ 0.190401 0.842802 0.698614 0.18167
C_ C_ 0.242327 0.870045 0.555579 0.69207
C_ C_ 0.273759 0.875376 0.0054915 0.02923
C_ C_ 0.258973 0.865978 0.95317 -0.15533
C_ C_ 0.292099 0.867067 0.916976 -0.15533
C_ C_ 0.339144 0.887499 0.928139 0.02923
C_ C_ 0.354729 0.896762 0.981408 -0.15533
C_ C_ 0.325124 0.888933 0.0214127 0.02923
C_ C_ 0.356532 0.884465 0.574366 0.69207
C_ C_ 0.350386 0.889584 0.829083 0.69661
C_ C_ 0.31639 0.926672 0.683645 0.18167
C_ C_ 0.275866 0.953409 0.70664 -0.15533
C_ C_ 0.280311 0.996465 0.739548 0.02923
C_ C_ 0.324645 0.521529 0.74439 -0.15533
C_ C_ 0.370286 0.983943 0.728619 0.18167
C_ C_ 0.49518 0.846679 0.703992 0.18167
C_ C_ 0.0135679 0.811564 0.733747 -0.15533
C_ C_ 0.480859 0.763985 0.732027 0.02923
C_ C_ 0.430383 0.772202 0.713403 -0.15533
C_ C_ 0.412854 0.815841 0.689728 0.18167
C_ C_ 0.491339 0.946829 0.617409 0.69207
C_ C_ 0.0209488 0.492445 0.60642 0.02923
C_ C_ 1.00587935 0.544715 0.615156 -0.15533
C_ C_ 0.0395833 0.583581 0.611678 -0.15533
C_ C_ 0.0893146 0.571264 0.599558 0.02923
C_ C_ 0.103799 0.518405 0.590447 -0.15533
C_ C_ 0.071762 0.480019 0.597216 0.02923
C_ C_ 0.0939247 0.91633 0.606014 0.69207
C_ C_ 0.106814 0.66661 0.604187 0.69661
C_ C_ 0.438649 0.675727 0.95408 0.18167
C_ C_ 0.478939 0.697966 0.977739 -0.15533
C_ C_ 0.469664 0.743036 0.00914889 0.02923
C_ C_ 0.429875 0.742867 0.525712 -0.15533
C_ C_ 0.382674 0.72892 1.00148 0.18167
C_ C_ 0.252013 0.702693 0.864697 0.18167
C_ C_ 0.231725 0.731414 0.822213 -0.15533
C_ C_ 0.264079 0.748127 0.790685 0.02923
C_ C_ 0.31629 0.735074 0.798546 -0.15533
C_ C_ 0.334097 0.702478 0.838657 0.18167
C_ C_ 0.257839 0.628386 0.962769 0.69207
C_ C_ 0.227274 0.612838 0.49021 0.02923
C_ C_ 0.246671 0.608928 0.542658 -0.15533
C_ C_ 0.218368 0.593165 0.579294 -0.15533
C_ C_ 0.166406 0.598246 0.568328 0.02923
C_ C_ 0.145273 0.599074 0.516216 -0.15533
C_ C_ 0.175429 0.60834 0.47684 0.02923
C_ C_ 0.14357 0.609783 0.935361 0.69207
C_ C_ 0.150877 0.609074 0.667287 0.69661
C_ C_ 0.377874 0.884166 0.885055 -0.30787
C_ C_ 0.12968 0.610241 0.609291 -0.30787
N_ N_ 0.148814 0.562887 0.822677 -0.32189
N_ N_ 0.0525649 0.642063 0.816044 -0.32189
N_ N_ 0.113142 0.800315 0.563524 -0.32189
N_ N_ 0.193423 0.814296 0.653661 -0.32189
N_ N_ 0.364175 0.94355 0.695086 -0.32189
N_ N_ 0.444431 0.853737 0.68671 -0.32189
N_ N_ 0.389703 0.692664 0.962515 -0.32189
N_ N_ 0.303529 0.687041 0.870002 -0.32189
O_ O_ 0.496335 0.591242 0.880378 -0.63271
O_ O_ 0.0488043 0.534282 0.835845 -0.57982
O_ O_ 0.38787 0.598 0.8463 -0.63271
O_ O_ 0.365015 0.588905 0.926633 -0.57982
O_ O_ 0.240223 0.898012 0.598296 -0.63271
O_ O_ 0.213669 0.832333 0.546049 -0.57982
O_ O_ 0.374965 0.839255 0.588857 -0.63271
O_ O_ 0.380232 0.922014 0.595221 -0.57982
O_ O_ 0.981565 0.898443 0.590677 -0.63271
O_ O_ 0.46413 0.955336 0.656337 -0.57982
O_ O_ 0.093827 0.895736 0.650812 -0.63271
O_ O_ 0.13047 0.902438 0.577298 -0.57982
O_ O_ 0.254067 0.607759 0.916698 -0.63271
O_ O_ 0.294688 0.656207 0.977223 -0.57982
O_ O_ 0.144792 0.648406 0.907866 -0.63271
O_ O_ 0.113057 0.57632 0.918255 -0.57982
F_ F_ 0.436355 0.825906 0.932614 -0.20885
F_ F_ 0.436748 0.817554 0.847852 -0.20885
F_ F_ 0.373193 0.789935 0.883835 -0.20885
F_ F_ 0.310565 0.927427 0.826597 -0.20885
F_ F_ 0.33161 0.847126 0.803471 -0.20885
F_ F_ 0.379438 0.902682 0.794284 -0.20885
F_ F_ 0.0778766 0.677172 0.559829 -0.20885
F_ F_ 0.0743046 0.68517 0.63984 -0.20885
F_ F_ 0.147632 0.694839 0.606568 -0.20885
F_ F_ 0.17033 0.559698 0.6758 -0.20885
F_ F_ 0.189253 0.641361 0.677348 -0.20885
F_ F_ 0.117326 0.625638 0.702604 -0.20885
Zn Zn 0.583912 0.0802369 0.345564 0.83971
Zn Zn 0.664087 0.338383 0.0774247 0.83971
Zn Zn 0.910712 0.423688 0.159896 0.83971
Zn Zn 0.841226 0.147092 0.410945 0.83971
H_ H_ 0.667043 0.129795 0.301971 0.10394
H_ H_ 0.742816 0.102838 0.263535 0.10394
H_ H_ 0.716211 0.44356 0.290762 0.10394
H_ H_ 0.637467 0.980307 0.328226 0.10394
H_ H_ 0.0325493 0.0999614 0.25292 0.10394
H_ H_ 0.980894 0.179308 0.210813 0.10394
H_ H_ 0.524367 0.266548 0.333434 0.10394
H_ H_ 0.579921 0.195381 0.374686 0.10394
H_ H_ 0.535486 0.452149 0.376113 0.10394
H_ H_ 0.979401 0.373173 0.386198 0.10394
H_ H_ 0.855957 0.484984 0.418884 0.10394
H_ H_ 0.586676 0.299407 0.127556 0.10394
H_ H_ 1.00641805 0.271485 0.0994585 0.10394
H_ H_ 0.523748 0.289885 0.444094 0.10394
H_ H_ 0.621182 0.315784 0.975611 0.10394
H_ H_ 0.705127 0.23574 0.0889268 0.10394
H_ H_ 0.750682 0.191938 0.169058 0.10394
H_ H_ 0.721437 0.331275 0.257025 0.10394
H_ H_ 0.692845 0.376961 0.179548 0.10394
H_ H_ 0.715563 0.358892 0.438513 0.10394
H_ H_ 0.769729 0.377157 0.373088 0.10394
H_ H_ 0.898242 0.393978 0.487577 0.10394
H_ H_ 0.808592 0.402575 0.163879 0.10394
H_ H_ 0.738836 0.444583 0.20825 0.10394
H_ H_ 0.832263 0.0326215 0.28985 0.10394
H_ H_ 0.904758 0.514079 0.231533 0.10394
H_ H_ 0.509327 0.382018 0.197882 0.10394
H_ H_ 0.553472 0.307624 0.244178 0.10394
H_ H_ 0.917 0.250235 0.223716 0.10394
H_ H_ 0.876461 0.327564 0.186085 0.10394
H_ H_ 0.962898 0.0625106 0.130232 0.10394
H_ H_ 0.512414 0.114286 0.0953093 0.10394
H_ H_ 0.638907 0.00390822 0.0763941 0.10394
H_ H_ 0.950007 0.149699 0.395951 0.10394
H_ H_ 0.506396 0.19495 0.44763 0.10394
H_ H_ 0.925638 0.28115 0.0522723 0.10394
H_ H_ 0.841455 0.227213 0.482158 0.10394
H_ H_ 0.73474 0.191769 0.377844 0.10394
H_ H_ 0.703015 0.25224 0.309106 0.10394
H_ H_ 0.838845 0.214656 0.238731 0.10394
H_ H_ 0.87981 0.173804 0.3163 0.10394
H_ H_ 0.782665 0.137362 0.05737 0.10394
H_ H_ 0.732584 0.103498 0.120179 0.10394
H_ H_ 0.614065 0.0856894 0.0030491 0.10394
C_ C_ 0.674797 0.0900564 0.294744 0.18167
C_ C_ 0.718462 0.0718238 0.273391 -0.15533
C_ C_ 0.731725 0.0173796 0.267359 0.02923
C_ C_ 0.704661 0.483295 0.295628 -0.15533
C_ C_ 0.657542 0.00602169 0.307444 0.18167
C_ C_ 0.532543 0.132768 0.269254 0.18167
C_ C_ 0.00512735 0.181389 0.247037 -0.15533
C_ C_ 0.507913 0.222026 0.26396 0.02923
C_ C_ 0.526982 0.229785 0.314464 -0.15533
C_ C_ 0.554815 0.18883 0.339322 0.18167
C_ C_ 0.505793 0.0407755 0.352465 0.69207
C_ C_ 0.972839 0.503051 0.383701 0.02923
C_ C_ 0.99247 0.451447 0.378109 -0.15533
C_ C_ 0.963162 0.412507 0.387053 -0.15533
C_ C_ 0.911984 0.424808 0.395097 0.02923
C_ C_ 0.893346 0.476513 0.40654 -0.15533
C_ C_ 0.923443 0.51642 0.401439 0.02923
C_ C_ 0.899123 0.0623976 0.38228 0.69207
C_ C_ 0.895397 0.330608 0.364497 0.69661
C_ C_ 0.575101 0.29685 0.0846103 0.18167
C_ C_ 0.530746 0.277434 0.0676567 -0.15533
C_ C_ 0.517495 0.267988 0.0140557 0.02923
C_ C_ 0.534912 0.294224 0.485038 -0.15533
C_ C_ 0.595235 0.304688 0.00101642 0.18167
C_ C_ 0.713546 0.256779 0.126632 0.18167
C_ C_ 0.736476 0.233047 0.170629 -0.15533
C_ C_ 0.743303 0.260868 0.217951 0.02923
C_ C_ 0.722958 0.311613 0.221151 -0.15533
C_ C_ 0.700105 0.335014 0.177361 0.18167
C_ C_ 0.740963 0.37097 0.0464828 0.69207
C_ C_ 0.772597 0.370368 0.501894 0.02923
C_ C_ 0.755239 0.361969 0.449072 -0.15533
C_ C_ 0.785967 0.37398 0.412075 -0.15533
C_ C_ 0.83866 0.383291 0.423437 0.02923
C_ C_ 0.85715 0.386857 0.475297 -0.15533
C_ C_ 0.823694 0.385141 0.514175 0.02923
C_ C_ 0.851978 0.395404 0.076299 0.69207
C_ C_ 0.841512 0.402581 0.327615 0.69661
C_ C_ 0.81686 0.436105 0.189567 0.18167
C_ C_ 0.775872 0.459389 0.214246 -0.15533
C_ C_ 0.780177 0.501288 0.249719 0.02923
C_ C_ 0.826186 0.0100406 0.253702 -0.15533
C_ C_ 0.867377 0.501119 0.224765 0.18167
C_ C_ 0.992498 0.358902 0.208755 0.18167
C_ C_ 0.51326 0.308068 0.22861 -0.15533
C_ C_ 0.987981 0.277858 0.243433 0.02923
C_ C_ 0.937129 0.281289 0.221664 -0.15533
C_ C_ 0.913678 0.326429 0.201269 0.18167
C_ C_ 0.988666 0.457705 0.129267 0.69207
C_ C_ 0.519392 0.989379 0.112651 0.02923
C_ C_ 0.500689 0.0399225 0.107861 -0.15533
C_ C_ 0.532252 0.078277 0.100974 -0.15533
C_ C_ 0.582459 0.0679126 0.0901684 0.02923
C_ C_ 0.600978 0.0153867 0.0889159 -0.15533
C_ C_ 0.57211 0.97713 0.10158 0.02923
C_ C_ 0.602728 0.416824 0.103388 0.69207
C_ C_ 0.600219 0.16169 0.10372 0.69661
C_ C_ 0.943077 0.173944 0.428957 0.18167
C_ C_ 0.98113 0.200037 0.45505 -0.15533
C_ C_ 0.965942 0.245141 0.486103 0.02923
C_ C_ 0.934117 0.249711 0.0196152 -0.15533
C_ C_ 0.880304 0.2258 0.471168 0.18167
C_ C_ 0.758938 0.196964 0.347488 0.18167
C_ C_ 0.735912 0.224641 0.303755 -0.15533
C_ C_ 0.764579 0.23402 0.265208 0.02923
C_ C_ 0.816738 0.213021 0.269884 -0.15533
C_ C_ 0.83796 0.186394 0.313176 0.18167
C_ C_ 0.758977 0.119095 0.447777 0.69207
C_ C_ 0.727814 0.129172 0.993215 0.02923
C_ C_ 0.745793 0.127409 0.0449627 -0.15533
C_ C_ 0.715981 0.109855 0.0829697 -0.15533
C_ C_ 0.666204 0.101069 0.0673647 0.02923
C_ C_ 0.650861 0.0952431 0.0156421 -0.15533
C_ C_ 0.680329 0.111235 0.978308 0.02923
C_ C_ 0.64697 0.106043 0.424138 0.69207
C_ C_ 0.645959 0.098567 0.15909 0.69661
C_ C_ 0.871913 0.386288 0.378054 -0.30787
C_ C_ 0.621921 0.106602 0.103409 -0.30787
N_ N_ 0.643868 0.0577288 0.310355 -0.32189
N_ N_ 0.557735 0.140784 0.315715 -0.32189
N_ N_ 0.609647 0.301766 0.0514624 -0.32189
N_ N_ 0.69614 0.305653 0.132525 -0.32189
N_ N_ 0.861436 0.456552 0.193949 -0.32189
N_ N_ 0.942889 0.364212 0.194636 -0.32189
N_ N_ 0.894049 0.188776 0.435246 -0.32189
N_ N_ 0.808409 0.176922 0.349334 -0.32189
O_ O_ 0.0106742 0.0729517 0.404085 -0.63271
O_ O_ 0.543363 0.0296987 0.327329 -0.57982
O_ O_ 0.90202 0.0909067 0.344008 -0.63271
O_ O_ 0.870442 0.0818614 0.417009 -0.57982
O_ O_ 0.742707 0.389268 0.0929456 -0.63271
O_ O_ 0.706945 0.340336 0.0318944 -0.57982
O_ O_ 0.854613 0.352729 0.101126 -0.63271
O_ O_ 0.879407 0.432345 0.0970862 -0.57982
O_ O_ 0.502293 0.402623 0.10706 -0.63271
O_ O_ 0.956052 0.464772 0.162779 -0.57982
O_ O_ 0.606709 0.391058 0.142154 -0.63271
O_ O_ 0.632548 0.399919 0.0683376 -0.57982
O_ O_ 0.757559 0.0963213 0.401302 -0.63271
O_ O_ 0.791341 0.154552 0.458275 -0.57982
O_ O_ 0.651843 0.142186 0.392385 -0.63271
O_ O_ 0.612309 0.0742937 0.409333 -0.57982
F_ F_ 0.928453 0.308763 0.399107 -0.20885
F_ F_ 0.91866 0.329069 0.321015 -0.20885
F_ F_ 0.857411 0.297899 0.35855 -0.20885
F_ F_ 0.808865 0.446638 0.336416 -0.20885
F_ F_ 0.81149 0.367066 0.302072 -0.20885
F_ F_ 0.871389 0.416001 0.292905 -0.20885
F_ F_ 0.577397 0.175142 0.0561341 -0.20885
F_ F_ 0.563349 0.172737 0.136405 -0.20885
F_ F_ 0.633746 0.198194 0.119047 -0.20885
F_ F_ 0.680505 0.0550457 0.162489 -0.20885
F_ F_ 0.672723 0.135362 0.182396 -0.20885
F_ F_ 0.607042 0.09312 0.189941 -0.20885
Zn Zn 0.589558 0.0902423 0.849089 0.83971
Zn Zn 0.654352 0.349396 0.582936 0.83971
Zn Zn 0.908181 0.418867 0.645867 0.83971
Zn Zn 0.842085 0.167245 0.920034 0.83971
H_ H_ 0.665591 0.136695 0.801068 0.10394
H_ H_ 0.747958 0.103185 0.776276 0.10394
H_ H_ 0.711861 0.447779 0.780979 0.10394
H_ H_ 0.629009 0.988275 0.824229 0.10394
H_ H_ 0.0284512 0.101027 0.747192 0.10394
H_ H_ 0.98575 0.17106 0.703814 0.10394
H_ H_ 0.53872 0.275817 0.831717 0.10394
H_ H_ 0.575181 0.204576 0.880399 0.10394
H_ H_ 0.518562 0.446173 0.844426 0.10394
H_ H_ 0.980809 0.383461 0.884422 0.10394
H_ H_ 0.852352 0.492183 0.887258 0.10394
H_ H_ 0.570447 0.311239 0.630331 0.10394
H_ H_ -0.004218999999999973 0.264472 0.584024 0.10394
H_ H_ 0.534705 0.293894 0.937845 0.10394
H_ H_ 0.605807 0.32325 0.477779 0.10394
H_ H_ 0.728093 0.259026 0.595244 0.10394
H_ H_ 0.754992 0.20359 0.667495 0.10394
H_ H_ 0.703211 0.331974 0.764669 0.10394
H_ H_ 0.668742 0.379567 0.691478 0.10394
H_ H_ 0.71529 0.380369 0.945339 0.10394
H_ H_ 0.762414 0.404893 0.882985 0.10394
H_ H_ 0.894565 0.408205 0.991907 0.10394
H_ H_ 0.801066 0.400103 0.661484 0.10394
H_ H_ 0.731463 0.451887 0.69294 0.10394
H_ H_ 0.827918 0.0551634 0.775948 0.10394
H_ H_ 0.903271 0.504885 0.726836 0.10394
H_ H_ 0.513633 0.389131 0.695647 0.10394
H_ H_ 0.559431 0.32174 0.748118 0.10394
H_ H_ 0.911976 0.263431 0.745992 0.10394
H_ H_ 0.869578 0.333056 0.688906 0.10394
H_ H_ 0.964852 0.0435742 0.624789 0.10394
H_ H_ 0.516465 0.11739 0.592191 0.10394
H_ H_ 0.651221 0.00954256 0.60039 0.10394
H_ H_ 0.943603 0.180276 0.890567 0.10394
H_ H_ 0.514578 0.197015 0.937722 0.10394
H_ H_ 0.902732 0.282197 0.526794 0.10394
H_ H_ 0.865153 0.217499 0.0209367 0.10394
H_ H_ 0.737622 0.221062 0.897597 0.10394
H_ H_ 0.689945 0.256302 0.822626 0.10394
H_ H_ 0.829191 0.230474 0.744604 0.10394
H_ H_ 0.873386 0.187588 0.823717 0.10394
H_ H_ 0.783136 0.125465 0.549215 0.10394
H_ H_ 0.738632 0.100577 0.615963 0.10394
H_ H_ 0.606269 0.0965655 0.510145 0.10394
C_ C_ 0.676147 0.0963299 0.800493 0.18167
C_ C_ 0.721563 0.0765505 0.78355 -0.15533
C_ C_ 0.732451 0.0252089 0.775698 0.02923
C_ C_ 0.70753 0.485975 0.794901 -0.15533
C_ C_ 0.651658 0.013254 0.805872 0.18167
C_ C_ 0.534916 0.140623 0.776078 0.18167
C_ C_ 0.00378426 0.178561 0.741504 -0.15533
C_ C_ 0.512169 0.232255 0.767363 0.02923
C_ C_ 0.536766 0.237947 0.814868 -0.15533
C_ C_ 0.557758 0.196628 0.842986 0.18167
C_ C_ 0.505449 0.0497288 0.864614 0.69207
C_ C_ 0.974722 0.507249 0.869504 0.02923
C_ C_ 0.991633 0.454901 0.864545 -0.15533
C_ C_ 0.959462 0.417201 0.872303 -0.15533
C_ C_ 0.912019 0.429364 0.889 0.02923
C_ C_ 0.892096 0.481596 0.88479 -0.15533
C_ C_ 0.921519 0.521851 0.880902 0.02923
C_ C_ 0.894707 0.0819717 0.885819 0.69207
C_ C_ 0.89865 0.334875 0.901635 0.69661
C_ C_ 0.561691 0.303283 0.589827 0.18167
C_ C_ 0.51199 0.289524 0.570861 -0.15533
C_ C_ 0.502369 0.277996 0.518097 0.02923
C_ C_ 0.546987 0.288864 0.980006 -0.15533
C_ C_ 0.579982 0.316743 0.505188 0.18167
C_ C_ 0.715867 0.270634 0.632079 0.18167
C_ C_ 0.734309 0.240086 0.674172 -0.15533
C_ C_ 0.727502 0.262547 0.723747 0.02923
C_ C_ 0.703687 0.312772 0.726554 -0.15533
C_ C_ 0.683674 0.339548 0.685707 0.18167
C_ C_ 0.737575 0.365612 0.541588 0.69207
C_ C_ 0.775109 0.383685 1.0100029 0.02923
C_ C_ 0.751916 0.391867 0.959109 -0.15533
C_ C_ 0.783371 0.397082 0.920239 -0.15533
C_ C_ 0.835434 0.399841 0.931253 0.02923
C_ C_ 0.856794 0.397626 0.982773 -0.15533
C_ C_ 0.826178 0.398121 0.0223437 0.02923
C_ C_ 0.845495 0.388284 0.566706 0.69207
C_ C_ 0.848167 0.380125 0.833026 0.69661
C_ C_ 0.808986 0.436516 0.681323 0.18167
C_ C_ 0.768241 0.463352 0.705582 -0.15533
C_ C_ 0.775606 0.503634 0.740189 0.02923
C_ C_ 0.822388 0.024074 0.750727 -0.15533
C_ C_ 0.866141 0.492513 0.723848 0.18167
C_ C_ 0.992354 0.346282 0.681289 0.18167
C_ C_ 0.519004 0.319798 0.733027 -0.15533
C_ C_ 0.98313 0.275271 0.732166 0.02923
C_ C_ 0.932161 0.286997 0.724988 -0.15533
C_ C_ 0.910827 0.327115 0.696495 0.18167
C_ C_ 0.987288 0.453872 0.617158 0.69207
C_ C_ 0.525793 0.988252 0.606472 0.02923
C_ C_ 0.506689 0.0401177 0.608344 -0.15533
C_ C_ 0.535559 0.0793457 0.599917 -0.15533
C_ C_ 0.589424 0.0695623 0.600901 0.02923
C_ C_ 0.611115 0.0181299 0.602642 -0.15533
C_ C_ 0.579054 0.97749 0.60867 0.02923
C_ C_ 0.593087 0.427276 0.609058 0.69207
C_ C_ 0.598652 0.167517 0.605079 0.69661
C_ C_ 0.943086 0.199492 0.926295 0.18167
C_ C_ 0.987273 0.219613 0.953236 -0.15533
C_ C_ 0.979448 0.249437 -0.0020625 0.02923
C_ C_ 0.916084 0.255628 0.497134 -0.15533
C_ C_ 0.896624 0.219006 0.998796 0.18167
C_ C_ 0.758502 0.218367 0.863427 0.18167
C_ C_ 0.730156 0.238475 0.818835 -0.15533
C_ C_ 0.755638 0.240436 0.773173 0.02923
C_ C_ 0.807793 0.226764 0.776877 -0.15533
C_ C_ 0.834324 0.207091 0.823176 0.18167
C_ C_ 0.764691 0.138881 0.956486 0.69207
C_ C_ 0.724305 0.110958 0.487047 0.02923
C_ C_ 0.742899 0.12011 0.53834 -0.15533
C_ C_ 0.715922 0.11224 0.580417 -0.15533
C_ C_ 0.66468 0.103945 0.568111 0.02923
C_ C_ 0.644082 0.102346 0.517914 -0.15533
C_ C_ 0.671602 0.106482 0.476013 0.02923
C_ C_ 0.658946 0.109132 0.924227 0.69207
C_ C_ 0.648805 0.112547 0.665979 0.69661
C_ C_ 0.873745 0.389779 0.889098 -0.30787
C_ C_ 0.626118 0.112975 0.609239 -0.30787
N_ N_ 0.640568 0.0644914 0.812978 -0.32189
N_ N_ 0.558286 0.149585 0.822326 -0.32189
N_ N_ 0.596035 0.315 0.557059 -0.32189
N_ N_ 0.688393 0.318009 0.639164 -0.32189
N_ N_ 0.856479 0.450308 0.689705 -0.32189
N_ N_ 0.941473 0.356253 0.673038 -0.32189
N_ N_ 0.898155 0.199093 0.950448 -0.32189
N_ N_ 0.807926 0.19938 0.86291 -0.32189
O_ O_ 0.00525344 0.094695 0.901972 -0.63271
O_ O_ 0.543765 0.0427452 0.838469 -0.57982
O_ O_ 0.88099 0.103873 0.843967 -0.63271
O_ O_ 0.874218 0.102905 0.927743 -0.57982
O_ O_ 0.741335 0.392947 0.584662 -0.63271
O_ O_ 0.698667 0.337566 0.534962 -0.57982
O_ O_ 0.84776 0.347549 0.594058 -0.63271
O_ O_ 0.877974 0.422326 0.582447 -0.57982
O_ O_ 0.486477 0.408451 0.600101 -0.63271
O_ O_ 0.951265 0.465843 0.647172 -0.57982
O_ O_ 0.586337 0.40124 0.646477 -0.63271
O_ O_ 0.628339 0.413994 0.58124 -0.57982
O_ O_ 0.760237 0.115299 0.911014 -0.63271
O_ O_ 0.797309 0.173925 0.965816 -0.57982
O_ O_ 0.654092 0.151255 0.900633 -0.63271
O_ O_ 0.623895 0.0788248 0.909604 -0.57982
F_ F_ 0.932497 0.337776 0.943258 -0.20885
F_ F_ 0.928038 0.310255 0.863716 -0.20885
F_ F_ 0.865767 0.301082 0.914242 -0.20885
F_ F_ 0.81273 0.421476 0.820413 -0.20885
F_ F_ 0.821244 0.336976 0.825574 -0.20885
F_ F_ 0.882408 0.375678 0.796561 -0.20885
F_ F_ 0.569213 0.17473 0.560363 -0.20885
F_ F_ 0.565829 0.184993 0.640855 -0.20885
F_ F_ 0.632071 0.20415 0.608366 -0.20885
F_ F_ 0.676634 0.0660668 0.672652 -0.20885
F_ F_ 0.684364 0.148562 0.674562 -0.20885
F_ F_ 0.612881 0.120063 0.700035 -0.20885
Zn Zn 0.589287 0.584133 0.348852 0.83971
Zn Zn 0.662288 0.845845 0.0834325 0.83971
Zn Zn 0.913565 0.917491 0.152571 0.83971
Zn Zn 0.842688 0.654088 0.423552 0.83971
H_ H_ 0.667471 0.629836 0.305824 0.10394
H_ H_ 0.74747 0.5958 0.275799 0.10394
H_ H_ 0.704791 0.945863 0.277821 0.10394
H_ H_ 0.629676 0.477989 0.321 0.10394
H_ H_ 0.0096202 0.595548 0.260029 0.10394
H_ H_ 0.976124 0.669016 0.204669 0.10394
H_ H_ 0.550729 0.768768 0.311506 0.10394
H_ H_ 0.597727 0.696454 0.357858 0.10394
H_ H_ 0.531712 0.941567 0.367346 0.10394
H_ H_ 0.973292 0.869529 0.360943 0.10394
H_ H_ 0.851076 0.983111 0.39304 0.10394
H_ H_ 0.59193 0.791077 0.134559 0.10394
H_ H_ 1.00053 0.770343 0.0958897 0.10394
H_ H_ 0.538972 0.793249 0.447799 0.10394
H_ H_ 0.604018 0.832937 0.981476 0.10394
H_ H_ 0.728159 0.753287 0.0971834 0.10394
H_ H_ 0.759385 0.699824 0.167966 0.10394
H_ H_ 0.723144 0.830986 0.271063 0.10394
H_ H_ 0.678165 0.876806 0.193744 0.10394
H_ H_ 0.708779 0.883479 0.450555 0.10394
H_ H_ 0.760362 0.881417 0.380112 0.10394
H_ H_ 0.895163 0.900878 0.488257 0.10394
H_ H_ 0.814239 0.898426 0.157541 0.10394
H_ H_ 0.733651 0.944748 0.188432 0.10394
H_ H_ 0.837976 0.552142 0.280308 0.10394
H_ H_ 0.902612 0.996431 0.240445 0.10394
H_ H_ 0.514215 0.880287 0.192519 0.10394
H_ H_ 0.563563 0.80151 0.224014 0.10394
H_ H_ 0.900554 0.749305 0.233739 0.10394
H_ H_ 0.863994 0.82385 0.184357 0.10394
H_ H_ 0.964381 0.554323 0.134595 0.10394
H_ H_ 0.527867 0.612843 0.105947 0.10394
H_ H_ 0.658781 0.499388 0.0961253 0.10394
H_ H_ 0.94096 0.656468 0.398568 0.10394
H_ H_ 0.518266 0.705647 0.438348 0.10394
H_ H_ 0.907509 0.784734 0.0407454 0.10394
H_ H_ 0.85193 0.733445 0.507613 0.10394
H_ H_ 0.740296 0.711725 0.396968 0.10394
H_ H_ 0.700819 0.7424 0.315972 0.10394
H_ H_ 0.83744 0.711825 0.245752 0.10394
H_ H_ 0.876034 0.673812 0.327783 0.10394
H_ H_ 0.793538 0.596487 0.0504737 0.10394
H_ H_ 0.738515 0.575356 0.112172 0.10394
H_ H_ 0.608244 0.584656 0.00582624 0.10394
C_ C_ 0.679665 0.588387 0.30566 0.18167
C_ C_ 0.724184 0.569224 0.286811 -0.15533
C_ C_ 0.73749 0.517829 0.281259 0.02923
C_ C_ 0.698612 0.98581 0.283581 -0.15533
C_ C_ 0.657541 0.503397 0.312867 0.18167
C_ C_ 0.524678 0.631452 0.270204 0.18167
C_ C_ -0.0021740000000000093 0.67569 0.241807 -0.15533
C_ C_ 0.521001 0.719444 0.250641 0.02923
C_ C_ 0.550903 0.729832 0.29759 -0.15533
C_ C_ 0.568987 0.690148 0.327873 0.18167
C_ C_ 0.510395 0.549248 0.372871 0.69207
C_ C_ 0.972414 -0.002819000000000016 0.369843 0.02923
C_ C_ -0.011167000000000038 0.945578 0.363129 -0.15533
C_ C_ 0.956403 0.906743 0.368884 -0.15533
C_ C_ 0.90834 0.91952 0.385187 0.02923
C_ C_ 0.890708 0.972043 0.389429 -0.15533
C_ C_ 0.921745 0.00991229 0.383525 0.02923
C_ C_ 0.897685 0.567812 0.395975 0.69207
C_ C_ 0.894633 0.825281 0.388989 0.69661
C_ C_ 0.579018 0.790781 0.0934502 0.18167
C_ C_ 0.531691 0.77307 0.0769062 -0.15533
C_ C_ 0.512964 0.773163 0.0270002 0.02923
C_ C_ 0.545786 0.797187 0.488509 -0.15533
C_ C_ 0.58307 0.818325 0.00964888 0.18167
C_ C_ 0.721522 0.766542 0.135931 0.18167
C_ C_ 0.742886 0.738739 0.176932 -0.15533
C_ C_ 0.737752 0.758507 0.228747 0.02923
C_ C_ 0.719073 0.811741 0.234565 -0.15533
C_ C_ 0.700478 0.84102 0.190587 0.18167
C_ C_ 0.742868 0.870531 0.0476583 0.69207
C_ C_ 0.77281 0.883756 0.507157 0.02923
C_ C_ 0.751646 0.882445 0.457173 -0.15533
C_ C_ 0.780812 0.88407 0.416397 -0.15533
C_ C_ 0.83292 0.889768 0.42666 0.02923
C_ C_ 0.85447 0.895654 0.478164 -0.15533
C_ C_ 0.824275 0.889427 0.51951 0.02923
C_ C_ 0.852597 0.896703 0.0689069 0.69207
C_ C_ 0.842187 0.880045 0.327774 0.69661
C_ C_ 0.815114 0.934337 0.178648 0.18167
C_ C_ 0.773177 0.956272 0.202086 -0.15533
C_ C_ 0.777475 0.995213 0.240294 0.02923
C_ C_ 0.827955 0.520991 0.25368 -0.15533
C_ C_ 0.865919 0.990496 0.226001 0.18167
C_ C_ 0.985096 0.85011 0.194352 0.18167
C_ C_ 0.520936 0.804611 0.213383 -0.15533
C_ C_ 0.978289 0.766896 0.229444 0.02923
C_ C_ 0.925521 0.776628 0.219681 -0.15533
C_ C_ 0.90374 0.820214 0.195935 0.18167
C_ C_ 0.988446 0.960488 0.12196 0.69207
C_ C_ 0.531688 0.488344 0.117854 0.02923
C_ C_ 0.515034 0.539134 0.120311 -0.15533
C_ C_ 0.545678 0.575621 0.113038 -0.15533
C_ C_ 0.596212 0.564037 0.104355 0.02923
C_ C_ 0.616912 0.511498 0.100313 -0.15533
C_ C_ 0.584392 0.474452 0.108904 0.02923
C_ C_ 0.60071 0.927059 0.112021 0.69207
C_ C_ 0.613479 0.662426 0.105551 0.69661
C_ C_ 0.938197 0.682658 0.431945 0.18167
C_ C_ 0.981385 0.703209 0.45815 -0.15533
C_ C_ 0.976843 0.740701 0.498863 0.02923
C_ C_ 0.918208 0.761286 1.00841236 -0.15533
C_ C_ 0.887177 0.726339 0.493848 0.18167
C_ C_ 0.763122 0.714426 0.365563 0.18167
C_ C_ 0.737809 0.728488 0.317128 -0.15533
C_ C_ 0.763508 0.729595 0.272746 0.02923
C_ C_ 0.815224 0.7076 0.27608 -0.15533
C_ C_ 0.836311 0.688125 0.324331 0.18167
C_ C_ 0.768156 0.621739 0.453451 0.69207
C_ C_ 0.730059 0.607994 0.990592 0.02923
C_ C_ 0.75233 0.596503 0.040007 -0.15533
C_ C_ 0.721146 0.585525 0.0773898 -0.15533
C_ C_ 0.667606 0.589488 0.0674909 0.02923
C_ C_ 0.648643 0.590805 0.0165942 -0.15533
C_ C_ 0.678734 0.599039 0.978411 0.02923
C_ C_ 0.658321 0.601957 0.425132 0.69207
C_ C_ 0.657706 0.604457 0.167262 0.69661
C_ C_ 0.869001 0.879179 0.382732 -0.30787
C_ C_ 0.632447 0.603908 0.110995 -0.30787
N_ N_ 0.644706 0.556257 0.314166 -0.32189
N_ N_ 0.555374 0.64142 0.314299 -0.32189
N_ N_ 0.603062 0.813946 0.0598484 -0.32189
N_ N_ 0.698583 0.816481 0.142608 -0.32189
N_ N_ 0.860101 0.951752 0.189521 -0.32189
N_ N_ 0.934609 0.854459 0.181389 -0.32189
N_ N_ 0.894607 0.692112 0.45227 -0.32189
N_ N_ 0.810538 0.692149 0.366104 -0.32189
O_ O_ -0.0021839999999999637 0.588989 0.396264 -0.63271
O_ O_ 0.541742 0.539346 0.33697 -0.57982
O_ O_ 0.891765 0.590471 0.354235 -0.63271
O_ O_ 0.876366 0.591911 0.433836 -0.57982
O_ O_ 0.742924 0.901278 0.0898454 -0.63271
O_ O_ 0.70863 0.84 0.0378479 -0.57982
O_ O_ 0.850073 0.85633 0.0926265 -0.63271
O_ O_ 0.881245 0.93133 0.0897821 -0.57982
O_ O_ 0.489858 0.904851 0.096304 -0.63271
O_ O_ 0.956625 0.966226 0.157143 -0.57982
O_ O_ 0.596577 0.90332 0.153278 -0.63271
O_ O_ 0.636563 0.908297 0.0833449 -0.57982
O_ O_ 0.76589 0.59633 0.409391 -0.63271
O_ O_ 0.796819 0.658869 0.462659 -0.57982
O_ O_ 0.665579 0.642153 0.400818 -0.63271
O_ O_ 0.618253 0.577672 0.412553 -0.57982
F_ F_ 0.928894 0.824308 0.434664 -0.20885
F_ F_ 0.921488 0.804019 0.349755 -0.20885
F_ F_ 0.859482 0.790787 0.395379 -0.20885
F_ F_ 0.811764 0.924986 0.316438 -0.20885
F_ F_ 0.811244 0.84263 0.316883 -0.20885
F_ F_ 0.874805 0.875365 0.291983 -0.20885
F_ F_ 0.576939 0.666805 0.0639218 -0.20885
F_ F_ 0.585934 0.683666 0.144982 -0.20885
F_ F_ 0.654649 0.688747 0.0993369 -0.20885
F_ F_ 0.688641 0.559239 0.177149 -0.20885
F_ F_ 0.683974 0.645885 0.186125 -0.20885
F_ F_ 0.61896 0.606894 0.198603 -0.20885
Zn Zn 0.585635 0.579293 0.844307 0.83971
Zn Zn 0.664886 0.842246 0.584467 0.83971
Zn Zn 0.903452 0.913312 0.660009 0.83971
Zn Zn 0.845204 0.654818 0.921062 0.83971
H_ H_ 0.665005 0.630574 0.801598 0.10394
H_ H_ 0.746077 0.602591 0.775539 0.10394
H_ H_ 0.709948 0.952248 0.795346 0.10394
H_ H_ 0.644968 0.479685 0.836997 0.10394
H_ H_ 0.0352301 0.594981 0.751297 0.10394
H_ H_ 0.996966 0.668157 0.699604 0.10394
H_ H_ 0.524558 0.766457 0.828482 0.10394
H_ H_ 0.571969 0.690679 0.870325 0.10394
H_ H_ 0.535127 0.94576 0.872845 0.10394
H_ H_ 0.981164 0.89389 0.892832 0.10394
H_ H_ 0.847189 0.999302217 0.894647 0.10394
H_ H_ 0.587524 0.805127 0.633848 0.10394
H_ H_ 0.0011399999999999189 0.77501 0.601452 0.10394
H_ H_ 0.531091 0.789658 0.951507 0.10394
H_ H_ 0.617472 0.826772 0.484765 0.10394
H_ H_ 0.736805 0.75375 0.598779 0.10394
H_ H_ 0.774831 0.704802 0.675228 0.10394
H_ H_ 0.710129 0.831703 0.772734 0.10394
H_ H_ 0.680381 0.875492 0.694329 0.10394
H_ H_ 0.713957 0.876459 0.94798 0.10394
H_ H_ 0.761183 0.89963 0.879068 0.10394
H_ H_ 0.888962 0.925885 0.984286 0.10394
H_ H_ 0.805884 0.897232 0.671781 0.10394
H_ H_ 0.730201 0.947091 0.698569 0.10394
H_ H_ 0.83462 0.547878 0.780228 0.10394
H_ H_ 0.90102 1.0133456 0.730101 0.10394
H_ H_ 0.516504 0.881856 0.708938 0.10394
H_ H_ 0.554412 0.790148 0.72535 0.10394
H_ H_ 0.917754 0.735222 0.709137 0.10394
H_ H_ 0.872564 0.81433 0.675921 0.10394
H_ H_ 0.96699 0.556045 0.626511 0.10394
H_ H_ 0.51495 0.618463 0.586723 0.10394
H_ H_ 0.641019 0.503054 0.586984 0.10394
H_ H_ 0.952139 0.655827 0.908137 0.10394
H_ H_ 0.516481 0.680257 0.972102 0.10394
H_ H_ 0.91959 0.780434 0.545023 0.10394
H_ H_ 0.848422 0.73013 1.00253985 0.10394
H_ H_ 0.74762 0.699065 0.894278 0.10394
H_ H_ 0.704202 0.752962 0.821669 0.10394
H_ H_ 0.844522 0.730604 0.752135 0.10394
H_ H_ 0.883056 0.688595 0.82727 0.10394
H_ H_ 0.78498 0.630381 0.556968 0.10394
H_ H_ 0.729547 0.617548 0.62171 0.10394
H_ H_ 0.612765 0.585664 0.502532 0.10394
C_ C_ 0.675883 0.590032 0.800792 0.18167
C_ C_ 0.720574 0.573293 0.778569 -0.15533
C_ C_ 0.735846 0.520138 0.774821 0.02923
C_ C_ 0.699388 0.993991 0.793328 -0.15533
C_ C_ 0.663164 0.505447 0.819005 0.18167
C_ C_ 0.524972 0.630291 0.766344 0.18167
C_ C_ 0.0112729 0.673246 0.740355 -0.15533
C_ C_ 0.499246 0.719655 0.760871 0.02923
C_ C_ 0.522482 0.727816 0.811261 -0.15533
C_ C_ 0.552436 0.686546 0.832789 0.18167
C_ C_ 0.499853 0.545713 0.85894 0.69207
C_ C_ 0.970333 0.0156358 0.879166 0.02923
C_ C_ -0.01010500000000003 0.964196 0.872711 -0.15533
C_ C_ 0.960984 0.92658 0.884295 -0.15533
C_ C_ 0.907613 0.937799 0.888545 0.02923
C_ C_ 0.887915 0.989049 0.890276 -0.15533
C_ C_ 0.91745 0.0294055 0.884483 0.02923
C_ C_ 0.900738 0.574804 0.882788 0.69207
C_ C_ 0.898312 0.842765 0.895594 0.69661
C_ C_ 0.577301 0.799851 0.595061 0.18167
C_ C_ 0.531555 0.778415 0.57572 -0.15533
C_ C_ 0.515708 0.775209 0.522384 0.02923
C_ C_ 0.540986 0.793028 0.993237 -0.15533
C_ C_ 0.591221 0.815033 0.509476 0.18167
C_ C_ 0.73369 0.769078 0.636431 0.18167
C_ C_ 0.752694 0.741305 0.681565 -0.15533
C_ C_ 0.744188 0.763137 0.730568 0.02923
C_ C_ 0.714599 0.811411 0.735199 -0.15533
C_ C_ 0.69734 0.837046 0.691129 0.18167
C_ C_ 0.741873 0.870235 0.546987 0.69207
C_ C_ 0.774263 0.88309 1.0056888 0.02923
C_ C_ 0.75328 0.883971 0.955107 -0.15533
C_ C_ 0.780549 0.899642 0.916077 -0.15533
C_ C_ 0.831267 0.908906 0.925493 0.02923
C_ C_ 0.85112 0.914066 0.977194 -0.15533
C_ C_ 0.823734 0.900764 0.0166974 0.02923
C_ C_ 0.851065 0.881982 0.571091 0.69207
C_ C_ 0.84583 0.888269 0.8289 0.69661
C_ C_ 0.809889 0.934493 0.691652 0.18167
C_ C_ 0.766455 0.960603 0.710237 -0.15533
C_ C_ 0.773537 0.00423066 0.742478 0.02923
C_ C_ 0.825014 0.521334 0.747959 -0.15533
C_ C_ 0.86455 0.996064 0.727132 0.18167
C_ C_ 0.986631 0.856515 0.712455 0.18167
C_ C_ 0.514932 0.800538 0.724356 -0.15533
C_ C_ 0.988596 0.768012 0.733577 0.02923
C_ C_ 0.938948 0.767996 0.709156 -0.15533
C_ C_ 0.91176 0.812735 0.691037 0.18167
C_ C_ 0.981493 0.942885 0.61646 0.69207
C_ C_ 0.51723 0.492574 0.604048 0.02923
C_ C_ 0.499323 0.545148 0.602503 -0.15533
C_ C_ 0.533146 0.580377 0.592984 -0.15533
C_ C_ 0.586036 0.567136 0.591569 0.02923
C_ C_ 0.602051 0.514992 0.590945 -0.15533
C_ C_ 0.569629 0.47917 0.602506 0.02923
C_ C_ 0.605753 0.923294 0.613041 0.69207
C_ C_ 0.602527 0.664343 0.597869 0.69661
C_ C_ 0.943593 0.686769 0.935297 0.18167
C_ C_ 0.983615 0.710357 0.962786 -0.15533
C_ C_ 0.970595 0.751944 0.996407 0.02923
C_ C_ 0.928078 0.754063 0.513399 -0.15533
C_ C_ 0.885112 0.728525 0.988147 0.18167
C_ C_ 0.765679 0.703912 0.859605 0.18167
C_ C_ 0.739934 0.728045 0.817343 -0.15533
C_ C_ 0.76637 0.733968 0.774479 0.02923
C_ C_ 0.819978 0.722013 0.78007 -0.15533
C_ C_ 0.84256 0.692174 0.82119 0.18167
C_ C_ 0.763679 0.625295 0.951739 0.69207
C_ C_ 0.734011 0.610061 0.493308 0.02923
C_ C_ 0.748616 0.61799 0.544567 -0.15533
C_ C_ 0.716444 0.609752 0.581781 -0.15533
C_ C_ 0.666213 0.596896 0.56673 0.02923
C_ C_ 0.651122 0.592858 0.514961 -0.15533
C_ C_ 0.682768 0.599035 0.477483 0.02923
C_ C_ 0.652064 0.605803 0.925213 0.69207
C_ C_ 0.644356 0.599702 0.659955 0.69661
C_ C_ 0.87044 0.895803 0.884068 -0.30787
C_ C_ 0.625006 0.608109 0.603926 -0.30787
N_ N_ 0.644856 0.555876 0.814279 -0.32189
N_ N_ 0.552521 0.639183 0.809853 -0.32189
N_ N_ 0.607491 0.812394 0.560368 -0.32189
N_ N_ 0.702421 0.81425 0.642222 -0.32189
N_ N_ 0.858556 0.950183 0.701163 -0.32189
N_ N_ 0.935638 0.856834 0.693616 -0.32189
N_ N_ 0.896402 0.696802 0.948043 -0.32189
N_ N_ 0.815102 0.684969 0.860394 -0.32189
O_ O_ 1.00717267 0.589911 0.889107 -0.63271
O_ O_ 0.539541 0.532515 0.833394 -0.57982
O_ O_ 0.898643 0.601217 0.841589 -0.63271
O_ O_ 0.877276 0.595521 0.922783 -0.57982
O_ O_ 0.751064 0.889692 0.592863 -0.63271
O_ O_ 0.707472 0.839167 0.537541 -0.57982
O_ O_ 0.843929 0.842454 0.596507 -0.63271
O_ O_ 0.876642 0.91932 0.592638 -0.57982
O_ O_ 0.4945 0.902303 0.592296 -0.63271
O_ O_ 0.948783 0.952096 0.649533 -0.57982
O_ O_ 0.593998 0.894306 0.649455 -0.63271
O_ O_ 0.646432 0.911135 0.589994 -0.57982
O_ O_ 0.768583 0.598715 0.908736 -0.63271
O_ O_ 0.797912 0.655749 0.965801 -0.57982
O_ O_ 0.659653 0.645133 0.899387 -0.63271
O_ O_ 0.60852 0.586467 0.912958 -0.57982
F_ F_ 0.934455 0.843036 0.936272 -0.20885
F_ F_ 0.923955 0.82013 0.856702 -0.20885
F_ F_ 0.865187 0.808402 0.90051 -0.20885
F_ F_ 0.819529 0.932465 0.818175 -0.20885
F_ F_ 0.812393 0.851472 0.820713 -0.20885
F_ F_ 0.880177 0.881443 0.791489 -0.20885
F_ F_ 0.575889 0.670236 0.550465 -0.20885
F_ F_ 0.567127 0.679326 0.633642 -0.20885
F_ F_ 0.637302 0.700106 0.601468 -0.20885
F_ F_ 0.671719 0.554866 0.668862 -0.20885
F_ F_ 0.673008 0.636439 0.68528 -0.20885
F_ F_ 0.604079 0.601744 0.689864 -0.20885
_cell_length_a 26.508
_cell_length_b 26.37200000322088
_cell_length_c 26.311999743092066
_cell_angle_alpha 93.74100058972084
_cell_angle_beta 96.04100104955006
_cell_angle_gamma 83.6869992558723
_symmetry_space_group_name_H-M         'P 1'
_symmetry_Int_Tables_number            1
loop_
_symmetry_equiv_pos_as_xyz
   'x, y, z'
                         
loop_
_atom_site_label
_atom_site_type_symbol
_atom_site_fract_x 
_atom_site_fract_y
_atom_site_fract_z
_atom_site_charge
Zn Zn 0.086131 0.0812209 0.345309 0.83971
Zn Zn 0.164503 0.350073 0.092658 0.83971
Zn Zn 0.414521 0.412252 0.154381 0.83971
Zn Zn 0.339509 0.149159 0.420427 0.83971
H_ H_ 0.167572 0.12773 0.308957 0.10394
H_ H_ 0.248611 0.0900467 0.271078 0.10394
H_ H_ 0.213277 0.443493 0.286823 0.10394
H_ H_ 0.128848 0.975549 0.316465 0.10394
H_ H_ 0.536302 0.0951893 0.251735 0.10394
H_ H_ 0.489722 0.161273 0.204899 0.10394
H_ H_ 0.0263004 0.264893 0.347054 0.10394
H_ H_ 0.0676062 0.187263 0.383552 0.10394
H_ H_ 0.0334898 0.437329 0.376491 0.10394
H_ H_ 0.485289 0.382347 0.377908 0.10394
H_ H_ 0.349293 0.488942 0.392472 0.10394
H_ H_ 0.0883858 0.297057 0.137085 0.10394
H_ H_ 0.504262 0.267963 0.0947724 0.10394
H_ H_ 0.0238302 0.294255 0.431173 0.10394
H_ H_ 0.124567 0.331861 0.98974 0.10394
H_ H_ 0.219008 0.25986 0.107542 0.10394
H_ H_ 0.245784 0.205213 0.180964 0.10394
H_ H_ 0.197416 0.332556 0.281617 0.10394
H_ H_ 0.165356 0.382025 0.207113 0.10394
H_ H_ 0.221735 0.352557 0.439081 0.10394
H_ H_ 0.276462 0.360755 0.371309 0.10394
H_ H_ 0.38999 0.415878 0.480707 0.10394
H_ H_ 0.309199 0.390402 0.164407 0.10394
H_ H_ 0.234199 0.44136 0.196232 0.10394
H_ H_ 0.332129 0.0420049 0.290994 0.10394
H_ H_ 0.403683 0.500891 0.230031 0.10394
H_ H_ 0.0163195 0.387778 0.198767 0.10394
H_ H_ 0.0556603 0.313977 0.247449 0.10394
H_ H_ 0.412858 0.232443 0.212774 0.10394
H_ H_ 0.371642 0.317483 0.181644 0.10394
H_ H_ 0.460575 0.0518815 0.10749 0.10394
H_ H_ 0.022267 0.128075 0.127529 0.10394
H_ H_ 0.142769 0.0138553 0.096652 0.10394
H_ H_ 0.436026 0.156003 0.401713 0.10394
H_ H_ 0.0202292 0.187496 0.455175 0.10394
H_ H_ 0.415096 0.287027 0.0305347 0.10394
H_ H_ 0.337426 0.230212 0.509947 0.10394
H_ H_ 0.23162 0.192421 0.395813 0.10394
H_ H_ 0.18409 0.234428 0.322164 0.10394
H_ H_ 0.327484 0.241432 0.262082 0.10394
H_ H_ 0.375015 0.191076 0.331803 0.10394
H_ H_ 0.29107 0.108989 0.0507083 0.10394
H_ H_ 0.238129 0.115959 0.117478 0.10394
H_ H_ 0.112354 0.0807567 0.0105266 0.10394
C_ C_ 0.17536 0.0858678 0.302117 0.18167
C_ C_ 0.224059 0.0656698 0.285077 -0.15533
C_ C_ 0.236971 0.0135098 0.279851 0.02923
C_ C_ 0.199869 0.481891 0.284118 -0.15533
C_ C_ 0.155547 0.00212391 0.310817 0.18167
C_ C_ 0.0344827 0.137483 0.266938 0.18167
C_ C_ 0.506022 0.171649 0.241409 -0.15533
C_ C_ 0.0145087 0.229681 0.267855 0.02923
C_ C_ 0.0303073 0.2315 0.321411 -0.15533
C_ C_ 0.0545156 0.186235 0.342445 0.18167
C_ C_ 0.00802681 0.0366466 0.368219 0.69207
C_ C_ 0.475131 0.510861 0.38041 0.02923
C_ C_ 0.494014 0.459535 0.376581 -0.15533
C_ C_ 0.464148 0.420032 0.3803 -0.15533
C_ C_ 0.411707 0.42683 0.386505 0.02923
C_ C_ 0.391475 0.478326 0.388954 -0.15533
C_ C_ 0.419897 0.519637 0.381495 0.02923
C_ C_ 0.399213 0.0700159 0.387868 0.69207
C_ C_ 0.401215 0.329873 0.385569 0.69661
C_ C_ 0.077243 0.298919 0.0963431 0.18167
C_ C_ 0.031906 0.283095 0.0756662 -0.15533
C_ C_ 0.0197191 0.281906 0.022649 0.02923
C_ C_ 0.0331697 0.299279 0.471832 -0.15533
C_ C_ 0.0983333 0.3166 0.0133997 0.18167
C_ C_ 0.219845 0.27555 0.146481 0.18167
C_ C_ 0.236068 0.24482 0.187962 -0.15533
C_ C_ 0.22953 0.26474 0.23771 0.02923
C_ C_ 0.201667 0.313492 0.24366 -0.15533
C_ C_ 0.185956 0.342279 0.201873 0.18167
C_ C_ 0.243845 0.370821 0.0528043 0.69207
C_ C_ 0.276037 0.371699 0.502258 0.02923
C_ C_ 0.259368 0.362471 0.44916 -0.15533
C_ C_ 0.288112 0.372746 0.409563 -0.15533
C_ C_ 0.335203 0.392704 0.419091 0.02923
C_ C_ 0.353151 0.397302 0.47186 -0.15533
C_ C_ 0.326891 0.382033 0.512737 0.02923
C_ C_ 0.356571 0.384653 0.0726398 0.69207
C_ C_ 0.353123 0.386256 0.321404 0.69661
C_ C_ 0.314646 0.425576 0.185074 0.18167
C_ C_ 0.271114 0.452188 0.206322 -0.15533
C_ C_ 0.277233 0.494606 0.241474 0.02923
C_ C_ 0.324529 0.0149507 0.256043 -0.15533
C_ C_ 0.36685 0.48816 0.221683 0.18167
C_ C_ 0.488668 0.351492 0.205383 0.18167
C_ C_ 0.0159975 0.317832 0.237461 -0.15533
C_ C_ 0.4849 0.267072 0.234504 0.02923
C_ C_ 0.432554 0.268493 0.214083 -0.15533
C_ C_ 0.410105 0.312109 0.190812 0.18167
C_ C_ 0.496894 0.449141 0.126185 0.69207
C_ C_ 0.0233179 1.000376815 0.119183 0.02923
C_ C_ 0.00262648 0.0541311 0.124728 -0.15533
C_ C_ 0.0337836 0.0916864 0.114112 -0.15533
C_ C_ 0.0869467 0.0771653 0.103207 0.02923
C_ C_ 0.10454 0.0243433 0.0967665 -0.15533
C_ C_ 0.0754952 0.987103 0.110849 0.02923
C_ C_ 0.0947412 0.427332 0.110309 0.69207
C_ C_ 0.110516 0.171648 0.114021 0.69661
C_ C_ 0.429707 0.179532 0.437329 0.18167
C_ C_ 0.469806 0.20596 0.45951 -0.15533
C_ C_ 0.460494 0.247549 0.495608 0.02923
C_ C_ 0.426347 0.250252 0.00820838 -0.15533
C_ C_ 0.374827 0.223187 0.495807 0.18167
C_ C_ 0.254386 0.199243 0.364563 0.18167
C_ C_ 0.227085 0.225893 0.322539 -0.15533
C_ C_ 0.254709 0.235896 0.282277 0.02923
C_ C_ 0.306701 0.227355 0.288959 -0.15533
C_ C_ 0.33327 0.196356 0.327609 0.18167
C_ C_ 0.264924 0.108758 0.456172 0.69207
C_ C_ 0.228622 0.115848 0.992127 0.02923
C_ C_ 0.250904 0.109928 0.0413131 -0.15533
C_ C_ 0.219426 0.108906 0.0797667 -0.15533
C_ C_ 0.167717 0.102527 0.0713926 0.02923
C_ C_ 0.15012 0.0965165 0.0203488 -0.15533
C_ C_ 0.177283 0.111786 0.982742 0.02923
C_ C_ 0.15437 0.098775 0.424984 0.69207
C_ C_ 0.152332 0.103072 0.166685 0.69661
C_ C_ 0.37568 0.38652 0.378165 -0.30787
C_ C_ 0.128049 0.113932 0.112484 -0.30787
N_ N_ 0.142128 0.0543343 0.311104 -0.32189
N_ N_ 0.0597487 0.142358 0.313588 -0.32189
N_ N_ 0.108196 0.31588 0.0653999 -0.32189
N_ N_ 0.196368 0.322824 0.154397 -0.32189
N_ N_ 0.36097 0.443755 0.190441 -0.32189
N_ N_ 0.439556 0.351893 0.184275 -0.32189
N_ N_ 0.384468 0.188284 0.45541 -0.32189
N_ N_ 0.305381 0.181098 0.363895 -0.32189
O_ O_ 0.505753 0.0847499 0.379645 -0.63271
O_ O_ 0.0381657 0.0364373 0.332252 -0.57982
O_ O_ 0.391338 0.0952114 0.346788 -0.63271
O_ O_ 0.376786 0.0898788 0.428383 -0.57982
O_ O_ 0.247954 0.396621 0.0982583 -0.63271
O_ O_ 0.202081 0.348151 0.0427866 -0.57982
O_ O_ 0.3581 0.343228 0.100105 -0.63271
O_ O_ 0.387079 0.42076 0.0876623 -0.57982
O_ O_ 0.984093 0.41688 0.0985733 -0.63271
O_ O_ 0.45504 0.462164 0.148902 -0.57982
O_ O_ 0.0894395 0.397116 0.147656 -0.63271
O_ O_ 0.13274 0.413302 0.08475 -0.57982
O_ O_ 0.264528 0.0821249 0.411722 -0.63271
O_ O_ 0.297526 0.143079 0.466445 -0.57982
O_ O_ 0.152266 0.143858 0.405845 -0.63271
O_ O_ 0.125148 0.0659406 0.401481 -0.57982
F_ F_ 0.437079 0.333051 0.427605 -0.20885
F_ F_ 0.432328 0.314849 0.347368 -0.20885
F_ F_ 0.372166 0.289805 0.390255 -0.20885
F_ F_ 0.319089 0.42785 0.313372 -0.20885
F_ F_ 0.323678 0.347668 0.30529 -0.20885
F_ F_ 0.389471 0.391559 0.288533 -0.20885
F_ F_ 0.0725829 0.184955 0.0757928 -0.20885
F_ F_ 0.0894323 0.190476 0.159126 -0.20885
F_ F_ 0.149029 0.202357 0.11044 -0.20885
F_ F_ 0.184655 0.0590299 0.165018 -0.20885
F_ F_ 0.17904 0.142594 0.18671 -0.20885
F_ F_ 0.113505 0.0989891 0.199672 -0.20885
Zn Zn 0.0929535 0.087665 0.847562 0.83971
Zn Zn 0.154156 0.347906 0.570799 0.83971
Zn Zn 0.407428 0.420295 0.65299 0.83971
Zn Zn 0.338899 0.153432 0.909464 0.83971
H_ H_ 0.167207 0.131971 0.800897 0.10394
H_ H_ 0.25123 0.100867 0.768504 0.10394
H_ H_ 0.223245 0.454548 0.808884 0.10394
H_ H_ 0.14363 0.983937 0.830745 0.10394
H_ H_ 0.538748 0.0998654 0.761679 0.10394
H_ H_ 0.49247 0.175309 0.708169 0.10394
H_ H_ 0.0361154 0.26962 0.827439 0.10394
H_ H_ 0.0749401 0.196382 0.876365 0.10394
H_ H_ 0.0313901 0.440582 0.854028 0.10394
H_ H_ 0.479655 0.380086 0.883867 0.10394
H_ H_ 0.345904 0.487397 0.901331 0.10394
H_ H_ 0.0725411 0.30903 0.616601 0.10394
H_ H_ 0.488781 0.27311 0.595057 0.10394
H_ H_ 0.0475977 0.295266 0.950551 0.10394
H_ H_ 0.103015 0.334085 0.465255 0.10394
H_ H_ 0.205219 0.240495 0.585318 0.10394
H_ H_ 0.246179 0.19394 0.659395 0.10394
H_ H_ 0.216114 0.327353 0.755655 0.10394
H_ H_ 0.174546 0.373475 0.682875 0.10394
H_ H_ 0.217383 0.356984 0.95227 0.10394
H_ H_ 0.264499 0.370879 0.880725 0.10394
H_ H_ 0.395184 0.403684 0.984513 0.10394
H_ H_ 0.29527 0.412056 0.649496 0.10394
H_ H_ 0.230237 0.446845 0.706383 0.10394
H_ H_ 0.338367 0.0466672 0.770602 0.10394
H_ H_ 0.399312 0.51067 0.726507 0.10394
H_ H_ 0.0173982 0.368512 0.665473 0.10394
H_ H_ 0.0539836 0.290903 0.708246 0.10394
H_ H_ 0.417848 0.244877 0.706853 0.10394
H_ H_ 0.380815 0.319027 0.669532 0.10394
H_ H_ 0.465931 0.0540086 0.608471 0.10394
H_ H_ 0.0156343 0.109552 0.615516 0.10394
H_ H_ 0.138531 -0.007927000000000017 0.588642 0.10394
H_ H_ 0.438568 0.160038 0.890683 0.10394
H_ H_ 0.0238173 0.205538 0.941352 0.10394
H_ H_ 0.401626 0.285148 0.541952 0.10394
H_ H_ 0.35197 0.231882 0.000646011 0.10394
H_ H_ 0.238869 0.205022 0.880383 0.10394
H_ H_ 0.192712 0.243905 0.801609 0.10394
H_ H_ 0.332401 0.206466 0.726795 0.10394
H_ H_ 0.378672 0.177762 0.808884 0.10394
H_ H_ 0.282553 0.115336 0.556307 0.10394
H_ H_ 0.2303 0.0897469 0.624634 0.10394
H_ H_ 0.110455 0.0616598 0.501107 0.10394
C_ C_ 0.178465 0.0919466 0.793488 0.18167
C_ C_ 0.223562 0.073755 0.771891 -0.15533
C_ C_ 0.236807 0.0210189 0.768606 0.02923
C_ C_ 0.209657 0.494839 0.80374 -0.15533
C_ C_ 0.165246 0.00931459 0.814581 0.18167
C_ C_ 0.0301396 0.137426 0.764484 0.18167
C_ C_ 0.510866 0.181108 0.746792 -0.15533
C_ C_ 0.00710525 0.229584 0.762119 0.02923
C_ C_ 0.0301831 0.235048 0.812752 -0.15533
C_ C_ 0.057606 0.194145 0.836143 0.18167
C_ C_ 0.00598629 0.0549223 0.871594 0.69207
C_ C_ 0.465554 0.507786 0.871933 0.02923
C_ C_ 0.483125 0.455339 0.86159 -0.15533
C_ C_ 0.460561 0.417849 0.885406 -0.15533
C_ C_ 0.407801 0.426018 0.889927 0.02923
C_ C_ 0.386062 0.478358 0.894246 -0.15533
C_ C_ 0.414165 0.51834 0.886439 0.02923
C_ C_ 0.395608 0.0719614 0.879755 0.69207
C_ C_ 0.399767 0.328512 0.886735 0.69661
C_ C_ 0.0653936 0.297906 0.57698 0.18167
C_ C_ 0.0174526 0.281404 0.55827 -0.15533
C_ C_ 0.00204523 0.281699 0.50571 0.02923
C_ C_ 0.0549279 0.297394 0.990781 -0.15533
C_ C_ 0.0819828 0.315228 0.490844 0.18167
C_ C_ 0.208244 0.260838 0.621168 0.18167
C_ C_ 0.23273 0.23364 0.663826 -0.15533
C_ C_ 0.231224 0.255383 0.712787 0.02923
C_ C_ 0.210312 0.308008 0.71929 -0.15533
C_ C_ 0.185374 0.332599 0.675933 0.18167
C_ C_ 0.238981 0.363344 0.541467 0.69207
C_ C_ 0.280067 0.373947 0.0119527 0.02923
C_ C_ 0.259654 0.364427 0.961683 -0.15533
C_ C_ 0.285028 0.373918 0.919475 -0.15533
C_ C_ 0.337364 0.385169 0.927568 0.02923
C_ C_ 0.356439 0.393715 0.977021 -0.15533
C_ C_ 0.329766 0.385048 0.021273 0.02923
C_ C_ 0.353134 0.381836 0.56602 0.69207
C_ C_ 0.342629 0.384269 0.829338 0.69661
C_ C_ 0.305356 0.437827 0.681561 0.18167
C_ C_ 0.268918 0.458659 0.713338 -0.15533
C_ C_ 0.279117 0.50021 0.747038 0.02923
C_ C_ 0.328817 0.0140043 0.747422 -0.15533
C_ C_ 0.362786 0.493603 0.72196 0.18167
C_ C_ 0.493308 0.361837 0.707785 0.18167
C_ C_ 0.0144399 0.302669 0.707562 -0.15533
C_ C_ 0.490019 0.277877 0.739093 0.02923
C_ C_ 0.441341 0.276624 0.713353 -0.15533
C_ C_ 0.417602 0.321551 0.691038 0.18167
C_ C_ 0.485659 0.454983 0.621656 0.69207
C_ C_ 0.0155891 0.981658 0.605767 0.02923
C_ C_ 0.00303174 0.0330302 0.619711 -0.15533
C_ C_ 0.0315747 0.0704457 0.611658 -0.15533
C_ C_ 0.0820707 0.0592897 0.59908 0.02923
C_ C_ 0.0979804 0.00557543 0.590049 -0.15533
C_ C_ 0.0675708 0.966395 0.596979 0.02923
C_ C_ 0.0925334 0.426446 0.594481 0.69207
C_ C_ 0.0976774 0.15074 0.587172 0.69661
C_ C_ 0.43519 0.181746 0.926687 0.18167
C_ C_ 0.478498 0.199459 0.953641 -0.15533
C_ C_ 0.474525 0.237523 0.992374 0.02923
C_ C_ 0.413107 0.254205 0.514705 -0.15533
C_ C_ 0.386317 0.221772 0.989493 0.18167
C_ C_ 0.259196 0.204321 0.84629 0.18167
C_ C_ 0.233073 0.230549 0.803307 -0.15533
C_ C_ 0.257129 0.225926 0.757951 0.02923
C_ C_ 0.309584 0.2051 0.759203 -0.15533
C_ C_ 0.33709 0.190536 0.807033 0.18167
C_ C_ 0.260847 0.121812 0.949755 0.69207
C_ C_ 0.22759 0.101028 0.493475 0.02923
C_ C_ 0.243977 0.10437 0.545249 -0.15533
C_ C_ 0.21293 0.0917908 0.583115 -0.15533
C_ C_ 0.16147 0.0819013 0.566994 0.02923
C_ C_ 0.148129 0.072443 0.513041 -0.15533
C_ C_ 0.178334 0.0873973 0.477502 0.02923
C_ C_ 0.149752 0.11822 0.928857 0.69207
C_ C_ 0.138918 0.102701 0.660166 0.69661
C_ C_ 0.371545 0.38233 0.88362 -0.30787
C_ C_ 0.119691 0.0982504 0.603096 -0.30787
N_ N_ 0.151723 0.061339 0.817494 -0.32189
N_ N_ 0.0574728 0.146033 0.81216 -0.32189
N_ N_ 0.0957493 0.314315 0.542077 -0.32189
N_ N_ 0.185075 0.309805 0.628702 -0.32189
N_ N_ 0.353009 0.45262 0.688449 -0.32189
N_ N_ 0.441914 0.364734 0.691219 -0.32189
N_ N_ 0.389965 0.192545 0.946123 -0.32189
N_ N_ 0.31134 0.189398 0.849251 -0.32189
O_ O_ 0.505651 0.0899378 0.895615 -0.63271
O_ O_ 0.0453804 0.0449563 0.846136 -0.57982
O_ O_ 0.391767 0.0942284 0.836862 -0.63271
O_ O_ 0.370795 0.092247 0.917125 -0.57982
O_ O_ 0.235866 0.394259 0.582805 -0.63271
O_ O_ 0.199066 0.336989 0.526694 -0.57982
O_ O_ 0.345685 0.344479 0.594686 -0.63271
O_ O_ 0.376735 0.42014 0.588279 -0.57982
O_ O_ 0.985816 0.409533 0.591901 -0.63271
O_ O_ 0.451785 0.469361 0.653143 -0.57982
O_ O_ 0.0948511 0.3999 0.635816 -0.63271
O_ O_ 0.121711 0.410512 0.558232 -0.57982
O_ O_ 0.260521 0.0918803 0.907849 -0.63271
O_ O_ 0.292929 0.155015 0.955864 -0.57982
O_ O_ 0.159797 0.154804 0.900281 -0.63271
O_ O_ 0.112907 0.089302 0.914065 -0.57982
F_ F_ 0.43213 0.326739 0.930193 -0.20885
F_ F_ 0.429444 0.313062 0.847581 -0.20885
F_ F_ 0.364773 0.292111 0.887099 -0.20885
F_ F_ 0.311942 0.427626 0.82334 -0.20885
F_ F_ 0.317897 0.341158 0.811323 -0.20885
F_ F_ 0.377333 0.385222 0.791964 -0.20885
F_ F_ 0.0696923 0.144677 0.539745 -0.20885
F_ F_ 0.0634381 0.176622 0.620519 -0.20885
F_ F_ 0.136839 0.181886 0.588614 -0.20885
F_ F_ 0.169172 0.0569485 0.674024 -0.20885
F_ F_ 0.166602 0.145508 0.672615 -0.20885
F_ F_ 0.104505 0.106811 0.694329 -0.20885
Zn Zn 0.0840736 0.583386 0.343102 0.83971
Zn Zn 0.158763 0.851003 0.088477 0.83971
Zn Zn 0.4072 0.912629 0.157477 0.83971
Zn Zn 0.340369 0.657975 0.418941 0.83971
H_ H_ 0.169048 0.625814 0.313033 0.10394
H_ H_ 0.250002 0.593189 0.277771 0.10394
H_ H_ 0.211064 0.939619 0.297904 0.10394
H_ H_ 0.133776 0.475485 0.321513 0.10394
H_ H_ 0.509421 0.595671 0.262789 0.10394
H_ H_ 0.481559 0.662295 0.205084 0.10394
H_ H_ 0.0229717 0.771231 0.323994 0.10394
H_ H_ 0.0710799 0.69986 0.37205 0.10394
H_ H_ 0.0250064 0.93564 0.34905 0.10394
H_ H_ 0.478162 0.873779 0.384717 0.10394
H_ H_ 0.351276 0.990088 0.405656 0.10394
H_ H_ 0.0755926 0.804541 0.134986 0.10394
H_ H_ 0.503755 0.766903 0.105966 0.10394
H_ H_ 0.0486191 0.775224 0.451058 0.10394
H_ H_ 0.115451 0.828383 0.985084 0.10394
H_ H_ 0.23672 0.761811 0.100614 0.10394
H_ H_ 0.273234 0.714184 0.169093 0.10394
H_ H_ 0.209032 0.8271 0.274253 0.10394
H_ H_ 0.168506 0.873235 0.196987 0.10394
H_ H_ 0.216634 0.867303 0.457431 0.10394
H_ H_ 0.265618 0.879151 0.38507 0.10394
H_ H_ 0.392069 0.911883 0.494102 0.10394
H_ H_ 0.310773 0.894914 0.164328 0.10394
H_ H_ 0.236635 0.933599 0.205296 0.10394
H_ H_ 0.331374 0.547853 0.273608 0.10394
H_ H_ 0.403139 0.00247727 0.237723 0.10394
H_ H_ 0.00526469 0.883713 0.195536 0.10394
H_ H_ 0.0493714 0.80374 0.236715 0.10394
H_ H_ 0.418929 0.738872 0.222836 0.10394
H_ H_ 0.374368 0.819321 0.195184 0.10394
H_ H_ 0.474377 0.549806 0.120217 0.10394
H_ H_ 0.0139932 0.62342 0.127195 0.10394
H_ H_ 0.142624 0.511311 0.0947537 0.10394
H_ H_ 0.44506 0.66612 0.394808 0.10394
H_ H_ 0.0182195 0.686815 0.449151 0.10394
H_ H_ 0.415961 0.7929 0.0479861 0.10394
H_ H_ 0.351352 0.722653 0.514566 0.10394
H_ H_ 0.229356 0.688159 0.375478 0.10394
H_ H_ 0.193435 0.723288 0.290551 0.10394
H_ H_ 0.343126 0.738519 0.258798 0.10394
H_ H_ 0.376968 0.701887 0.337974 0.10394
H_ H_ 0.279188 0.629846 0.0628309 0.10394
H_ H_ 0.223931 0.623794 0.124685 0.10394
H_ H_ 0.105104 0.582495 0.0155696 0.10394
C_ C_ 0.175726 0.585988 0.299536 0.18167
C_ C_ 0.222021 0.568717 0.281167 -0.15533
C_ C_ 0.233131 0.516034 0.270602 0.02923
C_ C_ 0.204046 0.981104 0.298751 -0.15533
C_ C_ 0.156487 0.501876 0.307285 0.18167
C_ C_ 0.0214156 0.633135 0.267376 0.18167
C_ C_ 0.507759 0.67079 0.23735 -0.15533
C_ C_ -0.000299525 0.724902 0.261258 0.02923
C_ C_ 0.0298253 0.733364 0.306208 -0.15533
C_ C_ 0.0538756 0.691349 0.333445 0.18167
C_ C_ 0.0048734 0.543913 0.37218 0.69207
C_ C_ 0.468136 0.00368215 0.363629 0.02923
C_ C_ 0.491139 0.95132 0.369308 -0.15533
C_ C_ 0.460611 0.913171 0.379901 -0.15533
C_ C_ 0.408802 0.926419 0.391073 0.02923
C_ C_ 0.390798 0.979633 0.394449 -0.15533
C_ C_ 0.421715 0.0184322 0.383451 0.02923
C_ C_ 0.39246 0.572542 0.381891 0.69207
C_ C_ 0.394772 0.828319 0.395528 0.69661
C_ C_ 0.0687084 0.802303 0.0930026 0.18167
C_ C_ 0.0246591 0.785494 0.0713228 -0.15533
C_ C_ 0.0106826 0.784218 0.0181098 0.02923
C_ C_ 0.0566312 0.780108 0.491333 -0.15533
C_ C_ 0.0893833 0.821399 0.00931581 0.18167
C_ C_ 0.232327 0.779029 0.136139 0.18167
C_ C_ 0.255373 0.751894 0.177496 -0.15533
C_ C_ 0.242956 0.767462 0.226724 0.02923
C_ C_ 0.214944 0.813465 0.235563 -0.15533
C_ C_ 0.192256 0.838323 0.192359 0.18167
C_ C_ 0.235009 0.883992 0.0406101 0.69207
C_ C_ 0.273423 0.884584 0.516708 0.02923
C_ C_ 0.254271 0.876494 0.464708 -0.15533
C_ C_ 0.282867 0.882958 0.424092 -0.15533
C_ C_ 0.333584 0.892071 0.433024 0.02923
C_ C_ 0.353803 0.899628 0.48411 -0.15533
C_ C_ 0.325987 0.892644 0.525722 0.02923
C_ C_ 0.34834 0.886419 0.0733998 0.69207
C_ C_ 0.341758 0.885072 0.336207 0.69661
C_ C_ 0.315009 0.929639 0.190274 0.18167
C_ C_ 0.27364 0.95147 0.212051 -0.15533
C_ C_ 0.276966 0.993218 0.246644 0.02923
C_ C_ 0.326242 0.513321 0.248809 -0.15533
C_ C_ 0.367039 0.989548 0.23331 0.18167
C_ C_ 0.495332 0.848951 0.195124 0.18167
C_ C_ 0.00868342 0.805395 0.219192 -0.15533
C_ C_ 0.493776 0.764555 0.225258 0.02923
C_ C_ 0.441385 0.770659 0.217393 -0.15533
C_ C_ 0.414836 0.814018 0.197279 0.18167
C_ C_ 0.485716 0.949669 0.121063 0.69207
C_ C_ 0.0220257 0.496176 0.11848 0.02923
C_ C_ 0.00409213 0.544869 0.126715 -0.15533
C_ C_ 0.0331095 0.584428 0.123047 -0.15533
C_ C_ 0.0852877 0.573934 0.116093 0.02923
C_ C_ 0.10497 0.521388 0.108166 -0.15533
C_ C_ 0.0724877 0.482249 0.109028 0.02923
C_ C_ 0.102219 0.934214 0.116853 0.69207
C_ C_ 0.094361 0.672694 0.111778 0.69661
C_ C_ 0.441823 0.687527 0.43111 0.18167
C_ C_ 0.482387 0.710721 0.457223 -0.15533
C_ C_ 0.475089 0.741409 0.502587 0.02923
C_ C_ 0.421343 0.76046 0.0204736 -0.15533
C_ C_ 0.38879 0.718209 0.498697 0.18167
C_ C_ 0.253443 0.693821 0.345923 0.18167
C_ C_ 0.232083 0.721159 0.30353 -0.15533
C_ C_ 0.26532 0.736448 0.271118 0.02923
C_ C_ 0.317723 0.734973 0.286741 -0.15533
C_ C_ 0.336692 0.712355 0.33144 0.18167
C_ C_ 0.261917 0.623612 0.453499 0.69207
C_ C_ 0.221835 0.61779 0.998468 0.02923
C_ C_ 0.239686 0.622593 0.0508798 -0.15533
C_ C_ 0.209298 0.61127 0.0896341 -0.15533
C_ C_ 0.15657 0.607592 0.0774195 0.02923
C_ C_ 0.140012 0.599824 0.0248799 -0.15533
C_ C_ 0.170049 0.606719 0.986118 0.02923
C_ C_ 0.148936 0.61191 0.422593 0.69207
C_ C_ 0.143834 0.615781 0.175987 0.69661
C_ C_ 0.369928 0.88499 0.390102 -0.30787
C_ C_ 0.120181 0.617749 0.118355 -0.30787
N_ N_ 0.143513 0.552374 0.310598 -0.32189
N_ N_ 0.0541519 0.642694 0.31023 -0.32189
N_ N_ 0.100248 0.820296 0.0603732 -0.32189
N_ N_ 0.200554 0.820379 0.145129 -0.32189
N_ N_ 0.360139 0.949582 0.198307 -0.32189
N_ N_ 0.442876 0.854215 0.190782 -0.32189
N_ N_ 0.395316 0.692878 0.452189 -0.32189
N_ N_ 0.306707 0.686259 0.356852 -0.32189
O_ O_ 0.50378 0.595465 0.392639 -0.63271
O_ O_ 0.042043 0.532586 0.342583 -0.57982
O_ O_ 0.391167 0.598305 0.342057 -0.63271
O_ O_ 0.368234 0.592177 0.420788 -0.57982
O_ O_ 0.245738 0.902078 0.0864229 -0.63271
O_ O_ 0.196475 0.855996 0.0323168 -0.57982
O_ O_ 0.347509 0.844049 0.0972192 -0.63271
O_ O_ 0.375377 0.921146 0.0941468 -0.57982
O_ O_ 0.993402 0.916533 0.0962082 -0.63271
O_ O_ 0.451523 0.9597 0.154588 -0.57982
O_ O_ 0.0922468 0.904621 0.153769 -0.63271
O_ O_ 0.14021 0.91853 0.0891612 -0.57982
O_ O_ 0.255541 0.604456 0.405842 -0.63271
O_ O_ 0.299677 0.650354 0.467273 -0.57982
O_ O_ 0.148709 0.654736 0.399692 -0.63271
O_ O_ 0.11374 0.582135 0.407934 -0.57982
F_ F_ 0.429796 0.827973 0.43783 -0.20885
F_ F_ 0.418182 0.806127 0.353343 -0.20885
F_ F_ 0.362445 0.793823 0.40369 -0.20885
F_ F_ 0.312856 0.928956 0.32873 -0.20885
F_ F_ 0.312355 0.847192 0.31968 -0.20885
F_ F_ 0.380311 0.880437 0.301949 -0.20885
F_ F_ 0.0627449 0.677842 0.069271 -0.20885
F_ F_ 0.0620145 0.694619 0.14764 -0.20885
F_ F_ 0.126868 0.710349 0.114952 -0.20885
F_ F_ 0.176063 0.569406 0.178929 -0.20885
F_ F_ 0.172332 0.655303 0.190139 -0.20885
F_ F_ 0.11154 0.618587 0.212005 -0.20885
Zn Zn 0.0908108 0.587381 0.851689 0.83971
Zn Zn 0.164673 0.84123 0.591158 0.83971
Zn Zn 0.41534 0.913522 0.65342 0.83971
Zn Zn 0.336344 0.655158 0.931571 0.83971
H_ H_ 0.178637 0.634635 0.821637 0.10394
H_ H_ 0.252485 0.602785 0.771936 0.10394
H_ H_ 0.210947 0.948782 0.785213 0.10394
H_ H_ 0.137821 0.485723 0.830025 0.10394
H_ H_ 0.522565 0.59265 0.748852 0.10394
H_ H_ 0.470966 0.664276 0.705026 0.10394
H_ H_ 0.0258049 0.771332 0.836002 0.10394
H_ H_ 0.0578604 0.694985 0.883374 0.10394
H_ H_ 0.0314033 0.953986 0.882826 0.10394
H_ H_ 0.487936 0.883097 0.898855 0.10394
H_ H_ 0.356666 0.990388 0.911804 0.10394
H_ H_ 0.0837327 0.807852 0.631961 0.10394
H_ H_ 0.503876 0.772089 0.602747 0.10394
H_ H_ 0.0311134 0.813406 0.947148 0.10394
H_ H_ 0.126272 0.816439 0.489537 0.10394
H_ H_ 0.217065 0.745382 0.614498 0.10394
H_ H_ 0.25864 0.707692 0.689441 0.10394
H_ H_ 0.22403 0.850083 0.775964 0.10394
H_ H_ 0.170574 0.880022 0.699042 0.10394
H_ H_ 0.220802 0.854739 0.941353 0.10394
H_ H_ 0.279133 0.856549 0.877072 0.10394
H_ H_ 0.391961 0.906859 0.99238 0.10394
H_ H_ 0.310461 0.890032 0.665517 0.10394
H_ H_ 0.238312 0.937718 0.701543 0.10394
H_ H_ 0.334092 0.553585 0.77039 0.10394
H_ H_ 0.408884 -0.00327235 0.733834 0.10394
H_ H_ 0.0012352 0.894879 0.721058 0.10394
H_ H_ 0.0530434 0.812118 0.751402 0.10394
H_ H_ 0.405884 0.74333 0.722224 0.10394
H_ H_ 0.375244 0.817622 0.670831 0.10394
H_ H_ 0.46036 0.556547 0.607358 0.10394
H_ H_ 0.021001 0.622656 0.610488 0.10394
H_ H_ 0.145011 0.505993 0.583459 0.10394
H_ H_ 0.447097 0.638208 0.938124 0.10394
H_ H_ 0.0235839 0.698733 0.95641 0.10394
H_ H_ 0.420981 0.770044 0.555825 0.10394
H_ H_ 0.344974 0.743486 0.0073197 0.10394
H_ H_ 0.228432 0.705233 0.896124 0.10394
H_ H_ 0.190187 0.745106 0.818176 0.10394
H_ H_ 0.338993 0.742602 0.770525 0.10394
H_ H_ 0.371477 0.686784 0.841558 0.10394
H_ H_ 0.28561 0.613844 0.551252 0.10394
H_ H_ 0.237108 0.583229 0.61904 0.10394
H_ H_ 0.105625 0.607274 0.509239 0.10394
C_ C_ 0.182814 0.594512 0.810248 0.18167
C_ C_ 0.226074 0.576668 0.786532 -0.15533
C_ C_ 0.238436 0.525827 0.779636 0.02923
C_ C_ 0.205056 0.990478 0.787795 -0.15533
C_ C_ 0.163453 0.510788 0.819434 0.18167
C_ C_ 0.03467 0.633505 0.767721 0.18167
C_ C_ 0.496416 0.669871 0.739961 -0.15533
C_ C_ 0.0101613 0.722614 0.764231 0.02923
C_ C_ 0.0302914 0.731019 0.814977 -0.15533
C_ C_ 0.0453052 0.688403 0.842507 0.18167
C_ C_ 0.0117178 0.545455 0.864445 0.69207
C_ C_ 0.472847 0.00689076 0.873005 0.02923
C_ C_ 0.49456 0.95653 0.874338 -0.15533
C_ C_ 0.467128 0.918864 0.886722 -0.15533
C_ C_ 0.414432 0.928354 0.892513 0.02923
C_ C_ 0.393279 0.980363 0.897475 -0.15533
C_ C_ 0.422753 0.0208243 0.886692 0.02923
C_ C_ 0.387024 0.569386 0.885478 0.69207
C_ C_ 0.405768 0.829279 0.887147 0.69661
C_ C_ 0.0744596 0.796505 0.593235 0.18167
C_ C_ 0.0264073 0.784604 0.574465 -0.15533
C_ C_ 0.0206232 0.768408 0.521863 0.02923
C_ C_ 0.0428518 0.804212 0.986332 -0.15533
C_ C_ 0.104165 0.795806 0.511276 0.18167
C_ C_ 0.217627 0.766966 0.650311 0.18167
C_ C_ 0.239325 0.744788 0.695245 -0.15533
C_ C_ 0.244447 0.775628 0.742585 0.02923
C_ C_ 0.221092 0.825911 0.743208 -0.15533
C_ C_ 0.190401 0.842802 0.698614 0.18167
C_ C_ 0.242327 0.870045 0.555579 0.69207
C_ C_ 0.273759 0.875376 0.0054915 0.02923
C_ C_ 0.258973 0.865978 0.95317 -0.15533
C_ C_ 0.292099 0.867067 0.916976 -0.15533
C_ C_ 0.339144 0.887499 0.928139 0.02923
C_ C_ 0.354729 0.896762 0.981408 -0.15533
C_ C_ 0.325124 0.888933 0.0214127 0.02923
C_ C_ 0.356532 0.884465 0.574366 0.69207
C_ C_ 0.350386 0.889584 0.829083 0.69661
C_ C_ 0.31639 0.926672 0.683645 0.18167
C_ C_ 0.275866 0.953409 0.70664 -0.15533
C_ C_ 0.280311 0.996465 0.739548 0.02923
C_ C_ 0.324645 0.521529 0.74439 -0.15533
C_ C_ 0.370286 0.983943 0.728619 0.18167
C_ C_ 0.49518 0.846679 0.703992 0.18167
C_ C_ 0.0135679 0.811564 0.733747 -0.15533
C_ C_ 0.480859 0.763985 0.732027 0.02923
C_ C_ 0.430383 0.772202 0.713403 -0.15533
C_ C_ 0.412854 0.815841 0.689728 0.18167
C_ C_ 0.491339 0.946829 0.617409 0.69207
C_ C_ 0.0209488 0.492445 0.60642 0.02923
C_ C_ 1.00587935 0.544715 0.615156 -0.15533
C_ C_ 0.0395833 0.583581 0.611678 -0.15533
C_ C_ 0.0893146 0.571264 0.599558 0.02923
C_ C_ 0.103799 0.518405 0.590447 -0.15533
C_ C_ 0.071762 0.480019 0.597216 0.02923
C_ C_ 0.0939247 0.91633 0.606014 0.69207
C_ C_ 0.106814 0.66661 0.604187 0.69661
C_ C_ 0.438649 0.675727 0.95408 0.18167
C_ C_ 0.478939 0.697966 0.977739 -0.15533
C_ C_ 0.469664 0.743036 0.00914889 0.02923
C_ C_ 0.429875 0.742867 0.525712 -0.15533
C_ C_ 0.382674 0.72892 1.00148 0.18167
C_ C_ 0.252013 0.702693 0.864697 0.18167
C_ C_ 0.231725 0.731414 0.822213 -0.15533
C_ C_ 0.264079 0.748127 0.790685 0.02923
C_ C_ 0.31629 0.735074 0.798546 -0.15533
C_ C_ 0.334097 0.702478 0.838657 0.18167
C_ C_ 0.257839 0.628386 0.962769 0.69207
C_ C_ 0.227274 0.612838 0.49021 0.02923
C_ C_ 0.246671 0.608928 0.542658 -0.15533
C_ C_ 0.218368 0.593165 0.579294 -0.15533
C_ C_ 0.166406 0.598246 0.568328 0.02923
C_ C_ 0.145273 0.599074 0.516216 -0.15533
C_ C_ 0.175429 0.60834 0.47684 0.02923
C_ C_ 0.14357 0.609783 0.935361 0.69207
C_ C_ 0.150877 0.609074 0.667287 0.69661
C_ C_ 0.377874 0.884166 0.885055 -0.30787
C_ C_ 0.12968 0.610241 0.609291 -0.30787
N_ N_ 0.148814 0.562887 0.822677 -0.32189
N_ N_ 0.0525649 0.642063 0.816044 -0.32189
N_ N_ 0.113142 0.800315 0.563524 -0.32189
N_ N_ 0.193423 0.814296 0.653661 -0.32189
N_ N_ 0.364175 0.94355 0.695086 -0.32189
N_ N_ 0.444431 0.853737 0.68671 -0.32189
N_ N_ 0.389703 0.692664 0.962515 -0.32189
N_ N_ 0.303529 0.687041 0.870002 -0.32189
O_ O_ 0.496335 0.591242 0.880378 -0.63271
O_ O_ 0.0488043 0.534282 0.835845 -0.57982
O_ O_ 0.38787 0.598 0.8463 -0.63271
O_ O_ 0.365015 0.588905 0.926633 -0.57982
O_ O_ 0.240223 0.898012 0.598296 -0.63271
O_ O_ 0.213669 0.832333 0.546049 -0.57982
O_ O_ 0.374965 0.839255 0.588857 -0.63271
O_ O_ 0.380232 0.922014 0.595221 -0.57982
O_ O_ 0.981565 0.898443 0.590677 -0.63271
O_ O_ 0.46413 0.955336 0.656337 -0.57982
O_ O_ 0.093827 0.895736 0.650812 -0.63271
O_ O_ 0.13047 0.902438 0.577298 -0.57982
O_ O_ 0.254067 0.607759 0.916698 -0.63271
O_ O_ 0.294688 0.656207 0.977223 -0.57982
O_ O_ 0.144792 0.648406 0.907866 -0.63271
O_ O_ 0.113057 0.57632 0.918255 -0.57982
F_ F_ 0.436355 0.825906 0.932614 -0.20885
F_ F_ 0.436748 0.817554 0.847852 -0.20885
F_ F_ 0.373193 0.789935 0.883835 -0.20885
F_ F_ 0.310565 0.927427 0.826597 -0.20885
F_ F_ 0.33161 0.847126 0.803471 -0.20885
F_ F_ 0.379438 0.902682 0.794284 -0.20885
F_ F_ 0.0778766 0.677172 0.559829 -0.20885
F_ F_ 0.0743046 0.68517 0.63984 -0.20885
F_ F_ 0.147632 0.694839 0.606568 -0.20885
F_ F_ 0.17033 0.559698 0.6758 -0.20885
F_ F_ 0.189253 0.641361 0.677348 -0.20885
F_ F_ 0.117326 0.625638 0.702604 -0.20885
Zn Zn 0.583912 0.0802369 0.345564 0.83971
Zn Zn 0.664087 0.338383 0.0774247 0.83971
Zn Zn 0.910712 0.423688 0.159896 0.83971
Zn Zn 0.841226 0.147092 0.410945 0.83971
H_ H_ 0.667043 0.129795 0.301971 0.10394
H_ H_ 0.742816 0.102838 0.263535 0.10394
H_ H_ 0.716211 0.44356 0.290762 0.10394
H_ H_ 0.637467 0.980307 0.328226 0.10394
H_ H_ 0.0325493 0.0999614 0.25292 0.10394
H_ H_ 0.980894 0.179308 0.210813 0.10394
H_ H_ 0.524367 0.266548 0.333434 0.10394
H_ H_ 0.579921 0.195381 0.374686 0.10394
H_ H_ 0.535486 0.452149 0.376113 0.10394
H_ H_ 0.979401 0.373173 0.386198 0.10394
H_ H_ 0.855957 0.484984 0.418884 0.10394
H_ H_ 0.586676 0.299407 0.127556 0.10394
H_ H_ 1.00641805 0.271485 0.0994585 0.10394
H_ H_ 0.523748 0.289885 0.444094 0.10394
H_ H_ 0.621182 0.315784 0.975611 0.10394
H_ H_ 0.705127 0.23574 0.0889268 0.10394
H_ H_ 0.750682 0.191938 0.169058 0.10394
H_ H_ 0.721437 0.331275 0.257025 0.10394
H_ H_ 0.692845 0.376961 0.179548 0.10394
H_ H_ 0.715563 0.358892 0.438513 0.10394
H_ H_ 0.769729 0.377157 0.373088 0.10394
H_ H_ 0.898242 0.393978 0.487577 0.10394
H_ H_ 0.808592 0.402575 0.163879 0.10394
H_ H_ 0.738836 0.444583 0.20825 0.10394
H_ H_ 0.832263 0.0326215 0.28985 0.10394
H_ H_ 0.904758 0.514079 0.231533 0.10394
H_ H_ 0.509327 0.382018 0.197882 0.10394
H_ H_ 0.553472 0.307624 0.244178 0.10394
H_ H_ 0.917 0.250235 0.223716 0.10394
H_ H_ 0.876461 0.327564 0.186085 0.10394
H_ H_ 0.962898 0.0625106 0.130232 0.10394
H_ H_ 0.512414 0.114286 0.0953093 0.10394
H_ H_ 0.638907 0.00390822 0.0763941 0.10394
H_ H_ 0.950007 0.149699 0.395951 0.10394
H_ H_ 0.506396 0.19495 0.44763 0.10394
H_ H_ 0.925638 0.28115 0.0522723 0.10394
H_ H_ 0.841455 0.227213 0.482158 0.10394
H_ H_ 0.73474 0.191769 0.377844 0.10394
H_ H_ 0.703015 0.25224 0.309106 0.10394
H_ H_ 0.838845 0.214656 0.238731 0.10394
H_ H_ 0.87981 0.173804 0.3163 0.10394
H_ H_ 0.782665 0.137362 0.05737 0.10394
H_ H_ 0.732584 0.103498 0.120179 0.10394
H_ H_ 0.614065 0.0856894 0.0030491 0.10394
C_ C_ 0.674797 0.0900564 0.294744 0.18167
C_ C_ 0.718462 0.0718238 0.273391 -0.15533
C_ C_ 0.731725 0.0173796 0.267359 0.02923
C_ C_ 0.704661 0.483295 0.295628 -0.15533
C_ C_ 0.657542 0.00602169 0.307444 0.18167
C_ C_ 0.532543 0.132768 0.269254 0.18167
C_ C_ 0.00512735 0.181389 0.247037 -0.15533
C_ C_ 0.507913 0.222026 0.26396 0.02923
C_ C_ 0.526982 0.229785 0.314464 -0.15533
C_ C_ 0.554815 0.18883 0.339322 0.18167
C_ C_ 0.505793 0.0407755 0.352465 0.69207
C_ C_ 0.972839 0.503051 0.383701 0.02923
C_ C_ 0.99247 0.451447 0.378109 -0.15533
C_ C_ 0.963162 0.412507 0.387053 -0.15533
C_ C_ 0.911984 0.424808 0.395097 0.02923
C_ C_ 0.893346 0.476513 0.40654 -0.15533
C_ C_ 0.923443 0.51642 0.401439 0.02923
C_ C_ 0.899123 0.0623976 0.38228 0.69207
C_ C_ 0.895397 0.330608 0.364497 0.69661
C_ C_ 0.575101 0.29685 0.0846103 0.18167
C_ C_ 0.530746 0.277434 0.0676567 -0.15533
C_ C_ 0.517495 0.267988 0.0140557 0.02923
C_ C_ 0.534912 0.294224 0.485038 -0.15533
C_ C_ 0.595235 0.304688 0.00101642 0.18167
C_ C_ 0.713546 0.256779 0.126632 0.18167
C_ C_ 0.736476 0.233047 0.170629 -0.15533
C_ C_ 0.743303 0.260868 0.217951 0.02923
C_ C_ 0.722958 0.311613 0.221151 -0.15533
C_ C_ 0.700105 0.335014 0.177361 0.18167
C_ C_ 0.740963 0.37097 0.0464828 0.69207
C_ C_ 0.772597 0.370368 0.501894 0.02923
C_ C_ 0.755239 0.361969 0.449072 -0.15533
C_ C_ 0.785967 0.37398 0.412075 -0.15533
C_ C_ 0.83866 0.383291 0.423437 0.02923
C_ C_ 0.85715 0.386857 0.475297 -0.15533
C_ C_ 0.823694 0.385141 0.514175 0.02923
C_ C_ 0.851978 0.395404 0.076299 0.69207
C_ C_ 0.841512 0.402581 0.327615 0.69661
C_ C_ 0.81686 0.436105 0.189567 0.18167
C_ C_ 0.775872 0.459389 0.214246 -0.15533
C_ C_ 0.780177 0.501288 0.249719 0.02923
C_ C_ 0.826186 0.0100406 0.253702 -0.15533
C_ C_ 0.867377 0.501119 0.224765 0.18167
C_ C_ 0.992498 0.358902 0.208755 0.18167
C_ C_ 0.51326 0.308068 0.22861 -0.15533
C_ C_ 0.987981 0.277858 0.243433 0.02923
C_ C_ 0.937129 0.281289 0.221664 -0.15533
C_ C_ 0.913678 0.326429 0.201269 0.18167
C_ C_ 0.988666 0.457705 0.129267 0.69207
C_ C_ 0.519392 0.989379 0.112651 0.02923
C_ C_ 0.500689 0.0399225 0.107861 -0.15533
C_ C_ 0.532252 0.078277 0.100974 -0.15533
C_ C_ 0.582459 0.0679126 0.0901684 0.02923
C_ C_ 0.600978 0.0153867 0.0889159 -0.15533
C_ C_ 0.57211 0.97713 0.10158 0.02923
C_ C_ 0.602728 0.416824 0.103388 0.69207
C_ C_ 0.600219 0.16169 0.10372 0.69661
C_ C_ 0.943077 0.173944 0.428957 0.18167
C_ C_ 0.98113 0.200037 0.45505 -0.15533
C_ C_ 0.965942 0.245141 0.486103 0.02923
C_ C_ 0.934117 0.249711 0.0196152 -0.15533
C_ C_ 0.880304 0.2258 0.471168 0.18167
C_ C_ 0.758938 0.196964 0.347488 0.18167
C_ C_ 0.735912 0.224641 0.303755 -0.15533
C_ C_ 0.764579 0.23402 0.265208 0.02923
C_ C_ 0.816738 0.213021 0.269884 -0.15533
C_ C_ 0.83796 0.186394 0.313176 0.18167
C_ C_ 0.758977 0.119095 0.447777 0.69207
C_ C_ 0.727814 0.129172 0.993215 0.02923
C_ C_ 0.745793 0.127409 0.0449627 -0.15533
C_ C_ 0.715981 0.109855 0.0829697 -0.15533
C_ C_ 0.666204 0.101069 0.0673647 0.02923
C_ C_ 0.650861 0.0952431 0.0156421 -0.15533
C_ C_ 0.680329 0.111235 0.978308 0.02923
C_ C_ 0.64697 0.106043 0.424138 0.69207
C_ C_ 0.645959 0.098567 0.15909 0.69661
C_ C_ 0.871913 0.386288 0.378054 -0.30787
C_ C_ 0.621921 0.106602 0.103409 -0.30787
N_ N_ 0.643868 0.0577288 0.310355 -0.32189
N_ N_ 0.557735 0.140784 0.315715 -0.32189
N_ N_ 0.609647 0.301766 0.0514624 -0.32189
N_ N_ 0.69614 0.305653 0.132525 -0.32189
N_ N_ 0.861436 0.456552 0.193949 -0.32189
N_ N_ 0.942889 0.364212 0.194636 -0.32189
N_ N_ 0.894049 0.188776 0.435246 -0.32189
N_ N_ 0.808409 0.176922 0.349334 -0.32189
O_ O_ 0.0106742 0.0729517 0.404085 -0.63271
O_ O_ 0.543363 0.0296987 0.327329 -0.57982
O_ O_ 0.90202 0.0909067 0.344008 -0.63271
O_ O_ 0.870442 0.0818614 0.417009 -0.57982
O_ O_ 0.742707 0.389268 0.0929456 -0.63271
O_ O_ 0.706945 0.340336 0.0318944 -0.57982
O_ O_ 0.854613 0.352729 0.101126 -0.63271
O_ O_ 0.879407 0.432345 0.0970862 -0.57982
O_ O_ 0.502293 0.402623 0.10706 -0.63271
O_ O_ 0.956052 0.464772 0.162779 -0.57982
O_ O_ 0.606709 0.391058 0.142154 -0.63271
O_ O_ 0.632548 0.399919 0.0683376 -0.57982
O_ O_ 0.757559 0.0963213 0.401302 -0.63271
O_ O_ 0.791341 0.154552 0.458275 -0.57982
O_ O_ 0.651843 0.142186 0.392385 -0.63271
O_ O_ 0.612309 0.0742937 0.409333 -0.57982
F_ F_ 0.928453 0.308763 0.399107 -0.20885
F_ F_ 0.91866 0.329069 0.321015 -0.20885
F_ F_ 0.857411 0.297899 0.35855 -0.20885
F_ F_ 0.808865 0.446638 0.336416 -0.20885
F_ F_ 0.81149 0.367066 0.302072 -0.20885
F_ F_ 0.871389 0.416001 0.292905 -0.20885
F_ F_ 0.577397 0.175142 0.0561341 -0.20885
F_ F_ 0.563349 0.172737 0.136405 -0.20885
F_ F_ 0.633746 0.198194 0.119047 -0.20885
F_ F_ 0.680505 0.0550457 0.162489 -0.20885
F_ F_ 0.672723 0.135362 0.182396 -0.20885
F_ F_ 0.607042 0.09312 0.189941 -0.20885
Zn Zn 0.589558 0.0902423 0.849089 0.83971
Zn Zn 0.654352 0.349396 0.582936 0.83971
Zn Zn 0.908181 0.418867 0.645867 0.83971
Zn Zn 0.842085 0.167245 0.920034 0.83971
H_ H_ 0.665591 0.136695 0.801068 0.10394
H_ H_ 0.747958 0.103185 0.776276 0.10394
H_ H_ 0.711861 0.447779 0.780979 0.10394
H_ H_ 0.629009 0.988275 0.824229 0.10394
H_ H_ 0.0284512 0.101027 0.747192 0.10394
H_ H_ 0.98575 0.17106 0.703814 0.10394
H_ H_ 0.53872 0.275817 0.831717 0.10394
H_ H_ 0.575181 0.204576 0.880399 0.10394
H_ H_ 0.518562 0.446173 0.844426 0.10394
H_ H_ 0.980809 0.383461 0.884422 0.10394
H_ H_ 0.852352 0.492183 0.887258 0.10394
H_ H_ 0.570447 0.311239 0.630331 0.10394
H_ H_ -0.004218999999999973 0.264472 0.584024 0.10394
H_ H_ 0.534705 0.293894 0.937845 0.10394
H_ H_ 0.605807 0.32325 0.477779 0.10394
H_ H_ 0.728093 0.259026 0.595244 0.10394
H_ H_ 0.754992 0.20359 0.667495 0.10394
H_ H_ 0.703211 0.331974 0.764669 0.10394
H_ H_ 0.668742 0.379567 0.691478 0.10394
H_ H_ 0.71529 0.380369 0.945339 0.10394
H_ H_ 0.762414 0.404893 0.882985 0.10394
H_ H_ 0.894565 0.408205 0.991907 0.10394
H_ H_ 0.801066 0.400103 0.661484 0.10394
H_ H_ 0.731463 0.451887 0.69294 0.10394
H_ H_ 0.827918 0.0551634 0.775948 0.10394
H_ H_ 0.903271 0.504885 0.726836 0.10394
H_ H_ 0.513633 0.389131 0.695647 0.10394
H_ H_ 0.559431 0.32174 0.748118 0.10394
H_ H_ 0.911976 0.263431 0.745992 0.10394
H_ H_ 0.869578 0.333056 0.688906 0.10394
H_ H_ 0.964852 0.0435742 0.624789 0.10394
H_ H_ 0.516465 0.11739 0.592191 0.10394
H_ H_ 0.651221 0.00954256 0.60039 0.10394
H_ H_ 0.943603 0.180276 0.890567 0.10394
H_ H_ 0.514578 0.197015 0.937722 0.10394
H_ H_ 0.902732 0.282197 0.526794 0.10394
H_ H_ 0.865153 0.217499 0.0209367 0.10394
H_ H_ 0.737622 0.221062 0.897597 0.10394
H_ H_ 0.689945 0.256302 0.822626 0.10394
H_ H_ 0.829191 0.230474 0.744604 0.10394
H_ H_ 0.873386 0.187588 0.823717 0.10394
H_ H_ 0.783136 0.125465 0.549215 0.10394
H_ H_ 0.738632 0.100577 0.615963 0.10394
H_ H_ 0.606269 0.0965655 0.510145 0.10394
C_ C_ 0.676147 0.0963299 0.800493 0.18167
C_ C_ 0.721563 0.0765505 0.78355 -0.15533
C_ C_ 0.732451 0.0252089 0.775698 0.02923
C_ C_ 0.70753 0.485975 0.794901 -0.15533
C_ C_ 0.651658 0.013254 0.805872 0.18167
C_ C_ 0.534916 0.140623 0.776078 0.18167
C_ C_ 0.00378426 0.178561 0.741504 -0.15533
C_ C_ 0.512169 0.232255 0.767363 0.02923
C_ C_ 0.536766 0.237947 0.814868 -0.15533
C_ C_ 0.557758 0.196628 0.842986 0.18167
C_ C_ 0.505449 0.0497288 0.864614 0.69207
C_ C_ 0.974722 0.507249 0.869504 0.02923
C_ C_ 0.991633 0.454901 0.864545 -0.15533
C_ C_ 0.959462 0.417201 0.872303 -0.15533
C_ C_ 0.912019 0.429364 0.889 0.02923
C_ C_ 0.892096 0.481596 0.88479 -0.15533
C_ C_ 0.921519 0.521851 0.880902 0.02923
C_ C_ 0.894707 0.0819717 0.885819 0.69207
C_ C_ 0.89865 0.334875 0.901635 0.69661
C_ C_ 0.561691 0.303283 0.589827 0.18167
C_ C_ 0.51199 0.289524 0.570861 -0.15533
C_ C_ 0.502369 0.277996 0.518097 0.02923
C_ C_ 0.546987 0.288864 0.980006 -0.15533
C_ C_ 0.579982 0.316743 0.505188 0.18167
C_ C_ 0.715867 0.270634 0.632079 0.18167
C_ C_ 0.734309 0.240086 0.674172 -0.15533
C_ C_ 0.727502 0.262547 0.723747 0.02923
C_ C_ 0.703687 0.312772 0.726554 -0.15533
C_ C_ 0.683674 0.339548 0.685707 0.18167
C_ C_ 0.737575 0.365612 0.541588 0.69207
C_ C_ 0.775109 0.383685 1.0100029 0.02923
C_ C_ 0.751916 0.391867 0.959109 -0.15533
C_ C_ 0.783371 0.397082 0.920239 -0.15533
C_ C_ 0.835434 0.399841 0.931253 0.02923
C_ C_ 0.856794 0.397626 0.982773 -0.15533
C_ C_ 0.826178 0.398121 0.0223437 0.02923
C_ C_ 0.845495 0.388284 0.566706 0.69207
C_ C_ 0.848167 0.380125 0.833026 0.69661
C_ C_ 0.808986 0.436516 0.681323 0.18167
C_ C_ 0.768241 0.463352 0.705582 -0.15533
C_ C_ 0.775606 0.503634 0.740189 0.02923
C_ C_ 0.822388 0.024074 0.750727 -0.15533
C_ C_ 0.866141 0.492513 0.723848 0.18167
C_ C_ 0.992354 0.346282 0.681289 0.18167
C_ C_ 0.519004 0.319798 0.733027 -0.15533
C_ C_ 0.98313 0.275271 0.732166 0.02923
C_ C_ 0.932161 0.286997 0.724988 -0.15533
C_ C_ 0.910827 0.327115 0.696495 0.18167
C_ C_ 0.987288 0.453872 0.617158 0.69207
C_ C_ 0.525793 0.988252 0.606472 0.02923
C_ C_ 0.506689 0.0401177 0.608344 -0.15533
C_ C_ 0.535559 0.0793457 0.599917 -0.15533
C_ C_ 0.589424 0.0695623 0.600901 0.02923
C_ C_ 0.611115 0.0181299 0.602642 -0.15533
C_ C_ 0.579054 0.97749 0.60867 0.02923
C_ C_ 0.593087 0.427276 0.609058 0.69207
C_ C_ 0.598652 0.167517 0.605079 0.69661
C_ C_ 0.943086 0.199492 0.926295 0.18167
C_ C_ 0.987273 0.219613 0.953236 -0.15533
C_ C_ 0.979448 0.249437 -0.0020625 0.02923
C_ C_ 0.916084 0.255628 0.497134 -0.15533
C_ C_ 0.896624 0.219006 0.998796 0.18167
C_ C_ 0.758502 0.218367 0.863427 0.18167
C_ C_ 0.730156 0.238475 0.818835 -0.15533
C_ C_ 0.755638 0.240436 0.773173 0.02923
C_ C_ 0.807793 0.226764 0.776877 -0.15533
C_ C_ 0.834324 0.207091 0.823176 0.18167
C_ C_ 0.764691 0.138881 0.956486 0.69207
C_ C_ 0.724305 0.110958 0.487047 0.02923
C_ C_ 0.742899 0.12011 0.53834 -0.15533
C_ C_ 0.715922 0.11224 0.580417 -0.15533
C_ C_ 0.66468 0.103945 0.568111 0.02923
C_ C_ 0.644082 0.102346 0.517914 -0.15533
C_ C_ 0.671602 0.106482 0.476013 0.02923
C_ C_ 0.658946 0.109132 0.924227 0.69207
C_ C_ 0.648805 0.112547 0.665979 0.69661
C_ C_ 0.873745 0.389779 0.889098 -0.30787
C_ C_ 0.626118 0.112975 0.609239 -0.30787
N_ N_ 0.640568 0.0644914 0.812978 -0.32189
N_ N_ 0.558286 0.149585 0.822326 -0.32189
N_ N_ 0.596035 0.315 0.557059 -0.32189
N_ N_ 0.688393 0.318009 0.639164 -0.32189
N_ N_ 0.856479 0.450308 0.689705 -0.32189
N_ N_ 0.941473 0.356253 0.673038 -0.32189
N_ N_ 0.898155 0.199093 0.950448 -0.32189
N_ N_ 0.807926 0.19938 0.86291 -0.32189
O_ O_ 0.00525344 0.094695 0.901972 -0.63271
O_ O_ 0.543765 0.0427452 0.838469 -0.57982
O_ O_ 0.88099 0.103873 0.843967 -0.63271
O_ O_ 0.874218 0.102905 0.927743 -0.57982
O_ O_ 0.741335 0.392947 0.584662 -0.63271
O_ O_ 0.698667 0.337566 0.534962 -0.57982
O_ O_ 0.84776 0.347549 0.594058 -0.63271
O_ O_ 0.877974 0.422326 0.582447 -0.57982
O_ O_ 0.486477 0.408451 0.600101 -0.63271
O_ O_ 0.951265 0.465843 0.647172 -0.57982
O_ O_ 0.586337 0.40124 0.646477 -0.63271
O_ O_ 0.628339 0.413994 0.58124 -0.57982
O_ O_ 0.760237 0.115299 0.911014 -0.63271
O_ O_ 0.797309 0.173925 0.965816 -0.57982
O_ O_ 0.654092 0.151255 0.900633 -0.63271
O_ O_ 0.623895 0.0788248 0.909604 -0.57982
F_ F_ 0.932497 0.337776 0.943258 -0.20885
F_ F_ 0.928038 0.310255 0.863716 -0.20885
F_ F_ 0.865767 0.301082 0.914242 -0.20885
F_ F_ 0.81273 0.421476 0.820413 -0.20885
F_ F_ 0.821244 0.336976 0.825574 -0.20885
F_ F_ 0.882408 0.375678 0.796561 -0.20885
F_ F_ 0.569213 0.17473 0.560363 -0.20885
F_ F_ 0.565829 0.184993 0.640855 -0.20885
F_ F_ 0.632071 0.20415 0.608366 -0.20885
F_ F_ 0.676634 0.0660668 0.672652 -0.20885
F_ F_ 0.684364 0.148562 0.674562 -0.20885
F_ F_ 0.612881 0.120063 0.700035 -0.20885
Zn Zn 0.589287 0.584133 0.348852 0.83971
Zn Zn 0.662288 0.845845 0.0834325 0.83971
Zn Zn 0.913565 0.917491 0.152571 0.83971
Zn Zn 0.842688 0.654088 0.423552 0.83971
H_ H_ 0.667471 0.629836 0.305824 0.10394
H_ H_ 0.74747 0.5958 0.275799 0.10394
H_ H_ 0.704791 0.945863 0.277821 0.10394
H_ H_ 0.629676 0.477989 0.321 0.10394
H_ H_ 0.0096202 0.595548 0.260029 0.10394
H_ H_ 0.976124 0.669016 0.204669 0.10394
H_ H_ 0.550729 0.768768 0.311506 0.10394
H_ H_ 0.597727 0.696454 0.357858 0.10394
H_ H_ 0.531712 0.941567 0.367346 0.10394
H_ H_ 0.973292 0.869529 0.360943 0.10394
H_ H_ 0.851076 0.983111 0.39304 0.10394
H_ H_ 0.59193 0.791077 0.134559 0.10394
H_ H_ 1.00053 0.770343 0.0958897 0.10394
H_ H_ 0.538972 0.793249 0.447799 0.10394
H_ H_ 0.604018 0.832937 0.981476 0.10394
H_ H_ 0.728159 0.753287 0.0971834 0.10394
H_ H_ 0.759385 0.699824 0.167966 0.10394
H_ H_ 0.723144 0.830986 0.271063 0.10394
H_ H_ 0.678165 0.876806 0.193744 0.10394
H_ H_ 0.708779 0.883479 0.450555 0.10394
H_ H_ 0.760362 0.881417 0.380112 0.10394
H_ H_ 0.895163 0.900878 0.488257 0.10394
H_ H_ 0.814239 0.898426 0.157541 0.10394
H_ H_ 0.733651 0.944748 0.188432 0.10394
H_ H_ 0.837976 0.552142 0.280308 0.10394
H_ H_ 0.902612 0.996431 0.240445 0.10394
H_ H_ 0.514215 0.880287 0.192519 0.10394
H_ H_ 0.563563 0.80151 0.224014 0.10394
H_ H_ 0.900554 0.749305 0.233739 0.10394
H_ H_ 0.863994 0.82385 0.184357 0.10394
H_ H_ 0.964381 0.554323 0.134595 0.10394
H_ H_ 0.527867 0.612843 0.105947 0.10394
H_ H_ 0.658781 0.499388 0.0961253 0.10394
H_ H_ 0.94096 0.656468 0.398568 0.10394
H_ H_ 0.518266 0.705647 0.438348 0.10394
H_ H_ 0.907509 0.784734 0.0407454 0.10394
H_ H_ 0.85193 0.733445 0.507613 0.10394
H_ H_ 0.740296 0.711725 0.396968 0.10394
H_ H_ 0.700819 0.7424 0.315972 0.10394
H_ H_ 0.83744 0.711825 0.245752 0.10394
H_ H_ 0.876034 0.673812 0.327783 0.10394
H_ H_ 0.793538 0.596487 0.0504737 0.10394
H_ H_ 0.738515 0.575356 0.112172 0.10394
H_ H_ 0.608244 0.584656 0.00582624 0.10394
C_ C_ 0.679665 0.588387 0.30566 0.18167
C_ C_ 0.724184 0.569224 0.286811 -0.15533
C_ C_ 0.73749 0.517829 0.281259 0.02923
C_ C_ 0.698612 0.98581 0.283581 -0.15533
C_ C_ 0.657541 0.503397 0.312867 0.18167
C_ C_ 0.524678 0.631452 0.270204 0.18167
C_ C_ -0.0021740000000000093 0.67569 0.241807 -0.15533
C_ C_ 0.521001 0.719444 0.250641 0.02923
C_ C_ 0.550903 0.729832 0.29759 -0.15533
C_ C_ 0.568987 0.690148 0.327873 0.18167
C_ C_ 0.510395 0.549248 0.372871 0.69207
C_ C_ 0.972414 -0.002819000000000016 0.369843 0.02923
C_ C_ -0.011167000000000038 0.945578 0.363129 -0.15533
C_ C_ 0.956403 0.906743 0.368884 -0.15533
C_ C_ 0.90834 0.91952 0.385187 0.02923
C_ C_ 0.890708 0.972043 0.389429 -0.15533
C_ C_ 0.921745 0.00991229 0.383525 0.02923
C_ C_ 0.897685 0.567812 0.395975 0.69207
C_ C_ 0.894633 0.825281 0.388989 0.69661
C_ C_ 0.579018 0.790781 0.0934502 0.18167
C_ C_ 0.531691 0.77307 0.0769062 -0.15533
C_ C_ 0.512964 0.773163 0.0270002 0.02923
C_ C_ 0.545786 0.797187 0.488509 -0.15533
C_ C_ 0.58307 0.818325 0.00964888 0.18167
C_ C_ 0.721522 0.766542 0.135931 0.18167
C_ C_ 0.742886 0.738739 0.176932 -0.15533
C_ C_ 0.737752 0.758507 0.228747 0.02923
C_ C_ 0.719073 0.811741 0.234565 -0.15533
C_ C_ 0.700478 0.84102 0.190587 0.18167
C_ C_ 0.742868 0.870531 0.0476583 0.69207
C_ C_ 0.77281 0.883756 0.507157 0.02923
C_ C_ 0.751646 0.882445 0.457173 -0.15533
C_ C_ 0.780812 0.88407 0.416397 -0.15533
C_ C_ 0.83292 0.889768 0.42666 0.02923
C_ C_ 0.85447 0.895654 0.478164 -0.15533
C_ C_ 0.824275 0.889427 0.51951 0.02923
C_ C_ 0.852597 0.896703 0.0689069 0.69207
C_ C_ 0.842187 0.880045 0.327774 0.69661
C_ C_ 0.815114 0.934337 0.178648 0.18167
C_ C_ 0.773177 0.956272 0.202086 -0.15533
C_ C_ 0.777475 0.995213 0.240294 0.02923
C_ C_ 0.827955 0.520991 0.25368 -0.15533
C_ C_ 0.865919 0.990496 0.226001 0.18167
C_ C_ 0.985096 0.85011 0.194352 0.18167
C_ C_ 0.520936 0.804611 0.213383 -0.15533
C_ C_ 0.978289 0.766896 0.229444 0.02923
C_ C_ 0.925521 0.776628 0.219681 -0.15533
C_ C_ 0.90374 0.820214 0.195935 0.18167
C_ C_ 0.988446 0.960488 0.12196 0.69207
C_ C_ 0.531688 0.488344 0.117854 0.02923
C_ C_ 0.515034 0.539134 0.120311 -0.15533
C_ C_ 0.545678 0.575621 0.113038 -0.15533
C_ C_ 0.596212 0.564037 0.104355 0.02923
C_ C_ 0.616912 0.511498 0.100313 -0.15533
C_ C_ 0.584392 0.474452 0.108904 0.02923
C_ C_ 0.60071 0.927059 0.112021 0.69207
C_ C_ 0.613479 0.662426 0.105551 0.69661
C_ C_ 0.938197 0.682658 0.431945 0.18167
C_ C_ 0.981385 0.703209 0.45815 -0.15533
C_ C_ 0.976843 0.740701 0.498863 0.02923
C_ C_ 0.918208 0.761286 1.00841236 -0.15533
C_ C_ 0.887177 0.726339 0.493848 0.18167
C_ C_ 0.763122 0.714426 0.365563 0.18167
C_ C_ 0.737809 0.728488 0.317128 -0.15533
C_ C_ 0.763508 0.729595 0.272746 0.02923
C_ C_ 0.815224 0.7076 0.27608 -0.15533
C_ C_ 0.836311 0.688125 0.324331 0.18167
C_ C_ 0.768156 0.621739 0.453451 0.69207
C_ C_ 0.730059 0.607994 0.990592 0.02923
C_ C_ 0.75233 0.596503 0.040007 -0.15533
C_ C_ 0.721146 0.585525 0.0773898 -0.15533
C_ C_ 0.667606 0.589488 0.0674909 0.02923
C_ C_ 0.648643 0.590805 0.0165942 -0.15533
C_ C_ 0.678734 0.599039 0.978411 0.02923
C_ C_ 0.658321 0.601957 0.425132 0.69207
C_ C_ 0.657706 0.604457 0.167262 0.69661
C_ C_ 0.869001 0.879179 0.382732 -0.30787
C_ C_ 0.632447 0.603908 0.110995 -0.30787
N_ N_ 0.644706 0.556257 0.314166 -0.32189
N_ N_ 0.555374 0.64142 0.314299 -0.32189
N_ N_ 0.603062 0.813946 0.0598484 -0.32189
N_ N_ 0.698583 0.816481 0.142608 -0.32189
N_ N_ 0.860101 0.951752 0.189521 -0.32189
N_ N_ 0.934609 0.854459 0.181389 -0.32189
N_ N_ 0.894607 0.692112 0.45227 -0.32189
N_ N_ 0.810538 0.692149 0.366104 -0.32189
O_ O_ -0.0021839999999999637 0.588989 0.396264 -0.63271
O_ O_ 0.541742 0.539346 0.33697 -0.57982
O_ O_ 0.891765 0.590471 0.354235 -0.63271
O_ O_ 0.876366 0.591911 0.433836 -0.57982
O_ O_ 0.742924 0.901278 0.0898454 -0.63271
O_ O_ 0.70863 0.84 0.0378479 -0.57982
O_ O_ 0.850073 0.85633 0.0926265 -0.63271
O_ O_ 0.881245 0.93133 0.0897821 -0.57982
O_ O_ 0.489858 0.904851 0.096304 -0.63271
O_ O_ 0.956625 0.966226 0.157143 -0.57982
O_ O_ 0.596577 0.90332 0.153278 -0.63271
O_ O_ 0.636563 0.908297 0.0833449 -0.57982
O_ O_ 0.76589 0.59633 0.409391 -0.63271
O_ O_ 0.796819 0.658869 0.462659 -0.57982
O_ O_ 0.665579 0.642153 0.400818 -0.63271
O_ O_ 0.618253 0.577672 0.412553 -0.57982
F_ F_ 0.928894 0.824308 0.434664 -0.20885
F_ F_ 0.921488 0.804019 0.349755 -0.20885
F_ F_ 0.859482 0.790787 0.395379 -0.20885
F_ F_ 0.811764 0.924986 0.316438 -0.20885
F_ F_ 0.811244 0.84263 0.316883 -0.20885
F_ F_ 0.874805 0.875365 0.291983 -0.20885
F_ F_ 0.576939 0.666805 0.0639218 -0.20885
F_ F_ 0.585934 0.683666 0.144982 -0.20885
F_ F_ 0.654649 0.688747 0.0993369 -0.20885
F_ F_ 0.688641 0.559239 0.177149 -0.20885
F_ F_ 0.683974 0.645885 0.186125 -0.20885
F_ F_ 0.61896 0.606894 0.198603 -0.20885
Zn Zn 0.585635 0.579293 0.844307 0.83971
Zn Zn 0.664886 0.842246 0.584467 0.83971
Zn Zn 0.903452 0.913312 0.660009 0.83971
Zn Zn 0.845204 0.654818 0.921062 0.83971
H_ H_ 0.665005 0.630574 0.801598 0.10394
H_ H_ 0.746077 0.602591 0.775539 0.10394
H_ H_ 0.709948 0.952248 0.795346 0.10394
H_ H_ 0.644968 0.479685 0.836997 0.10394
H_ H_ 0.0352301 0.594981 0.751297 0.10394
H_ H_ 0.996966 0.668157 0.699604 0.10394
H_ H_ 0.524558 0.766457 0.828482 0.10394
H_ H_ 0.571969 0.690679 0.870325 0.10394
H_ H_ 0.535127 0.94576 0.872845 0.10394
H_ H_ 0.981164 0.89389 0.892832 0.10394
H_ H_ 0.847189 0.999302217 0.894647 0.10394
H_ H_ 0.587524 0.805127 0.633848 0.10394
H_ H_ 0.0011399999999999189 0.77501 0.601452 0.10394
H_ H_ 0.531091 0.789658 0.951507 0.10394
H_ H_ 0.617472 0.826772 0.484765 0.10394
H_ H_ 0.736805 0.75375 0.598779 0.10394
H_ H_ 0.774831 0.704802 0.675228 0.10394
H_ H_ 0.710129 0.831703 0.772734 0.10394
H_ H_ 0.680381 0.875492 0.694329 0.10394
H_ H_ 0.713957 0.876459 0.94798 0.10394
H_ H_ 0.761183 0.89963 0.879068 0.10394
H_ H_ 0.888962 0.925885 0.984286 0.10394
H_ H_ 0.805884 0.897232 0.671781 0.10394
H_ H_ 0.730201 0.947091 0.698569 0.10394
H_ H_ 0.83462 0.547878 0.780228 0.10394
H_ H_ 0.90102 1.0133456 0.730101 0.10394
H_ H_ 0.516504 0.881856 0.708938 0.10394
H_ H_ 0.554412 0.790148 0.72535 0.10394
H_ H_ 0.917754 0.735222 0.709137 0.10394
H_ H_ 0.872564 0.81433 0.675921 0.10394
H_ H_ 0.96699 0.556045 0.626511 0.10394
H_ H_ 0.51495 0.618463 0.586723 0.10394
H_ H_ 0.641019 0.503054 0.586984 0.10394
H_ H_ 0.952139 0.655827 0.908137 0.10394
H_ H_ 0.516481 0.680257 0.972102 0.10394
H_ H_ 0.91959 0.780434 0.545023 0.10394
H_ H_ 0.848422 0.73013 1.00253985 0.10394
H_ H_ 0.74762 0.699065 0.894278 0.10394
H_ H_ 0.704202 0.752962 0.821669 0.10394
H_ H_ 0.844522 0.730604 0.752135 0.10394
H_ H_ 0.883056 0.688595 0.82727 0.10394
H_ H_ 0.78498 0.630381 0.556968 0.10394
H_ H_ 0.729547 0.617548 0.62171 0.10394
H_ H_ 0.612765 0.585664 0.502532 0.10394
C_ C_ 0.675883 0.590032 0.800792 0.18167
C_ C_ 0.720574 0.573293 0.778569 -0.15533
C_ C_ 0.735846 0.520138 0.774821 0.02923
C_ C_ 0.699388 0.993991 0.793328 -0.15533
C_ C_ 0.663164 0.505447 0.819005 0.18167
C_ C_ 0.524972 0.630291 0.766344 0.18167
C_ C_ 0.0112729 0.673246 0.740355 -0.15533
C_ C_ 0.499246 0.719655 0.760871 0.02923
C_ C_ 0.522482 0.727816 0.811261 -0.15533
C_ C_ 0.552436 0.686546 0.832789 0.18167
C_ C_ 0.499853 0.545713 0.85894 0.69207
C_ C_ 0.970333 0.0156358 0.879166 0.02923
C_ C_ -0.01010500000000003 0.964196 0.872711 -0.15533
C_ C_ 0.960984 0.92658 0.884295 -0.15533
C_ C_ 0.907613 0.937799 0.888545 0.02923
C_ C_ 0.887915 0.989049 0.890276 -0.15533
C_ C_ 0.91745 0.0294055 0.884483 0.02923
C_ C_ 0.900738 0.574804 0.882788 0.69207
C_ C_ 0.898312 0.842765 0.895594 0.69661
C_ C_ 0.577301 0.799851 0.595061 0.18167
C_ C_ 0.531555 0.778415 0.57572 -0.15533
C_ C_ 0.515708 0.775209 0.522384 0.02923
C_ C_ 0.540986 0.793028 0.993237 -0.15533
C_ C_ 0.591221 0.815033 0.509476 0.18167
C_ C_ 0.73369 0.769078 0.636431 0.18167
C_ C_ 0.752694 0.741305 0.681565 -0.15533
C_ C_ 0.744188 0.763137 0.730568 0.02923
C_ C_ 0.714599 0.811411 0.735199 -0.15533
C_ C_ 0.69734 0.837046 0.691129 0.18167
C_ C_ 0.741873 0.870235 0.546987 0.69207
C_ C_ 0.774263 0.88309 1.0056888 0.02923
C_ C_ 0.75328 0.883971 0.955107 -0.15533
C_ C_ 0.780549 0.899642 0.916077 -0.15533
C_ C_ 0.831267 0.908906 0.925493 0.02923
C_ C_ 0.85112 0.914066 0.977194 -0.15533
C_ C_ 0.823734 0.900764 0.0166974 0.02923
C_ C_ 0.851065 0.881982 0.571091 0.69207
C_ C_ 0.84583 0.888269 0.8289 0.69661
C_ C_ 0.809889 0.934493 0.691652 0.18167
C_ C_ 0.766455 0.960603 0.710237 -0.15533
C_ C_ 0.773537 0.00423066 0.742478 0.02923
C_ C_ 0.825014 0.521334 0.747959 -0.15533
C_ C_ 0.86455 0.996064 0.727132 0.18167
C_ C_ 0.986631 0.856515 0.712455 0.18167
C_ C_ 0.514932 0.800538 0.724356 -0.15533
C_ C_ 0.988596 0.768012 0.733577 0.02923
C_ C_ 0.938948 0.767996 0.709156 -0.15533
C_ C_ 0.91176 0.812735 0.691037 0.18167
C_ C_ 0.981493 0.942885 0.61646 0.69207
C_ C_ 0.51723 0.492574 0.604048 0.02923
C_ C_ 0.499323 0.545148 0.602503 -0.15533
C_ C_ 0.533146 0.580377 0.592984 -0.15533
C_ C_ 0.586036 0.567136 0.591569 0.02923
C_ C_ 0.602051 0.514992 0.590945 -0.15533
C_ C_ 0.569629 0.47917 0.602506 0.02923
C_ C_ 0.605753 0.923294 0.613041 0.69207
C_ C_ 0.602527 0.664343 0.597869 0.69661
C_ C_ 0.943593 0.686769 0.935297 0.18167
C_ C_ 0.983615 0.710357 0.962786 -0.15533
C_ C_ 0.970595 0.751944 0.996407 0.02923
C_ C_ 0.928078 0.754063 0.513399 -0.15533
C_ C_ 0.885112 0.728525 0.988147 0.18167
C_ C_ 0.765679 0.703912 0.859605 0.18167
C_ C_ 0.739934 0.728045 0.817343 -0.15533
C_ C_ 0.76637 0.733968 0.774479 0.02923
C_ C_ 0.819978 0.722013 0.78007 -0.15533
C_ C_ 0.84256 0.692174 0.82119 0.18167
C_ C_ 0.763679 0.625295 0.951739 0.69207
C_ C_ 0.734011 0.610061 0.493308 0.02923
C_ C_ 0.748616 0.61799 0.544567 -0.15533
C_ C_ 0.716444 0.609752 0.581781 -0.15533
C_ C_ 0.666213 0.596896 0.56673 0.02923
C_ C_ 0.651122 0.592858 0.514961 -0.15533
C_ C_ 0.682768 0.599035 0.477483 0.02923
C_ C_ 0.652064 0.605803 0.925213 0.69207
C_ C_ 0.644356 0.599702 0.659955 0.69661
C_ C_ 0.87044 0.895803 0.884068 -0.30787
C_ C_ 0.625006 0.608109 0.603926 -0.30787
N_ N_ 0.644856 0.555876 0.814279 -0.32189
N_ N_ 0.552521 0.639183 0.809853 -0.32189
N_ N_ 0.607491 0.812394 0.560368 -0.32189
N_ N_ 0.702421 0.81425 0.642222 -0.32189
N_ N_ 0.858556 0.950183 0.701163 -0.32189
N_ N_ 0.935638 0.856834 0.693616 -0.32189
N_ N_ 0.896402 0.696802 0.948043 -0.32189
N_ N_ 0.815102 0.684969 0.860394 -0.32189
O_ O_ 1.00717267 0.589911 0.889107 -0.63271
O_ O_ 0.539541 0.532515 0.833394 -0.57982
O_ O_ 0.898643 0.601217 0.841589 -0.63271
O_ O_ 0.877276 0.595521 0.922783 -0.57982
O_ O_ 0.751064 0.889692 0.592863 -0.63271
O_ O_ 0.707472 0.839167 0.537541 -0.57982
O_ O_ 0.843929 0.842454 0.596507 -0.63271
O_ O_ 0.876642 0.91932 0.592638 -0.57982
O_ O_ 0.4945 0.902303 0.592296 -0.63271
O_ O_ 0.948783 0.952096 0.649533 -0.57982
O_ O_ 0.593998 0.894306 0.649455 -0.63271
O_ O_ 0.646432 0.911135 0.589994 -0.57982
O_ O_ 0.768583 0.598715 0.908736 -0.63271
O_ O_ 0.797912 0.655749 0.965801 -0.57982
O_ O_ 0.659653 0.645133 0.899387 -0.63271
O_ O_ 0.60852 0.586467 0.912958 -0.57982
F_ F_ 0.934455 0.843036 0.936272 -0.20885
F_ F_ 0.923955 0.82013 0.856702 -0.20885
F_ F_ 0.865187 0.808402 0.90051 -0.20885
F_ F_ 0.819529 0.932465 0.818175 -0.20885
F_ F_ 0.812393 0.851472 0.820713 -0.20885
F_ F_ 0.880177 0.881443 0.791489 -0.20885
F_ F_ 0.575889 0.670236 0.550465 -0.20885
F_ F_ 0.567127 0.679326 0.633642 -0.20885
F_ F_ 0.637302 0.700106 0.601468 -0.20885
F_ F_ 0.671719 0.554866 0.668862 -0.20885
F_ F_ 0.673008 0.636439 0.68528 -0.20885
F_ F_ 0.604079 0.601744 0.689864 -0.20885
