_cell_length_a 26.508
_cell_length_b 26.37200000322088
_cell_length_c 26.311999743092066
_cell_angle_alpha 93.74100058972084
_cell_angle_beta 96.04100104955006
_cell_angle_gamma 83.6869992558723
_symmetry_space_group_name_H-M         'P 1'
_symmetry_Int_Tables_number            1
loop_
_symmetry_equiv_pos_as_xyz
   'x, y, z'
                         
loop_
_atom_site_label
_atom_site_type_symbol
_atom_site_fract_x 
_atom_site_fract_y
_atom_site_fract_z
_atom_site_charge
Zn Zn 0.0907582 0.0838859 0.347904 0.83971
Zn Zn 0.163908 0.342997 0.0829256 0.83971
Zn Zn 0.405559 0.422023 0.154546 0.83971
Zn Zn 0.335238 0.153375 0.421563 0.83971
H_ H_ 0.174702 0.122905 0.316541 0.10394
H_ H_ 0.252083 0.0850557 0.27841 0.10394
H_ H_ 0.216549 0.44373 0.298733 0.10394
H_ H_ 0.129093 0.977174 0.327271 0.10394
H_ H_ 0.518461 0.101861 0.242755 0.10394
H_ H_ 0.490682 0.182552 0.196558 0.10394
H_ H_ 0.0115242 0.266954 0.338985 0.10394
H_ H_ 0.0574392 0.187196 0.376948 0.10394
H_ H_ 0.0363246 0.448908 0.390786 0.10394
H_ H_ 0.468231 0.37231 0.349144 0.10394
H_ H_ 0.348628 0.478989 0.409763 0.10394
H_ H_ 0.0880873 0.291878 0.135951 0.10394
H_ H_ 0.497676 0.275097 0.107779 0.10394
H_ H_ 0.04515 0.281727 0.446021 0.10394
H_ H_ 0.112771 0.332029 0.987274 0.10394
H_ H_ 0.223194 0.259112 0.102873 0.10394
H_ H_ 0.260139 0.20919 0.179827 0.10394
H_ H_ 0.208962 0.338962 0.273474 0.10394
H_ H_ 0.168509 0.380628 0.19665 0.10394
H_ H_ 0.215078 0.362269 0.451081 0.10394
H_ H_ 0.265408 0.351634 0.379974 0.10394
H_ H_ 0.398067 0.382467 0.481844 0.10394
H_ H_ 0.304616 0.394877 0.160132 0.10394
H_ H_ 0.227492 0.444752 0.191122 0.10394
H_ H_ 0.328622 0.0427021 0.27649 0.10394
H_ H_ 0.40148 0.491925 0.237843 0.10394
H_ H_ 0.00788015 0.391029 0.215858 0.10394
H_ H_ 0.0496674 0.312202 0.250656 0.10394
H_ H_ 0.417477 0.245887 0.213224 0.10394
H_ H_ 0.371274 0.33488 0.188748 0.10394
H_ H_ 0.467921 0.0536163 0.110992 0.10394
H_ H_ 0.0238364 0.123481 0.113811 0.10394
H_ H_ 0.148742 0.0105606 0.10065 0.10394
H_ H_ 0.432305 0.16 0.3969 0.10394
H_ H_ 0.0175743 0.186444 0.4501 0.10394
H_ H_ 0.419566 0.272298 0.063259 0.10394
H_ H_ 0.342183 0.233665 0.507453 0.10394
H_ H_ 0.226761 0.190538 0.382197 0.10394
H_ H_ 0.189771 0.235082 0.307531 0.10394
H_ H_ 0.334943 0.226507 0.255894 0.10394
H_ H_ 0.370169 0.185194 0.333422 0.10394
H_ H_ 0.285898 0.125552 0.060708 0.10394
H_ H_ 0.235803 0.102078 0.124285 0.10394
H_ H_ 0.105614 0.0923124 0.0171497 0.10394
C_ C_ 0.182686 0.0804191 0.30824 0.18167
C_ C_ 0.228835 0.0596004 0.289818 -0.15533
C_ C_ 0.236301 0.00806975 0.27631 0.02923
C_ C_ 0.206105 0.484341 0.299702 -0.15533
C_ C_ 0.156064 -0.000898555 0.31161 0.18167
C_ C_ 0.0359116 0.133617 0.260049 0.18167
C_ C_ 0.509081 0.183868 0.235163 -0.15533
C_ C_ 0.00448192 0.224244 0.262398 0.02923
C_ C_ 0.0198266 0.228694 0.314764 -0.15533
C_ C_ 0.0430812 0.184807 0.338364 0.18167
C_ C_ 0.00282804 0.051799 0.370709 0.69207
C_ C_ 0.467467 0.500036 0.372732 0.02923
C_ C_ 0.486127 0.449914 0.364799 -0.15533
C_ C_ 0.454539 0.410155 0.366375 -0.15533
C_ C_ 0.404473 0.42057 0.383744 0.02923
C_ C_ 0.387618 0.472287 0.397432 -0.15533
C_ C_ 0.416982 0.511062 0.390171 0.02923
C_ C_ 0.391923 0.06821 0.39163 0.69207
C_ C_ 0.393277 0.320122 0.376749 0.69661
C_ C_ 0.0765676 0.292544 0.0950873 0.18167
C_ C_ 0.0310072 0.273507 0.0755383 -0.15533
C_ C_ 0.0206708 0.266707 0.023673 0.02923
C_ C_ 0.053199 0.283847 0.486759 -0.15533
C_ C_ 0.0957103 0.307004 0.0109183 0.18167
C_ C_ 0.226701 0.277735 0.139899 0.18167
C_ C_ 0.248629 0.249812 0.182986 -0.15533
C_ C_ 0.238566 0.268803 0.232055 0.02923
C_ C_ 0.210209 0.316128 0.236692 -0.15533
C_ C_ 0.189872 0.341589 0.193962 0.18167
C_ C_ 0.243297 0.360464 0.0431667 0.69207
C_ C_ 0.277748 0.36711 0.507777 0.02923
C_ C_ 0.255175 0.365628 0.459412 -0.15533
C_ C_ 0.283751 0.3649 0.417281 -0.15533
C_ C_ 0.334907 0.375049 0.424448 0.02923
C_ C_ 0.358396 0.377069 0.474248 -0.15533
C_ C_ 0.33025 0.375333 0.516823 0.02923
C_ C_ 0.351064 0.382295 0.0705813 0.69207
C_ C_ 0.33652 0.38008 0.32214 0.69661
C_ C_ 0.305265 0.433005 0.176983 0.18167
C_ C_ 0.264753 0.459566 0.200539 -0.15533
C_ C_ 0.27391 0.495765 0.241682 0.02923
C_ C_ 0.323477 0.0143469 0.246464 -0.15533
C_ C_ 0.36229 0.485278 0.225403 0.18167
C_ C_ 0.493765 0.361181 0.208703 0.18167
C_ C_ 0.0117655 0.310986 0.230262 -0.15533
C_ C_ 0.487963 0.277613 0.234885 0.02923
C_ C_ 0.435426 0.282094 0.220248 -0.15533
C_ C_ 0.412474 0.328034 0.197817 0.18167
C_ C_ 0.483286 0.457736 0.132323 0.69207
C_ C_ 0.0237683 0.993419 0.117849 0.02923
C_ C_ 0.0073452 0.0447836 0.120469 -0.15533
C_ C_ 0.0379678 0.0834543 0.111226 -0.15533
C_ C_ 0.0910312 0.0708486 0.109671 0.02923
C_ C_ 0.108079 0.019405 0.105399 -0.15533
C_ C_ 0.076431 0.979448 0.105827 0.02923
C_ C_ 0.0933655 0.421999 0.106345 0.69207
C_ C_ 0.108828 0.165477 0.121697 0.69661
C_ C_ 0.429075 0.181808 0.43277 0.18167
C_ C_ 0.471661 0.201532 0.457216 -0.15533
C_ C_ 0.467359 0.238728 0.497446 0.02923
C_ C_ 0.422278 0.248732 0.0273848 -0.15533
C_ C_ 0.378015 0.228255 0.491264 0.18167
C_ C_ 0.251821 0.197183 0.356362 0.18167
C_ C_ 0.229041 0.222527 0.311786 -0.15533
C_ C_ 0.261577 0.237945 0.278122 0.02923
C_ C_ 0.311197 0.216998 0.282347 -0.15533
C_ C_ 0.3305 0.188052 0.323282 0.18167
C_ C_ 0.258822 0.12336 0.45862 0.69207
C_ C_ 0.22728 0.117383 0.996439 0.02923
C_ C_ 0.246908 0.120427 0.0496524 -0.15533
C_ C_ 0.218179 0.102061 0.0860017 -0.15533
C_ C_ 0.165406 0.101227 0.0761273 0.02923
C_ C_ 0.14555 0.0981995 0.0247282 -0.15533
C_ C_ 0.176323 0.104537 0.984209 0.02923
C_ C_ 0.142791 0.120044 0.43229 0.69207
C_ C_ 0.152847 0.103643 0.175752 0.69661
C_ C_ 0.366996 0.377372 0.377155 -0.30787
C_ C_ 0.130212 0.11017 0.120254 -0.30787
N_ N_ 0.146956 0.0499053 0.318879 -0.32189
N_ N_ 0.0544181 0.139953 0.310544 -0.32189
N_ N_ 0.109611 0.304574 0.0617018 -0.32189
N_ N_ 0.200085 0.320971 0.146017 -0.32189
N_ N_ 0.350993 0.454461 0.184394 -0.32189
N_ N_ 0.442366 0.366581 0.191826 -0.32189
N_ N_ 0.382011 0.195911 0.450805 -0.32189
N_ N_ 0.302163 0.177553 0.360437 -0.32189
O_ O_ 0.500657 0.0922582 0.388016 -0.63271
O_ O_ 0.0403438 0.0428022 0.341663 -0.57982
O_ O_ 0.385631 0.0924256 0.349283 -0.63271
O_ O_ 0.371455 0.0918009 0.430865 -0.57982
O_ O_ 0.243715 0.389789 0.0847351 -0.63271
O_ O_ 0.204665 0.332992 0.0336837 -0.57982
O_ O_ 0.354331 0.340788 0.0961996 -0.63271
O_ O_ 0.375238 0.420057 0.09091 -0.57982
O_ O_ 0.988789 0.406761 0.108558 -0.63271
O_ O_ 0.441307 0.47184 0.15321 -0.57982
O_ O_ 0.0856931 0.393931 0.14154 -0.63271
O_ O_ 0.128874 0.406957 0.0760279 -0.57982
O_ O_ 0.249685 0.102546 0.413298 -0.63271
O_ O_ 0.293479 0.156026 0.46704 -0.57982
O_ O_ 0.145483 0.156726 0.403587 -0.63271
O_ O_ 0.113739 0.0825199 0.415768 -0.57982
F_ F_ 0.433528 0.309228 0.414712 -0.20885
F_ F_ 0.415754 0.304087 0.329819 -0.20885
F_ F_ 0.363168 0.281509 0.376098 -0.20885
F_ F_ 0.301028 0.422897 0.320246 -0.20885
F_ F_ 0.310553 0.338496 0.304036 -0.20885
F_ F_ 0.368905 0.386978 0.286026 -0.20885
F_ F_ 0.0792908 0.174309 0.0784964 -0.20885
F_ F_ 0.0781245 0.183641 0.158101 -0.20885
F_ F_ 0.145363 0.198925 0.121548 -0.20885
F_ F_ 0.181569 0.0573451 0.180737 -0.20885
F_ F_ 0.18718 0.140562 0.193967 -0.20885
F_ F_ 0.116159 0.106299 0.209527 -0.20885
Zn Zn 0.0854911 0.0858955 0.852231 0.83971
Zn Zn 0.161157 0.345128 0.58837 0.83971
Zn Zn 0.411264 0.419339 0.64689 0.83971
Zn Zn 0.336467 0.158813 0.920148 0.83971
H_ H_ 0.166213 0.130541 0.812921 0.10394
H_ H_ 0.252914 0.0984052 0.784824 0.10394
H_ H_ 0.191811 0.447959 0.752441 0.10394
H_ H_ 0.13184 0.982795 0.828198 0.10394
H_ H_ 0.548896 0.103687 0.741153 0.10394
H_ H_ 0.514686 0.183515 0.695194 0.10394
H_ H_ 0.0411893 0.276703 0.837831 0.10394
H_ H_ 0.073985 0.198945 0.886812 0.10394
H_ H_ 0.037065 0.443804 0.868272 0.10394
H_ H_ 0.481554 0.378379 0.873804 0.10394
H_ H_ 0.349695 0.488225 0.886824 0.10394
H_ H_ 0.0814455 0.306825 0.633343 0.10394
H_ H_ 0.504001 0.268214 0.599776 0.10394
H_ H_ 0.0353295 0.29149 0.950962 0.10394
H_ H_ 0.129789 0.310505 0.48401 0.10394
H_ H_ 0.217622 0.251752 0.597358 0.10394
H_ H_ 0.249649 0.19908 0.675443 0.10394
H_ H_ 0.212472 0.326847 0.772574 0.10394
H_ H_ 0.179079 0.377026 0.698544 0.10394
H_ H_ 0.216907 0.379399 0.943611 0.10394
H_ H_ 0.267622 0.38803 0.875334 0.10394
H_ H_ 0.394781 0.408713 0.988066 0.10394
H_ H_ 0.30293 0.398446 0.6487 0.10394
H_ H_ 0.231618 0.445263 0.683838 0.10394
H_ H_ 0.337927 0.0335347 0.794679 0.10394
H_ H_ 0.401516 0.502455 0.725671 0.10394
H_ H_ 0.00927134 0.390386 0.700411 0.10394
H_ H_ 0.0517918 0.323413 0.751926 0.10394
H_ H_ 0.419856 0.245662 0.715884 0.10394
H_ H_ 0.37269 0.329759 0.68548 0.10394
H_ H_ 0.462705 0.0615342 0.61124 0.10394
H_ H_ 0.0157097 0.126698 0.62234 0.10394
H_ H_ 0.138144 0.0155437 0.580715 0.10394
H_ H_ 0.432669 0.175138 0.894575 0.10394
H_ H_ 0.0261494 0.184673 0.956016 0.10394
H_ H_ 0.41597 0.276617 0.548746 0.10394
H_ H_ 0.345321 0.229898 0.0152103 0.10394
H_ H_ 0.231822 0.190836 0.884889 0.10394
H_ H_ 0.19649 0.234708 0.806132 0.10394
H_ H_ 0.340896 0.220857 0.745589 0.10394
H_ H_ 0.378656 0.194273 0.829876 0.10394
H_ H_ 0.280382 0.129398 0.562065 0.10394
H_ H_ 0.228315 0.119066 0.627647 0.10394
H_ H_ 0.0935023 0.115189 0.515635 0.10394
C_ C_ 0.176307 0.0915915 0.805771 0.18167
C_ C_ 0.223567 0.0725306 0.789892 -0.15533
C_ C_ 0.23376 0.0192155 0.776029 0.02923
C_ C_ 0.18936 0.488547 0.767296 -0.15533
C_ C_ 0.151929 0.00770957 0.80948 0.18167
C_ C_ 0.028785 0.13977 0.775028 0.18167
C_ C_ 0.52147 0.184601 0.736343 -0.15533
C_ C_ 0.0123735 0.231712 0.770467 0.02923
C_ C_ 0.0358932 0.237789 0.821775 -0.15533
C_ C_ 0.0531568 0.193808 0.848762 0.18167
C_ C_ 0.0137027 0.0420367 0.876961 0.69207
C_ C_ 0.476026 0.507789 0.881733 0.02923
C_ C_ 0.495374 0.45724 0.876036 -0.15533
C_ C_ 0.465156 0.418113 0.88261 -0.15533
C_ C_ 0.41261 0.428508 0.891456 0.02923
C_ C_ 0.391455 0.480971 0.887257 -0.15533
C_ C_ 0.422492 0.519789 0.886778 0.02923
C_ C_ 0.39138 0.0721471 0.889599 0.69207
C_ C_ 0.404667 0.331073 0.894813 0.69661
C_ C_ 0.0736908 0.302729 0.592033 0.18167
C_ C_ 0.0254205 0.287318 0.572464 -0.15533
C_ C_ 0.0181858 0.271979 0.520115 0.02923
C_ C_ 0.0511208 0.288931 0.992026 -0.15533
C_ C_ 0.0998577 0.303571 0.508456 0.18167
C_ C_ 0.215824 0.267153 0.636423 0.18167
C_ C_ 0.240292 0.240064 0.676406 -0.15533
C_ C_ 0.237442 0.261171 0.726735 0.02923
C_ C_ 0.213136 0.309822 0.735009 -0.15533
C_ C_ 0.196196 0.338102 0.693322 0.18167
C_ C_ 0.241599 0.364405 0.547565 0.69207
C_ C_ 0.278267 0.370375 0.00355772 0.02923
C_ C_ 0.256145 0.373511 0.950412 -0.15533
C_ C_ 0.288335 0.380234 0.912152 -0.15533
C_ C_ 0.336693 0.39524 0.92621 0.02923
C_ C_ 0.35604 0.400569 0.979362 -0.15533
C_ C_ 0.328026 0.385009 0.0173371 0.02923
C_ C_ 0.360951 0.376051 0.566836 0.69207
C_ C_ 0.354476 0.377201 0.829393 0.69661
C_ C_ 0.30974 0.429492 0.675052 0.18167
C_ C_ 0.268288 0.453872 0.696774 -0.15533
C_ C_ 0.2754 0.491953 0.737301 0.02923
C_ C_ 0.327276 0.0101014 0.760221 -0.15533
C_ C_ 0.36334 0.487411 0.72183 0.18167
C_ C_ 0.49455 0.354475 0.692534 0.18167
C_ C_ 0.0133405 0.319945 0.735589 -0.15533
C_ C_ 0.489033 0.276877 0.738781 0.02923
C_ C_ 0.437246 0.28121 0.720759 -0.15533
C_ C_ 0.414475 0.322727 0.693188 0.18167
C_ C_ 0.487355 0.454076 0.615561 0.69207
C_ C_ 0.0214756 0.995412 0.618444 0.02923
C_ C_ 0.00148798 0.0460978 0.61807 -0.15533
C_ C_ 0.0317957 0.0865306 0.619526 -0.15533
C_ C_ 0.0831503 0.0746593 0.606351 0.02923
C_ C_ 0.100665 0.0228232 0.594423 -0.15533
C_ C_ 0.0709669 0.980911 0.602739 0.02923
C_ C_ 0.0959854 0.424002 0.604051 0.69207
C_ C_ 0.10052 0.171299 0.62948 0.69661
C_ C_ 0.431504 0.192104 0.933463 0.18167
C_ C_ 0.475422 0.211528 0.959693 -0.15533
C_ C_ 0.471648 0.242421 1.00687082 0.02923
C_ C_ 0.419523 0.252765 0.512348 -0.15533
C_ C_ 0.380511 0.226642 0.99882256 0.18167
C_ C_ 0.256342 0.196948 0.852728 0.18167
C_ C_ 0.235317 0.226466 0.811627 -0.15533
C_ C_ 0.263509 0.231165 0.771372 0.02923
C_ C_ 0.315953 0.212859 0.773475 -0.15533
C_ C_ 0.336882 0.191874 0.819614 0.18167
C_ C_ 0.261254 0.126815 0.958001 0.69207
C_ C_ 0.220977 0.122924 0.499608 0.02923
C_ C_ 0.239837 0.12739 0.55065 -0.15533
C_ C_ 0.209226 0.123112 0.58856 -0.15533
C_ C_ 0.156357 0.115862 0.576668 0.02923
C_ C_ 0.133709 0.121099 0.525907 -0.15533
C_ C_ 0.167151 0.12193 0.484829 0.02923
C_ C_ 0.152708 0.108579 0.930632 0.69207
C_ C_ 0.153359 0.0995938 0.675308 0.69661
C_ C_ 0.377646 0.383687 0.886311 -0.30787
C_ C_ 0.122931 0.115123 0.622 -0.30787
N_ N_ 0.141325 0.0575133 0.815415 -0.32189
N_ N_ 0.0516483 0.145679 0.823471 -0.32189
N_ N_ 0.10948 0.30969 0.561138 -0.32189
N_ N_ 0.192616 0.312899 0.645544 -0.32189
N_ N_ 0.355341 0.44812 0.684932 -0.32189
N_ N_ 0.443308 0.357709 0.677169 -0.32189
N_ N_ 0.3869 0.197813 0.955628 -0.32189
N_ N_ 0.308282 0.18416 0.857456 -0.32189
O_ O_ 0.486658 0.0997217 0.87803 -0.63271
O_ O_ 0.0486753 0.0334488 0.845008 -0.57982
O_ O_ 0.387096 0.0954895 0.846528 -0.63271
O_ O_ 0.368447 0.0928444 0.927424 -0.57982
O_ O_ 0.240022 0.397847 0.585614 -0.63271
O_ O_ 0.206287 0.33278 0.540593 -0.57982
O_ O_ 0.358842 0.339006 0.596544 -0.63271
O_ O_ 0.38732 0.414396 0.58332 -0.57982
O_ O_ 0.991573 0.404102 0.600742 -0.63271
O_ O_ 0.454838 0.465011 0.647559 -0.57982
O_ O_ 0.10137 0.402047 0.647875 -0.63271
O_ O_ 0.132253 0.40917 0.574661 -0.57982
O_ O_ 0.256447 0.103222 0.912708 -0.63271
O_ O_ 0.291006 0.162195 0.965863 -0.57982
O_ O_ 0.154111 0.150334 0.906042 -0.63271
O_ O_ 0.112888 0.0836521 0.918112 -0.57982
F_ F_ 0.437273 0.329923 0.938357 -0.20885
F_ F_ 0.435009 0.310857 0.855424 -0.20885
F_ F_ 0.372567 0.292758 0.893893 -0.20885
F_ F_ 0.324116 0.420791 0.816328 -0.20885
F_ F_ 0.322553 0.336199 0.819106 -0.20885
F_ F_ 0.394087 0.374277 0.797196 -0.20885
F_ F_ 0.0666161 0.187559 0.588442 -0.20885
F_ F_ 0.0717547 0.184497 0.67054 -0.20885
F_ F_ 0.137442 0.202334 0.635921 -0.20885
F_ F_ 0.180825 0.0532077 0.669202 -0.20885
F_ F_ 0.181478 0.134621 0.70129 -0.20885
F_ F_ 0.118057 0.0915793 0.707213 -0.20885
Zn Zn 0.0875803 0.581672 0.348843 0.83971
Zn Zn 0.161833 0.844814 0.0813213 0.83971
Zn Zn 0.412792 0.921753 0.15019 0.83971
Zn Zn 0.33861 0.652067 0.420915 0.83971
H_ H_ 0.156811 0.628459 0.298453 0.10394
H_ H_ 0.241285 0.595638 0.265072 0.10394
H_ H_ 0.203403 0.938783 0.27551 0.10394
H_ H_ 0.136399 0.479994 0.327212 0.10394
H_ H_ 0.519789 0.609034 0.245718 0.10394
H_ H_ 0.485123 0.689745 0.205603 0.10394
H_ H_ 0.0346565 0.771949 0.33447 0.10394
H_ H_ 0.0801617 0.695703 0.374687 0.10394
H_ H_ 0.0309458 0.944117 0.364798 0.10394
H_ H_ 0.484653 0.876507 0.370174 0.10394
H_ H_ 0.361338 0.984355 0.425908 0.10394
H_ H_ 0.0767395 0.816949 0.127623 0.10394
H_ H_ 0.508953 0.759668 0.0961498 0.10394
H_ H_ 0.0359287 0.784378 0.444788 0.10394
H_ H_ 0.119888 0.819972 0.976879 0.10394
H_ H_ 0.207165 0.747251 0.0975712 0.10394
H_ H_ 0.245469 0.698435 0.178301 0.10394
H_ H_ 0.217321 0.836462 0.268766 0.10394
H_ H_ 0.18037 0.875214 0.19126 0.10394
H_ H_ 0.221897 0.848029 0.450245 0.10394
H_ H_ 0.279215 0.851423 0.381896 0.10394
H_ H_ 0.395341 0.902326 0.491828 0.10394
H_ H_ 0.310552 0.895447 0.156948 0.10394
H_ H_ 0.233079 0.940277 0.190376 0.10394
H_ H_ 0.32924 0.533987 0.288446 0.10394
H_ H_ 0.404457 0.00681098 0.224858 0.10394
H_ H_ 0.0179997 0.870141 0.175404 0.10394
H_ H_ 0.0587745 0.800434 0.231579 0.10394
H_ H_ 0.409903 0.757492 0.23014 0.10394
H_ H_ 0.368226 0.833247 0.190253 0.10394
H_ H_ 0.460617 0.556774 0.124805 0.10394
H_ H_ 0.00748318 0.615525 0.104356 0.10394
H_ H_ 0.142966 0.501852 0.0973476 0.10394
H_ H_ 0.436002 0.660194 0.401771 0.10394
H_ H_ 0.0124109 0.694858 0.441163 0.10394
H_ H_ 0.420666 0.778259 0.0449263 0.10394
H_ H_ 0.340535 0.74003 0.498117 0.10394
H_ H_ 0.240365 0.706941 0.393442 0.10394
H_ H_ 0.19641 0.752466 0.315317 0.10394
H_ H_ 0.33609 0.716605 0.242325 0.10394
H_ H_ 0.379595 0.687727 0.327393 0.10394
H_ H_ 0.286051 0.600405 0.0548699 0.10394
H_ H_ 0.230023 0.609391 0.122514 0.10394
H_ H_ 0.104944 0.580598 0.0116365 0.10394
C_ C_ 0.173725 0.58858 0.302098 0.18167
C_ C_ 0.219941 0.570288 0.281589 -0.15533
C_ C_ 0.235031 0.51656 0.276916 0.02923
C_ C_ 0.19827 0.977392 0.284284 -0.15533
C_ C_ 0.160922 0.504447 0.31669 0.18167
C_ C_ 0.0168214 0.638042 0.275725 0.18167
C_ C_ 0.505215 0.689684 0.244289 -0.15533
C_ C_ 0.00286572 0.72857 0.268899 0.02923
C_ C_ 0.0285317 0.735359 0.318103 -0.15533
C_ C_ 0.0533315 0.691326 0.341406 0.18167
C_ C_ 0.0060339 0.546339 0.375751 0.69207
C_ C_ 0.473279 0.00547728 0.378484 0.02923
C_ C_ 0.494718 0.955627 0.377528 -0.15533
C_ C_ 0.465851 0.915355 0.378979 -0.15533
C_ C_ 0.416262 0.924869 0.394212 0.02923
C_ C_ 0.396662 0.975706 0.406628 -0.15533
C_ C_ 0.423307 0.0165515 0.395416 0.02923
C_ C_ 0.390883 0.564473 0.388594 0.69207
C_ C_ 0.400746 0.829166 0.387717 0.69661
C_ C_ 0.0707359 0.807205 0.0853294 0.18167
C_ C_ 0.0275335 0.784374 0.0668164 -0.15533
C_ C_ 0.0189845 0.769132 0.016935 0.02923
C_ C_ 0.0444789 0.788917 0.487382 -0.15533
C_ C_ 0.0952027 0.807643 0.00406989 0.18167
C_ C_ 0.210728 0.764745 0.134292 0.18167
C_ C_ 0.237252 0.739025 0.177817 -0.15533
C_ C_ 0.238276 0.763452 0.228171 0.02923
C_ C_ 0.21448 0.8134 0.23242 -0.15533
C_ C_ 0.195331 0.837842 0.186997 0.18167
C_ C_ 0.245196 0.863605 0.0469751 0.69207
C_ C_ 0.27545 0.877889 0.510143 0.02923
C_ C_ 0.257634 0.867133 0.458611 -0.15533
C_ C_ 0.288645 0.869037 0.419854 -0.15533
C_ C_ 0.336931 0.887405 0.428836 0.02923
C_ C_ 0.355396 0.900195 0.481351 -0.15533
C_ C_ 0.324761 0.894337 0.522124 0.02923
C_ C_ 0.359398 0.885127 0.0666738 0.69207
C_ C_ 0.352665 0.893797 0.334726 0.69661
C_ C_ 0.312491 0.930854 0.180911 0.18167
C_ C_ 0.272212 0.950899 0.207455 -0.15533
C_ C_ 0.278888 0.989286 0.247327 0.02923
C_ C_ 0.322964 0.50853 0.253976 -0.15533
C_ C_ 0.364949 0.991222 0.219596 0.18167
C_ C_ 0.491038 0.85543 0.198387 0.18167
C_ C_ 0.0163383 0.808104 0.223252 -0.15533
C_ C_ 0.482754 0.78452 0.246594 0.02923
C_ C_ 0.430318 0.790468 0.232329 -0.15533
C_ C_ 0.408561 0.831292 0.201406 0.18167
C_ C_ 0.490972 0.957408 0.117753 0.69207
C_ C_ 0.0200125 0.49041 0.123627 0.02923
C_ C_ 0.00037799 0.54178 0.124005 -0.15533
C_ C_ 0.0293784 0.578314 0.111654 -0.15533
C_ C_ 0.0819789 0.565928 0.104665 0.02923
C_ C_ 0.102138 0.513153 0.101792 -0.15533
C_ C_ 0.0696189 0.476052 0.108621 0.02923
C_ C_ 0.100334 0.926625 0.107002 0.69207
C_ C_ 0.0980002 0.659986 0.105349 0.69661
C_ C_ 0.434111 0.684357 0.435163 0.18167
C_ C_ 0.477053 0.703204 0.462393 -0.15533
C_ C_ 0.467215 0.742969 0.50068 0.02923
C_ C_ 0.425481 0.749123 0.0146996 -0.15533
C_ C_ 0.378101 0.728787 0.487487 0.18167
C_ C_ 0.262661 0.711229 0.360461 0.18167
C_ C_ 0.237278 0.739031 0.316238 -0.15533
C_ C_ 0.263097 0.7379 0.273297 0.02923
C_ C_ 0.313978 0.716534 0.274352 -0.15533
C_ C_ 0.33904 0.695598 0.319732 0.18167
C_ C_ 0.261097 0.627874 0.46071 0.69207
C_ C_ 0.224774 0.60877 0.993126 0.02923
C_ C_ 0.245999 0.600978 0.0449681 -0.15533
C_ C_ 0.213351 0.602111 0.0850487 -0.15533
C_ C_ 0.161829 0.595102 0.0709961 0.02923
C_ C_ 0.144352 0.58671 0.0197016 -0.15533
C_ C_ 0.17284 0.601111 0.981268 0.02923
C_ C_ 0.152327 0.608139 0.427928 0.69207
C_ C_ 0.140415 0.604577 0.169295 0.69661
C_ C_ 0.376728 0.884997 0.38828 -0.30787
C_ C_ 0.121399 0.605384 0.112288 -0.30787
N_ N_ 0.144931 0.555294 0.317981 -0.32189
N_ N_ 0.0494777 0.643339 0.319241 -0.32189
N_ N_ 0.106978 0.810094 0.0548279 -0.32189
N_ N_ 0.189224 0.812638 0.140503 -0.32189
N_ N_ 0.359806 0.946693 0.191526 -0.32189
N_ N_ 0.439262 0.863453 0.185607 -0.32189
N_ N_ 0.386963 0.693273 0.449676 -0.32189
N_ N_ 0.310665 0.689137 0.359073 -0.32189
O_ O_ 0.508348 0.580482 0.399533 -0.63271
O_ O_ 0.0429699 0.535691 0.346488 -0.57982
O_ O_ 0.388304 0.588138 0.34653 -0.63271
O_ O_ 0.373055 0.58911 0.428631 -0.57982
O_ O_ 0.24464 0.892422 0.088302 -0.63271
O_ O_ 0.209829 0.832578 0.0361808 -0.57982
O_ O_ 0.363269 0.846163 0.0960488 -0.63271
O_ O_ 0.387003 0.923184 0.0837975 -0.57982
O_ O_ 0.992166 0.912359 0.0941144 -0.63271
O_ O_ 0.454321 0.967802 0.147044 -0.57982
O_ O_ 0.0972389 0.901156 0.148564 -0.63271
O_ O_ 0.137215 0.910164 0.0780094 -0.57982
O_ O_ 0.260317 0.603198 0.417173 -0.63271
O_ O_ 0.297476 0.657929 0.472189 -0.57982
O_ O_ 0.156186 0.645836 0.397861 -0.63271
O_ O_ 0.11544 0.579531 0.41384 -0.57982
F_ F_ 0.438191 0.825043 0.427555 -0.20885
F_ F_ 0.423405 0.817476 0.34244 -0.20885
F_ F_ 0.365975 0.795094 0.393759 -0.20885
F_ F_ 0.318208 0.936376 0.337399 -0.20885
F_ F_ 0.327878 0.85379 0.310666 -0.20885
F_ F_ 0.386885 0.90004 0.300464 -0.20885
F_ F_ 0.0753322 0.663257 0.0561762 -0.20885
F_ F_ 0.0657307 0.684263 0.139991 -0.20885
F_ F_ 0.137788 0.691781 0.110693 -0.20885
F_ F_ 0.164479 0.558097 0.184552 -0.20885
F_ F_ 0.172247 0.641978 0.186648 -0.20885
F_ F_ 0.0999794 0.617407 0.201006 -0.20885
Zn Zn 0.091338 0.583274 0.846534 0.83971
Zn Zn 0.161624 0.845223 0.58524 0.83971
Zn Zn 0.410503 0.916428 0.65796 0.83971
Zn Zn 0.333356 0.657565 0.915983 0.83971
H_ H_ 0.187714 0.622042 0.830394 0.10394
H_ H_ 0.260218 0.590375 0.784457 0.10394
H_ H_ 0.203428 0.947612 0.780196 0.10394
H_ H_ 0.116843 0.487197 0.793656 0.10394
H_ H_ 0.539481 0.596534 0.753412 0.10394
H_ H_ 0.490601 0.667987 0.708513 0.10394
H_ H_ 0.0347072 0.771815 0.833637 0.10394
H_ H_ 0.0656863 0.697824 0.88057 0.10394
H_ H_ 0.0299823 0.944006 0.858374 0.10394
H_ H_ 0.475344 0.883198 0.854037 0.10394
H_ H_ 0.359206 0.98321 0.918581 0.10394
H_ H_ 0.0870538 0.79502 0.630551 0.10394
H_ H_ 0.498055 0.766891 0.599517 0.10394
H_ H_ 0.0440482 0.786737 0.940145 0.10394
H_ H_ 0.111626 0.827003 0.486704 0.10394
H_ H_ 0.214777 0.743244 0.599343 0.10394
H_ H_ 0.2429 0.695899 0.670898 0.10394
H_ H_ 0.228448 0.833844 0.770368 0.10394
H_ H_ 0.193471 0.878709 0.695305 0.10394
H_ H_ 0.219828 0.857152 0.943464 0.10394
H_ H_ 0.272323 0.856556 0.876716 0.10394
H_ H_ 0.396797 0.894759 0.983291 0.10394
H_ H_ 0.302929 0.906761 0.657358 0.10394
H_ H_ 0.232557 0.955778 0.696657 0.10394
H_ H_ 0.329902 0.533878 0.781316 0.10394
H_ H_ 0.407331 -0.00013499999999999623 0.741045 0.10394
H_ H_ 0.0169054 0.886267 0.695646 0.10394
H_ H_ 0.0582001 0.809315 0.727789 0.10394
H_ H_ 0.419137 0.741186 0.720809 0.10394
H_ H_ 0.380325 0.817073 0.681251 0.10394
H_ H_ 0.462968 0.554057 0.604201 0.10394
H_ H_ 0.00980585 0.613039 0.583565 0.10394
H_ H_ 0.141841 0.503706 0.595699 0.10394
H_ H_ 0.443047 0.67005 0.893967 0.10394
H_ H_ 0.0148395 0.686864 0.951374 0.10394
H_ H_ 0.415239 0.768754 0.556019 0.10394
H_ H_ 0.344981 0.732899 0.002389999999999892 0.10394
H_ H_ 0.228965 0.686484 0.88246 0.10394
H_ H_ 0.188011 0.72621 0.797992 0.10394
H_ H_ 0.340055 0.714801 0.742885 0.10394
H_ H_ 0.374435 0.68536 0.828038 0.10394
H_ H_ 0.286416 0.622452 0.558423 0.10394
H_ H_ 0.234381 0.602769 0.625645 0.10394
H_ H_ 0.111846 0.577873 0.509551 0.10394
C_ C_ 0.187039 0.585152 0.807732 0.18167
C_ C_ 0.229369 0.56666 0.783617 -0.15533
C_ C_ 0.231459 0.516709 0.763181 0.02923
C_ C_ 0.19636 0.988387 0.787123 -0.15533
C_ C_ 0.146862 0.510882 0.787988 0.18167
C_ C_ 0.0340184 0.635652 0.769717 0.18167
C_ C_ 0.510431 0.676076 0.746419 -0.15533
C_ C_ 0.0147924 0.72873 0.761853 0.02923
C_ C_ 0.0374335 0.733861 0.813101 -0.15533
C_ C_ 0.0549964 0.690006 0.841749 0.18167
C_ C_ 0.0121803 0.545712 0.868217 0.69207
C_ C_ 0.468373 0.0103409 0.877324 0.02923
C_ C_ 0.488129 0.958633 0.864841 -0.15533
C_ C_ 0.45766 0.918581 0.867772 -0.15533
C_ C_ 0.413008 0.924193 0.892713 0.02923
C_ C_ 0.393858 0.976069 0.901635 -0.15533
C_ C_ 0.418696 0.018952 0.890341 0.02923
C_ C_ 0.393751 0.573482 0.888101 0.69207
C_ C_ 0.411012 0.827669 0.890504 0.69661
C_ C_ 0.0715387 0.795695 0.59119 0.18167
C_ C_ 0.0254069 0.77541 0.572944 -0.15533
C_ C_ 0.0134115 0.768235 0.52004 0.02923
C_ C_ 0.0510897 0.787889 0.981792 -0.15533
C_ C_ 0.0919786 0.805358 0.507121 0.18167
C_ C_ 0.218769 0.764835 0.638201 0.18167
C_ C_ 0.232996 0.734684 0.680115 -0.15533
C_ C_ 0.242139 0.75912 0.727075 0.02923
C_ C_ 0.22855 0.812347 0.733142 -0.15533
C_ C_ 0.209838 0.840177 0.689147 0.18167
C_ C_ 0.242666 0.870545 0.549855 0.69207
C_ C_ 0.279184 0.86992 0.00622985 0.02923
C_ C_ 0.258136 0.869704 0.955473 -0.15533
C_ C_ 0.287534 0.868799 0.914614 -0.15533
C_ C_ 0.338838 0.883592 0.924104 0.02923
C_ C_ 0.35772 0.890996 0.97692 -0.15533
C_ C_ 0.331385 0.88313 0.0169377 0.02923
C_ C_ 0.351084 0.890667 0.574428 0.69207
C_ C_ 0.354161 0.877057 0.827901 0.69661
C_ C_ 0.310233 0.940136 0.681013 0.18167
C_ C_ 0.270806 0.963353 0.70625 -0.15533
C_ C_ 0.278239 0.996544 0.748048 0.02923
C_ C_ 0.322604 0.511713 0.746377 -0.15533
C_ C_ 0.367704 0.989222 0.732038 0.18167
C_ C_ 0.498086 0.857591 0.706309 0.18167
C_ C_ 0.0180564 0.81303 0.723153 -0.15533
C_ C_ 0.494925 0.770409 0.735537 0.02923
C_ C_ 0.443092 0.772323 0.716351 -0.15533
C_ C_ 0.420642 0.814427 0.693269 0.18167
C_ C_ 0.481308 0.958927 0.618721 0.69207
C_ C_ 0.0183051 0.490214 0.611411 0.02923
C_ C_ 0.998572 0.541609 0.607213 -0.15533
C_ C_ 0.0302545 0.579844 0.602182 -0.15533
C_ C_ 0.0851 0.566744 0.601649 0.02923
C_ C_ 0.101559 0.514498 0.598306 -0.15533
C_ C_ 0.0687702 0.476282 0.599721 0.02923
C_ C_ 0.0983534 0.925308 0.607516 0.69207
C_ C_ 0.0964166 0.661548 0.602121 0.69661
C_ C_ 0.438143 0.68454 0.930664 0.18167
C_ C_ 0.479561 0.702148 0.960537 -0.15533
C_ C_ 0.473956 0.738461 -0.0007789999999999742 0.02923
C_ C_ 0.419456 0.748052 0.5195 -0.15533
C_ C_ 0.383707 0.726178 0.988485 0.18167
C_ C_ 0.252159 0.691204 0.84925 0.18167
C_ C_ 0.229502 0.715262 0.802873 -0.15533
C_ C_ 0.261762 0.730589 0.76984 0.02923
C_ C_ 0.313877 0.713302 0.773889 -0.15533
C_ C_ 0.334252 0.695662 0.822566 0.18167
C_ C_ 0.255514 0.619218 0.953739 0.69207
C_ C_ 0.224656 0.621312 0.496775 0.02923
C_ C_ 0.244955 0.61972 0.548774 -0.15533
C_ C_ 0.214287 0.614705 0.587872 -0.15533
C_ C_ 0.164114 0.600271 0.574044 0.02923
C_ C_ 0.147397 0.59366 0.521657 -0.15533
C_ C_ 0.174198 0.608377 0.482681 0.02923
C_ C_ 0.144735 0.6062 0.931309 0.69207
C_ C_ 0.143688 0.60266 0.669328 0.69661
C_ C_ 0.378332 0.879935 0.884721 -0.30787
C_ C_ 0.12263 0.608786 0.61103 -0.30787
N_ N_ 0.146402 0.558337 0.809565 -0.32189
N_ N_ 0.05885 0.642961 0.818484 -0.32189
N_ N_ 0.104623 0.808681 0.55964 -0.32189
N_ N_ 0.200752 0.815659 0.642709 -0.32189
N_ N_ 0.358551 0.949717 0.696035 -0.32189
N_ N_ 0.44792 0.854677 0.687356 -0.32189
N_ N_ 0.389545 0.695521 0.9453 -0.32189
N_ N_ 0.30467 0.680825 0.8562 -0.32189
O_ O_ 0.504503 0.594329 0.888107 -0.63271
O_ O_ 0.0504207 0.535314 0.839399 -0.57982
O_ O_ 0.385664 0.597063 0.846351 -0.63271
O_ O_ 0.369835 0.593381 0.92606 -0.57982
O_ O_ 0.239063 0.907162 0.585822 -0.63271
O_ O_ 0.208464 0.838864 0.539316 -0.57982
O_ O_ 0.353607 0.847653 0.59742 -0.63271
O_ O_ 0.382453 0.923972 0.59496 -0.57982
O_ O_ 0.983849 0.91578 0.592939 -0.63271
O_ O_ 0.455923 0.965215 0.657774 -0.57982
O_ O_ 0.0962189 0.900185 0.647398 -0.63271
O_ O_ 0.130313 0.908009 0.574362 -0.57982
O_ O_ 0.25164 0.597194 0.905768 -0.63271
O_ O_ 0.287574 0.653753 0.964174 -0.57982
O_ O_ 0.14727 0.64741 0.909208 -0.63271
O_ O_ 0.117219 0.571552 0.910717 -0.57982
F_ F_ 0.44727 0.83195 0.931992 -0.20885
F_ F_ 0.436168 0.808435 0.848062 -0.20885
F_ F_ 0.378633 0.790145 0.894207 -0.20885
F_ F_ 0.311363 0.911252 0.822509 -0.20885
F_ F_ 0.342043 0.827136 0.812608 -0.20885
F_ F_ 0.383895 0.88955 0.792552 -0.20885
F_ F_ 0.0721572 0.665187 0.553304 -0.20885
F_ F_ 0.062827 0.678488 0.635571 -0.20885
F_ F_ 0.132463 0.696129 0.60595 -0.20885
F_ F_ 0.178775 0.559329 0.67742 -0.20885
F_ F_ 0.165608 0.645719 0.692011 -0.20885
F_ F_ 0.106096 0.596236 0.700075 -0.20885
Zn Zn 0.582589 0.0845419 0.338065 0.83971
Zn Zn 0.659792 0.354193 0.0857038 0.83971
Zn Zn 0.907623 0.418813 0.160376 0.83971
Zn Zn 0.837226 0.162148 0.415689 0.83971
H_ H_ 0.666265 0.137508 0.305172 0.10394
H_ H_ 0.751526 0.10294 0.27421 0.10394
H_ H_ 0.693184 0.455307 0.274569 0.10394
H_ H_ 0.633638 0.986403 0.310158 0.10394
H_ H_ 0.0385577 0.0916978 0.241397 0.10394
H_ H_ 0.989137 0.166554 0.198952 0.10394
H_ H_ 0.531616 0.269681 0.336658 0.10394
H_ H_ 0.562374 0.18777 0.373884 0.10394
H_ H_ 0.521367 0.442233 0.347716 0.10394
H_ H_ 0.982452 0.37836 0.384445 0.10394
H_ H_ 0.848181 0.492672 0.389538 0.10394
H_ H_ 0.586828 0.297573 0.135002 0.10394
H_ H_ 1.00867771 0.257667 0.103511 0.10394
H_ H_ 0.534031 0.27701 0.445461 0.10394
H_ H_ 0.617723 0.320871 0.988125 0.10394
H_ H_ 0.719808 0.265731 0.0943038 0.10394
H_ H_ 0.761629 0.214534 0.168019 0.10394
H_ H_ 0.722963 0.339752 0.26678 0.10394
H_ H_ 0.681371 0.390037 0.196293 0.10394
H_ H_ 0.719674 0.355381 0.436003 0.10394
H_ H_ 0.766863 0.387654 0.371278 0.10394
H_ H_ 0.891931 0.416543 0.483834 0.10394
H_ H_ 0.801128 0.404572 0.15261 0.10394
H_ H_ 0.728622 0.457755 0.186118 0.10394
H_ H_ 0.833269 0.0544158 0.271957 0.10394
H_ H_ 0.899821 0.495158 0.246655 0.10394
H_ H_ 0.513715 0.394131 0.202329 0.10394
H_ H_ 0.557413 0.314162 0.242225 0.10394
H_ H_ 0.911659 0.241796 0.21646 0.10394
H_ H_ 0.866825 0.32436 0.187 0.10394
H_ H_ 0.968279 0.0571876 0.127536 0.10394
H_ H_ 0.523179 0.122538 0.0990186 0.10394
H_ H_ 0.651171 0.00677488 0.0999921 0.10394
H_ H_ 0.948253 0.165819 0.39876 0.10394
H_ H_ 0.508641 0.187092 0.446507 0.10394
H_ H_ 0.921993 0.280253 0.0387607 0.10394
H_ H_ 0.843677 0.232567 0.503177 0.10394
H_ H_ 0.732459 0.20998 0.380385 0.10394
H_ H_ 0.69271 0.245889 0.302804 0.10394
H_ H_ 0.837332 0.234761 0.244939 0.10394
H_ H_ 0.876062 0.190817 0.319474 0.10394
H_ H_ 0.7887 0.122868 0.054111 0.10394
H_ H_ 0.7387 0.105278 0.12003 0.10394
H_ H_ 0.609184 0.0888947 0.00592339 0.10394
C_ C_ 0.677072 0.0960905 0.295532 0.18167
C_ C_ 0.724051 0.0773768 0.278282 -0.15533
C_ C_ 0.737381 0.0248482 0.269184 0.02923
C_ C_ 0.69159 0.493926 0.283194 -0.15533
C_ C_ 0.654128 0.0126595 0.294178 0.18167
C_ C_ 0.52403 0.139925 0.259262 0.18167
C_ C_ 0.00793048 0.175189 0.23683 -0.15533
C_ C_ 0.511016 0.231544 0.2621 0.02923
C_ C_ 0.534145 0.234969 0.312232 -0.15533
C_ C_ 0.550145 0.188372 0.333968 0.18167
C_ C_ 0.504752 0.0449257 0.366411 0.69207
C_ C_ 0.974067 0.508948 0.387507 0.02923
C_ C_ 0.994957 0.457137 0.390949 -0.15533
C_ C_ 0.963163 0.417703 0.388133 -0.15533
C_ C_ 0.908312 0.43061 0.38944 0.02923
C_ C_ 0.889381 0.482025 0.389014 -0.15533
C_ C_ 0.919538 0.520496 0.391931 0.02923
C_ C_ 0.895506 0.0759749 0.395154 0.69207
C_ C_ 0.899272 0.332427 0.382927 0.69661
C_ C_ 0.572674 0.299609 0.0953618 0.18167
C_ C_ 0.525926 0.279514 0.0792253 -0.15533
C_ C_ 0.514351 0.274029 0.0272584 0.02923
C_ C_ 0.548422 0.276917 0.48388 -0.15533
C_ C_ 0.593079 0.304547 0.013043 0.18167
C_ C_ 0.717148 0.279301 0.133857 0.18167
C_ C_ 0.742148 0.25105 0.17466 -0.15533
C_ C_ 0.737579 0.270816 0.223495 0.02923
C_ C_ 0.721714 0.322454 0.229378 -0.15533
C_ C_ 0.698513 0.350461 0.189431 0.18167
C_ C_ 0.740011 0.382005 0.0454435 0.69207
C_ C_ 0.777166 0.371289 0.500673 0.02923
C_ C_ 0.757996 0.367797 0.449069 -0.15533
C_ C_ 0.784632 0.384467 0.411758 -0.15533
C_ C_ 0.835243 0.39597 0.422112 0.02923
C_ C_ 0.853788 0.404247 0.475301 -0.15533
C_ C_ 0.825008 0.393753 0.514711 0.02923
C_ C_ 0.85482 0.385583 0.0705529 0.69207
C_ C_ 0.849667 0.387749 0.323394 0.69661
C_ C_ 0.807839 0.431972 0.185104 0.18167
C_ C_ 0.766107 0.462381 0.203096 -0.15533
C_ C_ 0.77224 0.50247 0.240597 0.02923
C_ C_ 0.82963 0.0217751 0.248946 -0.15533
C_ C_ 0.863093 0.484382 0.234666 0.18167
C_ C_ 0.987706 0.357825 0.211722 0.18167
C_ C_ 0.518814 0.315846 0.227861 -0.15533
C_ C_ 0.985494 0.268485 0.231993 0.02923
C_ C_ 0.931885 0.275359 0.218572 -0.15533
C_ C_ 0.909576 0.320868 0.194667 0.18167
C_ C_ 0.983025 0.453138 0.132136 0.69207
C_ C_ 0.527927 0.994338 0.116038 0.02923
C_ C_ 0.509006 0.0452625 0.109322 -0.15533
C_ C_ 0.540981 0.0821701 0.105476 -0.15533
C_ C_ 0.59288 0.0692977 0.105597 0.02923
C_ C_ 0.609564 0.0173634 0.105599 -0.15533
C_ C_ 0.577515 0.978743 0.109056 0.02923
C_ C_ 0.588988 0.426268 0.109832 0.69207
C_ C_ 0.607175 0.169496 0.0981142 0.69661
C_ C_ 0.940048 0.186575 0.432055 0.18167
C_ C_ 0.980509 0.206808 0.458664 -0.15533
C_ C_ 0.973299 0.242979 0.499922 0.02923
C_ C_ 0.928546 0.252056 0.0122474 -0.15533
C_ C_ 0.883132 0.224372 0.493685 0.18167
C_ C_ 0.757106 0.212223 0.349058 0.18167
C_ C_ 0.732896 0.234478 0.306059 -0.15533
C_ C_ 0.762409 0.242248 0.267389 0.02923
C_ C_ 0.813167 0.22357 0.270832 -0.15533
C_ C_ 0.835216 0.200633 0.314058 0.18167
C_ C_ 0.755079 0.133719 0.443319 0.69207
C_ C_ 0.729672 0.11775 0.992626 0.02923
C_ C_ 0.750825 0.108958 0.0426772 -0.15533
C_ C_ 0.720563 0.103763 0.0824984 -0.15533
C_ C_ 0.667769 0.0981936 0.0687908 0.02923
C_ C_ 0.647856 0.0975241 0.0162008 -0.15533
C_ C_ 0.678802 0.107893 0.977857 0.02923
C_ C_ 0.64698 0.109005 0.418499 0.69207
C_ C_ 0.655244 0.113933 0.165207 0.69661
C_ C_ 0.873057 0.388218 0.380544 -0.30787
C_ C_ 0.628925 0.112857 0.108398 -0.30787
N_ N_ 0.643174 0.0624084 0.305519 -0.32189
N_ N_ 0.547279 0.143483 0.307569 -0.32189
N_ N_ 0.606582 0.31054 0.0628822 -0.32189
N_ N_ 0.696905 0.330267 0.142396 -0.32189
N_ N_ 0.855366 0.443648 0.201416 -0.32189
N_ N_ 0.935446 0.360905 0.196614 -0.32189
N_ N_ 0.891165 0.196197 0.448492 -0.32189
N_ N_ 0.805892 0.191813 0.351651 -0.32189
O_ O_ 0.00696509 0.0916842 0.403658 -0.63271
O_ O_ 0.543264 0.0324876 0.339044 -0.57982
O_ O_ 0.892487 0.0994166 0.351932 -0.63271
O_ O_ 0.868327 0.098827 0.430762 -0.57982
O_ O_ 0.733761 0.420867 0.0790378 -0.63271
O_ O_ 0.706123 0.347868 0.0395296 -0.57982
O_ O_ 0.855063 0.34323 0.0955198 -0.63271
O_ O_ 0.877703 0.424487 0.0958965 -0.57982
O_ O_ 0.482738 0.416204 0.101141 -0.63271
O_ O_ 0.955818 0.459499 0.171484 -0.57982
O_ O_ 0.592341 0.397097 0.148469 -0.63271
O_ O_ 0.621746 0.412253 0.0770107 -0.57982
O_ O_ 0.760727 0.107326 0.397789 -0.63271
O_ O_ 0.788599 0.164731 0.459135 -0.57982
O_ O_ 0.648333 0.151954 0.395349 -0.63271
O_ O_ 0.613133 0.0771931 0.401779 -0.57982
F_ F_ 0.929072 0.326706 0.427996 -0.20885
F_ F_ 0.926478 0.316813 0.342074 -0.20885
F_ F_ 0.861761 0.296577 0.380197 -0.20885
F_ F_ 0.815782 0.427736 0.310108 -0.20885
F_ F_ 0.82776 0.345304 0.302842 -0.20885
F_ F_ 0.890127 0.388786 0.293116 -0.20885
F_ F_ 0.577861 0.169939 0.052683 -0.20885
F_ F_ 0.577395 0.191739 0.137645 -0.20885
F_ F_ 0.645399 0.201175 0.0977199 -0.20885
F_ F_ 0.688562 0.0711956 0.175693 -0.20885
F_ F_ 0.679864 0.15801 0.18136 -0.20885
F_ F_ 0.61825 0.110891 0.198986 -0.20885
Zn Zn 0.590859 0.0867436 0.846338 0.83971
Zn Zn 0.663797 0.342391 0.579235 0.83971
Zn Zn 0.903892 0.410688 0.647409 0.83971
Zn Zn 0.842081 0.15607 0.914118 0.83971
H_ H_ 0.672428 0.127212 0.808297 0.10394
H_ H_ 0.740783 0.0931893 0.758099 0.10394
H_ H_ 0.702969 0.443641 0.773155 0.10394
H_ H_ 0.639173 0.982827 0.836379 0.10394
H_ H_ 0.0149968 0.10372 0.757425 0.10394
H_ H_ 0.991276 0.177415 0.711206 0.10394
H_ H_ 0.518097 0.268783 0.835936 0.10394
H_ H_ 0.568904 0.194968 0.878295 0.10394
H_ H_ 0.534602 0.449484 0.871211 0.10394
H_ H_ 0.983992 0.379101 0.880923 0.10394
H_ H_ 0.859465 0.493755 0.913673 0.10394
H_ H_ 0.584803 0.302586 0.628322 0.10394
H_ H_ -0.00420147 0.284973 0.598853 0.10394
H_ H_ 0.529204 0.296482 0.954836 0.10394
H_ H_ 0.620161 0.304026 0.474918 0.10394
H_ H_ 0.730387 0.254991 0.588404 0.10394
H_ H_ 0.773934 0.204793 0.659352 0.10394
H_ H_ 0.727729 0.32583 0.765905 0.10394
H_ H_ 0.680763 0.370822 0.69765 0.10394
H_ H_ 0.72113 0.387877 0.94691 0.10394
H_ H_ 0.769371 0.393602 0.877925 0.10394
H_ H_ 0.902521 0.400364 0.990266 0.10394
H_ H_ 0.798813 0.389896 0.656246 0.10394
H_ H_ 0.72714 0.437289 0.68567 0.10394
H_ H_ 0.830689 0.0411896 0.787714 0.10394
H_ H_ 0.891641 0.508352 0.710081 0.10394
H_ H_ 0.517 0.384795 0.684033 0.10394
H_ H_ 0.55807 0.313162 0.73146 0.10394
H_ H_ 0.922062 0.239972 0.724292 0.10394
H_ H_ 0.875565 0.317596 0.685752 0.10394
H_ H_ 0.963628 0.0547473 0.633067 0.10394
H_ H_ 0.519585 0.121645 0.598605 0.10394
H_ H_ 0.641568 0.00908079 0.583041 0.10394
H_ H_ 0.954629 0.159673 0.897907 0.10394
H_ H_ 0.510307 0.210079 0.944167 0.10394
H_ H_ 0.918549 0.280174 0.546918 0.10394
H_ H_ 0.848434 0.241934 -0.01306700000000005 0.10394
H_ H_ 0.737777 0.195634 0.876039 0.10394
H_ H_ 0.697804 0.227194 0.795331 0.10394
H_ H_ 0.847851 0.221642 0.74392 0.10394
H_ H_ 0.888102 0.183856 0.823782 0.10394
H_ H_ 0.779831 0.132107 0.545865 0.10394
H_ H_ 0.736151 0.102269 0.60734 0.10394
H_ H_ 0.606444 0.0844222 0.499019 0.10394
C_ C_ 0.676356 0.0877127 0.799666 0.18167
C_ C_ 0.720272 0.0677483 0.777752 -0.15533
C_ C_ 0.730605 0.0144843 0.769455 0.02923
C_ C_ 0.693126 0.482442 0.780839 -0.15533
C_ C_ 0.653704 0.00558384 0.808932 0.18167
C_ C_ 0.546434 0.142423 0.761635 0.18167
C_ C_ 0.00956002 0.183057 0.747121 -0.15533
C_ C_ 0.515353 0.231323 0.76369 0.02923
C_ C_ 0.528353 0.233573 0.815554 -0.15533
C_ C_ 0.553361 0.192697 0.838666 0.18167
C_ C_ 0.500611 0.052071 0.866018 0.69207
C_ C_ 0.979042 0.505998 0.879707 0.02923
C_ C_ 0.997107 0.454409 0.873478 -0.15533
C_ C_ 0.964596 0.416805 0.87986 -0.15533
C_ C_ 0.915805 0.429905 0.89523 0.02923
C_ C_ 0.899737 0.482569 0.902006 -0.15533
C_ C_ 0.930173 0.520366 0.891166 0.02923
C_ C_ 0.89878 0.0733573 0.886452 0.69207
C_ C_ 0.899871 0.332579 0.886301 0.69661
C_ C_ 0.572661 0.297672 0.586045 0.18167
C_ C_ 0.525734 0.274873 0.569183 -0.15533
C_ C_ 0.514023 0.264813 0.517102 0.02923
C_ C_ 0.545683 0.288805 0.99356 -0.15533
C_ C_ 0.594403 0.296885 0.502774 0.18167
C_ C_ 0.727701 0.26807 0.630555 0.18167
C_ C_ 0.753836 0.240114 0.66859 -0.15533
C_ C_ 0.748487 0.258061 0.71884 0.02923
C_ C_ 0.725146 0.30733 0.728956 -0.15533
C_ C_ 0.697423 0.33322 0.689254 0.18167
C_ C_ 0.744432 0.361457 0.54092 0.69207
C_ C_ 0.777638 0.38524 1.0071906 0.02923
C_ C_ 0.759246 0.385228 0.956723 -0.15533
C_ C_ 0.789762 0.39115 0.917667 -0.15533
C_ C_ 0.842374 0.393732 0.929803 0.02923
C_ C_ 0.862796 0.394841 0.981007 -0.15533
C_ C_ 0.830288 0.390757 0.0192809 0.02923
C_ C_ 0.851479 0.388294 0.568407 0.69207
C_ C_ 0.853709 0.394972 0.831958 0.69661
C_ C_ 0.806355 0.423607 0.676834 0.18167
C_ C_ 0.76386 0.453431 0.694981 -0.15533
C_ C_ 0.769434 0.494985 0.731129 0.02923
C_ C_ 0.82437 0.010985 0.757964 -0.15533
C_ C_ 0.860115 0.486542 0.715155 0.18167
C_ C_ 0.989701 0.35865 0.70504 0.18167
C_ C_ 0.517834 0.314862 0.723422 -0.15533
C_ C_ 0.988461 0.275931 0.742715 0.02923
C_ C_ 0.938462 0.275088 0.722407 -0.15533
C_ C_ 0.912754 0.316661 0.695801 0.18167
C_ C_ 0.984528 0.450473 0.621277 0.69207
C_ C_ 0.520426 0.99544 0.614177 0.02923
C_ C_ 0.502555 0.0468094 0.612721 -0.15533
C_ C_ 0.535202 0.0829646 0.604366 -0.15533
C_ C_ 0.585914 0.0694078 0.596223 0.02923
C_ C_ 0.602504 0.017414 0.593207 -0.15533
C_ C_ 0.570898 0.97885 0.602563 0.02923
C_ C_ 0.600955 0.423059 0.600255 0.69207
C_ C_ 0.604422 0.165968 0.598849 0.69661
C_ C_ 0.944827 0.178258 0.934066 0.18167
C_ C_ 0.986547 0.199797 0.962781 -0.15533
C_ C_ 0.97759 0.239652 0.000280000000000058 0.02923
C_ C_ 0.923264 0.251563 0.516981 -0.15533
C_ C_ 0.888319 0.229757 0.980835 0.18167
C_ C_ 0.761664 0.199676 0.846166 0.18167
C_ C_ 0.739533 0.220511 0.801599 -0.15533
C_ C_ 0.770301 0.227257 0.761295 0.02923
C_ C_ 0.822304 0.212079 0.768589 -0.15533
C_ C_ 0.84511 0.19604 0.816939 0.18167
C_ C_ 0.762848 0.132169 0.954232 0.69207
C_ C_ 0.724636 0.112952 0.481323 0.02923
C_ C_ 0.743701 0.117329 0.534307 -0.15533
C_ C_ 0.715042 0.102038 0.570824 -0.15533
C_ C_ 0.661322 0.101714 0.560223 0.02923
C_ C_ 0.644902 0.0940946 0.508304 -0.15533
C_ C_ 0.674785 0.102096 0.468196 0.02923
C_ C_ 0.652972 0.115625 0.925968 0.69207
C_ C_ 0.652829 0.106306 0.657305 0.69661
C_ C_ 0.876961 0.389518 0.886611 -0.30787
C_ C_ 0.625753 0.110598 0.603419 -0.30787
N_ N_ 0.642846 0.0557347 0.81221 -0.32189
N_ N_ 0.560931 0.147542 0.8118 -0.32189
N_ N_ 0.606034 0.306853 0.553349 -0.32189
N_ N_ 0.696896 0.31174 0.641079 -0.32189
N_ N_ 0.853192 0.441727 0.687484 -0.32189
N_ N_ 0.94028 0.356107 0.684635 -0.32189
N_ N_ 0.896042 0.189896 0.946338 -0.32189
N_ N_ 0.814109 0.187063 0.852731 -0.32189
O_ O_ 0.0054174 0.0876973 0.899823 -0.63271
O_ O_ 0.543469 0.0397834 0.845642 -0.57982
O_ O_ 0.903913 0.101073 0.849269 -0.63271
O_ O_ 0.86482 0.0890988 0.915931 -0.57982
O_ O_ 0.747793 0.388695 0.584329 -0.63271
O_ O_ 0.704063 0.337672 0.528621 -0.57982
O_ O_ 0.853313 0.346782 0.594718 -0.63271
O_ O_ 0.871375 0.429251 0.588736 -0.57982
O_ O_ 0.490526 0.407331 0.593703 -0.63271
O_ O_ 0.950463 0.459259 0.65479 -0.57982
O_ O_ 0.601612 0.39697 0.642313 -0.63271
O_ O_ 0.634902 0.405736 0.568939 -0.57982
O_ O_ 0.761955 0.105001 0.911316 -0.63271
O_ O_ 0.797206 0.164505 0.96309 -0.57982
O_ O_ 0.662485 0.15231 0.897283 -0.63271
O_ O_ 0.614563 0.0879846 0.910514 -0.57982
F_ F_ 0.933874 0.321461 0.928114 -0.20885
F_ F_ 0.926896 0.316397 0.845212 -0.20885
F_ F_ 0.862022 0.301516 0.885264 -0.20885
F_ F_ 0.826682 0.443179 0.826419 -0.20885
F_ F_ 0.82192 0.3572 0.816514 -0.20885
F_ F_ 0.891626 0.394895 0.796639 -0.20885
F_ F_ 0.569503 0.169234 0.55751 -0.20885
F_ F_ 0.578825 0.185105 0.637739 -0.20885
F_ F_ 0.639064 0.199289 0.590548 -0.20885
F_ F_ 0.686934 0.0659427 0.662307 -0.20885
F_ F_ 0.680798 0.147354 0.671803 -0.20885
F_ F_ 0.622356 0.10468 0.694419 -0.20885
Zn Zn 0.579272 0.587095 0.344558 0.83971
Zn Zn 0.661697 0.8445 0.0846493 0.83971
Zn Zn 0.916097 0.917014 0.155484 0.83971
Zn Zn 0.835553 0.659842 0.411026 0.83971
H_ H_ 0.660914 0.637565 0.303575 0.10394
H_ H_ 0.74269 0.60454 0.275504 0.10394
H_ H_ 0.709574 0.95086 0.276273 0.10394
H_ H_ 0.622968 0.486166 0.316366 0.10394
H_ H_ 0.0111039 0.600166 0.259831 0.10394
H_ H_ 0.981741 0.675405 0.209542 0.10394
H_ H_ 0.517287 0.77408 0.343935 0.10394
H_ H_ 0.555295 0.69541 0.386611 0.10394
H_ H_ 0.535452 0.945687 0.369051 0.10394
H_ H_ 0.978291 0.881387 0.374551 0.10394
H_ H_ 0.857492 0.988186 0.421577 0.10394
H_ H_ 0.57971 0.808403 0.131155 0.10394
H_ H_ 1.00073804 0.780463 0.0931856 0.10394
H_ H_ 0.536346 0.789015 0.451662 0.10394
H_ H_ 0.607461 0.836697 0.978052 0.10394
H_ H_ 0.717395 0.744607 0.0975879 0.10394
H_ H_ 0.747165 0.695944 0.177295 0.10394
H_ H_ 0.714769 0.832362 0.265917 0.10394
H_ H_ 0.683665 0.880035 0.191311 0.10394
H_ H_ 0.719532 0.851354 0.446788 0.10394
H_ H_ 0.770885 0.866263 0.377173 0.10394
H_ H_ 0.885332 0.91718 0.485542 0.10394
H_ H_ 0.812638 0.905589 0.153435 0.10394
H_ H_ 0.737181 0.956507 0.190685 0.10394
H_ H_ 0.828649 0.545279 0.280316 0.10394
H_ H_ 0.908272 1.010204 0.228537 0.10394
H_ H_ 0.513882 0.884099 0.185663 0.10394
H_ H_ 0.550237 0.814333 0.24222 0.10394
H_ H_ 0.908307 0.750984 0.233513 0.10394
H_ H_ 0.872341 0.82972 0.194045 0.10394
H_ H_ 0.96227 0.555337 0.132773 0.10394
H_ H_ 0.5132 0.620017 0.110324 0.10394
H_ H_ 0.639078 0.50376 0.0922857 0.10394
H_ H_ 0.938292 0.669041 0.392649 0.10394
H_ H_ 0.514701 0.689761 0.45194 0.10394
H_ H_ 0.917857 0.777699 0.0497724 0.10394
H_ H_ 0.840475 0.735855 0.504176 0.10394
H_ H_ 0.732792 0.703766 0.385317 0.10394
H_ H_ 0.69068 0.734892 0.307583 0.10394
H_ H_ 0.831423 0.724625 0.243335 0.10394
H_ H_ 0.875025 0.69071 0.321938 0.10394
H_ H_ 0.788391 0.60428 0.0617349 0.10394
H_ H_ 0.728798 0.596492 0.126752 0.10394
H_ H_ 0.603449 0.60175 0.00596367 0.10394
C_ C_ 0.669954 0.596414 0.300907 0.18167
C_ C_ 0.715008 0.577315 0.278424 -0.15533
C_ C_ 0.726102 0.526169 0.268627 0.02923
C_ C_ 0.701167 0.990954 0.280449 -0.15533
C_ C_ 0.647933 0.512609 0.304612 0.18167
C_ C_ 0.522965 0.644697 0.267725 0.18167
C_ C_ -0.0031160000000000077 0.679208 0.248357 -0.15533
C_ C_ 0.509443 0.738253 0.270795 0.02923
C_ C_ 0.526826 0.739167 0.322417 -0.15533
C_ C_ 0.54399 0.693184 0.344502 0.18167
C_ C_ 0.504065 0.541442 0.366637 0.69207
C_ C_ 0.973861 0.00975636 0.382748 0.02923
C_ C_ -0.009996000000000005 0.958118 0.368059 -0.15533
C_ C_ 0.959894 0.918295 0.376143 -0.15533
C_ C_ 0.91121 0.928267 0.393854 0.02923
C_ C_ 0.894007 0.981032 0.405093 -0.15533
C_ C_ 0.922154 0.0214607 0.395019 0.02923
C_ C_ 0.894442 0.572694 0.382314 0.69207
C_ C_ 0.89511 0.833776 0.383598 0.69661
C_ C_ 0.571812 0.802746 0.0896668 0.18167
C_ C_ 0.529392 0.778067 0.0708509 -0.15533
C_ C_ 0.517286 0.770779 0.0186704 0.02923
C_ C_ 0.542474 0.791128 0.492489 -0.15533
C_ C_ 0.587932 0.817219 0.00604585 0.18167
C_ C_ 0.719053 0.765449 0.135866 0.18167
C_ C_ 0.737746 0.736946 0.179354 -0.15533
C_ C_ 0.73507 0.761499 0.225665 0.02923
C_ C_ 0.712969 0.813055 0.229516 -0.15533
C_ C_ 0.700864 0.840649 0.186727 0.18167
C_ C_ 0.742481 0.86423 0.0439367 0.69207
C_ C_ 0.777066 0.870853 0.508754 0.02923
C_ C_ 0.757681 0.863073 0.455771 -0.15533
C_ C_ 0.785175 0.871957 0.415941 -0.15533
C_ C_ 0.834896 0.889113 0.427105 0.02923
C_ C_ 0.853957 0.894732 0.478807 -0.15533
C_ C_ 0.827043 0.88796 0.520658 0.02923
C_ C_ 0.854028 0.88727 0.0696148 0.69207
C_ C_ 0.844906 0.893886 0.328693 0.69661
C_ C_ 0.816074 0.94021 0.179726 0.18167
C_ C_ 0.774876 0.964737 0.203403 -0.15533
C_ C_ 0.781788 1.00378112 0.242031 0.02923
C_ C_ 0.821763 0.512469 0.25552 -0.15533
C_ C_ 0.87274 0.994499 0.225092 0.18167
C_ C_ 0.994774 0.84772 0.192826 0.18167
C_ C_ 0.512175 0.813753 0.2242 -0.15533
C_ C_ 0.98409 0.770634 0.237079 0.02923
C_ C_ 0.931985 0.775898 0.219669 -0.15533
C_ C_ 0.911153 0.819429 0.195905 0.18167
C_ C_ 0.988928 0.955548 0.122613 0.69207
C_ C_ 0.518736 0.495155 0.125064 0.02923
C_ C_ 0.501377 0.546147 0.121531 -0.15533
C_ C_ 0.532919 0.581951 0.113579 -0.15533
C_ C_ 0.584176 0.568158 0.103416 0.02923
C_ C_ 0.602956 0.516372 0.1054 -0.15533
C_ C_ 0.568703 0.481582 0.113504 0.02923
C_ C_ 0.602749 0.927646 0.115138 0.69207
C_ C_ 0.597902 0.668761 0.105602 0.69661
C_ C_ 0.932192 0.69117 0.425991 0.18167
C_ C_ 0.974329 0.710961 0.452656 -0.15533
C_ C_ 0.967036 0.742589 0.496666 0.02923
C_ C_ 0.924092 0.755177 1.0131705 -0.15533
C_ C_ 0.877776 0.728527 0.487574 0.18167
C_ C_ 0.756253 0.706113 0.354699 0.18167
C_ C_ 0.732665 0.72663 0.310968 -0.15533
C_ C_ 0.760138 0.734838 0.270638 0.02923
C_ C_ 0.8112 0.721865 0.274506 -0.15533
C_ C_ 0.83411 0.698737 0.317738 0.18167
C_ C_ 0.758726 0.623629 0.446261 0.69207
C_ C_ 0.731494 0.596343 0.996269 0.02923
C_ C_ 0.748751 0.600118 0.0493747 -0.15533
C_ C_ 0.71316 0.59799 0.0854311 -0.15533
C_ C_ 0.660391 0.601026 0.0693662 0.02923
C_ C_ 0.643414 0.598272 0.0176302 -0.15533
C_ C_ 0.679251 0.595718 0.9805 0.02923
C_ C_ 0.650334 0.609827 0.423382 0.69207
C_ C_ 0.644392 0.610212 0.169476 0.69661
C_ C_ 0.872082 0.887439 0.384973 -0.30787
C_ C_ 0.622381 0.610927 0.109808 -0.30787
N_ N_ 0.633891 0.563697 0.308069 -0.32189
N_ N_ 0.545019 0.647783 0.316074 -0.32189
N_ N_ 0.600673 0.822129 0.0575965 -0.32189
N_ N_ 0.695604 0.814311 0.140488 -0.32189
N_ N_ 0.862883 0.953444 0.193618 -0.32189
N_ N_ 0.942912 0.85344 0.181241 -0.32189
N_ N_ 0.884198 0.702719 0.440683 -0.32189
N_ N_ 0.806867 0.689309 0.355031 -0.32189
O_ O_ 0.00494626 0.591183 0.399797 -0.63271
O_ O_ 0.535027 0.535796 0.333009 -0.57982
O_ O_ 0.897862 0.59277 0.339146 -0.63271
O_ O_ 0.863862 0.597303 0.415866 -0.57982
O_ O_ 0.74883 0.887779 0.0880711 -0.63271
O_ O_ 0.702358 0.840482 0.0306924 -0.57982
O_ O_ 0.859955 0.845815 0.0947732 -0.63271
O_ O_ 0.881404 0.925129 0.0896892 -0.57982
O_ O_ 0.4991 0.910703 0.0971263 -0.63271
O_ O_ 0.964611 0.960247 0.163363 -0.57982
O_ O_ 0.596866 0.900047 0.153582 -0.63271
O_ O_ 0.640507 0.912112 0.0892879 -0.57982
O_ O_ 0.75191 0.599917 0.401184 -0.63271
O_ O_ 0.7903 0.658946 0.455039 -0.57982
O_ O_ 0.649423 0.651587 0.398733 -0.63271
O_ O_ 0.615325 0.58009 0.4065 -0.57982
F_ F_ 0.930024 0.828982 0.426226 -0.20885
F_ F_ 0.925056 0.815951 0.343106 -0.20885
F_ F_ 0.860294 0.797429 0.386219 -0.20885
F_ F_ 0.813504 0.937737 0.32976 -0.20885
F_ F_ 0.81438 0.855016 0.30916 -0.20885
F_ F_ 0.879427 0.897039 0.293904 -0.20885
F_ F_ 0.563454 0.67406 0.0634641 -0.20885
F_ F_ 0.57744 0.691144 0.149648 -0.20885
F_ F_ 0.634843 0.69878 0.0957718 -0.20885
F_ F_ 0.67302 0.563357 0.171661 -0.20885
F_ F_ 0.672401 0.649109 0.189439 -0.20885
F_ F_ 0.606407 0.614758 0.201447 -0.20885
Zn Zn 0.591378 0.580972 0.851837 0.83971
Zn Zn 0.660276 0.84106 0.585864 0.83971
Zn Zn 0.911089 0.918948 0.658223 0.83971
Zn Zn 0.840559 0.655366 0.920209 0.83971
H_ H_ 0.6623 0.627009 0.796908 0.10394
H_ H_ 0.738316 0.593289 0.754653 0.10394
H_ H_ 0.705622 0.940577 0.785606 0.10394
H_ H_ 0.627986 0.476034 0.820873 0.10394
H_ H_ 0.0266179 0.600287 0.750735 0.10394
H_ H_ 0.986796 0.669332 0.706255 0.10394
H_ H_ 0.545325 0.767687 0.829377 0.10394
H_ H_ 0.585019 0.693214 0.87775 0.10394
H_ H_ 0.526917 0.950507 0.850568 0.10394
H_ H_ 0.978081 0.878204 0.859581 0.10394
H_ H_ 0.854535 0.988731 0.898372 0.10394
H_ H_ 0.576004 0.805708 0.635515 0.10394
H_ H_ 0.00277255 0.75807 0.599503 0.10394
H_ H_ 0.537095 0.787022 0.946032 0.10394
H_ H_ 0.614261 0.822143 0.486198 0.10394
H_ H_ 0.714051 0.746383 0.592092 0.10394
H_ H_ 0.767217 0.703909 0.666188 0.10394
H_ H_ 0.703358 0.818739 0.772104 0.10394
H_ H_ 0.669324 0.868152 0.698307 0.10394
H_ H_ 0.715599 0.873943 0.941856 0.10394
H_ H_ 0.769177 0.875179 0.874599 0.10394
H_ H_ 0.897086 0.906886 0.98405 0.10394
H_ H_ 0.811835 0.89493 0.659074 0.10394
H_ H_ 0.737636 0.93701 0.69446 0.10394
H_ H_ 0.823034 0.54753 0.762914 0.10394
H_ H_ 0.903157 1.000150883 0.748643 0.10394
H_ H_ 0.519215 0.889224 0.700849 0.10394
H_ H_ 0.564997 0.811225 0.742216 0.10394
H_ H_ 0.916245 0.756235 0.739266 0.10394
H_ H_ 0.872919 0.826793 0.692544 0.10394
H_ H_ 0.956852 0.549735 0.598589 0.10394
H_ H_ 0.517124 0.618781 0.608683 0.10394
H_ H_ 0.64496 0.508602 0.605036 0.10394
H_ H_ 0.93893 0.666102 0.896133 0.10394
H_ H_ 0.513656 0.698093 0.942018 0.10394
H_ H_ 0.916771 0.769906 0.55304 0.10394
H_ H_ 0.844593 0.738541 1.00111917 0.10394
H_ H_ 0.734033 0.681298 0.880454 0.10394
H_ H_ 0.694872 0.735086 0.807317 0.10394
H_ H_ 0.83474 0.72415 0.746826 0.10394
H_ H_ 0.877657 0.697357 0.832302 0.10394
H_ H_ 0.779216 0.634903 0.546469 0.10394
H_ H_ 0.732299 0.613599 0.615355 0.10394
H_ H_ 0.612038 0.579267 0.498863 0.10394
C_ C_ 0.675608 0.586968 0.798062 0.18167
C_ C_ 0.715654 0.568909 0.771629 -0.15533
C_ C_ 0.727387 0.514844 0.763179 0.02923
C_ C_ 0.69756 0.983929 0.786506 -0.15533
C_ C_ 0.654054 0.500219 0.808224 0.18167
C_ C_ 0.538729 0.634284 0.7704 0.18167
C_ C_ 0.00859176 0.677661 0.741811 -0.15533
C_ C_ 0.518726 0.726409 0.766539 0.02923
C_ C_ 0.545687 0.731103 0.813213 -0.15533
C_ C_ 0.565526 0.686967 0.839603 0.18167
C_ C_ 0.509404 0.547297 0.868675 0.69207
C_ C_ 0.97366 0.00636934 0.878305 0.02923
C_ C_ -0.009322000000000052 0.953474 0.866457 -0.15533
C_ C_ 0.959364 0.916065 0.86596 -0.15533
C_ C_ 0.908753 0.927028 0.88149 0.02923
C_ C_ 0.893801 0.978944 0.893733 -0.15533
C_ C_ 0.922804 0.018768 0.887321 0.02923
C_ C_ 0.90747 0.574956 0.889246 0.69207
C_ C_ 0.904796 0.828559 0.889774 0.69661
C_ C_ 0.570499 0.796239 0.596259 0.18167
C_ C_ 0.524253 0.775919 0.574446 -0.15533
C_ C_ 0.509569 0.772842 0.522138 0.02923
C_ C_ 0.548644 0.789255 0.986922 -0.15533
C_ C_ 0.588868 0.807676 0.512464 0.18167
C_ C_ 0.717146 0.763054 0.631848 0.18167
C_ C_ 0.744103 0.738231 0.672647 -0.15533
C_ C_ 0.738414 0.756042 0.725896 0.02923
C_ C_ 0.706502 0.802331 0.735405 -0.15533
C_ C_ 0.686535 0.828704 0.691683 0.18167
C_ C_ 0.740574 0.86885 0.547686 0.69207
C_ C_ 0.777411 0.87424 1.00286809 0.02923
C_ C_ 0.756043 0.87774 0.952411 -0.15533
C_ C_ 0.785073 0.881172 0.914383 -0.15533
C_ C_ 0.836807 0.891529 0.923193 0.02923
C_ C_ 0.856777 0.898105 0.974816 -0.15533
C_ C_ 0.829764 0.886318 0.0167762 0.02923
C_ C_ 0.857958 0.884066 0.572215 0.69207
C_ C_ 0.845963 0.884037 0.825503 0.69661
C_ C_ 0.815362 0.931866 0.683982 0.18167
C_ C_ 0.772611 0.951798 0.70593 -0.15533
C_ C_ 0.776344 -0.008257999999999988 0.744671 0.02923
C_ C_ 0.817526 0.513978 0.73736 -0.15533
C_ C_ 0.866266 0.989557 0.732583 0.18167
C_ C_ 0.9921 0.855087 0.698528 0.18167
C_ C_ 0.523204 0.813976 0.73116 -0.15533
C_ C_ 0.99135 0.771926 0.730569 0.02923
C_ C_ 0.938467 0.779644 0.720639 -0.15533
C_ C_ 0.915087 0.822081 0.699037 0.18167
C_ C_ 0.986964 0.955617 0.625632 0.69207
C_ C_ 0.523111 0.490177 0.608733 0.02923
C_ C_ 0.501163 0.541475 0.605389 -0.15533
C_ C_ 0.533918 0.57916 0.602556 -0.15533
C_ C_ 0.586478 0.568551 0.598813 0.02923
C_ C_ 0.604882 0.517432 0.596589 -0.15533
C_ C_ 0.576 0.476243 0.602308 0.02923
C_ C_ 0.596346 0.926918 0.606966 0.69207
C_ C_ 0.597362 0.663712 0.591913 0.69661
C_ C_ 0.934105 0.691754 0.92863 0.18167
C_ C_ 0.979155 0.70911 0.954213 -0.15533
C_ C_ 0.973597 0.740994 0.997565 0.02923
C_ C_ 0.918779 0.75207 0.514703 -0.15533
C_ C_ 0.882186 0.734233 0.986889 0.18167
C_ C_ 0.755998 0.692249 0.850402 0.18167
C_ C_ 0.733973 0.7218 0.809888 -0.15533
C_ C_ 0.762164 0.724377 0.767703 0.02923
C_ C_ 0.813958 0.712087 0.775371 -0.15533
C_ C_ 0.838052 0.695039 0.822688 0.18167
C_ C_ 0.770237 0.605162 0.960191 0.69207
C_ C_ 0.724755 0.62032 0.485812 0.02923
C_ C_ 0.742091 0.624491 0.539172 -0.15533
C_ C_ 0.713262 0.612303 0.577247 -0.15533
C_ C_ 0.66369 0.599116 0.564484 0.02923
C_ C_ 0.647597 0.590745 0.512159 -0.15533
C_ C_ 0.677279 0.603178 0.473735 0.02923
C_ C_ 0.660722 0.591564 0.926185 0.69207
C_ C_ 0.648182 0.610464 0.660777 0.69661
C_ C_ 0.874748 0.883039 0.88024 -0.30787
C_ C_ 0.624343 0.610212 0.603536 -0.30787
N_ N_ 0.643258 0.553584 0.814755 -0.32189
N_ N_ 0.561873 0.641184 0.818426 -0.32189
N_ N_ 0.60429 0.808211 0.56287 -0.32189
N_ N_ 0.690428 0.809299 0.643432 -0.32189
N_ N_ 0.861108 0.948828 0.700142 -0.32189
N_ N_ 0.942018 0.859233 0.685024 -0.32189
N_ N_ 0.887611 0.700853 0.945756 -0.32189
N_ N_ 0.807439 0.684555 0.858974 -0.32189
O_ O_ 1.00875193 0.590528 0.894681 -0.63271
O_ O_ 0.549302 0.531237 0.842632 -0.57982
O_ O_ 0.899719 0.594619 0.843017 -0.63271
O_ O_ 0.881905 0.597721 0.924695 -0.57982
O_ O_ 0.741389 0.900531 0.586607 -0.63271
O_ O_ 0.706733 0.836579 0.541536 -0.57982
O_ O_ 0.858765 0.843322 0.598567 -0.63271
O_ O_ 0.877287 0.925881 0.594517 -0.57982
O_ O_ 0.482583 0.914116 0.593806 -0.63271
O_ O_ 0.957969 0.96246 0.661 -0.57982
O_ O_ 0.594315 0.903504 0.647447 -0.63271
O_ O_ 0.625682 0.904734 0.572858 -0.57982
O_ O_ 0.764608 0.59168 0.911429 -0.63271
O_ O_ 0.797883 0.642907 0.97048 -0.57982
O_ O_ 0.667109 0.628275 0.897943 -0.63271
O_ O_ 0.618236 0.569213 0.914762 -0.57982
F_ F_ 0.949491 0.827031 0.924121 -0.20885
F_ F_ 0.925671 0.812128 0.845311 -0.20885
F_ F_ 0.87475 0.787493 0.891631 -0.20885
F_ F_ 0.809827 0.925961 0.822827 -0.20885
F_ F_ 0.820585 0.841998 0.808924 -0.20885
F_ F_ 0.879181 0.892057 0.788808 -0.20885
F_ F_ 0.561955 0.663735 0.549498 -0.20885
F_ F_ 0.570674 0.687498 0.631846 -0.20885
F_ F_ 0.634537 0.695282 0.585249 -0.20885
F_ F_ 0.68133 0.566512 0.666607 -0.20885
F_ F_ 0.679413 0.651563 0.675184 -0.20885
F_ F_ 0.612642 0.611055 0.69787 -0.20885
_cell_length_a 26.508
_cell_length_b 26.37200000322088
_cell_length_c 26.311999743092066
_cell_angle_alpha 93.74100058972084
_cell_angle_beta 96.04100104955006
_cell_angle_gamma 83.6869992558723
_symmetry_space_group_name_H-M         'P 1'
_symmetry_Int_Tables_number            1
loop_
_symmetry_equiv_pos_as_xyz
   'x, y, z'
                         
loop_
_atom_site_label
_atom_site_type_symbol
_atom_site_fract_x 
_atom_site_fract_y
_atom_site_fract_z
_atom_site_charge
Zn Zn 0.0907582 0.0838859 0.347904 0.83971
Zn Zn 0.163908 0.342997 0.0829256 0.83971
Zn Zn 0.405559 0.422023 0.154546 0.83971
Zn Zn 0.335238 0.153375 0.421563 0.83971
H_ H_ 0.174702 0.122905 0.316541 0.10394
H_ H_ 0.252083 0.0850557 0.27841 0.10394
H_ H_ 0.216549 0.44373 0.298733 0.10394
H_ H_ 0.129093 0.977174 0.327271 0.10394
H_ H_ 0.518461 0.101861 0.242755 0.10394
H_ H_ 0.490682 0.182552 0.196558 0.10394
H_ H_ 0.0115242 0.266954 0.338985 0.10394
H_ H_ 0.0574392 0.187196 0.376948 0.10394
H_ H_ 0.0363246 0.448908 0.390786 0.10394
H_ H_ 0.468231 0.37231 0.349144 0.10394
H_ H_ 0.348628 0.478989 0.409763 0.10394
H_ H_ 0.0880873 0.291878 0.135951 0.10394
H_ H_ 0.497676 0.275097 0.107779 0.10394
H_ H_ 0.04515 0.281727 0.446021 0.10394
H_ H_ 0.112771 0.332029 0.987274 0.10394
H_ H_ 0.223194 0.259112 0.102873 0.10394
H_ H_ 0.260139 0.20919 0.179827 0.10394
H_ H_ 0.208962 0.338962 0.273474 0.10394
H_ H_ 0.168509 0.380628 0.19665 0.10394
H_ H_ 0.215078 0.362269 0.451081 0.10394
H_ H_ 0.265408 0.351634 0.379974 0.10394
H_ H_ 0.398067 0.382467 0.481844 0.10394
H_ H_ 0.304616 0.394877 0.160132 0.10394
H_ H_ 0.227492 0.444752 0.191122 0.10394
H_ H_ 0.328622 0.0427021 0.27649 0.10394
H_ H_ 0.40148 0.491925 0.237843 0.10394
H_ H_ 0.00788015 0.391029 0.215858 0.10394
H_ H_ 0.0496674 0.312202 0.250656 0.10394
H_ H_ 0.417477 0.245887 0.213224 0.10394
H_ H_ 0.371274 0.33488 0.188748 0.10394
H_ H_ 0.467921 0.0536163 0.110992 0.10394
H_ H_ 0.0238364 0.123481 0.113811 0.10394
H_ H_ 0.148742 0.0105606 0.10065 0.10394
H_ H_ 0.432305 0.16 0.3969 0.10394
H_ H_ 0.0175743 0.186444 0.4501 0.10394
H_ H_ 0.419566 0.272298 0.063259 0.10394
H_ H_ 0.342183 0.233665 0.507453 0.10394
H_ H_ 0.226761 0.190538 0.382197 0.10394
H_ H_ 0.189771 0.235082 0.307531 0.10394
H_ H_ 0.334943 0.226507 0.255894 0.10394
H_ H_ 0.370169 0.185194 0.333422 0.10394
H_ H_ 0.285898 0.125552 0.060708 0.10394
H_ H_ 0.235803 0.102078 0.124285 0.10394
H_ H_ 0.105614 0.0923124 0.0171497 0.10394
C_ C_ 0.182686 0.0804191 0.30824 0.18167
C_ C_ 0.228835 0.0596004 0.289818 -0.15533
C_ C_ 0.236301 0.00806975 0.27631 0.02923
C_ C_ 0.206105 0.484341 0.299702 -0.15533
C_ C_ 0.156064 -0.000898555 0.31161 0.18167
C_ C_ 0.0359116 0.133617 0.260049 0.18167
C_ C_ 0.509081 0.183868 0.235163 -0.15533
C_ C_ 0.00448192 0.224244 0.262398 0.02923
C_ C_ 0.0198266 0.228694 0.314764 -0.15533
C_ C_ 0.0430812 0.184807 0.338364 0.18167
C_ C_ 0.00282804 0.051799 0.370709 0.69207
C_ C_ 0.467467 0.500036 0.372732 0.02923
C_ C_ 0.486127 0.449914 0.364799 -0.15533
C_ C_ 0.454539 0.410155 0.366375 -0.15533
C_ C_ 0.404473 0.42057 0.383744 0.02923
C_ C_ 0.387618 0.472287 0.397432 -0.15533
C_ C_ 0.416982 0.511062 0.390171 0.02923
C_ C_ 0.391923 0.06821 0.39163 0.69207
C_ C_ 0.393277 0.320122 0.376749 0.69661
C_ C_ 0.0765676 0.292544 0.0950873 0.18167
C_ C_ 0.0310072 0.273507 0.0755383 -0.15533
C_ C_ 0.0206708 0.266707 0.023673 0.02923
C_ C_ 0.053199 0.283847 0.486759 -0.15533
C_ C_ 0.0957103 0.307004 0.0109183 0.18167
C_ C_ 0.226701 0.277735 0.139899 0.18167
C_ C_ 0.248629 0.249812 0.182986 -0.15533
C_ C_ 0.238566 0.268803 0.232055 0.02923
C_ C_ 0.210209 0.316128 0.236692 -0.15533
C_ C_ 0.189872 0.341589 0.193962 0.18167
C_ C_ 0.243297 0.360464 0.0431667 0.69207
C_ C_ 0.277748 0.36711 0.507777 0.02923
C_ C_ 0.255175 0.365628 0.459412 -0.15533
C_ C_ 0.283751 0.3649 0.417281 -0.15533
C_ C_ 0.334907 0.375049 0.424448 0.02923
C_ C_ 0.358396 0.377069 0.474248 -0.15533
C_ C_ 0.33025 0.375333 0.516823 0.02923
C_ C_ 0.351064 0.382295 0.0705813 0.69207
C_ C_ 0.33652 0.38008 0.32214 0.69661
C_ C_ 0.305265 0.433005 0.176983 0.18167
C_ C_ 0.264753 0.459566 0.200539 -0.15533
C_ C_ 0.27391 0.495765 0.241682 0.02923
C_ C_ 0.323477 0.0143469 0.246464 -0.15533
C_ C_ 0.36229 0.485278 0.225403 0.18167
C_ C_ 0.493765 0.361181 0.208703 0.18167
C_ C_ 0.0117655 0.310986 0.230262 -0.15533
C_ C_ 0.487963 0.277613 0.234885 0.02923
C_ C_ 0.435426 0.282094 0.220248 -0.15533
C_ C_ 0.412474 0.328034 0.197817 0.18167
C_ C_ 0.483286 0.457736 0.132323 0.69207
C_ C_ 0.0237683 0.993419 0.117849 0.02923
C_ C_ 0.0073452 0.0447836 0.120469 -0.15533
C_ C_ 0.0379678 0.0834543 0.111226 -0.15533
C_ C_ 0.0910312 0.0708486 0.109671 0.02923
C_ C_ 0.108079 0.019405 0.105399 -0.15533
C_ C_ 0.076431 0.979448 0.105827 0.02923
C_ C_ 0.0933655 0.421999 0.106345 0.69207
C_ C_ 0.108828 0.165477 0.121697 0.69661
C_ C_ 0.429075 0.181808 0.43277 0.18167
C_ C_ 0.471661 0.201532 0.457216 -0.15533
C_ C_ 0.467359 0.238728 0.497446 0.02923
C_ C_ 0.422278 0.248732 0.0273848 -0.15533
C_ C_ 0.378015 0.228255 0.491264 0.18167
C_ C_ 0.251821 0.197183 0.356362 0.18167
C_ C_ 0.229041 0.222527 0.311786 -0.15533
C_ C_ 0.261577 0.237945 0.278122 0.02923
C_ C_ 0.311197 0.216998 0.282347 -0.15533
C_ C_ 0.3305 0.188052 0.323282 0.18167
C_ C_ 0.258822 0.12336 0.45862 0.69207
C_ C_ 0.22728 0.117383 0.996439 0.02923
C_ C_ 0.246908 0.120427 0.0496524 -0.15533
C_ C_ 0.218179 0.102061 0.0860017 -0.15533
C_ C_ 0.165406 0.101227 0.0761273 0.02923
C_ C_ 0.14555 0.0981995 0.0247282 -0.15533
C_ C_ 0.176323 0.104537 0.984209 0.02923
C_ C_ 0.142791 0.120044 0.43229 0.69207
C_ C_ 0.152847 0.103643 0.175752 0.69661
C_ C_ 0.366996 0.377372 0.377155 -0.30787
C_ C_ 0.130212 0.11017 0.120254 -0.30787
N_ N_ 0.146956 0.0499053 0.318879 -0.32189
N_ N_ 0.0544181 0.139953 0.310544 -0.32189
N_ N_ 0.109611 0.304574 0.0617018 -0.32189
N_ N_ 0.200085 0.320971 0.146017 -0.32189
N_ N_ 0.350993 0.454461 0.184394 -0.32189
N_ N_ 0.442366 0.366581 0.191826 -0.32189
N_ N_ 0.382011 0.195911 0.450805 -0.32189
N_ N_ 0.302163 0.177553 0.360437 -0.32189
O_ O_ 0.500657 0.0922582 0.388016 -0.63271
O_ O_ 0.0403438 0.0428022 0.341663 -0.57982
O_ O_ 0.385631 0.0924256 0.349283 -0.63271
O_ O_ 0.371455 0.0918009 0.430865 -0.57982
O_ O_ 0.243715 0.389789 0.0847351 -0.63271
O_ O_ 0.204665 0.332992 0.0336837 -0.57982
O_ O_ 0.354331 0.340788 0.0961996 -0.63271
O_ O_ 0.375238 0.420057 0.09091 -0.57982
O_ O_ 0.988789 0.406761 0.108558 -0.63271
O_ O_ 0.441307 0.47184 0.15321 -0.57982
O_ O_ 0.0856931 0.393931 0.14154 -0.63271
O_ O_ 0.128874 0.406957 0.0760279 -0.57982
O_ O_ 0.249685 0.102546 0.413298 -0.63271
O_ O_ 0.293479 0.156026 0.46704 -0.57982
O_ O_ 0.145483 0.156726 0.403587 -0.63271
O_ O_ 0.113739 0.0825199 0.415768 -0.57982
F_ F_ 0.433528 0.309228 0.414712 -0.20885
F_ F_ 0.415754 0.304087 0.329819 -0.20885
F_ F_ 0.363168 0.281509 0.376098 -0.20885
F_ F_ 0.301028 0.422897 0.320246 -0.20885
F_ F_ 0.310553 0.338496 0.304036 -0.20885
F_ F_ 0.368905 0.386978 0.286026 -0.20885
F_ F_ 0.0792908 0.174309 0.0784964 -0.20885
F_ F_ 0.0781245 0.183641 0.158101 -0.20885
F_ F_ 0.145363 0.198925 0.121548 -0.20885
F_ F_ 0.181569 0.0573451 0.180737 -0.20885
F_ F_ 0.18718 0.140562 0.193967 -0.20885
F_ F_ 0.116159 0.106299 0.209527 -0.20885
Zn Zn 0.0854911 0.0858955 0.852231 0.83971
Zn Zn 0.161157 0.345128 0.58837 0.83971
Zn Zn 0.411264 0.419339 0.64689 0.83971
Zn Zn 0.336467 0.158813 0.920148 0.83971
H_ H_ 0.166213 0.130541 0.812921 0.10394
H_ H_ 0.252914 0.0984052 0.784824 0.10394
H_ H_ 0.191811 0.447959 0.752441 0.10394
H_ H_ 0.13184 0.982795 0.828198 0.10394
H_ H_ 0.548896 0.103687 0.741153 0.10394
H_ H_ 0.514686 0.183515 0.695194 0.10394
H_ H_ 0.0411893 0.276703 0.837831 0.10394
H_ H_ 0.073985 0.198945 0.886812 0.10394
H_ H_ 0.037065 0.443804 0.868272 0.10394
H_ H_ 0.481554 0.378379 0.873804 0.10394
H_ H_ 0.349695 0.488225 0.886824 0.10394
H_ H_ 0.0814455 0.306825 0.633343 0.10394
H_ H_ 0.504001 0.268214 0.599776 0.10394
H_ H_ 0.0353295 0.29149 0.950962 0.10394
H_ H_ 0.129789 0.310505 0.48401 0.10394
H_ H_ 0.217622 0.251752 0.597358 0.10394
H_ H_ 0.249649 0.19908 0.675443 0.10394
H_ H_ 0.212472 0.326847 0.772574 0.10394
H_ H_ 0.179079 0.377026 0.698544 0.10394
H_ H_ 0.216907 0.379399 0.943611 0.10394
H_ H_ 0.267622 0.38803 0.875334 0.10394
H_ H_ 0.394781 0.408713 0.988066 0.10394
H_ H_ 0.30293 0.398446 0.6487 0.10394
H_ H_ 0.231618 0.445263 0.683838 0.10394
H_ H_ 0.337927 0.0335347 0.794679 0.10394
H_ H_ 0.401516 0.502455 0.725671 0.10394
H_ H_ 0.00927134 0.390386 0.700411 0.10394
H_ H_ 0.0517918 0.323413 0.751926 0.10394
H_ H_ 0.419856 0.245662 0.715884 0.10394
H_ H_ 0.37269 0.329759 0.68548 0.10394
H_ H_ 0.462705 0.0615342 0.61124 0.10394
H_ H_ 0.0157097 0.126698 0.62234 0.10394
H_ H_ 0.138144 0.0155437 0.580715 0.10394
H_ H_ 0.432669 0.175138 0.894575 0.10394
H_ H_ 0.0261494 0.184673 0.956016 0.10394
H_ H_ 0.41597 0.276617 0.548746 0.10394
H_ H_ 0.345321 0.229898 0.0152103 0.10394
H_ H_ 0.231822 0.190836 0.884889 0.10394
H_ H_ 0.19649 0.234708 0.806132 0.10394
H_ H_ 0.340896 0.220857 0.745589 0.10394
H_ H_ 0.378656 0.194273 0.829876 0.10394
H_ H_ 0.280382 0.129398 0.562065 0.10394
H_ H_ 0.228315 0.119066 0.627647 0.10394
H_ H_ 0.0935023 0.115189 0.515635 0.10394
C_ C_ 0.176307 0.0915915 0.805771 0.18167
C_ C_ 0.223567 0.0725306 0.789892 -0.15533
C_ C_ 0.23376 0.0192155 0.776029 0.02923
C_ C_ 0.18936 0.488547 0.767296 -0.15533
C_ C_ 0.151929 0.00770957 0.80948 0.18167
C_ C_ 0.028785 0.13977 0.775028 0.18167
C_ C_ 0.52147 0.184601 0.736343 -0.15533
C_ C_ 0.0123735 0.231712 0.770467 0.02923
C_ C_ 0.0358932 0.237789 0.821775 -0.15533
C_ C_ 0.0531568 0.193808 0.848762 0.18167
C_ C_ 0.0137027 0.0420367 0.876961 0.69207
C_ C_ 0.476026 0.507789 0.881733 0.02923
C_ C_ 0.495374 0.45724 0.876036 -0.15533
C_ C_ 0.465156 0.418113 0.88261 -0.15533
C_ C_ 0.41261 0.428508 0.891456 0.02923
C_ C_ 0.391455 0.480971 0.887257 -0.15533
C_ C_ 0.422492 0.519789 0.886778 0.02923
C_ C_ 0.39138 0.0721471 0.889599 0.69207
C_ C_ 0.404667 0.331073 0.894813 0.69661
C_ C_ 0.0736908 0.302729 0.592033 0.18167
C_ C_ 0.0254205 0.287318 0.572464 -0.15533
C_ C_ 0.0181858 0.271979 0.520115 0.02923
C_ C_ 0.0511208 0.288931 0.992026 -0.15533
C_ C_ 0.0998577 0.303571 0.508456 0.18167
C_ C_ 0.215824 0.267153 0.636423 0.18167
C_ C_ 0.240292 0.240064 0.676406 -0.15533
C_ C_ 0.237442 0.261171 0.726735 0.02923
C_ C_ 0.213136 0.309822 0.735009 -0.15533
C_ C_ 0.196196 0.338102 0.693322 0.18167
C_ C_ 0.241599 0.364405 0.547565 0.69207
C_ C_ 0.278267 0.370375 0.00355772 0.02923
C_ C_ 0.256145 0.373511 0.950412 -0.15533
C_ C_ 0.288335 0.380234 0.912152 -0.15533
C_ C_ 0.336693 0.39524 0.92621 0.02923
C_ C_ 0.35604 0.400569 0.979362 -0.15533
C_ C_ 0.328026 0.385009 0.0173371 0.02923
C_ C_ 0.360951 0.376051 0.566836 0.69207
C_ C_ 0.354476 0.377201 0.829393 0.69661
C_ C_ 0.30974 0.429492 0.675052 0.18167
C_ C_ 0.268288 0.453872 0.696774 -0.15533
C_ C_ 0.2754 0.491953 0.737301 0.02923
C_ C_ 0.327276 0.0101014 0.760221 -0.15533
C_ C_ 0.36334 0.487411 0.72183 0.18167
C_ C_ 0.49455 0.354475 0.692534 0.18167
C_ C_ 0.0133405 0.319945 0.735589 -0.15533
C_ C_ 0.489033 0.276877 0.738781 0.02923
C_ C_ 0.437246 0.28121 0.720759 -0.15533
C_ C_ 0.414475 0.322727 0.693188 0.18167
C_ C_ 0.487355 0.454076 0.615561 0.69207
C_ C_ 0.0214756 0.995412 0.618444 0.02923
C_ C_ 0.00148798 0.0460978 0.61807 -0.15533
C_ C_ 0.0317957 0.0865306 0.619526 -0.15533
C_ C_ 0.0831503 0.0746593 0.606351 0.02923
C_ C_ 0.100665 0.0228232 0.594423 -0.15533
C_ C_ 0.0709669 0.980911 0.602739 0.02923
C_ C_ 0.0959854 0.424002 0.604051 0.69207
C_ C_ 0.10052 0.171299 0.62948 0.69661
C_ C_ 0.431504 0.192104 0.933463 0.18167
C_ C_ 0.475422 0.211528 0.959693 -0.15533
C_ C_ 0.471648 0.242421 1.00687082 0.02923
C_ C_ 0.419523 0.252765 0.512348 -0.15533
C_ C_ 0.380511 0.226642 0.99882256 0.18167
C_ C_ 0.256342 0.196948 0.852728 0.18167
C_ C_ 0.235317 0.226466 0.811627 -0.15533
C_ C_ 0.263509 0.231165 0.771372 0.02923
C_ C_ 0.315953 0.212859 0.773475 -0.15533
C_ C_ 0.336882 0.191874 0.819614 0.18167
C_ C_ 0.261254 0.126815 0.958001 0.69207
C_ C_ 0.220977 0.122924 0.499608 0.02923
C_ C_ 0.239837 0.12739 0.55065 -0.15533
C_ C_ 0.209226 0.123112 0.58856 -0.15533
C_ C_ 0.156357 0.115862 0.576668 0.02923
C_ C_ 0.133709 0.121099 0.525907 -0.15533
C_ C_ 0.167151 0.12193 0.484829 0.02923
C_ C_ 0.152708 0.108579 0.930632 0.69207
C_ C_ 0.153359 0.0995938 0.675308 0.69661
C_ C_ 0.377646 0.383687 0.886311 -0.30787
C_ C_ 0.122931 0.115123 0.622 -0.30787
N_ N_ 0.141325 0.0575133 0.815415 -0.32189
N_ N_ 0.0516483 0.145679 0.823471 -0.32189
N_ N_ 0.10948 0.30969 0.561138 -0.32189
N_ N_ 0.192616 0.312899 0.645544 -0.32189
N_ N_ 0.355341 0.44812 0.684932 -0.32189
N_ N_ 0.443308 0.357709 0.677169 -0.32189
N_ N_ 0.3869 0.197813 0.955628 -0.32189
N_ N_ 0.308282 0.18416 0.857456 -0.32189
O_ O_ 0.486658 0.0997217 0.87803 -0.63271
O_ O_ 0.0486753 0.0334488 0.845008 -0.57982
O_ O_ 0.387096 0.0954895 0.846528 -0.63271
O_ O_ 0.368447 0.0928444 0.927424 -0.57982
O_ O_ 0.240022 0.397847 0.585614 -0.63271
O_ O_ 0.206287 0.33278 0.540593 -0.57982
O_ O_ 0.358842 0.339006 0.596544 -0.63271
O_ O_ 0.38732 0.414396 0.58332 -0.57982
O_ O_ 0.991573 0.404102 0.600742 -0.63271
O_ O_ 0.454838 0.465011 0.647559 -0.57982
O_ O_ 0.10137 0.402047 0.647875 -0.63271
O_ O_ 0.132253 0.40917 0.574661 -0.57982
O_ O_ 0.256447 0.103222 0.912708 -0.63271
O_ O_ 0.291006 0.162195 0.965863 -0.57982
O_ O_ 0.154111 0.150334 0.906042 -0.63271
O_ O_ 0.112888 0.0836521 0.918112 -0.57982
F_ F_ 0.437273 0.329923 0.938357 -0.20885
F_ F_ 0.435009 0.310857 0.855424 -0.20885
F_ F_ 0.372567 0.292758 0.893893 -0.20885
F_ F_ 0.324116 0.420791 0.816328 -0.20885
F_ F_ 0.322553 0.336199 0.819106 -0.20885
F_ F_ 0.394087 0.374277 0.797196 -0.20885
F_ F_ 0.0666161 0.187559 0.588442 -0.20885
F_ F_ 0.0717547 0.184497 0.67054 -0.20885
F_ F_ 0.137442 0.202334 0.635921 -0.20885
F_ F_ 0.180825 0.0532077 0.669202 -0.20885
F_ F_ 0.181478 0.134621 0.70129 -0.20885
F_ F_ 0.118057 0.0915793 0.707213 -0.20885
Zn Zn 0.0875803 0.581672 0.348843 0.83971
Zn Zn 0.161833 0.844814 0.0813213 0.83971
Zn Zn 0.412792 0.921753 0.15019 0.83971
Zn Zn 0.33861 0.652067 0.420915 0.83971
H_ H_ 0.156811 0.628459 0.298453 0.10394
H_ H_ 0.241285 0.595638 0.265072 0.10394
H_ H_ 0.203403 0.938783 0.27551 0.10394
H_ H_ 0.136399 0.479994 0.327212 0.10394
H_ H_ 0.519789 0.609034 0.245718 0.10394
H_ H_ 0.485123 0.689745 0.205603 0.10394
H_ H_ 0.0346565 0.771949 0.33447 0.10394
H_ H_ 0.0801617 0.695703 0.374687 0.10394
H_ H_ 0.0309458 0.944117 0.364798 0.10394
H_ H_ 0.484653 0.876507 0.370174 0.10394
H_ H_ 0.361338 0.984355 0.425908 0.10394
H_ H_ 0.0767395 0.816949 0.127623 0.10394
H_ H_ 0.508953 0.759668 0.0961498 0.10394
H_ H_ 0.0359287 0.784378 0.444788 0.10394
H_ H_ 0.119888 0.819972 0.976879 0.10394
H_ H_ 0.207165 0.747251 0.0975712 0.10394
H_ H_ 0.245469 0.698435 0.178301 0.10394
H_ H_ 0.217321 0.836462 0.268766 0.10394
H_ H_ 0.18037 0.875214 0.19126 0.10394
H_ H_ 0.221897 0.848029 0.450245 0.10394
H_ H_ 0.279215 0.851423 0.381896 0.10394
H_ H_ 0.395341 0.902326 0.491828 0.10394
H_ H_ 0.310552 0.895447 0.156948 0.10394
H_ H_ 0.233079 0.940277 0.190376 0.10394
H_ H_ 0.32924 0.533987 0.288446 0.10394
H_ H_ 0.404457 0.00681098 0.224858 0.10394
H_ H_ 0.0179997 0.870141 0.175404 0.10394
H_ H_ 0.0587745 0.800434 0.231579 0.10394
H_ H_ 0.409903 0.757492 0.23014 0.10394
H_ H_ 0.368226 0.833247 0.190253 0.10394
H_ H_ 0.460617 0.556774 0.124805 0.10394
H_ H_ 0.00748318 0.615525 0.104356 0.10394
H_ H_ 0.142966 0.501852 0.0973476 0.10394
H_ H_ 0.436002 0.660194 0.401771 0.10394
H_ H_ 0.0124109 0.694858 0.441163 0.10394
H_ H_ 0.420666 0.778259 0.0449263 0.10394
H_ H_ 0.340535 0.74003 0.498117 0.10394
H_ H_ 0.240365 0.706941 0.393442 0.10394
H_ H_ 0.19641 0.752466 0.315317 0.10394
H_ H_ 0.33609 0.716605 0.242325 0.10394
H_ H_ 0.379595 0.687727 0.327393 0.10394
H_ H_ 0.286051 0.600405 0.0548699 0.10394
H_ H_ 0.230023 0.609391 0.122514 0.10394
H_ H_ 0.104944 0.580598 0.0116365 0.10394
C_ C_ 0.173725 0.58858 0.302098 0.18167
C_ C_ 0.219941 0.570288 0.281589 -0.15533
C_ C_ 0.235031 0.51656 0.276916 0.02923
C_ C_ 0.19827 0.977392 0.284284 -0.15533
C_ C_ 0.160922 0.504447 0.31669 0.18167
C_ C_ 0.0168214 0.638042 0.275725 0.18167
C_ C_ 0.505215 0.689684 0.244289 -0.15533
C_ C_ 0.00286572 0.72857 0.268899 0.02923
C_ C_ 0.0285317 0.735359 0.318103 -0.15533
C_ C_ 0.0533315 0.691326 0.341406 0.18167
C_ C_ 0.0060339 0.546339 0.375751 0.69207
C_ C_ 0.473279 0.00547728 0.378484 0.02923
C_ C_ 0.494718 0.955627 0.377528 -0.15533
C_ C_ 0.465851 0.915355 0.378979 -0.15533
C_ C_ 0.416262 0.924869 0.394212 0.02923
C_ C_ 0.396662 0.975706 0.406628 -0.15533
C_ C_ 0.423307 0.0165515 0.395416 0.02923
C_ C_ 0.390883 0.564473 0.388594 0.69207
C_ C_ 0.400746 0.829166 0.387717 0.69661
C_ C_ 0.0707359 0.807205 0.0853294 0.18167
C_ C_ 0.0275335 0.784374 0.0668164 -0.15533
C_ C_ 0.0189845 0.769132 0.016935 0.02923
C_ C_ 0.0444789 0.788917 0.487382 -0.15533
C_ C_ 0.0952027 0.807643 0.00406989 0.18167
C_ C_ 0.210728 0.764745 0.134292 0.18167
C_ C_ 0.237252 0.739025 0.177817 -0.15533
C_ C_ 0.238276 0.763452 0.228171 0.02923
C_ C_ 0.21448 0.8134 0.23242 -0.15533
C_ C_ 0.195331 0.837842 0.186997 0.18167
C_ C_ 0.245196 0.863605 0.0469751 0.69207
C_ C_ 0.27545 0.877889 0.510143 0.02923
C_ C_ 0.257634 0.867133 0.458611 -0.15533
C_ C_ 0.288645 0.869037 0.419854 -0.15533
C_ C_ 0.336931 0.887405 0.428836 0.02923
C_ C_ 0.355396 0.900195 0.481351 -0.15533
C_ C_ 0.324761 0.894337 0.522124 0.02923
C_ C_ 0.359398 0.885127 0.0666738 0.69207
C_ C_ 0.352665 0.893797 0.334726 0.69661
C_ C_ 0.312491 0.930854 0.180911 0.18167
C_ C_ 0.272212 0.950899 0.207455 -0.15533
C_ C_ 0.278888 0.989286 0.247327 0.02923
C_ C_ 0.322964 0.50853 0.253976 -0.15533
C_ C_ 0.364949 0.991222 0.219596 0.18167
C_ C_ 0.491038 0.85543 0.198387 0.18167
C_ C_ 0.0163383 0.808104 0.223252 -0.15533
C_ C_ 0.482754 0.78452 0.246594 0.02923
C_ C_ 0.430318 0.790468 0.232329 -0.15533
C_ C_ 0.408561 0.831292 0.201406 0.18167
C_ C_ 0.490972 0.957408 0.117753 0.69207
C_ C_ 0.0200125 0.49041 0.123627 0.02923
C_ C_ 0.00037799 0.54178 0.124005 -0.15533
C_ C_ 0.0293784 0.578314 0.111654 -0.15533
C_ C_ 0.0819789 0.565928 0.104665 0.02923
C_ C_ 0.102138 0.513153 0.101792 -0.15533
C_ C_ 0.0696189 0.476052 0.108621 0.02923
C_ C_ 0.100334 0.926625 0.107002 0.69207
C_ C_ 0.0980002 0.659986 0.105349 0.69661
C_ C_ 0.434111 0.684357 0.435163 0.18167
C_ C_ 0.477053 0.703204 0.462393 -0.15533
C_ C_ 0.467215 0.742969 0.50068 0.02923
C_ C_ 0.425481 0.749123 0.0146996 -0.15533
C_ C_ 0.378101 0.728787 0.487487 0.18167
C_ C_ 0.262661 0.711229 0.360461 0.18167
C_ C_ 0.237278 0.739031 0.316238 -0.15533
C_ C_ 0.263097 0.7379 0.273297 0.02923
C_ C_ 0.313978 0.716534 0.274352 -0.15533
C_ C_ 0.33904 0.695598 0.319732 0.18167
C_ C_ 0.261097 0.627874 0.46071 0.69207
C_ C_ 0.224774 0.60877 0.993126 0.02923
C_ C_ 0.245999 0.600978 0.0449681 -0.15533
C_ C_ 0.213351 0.602111 0.0850487 -0.15533
C_ C_ 0.161829 0.595102 0.0709961 0.02923
C_ C_ 0.144352 0.58671 0.0197016 -0.15533
C_ C_ 0.17284 0.601111 0.981268 0.02923
C_ C_ 0.152327 0.608139 0.427928 0.69207
C_ C_ 0.140415 0.604577 0.169295 0.69661
C_ C_ 0.376728 0.884997 0.38828 -0.30787
C_ C_ 0.121399 0.605384 0.112288 -0.30787
N_ N_ 0.144931 0.555294 0.317981 -0.32189
N_ N_ 0.0494777 0.643339 0.319241 -0.32189
N_ N_ 0.106978 0.810094 0.0548279 -0.32189
N_ N_ 0.189224 0.812638 0.140503 -0.32189
N_ N_ 0.359806 0.946693 0.191526 -0.32189
N_ N_ 0.439262 0.863453 0.185607 -0.32189
N_ N_ 0.386963 0.693273 0.449676 -0.32189
N_ N_ 0.310665 0.689137 0.359073 -0.32189
O_ O_ 0.508348 0.580482 0.399533 -0.63271
O_ O_ 0.0429699 0.535691 0.346488 -0.57982
O_ O_ 0.388304 0.588138 0.34653 -0.63271
O_ O_ 0.373055 0.58911 0.428631 -0.57982
O_ O_ 0.24464 0.892422 0.088302 -0.63271
O_ O_ 0.209829 0.832578 0.0361808 -0.57982
O_ O_ 0.363269 0.846163 0.0960488 -0.63271
O_ O_ 0.387003 0.923184 0.0837975 -0.57982
O_ O_ 0.992166 0.912359 0.0941144 -0.63271
O_ O_ 0.454321 0.967802 0.147044 -0.57982
O_ O_ 0.0972389 0.901156 0.148564 -0.63271
O_ O_ 0.137215 0.910164 0.0780094 -0.57982
O_ O_ 0.260317 0.603198 0.417173 -0.63271
O_ O_ 0.297476 0.657929 0.472189 -0.57982
O_ O_ 0.156186 0.645836 0.397861 -0.63271
O_ O_ 0.11544 0.579531 0.41384 -0.57982
F_ F_ 0.438191 0.825043 0.427555 -0.20885
F_ F_ 0.423405 0.817476 0.34244 -0.20885
F_ F_ 0.365975 0.795094 0.393759 -0.20885
F_ F_ 0.318208 0.936376 0.337399 -0.20885
F_ F_ 0.327878 0.85379 0.310666 -0.20885
F_ F_ 0.386885 0.90004 0.300464 -0.20885
F_ F_ 0.0753322 0.663257 0.0561762 -0.20885
F_ F_ 0.0657307 0.684263 0.139991 -0.20885
F_ F_ 0.137788 0.691781 0.110693 -0.20885
F_ F_ 0.164479 0.558097 0.184552 -0.20885
F_ F_ 0.172247 0.641978 0.186648 -0.20885
F_ F_ 0.0999794 0.617407 0.201006 -0.20885
Zn Zn 0.091338 0.583274 0.846534 0.83971
Zn Zn 0.161624 0.845223 0.58524 0.83971
Zn Zn 0.410503 0.916428 0.65796 0.83971
Zn Zn 0.333356 0.657565 0.915983 0.83971
H_ H_ 0.187714 0.622042 0.830394 0.10394
H_ H_ 0.260218 0.590375 0.784457 0.10394
H_ H_ 0.203428 0.947612 0.780196 0.10394
H_ H_ 0.116843 0.487197 0.793656 0.10394
H_ H_ 0.539481 0.596534 0.753412 0.10394
H_ H_ 0.490601 0.667987 0.708513 0.10394
H_ H_ 0.0347072 0.771815 0.833637 0.10394
H_ H_ 0.0656863 0.697824 0.88057 0.10394
H_ H_ 0.0299823 0.944006 0.858374 0.10394
H_ H_ 0.475344 0.883198 0.854037 0.10394
H_ H_ 0.359206 0.98321 0.918581 0.10394
H_ H_ 0.0870538 0.79502 0.630551 0.10394
H_ H_ 0.498055 0.766891 0.599517 0.10394
H_ H_ 0.0440482 0.786737 0.940145 0.10394
H_ H_ 0.111626 0.827003 0.486704 0.10394
H_ H_ 0.214777 0.743244 0.599343 0.10394
H_ H_ 0.2429 0.695899 0.670898 0.10394
H_ H_ 0.228448 0.833844 0.770368 0.10394
H_ H_ 0.193471 0.878709 0.695305 0.10394
H_ H_ 0.219828 0.857152 0.943464 0.10394
H_ H_ 0.272323 0.856556 0.876716 0.10394
H_ H_ 0.396797 0.894759 0.983291 0.10394
H_ H_ 0.302929 0.906761 0.657358 0.10394
H_ H_ 0.232557 0.955778 0.696657 0.10394
H_ H_ 0.329902 0.533878 0.781316 0.10394
H_ H_ 0.407331 -0.00013499999999999623 0.741045 0.10394
H_ H_ 0.0169054 0.886267 0.695646 0.10394
H_ H_ 0.0582001 0.809315 0.727789 0.10394
H_ H_ 0.419137 0.741186 0.720809 0.10394
H_ H_ 0.380325 0.817073 0.681251 0.10394
H_ H_ 0.462968 0.554057 0.604201 0.10394
H_ H_ 0.00980585 0.613039 0.583565 0.10394
H_ H_ 0.141841 0.503706 0.595699 0.10394
H_ H_ 0.443047 0.67005 0.893967 0.10394
H_ H_ 0.0148395 0.686864 0.951374 0.10394
H_ H_ 0.415239 0.768754 0.556019 0.10394
H_ H_ 0.344981 0.732899 0.002389999999999892 0.10394
H_ H_ 0.228965 0.686484 0.88246 0.10394
H_ H_ 0.188011 0.72621 0.797992 0.10394
H_ H_ 0.340055 0.714801 0.742885 0.10394
H_ H_ 0.374435 0.68536 0.828038 0.10394
H_ H_ 0.286416 0.622452 0.558423 0.10394
H_ H_ 0.234381 0.602769 0.625645 0.10394
H_ H_ 0.111846 0.577873 0.509551 0.10394
C_ C_ 0.187039 0.585152 0.807732 0.18167
C_ C_ 0.229369 0.56666 0.783617 -0.15533
C_ C_ 0.231459 0.516709 0.763181 0.02923
C_ C_ 0.19636 0.988387 0.787123 -0.15533
C_ C_ 0.146862 0.510882 0.787988 0.18167
C_ C_ 0.0340184 0.635652 0.769717 0.18167
C_ C_ 0.510431 0.676076 0.746419 -0.15533
C_ C_ 0.0147924 0.72873 0.761853 0.02923
C_ C_ 0.0374335 0.733861 0.813101 -0.15533
C_ C_ 0.0549964 0.690006 0.841749 0.18167
C_ C_ 0.0121803 0.545712 0.868217 0.69207
C_ C_ 0.468373 0.0103409 0.877324 0.02923
C_ C_ 0.488129 0.958633 0.864841 -0.15533
C_ C_ 0.45766 0.918581 0.867772 -0.15533
C_ C_ 0.413008 0.924193 0.892713 0.02923
C_ C_ 0.393858 0.976069 0.901635 -0.15533
C_ C_ 0.418696 0.018952 0.890341 0.02923
C_ C_ 0.393751 0.573482 0.888101 0.69207
C_ C_ 0.411012 0.827669 0.890504 0.69661
C_ C_ 0.0715387 0.795695 0.59119 0.18167
C_ C_ 0.0254069 0.77541 0.572944 -0.15533
C_ C_ 0.0134115 0.768235 0.52004 0.02923
C_ C_ 0.0510897 0.787889 0.981792 -0.15533
C_ C_ 0.0919786 0.805358 0.507121 0.18167
C_ C_ 0.218769 0.764835 0.638201 0.18167
C_ C_ 0.232996 0.734684 0.680115 -0.15533
C_ C_ 0.242139 0.75912 0.727075 0.02923
C_ C_ 0.22855 0.812347 0.733142 -0.15533
C_ C_ 0.209838 0.840177 0.689147 0.18167
C_ C_ 0.242666 0.870545 0.549855 0.69207
C_ C_ 0.279184 0.86992 0.00622985 0.02923
C_ C_ 0.258136 0.869704 0.955473 -0.15533
C_ C_ 0.287534 0.868799 0.914614 -0.15533
C_ C_ 0.338838 0.883592 0.924104 0.02923
C_ C_ 0.35772 0.890996 0.97692 -0.15533
C_ C_ 0.331385 0.88313 0.0169377 0.02923
C_ C_ 0.351084 0.890667 0.574428 0.69207
C_ C_ 0.354161 0.877057 0.827901 0.69661
C_ C_ 0.310233 0.940136 0.681013 0.18167
C_ C_ 0.270806 0.963353 0.70625 -0.15533
C_ C_ 0.278239 0.996544 0.748048 0.02923
C_ C_ 0.322604 0.511713 0.746377 -0.15533
C_ C_ 0.367704 0.989222 0.732038 0.18167
C_ C_ 0.498086 0.857591 0.706309 0.18167
C_ C_ 0.0180564 0.81303 0.723153 -0.15533
C_ C_ 0.494925 0.770409 0.735537 0.02923
C_ C_ 0.443092 0.772323 0.716351 -0.15533
C_ C_ 0.420642 0.814427 0.693269 0.18167
C_ C_ 0.481308 0.958927 0.618721 0.69207
C_ C_ 0.0183051 0.490214 0.611411 0.02923
C_ C_ 0.998572 0.541609 0.607213 -0.15533
C_ C_ 0.0302545 0.579844 0.602182 -0.15533
C_ C_ 0.0851 0.566744 0.601649 0.02923
C_ C_ 0.101559 0.514498 0.598306 -0.15533
C_ C_ 0.0687702 0.476282 0.599721 0.02923
C_ C_ 0.0983534 0.925308 0.607516 0.69207
C_ C_ 0.0964166 0.661548 0.602121 0.69661
C_ C_ 0.438143 0.68454 0.930664 0.18167
C_ C_ 0.479561 0.702148 0.960537 -0.15533
C_ C_ 0.473956 0.738461 -0.0007789999999999742 0.02923
C_ C_ 0.419456 0.748052 0.5195 -0.15533
C_ C_ 0.383707 0.726178 0.988485 0.18167
C_ C_ 0.252159 0.691204 0.84925 0.18167
C_ C_ 0.229502 0.715262 0.802873 -0.15533
C_ C_ 0.261762 0.730589 0.76984 0.02923
C_ C_ 0.313877 0.713302 0.773889 -0.15533
C_ C_ 0.334252 0.695662 0.822566 0.18167
C_ C_ 0.255514 0.619218 0.953739 0.69207
C_ C_ 0.224656 0.621312 0.496775 0.02923
C_ C_ 0.244955 0.61972 0.548774 -0.15533
C_ C_ 0.214287 0.614705 0.587872 -0.15533
C_ C_ 0.164114 0.600271 0.574044 0.02923
C_ C_ 0.147397 0.59366 0.521657 -0.15533
C_ C_ 0.174198 0.608377 0.482681 0.02923
C_ C_ 0.144735 0.6062 0.931309 0.69207
C_ C_ 0.143688 0.60266 0.669328 0.69661
C_ C_ 0.378332 0.879935 0.884721 -0.30787
C_ C_ 0.12263 0.608786 0.61103 -0.30787
N_ N_ 0.146402 0.558337 0.809565 -0.32189
N_ N_ 0.05885 0.642961 0.818484 -0.32189
N_ N_ 0.104623 0.808681 0.55964 -0.32189
N_ N_ 0.200752 0.815659 0.642709 -0.32189
N_ N_ 0.358551 0.949717 0.696035 -0.32189
N_ N_ 0.44792 0.854677 0.687356 -0.32189
N_ N_ 0.389545 0.695521 0.9453 -0.32189
N_ N_ 0.30467 0.680825 0.8562 -0.32189
O_ O_ 0.504503 0.594329 0.888107 -0.63271
O_ O_ 0.0504207 0.535314 0.839399 -0.57982
O_ O_ 0.385664 0.597063 0.846351 -0.63271
O_ O_ 0.369835 0.593381 0.92606 -0.57982
O_ O_ 0.239063 0.907162 0.585822 -0.63271
O_ O_ 0.208464 0.838864 0.539316 -0.57982
O_ O_ 0.353607 0.847653 0.59742 -0.63271
O_ O_ 0.382453 0.923972 0.59496 -0.57982
O_ O_ 0.983849 0.91578 0.592939 -0.63271
O_ O_ 0.455923 0.965215 0.657774 -0.57982
O_ O_ 0.0962189 0.900185 0.647398 -0.63271
O_ O_ 0.130313 0.908009 0.574362 -0.57982
O_ O_ 0.25164 0.597194 0.905768 -0.63271
O_ O_ 0.287574 0.653753 0.964174 -0.57982
O_ O_ 0.14727 0.64741 0.909208 -0.63271
O_ O_ 0.117219 0.571552 0.910717 -0.57982
F_ F_ 0.44727 0.83195 0.931992 -0.20885
F_ F_ 0.436168 0.808435 0.848062 -0.20885
F_ F_ 0.378633 0.790145 0.894207 -0.20885
F_ F_ 0.311363 0.911252 0.822509 -0.20885
F_ F_ 0.342043 0.827136 0.812608 -0.20885
F_ F_ 0.383895 0.88955 0.792552 -0.20885
F_ F_ 0.0721572 0.665187 0.553304 -0.20885
F_ F_ 0.062827 0.678488 0.635571 -0.20885
F_ F_ 0.132463 0.696129 0.60595 -0.20885
F_ F_ 0.178775 0.559329 0.67742 -0.20885
F_ F_ 0.165608 0.645719 0.692011 -0.20885
F_ F_ 0.106096 0.596236 0.700075 -0.20885
Zn Zn 0.582589 0.0845419 0.338065 0.83971
Zn Zn 0.659792 0.354193 0.0857038 0.83971
Zn Zn 0.907623 0.418813 0.160376 0.83971
Zn Zn 0.837226 0.162148 0.415689 0.83971
H_ H_ 0.666265 0.137508 0.305172 0.10394
H_ H_ 0.751526 0.10294 0.27421 0.10394
H_ H_ 0.693184 0.455307 0.274569 0.10394
H_ H_ 0.633638 0.986403 0.310158 0.10394
H_ H_ 0.0385577 0.0916978 0.241397 0.10394
H_ H_ 0.989137 0.166554 0.198952 0.10394
H_ H_ 0.531616 0.269681 0.336658 0.10394
H_ H_ 0.562374 0.18777 0.373884 0.10394
H_ H_ 0.521367 0.442233 0.347716 0.10394
H_ H_ 0.982452 0.37836 0.384445 0.10394
H_ H_ 0.848181 0.492672 0.389538 0.10394
H_ H_ 0.586828 0.297573 0.135002 0.10394
H_ H_ 1.00867771 0.257667 0.103511 0.10394
H_ H_ 0.534031 0.27701 0.445461 0.10394
H_ H_ 0.617723 0.320871 0.988125 0.10394
H_ H_ 0.719808 0.265731 0.0943038 0.10394
H_ H_ 0.761629 0.214534 0.168019 0.10394
H_ H_ 0.722963 0.339752 0.26678 0.10394
H_ H_ 0.681371 0.390037 0.196293 0.10394
H_ H_ 0.719674 0.355381 0.436003 0.10394
H_ H_ 0.766863 0.387654 0.371278 0.10394
H_ H_ 0.891931 0.416543 0.483834 0.10394
H_ H_ 0.801128 0.404572 0.15261 0.10394
H_ H_ 0.728622 0.457755 0.186118 0.10394
H_ H_ 0.833269 0.0544158 0.271957 0.10394
H_ H_ 0.899821 0.495158 0.246655 0.10394
H_ H_ 0.513715 0.394131 0.202329 0.10394
H_ H_ 0.557413 0.314162 0.242225 0.10394
H_ H_ 0.911659 0.241796 0.21646 0.10394
H_ H_ 0.866825 0.32436 0.187 0.10394
H_ H_ 0.968279 0.0571876 0.127536 0.10394
H_ H_ 0.523179 0.122538 0.0990186 0.10394
H_ H_ 0.651171 0.00677488 0.0999921 0.10394
H_ H_ 0.948253 0.165819 0.39876 0.10394
H_ H_ 0.508641 0.187092 0.446507 0.10394
H_ H_ 0.921993 0.280253 0.0387607 0.10394
H_ H_ 0.843677 0.232567 0.503177 0.10394
H_ H_ 0.732459 0.20998 0.380385 0.10394
H_ H_ 0.69271 0.245889 0.302804 0.10394
H_ H_ 0.837332 0.234761 0.244939 0.10394
H_ H_ 0.876062 0.190817 0.319474 0.10394
H_ H_ 0.7887 0.122868 0.054111 0.10394
H_ H_ 0.7387 0.105278 0.12003 0.10394
H_ H_ 0.609184 0.0888947 0.00592339 0.10394
C_ C_ 0.677072 0.0960905 0.295532 0.18167
C_ C_ 0.724051 0.0773768 0.278282 -0.15533
C_ C_ 0.737381 0.0248482 0.269184 0.02923
C_ C_ 0.69159 0.493926 0.283194 -0.15533
C_ C_ 0.654128 0.0126595 0.294178 0.18167
C_ C_ 0.52403 0.139925 0.259262 0.18167
C_ C_ 0.00793048 0.175189 0.23683 -0.15533
C_ C_ 0.511016 0.231544 0.2621 0.02923
C_ C_ 0.534145 0.234969 0.312232 -0.15533
C_ C_ 0.550145 0.188372 0.333968 0.18167
C_ C_ 0.504752 0.0449257 0.366411 0.69207
C_ C_ 0.974067 0.508948 0.387507 0.02923
C_ C_ 0.994957 0.457137 0.390949 -0.15533
C_ C_ 0.963163 0.417703 0.388133 -0.15533
C_ C_ 0.908312 0.43061 0.38944 0.02923
C_ C_ 0.889381 0.482025 0.389014 -0.15533
C_ C_ 0.919538 0.520496 0.391931 0.02923
C_ C_ 0.895506 0.0759749 0.395154 0.69207
C_ C_ 0.899272 0.332427 0.382927 0.69661
C_ C_ 0.572674 0.299609 0.0953618 0.18167
C_ C_ 0.525926 0.279514 0.0792253 -0.15533
C_ C_ 0.514351 0.274029 0.0272584 0.02923
C_ C_ 0.548422 0.276917 0.48388 -0.15533
C_ C_ 0.593079 0.304547 0.013043 0.18167
C_ C_ 0.717148 0.279301 0.133857 0.18167
C_ C_ 0.742148 0.25105 0.17466 -0.15533
C_ C_ 0.737579 0.270816 0.223495 0.02923
C_ C_ 0.721714 0.322454 0.229378 -0.15533
C_ C_ 0.698513 0.350461 0.189431 0.18167
C_ C_ 0.740011 0.382005 0.0454435 0.69207
C_ C_ 0.777166 0.371289 0.500673 0.02923
C_ C_ 0.757996 0.367797 0.449069 -0.15533
C_ C_ 0.784632 0.384467 0.411758 -0.15533
C_ C_ 0.835243 0.39597 0.422112 0.02923
C_ C_ 0.853788 0.404247 0.475301 -0.15533
C_ C_ 0.825008 0.393753 0.514711 0.02923
C_ C_ 0.85482 0.385583 0.0705529 0.69207
C_ C_ 0.849667 0.387749 0.323394 0.69661
C_ C_ 0.807839 0.431972 0.185104 0.18167
C_ C_ 0.766107 0.462381 0.203096 -0.15533
C_ C_ 0.77224 0.50247 0.240597 0.02923
C_ C_ 0.82963 0.0217751 0.248946 -0.15533
C_ C_ 0.863093 0.484382 0.234666 0.18167
C_ C_ 0.987706 0.357825 0.211722 0.18167
C_ C_ 0.518814 0.315846 0.227861 -0.15533
C_ C_ 0.985494 0.268485 0.231993 0.02923
C_ C_ 0.931885 0.275359 0.218572 -0.15533
C_ C_ 0.909576 0.320868 0.194667 0.18167
C_ C_ 0.983025 0.453138 0.132136 0.69207
C_ C_ 0.527927 0.994338 0.116038 0.02923
C_ C_ 0.509006 0.0452625 0.109322 -0.15533
C_ C_ 0.540981 0.0821701 0.105476 -0.15533
C_ C_ 0.59288 0.0692977 0.105597 0.02923
C_ C_ 0.609564 0.0173634 0.105599 -0.15533
C_ C_ 0.577515 0.978743 0.109056 0.02923
C_ C_ 0.588988 0.426268 0.109832 0.69207
C_ C_ 0.607175 0.169496 0.0981142 0.69661
C_ C_ 0.940048 0.186575 0.432055 0.18167
C_ C_ 0.980509 0.206808 0.458664 -0.15533
C_ C_ 0.973299 0.242979 0.499922 0.02923
C_ C_ 0.928546 0.252056 0.0122474 -0.15533
C_ C_ 0.883132 0.224372 0.493685 0.18167
C_ C_ 0.757106 0.212223 0.349058 0.18167
C_ C_ 0.732896 0.234478 0.306059 -0.15533
C_ C_ 0.762409 0.242248 0.267389 0.02923
C_ C_ 0.813167 0.22357 0.270832 -0.15533
C_ C_ 0.835216 0.200633 0.314058 0.18167
C_ C_ 0.755079 0.133719 0.443319 0.69207
C_ C_ 0.729672 0.11775 0.992626 0.02923
C_ C_ 0.750825 0.108958 0.0426772 -0.15533
C_ C_ 0.720563 0.103763 0.0824984 -0.15533
C_ C_ 0.667769 0.0981936 0.0687908 0.02923
C_ C_ 0.647856 0.0975241 0.0162008 -0.15533
C_ C_ 0.678802 0.107893 0.977857 0.02923
C_ C_ 0.64698 0.109005 0.418499 0.69207
C_ C_ 0.655244 0.113933 0.165207 0.69661
C_ C_ 0.873057 0.388218 0.380544 -0.30787
C_ C_ 0.628925 0.112857 0.108398 -0.30787
N_ N_ 0.643174 0.0624084 0.305519 -0.32189
N_ N_ 0.547279 0.143483 0.307569 -0.32189
N_ N_ 0.606582 0.31054 0.0628822 -0.32189
N_ N_ 0.696905 0.330267 0.142396 -0.32189
N_ N_ 0.855366 0.443648 0.201416 -0.32189
N_ N_ 0.935446 0.360905 0.196614 -0.32189
N_ N_ 0.891165 0.196197 0.448492 -0.32189
N_ N_ 0.805892 0.191813 0.351651 -0.32189
O_ O_ 0.00696509 0.0916842 0.403658 -0.63271
O_ O_ 0.543264 0.0324876 0.339044 -0.57982
O_ O_ 0.892487 0.0994166 0.351932 -0.63271
O_ O_ 0.868327 0.098827 0.430762 -0.57982
O_ O_ 0.733761 0.420867 0.0790378 -0.63271
O_ O_ 0.706123 0.347868 0.0395296 -0.57982
O_ O_ 0.855063 0.34323 0.0955198 -0.63271
O_ O_ 0.877703 0.424487 0.0958965 -0.57982
O_ O_ 0.482738 0.416204 0.101141 -0.63271
O_ O_ 0.955818 0.459499 0.171484 -0.57982
O_ O_ 0.592341 0.397097 0.148469 -0.63271
O_ O_ 0.621746 0.412253 0.0770107 -0.57982
O_ O_ 0.760727 0.107326 0.397789 -0.63271
O_ O_ 0.788599 0.164731 0.459135 -0.57982
O_ O_ 0.648333 0.151954 0.395349 -0.63271
O_ O_ 0.613133 0.0771931 0.401779 -0.57982
F_ F_ 0.929072 0.326706 0.427996 -0.20885
F_ F_ 0.926478 0.316813 0.342074 -0.20885
F_ F_ 0.861761 0.296577 0.380197 -0.20885
F_ F_ 0.815782 0.427736 0.310108 -0.20885
F_ F_ 0.82776 0.345304 0.302842 -0.20885
F_ F_ 0.890127 0.388786 0.293116 -0.20885
F_ F_ 0.577861 0.169939 0.052683 -0.20885
F_ F_ 0.577395 0.191739 0.137645 -0.20885
F_ F_ 0.645399 0.201175 0.0977199 -0.20885
F_ F_ 0.688562 0.0711956 0.175693 -0.20885
F_ F_ 0.679864 0.15801 0.18136 -0.20885
F_ F_ 0.61825 0.110891 0.198986 -0.20885
Zn Zn 0.590859 0.0867436 0.846338 0.83971
Zn Zn 0.663797 0.342391 0.579235 0.83971
Zn Zn 0.903892 0.410688 0.647409 0.83971
Zn Zn 0.842081 0.15607 0.914118 0.83971
H_ H_ 0.672428 0.127212 0.808297 0.10394
H_ H_ 0.740783 0.0931893 0.758099 0.10394
H_ H_ 0.702969 0.443641 0.773155 0.10394
H_ H_ 0.639173 0.982827 0.836379 0.10394
H_ H_ 0.0149968 0.10372 0.757425 0.10394
H_ H_ 0.991276 0.177415 0.711206 0.10394
H_ H_ 0.518097 0.268783 0.835936 0.10394
H_ H_ 0.568904 0.194968 0.878295 0.10394
H_ H_ 0.534602 0.449484 0.871211 0.10394
H_ H_ 0.983992 0.379101 0.880923 0.10394
H_ H_ 0.859465 0.493755 0.913673 0.10394
H_ H_ 0.584803 0.302586 0.628322 0.10394
H_ H_ -0.00420147 0.284973 0.598853 0.10394
H_ H_ 0.529204 0.296482 0.954836 0.10394
H_ H_ 0.620161 0.304026 0.474918 0.10394
H_ H_ 0.730387 0.254991 0.588404 0.10394
H_ H_ 0.773934 0.204793 0.659352 0.10394
H_ H_ 0.727729 0.32583 0.765905 0.10394
H_ H_ 0.680763 0.370822 0.69765 0.10394
H_ H_ 0.72113 0.387877 0.94691 0.10394
H_ H_ 0.769371 0.393602 0.877925 0.10394
H_ H_ 0.902521 0.400364 0.990266 0.10394
H_ H_ 0.798813 0.389896 0.656246 0.10394
H_ H_ 0.72714 0.437289 0.68567 0.10394
H_ H_ 0.830689 0.0411896 0.787714 0.10394
H_ H_ 0.891641 0.508352 0.710081 0.10394
H_ H_ 0.517 0.384795 0.684033 0.10394
H_ H_ 0.55807 0.313162 0.73146 0.10394
H_ H_ 0.922062 0.239972 0.724292 0.10394
H_ H_ 0.875565 0.317596 0.685752 0.10394
H_ H_ 0.963628 0.0547473 0.633067 0.10394
H_ H_ 0.519585 0.121645 0.598605 0.10394
H_ H_ 0.641568 0.00908079 0.583041 0.10394
H_ H_ 0.954629 0.159673 0.897907 0.10394
H_ H_ 0.510307 0.210079 0.944167 0.10394
H_ H_ 0.918549 0.280174 0.546918 0.10394
H_ H_ 0.848434 0.241934 -0.01306700000000005 0.10394
H_ H_ 0.737777 0.195634 0.876039 0.10394
H_ H_ 0.697804 0.227194 0.795331 0.10394
H_ H_ 0.847851 0.221642 0.74392 0.10394
H_ H_ 0.888102 0.183856 0.823782 0.10394
H_ H_ 0.779831 0.132107 0.545865 0.10394
H_ H_ 0.736151 0.102269 0.60734 0.10394
H_ H_ 0.606444 0.0844222 0.499019 0.10394
C_ C_ 0.676356 0.0877127 0.799666 0.18167
C_ C_ 0.720272 0.0677483 0.777752 -0.15533
C_ C_ 0.730605 0.0144843 0.769455 0.02923
C_ C_ 0.693126 0.482442 0.780839 -0.15533
C_ C_ 0.653704 0.00558384 0.808932 0.18167
C_ C_ 0.546434 0.142423 0.761635 0.18167
C_ C_ 0.00956002 0.183057 0.747121 -0.15533
C_ C_ 0.515353 0.231323 0.76369 0.02923
C_ C_ 0.528353 0.233573 0.815554 -0.15533
C_ C_ 0.553361 0.192697 0.838666 0.18167
C_ C_ 0.500611 0.052071 0.866018 0.69207
C_ C_ 0.979042 0.505998 0.879707 0.02923
C_ C_ 0.997107 0.454409 0.873478 -0.15533
C_ C_ 0.964596 0.416805 0.87986 -0.15533
C_ C_ 0.915805 0.429905 0.89523 0.02923
C_ C_ 0.899737 0.482569 0.902006 -0.15533
C_ C_ 0.930173 0.520366 0.891166 0.02923
C_ C_ 0.89878 0.0733573 0.886452 0.69207
C_ C_ 0.899871 0.332579 0.886301 0.69661
C_ C_ 0.572661 0.297672 0.586045 0.18167
C_ C_ 0.525734 0.274873 0.569183 -0.15533
C_ C_ 0.514023 0.264813 0.517102 0.02923
C_ C_ 0.545683 0.288805 0.99356 -0.15533
C_ C_ 0.594403 0.296885 0.502774 0.18167
C_ C_ 0.727701 0.26807 0.630555 0.18167
C_ C_ 0.753836 0.240114 0.66859 -0.15533
C_ C_ 0.748487 0.258061 0.71884 0.02923
C_ C_ 0.725146 0.30733 0.728956 -0.15533
C_ C_ 0.697423 0.33322 0.689254 0.18167
C_ C_ 0.744432 0.361457 0.54092 0.69207
C_ C_ 0.777638 0.38524 1.0071906 0.02923
C_ C_ 0.759246 0.385228 0.956723 -0.15533
C_ C_ 0.789762 0.39115 0.917667 -0.15533
C_ C_ 0.842374 0.393732 0.929803 0.02923
C_ C_ 0.862796 0.394841 0.981007 -0.15533
C_ C_ 0.830288 0.390757 0.0192809 0.02923
C_ C_ 0.851479 0.388294 0.568407 0.69207
C_ C_ 0.853709 0.394972 0.831958 0.69661
C_ C_ 0.806355 0.423607 0.676834 0.18167
C_ C_ 0.76386 0.453431 0.694981 -0.15533
C_ C_ 0.769434 0.494985 0.731129 0.02923
C_ C_ 0.82437 0.010985 0.757964 -0.15533
C_ C_ 0.860115 0.486542 0.715155 0.18167
C_ C_ 0.989701 0.35865 0.70504 0.18167
C_ C_ 0.517834 0.314862 0.723422 -0.15533
C_ C_ 0.988461 0.275931 0.742715 0.02923
C_ C_ 0.938462 0.275088 0.722407 -0.15533
C_ C_ 0.912754 0.316661 0.695801 0.18167
C_ C_ 0.984528 0.450473 0.621277 0.69207
C_ C_ 0.520426 0.99544 0.614177 0.02923
C_ C_ 0.502555 0.0468094 0.612721 -0.15533
C_ C_ 0.535202 0.0829646 0.604366 -0.15533
C_ C_ 0.585914 0.0694078 0.596223 0.02923
C_ C_ 0.602504 0.017414 0.593207 -0.15533
C_ C_ 0.570898 0.97885 0.602563 0.02923
C_ C_ 0.600955 0.423059 0.600255 0.69207
C_ C_ 0.604422 0.165968 0.598849 0.69661
C_ C_ 0.944827 0.178258 0.934066 0.18167
C_ C_ 0.986547 0.199797 0.962781 -0.15533
C_ C_ 0.97759 0.239652 0.000280000000000058 0.02923
C_ C_ 0.923264 0.251563 0.516981 -0.15533
C_ C_ 0.888319 0.229757 0.980835 0.18167
C_ C_ 0.761664 0.199676 0.846166 0.18167
C_ C_ 0.739533 0.220511 0.801599 -0.15533
C_ C_ 0.770301 0.227257 0.761295 0.02923
C_ C_ 0.822304 0.212079 0.768589 -0.15533
C_ C_ 0.84511 0.19604 0.816939 0.18167
C_ C_ 0.762848 0.132169 0.954232 0.69207
C_ C_ 0.724636 0.112952 0.481323 0.02923
C_ C_ 0.743701 0.117329 0.534307 -0.15533
C_ C_ 0.715042 0.102038 0.570824 -0.15533
C_ C_ 0.661322 0.101714 0.560223 0.02923
C_ C_ 0.644902 0.0940946 0.508304 -0.15533
C_ C_ 0.674785 0.102096 0.468196 0.02923
C_ C_ 0.652972 0.115625 0.925968 0.69207
C_ C_ 0.652829 0.106306 0.657305 0.69661
C_ C_ 0.876961 0.389518 0.886611 -0.30787
C_ C_ 0.625753 0.110598 0.603419 -0.30787
N_ N_ 0.642846 0.0557347 0.81221 -0.32189
N_ N_ 0.560931 0.147542 0.8118 -0.32189
N_ N_ 0.606034 0.306853 0.553349 -0.32189
N_ N_ 0.696896 0.31174 0.641079 -0.32189
N_ N_ 0.853192 0.441727 0.687484 -0.32189
N_ N_ 0.94028 0.356107 0.684635 -0.32189
N_ N_ 0.896042 0.189896 0.946338 -0.32189
N_ N_ 0.814109 0.187063 0.852731 -0.32189
O_ O_ 0.0054174 0.0876973 0.899823 -0.63271
O_ O_ 0.543469 0.0397834 0.845642 -0.57982
O_ O_ 0.903913 0.101073 0.849269 -0.63271
O_ O_ 0.86482 0.0890988 0.915931 -0.57982
O_ O_ 0.747793 0.388695 0.584329 -0.63271
O_ O_ 0.704063 0.337672 0.528621 -0.57982
O_ O_ 0.853313 0.346782 0.594718 -0.63271
O_ O_ 0.871375 0.429251 0.588736 -0.57982
O_ O_ 0.490526 0.407331 0.593703 -0.63271
O_ O_ 0.950463 0.459259 0.65479 -0.57982
O_ O_ 0.601612 0.39697 0.642313 -0.63271
O_ O_ 0.634902 0.405736 0.568939 -0.57982
O_ O_ 0.761955 0.105001 0.911316 -0.63271
O_ O_ 0.797206 0.164505 0.96309 -0.57982
O_ O_ 0.662485 0.15231 0.897283 -0.63271
O_ O_ 0.614563 0.0879846 0.910514 -0.57982
F_ F_ 0.933874 0.321461 0.928114 -0.20885
F_ F_ 0.926896 0.316397 0.845212 -0.20885
F_ F_ 0.862022 0.301516 0.885264 -0.20885
F_ F_ 0.826682 0.443179 0.826419 -0.20885
F_ F_ 0.82192 0.3572 0.816514 -0.20885
F_ F_ 0.891626 0.394895 0.796639 -0.20885
F_ F_ 0.569503 0.169234 0.55751 -0.20885
F_ F_ 0.578825 0.185105 0.637739 -0.20885
F_ F_ 0.639064 0.199289 0.590548 -0.20885
F_ F_ 0.686934 0.0659427 0.662307 -0.20885
F_ F_ 0.680798 0.147354 0.671803 -0.20885
F_ F_ 0.622356 0.10468 0.694419 -0.20885
Zn Zn 0.579272 0.587095 0.344558 0.83971
Zn Zn 0.661697 0.8445 0.0846493 0.83971
Zn Zn 0.916097 0.917014 0.155484 0.83971
Zn Zn 0.835553 0.659842 0.411026 0.83971
H_ H_ 0.660914 0.637565 0.303575 0.10394
H_ H_ 0.74269 0.60454 0.275504 0.10394
H_ H_ 0.709574 0.95086 0.276273 0.10394
H_ H_ 0.622968 0.486166 0.316366 0.10394
H_ H_ 0.0111039 0.600166 0.259831 0.10394
H_ H_ 0.981741 0.675405 0.209542 0.10394
H_ H_ 0.517287 0.77408 0.343935 0.10394
H_ H_ 0.555295 0.69541 0.386611 0.10394
H_ H_ 0.535452 0.945687 0.369051 0.10394
H_ H_ 0.978291 0.881387 0.374551 0.10394
H_ H_ 0.857492 0.988186 0.421577 0.10394
H_ H_ 0.57971 0.808403 0.131155 0.10394
H_ H_ 1.00073804 0.780463 0.0931856 0.10394
H_ H_ 0.536346 0.789015 0.451662 0.10394
H_ H_ 0.607461 0.836697 0.978052 0.10394
H_ H_ 0.717395 0.744607 0.0975879 0.10394
H_ H_ 0.747165 0.695944 0.177295 0.10394
H_ H_ 0.714769 0.832362 0.265917 0.10394
H_ H_ 0.683665 0.880035 0.191311 0.10394
H_ H_ 0.719532 0.851354 0.446788 0.10394
H_ H_ 0.770885 0.866263 0.377173 0.10394
H_ H_ 0.885332 0.91718 0.485542 0.10394
H_ H_ 0.812638 0.905589 0.153435 0.10394
H_ H_ 0.737181 0.956507 0.190685 0.10394
H_ H_ 0.828649 0.545279 0.280316 0.10394
H_ H_ 0.908272 1.010204 0.228537 0.10394
H_ H_ 0.513882 0.884099 0.185663 0.10394
H_ H_ 0.550237 0.814333 0.24222 0.10394
H_ H_ 0.908307 0.750984 0.233513 0.10394
H_ H_ 0.872341 0.82972 0.194045 0.10394
H_ H_ 0.96227 0.555337 0.132773 0.10394
H_ H_ 0.5132 0.620017 0.110324 0.10394
H_ H_ 0.639078 0.50376 0.0922857 0.10394
H_ H_ 0.938292 0.669041 0.392649 0.10394
H_ H_ 0.514701 0.689761 0.45194 0.10394
H_ H_ 0.917857 0.777699 0.0497724 0.10394
H_ H_ 0.840475 0.735855 0.504176 0.10394
H_ H_ 0.732792 0.703766 0.385317 0.10394
H_ H_ 0.69068 0.734892 0.307583 0.10394
H_ H_ 0.831423 0.724625 0.243335 0.10394
H_ H_ 0.875025 0.69071 0.321938 0.10394
H_ H_ 0.788391 0.60428 0.0617349 0.10394
H_ H_ 0.728798 0.596492 0.126752 0.10394
H_ H_ 0.603449 0.60175 0.00596367 0.10394
C_ C_ 0.669954 0.596414 0.300907 0.18167
C_ C_ 0.715008 0.577315 0.278424 -0.15533
C_ C_ 0.726102 0.526169 0.268627 0.02923
C_ C_ 0.701167 0.990954 0.280449 -0.15533
C_ C_ 0.647933 0.512609 0.304612 0.18167
C_ C_ 0.522965 0.644697 0.267725 0.18167
C_ C_ -0.0031160000000000077 0.679208 0.248357 -0.15533
C_ C_ 0.509443 0.738253 0.270795 0.02923
C_ C_ 0.526826 0.739167 0.322417 -0.15533
C_ C_ 0.54399 0.693184 0.344502 0.18167
C_ C_ 0.504065 0.541442 0.366637 0.69207
C_ C_ 0.973861 0.00975636 0.382748 0.02923
C_ C_ -0.009996000000000005 0.958118 0.368059 -0.15533
C_ C_ 0.959894 0.918295 0.376143 -0.15533
C_ C_ 0.91121 0.928267 0.393854 0.02923
C_ C_ 0.894007 0.981032 0.405093 -0.15533
C_ C_ 0.922154 0.0214607 0.395019 0.02923
C_ C_ 0.894442 0.572694 0.382314 0.69207
C_ C_ 0.89511 0.833776 0.383598 0.69661
C_ C_ 0.571812 0.802746 0.0896668 0.18167
C_ C_ 0.529392 0.778067 0.0708509 -0.15533
C_ C_ 0.517286 0.770779 0.0186704 0.02923
C_ C_ 0.542474 0.791128 0.492489 -0.15533
C_ C_ 0.587932 0.817219 0.00604585 0.18167
C_ C_ 0.719053 0.765449 0.135866 0.18167
C_ C_ 0.737746 0.736946 0.179354 -0.15533
C_ C_ 0.73507 0.761499 0.225665 0.02923
C_ C_ 0.712969 0.813055 0.229516 -0.15533
C_ C_ 0.700864 0.840649 0.186727 0.18167
C_ C_ 0.742481 0.86423 0.0439367 0.69207
C_ C_ 0.777066 0.870853 0.508754 0.02923
C_ C_ 0.757681 0.863073 0.455771 -0.15533
C_ C_ 0.785175 0.871957 0.415941 -0.15533
C_ C_ 0.834896 0.889113 0.427105 0.02923
C_ C_ 0.853957 0.894732 0.478807 -0.15533
C_ C_ 0.827043 0.88796 0.520658 0.02923
C_ C_ 0.854028 0.88727 0.0696148 0.69207
C_ C_ 0.844906 0.893886 0.328693 0.69661
C_ C_ 0.816074 0.94021 0.179726 0.18167
C_ C_ 0.774876 0.964737 0.203403 -0.15533
C_ C_ 0.781788 1.00378112 0.242031 0.02923
C_ C_ 0.821763 0.512469 0.25552 -0.15533
C_ C_ 0.87274 0.994499 0.225092 0.18167
C_ C_ 0.994774 0.84772 0.192826 0.18167
C_ C_ 0.512175 0.813753 0.2242 -0.15533
C_ C_ 0.98409 0.770634 0.237079 0.02923
C_ C_ 0.931985 0.775898 0.219669 -0.15533
C_ C_ 0.911153 0.819429 0.195905 0.18167
C_ C_ 0.988928 0.955548 0.122613 0.69207
C_ C_ 0.518736 0.495155 0.125064 0.02923
C_ C_ 0.501377 0.546147 0.121531 -0.15533
C_ C_ 0.532919 0.581951 0.113579 -0.15533
C_ C_ 0.584176 0.568158 0.103416 0.02923
C_ C_ 0.602956 0.516372 0.1054 -0.15533
C_ C_ 0.568703 0.481582 0.113504 0.02923
C_ C_ 0.602749 0.927646 0.115138 0.69207
C_ C_ 0.597902 0.668761 0.105602 0.69661
C_ C_ 0.932192 0.69117 0.425991 0.18167
C_ C_ 0.974329 0.710961 0.452656 -0.15533
C_ C_ 0.967036 0.742589 0.496666 0.02923
C_ C_ 0.924092 0.755177 1.0131705 -0.15533
C_ C_ 0.877776 0.728527 0.487574 0.18167
C_ C_ 0.756253 0.706113 0.354699 0.18167
C_ C_ 0.732665 0.72663 0.310968 -0.15533
C_ C_ 0.760138 0.734838 0.270638 0.02923
C_ C_ 0.8112 0.721865 0.274506 -0.15533
C_ C_ 0.83411 0.698737 0.317738 0.18167
C_ C_ 0.758726 0.623629 0.446261 0.69207
C_ C_ 0.731494 0.596343 0.996269 0.02923
C_ C_ 0.748751 0.600118 0.0493747 -0.15533
C_ C_ 0.71316 0.59799 0.0854311 -0.15533
C_ C_ 0.660391 0.601026 0.0693662 0.02923
C_ C_ 0.643414 0.598272 0.0176302 -0.15533
C_ C_ 0.679251 0.595718 0.9805 0.02923
C_ C_ 0.650334 0.609827 0.423382 0.69207
C_ C_ 0.644392 0.610212 0.169476 0.69661
C_ C_ 0.872082 0.887439 0.384973 -0.30787
C_ C_ 0.622381 0.610927 0.109808 -0.30787
N_ N_ 0.633891 0.563697 0.308069 -0.32189
N_ N_ 0.545019 0.647783 0.316074 -0.32189
N_ N_ 0.600673 0.822129 0.0575965 -0.32189
N_ N_ 0.695604 0.814311 0.140488 -0.32189
N_ N_ 0.862883 0.953444 0.193618 -0.32189
N_ N_ 0.942912 0.85344 0.181241 -0.32189
N_ N_ 0.884198 0.702719 0.440683 -0.32189
N_ N_ 0.806867 0.689309 0.355031 -0.32189
O_ O_ 0.00494626 0.591183 0.399797 -0.63271
O_ O_ 0.535027 0.535796 0.333009 -0.57982
O_ O_ 0.897862 0.59277 0.339146 -0.63271
O_ O_ 0.863862 0.597303 0.415866 -0.57982
O_ O_ 0.74883 0.887779 0.0880711 -0.63271
O_ O_ 0.702358 0.840482 0.0306924 -0.57982
O_ O_ 0.859955 0.845815 0.0947732 -0.63271
O_ O_ 0.881404 0.925129 0.0896892 -0.57982
O_ O_ 0.4991 0.910703 0.0971263 -0.63271
O_ O_ 0.964611 0.960247 0.163363 -0.57982
O_ O_ 0.596866 0.900047 0.153582 -0.63271
O_ O_ 0.640507 0.912112 0.0892879 -0.57982
O_ O_ 0.75191 0.599917 0.401184 -0.63271
O_ O_ 0.7903 0.658946 0.455039 -0.57982
O_ O_ 0.649423 0.651587 0.398733 -0.63271
O_ O_ 0.615325 0.58009 0.4065 -0.57982
F_ F_ 0.930024 0.828982 0.426226 -0.20885
F_ F_ 0.925056 0.815951 0.343106 -0.20885
F_ F_ 0.860294 0.797429 0.386219 -0.20885
F_ F_ 0.813504 0.937737 0.32976 -0.20885
F_ F_ 0.81438 0.855016 0.30916 -0.20885
F_ F_ 0.879427 0.897039 0.293904 -0.20885
F_ F_ 0.563454 0.67406 0.0634641 -0.20885
F_ F_ 0.57744 0.691144 0.149648 -0.20885
F_ F_ 0.634843 0.69878 0.0957718 -0.20885
F_ F_ 0.67302 0.563357 0.171661 -0.20885
F_ F_ 0.672401 0.649109 0.189439 -0.20885
F_ F_ 0.606407 0.614758 0.201447 -0.20885
Zn Zn 0.591378 0.580972 0.851837 0.83971
Zn Zn 0.660276 0.84106 0.585864 0.83971
Zn Zn 0.911089 0.918948 0.658223 0.83971
Zn Zn 0.840559 0.655366 0.920209 0.83971
H_ H_ 0.6623 0.627009 0.796908 0.10394
H_ H_ 0.738316 0.593289 0.754653 0.10394
H_ H_ 0.705622 0.940577 0.785606 0.10394
H_ H_ 0.627986 0.476034 0.820873 0.10394
H_ H_ 0.0266179 0.600287 0.750735 0.10394
H_ H_ 0.986796 0.669332 0.706255 0.10394
H_ H_ 0.545325 0.767687 0.829377 0.10394
H_ H_ 0.585019 0.693214 0.87775 0.10394
H_ H_ 0.526917 0.950507 0.850568 0.10394
H_ H_ 0.978081 0.878204 0.859581 0.10394
H_ H_ 0.854535 0.988731 0.898372 0.10394
H_ H_ 0.576004 0.805708 0.635515 0.10394
H_ H_ 0.00277255 0.75807 0.599503 0.10394
H_ H_ 0.537095 0.787022 0.946032 0.10394
H_ H_ 0.614261 0.822143 0.486198 0.10394
H_ H_ 0.714051 0.746383 0.592092 0.10394
H_ H_ 0.767217 0.703909 0.666188 0.10394
H_ H_ 0.703358 0.818739 0.772104 0.10394
H_ H_ 0.669324 0.868152 0.698307 0.10394
H_ H_ 0.715599 0.873943 0.941856 0.10394
H_ H_ 0.769177 0.875179 0.874599 0.10394
H_ H_ 0.897086 0.906886 0.98405 0.10394
H_ H_ 0.811835 0.89493 0.659074 0.10394
H_ H_ 0.737636 0.93701 0.69446 0.10394
H_ H_ 0.823034 0.54753 0.762914 0.10394
H_ H_ 0.903157 1.000150883 0.748643 0.10394
H_ H_ 0.519215 0.889224 0.700849 0.10394
H_ H_ 0.564997 0.811225 0.742216 0.10394
H_ H_ 0.916245 0.756235 0.739266 0.10394
H_ H_ 0.872919 0.826793 0.692544 0.10394
H_ H_ 0.956852 0.549735 0.598589 0.10394
H_ H_ 0.517124 0.618781 0.608683 0.10394
H_ H_ 0.64496 0.508602 0.605036 0.10394
H_ H_ 0.93893 0.666102 0.896133 0.10394
H_ H_ 0.513656 0.698093 0.942018 0.10394
H_ H_ 0.916771 0.769906 0.55304 0.10394
H_ H_ 0.844593 0.738541 1.00111917 0.10394
H_ H_ 0.734033 0.681298 0.880454 0.10394
H_ H_ 0.694872 0.735086 0.807317 0.10394
H_ H_ 0.83474 0.72415 0.746826 0.10394
H_ H_ 0.877657 0.697357 0.832302 0.10394
H_ H_ 0.779216 0.634903 0.546469 0.10394
H_ H_ 0.732299 0.613599 0.615355 0.10394
H_ H_ 0.612038 0.579267 0.498863 0.10394
C_ C_ 0.675608 0.586968 0.798062 0.18167
C_ C_ 0.715654 0.568909 0.771629 -0.15533
C_ C_ 0.727387 0.514844 0.763179 0.02923
C_ C_ 0.69756 0.983929 0.786506 -0.15533
C_ C_ 0.654054 0.500219 0.808224 0.18167
C_ C_ 0.538729 0.634284 0.7704 0.18167
C_ C_ 0.00859176 0.677661 0.741811 -0.15533
C_ C_ 0.518726 0.726409 0.766539 0.02923
C_ C_ 0.545687 0.731103 0.813213 -0.15533
C_ C_ 0.565526 0.686967 0.839603 0.18167
C_ C_ 0.509404 0.547297 0.868675 0.69207
C_ C_ 0.97366 0.00636934 0.878305 0.02923
C_ C_ -0.009322000000000052 0.953474 0.866457 -0.15533
C_ C_ 0.959364 0.916065 0.86596 -0.15533
C_ C_ 0.908753 0.927028 0.88149 0.02923
C_ C_ 0.893801 0.978944 0.893733 -0.15533
C_ C_ 0.922804 0.018768 0.887321 0.02923
C_ C_ 0.90747 0.574956 0.889246 0.69207
C_ C_ 0.904796 0.828559 0.889774 0.69661
C_ C_ 0.570499 0.796239 0.596259 0.18167
C_ C_ 0.524253 0.775919 0.574446 -0.15533
C_ C_ 0.509569 0.772842 0.522138 0.02923
C_ C_ 0.548644 0.789255 0.986922 -0.15533
C_ C_ 0.588868 0.807676 0.512464 0.18167
C_ C_ 0.717146 0.763054 0.631848 0.18167
C_ C_ 0.744103 0.738231 0.672647 -0.15533
C_ C_ 0.738414 0.756042 0.725896 0.02923
C_ C_ 0.706502 0.802331 0.735405 -0.15533
C_ C_ 0.686535 0.828704 0.691683 0.18167
C_ C_ 0.740574 0.86885 0.547686 0.69207
C_ C_ 0.777411 0.87424 1.00286809 0.02923
C_ C_ 0.756043 0.87774 0.952411 -0.15533
C_ C_ 0.785073 0.881172 0.914383 -0.15533
C_ C_ 0.836807 0.891529 0.923193 0.02923
C_ C_ 0.856777 0.898105 0.974816 -0.15533
C_ C_ 0.829764 0.886318 0.0167762 0.02923
C_ C_ 0.857958 0.884066 0.572215 0.69207
C_ C_ 0.845963 0.884037 0.825503 0.69661
C_ C_ 0.815362 0.931866 0.683982 0.18167
C_ C_ 0.772611 0.951798 0.70593 -0.15533
C_ C_ 0.776344 -0.008257999999999988 0.744671 0.02923
C_ C_ 0.817526 0.513978 0.73736 -0.15533
C_ C_ 0.866266 0.989557 0.732583 0.18167
C_ C_ 0.9921 0.855087 0.698528 0.18167
C_ C_ 0.523204 0.813976 0.73116 -0.15533
C_ C_ 0.99135 0.771926 0.730569 0.02923
C_ C_ 0.938467 0.779644 0.720639 -0.15533
C_ C_ 0.915087 0.822081 0.699037 0.18167
C_ C_ 0.986964 0.955617 0.625632 0.69207
C_ C_ 0.523111 0.490177 0.608733 0.02923
C_ C_ 0.501163 0.541475 0.605389 -0.15533
C_ C_ 0.533918 0.57916 0.602556 -0.15533
C_ C_ 0.586478 0.568551 0.598813 0.02923
C_ C_ 0.604882 0.517432 0.596589 -0.15533
C_ C_ 0.576 0.476243 0.602308 0.02923
C_ C_ 0.596346 0.926918 0.606966 0.69207
C_ C_ 0.597362 0.663712 0.591913 0.69661
C_ C_ 0.934105 0.691754 0.92863 0.18167
C_ C_ 0.979155 0.70911 0.954213 -0.15533
C_ C_ 0.973597 0.740994 0.997565 0.02923
C_ C_ 0.918779 0.75207 0.514703 -0.15533
C_ C_ 0.882186 0.734233 0.986889 0.18167
C_ C_ 0.755998 0.692249 0.850402 0.18167
C_ C_ 0.733973 0.7218 0.809888 -0.15533
C_ C_ 0.762164 0.724377 0.767703 0.02923
C_ C_ 0.813958 0.712087 0.775371 -0.15533
C_ C_ 0.838052 0.695039 0.822688 0.18167
C_ C_ 0.770237 0.605162 0.960191 0.69207
C_ C_ 0.724755 0.62032 0.485812 0.02923
C_ C_ 0.742091 0.624491 0.539172 -0.15533
C_ C_ 0.713262 0.612303 0.577247 -0.15533
C_ C_ 0.66369 0.599116 0.564484 0.02923
C_ C_ 0.647597 0.590745 0.512159 -0.15533
C_ C_ 0.677279 0.603178 0.473735 0.02923
C_ C_ 0.660722 0.591564 0.926185 0.69207
C_ C_ 0.648182 0.610464 0.660777 0.69661
C_ C_ 0.874748 0.883039 0.88024 -0.30787
C_ C_ 0.624343 0.610212 0.603536 -0.30787
N_ N_ 0.643258 0.553584 0.814755 -0.32189
N_ N_ 0.561873 0.641184 0.818426 -0.32189
N_ N_ 0.60429 0.808211 0.56287 -0.32189
N_ N_ 0.690428 0.809299 0.643432 -0.32189
N_ N_ 0.861108 0.948828 0.700142 -0.32189
N_ N_ 0.942018 0.859233 0.685024 -0.32189
N_ N_ 0.887611 0.700853 0.945756 -0.32189
N_ N_ 0.807439 0.684555 0.858974 -0.32189
O_ O_ 1.00875193 0.590528 0.894681 -0.63271
O_ O_ 0.549302 0.531237 0.842632 -0.57982
O_ O_ 0.899719 0.594619 0.843017 -0.63271
O_ O_ 0.881905 0.597721 0.924695 -0.57982
O_ O_ 0.741389 0.900531 0.586607 -0.63271
O_ O_ 0.706733 0.836579 0.541536 -0.57982
O_ O_ 0.858765 0.843322 0.598567 -0.63271
O_ O_ 0.877287 0.925881 0.594517 -0.57982
O_ O_ 0.482583 0.914116 0.593806 -0.63271
O_ O_ 0.957969 0.96246 0.661 -0.57982
O_ O_ 0.594315 0.903504 0.647447 -0.63271
O_ O_ 0.625682 0.904734 0.572858 -0.57982
O_ O_ 0.764608 0.59168 0.911429 -0.63271
O_ O_ 0.797883 0.642907 0.97048 -0.57982
O_ O_ 0.667109 0.628275 0.897943 -0.63271
O_ O_ 0.618236 0.569213 0.914762 -0.57982
F_ F_ 0.949491 0.827031 0.924121 -0.20885
F_ F_ 0.925671 0.812128 0.845311 -0.20885
F_ F_ 0.87475 0.787493 0.891631 -0.20885
F_ F_ 0.809827 0.925961 0.822827 -0.20885
F_ F_ 0.820585 0.841998 0.808924 -0.20885
F_ F_ 0.879181 0.892057 0.788808 -0.20885
F_ F_ 0.561955 0.663735 0.549498 -0.20885
F_ F_ 0.570674 0.687498 0.631846 -0.20885
F_ F_ 0.634537 0.695282 0.585249 -0.20885
F_ F_ 0.68133 0.566512 0.666607 -0.20885
F_ F_ 0.679413 0.651563 0.675184 -0.20885
F_ F_ 0.612642 0.611055 0.69787 -0.20885
