_cell_length_a 26.508
_cell_length_b 26.37200000322088
_cell_length_c 26.311999743092066
_cell_angle_alpha 93.74100058972084
_cell_angle_beta 96.04100104955006
_cell_angle_gamma 83.6869992558723
_symmetry_space_group_name_H-M         'P 1'
_symmetry_Int_Tables_number            1
loop_
_symmetry_equiv_pos_as_xyz
   'x, y, z'
                         
loop_
_atom_site_label
_atom_site_type_symbol
_atom_site_fract_x 
_atom_site_fract_y
_atom_site_fract_z
_atom_site_charge
Zn Zn 0.0875349 0.0880565 0.352344 0.83971
Zn Zn 0.156036 0.345434 0.0811767 0.83971
Zn Zn 0.416076 0.413631 0.159476 0.83971
Zn Zn 0.344319 0.153201 0.410631 0.83971
H_ H_ 0.169839 0.133307 0.311018 0.10394
H_ H_ 0.243915 0.102377 0.265906 0.10394
H_ H_ 0.223309 0.437458 0.294305 0.10394
H_ H_ 0.135834 0.98431 0.329654 0.10394
H_ H_ 0.530524 0.0857569 0.255312 0.10394
H_ H_ 0.483348 0.1627 0.211174 0.10394
H_ H_ 0.0513288 0.27163 0.320208 0.10394
H_ H_ 0.0793265 0.203227 0.373422 0.10394
H_ H_ 0.0363075 0.438903 0.390731 0.10394
H_ H_ 0.487673 0.37019 0.369043 0.10394
H_ H_ 0.355541 0.478186 0.395041 0.10394
H_ H_ 0.0768896 0.30872 0.121476 0.10394
H_ H_ 0.493183 0.283277 0.0838804 0.10394
H_ H_ 0.0433431 0.282562 0.446515 0.10394
H_ H_ 0.119081 0.318127 0.976719 0.10394
H_ H_ 0.219979 0.247391 0.0917907 0.10394
H_ H_ 0.261682 0.204993 0.160816 0.10394
H_ H_ 0.201515 0.323349 0.264987 0.10394
H_ H_ 0.17558 0.376475 0.189864 0.10394
H_ H_ 0.21868 0.362685 0.43621 0.10394
H_ H_ 0.279344 0.357206 0.3715 0.10394
H_ H_ 0.397749 0.403151 0.490299 0.10394
H_ H_ 0.312857 0.38984 0.160414 0.10394
H_ H_ 0.235269 0.440729 0.186986 0.10394
H_ H_ 0.328401 0.0522157 0.260601 0.10394
H_ H_ 0.400551 0.505459 0.224778 0.10394
H_ H_ 0.0217484 0.388099 0.198066 0.10394
H_ H_ 0.0641044 0.308156 0.227574 0.10394
H_ H_ 0.411997 0.242851 0.224804 0.10394
H_ H_ 0.375224 0.323137 0.191092 0.10394
H_ H_ 0.464177 0.0501424 0.12998 0.10394
H_ H_ 0.0170131 0.115561 0.113163 0.10394
H_ H_ 0.140337 0.00869491 0.0908649 0.10394
H_ H_ 0.443569 0.162756 0.389202 0.10394
H_ H_ 0.0177739 0.200598 0.440862 0.10394
H_ H_ 0.417222 0.280459 0.0413915 0.10394
H_ H_ 0.359265 0.21516 0.511821 0.10394
H_ H_ 0.238417 0.202204 0.388737 0.10394
H_ H_ 0.190943 0.243726 0.310805 0.10394
H_ H_ 0.327507 0.208587 0.233423 0.10394
H_ H_ 0.372745 0.172244 0.313426 0.10394
H_ H_ 0.277912 0.126108 0.0541886 0.10394
H_ H_ 0.224712 0.105315 0.115819 0.10394
H_ H_ 0.10122 0.0988169 0.00380826 0.10394
C_ C_ 0.178921 0.0924499 0.305641 0.18167
C_ C_ 0.220564 0.0725716 0.278722 -0.15533
C_ C_ 0.230666 0.0191202 0.266997 0.02923
C_ C_ 0.20778 0.47741 0.292438 -0.15533
C_ C_ 0.15935 0.00894791 0.313211 0.18167
C_ C_ 0.0306928 0.136607 0.2703 0.18167
C_ C_ 0.505878 0.167338 0.24597 -0.15533
C_ C_ 0.0162856 0.227438 0.259066 0.02923
C_ C_ 0.0451193 0.234747 0.305412 -0.15533
C_ C_ 0.0631277 0.192914 0.334633 0.18167
C_ C_ 0.0139946 0.045157 0.376992 0.69207
C_ C_ 0.477798 0.501568 0.378276 0.02923
C_ C_ 0.499718 0.449443 0.375988 -0.15533
C_ C_ 0.470413 0.409528 0.382524 -0.15533
C_ C_ 0.418809 0.418976 0.387654 0.02923
C_ C_ 0.395827 0.471671 0.384946 -0.15533
C_ C_ 0.425137 0.512909 0.38327 0.02923
C_ C_ 0.397412 0.0668673 0.38573 0.69207
C_ C_ 0.413962 0.31885 0.389619 0.69661
C_ C_ 0.0699213 0.299388 0.0817051 0.18167
C_ C_ 0.0248333 0.279786 0.0610916 -0.15533
C_ C_ 0.0189346 0.264504 0.00927895 0.02923
C_ C_ 0.0473086 0.289487 0.488559 -0.15533
C_ C_ 0.100348 0.296789 0.00038999999999989043 0.18167
C_ C_ 0.216195 0.265798 0.130165 0.18167
C_ C_ 0.240022 0.239973 0.171413 -0.15533
C_ C_ 0.23109 0.25813 0.220764 0.02923
C_ C_ 0.210237 0.309309 0.228755 -0.15533
C_ C_ 0.192536 0.33692 0.185297 0.18167
C_ C_ 0.246114 0.356138 0.0511436 0.69207
C_ C_ 0.278169 0.366633 0.499243 0.02923
C_ C_ 0.260228 0.364319 0.447651 -0.15533
C_ C_ 0.294236 0.364629 0.410999 -0.15533
C_ C_ 0.343937 0.380105 0.422555 0.02923
C_ C_ 0.361392 0.387745 0.476288 -0.15533
C_ C_ 0.329728 0.376745 0.514662 0.02923
C_ C_ 0.357521 0.380367 0.0762 0.69207
C_ C_ 0.361873 0.374516 0.324593 0.69661
C_ C_ 0.316636 0.423189 0.184933 0.18167
C_ C_ 0.271942 0.451355 0.202627 -0.15533
C_ C_ 0.278404 0.491339 0.239239 0.02923
C_ C_ 0.321991 0.0192781 0.237674 -0.15533
C_ C_ 0.367873 0.483768 0.226278 0.18167
C_ C_ 0.498636 0.343021 0.203265 0.18167
C_ C_ 0.0221439 0.309928 0.216651 -0.15533
C_ C_ 0.487348 0.263501 0.237104 0.02923
C_ C_ 0.43574 0.272474 0.221293 -0.15533
C_ C_ 0.417116 0.318588 0.200255 0.18167
C_ C_ 0.493066 0.451064 0.123664 0.69207
C_ C_ 0.0235834 0.99041 0.125567 0.02923
C_ C_ 0.0052744 0.0421644 0.127678 -0.15533
C_ C_ 0.0329155 0.0780217 0.112609 -0.15533
C_ C_ 0.0826316 0.0673914 0.0999927 0.02923
C_ C_ 0.100534 0.0151567 0.0951993 -0.15533
C_ C_ 0.0731563 0.977297 0.111023 0.02923
C_ C_ 0.0999794 0.426005 0.106819 0.69207
C_ C_ 0.100019 0.163796 0.112467 0.69661
C_ C_ 0.439548 0.181756 0.426673 0.18167
C_ C_ 0.483434 0.198083 0.453395 -0.15533
C_ C_ 0.47953 0.231572 0.497231 0.02923
C_ C_ 0.423413 0.252937 0.00797056 -0.15533
C_ C_ 0.388416 0.221169 0.489636 0.18167
C_ C_ 0.258413 0.207674 0.356885 0.18167
C_ C_ 0.230879 0.224998 0.311981 -0.15533
C_ C_ 0.25512 0.227227 0.266912 0.02923
C_ C_ 0.306124 0.206311 0.267709 -0.15533
C_ C_ 0.332041 0.187152 0.313715 0.18167
C_ C_ 0.262828 0.129185 0.454697 0.69207
C_ C_ 0.219222 0.120377 0.98792 0.02923
C_ C_ 0.236832 0.122562 0.0403732 -0.15533
C_ C_ 0.206743 0.112888 0.0791411 -0.15533
C_ C_ 0.157208 0.100292 0.0668815 0.02923
C_ C_ 0.137738 0.104816 0.0145719 -0.15533
C_ C_ 0.168071 0.111319 0.974972 0.02923
C_ C_ 0.153735 0.110972 0.427502 0.69207
C_ C_ 0.149751 0.0943206 0.163428 0.69661
C_ C_ 0.383454 0.373651 0.381044 -0.30787
C_ C_ 0.121674 0.106687 0.109931 -0.30787
N_ N_ 0.145585 0.0614492 0.317579 -0.32189
N_ N_ 0.0534457 0.14487 0.317226 -0.32189
N_ N_ 0.107207 0.305536 0.050604 -0.32189
N_ N_ 0.190411 0.313134 0.137119 -0.32189
N_ N_ 0.362632 0.441132 0.197219 -0.32189
N_ N_ 0.447524 0.351392 0.188232 -0.32189
N_ N_ 0.394669 0.188972 0.447269 -0.32189
N_ N_ 0.307479 0.187539 0.356267 -0.32189
O_ O_ 0.508356 0.0803779 0.404804 -0.63271
O_ O_ 0.0517643 0.033367 0.3498 -0.57982
O_ O_ 0.389414 0.0865287 0.341172 -0.63271
O_ O_ 0.379079 0.0914753 0.424734 -0.57982
O_ O_ 0.244247 0.387735 0.0939782 -0.63271
O_ O_ 0.205816 0.331762 0.036219 -0.57982
O_ O_ 0.362138 0.335759 0.0981903 -0.63271
O_ O_ 0.381599 0.419055 0.0992466 -0.57982
O_ O_ 0.989757 0.415768 0.100324 -0.63271
O_ O_ 0.46102 0.462629 0.157629 -0.57982
O_ O_ 0.100961 0.402018 0.148079 -0.63271
O_ O_ 0.132443 0.40906 0.0730533 -0.57982
O_ O_ 0.25969 0.102062 0.411679 -0.63271
O_ O_ 0.303162 0.152447 0.464491 -0.57982
O_ O_ 0.152859 0.149407 0.399477 -0.63271
O_ O_ 0.11967 0.0800555 0.415992 -0.57982
F_ F_ 0.443262 0.314255 0.437847 -0.20885
F_ F_ 0.44313 0.303508 0.349088 -0.20885
F_ F_ 0.381125 0.281688 0.38672 -0.20885
F_ F_ 0.322431 0.413199 0.319318 -0.20885
F_ F_ 0.341564 0.330077 0.302845 -0.20885
F_ F_ 0.399748 0.384329 0.295821 -0.20885
F_ F_ 0.0661491 0.172444 0.0689099 -0.20885
F_ F_ 0.0724894 0.180037 0.153096 -0.20885
F_ F_ 0.135803 0.197458 0.111844 -0.20885
F_ F_ 0.177795 0.0484281 0.168854 -0.20885
F_ F_ 0.179172 0.133508 0.18081 -0.20885
F_ F_ 0.12005 0.09433 0.202865 -0.20885
Zn Zn 0.0829485 0.083089 0.840719 0.83971
Zn Zn 0.160057 0.348487 0.58074 0.83971
Zn Zn 0.403766 0.415493 0.649074 0.83971
Zn Zn 0.33564 0.152673 0.910433 0.83971
H_ H_ 0.171987 0.133634 0.805218 0.10394
H_ H_ 0.248416 0.0947569 0.766482 0.10394
H_ H_ 0.195658 0.453158 0.770622 0.10394
H_ H_ 0.115447 0.985407 0.798052 0.10394
H_ H_ 0.529965 0.0953901 0.745899 0.10394
H_ H_ 0.496573 0.16686 0.696515 0.10394
H_ H_ 0.0206161 0.267881 0.832695 0.10394
H_ H_ 0.0675448 0.192646 0.86985 0.10394
H_ H_ 0.031403 0.444728 0.870933 0.10394
H_ H_ 0.482411 0.382752 0.889795 0.10394
H_ H_ 0.351178 0.493255 0.909844 0.10394
H_ H_ 0.0807223 0.313266 0.63305 0.10394
H_ H_ 0.50982 0.257644 0.602596 0.10394
H_ H_ 0.0434004 0.278059 0.93668 0.10394
H_ H_ 0.120198 0.314318 0.481427 0.10394
H_ H_ 0.217729 0.255408 0.594735 0.10394
H_ H_ 0.250365 0.205889 0.6668 0.10394
H_ H_ 0.22866 0.34081 0.76552 0.10394
H_ H_ 0.187351 0.389145 0.688885 0.10394
H_ H_ 0.222466 0.350273 0.948939 0.10394
H_ H_ 0.267668 0.374583 0.885619 0.10394
H_ H_ 0.393413 0.416763 0.993924 0.10394
H_ H_ 0.303924 0.400954 0.657031 0.10394
H_ H_ 0.227656 0.45549 0.681487 0.10394
H_ H_ 0.330303 0.0430675 0.782959 0.10394
H_ H_ 0.40248 0.499567 0.732754 0.10394
H_ H_ 0.00499957 0.380149 0.68419 0.10394
H_ H_ 0.049292 0.302385 0.727763 0.10394
H_ H_ 0.398754 0.270489 0.756898 0.10394
H_ H_ 0.363578 0.338546 0.695555 0.10394
H_ H_ 0.471355 0.0588489 0.636112 0.10394
H_ H_ 0.0200619 0.123981 0.598534 0.10394
H_ H_ 0.146053 0.0129949 0.598287 0.10394
H_ H_ 0.433365 0.163645 0.889498 0.10394
H_ H_ 0.00711919 0.196975 0.922739 0.10394
H_ H_ 0.426635 0.268994 0.545616 0.10394
H_ H_ 0.345256 0.23445 0.0006900000000000794 0.10394
H_ H_ 0.235861 0.20803 0.88785 0.10394
H_ H_ 0.191149 0.255203 0.813676 0.10394
H_ H_ 0.332916 0.226387 0.741874 0.10394
H_ H_ 0.37431 0.183265 0.821412 0.10394
H_ H_ 0.284308 0.134375 0.55467 0.10394
H_ H_ 0.230343 0.1114 0.620654 0.10394
H_ H_ 0.103745 0.103256 0.50577 0.10394
C_ C_ 0.177992 0.0925642 0.79783 0.18167
C_ C_ 0.222254 0.0706029 0.778557 -0.15533
C_ C_ 0.230777 0.0164853 0.767874 0.02923
C_ C_ 0.188504 0.492826 0.775885 -0.15533
C_ C_ 0.146963 0.00927326 0.79946 0.18167
C_ C_ 0.0262443 0.133806 0.760783 0.18167
C_ C_ 0.50392 0.173618 0.736963 -0.15533
C_ C_ 9.1249e-05 0.225686 0.758799 0.02923
C_ C_ 0.0217102 0.232011 0.809646 -0.15533
C_ C_ 0.0463091 0.187679 0.834179 0.18167
C_ C_ -0.006805999999999979 0.0474449 0.863687 0.69207
C_ C_ 0.470106 0.513497 0.874835 0.02923
C_ C_ 0.490615 0.462548 0.878046 -0.15533
C_ C_ 0.462018 0.421235 0.883251 -0.15533
C_ C_ 0.411637 0.433239 0.891137 0.02923
C_ C_ 0.392086 0.484389 0.899414 -0.15533
C_ C_ 0.419281 0.525833 0.886326 0.02923
C_ C_ 0.394572 0.0709491 0.882398 0.69207
C_ C_ 0.403272 0.334103 0.889072 0.69661
C_ C_ 0.0717466 0.304099 0.591962 0.18167
C_ C_ 0.0273243 0.281441 0.57395 -0.15533
C_ C_ 0.0155632 0.271406 0.521125 0.02923
C_ C_ 0.0543153 0.277995 0.977367 -0.15533
C_ C_ 0.0908595 0.310078 0.507445 0.18167
C_ C_ 0.218076 0.274067 0.633101 0.18167
C_ C_ 0.235836 0.246138 0.675028 -0.15533
C_ C_ 0.237544 0.270263 0.723505 0.02923
C_ C_ 0.219265 0.32216 0.727479 -0.15533
C_ C_ 0.197288 0.346308 0.684126 0.18167
C_ C_ 0.240652 0.365143 0.537932 0.69207
C_ C_ 0.280959 0.365849 0.0115661 0.02923
C_ C_ 0.260553 0.365729 0.961283 -0.15533
C_ C_ 0.289435 0.377275 0.922031 -0.15533
C_ C_ 0.338688 0.392113 0.931187 0.02923
C_ C_ 0.357208 0.3991 0.983958 -0.15533
C_ C_ 0.330699 0.382688 0.0230485 0.02923
C_ C_ 0.347113 0.384083 0.568354 0.69207
C_ C_ 0.345279 0.387038 0.83536 0.69661
C_ C_ 0.307908 0.434382 0.680058 0.18167
C_ C_ 0.265746 0.463331 0.697245 -0.15533
C_ C_ 0.270914 0.502117 0.738723 0.02923
C_ C_ 0.324287 0.0130336 0.752924 -0.15533
C_ C_ 0.362968 0.487449 0.727277 0.18167
C_ C_ 0.488084 0.338189 0.682767 0.18167
C_ C_ 0.00809922 0.307755 0.719585 -0.15533
C_ C_ 0.475379 0.265673 0.731913 0.02923
C_ C_ 0.424622 0.284693 0.732926 -0.15533
C_ C_ 0.405594 0.329278 0.706107 0.18167
C_ C_ 0.48438 0.452706 0.622716 0.69207
C_ C_ 0.0229715 0.997256 0.611635 0.02923
C_ C_ 0.00290112 0.047579 0.606097 -0.15533
C_ C_ 0.036042 0.0856212 0.599957 -0.15533
C_ C_ 0.0871259 0.0734341 0.596301 0.02923
C_ C_ 0.106564 0.0221165 0.597159 -0.15533
C_ C_ 0.075445 0.984214 0.604321 0.02923
C_ C_ 0.0945055 0.428773 0.606237 0.69207
C_ C_ 0.0986107 0.171662 0.606707 0.69661
C_ C_ 0.433358 0.186569 0.924668 0.18167
C_ C_ 0.476547 0.208742 0.94679 -0.15533
C_ C_ 0.470757 0.245188 0.987344 0.02923
C_ C_ 0.43211 0.242039 0.516054 -0.15533
C_ C_ 0.382086 0.227774 0.984873 0.18167
C_ C_ 0.257517 0.214753 0.855808 0.18167
C_ C_ 0.233283 0.240015 0.813251 -0.15533
C_ C_ 0.260545 0.243195 0.770401 0.02923
C_ C_ 0.310919 0.218674 0.771122 -0.15533
C_ C_ 0.333251 0.192625 0.815666 0.18167
C_ C_ 0.254966 0.125317 0.947962 0.69207
C_ C_ 0.22751 0.1227 0.494182 0.02923
C_ C_ 0.245154 0.130031 0.54487 -0.15533
C_ C_ 0.215001 0.12065 0.581556 -0.15533
C_ C_ 0.163102 0.111392 0.570016 0.02923
C_ C_ 0.14409 0.108969 0.517365 -0.15533
C_ C_ 0.176288 0.115449 0.480019 0.02923
C_ C_ 0.144629 0.114392 0.923174 0.69207
C_ C_ 0.144589 0.106149 0.664657 0.69661
C_ C_ 0.375139 0.388424 0.88955 -0.30787
C_ C_ 0.124889 0.114668 0.610196 -0.30787
N_ N_ 0.140435 0.062438 0.807753 -0.32189
N_ N_ 0.0477927 0.140855 0.810132 -0.32189
N_ N_ 0.101499 0.317975 0.558725 -0.32189
N_ N_ 0.195789 0.320715 0.637336 -0.32189
N_ N_ 0.355623 0.449938 0.690633 -0.32189
N_ N_ 0.437863 0.356194 0.685376 -0.32189
N_ N_ 0.389113 0.192268 0.946118 -0.32189
N_ N_ 0.306015 0.19239 0.856504 -0.32189
O_ O_ 0.499944 0.0890272 0.887704 -0.63271
O_ O_ 0.0335359 0.0386019 0.837281 -0.57982
O_ O_ 0.387485 0.0933564 0.838856 -0.63271
O_ O_ 0.370096 0.0918887 0.920501 -0.57982
O_ O_ 0.243316 0.39528 0.580424 -0.63271
O_ O_ 0.202925 0.335364 0.53069 -0.57982
O_ O_ 0.345132 0.346952 0.598452 -0.63271
O_ O_ 0.373013 0.421698 0.584746 -0.57982
O_ O_ 0.984308 0.412744 0.596362 -0.63271
O_ O_ 0.447542 0.459317 0.65291 -0.57982
O_ O_ 0.0902985 0.404738 0.64834 -0.63271
O_ O_ 0.134623 0.414079 0.583183 -0.57982
O_ O_ 0.250313 0.102751 0.901869 -0.63271
O_ O_ 0.293439 0.151228 0.959855 -0.57982
O_ O_ 0.148077 0.155464 0.897889 -0.63271
O_ O_ 0.110472 0.0839011 0.905737 -0.57982
F_ F_ 0.438963 0.330126 0.931773 -0.20885
F_ F_ 0.429043 0.322661 0.847133 -0.20885
F_ F_ 0.375731 0.293391 0.890162 -0.20885
F_ F_ 0.305174 0.426709 0.831207 -0.20885
F_ F_ 0.323208 0.342116 0.820542 -0.20885
F_ F_ 0.375185 0.394126 0.796976 -0.20885
F_ F_ 0.0735127 0.182945 0.560435 -0.20885
F_ F_ 0.0650692 0.187679 0.641394 -0.20885
F_ F_ 0.132567 0.208026 0.616373 -0.20885
F_ F_ 0.178347 0.0658764 0.670232 -0.20885
F_ F_ 0.172286 0.143563 0.68928 -0.20885
F_ F_ 0.104804 0.0970887 0.689808 -0.20885
Zn Zn 0.08908 0.576387 0.348527 0.83971
Zn Zn 0.167528 0.851777 0.0877846 0.83971
Zn Zn 0.405888 0.912567 0.1519 0.83971
Zn Zn 0.342142 0.646465 0.413311 0.83971
H_ H_ 0.166596 0.622257 0.297137 0.10394
H_ H_ 0.241756 0.589513 0.254804 0.10394
H_ H_ 0.199257 0.945476 0.275235 0.10394
H_ H_ 0.143633 0.472456 0.333049 0.10394
H_ H_ 0.532583 0.595551 0.247684 0.10394
H_ H_ 0.49639 0.668179 0.199501 0.10394
H_ H_ 0.0424056 0.771427 0.336877 0.10394
H_ H_ 0.0755451 0.689591 0.381285 0.10394
H_ H_ 0.0340385 0.943894 0.375647 0.10394
H_ H_ 0.480602 0.873817 0.373128 0.10394
H_ H_ 0.356887 0.983864 0.404183 0.10394
H_ H_ 0.0931985 0.809362 0.134861 0.10394
H_ H_ 0.495383 0.774737 0.108153 0.10394
H_ H_ 0.0358926 0.7872 0.443809 0.10394
H_ H_ 0.118904 0.832797 0.980658 0.10394
H_ H_ 0.225297 0.75407 0.0955693 0.10394
H_ H_ 0.266601 0.705718 0.169234 0.10394
H_ H_ 0.224052 0.825234 0.277536 0.10394
H_ H_ 0.17859 0.877929 0.202655 0.10394
H_ H_ 0.217878 0.872534 0.44516 0.10394
H_ H_ 0.270522 0.874262 0.373514 0.10394
H_ H_ 0.398394 0.901242 0.483808 0.10394
H_ H_ 0.307287 0.889023 0.168246 0.10394
H_ H_ 0.22924 0.937689 0.19607 0.10394
H_ H_ 0.328364 0.542495 0.27474 0.10394
H_ H_ 0.396868 0.00739049 0.222837 0.10394
H_ H_ 0.0171053 0.893695 0.215314 0.10394
H_ H_ 0.0579142 0.817853 0.260307 0.10394
H_ H_ 0.422524 0.732681 0.199635 0.10394
H_ H_ 0.379068 0.808779 0.16676 0.10394
H_ H_ 0.464108 0.5505 0.101011 0.10394
H_ H_ 0.0226123 0.623165 0.116068 0.10394
H_ H_ 0.144213 0.505799 0.090862 0.10394
H_ H_ 0.446758 0.662003 0.394312 0.10394
H_ H_ 0.0124505 0.686377 0.452537 0.10394
H_ H_ 0.407283 0.773163 0.0546058 0.10394
H_ H_ 0.337175 0.747988 0.482038 0.10394
H_ H_ 0.2387 0.68343 0.378516 0.10394
H_ H_ 0.204214 0.736307 0.310513 0.10394
H_ H_ 0.3461 0.725727 0.248309 0.10394
H_ H_ 0.385365 0.688966 0.326148 0.10394
H_ H_ 0.290657 0.61342 0.0509569 0.10394
H_ H_ 0.23535 0.595607 0.115098 0.10394
H_ H_ 0.107988 0.584176 -0.0009390000000000231 0.10394
C_ C_ 0.176304 0.580545 0.293748 0.18167
C_ C_ 0.218525 0.562147 0.268128 -0.15533
C_ C_ 0.234417 0.510283 0.266822 0.02923
C_ C_ 0.194759 0.988626 0.283272 -0.15533
C_ C_ 0.164461 0.498236 0.316307 0.18167
C_ C_ 0.0437053 0.634899 0.265346 0.18167
C_ C_ 0.5149 0.675501 0.237361 -0.15533
C_ C_ 0.0240045 0.727367 0.264608 0.02923
C_ C_ 0.0425357 0.731495 0.316894 -0.15533
C_ C_ 0.0589602 0.686757 0.342067 0.18167
C_ C_ 0.0118298 0.536563 0.3695 0.69207
C_ C_ 0.471321 0.00301453 0.372853 0.02923
C_ C_ 0.491748 0.950854 0.368575 -0.15533
C_ C_ 0.464256 0.912097 0.379476 -0.15533
C_ C_ 0.414683 0.924537 0.389125 0.02923
C_ C_ 0.39611 0.975425 0.398236 -0.15533
C_ C_ 0.423073 0.0152403 0.388744 0.02923
C_ C_ 0.400812 0.566535 0.382276 0.69207
C_ C_ 0.402063 0.827607 0.376557 0.69661
C_ C_ 0.0844921 0.803379 0.0924326 0.18167
C_ C_ 0.038733 0.779028 0.0751547 -0.15533
C_ C_ 0.0253394 0.773258 0.0220005 0.02923
C_ C_ 0.0421635 0.79126 0.485049 -0.15533
C_ C_ 0.0993645 0.813278 0.00742945 0.18167
C_ C_ 0.222133 0.770292 0.137044 0.18167
C_ C_ 0.24638 0.743055 0.176111 -0.15533
C_ C_ 0.247468 0.763385 0.226527 0.02923
C_ C_ 0.217827 0.811223 0.236565 -0.15533
C_ C_ 0.196995 0.839186 0.194931 0.18167
C_ C_ 0.241666 0.878179 0.0424717 0.69207
C_ C_ 0.276109 0.880996 0.501374 0.02923
C_ C_ 0.258398 0.87073 0.451341 -0.15533
C_ C_ 0.28766 0.877932 0.41184 -0.15533
C_ C_ 0.339527 0.889116 0.422585 0.02923
C_ C_ 0.358599 0.893835 0.47416 -0.15533
C_ C_ 0.328262 0.888745 0.513351 0.02923
C_ C_ 0.354306 0.885649 0.0656338 0.69207
C_ C_ 0.349086 0.894777 0.327663 0.69661
C_ C_ 0.308575 0.929954 0.17987 0.18167
C_ C_ 0.267212 0.954638 0.20371 -0.15533
C_ C_ 0.274967 0.998418 0.236797 0.02923
C_ C_ 0.327201 0.506999 0.252723 -0.15533
C_ C_ 0.361534 0.99179 0.21568 0.18167
C_ C_ 0.490693 0.853055 0.197732 0.18167
C_ C_ 0.0238341 0.815162 0.237039 -0.15533
C_ C_ 0.490508 0.770985 0.230898 0.02923
C_ C_ 0.44055 0.767591 0.20517 -0.15533
C_ C_ 0.417627 0.810417 0.182833 0.18167
C_ C_ 0.487401 0.950776 0.122964 0.69207
C_ C_ 0.0247645 0.4953 0.122824 0.02923
C_ C_ 0.00745431 0.547399 0.124984 -0.15533
C_ C_ 0.038583 0.583654 0.111277 -0.15533
C_ C_ 0.088924 0.569428 0.101539 0.02923
C_ C_ 0.105481 0.518015 0.0965875 -0.15533
C_ C_ 0.0739145 0.481342 0.104932 0.02923
C_ C_ 0.10122 0.927582 0.114146 0.69207
C_ C_ 0.102509 0.664407 0.0959793 0.69661
C_ C_ 0.439375 0.686597 0.425993 0.18167
C_ C_ 0.480335 0.704842 0.45725 -0.15533
C_ C_ 0.469611 0.747343 0.493684 0.02923
C_ C_ 0.41439 0.75317 0.0186255 -0.15533
C_ C_ 0.376763 0.735944 0.474373 0.18167
C_ C_ 0.263522 0.693613 0.350254 0.18167
C_ C_ 0.243242 0.723432 0.311771 -0.15533
C_ C_ 0.270363 0.730481 0.270502 0.02923
C_ C_ 0.322542 0.717186 0.276688 -0.15533
C_ C_ 0.345483 0.690855 0.320397 0.18167
C_ C_ 0.265177 0.615407 0.454032 0.69207
C_ C_ 0.230119 0.617998 0.988936 0.02923
C_ C_ 0.25014 0.613132 0.040638 -0.15533
C_ C_ 0.218723 0.603974 0.0775771 -0.15533
C_ C_ 0.166713 0.598895 0.0620796 0.02923
C_ C_ 0.149163 0.592767 0.00868865 -0.15533
C_ C_ 0.179159 0.604568 0.972588 0.02923
C_ C_ 0.154939 0.602111 0.423359 0.69207
C_ C_ 0.154091 0.609554 0.158527 0.69661
C_ C_ 0.376255 0.883511 0.380878 -0.30787
C_ C_ 0.127811 0.6084 0.100899 -0.30787
N_ N_ 0.143348 0.548524 0.309738 -0.32189
N_ N_ 0.0607736 0.639907 0.316302 -0.32189
N_ N_ 0.11062 0.820572 0.0586773 -0.32189
N_ N_ 0.195724 0.816217 0.146353 -0.32189
N_ N_ 0.355532 0.947403 0.190196 -0.32189
N_ N_ 0.441051 0.851495 0.177084 -0.32189
N_ N_ 0.388686 0.697102 0.439285 -0.32189
N_ N_ 0.314551 0.675514 0.354675 -0.32189
O_ O_ 0.506381 0.584532 0.39771 -0.63271
O_ O_ 0.0483865 0.526108 0.339898 -0.57982
O_ O_ 0.398323 0.593675 0.342203 -0.63271
O_ O_ 0.374529 0.58433 0.419984 -0.57982
O_ O_ 0.251135 0.900535 0.0881126 -0.63271
O_ O_ 0.211009 0.842465 0.0393661 -0.57982
O_ O_ 0.356557 0.843457 0.092627 -0.63271
O_ O_ 0.38116 0.921475 0.0867743 -0.57982
O_ O_ 0.993417 0.907736 0.111371 -0.63271
O_ O_ 0.455606 0.95707 0.159908 -0.57982
O_ O_ 0.102838 0.901336 0.15607 -0.63271
O_ O_ 0.136319 0.913682 0.0849729 -0.57982
O_ O_ 0.262946 0.5869 0.411112 -0.63271
O_ O_ 0.298104 0.649633 0.460682 -0.57982
O_ O_ 0.152602 0.642593 0.395539 -0.63271
O_ O_ 0.123333 0.569586 0.409878 -0.57982
F_ F_ 0.438193 0.820302 0.419059 -0.20885
F_ F_ 0.423745 0.816109 0.328889 -0.20885
F_ F_ 0.366218 0.795575 0.381585 -0.20885
F_ F_ 0.311449 0.936393 0.326103 -0.20885
F_ F_ 0.324301 0.855181 0.305764 -0.20885
F_ F_ 0.385036 0.898555 0.291482 -0.20885
F_ F_ 0.0663161 0.659209 0.0556319 -0.20885
F_ F_ 0.0803215 0.687623 0.137577 -0.20885
F_ F_ 0.134655 0.698708 0.0805856 -0.20885
F_ F_ 0.182882 0.564442 0.16812 -0.20885
F_ F_ 0.184615 0.650289 0.175636 -0.20885
F_ F_ 0.117848 0.616839 0.19257 -0.20885
Zn Zn 0.08522 0.583445 0.843455 0.83971
Zn Zn 0.157736 0.850285 0.580229 0.83971
Zn Zn 0.409713 0.92124 0.652172 0.83971
Zn Zn 0.340669 0.659107 0.91522 0.83971
H_ H_ 0.163675 0.637457 0.801668 0.10394
H_ H_ 0.246785 0.597601 0.77013 0.10394
H_ H_ 0.197594 0.946948 0.767748 0.10394
H_ H_ 0.111009 0.493013 0.784979 0.10394
H_ H_ 0.524234 0.606455 0.757105 0.10394
H_ H_ 0.476798 0.682612 0.719296 0.10394
H_ H_ 0.0469292 0.770661 0.826121 0.10394
H_ H_ 0.0754761 0.694889 0.874539 0.10394
H_ H_ 0.0175378 0.942965 0.841617 0.10394
H_ H_ 0.479503 0.875951 0.872206 0.10394
H_ H_ 0.34973 0.984209 0.902894 0.10394
H_ H_ 0.0707363 0.814037 0.630022 0.10394
H_ H_ 0.498702 0.770258 0.594927 0.10394
H_ H_ 0.0419169 0.794365 0.946943 0.10394
H_ H_ 0.109522 0.827382 0.481228 0.10394
H_ H_ 0.203912 0.751538 0.594448 0.10394
H_ H_ 0.248878 0.702121 0.669331 0.10394
H_ H_ 0.227525 0.842197 0.763467 0.10394
H_ H_ 0.183614 0.887112 0.688258 0.10394
H_ H_ 0.220461 0.866168 0.943256 0.10394
H_ H_ 0.26773 0.886448 0.875157 0.10394
H_ H_ 0.393049 0.913926 0.986149 0.10394
H_ H_ 0.308174 0.904269 0.652613 0.10394
H_ H_ 0.229631 0.955737 0.680163 0.10394
H_ H_ 0.331209 0.546819 0.776712 0.10394
H_ H_ 0.401852 0.00039999999999995595 0.738851 0.10394
H_ H_ 0.0139791 0.891686 0.703726 0.10394
H_ H_ 0.053103 0.818713 0.753351 0.10394
H_ H_ 0.41018 0.763239 0.745051 0.10394
H_ H_ 0.372056 0.836414 0.688702 0.10394
H_ H_ 0.455862 0.550617 0.631893 0.10394
H_ H_ 0.00537814 0.620077 0.59108 0.10394
H_ H_ 0.135909 0.512758 0.580807 0.10394
H_ H_ 0.440919 0.662133 0.902827 0.10394
H_ H_ 0.019388 0.698331 0.941619 0.10394
H_ H_ 0.409621 0.788849 0.529931 0.10394
H_ H_ 0.337588 0.74342 -0.0023210000000000175 0.10394
H_ H_ 0.23603 0.71099 0.888509 0.10394
H_ H_ 0.193398 0.7469 0.812789 0.10394
H_ H_ 0.333231 0.725121 0.738732 0.10394
H_ H_ 0.377702 0.688726 0.815699 0.10394
H_ H_ 0.28337 0.612821 0.555449 0.10394
H_ H_ 0.224596 0.631263 0.619692 0.10394
H_ H_ 0.101241 0.600138 0.502967 0.10394
C_ C_ 0.171701 0.595897 0.793269 0.18167
C_ C_ 0.219129 0.575159 0.778506 -0.15533
C_ C_ 0.22677 0.522906 0.767368 0.02923
C_ C_ 0.192974 0.986115 0.780463 -0.15533
C_ C_ 0.141106 0.513953 0.787674 0.18167
C_ C_ 0.0224832 0.637031 0.768083 0.18167
C_ C_ 0.499042 0.685568 0.755922 -0.15533
C_ C_ 0.0110917 0.730554 0.760424 0.02923
C_ C_ 0.039964 0.734552 0.809139 -0.15533
C_ C_ 0.0610346 0.689205 0.836565 0.18167
C_ C_ 0.0098568 0.54639 0.87136 0.69207
C_ C_ 0.469913 0.0038912 0.867682 0.02923
C_ C_ 0.492795 0.952356 0.875391 -0.15533
C_ C_ 0.461235 0.913891 0.881617 -0.15533
C_ C_ 0.407956 0.926787 0.886881 0.02923
C_ C_ 0.390275 0.977528 0.895123 -0.15533
C_ C_ 0.418595 0.0162549 0.881229 0.02923
C_ C_ 0.39509 0.578417 0.887553 0.69207
C_ C_ 0.393243 0.828828 0.888384 0.69661
C_ C_ 0.0641262 0.806352 0.589155 0.18167
C_ C_ 0.0196369 0.78485 0.569985 -0.15533
C_ C_ 0.00930204 0.775482 0.517644 0.02923
C_ C_ 0.0536605 0.794937 0.988118 -0.15533
C_ C_ 0.084912 0.812769 0.505389 0.18167
C_ C_ 0.210434 0.769992 0.631983 0.18167
C_ C_ 0.232226 0.741879 0.674514 -0.15533
C_ C_ 0.23576 0.76816 0.722019 0.02923
C_ C_ 0.220362 0.821569 0.726671 -0.15533
C_ C_ 0.193618 0.846273 0.685708 0.18167
C_ C_ 0.240826 0.874901 0.542869 0.69207
C_ C_ 0.277174 0.881344 0.00282909 0.02923
C_ C_ 0.255996 0.87853 0.951393 -0.15533
C_ C_ 0.284285 0.889732 0.914046 -0.15533
C_ C_ 0.335028 0.898289 0.923912 0.02923
C_ C_ 0.353282 0.902422 0.975171 -0.15533
C_ C_ 0.327417 0.888745 0.0142112 0.02923
C_ C_ 0.358987 0.884556 0.563568 0.69207
C_ C_ 0.345657 0.88673 0.827053 0.69661
C_ C_ 0.311415 0.938069 0.675403 0.18167
C_ C_ 0.268287 0.962545 0.695774 -0.15533
C_ C_ 0.274198 0.997504 0.73848 0.02923
C_ C_ 0.322153 0.512865 0.752794 -0.15533
C_ C_ 0.36578 0.988472 0.730006 0.18167
C_ C_ 0.491776 0.855974 0.694165 0.18167
C_ C_ 0.0149401 0.817968 0.730821 -0.15533
C_ C_ 0.487738 0.780717 0.744872 0.02923
C_ C_ 0.435331 0.786168 0.728587 -0.15533
C_ C_ 0.412723 0.827521 0.697285 0.18167
C_ C_ 0.489548 0.955992 0.622081 0.69207
C_ C_ 0.0200408 0.493826 0.617391 0.02923
C_ C_ 0.99761 0.545359 0.614907 -0.15533
C_ C_ 0.0256574 0.583141 0.600385 -0.15533
C_ C_ 0.0771656 0.574798 0.595884 0.02923
C_ C_ 0.0986585 0.521986 0.593127 -0.15533
C_ C_ 0.0684132 0.480616 0.598995 0.02923
C_ C_ 0.0982957 0.930906 0.606203 0.69207
C_ C_ 0.0882449 0.66882 0.612495 0.69661
C_ C_ 0.434022 0.68845 0.933654 0.18167
C_ C_ 0.474235 0.704587 0.967768 -0.15533
C_ C_ 0.463769 0.74186 0.00639964 0.02923
C_ C_ 0.417068 0.758621 0.504479 -0.15533
C_ C_ 0.373967 0.736765 0.985326 0.18167
C_ C_ 0.256753 0.711031 0.854335 0.18167
C_ C_ 0.231059 0.72983 0.809439 -0.15533
C_ C_ 0.257205 0.738176 0.766354 0.02923
C_ C_ 0.309542 0.717356 0.769515 -0.15533
C_ C_ 0.334994 0.696268 0.812828 0.18167
C_ C_ 0.268089 0.622492 0.950717 0.69207
C_ C_ 0.226699 0.612384 0.491801 0.02923
C_ C_ 0.242927 0.616433 0.543166 -0.15533
C_ C_ 0.208949 0.621216 0.582232 -0.15533
C_ C_ 0.156115 0.613734 0.568402 0.02923
C_ C_ 0.139944 0.607002 0.515798 -0.15533
C_ C_ 0.175207 0.608779 0.476806 0.02923
C_ C_ 0.154659 0.606106 0.91912 0.69207
C_ C_ 0.140225 0.604561 0.663548 0.69661
C_ C_ 0.371217 0.885506 0.883206 -0.30787
C_ C_ 0.115982 0.615836 0.607658 -0.30787
N_ N_ 0.13526 0.564201 0.800394 -0.32189
N_ N_ 0.0501355 0.644998 0.814551 -0.32189
N_ N_ 0.0965837 0.816367 0.556001 -0.32189
N_ N_ 0.187851 0.819608 0.639338 -0.32189
N_ N_ 0.358507 0.948711 0.692738 -0.32189
N_ N_ 0.440862 0.859678 0.680021 -0.32189
N_ N_ 0.385591 0.703287 0.944838 -0.32189
N_ N_ 0.306356 0.690598 0.854082 -0.32189
O_ O_ 0.506446 0.5928 0.904889 -0.63271
O_ O_ 0.0439465 0.536907 0.840118 -0.57982
O_ O_ 0.39478 0.602875 0.845663 -0.63271
O_ O_ 0.3763 0.600187 0.926606 -0.57982
O_ O_ 0.243423 0.902203 0.585686 -0.63271
O_ O_ 0.200605 0.849618 0.530684 -0.57982
O_ O_ 0.353517 0.847373 0.589774 -0.63271
O_ O_ 0.375663 0.92482 0.589056 -0.57982
O_ O_ 0.986108 0.915929 0.597182 -0.63271
O_ O_ 0.461214 0.960891 0.660644 -0.57982
O_ O_ 0.0919625 0.903689 0.642936 -0.63271
O_ O_ 0.133718 0.916029 0.57517 -0.57982
O_ O_ 0.266654 0.60064 0.903456 -0.63271
O_ O_ 0.295822 0.659901 0.960033 -0.57982
O_ O_ 0.155875 0.645412 0.892404 -0.63271
O_ O_ 0.11765 0.578878 0.906558 -0.57982
F_ F_ 0.430469 0.824664 0.930353 -0.20885
F_ F_ 0.410584 0.806118 0.844172 -0.20885
F_ F_ 0.356678 0.79967 0.90007 -0.20885
F_ F_ 0.312713 0.932676 0.817963 -0.20885
F_ F_ 0.317385 0.846275 0.810087 -0.20885
F_ F_ 0.381797 0.883639 0.791563 -0.20885
F_ F_ 0.0623225 0.681299 0.566963 -0.20885
F_ F_ 0.0580075 0.679485 0.652727 -0.20885
F_ F_ 0.124017 0.702928 0.618982 -0.20885
F_ F_ 0.173934 0.558486 0.664692 -0.20885
F_ F_ 0.16595 0.644937 0.684712 -0.20885
F_ F_ 0.102949 0.602223 0.695359 -0.20885
Zn Zn 0.591244 0.0810825 0.354075 0.83971
Zn Zn 0.660644 0.345969 0.080992 0.83971
Zn Zn 0.908962 0.421038 0.159629 0.83971
Zn Zn 0.838266 0.156892 0.419117 0.83971
H_ H_ 0.669812 0.132694 0.306145 0.10394
H_ H_ 0.744465 0.0991003 0.26439 0.10394
H_ H_ 0.709969 0.447773 0.294545 0.10394
H_ H_ 0.633312 0.981015 0.31709 0.10394
H_ H_ 0.0312173 0.0970303 0.254674 0.10394
H_ H_ 0.994337 0.169854 0.202709 0.10394
H_ H_ 0.540177 0.266435 0.327585 0.10394
H_ H_ 0.574616 0.189712 0.377248 0.10394
H_ H_ 0.541731 0.4412 0.374377 0.10394
H_ H_ 0.98159 0.376591 0.415418 0.10394
H_ H_ 0.850713 0.486956 0.400217 0.10394
H_ H_ 0.570061 0.319282 0.122092 0.10394
H_ H_ 0.99700151 0.275041 0.0850931 0.10394
H_ H_ 0.542869 0.286428 0.445362 0.10394
H_ H_ 0.620486 0.322056 0.976962 0.10394
H_ H_ 0.7243 0.243849 0.0880609 0.10394
H_ H_ 0.748101 0.190971 0.161865 0.10394
H_ H_ 0.717231 0.329676 0.261059 0.10394
H_ H_ 0.679024 0.369496 0.18089 0.10394
H_ H_ 0.720548 0.352748 0.443989 0.10394
H_ H_ 0.774572 0.363503 0.373632 0.10394
H_ H_ 0.889639 0.412847 0.491585 0.10394
H_ H_ 0.80621 0.402127 0.166614 0.10394
H_ H_ 0.73701 0.442144 0.210153 0.10394
H_ H_ 0.827901 0.0465071 0.279118 0.10394
H_ H_ 0.904073 0.499335 0.24234 0.10394
H_ H_ 0.524027 0.368869 0.192674 0.10394
H_ H_ 0.562043 0.286079 0.224896 0.10394
H_ H_ 0.911478 0.25735 0.233811 0.10394
H_ H_ 0.87534 0.336253 0.199623 0.10394
H_ H_ 0.966947 0.0511537 0.136292 0.10394
H_ H_ 0.517924 0.115334 0.118893 0.10394
H_ H_ 0.645047 -0.000527986 0.09275 0.10394
H_ H_ 0.945099 0.173972 0.390835 0.10394
H_ H_ 0.52332 0.185949 0.443582 0.10394
H_ H_ 0.922436 0.273508 0.035855 0.10394
H_ H_ 0.851192 0.222867 0.507955 0.10394
H_ H_ 0.728136 0.176312 0.368105 0.10394
H_ H_ 0.687767 0.228299 0.296477 0.10394
H_ H_ 0.833723 0.225694 0.244144 0.10394
H_ H_ 0.875682 0.191215 0.326096 0.10394
H_ H_ 0.780942 0.123123 0.0515934 0.10394
H_ H_ 0.730492 0.111434 0.120628 0.10394
H_ H_ 0.606294 0.0787009 0.00894379 0.10394
C_ C_ 0.681297 0.092652 0.306038 0.18167
C_ C_ 0.721276 0.0737633 0.278196 -0.15533
C_ C_ 0.730264 0.0222035 0.264923 0.02923
C_ C_ 0.700919 0.490296 0.290518 -0.15533
C_ C_ 0.6601 0.00738836 0.312334 0.18167
C_ C_ 0.528566 0.12549 0.272911 0.18167
C_ C_ 0.0108857 0.176168 0.240473 -0.15533
C_ C_ 0.510345 0.217943 0.265014 0.02923
C_ C_ 0.537028 0.226329 0.312293 -0.15533
C_ C_ 0.553497 0.18432 0.340757 0.18167
C_ C_ 0.509583 0.0398174 0.372345 0.69207
C_ C_ 0.975976 0.499714 0.378848 0.02923
C_ C_ 0.996588 0.450589 0.391903 -0.15533
C_ C_ 0.964774 0.414792 0.403749 -0.15533
C_ C_ 0.911914 0.426216 0.400563 0.02923
C_ C_ 0.891783 0.476452 0.400281 -0.15533
C_ C_ 0.923848 0.513325 0.387024 0.02923
C_ C_ 0.904369 0.0753146 0.3934 0.69207
C_ C_ 0.899253 0.33267 0.388862 0.69661
C_ C_ 0.563724 0.311053 0.0818539 0.18167
C_ C_ 0.520753 0.290673 0.0599188 -0.15533
C_ C_ 0.518016 0.272358 0.0104831 0.02923
C_ C_ 0.551589 0.288472 0.488901 -0.15533
C_ C_ 0.595461 0.30632 0.00177602 0.18167
C_ C_ 0.71986 0.259624 0.125928 0.18167
C_ C_ 0.737828 0.232561 0.167368 -0.15533
C_ C_ 0.735715 0.256803 0.218307 0.02923
C_ C_ 0.71522 0.308409 0.222974 -0.15533
C_ C_ 0.690323 0.330526 0.179274 0.18167
C_ C_ 0.739537 0.374157 0.0503569 0.69207
C_ C_ 0.775662 0.370065 0.507697 0.02923
C_ C_ 0.75849 0.362868 0.453282 -0.15533
C_ C_ 0.787258 0.370056 0.414939 -0.15533
C_ C_ 0.835006 0.389264 0.428498 0.02923
C_ C_ 0.852123 0.400228 0.480599 -0.15533
C_ C_ 0.824487 0.385652 0.518863 0.02923
C_ C_ 0.852714 0.389102 0.0758639 0.69207
C_ C_ 0.849657 0.391384 0.332386 0.69661
C_ C_ 0.812249 0.433181 0.191426 0.18167
C_ C_ 0.772823 0.459146 0.214077 -0.15533
C_ C_ 0.778845 0.502698 0.247965 0.02923
C_ C_ 0.823728 0.0194894 0.248086 -0.15533
C_ C_ 0.867571 0.489956 0.231526 0.18167
C_ C_ 0.999091 0.356073 0.197399 0.18167
C_ C_ 0.519589 0.298187 0.225244 -0.15533
C_ C_ 0.991241 0.271925 0.229259 0.02923
C_ C_ 0.937314 0.283399 0.225964 -0.15533
C_ C_ 0.916398 0.328121 0.204854 0.18167
C_ C_ 0.989278 0.457181 0.130429 0.69207
C_ C_ 0.522187 0.989463 0.117568 0.02923
C_ C_ 0.504951 0.0396185 0.126497 -0.15533
C_ C_ 0.539114 0.0765311 0.123319 -0.15533
C_ C_ 0.588114 0.0659805 0.106039 0.02923
C_ C_ 0.60736 0.0131393 0.101335 -0.15533
C_ C_ 0.575472 0.975944 0.111497 0.02923
C_ C_ 0.604633 0.42481 0.104942 0.69207
C_ C_ 0.601069 0.161222 0.110528 0.69661
C_ C_ 0.936918 0.19465 0.425729 0.18167
C_ C_ 0.981048 0.210596 0.455186 -0.15533
C_ C_ 0.972718 0.24221 0.499848 0.02923
C_ C_ 0.926188 0.247032 0.00776528 -0.15533
C_ C_ 0.886387 0.223641 0.491888 0.18167
C_ C_ 0.753891 0.188453 0.343082 0.18167
C_ C_ 0.729183 0.214847 0.301036 -0.15533
C_ C_ 0.758913 0.22907 0.264459 0.02923
C_ C_ 0.810583 0.216644 0.27202 -0.15533
C_ C_ 0.834822 0.192629 0.315707 0.18167
C_ C_ 0.764383 0.118874 0.456687 0.69207
C_ C_ 0.724512 0.111747 0.992571 0.02923
C_ C_ 0.74544 0.111102 0.0430001 -0.15533
C_ C_ 0.716423 0.103759 0.0826056 -0.15533
C_ C_ 0.664229 0.0940434 0.0706472 0.02923
C_ C_ 0.644433 0.0924211 0.0187729 -0.15533
C_ C_ 0.676182 0.0966851 0.979425 0.02923
C_ C_ 0.652615 0.103849 0.434508 0.69207
C_ C_ 0.650348 0.0966759 0.166447 0.69661
C_ C_ 0.873069 0.386414 0.388427 -0.30787
C_ C_ 0.624987 0.105276 0.110864 -0.30787
N_ N_ 0.647939 0.0595653 0.318858 -0.32189
N_ N_ 0.553607 0.135727 0.320054 -0.32189
N_ N_ 0.601745 0.318 0.0524974 -0.32189
N_ N_ 0.691354 0.305659 0.133275 -0.32189
N_ N_ 0.859279 0.448816 0.200977 -0.32189
N_ N_ 0.947571 0.362335 0.188283 -0.32189
N_ N_ 0.891147 0.198207 0.446039 -0.32189
N_ N_ 0.805914 0.180332 0.352599 -0.32189
O_ O_ 0.00832193 0.0911511 0.400138 -0.63271
O_ O_ 0.549451 0.0306844 0.345016 -0.57982
O_ O_ 0.894586 0.0959989 0.349867 -0.63271
O_ O_ 0.879916 0.0970486 0.432565 -0.57982
O_ O_ 0.746528 0.391626 0.0985682 -0.63271
O_ O_ 0.70738 0.341653 0.0375233 -0.57982
O_ O_ 0.850495 0.349135 0.102402 -0.63271
O_ O_ 0.881342 0.424614 0.0972367 -0.57982
O_ O_ 0.496183 0.405054 0.102482 -0.63271
O_ O_ 0.953586 0.468132 0.160585 -0.57982
O_ O_ 0.600638 0.401234 0.146363 -0.63271
O_ O_ 0.639075 0.409184 0.0747277 -0.57982
O_ O_ 0.769092 0.0880964 0.414477 -0.63271
O_ O_ 0.78807 0.159213 0.46174 -0.57982
O_ O_ 0.655558 0.143819 0.406823 -0.63271
O_ O_ 0.619112 0.0736661 0.416668 -0.57982
F_ F_ 0.917921 0.323685 0.437108 -0.20885
F_ F_ 0.935843 0.322772 0.353916 -0.20885
F_ F_ 0.867659 0.294143 0.379076 -0.20885
F_ F_ 0.812528 0.430316 0.331073 -0.20885
F_ F_ 0.828069 0.349782 0.307252 -0.20885
F_ F_ 0.88871 0.400283 0.301737 -0.20885
F_ F_ 0.57163 0.168256 0.0643687 -0.20885
F_ F_ 0.579477 0.177055 0.15448 -0.20885
F_ F_ 0.63926 0.192646 0.111062 -0.20885
F_ F_ 0.684755 0.0532826 0.169686 -0.20885
F_ F_ 0.678414 0.133973 0.186038 -0.20885
F_ F_ 0.620152 0.0871799 0.204439 -0.20885
Zn Zn 0.586068 0.082663 0.847779 0.83971
Zn Zn 0.65803 0.355606 0.583833 0.83971
Zn Zn 0.905938 0.419974 0.655006 0.83971
Zn Zn 0.833603 0.157229 0.914114 0.83971
H_ H_ 0.671233 0.124755 0.816934 0.10394
H_ H_ 0.748005 0.0961545 0.7828 0.10394
H_ H_ 0.709631 0.44468 0.78822 0.10394
H_ H_ 0.622209 0.980737 0.806254 0.10394
H_ H_ 0.0260691 0.0957828 0.743766 0.10394
H_ H_ 0.978981 0.170632 0.695266 0.10394
H_ H_ 0.507008 0.264002 0.835598 0.10394
H_ H_ 0.565801 0.196708 0.874527 0.10394
H_ H_ 0.53009 0.453096 0.868193 0.10394
H_ H_ 0.976172 0.3811 0.88151 0.10394
H_ H_ 0.852673 0.494464 0.900304 0.10394
H_ H_ 0.589126 0.290455 0.632931 0.10394
H_ H_ 0.004335 0.268674 0.601111 0.10394
H_ H_ 0.546633 0.277955 0.939083 0.10394
H_ H_ 0.609558 0.337377 0.487513 0.10394
H_ H_ 0.723431 0.266798 0.592212 0.10394
H_ H_ 0.764517 0.214335 0.664727 0.10394
H_ H_ 0.70085 0.325286 0.771704 0.10394
H_ H_ 0.673349 0.381613 0.69673 0.10394
H_ H_ 0.709549 0.389455 0.951343 0.10394
H_ H_ 0.763397 0.390503 0.882564 0.10394
H_ H_ 0.894325 0.414433 0.995355 0.10394
H_ H_ 0.80787 0.395527 0.662887 0.10394
H_ H_ 0.732356 0.437899 0.703748 0.10394
H_ H_ 0.828708 0.0466171 0.781493 0.10394
H_ H_ 0.903192 0.503098 0.731635 0.10394
H_ H_ 0.512475 0.358 0.664328 0.10394
H_ H_ 0.550993 0.282493 0.710672 0.10394
H_ H_ 0.903047 0.245439 0.719778 0.10394
H_ H_ 0.86129 0.328488 0.691711 0.10394
H_ H_ 0.963384 0.0591808 0.60369 0.10394
H_ H_ 0.525888 0.120629 0.619885 0.10394
H_ H_ 0.64923 0.00376445 0.594239 0.10394
H_ H_ 0.92994 0.163746 0.885823 0.10394
H_ H_ 0.515549 0.196364 0.943452 0.10394
H_ H_ 0.921167 0.264409 0.557591 0.10394
H_ H_ 0.845908 0.236951 0.000679668 0.10394
H_ H_ 0.728194 0.19546 0.881067 0.10394
H_ H_ 0.686763 0.242707 0.809968 0.10394
H_ H_ 0.833038 0.218929 0.743789 0.10394
H_ H_ 0.871803 0.182343 0.821301 0.10394
H_ H_ 0.797034 0.104604 0.556953 0.10394
H_ H_ 0.741542 0.0978716 0.624247 0.10394
H_ H_ 0.614437 0.0762897 0.516618 0.10394
C_ C_ 0.675039 0.0866484 0.804562 0.18167
C_ C_ 0.721689 0.0691874 0.788579 -0.15533
C_ C_ 0.731234 0.0162795 0.773036 0.02923
C_ C_ 0.700592 0.485833 0.789075 -0.15533
C_ C_ 0.650159 0.00328678 0.799874 0.18167
C_ C_ 0.53172 0.133757 0.763641 0.18167
C_ C_ 0.000111968 0.17682 0.734943 -0.15533
C_ C_ 0.496765 0.22143 0.761177 0.02923
C_ C_ 0.51741 0.227779 0.813387 -0.15533
C_ C_ 0.544603 0.186764 0.838406 0.18167
C_ C_ 0.504077 0.0450034 0.86258 0.69207
C_ C_ 0.972822 0.507712 0.875853 0.02923
C_ C_ 0.993234 0.456691 0.881519 -0.15533
C_ C_ 0.961 0.420395 0.890273 -0.15533
C_ C_ 0.909394 0.433054 0.894677 0.02923
C_ C_ 0.892196 0.484783 0.896401 -0.15533
C_ C_ 0.922985 0.522057 0.892258 0.02923
C_ C_ 0.88476 0.0715535 0.882026 0.69207
C_ C_ 0.894219 0.336122 0.895869 0.69661
C_ C_ 0.576079 0.292613 0.59405 0.18167
C_ C_ 0.533248 0.269763 0.57376 -0.15533
C_ C_ 0.520494 0.264205 0.51984 0.02923
C_ C_ 0.552416 0.28425 0.979723 -0.15533
C_ C_ 0.59322 0.31219 0.510712 0.18167
C_ C_ 0.717587 0.27771 0.631441 0.18167
C_ C_ 0.739355 0.247786 0.671929 -0.15533
C_ C_ 0.731328 0.264446 0.722476 0.02923
C_ C_ 0.703559 0.311162 0.731047 -0.15533
C_ C_ 0.683876 0.340249 0.689513 0.18167
C_ C_ 0.740679 0.367573 0.546172 0.69207
C_ C_ 0.774547 0.383597 1.011504 0.02923
C_ C_ 0.752008 0.390063 0.961797 -0.15533
C_ C_ 0.782091 0.394006 0.921647 -0.15533
C_ C_ 0.833348 0.400969 0.931889 0.02923
C_ C_ 0.853426 0.406061 0.984708 -0.15533
C_ C_ 0.825849 0.393409 0.0242421 0.02923
C_ C_ 0.850459 0.380854 0.569383 0.69207
C_ C_ 0.847486 0.390429 0.832603 0.69661
C_ C_ 0.810595 0.427765 0.689093 0.18167
C_ C_ 0.770626 0.44915 0.716587 -0.15533
C_ C_ 0.778101 0.493004 0.747374 0.02923
C_ C_ 0.82475 0.0129068 0.757965 -0.15533
C_ C_ 0.863746 0.489401 0.727456 0.18167
C_ C_ 0.983117 0.35233 0.697593 0.18167
C_ C_ 0.509595 0.295907 0.709449 -0.15533
C_ C_ 0.97807 0.270086 0.729919 0.02923
C_ C_ 0.925978 0.273841 0.712109 -0.15533
C_ C_ 0.90402 0.318811 0.690186 0.18167
C_ C_ 0.985339 0.454813 0.625094 0.69207
C_ C_ 0.525429 0.992052 0.618841 0.02923
C_ C_ 0.509646 0.0446194 0.628116 -0.15533
C_ C_ 0.540996 0.0820183 0.618784 -0.15533
C_ C_ 0.59439 0.0676181 0.612182 0.02923
C_ C_ 0.610433 0.0152118 0.603424 -0.15533
C_ C_ 0.576212 0.977292 0.603673 0.02923
C_ C_ 0.595731 0.430823 0.61294 0.69207
C_ C_ 0.611313 0.161785 0.603409 0.69661
C_ C_ 0.928679 0.189145 0.916935 0.18167
C_ C_ 0.972958 0.209446 0.938961 -0.15533
C_ C_ 0.973385 0.236202 -0.01154299999999997 0.02923
C_ C_ 0.925529 0.245112 0.520059 -0.15533
C_ C_ 0.88196 0.227629 0.985104 0.18167
C_ C_ 0.749883 0.201285 0.850912 0.18167
C_ C_ 0.727022 0.230636 0.809446 -0.15533
C_ C_ 0.756451 0.236603 0.767613 0.02923
C_ C_ 0.808733 0.21611 0.772639 -0.15533
C_ C_ 0.829674 0.193358 0.816929 0.18167
C_ C_ 0.75958 0.11892 0.952337 0.69207
C_ C_ 0.732193 0.107275 0.497605 0.02923
C_ C_ 0.756201 0.0988008 0.547831 -0.15533
C_ C_ 0.7255 0.0947707 0.586468 -0.15533
C_ C_ 0.67309 0.0917137 0.574396 0.02923
C_ C_ 0.654132 0.0845854 0.524442 -0.15533
C_ C_ 0.68083 0.0983247 0.485116 0.02923
C_ C_ 0.64776 0.104582 0.929196 0.69207
C_ C_ 0.658304 0.104471 0.670024 0.69661
C_ C_ 0.870058 0.391881 0.888287 -0.30787
C_ C_ 0.633305 0.105797 0.612598 -0.30787
N_ N_ 0.640578 0.0551311 0.80922 -0.32189
N_ N_ 0.549785 0.139363 0.813857 -0.32189
N_ N_ 0.604052 0.314616 0.561557 -0.32189
N_ N_ 0.691131 0.322464 0.64169 -0.32189
N_ N_ 0.856744 0.445448 0.698478 -0.32189
N_ N_ 0.932297 0.357241 0.683198 -0.32189
N_ N_ 0.885977 0.197549 0.93972 -0.32189
N_ N_ 0.800259 0.1855 0.855115 -0.32189
O_ O_ -0.011550999999999978 0.0879183 0.895567 -0.63271
O_ O_ 0.541536 0.0348225 0.832829 -0.57982
O_ O_ 0.88114 0.100095 0.842799 -0.63271
O_ O_ 0.85994 0.0894619 0.920936 -0.57982
O_ O_ 0.742226 0.397444 0.588563 -0.63271
O_ O_ 0.699897 0.344244 0.532168 -0.57982
O_ O_ 0.849523 0.338875 0.592022 -0.63271
O_ O_ 0.872638 0.419334 0.592207 -0.57982
O_ O_ 0.488734 0.412815 0.590781 -0.63271
O_ O_ 0.952067 0.465255 0.658268 -0.57982
O_ O_ 0.58688 0.40128 0.647999 -0.63271
O_ O_ 0.634764 0.416628 0.586829 -0.57982
O_ O_ 0.755373 0.0965781 0.906229 -0.63271
O_ O_ 0.790711 0.154884 0.962821 -0.57982
O_ O_ 0.648995 0.146475 0.904867 -0.63271
O_ O_ 0.616374 0.0723359 0.909619 -0.57982
F_ F_ 0.927462 0.332696 0.940221 -0.20885
F_ F_ 0.92436 0.313853 0.858304 -0.20885
F_ F_ 0.855721 0.304448 0.893741 -0.20885
F_ F_ 0.818768 0.436222 0.825936 -0.20885
F_ F_ 0.817115 0.351081 0.816248 -0.20885
F_ F_ 0.882874 0.393675 0.797786 -0.20885
F_ F_ 0.578834 0.161501 0.558073 -0.20885
F_ F_ 0.581594 0.186068 0.640831 -0.20885
F_ F_ 0.65138 0.192047 0.59799 -0.20885
F_ F_ 0.688832 0.0589687 0.679604 -0.20885
F_ F_ 0.687447 0.144155 0.683425 -0.20885
F_ F_ 0.622062 0.110795 0.702954 -0.20885
Zn Zn 0.586503 0.585787 0.350649 0.83971
Zn Zn 0.657476 0.838239 0.0846807 0.83971
Zn Zn 0.915904 0.915202 0.159928 0.83971
Zn Zn 0.835206 0.649938 0.417723 0.83971
H_ H_ 0.662299 0.632747 0.303227 0.10394
H_ H_ 0.747375 0.603278 0.272849 0.10394
H_ H_ 0.70593 0.945857 0.279246 0.10394
H_ H_ 0.634779 0.483421 0.329175 0.10394
H_ H_ 0.0405126 0.597088 0.245711 0.10394
H_ H_ 1.00307091 0.672684 0.202042 0.10394
H_ H_ 0.529146 0.77133 0.330955 0.10394
H_ H_ 0.557948 0.695958 0.382633 0.10394
H_ H_ 0.528378 0.942966 0.355904 0.10394
H_ H_ 0.978358 0.879622 0.389423 0.10394
H_ H_ 0.850496 0.99598 0.388689 0.10394
H_ H_ 0.580035 0.804394 0.13681 0.10394
H_ H_ 1.0165433 0.760848 0.101022 0.10394
H_ H_ 0.543806 0.782893 0.444728 0.10394
H_ H_ 0.606922 0.824443 0.989221 0.10394
H_ H_ 0.716794 0.741973 0.100696 0.10394
H_ H_ 0.768729 0.700282 0.173447 0.10394
H_ H_ 0.709345 0.834728 0.268736 0.10394
H_ H_ 0.666447 0.871474 0.188846 0.10394
H_ H_ 0.712199 0.891251 0.445038 0.10394
H_ H_ 0.763725 0.899082 0.377096 0.10394
H_ H_ 0.893103 0.913153 0.487781 0.10394
H_ H_ 0.814692 0.894762 0.16493 0.10394
H_ H_ 0.734539 0.94879 0.184112 0.10394
H_ H_ 0.835706 0.550316 0.281736 0.10394
H_ H_ 0.907064 1.0017053 0.244607 0.10394
H_ H_ 0.509673 0.888082 0.1925 0.10394
H_ H_ 0.547149 0.824396 0.258206 0.10394
H_ H_ 0.926139 0.741362 0.219834 0.10394
H_ H_ 0.880782 0.822557 0.187398 0.10394
H_ H_ 0.967842 0.559593 0.133819 0.10394
H_ H_ 0.51839 0.615729 0.0999871 0.10394
H_ H_ 0.650518 0.505645 0.0929693 0.10394
H_ H_ 0.94264 0.647295 0.411179 0.10394
H_ H_ 0.518615 0.692249 0.451976 0.10394
H_ H_ 0.931105 0.790598 0.0506614 0.10394
H_ H_ 0.840081 0.728835 0.503271 0.10394
H_ H_ 0.731423 0.678989 0.374252 0.10394
H_ H_ 0.695058 0.723381 0.294708 0.10394
H_ H_ 0.846956 0.735208 0.259442 0.10394
H_ H_ 0.8808 0.690355 0.33879 0.10394
H_ H_ 0.786649 0.633949 0.0593575 0.10394
H_ H_ 0.738566 0.615217 0.123724 0.10394
H_ H_ 0.615563 0.575891 0.00821725 0.10394
C_ C_ 0.678216 0.594719 0.305964 0.18167
C_ C_ 0.726464 0.575608 0.287403 -0.15533
C_ C_ 0.738197 0.523116 0.28047 0.02923
C_ C_ 0.70041 0.988774 0.285515 -0.15533
C_ C_ 0.656838 0.509033 0.313508 0.18167
C_ C_ 0.534878 0.634384 0.266442 0.18167
C_ C_ 0.0283403 0.679669 0.237523 -0.15533
C_ C_ 0.515318 0.725956 0.260958 0.02923
C_ C_ 0.531329 0.732978 0.312432 -0.15533
C_ C_ 0.549136 0.68923 0.340872 0.18167
C_ C_ 0.507926 0.542102 0.36736 0.69207
C_ C_ 0.976829 0.00679066 0.380911 0.02923
C_ C_ -0.0062670000000000226 0.954859 0.373275 -0.15533
C_ C_ 0.960814 0.918131 0.384859 -0.15533
C_ C_ 0.907649 0.932602 0.386773 0.02923
C_ C_ 0.891271 0.984296 0.389574 -0.15533
C_ C_ 0.926156 0.0216782 0.392405 0.02923
C_ C_ 0.899477 0.564845 0.381217 0.69207
C_ C_ 0.893355 0.834695 0.38589 0.69661
C_ C_ 0.569862 0.793319 0.0974972 0.18167
C_ C_ 0.523539 0.775435 0.0805492 -0.15533
C_ C_ 0.509837 0.769074 0.0266719 0.02923
C_ C_ 0.54644 0.793807 0.485348 -0.15533
C_ C_ 0.586558 0.803661 0.0127809 0.18167
C_ C_ 0.718916 0.761939 0.136804 0.18167
C_ C_ 0.75023 0.739376 0.1782 -0.15533
C_ C_ 0.747319 0.765625 0.226342 0.02923
C_ C_ 0.717269 0.814741 0.230838 -0.15533
C_ C_ 0.690585 0.835257 0.186886 0.18167
C_ C_ 0.747876 0.856473 0.0543551 0.69207
C_ C_ 0.773763 0.88327 0.505275 0.02923
C_ C_ 0.75261 0.883689 0.453173 -0.15533
C_ C_ 0.782718 0.892951 0.414555 -0.15533
C_ C_ 0.833736 0.901254 0.427106 0.02923
C_ C_ 0.854429 0.905719 0.477619 -0.15533
C_ C_ 0.828943 0.888519 0.514841 0.02923
C_ C_ 0.860288 0.881394 0.072124 0.69207
C_ C_ 0.843743 0.892177 0.326636 0.69661
C_ C_ 0.816543 0.931368 0.186969 0.18167
C_ C_ 0.770747 0.959802 0.200139 -0.15533
C_ C_ 0.774999 1.00255882 0.23585 0.02923
C_ C_ 0.827541 0.518526 0.255353 -0.15533
C_ C_ 0.867925 0.993681 0.227274 0.18167
C_ C_ 0.997086 0.860669 0.219046 0.18167
C_ C_ 0.514255 0.815383 0.23119 -0.15533
C_ C_ 0.999236 0.771385 0.236398 0.02923
C_ C_ 0.94691 0.774085 0.216393 -0.15533
C_ C_ 0.919928 0.821919 0.203804 0.18167
C_ C_ 0.992485 0.950847 0.138536 0.69207
C_ C_ 0.528073 0.488941 0.109563 0.02923
C_ C_ 0.505937 0.540603 0.103941 -0.15533
C_ C_ 0.538247 0.577656 0.104676 -0.15533
C_ C_ 0.59143 0.567187 0.103717 0.02923
C_ C_ 0.610479 0.516211 0.0981321 -0.15533
C_ C_ 0.580967 0.476246 0.104062 0.02923
C_ C_ 0.600828 0.923702 0.111506 0.69207
C_ C_ 0.602265 0.664256 0.105953 0.69661
C_ C_ 0.934495 0.67737 0.438326 0.18167
C_ C_ 0.974055 0.70319 0.460689 -0.15533
C_ C_ 0.966196 0.743416 0.496563 0.02923
C_ C_ 0.933395 0.759991 1.0189369 -0.15533
C_ C_ 0.87629 0.727877 0.485346 0.18167
C_ C_ 0.755773 0.697465 0.350624 0.18167
C_ C_ 0.734846 0.722138 0.305702 -0.15533
C_ C_ 0.767469 0.739503 0.274639 0.02923
C_ C_ 0.820284 0.727211 0.285484 -0.15533
C_ C_ 0.839977 0.700949 0.329519 0.18167
C_ C_ 0.7566 0.618557 0.459163 0.69207
C_ C_ 0.732518 0.614557 0.995894 0.02923
C_ C_ 0.749868 0.622549 0.0471896 -0.15533
C_ C_ 0.716785 0.617063 0.084364 -0.15533
C_ C_ 0.667078 0.60296 0.0730482 0.02923
C_ C_ 0.65129 0.592465 0.0200007 -0.15533
C_ C_ 0.680388 0.602856 0.98257 0.02923
C_ C_ 0.641122 0.613543 0.433673 0.69207
C_ C_ 0.651745 0.609314 0.167929 0.69661
C_ C_ 0.868831 0.89244 0.383366 -0.30787
C_ C_ 0.628495 0.608935 0.111605 -0.30787
N_ N_ 0.647517 0.56174 0.320088 -0.32189
N_ N_ 0.554725 0.642075 0.316343 -0.32189
N_ N_ 0.601077 0.802588 0.0622842 -0.32189
N_ N_ 0.691236 0.80787 0.142199 -0.32189
N_ N_ 0.86329 0.950463 0.19816 -0.32189
N_ N_ 0.947177 0.862476 0.199056 -0.32189
N_ N_ 0.885372 0.691261 0.449243 -0.32189
N_ N_ 0.806757 0.688502 0.361949 -0.32189
O_ O_ 0.0133247 0.580894 0.397901 -0.63271
O_ O_ 0.545109 0.53313 0.338043 -0.57982
O_ O_ 0.908286 0.589288 0.340779 -0.63271
O_ O_ 0.86903 0.584481 0.41617 -0.57982
O_ O_ 0.74863 0.886246 0.0940328 -0.63271
O_ O_ 0.708521 0.829118 0.044448 -0.57982
O_ O_ 0.857029 0.844536 0.102096 -0.63271
O_ O_ 0.882265 0.919521 0.0956676 -0.57982
O_ O_ 0.482243 0.912436 0.0884319 -0.63271
O_ O_ 0.95506 0.962209 0.165757 -0.57982
O_ O_ 0.591448 0.893203 0.148372 -0.63271
O_ O_ 0.631467 0.904641 0.0761004 -0.57982
O_ O_ 0.753407 0.591139 0.416092 -0.63271
O_ O_ 0.786563 0.655749 0.463626 -0.57982
O_ O_ 0.645793 0.65153 0.404061 -0.63271
O_ O_ 0.609622 0.580349 0.416678 -0.57982
F_ F_ 0.929213 0.832571 0.428366 -0.20885
F_ F_ 0.921261 0.810896 0.347321 -0.20885
F_ F_ 0.857825 0.801248 0.395159 -0.20885
F_ F_ 0.808307 0.93677 0.317737 -0.20885
F_ F_ 0.818897 0.848833 0.310691 -0.20885
F_ F_ 0.879296 0.890937 0.292327 -0.20885
F_ F_ 0.575768 0.671319 0.0584367 -0.20885
F_ F_ 0.569194 0.678551 0.143313 -0.20885
F_ F_ 0.635774 0.700541 0.108422 -0.20885
F_ F_ 0.690704 0.571391 0.179366 -0.20885
F_ F_ 0.675537 0.652566 0.184222 -0.20885
F_ F_ 0.613058 0.610157 0.201447 -0.20885
Zn Zn 0.592362 0.590222 0.852603 0.83971
Zn Zn 0.661076 0.845647 0.586036 0.83971
Zn Zn 0.910699 0.922328 0.656526 0.83971
Zn Zn 0.845505 0.662089 0.922541 0.83971
H_ H_ 0.671963 0.628601 0.811778 0.10394
H_ H_ 0.747109 0.5937 0.768826 0.10394
H_ H_ 0.707203 0.943584 0.782715 0.10394
H_ H_ 0.63008 0.485829 0.828468 0.10394
H_ H_ 0.0107931 0.602331 0.753213 0.10394
H_ H_ 0.974907 0.67355 0.706964 0.10394
H_ H_ 0.54685 0.777939 0.839682 0.10394
H_ H_ 0.575682 0.701631 0.886735 0.10394
H_ H_ 0.532854 0.945628 0.882888 0.10394
H_ H_ 0.977996 0.879177 0.873262 0.10394
H_ H_ 0.848822 0.985341 0.909808 0.10394
H_ H_ 0.576995 0.804073 0.630575 0.10394
H_ H_ -0.009079999999999977 0.780618 0.591777 0.10394
H_ H_ 0.518957 0.799602 0.955922 0.10394
H_ H_ 0.62262 0.811654 0.487368 0.10394
H_ H_ 0.722065 0.746835 0.602539 0.10394
H_ H_ 0.764744 0.702983 0.676301 0.10394
H_ H_ 0.729373 0.835326 0.770562 0.10394
H_ H_ 0.688344 0.882224 0.694373 0.10394
H_ H_ 0.71467 0.873739 0.959049 0.10394
H_ H_ 0.762917 0.879621 0.882911 0.10394
H_ H_ 0.895212 0.901595 0.984716 0.10394
H_ H_ 0.810438 0.903885 0.658851 0.10394
H_ H_ 0.734342 0.955903 0.687304 0.10394
H_ H_ 0.832279 0.548008 0.773935 0.10394
H_ H_ 0.898748 1.0115298 0.733377 0.10394
H_ H_ 0.514383 0.881663 0.679052 0.10394
H_ H_ 0.555117 0.815643 0.734253 0.10394
H_ H_ 0.915276 0.749543 0.720058 0.10394
H_ H_ 0.876635 0.828651 0.682229 0.10394
H_ H_ 0.96087 0.556727 0.629875 0.10394
H_ H_ 0.509212 0.625068 0.628176 0.10394
H_ H_ 0.635899 0.512102 0.587544 0.10394
H_ H_ 0.942937 0.665732 0.902295 0.10394
H_ H_ 0.512293 0.681951 0.966526 0.10394
H_ H_ 0.907565 0.794078 0.528517 0.10394
H_ H_ 0.852913 0.743493 1.00822643 0.10394
H_ H_ 0.743126 0.711976 0.893614 0.10394
H_ H_ 0.699644 0.754428 0.818034 0.10394
H_ H_ 0.842975 0.714829 0.746871 0.10394
H_ H_ 0.881298 0.684673 0.829046 0.10394
H_ H_ 0.776307 0.633083 0.560632 0.10394
H_ H_ 0.723937 0.61668 0.621902 0.10394
H_ H_ 0.599406 0.58674 0.512043 0.10394
C_ C_ 0.682511 0.587953 0.805781 0.18167
C_ C_ 0.72341 0.568063 0.783126 -0.15533
C_ C_ 0.736713 0.516817 0.777677 0.02923
C_ C_ 0.69705 0.982761 0.782354 -0.15533
C_ C_ 0.656129 0.507859 0.809446 0.18167
C_ C_ 0.526452 0.643926 0.776911 0.18167
C_ C_ 0.0031857 0.680688 0.741074 -0.15533
C_ C_ 0.514006 0.733849 0.771252 0.02923
C_ C_ 0.540621 0.73968 0.820738 -0.15533
C_ C_ 0.558452 0.695655 0.848407 0.18167
C_ C_ 0.504859 0.554924 0.869664 0.69207
C_ C_ 0.959594 0.00727312 0.863917 0.02923
C_ C_ -0.019289 0.955077 0.858197 -0.15533
C_ C_ 0.957949 0.916362 0.875447 -0.15533
C_ C_ 0.907404 0.926017 0.888568 0.02923
C_ C_ 0.886335 0.977686 0.8957 -0.15533
C_ C_ 0.911221 0.0183722 0.881369 0.02923
C_ C_ 0.89587 0.574163 0.891104 0.69207
C_ C_ 0.900167 0.827037 0.888048 0.69661
C_ C_ 0.566856 0.803618 0.58978 0.18167
C_ C_ 0.52425 0.781298 0.569189 -0.15533
C_ C_ 0.512694 0.776915 0.516363 0.02923
C_ C_ 0.537064 0.792578 0.993513 -0.15533
C_ C_ 0.592319 0.808809 0.509039 0.18167
C_ C_ 0.722096 0.768341 0.638464 0.18167
C_ C_ 0.750728 0.743928 0.680787 -0.15533
C_ C_ 0.747621 0.766162 0.72872 0.02923
C_ C_ 0.725583 0.815642 0.732339 -0.15533
C_ C_ 0.703049 0.841687 0.690948 0.18167
C_ C_ 0.740529 0.874478 0.544855 0.69207
C_ C_ 0.778212 0.871079 1.0131362 0.02923
C_ C_ 0.754542 0.868157 0.963006 -0.15533
C_ C_ 0.782756 0.875539 0.921909 -0.15533
C_ C_ 0.835797 0.885368 0.92821 0.02923
C_ C_ 0.85623 0.891199 0.979153 -0.15533
C_ C_ 0.829887 0.884028 0.0219332 0.02923
C_ C_ 0.854173 0.884402 0.568295 0.69207
C_ C_ 0.841113 0.882647 0.832237 0.69661
C_ C_ 0.81323 0.936884 0.683257 0.18167
C_ C_ 0.771086 0.963732 0.702698 -0.15533
C_ C_ 0.775898 0.00043999999999999595 0.743975 0.02923
C_ C_ 0.824993 0.512165 0.75374 -0.15533
C_ C_ 0.8664 0.991624 0.733247 0.18167
C_ C_ 0.993541 0.860463 0.706504 0.18167
C_ C_ 0.515219 0.817708 0.725441 -0.15533
C_ C_ 0.988652 0.774708 0.731611 0.02923
C_ C_ 0.938188 0.779735 0.714742 -0.15533
C_ C_ 0.916589 0.822552 0.690152 0.18167
C_ C_ 0.987922 0.95915 0.623534 0.69207
C_ C_ 0.519403 0.493667 0.622145 0.02923
C_ C_ 0.49828 0.544334 0.626632 -0.15533
C_ C_ 0.526705 0.584359 0.623014 -0.15533
C_ C_ 0.578031 0.574164 0.611421 0.02923
C_ C_ 0.597404 0.522319 0.600371 -0.15533
C_ C_ 0.570898 0.481841 0.612258 0.02923
C_ C_ 0.59905 0.923085 0.603767 0.69207
C_ C_ 0.591174 0.669083 0.618116 0.69661
C_ C_ 0.94045 0.686818 0.937201 0.18167
C_ C_ 0.984368 0.706457 0.959715 -0.15533
C_ C_ 0.980503 0.745974 1.000378541 0.02923
C_ C_ 0.916273 0.757632 0.506391 -0.15533
C_ C_ 0.890134 0.737181 0.995475 0.18167
C_ C_ 0.765506 0.716426 0.863062 0.18167
C_ C_ 0.74028 0.736702 0.818636 -0.15533
C_ C_ 0.770463 0.740425 0.776102 0.02923
C_ C_ 0.820436 0.721306 0.779483 -0.15533
C_ C_ 0.842405 0.69834 0.824314 0.18167
C_ C_ 0.766071 0.623145 0.957098 0.69207
C_ C_ 0.718672 0.6158 0.497759 0.02923
C_ C_ 0.734266 0.628444 0.549875 -0.15533
C_ C_ 0.704929 0.619664 0.586557 -0.15533
C_ C_ 0.653271 0.608759 0.576156 0.02923
C_ C_ 0.636858 0.598389 0.524898 -0.15533
C_ C_ 0.666647 0.610428 0.485794 0.02923
C_ C_ 0.6568 0.604231 0.929772 0.69207
C_ C_ 0.645838 0.606281 0.672714 0.69661
C_ C_ 0.871139 0.884336 0.885227 -0.30787
C_ C_ 0.616157 0.614127 0.618462 -0.30787
N_ N_ 0.648527 0.558402 0.819411 -0.32189
N_ N_ 0.555304 0.648866 0.823343 -0.32189
N_ N_ 0.601364 0.81421 0.560042 -0.32189
N_ N_ 0.700817 0.818201 0.644018 -0.32189
N_ N_ 0.861847 0.949632 0.701389 -0.32189
N_ N_ 0.944542 0.86033 0.684672 -0.32189
N_ N_ 0.894816 0.704649 0.951872 -0.32189
N_ N_ 0.814778 0.696122 0.864425 -0.32189
O_ O_ 1.00387798 0.589502 0.89644 -0.63271
O_ O_ 0.541436 0.546836 0.840051 -0.57982
O_ O_ 0.895665 0.598663 0.849529 -0.63271
O_ O_ 0.878555 0.599411 0.931305 -0.57982
O_ O_ 0.742608 0.901775 0.589014 -0.63271
O_ O_ 0.709282 0.839251 0.537638 -0.57982
O_ O_ 0.849271 0.844604 0.59493 -0.63271
O_ O_ 0.876526 0.92148 0.592281 -0.57982
O_ O_ 0.488989 0.913949 0.591842 -0.63271
O_ O_ 0.957706 0.968947 0.659941 -0.57982
O_ O_ 0.599698 0.896598 0.644798 -0.63271
O_ O_ 0.632931 0.907856 0.573912 -0.57982
O_ O_ 0.764294 0.594787 0.91446 -0.63271
O_ O_ 0.795265 0.660521 0.964717 -0.57982
O_ O_ 0.662739 0.643531 0.903945 -0.63271
O_ O_ 0.617437 0.580715 0.915092 -0.57982
F_ F_ 0.938647 0.821845 0.926026 -0.20885
F_ F_ 0.921548 0.807433 0.843672 -0.20885
F_ F_ 0.866711 0.790426 0.888144 -0.20885
F_ F_ 0.807263 0.925337 0.828264 -0.20885
F_ F_ 0.814296 0.839985 0.820291 -0.20885
F_ F_ 0.872986 0.885381 0.79487 -0.20885
F_ F_ 0.555135 0.671989 0.57587 -0.20885
F_ F_ 0.564969 0.686768 0.659368 -0.20885
F_ F_ 0.624655 0.704207 0.613939 -0.20885
F_ F_ 0.684133 0.567227 0.671641 -0.20885
F_ F_ 0.670385 0.646457 0.692657 -0.20885
F_ F_ 0.614985 0.59846 0.708749 -0.20885
_cell_length_a 26.508
_cell_length_b 26.37200000322088
_cell_length_c 26.311999743092066
_cell_angle_alpha 93.74100058972084
_cell_angle_beta 96.04100104955006
_cell_angle_gamma 83.6869992558723
_symmetry_space_group_name_H-M         'P 1'
_symmetry_Int_Tables_number            1
loop_
_symmetry_equiv_pos_as_xyz
   'x, y, z'
                         
loop_
_atom_site_label
_atom_site_type_symbol
_atom_site_fract_x 
_atom_site_fract_y
_atom_site_fract_z
_atom_site_charge
Zn Zn 0.0875349 0.0880565 0.352344 0.83971
Zn Zn 0.156036 0.345434 0.0811767 0.83971
Zn Zn 0.416076 0.413631 0.159476 0.83971
Zn Zn 0.344319 0.153201 0.410631 0.83971
H_ H_ 0.169839 0.133307 0.311018 0.10394
H_ H_ 0.243915 0.102377 0.265906 0.10394
H_ H_ 0.223309 0.437458 0.294305 0.10394
H_ H_ 0.135834 0.98431 0.329654 0.10394
H_ H_ 0.530524 0.0857569 0.255312 0.10394
H_ H_ 0.483348 0.1627 0.211174 0.10394
H_ H_ 0.0513288 0.27163 0.320208 0.10394
H_ H_ 0.0793265 0.203227 0.373422 0.10394
H_ H_ 0.0363075 0.438903 0.390731 0.10394
H_ H_ 0.487673 0.37019 0.369043 0.10394
H_ H_ 0.355541 0.478186 0.395041 0.10394
H_ H_ 0.0768896 0.30872 0.121476 0.10394
H_ H_ 0.493183 0.283277 0.0838804 0.10394
H_ H_ 0.0433431 0.282562 0.446515 0.10394
H_ H_ 0.119081 0.318127 0.976719 0.10394
H_ H_ 0.219979 0.247391 0.0917907 0.10394
H_ H_ 0.261682 0.204993 0.160816 0.10394
H_ H_ 0.201515 0.323349 0.264987 0.10394
H_ H_ 0.17558 0.376475 0.189864 0.10394
H_ H_ 0.21868 0.362685 0.43621 0.10394
H_ H_ 0.279344 0.357206 0.3715 0.10394
H_ H_ 0.397749 0.403151 0.490299 0.10394
H_ H_ 0.312857 0.38984 0.160414 0.10394
H_ H_ 0.235269 0.440729 0.186986 0.10394
H_ H_ 0.328401 0.0522157 0.260601 0.10394
H_ H_ 0.400551 0.505459 0.224778 0.10394
H_ H_ 0.0217484 0.388099 0.198066 0.10394
H_ H_ 0.0641044 0.308156 0.227574 0.10394
H_ H_ 0.411997 0.242851 0.224804 0.10394
H_ H_ 0.375224 0.323137 0.191092 0.10394
H_ H_ 0.464177 0.0501424 0.12998 0.10394
H_ H_ 0.0170131 0.115561 0.113163 0.10394
H_ H_ 0.140337 0.00869491 0.0908649 0.10394
H_ H_ 0.443569 0.162756 0.389202 0.10394
H_ H_ 0.0177739 0.200598 0.440862 0.10394
H_ H_ 0.417222 0.280459 0.0413915 0.10394
H_ H_ 0.359265 0.21516 0.511821 0.10394
H_ H_ 0.238417 0.202204 0.388737 0.10394
H_ H_ 0.190943 0.243726 0.310805 0.10394
H_ H_ 0.327507 0.208587 0.233423 0.10394
H_ H_ 0.372745 0.172244 0.313426 0.10394
H_ H_ 0.277912 0.126108 0.0541886 0.10394
H_ H_ 0.224712 0.105315 0.115819 0.10394
H_ H_ 0.10122 0.0988169 0.00380826 0.10394
C_ C_ 0.178921 0.0924499 0.305641 0.18167
C_ C_ 0.220564 0.0725716 0.278722 -0.15533
C_ C_ 0.230666 0.0191202 0.266997 0.02923
C_ C_ 0.20778 0.47741 0.292438 -0.15533
C_ C_ 0.15935 0.00894791 0.313211 0.18167
C_ C_ 0.0306928 0.136607 0.2703 0.18167
C_ C_ 0.505878 0.167338 0.24597 -0.15533
C_ C_ 0.0162856 0.227438 0.259066 0.02923
C_ C_ 0.0451193 0.234747 0.305412 -0.15533
C_ C_ 0.0631277 0.192914 0.334633 0.18167
C_ C_ 0.0139946 0.045157 0.376992 0.69207
C_ C_ 0.477798 0.501568 0.378276 0.02923
C_ C_ 0.499718 0.449443 0.375988 -0.15533
C_ C_ 0.470413 0.409528 0.382524 -0.15533
C_ C_ 0.418809 0.418976 0.387654 0.02923
C_ C_ 0.395827 0.471671 0.384946 -0.15533
C_ C_ 0.425137 0.512909 0.38327 0.02923
C_ C_ 0.397412 0.0668673 0.38573 0.69207
C_ C_ 0.413962 0.31885 0.389619 0.69661
C_ C_ 0.0699213 0.299388 0.0817051 0.18167
C_ C_ 0.0248333 0.279786 0.0610916 -0.15533
C_ C_ 0.0189346 0.264504 0.00927895 0.02923
C_ C_ 0.0473086 0.289487 0.488559 -0.15533
C_ C_ 0.100348 0.296789 0.00038999999999989043 0.18167
C_ C_ 0.216195 0.265798 0.130165 0.18167
C_ C_ 0.240022 0.239973 0.171413 -0.15533
C_ C_ 0.23109 0.25813 0.220764 0.02923
C_ C_ 0.210237 0.309309 0.228755 -0.15533
C_ C_ 0.192536 0.33692 0.185297 0.18167
C_ C_ 0.246114 0.356138 0.0511436 0.69207
C_ C_ 0.278169 0.366633 0.499243 0.02923
C_ C_ 0.260228 0.364319 0.447651 -0.15533
C_ C_ 0.294236 0.364629 0.410999 -0.15533
C_ C_ 0.343937 0.380105 0.422555 0.02923
C_ C_ 0.361392 0.387745 0.476288 -0.15533
C_ C_ 0.329728 0.376745 0.514662 0.02923
C_ C_ 0.357521 0.380367 0.0762 0.69207
C_ C_ 0.361873 0.374516 0.324593 0.69661
C_ C_ 0.316636 0.423189 0.184933 0.18167
C_ C_ 0.271942 0.451355 0.202627 -0.15533
C_ C_ 0.278404 0.491339 0.239239 0.02923
C_ C_ 0.321991 0.0192781 0.237674 -0.15533
C_ C_ 0.367873 0.483768 0.226278 0.18167
C_ C_ 0.498636 0.343021 0.203265 0.18167
C_ C_ 0.0221439 0.309928 0.216651 -0.15533
C_ C_ 0.487348 0.263501 0.237104 0.02923
C_ C_ 0.43574 0.272474 0.221293 -0.15533
C_ C_ 0.417116 0.318588 0.200255 0.18167
C_ C_ 0.493066 0.451064 0.123664 0.69207
C_ C_ 0.0235834 0.99041 0.125567 0.02923
C_ C_ 0.0052744 0.0421644 0.127678 -0.15533
C_ C_ 0.0329155 0.0780217 0.112609 -0.15533
C_ C_ 0.0826316 0.0673914 0.0999927 0.02923
C_ C_ 0.100534 0.0151567 0.0951993 -0.15533
C_ C_ 0.0731563 0.977297 0.111023 0.02923
C_ C_ 0.0999794 0.426005 0.106819 0.69207
C_ C_ 0.100019 0.163796 0.112467 0.69661
C_ C_ 0.439548 0.181756 0.426673 0.18167
C_ C_ 0.483434 0.198083 0.453395 -0.15533
C_ C_ 0.47953 0.231572 0.497231 0.02923
C_ C_ 0.423413 0.252937 0.00797056 -0.15533
C_ C_ 0.388416 0.221169 0.489636 0.18167
C_ C_ 0.258413 0.207674 0.356885 0.18167
C_ C_ 0.230879 0.224998 0.311981 -0.15533
C_ C_ 0.25512 0.227227 0.266912 0.02923
C_ C_ 0.306124 0.206311 0.267709 -0.15533
C_ C_ 0.332041 0.187152 0.313715 0.18167
C_ C_ 0.262828 0.129185 0.454697 0.69207
C_ C_ 0.219222 0.120377 0.98792 0.02923
C_ C_ 0.236832 0.122562 0.0403732 -0.15533
C_ C_ 0.206743 0.112888 0.0791411 -0.15533
C_ C_ 0.157208 0.100292 0.0668815 0.02923
C_ C_ 0.137738 0.104816 0.0145719 -0.15533
C_ C_ 0.168071 0.111319 0.974972 0.02923
C_ C_ 0.153735 0.110972 0.427502 0.69207
C_ C_ 0.149751 0.0943206 0.163428 0.69661
C_ C_ 0.383454 0.373651 0.381044 -0.30787
C_ C_ 0.121674 0.106687 0.109931 -0.30787
N_ N_ 0.145585 0.0614492 0.317579 -0.32189
N_ N_ 0.0534457 0.14487 0.317226 -0.32189
N_ N_ 0.107207 0.305536 0.050604 -0.32189
N_ N_ 0.190411 0.313134 0.137119 -0.32189
N_ N_ 0.362632 0.441132 0.197219 -0.32189
N_ N_ 0.447524 0.351392 0.188232 -0.32189
N_ N_ 0.394669 0.188972 0.447269 -0.32189
N_ N_ 0.307479 0.187539 0.356267 -0.32189
O_ O_ 0.508356 0.0803779 0.404804 -0.63271
O_ O_ 0.0517643 0.033367 0.3498 -0.57982
O_ O_ 0.389414 0.0865287 0.341172 -0.63271
O_ O_ 0.379079 0.0914753 0.424734 -0.57982
O_ O_ 0.244247 0.387735 0.0939782 -0.63271
O_ O_ 0.205816 0.331762 0.036219 -0.57982
O_ O_ 0.362138 0.335759 0.0981903 -0.63271
O_ O_ 0.381599 0.419055 0.0992466 -0.57982
O_ O_ 0.989757 0.415768 0.100324 -0.63271
O_ O_ 0.46102 0.462629 0.157629 -0.57982
O_ O_ 0.100961 0.402018 0.148079 -0.63271
O_ O_ 0.132443 0.40906 0.0730533 -0.57982
O_ O_ 0.25969 0.102062 0.411679 -0.63271
O_ O_ 0.303162 0.152447 0.464491 -0.57982
O_ O_ 0.152859 0.149407 0.399477 -0.63271
O_ O_ 0.11967 0.0800555 0.415992 -0.57982
F_ F_ 0.443262 0.314255 0.437847 -0.20885
F_ F_ 0.44313 0.303508 0.349088 -0.20885
F_ F_ 0.381125 0.281688 0.38672 -0.20885
F_ F_ 0.322431 0.413199 0.319318 -0.20885
F_ F_ 0.341564 0.330077 0.302845 -0.20885
F_ F_ 0.399748 0.384329 0.295821 -0.20885
F_ F_ 0.0661491 0.172444 0.0689099 -0.20885
F_ F_ 0.0724894 0.180037 0.153096 -0.20885
F_ F_ 0.135803 0.197458 0.111844 -0.20885
F_ F_ 0.177795 0.0484281 0.168854 -0.20885
F_ F_ 0.179172 0.133508 0.18081 -0.20885
F_ F_ 0.12005 0.09433 0.202865 -0.20885
Zn Zn 0.0829485 0.083089 0.840719 0.83971
Zn Zn 0.160057 0.348487 0.58074 0.83971
Zn Zn 0.403766 0.415493 0.649074 0.83971
Zn Zn 0.33564 0.152673 0.910433 0.83971
H_ H_ 0.171987 0.133634 0.805218 0.10394
H_ H_ 0.248416 0.0947569 0.766482 0.10394
H_ H_ 0.195658 0.453158 0.770622 0.10394
H_ H_ 0.115447 0.985407 0.798052 0.10394
H_ H_ 0.529965 0.0953901 0.745899 0.10394
H_ H_ 0.496573 0.16686 0.696515 0.10394
H_ H_ 0.0206161 0.267881 0.832695 0.10394
H_ H_ 0.0675448 0.192646 0.86985 0.10394
H_ H_ 0.031403 0.444728 0.870933 0.10394
H_ H_ 0.482411 0.382752 0.889795 0.10394
H_ H_ 0.351178 0.493255 0.909844 0.10394
H_ H_ 0.0807223 0.313266 0.63305 0.10394
H_ H_ 0.50982 0.257644 0.602596 0.10394
H_ H_ 0.0434004 0.278059 0.93668 0.10394
H_ H_ 0.120198 0.314318 0.481427 0.10394
H_ H_ 0.217729 0.255408 0.594735 0.10394
H_ H_ 0.250365 0.205889 0.6668 0.10394
H_ H_ 0.22866 0.34081 0.76552 0.10394
H_ H_ 0.187351 0.389145 0.688885 0.10394
H_ H_ 0.222466 0.350273 0.948939 0.10394
H_ H_ 0.267668 0.374583 0.885619 0.10394
H_ H_ 0.393413 0.416763 0.993924 0.10394
H_ H_ 0.303924 0.400954 0.657031 0.10394
H_ H_ 0.227656 0.45549 0.681487 0.10394
H_ H_ 0.330303 0.0430675 0.782959 0.10394
H_ H_ 0.40248 0.499567 0.732754 0.10394
H_ H_ 0.00499957 0.380149 0.68419 0.10394
H_ H_ 0.049292 0.302385 0.727763 0.10394
H_ H_ 0.398754 0.270489 0.756898 0.10394
H_ H_ 0.363578 0.338546 0.695555 0.10394
H_ H_ 0.471355 0.0588489 0.636112 0.10394
H_ H_ 0.0200619 0.123981 0.598534 0.10394
H_ H_ 0.146053 0.0129949 0.598287 0.10394
H_ H_ 0.433365 0.163645 0.889498 0.10394
H_ H_ 0.00711919 0.196975 0.922739 0.10394
H_ H_ 0.426635 0.268994 0.545616 0.10394
H_ H_ 0.345256 0.23445 0.0006900000000000794 0.10394
H_ H_ 0.235861 0.20803 0.88785 0.10394
H_ H_ 0.191149 0.255203 0.813676 0.10394
H_ H_ 0.332916 0.226387 0.741874 0.10394
H_ H_ 0.37431 0.183265 0.821412 0.10394
H_ H_ 0.284308 0.134375 0.55467 0.10394
H_ H_ 0.230343 0.1114 0.620654 0.10394
H_ H_ 0.103745 0.103256 0.50577 0.10394
C_ C_ 0.177992 0.0925642 0.79783 0.18167
C_ C_ 0.222254 0.0706029 0.778557 -0.15533
C_ C_ 0.230777 0.0164853 0.767874 0.02923
C_ C_ 0.188504 0.492826 0.775885 -0.15533
C_ C_ 0.146963 0.00927326 0.79946 0.18167
C_ C_ 0.0262443 0.133806 0.760783 0.18167
C_ C_ 0.50392 0.173618 0.736963 -0.15533
C_ C_ 9.1249e-05 0.225686 0.758799 0.02923
C_ C_ 0.0217102 0.232011 0.809646 -0.15533
C_ C_ 0.0463091 0.187679 0.834179 0.18167
C_ C_ -0.006805999999999979 0.0474449 0.863687 0.69207
C_ C_ 0.470106 0.513497 0.874835 0.02923
C_ C_ 0.490615 0.462548 0.878046 -0.15533
C_ C_ 0.462018 0.421235 0.883251 -0.15533
C_ C_ 0.411637 0.433239 0.891137 0.02923
C_ C_ 0.392086 0.484389 0.899414 -0.15533
C_ C_ 0.419281 0.525833 0.886326 0.02923
C_ C_ 0.394572 0.0709491 0.882398 0.69207
C_ C_ 0.403272 0.334103 0.889072 0.69661
C_ C_ 0.0717466 0.304099 0.591962 0.18167
C_ C_ 0.0273243 0.281441 0.57395 -0.15533
C_ C_ 0.0155632 0.271406 0.521125 0.02923
C_ C_ 0.0543153 0.277995 0.977367 -0.15533
C_ C_ 0.0908595 0.310078 0.507445 0.18167
C_ C_ 0.218076 0.274067 0.633101 0.18167
C_ C_ 0.235836 0.246138 0.675028 -0.15533
C_ C_ 0.237544 0.270263 0.723505 0.02923
C_ C_ 0.219265 0.32216 0.727479 -0.15533
C_ C_ 0.197288 0.346308 0.684126 0.18167
C_ C_ 0.240652 0.365143 0.537932 0.69207
C_ C_ 0.280959 0.365849 0.0115661 0.02923
C_ C_ 0.260553 0.365729 0.961283 -0.15533
C_ C_ 0.289435 0.377275 0.922031 -0.15533
C_ C_ 0.338688 0.392113 0.931187 0.02923
C_ C_ 0.357208 0.3991 0.983958 -0.15533
C_ C_ 0.330699 0.382688 0.0230485 0.02923
C_ C_ 0.347113 0.384083 0.568354 0.69207
C_ C_ 0.345279 0.387038 0.83536 0.69661
C_ C_ 0.307908 0.434382 0.680058 0.18167
C_ C_ 0.265746 0.463331 0.697245 -0.15533
C_ C_ 0.270914 0.502117 0.738723 0.02923
C_ C_ 0.324287 0.0130336 0.752924 -0.15533
C_ C_ 0.362968 0.487449 0.727277 0.18167
C_ C_ 0.488084 0.338189 0.682767 0.18167
C_ C_ 0.00809922 0.307755 0.719585 -0.15533
C_ C_ 0.475379 0.265673 0.731913 0.02923
C_ C_ 0.424622 0.284693 0.732926 -0.15533
C_ C_ 0.405594 0.329278 0.706107 0.18167
C_ C_ 0.48438 0.452706 0.622716 0.69207
C_ C_ 0.0229715 0.997256 0.611635 0.02923
C_ C_ 0.00290112 0.047579 0.606097 -0.15533
C_ C_ 0.036042 0.0856212 0.599957 -0.15533
C_ C_ 0.0871259 0.0734341 0.596301 0.02923
C_ C_ 0.106564 0.0221165 0.597159 -0.15533
C_ C_ 0.075445 0.984214 0.604321 0.02923
C_ C_ 0.0945055 0.428773 0.606237 0.69207
C_ C_ 0.0986107 0.171662 0.606707 0.69661
C_ C_ 0.433358 0.186569 0.924668 0.18167
C_ C_ 0.476547 0.208742 0.94679 -0.15533
C_ C_ 0.470757 0.245188 0.987344 0.02923
C_ C_ 0.43211 0.242039 0.516054 -0.15533
C_ C_ 0.382086 0.227774 0.984873 0.18167
C_ C_ 0.257517 0.214753 0.855808 0.18167
C_ C_ 0.233283 0.240015 0.813251 -0.15533
C_ C_ 0.260545 0.243195 0.770401 0.02923
C_ C_ 0.310919 0.218674 0.771122 -0.15533
C_ C_ 0.333251 0.192625 0.815666 0.18167
C_ C_ 0.254966 0.125317 0.947962 0.69207
C_ C_ 0.22751 0.1227 0.494182 0.02923
C_ C_ 0.245154 0.130031 0.54487 -0.15533
C_ C_ 0.215001 0.12065 0.581556 -0.15533
C_ C_ 0.163102 0.111392 0.570016 0.02923
C_ C_ 0.14409 0.108969 0.517365 -0.15533
C_ C_ 0.176288 0.115449 0.480019 0.02923
C_ C_ 0.144629 0.114392 0.923174 0.69207
C_ C_ 0.144589 0.106149 0.664657 0.69661
C_ C_ 0.375139 0.388424 0.88955 -0.30787
C_ C_ 0.124889 0.114668 0.610196 -0.30787
N_ N_ 0.140435 0.062438 0.807753 -0.32189
N_ N_ 0.0477927 0.140855 0.810132 -0.32189
N_ N_ 0.101499 0.317975 0.558725 -0.32189
N_ N_ 0.195789 0.320715 0.637336 -0.32189
N_ N_ 0.355623 0.449938 0.690633 -0.32189
N_ N_ 0.437863 0.356194 0.685376 -0.32189
N_ N_ 0.389113 0.192268 0.946118 -0.32189
N_ N_ 0.306015 0.19239 0.856504 -0.32189
O_ O_ 0.499944 0.0890272 0.887704 -0.63271
O_ O_ 0.0335359 0.0386019 0.837281 -0.57982
O_ O_ 0.387485 0.0933564 0.838856 -0.63271
O_ O_ 0.370096 0.0918887 0.920501 -0.57982
O_ O_ 0.243316 0.39528 0.580424 -0.63271
O_ O_ 0.202925 0.335364 0.53069 -0.57982
O_ O_ 0.345132 0.346952 0.598452 -0.63271
O_ O_ 0.373013 0.421698 0.584746 -0.57982
O_ O_ 0.984308 0.412744 0.596362 -0.63271
O_ O_ 0.447542 0.459317 0.65291 -0.57982
O_ O_ 0.0902985 0.404738 0.64834 -0.63271
O_ O_ 0.134623 0.414079 0.583183 -0.57982
O_ O_ 0.250313 0.102751 0.901869 -0.63271
O_ O_ 0.293439 0.151228 0.959855 -0.57982
O_ O_ 0.148077 0.155464 0.897889 -0.63271
O_ O_ 0.110472 0.0839011 0.905737 -0.57982
F_ F_ 0.438963 0.330126 0.931773 -0.20885
F_ F_ 0.429043 0.322661 0.847133 -0.20885
F_ F_ 0.375731 0.293391 0.890162 -0.20885
F_ F_ 0.305174 0.426709 0.831207 -0.20885
F_ F_ 0.323208 0.342116 0.820542 -0.20885
F_ F_ 0.375185 0.394126 0.796976 -0.20885
F_ F_ 0.0735127 0.182945 0.560435 -0.20885
F_ F_ 0.0650692 0.187679 0.641394 -0.20885
F_ F_ 0.132567 0.208026 0.616373 -0.20885
F_ F_ 0.178347 0.0658764 0.670232 -0.20885
F_ F_ 0.172286 0.143563 0.68928 -0.20885
F_ F_ 0.104804 0.0970887 0.689808 -0.20885
Zn Zn 0.08908 0.576387 0.348527 0.83971
Zn Zn 0.167528 0.851777 0.0877846 0.83971
Zn Zn 0.405888 0.912567 0.1519 0.83971
Zn Zn 0.342142 0.646465 0.413311 0.83971
H_ H_ 0.166596 0.622257 0.297137 0.10394
H_ H_ 0.241756 0.589513 0.254804 0.10394
H_ H_ 0.199257 0.945476 0.275235 0.10394
H_ H_ 0.143633 0.472456 0.333049 0.10394
H_ H_ 0.532583 0.595551 0.247684 0.10394
H_ H_ 0.49639 0.668179 0.199501 0.10394
H_ H_ 0.0424056 0.771427 0.336877 0.10394
H_ H_ 0.0755451 0.689591 0.381285 0.10394
H_ H_ 0.0340385 0.943894 0.375647 0.10394
H_ H_ 0.480602 0.873817 0.373128 0.10394
H_ H_ 0.356887 0.983864 0.404183 0.10394
H_ H_ 0.0931985 0.809362 0.134861 0.10394
H_ H_ 0.495383 0.774737 0.108153 0.10394
H_ H_ 0.0358926 0.7872 0.443809 0.10394
H_ H_ 0.118904 0.832797 0.980658 0.10394
H_ H_ 0.225297 0.75407 0.0955693 0.10394
H_ H_ 0.266601 0.705718 0.169234 0.10394
H_ H_ 0.224052 0.825234 0.277536 0.10394
H_ H_ 0.17859 0.877929 0.202655 0.10394
H_ H_ 0.217878 0.872534 0.44516 0.10394
H_ H_ 0.270522 0.874262 0.373514 0.10394
H_ H_ 0.398394 0.901242 0.483808 0.10394
H_ H_ 0.307287 0.889023 0.168246 0.10394
H_ H_ 0.22924 0.937689 0.19607 0.10394
H_ H_ 0.328364 0.542495 0.27474 0.10394
H_ H_ 0.396868 0.00739049 0.222837 0.10394
H_ H_ 0.0171053 0.893695 0.215314 0.10394
H_ H_ 0.0579142 0.817853 0.260307 0.10394
H_ H_ 0.422524 0.732681 0.199635 0.10394
H_ H_ 0.379068 0.808779 0.16676 0.10394
H_ H_ 0.464108 0.5505 0.101011 0.10394
H_ H_ 0.0226123 0.623165 0.116068 0.10394
H_ H_ 0.144213 0.505799 0.090862 0.10394
H_ H_ 0.446758 0.662003 0.394312 0.10394
H_ H_ 0.0124505 0.686377 0.452537 0.10394
H_ H_ 0.407283 0.773163 0.0546058 0.10394
H_ H_ 0.337175 0.747988 0.482038 0.10394
H_ H_ 0.2387 0.68343 0.378516 0.10394
H_ H_ 0.204214 0.736307 0.310513 0.10394
H_ H_ 0.3461 0.725727 0.248309 0.10394
H_ H_ 0.385365 0.688966 0.326148 0.10394
H_ H_ 0.290657 0.61342 0.0509569 0.10394
H_ H_ 0.23535 0.595607 0.115098 0.10394
H_ H_ 0.107988 0.584176 -0.0009390000000000231 0.10394
C_ C_ 0.176304 0.580545 0.293748 0.18167
C_ C_ 0.218525 0.562147 0.268128 -0.15533
C_ C_ 0.234417 0.510283 0.266822 0.02923
C_ C_ 0.194759 0.988626 0.283272 -0.15533
C_ C_ 0.164461 0.498236 0.316307 0.18167
C_ C_ 0.0437053 0.634899 0.265346 0.18167
C_ C_ 0.5149 0.675501 0.237361 -0.15533
C_ C_ 0.0240045 0.727367 0.264608 0.02923
C_ C_ 0.0425357 0.731495 0.316894 -0.15533
C_ C_ 0.0589602 0.686757 0.342067 0.18167
C_ C_ 0.0118298 0.536563 0.3695 0.69207
C_ C_ 0.471321 0.00301453 0.372853 0.02923
C_ C_ 0.491748 0.950854 0.368575 -0.15533
C_ C_ 0.464256 0.912097 0.379476 -0.15533
C_ C_ 0.414683 0.924537 0.389125 0.02923
C_ C_ 0.39611 0.975425 0.398236 -0.15533
C_ C_ 0.423073 0.0152403 0.388744 0.02923
C_ C_ 0.400812 0.566535 0.382276 0.69207
C_ C_ 0.402063 0.827607 0.376557 0.69661
C_ C_ 0.0844921 0.803379 0.0924326 0.18167
C_ C_ 0.038733 0.779028 0.0751547 -0.15533
C_ C_ 0.0253394 0.773258 0.0220005 0.02923
C_ C_ 0.0421635 0.79126 0.485049 -0.15533
C_ C_ 0.0993645 0.813278 0.00742945 0.18167
C_ C_ 0.222133 0.770292 0.137044 0.18167
C_ C_ 0.24638 0.743055 0.176111 -0.15533
C_ C_ 0.247468 0.763385 0.226527 0.02923
C_ C_ 0.217827 0.811223 0.236565 -0.15533
C_ C_ 0.196995 0.839186 0.194931 0.18167
C_ C_ 0.241666 0.878179 0.0424717 0.69207
C_ C_ 0.276109 0.880996 0.501374 0.02923
C_ C_ 0.258398 0.87073 0.451341 -0.15533
C_ C_ 0.28766 0.877932 0.41184 -0.15533
C_ C_ 0.339527 0.889116 0.422585 0.02923
C_ C_ 0.358599 0.893835 0.47416 -0.15533
C_ C_ 0.328262 0.888745 0.513351 0.02923
C_ C_ 0.354306 0.885649 0.0656338 0.69207
C_ C_ 0.349086 0.894777 0.327663 0.69661
C_ C_ 0.308575 0.929954 0.17987 0.18167
C_ C_ 0.267212 0.954638 0.20371 -0.15533
C_ C_ 0.274967 0.998418 0.236797 0.02923
C_ C_ 0.327201 0.506999 0.252723 -0.15533
C_ C_ 0.361534 0.99179 0.21568 0.18167
C_ C_ 0.490693 0.853055 0.197732 0.18167
C_ C_ 0.0238341 0.815162 0.237039 -0.15533
C_ C_ 0.490508 0.770985 0.230898 0.02923
C_ C_ 0.44055 0.767591 0.20517 -0.15533
C_ C_ 0.417627 0.810417 0.182833 0.18167
C_ C_ 0.487401 0.950776 0.122964 0.69207
C_ C_ 0.0247645 0.4953 0.122824 0.02923
C_ C_ 0.00745431 0.547399 0.124984 -0.15533
C_ C_ 0.038583 0.583654 0.111277 -0.15533
C_ C_ 0.088924 0.569428 0.101539 0.02923
C_ C_ 0.105481 0.518015 0.0965875 -0.15533
C_ C_ 0.0739145 0.481342 0.104932 0.02923
C_ C_ 0.10122 0.927582 0.114146 0.69207
C_ C_ 0.102509 0.664407 0.0959793 0.69661
C_ C_ 0.439375 0.686597 0.425993 0.18167
C_ C_ 0.480335 0.704842 0.45725 -0.15533
C_ C_ 0.469611 0.747343 0.493684 0.02923
C_ C_ 0.41439 0.75317 0.0186255 -0.15533
C_ C_ 0.376763 0.735944 0.474373 0.18167
C_ C_ 0.263522 0.693613 0.350254 0.18167
C_ C_ 0.243242 0.723432 0.311771 -0.15533
C_ C_ 0.270363 0.730481 0.270502 0.02923
C_ C_ 0.322542 0.717186 0.276688 -0.15533
C_ C_ 0.345483 0.690855 0.320397 0.18167
C_ C_ 0.265177 0.615407 0.454032 0.69207
C_ C_ 0.230119 0.617998 0.988936 0.02923
C_ C_ 0.25014 0.613132 0.040638 -0.15533
C_ C_ 0.218723 0.603974 0.0775771 -0.15533
C_ C_ 0.166713 0.598895 0.0620796 0.02923
C_ C_ 0.149163 0.592767 0.00868865 -0.15533
C_ C_ 0.179159 0.604568 0.972588 0.02923
C_ C_ 0.154939 0.602111 0.423359 0.69207
C_ C_ 0.154091 0.609554 0.158527 0.69661
C_ C_ 0.376255 0.883511 0.380878 -0.30787
C_ C_ 0.127811 0.6084 0.100899 -0.30787
N_ N_ 0.143348 0.548524 0.309738 -0.32189
N_ N_ 0.0607736 0.639907 0.316302 -0.32189
N_ N_ 0.11062 0.820572 0.0586773 -0.32189
N_ N_ 0.195724 0.816217 0.146353 -0.32189
N_ N_ 0.355532 0.947403 0.190196 -0.32189
N_ N_ 0.441051 0.851495 0.177084 -0.32189
N_ N_ 0.388686 0.697102 0.439285 -0.32189
N_ N_ 0.314551 0.675514 0.354675 -0.32189
O_ O_ 0.506381 0.584532 0.39771 -0.63271
O_ O_ 0.0483865 0.526108 0.339898 -0.57982
O_ O_ 0.398323 0.593675 0.342203 -0.63271
O_ O_ 0.374529 0.58433 0.419984 -0.57982
O_ O_ 0.251135 0.900535 0.0881126 -0.63271
O_ O_ 0.211009 0.842465 0.0393661 -0.57982
O_ O_ 0.356557 0.843457 0.092627 -0.63271
O_ O_ 0.38116 0.921475 0.0867743 -0.57982
O_ O_ 0.993417 0.907736 0.111371 -0.63271
O_ O_ 0.455606 0.95707 0.159908 -0.57982
O_ O_ 0.102838 0.901336 0.15607 -0.63271
O_ O_ 0.136319 0.913682 0.0849729 -0.57982
O_ O_ 0.262946 0.5869 0.411112 -0.63271
O_ O_ 0.298104 0.649633 0.460682 -0.57982
O_ O_ 0.152602 0.642593 0.395539 -0.63271
O_ O_ 0.123333 0.569586 0.409878 -0.57982
F_ F_ 0.438193 0.820302 0.419059 -0.20885
F_ F_ 0.423745 0.816109 0.328889 -0.20885
F_ F_ 0.366218 0.795575 0.381585 -0.20885
F_ F_ 0.311449 0.936393 0.326103 -0.20885
F_ F_ 0.324301 0.855181 0.305764 -0.20885
F_ F_ 0.385036 0.898555 0.291482 -0.20885
F_ F_ 0.0663161 0.659209 0.0556319 -0.20885
F_ F_ 0.0803215 0.687623 0.137577 -0.20885
F_ F_ 0.134655 0.698708 0.0805856 -0.20885
F_ F_ 0.182882 0.564442 0.16812 -0.20885
F_ F_ 0.184615 0.650289 0.175636 -0.20885
F_ F_ 0.117848 0.616839 0.19257 -0.20885
Zn Zn 0.08522 0.583445 0.843455 0.83971
Zn Zn 0.157736 0.850285 0.580229 0.83971
Zn Zn 0.409713 0.92124 0.652172 0.83971
Zn Zn 0.340669 0.659107 0.91522 0.83971
H_ H_ 0.163675 0.637457 0.801668 0.10394
H_ H_ 0.246785 0.597601 0.77013 0.10394
H_ H_ 0.197594 0.946948 0.767748 0.10394
H_ H_ 0.111009 0.493013 0.784979 0.10394
H_ H_ 0.524234 0.606455 0.757105 0.10394
H_ H_ 0.476798 0.682612 0.719296 0.10394
H_ H_ 0.0469292 0.770661 0.826121 0.10394
H_ H_ 0.0754761 0.694889 0.874539 0.10394
H_ H_ 0.0175378 0.942965 0.841617 0.10394
H_ H_ 0.479503 0.875951 0.872206 0.10394
H_ H_ 0.34973 0.984209 0.902894 0.10394
H_ H_ 0.0707363 0.814037 0.630022 0.10394
H_ H_ 0.498702 0.770258 0.594927 0.10394
H_ H_ 0.0419169 0.794365 0.946943 0.10394
H_ H_ 0.109522 0.827382 0.481228 0.10394
H_ H_ 0.203912 0.751538 0.594448 0.10394
H_ H_ 0.248878 0.702121 0.669331 0.10394
H_ H_ 0.227525 0.842197 0.763467 0.10394
H_ H_ 0.183614 0.887112 0.688258 0.10394
H_ H_ 0.220461 0.866168 0.943256 0.10394
H_ H_ 0.26773 0.886448 0.875157 0.10394
H_ H_ 0.393049 0.913926 0.986149 0.10394
H_ H_ 0.308174 0.904269 0.652613 0.10394
H_ H_ 0.229631 0.955737 0.680163 0.10394
H_ H_ 0.331209 0.546819 0.776712 0.10394
H_ H_ 0.401852 0.00039999999999995595 0.738851 0.10394
H_ H_ 0.0139791 0.891686 0.703726 0.10394
H_ H_ 0.053103 0.818713 0.753351 0.10394
H_ H_ 0.41018 0.763239 0.745051 0.10394
H_ H_ 0.372056 0.836414 0.688702 0.10394
H_ H_ 0.455862 0.550617 0.631893 0.10394
H_ H_ 0.00537814 0.620077 0.59108 0.10394
H_ H_ 0.135909 0.512758 0.580807 0.10394
H_ H_ 0.440919 0.662133 0.902827 0.10394
H_ H_ 0.019388 0.698331 0.941619 0.10394
H_ H_ 0.409621 0.788849 0.529931 0.10394
H_ H_ 0.337588 0.74342 -0.0023210000000000175 0.10394
H_ H_ 0.23603 0.71099 0.888509 0.10394
H_ H_ 0.193398 0.7469 0.812789 0.10394
H_ H_ 0.333231 0.725121 0.738732 0.10394
H_ H_ 0.377702 0.688726 0.815699 0.10394
H_ H_ 0.28337 0.612821 0.555449 0.10394
H_ H_ 0.224596 0.631263 0.619692 0.10394
H_ H_ 0.101241 0.600138 0.502967 0.10394
C_ C_ 0.171701 0.595897 0.793269 0.18167
C_ C_ 0.219129 0.575159 0.778506 -0.15533
C_ C_ 0.22677 0.522906 0.767368 0.02923
C_ C_ 0.192974 0.986115 0.780463 -0.15533
C_ C_ 0.141106 0.513953 0.787674 0.18167
C_ C_ 0.0224832 0.637031 0.768083 0.18167
C_ C_ 0.499042 0.685568 0.755922 -0.15533
C_ C_ 0.0110917 0.730554 0.760424 0.02923
C_ C_ 0.039964 0.734552 0.809139 -0.15533
C_ C_ 0.0610346 0.689205 0.836565 0.18167
C_ C_ 0.0098568 0.54639 0.87136 0.69207
C_ C_ 0.469913 0.0038912 0.867682 0.02923
C_ C_ 0.492795 0.952356 0.875391 -0.15533
C_ C_ 0.461235 0.913891 0.881617 -0.15533
C_ C_ 0.407956 0.926787 0.886881 0.02923
C_ C_ 0.390275 0.977528 0.895123 -0.15533
C_ C_ 0.418595 0.0162549 0.881229 0.02923
C_ C_ 0.39509 0.578417 0.887553 0.69207
C_ C_ 0.393243 0.828828 0.888384 0.69661
C_ C_ 0.0641262 0.806352 0.589155 0.18167
C_ C_ 0.0196369 0.78485 0.569985 -0.15533
C_ C_ 0.00930204 0.775482 0.517644 0.02923
C_ C_ 0.0536605 0.794937 0.988118 -0.15533
C_ C_ 0.084912 0.812769 0.505389 0.18167
C_ C_ 0.210434 0.769992 0.631983 0.18167
C_ C_ 0.232226 0.741879 0.674514 -0.15533
C_ C_ 0.23576 0.76816 0.722019 0.02923
C_ C_ 0.220362 0.821569 0.726671 -0.15533
C_ C_ 0.193618 0.846273 0.685708 0.18167
C_ C_ 0.240826 0.874901 0.542869 0.69207
C_ C_ 0.277174 0.881344 0.00282909 0.02923
C_ C_ 0.255996 0.87853 0.951393 -0.15533
C_ C_ 0.284285 0.889732 0.914046 -0.15533
C_ C_ 0.335028 0.898289 0.923912 0.02923
C_ C_ 0.353282 0.902422 0.975171 -0.15533
C_ C_ 0.327417 0.888745 0.0142112 0.02923
C_ C_ 0.358987 0.884556 0.563568 0.69207
C_ C_ 0.345657 0.88673 0.827053 0.69661
C_ C_ 0.311415 0.938069 0.675403 0.18167
C_ C_ 0.268287 0.962545 0.695774 -0.15533
C_ C_ 0.274198 0.997504 0.73848 0.02923
C_ C_ 0.322153 0.512865 0.752794 -0.15533
C_ C_ 0.36578 0.988472 0.730006 0.18167
C_ C_ 0.491776 0.855974 0.694165 0.18167
C_ C_ 0.0149401 0.817968 0.730821 -0.15533
C_ C_ 0.487738 0.780717 0.744872 0.02923
C_ C_ 0.435331 0.786168 0.728587 -0.15533
C_ C_ 0.412723 0.827521 0.697285 0.18167
C_ C_ 0.489548 0.955992 0.622081 0.69207
C_ C_ 0.0200408 0.493826 0.617391 0.02923
C_ C_ 0.99761 0.545359 0.614907 -0.15533
C_ C_ 0.0256574 0.583141 0.600385 -0.15533
C_ C_ 0.0771656 0.574798 0.595884 0.02923
C_ C_ 0.0986585 0.521986 0.593127 -0.15533
C_ C_ 0.0684132 0.480616 0.598995 0.02923
C_ C_ 0.0982957 0.930906 0.606203 0.69207
C_ C_ 0.0882449 0.66882 0.612495 0.69661
C_ C_ 0.434022 0.68845 0.933654 0.18167
C_ C_ 0.474235 0.704587 0.967768 -0.15533
C_ C_ 0.463769 0.74186 0.00639964 0.02923
C_ C_ 0.417068 0.758621 0.504479 -0.15533
C_ C_ 0.373967 0.736765 0.985326 0.18167
C_ C_ 0.256753 0.711031 0.854335 0.18167
C_ C_ 0.231059 0.72983 0.809439 -0.15533
C_ C_ 0.257205 0.738176 0.766354 0.02923
C_ C_ 0.309542 0.717356 0.769515 -0.15533
C_ C_ 0.334994 0.696268 0.812828 0.18167
C_ C_ 0.268089 0.622492 0.950717 0.69207
C_ C_ 0.226699 0.612384 0.491801 0.02923
C_ C_ 0.242927 0.616433 0.543166 -0.15533
C_ C_ 0.208949 0.621216 0.582232 -0.15533
C_ C_ 0.156115 0.613734 0.568402 0.02923
C_ C_ 0.139944 0.607002 0.515798 -0.15533
C_ C_ 0.175207 0.608779 0.476806 0.02923
C_ C_ 0.154659 0.606106 0.91912 0.69207
C_ C_ 0.140225 0.604561 0.663548 0.69661
C_ C_ 0.371217 0.885506 0.883206 -0.30787
C_ C_ 0.115982 0.615836 0.607658 -0.30787
N_ N_ 0.13526 0.564201 0.800394 -0.32189
N_ N_ 0.0501355 0.644998 0.814551 -0.32189
N_ N_ 0.0965837 0.816367 0.556001 -0.32189
N_ N_ 0.187851 0.819608 0.639338 -0.32189
N_ N_ 0.358507 0.948711 0.692738 -0.32189
N_ N_ 0.440862 0.859678 0.680021 -0.32189
N_ N_ 0.385591 0.703287 0.944838 -0.32189
N_ N_ 0.306356 0.690598 0.854082 -0.32189
O_ O_ 0.506446 0.5928 0.904889 -0.63271
O_ O_ 0.0439465 0.536907 0.840118 -0.57982
O_ O_ 0.39478 0.602875 0.845663 -0.63271
O_ O_ 0.3763 0.600187 0.926606 -0.57982
O_ O_ 0.243423 0.902203 0.585686 -0.63271
O_ O_ 0.200605 0.849618 0.530684 -0.57982
O_ O_ 0.353517 0.847373 0.589774 -0.63271
O_ O_ 0.375663 0.92482 0.589056 -0.57982
O_ O_ 0.986108 0.915929 0.597182 -0.63271
O_ O_ 0.461214 0.960891 0.660644 -0.57982
O_ O_ 0.0919625 0.903689 0.642936 -0.63271
O_ O_ 0.133718 0.916029 0.57517 -0.57982
O_ O_ 0.266654 0.60064 0.903456 -0.63271
O_ O_ 0.295822 0.659901 0.960033 -0.57982
O_ O_ 0.155875 0.645412 0.892404 -0.63271
O_ O_ 0.11765 0.578878 0.906558 -0.57982
F_ F_ 0.430469 0.824664 0.930353 -0.20885
F_ F_ 0.410584 0.806118 0.844172 -0.20885
F_ F_ 0.356678 0.79967 0.90007 -0.20885
F_ F_ 0.312713 0.932676 0.817963 -0.20885
F_ F_ 0.317385 0.846275 0.810087 -0.20885
F_ F_ 0.381797 0.883639 0.791563 -0.20885
F_ F_ 0.0623225 0.681299 0.566963 -0.20885
F_ F_ 0.0580075 0.679485 0.652727 -0.20885
F_ F_ 0.124017 0.702928 0.618982 -0.20885
F_ F_ 0.173934 0.558486 0.664692 -0.20885
F_ F_ 0.16595 0.644937 0.684712 -0.20885
F_ F_ 0.102949 0.602223 0.695359 -0.20885
Zn Zn 0.591244 0.0810825 0.354075 0.83971
Zn Zn 0.660644 0.345969 0.080992 0.83971
Zn Zn 0.908962 0.421038 0.159629 0.83971
Zn Zn 0.838266 0.156892 0.419117 0.83971
H_ H_ 0.669812 0.132694 0.306145 0.10394
H_ H_ 0.744465 0.0991003 0.26439 0.10394
H_ H_ 0.709969 0.447773 0.294545 0.10394
H_ H_ 0.633312 0.981015 0.31709 0.10394
H_ H_ 0.0312173 0.0970303 0.254674 0.10394
H_ H_ 0.994337 0.169854 0.202709 0.10394
H_ H_ 0.540177 0.266435 0.327585 0.10394
H_ H_ 0.574616 0.189712 0.377248 0.10394
H_ H_ 0.541731 0.4412 0.374377 0.10394
H_ H_ 0.98159 0.376591 0.415418 0.10394
H_ H_ 0.850713 0.486956 0.400217 0.10394
H_ H_ 0.570061 0.319282 0.122092 0.10394
H_ H_ 0.99700151 0.275041 0.0850931 0.10394
H_ H_ 0.542869 0.286428 0.445362 0.10394
H_ H_ 0.620486 0.322056 0.976962 0.10394
H_ H_ 0.7243 0.243849 0.0880609 0.10394
H_ H_ 0.748101 0.190971 0.161865 0.10394
H_ H_ 0.717231 0.329676 0.261059 0.10394
H_ H_ 0.679024 0.369496 0.18089 0.10394
H_ H_ 0.720548 0.352748 0.443989 0.10394
H_ H_ 0.774572 0.363503 0.373632 0.10394
H_ H_ 0.889639 0.412847 0.491585 0.10394
H_ H_ 0.80621 0.402127 0.166614 0.10394
H_ H_ 0.73701 0.442144 0.210153 0.10394
H_ H_ 0.827901 0.0465071 0.279118 0.10394
H_ H_ 0.904073 0.499335 0.24234 0.10394
H_ H_ 0.524027 0.368869 0.192674 0.10394
H_ H_ 0.562043 0.286079 0.224896 0.10394
H_ H_ 0.911478 0.25735 0.233811 0.10394
H_ H_ 0.87534 0.336253 0.199623 0.10394
H_ H_ 0.966947 0.0511537 0.136292 0.10394
H_ H_ 0.517924 0.115334 0.118893 0.10394
H_ H_ 0.645047 -0.000527986 0.09275 0.10394
H_ H_ 0.945099 0.173972 0.390835 0.10394
H_ H_ 0.52332 0.185949 0.443582 0.10394
H_ H_ 0.922436 0.273508 0.035855 0.10394
H_ H_ 0.851192 0.222867 0.507955 0.10394
H_ H_ 0.728136 0.176312 0.368105 0.10394
H_ H_ 0.687767 0.228299 0.296477 0.10394
H_ H_ 0.833723 0.225694 0.244144 0.10394
H_ H_ 0.875682 0.191215 0.326096 0.10394
H_ H_ 0.780942 0.123123 0.0515934 0.10394
H_ H_ 0.730492 0.111434 0.120628 0.10394
H_ H_ 0.606294 0.0787009 0.00894379 0.10394
C_ C_ 0.681297 0.092652 0.306038 0.18167
C_ C_ 0.721276 0.0737633 0.278196 -0.15533
C_ C_ 0.730264 0.0222035 0.264923 0.02923
C_ C_ 0.700919 0.490296 0.290518 -0.15533
C_ C_ 0.6601 0.00738836 0.312334 0.18167
C_ C_ 0.528566 0.12549 0.272911 0.18167
C_ C_ 0.0108857 0.176168 0.240473 -0.15533
C_ C_ 0.510345 0.217943 0.265014 0.02923
C_ C_ 0.537028 0.226329 0.312293 -0.15533
C_ C_ 0.553497 0.18432 0.340757 0.18167
C_ C_ 0.509583 0.0398174 0.372345 0.69207
C_ C_ 0.975976 0.499714 0.378848 0.02923
C_ C_ 0.996588 0.450589 0.391903 -0.15533
C_ C_ 0.964774 0.414792 0.403749 -0.15533
C_ C_ 0.911914 0.426216 0.400563 0.02923
C_ C_ 0.891783 0.476452 0.400281 -0.15533
C_ C_ 0.923848 0.513325 0.387024 0.02923
C_ C_ 0.904369 0.0753146 0.3934 0.69207
C_ C_ 0.899253 0.33267 0.388862 0.69661
C_ C_ 0.563724 0.311053 0.0818539 0.18167
C_ C_ 0.520753 0.290673 0.0599188 -0.15533
C_ C_ 0.518016 0.272358 0.0104831 0.02923
C_ C_ 0.551589 0.288472 0.488901 -0.15533
C_ C_ 0.595461 0.30632 0.00177602 0.18167
C_ C_ 0.71986 0.259624 0.125928 0.18167
C_ C_ 0.737828 0.232561 0.167368 -0.15533
C_ C_ 0.735715 0.256803 0.218307 0.02923
C_ C_ 0.71522 0.308409 0.222974 -0.15533
C_ C_ 0.690323 0.330526 0.179274 0.18167
C_ C_ 0.739537 0.374157 0.0503569 0.69207
C_ C_ 0.775662 0.370065 0.507697 0.02923
C_ C_ 0.75849 0.362868 0.453282 -0.15533
C_ C_ 0.787258 0.370056 0.414939 -0.15533
C_ C_ 0.835006 0.389264 0.428498 0.02923
C_ C_ 0.852123 0.400228 0.480599 -0.15533
C_ C_ 0.824487 0.385652 0.518863 0.02923
C_ C_ 0.852714 0.389102 0.0758639 0.69207
C_ C_ 0.849657 0.391384 0.332386 0.69661
C_ C_ 0.812249 0.433181 0.191426 0.18167
C_ C_ 0.772823 0.459146 0.214077 -0.15533
C_ C_ 0.778845 0.502698 0.247965 0.02923
C_ C_ 0.823728 0.0194894 0.248086 -0.15533
C_ C_ 0.867571 0.489956 0.231526 0.18167
C_ C_ 0.999091 0.356073 0.197399 0.18167
C_ C_ 0.519589 0.298187 0.225244 -0.15533
C_ C_ 0.991241 0.271925 0.229259 0.02923
C_ C_ 0.937314 0.283399 0.225964 -0.15533
C_ C_ 0.916398 0.328121 0.204854 0.18167
C_ C_ 0.989278 0.457181 0.130429 0.69207
C_ C_ 0.522187 0.989463 0.117568 0.02923
C_ C_ 0.504951 0.0396185 0.126497 -0.15533
C_ C_ 0.539114 0.0765311 0.123319 -0.15533
C_ C_ 0.588114 0.0659805 0.106039 0.02923
C_ C_ 0.60736 0.0131393 0.101335 -0.15533
C_ C_ 0.575472 0.975944 0.111497 0.02923
C_ C_ 0.604633 0.42481 0.104942 0.69207
C_ C_ 0.601069 0.161222 0.110528 0.69661
C_ C_ 0.936918 0.19465 0.425729 0.18167
C_ C_ 0.981048 0.210596 0.455186 -0.15533
C_ C_ 0.972718 0.24221 0.499848 0.02923
C_ C_ 0.926188 0.247032 0.00776528 -0.15533
C_ C_ 0.886387 0.223641 0.491888 0.18167
C_ C_ 0.753891 0.188453 0.343082 0.18167
C_ C_ 0.729183 0.214847 0.301036 -0.15533
C_ C_ 0.758913 0.22907 0.264459 0.02923
C_ C_ 0.810583 0.216644 0.27202 -0.15533
C_ C_ 0.834822 0.192629 0.315707 0.18167
C_ C_ 0.764383 0.118874 0.456687 0.69207
C_ C_ 0.724512 0.111747 0.992571 0.02923
C_ C_ 0.74544 0.111102 0.0430001 -0.15533
C_ C_ 0.716423 0.103759 0.0826056 -0.15533
C_ C_ 0.664229 0.0940434 0.0706472 0.02923
C_ C_ 0.644433 0.0924211 0.0187729 -0.15533
C_ C_ 0.676182 0.0966851 0.979425 0.02923
C_ C_ 0.652615 0.103849 0.434508 0.69207
C_ C_ 0.650348 0.0966759 0.166447 0.69661
C_ C_ 0.873069 0.386414 0.388427 -0.30787
C_ C_ 0.624987 0.105276 0.110864 -0.30787
N_ N_ 0.647939 0.0595653 0.318858 -0.32189
N_ N_ 0.553607 0.135727 0.320054 -0.32189
N_ N_ 0.601745 0.318 0.0524974 -0.32189
N_ N_ 0.691354 0.305659 0.133275 -0.32189
N_ N_ 0.859279 0.448816 0.200977 -0.32189
N_ N_ 0.947571 0.362335 0.188283 -0.32189
N_ N_ 0.891147 0.198207 0.446039 -0.32189
N_ N_ 0.805914 0.180332 0.352599 -0.32189
O_ O_ 0.00832193 0.0911511 0.400138 -0.63271
O_ O_ 0.549451 0.0306844 0.345016 -0.57982
O_ O_ 0.894586 0.0959989 0.349867 -0.63271
O_ O_ 0.879916 0.0970486 0.432565 -0.57982
O_ O_ 0.746528 0.391626 0.0985682 -0.63271
O_ O_ 0.70738 0.341653 0.0375233 -0.57982
O_ O_ 0.850495 0.349135 0.102402 -0.63271
O_ O_ 0.881342 0.424614 0.0972367 -0.57982
O_ O_ 0.496183 0.405054 0.102482 -0.63271
O_ O_ 0.953586 0.468132 0.160585 -0.57982
O_ O_ 0.600638 0.401234 0.146363 -0.63271
O_ O_ 0.639075 0.409184 0.0747277 -0.57982
O_ O_ 0.769092 0.0880964 0.414477 -0.63271
O_ O_ 0.78807 0.159213 0.46174 -0.57982
O_ O_ 0.655558 0.143819 0.406823 -0.63271
O_ O_ 0.619112 0.0736661 0.416668 -0.57982
F_ F_ 0.917921 0.323685 0.437108 -0.20885
F_ F_ 0.935843 0.322772 0.353916 -0.20885
F_ F_ 0.867659 0.294143 0.379076 -0.20885
F_ F_ 0.812528 0.430316 0.331073 -0.20885
F_ F_ 0.828069 0.349782 0.307252 -0.20885
F_ F_ 0.88871 0.400283 0.301737 -0.20885
F_ F_ 0.57163 0.168256 0.0643687 -0.20885
F_ F_ 0.579477 0.177055 0.15448 -0.20885
F_ F_ 0.63926 0.192646 0.111062 -0.20885
F_ F_ 0.684755 0.0532826 0.169686 -0.20885
F_ F_ 0.678414 0.133973 0.186038 -0.20885
F_ F_ 0.620152 0.0871799 0.204439 -0.20885
Zn Zn 0.586068 0.082663 0.847779 0.83971
Zn Zn 0.65803 0.355606 0.583833 0.83971
Zn Zn 0.905938 0.419974 0.655006 0.83971
Zn Zn 0.833603 0.157229 0.914114 0.83971
H_ H_ 0.671233 0.124755 0.816934 0.10394
H_ H_ 0.748005 0.0961545 0.7828 0.10394
H_ H_ 0.709631 0.44468 0.78822 0.10394
H_ H_ 0.622209 0.980737 0.806254 0.10394
H_ H_ 0.0260691 0.0957828 0.743766 0.10394
H_ H_ 0.978981 0.170632 0.695266 0.10394
H_ H_ 0.507008 0.264002 0.835598 0.10394
H_ H_ 0.565801 0.196708 0.874527 0.10394
H_ H_ 0.53009 0.453096 0.868193 0.10394
H_ H_ 0.976172 0.3811 0.88151 0.10394
H_ H_ 0.852673 0.494464 0.900304 0.10394
H_ H_ 0.589126 0.290455 0.632931 0.10394
H_ H_ 0.004335 0.268674 0.601111 0.10394
H_ H_ 0.546633 0.277955 0.939083 0.10394
H_ H_ 0.609558 0.337377 0.487513 0.10394
H_ H_ 0.723431 0.266798 0.592212 0.10394
H_ H_ 0.764517 0.214335 0.664727 0.10394
H_ H_ 0.70085 0.325286 0.771704 0.10394
H_ H_ 0.673349 0.381613 0.69673 0.10394
H_ H_ 0.709549 0.389455 0.951343 0.10394
H_ H_ 0.763397 0.390503 0.882564 0.10394
H_ H_ 0.894325 0.414433 0.995355 0.10394
H_ H_ 0.80787 0.395527 0.662887 0.10394
H_ H_ 0.732356 0.437899 0.703748 0.10394
H_ H_ 0.828708 0.0466171 0.781493 0.10394
H_ H_ 0.903192 0.503098 0.731635 0.10394
H_ H_ 0.512475 0.358 0.664328 0.10394
H_ H_ 0.550993 0.282493 0.710672 0.10394
H_ H_ 0.903047 0.245439 0.719778 0.10394
H_ H_ 0.86129 0.328488 0.691711 0.10394
H_ H_ 0.963384 0.0591808 0.60369 0.10394
H_ H_ 0.525888 0.120629 0.619885 0.10394
H_ H_ 0.64923 0.00376445 0.594239 0.10394
H_ H_ 0.92994 0.163746 0.885823 0.10394
H_ H_ 0.515549 0.196364 0.943452 0.10394
H_ H_ 0.921167 0.264409 0.557591 0.10394
H_ H_ 0.845908 0.236951 0.000679668 0.10394
H_ H_ 0.728194 0.19546 0.881067 0.10394
H_ H_ 0.686763 0.242707 0.809968 0.10394
H_ H_ 0.833038 0.218929 0.743789 0.10394
H_ H_ 0.871803 0.182343 0.821301 0.10394
H_ H_ 0.797034 0.104604 0.556953 0.10394
H_ H_ 0.741542 0.0978716 0.624247 0.10394
H_ H_ 0.614437 0.0762897 0.516618 0.10394
C_ C_ 0.675039 0.0866484 0.804562 0.18167
C_ C_ 0.721689 0.0691874 0.788579 -0.15533
C_ C_ 0.731234 0.0162795 0.773036 0.02923
C_ C_ 0.700592 0.485833 0.789075 -0.15533
C_ C_ 0.650159 0.00328678 0.799874 0.18167
C_ C_ 0.53172 0.133757 0.763641 0.18167
C_ C_ 0.000111968 0.17682 0.734943 -0.15533
C_ C_ 0.496765 0.22143 0.761177 0.02923
C_ C_ 0.51741 0.227779 0.813387 -0.15533
C_ C_ 0.544603 0.186764 0.838406 0.18167
C_ C_ 0.504077 0.0450034 0.86258 0.69207
C_ C_ 0.972822 0.507712 0.875853 0.02923
C_ C_ 0.993234 0.456691 0.881519 -0.15533
C_ C_ 0.961 0.420395 0.890273 -0.15533
C_ C_ 0.909394 0.433054 0.894677 0.02923
C_ C_ 0.892196 0.484783 0.896401 -0.15533
C_ C_ 0.922985 0.522057 0.892258 0.02923
C_ C_ 0.88476 0.0715535 0.882026 0.69207
C_ C_ 0.894219 0.336122 0.895869 0.69661
C_ C_ 0.576079 0.292613 0.59405 0.18167
C_ C_ 0.533248 0.269763 0.57376 -0.15533
C_ C_ 0.520494 0.264205 0.51984 0.02923
C_ C_ 0.552416 0.28425 0.979723 -0.15533
C_ C_ 0.59322 0.31219 0.510712 0.18167
C_ C_ 0.717587 0.27771 0.631441 0.18167
C_ C_ 0.739355 0.247786 0.671929 -0.15533
C_ C_ 0.731328 0.264446 0.722476 0.02923
C_ C_ 0.703559 0.311162 0.731047 -0.15533
C_ C_ 0.683876 0.340249 0.689513 0.18167
C_ C_ 0.740679 0.367573 0.546172 0.69207
C_ C_ 0.774547 0.383597 1.011504 0.02923
C_ C_ 0.752008 0.390063 0.961797 -0.15533
C_ C_ 0.782091 0.394006 0.921647 -0.15533
C_ C_ 0.833348 0.400969 0.931889 0.02923
C_ C_ 0.853426 0.406061 0.984708 -0.15533
C_ C_ 0.825849 0.393409 0.0242421 0.02923
C_ C_ 0.850459 0.380854 0.569383 0.69207
C_ C_ 0.847486 0.390429 0.832603 0.69661
C_ C_ 0.810595 0.427765 0.689093 0.18167
C_ C_ 0.770626 0.44915 0.716587 -0.15533
C_ C_ 0.778101 0.493004 0.747374 0.02923
C_ C_ 0.82475 0.0129068 0.757965 -0.15533
C_ C_ 0.863746 0.489401 0.727456 0.18167
C_ C_ 0.983117 0.35233 0.697593 0.18167
C_ C_ 0.509595 0.295907 0.709449 -0.15533
C_ C_ 0.97807 0.270086 0.729919 0.02923
C_ C_ 0.925978 0.273841 0.712109 -0.15533
C_ C_ 0.90402 0.318811 0.690186 0.18167
C_ C_ 0.985339 0.454813 0.625094 0.69207
C_ C_ 0.525429 0.992052 0.618841 0.02923
C_ C_ 0.509646 0.0446194 0.628116 -0.15533
C_ C_ 0.540996 0.0820183 0.618784 -0.15533
C_ C_ 0.59439 0.0676181 0.612182 0.02923
C_ C_ 0.610433 0.0152118 0.603424 -0.15533
C_ C_ 0.576212 0.977292 0.603673 0.02923
C_ C_ 0.595731 0.430823 0.61294 0.69207
C_ C_ 0.611313 0.161785 0.603409 0.69661
C_ C_ 0.928679 0.189145 0.916935 0.18167
C_ C_ 0.972958 0.209446 0.938961 -0.15533
C_ C_ 0.973385 0.236202 -0.01154299999999997 0.02923
C_ C_ 0.925529 0.245112 0.520059 -0.15533
C_ C_ 0.88196 0.227629 0.985104 0.18167
C_ C_ 0.749883 0.201285 0.850912 0.18167
C_ C_ 0.727022 0.230636 0.809446 -0.15533
C_ C_ 0.756451 0.236603 0.767613 0.02923
C_ C_ 0.808733 0.21611 0.772639 -0.15533
C_ C_ 0.829674 0.193358 0.816929 0.18167
C_ C_ 0.75958 0.11892 0.952337 0.69207
C_ C_ 0.732193 0.107275 0.497605 0.02923
C_ C_ 0.756201 0.0988008 0.547831 -0.15533
C_ C_ 0.7255 0.0947707 0.586468 -0.15533
C_ C_ 0.67309 0.0917137 0.574396 0.02923
C_ C_ 0.654132 0.0845854 0.524442 -0.15533
C_ C_ 0.68083 0.0983247 0.485116 0.02923
C_ C_ 0.64776 0.104582 0.929196 0.69207
C_ C_ 0.658304 0.104471 0.670024 0.69661
C_ C_ 0.870058 0.391881 0.888287 -0.30787
C_ C_ 0.633305 0.105797 0.612598 -0.30787
N_ N_ 0.640578 0.0551311 0.80922 -0.32189
N_ N_ 0.549785 0.139363 0.813857 -0.32189
N_ N_ 0.604052 0.314616 0.561557 -0.32189
N_ N_ 0.691131 0.322464 0.64169 -0.32189
N_ N_ 0.856744 0.445448 0.698478 -0.32189
N_ N_ 0.932297 0.357241 0.683198 -0.32189
N_ N_ 0.885977 0.197549 0.93972 -0.32189
N_ N_ 0.800259 0.1855 0.855115 -0.32189
O_ O_ -0.011550999999999978 0.0879183 0.895567 -0.63271
O_ O_ 0.541536 0.0348225 0.832829 -0.57982
O_ O_ 0.88114 0.100095 0.842799 -0.63271
O_ O_ 0.85994 0.0894619 0.920936 -0.57982
O_ O_ 0.742226 0.397444 0.588563 -0.63271
O_ O_ 0.699897 0.344244 0.532168 -0.57982
O_ O_ 0.849523 0.338875 0.592022 -0.63271
O_ O_ 0.872638 0.419334 0.592207 -0.57982
O_ O_ 0.488734 0.412815 0.590781 -0.63271
O_ O_ 0.952067 0.465255 0.658268 -0.57982
O_ O_ 0.58688 0.40128 0.647999 -0.63271
O_ O_ 0.634764 0.416628 0.586829 -0.57982
O_ O_ 0.755373 0.0965781 0.906229 -0.63271
O_ O_ 0.790711 0.154884 0.962821 -0.57982
O_ O_ 0.648995 0.146475 0.904867 -0.63271
O_ O_ 0.616374 0.0723359 0.909619 -0.57982
F_ F_ 0.927462 0.332696 0.940221 -0.20885
F_ F_ 0.92436 0.313853 0.858304 -0.20885
F_ F_ 0.855721 0.304448 0.893741 -0.20885
F_ F_ 0.818768 0.436222 0.825936 -0.20885
F_ F_ 0.817115 0.351081 0.816248 -0.20885
F_ F_ 0.882874 0.393675 0.797786 -0.20885
F_ F_ 0.578834 0.161501 0.558073 -0.20885
F_ F_ 0.581594 0.186068 0.640831 -0.20885
F_ F_ 0.65138 0.192047 0.59799 -0.20885
F_ F_ 0.688832 0.0589687 0.679604 -0.20885
F_ F_ 0.687447 0.144155 0.683425 -0.20885
F_ F_ 0.622062 0.110795 0.702954 -0.20885
Zn Zn 0.586503 0.585787 0.350649 0.83971
Zn Zn 0.657476 0.838239 0.0846807 0.83971
Zn Zn 0.915904 0.915202 0.159928 0.83971
Zn Zn 0.835206 0.649938 0.417723 0.83971
H_ H_ 0.662299 0.632747 0.303227 0.10394
H_ H_ 0.747375 0.603278 0.272849 0.10394
H_ H_ 0.70593 0.945857 0.279246 0.10394
H_ H_ 0.634779 0.483421 0.329175 0.10394
H_ H_ 0.0405126 0.597088 0.245711 0.10394
H_ H_ 1.00307091 0.672684 0.202042 0.10394
H_ H_ 0.529146 0.77133 0.330955 0.10394
H_ H_ 0.557948 0.695958 0.382633 0.10394
H_ H_ 0.528378 0.942966 0.355904 0.10394
H_ H_ 0.978358 0.879622 0.389423 0.10394
H_ H_ 0.850496 0.99598 0.388689 0.10394
H_ H_ 0.580035 0.804394 0.13681 0.10394
H_ H_ 1.0165433 0.760848 0.101022 0.10394
H_ H_ 0.543806 0.782893 0.444728 0.10394
H_ H_ 0.606922 0.824443 0.989221 0.10394
H_ H_ 0.716794 0.741973 0.100696 0.10394
H_ H_ 0.768729 0.700282 0.173447 0.10394
H_ H_ 0.709345 0.834728 0.268736 0.10394
H_ H_ 0.666447 0.871474 0.188846 0.10394
H_ H_ 0.712199 0.891251 0.445038 0.10394
H_ H_ 0.763725 0.899082 0.377096 0.10394
H_ H_ 0.893103 0.913153 0.487781 0.10394
H_ H_ 0.814692 0.894762 0.16493 0.10394
H_ H_ 0.734539 0.94879 0.184112 0.10394
H_ H_ 0.835706 0.550316 0.281736 0.10394
H_ H_ 0.907064 1.0017053 0.244607 0.10394
H_ H_ 0.509673 0.888082 0.1925 0.10394
H_ H_ 0.547149 0.824396 0.258206 0.10394
H_ H_ 0.926139 0.741362 0.219834 0.10394
H_ H_ 0.880782 0.822557 0.187398 0.10394
H_ H_ 0.967842 0.559593 0.133819 0.10394
H_ H_ 0.51839 0.615729 0.0999871 0.10394
H_ H_ 0.650518 0.505645 0.0929693 0.10394
H_ H_ 0.94264 0.647295 0.411179 0.10394
H_ H_ 0.518615 0.692249 0.451976 0.10394
H_ H_ 0.931105 0.790598 0.0506614 0.10394
H_ H_ 0.840081 0.728835 0.503271 0.10394
H_ H_ 0.731423 0.678989 0.374252 0.10394
H_ H_ 0.695058 0.723381 0.294708 0.10394
H_ H_ 0.846956 0.735208 0.259442 0.10394
H_ H_ 0.8808 0.690355 0.33879 0.10394
H_ H_ 0.786649 0.633949 0.0593575 0.10394
H_ H_ 0.738566 0.615217 0.123724 0.10394
H_ H_ 0.615563 0.575891 0.00821725 0.10394
C_ C_ 0.678216 0.594719 0.305964 0.18167
C_ C_ 0.726464 0.575608 0.287403 -0.15533
C_ C_ 0.738197 0.523116 0.28047 0.02923
C_ C_ 0.70041 0.988774 0.285515 -0.15533
C_ C_ 0.656838 0.509033 0.313508 0.18167
C_ C_ 0.534878 0.634384 0.266442 0.18167
C_ C_ 0.0283403 0.679669 0.237523 -0.15533
C_ C_ 0.515318 0.725956 0.260958 0.02923
C_ C_ 0.531329 0.732978 0.312432 -0.15533
C_ C_ 0.549136 0.68923 0.340872 0.18167
C_ C_ 0.507926 0.542102 0.36736 0.69207
C_ C_ 0.976829 0.00679066 0.380911 0.02923
C_ C_ -0.0062670000000000226 0.954859 0.373275 -0.15533
C_ C_ 0.960814 0.918131 0.384859 -0.15533
C_ C_ 0.907649 0.932602 0.386773 0.02923
C_ C_ 0.891271 0.984296 0.389574 -0.15533
C_ C_ 0.926156 0.0216782 0.392405 0.02923
C_ C_ 0.899477 0.564845 0.381217 0.69207
C_ C_ 0.893355 0.834695 0.38589 0.69661
C_ C_ 0.569862 0.793319 0.0974972 0.18167
C_ C_ 0.523539 0.775435 0.0805492 -0.15533
C_ C_ 0.509837 0.769074 0.0266719 0.02923
C_ C_ 0.54644 0.793807 0.485348 -0.15533
C_ C_ 0.586558 0.803661 0.0127809 0.18167
C_ C_ 0.718916 0.761939 0.136804 0.18167
C_ C_ 0.75023 0.739376 0.1782 -0.15533
C_ C_ 0.747319 0.765625 0.226342 0.02923
C_ C_ 0.717269 0.814741 0.230838 -0.15533
C_ C_ 0.690585 0.835257 0.186886 0.18167
C_ C_ 0.747876 0.856473 0.0543551 0.69207
C_ C_ 0.773763 0.88327 0.505275 0.02923
C_ C_ 0.75261 0.883689 0.453173 -0.15533
C_ C_ 0.782718 0.892951 0.414555 -0.15533
C_ C_ 0.833736 0.901254 0.427106 0.02923
C_ C_ 0.854429 0.905719 0.477619 -0.15533
C_ C_ 0.828943 0.888519 0.514841 0.02923
C_ C_ 0.860288 0.881394 0.072124 0.69207
C_ C_ 0.843743 0.892177 0.326636 0.69661
C_ C_ 0.816543 0.931368 0.186969 0.18167
C_ C_ 0.770747 0.959802 0.200139 -0.15533
C_ C_ 0.774999 1.00255882 0.23585 0.02923
C_ C_ 0.827541 0.518526 0.255353 -0.15533
C_ C_ 0.867925 0.993681 0.227274 0.18167
C_ C_ 0.997086 0.860669 0.219046 0.18167
C_ C_ 0.514255 0.815383 0.23119 -0.15533
C_ C_ 0.999236 0.771385 0.236398 0.02923
C_ C_ 0.94691 0.774085 0.216393 -0.15533
C_ C_ 0.919928 0.821919 0.203804 0.18167
C_ C_ 0.992485 0.950847 0.138536 0.69207
C_ C_ 0.528073 0.488941 0.109563 0.02923
C_ C_ 0.505937 0.540603 0.103941 -0.15533
C_ C_ 0.538247 0.577656 0.104676 -0.15533
C_ C_ 0.59143 0.567187 0.103717 0.02923
C_ C_ 0.610479 0.516211 0.0981321 -0.15533
C_ C_ 0.580967 0.476246 0.104062 0.02923
C_ C_ 0.600828 0.923702 0.111506 0.69207
C_ C_ 0.602265 0.664256 0.105953 0.69661
C_ C_ 0.934495 0.67737 0.438326 0.18167
C_ C_ 0.974055 0.70319 0.460689 -0.15533
C_ C_ 0.966196 0.743416 0.496563 0.02923
C_ C_ 0.933395 0.759991 1.0189369 -0.15533
C_ C_ 0.87629 0.727877 0.485346 0.18167
C_ C_ 0.755773 0.697465 0.350624 0.18167
C_ C_ 0.734846 0.722138 0.305702 -0.15533
C_ C_ 0.767469 0.739503 0.274639 0.02923
C_ C_ 0.820284 0.727211 0.285484 -0.15533
C_ C_ 0.839977 0.700949 0.329519 0.18167
C_ C_ 0.7566 0.618557 0.459163 0.69207
C_ C_ 0.732518 0.614557 0.995894 0.02923
C_ C_ 0.749868 0.622549 0.0471896 -0.15533
C_ C_ 0.716785 0.617063 0.084364 -0.15533
C_ C_ 0.667078 0.60296 0.0730482 0.02923
C_ C_ 0.65129 0.592465 0.0200007 -0.15533
C_ C_ 0.680388 0.602856 0.98257 0.02923
C_ C_ 0.641122 0.613543 0.433673 0.69207
C_ C_ 0.651745 0.609314 0.167929 0.69661
C_ C_ 0.868831 0.89244 0.383366 -0.30787
C_ C_ 0.628495 0.608935 0.111605 -0.30787
N_ N_ 0.647517 0.56174 0.320088 -0.32189
N_ N_ 0.554725 0.642075 0.316343 -0.32189
N_ N_ 0.601077 0.802588 0.0622842 -0.32189
N_ N_ 0.691236 0.80787 0.142199 -0.32189
N_ N_ 0.86329 0.950463 0.19816 -0.32189
N_ N_ 0.947177 0.862476 0.199056 -0.32189
N_ N_ 0.885372 0.691261 0.449243 -0.32189
N_ N_ 0.806757 0.688502 0.361949 -0.32189
O_ O_ 0.0133247 0.580894 0.397901 -0.63271
O_ O_ 0.545109 0.53313 0.338043 -0.57982
O_ O_ 0.908286 0.589288 0.340779 -0.63271
O_ O_ 0.86903 0.584481 0.41617 -0.57982
O_ O_ 0.74863 0.886246 0.0940328 -0.63271
O_ O_ 0.708521 0.829118 0.044448 -0.57982
O_ O_ 0.857029 0.844536 0.102096 -0.63271
O_ O_ 0.882265 0.919521 0.0956676 -0.57982
O_ O_ 0.482243 0.912436 0.0884319 -0.63271
O_ O_ 0.95506 0.962209 0.165757 -0.57982
O_ O_ 0.591448 0.893203 0.148372 -0.63271
O_ O_ 0.631467 0.904641 0.0761004 -0.57982
O_ O_ 0.753407 0.591139 0.416092 -0.63271
O_ O_ 0.786563 0.655749 0.463626 -0.57982
O_ O_ 0.645793 0.65153 0.404061 -0.63271
O_ O_ 0.609622 0.580349 0.416678 -0.57982
F_ F_ 0.929213 0.832571 0.428366 -0.20885
F_ F_ 0.921261 0.810896 0.347321 -0.20885
F_ F_ 0.857825 0.801248 0.395159 -0.20885
F_ F_ 0.808307 0.93677 0.317737 -0.20885
F_ F_ 0.818897 0.848833 0.310691 -0.20885
F_ F_ 0.879296 0.890937 0.292327 -0.20885
F_ F_ 0.575768 0.671319 0.0584367 -0.20885
F_ F_ 0.569194 0.678551 0.143313 -0.20885
F_ F_ 0.635774 0.700541 0.108422 -0.20885
F_ F_ 0.690704 0.571391 0.179366 -0.20885
F_ F_ 0.675537 0.652566 0.184222 -0.20885
F_ F_ 0.613058 0.610157 0.201447 -0.20885
Zn Zn 0.592362 0.590222 0.852603 0.83971
Zn Zn 0.661076 0.845647 0.586036 0.83971
Zn Zn 0.910699 0.922328 0.656526 0.83971
Zn Zn 0.845505 0.662089 0.922541 0.83971
H_ H_ 0.671963 0.628601 0.811778 0.10394
H_ H_ 0.747109 0.5937 0.768826 0.10394
H_ H_ 0.707203 0.943584 0.782715 0.10394
H_ H_ 0.63008 0.485829 0.828468 0.10394
H_ H_ 0.0107931 0.602331 0.753213 0.10394
H_ H_ 0.974907 0.67355 0.706964 0.10394
H_ H_ 0.54685 0.777939 0.839682 0.10394
H_ H_ 0.575682 0.701631 0.886735 0.10394
H_ H_ 0.532854 0.945628 0.882888 0.10394
H_ H_ 0.977996 0.879177 0.873262 0.10394
H_ H_ 0.848822 0.985341 0.909808 0.10394
H_ H_ 0.576995 0.804073 0.630575 0.10394
H_ H_ -0.009079999999999977 0.780618 0.591777 0.10394
H_ H_ 0.518957 0.799602 0.955922 0.10394
H_ H_ 0.62262 0.811654 0.487368 0.10394
H_ H_ 0.722065 0.746835 0.602539 0.10394
H_ H_ 0.764744 0.702983 0.676301 0.10394
H_ H_ 0.729373 0.835326 0.770562 0.10394
H_ H_ 0.688344 0.882224 0.694373 0.10394
H_ H_ 0.71467 0.873739 0.959049 0.10394
H_ H_ 0.762917 0.879621 0.882911 0.10394
H_ H_ 0.895212 0.901595 0.984716 0.10394
H_ H_ 0.810438 0.903885 0.658851 0.10394
H_ H_ 0.734342 0.955903 0.687304 0.10394
H_ H_ 0.832279 0.548008 0.773935 0.10394
H_ H_ 0.898748 1.0115298 0.733377 0.10394
H_ H_ 0.514383 0.881663 0.679052 0.10394
H_ H_ 0.555117 0.815643 0.734253 0.10394
H_ H_ 0.915276 0.749543 0.720058 0.10394
H_ H_ 0.876635 0.828651 0.682229 0.10394
H_ H_ 0.96087 0.556727 0.629875 0.10394
H_ H_ 0.509212 0.625068 0.628176 0.10394
H_ H_ 0.635899 0.512102 0.587544 0.10394
H_ H_ 0.942937 0.665732 0.902295 0.10394
H_ H_ 0.512293 0.681951 0.966526 0.10394
H_ H_ 0.907565 0.794078 0.528517 0.10394
H_ H_ 0.852913 0.743493 1.00822643 0.10394
H_ H_ 0.743126 0.711976 0.893614 0.10394
H_ H_ 0.699644 0.754428 0.818034 0.10394
H_ H_ 0.842975 0.714829 0.746871 0.10394
H_ H_ 0.881298 0.684673 0.829046 0.10394
H_ H_ 0.776307 0.633083 0.560632 0.10394
H_ H_ 0.723937 0.61668 0.621902 0.10394
H_ H_ 0.599406 0.58674 0.512043 0.10394
C_ C_ 0.682511 0.587953 0.805781 0.18167
C_ C_ 0.72341 0.568063 0.783126 -0.15533
C_ C_ 0.736713 0.516817 0.777677 0.02923
C_ C_ 0.69705 0.982761 0.782354 -0.15533
C_ C_ 0.656129 0.507859 0.809446 0.18167
C_ C_ 0.526452 0.643926 0.776911 0.18167
C_ C_ 0.0031857 0.680688 0.741074 -0.15533
C_ C_ 0.514006 0.733849 0.771252 0.02923
C_ C_ 0.540621 0.73968 0.820738 -0.15533
C_ C_ 0.558452 0.695655 0.848407 0.18167
C_ C_ 0.504859 0.554924 0.869664 0.69207
C_ C_ 0.959594 0.00727312 0.863917 0.02923
C_ C_ -0.019289 0.955077 0.858197 -0.15533
C_ C_ 0.957949 0.916362 0.875447 -0.15533
C_ C_ 0.907404 0.926017 0.888568 0.02923
C_ C_ 0.886335 0.977686 0.8957 -0.15533
C_ C_ 0.911221 0.0183722 0.881369 0.02923
C_ C_ 0.89587 0.574163 0.891104 0.69207
C_ C_ 0.900167 0.827037 0.888048 0.69661
C_ C_ 0.566856 0.803618 0.58978 0.18167
C_ C_ 0.52425 0.781298 0.569189 -0.15533
C_ C_ 0.512694 0.776915 0.516363 0.02923
C_ C_ 0.537064 0.792578 0.993513 -0.15533
C_ C_ 0.592319 0.808809 0.509039 0.18167
C_ C_ 0.722096 0.768341 0.638464 0.18167
C_ C_ 0.750728 0.743928 0.680787 -0.15533
C_ C_ 0.747621 0.766162 0.72872 0.02923
C_ C_ 0.725583 0.815642 0.732339 -0.15533
C_ C_ 0.703049 0.841687 0.690948 0.18167
C_ C_ 0.740529 0.874478 0.544855 0.69207
C_ C_ 0.778212 0.871079 1.0131362 0.02923
C_ C_ 0.754542 0.868157 0.963006 -0.15533
C_ C_ 0.782756 0.875539 0.921909 -0.15533
C_ C_ 0.835797 0.885368 0.92821 0.02923
C_ C_ 0.85623 0.891199 0.979153 -0.15533
C_ C_ 0.829887 0.884028 0.0219332 0.02923
C_ C_ 0.854173 0.884402 0.568295 0.69207
C_ C_ 0.841113 0.882647 0.832237 0.69661
C_ C_ 0.81323 0.936884 0.683257 0.18167
C_ C_ 0.771086 0.963732 0.702698 -0.15533
C_ C_ 0.775898 0.00043999999999999595 0.743975 0.02923
C_ C_ 0.824993 0.512165 0.75374 -0.15533
C_ C_ 0.8664 0.991624 0.733247 0.18167
C_ C_ 0.993541 0.860463 0.706504 0.18167
C_ C_ 0.515219 0.817708 0.725441 -0.15533
C_ C_ 0.988652 0.774708 0.731611 0.02923
C_ C_ 0.938188 0.779735 0.714742 -0.15533
C_ C_ 0.916589 0.822552 0.690152 0.18167
C_ C_ 0.987922 0.95915 0.623534 0.69207
C_ C_ 0.519403 0.493667 0.622145 0.02923
C_ C_ 0.49828 0.544334 0.626632 -0.15533
C_ C_ 0.526705 0.584359 0.623014 -0.15533
C_ C_ 0.578031 0.574164 0.611421 0.02923
C_ C_ 0.597404 0.522319 0.600371 -0.15533
C_ C_ 0.570898 0.481841 0.612258 0.02923
C_ C_ 0.59905 0.923085 0.603767 0.69207
C_ C_ 0.591174 0.669083 0.618116 0.69661
C_ C_ 0.94045 0.686818 0.937201 0.18167
C_ C_ 0.984368 0.706457 0.959715 -0.15533
C_ C_ 0.980503 0.745974 1.000378541 0.02923
C_ C_ 0.916273 0.757632 0.506391 -0.15533
C_ C_ 0.890134 0.737181 0.995475 0.18167
C_ C_ 0.765506 0.716426 0.863062 0.18167
C_ C_ 0.74028 0.736702 0.818636 -0.15533
C_ C_ 0.770463 0.740425 0.776102 0.02923
C_ C_ 0.820436 0.721306 0.779483 -0.15533
C_ C_ 0.842405 0.69834 0.824314 0.18167
C_ C_ 0.766071 0.623145 0.957098 0.69207
C_ C_ 0.718672 0.6158 0.497759 0.02923
C_ C_ 0.734266 0.628444 0.549875 -0.15533
C_ C_ 0.704929 0.619664 0.586557 -0.15533
C_ C_ 0.653271 0.608759 0.576156 0.02923
C_ C_ 0.636858 0.598389 0.524898 -0.15533
C_ C_ 0.666647 0.610428 0.485794 0.02923
C_ C_ 0.6568 0.604231 0.929772 0.69207
C_ C_ 0.645838 0.606281 0.672714 0.69661
C_ C_ 0.871139 0.884336 0.885227 -0.30787
C_ C_ 0.616157 0.614127 0.618462 -0.30787
N_ N_ 0.648527 0.558402 0.819411 -0.32189
N_ N_ 0.555304 0.648866 0.823343 -0.32189
N_ N_ 0.601364 0.81421 0.560042 -0.32189
N_ N_ 0.700817 0.818201 0.644018 -0.32189
N_ N_ 0.861847 0.949632 0.701389 -0.32189
N_ N_ 0.944542 0.86033 0.684672 -0.32189
N_ N_ 0.894816 0.704649 0.951872 -0.32189
N_ N_ 0.814778 0.696122 0.864425 -0.32189
O_ O_ 1.00387798 0.589502 0.89644 -0.63271
O_ O_ 0.541436 0.546836 0.840051 -0.57982
O_ O_ 0.895665 0.598663 0.849529 -0.63271
O_ O_ 0.878555 0.599411 0.931305 -0.57982
O_ O_ 0.742608 0.901775 0.589014 -0.63271
O_ O_ 0.709282 0.839251 0.537638 -0.57982
O_ O_ 0.849271 0.844604 0.59493 -0.63271
O_ O_ 0.876526 0.92148 0.592281 -0.57982
O_ O_ 0.488989 0.913949 0.591842 -0.63271
O_ O_ 0.957706 0.968947 0.659941 -0.57982
O_ O_ 0.599698 0.896598 0.644798 -0.63271
O_ O_ 0.632931 0.907856 0.573912 -0.57982
O_ O_ 0.764294 0.594787 0.91446 -0.63271
O_ O_ 0.795265 0.660521 0.964717 -0.57982
O_ O_ 0.662739 0.643531 0.903945 -0.63271
O_ O_ 0.617437 0.580715 0.915092 -0.57982
F_ F_ 0.938647 0.821845 0.926026 -0.20885
F_ F_ 0.921548 0.807433 0.843672 -0.20885
F_ F_ 0.866711 0.790426 0.888144 -0.20885
F_ F_ 0.807263 0.925337 0.828264 -0.20885
F_ F_ 0.814296 0.839985 0.820291 -0.20885
F_ F_ 0.872986 0.885381 0.79487 -0.20885
F_ F_ 0.555135 0.671989 0.57587 -0.20885
F_ F_ 0.564969 0.686768 0.659368 -0.20885
F_ F_ 0.624655 0.704207 0.613939 -0.20885
F_ F_ 0.684133 0.567227 0.671641 -0.20885
F_ F_ 0.670385 0.646457 0.692657 -0.20885
F_ F_ 0.614985 0.59846 0.708749 -0.20885
