_cell_length_a 26.508
_cell_length_b 26.37200000322088
_cell_length_c 26.311999743092066
_cell_angle_alpha 93.74100058972084
_cell_angle_beta 96.04100104955006
_cell_angle_gamma 83.6869992558723
_symmetry_space_group_name_H-M         'P 1'
_symmetry_Int_Tables_number            1
loop_
_symmetry_equiv_pos_as_xyz
   'x, y, z'
                         
loop_
_atom_site_label
_atom_site_type_symbol
_atom_site_fract_x 
_atom_site_fract_y
_atom_site_fract_z
_atom_site_charge
Zn Zn 0.0858316 0.0848646 0.344068 0.83971
Zn Zn 0.160637 0.352956 0.0859071 0.83971
Zn Zn 0.408959 0.417677 0.154765 0.83971
Zn Zn 0.34674 0.157056 0.422195 0.83971
H_ H_ 0.171093 0.140216 0.302258 0.10394
H_ H_ 0.244135 0.105313 0.262022 0.10394
H_ H_ 0.21595 0.447529 0.299807 0.10394
H_ H_ 0.12577 0.991922 0.30535 0.10394
H_ H_ 0.518662 0.0952105 0.261009 0.10394
H_ H_ 0.485103 0.164934 0.20643 0.10394
H_ H_ 0.0355701 0.269683 0.328483 0.10394
H_ H_ 0.0710494 0.187649 0.374064 0.10394
H_ H_ 0.0309613 0.444255 0.360484 0.10394
H_ H_ 0.467267 0.375593 0.349423 0.10394
H_ H_ 0.346649 0.490128 0.396974 0.10394
H_ H_ 0.0731792 0.319294 0.133131 0.10394
H_ H_ 0.494078 0.278462 0.101756 0.10394
H_ H_ 0.0447936 0.281852 0.447157 0.10394
H_ H_ 0.124485 0.309326 0.986755 0.10394
H_ H_ 0.214006 0.251614 0.0997196 0.10394
H_ H_ 0.253496 0.201761 0.17486 0.10394
H_ H_ 0.213697 0.334695 0.273279 0.10394
H_ H_ 0.186503 0.381367 0.195115 0.10394
H_ H_ 0.207416 0.388021 0.446588 0.10394
H_ H_ 0.260871 0.398507 0.377923 0.10394
H_ H_ 0.392386 0.408397 0.482864 0.10394
H_ H_ 0.301495 0.400767 0.156645 0.10394
H_ H_ 0.231506 0.452402 0.187134 0.10394
H_ H_ 0.327838 0.0539197 0.265355 0.10394
H_ H_ 0.403706 0.472115 0.254901 0.10394
H_ H_ -0.000339932 0.388882 0.199916 0.10394
H_ H_ 0.0431599 0.310902 0.232601 0.10394
H_ H_ 0.409723 0.239479 0.204415 0.10394
H_ H_ 0.366952 0.32878 0.193272 0.10394
H_ H_ 0.469502 0.0511607 0.134728 0.10394
H_ H_ 0.00937614 0.11836 0.112089 0.10394
H_ H_ 0.139453 0.0162754 0.0824502 0.10394
H_ H_ 0.447183 0.161496 0.407869 0.10394
H_ H_ 0.00651994 0.206173 0.428913 0.10394
H_ H_ 0.404483 0.293188 0.0342996 0.10394
H_ H_ 0.348384 0.247717 0.504752 0.10394
H_ H_ 0.235569 0.191199 0.387927 0.10394
H_ H_ 0.195447 0.237153 0.310919 0.10394
H_ H_ 0.340493 0.237953 0.256572 0.10394
H_ H_ 0.379961 0.193278 0.332266 0.10394
H_ H_ 0.273315 0.138484 0.061923 0.10394
H_ H_ 0.222729 0.113334 0.126407 0.10394
H_ H_ 0.0985837 0.0918425 0.0102816 0.10394
C_ C_ 0.175113 0.100192 0.290084 0.18167
C_ C_ 0.220511 0.0800837 0.271262 -0.15533
C_ C_ 0.232107 0.0275832 0.262602 0.02923
C_ C_ 0.202469 0.487674 0.295609 -0.15533
C_ C_ 0.152074 0.0154466 0.295016 0.18167
C_ C_ 0.0195108 0.135346 0.264851 0.18167
C_ C_ 0.502305 0.174528 0.245023 -0.15533
C_ C_ 0.00291089 0.230398 0.264782 0.02923
C_ C_ 0.0277061 0.232569 0.314716 -0.15533
C_ C_ 0.0479563 0.187586 0.337446 0.18167
C_ C_ 0.00555762 0.0456733 0.367659 0.69207
C_ C_ 0.472663 0.503053 0.378146 0.02923
C_ C_ 0.487727 0.452068 0.366505 -0.15533
C_ C_ 0.453772 0.414278 0.369491 -0.15533
C_ C_ 0.403973 0.425345 0.385764 0.02923
C_ C_ 0.387947 0.478364 0.393162 -0.15533
C_ C_ 0.421165 0.518022 0.39137 0.02923
C_ C_ 0.397316 0.0735003 0.391308 0.69207
C_ C_ 0.393322 0.329733 0.388136 0.69661
C_ C_ 0.0659858 0.308533 0.0925935 0.18167
C_ C_ 0.0235637 0.28448 0.0740396 -0.15533
C_ C_ 0.0165932 0.271341 0.0222825 0.02923
C_ C_ 0.0544034 0.277944 0.487863 -0.15533
C_ C_ 0.0958418 0.304193 0.0119537 0.18167
C_ C_ 0.214475 0.270377 0.136565 0.18167
C_ C_ 0.236475 0.242333 0.179567 -0.15533
C_ C_ 0.23489 0.262941 0.229965 0.02923
C_ C_ 0.216616 0.314472 0.234764 -0.15533
C_ C_ 0.19303 0.340044 0.191943 0.18167
C_ C_ 0.244043 0.376199 0.0472142 0.69207
C_ C_ 0.269927 0.388077 0.505522 0.02923
C_ C_ 0.247468 0.386452 0.455799 -0.15533
C_ C_ 0.277878 0.389094 0.415255 -0.15533
C_ C_ 0.330119 0.395428 0.424823 0.02923
C_ C_ 0.352678 0.400146 0.475306 -0.15533
C_ C_ 0.322194 0.401236 0.515727 0.02923
C_ C_ 0.357706 0.390097 0.0712316 0.69207
C_ C_ 0.340636 0.380005 0.32529 0.69661
C_ C_ 0.306651 0.435568 0.179544 0.18167
C_ C_ 0.267718 0.460664 0.201822 -0.15533
C_ C_ 0.27455 0.496797 0.241815 0.02923
C_ C_ 0.322047 0.0221847 0.23856 -0.15533
C_ C_ 0.366508 0.478805 0.23529 0.18167
C_ C_ 0.489185 0.354159 0.200341 0.18167
C_ C_ 0.00358473 0.313331 0.225134 -0.15533
C_ C_ 0.483399 0.269295 0.230463 0.02923
C_ C_ 0.431051 0.274538 0.214045 -0.15533
C_ C_ 0.407978 0.322397 0.195076 0.18167
C_ C_ 0.48508 0.461938 0.125535 0.69207
C_ C_ 0.0245465 0.990091 0.114837 0.02923
C_ C_ -0.00103127 0.0404867 0.116468 -0.15533
C_ C_ 0.0282754 0.0806249 0.11242 -0.15533
C_ C_ 0.0802619 0.0721383 0.105438 0.02923
C_ C_ 0.100986 0.021767 0.0933983 -0.15533
C_ C_ 0.0752938 0.981184 0.100296 0.02923
C_ C_ 0.0960015 0.430387 0.115151 0.69207
C_ C_ 0.091097 0.168592 0.106391 0.69661
C_ C_ 0.443457 0.184605 0.443037 0.18167
C_ C_ 0.487097 0.208995 0.466262 -0.15533
C_ C_ 0.478847 0.244401 0.506575 0.02923
C_ C_ 0.416877 0.255864 0.0136004 -0.15533
C_ C_ 0.387488 0.237272 0.493181 0.18167
C_ C_ 0.259128 0.196799 0.356959 0.18167
C_ C_ 0.234871 0.224253 0.314392 -0.15533
C_ C_ 0.262178 0.234663 0.275023 0.02923
C_ C_ 0.316823 0.223581 0.283345 -0.15533
C_ C_ 0.337592 0.198452 0.325838 0.18167
C_ C_ 0.264011 0.116947 0.454792 0.69207
C_ C_ 0.222495 0.121172 0.997575 0.02923
C_ C_ 0.238658 0.126191 0.0510489 -0.15533
C_ C_ 0.208444 0.113439 0.0871485 -0.15533
C_ C_ 0.157288 0.105095 0.0732274 0.02923
C_ C_ 0.140601 0.100487 0.022208 -0.15533
C_ C_ 0.172217 0.106972 0.983156 0.02923
C_ C_ 0.15156 0.106368 0.425459 0.69207
C_ C_ 0.140706 0.112545 0.168331 0.69661
C_ C_ 0.365456 0.38352 0.381064 -0.30787
C_ C_ 0.117091 0.113639 0.112018 -0.30787
N_ N_ 0.143854 0.0678392 0.305272 -0.32189
N_ N_ 0.0477337 0.141136 0.310021 -0.32189
N_ N_ 0.103617 0.315937 0.0616647 -0.32189
N_ N_ 0.191668 0.31944 0.144904 -0.32189
N_ N_ 0.355746 0.4429 0.197131 -0.32189
N_ N_ 0.439385 0.355866 0.182109 -0.32189
N_ N_ 0.396394 0.198151 0.456255 -0.32189
N_ N_ 0.309519 0.182557 0.360643 -0.32189
O_ O_ 0.50995 0.0884674 0.404357 -0.63271
O_ O_ 0.0427069 0.0346336 0.337556 -0.57982
O_ O_ 0.392169 0.0980435 0.348515 -0.63271
O_ O_ 0.37543 0.0941892 0.430919 -0.57982
O_ O_ 0.237458 0.418279 0.076095 -0.63271
O_ O_ 0.208949 0.345055 0.0424097 -0.57982
O_ O_ 0.350609 0.352404 0.0979896 -0.63271
O_ O_ 0.382202 0.425874 0.0944106 -0.57982
O_ O_ 0.98851 0.413873 0.107473 -0.63271
O_ O_ 0.447595 0.473534 0.155315 -0.57982
O_ O_ 0.098615 0.40688 0.157392 -0.63271
O_ O_ 0.124643 0.411712 0.0788312 -0.57982
O_ O_ 0.258206 0.0980384 0.407733 -0.63271
O_ O_ 0.295096 0.152522 0.462575 -0.57982
O_ O_ 0.157465 0.147991 0.399199 -0.63271
O_ O_ 0.115561 0.0787619 0.409804 -0.57982
F_ F_ 0.427105 0.33032 0.432106 -0.20885
F_ F_ 0.417501 0.303563 0.348227 -0.20885
F_ F_ 0.358467 0.299719 0.397156 -0.20885
F_ F_ 0.312044 0.425891 0.318814 -0.20885
F_ F_ 0.307214 0.34368 0.315935 -0.20885
F_ F_ 0.377096 0.374132 0.291259 -0.20885
F_ F_ 0.0626748 0.17668 0.0609695 -0.20885
F_ F_ 0.0646848 0.18977 0.148256 -0.20885
F_ F_ 0.125989 0.201865 0.105917 -0.20885
F_ F_ 0.171103 0.0646233 0.173479 -0.20885
F_ F_ 0.165453 0.155218 0.18514 -0.20885
F_ F_ 0.105594 0.10977 0.203376 -0.20885
Zn Zn 0.0881433 0.0823634 0.851025 0.83971
Zn Zn 0.160618 0.341293 0.584893 0.83971
Zn Zn 0.408891 0.416187 0.650432 0.83971
Zn Zn 0.337051 0.15187 0.918716 0.83971
H_ H_ 0.179205 0.131204 0.82497 0.10394
H_ H_ 0.257488 0.0963112 0.783957 0.10394
H_ H_ 0.220013 0.443706 0.804503 0.10394
H_ H_ 0.130018 0.985833 0.820377 0.10394
H_ H_ 0.530933 0.0984228 0.753619 0.10394
H_ H_ 0.498376 0.166758 0.69866 0.10394
H_ H_ 0.0247946 0.268387 0.844226 0.10394
H_ H_ 0.0700095 0.194717 0.889702 0.10394
H_ H_ 0.0348199 0.441807 0.874076 0.10394
H_ H_ 0.48338 0.380215 0.875614 0.10394
H_ H_ 0.359453 0.490339 0.904984 0.10394
H_ H_ 0.0809595 0.300801 0.634328 0.10394
H_ H_ 0.512288 0.276233 0.604317 0.10394
H_ H_ 0.0502698 0.274572 0.950484 0.10394
H_ H_ 0.122155 0.316235 0.489343 0.10394
H_ H_ 0.214234 0.248591 0.599269 0.10394
H_ H_ 0.254843 0.198853 0.679114 0.10394
H_ H_ 0.225963 0.335887 0.76983 0.10394
H_ H_ 0.179761 0.377931 0.695125 0.10394
H_ H_ 0.231542 0.3459 0.951237 0.10394
H_ H_ 0.280991 0.354208 0.883328 0.10394
H_ H_ 0.39445 0.418949 0.991108 0.10394
H_ H_ 0.307062 0.384265 0.677499 0.10394
H_ H_ 0.235665 0.432817 0.710927 0.10394
H_ H_ 0.339227 0.0394829 0.788529 0.10394
H_ H_ 0.400017 0.501939 0.721323 0.10394
H_ H_ 0.0239072 0.373018 0.696747 0.10394
H_ H_ 0.0578448 0.305763 0.746579 0.10394
H_ H_ 0.420191 0.23875 0.707473 0.10394
H_ H_ 0.379006 0.323432 0.676818 0.10394
H_ H_ 0.469384 0.0621464 0.631869 0.10394
H_ H_ 0.0206181 0.115966 0.614254 0.10394
H_ H_ 0.141891 0.0016300000000000203 0.578239 0.10394
H_ H_ 0.4503 0.157012 0.90479 0.10394
H_ H_ 0.0146813 0.18369 0.959636 0.10394
H_ H_ 0.423507 0.284093 0.550418 0.10394
H_ H_ 0.342632 0.230569 0.0041787 0.10394
H_ H_ 0.228847 0.193658 0.88004 0.10394
H_ H_ 0.193197 0.227285 0.794319 0.10394
H_ H_ 0.346615 0.247045 0.768122 0.10394
H_ H_ 0.374967 0.192416 0.832238 0.10394
H_ H_ 0.290342 0.10532 0.553126 0.10394
H_ H_ 0.230289 0.0986714 0.619846 0.10394
H_ H_ 0.103593 0.0935074 0.511349 0.10394
C_ C_ 0.180403 0.0926531 0.804015 0.18167
C_ C_ 0.227085 0.071664 0.78679 -0.15533
C_ C_ 0.235054 0.0189608 0.777661 0.02923
C_ C_ 0.208033 0.485405 0.799371 -0.15533
C_ C_ 0.155568 0.0102841 0.80598 0.18167
C_ C_ 0.0327325 0.13592 0.775856 0.18167
C_ C_ 0.510261 0.175764 0.739423 -0.15533
C_ C_ 0.0105103 0.226027 0.773882 0.02923
C_ C_ 0.0257398 0.231785 0.825101 -0.15533
C_ C_ 0.0455308 0.187855 0.852353 0.18167
C_ C_ 0.00572726 0.0441059 0.872276 0.69207
C_ C_ 0.476538 0.510306 0.879104 0.02923
C_ C_ 0.495956 0.459728 0.873539 -0.15533
C_ C_ 0.468296 0.42005 0.883737 -0.15533
C_ C_ 0.419399 0.429738 0.897455 0.02923
C_ C_ 0.397338 0.481957 0.901455 -0.15533
C_ C_ 0.425649 0.523319 0.892042 0.02923
C_ C_ 0.397605 0.0723986 0.885034 0.69207
C_ C_ 0.409537 0.329394 0.890027 0.69661
C_ C_ 0.0725626 0.293224 0.593066 0.18167
C_ C_ 0.0286516 0.273321 0.573037 -0.15533
C_ C_ 0.0175189 0.267545 0.519587 0.02923
C_ C_ 0.054786 0.27922 0.991381 -0.15533
C_ C_ 0.0987228 0.29862 0.510751 0.18167
C_ C_ 0.221919 0.267011 0.636923 0.18167
C_ C_ 0.241684 0.239314 0.679651 -0.15533
C_ C_ 0.246925 0.26706 0.727009 0.02923
C_ C_ 0.226569 0.31706 0.732804 -0.15533
C_ C_ 0.198213 0.339854 0.690341 0.18167
C_ C_ 0.238999 0.373521 0.545576 0.69207
C_ C_ 0.281115 0.375052 0.00865174 0.02923
C_ C_ 0.266901 0.359411 0.959562 -0.15533
C_ C_ 0.296634 0.368431 0.920573 -0.15533
C_ C_ 0.343799 0.387918 0.930535 0.02923
C_ C_ 0.360171 0.401826 0.981077 -0.15533
C_ C_ 0.329921 0.395158 0.0205183 0.02923
C_ C_ 0.347543 0.397878 0.567666 0.69207
C_ C_ 0.358574 0.390833 0.834282 0.69661
C_ C_ 0.312022 0.424994 0.689527 0.18167
C_ C_ 0.272174 0.449296 0.715626 -0.15533
C_ C_ 0.281034 0.492938 0.748297 0.02923
C_ C_ 0.32784 0.00996521 0.759527 -0.15533
C_ C_ 0.36534 0.487879 0.720279 0.18167
C_ C_ 0.494214 0.357173 0.702693 0.18167
C_ C_ 0.0169121 0.308414 0.732871 -0.15533
C_ C_ 0.492192 0.269443 0.729169 0.02923
C_ C_ 0.441419 0.271697 0.703195 -0.15533
C_ C_ 0.418558 0.316915 0.683173 0.18167
C_ C_ 0.489078 0.456352 0.626251 0.69207
C_ C_ 0.0245604 0.98615 0.618106 0.02923
C_ C_ 0.00350481 0.0385797 0.6179 -0.15533
C_ C_ 0.0351228 0.0772142 0.608992 -0.15533
C_ C_ 0.0860029 0.0643102 0.599993 0.02923
C_ C_ 0.104973 0.0130273 0.593983 -0.15533
C_ C_ 0.0745081 0.972764 0.603033 0.02923
C_ C_ 0.0992362 0.419219 0.609439 0.69207
C_ C_ 0.104193 0.162013 0.605747 0.69661
C_ C_ 0.44058 0.177648 0.94055 0.18167
C_ C_ 0.482082 0.199061 0.968246 -0.15533
C_ C_ 0.469113 0.24126 1.00372476 0.02923
C_ C_ 0.427858 0.260305 0.517699 -0.15533
C_ C_ 0.380252 0.221573 0.994712 0.18167
C_ C_ 0.252895 0.200803 0.852509 0.18167
C_ C_ 0.231893 0.219088 0.803626 -0.15533
C_ C_ 0.265498 0.240995 0.7749 0.02923
C_ C_ 0.31764 0.229677 0.787543 -0.15533
C_ C_ 0.335263 0.203922 0.829803 0.18167
C_ C_ 0.256335 0.131033 0.958046 0.69207
C_ C_ 0.229417 0.111709 0.490828 0.02923
C_ C_ 0.248208 0.108726 0.54259 -0.15533
C_ C_ 0.216582 0.0981367 0.578614 -0.15533
C_ C_ 0.164529 0.097483 0.568413 0.02923
C_ C_ 0.144292 0.0968688 0.516532 -0.15533
C_ C_ 0.174132 0.103904 0.478353 0.02923
C_ C_ 0.146573 0.106826 0.929043 0.69207
C_ C_ 0.148139 0.0967091 0.666966 0.69661
C_ C_ 0.382521 0.385407 0.890543 -0.30787
C_ C_ 0.126608 0.103697 0.610092 -0.30787
N_ N_ 0.145689 0.0614253 0.813157 -0.32189
N_ N_ 0.0511725 0.143046 0.826056 -0.32189
N_ N_ 0.106918 0.303108 0.561665 -0.32189
N_ N_ 0.199373 0.31452 0.644864 -0.32189
N_ N_ 0.356697 0.445408 0.69062 -0.32189
N_ N_ 0.445587 0.356936 0.677995 -0.32189
N_ N_ 0.391573 0.186072 0.954722 -0.32189
N_ N_ 0.30455 0.187237 0.860328 -0.32189
O_ O_ 0.505569 0.0896094 0.888682 -0.63271
O_ O_ 0.0414775 0.0351529 0.841317 -0.57982
O_ O_ 0.395122 0.102256 0.845351 -0.63271
O_ O_ 0.361481 0.0859115 0.914836 -0.57982
O_ O_ 0.245719 0.390302 0.594387 -0.63271
O_ O_ 0.201638 0.34532 0.532554 -0.57982
O_ O_ 0.355764 0.3512 0.584248 -0.63271
O_ O_ 0.375605 0.432739 0.588132 -0.57982
O_ O_ 0.990713 0.40479 0.604522 -0.63271
O_ O_ 0.449315 0.466264 0.651964 -0.57982
O_ O_ 0.0944701 0.391234 0.646219 -0.63271
O_ O_ 0.130134 0.402937 0.574859 -0.57982
O_ O_ 0.252246 0.106277 0.912057 -0.63271
O_ O_ 0.297763 0.156638 0.970079 -0.57982
O_ O_ 0.148206 0.146284 0.90165 -0.63271
O_ O_ 0.109443 0.0789658 0.912859 -0.57982
F_ F_ 0.445876 0.323828 0.929914 -0.20885
F_ F_ 0.436456 0.311686 0.847842 -0.20885
F_ F_ 0.374527 0.294435 0.892224 -0.20885
F_ F_ 0.322394 0.43215 0.83426 -0.20885
F_ F_ 0.331067 0.35017 0.810303 -0.20885
F_ F_ 0.39131 0.399431 0.799364 -0.20885
F_ F_ 0.072085 0.173912 0.558351 -0.20885
F_ F_ 0.0786271 0.179076 0.648982 -0.20885
F_ F_ 0.143361 0.192431 0.603452 -0.20885
F_ F_ 0.182861 0.0542545 0.669955 -0.20885
F_ F_ 0.173015 0.135975 0.686365 -0.20885
F_ F_ 0.109293 0.090548 0.697716 -0.20885
Zn Zn 0.0832527 0.584356 0.348361 0.83971
Zn Zn 0.165118 0.845742 0.0772159 0.83971
Zn Zn 0.413189 0.915689 0.151415 0.83971
Zn Zn 0.34012 0.656275 0.417092 0.83971
H_ H_ 0.155165 0.631884 0.293873 0.10394
H_ H_ 0.240503 0.601062 0.263413 0.10394
H_ H_ 0.203928 0.956366 0.267319 0.10394
H_ H_ 0.135263 0.48031 0.335138 0.10394
H_ H_ 0.527108 0.585834 0.256023 0.10394
H_ H_ 0.484235 0.656884 0.20254 0.10394
H_ H_ 0.0373446 0.765376 0.316311 0.10394
H_ H_ 0.0795047 0.691765 0.359794 0.10394
H_ H_ 0.0276964 0.944903 0.360869 0.10394
H_ H_ 0.473785 0.881033 0.405312 0.10394
H_ H_ 0.346489 0.992461 0.395821 0.10394
H_ H_ 0.0749334 0.807428 0.122331 0.10394
H_ H_ 0.504574 0.771065 0.096498 0.10394
H_ H_ 0.0405629 0.789545 0.441294 0.10394
H_ H_ 0.123097 0.815096 0.974064 0.10394
H_ H_ 0.209457 0.751628 0.0975538 0.10394
H_ H_ 0.24922 0.704518 0.172276 0.10394
H_ H_ 0.214574 0.840185 0.267119 0.10394
H_ H_ 0.184869 0.88474 0.187548 0.10394
H_ H_ 0.209035 0.867332 0.446728 0.10394
H_ H_ 0.257078 0.886887 0.378565 0.10394
H_ H_ 0.38936 0.898135 0.490045 0.10394
H_ H_ 0.308711 0.893891 0.160116 0.10394
H_ H_ 0.236988 0.944671 0.190677 0.10394
H_ H_ 0.332638 0.524187 0.296997 0.10394
H_ H_ 0.403001 0.000415983 0.232573 0.10394
H_ H_ 0.0148787 0.864034 0.169685 0.10394
H_ H_ 0.0515734 0.781338 0.204926 0.10394
H_ H_ 0.407666 0.737311 0.219941 0.10394
H_ H_ 0.363897 0.821745 0.187056 0.10394
H_ H_ 0.47232 0.568379 0.136714 0.10394
H_ H_ 0.0093052 0.619382 0.0858109 0.10394
H_ H_ 0.139952 0.510325 0.0845858 0.10394
H_ H_ 0.446195 0.658319 0.404293 0.10394
H_ H_ 0.0198162 0.684533 0.451296 0.10394
H_ H_ 0.416471 0.786163 0.0462374 0.10394
H_ H_ 0.346447 0.74423 0.506415 0.10394
H_ H_ 0.244285 0.72055 0.397504 0.10394
H_ H_ 0.200934 0.771479 0.326075 0.10394
H_ H_ 0.333265 0.714926 0.242524 0.10394
H_ H_ 0.36774 0.675515 0.318821 0.10394
H_ H_ 0.284724 0.616381 0.0584958 0.10394
H_ H_ 0.221622 0.617023 0.120515 0.10394
H_ H_ 0.107421 0.592323 0.000367244 0.10394
C_ C_ 0.166797 0.589804 0.289321 0.18167
C_ C_ 0.214267 0.572667 0.270802 -0.15533
C_ C_ 0.231962 0.520379 0.271017 0.02923
C_ C_ 0.195424 0.995065 0.272203 -0.15533
C_ C_ 0.157938 0.505702 0.315461 0.18167
C_ C_ 0.014496 0.627916 0.26789 0.18167
C_ C_ 0.506594 0.665907 0.238852 -0.15533
C_ C_ 4.0000000000040004e-05 0.720325 0.257863 0.02923
C_ C_ 0.0297431 0.728987 0.30159 -0.15533
C_ C_ 0.0576805 0.68639 0.324927 0.18167
C_ C_ 0.00610398 0.544015 0.365715 0.69207
C_ C_ 0.47324 0.00586203 0.387287 0.02923
C_ C_ 0.49066 0.954088 0.3881 -0.15533
C_ C_ 0.458424 0.916596 0.394039 -0.15533
C_ C_ 0.405727 0.93023 0.397622 0.02923
C_ C_ 0.387885 0.981816 0.394323 -0.15533
C_ C_ 0.421228 0.0196864 0.395054 0.02923
C_ C_ 0.396918 0.571404 0.38788 0.69207
C_ C_ 0.389511 0.833629 0.379678 0.69661
C_ C_ 0.0688421 0.802901 0.0825566 0.18167
C_ C_ 0.0266616 0.778151 0.0613628 -0.15533
C_ C_ 0.018408 0.769256 0.0094956 0.02923
C_ C_ 0.0460575 0.79218 0.482967 -0.15533
C_ C_ 0.100108 0.802794 0.000920563 0.18167
C_ C_ 0.214246 0.772094 0.13298 0.18167
C_ C_ 0.233302 0.742524 0.177273 -0.15533
C_ C_ 0.235253 0.765899 0.226082 0.02923
C_ C_ 0.216492 0.818747 0.229732 -0.15533
C_ C_ 0.197245 0.845617 0.185738 0.18167
C_ C_ 0.244454 0.863526 0.0432114 0.69207
C_ C_ 0.270998 0.871102 0.505838 0.02923
C_ C_ 0.248457 0.874684 0.456265 -0.15533
C_ C_ 0.275487 0.887457 0.416584 -0.15533
C_ C_ 0.327793 0.896434 0.427875 0.02923
C_ C_ 0.348992 0.893195 0.479601 -0.15533
C_ C_ 0.320757 0.887532 0.519437 0.02923
C_ C_ 0.355137 0.885682 0.0694124 0.69207
C_ C_ 0.339364 0.900326 0.327709 0.69661
C_ C_ 0.312177 0.93039 0.181768 0.18167
C_ C_ 0.270885 0.959235 0.199 -0.15533
C_ C_ 0.273901 1.00427807 0.230709 0.02923
C_ C_ 0.326056 0.50435 0.261955 -0.15533
C_ C_ 0.366362 0.987299 0.225181 0.18167
C_ C_ 0.489432 0.839894 0.185783 0.18167
C_ C_ 0.00952339 0.792423 0.202983 -0.15533
C_ C_ 0.483212 0.761633 0.228101 0.02923
C_ C_ 0.431023 0.767121 0.212323 -0.15533
C_ C_ 0.405845 0.812497 0.18971 0.18167
C_ C_ 0.495805 0.949132 0.124269 0.69207
C_ C_ 0.01906 0.497428 0.120688 0.02923
C_ C_ -0.003754000000000035 0.545365 0.103259 -0.15533
C_ C_ 0.029449 0.582297 0.0952095 -0.15533
C_ C_ 0.0829633 0.572155 0.0974712 0.02923
C_ C_ 0.102478 0.521918 0.100753 -0.15533
C_ C_ 0.0726493 0.484692 0.115991 0.02923
C_ C_ 0.103171 0.92765 0.102015 0.69207
C_ C_ 0.0931181 0.669036 0.0983776 0.69661
C_ C_ 0.437245 0.686933 0.43439 0.18167
C_ C_ 0.477256 0.711536 0.456933 -0.15533
C_ C_ 0.472848 0.744671 0.499861 0.02923
C_ C_ 0.423338 0.759619 0.0119691 -0.15533
C_ C_ 0.382909 0.730848 0.492312 0.18167
C_ C_ 0.259174 0.715937 0.360203 0.18167
C_ C_ 0.235991 0.745478 0.319181 -0.15533
C_ C_ 0.259224 0.738651 0.273664 0.02923
C_ C_ 0.307188 0.710405 0.272231 -0.15533
C_ C_ 0.329062 0.686993 0.315562 0.18167
C_ C_ 0.253677 0.626834 0.446626 0.69207
C_ C_ 0.228853 0.614399 0.991887 0.02923
C_ C_ 0.245515 0.612145 0.0447392 -0.15533
C_ C_ 0.211126 0.609607 0.0796712 -0.15533
C_ C_ 0.160069 0.606349 0.0664376 0.02923
C_ C_ 0.146131 0.59551 0.013284 -0.15533
C_ C_ 0.178128 0.606086 0.974465 0.02923
C_ C_ 0.143952 0.608391 0.427133 0.69207
C_ C_ 0.137715 0.614587 0.164103 0.69661
C_ C_ 0.365853 0.89072 0.384367 -0.30787
C_ C_ 0.119801 0.615186 0.106065 -0.30787
N_ N_ 0.142526 0.556129 0.314483 -0.32189
N_ N_ 0.0492271 0.637914 0.306885 -0.32189
N_ N_ 0.105619 0.813521 0.0527292 -0.32189
N_ N_ 0.194988 0.820646 0.138473 -0.32189
N_ N_ 0.359423 0.947287 0.192529 -0.32189
N_ N_ 0.436758 0.849398 0.179539 -0.32189
N_ N_ 0.390104 0.696101 0.452301 -0.32189
N_ N_ 0.305547 0.689148 0.356719 -0.32189
O_ O_ 0.507621 0.582991 0.399437 -0.63271
O_ O_ 0.0410297 0.535755 0.334275 -0.57982
O_ O_ 0.401256 0.598852 0.349245 -0.63271
O_ O_ 0.367722 0.591528 0.423535 -0.57982
O_ O_ 0.244869 0.89205 0.0858437 -0.63271
O_ O_ 0.209204 0.831683 0.0328174 -0.57982
O_ O_ 0.357211 0.846464 0.0994637 -0.63271
O_ O_ 0.382422 0.922898 0.0854513 -0.57982
O_ O_ 0.992897 0.907235 0.0891195 -0.63271
O_ O_ 0.466131 0.953599 0.160614 -0.57982
O_ O_ 0.0998192 0.896114 0.13954 -0.63271
O_ O_ 0.137433 0.912561 0.0686105 -0.57982
O_ O_ 0.249491 0.605336 0.400358 -0.63271
O_ O_ 0.290162 0.657327 0.460445 -0.57982
O_ O_ 0.145692 0.64815 0.400469 -0.63271
O_ O_ 0.108599 0.577775 0.412225 -0.57982
F_ F_ 0.418373 0.819228 0.423656 -0.20885
F_ F_ 0.415768 0.81956 0.336343 -0.20885
F_ F_ 0.352443 0.801299 0.378397 -0.20885
F_ F_ 0.305844 0.946644 0.323946 -0.20885
F_ F_ 0.305851 0.864811 0.308472 -0.20885
F_ F_ 0.375908 0.897847 0.291818 -0.20885
F_ F_ 0.0646704 0.671864 0.0514409 -0.20885
F_ F_ 0.0585427 0.681627 0.1341 -0.20885
F_ F_ 0.12801 0.702025 0.0992972 -0.20885
F_ F_ 0.169264 0.57018 0.173313 -0.20885
F_ F_ 0.165739 0.654657 0.181358 -0.20885
F_ F_ 0.0989806 0.615181 0.197799 -0.20885
Zn Zn 0.0872874 0.57985 0.845141 0.83971
Zn Zn 0.163903 0.844545 0.588052 0.83971
Zn Zn 0.408896 0.918046 0.65553 0.83971
Zn Zn 0.34263 0.657663 0.920224 0.83971
H_ H_ 0.162748 0.625231 0.791575 0.10394
H_ H_ 0.25066 0.594481 0.771631 0.10394
H_ H_ 0.206237 0.948593 0.782645 0.10394
H_ H_ 0.14011 0.484373 0.84088 0.10394
H_ H_ 0.533608 0.59784 0.752897 0.10394
H_ H_ 0.476741 0.665986 0.71074 0.10394
H_ H_ 0.0481918 0.76177 0.822549 0.10394
H_ H_ 0.0815458 0.695309 0.868852 0.10394
H_ H_ 0.0294678 0.942041 0.860436 0.10394
H_ H_ 0.476804 0.8769 0.858566 0.10394
H_ H_ 0.35549 0.985748 0.897103 0.10394
H_ H_ 0.0764421 0.80621 0.630289 0.10394
H_ H_ 0.499919 0.771321 0.598904 0.10394
H_ H_ 0.0436363 0.784946 0.938205 0.10394
H_ H_ 0.117704 0.820782 0.479541 0.10394
H_ H_ 0.208933 0.752097 0.606047 0.10394
H_ H_ 0.250752 0.703089 0.675922 0.10394
H_ H_ 0.200545 0.833255 0.774143 0.10394
H_ H_ 0.173775 0.879931 0.699076 0.10394
H_ H_ 0.218598 0.856126 0.944636 0.10394
H_ H_ 0.270144 0.867526 0.876854 0.10394
H_ H_ 0.396784 0.901278 0.986291 0.10394
H_ H_ 0.301553 0.904906 0.656763 0.10394
H_ H_ 0.231035 0.954177 0.697452 0.10394
H_ H_ 0.338743 0.547153 0.771787 0.10394
H_ H_ 0.407122 -0.005691000000000002 0.739933 0.10394
H_ H_ 0.0124838 0.8765 0.693087 0.10394
H_ H_ 0.0555543 0.7938 0.71731 0.10394
H_ H_ 0.401548 0.747647 0.721037 0.10394
H_ H_ 0.367254 0.825183 0.683653 0.10394
H_ H_ 0.464865 0.557588 0.622897 0.10394
H_ H_ 0.0292006 0.615428 0.636458 0.10394
H_ H_ 0.145331 0.502542 0.59033 0.10394
H_ H_ 0.443147 0.671299 0.891606 0.10394
H_ H_ 0.0182691 0.688081 0.940242 0.10394
H_ H_ 0.416434 0.78852 0.53932 0.10394
H_ H_ 0.342897 0.74921 -0.00837600000000005 0.10394
H_ H_ 0.239653 0.699235 0.892206 0.10394
H_ H_ 0.196 0.754443 0.827174 0.10394
H_ H_ 0.325697 0.70883 0.740132 0.10394
H_ H_ 0.37431 0.679364 0.81441 0.10394
H_ H_ 0.287501 0.603742 0.542773 0.10394
H_ H_ 0.238476 0.596953 0.613785 0.10394
H_ H_ 0.100795 0.595642 0.511892 0.10394
C_ C_ 0.176966 0.587812 0.798883 0.18167
C_ C_ 0.225622 0.567884 0.78572 -0.15533
C_ C_ 0.240707 0.516255 0.782149 0.02923
C_ C_ 0.20079 0.988654 0.791193 -0.15533
C_ C_ 0.158916 0.505151 0.814122 0.18167
C_ C_ 0.0176931 0.628911 0.774039 0.18167
C_ C_ 0.500098 0.675769 0.746253 -0.15533
C_ C_ 0.0126577 0.717562 0.758044 0.02923
C_ C_ 0.0408783 0.725068 0.804247 -0.15533
C_ C_ 0.0579185 0.686248 0.833624 0.18167
C_ C_ 0.00649527 0.541302 0.867735 0.69207
C_ C_ 0.473583 0.00687247 0.865416 0.02923
C_ C_ 0.494341 0.95558 0.860833 -0.15533
C_ C_ 0.462374 0.917247 0.864654 -0.15533
C_ C_ 0.413307 0.925687 0.883493 0.02923
C_ C_ 0.395978 0.976938 0.894668 -0.15533
C_ C_ 0.422838 0.0163896 0.880868 0.02923
C_ C_ 0.397059 0.57515 0.887882 0.69207
C_ C_ 0.402464 0.824882 0.884214 0.69661
C_ C_ 0.0717809 0.798152 0.589171 0.18167
C_ C_ 0.0279356 0.778893 0.568863 -0.15533
C_ C_ 0.0148755 0.773107 0.517202 0.02923
C_ C_ 0.0522124 0.785936 0.978163 -0.15533
C_ C_ 0.091884 0.811941 0.507356 0.18167
C_ C_ 0.206429 0.766317 0.644101 0.18167
C_ C_ 0.231235 0.740108 0.682335 -0.15533
C_ C_ 0.230646 0.762138 0.733742 0.02923
C_ C_ 0.20517 0.813452 0.739368 -0.15533
C_ C_ 0.186775 0.84039 0.696674 0.18167
C_ C_ 0.239515 0.861999 0.547788 0.69207
C_ C_ 0.279757 0.871094 0.0039285 0.02923
C_ C_ 0.260656 0.863547 0.952468 -0.15533
C_ C_ 0.287513 0.876103 0.914572 -0.15533
C_ C_ 0.339352 0.891109 0.923577 0.02923
C_ C_ 0.359451 0.891426 0.975017 -0.15533
C_ C_ 0.332713 0.880833 0.0168792 0.02923
C_ C_ 0.350481 0.887941 0.571881 0.69207
C_ C_ 0.349741 0.880741 0.82807 0.69661
C_ C_ 0.309063 0.932863 0.685721 0.18167
C_ C_ 0.269923 0.959178 0.710946 -0.15533
C_ C_ 0.277853 0.995808 0.749712 0.02923
C_ C_ 0.326269 0.515005 0.746672 -0.15533
C_ C_ 0.367395 0.981966 0.733454 0.18167
C_ C_ 0.489279 0.853366 0.700374 0.18167
C_ C_ 0.0164639 0.801301 0.718831 -0.15533
C_ C_ 0.479768 0.772005 0.734228 0.02923
C_ C_ 0.427123 0.778047 0.718276 -0.15533
C_ C_ 0.407866 0.820945 0.69516 0.18167
C_ C_ 0.48618 0.960313 0.624768 0.69207
C_ C_ 0.0240718 0.488208 0.619391 0.02923
C_ C_ 1.0075201 0.540776 0.62124 -0.15533
C_ C_ 0.0387139 0.57868 0.616264 -0.15533
C_ C_ 0.0888301 0.564524 0.606766 0.02923
C_ C_ 0.105168 0.512749 0.598906 -0.15533
C_ C_ 0.0764584 0.473993 0.60985 0.02923
C_ C_ 0.101491 0.921282 0.609933 0.69207
C_ C_ 0.102703 0.660335 0.608961 0.69661
C_ C_ 0.439161 0.695277 0.927375 0.18167
C_ C_ 0.47851 0.718087 0.951308 -0.15533
C_ C_ 0.472956 0.749103 -0.006018999999999997 0.02923
C_ C_ 0.423534 0.757554 0.514102 -0.15533
C_ C_ 0.383665 0.733092 0.986423 0.18167
C_ C_ 0.260617 0.707293 0.86167 0.18167
C_ C_ 0.235883 0.737149 0.825429 -0.15533
C_ C_ 0.256379 0.736602 0.778155 0.02923
C_ C_ 0.306894 0.711452 0.775285 -0.15533
C_ C_ 0.333748 0.691256 0.817467 0.18167
C_ C_ 0.263886 0.626355 0.954132 0.69207
C_ C_ 0.224294 0.605984 0.486662 0.02923
C_ C_ 0.247574 0.600701 0.535233 -0.15533
C_ C_ 0.218136 0.597755 0.577365 -0.15533
C_ C_ 0.16468 0.595658 0.568773 0.02923
C_ C_ 0.142417 0.598205 0.519337 -0.15533
C_ C_ 0.171149 0.605173 0.477766 0.02923
C_ C_ 0.153525 0.606799 0.919247 0.69207
C_ C_ 0.156037 0.599813 0.66651 0.69661
C_ C_ 0.377014 0.881632 0.882503 -0.30787
C_ C_ 0.128003 0.604885 0.611677 -0.30787
N_ N_ 0.143829 0.555378 0.811414 -0.32189
N_ N_ 0.0489761 0.638671 0.818429 -0.32189
N_ N_ 0.104765 0.812698 0.558541 -0.32189
N_ N_ 0.189184 0.816004 0.650907 -0.32189
N_ N_ 0.356391 0.949287 0.694996 -0.32189
N_ N_ 0.43867 0.85683 0.684233 -0.32189
N_ N_ 0.391512 0.703044 0.942971 -0.32189
N_ N_ 0.310221 0.687306 0.859517 -0.32189
O_ O_ 0.499343 0.596968 0.893144 -0.63271
O_ O_ 0.0456383 0.52661 0.843636 -0.57982
O_ O_ 0.388369 0.598505 0.842691 -0.63271
O_ O_ 0.384126 0.599642 0.930471 -0.57982
O_ O_ 0.244733 0.886523 0.593163 -0.63271
O_ O_ 0.20081 0.835572 0.536908 -0.57982
O_ O_ 0.358969 0.845809 0.595416 -0.63271
O_ O_ 0.374693 0.925432 0.59134 -0.57982
O_ O_ 0.987812 0.907149 0.593842 -0.63271
O_ O_ 0.455738 0.965033 0.662792 -0.57982
O_ O_ 0.0930749 0.894341 0.649802 -0.63271
O_ O_ 0.141999 0.907146 0.587213 -0.57982
O_ O_ 0.263582 0.598925 0.91143 -0.63271
O_ O_ 0.300351 0.655626 0.969476 -0.57982
O_ O_ 0.155027 0.646806 0.891324 -0.63271
O_ O_ 0.117399 0.576328 0.904788 -0.57982
F_ F_ 0.440751 0.825686 0.924822 -0.20885
F_ F_ 0.425548 0.804164 0.84075 -0.20885
F_ F_ 0.366581 0.790521 0.894468 -0.20885
F_ F_ 0.310641 0.92 0.822714 -0.20885
F_ F_ 0.324703 0.83719 0.808615 -0.20885
F_ F_ 0.379344 0.883464 0.789031 -0.20885
F_ F_ 0.0614044 0.665091 0.571435 -0.20885
F_ F_ 0.0849813 0.684085 0.65438 -0.20885
F_ F_ 0.13342 0.693035 0.596547 -0.20885
F_ F_ 0.180564 0.55129 0.676336 -0.20885
F_ F_ 0.187303 0.637489 0.68483 -0.20885
F_ F_ 0.120693 0.609107 0.702161 -0.20885
Zn Zn 0.592377 0.0835438 0.350146 0.83971
Zn Zn 0.652161 0.350817 0.0878854 0.83971
Zn Zn 0.904141 0.418619 0.156996 0.83971
Zn Zn 0.841135 0.152084 0.416582 0.83971
H_ H_ 0.665363 0.130416 0.306133 0.10394
H_ H_ 0.756783 0.0972699 0.28483 0.10394
H_ H_ 0.712081 0.442309 0.288779 0.10394
H_ H_ 0.626634 0.981833 0.304406 0.10394
H_ H_ 0.0112076 0.101882 0.245365 0.10394
H_ H_ 0.988207 0.177613 0.199169 0.10394
H_ H_ 0.526124 0.273097 0.328706 0.10394
H_ H_ 0.569783 0.19559 0.377417 0.10394
H_ H_ 0.524883 0.439581 0.352266 0.10394
H_ H_ 0.981839 0.374201 0.374079 0.10394
H_ H_ 0.855998 0.480824 0.411893 0.10394
H_ H_ 0.575445 0.313497 0.135601 0.10394
H_ H_ 0.9949388 0.277898 0.0984333 0.10394
H_ H_ 0.534387 0.29853 0.449911 0.10394
H_ H_ 0.619863 0.311486 0.987074 0.10394
H_ H_ 0.720031 0.264024 0.0999643 0.10394
H_ H_ 0.751135 0.212243 0.176127 0.10394
H_ H_ 0.69819 0.334831 0.275908 0.10394
H_ H_ 0.669127 0.388625 0.202322 0.10394
H_ H_ 0.719898 0.382421 0.446424 0.10394
H_ H_ 0.772573 0.386736 0.380773 0.10394
H_ H_ 0.903283 0.393847 0.493221 0.10394
H_ H_ 0.798647 0.40163 0.154431 0.10394
H_ H_ 0.721465 0.448473 0.188764 0.10394
H_ H_ 0.836203 0.0371932 0.283835 0.10394
H_ H_ 0.892461 0.511393 0.22731 0.10394
H_ H_ 0.512672 0.382611 0.194118 0.10394
H_ H_ 0.553729 0.300977 0.223989 0.10394
H_ H_ 0.90067 0.245477 0.22052 0.10394
H_ H_ 0.863916 0.322356 0.173278 0.10394
H_ H_ 0.960712 0.0457647 0.131726 0.10394
H_ H_ 0.517551 0.117977 0.125713 0.10394
H_ H_ 0.645757 0.00933869 0.089947 0.10394
H_ H_ 0.932794 0.163319 0.390463 0.10394
H_ H_ 0.525972 0.192712 0.462437 0.10394
H_ H_ 0.913719 0.289177 0.0413617 0.10394
H_ H_ 0.843871 0.234691 0.498458 0.10394
H_ H_ 0.7377 0.195919 0.389155 0.10394
H_ H_ 0.688557 0.243146 0.317341 0.10394
H_ H_ 0.82588 0.23585 0.247844 0.10394
H_ H_ 0.871771 0.182917 0.320948 0.10394
H_ H_ 0.793293 0.0997291 0.0564193 0.10394
H_ H_ 0.73337 0.100429 0.121828 0.10394
H_ H_ 0.606696 0.100163 0.00822391 0.10394
C_ C_ 0.679276 0.0900262 0.301844 0.18167
C_ C_ 0.726963 0.0719996 0.284337 -0.15533
C_ C_ 0.736643 0.0218491 0.267661 0.02923
C_ C_ 0.701628 0.482267 0.289398 -0.15533
C_ C_ 0.657996 0.00517369 0.304207 0.18167
C_ C_ 0.525458 0.134588 0.274275 0.18167
C_ C_ -0.0009149999999999991 0.18089 0.241065 -0.15533
C_ C_ 0.506053 0.225323 0.262876 0.02923
C_ C_ 0.532234 0.235049 0.311159 -0.15533
C_ C_ 0.556482 0.19331 0.337468 0.18167
C_ C_ 0.511718 0.0437019 0.380255 0.69207
C_ C_ 0.969822 0.505436 0.372744 0.02923
C_ C_ 0.99177 0.455062 0.37334 -0.15533
C_ C_ 0.964935 0.412203 0.382103 -0.15533
C_ C_ 0.915104 0.420901 0.39339 0.02923
C_ C_ 0.894143 0.473802 0.403514 -0.15533
C_ C_ 0.920015 0.516019 0.391099 0.02923
C_ C_ 0.890163 0.0687731 0.381509 0.69207
C_ C_ 0.905924 0.322541 0.381917 0.69661
C_ C_ 0.561985 0.309997 0.0950003 0.18167
C_ C_ 0.518737 0.289402 0.0750584 -0.15533
C_ C_ 0.509435 0.277634 0.0220342 0.02923
C_ C_ 0.545072 0.299492 0.488324 -0.15533
C_ C_ 0.591706 0.307311 0.0113939 0.18167
C_ C_ 0.715184 0.279981 0.139922 0.18167
C_ C_ 0.734284 0.249515 0.182533 -0.15533
C_ C_ 0.728162 0.270061 0.232894 0.02923
C_ C_ 0.705379 0.320279 0.239334 -0.15533
C_ C_ 0.680344 0.346997 0.196224 0.18167
C_ C_ 0.734148 0.376915 0.0418934 0.69207
C_ C_ 0.779647 0.384473 0.509669 0.02923
C_ C_ 0.760239 0.380883 0.458107 -0.15533
C_ C_ 0.789846 0.382366 0.418614 -0.15533
C_ C_ 0.842654 0.386567 0.428997 0.02923
C_ C_ 0.862678 0.390853 0.479917 -0.15533
C_ C_ 0.833268 0.385938 0.519328 0.02923
C_ C_ 0.845964 0.386014 0.0694027 0.69207
C_ C_ 0.854751 0.386469 0.330981 0.69661
C_ C_ 0.803222 0.431359 0.181888 0.18167
C_ C_ 0.761328 0.455117 0.202935 -0.15533
C_ C_ 0.769916 0.496343 0.239725 0.02923
C_ C_ 0.829476 0.0153363 0.249289 -0.15533
C_ C_ 0.858021 0.489706 0.22624 0.18167
C_ C_ 0.978275 0.357077 0.203254 0.18167
C_ C_ 0.513601 0.309071 0.223139 -0.15533
C_ C_ 0.976328 0.274547 0.238022 0.02923
C_ C_ 0.926079 0.276727 0.219004 -0.15533
C_ C_ 0.902313 0.318116 0.190756 0.18167
C_ C_ 0.984878 0.458694 0.128171 0.69207
C_ C_ 0.529066 0.989159 0.119078 0.02923
C_ C_ 0.506607 0.0402005 0.122929 -0.15533
C_ C_ 0.534663 0.0803886 0.11802 -0.15533
C_ C_ 0.586024 0.0704379 0.104038 0.02923
C_ C_ 0.606406 0.0188893 0.0976179 -0.15533
C_ C_ 0.57854 0.977214 0.10365 0.02923
C_ C_ 0.59312 0.428521 0.107778 0.69207
C_ C_ 0.601009 0.169866 0.108932 0.69661
C_ C_ 0.931126 0.187941 0.425662 0.18167
C_ C_ 0.97544 0.20905 0.448382 -0.15533
C_ C_ 0.971985 0.244007 0.492199 0.02923
C_ C_ 0.920641 0.26068 0.013057 -0.15533
C_ C_ 0.880908 0.231303 0.485038 0.18167
C_ C_ 0.755263 0.203885 0.357548 0.18167
C_ C_ 0.728743 0.230616 0.317165 -0.15533
C_ C_ 0.754626 0.240646 0.276297 0.02923
C_ C_ 0.806466 0.22477 0.276608 -0.15533
C_ C_ 0.832354 0.199025 0.318219 0.18167
C_ C_ 0.762873 0.118836 0.454212 0.69207
C_ C_ 0.731278 0.118059 0.994732 0.02923
C_ C_ 0.749903 0.107866 0.0458583 -0.15533
C_ C_ 0.715852 0.105715 0.0830902 -0.15533
C_ C_ 0.662529 0.108172 0.0710116 0.02923
C_ C_ 0.645527 0.108274 0.0193195 -0.15533
C_ C_ 0.677129 0.115303 0.980545 0.02923
C_ C_ 0.651092 0.11018 0.428554 0.69207
C_ C_ 0.64751 0.109537 0.167242 0.69661
C_ C_ 0.878957 0.377703 0.385701 -0.30787
C_ C_ 0.621033 0.1141 0.111646 -0.30787
N_ N_ 0.648492 0.0566495 0.312687 -0.32189
N_ N_ 0.55529 0.143894 0.31737 -0.32189
N_ N_ 0.5975 0.317364 0.0633664 -0.32189
N_ N_ 0.687162 0.325241 0.146899 -0.32189
N_ N_ 0.85168 0.448506 0.194034 -0.32189
N_ N_ 0.928322 0.358332 0.184492 -0.32189
N_ N_ 0.888098 0.195679 0.446644 -0.32189
N_ N_ 0.80555 0.185523 0.355609 -0.32189
O_ O_ 0.00285558 0.0883631 0.395889 -0.63271
O_ O_ 0.543856 0.0336553 0.345129 -0.57982
O_ O_ 0.887304 0.0963619 0.343527 -0.63271
O_ O_ 0.866992 0.0866355 0.422089 -0.57982
O_ O_ 0.734607 0.411907 0.0802917 -0.63271
O_ O_ 0.700793 0.342546 0.0396954 -0.57982
O_ O_ 0.844542 0.344456 0.093687 -0.63271
O_ O_ 0.874258 0.420462 0.0920374 -0.57982
O_ O_ 0.490613 0.417087 0.102238 -0.63271
O_ O_ 0.946573 0.469669 0.156869 -0.57982
O_ O_ 0.593017 0.404495 0.149958 -0.63271
O_ O_ 0.627366 0.412978 0.0745777 -0.57982
O_ O_ 0.754658 0.0987689 0.408593 -0.63271
O_ O_ 0.796659 0.151378 0.463738 -0.57982
O_ O_ 0.653053 0.146981 0.397352 -0.63271
O_ O_ 0.620914 0.0755589 0.413583 -0.57982
F_ F_ 0.940458 0.309244 0.422337 -0.20885
F_ F_ 0.931563 0.307528 0.339862 -0.20885
F_ F_ 0.86905 0.287921 0.387964 -0.20885
F_ F_ 0.82219 0.430869 0.330315 -0.20885
F_ F_ 0.824712 0.349796 0.315505 -0.20885
F_ F_ 0.886524 0.386869 0.289847 -0.20885
F_ F_ 0.57591 0.17942 0.062044 -0.20885
F_ F_ 0.569448 0.189687 0.142705 -0.20885
F_ F_ 0.639432 0.201906 0.113174 -0.20885
F_ F_ 0.673713 0.0618493 0.175267 -0.20885
F_ F_ 0.684051 0.142888 0.187887 -0.20885
F_ F_ 0.609929 0.117523 0.199247 -0.20885
Zn Zn 0.5901 0.08792 0.847391 0.83971
Zn Zn 0.665317 0.350148 0.58693 0.83971
Zn Zn 0.912057 0.416138 0.658822 0.83971
Zn Zn 0.838318 0.155931 0.91595 0.83971
H_ H_ 0.679046 0.133129 0.815306 0.10394
H_ H_ 0.756317 0.0987627 0.773821 0.10394
H_ H_ 0.709556 0.448328 0.784201 0.10394
H_ H_ 0.633653 0.986987 0.819062 0.10394
H_ H_ 0.0349783 0.0979168 0.760286 0.10394
H_ H_ 0.999265 0.175034 0.709134 0.10394
H_ H_ 0.526624 0.269961 0.828129 0.10394
H_ H_ 0.5667 0.200613 0.877796 0.10394
H_ H_ 0.535088 0.451477 0.864425 0.10394
H_ H_ 0.980743 0.371455 0.879078 0.10394
H_ H_ 0.853808 0.48469 0.913437 0.10394
H_ H_ 0.594537 0.311768 0.629198 0.10394
H_ H_ 0.0030200000000000227 0.264716 0.59797 0.10394
H_ H_ 0.540782 0.280609 0.948577 0.10394
H_ H_ 0.614579 0.331959 0.476922 0.10394
H_ H_ 0.722748 0.252548 0.588131 0.10394
H_ H_ 0.757501 0.196746 0.653996 0.10394
H_ H_ 0.717854 0.316065 0.76484 0.10394
H_ H_ 0.699875 0.375995 0.696779 0.10394
H_ H_ 0.719105 0.358217 0.939344 0.10394
H_ H_ 0.77452 0.365488 0.872501 0.10394
H_ H_ 0.891688 0.404823 0.988815 0.10394
H_ H_ 0.810776 0.402739 0.662538 0.10394
H_ H_ 0.735614 0.449119 0.689928 0.10394
H_ H_ 0.842697 0.0286194 0.797467 0.10394
H_ H_ 0.902578 0.506851 0.738161 0.10394
H_ H_ 0.516115 0.390951 0.706358 0.10394
H_ H_ 0.555566 0.316247 0.748989 0.10394
H_ H_ 0.911037 0.250577 0.737649 0.10394
H_ H_ 0.871796 0.324552 0.690662 0.10394
H_ H_ 0.962145 0.0488882 0.621361 0.10394
H_ H_ 0.519612 0.125007 0.613904 0.10394
H_ H_ 0.648523 0.00496819 0.60853 0.10394
H_ H_ 0.940442 0.160211 0.901203 0.10394
H_ H_ 0.521794 0.189795 0.961966 0.10394
H_ H_ 0.920934 0.28465 0.539868 0.10394
H_ H_ 0.838087 0.249523 -0.00197018 0.10394
H_ H_ 0.734207 0.192746 0.875826 0.10394
H_ H_ 0.693921 0.229623 0.793329 0.10394
H_ H_ 0.84058 0.209186 0.7385 0.10394
H_ H_ 0.88066 0.188735 0.827386 0.10394
H_ H_ 0.789499 0.106016 0.55232 0.10394
H_ H_ 0.73858 0.0964337 0.621786 0.10394
H_ H_ 0.607469 0.101835 0.513065 0.10394
C_ C_ 0.683219 0.0969487 0.801468 0.18167
C_ C_ 0.727909 0.0752197 0.77847 -0.15533
C_ C_ 0.738565 0.0219997 0.771216 0.02923
C_ C_ 0.703649 0.489387 0.793703 -0.15533
C_ C_ 0.65962 0.0113989 0.80513 0.18167
C_ C_ 0.531451 0.135861 0.769579 0.18167
C_ C_ 0.0124828 0.17816 0.74852 -0.15533
C_ C_ 0.513863 0.225925 0.759592 0.02923
C_ C_ 0.533306 0.233338 0.809901 -0.15533
C_ C_ 0.553485 0.192534 0.838742 0.18167
C_ C_ 0.509872 0.0471866 0.86027 0.69207
C_ C_ 0.972944 0.502933 0.879327 0.02923
C_ C_ 0.993941 0.45072 0.880184 -0.15533
C_ C_ 0.964002 0.41131 0.883649 -0.15533
C_ C_ 0.913925 0.424766 0.89679 0.02923
C_ C_ 0.893798 0.477339 0.903924 -0.15533
C_ C_ 0.922829 0.515358 0.889516 0.02923
C_ C_ 0.892398 0.0688421 0.88274 0.69207
C_ C_ 0.898183 0.329381 0.886758 0.69661
C_ C_ 0.578942 0.310526 0.590985 0.18167
C_ C_ 0.532534 0.28927 0.576085 -0.15533
C_ C_ 0.517574 0.28084 0.524639 0.02923
C_ C_ 0.547037 0.285602 0.990659 -0.15533
C_ C_ 0.595379 0.313625 0.503653 0.18167
C_ C_ 0.726237 0.268834 0.625654 0.18167
C_ C_ 0.747626 0.236726 0.664036 -0.15533
C_ C_ 0.74596 0.252659 0.717185 0.02923
C_ C_ 0.724544 0.303577 0.728019 -0.15533
C_ C_ 0.705334 0.33523 0.689227 0.18167
C_ C_ 0.743575 0.385954 0.549192 0.69207
C_ C_ 0.771289 0.379227 1.00247518 0.02923
C_ C_ 0.75343 0.37366 0.949192 -0.15533
C_ C_ 0.788337 0.374082 0.912524 -0.15533
C_ C_ 0.837359 0.387576 0.92636 0.02923
C_ C_ 0.854925 0.395646 0.976549 -0.15533
C_ C_ 0.823635 0.389052 0.0163061 0.02923
C_ C_ 0.858464 0.387933 0.572162 0.69207
C_ C_ 0.850863 0.389655 0.829325 0.69661
C_ C_ 0.816239 0.435576 0.686129 0.18167
C_ C_ 0.772543 0.459112 0.706946 -0.15533
C_ C_ 0.776471 0.500999 0.74272 0.02923
C_ C_ 0.833909 0.00553715 0.763102 -0.15533
C_ C_ 0.866529 0.494731 0.727973 0.18167
C_ C_ 0.99697 0.348298 0.7051 0.18167
C_ C_ 0.519416 0.312413 0.728253 -0.15533
C_ C_ 0.986241 0.272692 0.747324 0.02923
C_ C_ 0.93361 0.276408 0.728836 -0.15533
C_ C_ 0.914589 0.320456 0.70329 0.18167
C_ C_ 0.985954 0.45216 0.624295 0.69207
C_ C_ 0.524718 0.996695 0.620927 0.02923
C_ C_ 0.509233 0.0495324 0.629462 -0.15533
C_ C_ 0.539818 0.0863524 0.617774 -0.15533
C_ C_ 0.590784 0.0726994 0.606229 0.02923
C_ C_ 0.607783 0.0190032 0.605917 -0.15533
C_ C_ 0.575968 0.982277 0.613207 0.02923
C_ C_ 0.602995 0.432427 0.620361 0.69207
C_ C_ 0.609033 0.167111 0.60997 0.69661
C_ C_ 0.934497 0.187382 0.933323 0.18167
C_ C_ 0.976644 0.201551 0.964578 -0.15533
C_ C_ 0.97168 0.242611 0.0031600000000000517 0.02923
C_ C_ 0.92264 0.258012 0.50765 -0.15533
C_ C_ 0.878072 0.235912 0.987039 0.18167
C_ C_ 0.757982 0.194917 0.846137 0.18167
C_ C_ 0.734996 0.21403 0.797079 -0.15533
C_ C_ 0.766451 0.219994 0.760629 0.02923
C_ C_ 0.819319 0.209593 0.769743 -0.15533
C_ C_ 0.840307 0.195326 0.818882 0.18167
C_ C_ 0.766039 0.122947 0.956253 0.69207
C_ C_ 0.728088 0.116634 0.495521 0.02923
C_ C_ 0.748816 0.112512 0.545446 -0.15533
C_ C_ 0.720349 0.105411 0.584836 -0.15533
C_ C_ 0.66707 0.10358 0.574144 0.02923
C_ C_ 0.645573 0.10849 0.521994 -0.15533
C_ C_ 0.674661 0.11395 0.481656 0.02923
C_ C_ 0.655563 0.114689 0.926384 0.69207
C_ C_ 0.654861 0.110426 0.670973 0.69661
C_ C_ 0.874607 0.383734 0.885701 -0.30787
C_ C_ 0.630704 0.111149 0.615229 -0.30787
N_ N_ 0.650431 0.0649058 0.81352 -0.32189
N_ N_ 0.552665 0.145756 0.817651 -0.32189
N_ N_ 0.60989 0.321169 0.554749 -0.32189
N_ N_ 0.70321 0.316623 0.639079 -0.32189
N_ N_ 0.862052 0.450332 0.698329 -0.32189
N_ N_ 0.946238 0.355976 0.692694 -0.32189
N_ N_ 0.886753 0.199833 0.949275 -0.32189
N_ N_ 0.809585 0.184879 0.854286 -0.32189
O_ O_ -0.0011529999999999596 0.0891787 0.895118 -0.63271
O_ O_ 0.54708 0.0394567 0.830545 -0.57982
O_ O_ 0.892064 0.0911809 0.839887 -0.63271
O_ O_ 0.87216 0.0925955 0.921741 -0.57982
O_ O_ 0.749354 0.410869 0.593 -0.63271
O_ O_ 0.705558 0.357725 0.539485 -0.57982
O_ O_ 0.861432 0.349229 0.599645 -0.63271
O_ O_ 0.885831 0.42359 0.591622 -0.57982
O_ O_ 0.493531 0.413132 0.597851 -0.63271
O_ O_ 0.953832 0.462815 0.658325 -0.57982
O_ O_ 0.604379 0.409598 0.663819 -0.63271
O_ O_ 0.640917 0.417822 0.591522 -0.57982
O_ O_ 0.762732 0.0973847 0.912108 -0.63271
O_ O_ 0.790732 0.163435 0.96131 -0.57982
O_ O_ 0.653317 0.158043 0.90198 -0.63271
O_ O_ 0.623851 0.0819953 0.91071 -0.57982
F_ F_ 0.934581 0.320366 0.928313 -0.20885
F_ F_ 0.92147 0.311925 0.843165 -0.20885
F_ F_ 0.863682 0.295471 0.888687 -0.20885
F_ F_ 0.812094 0.42867 0.824443 -0.20885
F_ F_ 0.828149 0.346137 0.805864 -0.20885
F_ F_ 0.885759 0.399501 0.797203 -0.20885
F_ F_ 0.574688 0.173332 0.566863 -0.20885
F_ F_ 0.579776 0.191484 0.647647 -0.20885
F_ F_ 0.64516 0.19921 0.603427 -0.20885
F_ F_ 0.679291 0.0623925 0.684901 -0.20885
F_ F_ 0.686486 0.146443 0.689774 -0.20885
F_ F_ 0.614792 0.118026 0.703171 -0.20885
Zn Zn 0.588242 0.579759 0.348589 0.83971
Zn Zn 0.664426 0.84238 0.0827179 0.83971
Zn Zn 0.909411 0.916011 0.146072 0.83971
Zn Zn 0.842723 0.651031 0.415205 0.83971
H_ H_ 0.657559 0.625483 0.299931 0.10394
H_ H_ 0.743414 0.596351 0.277755 0.10394
H_ H_ 0.706027 0.9507 0.268992 0.10394
H_ H_ 0.643522 0.476814 0.339002 0.10394
H_ H_ 0.007390000000000008 0.589558 0.254904 0.10394
H_ H_ 0.962419 0.664908 0.209354 0.10394
H_ H_ 0.533949 0.764916 0.320791 0.10394
H_ H_ 0.571975 0.695831 0.371911 0.10394
H_ H_ 0.531325 0.942469 0.38858 0.10394
H_ H_ 0.970397 0.880564 0.352674 0.10394
H_ H_ 0.844966 0.986639 0.387417 0.10394
H_ H_ 0.584125 0.803375 0.131327 0.10394
H_ H_ 1.000831477 0.765942 0.0853322 0.10394
H_ H_ 0.545996 0.774537 0.446184 0.10394
H_ H_ 0.619861 0.819683 0.98286 0.10394
H_ H_ 0.727861 0.744346 0.100323 0.10394
H_ H_ 0.768567 0.702895 0.176013 0.10394
H_ H_ 0.717389 0.831383 0.268511 0.10394
H_ H_ 0.681822 0.877859 0.192846 0.10394
H_ H_ 0.711107 0.882827 0.441216 0.10394
H_ H_ 0.761715 0.889148 0.374709 0.10394
H_ H_ 0.89653 0.894618 0.484674 0.10394
H_ H_ 0.808709 0.894557 0.15736 0.10394
H_ H_ 0.735267 0.94641 0.189303 0.10394
H_ H_ 0.826127 0.539656 0.283505 0.10394
H_ H_ 0.907287 0.997603 0.235995 0.10394
H_ H_ 0.512283 0.867989 0.175515 0.10394
H_ H_ 0.553068 0.78931 0.223286 0.10394
H_ H_ 0.898306 0.756686 0.239034 0.10394
H_ H_ 0.864937 0.829864 0.191932 0.10394
H_ H_ 0.956132 0.556304 0.104429 0.10394
H_ H_ 0.520776 0.623271 0.0970758 0.10394
H_ H_ 0.644393 0.505863 0.0920076 0.10394
H_ H_ 0.944895 0.654516 0.397883 0.10394
H_ H_ 0.515156 0.69551 0.453643 0.10394
H_ H_ 0.921561 0.7824 0.0389455 0.10394
H_ H_ 0.84403 0.752153 0.475615 0.10394
H_ H_ 0.738187 0.70485 0.390428 0.10394
H_ H_ 0.69783 0.749933 0.315697 0.10394
H_ H_ 0.836207 0.713043 0.24438 0.10394
H_ H_ 0.877152 0.678994 0.325495 0.10394
H_ H_ 0.79666 0.603165 0.0544769 0.10394
H_ H_ 0.744607 0.593405 0.121662 0.10394
H_ H_ 0.60864 0.591337 0.0132687 0.10394
C_ C_ 0.670693 0.583874 0.295853 0.18167
C_ C_ 0.716992 0.568203 0.278223 -0.15533
C_ C_ 0.728987 0.51643 0.269268 0.02923
C_ C_ 0.701457 0.988777 0.279607 -0.15533
C_ C_ 0.659787 0.501044 0.315945 0.18167
C_ C_ 0.528198 0.6251 0.27053 0.18167
C_ C_ -0.01211300000000004 0.66952 0.243012 -0.15533
C_ C_ 0.507251 0.716876 0.258059 0.02923
C_ C_ 0.529086 0.725817 0.306449 -0.15533
C_ C_ 0.550056 0.685281 0.337348 0.18167
C_ C_ 0.508803 0.540283 0.372103 0.69207
C_ C_ 0.969235 0.00712145 0.374458 0.02923
C_ C_ -0.010963999999999974 0.954649 0.372414 -0.15533
C_ C_ 0.956812 0.917145 0.372465 -0.15533
C_ C_ 0.906031 0.925924 0.382261 0.02923
C_ C_ 0.885455 0.978077 0.382711 -0.15533
C_ C_ 0.916758 0.0195143 0.382501 0.02923
C_ C_ 0.893627 0.566241 0.386259 0.69207
C_ C_ 0.894143 0.827692 0.374131 0.69661
C_ C_ 0.575943 0.798756 0.0908694 0.18167
C_ C_ 0.53072 0.78132 0.0710108 -0.15533
C_ C_ 0.51709 0.774615 0.0177973 0.02923
C_ C_ 0.551415 0.784147 0.488526 -0.15533
C_ C_ 0.594421 0.810775 0.00848568 0.18167
C_ C_ 0.724015 0.766474 0.137024 0.18167
C_ C_ 0.74567 0.740205 0.179946 -0.15533
C_ C_ 0.740811 0.761464 0.228475 0.02923
C_ C_ 0.717032 0.811313 0.233003 -0.15533
C_ C_ 0.69253 0.836925 0.189962 0.18167
C_ C_ 0.746827 0.858787 0.0443997 0.69207
C_ C_ 0.774972 0.877255 0.50271 0.02923
C_ C_ 0.751917 0.885324 0.452839 -0.15533
C_ C_ 0.782101 0.887072 0.412165 -0.15533
C_ C_ 0.834672 0.888497 0.420637 0.02923
C_ C_ 0.855863 0.891897 0.47389 -0.15533
C_ C_ 0.827714 0.881701 0.512797 0.02923
C_ C_ 0.855306 0.879012 0.0633349 0.69207
C_ C_ 0.844004 0.889124 0.322432 0.69661
C_ C_ 0.813352 0.931484 0.181371 0.18167
C_ C_ 0.772253 0.956776 0.204288 -0.15533
C_ C_ 0.780245 0.99945069 0.239774 0.02923
C_ C_ 0.818289 0.514245 0.248981 -0.15533
C_ C_ 0.869857 0.986728 0.226886 0.18167
C_ C_ 0.987837 0.83987 0.181425 0.18167
C_ C_ 0.512909 0.797862 0.213848 -0.15533
C_ C_ 0.978047 0.763248 0.223841 0.02923
C_ C_ 0.923879 0.77703 0.221061 -0.15533
C_ C_ 0.90439 0.820121 0.193905 0.18167
C_ C_ 0.992967 0.947487 0.121533 0.69207
C_ C_ 0.522459 0.497925 0.122108 0.02923
C_ C_ 0.507517 0.551071 0.125304 -0.15533
C_ C_ 0.537402 0.585226 0.10733 -0.15533
C_ C_ 0.589551 0.571191 0.103092 0.02923
C_ C_ 0.605518 0.518432 0.102861 -0.15533
C_ C_ 0.571421 0.481052 0.106603 0.02923
C_ C_ 0.606938 0.925428 0.109083 0.69207
C_ C_ 0.60718 0.665484 0.112613 0.69661
C_ C_ 0.940176 0.679751 0.431522 0.18167
C_ C_ 0.981082 0.70261 0.458539 -0.15533
C_ C_ 0.971564 0.744744 0.495075 0.02923
C_ C_ 0.927615 0.748125 1.0119556 -0.15533
C_ C_ 0.880501 0.735398 0.475955 0.18167
C_ C_ 0.760835 0.708763 0.359753 0.18167
C_ C_ 0.736922 0.730781 0.316164 -0.15533
C_ C_ 0.763328 0.733677 0.274868 0.02923
C_ C_ 0.814704 0.712991 0.276373 -0.15533
C_ C_ 0.836663 0.687761 0.319738 0.18167
C_ C_ 0.762622 0.621174 0.45064 0.69207
C_ C_ 0.731505 0.611266 0.993094 0.02923
C_ C_ 0.752963 0.606009 0.0442173 -0.15533
C_ C_ 0.723473 0.598732 0.0833375 -0.15533
C_ C_ 0.668799 0.602609 0.0717872 0.02923
C_ C_ 0.648741 0.59798 0.0203996 -0.15533
C_ C_ 0.681453 0.60271 0.981094 0.02923
C_ C_ 0.649914 0.605711 0.424465 0.69207
C_ C_ 0.653817 0.604341 0.168004 0.69661
C_ C_ 0.870224 0.883479 0.374964 -0.30787
C_ C_ 0.629634 0.608639 0.113296 -0.30787
N_ N_ 0.643148 0.551741 0.314568 -0.32189
N_ N_ 0.554106 0.638502 0.315125 -0.32189
N_ N_ 0.608782 0.809887 0.0587476 -0.32189
N_ N_ 0.69637 0.814017 0.142011 -0.32189
N_ N_ 0.860909 0.949095 0.190421 -0.32189
N_ N_ 0.934989 0.850467 0.173313 -0.32189
N_ N_ 0.891713 0.694455 0.443183 -0.32189
N_ N_ 0.809098 0.687147 0.360918 -0.32189
O_ O_ 0.002950000000000008 0.588268 0.390214 -0.63271
O_ O_ 0.547477 0.52964 0.344934 -0.57982
O_ O_ 0.887852 0.586227 0.342606 -0.63271
O_ O_ 0.866723 0.585482 0.421422 -0.57982
O_ O_ 0.743186 0.896405 0.0831627 -0.63271
O_ O_ 0.712904 0.826072 0.0386561 -0.57982
O_ O_ 0.853094 0.839736 0.0925095 -0.63271
O_ O_ 0.883431 0.914592 0.0801892 -0.57982
O_ O_ 0.488844 0.914656 0.0868013 -0.63271
O_ O_ 0.959113 0.954794 0.155463 -0.57982
O_ O_ 0.600007 0.898449 0.146444 -0.63271
O_ O_ 0.640025 0.907192 0.0775945 -0.57982
O_ O_ 0.752554 0.608252 0.402131 -0.63271
O_ O_ 0.798845 0.65115 0.463173 -0.57982
O_ O_ 0.647591 0.644539 0.396299 -0.63271
O_ O_ 0.613883 0.577238 0.414556 -0.57982
F_ F_ 0.935735 0.819205 0.412289 -0.20885
F_ F_ 0.914649 0.811965 0.325712 -0.20885
F_ F_ 0.85796 0.793837 0.375974 -0.20885
F_ F_ 0.806702 0.930102 0.324206 -0.20885
F_ F_ 0.819878 0.846129 0.300395 -0.20885
F_ F_ 0.874899 0.897667 0.283042 -0.20885
F_ F_ 0.581572 0.674811 0.0636626 -0.20885
F_ F_ 0.571449 0.678455 0.144612 -0.20885
F_ F_ 0.644297 0.695553 0.121476 -0.20885
F_ F_ 0.68731 0.561643 0.17528 -0.20885
F_ F_ 0.682945 0.643717 0.184367 -0.20885
F_ F_ 0.61656 0.60194 0.200478 -0.20885
Zn Zn 0.590626 0.590378 0.847421 0.83971
Zn Zn 0.663564 0.847152 0.587579 0.83971
Zn Zn 0.908013 0.91061 0.64944 0.83971
Zn Zn 0.841974 0.654408 0.916803 0.83971
H_ H_ 0.661458 0.635531 0.801057 0.10394
H_ H_ 0.745302 0.601811 0.76451 0.10394
H_ H_ 0.718172 0.947105 0.790942 0.10394
H_ H_ 0.637233 0.486658 0.832122 0.10394
H_ H_ 0.0116906 0.590388 0.761159 0.10394
H_ H_ 0.971871 0.660649 0.709113 0.10394
H_ H_ 0.539356 0.773634 0.8285 0.10394
H_ H_ 0.57124 0.701019 0.880242 0.10394
H_ H_ 0.536885 0.94687 0.861334 0.10394
H_ H_ 0.982514 0.876648 0.87086 0.10394
H_ H_ 0.850523 0.981961 0.87987 0.10394
H_ H_ 0.580517 0.806603 0.635116 0.10394
H_ H_ 0.00193145 0.763766 0.595232 0.10394
H_ H_ 0.540634 0.793699 0.944479 0.10394
H_ H_ 0.622254 0.81617 0.486844 0.10394
H_ H_ 0.712929 0.749766 0.601755 0.10394
H_ H_ 0.768658 0.707481 0.67183 0.10394
H_ H_ 0.721481 0.836274 0.772457 0.10394
H_ H_ 0.682217 0.881336 0.695931 0.10394
H_ H_ 0.717748 0.846039 0.94249 0.10394
H_ H_ 0.769729 0.864285 0.869597 0.10394
H_ H_ 0.892348 0.900842 0.978547 0.10394
H_ H_ 0.805406 0.903638 0.659304 0.10394
H_ H_ 0.735451 0.963092 0.682992 0.10394
H_ H_ 0.834409 0.548484 0.784422 0.10394
H_ H_ 0.914658 0.983401 0.749107 0.10394
H_ H_ 0.515289 0.874625 0.684017 0.10394
H_ H_ 0.550886 0.809495 0.741235 0.10394
H_ H_ 0.914832 0.736647 0.720345 0.10394
H_ H_ 0.873782 0.81319 0.683315 0.10394
H_ H_ 0.970453 0.554173 0.631456 0.10394
H_ H_ 0.52391 0.62601 0.635902 0.10394
H_ H_ 0.636575 0.513976 0.580578 0.10394
H_ H_ 0.944262 0.659995 0.894192 0.10394
H_ H_ 0.517658 0.704807 0.941341 0.10394
H_ H_ 0.914426 0.789011 0.5345 0.10394
H_ H_ 0.850236 0.7325 0.99977393 0.10394
H_ H_ 0.74815 0.714765 0.895001 0.10394
H_ H_ 0.703862 0.747733 0.815284 0.10394
H_ H_ 0.842866 0.723121 0.747988 0.10394
H_ H_ 0.88214 0.675399 0.820262 0.10394
H_ H_ 0.786464 0.602353 0.552982 0.10394
H_ H_ 0.730409 0.585888 0.616966 0.10394
H_ H_ 0.600499 0.609497 0.508023 0.10394
C_ C_ 0.675026 0.594034 0.799561 0.18167
C_ C_ 0.718805 0.576259 0.775912 -0.15533
C_ C_ 0.730759 0.523077 0.770206 0.02923
C_ C_ 0.706158 0.98834 0.786679 -0.15533
C_ C_ 0.659543 0.509757 0.8126 0.18167
C_ C_ 0.531523 0.637044 0.771457 0.18167
C_ C_ -0.00201531 0.668055 0.742941 -0.15533
C_ C_ 0.503199 0.726574 0.76329 0.02923
C_ C_ 0.535379 0.735876 0.812378 -0.15533
C_ C_ 0.559682 0.694618 0.839484 0.18167
C_ C_ 0.507328 0.551543 0.871009 0.69207
C_ C_ 0.97417 0.00482417 0.88115 0.02923
C_ C_ -0.005461999999999967 0.954343 0.875179 -0.15533
C_ C_ 0.964917 0.913969 0.878829 -0.15533
C_ C_ 0.913498 0.922062 0.885965 0.02923
C_ C_ 0.891829 0.973067 0.883723 -0.15533
C_ C_ 0.921469 0.0152847 0.886827 0.02923
C_ C_ 0.896418 0.566737 0.885379 0.69207
C_ C_ 0.906943 0.826376 0.891851 0.69661
C_ C_ 0.570274 0.801603 0.593489 0.18167
C_ C_ 0.523215 0.784728 0.573912 -0.15533
C_ C_ 0.514565 0.774945 0.522175 0.02923
C_ C_ 0.549319 0.796104 0.98676 -0.15533
C_ C_ 0.59679 0.80185 0.511318 0.18167
C_ C_ 0.721186 0.770998 0.638893 0.18167
C_ C_ 0.746096 0.742608 0.67877 -0.15533
C_ C_ 0.745964 0.766145 0.729337 0.02923
C_ C_ 0.720335 0.816796 0.735088 -0.15533
C_ C_ 0.69829 0.84329 0.692367 0.18167
C_ C_ 0.740919 0.869812 0.542369 0.69207
C_ C_ 0.779212 0.863056 1.00258 0.02923
C_ C_ 0.758185 0.858697 0.949661 -0.15533
C_ C_ 0.786108 0.87139 0.908869 -0.15533
C_ C_ 0.838614 0.88398 0.918987 0.02923
C_ C_ 0.854571 0.892387 0.970867 -0.15533
C_ C_ 0.828468 0.879917 0.0113083 0.02923
C_ C_ 0.851012 0.881714 0.565658 0.69207
C_ C_ 0.855639 0.87054 0.822331 0.69661
C_ C_ 0.815298 0.932806 0.685529 0.18167
C_ C_ 0.773185 0.964157 0.702662 -0.15533
C_ C_ 0.781555 0.00021000000000004349 0.742886 0.02923
C_ C_ 0.824502 0.521391 0.753564 -0.15533
C_ C_ 0.873786 0.979758 0.735326 0.18167
C_ C_ 0.990603 0.844817 0.696824 0.18167
C_ C_ 0.510404 0.811689 0.727921 -0.15533
C_ C_ 0.988115 0.761975 0.731239 0.02923
C_ C_ 0.93792 0.765683 0.712491 -0.15533
C_ C_ 0.913483 0.809328 0.689098 0.18167
C_ C_ 0.988528 0.948048 0.62399 0.69207
C_ C_ 0.523685 0.498253 0.619422 0.02923
C_ C_ 0.504947 0.549786 0.619931 -0.15533
C_ C_ 0.536942 0.586846 0.621922 -0.15533
C_ C_ 0.586928 0.575776 0.606376 0.02923
C_ C_ 0.603086 0.524633 0.596274 -0.15533
C_ C_ 0.575925 0.485976 0.614395 0.02923
C_ C_ 0.598982 0.929454 0.614108 0.69207
C_ C_ 0.598456 0.671519 0.606457 0.69661
C_ C_ 0.939441 0.677124 0.929552 0.18167
C_ C_ 0.980173 0.699183 0.954297 -0.15533
C_ C_ 0.973339 0.741145 0.991413 0.02923
C_ C_ 0.92159 0.758738 0.504772 -0.15533
C_ C_ 0.88805 0.720549 0.990712 0.18167
C_ C_ 0.763958 0.70531 0.857759 0.18167
C_ C_ 0.742525 0.73514 0.816129 -0.15533
C_ C_ 0.771672 0.737073 0.77468 0.02923
C_ C_ 0.822851 0.718839 0.779967 -0.15533
C_ C_ 0.843299 0.69219 0.821641 0.18167
C_ C_ 0.766189 0.62278 0.954321 0.69207
C_ C_ 0.728331 0.610886 0.489514 0.02923
C_ C_ 0.749133 0.604227 0.542178 -0.15533
C_ C_ 0.715847 0.600707 0.579004 -0.15533
C_ C_ 0.661366 0.607134 0.568685 0.02923
C_ C_ 0.642852 0.60752 0.518156 -0.15533
C_ C_ 0.673391 0.608529 0.477566 0.02923
C_ C_ 0.656098 0.614489 0.929076 0.69207
C_ C_ 0.644527 0.616858 0.669169 0.69661
C_ C_ 0.876948 0.879284 0.878946 -0.30787
C_ C_ 0.623365 0.616279 0.610783 -0.30787
N_ N_ 0.646938 0.560793 0.817573 -0.32189
N_ N_ 0.559315 0.647544 0.816488 -0.32189
N_ N_ 0.603435 0.813351 0.563188 -0.32189
N_ N_ 0.697826 0.818457 0.645557 -0.32189
N_ N_ 0.862773 0.946518 0.695184 -0.32189
N_ N_ 0.939659 0.849463 0.682278 -0.32189
N_ N_ 0.893733 0.688262 0.948454 -0.32189
N_ N_ 0.812865 0.683135 0.858163 -0.32189
O_ O_ 1.00200002 0.585033 0.89121 -0.63271
O_ O_ 0.544599 0.544827 0.840072 -0.57982
O_ O_ 0.891778 0.591015 0.84266 -0.63271
O_ O_ 0.871532 0.588265 0.923414 -0.57982
O_ O_ 0.742563 0.896834 0.585504 -0.63271
O_ O_ 0.705091 0.83817 0.535468 -0.57982
O_ O_ 0.848457 0.843288 0.593783 -0.63271
O_ O_ 0.880536 0.916449 0.584998 -0.57982
O_ O_ 0.485559 0.920887 0.593176 -0.63271
O_ O_ 0.955581 0.952952 0.65946 -0.57982
O_ O_ 0.594756 0.903402 0.652394 -0.63271
O_ O_ 0.635696 0.912229 0.585859 -0.57982
O_ O_ 0.765389 0.597073 0.90907 -0.63271
O_ O_ 0.796892 0.65875 0.965225 -0.57982
O_ O_ 0.66276 0.657809 0.909798 -0.63271
O_ O_ 0.615271 0.59225 0.91252 -0.57982
F_ F_ 0.940906 0.831022 0.936416 -0.20885
F_ F_ 0.9325 0.79997 0.854292 -0.20885
F_ F_ 0.871937 0.78923 0.900927 -0.20885
F_ F_ 0.819666 0.912662 0.810197 -0.20885
F_ F_ 0.828958 0.828028 0.809191 -0.20885
F_ F_ 0.890488 0.876773 0.787668 -0.20885
F_ F_ 0.566789 0.681433 0.563113 -0.20885
F_ F_ 0.571263 0.691157 0.645376 -0.20885
F_ F_ 0.634474 0.703334 0.60613 -0.20885
F_ F_ 0.673139 0.570629 0.676565 -0.20885
F_ F_ 0.680518 0.650082 0.682517 -0.20885
F_ F_ 0.608871 0.623855 0.70363 -0.20885
_cell_length_a 26.508
_cell_length_b 26.37200000322088
_cell_length_c 26.311999743092066
_cell_angle_alpha 93.74100058972084
_cell_angle_beta 96.04100104955006
_cell_angle_gamma 83.6869992558723
_symmetry_space_group_name_H-M         'P 1'
_symmetry_Int_Tables_number            1
loop_
_symmetry_equiv_pos_as_xyz
   'x, y, z'
                         
loop_
_atom_site_label
_atom_site_type_symbol
_atom_site_fract_x 
_atom_site_fract_y
_atom_site_fract_z
_atom_site_charge
Zn Zn 0.0858316 0.0848646 0.344068 0.83971
Zn Zn 0.160637 0.352956 0.0859071 0.83971
Zn Zn 0.408959 0.417677 0.154765 0.83971
Zn Zn 0.34674 0.157056 0.422195 0.83971
H_ H_ 0.171093 0.140216 0.302258 0.10394
H_ H_ 0.244135 0.105313 0.262022 0.10394
H_ H_ 0.21595 0.447529 0.299807 0.10394
H_ H_ 0.12577 0.991922 0.30535 0.10394
H_ H_ 0.518662 0.0952105 0.261009 0.10394
H_ H_ 0.485103 0.164934 0.20643 0.10394
H_ H_ 0.0355701 0.269683 0.328483 0.10394
H_ H_ 0.0710494 0.187649 0.374064 0.10394
H_ H_ 0.0309613 0.444255 0.360484 0.10394
H_ H_ 0.467267 0.375593 0.349423 0.10394
H_ H_ 0.346649 0.490128 0.396974 0.10394
H_ H_ 0.0731792 0.319294 0.133131 0.10394
H_ H_ 0.494078 0.278462 0.101756 0.10394
H_ H_ 0.0447936 0.281852 0.447157 0.10394
H_ H_ 0.124485 0.309326 0.986755 0.10394
H_ H_ 0.214006 0.251614 0.0997196 0.10394
H_ H_ 0.253496 0.201761 0.17486 0.10394
H_ H_ 0.213697 0.334695 0.273279 0.10394
H_ H_ 0.186503 0.381367 0.195115 0.10394
H_ H_ 0.207416 0.388021 0.446588 0.10394
H_ H_ 0.260871 0.398507 0.377923 0.10394
H_ H_ 0.392386 0.408397 0.482864 0.10394
H_ H_ 0.301495 0.400767 0.156645 0.10394
H_ H_ 0.231506 0.452402 0.187134 0.10394
H_ H_ 0.327838 0.0539197 0.265355 0.10394
H_ H_ 0.403706 0.472115 0.254901 0.10394
H_ H_ -0.000339932 0.388882 0.199916 0.10394
H_ H_ 0.0431599 0.310902 0.232601 0.10394
H_ H_ 0.409723 0.239479 0.204415 0.10394
H_ H_ 0.366952 0.32878 0.193272 0.10394
H_ H_ 0.469502 0.0511607 0.134728 0.10394
H_ H_ 0.00937614 0.11836 0.112089 0.10394
H_ H_ 0.139453 0.0162754 0.0824502 0.10394
H_ H_ 0.447183 0.161496 0.407869 0.10394
H_ H_ 0.00651994 0.206173 0.428913 0.10394
H_ H_ 0.404483 0.293188 0.0342996 0.10394
H_ H_ 0.348384 0.247717 0.504752 0.10394
H_ H_ 0.235569 0.191199 0.387927 0.10394
H_ H_ 0.195447 0.237153 0.310919 0.10394
H_ H_ 0.340493 0.237953 0.256572 0.10394
H_ H_ 0.379961 0.193278 0.332266 0.10394
H_ H_ 0.273315 0.138484 0.061923 0.10394
H_ H_ 0.222729 0.113334 0.126407 0.10394
H_ H_ 0.0985837 0.0918425 0.0102816 0.10394
C_ C_ 0.175113 0.100192 0.290084 0.18167
C_ C_ 0.220511 0.0800837 0.271262 -0.15533
C_ C_ 0.232107 0.0275832 0.262602 0.02923
C_ C_ 0.202469 0.487674 0.295609 -0.15533
C_ C_ 0.152074 0.0154466 0.295016 0.18167
C_ C_ 0.0195108 0.135346 0.264851 0.18167
C_ C_ 0.502305 0.174528 0.245023 -0.15533
C_ C_ 0.00291089 0.230398 0.264782 0.02923
C_ C_ 0.0277061 0.232569 0.314716 -0.15533
C_ C_ 0.0479563 0.187586 0.337446 0.18167
C_ C_ 0.00555762 0.0456733 0.367659 0.69207
C_ C_ 0.472663 0.503053 0.378146 0.02923
C_ C_ 0.487727 0.452068 0.366505 -0.15533
C_ C_ 0.453772 0.414278 0.369491 -0.15533
C_ C_ 0.403973 0.425345 0.385764 0.02923
C_ C_ 0.387947 0.478364 0.393162 -0.15533
C_ C_ 0.421165 0.518022 0.39137 0.02923
C_ C_ 0.397316 0.0735003 0.391308 0.69207
C_ C_ 0.393322 0.329733 0.388136 0.69661
C_ C_ 0.0659858 0.308533 0.0925935 0.18167
C_ C_ 0.0235637 0.28448 0.0740396 -0.15533
C_ C_ 0.0165932 0.271341 0.0222825 0.02923
C_ C_ 0.0544034 0.277944 0.487863 -0.15533
C_ C_ 0.0958418 0.304193 0.0119537 0.18167
C_ C_ 0.214475 0.270377 0.136565 0.18167
C_ C_ 0.236475 0.242333 0.179567 -0.15533
C_ C_ 0.23489 0.262941 0.229965 0.02923
C_ C_ 0.216616 0.314472 0.234764 -0.15533
C_ C_ 0.19303 0.340044 0.191943 0.18167
C_ C_ 0.244043 0.376199 0.0472142 0.69207
C_ C_ 0.269927 0.388077 0.505522 0.02923
C_ C_ 0.247468 0.386452 0.455799 -0.15533
C_ C_ 0.277878 0.389094 0.415255 -0.15533
C_ C_ 0.330119 0.395428 0.424823 0.02923
C_ C_ 0.352678 0.400146 0.475306 -0.15533
C_ C_ 0.322194 0.401236 0.515727 0.02923
C_ C_ 0.357706 0.390097 0.0712316 0.69207
C_ C_ 0.340636 0.380005 0.32529 0.69661
C_ C_ 0.306651 0.435568 0.179544 0.18167
C_ C_ 0.267718 0.460664 0.201822 -0.15533
C_ C_ 0.27455 0.496797 0.241815 0.02923
C_ C_ 0.322047 0.0221847 0.23856 -0.15533
C_ C_ 0.366508 0.478805 0.23529 0.18167
C_ C_ 0.489185 0.354159 0.200341 0.18167
C_ C_ 0.00358473 0.313331 0.225134 -0.15533
C_ C_ 0.483399 0.269295 0.230463 0.02923
C_ C_ 0.431051 0.274538 0.214045 -0.15533
C_ C_ 0.407978 0.322397 0.195076 0.18167
C_ C_ 0.48508 0.461938 0.125535 0.69207
C_ C_ 0.0245465 0.990091 0.114837 0.02923
C_ C_ -0.00103127 0.0404867 0.116468 -0.15533
C_ C_ 0.0282754 0.0806249 0.11242 -0.15533
C_ C_ 0.0802619 0.0721383 0.105438 0.02923
C_ C_ 0.100986 0.021767 0.0933983 -0.15533
C_ C_ 0.0752938 0.981184 0.100296 0.02923
C_ C_ 0.0960015 0.430387 0.115151 0.69207
C_ C_ 0.091097 0.168592 0.106391 0.69661
C_ C_ 0.443457 0.184605 0.443037 0.18167
C_ C_ 0.487097 0.208995 0.466262 -0.15533
C_ C_ 0.478847 0.244401 0.506575 0.02923
C_ C_ 0.416877 0.255864 0.0136004 -0.15533
C_ C_ 0.387488 0.237272 0.493181 0.18167
C_ C_ 0.259128 0.196799 0.356959 0.18167
C_ C_ 0.234871 0.224253 0.314392 -0.15533
C_ C_ 0.262178 0.234663 0.275023 0.02923
C_ C_ 0.316823 0.223581 0.283345 -0.15533
C_ C_ 0.337592 0.198452 0.325838 0.18167
C_ C_ 0.264011 0.116947 0.454792 0.69207
C_ C_ 0.222495 0.121172 0.997575 0.02923
C_ C_ 0.238658 0.126191 0.0510489 -0.15533
C_ C_ 0.208444 0.113439 0.0871485 -0.15533
C_ C_ 0.157288 0.105095 0.0732274 0.02923
C_ C_ 0.140601 0.100487 0.022208 -0.15533
C_ C_ 0.172217 0.106972 0.983156 0.02923
C_ C_ 0.15156 0.106368 0.425459 0.69207
C_ C_ 0.140706 0.112545 0.168331 0.69661
C_ C_ 0.365456 0.38352 0.381064 -0.30787
C_ C_ 0.117091 0.113639 0.112018 -0.30787
N_ N_ 0.143854 0.0678392 0.305272 -0.32189
N_ N_ 0.0477337 0.141136 0.310021 -0.32189
N_ N_ 0.103617 0.315937 0.0616647 -0.32189
N_ N_ 0.191668 0.31944 0.144904 -0.32189
N_ N_ 0.355746 0.4429 0.197131 -0.32189
N_ N_ 0.439385 0.355866 0.182109 -0.32189
N_ N_ 0.396394 0.198151 0.456255 -0.32189
N_ N_ 0.309519 0.182557 0.360643 -0.32189
O_ O_ 0.50995 0.0884674 0.404357 -0.63271
O_ O_ 0.0427069 0.0346336 0.337556 -0.57982
O_ O_ 0.392169 0.0980435 0.348515 -0.63271
O_ O_ 0.37543 0.0941892 0.430919 -0.57982
O_ O_ 0.237458 0.418279 0.076095 -0.63271
O_ O_ 0.208949 0.345055 0.0424097 -0.57982
O_ O_ 0.350609 0.352404 0.0979896 -0.63271
O_ O_ 0.382202 0.425874 0.0944106 -0.57982
O_ O_ 0.98851 0.413873 0.107473 -0.63271
O_ O_ 0.447595 0.473534 0.155315 -0.57982
O_ O_ 0.098615 0.40688 0.157392 -0.63271
O_ O_ 0.124643 0.411712 0.0788312 -0.57982
O_ O_ 0.258206 0.0980384 0.407733 -0.63271
O_ O_ 0.295096 0.152522 0.462575 -0.57982
O_ O_ 0.157465 0.147991 0.399199 -0.63271
O_ O_ 0.115561 0.0787619 0.409804 -0.57982
F_ F_ 0.427105 0.33032 0.432106 -0.20885
F_ F_ 0.417501 0.303563 0.348227 -0.20885
F_ F_ 0.358467 0.299719 0.397156 -0.20885
F_ F_ 0.312044 0.425891 0.318814 -0.20885
F_ F_ 0.307214 0.34368 0.315935 -0.20885
F_ F_ 0.377096 0.374132 0.291259 -0.20885
F_ F_ 0.0626748 0.17668 0.0609695 -0.20885
F_ F_ 0.0646848 0.18977 0.148256 -0.20885
F_ F_ 0.125989 0.201865 0.105917 -0.20885
F_ F_ 0.171103 0.0646233 0.173479 -0.20885
F_ F_ 0.165453 0.155218 0.18514 -0.20885
F_ F_ 0.105594 0.10977 0.203376 -0.20885
Zn Zn 0.0881433 0.0823634 0.851025 0.83971
Zn Zn 0.160618 0.341293 0.584893 0.83971
Zn Zn 0.408891 0.416187 0.650432 0.83971
Zn Zn 0.337051 0.15187 0.918716 0.83971
H_ H_ 0.179205 0.131204 0.82497 0.10394
H_ H_ 0.257488 0.0963112 0.783957 0.10394
H_ H_ 0.220013 0.443706 0.804503 0.10394
H_ H_ 0.130018 0.985833 0.820377 0.10394
H_ H_ 0.530933 0.0984228 0.753619 0.10394
H_ H_ 0.498376 0.166758 0.69866 0.10394
H_ H_ 0.0247946 0.268387 0.844226 0.10394
H_ H_ 0.0700095 0.194717 0.889702 0.10394
H_ H_ 0.0348199 0.441807 0.874076 0.10394
H_ H_ 0.48338 0.380215 0.875614 0.10394
H_ H_ 0.359453 0.490339 0.904984 0.10394
H_ H_ 0.0809595 0.300801 0.634328 0.10394
H_ H_ 0.512288 0.276233 0.604317 0.10394
H_ H_ 0.0502698 0.274572 0.950484 0.10394
H_ H_ 0.122155 0.316235 0.489343 0.10394
H_ H_ 0.214234 0.248591 0.599269 0.10394
H_ H_ 0.254843 0.198853 0.679114 0.10394
H_ H_ 0.225963 0.335887 0.76983 0.10394
H_ H_ 0.179761 0.377931 0.695125 0.10394
H_ H_ 0.231542 0.3459 0.951237 0.10394
H_ H_ 0.280991 0.354208 0.883328 0.10394
H_ H_ 0.39445 0.418949 0.991108 0.10394
H_ H_ 0.307062 0.384265 0.677499 0.10394
H_ H_ 0.235665 0.432817 0.710927 0.10394
H_ H_ 0.339227 0.0394829 0.788529 0.10394
H_ H_ 0.400017 0.501939 0.721323 0.10394
H_ H_ 0.0239072 0.373018 0.696747 0.10394
H_ H_ 0.0578448 0.305763 0.746579 0.10394
H_ H_ 0.420191 0.23875 0.707473 0.10394
H_ H_ 0.379006 0.323432 0.676818 0.10394
H_ H_ 0.469384 0.0621464 0.631869 0.10394
H_ H_ 0.0206181 0.115966 0.614254 0.10394
H_ H_ 0.141891 0.0016300000000000203 0.578239 0.10394
H_ H_ 0.4503 0.157012 0.90479 0.10394
H_ H_ 0.0146813 0.18369 0.959636 0.10394
H_ H_ 0.423507 0.284093 0.550418 0.10394
H_ H_ 0.342632 0.230569 0.0041787 0.10394
H_ H_ 0.228847 0.193658 0.88004 0.10394
H_ H_ 0.193197 0.227285 0.794319 0.10394
H_ H_ 0.346615 0.247045 0.768122 0.10394
H_ H_ 0.374967 0.192416 0.832238 0.10394
H_ H_ 0.290342 0.10532 0.553126 0.10394
H_ H_ 0.230289 0.0986714 0.619846 0.10394
H_ H_ 0.103593 0.0935074 0.511349 0.10394
C_ C_ 0.180403 0.0926531 0.804015 0.18167
C_ C_ 0.227085 0.071664 0.78679 -0.15533
C_ C_ 0.235054 0.0189608 0.777661 0.02923
C_ C_ 0.208033 0.485405 0.799371 -0.15533
C_ C_ 0.155568 0.0102841 0.80598 0.18167
C_ C_ 0.0327325 0.13592 0.775856 0.18167
C_ C_ 0.510261 0.175764 0.739423 -0.15533
C_ C_ 0.0105103 0.226027 0.773882 0.02923
C_ C_ 0.0257398 0.231785 0.825101 -0.15533
C_ C_ 0.0455308 0.187855 0.852353 0.18167
C_ C_ 0.00572726 0.0441059 0.872276 0.69207
C_ C_ 0.476538 0.510306 0.879104 0.02923
C_ C_ 0.495956 0.459728 0.873539 -0.15533
C_ C_ 0.468296 0.42005 0.883737 -0.15533
C_ C_ 0.419399 0.429738 0.897455 0.02923
C_ C_ 0.397338 0.481957 0.901455 -0.15533
C_ C_ 0.425649 0.523319 0.892042 0.02923
C_ C_ 0.397605 0.0723986 0.885034 0.69207
C_ C_ 0.409537 0.329394 0.890027 0.69661
C_ C_ 0.0725626 0.293224 0.593066 0.18167
C_ C_ 0.0286516 0.273321 0.573037 -0.15533
C_ C_ 0.0175189 0.267545 0.519587 0.02923
C_ C_ 0.054786 0.27922 0.991381 -0.15533
C_ C_ 0.0987228 0.29862 0.510751 0.18167
C_ C_ 0.221919 0.267011 0.636923 0.18167
C_ C_ 0.241684 0.239314 0.679651 -0.15533
C_ C_ 0.246925 0.26706 0.727009 0.02923
C_ C_ 0.226569 0.31706 0.732804 -0.15533
C_ C_ 0.198213 0.339854 0.690341 0.18167
C_ C_ 0.238999 0.373521 0.545576 0.69207
C_ C_ 0.281115 0.375052 0.00865174 0.02923
C_ C_ 0.266901 0.359411 0.959562 -0.15533
C_ C_ 0.296634 0.368431 0.920573 -0.15533
C_ C_ 0.343799 0.387918 0.930535 0.02923
C_ C_ 0.360171 0.401826 0.981077 -0.15533
C_ C_ 0.329921 0.395158 0.0205183 0.02923
C_ C_ 0.347543 0.397878 0.567666 0.69207
C_ C_ 0.358574 0.390833 0.834282 0.69661
C_ C_ 0.312022 0.424994 0.689527 0.18167
C_ C_ 0.272174 0.449296 0.715626 -0.15533
C_ C_ 0.281034 0.492938 0.748297 0.02923
C_ C_ 0.32784 0.00996521 0.759527 -0.15533
C_ C_ 0.36534 0.487879 0.720279 0.18167
C_ C_ 0.494214 0.357173 0.702693 0.18167
C_ C_ 0.0169121 0.308414 0.732871 -0.15533
C_ C_ 0.492192 0.269443 0.729169 0.02923
C_ C_ 0.441419 0.271697 0.703195 -0.15533
C_ C_ 0.418558 0.316915 0.683173 0.18167
C_ C_ 0.489078 0.456352 0.626251 0.69207
C_ C_ 0.0245604 0.98615 0.618106 0.02923
C_ C_ 0.00350481 0.0385797 0.6179 -0.15533
C_ C_ 0.0351228 0.0772142 0.608992 -0.15533
C_ C_ 0.0860029 0.0643102 0.599993 0.02923
C_ C_ 0.104973 0.0130273 0.593983 -0.15533
C_ C_ 0.0745081 0.972764 0.603033 0.02923
C_ C_ 0.0992362 0.419219 0.609439 0.69207
C_ C_ 0.104193 0.162013 0.605747 0.69661
C_ C_ 0.44058 0.177648 0.94055 0.18167
C_ C_ 0.482082 0.199061 0.968246 -0.15533
C_ C_ 0.469113 0.24126 1.00372476 0.02923
C_ C_ 0.427858 0.260305 0.517699 -0.15533
C_ C_ 0.380252 0.221573 0.994712 0.18167
C_ C_ 0.252895 0.200803 0.852509 0.18167
C_ C_ 0.231893 0.219088 0.803626 -0.15533
C_ C_ 0.265498 0.240995 0.7749 0.02923
C_ C_ 0.31764 0.229677 0.787543 -0.15533
C_ C_ 0.335263 0.203922 0.829803 0.18167
C_ C_ 0.256335 0.131033 0.958046 0.69207
C_ C_ 0.229417 0.111709 0.490828 0.02923
C_ C_ 0.248208 0.108726 0.54259 -0.15533
C_ C_ 0.216582 0.0981367 0.578614 -0.15533
C_ C_ 0.164529 0.097483 0.568413 0.02923
C_ C_ 0.144292 0.0968688 0.516532 -0.15533
C_ C_ 0.174132 0.103904 0.478353 0.02923
C_ C_ 0.146573 0.106826 0.929043 0.69207
C_ C_ 0.148139 0.0967091 0.666966 0.69661
C_ C_ 0.382521 0.385407 0.890543 -0.30787
C_ C_ 0.126608 0.103697 0.610092 -0.30787
N_ N_ 0.145689 0.0614253 0.813157 -0.32189
N_ N_ 0.0511725 0.143046 0.826056 -0.32189
N_ N_ 0.106918 0.303108 0.561665 -0.32189
N_ N_ 0.199373 0.31452 0.644864 -0.32189
N_ N_ 0.356697 0.445408 0.69062 -0.32189
N_ N_ 0.445587 0.356936 0.677995 -0.32189
N_ N_ 0.391573 0.186072 0.954722 -0.32189
N_ N_ 0.30455 0.187237 0.860328 -0.32189
O_ O_ 0.505569 0.0896094 0.888682 -0.63271
O_ O_ 0.0414775 0.0351529 0.841317 -0.57982
O_ O_ 0.395122 0.102256 0.845351 -0.63271
O_ O_ 0.361481 0.0859115 0.914836 -0.57982
O_ O_ 0.245719 0.390302 0.594387 -0.63271
O_ O_ 0.201638 0.34532 0.532554 -0.57982
O_ O_ 0.355764 0.3512 0.584248 -0.63271
O_ O_ 0.375605 0.432739 0.588132 -0.57982
O_ O_ 0.990713 0.40479 0.604522 -0.63271
O_ O_ 0.449315 0.466264 0.651964 -0.57982
O_ O_ 0.0944701 0.391234 0.646219 -0.63271
O_ O_ 0.130134 0.402937 0.574859 -0.57982
O_ O_ 0.252246 0.106277 0.912057 -0.63271
O_ O_ 0.297763 0.156638 0.970079 -0.57982
O_ O_ 0.148206 0.146284 0.90165 -0.63271
O_ O_ 0.109443 0.0789658 0.912859 -0.57982
F_ F_ 0.445876 0.323828 0.929914 -0.20885
F_ F_ 0.436456 0.311686 0.847842 -0.20885
F_ F_ 0.374527 0.294435 0.892224 -0.20885
F_ F_ 0.322394 0.43215 0.83426 -0.20885
F_ F_ 0.331067 0.35017 0.810303 -0.20885
F_ F_ 0.39131 0.399431 0.799364 -0.20885
F_ F_ 0.072085 0.173912 0.558351 -0.20885
F_ F_ 0.0786271 0.179076 0.648982 -0.20885
F_ F_ 0.143361 0.192431 0.603452 -0.20885
F_ F_ 0.182861 0.0542545 0.669955 -0.20885
F_ F_ 0.173015 0.135975 0.686365 -0.20885
F_ F_ 0.109293 0.090548 0.697716 -0.20885
Zn Zn 0.0832527 0.584356 0.348361 0.83971
Zn Zn 0.165118 0.845742 0.0772159 0.83971
Zn Zn 0.413189 0.915689 0.151415 0.83971
Zn Zn 0.34012 0.656275 0.417092 0.83971
H_ H_ 0.155165 0.631884 0.293873 0.10394
H_ H_ 0.240503 0.601062 0.263413 0.10394
H_ H_ 0.203928 0.956366 0.267319 0.10394
H_ H_ 0.135263 0.48031 0.335138 0.10394
H_ H_ 0.527108 0.585834 0.256023 0.10394
H_ H_ 0.484235 0.656884 0.20254 0.10394
H_ H_ 0.0373446 0.765376 0.316311 0.10394
H_ H_ 0.0795047 0.691765 0.359794 0.10394
H_ H_ 0.0276964 0.944903 0.360869 0.10394
H_ H_ 0.473785 0.881033 0.405312 0.10394
H_ H_ 0.346489 0.992461 0.395821 0.10394
H_ H_ 0.0749334 0.807428 0.122331 0.10394
H_ H_ 0.504574 0.771065 0.096498 0.10394
H_ H_ 0.0405629 0.789545 0.441294 0.10394
H_ H_ 0.123097 0.815096 0.974064 0.10394
H_ H_ 0.209457 0.751628 0.0975538 0.10394
H_ H_ 0.24922 0.704518 0.172276 0.10394
H_ H_ 0.214574 0.840185 0.267119 0.10394
H_ H_ 0.184869 0.88474 0.187548 0.10394
H_ H_ 0.209035 0.867332 0.446728 0.10394
H_ H_ 0.257078 0.886887 0.378565 0.10394
H_ H_ 0.38936 0.898135 0.490045 0.10394
H_ H_ 0.308711 0.893891 0.160116 0.10394
H_ H_ 0.236988 0.944671 0.190677 0.10394
H_ H_ 0.332638 0.524187 0.296997 0.10394
H_ H_ 0.403001 0.000415983 0.232573 0.10394
H_ H_ 0.0148787 0.864034 0.169685 0.10394
H_ H_ 0.0515734 0.781338 0.204926 0.10394
H_ H_ 0.407666 0.737311 0.219941 0.10394
H_ H_ 0.363897 0.821745 0.187056 0.10394
H_ H_ 0.47232 0.568379 0.136714 0.10394
H_ H_ 0.0093052 0.619382 0.0858109 0.10394
H_ H_ 0.139952 0.510325 0.0845858 0.10394
H_ H_ 0.446195 0.658319 0.404293 0.10394
H_ H_ 0.0198162 0.684533 0.451296 0.10394
H_ H_ 0.416471 0.786163 0.0462374 0.10394
H_ H_ 0.346447 0.74423 0.506415 0.10394
H_ H_ 0.244285 0.72055 0.397504 0.10394
H_ H_ 0.200934 0.771479 0.326075 0.10394
H_ H_ 0.333265 0.714926 0.242524 0.10394
H_ H_ 0.36774 0.675515 0.318821 0.10394
H_ H_ 0.284724 0.616381 0.0584958 0.10394
H_ H_ 0.221622 0.617023 0.120515 0.10394
H_ H_ 0.107421 0.592323 0.000367244 0.10394
C_ C_ 0.166797 0.589804 0.289321 0.18167
C_ C_ 0.214267 0.572667 0.270802 -0.15533
C_ C_ 0.231962 0.520379 0.271017 0.02923
C_ C_ 0.195424 0.995065 0.272203 -0.15533
C_ C_ 0.157938 0.505702 0.315461 0.18167
C_ C_ 0.014496 0.627916 0.26789 0.18167
C_ C_ 0.506594 0.665907 0.238852 -0.15533
C_ C_ 4.0000000000040004e-05 0.720325 0.257863 0.02923
C_ C_ 0.0297431 0.728987 0.30159 -0.15533
C_ C_ 0.0576805 0.68639 0.324927 0.18167
C_ C_ 0.00610398 0.544015 0.365715 0.69207
C_ C_ 0.47324 0.00586203 0.387287 0.02923
C_ C_ 0.49066 0.954088 0.3881 -0.15533
C_ C_ 0.458424 0.916596 0.394039 -0.15533
C_ C_ 0.405727 0.93023 0.397622 0.02923
C_ C_ 0.387885 0.981816 0.394323 -0.15533
C_ C_ 0.421228 0.0196864 0.395054 0.02923
C_ C_ 0.396918 0.571404 0.38788 0.69207
C_ C_ 0.389511 0.833629 0.379678 0.69661
C_ C_ 0.0688421 0.802901 0.0825566 0.18167
C_ C_ 0.0266616 0.778151 0.0613628 -0.15533
C_ C_ 0.018408 0.769256 0.0094956 0.02923
C_ C_ 0.0460575 0.79218 0.482967 -0.15533
C_ C_ 0.100108 0.802794 0.000920563 0.18167
C_ C_ 0.214246 0.772094 0.13298 0.18167
C_ C_ 0.233302 0.742524 0.177273 -0.15533
C_ C_ 0.235253 0.765899 0.226082 0.02923
C_ C_ 0.216492 0.818747 0.229732 -0.15533
C_ C_ 0.197245 0.845617 0.185738 0.18167
C_ C_ 0.244454 0.863526 0.0432114 0.69207
C_ C_ 0.270998 0.871102 0.505838 0.02923
C_ C_ 0.248457 0.874684 0.456265 -0.15533
C_ C_ 0.275487 0.887457 0.416584 -0.15533
C_ C_ 0.327793 0.896434 0.427875 0.02923
C_ C_ 0.348992 0.893195 0.479601 -0.15533
C_ C_ 0.320757 0.887532 0.519437 0.02923
C_ C_ 0.355137 0.885682 0.0694124 0.69207
C_ C_ 0.339364 0.900326 0.327709 0.69661
C_ C_ 0.312177 0.93039 0.181768 0.18167
C_ C_ 0.270885 0.959235 0.199 -0.15533
C_ C_ 0.273901 1.00427807 0.230709 0.02923
C_ C_ 0.326056 0.50435 0.261955 -0.15533
C_ C_ 0.366362 0.987299 0.225181 0.18167
C_ C_ 0.489432 0.839894 0.185783 0.18167
C_ C_ 0.00952339 0.792423 0.202983 -0.15533
C_ C_ 0.483212 0.761633 0.228101 0.02923
C_ C_ 0.431023 0.767121 0.212323 -0.15533
C_ C_ 0.405845 0.812497 0.18971 0.18167
C_ C_ 0.495805 0.949132 0.124269 0.69207
C_ C_ 0.01906 0.497428 0.120688 0.02923
C_ C_ -0.003754000000000035 0.545365 0.103259 -0.15533
C_ C_ 0.029449 0.582297 0.0952095 -0.15533
C_ C_ 0.0829633 0.572155 0.0974712 0.02923
C_ C_ 0.102478 0.521918 0.100753 -0.15533
C_ C_ 0.0726493 0.484692 0.115991 0.02923
C_ C_ 0.103171 0.92765 0.102015 0.69207
C_ C_ 0.0931181 0.669036 0.0983776 0.69661
C_ C_ 0.437245 0.686933 0.43439 0.18167
C_ C_ 0.477256 0.711536 0.456933 -0.15533
C_ C_ 0.472848 0.744671 0.499861 0.02923
C_ C_ 0.423338 0.759619 0.0119691 -0.15533
C_ C_ 0.382909 0.730848 0.492312 0.18167
C_ C_ 0.259174 0.715937 0.360203 0.18167
C_ C_ 0.235991 0.745478 0.319181 -0.15533
C_ C_ 0.259224 0.738651 0.273664 0.02923
C_ C_ 0.307188 0.710405 0.272231 -0.15533
C_ C_ 0.329062 0.686993 0.315562 0.18167
C_ C_ 0.253677 0.626834 0.446626 0.69207
C_ C_ 0.228853 0.614399 0.991887 0.02923
C_ C_ 0.245515 0.612145 0.0447392 -0.15533
C_ C_ 0.211126 0.609607 0.0796712 -0.15533
C_ C_ 0.160069 0.606349 0.0664376 0.02923
C_ C_ 0.146131 0.59551 0.013284 -0.15533
C_ C_ 0.178128 0.606086 0.974465 0.02923
C_ C_ 0.143952 0.608391 0.427133 0.69207
C_ C_ 0.137715 0.614587 0.164103 0.69661
C_ C_ 0.365853 0.89072 0.384367 -0.30787
C_ C_ 0.119801 0.615186 0.106065 -0.30787
N_ N_ 0.142526 0.556129 0.314483 -0.32189
N_ N_ 0.0492271 0.637914 0.306885 -0.32189
N_ N_ 0.105619 0.813521 0.0527292 -0.32189
N_ N_ 0.194988 0.820646 0.138473 -0.32189
N_ N_ 0.359423 0.947287 0.192529 -0.32189
N_ N_ 0.436758 0.849398 0.179539 -0.32189
N_ N_ 0.390104 0.696101 0.452301 -0.32189
N_ N_ 0.305547 0.689148 0.356719 -0.32189
O_ O_ 0.507621 0.582991 0.399437 -0.63271
O_ O_ 0.0410297 0.535755 0.334275 -0.57982
O_ O_ 0.401256 0.598852 0.349245 -0.63271
O_ O_ 0.367722 0.591528 0.423535 -0.57982
O_ O_ 0.244869 0.89205 0.0858437 -0.63271
O_ O_ 0.209204 0.831683 0.0328174 -0.57982
O_ O_ 0.357211 0.846464 0.0994637 -0.63271
O_ O_ 0.382422 0.922898 0.0854513 -0.57982
O_ O_ 0.992897 0.907235 0.0891195 -0.63271
O_ O_ 0.466131 0.953599 0.160614 -0.57982
O_ O_ 0.0998192 0.896114 0.13954 -0.63271
O_ O_ 0.137433 0.912561 0.0686105 -0.57982
O_ O_ 0.249491 0.605336 0.400358 -0.63271
O_ O_ 0.290162 0.657327 0.460445 -0.57982
O_ O_ 0.145692 0.64815 0.400469 -0.63271
O_ O_ 0.108599 0.577775 0.412225 -0.57982
F_ F_ 0.418373 0.819228 0.423656 -0.20885
F_ F_ 0.415768 0.81956 0.336343 -0.20885
F_ F_ 0.352443 0.801299 0.378397 -0.20885
F_ F_ 0.305844 0.946644 0.323946 -0.20885
F_ F_ 0.305851 0.864811 0.308472 -0.20885
F_ F_ 0.375908 0.897847 0.291818 -0.20885
F_ F_ 0.0646704 0.671864 0.0514409 -0.20885
F_ F_ 0.0585427 0.681627 0.1341 -0.20885
F_ F_ 0.12801 0.702025 0.0992972 -0.20885
F_ F_ 0.169264 0.57018 0.173313 -0.20885
F_ F_ 0.165739 0.654657 0.181358 -0.20885
F_ F_ 0.0989806 0.615181 0.197799 -0.20885
Zn Zn 0.0872874 0.57985 0.845141 0.83971
Zn Zn 0.163903 0.844545 0.588052 0.83971
Zn Zn 0.408896 0.918046 0.65553 0.83971
Zn Zn 0.34263 0.657663 0.920224 0.83971
H_ H_ 0.162748 0.625231 0.791575 0.10394
H_ H_ 0.25066 0.594481 0.771631 0.10394
H_ H_ 0.206237 0.948593 0.782645 0.10394
H_ H_ 0.14011 0.484373 0.84088 0.10394
H_ H_ 0.533608 0.59784 0.752897 0.10394
H_ H_ 0.476741 0.665986 0.71074 0.10394
H_ H_ 0.0481918 0.76177 0.822549 0.10394
H_ H_ 0.0815458 0.695309 0.868852 0.10394
H_ H_ 0.0294678 0.942041 0.860436 0.10394
H_ H_ 0.476804 0.8769 0.858566 0.10394
H_ H_ 0.35549 0.985748 0.897103 0.10394
H_ H_ 0.0764421 0.80621 0.630289 0.10394
H_ H_ 0.499919 0.771321 0.598904 0.10394
H_ H_ 0.0436363 0.784946 0.938205 0.10394
H_ H_ 0.117704 0.820782 0.479541 0.10394
H_ H_ 0.208933 0.752097 0.606047 0.10394
H_ H_ 0.250752 0.703089 0.675922 0.10394
H_ H_ 0.200545 0.833255 0.774143 0.10394
H_ H_ 0.173775 0.879931 0.699076 0.10394
H_ H_ 0.218598 0.856126 0.944636 0.10394
H_ H_ 0.270144 0.867526 0.876854 0.10394
H_ H_ 0.396784 0.901278 0.986291 0.10394
H_ H_ 0.301553 0.904906 0.656763 0.10394
H_ H_ 0.231035 0.954177 0.697452 0.10394
H_ H_ 0.338743 0.547153 0.771787 0.10394
H_ H_ 0.407122 -0.005691000000000002 0.739933 0.10394
H_ H_ 0.0124838 0.8765 0.693087 0.10394
H_ H_ 0.0555543 0.7938 0.71731 0.10394
H_ H_ 0.401548 0.747647 0.721037 0.10394
H_ H_ 0.367254 0.825183 0.683653 0.10394
H_ H_ 0.464865 0.557588 0.622897 0.10394
H_ H_ 0.0292006 0.615428 0.636458 0.10394
H_ H_ 0.145331 0.502542 0.59033 0.10394
H_ H_ 0.443147 0.671299 0.891606 0.10394
H_ H_ 0.0182691 0.688081 0.940242 0.10394
H_ H_ 0.416434 0.78852 0.53932 0.10394
H_ H_ 0.342897 0.74921 -0.00837600000000005 0.10394
H_ H_ 0.239653 0.699235 0.892206 0.10394
H_ H_ 0.196 0.754443 0.827174 0.10394
H_ H_ 0.325697 0.70883 0.740132 0.10394
H_ H_ 0.37431 0.679364 0.81441 0.10394
H_ H_ 0.287501 0.603742 0.542773 0.10394
H_ H_ 0.238476 0.596953 0.613785 0.10394
H_ H_ 0.100795 0.595642 0.511892 0.10394
C_ C_ 0.176966 0.587812 0.798883 0.18167
C_ C_ 0.225622 0.567884 0.78572 -0.15533
C_ C_ 0.240707 0.516255 0.782149 0.02923
C_ C_ 0.20079 0.988654 0.791193 -0.15533
C_ C_ 0.158916 0.505151 0.814122 0.18167
C_ C_ 0.0176931 0.628911 0.774039 0.18167
C_ C_ 0.500098 0.675769 0.746253 -0.15533
C_ C_ 0.0126577 0.717562 0.758044 0.02923
C_ C_ 0.0408783 0.725068 0.804247 -0.15533
C_ C_ 0.0579185 0.686248 0.833624 0.18167
C_ C_ 0.00649527 0.541302 0.867735 0.69207
C_ C_ 0.473583 0.00687247 0.865416 0.02923
C_ C_ 0.494341 0.95558 0.860833 -0.15533
C_ C_ 0.462374 0.917247 0.864654 -0.15533
C_ C_ 0.413307 0.925687 0.883493 0.02923
C_ C_ 0.395978 0.976938 0.894668 -0.15533
C_ C_ 0.422838 0.0163896 0.880868 0.02923
C_ C_ 0.397059 0.57515 0.887882 0.69207
C_ C_ 0.402464 0.824882 0.884214 0.69661
C_ C_ 0.0717809 0.798152 0.589171 0.18167
C_ C_ 0.0279356 0.778893 0.568863 -0.15533
C_ C_ 0.0148755 0.773107 0.517202 0.02923
C_ C_ 0.0522124 0.785936 0.978163 -0.15533
C_ C_ 0.091884 0.811941 0.507356 0.18167
C_ C_ 0.206429 0.766317 0.644101 0.18167
C_ C_ 0.231235 0.740108 0.682335 -0.15533
C_ C_ 0.230646 0.762138 0.733742 0.02923
C_ C_ 0.20517 0.813452 0.739368 -0.15533
C_ C_ 0.186775 0.84039 0.696674 0.18167
C_ C_ 0.239515 0.861999 0.547788 0.69207
C_ C_ 0.279757 0.871094 0.0039285 0.02923
C_ C_ 0.260656 0.863547 0.952468 -0.15533
C_ C_ 0.287513 0.876103 0.914572 -0.15533
C_ C_ 0.339352 0.891109 0.923577 0.02923
C_ C_ 0.359451 0.891426 0.975017 -0.15533
C_ C_ 0.332713 0.880833 0.0168792 0.02923
C_ C_ 0.350481 0.887941 0.571881 0.69207
C_ C_ 0.349741 0.880741 0.82807 0.69661
C_ C_ 0.309063 0.932863 0.685721 0.18167
C_ C_ 0.269923 0.959178 0.710946 -0.15533
C_ C_ 0.277853 0.995808 0.749712 0.02923
C_ C_ 0.326269 0.515005 0.746672 -0.15533
C_ C_ 0.367395 0.981966 0.733454 0.18167
C_ C_ 0.489279 0.853366 0.700374 0.18167
C_ C_ 0.0164639 0.801301 0.718831 -0.15533
C_ C_ 0.479768 0.772005 0.734228 0.02923
C_ C_ 0.427123 0.778047 0.718276 -0.15533
C_ C_ 0.407866 0.820945 0.69516 0.18167
C_ C_ 0.48618 0.960313 0.624768 0.69207
C_ C_ 0.0240718 0.488208 0.619391 0.02923
C_ C_ 1.0075201 0.540776 0.62124 -0.15533
C_ C_ 0.0387139 0.57868 0.616264 -0.15533
C_ C_ 0.0888301 0.564524 0.606766 0.02923
C_ C_ 0.105168 0.512749 0.598906 -0.15533
C_ C_ 0.0764584 0.473993 0.60985 0.02923
C_ C_ 0.101491 0.921282 0.609933 0.69207
C_ C_ 0.102703 0.660335 0.608961 0.69661
C_ C_ 0.439161 0.695277 0.927375 0.18167
C_ C_ 0.47851 0.718087 0.951308 -0.15533
C_ C_ 0.472956 0.749103 -0.006018999999999997 0.02923
C_ C_ 0.423534 0.757554 0.514102 -0.15533
C_ C_ 0.383665 0.733092 0.986423 0.18167
C_ C_ 0.260617 0.707293 0.86167 0.18167
C_ C_ 0.235883 0.737149 0.825429 -0.15533
C_ C_ 0.256379 0.736602 0.778155 0.02923
C_ C_ 0.306894 0.711452 0.775285 -0.15533
C_ C_ 0.333748 0.691256 0.817467 0.18167
C_ C_ 0.263886 0.626355 0.954132 0.69207
C_ C_ 0.224294 0.605984 0.486662 0.02923
C_ C_ 0.247574 0.600701 0.535233 -0.15533
C_ C_ 0.218136 0.597755 0.577365 -0.15533
C_ C_ 0.16468 0.595658 0.568773 0.02923
C_ C_ 0.142417 0.598205 0.519337 -0.15533
C_ C_ 0.171149 0.605173 0.477766 0.02923
C_ C_ 0.153525 0.606799 0.919247 0.69207
C_ C_ 0.156037 0.599813 0.66651 0.69661
C_ C_ 0.377014 0.881632 0.882503 -0.30787
C_ C_ 0.128003 0.604885 0.611677 -0.30787
N_ N_ 0.143829 0.555378 0.811414 -0.32189
N_ N_ 0.0489761 0.638671 0.818429 -0.32189
N_ N_ 0.104765 0.812698 0.558541 -0.32189
N_ N_ 0.189184 0.816004 0.650907 -0.32189
N_ N_ 0.356391 0.949287 0.694996 -0.32189
N_ N_ 0.43867 0.85683 0.684233 -0.32189
N_ N_ 0.391512 0.703044 0.942971 -0.32189
N_ N_ 0.310221 0.687306 0.859517 -0.32189
O_ O_ 0.499343 0.596968 0.893144 -0.63271
O_ O_ 0.0456383 0.52661 0.843636 -0.57982
O_ O_ 0.388369 0.598505 0.842691 -0.63271
O_ O_ 0.384126 0.599642 0.930471 -0.57982
O_ O_ 0.244733 0.886523 0.593163 -0.63271
O_ O_ 0.20081 0.835572 0.536908 -0.57982
O_ O_ 0.358969 0.845809 0.595416 -0.63271
O_ O_ 0.374693 0.925432 0.59134 -0.57982
O_ O_ 0.987812 0.907149 0.593842 -0.63271
O_ O_ 0.455738 0.965033 0.662792 -0.57982
O_ O_ 0.0930749 0.894341 0.649802 -0.63271
O_ O_ 0.141999 0.907146 0.587213 -0.57982
O_ O_ 0.263582 0.598925 0.91143 -0.63271
O_ O_ 0.300351 0.655626 0.969476 -0.57982
O_ O_ 0.155027 0.646806 0.891324 -0.63271
O_ O_ 0.117399 0.576328 0.904788 -0.57982
F_ F_ 0.440751 0.825686 0.924822 -0.20885
F_ F_ 0.425548 0.804164 0.84075 -0.20885
F_ F_ 0.366581 0.790521 0.894468 -0.20885
F_ F_ 0.310641 0.92 0.822714 -0.20885
F_ F_ 0.324703 0.83719 0.808615 -0.20885
F_ F_ 0.379344 0.883464 0.789031 -0.20885
F_ F_ 0.0614044 0.665091 0.571435 -0.20885
F_ F_ 0.0849813 0.684085 0.65438 -0.20885
F_ F_ 0.13342 0.693035 0.596547 -0.20885
F_ F_ 0.180564 0.55129 0.676336 -0.20885
F_ F_ 0.187303 0.637489 0.68483 -0.20885
F_ F_ 0.120693 0.609107 0.702161 -0.20885
Zn Zn 0.592377 0.0835438 0.350146 0.83971
Zn Zn 0.652161 0.350817 0.0878854 0.83971
Zn Zn 0.904141 0.418619 0.156996 0.83971
Zn Zn 0.841135 0.152084 0.416582 0.83971
H_ H_ 0.665363 0.130416 0.306133 0.10394
H_ H_ 0.756783 0.0972699 0.28483 0.10394
H_ H_ 0.712081 0.442309 0.288779 0.10394
H_ H_ 0.626634 0.981833 0.304406 0.10394
H_ H_ 0.0112076 0.101882 0.245365 0.10394
H_ H_ 0.988207 0.177613 0.199169 0.10394
H_ H_ 0.526124 0.273097 0.328706 0.10394
H_ H_ 0.569783 0.19559 0.377417 0.10394
H_ H_ 0.524883 0.439581 0.352266 0.10394
H_ H_ 0.981839 0.374201 0.374079 0.10394
H_ H_ 0.855998 0.480824 0.411893 0.10394
H_ H_ 0.575445 0.313497 0.135601 0.10394
H_ H_ 0.9949388 0.277898 0.0984333 0.10394
H_ H_ 0.534387 0.29853 0.449911 0.10394
H_ H_ 0.619863 0.311486 0.987074 0.10394
H_ H_ 0.720031 0.264024 0.0999643 0.10394
H_ H_ 0.751135 0.212243 0.176127 0.10394
H_ H_ 0.69819 0.334831 0.275908 0.10394
H_ H_ 0.669127 0.388625 0.202322 0.10394
H_ H_ 0.719898 0.382421 0.446424 0.10394
H_ H_ 0.772573 0.386736 0.380773 0.10394
H_ H_ 0.903283 0.393847 0.493221 0.10394
H_ H_ 0.798647 0.40163 0.154431 0.10394
H_ H_ 0.721465 0.448473 0.188764 0.10394
H_ H_ 0.836203 0.0371932 0.283835 0.10394
H_ H_ 0.892461 0.511393 0.22731 0.10394
H_ H_ 0.512672 0.382611 0.194118 0.10394
H_ H_ 0.553729 0.300977 0.223989 0.10394
H_ H_ 0.90067 0.245477 0.22052 0.10394
H_ H_ 0.863916 0.322356 0.173278 0.10394
H_ H_ 0.960712 0.0457647 0.131726 0.10394
H_ H_ 0.517551 0.117977 0.125713 0.10394
H_ H_ 0.645757 0.00933869 0.089947 0.10394
H_ H_ 0.932794 0.163319 0.390463 0.10394
H_ H_ 0.525972 0.192712 0.462437 0.10394
H_ H_ 0.913719 0.289177 0.0413617 0.10394
H_ H_ 0.843871 0.234691 0.498458 0.10394
H_ H_ 0.7377 0.195919 0.389155 0.10394
H_ H_ 0.688557 0.243146 0.317341 0.10394
H_ H_ 0.82588 0.23585 0.247844 0.10394
H_ H_ 0.871771 0.182917 0.320948 0.10394
H_ H_ 0.793293 0.0997291 0.0564193 0.10394
H_ H_ 0.73337 0.100429 0.121828 0.10394
H_ H_ 0.606696 0.100163 0.00822391 0.10394
C_ C_ 0.679276 0.0900262 0.301844 0.18167
C_ C_ 0.726963 0.0719996 0.284337 -0.15533
C_ C_ 0.736643 0.0218491 0.267661 0.02923
C_ C_ 0.701628 0.482267 0.289398 -0.15533
C_ C_ 0.657996 0.00517369 0.304207 0.18167
C_ C_ 0.525458 0.134588 0.274275 0.18167
C_ C_ -0.0009149999999999991 0.18089 0.241065 -0.15533
C_ C_ 0.506053 0.225323 0.262876 0.02923
C_ C_ 0.532234 0.235049 0.311159 -0.15533
C_ C_ 0.556482 0.19331 0.337468 0.18167
C_ C_ 0.511718 0.0437019 0.380255 0.69207
C_ C_ 0.969822 0.505436 0.372744 0.02923
C_ C_ 0.99177 0.455062 0.37334 -0.15533
C_ C_ 0.964935 0.412203 0.382103 -0.15533
C_ C_ 0.915104 0.420901 0.39339 0.02923
C_ C_ 0.894143 0.473802 0.403514 -0.15533
C_ C_ 0.920015 0.516019 0.391099 0.02923
C_ C_ 0.890163 0.0687731 0.381509 0.69207
C_ C_ 0.905924 0.322541 0.381917 0.69661
C_ C_ 0.561985 0.309997 0.0950003 0.18167
C_ C_ 0.518737 0.289402 0.0750584 -0.15533
C_ C_ 0.509435 0.277634 0.0220342 0.02923
C_ C_ 0.545072 0.299492 0.488324 -0.15533
C_ C_ 0.591706 0.307311 0.0113939 0.18167
C_ C_ 0.715184 0.279981 0.139922 0.18167
C_ C_ 0.734284 0.249515 0.182533 -0.15533
C_ C_ 0.728162 0.270061 0.232894 0.02923
C_ C_ 0.705379 0.320279 0.239334 -0.15533
C_ C_ 0.680344 0.346997 0.196224 0.18167
C_ C_ 0.734148 0.376915 0.0418934 0.69207
C_ C_ 0.779647 0.384473 0.509669 0.02923
C_ C_ 0.760239 0.380883 0.458107 -0.15533
C_ C_ 0.789846 0.382366 0.418614 -0.15533
C_ C_ 0.842654 0.386567 0.428997 0.02923
C_ C_ 0.862678 0.390853 0.479917 -0.15533
C_ C_ 0.833268 0.385938 0.519328 0.02923
C_ C_ 0.845964 0.386014 0.0694027 0.69207
C_ C_ 0.854751 0.386469 0.330981 0.69661
C_ C_ 0.803222 0.431359 0.181888 0.18167
C_ C_ 0.761328 0.455117 0.202935 -0.15533
C_ C_ 0.769916 0.496343 0.239725 0.02923
C_ C_ 0.829476 0.0153363 0.249289 -0.15533
C_ C_ 0.858021 0.489706 0.22624 0.18167
C_ C_ 0.978275 0.357077 0.203254 0.18167
C_ C_ 0.513601 0.309071 0.223139 -0.15533
C_ C_ 0.976328 0.274547 0.238022 0.02923
C_ C_ 0.926079 0.276727 0.219004 -0.15533
C_ C_ 0.902313 0.318116 0.190756 0.18167
C_ C_ 0.984878 0.458694 0.128171 0.69207
C_ C_ 0.529066 0.989159 0.119078 0.02923
C_ C_ 0.506607 0.0402005 0.122929 -0.15533
C_ C_ 0.534663 0.0803886 0.11802 -0.15533
C_ C_ 0.586024 0.0704379 0.104038 0.02923
C_ C_ 0.606406 0.0188893 0.0976179 -0.15533
C_ C_ 0.57854 0.977214 0.10365 0.02923
C_ C_ 0.59312 0.428521 0.107778 0.69207
C_ C_ 0.601009 0.169866 0.108932 0.69661
C_ C_ 0.931126 0.187941 0.425662 0.18167
C_ C_ 0.97544 0.20905 0.448382 -0.15533
C_ C_ 0.971985 0.244007 0.492199 0.02923
C_ C_ 0.920641 0.26068 0.013057 -0.15533
C_ C_ 0.880908 0.231303 0.485038 0.18167
C_ C_ 0.755263 0.203885 0.357548 0.18167
C_ C_ 0.728743 0.230616 0.317165 -0.15533
C_ C_ 0.754626 0.240646 0.276297 0.02923
C_ C_ 0.806466 0.22477 0.276608 -0.15533
C_ C_ 0.832354 0.199025 0.318219 0.18167
C_ C_ 0.762873 0.118836 0.454212 0.69207
C_ C_ 0.731278 0.118059 0.994732 0.02923
C_ C_ 0.749903 0.107866 0.0458583 -0.15533
C_ C_ 0.715852 0.105715 0.0830902 -0.15533
C_ C_ 0.662529 0.108172 0.0710116 0.02923
C_ C_ 0.645527 0.108274 0.0193195 -0.15533
C_ C_ 0.677129 0.115303 0.980545 0.02923
C_ C_ 0.651092 0.11018 0.428554 0.69207
C_ C_ 0.64751 0.109537 0.167242 0.69661
C_ C_ 0.878957 0.377703 0.385701 -0.30787
C_ C_ 0.621033 0.1141 0.111646 -0.30787
N_ N_ 0.648492 0.0566495 0.312687 -0.32189
N_ N_ 0.55529 0.143894 0.31737 -0.32189
N_ N_ 0.5975 0.317364 0.0633664 -0.32189
N_ N_ 0.687162 0.325241 0.146899 -0.32189
N_ N_ 0.85168 0.448506 0.194034 -0.32189
N_ N_ 0.928322 0.358332 0.184492 -0.32189
N_ N_ 0.888098 0.195679 0.446644 -0.32189
N_ N_ 0.80555 0.185523 0.355609 -0.32189
O_ O_ 0.00285558 0.0883631 0.395889 -0.63271
O_ O_ 0.543856 0.0336553 0.345129 -0.57982
O_ O_ 0.887304 0.0963619 0.343527 -0.63271
O_ O_ 0.866992 0.0866355 0.422089 -0.57982
O_ O_ 0.734607 0.411907 0.0802917 -0.63271
O_ O_ 0.700793 0.342546 0.0396954 -0.57982
O_ O_ 0.844542 0.344456 0.093687 -0.63271
O_ O_ 0.874258 0.420462 0.0920374 -0.57982
O_ O_ 0.490613 0.417087 0.102238 -0.63271
O_ O_ 0.946573 0.469669 0.156869 -0.57982
O_ O_ 0.593017 0.404495 0.149958 -0.63271
O_ O_ 0.627366 0.412978 0.0745777 -0.57982
O_ O_ 0.754658 0.0987689 0.408593 -0.63271
O_ O_ 0.796659 0.151378 0.463738 -0.57982
O_ O_ 0.653053 0.146981 0.397352 -0.63271
O_ O_ 0.620914 0.0755589 0.413583 -0.57982
F_ F_ 0.940458 0.309244 0.422337 -0.20885
F_ F_ 0.931563 0.307528 0.339862 -0.20885
F_ F_ 0.86905 0.287921 0.387964 -0.20885
F_ F_ 0.82219 0.430869 0.330315 -0.20885
F_ F_ 0.824712 0.349796 0.315505 -0.20885
F_ F_ 0.886524 0.386869 0.289847 -0.20885
F_ F_ 0.57591 0.17942 0.062044 -0.20885
F_ F_ 0.569448 0.189687 0.142705 -0.20885
F_ F_ 0.639432 0.201906 0.113174 -0.20885
F_ F_ 0.673713 0.0618493 0.175267 -0.20885
F_ F_ 0.684051 0.142888 0.187887 -0.20885
F_ F_ 0.609929 0.117523 0.199247 -0.20885
Zn Zn 0.5901 0.08792 0.847391 0.83971
Zn Zn 0.665317 0.350148 0.58693 0.83971
Zn Zn 0.912057 0.416138 0.658822 0.83971
Zn Zn 0.838318 0.155931 0.91595 0.83971
H_ H_ 0.679046 0.133129 0.815306 0.10394
H_ H_ 0.756317 0.0987627 0.773821 0.10394
H_ H_ 0.709556 0.448328 0.784201 0.10394
H_ H_ 0.633653 0.986987 0.819062 0.10394
H_ H_ 0.0349783 0.0979168 0.760286 0.10394
H_ H_ 0.999265 0.175034 0.709134 0.10394
H_ H_ 0.526624 0.269961 0.828129 0.10394
H_ H_ 0.5667 0.200613 0.877796 0.10394
H_ H_ 0.535088 0.451477 0.864425 0.10394
H_ H_ 0.980743 0.371455 0.879078 0.10394
H_ H_ 0.853808 0.48469 0.913437 0.10394
H_ H_ 0.594537 0.311768 0.629198 0.10394
H_ H_ 0.0030200000000000227 0.264716 0.59797 0.10394
H_ H_ 0.540782 0.280609 0.948577 0.10394
H_ H_ 0.614579 0.331959 0.476922 0.10394
H_ H_ 0.722748 0.252548 0.588131 0.10394
H_ H_ 0.757501 0.196746 0.653996 0.10394
H_ H_ 0.717854 0.316065 0.76484 0.10394
H_ H_ 0.699875 0.375995 0.696779 0.10394
H_ H_ 0.719105 0.358217 0.939344 0.10394
H_ H_ 0.77452 0.365488 0.872501 0.10394
H_ H_ 0.891688 0.404823 0.988815 0.10394
H_ H_ 0.810776 0.402739 0.662538 0.10394
H_ H_ 0.735614 0.449119 0.689928 0.10394
H_ H_ 0.842697 0.0286194 0.797467 0.10394
H_ H_ 0.902578 0.506851 0.738161 0.10394
H_ H_ 0.516115 0.390951 0.706358 0.10394
H_ H_ 0.555566 0.316247 0.748989 0.10394
H_ H_ 0.911037 0.250577 0.737649 0.10394
H_ H_ 0.871796 0.324552 0.690662 0.10394
H_ H_ 0.962145 0.0488882 0.621361 0.10394
H_ H_ 0.519612 0.125007 0.613904 0.10394
H_ H_ 0.648523 0.00496819 0.60853 0.10394
H_ H_ 0.940442 0.160211 0.901203 0.10394
H_ H_ 0.521794 0.189795 0.961966 0.10394
H_ H_ 0.920934 0.28465 0.539868 0.10394
H_ H_ 0.838087 0.249523 -0.00197018 0.10394
H_ H_ 0.734207 0.192746 0.875826 0.10394
H_ H_ 0.693921 0.229623 0.793329 0.10394
H_ H_ 0.84058 0.209186 0.7385 0.10394
H_ H_ 0.88066 0.188735 0.827386 0.10394
H_ H_ 0.789499 0.106016 0.55232 0.10394
H_ H_ 0.73858 0.0964337 0.621786 0.10394
H_ H_ 0.607469 0.101835 0.513065 0.10394
C_ C_ 0.683219 0.0969487 0.801468 0.18167
C_ C_ 0.727909 0.0752197 0.77847 -0.15533
C_ C_ 0.738565 0.0219997 0.771216 0.02923
C_ C_ 0.703649 0.489387 0.793703 -0.15533
C_ C_ 0.65962 0.0113989 0.80513 0.18167
C_ C_ 0.531451 0.135861 0.769579 0.18167
C_ C_ 0.0124828 0.17816 0.74852 -0.15533
C_ C_ 0.513863 0.225925 0.759592 0.02923
C_ C_ 0.533306 0.233338 0.809901 -0.15533
C_ C_ 0.553485 0.192534 0.838742 0.18167
C_ C_ 0.509872 0.0471866 0.86027 0.69207
C_ C_ 0.972944 0.502933 0.879327 0.02923
C_ C_ 0.993941 0.45072 0.880184 -0.15533
C_ C_ 0.964002 0.41131 0.883649 -0.15533
C_ C_ 0.913925 0.424766 0.89679 0.02923
C_ C_ 0.893798 0.477339 0.903924 -0.15533
C_ C_ 0.922829 0.515358 0.889516 0.02923
C_ C_ 0.892398 0.0688421 0.88274 0.69207
C_ C_ 0.898183 0.329381 0.886758 0.69661
C_ C_ 0.578942 0.310526 0.590985 0.18167
C_ C_ 0.532534 0.28927 0.576085 -0.15533
C_ C_ 0.517574 0.28084 0.524639 0.02923
C_ C_ 0.547037 0.285602 0.990659 -0.15533
C_ C_ 0.595379 0.313625 0.503653 0.18167
C_ C_ 0.726237 0.268834 0.625654 0.18167
C_ C_ 0.747626 0.236726 0.664036 -0.15533
C_ C_ 0.74596 0.252659 0.717185 0.02923
C_ C_ 0.724544 0.303577 0.728019 -0.15533
C_ C_ 0.705334 0.33523 0.689227 0.18167
C_ C_ 0.743575 0.385954 0.549192 0.69207
C_ C_ 0.771289 0.379227 1.00247518 0.02923
C_ C_ 0.75343 0.37366 0.949192 -0.15533
C_ C_ 0.788337 0.374082 0.912524 -0.15533
C_ C_ 0.837359 0.387576 0.92636 0.02923
C_ C_ 0.854925 0.395646 0.976549 -0.15533
C_ C_ 0.823635 0.389052 0.0163061 0.02923
C_ C_ 0.858464 0.387933 0.572162 0.69207
C_ C_ 0.850863 0.389655 0.829325 0.69661
C_ C_ 0.816239 0.435576 0.686129 0.18167
C_ C_ 0.772543 0.459112 0.706946 -0.15533
C_ C_ 0.776471 0.500999 0.74272 0.02923
C_ C_ 0.833909 0.00553715 0.763102 -0.15533
C_ C_ 0.866529 0.494731 0.727973 0.18167
C_ C_ 0.99697 0.348298 0.7051 0.18167
C_ C_ 0.519416 0.312413 0.728253 -0.15533
C_ C_ 0.986241 0.272692 0.747324 0.02923
C_ C_ 0.93361 0.276408 0.728836 -0.15533
C_ C_ 0.914589 0.320456 0.70329 0.18167
C_ C_ 0.985954 0.45216 0.624295 0.69207
C_ C_ 0.524718 0.996695 0.620927 0.02923
C_ C_ 0.509233 0.0495324 0.629462 -0.15533
C_ C_ 0.539818 0.0863524 0.617774 -0.15533
C_ C_ 0.590784 0.0726994 0.606229 0.02923
C_ C_ 0.607783 0.0190032 0.605917 -0.15533
C_ C_ 0.575968 0.982277 0.613207 0.02923
C_ C_ 0.602995 0.432427 0.620361 0.69207
C_ C_ 0.609033 0.167111 0.60997 0.69661
C_ C_ 0.934497 0.187382 0.933323 0.18167
C_ C_ 0.976644 0.201551 0.964578 -0.15533
C_ C_ 0.97168 0.242611 0.0031600000000000517 0.02923
C_ C_ 0.92264 0.258012 0.50765 -0.15533
C_ C_ 0.878072 0.235912 0.987039 0.18167
C_ C_ 0.757982 0.194917 0.846137 0.18167
C_ C_ 0.734996 0.21403 0.797079 -0.15533
C_ C_ 0.766451 0.219994 0.760629 0.02923
C_ C_ 0.819319 0.209593 0.769743 -0.15533
C_ C_ 0.840307 0.195326 0.818882 0.18167
C_ C_ 0.766039 0.122947 0.956253 0.69207
C_ C_ 0.728088 0.116634 0.495521 0.02923
C_ C_ 0.748816 0.112512 0.545446 -0.15533
C_ C_ 0.720349 0.105411 0.584836 -0.15533
C_ C_ 0.66707 0.10358 0.574144 0.02923
C_ C_ 0.645573 0.10849 0.521994 -0.15533
C_ C_ 0.674661 0.11395 0.481656 0.02923
C_ C_ 0.655563 0.114689 0.926384 0.69207
C_ C_ 0.654861 0.110426 0.670973 0.69661
C_ C_ 0.874607 0.383734 0.885701 -0.30787
C_ C_ 0.630704 0.111149 0.615229 -0.30787
N_ N_ 0.650431 0.0649058 0.81352 -0.32189
N_ N_ 0.552665 0.145756 0.817651 -0.32189
N_ N_ 0.60989 0.321169 0.554749 -0.32189
N_ N_ 0.70321 0.316623 0.639079 -0.32189
N_ N_ 0.862052 0.450332 0.698329 -0.32189
N_ N_ 0.946238 0.355976 0.692694 -0.32189
N_ N_ 0.886753 0.199833 0.949275 -0.32189
N_ N_ 0.809585 0.184879 0.854286 -0.32189
O_ O_ -0.0011529999999999596 0.0891787 0.895118 -0.63271
O_ O_ 0.54708 0.0394567 0.830545 -0.57982
O_ O_ 0.892064 0.0911809 0.839887 -0.63271
O_ O_ 0.87216 0.0925955 0.921741 -0.57982
O_ O_ 0.749354 0.410869 0.593 -0.63271
O_ O_ 0.705558 0.357725 0.539485 -0.57982
O_ O_ 0.861432 0.349229 0.599645 -0.63271
O_ O_ 0.885831 0.42359 0.591622 -0.57982
O_ O_ 0.493531 0.413132 0.597851 -0.63271
O_ O_ 0.953832 0.462815 0.658325 -0.57982
O_ O_ 0.604379 0.409598 0.663819 -0.63271
O_ O_ 0.640917 0.417822 0.591522 -0.57982
O_ O_ 0.762732 0.0973847 0.912108 -0.63271
O_ O_ 0.790732 0.163435 0.96131 -0.57982
O_ O_ 0.653317 0.158043 0.90198 -0.63271
O_ O_ 0.623851 0.0819953 0.91071 -0.57982
F_ F_ 0.934581 0.320366 0.928313 -0.20885
F_ F_ 0.92147 0.311925 0.843165 -0.20885
F_ F_ 0.863682 0.295471 0.888687 -0.20885
F_ F_ 0.812094 0.42867 0.824443 -0.20885
F_ F_ 0.828149 0.346137 0.805864 -0.20885
F_ F_ 0.885759 0.399501 0.797203 -0.20885
F_ F_ 0.574688 0.173332 0.566863 -0.20885
F_ F_ 0.579776 0.191484 0.647647 -0.20885
F_ F_ 0.64516 0.19921 0.603427 -0.20885
F_ F_ 0.679291 0.0623925 0.684901 -0.20885
F_ F_ 0.686486 0.146443 0.689774 -0.20885
F_ F_ 0.614792 0.118026 0.703171 -0.20885
Zn Zn 0.588242 0.579759 0.348589 0.83971
Zn Zn 0.664426 0.84238 0.0827179 0.83971
Zn Zn 0.909411 0.916011 0.146072 0.83971
Zn Zn 0.842723 0.651031 0.415205 0.83971
H_ H_ 0.657559 0.625483 0.299931 0.10394
H_ H_ 0.743414 0.596351 0.277755 0.10394
H_ H_ 0.706027 0.9507 0.268992 0.10394
H_ H_ 0.643522 0.476814 0.339002 0.10394
H_ H_ 0.007390000000000008 0.589558 0.254904 0.10394
H_ H_ 0.962419 0.664908 0.209354 0.10394
H_ H_ 0.533949 0.764916 0.320791 0.10394
H_ H_ 0.571975 0.695831 0.371911 0.10394
H_ H_ 0.531325 0.942469 0.38858 0.10394
H_ H_ 0.970397 0.880564 0.352674 0.10394
H_ H_ 0.844966 0.986639 0.387417 0.10394
H_ H_ 0.584125 0.803375 0.131327 0.10394
H_ H_ 1.000831477 0.765942 0.0853322 0.10394
H_ H_ 0.545996 0.774537 0.446184 0.10394
H_ H_ 0.619861 0.819683 0.98286 0.10394
H_ H_ 0.727861 0.744346 0.100323 0.10394
H_ H_ 0.768567 0.702895 0.176013 0.10394
H_ H_ 0.717389 0.831383 0.268511 0.10394
H_ H_ 0.681822 0.877859 0.192846 0.10394
H_ H_ 0.711107 0.882827 0.441216 0.10394
H_ H_ 0.761715 0.889148 0.374709 0.10394
H_ H_ 0.89653 0.894618 0.484674 0.10394
H_ H_ 0.808709 0.894557 0.15736 0.10394
H_ H_ 0.735267 0.94641 0.189303 0.10394
H_ H_ 0.826127 0.539656 0.283505 0.10394
H_ H_ 0.907287 0.997603 0.235995 0.10394
H_ H_ 0.512283 0.867989 0.175515 0.10394
H_ H_ 0.553068 0.78931 0.223286 0.10394
H_ H_ 0.898306 0.756686 0.239034 0.10394
H_ H_ 0.864937 0.829864 0.191932 0.10394
H_ H_ 0.956132 0.556304 0.104429 0.10394
H_ H_ 0.520776 0.623271 0.0970758 0.10394
H_ H_ 0.644393 0.505863 0.0920076 0.10394
H_ H_ 0.944895 0.654516 0.397883 0.10394
H_ H_ 0.515156 0.69551 0.453643 0.10394
H_ H_ 0.921561 0.7824 0.0389455 0.10394
H_ H_ 0.84403 0.752153 0.475615 0.10394
H_ H_ 0.738187 0.70485 0.390428 0.10394
H_ H_ 0.69783 0.749933 0.315697 0.10394
H_ H_ 0.836207 0.713043 0.24438 0.10394
H_ H_ 0.877152 0.678994 0.325495 0.10394
H_ H_ 0.79666 0.603165 0.0544769 0.10394
H_ H_ 0.744607 0.593405 0.121662 0.10394
H_ H_ 0.60864 0.591337 0.0132687 0.10394
C_ C_ 0.670693 0.583874 0.295853 0.18167
C_ C_ 0.716992 0.568203 0.278223 -0.15533
C_ C_ 0.728987 0.51643 0.269268 0.02923
C_ C_ 0.701457 0.988777 0.279607 -0.15533
C_ C_ 0.659787 0.501044 0.315945 0.18167
C_ C_ 0.528198 0.6251 0.27053 0.18167
C_ C_ -0.01211300000000004 0.66952 0.243012 -0.15533
C_ C_ 0.507251 0.716876 0.258059 0.02923
C_ C_ 0.529086 0.725817 0.306449 -0.15533
C_ C_ 0.550056 0.685281 0.337348 0.18167
C_ C_ 0.508803 0.540283 0.372103 0.69207
C_ C_ 0.969235 0.00712145 0.374458 0.02923
C_ C_ -0.010963999999999974 0.954649 0.372414 -0.15533
C_ C_ 0.956812 0.917145 0.372465 -0.15533
C_ C_ 0.906031 0.925924 0.382261 0.02923
C_ C_ 0.885455 0.978077 0.382711 -0.15533
C_ C_ 0.916758 0.0195143 0.382501 0.02923
C_ C_ 0.893627 0.566241 0.386259 0.69207
C_ C_ 0.894143 0.827692 0.374131 0.69661
C_ C_ 0.575943 0.798756 0.0908694 0.18167
C_ C_ 0.53072 0.78132 0.0710108 -0.15533
C_ C_ 0.51709 0.774615 0.0177973 0.02923
C_ C_ 0.551415 0.784147 0.488526 -0.15533
C_ C_ 0.594421 0.810775 0.00848568 0.18167
C_ C_ 0.724015 0.766474 0.137024 0.18167
C_ C_ 0.74567 0.740205 0.179946 -0.15533
C_ C_ 0.740811 0.761464 0.228475 0.02923
C_ C_ 0.717032 0.811313 0.233003 -0.15533
C_ C_ 0.69253 0.836925 0.189962 0.18167
C_ C_ 0.746827 0.858787 0.0443997 0.69207
C_ C_ 0.774972 0.877255 0.50271 0.02923
C_ C_ 0.751917 0.885324 0.452839 -0.15533
C_ C_ 0.782101 0.887072 0.412165 -0.15533
C_ C_ 0.834672 0.888497 0.420637 0.02923
C_ C_ 0.855863 0.891897 0.47389 -0.15533
C_ C_ 0.827714 0.881701 0.512797 0.02923
C_ C_ 0.855306 0.879012 0.0633349 0.69207
C_ C_ 0.844004 0.889124 0.322432 0.69661
C_ C_ 0.813352 0.931484 0.181371 0.18167
C_ C_ 0.772253 0.956776 0.204288 -0.15533
C_ C_ 0.780245 0.99945069 0.239774 0.02923
C_ C_ 0.818289 0.514245 0.248981 -0.15533
C_ C_ 0.869857 0.986728 0.226886 0.18167
C_ C_ 0.987837 0.83987 0.181425 0.18167
C_ C_ 0.512909 0.797862 0.213848 -0.15533
C_ C_ 0.978047 0.763248 0.223841 0.02923
C_ C_ 0.923879 0.77703 0.221061 -0.15533
C_ C_ 0.90439 0.820121 0.193905 0.18167
C_ C_ 0.992967 0.947487 0.121533 0.69207
C_ C_ 0.522459 0.497925 0.122108 0.02923
C_ C_ 0.507517 0.551071 0.125304 -0.15533
C_ C_ 0.537402 0.585226 0.10733 -0.15533
C_ C_ 0.589551 0.571191 0.103092 0.02923
C_ C_ 0.605518 0.518432 0.102861 -0.15533
C_ C_ 0.571421 0.481052 0.106603 0.02923
C_ C_ 0.606938 0.925428 0.109083 0.69207
C_ C_ 0.60718 0.665484 0.112613 0.69661
C_ C_ 0.940176 0.679751 0.431522 0.18167
C_ C_ 0.981082 0.70261 0.458539 -0.15533
C_ C_ 0.971564 0.744744 0.495075 0.02923
C_ C_ 0.927615 0.748125 1.0119556 -0.15533
C_ C_ 0.880501 0.735398 0.475955 0.18167
C_ C_ 0.760835 0.708763 0.359753 0.18167
C_ C_ 0.736922 0.730781 0.316164 -0.15533
C_ C_ 0.763328 0.733677 0.274868 0.02923
C_ C_ 0.814704 0.712991 0.276373 -0.15533
C_ C_ 0.836663 0.687761 0.319738 0.18167
C_ C_ 0.762622 0.621174 0.45064 0.69207
C_ C_ 0.731505 0.611266 0.993094 0.02923
C_ C_ 0.752963 0.606009 0.0442173 -0.15533
C_ C_ 0.723473 0.598732 0.0833375 -0.15533
C_ C_ 0.668799 0.602609 0.0717872 0.02923
C_ C_ 0.648741 0.59798 0.0203996 -0.15533
C_ C_ 0.681453 0.60271 0.981094 0.02923
C_ C_ 0.649914 0.605711 0.424465 0.69207
C_ C_ 0.653817 0.604341 0.168004 0.69661
C_ C_ 0.870224 0.883479 0.374964 -0.30787
C_ C_ 0.629634 0.608639 0.113296 -0.30787
N_ N_ 0.643148 0.551741 0.314568 -0.32189
N_ N_ 0.554106 0.638502 0.315125 -0.32189
N_ N_ 0.608782 0.809887 0.0587476 -0.32189
N_ N_ 0.69637 0.814017 0.142011 -0.32189
N_ N_ 0.860909 0.949095 0.190421 -0.32189
N_ N_ 0.934989 0.850467 0.173313 -0.32189
N_ N_ 0.891713 0.694455 0.443183 -0.32189
N_ N_ 0.809098 0.687147 0.360918 -0.32189
O_ O_ 0.002950000000000008 0.588268 0.390214 -0.63271
O_ O_ 0.547477 0.52964 0.344934 -0.57982
O_ O_ 0.887852 0.586227 0.342606 -0.63271
O_ O_ 0.866723 0.585482 0.421422 -0.57982
O_ O_ 0.743186 0.896405 0.0831627 -0.63271
O_ O_ 0.712904 0.826072 0.0386561 -0.57982
O_ O_ 0.853094 0.839736 0.0925095 -0.63271
O_ O_ 0.883431 0.914592 0.0801892 -0.57982
O_ O_ 0.488844 0.914656 0.0868013 -0.63271
O_ O_ 0.959113 0.954794 0.155463 -0.57982
O_ O_ 0.600007 0.898449 0.146444 -0.63271
O_ O_ 0.640025 0.907192 0.0775945 -0.57982
O_ O_ 0.752554 0.608252 0.402131 -0.63271
O_ O_ 0.798845 0.65115 0.463173 -0.57982
O_ O_ 0.647591 0.644539 0.396299 -0.63271
O_ O_ 0.613883 0.577238 0.414556 -0.57982
F_ F_ 0.935735 0.819205 0.412289 -0.20885
F_ F_ 0.914649 0.811965 0.325712 -0.20885
F_ F_ 0.85796 0.793837 0.375974 -0.20885
F_ F_ 0.806702 0.930102 0.324206 -0.20885
F_ F_ 0.819878 0.846129 0.300395 -0.20885
F_ F_ 0.874899 0.897667 0.283042 -0.20885
F_ F_ 0.581572 0.674811 0.0636626 -0.20885
F_ F_ 0.571449 0.678455 0.144612 -0.20885
F_ F_ 0.644297 0.695553 0.121476 -0.20885
F_ F_ 0.68731 0.561643 0.17528 -0.20885
F_ F_ 0.682945 0.643717 0.184367 -0.20885
F_ F_ 0.61656 0.60194 0.200478 -0.20885
Zn Zn 0.590626 0.590378 0.847421 0.83971
Zn Zn 0.663564 0.847152 0.587579 0.83971
Zn Zn 0.908013 0.91061 0.64944 0.83971
Zn Zn 0.841974 0.654408 0.916803 0.83971
H_ H_ 0.661458 0.635531 0.801057 0.10394
H_ H_ 0.745302 0.601811 0.76451 0.10394
H_ H_ 0.718172 0.947105 0.790942 0.10394
H_ H_ 0.637233 0.486658 0.832122 0.10394
H_ H_ 0.0116906 0.590388 0.761159 0.10394
H_ H_ 0.971871 0.660649 0.709113 0.10394
H_ H_ 0.539356 0.773634 0.8285 0.10394
H_ H_ 0.57124 0.701019 0.880242 0.10394
H_ H_ 0.536885 0.94687 0.861334 0.10394
H_ H_ 0.982514 0.876648 0.87086 0.10394
H_ H_ 0.850523 0.981961 0.87987 0.10394
H_ H_ 0.580517 0.806603 0.635116 0.10394
H_ H_ 0.00193145 0.763766 0.595232 0.10394
H_ H_ 0.540634 0.793699 0.944479 0.10394
H_ H_ 0.622254 0.81617 0.486844 0.10394
H_ H_ 0.712929 0.749766 0.601755 0.10394
H_ H_ 0.768658 0.707481 0.67183 0.10394
H_ H_ 0.721481 0.836274 0.772457 0.10394
H_ H_ 0.682217 0.881336 0.695931 0.10394
H_ H_ 0.717748 0.846039 0.94249 0.10394
H_ H_ 0.769729 0.864285 0.869597 0.10394
H_ H_ 0.892348 0.900842 0.978547 0.10394
H_ H_ 0.805406 0.903638 0.659304 0.10394
H_ H_ 0.735451 0.963092 0.682992 0.10394
H_ H_ 0.834409 0.548484 0.784422 0.10394
H_ H_ 0.914658 0.983401 0.749107 0.10394
H_ H_ 0.515289 0.874625 0.684017 0.10394
H_ H_ 0.550886 0.809495 0.741235 0.10394
H_ H_ 0.914832 0.736647 0.720345 0.10394
H_ H_ 0.873782 0.81319 0.683315 0.10394
H_ H_ 0.970453 0.554173 0.631456 0.10394
H_ H_ 0.52391 0.62601 0.635902 0.10394
H_ H_ 0.636575 0.513976 0.580578 0.10394
H_ H_ 0.944262 0.659995 0.894192 0.10394
H_ H_ 0.517658 0.704807 0.941341 0.10394
H_ H_ 0.914426 0.789011 0.5345 0.10394
H_ H_ 0.850236 0.7325 0.99977393 0.10394
H_ H_ 0.74815 0.714765 0.895001 0.10394
H_ H_ 0.703862 0.747733 0.815284 0.10394
H_ H_ 0.842866 0.723121 0.747988 0.10394
H_ H_ 0.88214 0.675399 0.820262 0.10394
H_ H_ 0.786464 0.602353 0.552982 0.10394
H_ H_ 0.730409 0.585888 0.616966 0.10394
H_ H_ 0.600499 0.609497 0.508023 0.10394
C_ C_ 0.675026 0.594034 0.799561 0.18167
C_ C_ 0.718805 0.576259 0.775912 -0.15533
C_ C_ 0.730759 0.523077 0.770206 0.02923
C_ C_ 0.706158 0.98834 0.786679 -0.15533
C_ C_ 0.659543 0.509757 0.8126 0.18167
C_ C_ 0.531523 0.637044 0.771457 0.18167
C_ C_ -0.00201531 0.668055 0.742941 -0.15533
C_ C_ 0.503199 0.726574 0.76329 0.02923
C_ C_ 0.535379 0.735876 0.812378 -0.15533
C_ C_ 0.559682 0.694618 0.839484 0.18167
C_ C_ 0.507328 0.551543 0.871009 0.69207
C_ C_ 0.97417 0.00482417 0.88115 0.02923
C_ C_ -0.005461999999999967 0.954343 0.875179 -0.15533
C_ C_ 0.964917 0.913969 0.878829 -0.15533
C_ C_ 0.913498 0.922062 0.885965 0.02923
C_ C_ 0.891829 0.973067 0.883723 -0.15533
C_ C_ 0.921469 0.0152847 0.886827 0.02923
C_ C_ 0.896418 0.566737 0.885379 0.69207
C_ C_ 0.906943 0.826376 0.891851 0.69661
C_ C_ 0.570274 0.801603 0.593489 0.18167
C_ C_ 0.523215 0.784728 0.573912 -0.15533
C_ C_ 0.514565 0.774945 0.522175 0.02923
C_ C_ 0.549319 0.796104 0.98676 -0.15533
C_ C_ 0.59679 0.80185 0.511318 0.18167
C_ C_ 0.721186 0.770998 0.638893 0.18167
C_ C_ 0.746096 0.742608 0.67877 -0.15533
C_ C_ 0.745964 0.766145 0.729337 0.02923
C_ C_ 0.720335 0.816796 0.735088 -0.15533
C_ C_ 0.69829 0.84329 0.692367 0.18167
C_ C_ 0.740919 0.869812 0.542369 0.69207
C_ C_ 0.779212 0.863056 1.00258 0.02923
C_ C_ 0.758185 0.858697 0.949661 -0.15533
C_ C_ 0.786108 0.87139 0.908869 -0.15533
C_ C_ 0.838614 0.88398 0.918987 0.02923
C_ C_ 0.854571 0.892387 0.970867 -0.15533
C_ C_ 0.828468 0.879917 0.0113083 0.02923
C_ C_ 0.851012 0.881714 0.565658 0.69207
C_ C_ 0.855639 0.87054 0.822331 0.69661
C_ C_ 0.815298 0.932806 0.685529 0.18167
C_ C_ 0.773185 0.964157 0.702662 -0.15533
C_ C_ 0.781555 0.00021000000000004349 0.742886 0.02923
C_ C_ 0.824502 0.521391 0.753564 -0.15533
C_ C_ 0.873786 0.979758 0.735326 0.18167
C_ C_ 0.990603 0.844817 0.696824 0.18167
C_ C_ 0.510404 0.811689 0.727921 -0.15533
C_ C_ 0.988115 0.761975 0.731239 0.02923
C_ C_ 0.93792 0.765683 0.712491 -0.15533
C_ C_ 0.913483 0.809328 0.689098 0.18167
C_ C_ 0.988528 0.948048 0.62399 0.69207
C_ C_ 0.523685 0.498253 0.619422 0.02923
C_ C_ 0.504947 0.549786 0.619931 -0.15533
C_ C_ 0.536942 0.586846 0.621922 -0.15533
C_ C_ 0.586928 0.575776 0.606376 0.02923
C_ C_ 0.603086 0.524633 0.596274 -0.15533
C_ C_ 0.575925 0.485976 0.614395 0.02923
C_ C_ 0.598982 0.929454 0.614108 0.69207
C_ C_ 0.598456 0.671519 0.606457 0.69661
C_ C_ 0.939441 0.677124 0.929552 0.18167
C_ C_ 0.980173 0.699183 0.954297 -0.15533
C_ C_ 0.973339 0.741145 0.991413 0.02923
C_ C_ 0.92159 0.758738 0.504772 -0.15533
C_ C_ 0.88805 0.720549 0.990712 0.18167
C_ C_ 0.763958 0.70531 0.857759 0.18167
C_ C_ 0.742525 0.73514 0.816129 -0.15533
C_ C_ 0.771672 0.737073 0.77468 0.02923
C_ C_ 0.822851 0.718839 0.779967 -0.15533
C_ C_ 0.843299 0.69219 0.821641 0.18167
C_ C_ 0.766189 0.62278 0.954321 0.69207
C_ C_ 0.728331 0.610886 0.489514 0.02923
C_ C_ 0.749133 0.604227 0.542178 -0.15533
C_ C_ 0.715847 0.600707 0.579004 -0.15533
C_ C_ 0.661366 0.607134 0.568685 0.02923
C_ C_ 0.642852 0.60752 0.518156 -0.15533
C_ C_ 0.673391 0.608529 0.477566 0.02923
C_ C_ 0.656098 0.614489 0.929076 0.69207
C_ C_ 0.644527 0.616858 0.669169 0.69661
C_ C_ 0.876948 0.879284 0.878946 -0.30787
C_ C_ 0.623365 0.616279 0.610783 -0.30787
N_ N_ 0.646938 0.560793 0.817573 -0.32189
N_ N_ 0.559315 0.647544 0.816488 -0.32189
N_ N_ 0.603435 0.813351 0.563188 -0.32189
N_ N_ 0.697826 0.818457 0.645557 -0.32189
N_ N_ 0.862773 0.946518 0.695184 -0.32189
N_ N_ 0.939659 0.849463 0.682278 -0.32189
N_ N_ 0.893733 0.688262 0.948454 -0.32189
N_ N_ 0.812865 0.683135 0.858163 -0.32189
O_ O_ 1.00200002 0.585033 0.89121 -0.63271
O_ O_ 0.544599 0.544827 0.840072 -0.57982
O_ O_ 0.891778 0.591015 0.84266 -0.63271
O_ O_ 0.871532 0.588265 0.923414 -0.57982
O_ O_ 0.742563 0.896834 0.585504 -0.63271
O_ O_ 0.705091 0.83817 0.535468 -0.57982
O_ O_ 0.848457 0.843288 0.593783 -0.63271
O_ O_ 0.880536 0.916449 0.584998 -0.57982
O_ O_ 0.485559 0.920887 0.593176 -0.63271
O_ O_ 0.955581 0.952952 0.65946 -0.57982
O_ O_ 0.594756 0.903402 0.652394 -0.63271
O_ O_ 0.635696 0.912229 0.585859 -0.57982
O_ O_ 0.765389 0.597073 0.90907 -0.63271
O_ O_ 0.796892 0.65875 0.965225 -0.57982
O_ O_ 0.66276 0.657809 0.909798 -0.63271
O_ O_ 0.615271 0.59225 0.91252 -0.57982
F_ F_ 0.940906 0.831022 0.936416 -0.20885
F_ F_ 0.9325 0.79997 0.854292 -0.20885
F_ F_ 0.871937 0.78923 0.900927 -0.20885
F_ F_ 0.819666 0.912662 0.810197 -0.20885
F_ F_ 0.828958 0.828028 0.809191 -0.20885
F_ F_ 0.890488 0.876773 0.787668 -0.20885
F_ F_ 0.566789 0.681433 0.563113 -0.20885
F_ F_ 0.571263 0.691157 0.645376 -0.20885
F_ F_ 0.634474 0.703334 0.60613 -0.20885
F_ F_ 0.673139 0.570629 0.676565 -0.20885
F_ F_ 0.680518 0.650082 0.682517 -0.20885
F_ F_ 0.608871 0.623855 0.70363 -0.20885
