_cell_length_a 26.508
_cell_length_b 26.37200000322088
_cell_length_c 26.311999743092066
_cell_angle_alpha 93.74100058972084
_cell_angle_beta 96.04100104955006
_cell_angle_gamma 83.6869992558723
_symmetry_space_group_name_H-M         'P 1'
_symmetry_Int_Tables_number            1
loop_
_symmetry_equiv_pos_as_xyz
   'x, y, z'
                         
loop_
_atom_site_label
_atom_site_type_symbol
_atom_site_fract_x 
_atom_site_fract_y
_atom_site_fract_z
_atom_site_charge
Zn Zn 0.0848019 0.0925046 0.342855 0.83971
Zn Zn 0.154714 0.347502 0.0831924 0.83971
Zn Zn 0.408541 0.415004 0.154633 0.83971
Zn Zn 0.340174 0.15787 0.419768 0.83971
H_ H_ 0.181375 0.133674 0.31398 0.10394
H_ H_ 0.255782 0.0912431 0.26895 0.10394
H_ H_ 0.203664 0.447605 0.290906 0.10394
H_ H_ 0.118357 0.992237 0.309722 0.10394
H_ H_ 0.53161 0.0928809 0.251079 0.10394
H_ H_ 0.490057 0.162157 0.1994 0.10394
H_ H_ 0.0280383 0.277611 0.332101 0.10394
H_ H_ 0.0716354 0.204187 0.371992 0.10394
H_ H_ 0.0300829 0.453621 0.354728 0.10394
H_ H_ 0.480137 0.373647 0.377045 0.10394
H_ H_ 0.348722 0.487609 0.397402 0.10394
H_ H_ 0.0727584 0.313867 0.131396 0.10394
H_ H_ 0.505641 0.267566 0.0909401 0.10394
H_ H_ 0.0409101 0.282134 0.445207 0.10394
H_ H_ 0.120179 0.312189 0.983644 0.10394
H_ H_ 0.206463 0.24708 0.0990057 0.10394
H_ H_ 0.267761 0.215079 0.172243 0.10394
H_ H_ 0.186001 0.322072 0.272173 0.10394
H_ H_ 0.16025 0.376077 0.194197 0.10394
H_ H_ 0.217695 0.36119 0.440536 0.10394
H_ H_ 0.275905 0.357792 0.372488 0.10394
H_ H_ 0.390645 0.410042 0.487143 0.10394
H_ H_ 0.307724 0.393438 0.163606 0.10394
H_ H_ 0.234343 0.440932 0.198191 0.10394
H_ H_ 0.334714 0.0365081 0.284938 0.10394
H_ H_ 0.40155 0.50676 0.235892 0.10394
H_ H_ 0.00904311 0.395564 0.203166 0.10394
H_ H_ 0.0495836 0.319864 0.245584 0.10394
H_ H_ 0.402897 0.24194 0.219275 0.10394
H_ H_ 0.368534 0.329683 0.201176 0.10394
H_ H_ 0.46112 0.056769 0.115364 0.10394
H_ H_ 0.0200056 0.119791 0.127658 0.10394
H_ H_ 0.140395 0.00382087 0.0866871 0.10394
H_ H_ 0.450348 0.165415 0.398204 0.10394
H_ H_ 0.0154438 0.203048 0.439017 0.10394
H_ H_ 0.417749 0.27778 0.0394371 0.10394
H_ H_ 0.35055 0.225727 0.511419 0.10394
H_ H_ 0.227713 0.193696 0.386979 0.10394
H_ H_ 0.185616 0.242491 0.316382 0.10394
H_ H_ 0.327334 0.215497 0.246501 0.10394
H_ H_ 0.371286 0.175586 0.324371 0.10394
H_ H_ 0.283058 0.136554 0.0577273 0.10394
H_ H_ 0.234508 0.106862 0.121109 0.10394
H_ H_ 0.114425 0.0752351 0.00599114 0.10394
C_ C_ 0.1823 0.0937381 0.30389 0.18167
C_ C_ 0.224804 0.0690092 0.280046 -0.15533
C_ C_ 0.229507 0.0171468 0.269521 0.02923
C_ C_ 0.196812 0.487827 0.29345 -0.15533
C_ C_ 0.148646 0.0144038 0.30208 0.18167
C_ C_ 0.0260281 0.144304 0.26236 0.18167
C_ C_ 0.503445 0.169454 0.238025 -0.15533
C_ C_ -0.0013020000000000254 0.237727 0.261 0.02923
C_ C_ 0.027448 0.240924 0.310162 -0.15533
C_ C_ 0.0524842 0.197192 0.333675 0.18167
C_ C_ 0.00680638 0.0504527 0.374027 0.69207
C_ C_ 0.471755 0.502714 0.373626 0.02923
C_ C_ 0.490848 0.451968 0.369434 -0.15533
C_ C_ 0.460387 0.413999 0.375143 -0.15533
C_ C_ 0.408203 0.424607 0.387051 0.02923
C_ C_ 0.389704 0.476384 0.393347 -0.15533
C_ C_ 0.420127 0.51608 0.382849 0.02923
C_ C_ 0.399688 0.0709787 0.390152 0.69207
C_ C_ 0.400202 0.326477 0.389192 0.69661
C_ C_ 0.065749 0.29981 0.0925034 0.18167
C_ C_ 0.0240348 0.275434 0.0738074 -0.15533
C_ C_ 0.015517 0.261077 0.0223128 0.02923
C_ C_ 0.0477951 0.289495 0.486468 -0.15533
C_ C_ 0.0943451 0.297772 0.00950612 0.18167
C_ C_ 0.211482 0.267255 0.137279 0.18167
C_ C_ 0.237447 0.24384 0.178997 -0.15533
C_ C_ 0.227553 0.261982 0.22888 0.02923
C_ C_ 0.195634 0.308202 0.235219 -0.15533
C_ C_ 0.176172 0.336032 0.191333 0.18167
C_ C_ 0.239095 0.36434 0.0468162 0.69207
C_ C_ 0.272434 0.380208 0.504268 0.02923
C_ C_ 0.255555 0.372899 0.451506 -0.15533
C_ C_ 0.286099 0.374827 0.411005 -0.15533
C_ C_ 0.334656 0.390371 0.422712 0.02923
C_ C_ 0.350602 0.403729 0.475144 -0.15533
C_ C_ 0.322442 0.394211 0.515307 0.02923
C_ C_ 0.349168 0.383657 0.0759258 0.69207
C_ C_ 0.354631 0.379046 0.325732 0.69661
C_ C_ 0.312219 0.429135 0.186688 0.18167
C_ C_ 0.269345 0.45556 0.207103 -0.15533
C_ C_ 0.276125 0.494391 0.247431 0.02923
C_ C_ 0.325477 0.0068488 0.255405 -0.15533
C_ C_ 0.365591 0.489873 0.227989 0.18167
C_ C_ 0.485645 0.349579 0.206091 0.18167
C_ C_ 0.00742865 0.322106 0.232227 -0.15533
C_ C_ 0.481405 0.260091 0.224191 0.02923
C_ C_ 0.428623 0.269064 0.211658 -0.15533
C_ C_ 0.405848 0.315984 0.1946 0.18167
C_ C_ 0.48866 0.448335 0.126775 0.69207
C_ C_ 0.0239058 0.992213 0.12783 0.02923
C_ C_ 0.00772051 0.0442413 0.133489 -0.15533
C_ C_ 0.0351088 0.0807655 0.116431 -0.15533
C_ C_ 0.0861442 0.0683932 0.106496 0.02923
C_ C_ 0.104192 0.0163611 0.103638 -0.15533
C_ C_ 0.0743014 0.978046 0.115359 0.02923
C_ C_ 0.085998 0.426094 0.0972713 0.69207
C_ C_ 0.0980501 0.163958 0.103802 0.69661
C_ C_ 0.441543 0.188268 0.431532 0.18167
C_ C_ 0.48157 0.208732 0.458306 -0.15533
C_ C_ 0.474296 0.247603 0.496229 0.02923
C_ C_ 0.427107 0.245211 0.011053 -0.15533
C_ C_ 0.38776 0.224344 0.49385 0.18167
C_ C_ 0.249698 0.199847 0.356281 0.18167
C_ C_ 0.224309 0.22238 0.312485 -0.15533
C_ C_ 0.253634 0.235397 0.275832 0.02923
C_ C_ 0.306975 0.218288 0.279216 -0.15533
C_ C_ 0.330377 0.193133 0.322229 0.18167
C_ C_ 0.26746 0.117064 0.451626 0.69207
C_ C_ 0.224023 0.124841 0.994057 0.02923
C_ C_ 0.24308 0.124654 0.0456907 -0.15533
C_ C_ 0.216319 0.108896 0.0814255 -0.15533
C_ C_ 0.164015 0.101718 0.0696342 0.02923
C_ C_ 0.145531 0.0965607 0.0173997 -0.15533
C_ C_ 0.173336 0.111039 0.979926 0.02923
C_ C_ 0.153672 0.107167 0.424039 0.69207
C_ C_ 0.149016 0.107206 0.164824 0.69661
C_ C_ 0.374424 0.380875 0.382559 -0.30787
C_ C_ 0.124265 0.109537 0.109499 -0.30787
N_ N_ 0.141479 0.0657876 0.307561 -0.32189
N_ N_ 0.0477503 0.14869 0.312289 -0.32189
N_ N_ 0.0982406 0.31139 0.0612923 -0.32189
N_ N_ 0.185155 0.315479 0.144127 -0.32189
N_ N_ 0.359055 0.447106 0.193811 -0.32189
N_ N_ 0.436584 0.351557 0.185 -0.32189
N_ N_ 0.395457 0.194527 0.449821 -0.32189
N_ N_ 0.301031 0.188499 0.361463 -0.32189
O_ O_ 0.506511 0.0861039 0.405812 -0.63271
O_ O_ 0.0418049 0.0413408 0.342176 -0.57982
O_ O_ 0.399476 0.0951133 0.348364 -0.63271
O_ O_ 0.373337 0.0940347 0.42593 -0.57982
O_ O_ 0.241269 0.393967 0.0894413 -0.63271
O_ O_ 0.199243 0.338504 0.0359314 -0.57982
O_ O_ 0.350277 0.344446 0.104502 -0.63271
O_ O_ 0.379795 0.417872 0.0909529 -0.57982
O_ O_ 0.98421 0.413702 0.104387 -0.63271
O_ O_ 0.455154 0.459754 0.159524 -0.57982
O_ O_ 0.0864708 0.402336 0.13955 -0.63271
O_ O_ 0.121806 0.410858 0.0695245 -0.57982
O_ O_ 0.26442 0.0969489 0.40496 -0.63271
O_ O_ 0.29904 0.151243 0.466934 -0.57982
O_ O_ 0.148521 0.152091 0.407787 -0.63271
O_ O_ 0.121031 0.0755774 0.40542 -0.57982
F_ F_ 0.42888 0.323688 0.434547 -0.20885
F_ F_ 0.431703 0.307249 0.352687 -0.20885
F_ F_ 0.365385 0.291318 0.385421 -0.20885
F_ F_ 0.315172 0.41629 0.320286 -0.20885
F_ F_ 0.333489 0.333611 0.304816 -0.20885
F_ F_ 0.388038 0.387436 0.290744 -0.20885
F_ F_ 0.0663586 0.16868 0.058342 -0.20885
F_ F_ 0.0727248 0.184713 0.146764 -0.20885
F_ F_ 0.135038 0.197116 0.101081 -0.20885
F_ F_ 0.17933 0.0604469 0.169383 -0.20885
F_ F_ 0.181131 0.147019 0.17718 -0.20885
F_ F_ 0.116085 0.113157 0.201976 -0.20885
Zn Zn 0.0892956 0.0889788 0.846461 0.83971
Zn Zn 0.161653 0.345998 0.582533 0.83971
Zn Zn 0.407243 0.420797 0.648278 0.83971
Zn Zn 0.341873 0.151228 0.915947 0.83971
H_ H_ 0.172063 0.132601 0.811615 0.10394
H_ H_ 0.240832 0.10182 0.758508 0.10394
H_ H_ 0.217752 0.44975 0.790577 0.10394
H_ H_ 0.129882 0.988075 0.825481 0.10394
H_ H_ 0.516867 0.0982926 0.748004 0.10394
H_ H_ 0.473701 0.172592 0.70315 0.10394
H_ H_ 0.0471292 0.281239 0.819758 0.10394
H_ H_ 0.0727775 0.203378 0.870644 0.10394
H_ H_ 0.0326704 0.442482 0.87201 0.10394
H_ H_ 0.480198 0.375709 0.881375 0.10394
H_ H_ 0.364715 0.487776 0.928945 0.10394
H_ H_ 0.0755426 0.320296 0.627381 0.10394
H_ H_ 0.508917 0.275643 0.600594 0.10394
H_ H_ 0.0519912 0.259947 0.949091 0.10394
H_ H_ 0.112429 0.322027 0.477055 0.10394
H_ H_ 0.222265 0.250966 0.591433 0.10394
H_ H_ 0.266203 0.208528 0.657521 0.10394
H_ H_ 0.2132 0.322894 0.768042 0.10394
H_ H_ 0.192792 0.378439 0.689146 0.10394
H_ H_ 0.215268 0.356949 0.94178 0.10394
H_ H_ 0.267696 0.373343 0.875458 0.10394
H_ H_ 0.396601 0.404168 0.988632 0.10394
H_ H_ 0.300781 0.402782 0.658318 0.10394
H_ H_ 0.231672 0.449912 0.696624 0.10394
H_ H_ 0.334709 0.0427523 0.780485 0.10394
H_ H_ 0.400962 0.513491 0.72339 0.10394
H_ H_ 0.0152412 0.394877 0.692361 0.10394
H_ H_ 0.0615105 0.315104 0.726635 0.10394
H_ H_ 0.405447 0.250213 0.714909 0.10394
H_ H_ 0.36834 0.327228 0.675537 0.10394
H_ H_ 0.459681 0.055937 0.63627 0.10394
H_ H_ 0.0233154 0.119741 0.615153 0.10394
H_ H_ 0.144128 -0.000401145 0.590333 0.10394
H_ H_ 0.445819 0.155757 0.893247 0.10394
H_ H_ 0.0181233 0.181884 0.949198 0.10394
H_ H_ 0.423037 0.274923 0.55406 0.10394
H_ H_ 0.347885 0.228756 -0.0016800000000000148 0.10394
H_ H_ 0.232831 0.189576 0.875371 0.10394
H_ H_ 0.189391 0.21806 0.795219 0.10394
H_ H_ 0.335277 0.234777 0.747226 0.10394
H_ H_ 0.377328 0.192658 0.823918 0.10394
H_ H_ 0.289621 0.117044 0.548547 0.10394
H_ H_ 0.235781 0.111445 0.618052 0.10394
H_ H_ 0.109267 0.080812 0.506846 0.10394
C_ C_ 0.17546 0.0936765 0.79779 0.18167
C_ C_ 0.221372 0.07575 0.777845 -0.15533
C_ C_ 0.234031 0.0212563 0.771825 0.02923
C_ C_ 0.203907 0.488051 0.791914 -0.15533
C_ C_ 0.158327 0.00953406 0.81336 0.18167
C_ C_ 0.0416121 0.14237 0.762763 0.18167
C_ C_ 0.49668 0.179194 0.739129 -0.15533
C_ C_ 0.0202069 0.232599 0.753697 0.02923
C_ C_ 0.0437308 0.240602 0.804506 -0.15533
C_ C_ 0.0592833 0.197695 0.833337 0.18167
C_ C_ 0.00906308 0.0446026 0.87083 0.69207
C_ C_ 0.472723 0.501423 0.870282 0.02923
C_ C_ 0.493056 0.450669 0.870568 -0.15533
C_ C_ 0.4637 0.412981 0.879509 -0.15533
C_ C_ 0.414987 0.425329 0.896165 0.02923
C_ C_ 0.398972 0.476858 0.906348 -0.15533
C_ C_ 0.424486 0.515163 0.889762 0.02923
C_ C_ 0.397883 0.0639704 0.882178 0.69207
C_ C_ 0.397669 0.328702 0.88275 0.69661
C_ C_ 0.0728729 0.300404 0.588889 0.18167
C_ C_ 0.0303127 0.275886 0.571112 -0.15533
C_ C_ 0.0202012 0.267124 0.51925 0.02923
C_ C_ 0.0526283 0.272623 0.990578 -0.15533
C_ C_ 0.0907475 0.308485 0.505248 0.18167
C_ C_ 0.219143 0.268989 0.629533 0.18167
C_ C_ 0.236618 0.237366 0.66911 -0.15533
C_ C_ 0.238326 0.258847 0.719164 0.02923
C_ C_ 0.220253 0.309281 0.728768 -0.15533
C_ C_ 0.199818 0.338103 0.686764 0.18167
C_ C_ 0.239715 0.369925 0.544018 0.69207
C_ C_ 0.27505 0.370013 0.00662188 0.02923
C_ C_ 0.255971 0.365031 0.954072 -0.15533
C_ C_ 0.286434 0.373708 0.915831 -0.15533
C_ C_ 0.336911 0.387744 0.92903 0.02923
C_ C_ 0.356004 0.393707 0.979886 -0.15533
C_ C_ 0.326677 0.382279 0.02142 0.02923
C_ C_ 0.348402 0.390698 0.566023 0.69207
C_ C_ 0.34762 0.395286 0.831806 0.69661
C_ C_ 0.308079 0.435334 0.681707 0.18167
C_ C_ 0.268078 0.46208 0.7058 -0.15533
C_ C_ 0.277562 0.500982 0.742063 0.02923
C_ C_ 0.327489 0.0145642 0.749455 -0.15533
C_ C_ 0.36681 0.49246 0.724017 0.18167
C_ C_ 0.486549 0.359305 0.6983 0.18167
C_ C_ 0.0206558 0.318225 0.717024 -0.15533
C_ C_ 0.483582 0.274139 0.727374 0.02923
C_ C_ 0.431257 0.277388 0.709216 -0.15533
C_ C_ 0.408671 0.321514 0.684121 0.18167
C_ C_ 0.484021 0.458635 0.616457 0.69207
C_ C_ 0.0253157 0.990027 0.617586 0.02923
C_ C_ 0.00677686 0.0426201 0.618334 -0.15533
C_ C_ 0.0394265 0.0791562 0.614073 -0.15533
C_ C_ 0.0909735 0.065746 0.602803 0.02923
C_ C_ 0.107727 0.0136363 0.601861 -0.15533
C_ C_ 0.0766857 0.975049 0.611082 0.02923
C_ C_ 0.101894 0.428511 0.603998 0.69207
C_ C_ 0.105259 0.159194 0.60088 0.69661
C_ C_ 0.441279 0.177687 0.927424 0.18167
C_ C_ 0.481358 0.202812 0.950134 -0.15533
C_ C_ 0.476967 0.237383 0.993417 0.02923
C_ C_ 0.425923 0.254436 0.515309 -0.15533
C_ C_ 0.386888 0.220214 0.986026 0.18167
C_ C_ 0.256195 0.191249 0.84611 0.18167
C_ C_ 0.232298 0.211278 0.801396 -0.15533
C_ C_ 0.260737 0.226881 0.763524 0.02923
C_ C_ 0.313409 0.21883 0.771141 -0.15533
C_ C_ 0.3369 0.194132 0.817114 0.18167
C_ C_ 0.262563 0.12564 0.955411 0.69207
C_ C_ 0.232052 0.10516 0.487233 0.02923
C_ C_ 0.249849 0.110515 0.539236 -0.15533
C_ C_ 0.219286 0.108434 0.578355 -0.15533
C_ C_ 0.169018 0.0955302 0.566191 0.02923
C_ C_ 0.148608 0.0912901 0.515063 -0.15533
C_ C_ 0.179192 0.100324 0.476403 0.02923
C_ C_ 0.146579 0.114197 0.927067 0.69207
C_ C_ 0.152972 0.103388 0.663061 0.69661
C_ C_ 0.375924 0.386102 0.886181 -0.30787
C_ C_ 0.131372 0.104798 0.608914 -0.30787
N_ N_ 0.14626 0.0603573 0.815764 -0.32189
N_ N_ 0.0621071 0.150135 0.811411 -0.32189
N_ N_ 0.108899 0.306676 0.555826 -0.32189
N_ N_ 0.193585 0.315663 0.639007 -0.32189
N_ N_ 0.356573 0.451376 0.690186 -0.32189
N_ N_ 0.437035 0.360787 0.678617 -0.32189
N_ N_ 0.393448 0.189549 0.943589 -0.32189
N_ N_ 0.307108 0.183795 0.855852 -0.32189
O_ O_ 0.506293 0.0904085 0.889785 -0.63271
O_ O_ 0.0457398 0.0373891 0.840126 -0.57982
O_ O_ 0.400781 0.0937391 0.843986 -0.63271
O_ O_ 0.369862 0.0832554 0.91805 -0.57982
O_ O_ 0.239198 0.397441 0.584821 -0.63271
O_ O_ 0.204897 0.339582 0.534395 -0.57982
O_ O_ 0.342104 0.352988 0.593195 -0.63271
O_ O_ 0.384107 0.420241 0.581675 -0.57982
O_ O_ 0.992809 0.413997 0.596629 -0.63271
O_ O_ 0.447577 0.468242 0.648398 -0.57982
O_ O_ 0.105671 0.403165 0.644939 -0.63271
O_ O_ 0.132232 0.412017 0.569276 -0.57982
O_ O_ 0.253993 0.10455 0.908856 -0.63271
O_ O_ 0.301987 0.151871 0.967016 -0.57982
O_ O_ 0.151055 0.154829 0.901543 -0.63271
O_ O_ 0.111879 0.0835819 0.91066 -0.57982
F_ F_ 0.429637 0.318031 0.927535 -0.20885
F_ F_ 0.427587 0.315928 0.842308 -0.20885
F_ F_ 0.364583 0.292063 0.873999 -0.20885
F_ F_ 0.313842 0.439258 0.834266 -0.20885
F_ F_ 0.316768 0.359901 0.813354 -0.20885
F_ F_ 0.381322 0.404183 0.795523 -0.20885
F_ F_ 0.0681998 0.16479 0.56046 -0.20885
F_ F_ 0.0870199 0.182241 0.646447 -0.20885
F_ F_ 0.134157 0.197923 0.592485 -0.20885
F_ F_ 0.186592 0.0615454 0.671817 -0.20885
F_ F_ 0.180885 0.143149 0.678393 -0.20885
F_ F_ 0.119448 0.0975333 0.696403 -0.20885
Zn Zn 0.0895954 0.593427 0.35449 0.83971
Zn Zn 0.158884 0.844602 0.0788993 0.83971
Zn Zn 0.407924 0.916975 0.156412 0.83971
Zn Zn 0.341001 0.651687 0.414831 0.83971
H_ H_ 0.170157 0.632455 0.312436 0.10394
H_ H_ 0.248386 0.594167 0.27336 0.10394
H_ H_ 0.189301 0.946096 0.272355 0.10394
H_ H_ 0.125339 0.487628 0.327689 0.10394
H_ H_ 0.536366 0.608843 0.246674 0.10394
H_ H_ 0.486764 0.682858 0.211927 0.10394
H_ H_ 0.0329264 0.781945 0.347255 0.10394
H_ H_ 0.0675353 0.699974 0.392072 0.10394
H_ H_ 0.0325727 0.95257 0.384199 0.10394
H_ H_ 0.472596 0.879142 0.375849 0.10394
H_ H_ 0.35012 0.994175 0.40607 0.10394
H_ H_ 0.0724344 0.812397 0.130049 0.10394
H_ H_ 0.497473 0.776432 0.0976943 0.10394
H_ H_ 0.0521299 0.763374 0.451408 0.10394
H_ H_ 0.114167 0.81178 0.980411 0.10394
H_ H_ 0.221411 0.744812 0.0958829 0.10394
H_ H_ 0.259438 0.695851 0.170999 0.10394
H_ H_ 0.231198 0.838802 0.258305 0.10394
H_ H_ 0.189655 0.87945 0.18428 0.10394
H_ H_ 0.2237 0.845012 0.447264 0.10394
H_ H_ 0.268557 0.878255 0.383751 0.10394
H_ H_ 0.39636 0.894226 0.491706 0.10394
H_ H_ 0.305959 0.895645 0.156948 0.10394
H_ H_ 0.229906 0.947449 0.194115 0.10394
H_ H_ 0.332261 0.544443 0.281405 0.10394
H_ H_ 0.402811 0.0005800000000000249 0.235198 0.10394
H_ H_ 0.00570602 0.89897 0.214536 0.10394
H_ H_ 0.0466719 0.826706 0.262973 0.10394
H_ H_ 0.421121 0.75712 0.247716 0.10394
H_ H_ 0.377446 0.824687 0.188138 0.10394
H_ H_ 0.458858 0.545995 0.123311 0.10394
H_ H_ 0.0132635 0.620084 0.0964382 0.10394
H_ H_ 0.137431 0.503915 0.0901252 0.10394
H_ H_ 0.437404 0.662144 0.396406 0.10394
H_ H_ 0.0127313 0.682807 0.458566 0.10394
H_ H_ 0.408459 0.785988 0.0364873 0.10394
H_ H_ 0.342526 0.735157 0.503278 0.10394
H_ H_ 0.235796 0.691031 0.375303 0.10394
H_ H_ 0.199714 0.74567 0.297988 0.10394
H_ H_ 0.341034 0.724063 0.243437 0.10394
H_ H_ 0.383967 0.691034 0.331968 0.10394
H_ H_ 0.282728 0.62345 0.0577521 0.10394
H_ H_ 0.230553 0.613012 0.124121 0.10394
H_ H_ 0.0996573 0.604343 0.0103775 0.10394
C_ C_ 0.176738 0.591723 0.302503 0.18167
C_ C_ 0.221811 0.572029 0.283798 -0.15533
C_ C_ 0.229771 0.518441 0.272593 0.02923
C_ C_ 0.18829 0.989629 0.27786 -0.15533
C_ C_ 0.152406 0.511154 0.315328 0.18167
C_ C_ 0.0261605 0.646424 0.279361 0.18167
C_ C_ 0.513803 0.685863 0.246175 -0.15533
C_ C_ 0.0119615 0.739683 0.276867 0.02923
C_ C_ 0.0323147 0.743428 0.328877 -0.15533
C_ C_ 0.0521887 0.697828 0.352257 0.18167
C_ C_ 0.0108414 0.551735 0.379649 0.69207
C_ C_ 0.473346 0.00347712 0.38658 0.02923
C_ C_ 0.492729 0.952584 0.383784 -0.15533
C_ C_ 0.45952 0.915597 0.384881 -0.15533
C_ C_ 0.407019 0.928464 0.39711 0.02923
C_ C_ 0.389189 0.981807 0.401766 -0.15533
C_ C_ 0.423478 0.0176134 0.394927 0.02923
C_ C_ 0.398205 0.569499 0.384255 0.69207
C_ C_ 0.391344 0.830597 0.384954 0.69661
C_ C_ 0.0638891 0.805069 0.0913751 0.18167
C_ C_ 0.0201049 0.781075 0.0742442 -0.15533
C_ C_ 0.0116667 0.76574 0.0227671 0.02923
C_ C_ 0.0505465 0.779739 0.489712 -0.15533
C_ C_ 0.089408 0.799735 0.00698914 0.18167
C_ C_ 0.219007 0.763447 0.131773 0.18167
C_ C_ 0.245385 0.739519 0.174253 -0.15533
C_ C_ 0.247927 0.767089 0.222184 0.02923
C_ C_ 0.226023 0.817331 0.225271 -0.15533
C_ C_ 0.198987 0.838882 0.183586 0.18167
C_ C_ 0.24868 0.860665 0.0398358 0.69207
C_ C_ 0.277522 0.86731 0.510817 0.02923
C_ C_ 0.257225 0.863794 0.460033 -0.15533
C_ C_ 0.284755 0.878905 0.421842 -0.15533
C_ C_ 0.3343 0.891907 0.43221 0.02923
C_ C_ 0.356471 0.889498 0.481978 -0.15533
C_ C_ 0.328305 0.879052 0.522239 0.02923
C_ C_ 0.356008 0.881303 0.0684241 0.69207
C_ C_ 0.341753 0.896675 0.334458 0.69661
C_ C_ 0.311045 0.925495 0.185779 0.18167
C_ C_ 0.267975 0.953326 0.207514 -0.15533
C_ C_ 0.275681 0.992249 0.243679 0.02923
C_ C_ 0.324971 0.511489 0.255909 -0.15533
C_ C_ 0.365942 0.982441 0.229097 0.18167
C_ C_ 0.494149 0.859928 0.208258 0.18167
C_ C_ 0.00995655 0.826135 0.244421 -0.15533
C_ C_ 0.495956 0.781622 0.247113 0.02923
C_ C_ 0.442847 0.785211 0.233687 -0.15533
C_ C_ 0.417624 0.823182 0.202389 0.18167
C_ C_ 0.484397 0.950847 0.121192 0.69207
C_ C_ 0.0158012 0.496733 0.115248 0.02923
C_ C_ -0.0028439999999999577 0.547577 0.11505 -0.15533
C_ C_ 0.0297027 0.582701 0.102625 -0.15533
C_ C_ 0.0828145 0.569606 0.0999651 0.02923
C_ C_ 0.098675 0.517307 0.0969838 -0.15533
C_ C_ 0.0657592 0.481234 0.102049 0.02923
C_ C_ 0.0986349 0.92476 0.113859 0.69207
C_ C_ 0.10094 0.662815 0.115759 0.69661
C_ C_ 0.435107 0.684347 0.434312 0.18167
C_ C_ 0.476778 0.703824 0.457734 -0.15533
C_ C_ 0.470532 0.741486 0.49871 0.02923
C_ C_ 0.418655 0.753726 0.0114846 -0.15533
C_ C_ 0.381294 0.725102 0.492317 0.18167
C_ C_ 0.260039 0.704027 0.350428 0.18167
C_ C_ 0.238665 0.73034 0.305943 -0.15533
C_ C_ 0.269991 0.742329 0.270796 0.02923
C_ C_ 0.321349 0.72413 0.277601 -0.15533
C_ C_ 0.343984 0.699165 0.323868 0.18167
C_ C_ 0.269372 0.618529 0.454478 0.69207
C_ C_ 0.224836 0.617116 0.995347 0.02923
C_ C_ 0.244812 0.615375 0.0473111 -0.15533
C_ C_ 0.213329 0.614367 0.0847925 -0.15533
C_ C_ 0.161219 0.603619 0.0718971 0.02923
C_ C_ 0.1426 0.600549 0.0206518 -0.15533
C_ C_ 0.174016 0.604216 0.981911 0.02923
C_ C_ 0.159349 0.60852 0.43059 0.69207
C_ C_ 0.150172 0.598651 0.16631 0.69661
C_ C_ 0.371057 0.887805 0.388544 -0.30787
C_ C_ 0.124125 0.607718 0.112532 -0.30787
N_ N_ 0.139931 0.561702 0.310691 -0.32189
N_ N_ 0.05338 0.650323 0.325187 -0.32189
N_ N_ 0.0973313 0.8141 0.0576621 -0.32189
N_ N_ 0.198102 0.812408 0.136728 -0.32189
N_ N_ 0.357782 0.940975 0.197228 -0.32189
N_ N_ 0.443859 0.861055 0.192034 -0.32189
N_ N_ 0.387731 0.693386 0.451415 -0.32189
N_ N_ 0.310386 0.684796 0.355896 -0.32189
O_ O_ 0.507765 0.58299 0.405081 -0.63271
O_ O_ 0.0475509 0.542363 0.350689 -0.57982
O_ O_ 0.401885 0.596133 0.346327 -0.63271
O_ O_ 0.372128 0.588861 0.420887 -0.57982
O_ O_ 0.255386 0.8794 0.0858297 -0.63271
O_ O_ 0.205267 0.841422 0.0284549 -0.57982
O_ O_ 0.360061 0.839807 0.09646 -0.63271
O_ O_ 0.377292 0.920686 0.0917031 -0.57982
O_ O_ 0.992942 0.911335 0.112229 -0.63271
O_ O_ 0.455606 0.96103 0.158374 -0.57982
O_ O_ 0.101973 0.897803 0.153164 -0.63271
O_ O_ 0.130646 0.910066 0.0812786 -0.57982
O_ O_ 0.263091 0.589702 0.412164 -0.63271
O_ O_ 0.29341 0.65759 0.455093 -0.57982
O_ O_ 0.163651 0.647455 0.404415 -0.63271
O_ O_ 0.116116 0.587425 0.419966 -0.57982
F_ F_ 0.427212 0.815738 0.423828 -0.20885
F_ F_ 0.410569 0.812263 0.341124 -0.20885
F_ F_ 0.355561 0.797184 0.391151 -0.20885
F_ F_ 0.304826 0.938955 0.337853 -0.20885
F_ F_ 0.31987 0.853293 0.312926 -0.20885
F_ F_ 0.377419 0.904398 0.302679 -0.20885
F_ F_ 0.0737113 0.677137 0.0706777 -0.20885
F_ F_ 0.0713752 0.673897 0.154703 -0.20885
F_ F_ 0.139416 0.692172 0.12408 -0.20885
F_ F_ 0.189086 0.559155 0.171597 -0.20885
F_ F_ 0.178257 0.634342 0.188217 -0.20885
F_ F_ 0.116904 0.589344 0.199299 -0.20885
Zn Zn 0.0870667 0.579826 0.848182 0.83971
Zn Zn 0.162516 0.84265 0.582964 0.83971
Zn Zn 0.410007 0.90992 0.659509 0.83971
Zn Zn 0.338425 0.648678 0.915861 0.83971
H_ H_ 0.167545 0.6328 0.809015 0.10394
H_ H_ 0.247471 0.601173 0.775217 0.10394
H_ H_ 0.216936 0.947039 0.793037 0.10394
H_ H_ 0.131938 0.478017 0.816658 0.10394
H_ H_ 0.537903 0.594782 0.749469 0.10394
H_ H_ 0.492385 0.663428 0.706001 0.10394
H_ H_ 0.0198802 0.764762 0.820302 0.10394
H_ H_ 0.0638175 0.687307 0.870292 0.10394
H_ H_ 0.0326233 0.945708 0.862539 0.10394
H_ H_ 0.495486 0.875635 0.877292 0.10394
H_ H_ 0.363032 0.981137 0.905265 0.10394
H_ H_ 0.0812134 0.801438 0.635292 0.10394
H_ H_ 0.497061 0.759919 0.597383 0.10394
H_ H_ 0.0383436 0.7738 0.946172 0.10394
H_ H_ 0.119363 0.808275 0.479851 0.10394
H_ H_ 0.22116 0.74563 0.602726 0.10394
H_ H_ 0.251409 0.703999 0.68068 0.10394
H_ H_ 0.227591 0.848617 0.769279 0.10394
H_ H_ 0.186753 0.887828 0.690938 0.10394
H_ H_ 0.221855 0.871783 0.937552 0.10394
H_ H_ 0.274466 0.873342 0.871706 0.10394
H_ H_ 0.404481 0.894417 0.983403 0.10394
H_ H_ 0.308614 0.892249 0.671123 0.10394
H_ H_ 0.233286 0.946401 0.696385 0.10394
H_ H_ 0.333636 0.547938 0.778045 0.10394
H_ H_ 0.40626 -0.0012370000000000436 0.737237 0.10394
H_ H_ 0.0102498 0.87402 0.694142 0.10394
H_ H_ 0.0493692 0.798255 0.736828 0.10394
H_ H_ 0.409701 0.743133 0.732284 0.10394
H_ H_ 0.372844 0.822179 0.685764 0.10394
H_ H_ 0.468326 0.561697 0.638128 0.10394
H_ H_ 0.0186249 0.625345 0.595216 0.10394
H_ H_ 0.144521 0.508463 0.584085 0.10394
H_ H_ 0.445178 0.65714 0.902939 0.10394
H_ H_ 0.0150773 0.677626 0.960754 0.10394
H_ H_ 0.41095 0.784456 0.538928 0.10394
H_ H_ 0.340992 0.748011 -0.013344000000000023 0.10394
H_ H_ 0.245233 0.708996 0.894298 0.10394
H_ H_ 0.203353 0.763448 0.827075 0.10394
H_ H_ 0.334866 0.717982 0.745408 0.10394
H_ H_ 0.376784 0.67629 0.821424 0.10394
H_ H_ 0.297674 0.618728 0.557214 0.10394
H_ H_ 0.239976 0.625285 0.625839 0.10394
H_ H_ 0.115567 0.596193 0.51343 0.10394
C_ C_ 0.178718 0.592686 0.8056 0.18167
C_ C_ 0.222362 0.574344 0.78217 -0.15533
C_ C_ 0.236412 0.522408 0.776134 0.02923
C_ C_ 0.204003 0.988507 0.793782 -0.15533
C_ C_ 0.159203 0.507104 0.809287 0.18167
C_ C_ 0.0264706 0.624119 0.762644 0.18167
C_ C_ 0.513915 0.673812 0.742212 -0.15533
C_ C_ 0.00556437 0.716081 0.751168 0.02923
C_ C_ 0.0270468 0.725416 0.801607 -0.15533
C_ C_ 0.0472308 0.683837 0.833321 0.18167
C_ C_ 0.00508142 0.543097 0.874751 0.69207
C_ C_ 0.478843 0.00616557 0.872358 0.02923
C_ C_ 0.501725 0.955447 0.872293 -0.15533
C_ C_ 0.473347 0.914257 0.875218 -0.15533
C_ C_ 0.42133 0.921897 0.887732 0.02923
C_ C_ 0.401146 0.972765 0.892719 -0.15533
C_ C_ 0.428392 0.013811 0.885704 0.02923
C_ C_ 0.39733 0.567131 0.886419 0.69207
C_ C_ 0.412617 0.825544 0.879584 0.69661
C_ C_ 0.0733953 0.798401 0.59442 0.18167
C_ C_ 0.0256756 0.780734 0.575412 -0.15533
C_ C_ 0.0142867 0.76684 0.523757 0.02923
C_ C_ 0.0465006 0.776621 0.988334 -0.15533
C_ C_ 0.095184 0.797638 0.510008 0.18167
C_ C_ 0.220393 0.767457 0.64192 0.18167
C_ C_ 0.237199 0.743914 0.68632 -0.15533
C_ C_ 0.237566 0.770798 0.733902 0.02923
C_ C_ 0.220404 0.82296 0.733351 -0.15533
C_ C_ 0.205092 0.847733 0.688704 0.18167
C_ C_ 0.245492 0.860531 0.550439 0.69207
C_ C_ 0.282086 0.871715 0.0012700000000001044 0.02923
C_ C_ 0.261591 0.873455 0.948658 -0.15533
C_ C_ 0.292302 0.878068 0.910303 -0.15533
C_ C_ 0.34485 0.88085 0.921462 0.02923
C_ C_ 0.365186 0.88452 0.972828 -0.15533
C_ C_ 0.333417 0.88163 0.0157368 0.02923
C_ C_ 0.354465 0.877424 0.573403 0.69207
C_ C_ 0.357032 0.883454 0.82281 0.69661
C_ C_ 0.312466 0.92989 0.688445 0.18167
C_ C_ 0.270524 0.955866 0.710147 -0.15533
C_ C_ 0.278047 0.998858 0.74043 0.02923
C_ C_ 0.327472 0.515323 0.750837 -0.15533
C_ C_ 0.368333 0.988972 0.725932 0.18167
C_ C_ 0.490491 0.85047 0.713815 0.18167
C_ C_ 0.00739391 0.803254 0.728499 -0.15533
C_ C_ 0.48436 0.766445 0.741387 0.02923
C_ C_ 0.43387 0.769927 0.720912 -0.15533
C_ C_ 0.412535 0.814513 0.69601 0.18167
C_ C_ 0.47897 0.954266 0.620012 0.69207
C_ C_ 0.0246925 0.496935 0.612519 0.02923
C_ C_ 1.00398191 0.547195 0.611377 -0.15533
C_ C_ 0.0370064 0.586814 0.604858 -0.15533
C_ C_ 0.0893996 0.573567 0.597988 0.02923
C_ C_ 0.108501 0.521953 0.59758 -0.15533
C_ C_ 0.0768088 0.483401 0.604759 0.02923
C_ C_ 0.101171 0.921886 0.611838 0.69207
C_ C_ 0.106185 0.66886 0.609625 0.69661
C_ C_ 0.439247 0.676143 0.940992 0.18167
C_ C_ 0.48023 0.694228 0.973393 -0.15533
C_ C_ 0.470839 0.737331 0.00528698 0.02923
C_ C_ 0.42062 0.752572 0.515842 -0.15533
C_ C_ 0.379025 0.727306 0.986356 0.18167
C_ C_ 0.261753 0.709472 0.861266 0.18167
C_ C_ 0.239694 0.743545 0.823149 -0.15533
C_ C_ 0.264036 0.745532 0.779757 0.02923
C_ C_ 0.314074 0.71941 0.77832 -0.15533
C_ C_ 0.336628 0.694361 0.8208 0.18167
C_ C_ 0.25821 0.622014 0.956374 0.69207
C_ C_ 0.236256 0.613466 0.494627 0.02923
C_ C_ 0.257049 0.612971 0.546712 -0.15533
C_ C_ 0.223852 0.617142 0.586071 -0.15533
C_ C_ 0.1728 0.608721 0.57444 0.02923
C_ C_ 0.154863 0.603555 0.522375 -0.15533
C_ C_ 0.182414 0.610236 0.483749 0.02923
C_ C_ 0.148853 0.607167 0.92888 0.69207
C_ C_ 0.152869 0.608877 0.667657 0.69661
C_ C_ 0.381808 0.878892 0.878298 -0.30787
C_ C_ 0.1302 0.613708 0.611937 -0.30787
N_ N_ 0.146293 0.558852 0.814162 -0.32189
N_ N_ 0.0512741 0.63416 0.810983 -0.32189
N_ N_ 0.106442 0.805581 0.561046 -0.32189
N_ N_ 0.198767 0.817632 0.644103 -0.32189
N_ N_ 0.361324 0.943845 0.699665 -0.32189
N_ N_ 0.443469 0.850684 0.68987 -0.32189
N_ N_ 0.390383 0.690741 0.950764 -0.32189
N_ N_ 0.309511 0.68681 0.859479 -0.32189
O_ O_ 0.509266 0.584739 0.893365 -0.63271
O_ O_ 0.0354849 0.536378 0.839576 -0.57982
O_ O_ 0.39991 0.594186 0.846574 -0.63271
O_ O_ 0.367227 0.58341 0.919212 -0.57982
O_ O_ 0.241402 0.892053 0.591571 -0.63271
O_ O_ 0.209676 0.829579 0.539622 -0.57982
O_ O_ 0.357581 0.834344 0.598317 -0.63271
O_ O_ 0.372495 0.917869 0.596541 -0.57982
O_ O_ 0.987305 0.909501 0.597759 -0.63271
O_ O_ 0.457742 0.956363 0.663056 -0.57982
O_ O_ 0.0965114 0.89272 0.651296 -0.63271
O_ O_ 0.13578 0.909619 0.580677 -0.57982
O_ O_ 0.254566 0.593178 0.913214 -0.63271
O_ O_ 0.293632 0.653218 0.964197 -0.57982
O_ O_ 0.149743 0.647181 0.902633 -0.63271
O_ O_ 0.118048 0.574044 0.91006 -0.57982
F_ F_ 0.448574 0.822715 0.922665 -0.20885
F_ F_ 0.438714 0.816993 0.835908 -0.20885
F_ F_ 0.383399 0.788442 0.882694 -0.20885
F_ F_ 0.320583 0.928429 0.826677 -0.20885
F_ F_ 0.333463 0.841045 0.807898 -0.20885
F_ F_ 0.393479 0.890534 0.788602 -0.20885
F_ F_ 0.0811423 0.674278 0.560928 -0.20885
F_ F_ 0.0711916 0.679481 0.643678 -0.20885
F_ F_ 0.13824 0.706399 0.617598 -0.20885
F_ F_ 0.188192 0.566211 0.668974 -0.20885
F_ F_ 0.176865 0.651794 0.68748 -0.20885
F_ F_ 0.116428 0.602041 0.699086 -0.20885
Zn Zn 0.583364 0.0862911 0.352029 0.83971
Zn Zn 0.660336 0.349637 0.0784135 0.83971
Zn Zn 0.905687 0.423669 0.148203 0.83971
Zn Zn 0.837044 0.161976 0.416439 0.83971
H_ H_ 0.669891 0.132115 0.31062 0.10394
H_ H_ 0.750539 0.0965796 0.274082 0.10394
H_ H_ 0.702313 0.449431 0.279232 0.10394
H_ H_ 0.622648 0.984029 0.318385 0.10394
H_ H_ 0.0258482 0.105729 0.245043 0.10394
H_ H_ 0.981372 0.182113 0.198273 0.10394
H_ H_ 0.52454 0.265221 0.3263 0.10394
H_ H_ 0.561374 0.190973 0.375516 0.10394
H_ H_ 0.528729 0.441062 0.35983 0.10394
H_ H_ 0.979823 0.385136 0.349764 0.10394
H_ H_ 0.853039 0.484993 0.397648 0.10394
H_ H_ 0.582803 0.306043 0.123617 0.10394
H_ H_ 0.996154 0.265454 0.0985088 0.10394
H_ H_ 0.543042 0.289697 0.443809 0.10394
H_ H_ 0.622789 0.313079 0.975232 0.10394
H_ H_ 0.714185 0.247682 0.0925031 0.10394
H_ H_ 0.754243 0.199364 0.168383 0.10394
H_ H_ 0.707717 0.335886 0.261827 0.10394
H_ H_ 0.67232 0.377066 0.184878 0.10394
H_ H_ 0.725022 0.351746 0.439039 0.10394
H_ H_ 0.772353 0.383917 0.372752 0.10394
H_ H_ 0.902247 0.395184 0.483558 0.10394
H_ H_ 0.802945 0.410303 0.149209 0.10394
H_ H_ 0.728994 0.453384 0.192509 0.10394
H_ H_ 0.826079 0.0409384 0.284002 0.10394
H_ H_ 0.897828 0.51829 0.224578 0.10394
H_ H_ 0.507094 0.384329 0.209729 0.10394
H_ H_ 0.551088 0.29763 0.232845 0.10394
H_ H_ 0.905559 0.256105 0.207005 0.10394
H_ H_ 0.862918 0.341564 0.190264 0.10394
H_ H_ 0.97085 0.0594121 0.143752 0.10394
H_ H_ 0.517667 0.117108 0.112948 0.10394
H_ H_ 0.638659 0.00512734 0.0824986 0.10394
H_ H_ 0.944 0.168847 0.391193 0.10394
H_ H_ 0.519666 0.195288 0.450023 0.10394
H_ H_ 0.912393 0.271805 0.0420248 0.10394
H_ H_ 0.84637 0.240015 0.496538 0.10394
H_ H_ 0.729813 0.203007 0.377027 0.10394
H_ H_ 0.691446 0.247698 0.304812 0.10394
H_ H_ 0.838309 0.234278 0.246459 0.10394
H_ H_ 0.877175 0.193203 0.323789 0.10394
H_ H_ 0.784023 0.105176 0.0553536 0.10394
H_ H_ 0.731706 0.115101 0.125264 0.10394
H_ H_ 0.604673 0.095339 0.00844889 0.10394
C_ C_ 0.677033 0.0913613 0.306146 0.18167
C_ C_ 0.722031 0.0717759 0.283465 -0.15533
C_ C_ 0.727732 0.0206394 0.2696 0.02923
C_ C_ 0.701811 0.48957 0.294494 -0.15533
C_ C_ 0.651259 0.00889553 0.308819 0.18167
C_ C_ 0.525316 0.129286 0.268446 0.18167
C_ C_ -0.00012900000000004574 0.186142 0.237594 -0.15533
C_ C_ 0.500403 0.218551 0.259267 0.02923
C_ C_ 0.520626 0.22757 0.309492 -0.15533
C_ C_ 0.541271 0.186123 0.338648 0.18167
C_ C_ 0.509351 0.0411477 0.381783 0.69207
C_ C_ 0.976838 0.50997 0.38242 0.02923
C_ C_ 0.994817 0.459181 0.369211 -0.15533
C_ C_ 0.965357 0.419264 0.369297 -0.15533
C_ C_ 0.915139 0.428097 0.383217 0.02923
C_ C_ 0.89395 0.478549 0.390435 -0.15533
C_ C_ 0.923873 0.520547 0.392015 0.02923
C_ C_ 0.891058 0.073941 0.383241 0.69207
C_ C_ 0.908853 0.330673 0.37481 0.69661
C_ C_ 0.572284 0.300653 0.0837237 0.18167
C_ C_ 0.529335 0.277522 0.0647233 -0.15533
C_ C_ 0.518469 0.26725 0.0126112 0.02923
C_ C_ 0.555266 0.289305 0.484878 -0.15533
C_ C_ 0.596032 0.302628 0.00170153 0.18167
C_ C_ 0.721819 0.269456 0.127014 0.18167
C_ C_ 0.740667 0.241796 0.171115 -0.15533
C_ C_ 0.739271 0.268506 0.219714 0.02923
C_ C_ 0.712254 0.316203 0.223304 -0.15533
C_ C_ 0.693853 0.340341 0.179627 0.18167
C_ C_ 0.739899 0.366926 0.0411667 0.69207
C_ C_ 0.781849 0.37224 0.50258 0.02923
C_ C_ 0.763024 0.362577 0.449564 -0.15533
C_ C_ 0.790613 0.376547 0.409358 -0.15533
C_ C_ 0.843541 0.388711 0.420276 0.02923
C_ C_ 0.863901 0.389343 0.471727 -0.15533
C_ C_ 0.833412 0.385686 0.511884 0.02923
C_ C_ 0.852813 0.388679 0.0682054 0.69207
C_ C_ 0.847825 0.388384 0.321831 0.69661
C_ C_ 0.8077 0.443515 0.174514 0.18167
C_ C_ 0.767698 0.466272 0.200164 -0.15533
C_ C_ 0.773497 0.504158 0.239128 0.02923
C_ C_ 0.819801 0.0120324 0.252587 -0.15533
C_ C_ 0.862757 0.498878 0.221726 0.18167
C_ C_ 0.983678 0.36874 0.211097 0.18167
C_ C_ 0.509662 0.302031 0.222572 -0.15533
C_ C_ 0.977954 0.281735 0.230593 0.02923
C_ C_ 0.928125 0.286157 0.209186 -0.15533
C_ C_ 0.903173 0.335752 0.20002 0.18167
C_ C_ 0.978575 0.462187 0.122233 0.69207
C_ C_ 0.520308 0.988702 0.116893 0.02923
C_ C_ 0.501052 0.04273 0.117913 -0.15533
C_ C_ 0.532468 0.0804209 0.110854 -0.15533
C_ C_ 0.583987 0.0672481 0.104372 0.02923
C_ C_ 0.59969 0.0156725 0.0960014 -0.15533
C_ C_ 0.572283 0.976881 0.109383 0.02923
C_ C_ 0.595794 0.426848 0.0999977 0.69207
C_ C_ 0.599704 0.164988 0.114274 0.69661
C_ C_ 0.938666 0.187021 0.42904 0.18167
C_ C_ 0.979844 0.209 0.452878 -0.15533
C_ C_ 0.974148 0.240761 0.497257 0.02923
C_ C_ 0.921544 0.242245 0.0159825 -0.15533
C_ C_ 0.883174 0.236574 0.481614 0.18167
C_ C_ 0.752344 0.206149 0.346787 0.18167
C_ C_ 0.730314 0.229872 0.303507 -0.15533
C_ C_ 0.762436 0.244319 0.268694 0.02923
C_ C_ 0.814266 0.227085 0.275116 -0.15533
C_ C_ 0.8341 0.199598 0.317722 0.18167
C_ C_ 0.757794 0.137099 0.454708 0.69207
C_ C_ 0.725656 0.113402 0.993486 0.02923
C_ C_ 0.744451 0.114203 0.0465293 -0.15533
C_ C_ 0.712416 0.114088 0.0852766 -0.15533
C_ C_ 0.660645 0.106609 0.0718169 0.02923
C_ C_ 0.642691 0.102834 0.019343 -0.15533
C_ C_ 0.673678 0.111089 0.980349 0.02923
C_ C_ 0.647143 0.117255 0.425783 0.69207
C_ C_ 0.652645 0.0981565 0.168556 0.69661
C_ C_ 0.87849 0.384766 0.376623 -0.30787
C_ C_ 0.622508 0.108005 0.112622 -0.30787
N_ N_ 0.643995 0.0596797 0.320255 -0.32189
N_ N_ 0.549045 0.138689 0.315479 -0.32189
N_ N_ 0.605317 0.311901 0.0522027 -0.32189
N_ N_ 0.698056 0.316651 0.132471 -0.32189
N_ N_ 0.854677 0.458136 0.188455 -0.32189
N_ N_ 0.932186 0.373584 0.194984 -0.32189
N_ N_ 0.892117 0.198575 0.445129 -0.32189
N_ N_ 0.804309 0.190786 0.353702 -0.32189
O_ O_ 0.000521128 0.0962119 0.398359 -0.63271
O_ O_ 0.545005 0.0314373 0.351039 -0.57982
O_ O_ 0.895122 0.100401 0.342774 -0.63271
O_ O_ 0.864408 0.0956156 0.419672 -0.57982
O_ O_ 0.741154 0.397297 0.0823873 -0.63271
O_ O_ 0.702531 0.340032 0.0305951 -0.57982
O_ O_ 0.863569 0.349868 0.0980643 -0.63271
O_ O_ 0.875264 0.428436 0.081936 -0.57982
O_ O_ 0.489476 0.402014 0.103767 -0.63271
O_ O_ 0.944805 0.47471 0.15336 -0.57982
O_ O_ 0.591824 0.396629 0.137509 -0.63271
O_ O_ 0.633541 0.415339 0.0723124 -0.57982
O_ O_ 0.751568 0.114637 0.407639 -0.63271
O_ O_ 0.794509 0.165831 0.467577 -0.57982
O_ O_ 0.644039 0.158119 0.400235 -0.63271
O_ O_ 0.611916 0.086017 0.413915 -0.57982
F_ F_ 0.947483 0.325554 0.412162 -0.20885
F_ F_ 0.932731 0.315354 0.329703 -0.20885
F_ F_ 0.87643 0.293282 0.377169 -0.20885
F_ F_ 0.809036 0.426357 0.317338 -0.20885
F_ F_ 0.824333 0.344474 0.304902 -0.20885
F_ F_ 0.879065 0.398676 0.286573 -0.20885
F_ F_ 0.564921 0.172666 0.0731498 -0.20885
F_ F_ 0.56669 0.178866 0.152702 -0.20885
F_ F_ 0.634903 0.199198 0.123063 -0.20885
F_ F_ 0.680719 0.0512084 0.16994 -0.20885
F_ F_ 0.685586 0.134418 0.189069 -0.20885
F_ F_ 0.614584 0.103224 0.201332 -0.20885
Zn Zn 0.587496 0.0887965 0.842141 0.83971
Zn Zn 0.666961 0.353679 0.582424 0.83971
Zn Zn 0.910234 0.420126 0.648819 0.83971
Zn Zn 0.837465 0.152076 0.914844 0.83971
H_ H_ 0.663795 0.136331 0.803951 0.10394
H_ H_ 0.740646 0.101063 0.756757 0.10394
H_ H_ 0.723564 0.443187 0.783946 0.10394
H_ H_ 0.629926 0.991311 0.829461 0.10394
H_ H_ 0.0383517 0.100935 0.748999 0.10394
H_ H_ 1.00331413 0.17331 0.693899 0.10394
H_ H_ 0.530103 0.276321 0.821744 0.10394
H_ H_ 0.574288 0.198875 0.871543 0.10394
H_ H_ 0.532133 0.44105 0.862566 0.10394
H_ H_ 0.984144 0.375634 0.879486 0.10394
H_ H_ 0.847017 0.479108 0.882505 0.10394
H_ H_ 0.588458 0.312688 0.62654 0.10394
H_ H_ 0.00276716 0.270149 0.596601 0.10394
H_ H_ 0.548473 0.272319 0.940827 0.10394
H_ H_ 0.628516 0.318851 0.477249 0.10394
H_ H_ 0.719119 0.252953 0.599923 0.10394
H_ H_ 0.756535 0.206986 0.676562 0.10394
H_ H_ 0.723395 0.342654 0.772068 0.10394
H_ H_ 0.686877 0.388023 0.690859 0.10394
H_ H_ 0.713866 0.37142 0.935745 0.10394
H_ H_ 0.769472 0.375315 0.870496 0.10394
H_ H_ 0.898499 0.401251 0.98593 0.10394
H_ H_ 0.806749 0.409711 0.645757 0.10394
H_ H_ 0.735014 0.453856 0.692146 0.10394
H_ H_ 0.83175 0.0430335 0.78524 0.10394
H_ H_ 0.912085 0.485435 0.742672 0.10394
H_ H_ 0.506232 0.393006 0.695651 0.10394
H_ H_ 0.551744 0.312646 0.732392 0.10394
H_ H_ 0.924299 0.252225 0.730444 0.10394
H_ H_ 0.875872 0.326877 0.682237 0.10394
H_ H_ 0.967603 0.0559798 0.619781 0.10394
H_ H_ 0.516865 0.122713 0.631467 0.10394
H_ H_ 0.641053 0.0101741 0.606174 0.10394
H_ H_ 0.944349 0.15171 0.899002 0.10394
H_ H_ 0.519592 0.19034 0.940951 0.10394
H_ H_ 0.917792 0.287259 0.536949 0.10394
H_ H_ 0.844051 0.231342 -0.004766000000000048 0.10394
H_ H_ 0.730341 0.196928 0.885193 0.10394
H_ H_ 0.695011 0.252002 0.809148 0.10394
H_ H_ 0.836712 0.228007 0.748828 0.10394
H_ H_ 0.874376 0.180004 0.82441 0.10394
H_ H_ 0.783756 0.130095 0.555571 0.10394
H_ H_ 0.730427 0.120261 0.623951 0.10394
H_ H_ 0.599878 0.103025 0.506662 0.10394
C_ C_ 0.675182 0.0950301 0.796586 0.18167
C_ C_ 0.720076 0.0731112 0.776935 -0.15533
C_ C_ 0.734401 0.0201097 0.776275 0.02923
C_ C_ 0.70918 0.482917 0.789454 -0.15533
C_ C_ 0.656092 0.0151304 0.812658 0.18167
C_ C_ 0.519494 0.137439 0.765776 0.18167
C_ C_ 0.0206429 0.181846 0.732894 -0.15533
C_ C_ 0.505912 0.229977 0.757957 0.02923
C_ C_ 0.528247 0.237087 0.806463 -0.15533
C_ C_ 0.55441 0.193589 0.833798 0.18167
C_ C_ 0.511464 0.0475814 0.865411 0.69207
C_ C_ 0.971042 0.503096 0.876996 0.02923
C_ C_ 0.994279 0.452523 0.878979 -0.15533
C_ C_ 0.963642 0.413364 0.881425 -0.15533
C_ C_ 0.912552 0.422159 0.889306 0.02923
C_ C_ 0.888521 0.473424 0.887827 -0.15533
C_ C_ 0.918689 0.513562 0.886111 0.02923
C_ C_ 0.897441 0.0723182 0.883392 0.69207
C_ C_ 0.902793 0.327017 0.885384 0.69661
C_ C_ 0.578864 0.304328 0.587453 0.18167
C_ C_ 0.530929 0.285964 0.570103 -0.15533
C_ C_ 0.520776 0.274316 0.517565 0.02923
C_ C_ 0.552604 0.280446 0.981845 -0.15533
C_ C_ 0.601546 0.307374 0.5034 0.18167
C_ C_ 0.714389 0.270873 0.639215 0.18167
C_ C_ 0.736659 0.245246 0.682404 -0.15533
C_ C_ 0.742405 0.27064 0.730701 0.02923
C_ C_ 0.719311 0.321368 0.734894 -0.15533
C_ C_ 0.698131 0.346462 0.690017 0.18167
C_ C_ 0.747836 0.36671 0.543819 0.69207
C_ C_ 0.775267 0.373455 1.00123953 0.02923
C_ C_ 0.755295 0.374526 0.947822 -0.15533
C_ C_ 0.788149 0.376399 0.907997 -0.15533
C_ C_ 0.839328 0.388693 0.921851 0.02923
C_ C_ 0.85809 0.391351 0.975811 -0.15533
C_ C_ 0.829888 0.382236 0.0148656 0.02923
C_ C_ 0.857114 0.389946 0.565809 0.69207
C_ C_ 0.855282 0.379547 0.821513 0.69661
C_ C_ 0.812434 0.439836 0.676836 0.18167
C_ C_ 0.77202 0.464003 0.702018 -0.15533
C_ C_ 0.782733 0.499197 0.742435 0.02923
C_ C_ 0.826951 0.0133507 0.755596 -0.15533
C_ C_ 0.871736 0.484458 0.729194 0.18167
C_ C_ 0.994455 0.361994 0.696573 0.18167
C_ C_ 0.511463 0.315759 0.718022 -0.15533
C_ C_ 0.993831 0.275472 0.723555 0.02923
C_ C_ 0.942492 0.282038 0.719002 -0.15533
C_ C_ 0.91852 0.322506 0.691786 0.18167
C_ C_ 0.990202 0.459163 0.62102 0.69207
C_ C_ 0.516874 0.994169 0.614835 0.02923
C_ C_ 0.498191 0.0469888 0.620866 -0.15533
C_ C_ 0.530044 0.0846163 0.614835 -0.15533
C_ C_ 0.581708 0.07259 0.603804 0.02923
C_ C_ 0.600341 0.0211813 0.603064 -0.15533
C_ C_ 0.568386 0.982496 0.609653 0.02923
C_ C_ 0.596147 0.429206 0.60303 0.69207
C_ C_ 0.591926 0.170567 0.607706 0.69661
C_ C_ 0.936918 0.179994 0.927317 0.18167
C_ C_ 0.979693 0.193717 0.959193 -0.15533
C_ C_ 0.972592 0.229681 0.000784605 0.02923
C_ C_ 0.923389 0.257235 0.508822 -0.15533
C_ C_ 0.881228 0.221907 0.985034 0.18167
C_ C_ 0.754579 0.207323 0.856098 0.18167
C_ C_ 0.733005 0.234576 0.81525 -0.15533
C_ C_ 0.76338 0.241473 0.77652 0.02923
C_ C_ 0.814013 0.224085 0.779954 -0.15533
C_ C_ 0.834162 0.196273 0.822543 0.18167
C_ C_ 0.764118 0.117619 0.957199 0.69207
C_ C_ 0.72373 0.124799 0.492987 0.02923
C_ C_ 0.743339 0.122342 0.545342 -0.15533
C_ C_ 0.712547 0.1151 0.584362 -0.15533
C_ C_ 0.659392 0.106493 0.570924 0.02923
C_ C_ 0.640957 0.105812 0.519038 -0.15533
C_ C_ 0.671425 0.116002 0.48065 0.02923
C_ C_ 0.649869 0.115219 0.926221 0.69207
C_ C_ 0.646682 0.109422 0.665547 0.69661
C_ C_ 0.877937 0.380172 0.880196 -0.30787
C_ C_ 0.620343 0.114636 0.611533 -0.30787
N_ N_ 0.640365 0.063725 0.805183 -0.32189
N_ N_ 0.547687 0.146291 0.813706 -0.32189
N_ N_ 0.610333 0.31967 0.554499 -0.32189
N_ N_ 0.695118 0.320542 0.64314 -0.32189
N_ N_ 0.860895 0.447555 0.693086 -0.32189
N_ N_ 0.944174 0.362435 0.680277 -0.32189
N_ N_ 0.889239 0.190203 0.942737 -0.32189
N_ N_ 0.80497 0.18945 0.859947 -0.32189
O_ O_ 0.00802015 0.0840158 0.902731 -0.63271
O_ O_ 0.54649 0.039852 0.8339 -0.57982
O_ O_ 0.892377 0.0940823 0.840731 -0.63271
O_ O_ 0.866874 0.085491 0.916409 -0.57982
O_ O_ 0.742107 0.403455 0.578794 -0.63271
O_ O_ 0.709711 0.338095 0.53486 -0.57982
O_ O_ 0.862438 0.350018 0.593129 -0.63271
O_ O_ 0.880999 0.429498 0.583208 -0.57982
O_ O_ 0.492687 0.411139 0.597085 -0.63271
O_ O_ 0.953785 0.470041 0.651537 -0.57982
O_ O_ 0.597491 0.408105 0.647842 -0.63271
O_ O_ 0.634387 0.414525 0.575391 -0.57982
O_ O_ 0.757969 0.0986526 0.911508 -0.63271
O_ O_ 0.790898 0.156254 0.960942 -0.57982
O_ O_ 0.657064 0.155036 0.902354 -0.63271
O_ O_ 0.612722 0.0896787 0.909283 -0.57982
F_ F_ 0.933549 0.321831 0.9311 -0.20885
F_ F_ 0.932819 0.30929 0.846407 -0.20885
F_ F_ 0.869277 0.289331 0.881705 -0.20885
F_ F_ 0.817079 0.418877 0.812567 -0.20885
F_ F_ 0.828923 0.336097 0.807015 -0.20885
F_ F_ 0.889561 0.385078 0.788091 -0.20885
F_ F_ 0.551767 0.178666 0.570602 -0.20885
F_ F_ 0.571284 0.184409 0.653289 -0.20885
F_ F_ 0.625625 0.204473 0.60134 -0.20885
F_ F_ 0.680085 0.0666844 0.66885 -0.20885
F_ F_ 0.674013 0.151033 0.682571 -0.20885
F_ F_ 0.61193 0.104865 0.700483 -0.20885
Zn Zn 0.586152 0.585214 0.347289 0.83971
Zn Zn 0.660561 0.849131 0.0798177 0.83971
Zn Zn 0.905748 0.918258 0.152085 0.83971
Zn Zn 0.838045 0.658704 0.415605 0.83971
H_ H_ 0.661057 0.63678 0.300145 0.10394
H_ H_ 0.728339 0.598689 0.244612 0.10394
H_ H_ 0.702817 0.945648 0.285659 0.10394
H_ H_ 0.628421 0.485386 0.322554 0.10394
H_ H_ 0.0207289 0.610639 0.259703 0.10394
H_ H_ 0.98781 0.685399 0.214126 0.10394
H_ H_ 0.541466 0.77406 0.34488 0.10394
H_ H_ 0.572334 0.696394 0.384526 0.10394
H_ H_ 0.526307 0.940498 0.364056 0.10394
H_ H_ 0.980276 0.881958 0.397873 0.10394
H_ H_ 0.848941 0.995143 0.400724 0.10394
H_ H_ 0.577653 0.80947 0.129527 0.10394
H_ H_ 0.99377 0.774446 0.103004 0.10394
H_ H_ 0.545253 0.78385 0.452352 0.10394
H_ H_ 0.614683 0.815829 0.977233 0.10394
H_ H_ 0.70838 0.744821 0.091798 0.10394
H_ H_ 0.750455 0.694717 0.164767 0.10394
H_ H_ 0.724224 0.831052 0.263124 0.10394
H_ H_ 0.684803 0.877665 0.186214 0.10394
H_ H_ 0.711406 0.876752 0.446081 0.10394
H_ H_ 0.765369 0.887575 0.381051 0.10394
H_ H_ 0.891912 0.909024 0.492005 0.10394
H_ H_ 0.79923 0.893127 0.162086 0.10394
H_ H_ 0.728031 0.944685 0.190063 0.10394
H_ H_ 0.826122 0.55417 0.279462 0.10394
H_ H_ 0.895137 1.00276053 0.233367 0.10394
H_ H_ 0.514354 0.891017 0.2002 0.10394
H_ H_ 0.563783 0.8235 0.248739 0.10394
H_ H_ 0.917117 0.748558 0.227685 0.10394
H_ H_ 0.87236 0.830297 0.186693 0.10394
H_ H_ 0.957923 0.56312 0.119957 0.10394
H_ H_ 0.510864 0.617794 0.116147 0.10394
H_ H_ 0.635086 0.51073 0.0804775 0.10394
H_ H_ 0.939859 0.664253 0.400121 0.10394
H_ H_ 0.51434 0.68717 0.449552 0.10394
H_ H_ 0.910272 0.786017 0.0379285 0.10394
H_ H_ 0.837104 0.739467 0.503747 0.10394
H_ H_ 0.7349 0.693583 0.377172 0.10394
H_ H_ 0.692612 0.737374 0.298613 0.10394
H_ H_ 0.838304 0.719387 0.240054 0.10394
H_ H_ 0.876341 0.687491 0.319661 0.10394
H_ H_ 0.783031 0.605701 0.0567177 0.10394
H_ H_ 0.727165 0.609925 0.123331 0.10394
H_ H_ 0.600211 0.609243 0.00975496 0.10394
C_ C_ 0.670995 0.594249 0.293918 0.18167
C_ C_ 0.716064 0.575333 0.273133 -0.15533
C_ C_ 0.732445 0.523141 0.27294 0.02923
C_ C_ 0.694532 0.988689 0.285405 -0.15533
C_ C_ 0.656386 0.510659 0.312653 0.18167
C_ C_ 0.535566 0.642755 0.270396 0.18167
C_ C_ 0.00512705 0.691051 0.254245 -0.15533
C_ C_ 0.522822 0.734356 0.27021 0.02923
C_ C_ 0.544375 0.739665 0.32054 -0.15533
C_ C_ 0.559434 0.693008 0.34409 0.18167
C_ C_ 0.503977 0.545963 0.367767 0.69207
C_ C_ 0.97097 0.0121517 0.382795 0.02923
C_ C_ -0.009484000000000048 0.960441 0.384117 -0.15533
C_ C_ 0.959608 0.920285 0.389382 -0.15533
C_ C_ 0.907805 0.932223 0.394201 0.02923
C_ C_ 0.888403 0.984018 0.395679 -0.15533
C_ C_ 0.91721 0.0224806 0.387084 0.02923
C_ C_ 0.894073 0.571275 0.387148 0.69207
C_ C_ 0.902069 0.833727 0.395156 0.69661
C_ C_ 0.568743 0.804163 0.0896199 0.18167
C_ C_ 0.523695 0.784828 0.0715918 -0.15533
C_ C_ 0.509708 0.775179 0.0189343 0.02923
C_ C_ 0.548729 0.788696 0.493239 -0.15533
C_ C_ 0.587769 0.808683 0.00359493 0.18167
C_ C_ 0.714325 0.763527 0.128395 0.18167
C_ C_ 0.734449 0.73415 0.169969 -0.15533
C_ C_ 0.741514 0.75866 0.217628 0.02923
C_ C_ 0.724665 0.813045 0.22383 -0.15533
C_ C_ 0.704178 0.838903 0.182708 0.18167
C_ C_ 0.739348 0.871745 0.0392655 0.69207
C_ C_ 0.769764 0.879936 0.508596 0.02923
C_ C_ 0.751368 0.878325 0.457019 -0.15533
C_ C_ 0.782715 0.889051 0.420308 -0.15533
C_ C_ 0.833675 0.89374 0.431978 0.02923
C_ C_ 0.851461 0.902064 0.482775 -0.15533
C_ C_ 0.820504 0.892831 0.521099 0.02923
C_ C_ 0.851542 0.884767 0.0689569 0.69207
C_ C_ 0.853265 0.885888 0.330458 0.69661
C_ C_ 0.806281 0.928518 0.187151 0.18167
C_ C_ 0.764072 0.955092 0.20676 -0.15533
C_ C_ 0.771059 0.996771 0.241641 0.02923
C_ C_ 0.822146 0.523113 0.249039 -0.15533
C_ C_ 0.859812 0.987563 0.227198 0.18167
C_ C_ 0.987242 0.865866 0.214418 0.18167
C_ C_ 0.522499 0.822056 0.236737 -0.15533
C_ C_ 0.984936 0.783632 0.250718 0.02923
C_ C_ 0.935769 0.782368 0.224692 -0.15533
C_ C_ 0.914163 0.824521 0.194298 0.18167
C_ C_ 0.985387 0.956559 0.131499 0.69207
C_ C_ 0.520365 0.48796 0.114377 0.02923
C_ C_ 0.500092 0.538235 0.119456 -0.15533
C_ C_ 0.529238 0.579644 0.116643 -0.15533
C_ C_ 0.581646 0.570525 0.104376 0.02923
C_ C_ 0.596466 0.51991 0.0887101 -0.15533
C_ C_ 0.567988 0.479437 0.099114 0.02923
C_ C_ 0.595646 0.921649 0.108112 0.69207
C_ C_ 0.587942 0.6674 0.113326 0.69661
C_ C_ 0.933579 0.687406 0.433921 0.18167
C_ C_ 0.975618 0.701966 0.465626 -0.15533
C_ C_ 0.968327 0.741845 0.502607 0.02923
C_ C_ 0.918094 0.751588 1.012601 -0.15533
C_ C_ 0.877397 0.732435 0.49002 0.18167
C_ C_ 0.755861 0.700574 0.34724 0.18167
C_ C_ 0.731455 0.720673 0.300406 -0.15533
C_ C_ 0.761895 0.727669 0.261367 0.02923
C_ C_ 0.813982 0.708747 0.267833 -0.15533
C_ C_ 0.834976 0.688245 0.312792 0.18167
C_ C_ 0.765021 0.624138 0.454707 0.69207
C_ C_ 0.724405 0.611657 0.994508 0.02923
C_ C_ 0.743235 0.609989 0.0464749 -0.15533
C_ C_ 0.70744 0.613464 0.0837993 -0.15533
C_ C_ 0.655508 0.608824 0.0720315 0.02923
C_ C_ 0.640277 0.607822 0.0203102 -0.15533
C_ C_ 0.672264 0.610989 0.980927 0.02923
C_ C_ 0.656435 0.603981 0.426177 0.69207
C_ C_ 0.640088 0.601313 0.163929 0.69661
C_ C_ 0.872035 0.888006 0.388487 -0.30787
C_ C_ 0.615007 0.613394 0.111323 -0.30787
N_ N_ 0.641597 0.560326 0.310705 -0.32189
N_ N_ 0.560113 0.646362 0.317786 -0.32189
N_ N_ 0.599764 0.816464 0.0571179 -0.32189
N_ N_ 0.697305 0.812992 0.136125 -0.32189
N_ N_ 0.854135 0.945674 0.195168 -0.32189
N_ N_ 0.940165 0.866103 0.191761 -0.32189
N_ N_ 0.886362 0.701619 0.446965 -0.32189
N_ N_ 0.806361 0.684392 0.352607 -0.32189
O_ O_ 0.00604621 0.595981 0.405656 -0.63271
O_ O_ 0.539211 0.54098 0.33817 -0.57982
O_ O_ 0.894765 0.593863 0.345464 -0.63271
O_ O_ 0.87644 0.597926 0.42685 -0.57982
O_ O_ 0.740886 0.897859 0.0848048 -0.63271
O_ O_ 0.700588 0.844302 0.0290764 -0.57982
O_ O_ 0.851002 0.847881 0.0992631 -0.63271
O_ O_ 0.883388 0.920003 0.0848842 -0.57982
O_ O_ 0.482962 0.908019 0.0916864 -0.63271
O_ O_ 0.947627 0.96751 0.158431 -0.57982
O_ O_ 0.591843 0.893915 0.144677 -0.63271
O_ O_ 0.635391 0.91132 0.0826471 -0.57982
O_ O_ 0.765084 0.594973 0.412803 -0.63271
O_ O_ 0.800893 0.653838 0.466797 -0.57982
O_ O_ 0.664651 0.639514 0.398062 -0.63271
O_ O_ 0.618722 0.577306 0.41196 -0.57982
F_ F_ 0.931769 0.832339 0.441702 -0.20885
F_ F_ 0.932834 0.818254 0.35837 -0.20885
F_ F_ 0.868146 0.798999 0.391308 -0.20885
F_ F_ 0.816602 0.928272 0.325214 -0.20885
F_ F_ 0.824754 0.845609 0.32045 -0.20885
F_ F_ 0.885281 0.884955 0.293897 -0.20885
F_ F_ 0.556098 0.677294 0.0717801 -0.20885
F_ F_ 0.559583 0.675986 0.154195 -0.20885
F_ F_ 0.620052 0.705774 0.11554 -0.20885
F_ F_ 0.67199 0.556553 0.161355 -0.20885
F_ F_ 0.670475 0.637981 0.183128 -0.20885
F_ F_ 0.612313 0.593312 0.201378 -0.20885
Zn Zn 0.589553 0.578824 0.843834 0.83971
Zn Zn 0.658691 0.845704 0.593401 0.83971
Zn Zn 0.908941 0.912329 0.658568 0.83971
Zn Zn 0.838276 0.650638 0.921455 0.83971
H_ H_ 0.665956 0.626636 0.803957 0.10394
H_ H_ 0.748829 0.597234 0.777794 0.10394
H_ H_ 0.712621 0.950483 0.803208 0.10394
H_ H_ 0.64005 0.475312 0.819053 0.10394
H_ H_ 0.0247072 0.583266 0.748703 0.10394
H_ H_ 0.993381 0.652962 0.692106 0.10394
H_ H_ 0.516324 0.759261 0.844665 0.10394
H_ H_ 0.554917 0.68209 0.887702 0.10394
H_ H_ 0.541625 0.94815 0.868511 0.10394
H_ H_ 0.980932 0.878553 0.873375 0.10394
H_ H_ 0.857101 0.991528 0.91033 0.10394
H_ H_ 0.575857 0.802344 0.64176 0.10394
H_ H_ 0.000292907 0.770135 0.600124 0.10394
H_ H_ 0.537192 0.770543 0.946586 0.10394
H_ H_ 0.609971 0.834896 0.492251 0.10394
H_ H_ 0.719118 0.756005 0.602038 0.10394
H_ H_ 0.757606 0.704116 0.677809 0.10394
H_ H_ 0.705966 0.829744 0.778656 0.10394
H_ H_ 0.667809 0.878302 0.6994 0.10394
H_ H_ 0.720673 0.863661 0.936017 0.10394
H_ H_ 0.774988 0.859581 0.873364 0.10394
H_ H_ 0.901942 0.89189 0.982988 0.10394
H_ H_ 0.80905 0.891355 0.671379 0.10394
H_ H_ 0.730747 0.93973 0.704989 0.10394
H_ H_ 0.838689 0.54448 0.780408 0.10394
H_ H_ 0.90294 1.00496204 0.73496 0.10394
H_ H_ 0.512553 0.879956 0.706996 0.10394
H_ H_ 0.552163 0.804678 0.752552 0.10394
H_ H_ 0.910609 0.730461 0.706464 0.10394
H_ H_ 0.863765 0.819151 0.682374 0.10394
H_ H_ 0.961968 0.558836 0.605827 0.10394
H_ H_ 0.524579 0.624073 0.623765 0.10394
H_ H_ 0.63759 0.510649 0.570988 0.10394
H_ H_ 0.941429 0.651186 0.906182 0.10394
H_ H_ 0.518539 0.680792 0.967654 0.10394
H_ H_ 0.914994 0.785929 0.546883 0.10394
H_ H_ 0.83794 0.740453 0.994886 0.10394
H_ H_ 0.733916 0.678027 0.879273 0.10394
H_ H_ 0.689476 0.726466 0.802494 0.10394
H_ H_ 0.834137 0.723116 0.749513 0.10394
H_ H_ 0.876056 0.688071 0.83185 0.10394
H_ H_ 0.791139 0.622931 0.558513 0.10394
H_ H_ 0.735872 0.603895 0.622111 0.10394
H_ H_ 0.606859 0.603753 0.509822 0.10394
C_ C_ 0.67575 0.585836 0.795694 0.18167
C_ C_ 0.72245 0.570293 0.779164 -0.15533
C_ C_ 0.739555 0.517927 0.773439 0.02923
C_ C_ 0.704221 0.990538 0.799701 -0.15533
C_ C_ 0.663272 0.501336 0.808992 0.18167
C_ C_ 0.53709 0.630906 0.770128 0.18167
C_ C_ 0.00575685 0.664123 0.731103 -0.15533
C_ C_ 0.506284 0.7211 0.769699 0.02923
C_ C_ 0.520364 0.722513 0.823655 -0.15533
C_ C_ 0.547585 0.681954 0.847613 0.18167
C_ C_ 0.505853 0.543437 0.861957 0.69207
C_ C_ 0.974113 0.00652042 0.873797 0.02923
C_ C_ -0.008557999999999955 0.954805 0.871023 -0.15533
C_ C_ 0.961225 0.915994 0.876649 -0.15533
C_ C_ 0.910708 0.926002 0.889149 0.02923
C_ C_ 0.893257 0.978682 0.896847 -0.15533
C_ C_ 0.923768 0.0192241 0.886426 0.02923
C_ C_ 0.892734 0.564902 0.887878 0.69207
C_ C_ 0.903754 0.825476 0.883313 0.69661
C_ C_ 0.564633 0.802268 0.598726 0.18167
C_ C_ 0.523771 0.774916 0.574797 -0.15533
C_ C_ 0.514773 0.766634 0.522322 0.02923
C_ C_ 0.546225 0.782002 0.985278 -0.15533
C_ C_ 0.590561 0.812117 0.515911 0.18167
C_ C_ 0.721193 0.771695 0.640861 0.18167
C_ C_ 0.741949 0.744116 0.683582 -0.15533
C_ C_ 0.738511 0.766653 0.734449 0.02923
C_ C_ 0.715422 0.815628 0.740615 -0.15533
C_ C_ 0.695208 0.843455 0.696836 0.18167
C_ C_ 0.736058 0.868399 0.550316 0.69207
C_ C_ 0.775864 0.873326 1.00254953 0.02923
C_ C_ 0.758558 0.866684 0.94968 -0.15533
C_ C_ 0.792078 0.868539 0.911957 -0.15533
C_ C_ 0.841295 0.884388 0.922548 0.02923
C_ C_ 0.859844 0.88776 0.975957 -0.15533
C_ C_ 0.827817 0.88147 0.0155682 0.02923
C_ C_ 0.846121 0.888015 0.574526 0.69207
C_ C_ 0.855551 0.885578 0.822714 0.69661
C_ C_ 0.812069 0.93038 0.691445 0.18167
C_ C_ 0.768759 0.955584 0.712257 -0.15533
C_ C_ 0.778856 -0.005682999999999994 0.748352 0.02923
C_ C_ 0.831779 0.5137 0.752381 -0.15533
C_ C_ 0.866088 0.988852 0.730597 0.18167
C_ C_ 0.984554 0.848384 0.705118 0.18167
C_ C_ 0.512387 0.807027 0.738891 -0.15533
C_ C_ 0.981629 0.759209 0.720679 0.02923
C_ C_ 0.929591 0.765019 0.703843 -0.15533
C_ C_ 0.903429 0.811878 0.687978 0.18167
C_ C_ 0.989163 0.951117 0.625472 0.69207
C_ C_ 0.521168 0.495794 0.613663 0.02923
C_ C_ 0.504675 0.548051 0.624263 -0.15533
C_ C_ 0.537665 0.583359 0.616553 -0.15533
C_ C_ 0.588587 0.572279 0.603327 0.02923
C_ C_ 0.600945 0.521405 0.590906 -0.15533
C_ C_ 0.572536 0.482366 0.601346 0.02923
C_ C_ 0.592704 0.929154 0.613919 0.69207
C_ C_ 0.609326 0.666312 0.61215 0.69661
C_ C_ 0.935025 0.671796 0.942473 0.18167
C_ C_ 0.977094 0.689936 0.971564 -0.15533
C_ C_ 0.969228 0.734648 1.00426654 0.02923
C_ C_ 0.918704 0.75799 0.513798 -0.15533
C_ C_ 0.87721 0.726307 0.990828 0.18167
C_ C_ 0.75615 0.697011 0.856891 0.18167
C_ C_ 0.732359 0.722601 0.814178 -0.15533
C_ C_ 0.761497 0.73889 0.779491 0.02923
C_ C_ 0.811415 0.720483 0.781277 -0.15533
C_ C_ 0.83582 0.697892 0.825699 0.18167
C_ C_ 0.761695 0.61565 0.956144 0.69207
C_ C_ 0.730542 0.615013 0.493472 0.02923
C_ C_ 0.748394 0.619959 0.545033 -0.15533
C_ C_ 0.719683 0.60783 0.582148 -0.15533
C_ C_ 0.665834 0.603033 0.571609 0.02923
C_ C_ 0.647044 0.601186 0.518075 -0.15533
C_ C_ 0.678873 0.60704 0.479581 0.02923
C_ C_ 0.650323 0.608791 0.926848 0.69207
C_ C_ 0.659021 0.601687 0.66804 0.69661
C_ C_ 0.87662 0.881202 0.881309 -0.30787
C_ C_ 0.630155 0.609833 0.6148 -0.30787
N_ N_ 0.646925 0.551081 0.809408 -0.32189
N_ N_ 0.559604 0.638734 0.818675 -0.32189
N_ N_ 0.600297 0.814172 0.56741 -0.32189
N_ N_ 0.697481 0.819956 0.649859 -0.32189
N_ N_ 0.858474 0.947373 0.69953 -0.32189
N_ N_ 0.934679 0.850226 0.683748 -0.32189
N_ N_ 0.885635 0.690132 0.953633 -0.32189
N_ N_ 0.808554 0.688756 0.863255 -0.32189
O_ O_ 1.00625452 0.583498 0.905186 -0.63271
O_ O_ 0.545713 0.533211 0.836051 -0.57982
O_ O_ 0.886655 0.591267 0.84626 -0.63271
O_ O_ 0.873715 0.585664 0.929528 -0.57982
O_ O_ 0.737949 0.895813 0.593722 -0.63271
O_ O_ 0.701937 0.836636 0.541615 -0.57982
O_ O_ 0.851789 0.844155 0.594576 -0.63271
O_ O_ 0.875845 0.923495 0.596219 -0.57982
O_ O_ 0.483793 0.909796 0.595821 -0.63271
O_ O_ 0.954984 0.958053 0.659814 -0.57982
O_ O_ 0.580374 0.90173 0.649955 -0.63271
O_ O_ 0.63451 0.914413 0.589895 -0.57982
O_ O_ 0.770255 0.583728 0.918714 -0.63271
O_ O_ 0.788975 0.654498 0.962814 -0.57982
O_ O_ 0.653234 0.64638 0.897042 -0.63271
O_ O_ 0.614171 0.57985 0.912246 -0.57982
F_ F_ 0.941592 0.818462 0.925689 -0.20885
F_ F_ 0.926378 0.811606 0.837997 -0.20885
F_ F_ 0.869775 0.788527 0.884791 -0.20885
F_ F_ 0.817357 0.925439 0.821052 -0.20885
F_ F_ 0.831194 0.840168 0.806363 -0.20885
F_ F_ 0.89363 0.892671 0.789799 -0.20885
F_ F_ 0.571487 0.672061 0.572143 -0.20885
F_ F_ 0.592077 0.684122 0.65823 -0.20885
F_ F_ 0.644158 0.698865 0.605858 -0.20885
F_ F_ 0.685215 0.553149 0.670607 -0.20885
F_ F_ 0.695207 0.637764 0.685157 -0.20885
F_ F_ 0.623709 0.603882 0.703759 -0.20885
_cell_length_a 26.508
_cell_length_b 26.37200000322088
_cell_length_c 26.311999743092066
_cell_angle_alpha 93.74100058972084
_cell_angle_beta 96.04100104955006
_cell_angle_gamma 83.6869992558723
_symmetry_space_group_name_H-M         'P 1'
_symmetry_Int_Tables_number            1
loop_
_symmetry_equiv_pos_as_xyz
   'x, y, z'
                         
loop_
_atom_site_label
_atom_site_type_symbol
_atom_site_fract_x 
_atom_site_fract_y
_atom_site_fract_z
_atom_site_charge
Zn Zn 0.0848019 0.0925046 0.342855 0.83971
Zn Zn 0.154714 0.347502 0.0831924 0.83971
Zn Zn 0.408541 0.415004 0.154633 0.83971
Zn Zn 0.340174 0.15787 0.419768 0.83971
H_ H_ 0.181375 0.133674 0.31398 0.10394
H_ H_ 0.255782 0.0912431 0.26895 0.10394
H_ H_ 0.203664 0.447605 0.290906 0.10394
H_ H_ 0.118357 0.992237 0.309722 0.10394
H_ H_ 0.53161 0.0928809 0.251079 0.10394
H_ H_ 0.490057 0.162157 0.1994 0.10394
H_ H_ 0.0280383 0.277611 0.332101 0.10394
H_ H_ 0.0716354 0.204187 0.371992 0.10394
H_ H_ 0.0300829 0.453621 0.354728 0.10394
H_ H_ 0.480137 0.373647 0.377045 0.10394
H_ H_ 0.348722 0.487609 0.397402 0.10394
H_ H_ 0.0727584 0.313867 0.131396 0.10394
H_ H_ 0.505641 0.267566 0.0909401 0.10394
H_ H_ 0.0409101 0.282134 0.445207 0.10394
H_ H_ 0.120179 0.312189 0.983644 0.10394
H_ H_ 0.206463 0.24708 0.0990057 0.10394
H_ H_ 0.267761 0.215079 0.172243 0.10394
H_ H_ 0.186001 0.322072 0.272173 0.10394
H_ H_ 0.16025 0.376077 0.194197 0.10394
H_ H_ 0.217695 0.36119 0.440536 0.10394
H_ H_ 0.275905 0.357792 0.372488 0.10394
H_ H_ 0.390645 0.410042 0.487143 0.10394
H_ H_ 0.307724 0.393438 0.163606 0.10394
H_ H_ 0.234343 0.440932 0.198191 0.10394
H_ H_ 0.334714 0.0365081 0.284938 0.10394
H_ H_ 0.40155 0.50676 0.235892 0.10394
H_ H_ 0.00904311 0.395564 0.203166 0.10394
H_ H_ 0.0495836 0.319864 0.245584 0.10394
H_ H_ 0.402897 0.24194 0.219275 0.10394
H_ H_ 0.368534 0.329683 0.201176 0.10394
H_ H_ 0.46112 0.056769 0.115364 0.10394
H_ H_ 0.0200056 0.119791 0.127658 0.10394
H_ H_ 0.140395 0.00382087 0.0866871 0.10394
H_ H_ 0.450348 0.165415 0.398204 0.10394
H_ H_ 0.0154438 0.203048 0.439017 0.10394
H_ H_ 0.417749 0.27778 0.0394371 0.10394
H_ H_ 0.35055 0.225727 0.511419 0.10394
H_ H_ 0.227713 0.193696 0.386979 0.10394
H_ H_ 0.185616 0.242491 0.316382 0.10394
H_ H_ 0.327334 0.215497 0.246501 0.10394
H_ H_ 0.371286 0.175586 0.324371 0.10394
H_ H_ 0.283058 0.136554 0.0577273 0.10394
H_ H_ 0.234508 0.106862 0.121109 0.10394
H_ H_ 0.114425 0.0752351 0.00599114 0.10394
C_ C_ 0.1823 0.0937381 0.30389 0.18167
C_ C_ 0.224804 0.0690092 0.280046 -0.15533
C_ C_ 0.229507 0.0171468 0.269521 0.02923
C_ C_ 0.196812 0.487827 0.29345 -0.15533
C_ C_ 0.148646 0.0144038 0.30208 0.18167
C_ C_ 0.0260281 0.144304 0.26236 0.18167
C_ C_ 0.503445 0.169454 0.238025 -0.15533
C_ C_ -0.0013020000000000254 0.237727 0.261 0.02923
C_ C_ 0.027448 0.240924 0.310162 -0.15533
C_ C_ 0.0524842 0.197192 0.333675 0.18167
C_ C_ 0.00680638 0.0504527 0.374027 0.69207
C_ C_ 0.471755 0.502714 0.373626 0.02923
C_ C_ 0.490848 0.451968 0.369434 -0.15533
C_ C_ 0.460387 0.413999 0.375143 -0.15533
C_ C_ 0.408203 0.424607 0.387051 0.02923
C_ C_ 0.389704 0.476384 0.393347 -0.15533
C_ C_ 0.420127 0.51608 0.382849 0.02923
C_ C_ 0.399688 0.0709787 0.390152 0.69207
C_ C_ 0.400202 0.326477 0.389192 0.69661
C_ C_ 0.065749 0.29981 0.0925034 0.18167
C_ C_ 0.0240348 0.275434 0.0738074 -0.15533
C_ C_ 0.015517 0.261077 0.0223128 0.02923
C_ C_ 0.0477951 0.289495 0.486468 -0.15533
C_ C_ 0.0943451 0.297772 0.00950612 0.18167
C_ C_ 0.211482 0.267255 0.137279 0.18167
C_ C_ 0.237447 0.24384 0.178997 -0.15533
C_ C_ 0.227553 0.261982 0.22888 0.02923
C_ C_ 0.195634 0.308202 0.235219 -0.15533
C_ C_ 0.176172 0.336032 0.191333 0.18167
C_ C_ 0.239095 0.36434 0.0468162 0.69207
C_ C_ 0.272434 0.380208 0.504268 0.02923
C_ C_ 0.255555 0.372899 0.451506 -0.15533
C_ C_ 0.286099 0.374827 0.411005 -0.15533
C_ C_ 0.334656 0.390371 0.422712 0.02923
C_ C_ 0.350602 0.403729 0.475144 -0.15533
C_ C_ 0.322442 0.394211 0.515307 0.02923
C_ C_ 0.349168 0.383657 0.0759258 0.69207
C_ C_ 0.354631 0.379046 0.325732 0.69661
C_ C_ 0.312219 0.429135 0.186688 0.18167
C_ C_ 0.269345 0.45556 0.207103 -0.15533
C_ C_ 0.276125 0.494391 0.247431 0.02923
C_ C_ 0.325477 0.0068488 0.255405 -0.15533
C_ C_ 0.365591 0.489873 0.227989 0.18167
C_ C_ 0.485645 0.349579 0.206091 0.18167
C_ C_ 0.00742865 0.322106 0.232227 -0.15533
C_ C_ 0.481405 0.260091 0.224191 0.02923
C_ C_ 0.428623 0.269064 0.211658 -0.15533
C_ C_ 0.405848 0.315984 0.1946 0.18167
C_ C_ 0.48866 0.448335 0.126775 0.69207
C_ C_ 0.0239058 0.992213 0.12783 0.02923
C_ C_ 0.00772051 0.0442413 0.133489 -0.15533
C_ C_ 0.0351088 0.0807655 0.116431 -0.15533
C_ C_ 0.0861442 0.0683932 0.106496 0.02923
C_ C_ 0.104192 0.0163611 0.103638 -0.15533
C_ C_ 0.0743014 0.978046 0.115359 0.02923
C_ C_ 0.085998 0.426094 0.0972713 0.69207
C_ C_ 0.0980501 0.163958 0.103802 0.69661
C_ C_ 0.441543 0.188268 0.431532 0.18167
C_ C_ 0.48157 0.208732 0.458306 -0.15533
C_ C_ 0.474296 0.247603 0.496229 0.02923
C_ C_ 0.427107 0.245211 0.011053 -0.15533
C_ C_ 0.38776 0.224344 0.49385 0.18167
C_ C_ 0.249698 0.199847 0.356281 0.18167
C_ C_ 0.224309 0.22238 0.312485 -0.15533
C_ C_ 0.253634 0.235397 0.275832 0.02923
C_ C_ 0.306975 0.218288 0.279216 -0.15533
C_ C_ 0.330377 0.193133 0.322229 0.18167
C_ C_ 0.26746 0.117064 0.451626 0.69207
C_ C_ 0.224023 0.124841 0.994057 0.02923
C_ C_ 0.24308 0.124654 0.0456907 -0.15533
C_ C_ 0.216319 0.108896 0.0814255 -0.15533
C_ C_ 0.164015 0.101718 0.0696342 0.02923
C_ C_ 0.145531 0.0965607 0.0173997 -0.15533
C_ C_ 0.173336 0.111039 0.979926 0.02923
C_ C_ 0.153672 0.107167 0.424039 0.69207
C_ C_ 0.149016 0.107206 0.164824 0.69661
C_ C_ 0.374424 0.380875 0.382559 -0.30787
C_ C_ 0.124265 0.109537 0.109499 -0.30787
N_ N_ 0.141479 0.0657876 0.307561 -0.32189
N_ N_ 0.0477503 0.14869 0.312289 -0.32189
N_ N_ 0.0982406 0.31139 0.0612923 -0.32189
N_ N_ 0.185155 0.315479 0.144127 -0.32189
N_ N_ 0.359055 0.447106 0.193811 -0.32189
N_ N_ 0.436584 0.351557 0.185 -0.32189
N_ N_ 0.395457 0.194527 0.449821 -0.32189
N_ N_ 0.301031 0.188499 0.361463 -0.32189
O_ O_ 0.506511 0.0861039 0.405812 -0.63271
O_ O_ 0.0418049 0.0413408 0.342176 -0.57982
O_ O_ 0.399476 0.0951133 0.348364 -0.63271
O_ O_ 0.373337 0.0940347 0.42593 -0.57982
O_ O_ 0.241269 0.393967 0.0894413 -0.63271
O_ O_ 0.199243 0.338504 0.0359314 -0.57982
O_ O_ 0.350277 0.344446 0.104502 -0.63271
O_ O_ 0.379795 0.417872 0.0909529 -0.57982
O_ O_ 0.98421 0.413702 0.104387 -0.63271
O_ O_ 0.455154 0.459754 0.159524 -0.57982
O_ O_ 0.0864708 0.402336 0.13955 -0.63271
O_ O_ 0.121806 0.410858 0.0695245 -0.57982
O_ O_ 0.26442 0.0969489 0.40496 -0.63271
O_ O_ 0.29904 0.151243 0.466934 -0.57982
O_ O_ 0.148521 0.152091 0.407787 -0.63271
O_ O_ 0.121031 0.0755774 0.40542 -0.57982
F_ F_ 0.42888 0.323688 0.434547 -0.20885
F_ F_ 0.431703 0.307249 0.352687 -0.20885
F_ F_ 0.365385 0.291318 0.385421 -0.20885
F_ F_ 0.315172 0.41629 0.320286 -0.20885
F_ F_ 0.333489 0.333611 0.304816 -0.20885
F_ F_ 0.388038 0.387436 0.290744 -0.20885
F_ F_ 0.0663586 0.16868 0.058342 -0.20885
F_ F_ 0.0727248 0.184713 0.146764 -0.20885
F_ F_ 0.135038 0.197116 0.101081 -0.20885
F_ F_ 0.17933 0.0604469 0.169383 -0.20885
F_ F_ 0.181131 0.147019 0.17718 -0.20885
F_ F_ 0.116085 0.113157 0.201976 -0.20885
Zn Zn 0.0892956 0.0889788 0.846461 0.83971
Zn Zn 0.161653 0.345998 0.582533 0.83971
Zn Zn 0.407243 0.420797 0.648278 0.83971
Zn Zn 0.341873 0.151228 0.915947 0.83971
H_ H_ 0.172063 0.132601 0.811615 0.10394
H_ H_ 0.240832 0.10182 0.758508 0.10394
H_ H_ 0.217752 0.44975 0.790577 0.10394
H_ H_ 0.129882 0.988075 0.825481 0.10394
H_ H_ 0.516867 0.0982926 0.748004 0.10394
H_ H_ 0.473701 0.172592 0.70315 0.10394
H_ H_ 0.0471292 0.281239 0.819758 0.10394
H_ H_ 0.0727775 0.203378 0.870644 0.10394
H_ H_ 0.0326704 0.442482 0.87201 0.10394
H_ H_ 0.480198 0.375709 0.881375 0.10394
H_ H_ 0.364715 0.487776 0.928945 0.10394
H_ H_ 0.0755426 0.320296 0.627381 0.10394
H_ H_ 0.508917 0.275643 0.600594 0.10394
H_ H_ 0.0519912 0.259947 0.949091 0.10394
H_ H_ 0.112429 0.322027 0.477055 0.10394
H_ H_ 0.222265 0.250966 0.591433 0.10394
H_ H_ 0.266203 0.208528 0.657521 0.10394
H_ H_ 0.2132 0.322894 0.768042 0.10394
H_ H_ 0.192792 0.378439 0.689146 0.10394
H_ H_ 0.215268 0.356949 0.94178 0.10394
H_ H_ 0.267696 0.373343 0.875458 0.10394
H_ H_ 0.396601 0.404168 0.988632 0.10394
H_ H_ 0.300781 0.402782 0.658318 0.10394
H_ H_ 0.231672 0.449912 0.696624 0.10394
H_ H_ 0.334709 0.0427523 0.780485 0.10394
H_ H_ 0.400962 0.513491 0.72339 0.10394
H_ H_ 0.0152412 0.394877 0.692361 0.10394
H_ H_ 0.0615105 0.315104 0.726635 0.10394
H_ H_ 0.405447 0.250213 0.714909 0.10394
H_ H_ 0.36834 0.327228 0.675537 0.10394
H_ H_ 0.459681 0.055937 0.63627 0.10394
H_ H_ 0.0233154 0.119741 0.615153 0.10394
H_ H_ 0.144128 -0.000401145 0.590333 0.10394
H_ H_ 0.445819 0.155757 0.893247 0.10394
H_ H_ 0.0181233 0.181884 0.949198 0.10394
H_ H_ 0.423037 0.274923 0.55406 0.10394
H_ H_ 0.347885 0.228756 -0.0016800000000000148 0.10394
H_ H_ 0.232831 0.189576 0.875371 0.10394
H_ H_ 0.189391 0.21806 0.795219 0.10394
H_ H_ 0.335277 0.234777 0.747226 0.10394
H_ H_ 0.377328 0.192658 0.823918 0.10394
H_ H_ 0.289621 0.117044 0.548547 0.10394
H_ H_ 0.235781 0.111445 0.618052 0.10394
H_ H_ 0.109267 0.080812 0.506846 0.10394
C_ C_ 0.17546 0.0936765 0.79779 0.18167
C_ C_ 0.221372 0.07575 0.777845 -0.15533
C_ C_ 0.234031 0.0212563 0.771825 0.02923
C_ C_ 0.203907 0.488051 0.791914 -0.15533
C_ C_ 0.158327 0.00953406 0.81336 0.18167
C_ C_ 0.0416121 0.14237 0.762763 0.18167
C_ C_ 0.49668 0.179194 0.739129 -0.15533
C_ C_ 0.0202069 0.232599 0.753697 0.02923
C_ C_ 0.0437308 0.240602 0.804506 -0.15533
C_ C_ 0.0592833 0.197695 0.833337 0.18167
C_ C_ 0.00906308 0.0446026 0.87083 0.69207
C_ C_ 0.472723 0.501423 0.870282 0.02923
C_ C_ 0.493056 0.450669 0.870568 -0.15533
C_ C_ 0.4637 0.412981 0.879509 -0.15533
C_ C_ 0.414987 0.425329 0.896165 0.02923
C_ C_ 0.398972 0.476858 0.906348 -0.15533
C_ C_ 0.424486 0.515163 0.889762 0.02923
C_ C_ 0.397883 0.0639704 0.882178 0.69207
C_ C_ 0.397669 0.328702 0.88275 0.69661
C_ C_ 0.0728729 0.300404 0.588889 0.18167
C_ C_ 0.0303127 0.275886 0.571112 -0.15533
C_ C_ 0.0202012 0.267124 0.51925 0.02923
C_ C_ 0.0526283 0.272623 0.990578 -0.15533
C_ C_ 0.0907475 0.308485 0.505248 0.18167
C_ C_ 0.219143 0.268989 0.629533 0.18167
C_ C_ 0.236618 0.237366 0.66911 -0.15533
C_ C_ 0.238326 0.258847 0.719164 0.02923
C_ C_ 0.220253 0.309281 0.728768 -0.15533
C_ C_ 0.199818 0.338103 0.686764 0.18167
C_ C_ 0.239715 0.369925 0.544018 0.69207
C_ C_ 0.27505 0.370013 0.00662188 0.02923
C_ C_ 0.255971 0.365031 0.954072 -0.15533
C_ C_ 0.286434 0.373708 0.915831 -0.15533
C_ C_ 0.336911 0.387744 0.92903 0.02923
C_ C_ 0.356004 0.393707 0.979886 -0.15533
C_ C_ 0.326677 0.382279 0.02142 0.02923
C_ C_ 0.348402 0.390698 0.566023 0.69207
C_ C_ 0.34762 0.395286 0.831806 0.69661
C_ C_ 0.308079 0.435334 0.681707 0.18167
C_ C_ 0.268078 0.46208 0.7058 -0.15533
C_ C_ 0.277562 0.500982 0.742063 0.02923
C_ C_ 0.327489 0.0145642 0.749455 -0.15533
C_ C_ 0.36681 0.49246 0.724017 0.18167
C_ C_ 0.486549 0.359305 0.6983 0.18167
C_ C_ 0.0206558 0.318225 0.717024 -0.15533
C_ C_ 0.483582 0.274139 0.727374 0.02923
C_ C_ 0.431257 0.277388 0.709216 -0.15533
C_ C_ 0.408671 0.321514 0.684121 0.18167
C_ C_ 0.484021 0.458635 0.616457 0.69207
C_ C_ 0.0253157 0.990027 0.617586 0.02923
C_ C_ 0.00677686 0.0426201 0.618334 -0.15533
C_ C_ 0.0394265 0.0791562 0.614073 -0.15533
C_ C_ 0.0909735 0.065746 0.602803 0.02923
C_ C_ 0.107727 0.0136363 0.601861 -0.15533
C_ C_ 0.0766857 0.975049 0.611082 0.02923
C_ C_ 0.101894 0.428511 0.603998 0.69207
C_ C_ 0.105259 0.159194 0.60088 0.69661
C_ C_ 0.441279 0.177687 0.927424 0.18167
C_ C_ 0.481358 0.202812 0.950134 -0.15533
C_ C_ 0.476967 0.237383 0.993417 0.02923
C_ C_ 0.425923 0.254436 0.515309 -0.15533
C_ C_ 0.386888 0.220214 0.986026 0.18167
C_ C_ 0.256195 0.191249 0.84611 0.18167
C_ C_ 0.232298 0.211278 0.801396 -0.15533
C_ C_ 0.260737 0.226881 0.763524 0.02923
C_ C_ 0.313409 0.21883 0.771141 -0.15533
C_ C_ 0.3369 0.194132 0.817114 0.18167
C_ C_ 0.262563 0.12564 0.955411 0.69207
C_ C_ 0.232052 0.10516 0.487233 0.02923
C_ C_ 0.249849 0.110515 0.539236 -0.15533
C_ C_ 0.219286 0.108434 0.578355 -0.15533
C_ C_ 0.169018 0.0955302 0.566191 0.02923
C_ C_ 0.148608 0.0912901 0.515063 -0.15533
C_ C_ 0.179192 0.100324 0.476403 0.02923
C_ C_ 0.146579 0.114197 0.927067 0.69207
C_ C_ 0.152972 0.103388 0.663061 0.69661
C_ C_ 0.375924 0.386102 0.886181 -0.30787
C_ C_ 0.131372 0.104798 0.608914 -0.30787
N_ N_ 0.14626 0.0603573 0.815764 -0.32189
N_ N_ 0.0621071 0.150135 0.811411 -0.32189
N_ N_ 0.108899 0.306676 0.555826 -0.32189
N_ N_ 0.193585 0.315663 0.639007 -0.32189
N_ N_ 0.356573 0.451376 0.690186 -0.32189
N_ N_ 0.437035 0.360787 0.678617 -0.32189
N_ N_ 0.393448 0.189549 0.943589 -0.32189
N_ N_ 0.307108 0.183795 0.855852 -0.32189
O_ O_ 0.506293 0.0904085 0.889785 -0.63271
O_ O_ 0.0457398 0.0373891 0.840126 -0.57982
O_ O_ 0.400781 0.0937391 0.843986 -0.63271
O_ O_ 0.369862 0.0832554 0.91805 -0.57982
O_ O_ 0.239198 0.397441 0.584821 -0.63271
O_ O_ 0.204897 0.339582 0.534395 -0.57982
O_ O_ 0.342104 0.352988 0.593195 -0.63271
O_ O_ 0.384107 0.420241 0.581675 -0.57982
O_ O_ 0.992809 0.413997 0.596629 -0.63271
O_ O_ 0.447577 0.468242 0.648398 -0.57982
O_ O_ 0.105671 0.403165 0.644939 -0.63271
O_ O_ 0.132232 0.412017 0.569276 -0.57982
O_ O_ 0.253993 0.10455 0.908856 -0.63271
O_ O_ 0.301987 0.151871 0.967016 -0.57982
O_ O_ 0.151055 0.154829 0.901543 -0.63271
O_ O_ 0.111879 0.0835819 0.91066 -0.57982
F_ F_ 0.429637 0.318031 0.927535 -0.20885
F_ F_ 0.427587 0.315928 0.842308 -0.20885
F_ F_ 0.364583 0.292063 0.873999 -0.20885
F_ F_ 0.313842 0.439258 0.834266 -0.20885
F_ F_ 0.316768 0.359901 0.813354 -0.20885
F_ F_ 0.381322 0.404183 0.795523 -0.20885
F_ F_ 0.0681998 0.16479 0.56046 -0.20885
F_ F_ 0.0870199 0.182241 0.646447 -0.20885
F_ F_ 0.134157 0.197923 0.592485 -0.20885
F_ F_ 0.186592 0.0615454 0.671817 -0.20885
F_ F_ 0.180885 0.143149 0.678393 -0.20885
F_ F_ 0.119448 0.0975333 0.696403 -0.20885
Zn Zn 0.0895954 0.593427 0.35449 0.83971
Zn Zn 0.158884 0.844602 0.0788993 0.83971
Zn Zn 0.407924 0.916975 0.156412 0.83971
Zn Zn 0.341001 0.651687 0.414831 0.83971
H_ H_ 0.170157 0.632455 0.312436 0.10394
H_ H_ 0.248386 0.594167 0.27336 0.10394
H_ H_ 0.189301 0.946096 0.272355 0.10394
H_ H_ 0.125339 0.487628 0.327689 0.10394
H_ H_ 0.536366 0.608843 0.246674 0.10394
H_ H_ 0.486764 0.682858 0.211927 0.10394
H_ H_ 0.0329264 0.781945 0.347255 0.10394
H_ H_ 0.0675353 0.699974 0.392072 0.10394
H_ H_ 0.0325727 0.95257 0.384199 0.10394
H_ H_ 0.472596 0.879142 0.375849 0.10394
H_ H_ 0.35012 0.994175 0.40607 0.10394
H_ H_ 0.0724344 0.812397 0.130049 0.10394
H_ H_ 0.497473 0.776432 0.0976943 0.10394
H_ H_ 0.0521299 0.763374 0.451408 0.10394
H_ H_ 0.114167 0.81178 0.980411 0.10394
H_ H_ 0.221411 0.744812 0.0958829 0.10394
H_ H_ 0.259438 0.695851 0.170999 0.10394
H_ H_ 0.231198 0.838802 0.258305 0.10394
H_ H_ 0.189655 0.87945 0.18428 0.10394
H_ H_ 0.2237 0.845012 0.447264 0.10394
H_ H_ 0.268557 0.878255 0.383751 0.10394
H_ H_ 0.39636 0.894226 0.491706 0.10394
H_ H_ 0.305959 0.895645 0.156948 0.10394
H_ H_ 0.229906 0.947449 0.194115 0.10394
H_ H_ 0.332261 0.544443 0.281405 0.10394
H_ H_ 0.402811 0.0005800000000000249 0.235198 0.10394
H_ H_ 0.00570602 0.89897 0.214536 0.10394
H_ H_ 0.0466719 0.826706 0.262973 0.10394
H_ H_ 0.421121 0.75712 0.247716 0.10394
H_ H_ 0.377446 0.824687 0.188138 0.10394
H_ H_ 0.458858 0.545995 0.123311 0.10394
H_ H_ 0.0132635 0.620084 0.0964382 0.10394
H_ H_ 0.137431 0.503915 0.0901252 0.10394
H_ H_ 0.437404 0.662144 0.396406 0.10394
H_ H_ 0.0127313 0.682807 0.458566 0.10394
H_ H_ 0.408459 0.785988 0.0364873 0.10394
H_ H_ 0.342526 0.735157 0.503278 0.10394
H_ H_ 0.235796 0.691031 0.375303 0.10394
H_ H_ 0.199714 0.74567 0.297988 0.10394
H_ H_ 0.341034 0.724063 0.243437 0.10394
H_ H_ 0.383967 0.691034 0.331968 0.10394
H_ H_ 0.282728 0.62345 0.0577521 0.10394
H_ H_ 0.230553 0.613012 0.124121 0.10394
H_ H_ 0.0996573 0.604343 0.0103775 0.10394
C_ C_ 0.176738 0.591723 0.302503 0.18167
C_ C_ 0.221811 0.572029 0.283798 -0.15533
C_ C_ 0.229771 0.518441 0.272593 0.02923
C_ C_ 0.18829 0.989629 0.27786 -0.15533
C_ C_ 0.152406 0.511154 0.315328 0.18167
C_ C_ 0.0261605 0.646424 0.279361 0.18167
C_ C_ 0.513803 0.685863 0.246175 -0.15533
C_ C_ 0.0119615 0.739683 0.276867 0.02923
C_ C_ 0.0323147 0.743428 0.328877 -0.15533
C_ C_ 0.0521887 0.697828 0.352257 0.18167
C_ C_ 0.0108414 0.551735 0.379649 0.69207
C_ C_ 0.473346 0.00347712 0.38658 0.02923
C_ C_ 0.492729 0.952584 0.383784 -0.15533
C_ C_ 0.45952 0.915597 0.384881 -0.15533
C_ C_ 0.407019 0.928464 0.39711 0.02923
C_ C_ 0.389189 0.981807 0.401766 -0.15533
C_ C_ 0.423478 0.0176134 0.394927 0.02923
C_ C_ 0.398205 0.569499 0.384255 0.69207
C_ C_ 0.391344 0.830597 0.384954 0.69661
C_ C_ 0.0638891 0.805069 0.0913751 0.18167
C_ C_ 0.0201049 0.781075 0.0742442 -0.15533
C_ C_ 0.0116667 0.76574 0.0227671 0.02923
C_ C_ 0.0505465 0.779739 0.489712 -0.15533
C_ C_ 0.089408 0.799735 0.00698914 0.18167
C_ C_ 0.219007 0.763447 0.131773 0.18167
C_ C_ 0.245385 0.739519 0.174253 -0.15533
C_ C_ 0.247927 0.767089 0.222184 0.02923
C_ C_ 0.226023 0.817331 0.225271 -0.15533
C_ C_ 0.198987 0.838882 0.183586 0.18167
C_ C_ 0.24868 0.860665 0.0398358 0.69207
C_ C_ 0.277522 0.86731 0.510817 0.02923
C_ C_ 0.257225 0.863794 0.460033 -0.15533
C_ C_ 0.284755 0.878905 0.421842 -0.15533
C_ C_ 0.3343 0.891907 0.43221 0.02923
C_ C_ 0.356471 0.889498 0.481978 -0.15533
C_ C_ 0.328305 0.879052 0.522239 0.02923
C_ C_ 0.356008 0.881303 0.0684241 0.69207
C_ C_ 0.341753 0.896675 0.334458 0.69661
C_ C_ 0.311045 0.925495 0.185779 0.18167
C_ C_ 0.267975 0.953326 0.207514 -0.15533
C_ C_ 0.275681 0.992249 0.243679 0.02923
C_ C_ 0.324971 0.511489 0.255909 -0.15533
C_ C_ 0.365942 0.982441 0.229097 0.18167
C_ C_ 0.494149 0.859928 0.208258 0.18167
C_ C_ 0.00995655 0.826135 0.244421 -0.15533
C_ C_ 0.495956 0.781622 0.247113 0.02923
C_ C_ 0.442847 0.785211 0.233687 -0.15533
C_ C_ 0.417624 0.823182 0.202389 0.18167
C_ C_ 0.484397 0.950847 0.121192 0.69207
C_ C_ 0.0158012 0.496733 0.115248 0.02923
C_ C_ -0.0028439999999999577 0.547577 0.11505 -0.15533
C_ C_ 0.0297027 0.582701 0.102625 -0.15533
C_ C_ 0.0828145 0.569606 0.0999651 0.02923
C_ C_ 0.098675 0.517307 0.0969838 -0.15533
C_ C_ 0.0657592 0.481234 0.102049 0.02923
C_ C_ 0.0986349 0.92476 0.113859 0.69207
C_ C_ 0.10094 0.662815 0.115759 0.69661
C_ C_ 0.435107 0.684347 0.434312 0.18167
C_ C_ 0.476778 0.703824 0.457734 -0.15533
C_ C_ 0.470532 0.741486 0.49871 0.02923
C_ C_ 0.418655 0.753726 0.0114846 -0.15533
C_ C_ 0.381294 0.725102 0.492317 0.18167
C_ C_ 0.260039 0.704027 0.350428 0.18167
C_ C_ 0.238665 0.73034 0.305943 -0.15533
C_ C_ 0.269991 0.742329 0.270796 0.02923
C_ C_ 0.321349 0.72413 0.277601 -0.15533
C_ C_ 0.343984 0.699165 0.323868 0.18167
C_ C_ 0.269372 0.618529 0.454478 0.69207
C_ C_ 0.224836 0.617116 0.995347 0.02923
C_ C_ 0.244812 0.615375 0.0473111 -0.15533
C_ C_ 0.213329 0.614367 0.0847925 -0.15533
C_ C_ 0.161219 0.603619 0.0718971 0.02923
C_ C_ 0.1426 0.600549 0.0206518 -0.15533
C_ C_ 0.174016 0.604216 0.981911 0.02923
C_ C_ 0.159349 0.60852 0.43059 0.69207
C_ C_ 0.150172 0.598651 0.16631 0.69661
C_ C_ 0.371057 0.887805 0.388544 -0.30787
C_ C_ 0.124125 0.607718 0.112532 -0.30787
N_ N_ 0.139931 0.561702 0.310691 -0.32189
N_ N_ 0.05338 0.650323 0.325187 -0.32189
N_ N_ 0.0973313 0.8141 0.0576621 -0.32189
N_ N_ 0.198102 0.812408 0.136728 -0.32189
N_ N_ 0.357782 0.940975 0.197228 -0.32189
N_ N_ 0.443859 0.861055 0.192034 -0.32189
N_ N_ 0.387731 0.693386 0.451415 -0.32189
N_ N_ 0.310386 0.684796 0.355896 -0.32189
O_ O_ 0.507765 0.58299 0.405081 -0.63271
O_ O_ 0.0475509 0.542363 0.350689 -0.57982
O_ O_ 0.401885 0.596133 0.346327 -0.63271
O_ O_ 0.372128 0.588861 0.420887 -0.57982
O_ O_ 0.255386 0.8794 0.0858297 -0.63271
O_ O_ 0.205267 0.841422 0.0284549 -0.57982
O_ O_ 0.360061 0.839807 0.09646 -0.63271
O_ O_ 0.377292 0.920686 0.0917031 -0.57982
O_ O_ 0.992942 0.911335 0.112229 -0.63271
O_ O_ 0.455606 0.96103 0.158374 -0.57982
O_ O_ 0.101973 0.897803 0.153164 -0.63271
O_ O_ 0.130646 0.910066 0.0812786 -0.57982
O_ O_ 0.263091 0.589702 0.412164 -0.63271
O_ O_ 0.29341 0.65759 0.455093 -0.57982
O_ O_ 0.163651 0.647455 0.404415 -0.63271
O_ O_ 0.116116 0.587425 0.419966 -0.57982
F_ F_ 0.427212 0.815738 0.423828 -0.20885
F_ F_ 0.410569 0.812263 0.341124 -0.20885
F_ F_ 0.355561 0.797184 0.391151 -0.20885
F_ F_ 0.304826 0.938955 0.337853 -0.20885
F_ F_ 0.31987 0.853293 0.312926 -0.20885
F_ F_ 0.377419 0.904398 0.302679 -0.20885
F_ F_ 0.0737113 0.677137 0.0706777 -0.20885
F_ F_ 0.0713752 0.673897 0.154703 -0.20885
F_ F_ 0.139416 0.692172 0.12408 -0.20885
F_ F_ 0.189086 0.559155 0.171597 -0.20885
F_ F_ 0.178257 0.634342 0.188217 -0.20885
F_ F_ 0.116904 0.589344 0.199299 -0.20885
Zn Zn 0.0870667 0.579826 0.848182 0.83971
Zn Zn 0.162516 0.84265 0.582964 0.83971
Zn Zn 0.410007 0.90992 0.659509 0.83971
Zn Zn 0.338425 0.648678 0.915861 0.83971
H_ H_ 0.167545 0.6328 0.809015 0.10394
H_ H_ 0.247471 0.601173 0.775217 0.10394
H_ H_ 0.216936 0.947039 0.793037 0.10394
H_ H_ 0.131938 0.478017 0.816658 0.10394
H_ H_ 0.537903 0.594782 0.749469 0.10394
H_ H_ 0.492385 0.663428 0.706001 0.10394
H_ H_ 0.0198802 0.764762 0.820302 0.10394
H_ H_ 0.0638175 0.687307 0.870292 0.10394
H_ H_ 0.0326233 0.945708 0.862539 0.10394
H_ H_ 0.495486 0.875635 0.877292 0.10394
H_ H_ 0.363032 0.981137 0.905265 0.10394
H_ H_ 0.0812134 0.801438 0.635292 0.10394
H_ H_ 0.497061 0.759919 0.597383 0.10394
H_ H_ 0.0383436 0.7738 0.946172 0.10394
H_ H_ 0.119363 0.808275 0.479851 0.10394
H_ H_ 0.22116 0.74563 0.602726 0.10394
H_ H_ 0.251409 0.703999 0.68068 0.10394
H_ H_ 0.227591 0.848617 0.769279 0.10394
H_ H_ 0.186753 0.887828 0.690938 0.10394
H_ H_ 0.221855 0.871783 0.937552 0.10394
H_ H_ 0.274466 0.873342 0.871706 0.10394
H_ H_ 0.404481 0.894417 0.983403 0.10394
H_ H_ 0.308614 0.892249 0.671123 0.10394
H_ H_ 0.233286 0.946401 0.696385 0.10394
H_ H_ 0.333636 0.547938 0.778045 0.10394
H_ H_ 0.40626 -0.0012370000000000436 0.737237 0.10394
H_ H_ 0.0102498 0.87402 0.694142 0.10394
H_ H_ 0.0493692 0.798255 0.736828 0.10394
H_ H_ 0.409701 0.743133 0.732284 0.10394
H_ H_ 0.372844 0.822179 0.685764 0.10394
H_ H_ 0.468326 0.561697 0.638128 0.10394
H_ H_ 0.0186249 0.625345 0.595216 0.10394
H_ H_ 0.144521 0.508463 0.584085 0.10394
H_ H_ 0.445178 0.65714 0.902939 0.10394
H_ H_ 0.0150773 0.677626 0.960754 0.10394
H_ H_ 0.41095 0.784456 0.538928 0.10394
H_ H_ 0.340992 0.748011 -0.013344000000000023 0.10394
H_ H_ 0.245233 0.708996 0.894298 0.10394
H_ H_ 0.203353 0.763448 0.827075 0.10394
H_ H_ 0.334866 0.717982 0.745408 0.10394
H_ H_ 0.376784 0.67629 0.821424 0.10394
H_ H_ 0.297674 0.618728 0.557214 0.10394
H_ H_ 0.239976 0.625285 0.625839 0.10394
H_ H_ 0.115567 0.596193 0.51343 0.10394
C_ C_ 0.178718 0.592686 0.8056 0.18167
C_ C_ 0.222362 0.574344 0.78217 -0.15533
C_ C_ 0.236412 0.522408 0.776134 0.02923
C_ C_ 0.204003 0.988507 0.793782 -0.15533
C_ C_ 0.159203 0.507104 0.809287 0.18167
C_ C_ 0.0264706 0.624119 0.762644 0.18167
C_ C_ 0.513915 0.673812 0.742212 -0.15533
C_ C_ 0.00556437 0.716081 0.751168 0.02923
C_ C_ 0.0270468 0.725416 0.801607 -0.15533
C_ C_ 0.0472308 0.683837 0.833321 0.18167
C_ C_ 0.00508142 0.543097 0.874751 0.69207
C_ C_ 0.478843 0.00616557 0.872358 0.02923
C_ C_ 0.501725 0.955447 0.872293 -0.15533
C_ C_ 0.473347 0.914257 0.875218 -0.15533
C_ C_ 0.42133 0.921897 0.887732 0.02923
C_ C_ 0.401146 0.972765 0.892719 -0.15533
C_ C_ 0.428392 0.013811 0.885704 0.02923
C_ C_ 0.39733 0.567131 0.886419 0.69207
C_ C_ 0.412617 0.825544 0.879584 0.69661
C_ C_ 0.0733953 0.798401 0.59442 0.18167
C_ C_ 0.0256756 0.780734 0.575412 -0.15533
C_ C_ 0.0142867 0.76684 0.523757 0.02923
C_ C_ 0.0465006 0.776621 0.988334 -0.15533
C_ C_ 0.095184 0.797638 0.510008 0.18167
C_ C_ 0.220393 0.767457 0.64192 0.18167
C_ C_ 0.237199 0.743914 0.68632 -0.15533
C_ C_ 0.237566 0.770798 0.733902 0.02923
C_ C_ 0.220404 0.82296 0.733351 -0.15533
C_ C_ 0.205092 0.847733 0.688704 0.18167
C_ C_ 0.245492 0.860531 0.550439 0.69207
C_ C_ 0.282086 0.871715 0.0012700000000001044 0.02923
C_ C_ 0.261591 0.873455 0.948658 -0.15533
C_ C_ 0.292302 0.878068 0.910303 -0.15533
C_ C_ 0.34485 0.88085 0.921462 0.02923
C_ C_ 0.365186 0.88452 0.972828 -0.15533
C_ C_ 0.333417 0.88163 0.0157368 0.02923
C_ C_ 0.354465 0.877424 0.573403 0.69207
C_ C_ 0.357032 0.883454 0.82281 0.69661
C_ C_ 0.312466 0.92989 0.688445 0.18167
C_ C_ 0.270524 0.955866 0.710147 -0.15533
C_ C_ 0.278047 0.998858 0.74043 0.02923
C_ C_ 0.327472 0.515323 0.750837 -0.15533
C_ C_ 0.368333 0.988972 0.725932 0.18167
C_ C_ 0.490491 0.85047 0.713815 0.18167
C_ C_ 0.00739391 0.803254 0.728499 -0.15533
C_ C_ 0.48436 0.766445 0.741387 0.02923
C_ C_ 0.43387 0.769927 0.720912 -0.15533
C_ C_ 0.412535 0.814513 0.69601 0.18167
C_ C_ 0.47897 0.954266 0.620012 0.69207
C_ C_ 0.0246925 0.496935 0.612519 0.02923
C_ C_ 1.00398191 0.547195 0.611377 -0.15533
C_ C_ 0.0370064 0.586814 0.604858 -0.15533
C_ C_ 0.0893996 0.573567 0.597988 0.02923
C_ C_ 0.108501 0.521953 0.59758 -0.15533
C_ C_ 0.0768088 0.483401 0.604759 0.02923
C_ C_ 0.101171 0.921886 0.611838 0.69207
C_ C_ 0.106185 0.66886 0.609625 0.69661
C_ C_ 0.439247 0.676143 0.940992 0.18167
C_ C_ 0.48023 0.694228 0.973393 -0.15533
C_ C_ 0.470839 0.737331 0.00528698 0.02923
C_ C_ 0.42062 0.752572 0.515842 -0.15533
C_ C_ 0.379025 0.727306 0.986356 0.18167
C_ C_ 0.261753 0.709472 0.861266 0.18167
C_ C_ 0.239694 0.743545 0.823149 -0.15533
C_ C_ 0.264036 0.745532 0.779757 0.02923
C_ C_ 0.314074 0.71941 0.77832 -0.15533
C_ C_ 0.336628 0.694361 0.8208 0.18167
C_ C_ 0.25821 0.622014 0.956374 0.69207
C_ C_ 0.236256 0.613466 0.494627 0.02923
C_ C_ 0.257049 0.612971 0.546712 -0.15533
C_ C_ 0.223852 0.617142 0.586071 -0.15533
C_ C_ 0.1728 0.608721 0.57444 0.02923
C_ C_ 0.154863 0.603555 0.522375 -0.15533
C_ C_ 0.182414 0.610236 0.483749 0.02923
C_ C_ 0.148853 0.607167 0.92888 0.69207
C_ C_ 0.152869 0.608877 0.667657 0.69661
C_ C_ 0.381808 0.878892 0.878298 -0.30787
C_ C_ 0.1302 0.613708 0.611937 -0.30787
N_ N_ 0.146293 0.558852 0.814162 -0.32189
N_ N_ 0.0512741 0.63416 0.810983 -0.32189
N_ N_ 0.106442 0.805581 0.561046 -0.32189
N_ N_ 0.198767 0.817632 0.644103 -0.32189
N_ N_ 0.361324 0.943845 0.699665 -0.32189
N_ N_ 0.443469 0.850684 0.68987 -0.32189
N_ N_ 0.390383 0.690741 0.950764 -0.32189
N_ N_ 0.309511 0.68681 0.859479 -0.32189
O_ O_ 0.509266 0.584739 0.893365 -0.63271
O_ O_ 0.0354849 0.536378 0.839576 -0.57982
O_ O_ 0.39991 0.594186 0.846574 -0.63271
O_ O_ 0.367227 0.58341 0.919212 -0.57982
O_ O_ 0.241402 0.892053 0.591571 -0.63271
O_ O_ 0.209676 0.829579 0.539622 -0.57982
O_ O_ 0.357581 0.834344 0.598317 -0.63271
O_ O_ 0.372495 0.917869 0.596541 -0.57982
O_ O_ 0.987305 0.909501 0.597759 -0.63271
O_ O_ 0.457742 0.956363 0.663056 -0.57982
O_ O_ 0.0965114 0.89272 0.651296 -0.63271
O_ O_ 0.13578 0.909619 0.580677 -0.57982
O_ O_ 0.254566 0.593178 0.913214 -0.63271
O_ O_ 0.293632 0.653218 0.964197 -0.57982
O_ O_ 0.149743 0.647181 0.902633 -0.63271
O_ O_ 0.118048 0.574044 0.91006 -0.57982
F_ F_ 0.448574 0.822715 0.922665 -0.20885
F_ F_ 0.438714 0.816993 0.835908 -0.20885
F_ F_ 0.383399 0.788442 0.882694 -0.20885
F_ F_ 0.320583 0.928429 0.826677 -0.20885
F_ F_ 0.333463 0.841045 0.807898 -0.20885
F_ F_ 0.393479 0.890534 0.788602 -0.20885
F_ F_ 0.0811423 0.674278 0.560928 -0.20885
F_ F_ 0.0711916 0.679481 0.643678 -0.20885
F_ F_ 0.13824 0.706399 0.617598 -0.20885
F_ F_ 0.188192 0.566211 0.668974 -0.20885
F_ F_ 0.176865 0.651794 0.68748 -0.20885
F_ F_ 0.116428 0.602041 0.699086 -0.20885
Zn Zn 0.583364 0.0862911 0.352029 0.83971
Zn Zn 0.660336 0.349637 0.0784135 0.83971
Zn Zn 0.905687 0.423669 0.148203 0.83971
Zn Zn 0.837044 0.161976 0.416439 0.83971
H_ H_ 0.669891 0.132115 0.31062 0.10394
H_ H_ 0.750539 0.0965796 0.274082 0.10394
H_ H_ 0.702313 0.449431 0.279232 0.10394
H_ H_ 0.622648 0.984029 0.318385 0.10394
H_ H_ 0.0258482 0.105729 0.245043 0.10394
H_ H_ 0.981372 0.182113 0.198273 0.10394
H_ H_ 0.52454 0.265221 0.3263 0.10394
H_ H_ 0.561374 0.190973 0.375516 0.10394
H_ H_ 0.528729 0.441062 0.35983 0.10394
H_ H_ 0.979823 0.385136 0.349764 0.10394
H_ H_ 0.853039 0.484993 0.397648 0.10394
H_ H_ 0.582803 0.306043 0.123617 0.10394
H_ H_ 0.996154 0.265454 0.0985088 0.10394
H_ H_ 0.543042 0.289697 0.443809 0.10394
H_ H_ 0.622789 0.313079 0.975232 0.10394
H_ H_ 0.714185 0.247682 0.0925031 0.10394
H_ H_ 0.754243 0.199364 0.168383 0.10394
H_ H_ 0.707717 0.335886 0.261827 0.10394
H_ H_ 0.67232 0.377066 0.184878 0.10394
H_ H_ 0.725022 0.351746 0.439039 0.10394
H_ H_ 0.772353 0.383917 0.372752 0.10394
H_ H_ 0.902247 0.395184 0.483558 0.10394
H_ H_ 0.802945 0.410303 0.149209 0.10394
H_ H_ 0.728994 0.453384 0.192509 0.10394
H_ H_ 0.826079 0.0409384 0.284002 0.10394
H_ H_ 0.897828 0.51829 0.224578 0.10394
H_ H_ 0.507094 0.384329 0.209729 0.10394
H_ H_ 0.551088 0.29763 0.232845 0.10394
H_ H_ 0.905559 0.256105 0.207005 0.10394
H_ H_ 0.862918 0.341564 0.190264 0.10394
H_ H_ 0.97085 0.0594121 0.143752 0.10394
H_ H_ 0.517667 0.117108 0.112948 0.10394
H_ H_ 0.638659 0.00512734 0.0824986 0.10394
H_ H_ 0.944 0.168847 0.391193 0.10394
H_ H_ 0.519666 0.195288 0.450023 0.10394
H_ H_ 0.912393 0.271805 0.0420248 0.10394
H_ H_ 0.84637 0.240015 0.496538 0.10394
H_ H_ 0.729813 0.203007 0.377027 0.10394
H_ H_ 0.691446 0.247698 0.304812 0.10394
H_ H_ 0.838309 0.234278 0.246459 0.10394
H_ H_ 0.877175 0.193203 0.323789 0.10394
H_ H_ 0.784023 0.105176 0.0553536 0.10394
H_ H_ 0.731706 0.115101 0.125264 0.10394
H_ H_ 0.604673 0.095339 0.00844889 0.10394
C_ C_ 0.677033 0.0913613 0.306146 0.18167
C_ C_ 0.722031 0.0717759 0.283465 -0.15533
C_ C_ 0.727732 0.0206394 0.2696 0.02923
C_ C_ 0.701811 0.48957 0.294494 -0.15533
C_ C_ 0.651259 0.00889553 0.308819 0.18167
C_ C_ 0.525316 0.129286 0.268446 0.18167
C_ C_ -0.00012900000000004574 0.186142 0.237594 -0.15533
C_ C_ 0.500403 0.218551 0.259267 0.02923
C_ C_ 0.520626 0.22757 0.309492 -0.15533
C_ C_ 0.541271 0.186123 0.338648 0.18167
C_ C_ 0.509351 0.0411477 0.381783 0.69207
C_ C_ 0.976838 0.50997 0.38242 0.02923
C_ C_ 0.994817 0.459181 0.369211 -0.15533
C_ C_ 0.965357 0.419264 0.369297 -0.15533
C_ C_ 0.915139 0.428097 0.383217 0.02923
C_ C_ 0.89395 0.478549 0.390435 -0.15533
C_ C_ 0.923873 0.520547 0.392015 0.02923
C_ C_ 0.891058 0.073941 0.383241 0.69207
C_ C_ 0.908853 0.330673 0.37481 0.69661
C_ C_ 0.572284 0.300653 0.0837237 0.18167
C_ C_ 0.529335 0.277522 0.0647233 -0.15533
C_ C_ 0.518469 0.26725 0.0126112 0.02923
C_ C_ 0.555266 0.289305 0.484878 -0.15533
C_ C_ 0.596032 0.302628 0.00170153 0.18167
C_ C_ 0.721819 0.269456 0.127014 0.18167
C_ C_ 0.740667 0.241796 0.171115 -0.15533
C_ C_ 0.739271 0.268506 0.219714 0.02923
C_ C_ 0.712254 0.316203 0.223304 -0.15533
C_ C_ 0.693853 0.340341 0.179627 0.18167
C_ C_ 0.739899 0.366926 0.0411667 0.69207
C_ C_ 0.781849 0.37224 0.50258 0.02923
C_ C_ 0.763024 0.362577 0.449564 -0.15533
C_ C_ 0.790613 0.376547 0.409358 -0.15533
C_ C_ 0.843541 0.388711 0.420276 0.02923
C_ C_ 0.863901 0.389343 0.471727 -0.15533
C_ C_ 0.833412 0.385686 0.511884 0.02923
C_ C_ 0.852813 0.388679 0.0682054 0.69207
C_ C_ 0.847825 0.388384 0.321831 0.69661
C_ C_ 0.8077 0.443515 0.174514 0.18167
C_ C_ 0.767698 0.466272 0.200164 -0.15533
C_ C_ 0.773497 0.504158 0.239128 0.02923
C_ C_ 0.819801 0.0120324 0.252587 -0.15533
C_ C_ 0.862757 0.498878 0.221726 0.18167
C_ C_ 0.983678 0.36874 0.211097 0.18167
C_ C_ 0.509662 0.302031 0.222572 -0.15533
C_ C_ 0.977954 0.281735 0.230593 0.02923
C_ C_ 0.928125 0.286157 0.209186 -0.15533
C_ C_ 0.903173 0.335752 0.20002 0.18167
C_ C_ 0.978575 0.462187 0.122233 0.69207
C_ C_ 0.520308 0.988702 0.116893 0.02923
C_ C_ 0.501052 0.04273 0.117913 -0.15533
C_ C_ 0.532468 0.0804209 0.110854 -0.15533
C_ C_ 0.583987 0.0672481 0.104372 0.02923
C_ C_ 0.59969 0.0156725 0.0960014 -0.15533
C_ C_ 0.572283 0.976881 0.109383 0.02923
C_ C_ 0.595794 0.426848 0.0999977 0.69207
C_ C_ 0.599704 0.164988 0.114274 0.69661
C_ C_ 0.938666 0.187021 0.42904 0.18167
C_ C_ 0.979844 0.209 0.452878 -0.15533
C_ C_ 0.974148 0.240761 0.497257 0.02923
C_ C_ 0.921544 0.242245 0.0159825 -0.15533
C_ C_ 0.883174 0.236574 0.481614 0.18167
C_ C_ 0.752344 0.206149 0.346787 0.18167
C_ C_ 0.730314 0.229872 0.303507 -0.15533
C_ C_ 0.762436 0.244319 0.268694 0.02923
C_ C_ 0.814266 0.227085 0.275116 -0.15533
C_ C_ 0.8341 0.199598 0.317722 0.18167
C_ C_ 0.757794 0.137099 0.454708 0.69207
C_ C_ 0.725656 0.113402 0.993486 0.02923
C_ C_ 0.744451 0.114203 0.0465293 -0.15533
C_ C_ 0.712416 0.114088 0.0852766 -0.15533
C_ C_ 0.660645 0.106609 0.0718169 0.02923
C_ C_ 0.642691 0.102834 0.019343 -0.15533
C_ C_ 0.673678 0.111089 0.980349 0.02923
C_ C_ 0.647143 0.117255 0.425783 0.69207
C_ C_ 0.652645 0.0981565 0.168556 0.69661
C_ C_ 0.87849 0.384766 0.376623 -0.30787
C_ C_ 0.622508 0.108005 0.112622 -0.30787
N_ N_ 0.643995 0.0596797 0.320255 -0.32189
N_ N_ 0.549045 0.138689 0.315479 -0.32189
N_ N_ 0.605317 0.311901 0.0522027 -0.32189
N_ N_ 0.698056 0.316651 0.132471 -0.32189
N_ N_ 0.854677 0.458136 0.188455 -0.32189
N_ N_ 0.932186 0.373584 0.194984 -0.32189
N_ N_ 0.892117 0.198575 0.445129 -0.32189
N_ N_ 0.804309 0.190786 0.353702 -0.32189
O_ O_ 0.000521128 0.0962119 0.398359 -0.63271
O_ O_ 0.545005 0.0314373 0.351039 -0.57982
O_ O_ 0.895122 0.100401 0.342774 -0.63271
O_ O_ 0.864408 0.0956156 0.419672 -0.57982
O_ O_ 0.741154 0.397297 0.0823873 -0.63271
O_ O_ 0.702531 0.340032 0.0305951 -0.57982
O_ O_ 0.863569 0.349868 0.0980643 -0.63271
O_ O_ 0.875264 0.428436 0.081936 -0.57982
O_ O_ 0.489476 0.402014 0.103767 -0.63271
O_ O_ 0.944805 0.47471 0.15336 -0.57982
O_ O_ 0.591824 0.396629 0.137509 -0.63271
O_ O_ 0.633541 0.415339 0.0723124 -0.57982
O_ O_ 0.751568 0.114637 0.407639 -0.63271
O_ O_ 0.794509 0.165831 0.467577 -0.57982
O_ O_ 0.644039 0.158119 0.400235 -0.63271
O_ O_ 0.611916 0.086017 0.413915 -0.57982
F_ F_ 0.947483 0.325554 0.412162 -0.20885
F_ F_ 0.932731 0.315354 0.329703 -0.20885
F_ F_ 0.87643 0.293282 0.377169 -0.20885
F_ F_ 0.809036 0.426357 0.317338 -0.20885
F_ F_ 0.824333 0.344474 0.304902 -0.20885
F_ F_ 0.879065 0.398676 0.286573 -0.20885
F_ F_ 0.564921 0.172666 0.0731498 -0.20885
F_ F_ 0.56669 0.178866 0.152702 -0.20885
F_ F_ 0.634903 0.199198 0.123063 -0.20885
F_ F_ 0.680719 0.0512084 0.16994 -0.20885
F_ F_ 0.685586 0.134418 0.189069 -0.20885
F_ F_ 0.614584 0.103224 0.201332 -0.20885
Zn Zn 0.587496 0.0887965 0.842141 0.83971
Zn Zn 0.666961 0.353679 0.582424 0.83971
Zn Zn 0.910234 0.420126 0.648819 0.83971
Zn Zn 0.837465 0.152076 0.914844 0.83971
H_ H_ 0.663795 0.136331 0.803951 0.10394
H_ H_ 0.740646 0.101063 0.756757 0.10394
H_ H_ 0.723564 0.443187 0.783946 0.10394
H_ H_ 0.629926 0.991311 0.829461 0.10394
H_ H_ 0.0383517 0.100935 0.748999 0.10394
H_ H_ 1.00331413 0.17331 0.693899 0.10394
H_ H_ 0.530103 0.276321 0.821744 0.10394
H_ H_ 0.574288 0.198875 0.871543 0.10394
H_ H_ 0.532133 0.44105 0.862566 0.10394
H_ H_ 0.984144 0.375634 0.879486 0.10394
H_ H_ 0.847017 0.479108 0.882505 0.10394
H_ H_ 0.588458 0.312688 0.62654 0.10394
H_ H_ 0.00276716 0.270149 0.596601 0.10394
H_ H_ 0.548473 0.272319 0.940827 0.10394
H_ H_ 0.628516 0.318851 0.477249 0.10394
H_ H_ 0.719119 0.252953 0.599923 0.10394
H_ H_ 0.756535 0.206986 0.676562 0.10394
H_ H_ 0.723395 0.342654 0.772068 0.10394
H_ H_ 0.686877 0.388023 0.690859 0.10394
H_ H_ 0.713866 0.37142 0.935745 0.10394
H_ H_ 0.769472 0.375315 0.870496 0.10394
H_ H_ 0.898499 0.401251 0.98593 0.10394
H_ H_ 0.806749 0.409711 0.645757 0.10394
H_ H_ 0.735014 0.453856 0.692146 0.10394
H_ H_ 0.83175 0.0430335 0.78524 0.10394
H_ H_ 0.912085 0.485435 0.742672 0.10394
H_ H_ 0.506232 0.393006 0.695651 0.10394
H_ H_ 0.551744 0.312646 0.732392 0.10394
H_ H_ 0.924299 0.252225 0.730444 0.10394
H_ H_ 0.875872 0.326877 0.682237 0.10394
H_ H_ 0.967603 0.0559798 0.619781 0.10394
H_ H_ 0.516865 0.122713 0.631467 0.10394
H_ H_ 0.641053 0.0101741 0.606174 0.10394
H_ H_ 0.944349 0.15171 0.899002 0.10394
H_ H_ 0.519592 0.19034 0.940951 0.10394
H_ H_ 0.917792 0.287259 0.536949 0.10394
H_ H_ 0.844051 0.231342 -0.004766000000000048 0.10394
H_ H_ 0.730341 0.196928 0.885193 0.10394
H_ H_ 0.695011 0.252002 0.809148 0.10394
H_ H_ 0.836712 0.228007 0.748828 0.10394
H_ H_ 0.874376 0.180004 0.82441 0.10394
H_ H_ 0.783756 0.130095 0.555571 0.10394
H_ H_ 0.730427 0.120261 0.623951 0.10394
H_ H_ 0.599878 0.103025 0.506662 0.10394
C_ C_ 0.675182 0.0950301 0.796586 0.18167
C_ C_ 0.720076 0.0731112 0.776935 -0.15533
C_ C_ 0.734401 0.0201097 0.776275 0.02923
C_ C_ 0.70918 0.482917 0.789454 -0.15533
C_ C_ 0.656092 0.0151304 0.812658 0.18167
C_ C_ 0.519494 0.137439 0.765776 0.18167
C_ C_ 0.0206429 0.181846 0.732894 -0.15533
C_ C_ 0.505912 0.229977 0.757957 0.02923
C_ C_ 0.528247 0.237087 0.806463 -0.15533
C_ C_ 0.55441 0.193589 0.833798 0.18167
C_ C_ 0.511464 0.0475814 0.865411 0.69207
C_ C_ 0.971042 0.503096 0.876996 0.02923
C_ C_ 0.994279 0.452523 0.878979 -0.15533
C_ C_ 0.963642 0.413364 0.881425 -0.15533
C_ C_ 0.912552 0.422159 0.889306 0.02923
C_ C_ 0.888521 0.473424 0.887827 -0.15533
C_ C_ 0.918689 0.513562 0.886111 0.02923
C_ C_ 0.897441 0.0723182 0.883392 0.69207
C_ C_ 0.902793 0.327017 0.885384 0.69661
C_ C_ 0.578864 0.304328 0.587453 0.18167
C_ C_ 0.530929 0.285964 0.570103 -0.15533
C_ C_ 0.520776 0.274316 0.517565 0.02923
C_ C_ 0.552604 0.280446 0.981845 -0.15533
C_ C_ 0.601546 0.307374 0.5034 0.18167
C_ C_ 0.714389 0.270873 0.639215 0.18167
C_ C_ 0.736659 0.245246 0.682404 -0.15533
C_ C_ 0.742405 0.27064 0.730701 0.02923
C_ C_ 0.719311 0.321368 0.734894 -0.15533
C_ C_ 0.698131 0.346462 0.690017 0.18167
C_ C_ 0.747836 0.36671 0.543819 0.69207
C_ C_ 0.775267 0.373455 1.00123953 0.02923
C_ C_ 0.755295 0.374526 0.947822 -0.15533
C_ C_ 0.788149 0.376399 0.907997 -0.15533
C_ C_ 0.839328 0.388693 0.921851 0.02923
C_ C_ 0.85809 0.391351 0.975811 -0.15533
C_ C_ 0.829888 0.382236 0.0148656 0.02923
C_ C_ 0.857114 0.389946 0.565809 0.69207
C_ C_ 0.855282 0.379547 0.821513 0.69661
C_ C_ 0.812434 0.439836 0.676836 0.18167
C_ C_ 0.77202 0.464003 0.702018 -0.15533
C_ C_ 0.782733 0.499197 0.742435 0.02923
C_ C_ 0.826951 0.0133507 0.755596 -0.15533
C_ C_ 0.871736 0.484458 0.729194 0.18167
C_ C_ 0.994455 0.361994 0.696573 0.18167
C_ C_ 0.511463 0.315759 0.718022 -0.15533
C_ C_ 0.993831 0.275472 0.723555 0.02923
C_ C_ 0.942492 0.282038 0.719002 -0.15533
C_ C_ 0.91852 0.322506 0.691786 0.18167
C_ C_ 0.990202 0.459163 0.62102 0.69207
C_ C_ 0.516874 0.994169 0.614835 0.02923
C_ C_ 0.498191 0.0469888 0.620866 -0.15533
C_ C_ 0.530044 0.0846163 0.614835 -0.15533
C_ C_ 0.581708 0.07259 0.603804 0.02923
C_ C_ 0.600341 0.0211813 0.603064 -0.15533
C_ C_ 0.568386 0.982496 0.609653 0.02923
C_ C_ 0.596147 0.429206 0.60303 0.69207
C_ C_ 0.591926 0.170567 0.607706 0.69661
C_ C_ 0.936918 0.179994 0.927317 0.18167
C_ C_ 0.979693 0.193717 0.959193 -0.15533
C_ C_ 0.972592 0.229681 0.000784605 0.02923
C_ C_ 0.923389 0.257235 0.508822 -0.15533
C_ C_ 0.881228 0.221907 0.985034 0.18167
C_ C_ 0.754579 0.207323 0.856098 0.18167
C_ C_ 0.733005 0.234576 0.81525 -0.15533
C_ C_ 0.76338 0.241473 0.77652 0.02923
C_ C_ 0.814013 0.224085 0.779954 -0.15533
C_ C_ 0.834162 0.196273 0.822543 0.18167
C_ C_ 0.764118 0.117619 0.957199 0.69207
C_ C_ 0.72373 0.124799 0.492987 0.02923
C_ C_ 0.743339 0.122342 0.545342 -0.15533
C_ C_ 0.712547 0.1151 0.584362 -0.15533
C_ C_ 0.659392 0.106493 0.570924 0.02923
C_ C_ 0.640957 0.105812 0.519038 -0.15533
C_ C_ 0.671425 0.116002 0.48065 0.02923
C_ C_ 0.649869 0.115219 0.926221 0.69207
C_ C_ 0.646682 0.109422 0.665547 0.69661
C_ C_ 0.877937 0.380172 0.880196 -0.30787
C_ C_ 0.620343 0.114636 0.611533 -0.30787
N_ N_ 0.640365 0.063725 0.805183 -0.32189
N_ N_ 0.547687 0.146291 0.813706 -0.32189
N_ N_ 0.610333 0.31967 0.554499 -0.32189
N_ N_ 0.695118 0.320542 0.64314 -0.32189
N_ N_ 0.860895 0.447555 0.693086 -0.32189
N_ N_ 0.944174 0.362435 0.680277 -0.32189
N_ N_ 0.889239 0.190203 0.942737 -0.32189
N_ N_ 0.80497 0.18945 0.859947 -0.32189
O_ O_ 0.00802015 0.0840158 0.902731 -0.63271
O_ O_ 0.54649 0.039852 0.8339 -0.57982
O_ O_ 0.892377 0.0940823 0.840731 -0.63271
O_ O_ 0.866874 0.085491 0.916409 -0.57982
O_ O_ 0.742107 0.403455 0.578794 -0.63271
O_ O_ 0.709711 0.338095 0.53486 -0.57982
O_ O_ 0.862438 0.350018 0.593129 -0.63271
O_ O_ 0.880999 0.429498 0.583208 -0.57982
O_ O_ 0.492687 0.411139 0.597085 -0.63271
O_ O_ 0.953785 0.470041 0.651537 -0.57982
O_ O_ 0.597491 0.408105 0.647842 -0.63271
O_ O_ 0.634387 0.414525 0.575391 -0.57982
O_ O_ 0.757969 0.0986526 0.911508 -0.63271
O_ O_ 0.790898 0.156254 0.960942 -0.57982
O_ O_ 0.657064 0.155036 0.902354 -0.63271
O_ O_ 0.612722 0.0896787 0.909283 -0.57982
F_ F_ 0.933549 0.321831 0.9311 -0.20885
F_ F_ 0.932819 0.30929 0.846407 -0.20885
F_ F_ 0.869277 0.289331 0.881705 -0.20885
F_ F_ 0.817079 0.418877 0.812567 -0.20885
F_ F_ 0.828923 0.336097 0.807015 -0.20885
F_ F_ 0.889561 0.385078 0.788091 -0.20885
F_ F_ 0.551767 0.178666 0.570602 -0.20885
F_ F_ 0.571284 0.184409 0.653289 -0.20885
F_ F_ 0.625625 0.204473 0.60134 -0.20885
F_ F_ 0.680085 0.0666844 0.66885 -0.20885
F_ F_ 0.674013 0.151033 0.682571 -0.20885
F_ F_ 0.61193 0.104865 0.700483 -0.20885
Zn Zn 0.586152 0.585214 0.347289 0.83971
Zn Zn 0.660561 0.849131 0.0798177 0.83971
Zn Zn 0.905748 0.918258 0.152085 0.83971
Zn Zn 0.838045 0.658704 0.415605 0.83971
H_ H_ 0.661057 0.63678 0.300145 0.10394
H_ H_ 0.728339 0.598689 0.244612 0.10394
H_ H_ 0.702817 0.945648 0.285659 0.10394
H_ H_ 0.628421 0.485386 0.322554 0.10394
H_ H_ 0.0207289 0.610639 0.259703 0.10394
H_ H_ 0.98781 0.685399 0.214126 0.10394
H_ H_ 0.541466 0.77406 0.34488 0.10394
H_ H_ 0.572334 0.696394 0.384526 0.10394
H_ H_ 0.526307 0.940498 0.364056 0.10394
H_ H_ 0.980276 0.881958 0.397873 0.10394
H_ H_ 0.848941 0.995143 0.400724 0.10394
H_ H_ 0.577653 0.80947 0.129527 0.10394
H_ H_ 0.99377 0.774446 0.103004 0.10394
H_ H_ 0.545253 0.78385 0.452352 0.10394
H_ H_ 0.614683 0.815829 0.977233 0.10394
H_ H_ 0.70838 0.744821 0.091798 0.10394
H_ H_ 0.750455 0.694717 0.164767 0.10394
H_ H_ 0.724224 0.831052 0.263124 0.10394
H_ H_ 0.684803 0.877665 0.186214 0.10394
H_ H_ 0.711406 0.876752 0.446081 0.10394
H_ H_ 0.765369 0.887575 0.381051 0.10394
H_ H_ 0.891912 0.909024 0.492005 0.10394
H_ H_ 0.79923 0.893127 0.162086 0.10394
H_ H_ 0.728031 0.944685 0.190063 0.10394
H_ H_ 0.826122 0.55417 0.279462 0.10394
H_ H_ 0.895137 1.00276053 0.233367 0.10394
H_ H_ 0.514354 0.891017 0.2002 0.10394
H_ H_ 0.563783 0.8235 0.248739 0.10394
H_ H_ 0.917117 0.748558 0.227685 0.10394
H_ H_ 0.87236 0.830297 0.186693 0.10394
H_ H_ 0.957923 0.56312 0.119957 0.10394
H_ H_ 0.510864 0.617794 0.116147 0.10394
H_ H_ 0.635086 0.51073 0.0804775 0.10394
H_ H_ 0.939859 0.664253 0.400121 0.10394
H_ H_ 0.51434 0.68717 0.449552 0.10394
H_ H_ 0.910272 0.786017 0.0379285 0.10394
H_ H_ 0.837104 0.739467 0.503747 0.10394
H_ H_ 0.7349 0.693583 0.377172 0.10394
H_ H_ 0.692612 0.737374 0.298613 0.10394
H_ H_ 0.838304 0.719387 0.240054 0.10394
H_ H_ 0.876341 0.687491 0.319661 0.10394
H_ H_ 0.783031 0.605701 0.0567177 0.10394
H_ H_ 0.727165 0.609925 0.123331 0.10394
H_ H_ 0.600211 0.609243 0.00975496 0.10394
C_ C_ 0.670995 0.594249 0.293918 0.18167
C_ C_ 0.716064 0.575333 0.273133 -0.15533
C_ C_ 0.732445 0.523141 0.27294 0.02923
C_ C_ 0.694532 0.988689 0.285405 -0.15533
C_ C_ 0.656386 0.510659 0.312653 0.18167
C_ C_ 0.535566 0.642755 0.270396 0.18167
C_ C_ 0.00512705 0.691051 0.254245 -0.15533
C_ C_ 0.522822 0.734356 0.27021 0.02923
C_ C_ 0.544375 0.739665 0.32054 -0.15533
C_ C_ 0.559434 0.693008 0.34409 0.18167
C_ C_ 0.503977 0.545963 0.367767 0.69207
C_ C_ 0.97097 0.0121517 0.382795 0.02923
C_ C_ -0.009484000000000048 0.960441 0.384117 -0.15533
C_ C_ 0.959608 0.920285 0.389382 -0.15533
C_ C_ 0.907805 0.932223 0.394201 0.02923
C_ C_ 0.888403 0.984018 0.395679 -0.15533
C_ C_ 0.91721 0.0224806 0.387084 0.02923
C_ C_ 0.894073 0.571275 0.387148 0.69207
C_ C_ 0.902069 0.833727 0.395156 0.69661
C_ C_ 0.568743 0.804163 0.0896199 0.18167
C_ C_ 0.523695 0.784828 0.0715918 -0.15533
C_ C_ 0.509708 0.775179 0.0189343 0.02923
C_ C_ 0.548729 0.788696 0.493239 -0.15533
C_ C_ 0.587769 0.808683 0.00359493 0.18167
C_ C_ 0.714325 0.763527 0.128395 0.18167
C_ C_ 0.734449 0.73415 0.169969 -0.15533
C_ C_ 0.741514 0.75866 0.217628 0.02923
C_ C_ 0.724665 0.813045 0.22383 -0.15533
C_ C_ 0.704178 0.838903 0.182708 0.18167
C_ C_ 0.739348 0.871745 0.0392655 0.69207
C_ C_ 0.769764 0.879936 0.508596 0.02923
C_ C_ 0.751368 0.878325 0.457019 -0.15533
C_ C_ 0.782715 0.889051 0.420308 -0.15533
C_ C_ 0.833675 0.89374 0.431978 0.02923
C_ C_ 0.851461 0.902064 0.482775 -0.15533
C_ C_ 0.820504 0.892831 0.521099 0.02923
C_ C_ 0.851542 0.884767 0.0689569 0.69207
C_ C_ 0.853265 0.885888 0.330458 0.69661
C_ C_ 0.806281 0.928518 0.187151 0.18167
C_ C_ 0.764072 0.955092 0.20676 -0.15533
C_ C_ 0.771059 0.996771 0.241641 0.02923
C_ C_ 0.822146 0.523113 0.249039 -0.15533
C_ C_ 0.859812 0.987563 0.227198 0.18167
C_ C_ 0.987242 0.865866 0.214418 0.18167
C_ C_ 0.522499 0.822056 0.236737 -0.15533
C_ C_ 0.984936 0.783632 0.250718 0.02923
C_ C_ 0.935769 0.782368 0.224692 -0.15533
C_ C_ 0.914163 0.824521 0.194298 0.18167
C_ C_ 0.985387 0.956559 0.131499 0.69207
C_ C_ 0.520365 0.48796 0.114377 0.02923
C_ C_ 0.500092 0.538235 0.119456 -0.15533
C_ C_ 0.529238 0.579644 0.116643 -0.15533
C_ C_ 0.581646 0.570525 0.104376 0.02923
C_ C_ 0.596466 0.51991 0.0887101 -0.15533
C_ C_ 0.567988 0.479437 0.099114 0.02923
C_ C_ 0.595646 0.921649 0.108112 0.69207
C_ C_ 0.587942 0.6674 0.113326 0.69661
C_ C_ 0.933579 0.687406 0.433921 0.18167
C_ C_ 0.975618 0.701966 0.465626 -0.15533
C_ C_ 0.968327 0.741845 0.502607 0.02923
C_ C_ 0.918094 0.751588 1.012601 -0.15533
C_ C_ 0.877397 0.732435 0.49002 0.18167
C_ C_ 0.755861 0.700574 0.34724 0.18167
C_ C_ 0.731455 0.720673 0.300406 -0.15533
C_ C_ 0.761895 0.727669 0.261367 0.02923
C_ C_ 0.813982 0.708747 0.267833 -0.15533
C_ C_ 0.834976 0.688245 0.312792 0.18167
C_ C_ 0.765021 0.624138 0.454707 0.69207
C_ C_ 0.724405 0.611657 0.994508 0.02923
C_ C_ 0.743235 0.609989 0.0464749 -0.15533
C_ C_ 0.70744 0.613464 0.0837993 -0.15533
C_ C_ 0.655508 0.608824 0.0720315 0.02923
C_ C_ 0.640277 0.607822 0.0203102 -0.15533
C_ C_ 0.672264 0.610989 0.980927 0.02923
C_ C_ 0.656435 0.603981 0.426177 0.69207
C_ C_ 0.640088 0.601313 0.163929 0.69661
C_ C_ 0.872035 0.888006 0.388487 -0.30787
C_ C_ 0.615007 0.613394 0.111323 -0.30787
N_ N_ 0.641597 0.560326 0.310705 -0.32189
N_ N_ 0.560113 0.646362 0.317786 -0.32189
N_ N_ 0.599764 0.816464 0.0571179 -0.32189
N_ N_ 0.697305 0.812992 0.136125 -0.32189
N_ N_ 0.854135 0.945674 0.195168 -0.32189
N_ N_ 0.940165 0.866103 0.191761 -0.32189
N_ N_ 0.886362 0.701619 0.446965 -0.32189
N_ N_ 0.806361 0.684392 0.352607 -0.32189
O_ O_ 0.00604621 0.595981 0.405656 -0.63271
O_ O_ 0.539211 0.54098 0.33817 -0.57982
O_ O_ 0.894765 0.593863 0.345464 -0.63271
O_ O_ 0.87644 0.597926 0.42685 -0.57982
O_ O_ 0.740886 0.897859 0.0848048 -0.63271
O_ O_ 0.700588 0.844302 0.0290764 -0.57982
O_ O_ 0.851002 0.847881 0.0992631 -0.63271
O_ O_ 0.883388 0.920003 0.0848842 -0.57982
O_ O_ 0.482962 0.908019 0.0916864 -0.63271
O_ O_ 0.947627 0.96751 0.158431 -0.57982
O_ O_ 0.591843 0.893915 0.144677 -0.63271
O_ O_ 0.635391 0.91132 0.0826471 -0.57982
O_ O_ 0.765084 0.594973 0.412803 -0.63271
O_ O_ 0.800893 0.653838 0.466797 -0.57982
O_ O_ 0.664651 0.639514 0.398062 -0.63271
O_ O_ 0.618722 0.577306 0.41196 -0.57982
F_ F_ 0.931769 0.832339 0.441702 -0.20885
F_ F_ 0.932834 0.818254 0.35837 -0.20885
F_ F_ 0.868146 0.798999 0.391308 -0.20885
F_ F_ 0.816602 0.928272 0.325214 -0.20885
F_ F_ 0.824754 0.845609 0.32045 -0.20885
F_ F_ 0.885281 0.884955 0.293897 -0.20885
F_ F_ 0.556098 0.677294 0.0717801 -0.20885
F_ F_ 0.559583 0.675986 0.154195 -0.20885
F_ F_ 0.620052 0.705774 0.11554 -0.20885
F_ F_ 0.67199 0.556553 0.161355 -0.20885
F_ F_ 0.670475 0.637981 0.183128 -0.20885
F_ F_ 0.612313 0.593312 0.201378 -0.20885
Zn Zn 0.589553 0.578824 0.843834 0.83971
Zn Zn 0.658691 0.845704 0.593401 0.83971
Zn Zn 0.908941 0.912329 0.658568 0.83971
Zn Zn 0.838276 0.650638 0.921455 0.83971
H_ H_ 0.665956 0.626636 0.803957 0.10394
H_ H_ 0.748829 0.597234 0.777794 0.10394
H_ H_ 0.712621 0.950483 0.803208 0.10394
H_ H_ 0.64005 0.475312 0.819053 0.10394
H_ H_ 0.0247072 0.583266 0.748703 0.10394
H_ H_ 0.993381 0.652962 0.692106 0.10394
H_ H_ 0.516324 0.759261 0.844665 0.10394
H_ H_ 0.554917 0.68209 0.887702 0.10394
H_ H_ 0.541625 0.94815 0.868511 0.10394
H_ H_ 0.980932 0.878553 0.873375 0.10394
H_ H_ 0.857101 0.991528 0.91033 0.10394
H_ H_ 0.575857 0.802344 0.64176 0.10394
H_ H_ 0.000292907 0.770135 0.600124 0.10394
H_ H_ 0.537192 0.770543 0.946586 0.10394
H_ H_ 0.609971 0.834896 0.492251 0.10394
H_ H_ 0.719118 0.756005 0.602038 0.10394
H_ H_ 0.757606 0.704116 0.677809 0.10394
H_ H_ 0.705966 0.829744 0.778656 0.10394
H_ H_ 0.667809 0.878302 0.6994 0.10394
H_ H_ 0.720673 0.863661 0.936017 0.10394
H_ H_ 0.774988 0.859581 0.873364 0.10394
H_ H_ 0.901942 0.89189 0.982988 0.10394
H_ H_ 0.80905 0.891355 0.671379 0.10394
H_ H_ 0.730747 0.93973 0.704989 0.10394
H_ H_ 0.838689 0.54448 0.780408 0.10394
H_ H_ 0.90294 1.00496204 0.73496 0.10394
H_ H_ 0.512553 0.879956 0.706996 0.10394
H_ H_ 0.552163 0.804678 0.752552 0.10394
H_ H_ 0.910609 0.730461 0.706464 0.10394
H_ H_ 0.863765 0.819151 0.682374 0.10394
H_ H_ 0.961968 0.558836 0.605827 0.10394
H_ H_ 0.524579 0.624073 0.623765 0.10394
H_ H_ 0.63759 0.510649 0.570988 0.10394
H_ H_ 0.941429 0.651186 0.906182 0.10394
H_ H_ 0.518539 0.680792 0.967654 0.10394
H_ H_ 0.914994 0.785929 0.546883 0.10394
H_ H_ 0.83794 0.740453 0.994886 0.10394
H_ H_ 0.733916 0.678027 0.879273 0.10394
H_ H_ 0.689476 0.726466 0.802494 0.10394
H_ H_ 0.834137 0.723116 0.749513 0.10394
H_ H_ 0.876056 0.688071 0.83185 0.10394
H_ H_ 0.791139 0.622931 0.558513 0.10394
H_ H_ 0.735872 0.603895 0.622111 0.10394
H_ H_ 0.606859 0.603753 0.509822 0.10394
C_ C_ 0.67575 0.585836 0.795694 0.18167
C_ C_ 0.72245 0.570293 0.779164 -0.15533
C_ C_ 0.739555 0.517927 0.773439 0.02923
C_ C_ 0.704221 0.990538 0.799701 -0.15533
C_ C_ 0.663272 0.501336 0.808992 0.18167
C_ C_ 0.53709 0.630906 0.770128 0.18167
C_ C_ 0.00575685 0.664123 0.731103 -0.15533
C_ C_ 0.506284 0.7211 0.769699 0.02923
C_ C_ 0.520364 0.722513 0.823655 -0.15533
C_ C_ 0.547585 0.681954 0.847613 0.18167
C_ C_ 0.505853 0.543437 0.861957 0.69207
C_ C_ 0.974113 0.00652042 0.873797 0.02923
C_ C_ -0.008557999999999955 0.954805 0.871023 -0.15533
C_ C_ 0.961225 0.915994 0.876649 -0.15533
C_ C_ 0.910708 0.926002 0.889149 0.02923
C_ C_ 0.893257 0.978682 0.896847 -0.15533
C_ C_ 0.923768 0.0192241 0.886426 0.02923
C_ C_ 0.892734 0.564902 0.887878 0.69207
C_ C_ 0.903754 0.825476 0.883313 0.69661
C_ C_ 0.564633 0.802268 0.598726 0.18167
C_ C_ 0.523771 0.774916 0.574797 -0.15533
C_ C_ 0.514773 0.766634 0.522322 0.02923
C_ C_ 0.546225 0.782002 0.985278 -0.15533
C_ C_ 0.590561 0.812117 0.515911 0.18167
C_ C_ 0.721193 0.771695 0.640861 0.18167
C_ C_ 0.741949 0.744116 0.683582 -0.15533
C_ C_ 0.738511 0.766653 0.734449 0.02923
C_ C_ 0.715422 0.815628 0.740615 -0.15533
C_ C_ 0.695208 0.843455 0.696836 0.18167
C_ C_ 0.736058 0.868399 0.550316 0.69207
C_ C_ 0.775864 0.873326 1.00254953 0.02923
C_ C_ 0.758558 0.866684 0.94968 -0.15533
C_ C_ 0.792078 0.868539 0.911957 -0.15533
C_ C_ 0.841295 0.884388 0.922548 0.02923
C_ C_ 0.859844 0.88776 0.975957 -0.15533
C_ C_ 0.827817 0.88147 0.0155682 0.02923
C_ C_ 0.846121 0.888015 0.574526 0.69207
C_ C_ 0.855551 0.885578 0.822714 0.69661
C_ C_ 0.812069 0.93038 0.691445 0.18167
C_ C_ 0.768759 0.955584 0.712257 -0.15533
C_ C_ 0.778856 -0.005682999999999994 0.748352 0.02923
C_ C_ 0.831779 0.5137 0.752381 -0.15533
C_ C_ 0.866088 0.988852 0.730597 0.18167
C_ C_ 0.984554 0.848384 0.705118 0.18167
C_ C_ 0.512387 0.807027 0.738891 -0.15533
C_ C_ 0.981629 0.759209 0.720679 0.02923
C_ C_ 0.929591 0.765019 0.703843 -0.15533
C_ C_ 0.903429 0.811878 0.687978 0.18167
C_ C_ 0.989163 0.951117 0.625472 0.69207
C_ C_ 0.521168 0.495794 0.613663 0.02923
C_ C_ 0.504675 0.548051 0.624263 -0.15533
C_ C_ 0.537665 0.583359 0.616553 -0.15533
C_ C_ 0.588587 0.572279 0.603327 0.02923
C_ C_ 0.600945 0.521405 0.590906 -0.15533
C_ C_ 0.572536 0.482366 0.601346 0.02923
C_ C_ 0.592704 0.929154 0.613919 0.69207
C_ C_ 0.609326 0.666312 0.61215 0.69661
C_ C_ 0.935025 0.671796 0.942473 0.18167
C_ C_ 0.977094 0.689936 0.971564 -0.15533
C_ C_ 0.969228 0.734648 1.00426654 0.02923
C_ C_ 0.918704 0.75799 0.513798 -0.15533
C_ C_ 0.87721 0.726307 0.990828 0.18167
C_ C_ 0.75615 0.697011 0.856891 0.18167
C_ C_ 0.732359 0.722601 0.814178 -0.15533
C_ C_ 0.761497 0.73889 0.779491 0.02923
C_ C_ 0.811415 0.720483 0.781277 -0.15533
C_ C_ 0.83582 0.697892 0.825699 0.18167
C_ C_ 0.761695 0.61565 0.956144 0.69207
C_ C_ 0.730542 0.615013 0.493472 0.02923
C_ C_ 0.748394 0.619959 0.545033 -0.15533
C_ C_ 0.719683 0.60783 0.582148 -0.15533
C_ C_ 0.665834 0.603033 0.571609 0.02923
C_ C_ 0.647044 0.601186 0.518075 -0.15533
C_ C_ 0.678873 0.60704 0.479581 0.02923
C_ C_ 0.650323 0.608791 0.926848 0.69207
C_ C_ 0.659021 0.601687 0.66804 0.69661
C_ C_ 0.87662 0.881202 0.881309 -0.30787
C_ C_ 0.630155 0.609833 0.6148 -0.30787
N_ N_ 0.646925 0.551081 0.809408 -0.32189
N_ N_ 0.559604 0.638734 0.818675 -0.32189
N_ N_ 0.600297 0.814172 0.56741 -0.32189
N_ N_ 0.697481 0.819956 0.649859 -0.32189
N_ N_ 0.858474 0.947373 0.69953 -0.32189
N_ N_ 0.934679 0.850226 0.683748 -0.32189
N_ N_ 0.885635 0.690132 0.953633 -0.32189
N_ N_ 0.808554 0.688756 0.863255 -0.32189
O_ O_ 1.00625452 0.583498 0.905186 -0.63271
O_ O_ 0.545713 0.533211 0.836051 -0.57982
O_ O_ 0.886655 0.591267 0.84626 -0.63271
O_ O_ 0.873715 0.585664 0.929528 -0.57982
O_ O_ 0.737949 0.895813 0.593722 -0.63271
O_ O_ 0.701937 0.836636 0.541615 -0.57982
O_ O_ 0.851789 0.844155 0.594576 -0.63271
O_ O_ 0.875845 0.923495 0.596219 -0.57982
O_ O_ 0.483793 0.909796 0.595821 -0.63271
O_ O_ 0.954984 0.958053 0.659814 -0.57982
O_ O_ 0.580374 0.90173 0.649955 -0.63271
O_ O_ 0.63451 0.914413 0.589895 -0.57982
O_ O_ 0.770255 0.583728 0.918714 -0.63271
O_ O_ 0.788975 0.654498 0.962814 -0.57982
O_ O_ 0.653234 0.64638 0.897042 -0.63271
O_ O_ 0.614171 0.57985 0.912246 -0.57982
F_ F_ 0.941592 0.818462 0.925689 -0.20885
F_ F_ 0.926378 0.811606 0.837997 -0.20885
F_ F_ 0.869775 0.788527 0.884791 -0.20885
F_ F_ 0.817357 0.925439 0.821052 -0.20885
F_ F_ 0.831194 0.840168 0.806363 -0.20885
F_ F_ 0.89363 0.892671 0.789799 -0.20885
F_ F_ 0.571487 0.672061 0.572143 -0.20885
F_ F_ 0.592077 0.684122 0.65823 -0.20885
F_ F_ 0.644158 0.698865 0.605858 -0.20885
F_ F_ 0.685215 0.553149 0.670607 -0.20885
F_ F_ 0.695207 0.637764 0.685157 -0.20885
F_ F_ 0.623709 0.603882 0.703759 -0.20885
