_cell_length_a 26.508
_cell_length_b 26.37200000322088
_cell_length_c 26.311999743092066
_cell_angle_alpha 93.74100058972084
_cell_angle_beta 96.04100104955006
_cell_angle_gamma 83.6869992558723
_symmetry_space_group_name_H-M         'P 1'
_symmetry_Int_Tables_number            1
loop_
_symmetry_equiv_pos_as_xyz
   'x, y, z'
                         
loop_
_atom_site_label
_atom_site_type_symbol
_atom_site_fract_x 
_atom_site_fract_y
_atom_site_fract_z
_atom_site_charge
Zn Zn 0.0908381 0.0843629 0.345578 0.83971
Zn Zn 0.162857 0.348256 0.0881598 0.83971
Zn Zn 0.41065 0.413014 0.15954 0.83971
Zn Zn 0.341778 0.151419 0.415728 0.83971
H_ H_ 0.179164 0.128884 0.314374 0.10394
H_ H_ 0.261084 0.0949609 0.283037 0.10394
H_ H_ 0.206853 0.449723 0.282361 0.10394
H_ H_ 0.135485 0.979879 0.319339 0.10394
H_ H_ 0.537428 0.0955717 0.257786 0.10394
H_ H_ 0.497102 0.173486 0.208382 0.10394
H_ H_ 0.0431175 0.273475 0.319731 0.10394
H_ H_ 0.0719359 0.196704 0.372674 0.10394
H_ H_ 0.0355729 0.4407 0.369068 0.10394
H_ H_ 0.484201 0.37378 0.382137 0.10394
H_ H_ 0.350086 0.484399 0.402463 0.10394
H_ H_ 0.0874975 0.304755 0.133142 0.10394
H_ H_ 0.493444 0.273331 0.101447 0.10394
H_ H_ 0.0360118 0.296154 0.449336 0.10394
H_ H_ 0.118877 0.332118 0.98692 0.10394
H_ H_ 0.218321 0.256755 0.108548 0.10394
H_ H_ 0.254038 0.212627 0.187479 0.10394
H_ H_ 0.215762 0.348733 0.278439 0.10394
H_ H_ 0.17171 0.383913 0.202834 0.10394
H_ H_ 0.213334 0.382679 0.443717 0.10394
H_ H_ 0.26658 0.377312 0.372771 0.10394
H_ H_ 0.396188 0.399914 0.489542 0.10394
H_ H_ 0.303166 0.389788 0.162766 0.10394
H_ H_ 0.231087 0.444957 0.180524 0.10394
H_ H_ 0.342266 0.047153 0.275984 0.10394
H_ H_ 0.392577 0.509558 0.224098 0.10394
H_ H_ 0.00877079 0.384785 0.193891 0.10394
H_ H_ 0.0532059 0.308391 0.222742 0.10394
H_ H_ 0.418957 0.23822 0.222754 0.10394
H_ H_ 0.378611 0.314808 0.178531 0.10394
H_ H_ 0.463164 0.0465072 0.118315 0.10394
H_ H_ 0.0162765 0.114613 0.0897187 0.10394
H_ H_ 0.15171 -9.38349e-05 0.0939667 0.10394
H_ H_ 0.449611 0.157068 0.397097 0.10394
H_ H_ 0.0238029 0.194678 0.447456 0.10394
H_ H_ 0.411444 0.276427 0.0481957 0.10394
H_ H_ 0.347911 0.237381 0.494657 0.10394
H_ H_ 0.236206 0.198628 0.390333 0.10394
H_ H_ 0.193413 0.249665 0.319571 0.10394
H_ H_ 0.3378 0.242323 0.258813 0.10394
H_ H_ 0.378439 0.179657 0.321481 0.10394
H_ H_ 0.28169 0.121512 0.0536941 0.10394
H_ H_ 0.234664 0.100803 0.119639 0.10394
H_ H_ 0.104196 0.0953285 0.00737006 0.10394
C_ C_ 0.185834 0.0880267 0.302714 0.18167
C_ C_ 0.231133 0.0703123 0.283861 -0.15533
C_ C_ 0.245347 0.0169531 0.277533 0.02923
C_ C_ 0.197751 0.491557 0.28341 -0.15533
C_ C_ 0.163859 0.00627548 0.311175 0.18167
C_ C_ 0.0276009 0.13328 0.267128 0.18167
C_ C_ 0.513036 0.177765 0.248859 -0.15533
C_ C_ 0.00998352 0.226387 0.259827 0.02923
C_ C_ 0.042682 0.233845 0.304785 -0.15533
C_ C_ 0.0673824 0.190005 0.329634 0.18167
C_ C_ 0.00810387 0.0471103 0.359637 0.69207
C_ C_ 0.471845 0.506294 0.372925 0.02923
C_ C_ 0.492575 0.454374 0.370582 -0.15533
C_ C_ 0.464436 0.412249 0.378079 -0.15533
C_ C_ 0.412764 0.423568 0.389416 0.02923
C_ C_ 0.392505 0.476504 0.398339 -0.15533
C_ C_ 0.421274 0.51855 0.390119 0.02923
C_ C_ 0.401024 0.0693368 0.389076 0.69207
C_ C_ 0.397944 0.325143 0.382301 0.69661
C_ C_ 0.0791955 0.29798 0.0921357 0.18167
C_ C_ 0.0347469 0.276557 0.0733562 -0.15533
C_ C_ 0.0226361 0.269658 0.0202811 0.02923
C_ C_ 0.0509623 0.293589 0.489031 -0.15533
C_ C_ 0.100316 0.307977 0.00872627 0.18167
C_ C_ 0.215736 0.275561 0.146822 0.18167
C_ C_ 0.234702 0.250599 0.190583 -0.15533
C_ C_ 0.24115 0.276782 0.237753 0.02923
C_ C_ 0.219376 0.328921 0.240936 -0.15533
C_ C_ 0.196051 0.349668 0.197832 0.18167
C_ C_ 0.23884 0.371193 0.0444228 0.69207
C_ C_ 0.275271 0.383044 0.505195 0.02923
C_ C_ 0.253597 0.383557 0.453189 -0.15533
C_ C_ 0.285429 0.37696 0.41203 -0.15533
C_ C_ 0.337691 0.388228 0.422606 0.02923
C_ C_ 0.35708 0.39654 0.474915 -0.15533
C_ C_ 0.32753 0.388655 0.514908 0.02923
C_ C_ 0.347547 0.389186 0.0745792 0.69207
C_ C_ 0.353718 0.385255 0.324116 0.69661
C_ C_ 0.31016 0.423473 0.186666 0.18167
C_ C_ 0.265754 0.454281 0.201681 -0.15533
C_ C_ 0.271561 0.502093 0.232406 0.02923
C_ C_ 0.336192 0.0112747 0.253386 -0.15533
C_ C_ 0.361556 0.488202 0.225201 0.18167
C_ C_ 0.492791 0.35286 0.206189 0.18167
C_ C_ 0.0139304 0.308001 0.216224 -0.15533
C_ C_ 0.48642 0.274237 0.248373 0.02923
C_ C_ 0.440707 0.270031 0.218329 -0.15533
C_ C_ 0.417242 0.313827 0.193047 0.18167
C_ C_ 0.487484 0.448028 0.11952 0.69207
C_ C_ 0.0259038 0.986569 0.111189 0.02923
C_ C_ 0.00543613 0.0369968 0.104329 -0.15533
C_ C_ 0.036989 0.0769869 0.102701 -0.15533
C_ C_ 0.091322 0.0656271 0.100943 0.02923
C_ C_ 0.11196 0.0121206 0.0992852 -0.15533
C_ C_ 0.0798644 0.97406 0.108924 0.02923
C_ C_ 0.0944137 0.426509 0.108605 0.69207
C_ C_ 0.101408 0.165903 0.113066 0.69661
C_ C_ 0.442319 0.181115 0.432053 0.18167
C_ C_ 0.482568 0.198721 0.463496 -0.15533
C_ C_ 0.474762 0.236763 0.502079 0.02923
C_ C_ 0.420624 0.250417 0.017127 -0.15533
C_ C_ 0.384542 0.225262 0.487928 0.18167
C_ C_ 0.255957 0.200692 0.356915 0.18167
C_ C_ 0.23177 0.233846 0.318671 -0.15533
C_ C_ 0.262479 0.248385 0.28212 0.02923
C_ C_ 0.313629 0.229198 0.285267 -0.15533
C_ C_ 0.336254 0.194856 0.32149 0.18167
C_ C_ 0.264581 0.119049 0.45161 0.69207
C_ C_ 0.225958 0.114187 0.99206 0.02923
C_ C_ 0.243954 0.119098 0.0434805 -0.15533
C_ C_ 0.215995 0.104759 0.080828 -0.15533
C_ C_ 0.16406 0.101544 0.0693834 0.02923
C_ C_ 0.144068 0.101584 0.0182953 -0.15533
C_ C_ 0.17536 0.103208 0.978872 0.02923
C_ C_ 0.152275 0.110229 0.425107 0.69207
C_ C_ 0.149701 0.104117 0.167712 0.69661
C_ C_ 0.376687 0.381688 0.381821 -0.30787
C_ C_ 0.128083 0.109695 0.11159 -0.30787
N_ N_ 0.152915 0.0564329 0.315991 -0.32189
N_ N_ 0.0631005 0.141928 0.307464 -0.32189
N_ N_ 0.113767 0.306918 0.0602897 -0.32189
N_ N_ 0.194702 0.324869 0.150223 -0.32189
N_ N_ 0.35683 0.44429 0.194909 -0.32189
N_ N_ 0.443968 0.353226 0.18419 -0.32189
N_ N_ 0.392389 0.192913 0.446156 -0.32189
N_ N_ 0.307717 0.186122 0.35913 -0.32189
O_ O_ 0.513506 0.0799136 0.404784 -0.63271
O_ O_ 0.0488018 0.0351565 0.336883 -0.57982
O_ O_ 0.401453 0.0979349 0.350552 -0.63271
O_ O_ 0.369409 0.0842904 0.421936 -0.57982
O_ O_ 0.238186 0.395932 0.0888972 -0.63271
O_ O_ 0.205402 0.338565 0.0365272 -0.57982
O_ O_ 0.352735 0.344011 0.0933297 -0.63271
O_ O_ 0.373708 0.424552 0.0980876 -0.57982
O_ O_ 0.991473 0.404377 0.10134 -0.63271
O_ O_ 0.455514 0.458951 0.154523 -0.57982
O_ O_ 0.0917918 0.403417 0.14979 -0.63271
O_ O_ 0.131086 0.409497 0.0801927 -0.57982
O_ O_ 0.256771 0.0999836 0.405016 -0.63271
O_ O_ 0.292888 0.157271 0.45842 -0.57982
O_ O_ 0.156681 0.151521 0.402567 -0.63271
O_ O_ 0.113888 0.0821184 0.410105 -0.57982
F_ F_ 0.436093 0.321319 0.422199 -0.20885
F_ F_ 0.420928 0.308495 0.33952 -0.20885
F_ F_ 0.361157 0.291905 0.386979 -0.20885
F_ F_ 0.31732 0.426801 0.322577 -0.20885
F_ F_ 0.32619 0.344634 0.304565 -0.20885
F_ F_ 0.385828 0.394784 0.286168 -0.20885
F_ F_ 0.0695156 0.175637 0.0681229 -0.20885
F_ F_ 0.0678098 0.178969 0.15057 -0.20885
F_ F_ 0.135538 0.201312 0.121706 -0.20885
F_ F_ 0.179503 0.0594295 0.175219 -0.20885
F_ F_ 0.185587 0.138709 0.184048 -0.20885
F_ F_ 0.111974 0.107985 0.201525 -0.20885
Zn Zn 0.0881669 0.0850647 0.846652 0.83971
Zn Zn 0.161021 0.353531 0.585212 0.83971
Zn Zn 0.409889 0.410106 0.654328 0.83971
Zn Zn 0.340584 0.155425 0.917197 0.83971
H_ H_ 0.162488 0.128514 0.798408 0.10394
H_ H_ 0.246404 0.0969447 0.771098 0.10394
H_ H_ 0.21548 0.44269 0.785644 0.10394
H_ H_ 0.133004 0.980303 0.818033 0.10394
H_ H_ 0.539765 0.10321 0.745448 0.10394
H_ H_ 0.504134 0.180883 0.703054 0.10394
H_ H_ 0.0473437 0.272426 0.841015 0.10394
H_ H_ 0.075841 0.192774 0.887028 0.10394
H_ H_ 0.0307453 0.450413 0.863623 0.10394
H_ H_ 0.48324 0.390528 0.901434 0.10394
H_ H_ 0.355492 0.500927 0.897725 0.10394
H_ H_ 0.0920331 0.297898 0.635875 0.10394
H_ H_ 0.50865 0.260278 0.605455 0.10394
H_ H_ 0.0412818 0.2975 0.953305 0.10394
H_ H_ 0.116418 0.337414 0.485572 0.10394
H_ H_ 0.21703 0.256047 0.594769 0.10394
H_ H_ 0.265562 0.207781 0.663712 0.10394
H_ H_ 0.222806 0.335081 0.773216 0.10394
H_ H_ 0.182415 0.379603 0.701156 0.10394
H_ H_ 0.223085 0.363353 0.942442 0.10394
H_ H_ 0.281084 0.371489 0.876551 0.10394
H_ H_ 0.391594 0.415353 0.995823 0.10394
H_ H_ 0.306817 0.397137 0.656801 0.10394
H_ H_ 0.231296 0.449553 0.687811 0.10394
H_ H_ 0.334159 0.039938 0.786918 0.10394
H_ H_ 0.403091 0.500789 0.732035 0.10394
H_ H_ 0.0193381 0.381034 0.690341 0.10394
H_ H_ 0.0592939 0.308597 0.735665 0.10394
H_ H_ 0.4157 0.241339 0.716762 0.10394
H_ H_ 0.367414 0.321315 0.686782 0.10394
H_ H_ 0.46544 0.0609598 0.614579 0.10394
H_ H_ 0.0228267 0.121054 0.618951 0.10394
H_ H_ 0.142398 -0.000622936 0.594485 0.10394
H_ H_ 0.441857 0.155903 0.904622 0.10394
H_ H_ 0.0156785 0.196215 0.941346 0.10394
H_ H_ 0.415493 0.276815 0.549469 0.10394
H_ H_ 0.34458 0.2286 0.005980000000000096 0.10394
H_ H_ 0.238197 0.191839 0.879662 0.10394
H_ H_ 0.198266 0.225514 0.79404 0.10394
H_ H_ 0.346386 0.245292 0.762012 0.10394
H_ H_ 0.382079 0.195859 0.835057 0.10394
H_ H_ 0.291926 0.105761 0.55098 0.10394
H_ H_ 0.242432 0.0846304 0.616563 0.10394
H_ H_ 0.10557 0.0937511 0.50234 0.10394
C_ C_ 0.177337 0.0896523 0.804282 0.18167
C_ C_ 0.222184 0.0706004 0.784067 -0.15533
C_ C_ 0.233733 0.019049 0.770069 0.02923
C_ C_ 0.204296 0.485153 0.792169 -0.15533
C_ C_ 0.154255 0.00509988 0.802736 0.18167
C_ C_ 0.031358 0.140187 0.7718 0.18167
C_ C_ 0.51291 0.182481 0.743314 -0.15533
C_ C_ 0.0140736 0.233152 0.774965 0.02923
C_ C_ 0.0458556 0.236143 0.821548 -0.15533
C_ C_ 0.0632781 0.190933 0.845689 0.18167
C_ C_ 0.00107819 0.0558174 0.861523 0.69207
C_ C_ 0.476908 0.515429 0.885722 0.02923
C_ C_ 0.498967 0.465713 0.889158 -0.15533
C_ C_ 0.467851 0.42584 0.894166 -0.15533
C_ C_ 0.415535 0.437403 0.902461 0.02923
C_ C_ 0.395147 0.489081 0.899733 -0.15533
C_ C_ 0.42389 0.525649 0.88422 0.02923
C_ C_ 0.391614 0.0689655 0.891244 0.69207
C_ C_ 0.406666 0.340175 0.896179 0.69661
C_ C_ 0.0784269 0.296958 0.593873 0.18167
C_ C_ 0.0355026 0.275214 0.574028 -0.15533
C_ C_ 0.0206644 0.272119 0.521331 0.02923
C_ C_ 0.0565526 0.284038 0.988338 -0.15533
C_ C_ 0.0939627 0.318273 0.511033 0.18167
C_ C_ 0.218912 0.271396 0.634241 0.18167
C_ C_ 0.243713 0.245312 0.673107 -0.15533
C_ C_ 0.24359 0.264378 0.725365 0.02923
C_ C_ 0.221927 0.314044 0.735744 -0.15533
C_ C_ 0.198818 0.340799 0.693645 0.18167
C_ C_ 0.23946 0.375605 0.544801 0.69207
C_ C_ 0.276251 0.378005 0.00679671 0.02923
C_ C_ 0.260787 0.373145 0.954278 -0.15533
C_ C_ 0.291506 0.384355 0.917485 -0.15533
C_ C_ 0.337972 0.402117 0.931731 0.02923
C_ C_ 0.355347 0.406611 0.983772 -0.15533
C_ C_ 0.324859 0.394357 0.0221296 0.02923
C_ C_ 0.350438 0.383469 0.567474 0.69207
C_ C_ 0.353032 0.399983 0.83519 0.69661
C_ C_ 0.312431 0.427272 0.687477 0.18167
C_ C_ 0.269936 0.456844 0.705433 -0.15533
C_ C_ 0.276843 0.495996 0.74341 0.02923
C_ C_ 0.326069 0.0141993 0.753965 -0.15533
C_ C_ 0.365028 0.488243 0.724203 0.18167
C_ C_ 0.484676 0.357039 0.721057 0.18167
C_ C_ 0.0179244 0.313527 0.730119 -0.15533
C_ C_ 0.47827 0.273094 0.751104 0.02923
C_ C_ 0.431846 0.274749 0.725425 -0.15533
C_ C_ 0.410574 0.318676 0.700758 0.18167
C_ C_ 0.486406 0.446018 0.628274 0.69207
C_ C_ 0.0193365 0.993886 0.612149 0.02923
C_ C_ 0.00381919 0.0444535 0.610514 -0.15533
C_ C_ 0.0377642 0.0801582 0.612716 -0.15533
C_ C_ 0.0896143 0.0664787 0.606724 0.02923
C_ C_ 0.105411 0.0157227 0.605136 -0.15533
C_ C_ 0.071111 0.978944 0.607175 0.02923
C_ C_ 0.100601 0.43076 0.611978 0.69207
C_ C_ 0.105459 0.162488 0.600125 0.69661
C_ C_ 0.436949 0.183415 0.93484 0.18167
C_ C_ 0.478855 0.20772 0.959275 -0.15533
C_ C_ 0.472369 0.242909 1.000819752 0.02923
C_ C_ 0.425564 0.248632 0.515462 -0.15533
C_ C_ 0.380826 0.225896 0.990944 0.18167
C_ C_ 0.261716 0.197123 0.849742 0.18167
C_ C_ 0.238135 0.217606 0.802025 -0.15533
C_ C_ 0.270248 0.234451 0.768792 0.02923
C_ C_ 0.321731 0.224517 0.78015 -0.15533
C_ C_ 0.342436 0.19917 0.822049 0.18167
C_ C_ 0.263221 0.117272 0.953186 0.69207
C_ C_ 0.229275 0.109081 0.491425 0.02923
C_ C_ 0.251199 0.102934 0.541664 -0.15533
C_ C_ 0.221187 0.0918144 0.580083 -0.15533
C_ C_ 0.166526 0.0919705 0.568352 0.02923
C_ C_ 0.146859 0.0917134 0.516204 -0.15533
C_ C_ 0.176596 0.103161 0.479791 0.02923
C_ C_ 0.150231 0.109214 0.927067 0.69207
C_ C_ 0.15286 0.108138 0.665147 0.69661
C_ C_ 0.377229 0.397605 0.891707 -0.30787
C_ C_ 0.127951 0.105812 0.60914 -0.30787
N_ N_ 0.142955 0.0554826 0.80982 -0.32189
N_ N_ 0.0638919 0.145435 0.816532 -0.32189
N_ N_ 0.105167 0.318951 0.562502 -0.32189
N_ N_ 0.198393 0.319978 0.644354 -0.32189
N_ N_ 0.358485 0.443531 0.696768 -0.32189
N_ N_ 0.440284 0.35426 0.693321 -0.32189
N_ N_ 0.389585 0.197905 0.946688 -0.32189
N_ N_ 0.312024 0.183383 0.854962 -0.32189
O_ O_ 0.501136 0.0866726 0.892928 -0.63271
O_ O_ 0.0442061 0.0373386 0.84318 -0.57982
O_ O_ 0.392668 0.0929714 0.848032 -0.63271
O_ O_ 0.365719 0.0901138 0.927715 -0.57982
O_ O_ 0.243092 0.403402 0.587688 -0.63271
O_ O_ 0.199473 0.34916 0.531839 -0.57982
O_ O_ 0.347557 0.34238 0.593099 -0.63271
O_ O_ 0.380221 0.41766 0.588847 -0.57982
O_ O_ 0.994465 0.412064 0.606499 -0.63271
O_ O_ 0.45391 0.458087 0.661973 -0.57982
O_ O_ 0.104813 0.406063 0.652761 -0.63271
O_ O_ 0.131048 0.413744 0.578131 -0.57982
O_ O_ 0.255405 0.0949483 0.908085 -0.63271
O_ O_ 0.290513 0.156392 0.958269 -0.57982
O_ O_ 0.153346 0.148089 0.900483 -0.63271
O_ O_ 0.115016 0.0794655 0.91189 -0.57982
F_ F_ 0.439063 0.338796 0.941274 -0.20885
F_ F_ 0.433885 0.32231 0.856438 -0.20885
F_ F_ 0.371067 0.305847 0.89474 -0.20885
F_ F_ 0.314395 0.437235 0.827329 -0.20885
F_ F_ 0.333299 0.353943 0.816816 -0.20885
F_ F_ 0.385912 0.408522 0.802601 -0.20885
F_ F_ 0.0697027 0.167771 0.557072 -0.20885
F_ F_ 0.0789627 0.189784 0.637581 -0.20885
F_ F_ 0.143236 0.19214 0.592497 -0.20885
F_ F_ 0.173971 0.0603132 0.676072 -0.20885
F_ F_ 0.189175 0.142797 0.673686 -0.20885
F_ F_ 0.115015 0.118902 0.697565 -0.20885
Zn Zn 0.0859238 0.584698 0.35081 0.83971
Zn Zn 0.161135 0.840737 0.0826647 0.83971
Zn Zn 0.408494 0.910399 0.152623 0.83971
Zn Zn 0.34086 0.654954 0.418805 0.83971
H_ H_ 0.170151 0.636155 0.311837 0.10394
H_ H_ 0.252437 0.598032 0.280533 0.10394
H_ H_ 0.212024 0.94761 0.279549 0.10394
H_ H_ 0.127104 0.489979 0.310084 0.10394
H_ H_ 0.52413 0.583664 0.255009 0.10394
H_ H_ 0.47097 0.653931 0.211894 0.10394
H_ H_ 0.0375542 0.764948 0.338838 0.10394
H_ H_ 0.0811152 0.692178 0.375997 0.10394
H_ H_ 0.0285909 0.943962 0.366373 0.10394
H_ H_ 0.47826 0.877311 0.349243 0.10394
H_ H_ 0.359307 0.9828 0.406828 0.10394
H_ H_ 0.0902481 0.782669 0.123783 0.10394
H_ H_ 0.506379 0.748495 0.094999 0.10394
H_ H_ 0.0302045 0.790164 0.437106 0.10394
H_ H_ 0.114528 0.82616 0.977655 0.10394
H_ H_ 0.203062 0.741167 0.113773 0.10394
H_ H_ 0.246603 0.701446 0.193199 0.10394
H_ H_ 0.218081 0.854567 0.2711 0.10394
H_ H_ 0.182096 0.885555 0.183706 0.10394
H_ H_ 0.21759 0.868874 0.435215 0.10394
H_ H_ 0.273736 0.872723 0.367373 0.10394
H_ H_ 0.392869 0.906335 0.485939 0.10394
H_ H_ 0.309793 0.903473 0.155481 0.10394
H_ H_ 0.235308 0.955156 0.186938 0.10394
H_ H_ 0.331318 0.540161 0.280959 0.10394
H_ H_ 0.411943 -0.0014170000000000016 0.228257 0.10394
H_ H_ 0.0212272 0.87088 0.180498 0.10394
H_ H_ 0.0594616 0.789641 0.227953 0.10394
H_ H_ 0.404744 0.739865 0.227426 0.10394
H_ H_ 0.365035 0.825728 0.195947 0.10394
H_ H_ 0.463115 0.548922 0.108309 0.10394
H_ H_ 0.0128029 0.616736 0.111922 0.10394
H_ H_ 0.136555 0.505466 0.0864139 0.10394
H_ H_ 0.444194 0.662154 0.394156 0.10394
H_ H_ 0.0152317 0.692354 0.431902 0.10394
H_ H_ 0.417526 0.769626 0.0511532 0.10394
H_ H_ 0.347675 0.741371 0.503159 0.10394
H_ H_ 0.237908 0.716516 0.399176 0.10394
H_ H_ 0.19139 0.753175 0.324696 0.10394
H_ H_ 0.333638 0.727365 0.249626 0.10394
H_ H_ 0.37504 0.684966 0.325268 0.10394
H_ H_ 0.28043 0.633352 0.0562281 0.10394
H_ H_ 0.233285 0.595541 0.117877 0.10394
H_ H_ 0.108181 0.579574 0.00595724 0.10394
C_ C_ 0.176835 0.594705 0.300954 0.18167
C_ C_ 0.222122 0.574424 0.281347 -0.15533
C_ C_ 0.22931 0.523095 0.265501 0.02923
C_ C_ 0.20955 0.985487 0.289644 -0.15533
C_ C_ 0.153669 0.512439 0.304667 0.18167
C_ C_ 0.0246611 0.631778 0.273865 0.18167
C_ C_ 0.499238 0.664161 0.242271 -0.15533
C_ C_ 0.00991822 0.722913 0.267141 0.02923
C_ C_ 0.0415209 0.730577 0.313895 -0.15533
C_ C_ 0.0606643 0.687772 0.338868 0.18167
C_ C_ 0.0135302 0.541873 0.37598 0.69207
C_ C_ 0.475845 0.00245278 0.373743 0.02923
C_ C_ 0.493008 0.951111 0.361723 -0.15533
C_ C_ 0.464528 0.911824 0.365767 -0.15533
C_ C_ 0.414028 0.922103 0.38125 0.02923
C_ C_ 0.395182 0.974253 0.389981 -0.15533
C_ C_ 0.424138 0.0155474 0.384001 0.02923
C_ C_ 0.396189 0.57083 0.388298 0.69207
C_ C_ 0.40459 0.826838 0.380497 0.69661
C_ C_ 0.0789904 0.785364 0.0839327 0.18167
C_ C_ 0.0299107 0.771611 0.0671865 -0.15533
C_ C_ 0.0143982 0.770111 0.0163296 0.02923
C_ C_ 0.0404552 0.792854 0.478659 -0.15533
C_ C_ 0.091588 0.806576 0.00274454 0.18167
C_ C_ 0.209136 0.762724 0.146889 0.18167
C_ C_ 0.228914 0.742397 0.193009 -0.15533
C_ C_ 0.234997 0.775141 0.236373 0.02923
C_ C_ 0.214875 0.826322 0.236085 -0.15533
C_ C_ 0.192777 0.845494 0.187195 0.18167
C_ C_ 0.246113 0.850557 0.0526252 0.69207
C_ C_ 0.274402 0.872695 0.498775 0.02923
C_ C_ 0.257792 0.867729 0.44603 -0.15533
C_ C_ 0.289186 0.871764 0.408109 -0.15533
C_ C_ 0.340027 0.881758 0.421547 0.02923
C_ C_ 0.355409 0.89196 0.473792 -0.15533
C_ C_ 0.325757 0.883076 0.512572 0.02923
C_ C_ 0.35567 0.877382 0.0714573 0.69207
C_ C_ 0.353674 0.883304 0.322949 0.69661
C_ C_ 0.313026 0.937781 0.17837 0.18167
C_ C_ 0.273788 0.962654 0.201438 -0.15533
C_ C_ 0.286134 0.996259 0.24418 0.02923
C_ C_ 0.322077 0.511037 0.250873 -0.15533
C_ C_ 0.374336 0.987689 0.224353 0.18167
C_ C_ 0.490646 0.836867 0.191502 0.18167
C_ C_ 0.0173856 0.801995 0.220129 -0.15533
C_ C_ 0.479006 0.759414 0.227953 0.02923
C_ C_ 0.426747 0.771468 0.221843 -0.15533
C_ C_ 0.406284 0.814444 0.197034 0.18167
C_ C_ 0.489319 0.944746 0.116478 0.69207
C_ C_ 0.0179288 0.49049 0.109747 0.02923
C_ C_ -0.000968181 0.540225 0.11567 -0.15533
C_ C_ 0.0287313 0.578119 0.108481 -0.15533
C_ C_ 0.0797335 0.566789 0.0975405 0.02923
C_ C_ 0.097509 0.516089 0.090592 -0.15533
C_ C_ 0.0688764 0.47861 0.101656 0.02923
C_ C_ 0.104536 0.919783 0.104542 0.69207
C_ C_ 0.101481 0.659966 0.108342 0.69661
C_ C_ 0.437922 0.685894 0.429877 0.18167
C_ C_ 0.478871 0.710218 0.452546 -0.15533
C_ C_ 0.471452 0.74708 0.494483 0.02923
C_ C_ 0.421443 0.747532 0.0167106 -0.15533
C_ C_ 0.384187 0.729485 0.486973 0.18167
C_ C_ 0.257949 0.714552 0.365031 0.18167
C_ C_ 0.231987 0.737031 0.321991 -0.15533
C_ C_ 0.261107 0.751484 0.284028 0.02923
C_ C_ 0.311938 0.726257 0.282248 -0.15533
C_ C_ 0.333117 0.700333 0.324713 0.18167
C_ C_ 0.268897 0.621086 0.458141 0.69207
C_ C_ 0.224878 0.612759 0.990185 0.02923
C_ C_ 0.244355 0.616022 0.0431754 -0.15533
C_ C_ 0.213859 0.608033 0.0804458 -0.15533
C_ C_ 0.161759 0.596868 0.0678677 0.02923
C_ C_ 0.146842 0.585511 0.0164901 -0.15533
C_ C_ 0.172855 0.601389 0.979097 0.02923
C_ C_ 0.158889 0.607247 0.425935 0.69207
C_ C_ 0.144136 0.599057 0.166191 0.69661
C_ C_ 0.376774 0.882135 0.37839 -0.30787
C_ C_ 0.121985 0.603927 0.108575 -0.30787
N_ N_ 0.144984 0.562964 0.314854 -0.32189
N_ N_ 0.0559065 0.640118 0.3164 -0.32189
N_ N_ 0.106291 0.805622 0.0530269 -0.32189
N_ N_ 0.188406 0.81265 0.145208 -0.32189
N_ N_ 0.360749 0.950845 0.18772 -0.32189
N_ N_ 0.438314 0.846801 0.183943 -0.32189
N_ N_ 0.390927 0.698141 0.445402 -0.32189
N_ N_ 0.305665 0.690448 0.362317 -0.32189
O_ O_ 0.504116 0.586123 0.394376 -0.63271
O_ O_ 0.0499411 0.531181 0.346916 -0.57982
O_ O_ 0.391174 0.594483 0.345628 -0.63271
O_ O_ 0.371763 0.591928 0.426609 -0.57982
O_ O_ 0.245705 0.882459 0.0938694 -0.63271
O_ O_ 0.209005 0.82282 0.0392583 -0.57982
O_ O_ 0.356908 0.838551 0.102203 -0.63271
O_ O_ 0.383166 0.913855 0.0871504 -0.57982
O_ O_ 0.993155 0.904765 0.0928079 -0.63271
O_ O_ 0.457509 0.95266 0.153905 -0.57982
O_ O_ 0.0962255 0.888505 0.140133 -0.63271
O_ O_ 0.1395 0.904611 0.0721801 -0.57982
O_ O_ 0.260602 0.603109 0.409823 -0.63271
O_ O_ 0.301588 0.654694 0.468001 -0.57982
O_ O_ 0.161034 0.648531 0.401075 -0.63271
O_ O_ 0.119272 0.581928 0.412704 -0.57982
F_ F_ 0.439728 0.824012 0.422227 -0.20885
F_ F_ 0.433575 0.806529 0.340871 -0.20885
F_ F_ 0.371974 0.790622 0.382493 -0.20885
F_ F_ 0.316688 0.925139 0.31522 -0.20885
F_ F_ 0.332202 0.83986 0.304724 -0.20885
F_ F_ 0.39023 0.885533 0.28901 -0.20885
F_ F_ 0.0740753 0.672437 0.0626593 -0.20885
F_ F_ 0.0750691 0.678074 0.150818 -0.20885
F_ F_ 0.142305 0.689156 0.113537 -0.20885
F_ F_ 0.17842 0.554467 0.168812 -0.20885
F_ F_ 0.17735 0.636502 0.186675 -0.20885
F_ F_ 0.106954 0.598146 0.200361 -0.20885
Zn Zn 0.0871264 0.584508 0.840275 0.83971
Zn Zn 0.155687 0.840571 0.576835 0.83971
Zn Zn 0.407124 0.917735 0.646951 0.83971
Zn Zn 0.333885 0.656848 0.910391 0.83971
H_ H_ 0.162898 0.628792 0.796315 0.10394
H_ H_ 0.238643 0.597559 0.754973 0.10394
H_ H_ 0.212732 0.944459 0.780228 0.10394
H_ H_ 0.139194 0.481708 0.828587 0.10394
H_ H_ 0.519496 0.602837 0.756095 0.10394
H_ H_ 0.476055 0.675297 0.710717 0.10394
H_ H_ 0.0252853 0.764504 0.82677 0.10394
H_ H_ 0.0678732 0.691218 0.870097 0.10394
H_ H_ 0.0297447 0.956545 0.878879 0.10394
H_ H_ 0.474467 0.880795 0.875369 0.10394
H_ H_ 0.346983 0.99256 0.901382 0.10394
H_ H_ 0.0734687 0.80994 0.624365 0.10394
H_ H_ 0.501725 0.77343 0.593989 0.10394
H_ H_ 0.0387935 0.792053 0.944029 0.10394
H_ H_ 0.111683 0.815254 0.471195 0.10394
H_ H_ 0.206315 0.741048 0.58329 0.10394
H_ H_ 0.247514 0.69094 0.655578 0.10394
H_ H_ 0.240938 0.829259 0.749762 0.10394
H_ H_ 0.194333 0.873943 0.678546 0.10394
H_ H_ 0.219909 0.844582 0.945275 0.10394
H_ H_ 0.25778 0.8841 0.881811 0.10394
H_ H_ 0.394236 0.893128 0.987167 0.10394
H_ H_ 0.298555 0.917863 0.642859 0.10394
H_ H_ 0.231728 0.962465 0.680662 0.10394
H_ H_ 0.330198 0.545822 0.775708 0.10394
H_ H_ 0.402163 -0.00426783 0.742401 0.10394
H_ H_ 0.0108367 0.880002 0.697249 0.10394
H_ H_ 0.0461972 0.810696 0.745805 0.10394
H_ H_ 0.412548 0.764073 0.740949 0.10394
H_ H_ 0.373977 0.834309 0.691665 0.10394
H_ H_ 0.46342 0.551736 0.634106 0.10394
H_ H_ 0.0156902 0.626742 0.618044 0.10394
H_ H_ 0.123334 0.508552 0.560518 0.10394
H_ H_ 0.435584 0.673797 0.885164 0.10394
H_ H_ 0.0149431 0.696812 0.93669 0.10394
H_ H_ 0.417411 0.78913 0.535852 0.10394
H_ H_ 0.35377 0.713904 0.0146307 0.10394
H_ H_ 0.229228 0.690038 0.864319 0.10394
H_ H_ 0.197244 0.738838 0.788649 0.10394
H_ H_ 0.343613 0.728823 0.737794 0.10394
H_ H_ 0.381495 0.690974 0.820663 0.10394
H_ H_ 0.292029 0.605778 0.562678 0.10394
H_ H_ 0.234478 0.59347 0.624806 0.10394
H_ H_ 0.110316 0.594326 0.506931 0.10394
C_ C_ 0.173836 0.590111 0.794701 0.18167
C_ C_ 0.219168 0.571845 0.775844 -0.15533
C_ C_ 0.233953 0.518293 0.769011 0.02923
C_ C_ 0.200573 0.984976 0.782512 -0.15533
C_ C_ 0.160543 0.506211 0.812828 0.18167
C_ C_ 0.0212849 0.632659 0.763606 0.18167
C_ C_ 0.503887 0.682804 0.743122 -0.15533
C_ C_ 0.0015893 0.724753 0.758792 0.02923
C_ C_ 0.0240557 0.728732 0.808252 -0.15533
C_ C_ 0.0521317 0.687122 0.831225 0.18167
C_ C_ 0.0026051 0.554115 0.863369 0.69207
C_ C_ 0.467608 0.00664189 0.875588 0.02923
C_ C_ 0.484901 0.955887 0.866775 -0.15533
C_ C_ 0.455923 0.920224 0.879025 -0.15533
C_ C_ 0.4044 0.928771 0.88933 0.02923
C_ C_ 0.388583 0.97988 0.901876 -0.15533
C_ C_ 0.419323 0.0195395 0.896542 0.02923
C_ C_ 0.395679 0.575915 0.878817 0.69207
C_ C_ 0.395498 0.830014 0.88398 0.69661
C_ C_ 0.068308 0.801536 0.584895 0.18167
C_ C_ 0.0214089 0.785295 0.566262 -0.15533
C_ C_ 0.00808418 0.775404 0.513592 0.02923
C_ C_ 0.0469951 0.788339 0.983185 -0.15533
C_ C_ 0.0889863 0.806174 0.498351 0.18167
C_ C_ 0.218634 0.759689 0.61887 0.18167
C_ C_ 0.2405 0.731618 0.662272 -0.15533
C_ C_ 0.249344 0.756642 0.709623 0.02923
C_ C_ 0.238848 0.810306 0.713431 -0.15533
C_ C_ 0.210692 0.835483 0.672612 0.18167
C_ C_ 0.237391 0.868785 0.537239 0.69207
C_ C_ 0.277635 0.861773 0.00861266 0.02923
C_ C_ 0.257997 0.854858 0.956672 -0.15533
C_ C_ 0.281768 0.873905 0.915831 -0.15533
C_ C_ 0.330839 0.88869 0.926228 0.02923
C_ C_ 0.353555 0.888757 0.978187 -0.15533
C_ C_ 0.327655 0.877524 0.0200522 0.02923
C_ C_ 0.350701 0.884276 0.566676 0.69207
C_ C_ 0.340568 0.891814 0.833157 0.69661
C_ C_ 0.308138 0.944782 0.672461 0.18167
C_ C_ 0.268368 0.966049 0.699418 -0.15533
C_ C_ 0.277226 0.999676 0.739302 0.02923
C_ C_ 0.324203 0.515336 0.747159 -0.15533
C_ C_ 0.365857 0.988805 0.73031 0.18167
C_ C_ 0.495521 0.856365 0.688567 0.18167
C_ C_ 0.008237 0.811164 0.729585 -0.15533
C_ C_ 0.490134 0.779011 0.733635 0.02923
C_ C_ 0.437239 0.78588 0.7223 -0.15533
C_ C_ 0.4146 0.826392 0.692774 0.18167
C_ C_ 0.483886 0.957601 0.610961 0.69207
C_ C_ 0.0203851 0.497641 0.623067 0.02923
C_ C_ 1.00308713 0.550136 0.627802 -0.15533
C_ C_ 0.0318794 0.586729 0.614409 -0.15533
C_ C_ 0.0811383 0.574552 0.600487 0.02923
C_ C_ 0.0948863 0.520945 0.588011 -0.15533
C_ C_ 0.0717296 0.48371 0.610572 0.02923
C_ C_ 0.0941513 0.923761 0.60585 0.69207
C_ C_ 0.101834 0.66742 0.608258 0.69661
C_ C_ 0.432077 0.692278 0.922815 0.18167
C_ C_ 0.472926 0.713225 0.949765 -0.15533
C_ C_ 0.467045 0.743838 -0.005842000000000014 0.02923
C_ C_ 0.42419 0.758587 0.507444 -0.15533
C_ C_ 0.380879 0.721867 0.991502 0.18167
C_ C_ 0.256338 0.701175 0.838773 0.18167
C_ C_ 0.236914 0.72013 0.790781 -0.15533
C_ C_ 0.268002 0.729217 0.75505 0.02923
C_ C_ 0.320016 0.720529 0.767447 -0.15533
C_ C_ 0.340339 0.701983 0.814759 0.18167
C_ C_ 0.257071 0.624792 0.949685 0.69207
C_ C_ 0.233571 0.611004 0.49526 0.02923
C_ C_ 0.251435 0.608296 0.549915 -0.15533
C_ C_ 0.216764 0.600063 0.58473 -0.15533
C_ C_ 0.164704 0.601137 0.569572 0.02923
C_ C_ 0.148237 0.601988 0.517782 -0.15533
C_ C_ 0.180926 0.606176 0.479667 0.02923
C_ C_ 0.143846 0.6112 0.929591 0.69207
C_ C_ 0.143298 0.604594 0.664932 0.69661
C_ C_ 0.367736 0.88656 0.884848 -0.30787
C_ C_ 0.122879 0.612031 0.609505 -0.30787
N_ N_ 0.147804 0.557535 0.814417 -0.32189
N_ N_ 0.0529049 0.63953 0.808535 -0.32189
N_ N_ 0.10259 0.804223 0.550097 -0.32189
N_ N_ 0.198724 0.808402 0.628673 -0.32189
N_ N_ 0.356043 0.955895 0.687816 -0.32189
N_ N_ 0.442457 0.862288 0.679634 -0.32189
N_ N_ 0.387024 0.694724 0.945686 -0.32189
N_ N_ 0.308474 0.68842 0.848725 -0.32189
O_ O_ 0.500483 0.60301 0.892892 -0.63271
O_ O_ 0.0407353 0.541508 0.835927 -0.57982
O_ O_ 0.400786 0.600443 0.838438 -0.63271
O_ O_ 0.36532 0.594457 0.913939 -0.57982
O_ O_ 0.233851 0.900441 0.577924 -0.63271
O_ O_ 0.202684 0.836356 0.528248 -0.57982
O_ O_ 0.364513 0.842724 0.591996 -0.63271
O_ O_ 0.365497 0.925646 0.587167 -0.57982
O_ O_ 0.991029 0.909691 0.594034 -0.63271
O_ O_ 0.45067 0.966213 0.64492 -0.57982
O_ O_ 0.0969668 0.897351 0.648436 -0.63271
O_ O_ 0.123422 0.906978 0.570427 -0.57982
O_ O_ 0.256729 0.595421 0.90661 -0.63271
O_ O_ 0.287916 0.660942 0.95641 -0.57982
O_ O_ 0.152057 0.64824 0.903145 -0.63271
O_ O_ 0.110263 0.581678 0.908926 -0.57982
F_ F_ 0.432984 0.821204 0.923441 -0.20885
F_ F_ 0.420922 0.811366 0.839813 -0.20885
F_ F_ 0.361045 0.796877 0.888594 -0.20885
F_ F_ 0.302399 0.930412 0.826632 -0.20885
F_ F_ 0.318982 0.848662 0.815102 -0.20885
F_ F_ 0.36981 0.895233 0.794865 -0.20885
F_ F_ 0.0658572 0.675745 0.566557 -0.20885
F_ F_ 0.0739169 0.684892 0.648637 -0.20885
F_ F_ 0.140997 0.698402 0.607827 -0.20885
F_ F_ 0.172786 0.556306 0.666107 -0.20885
F_ F_ 0.17632 0.64085 0.684303 -0.20885
F_ F_ 0.105052 0.604965 0.698384 -0.20885
Zn Zn 0.594681 0.0829289 0.352655 0.83971
Zn Zn 0.658501 0.338478 0.083376 0.83971
Zn Zn 0.907514 0.418138 0.157026 0.83971
Zn Zn 0.846456 0.15847 0.416803 0.83971
H_ H_ 0.680339 0.131408 0.31546 0.10394
H_ H_ 0.756541 0.0968345 0.26948 0.10394
H_ H_ 0.703376 0.443334 0.277435 0.10394
H_ H_ 0.629625 0.986949 0.310084 0.10394
H_ H_ 0.024017 0.0924019 0.253744 0.10394
H_ H_ 0.9772967 0.170197 0.208047 0.10394
H_ H_ 0.532463 0.270901 0.343354 0.10394
H_ H_ 0.570087 0.197379 0.390759 0.10394
H_ H_ 0.530916 0.445793 0.356013 0.10394
H_ H_ 0.988881 0.376972 0.38503 0.10394
H_ H_ 0.864307 0.486282 0.420344 0.10394
H_ H_ 0.575444 0.301325 0.136436 0.10394
H_ H_ 1.0086491 0.269963 0.0993025 0.10394
H_ H_ 0.540966 0.274646 0.44846 0.10394
H_ H_ 0.612098 0.324514 0.984518 0.10394
H_ H_ 0.718646 0.241568 0.105403 0.10394
H_ H_ 0.747542 0.200532 0.18767 0.10394
H_ H_ 0.727324 0.338297 0.267685 0.10394
H_ H_ 0.678925 0.376462 0.188981 0.10394
H_ H_ 0.720897 0.378863 0.449972 0.10394
H_ H_ 0.780135 0.367106 0.383503 0.10394
H_ H_ 0.909778 0.371826 0.494654 0.10394
H_ H_ 0.809669 0.384782 0.170329 0.10394
H_ H_ 0.729477 0.442049 0.19709 0.10394
H_ H_ 0.837818 0.0362971 0.283148 0.10394
H_ H_ 0.899957 0.487908 0.245067 0.10394
H_ H_ 0.511757 0.38644 0.203704 0.10394
H_ H_ 0.554718 0.310846 0.246886 0.10394
H_ H_ 0.910959 0.245307 0.23144 0.10394
H_ H_ 0.867663 0.322091 0.187027 0.10394
H_ H_ 0.96478 0.049274 0.094891 0.10394
H_ H_ 0.51393 0.111612 0.108093 0.10394
H_ H_ 0.644223 0.0047812 0.0958444 0.10394
H_ H_ 0.950661 0.170412 0.392646 0.10394
H_ H_ 0.521529 0.182324 0.459007 0.10394
H_ H_ 0.929836 0.269767 0.0626129 0.10394
H_ H_ 0.854651 0.226059 0.505916 0.10394
H_ H_ 0.740823 0.207228 0.399188 0.10394
H_ H_ 0.696797 0.248713 0.320943 0.10394
H_ H_ 0.832542 0.232856 0.247106 0.10394
H_ H_ 0.875865 0.183373 0.31951 0.10394
H_ H_ 0.780414 0.135246 0.0628138 0.10394
H_ H_ 0.722067 0.13242 0.123832 0.10394
H_ H_ 0.606479 0.0817258 0.0064787 0.10394
C_ C_ 0.685887 0.091767 0.302693 0.18167
C_ C_ 0.728797 0.0725135 0.276578 -0.15533
C_ C_ 0.73891 0.0186857 0.268585 0.02923
C_ C_ 0.699077 0.484407 0.289102 -0.15533
C_ C_ 0.657303 0.010196 0.301311 0.18167
C_ C_ 0.534501 0.135692 0.275664 0.18167
C_ C_ 0.00153273 0.174962 0.241755 -0.15533
C_ C_ 0.516213 0.228476 0.270381 0.02923
C_ C_ 0.539313 0.23359 0.321613 -0.15533
C_ C_ 0.55695 0.191245 0.350394 0.18167
C_ C_ 0.509813 0.0427704 0.368834 0.69207
C_ C_ 0.978556 0.503537 0.381782 0.02923
C_ C_ 0.997463 0.451251 0.382241 -0.15533
C_ C_ 0.969155 0.413247 0.390198 -0.15533
C_ C_ 0.91852 0.422797 0.4002 0.02923
C_ C_ 0.902605 0.475527 0.410438 -0.15533
C_ C_ 0.927673 0.514581 0.393288 0.02923
C_ C_ 0.89642 0.0757426 0.380393 0.69207
C_ C_ 0.907849 0.327494 0.381756 0.69661
C_ C_ 0.566451 0.298524 0.0944952 0.18167
C_ C_ 0.520877 0.283033 0.0746607 -0.15533
C_ C_ 0.511481 0.274516 0.021103 0.02923
C_ C_ 0.548365 0.283007 0.489122 -0.15533
C_ C_ 0.589408 0.306626 0.00997463 0.18167
C_ C_ 0.718266 0.263353 0.141445 0.18167
C_ C_ 0.73722 0.239726 0.186498 -0.15533
C_ C_ 0.733628 0.2647 0.233073 0.02923
C_ C_ 0.717388 0.317254 0.23383 -0.15533
C_ C_ 0.694426 0.337987 0.188123 0.18167
C_ C_ 0.735547 0.370951 0.0455047 0.69207
C_ C_ 0.779657 0.375086 0.511526 0.02923
C_ C_ 0.761873 0.372985 0.459227 -0.15533
C_ C_ 0.793266 0.377208 0.421363 -0.15533
C_ C_ 0.845746 0.384774 0.433369 0.02923
C_ C_ 0.867232 0.379693 0.485627 -0.15533
C_ C_ 0.833487 0.373821 0.523837 0.02923
C_ C_ 0.848687 0.386731 0.0750591 0.69207
C_ C_ 0.854596 0.394014 0.337713 0.69661
C_ C_ 0.809521 0.424044 0.186121 0.18167
C_ C_ 0.769359 0.449193 0.210282 -0.15533
C_ C_ 0.776214 0.490242 0.24479 0.02923
C_ C_ 0.831563 0.0104196 0.248696 -0.15533
C_ C_ 0.863685 0.480244 0.231408 0.18167
C_ C_ 0.988794 0.350478 0.193921 0.18167
C_ C_ 0.513642 0.315804 0.24021 -0.15533
C_ C_ 0.986673 0.268254 0.228446 0.02923
C_ C_ 0.933537 0.273041 0.216673 -0.15533
C_ C_ 0.908216 0.316765 0.193507 0.18167
C_ C_ 0.985562 0.451496 0.119832 0.69207
C_ C_ 0.523311 0.983274 0.106901 0.02923
C_ C_ 0.501417 0.0356645 0.108248 -0.15533
C_ C_ 0.532683 0.0744459 0.105125 -0.15533
C_ C_ 0.583313 0.0652852 0.0988954 0.02923
C_ C_ 0.605122 0.0141 0.0959343 -0.15533
C_ C_ 0.576591 0.974106 0.101439 0.02923
C_ C_ 0.596803 0.42136 0.102108 0.69207
C_ C_ 0.59458 0.1646 0.115665 0.69661
C_ C_ 0.943679 0.190441 0.426618 0.18167
C_ C_ 0.985968 0.208789 0.454787 -0.15533
C_ C_ 0.979321 0.241148 0.499284 0.02923
C_ C_ 0.932817 0.247905 0.0278477 -0.15533
C_ C_ 0.891036 0.222044 0.491048 0.18167
C_ C_ 0.761638 0.208406 0.362539 0.18167
C_ C_ 0.737048 0.235569 0.322227 -0.15533
C_ C_ 0.760546 0.241042 0.279323 0.02923
C_ C_ 0.811204 0.223209 0.278193 -0.15533
C_ C_ 0.837196 0.201933 0.322535 0.18167
C_ C_ 0.771006 0.123884 0.457954 0.69207
C_ C_ 0.723547 0.124918 0.996162 0.02923
C_ C_ 0.741985 0.123184 0.0488137 -0.15533
C_ C_ 0.709299 0.118129 0.0858684 -0.15533
C_ C_ 0.65931 0.104194 0.0719852 0.02923
C_ C_ 0.642905 0.0989375 0.0195008 -0.15533
C_ C_ 0.673666 0.110204 0.982704 0.02923
C_ C_ 0.661469 0.10407 0.429411 0.69207
C_ C_ 0.645056 0.100364 0.165222 0.69661
C_ C_ 0.880589 0.383031 0.390036 -0.30787
C_ C_ 0.619811 0.108467 0.110669 -0.30787
N_ N_ 0.648765 0.060678 0.306751 -0.32189
N_ N_ 0.557076 0.14229 0.326616 -0.32189
N_ N_ 0.60205 0.308384 0.0619937 -0.32189
N_ N_ 0.692529 0.310558 0.144591 -0.32189
N_ N_ 0.855263 0.442881 0.193931 -0.32189
N_ N_ 0.93738 0.354783 0.1853 -0.32189
N_ N_ 0.898584 0.196314 0.44636 -0.32189
N_ N_ 0.810499 0.189499 0.359818 -0.32189
O_ O_ -0.002403000000000044 0.0955634 0.373785 -0.63271
O_ O_ 0.547796 0.0342154 0.339147 -0.57982
O_ O_ 0.884227 0.101283 0.338763 -0.63271
O_ O_ 0.883239 0.0987876 0.421621 -0.57982
O_ O_ 0.742512 0.39034 0.0930033 -0.63271
O_ O_ 0.705526 0.334427 0.037105 -0.57982
O_ O_ 0.849375 0.345002 0.101326 -0.63271
O_ O_ 0.876371 0.42382 0.0963685 -0.57982
O_ O_ 0.486888 0.403097 0.0943729 -0.63271
O_ O_ 0.953614 0.462543 0.155051 -0.57982
O_ O_ 0.589621 0.397558 0.142604 -0.63271
O_ O_ 0.636539 0.405683 0.0783134 -0.57982
O_ O_ 0.764519 0.102559 0.411722 -0.63271
O_ O_ 0.808815 0.152676 0.466851 -0.57982
O_ O_ 0.655442 0.148726 0.409027 -0.63271
O_ O_ 0.627206 0.0738965 0.41471 -0.57982
F_ F_ 0.942032 0.314747 0.424524 -0.20885
F_ F_ 0.935488 0.319516 0.342368 -0.20885
F_ F_ 0.873496 0.291311 0.374506 -0.20885
F_ F_ 0.820362 0.439272 0.344339 -0.20885
F_ F_ 0.831145 0.352599 0.315353 -0.20885
F_ F_ 0.889093 0.39917 0.302895 -0.20885
F_ F_ 0.564493 0.175173 0.070937 -0.20885
F_ F_ 0.564657 0.169699 0.155025 -0.20885
F_ F_ 0.627108 0.203212 0.121281 -0.20885
F_ F_ 0.684555 0.058146 0.171289 -0.20885
F_ F_ 0.666634 0.142688 0.190342 -0.20885
F_ F_ 0.611682 0.0880714 0.200886 -0.20885
Zn Zn 0.586783 0.0807759 0.847896 0.83971
Zn Zn 0.660379 0.345359 0.585457 0.83971
Zn Zn 0.909071 0.420023 0.662348 0.83971
Zn Zn 0.835651 0.163212 0.926121 0.83971
H_ H_ 0.66416 0.129169 0.814046 0.10394
H_ H_ 0.745175 0.0983879 0.78268 0.10394
H_ H_ 0.713723 0.450847 0.790272 0.10394
H_ H_ 0.634731 0.978231 0.833568 0.10394
H_ H_ 0.0276186 0.102565 0.754519 0.10394
H_ H_ 0.98274 0.183772 0.716122 0.10394
H_ H_ 0.510928 0.258822 0.854198 0.10394
H_ H_ 0.565834 0.185922 0.883314 0.10394
H_ H_ 0.540413 0.458807 0.895655 0.10394
H_ H_ 0.97961 0.383504 0.878989 0.10394
H_ H_ 0.846479 0.492767 0.876523 0.10394
H_ H_ 0.585369 0.305211 0.633078 0.10394
H_ H_ 0.01151 0.265673 0.601208 0.10394
H_ H_ 0.541263 0.283176 0.947115 0.10394
H_ H_ 0.619485 0.318284 0.482558 0.10394
H_ H_ 0.713019 0.253448 0.606855 0.10394
H_ H_ 0.754486 0.207204 0.686241 0.10394
H_ H_ 0.706522 0.342803 0.774063 0.10394
H_ H_ 0.683867 0.388193 0.692879 0.10394
H_ H_ 0.715547 0.382691 0.941254 0.10394
H_ H_ 0.764741 0.408856 0.882279 0.10394
H_ H_ 0.890555 0.412798 0.993773 0.10394
H_ H_ 0.804779 0.39555 0.673976 0.10394
H_ H_ 0.735042 0.455113 0.700061 0.10394
H_ H_ 0.823192 0.0471017 0.772201 0.10394
H_ H_ 0.911408 0.497432 0.747406 0.10394
H_ H_ 0.507864 0.38717 0.716869 0.10394
H_ H_ 0.546588 0.309546 0.762836 0.10394
H_ H_ 0.912366 0.252528 0.736312 0.10394
H_ H_ 0.87232 0.332811 0.696358 0.10394
H_ H_ 0.963312 0.0587369 0.612731 0.10394
H_ H_ 0.519749 0.124365 0.61253 0.10394
H_ H_ 0.644187 0.00582908 0.589441 0.10394
H_ H_ 0.930849 0.176222 0.898025 0.10394
H_ H_ 0.516487 0.189869 0.95325 0.10394
H_ H_ 0.927261 0.268991 0.552846 0.10394
H_ H_ 0.85435 0.230549 0.0246278 0.10394
H_ H_ 0.733475 0.197714 0.890877 0.10394
H_ H_ 0.688521 0.236992 0.815552 0.10394
H_ H_ 0.831305 0.243555 0.75805 0.10394
H_ H_ 0.874453 0.199073 0.829953 0.10394
H_ H_ 0.789038 0.132884 0.560399 0.10394
H_ H_ 0.731203 0.122521 0.625817 0.10394
H_ H_ 0.613803 0.0875028 0.51113 0.10394
C_ C_ 0.673296 0.0880433 0.804637 0.18167
C_ C_ 0.719679 0.0694845 0.786519 -0.15533
C_ C_ 0.728583 0.0174946 0.772305 0.02923
C_ C_ 0.703058 0.491879 0.792536 -0.15533
C_ C_ 0.654638 0.00209649 0.812315 0.18167
C_ C_ 0.53621 0.13958 0.768441 0.18167
C_ C_ 0.00634248 0.18567 0.751087 -0.15533
C_ C_ 0.499726 0.226437 0.775042 0.02923
C_ C_ 0.518773 0.226445 0.82673 -0.15533
C_ C_ 0.54726 0.183097 0.846973 0.18167
C_ C_ 0.503257 0.0440882 0.864205 0.69207
C_ C_ 0.968308 0.515335 0.87186 0.02923
C_ C_ 0.989545 0.462473 0.871471 -0.15533
C_ C_ 0.95959 0.422778 0.880439 -0.15533
C_ C_ 0.907551 0.434819 0.888833 0.02923
C_ C_ 0.886921 0.484962 0.879868 -0.15533
C_ C_ 0.91531 0.527628 0.873838 0.02923
C_ C_ 0.8826 0.0790006 0.884322 0.69207
C_ C_ 0.903884 0.339807 0.910804 0.69661
C_ C_ 0.575592 0.294683 0.593459 0.18167
C_ C_ 0.530631 0.27131 0.575596 -0.15533
C_ C_ 0.515772 0.266795 0.523004 0.02923
C_ C_ 0.546487 0.285706 0.988217 -0.15533
C_ C_ 0.594908 0.301595 0.506297 0.18167
C_ C_ 0.712335 0.269808 0.645035 0.18167
C_ C_ 0.73507 0.244409 0.689194 -0.15533
C_ C_ 0.729791 0.272507 0.733785 0.02923
C_ C_ 0.708925 0.322809 0.736605 -0.15533
C_ C_ 0.693242 0.347089 0.691334 0.18167
C_ C_ 0.744772 0.369831 0.550331 0.69207
C_ C_ 0.773026 0.37803 1.00741478 0.02923
C_ C_ 0.752239 0.386296 0.956507 -0.15533
C_ C_ 0.782053 0.40358 0.920109 -0.15533
C_ C_ 0.834151 0.407201 0.933668 0.02923
C_ C_ 0.851458 0.407986 0.985143 -0.15533
C_ C_ 0.824006 0.387794 0.022238 0.02923
C_ C_ 0.856991 0.372562 0.577545 0.69207
C_ C_ 0.847007 0.375842 0.841666 0.69661
C_ C_ 0.813729 0.429074 0.695865 0.18167
C_ C_ 0.77296 0.46195 0.714526 -0.15533
C_ C_ 0.782428 0.501497 0.749823 0.02923
C_ C_ 0.818211 0.0176592 0.74192 -0.15533
C_ C_ 0.873504 0.484367 0.741278 0.18167
C_ C_ 0.994452 0.353903 0.702299 0.18167
C_ C_ 0.506515 0.314424 0.750554 -0.15533
C_ C_ 0.987166 0.279942 0.748728 0.02923
C_ C_ 0.935664 0.282536 0.732581 -0.15533
C_ C_ 0.913748 0.326312 0.705082 0.18167
C_ C_ 0.986437 0.458325 0.62585 0.69207
C_ C_ 0.51749 0.99592 0.598485 0.02923
C_ C_ 0.502926 0.0481635 0.60642 -0.15533
C_ C_ 0.53719 0.0839352 0.611356 -0.15533
C_ C_ 0.588302 0.07106 0.600228 0.02923
C_ C_ 0.603288 0.0180866 0.589389 -0.15533
C_ C_ 0.569922 0.981841 0.589409 0.02923
C_ C_ 0.590653 0.42099 0.598991 0.69207
C_ C_ 0.609086 0.163901 0.607889 0.69661
C_ C_ 0.933439 0.192885 0.934955 0.18167
C_ C_ 0.978975 0.208086 0.958352 -0.15533
C_ C_ 0.976718 0.244595 0.000998569 0.02923
C_ C_ 0.932091 0.246116 0.518404 -0.15533
C_ C_ 0.889801 0.226616 1.00461941 0.18167
C_ C_ 0.75562 0.213303 0.863777 0.18167
C_ C_ 0.729837 0.237963 0.821685 -0.15533
C_ C_ 0.757393 0.249772 0.782788 0.02923
C_ C_ 0.811951 0.235733 0.788548 -0.15533
C_ C_ 0.834203 0.208637 0.828728 0.18167
C_ C_ 0.758867 0.133952 0.956969 0.69207
C_ C_ 0.735678 0.116401 0.495234 0.02923
C_ C_ 0.752897 0.119767 0.547685 -0.15533
C_ C_ 0.717998 0.116171 0.584915 -0.15533
C_ C_ 0.670116 0.10112 0.573402 0.02923
C_ C_ 0.65307 0.0952283 0.521054 -0.15533
C_ C_ 0.68509 0.101288 0.482989 0.02923
C_ C_ 0.650161 0.107592 0.92768 0.69207
C_ C_ 0.651566 0.101135 0.670282 0.69661
C_ C_ 0.87333 0.390906 0.894427 -0.30787
C_ C_ 0.630315 0.108274 0.612162 -0.30787
N_ N_ 0.640419 0.0534794 0.816555 -0.32189
N_ N_ 0.5507 0.139727 0.819841 -0.32189
N_ N_ 0.606204 0.308274 0.557698 -0.32189
N_ N_ 0.688533 0.31807 0.647401 -0.32189
N_ N_ 0.86151 0.44426 0.708439 -0.32189
N_ N_ 0.943549 0.3595 0.69213 -0.32189
N_ N_ 0.890672 0.198401 0.959668 -0.32189
N_ N_ 0.806526 0.196416 0.865371 -0.32189
O_ O_ -0.0040839999999999765 0.103025 0.876248 -0.63271
O_ O_ 0.542206 0.0314702 0.834745 -0.57982
O_ O_ 0.885944 0.106366 0.844756 -0.63271
O_ O_ 0.859483 0.0987507 0.923403 -0.57982
O_ O_ 0.738644 0.404897 0.587093 -0.63271
O_ O_ 0.710827 0.336843 0.542998 -0.57982
O_ O_ 0.853715 0.335606 0.606453 -0.63271
O_ O_ 0.87455 0.414856 0.597639 -0.57982
O_ O_ 0.485101 0.401194 0.603882 -0.63271
O_ O_ 0.946892 0.469555 0.652179 -0.57982
O_ O_ 0.59455 0.397062 0.642904 -0.63271
O_ O_ 0.622642 0.40412 0.565931 -0.57982
O_ O_ 0.755744 0.109081 0.912297 -0.63271
O_ O_ 0.795505 0.162888 0.971772 -0.57982
O_ O_ 0.64595 0.148894 0.904796 -0.63271
O_ O_ 0.620442 0.0712791 0.911078 -0.57982
F_ F_ 0.940811 0.34364 0.953928 -0.20885
F_ F_ 0.930867 0.311598 0.875279 -0.20885
F_ F_ 0.871647 0.306184 0.920732 -0.20885
F_ F_ 0.819552 0.417151 0.819109 -0.20885
F_ F_ 0.814199 0.338147 0.841021 -0.20885
F_ F_ 0.883571 0.362043 0.807968 -0.20885
F_ F_ 0.576965 0.171585 0.565 -0.20885
F_ F_ 0.583707 0.181859 0.648118 -0.20885
F_ F_ 0.646806 0.196116 0.605363 -0.20885
F_ F_ 0.684357 0.0571116 0.677691 -0.20885
F_ F_ 0.679855 0.139607 0.694448 -0.20885
F_ F_ 0.612925 0.100387 0.701085 -0.20885
Zn Zn 0.588077 0.581098 0.349052 0.83971
Zn Zn 0.660302 0.842032 0.079385 0.83971
Zn Zn 0.913379 0.911351 0.155301 0.83971
Zn Zn 0.838143 0.651436 0.413023 0.83971
H_ H_ 0.670898 0.630187 0.305223 0.10394
H_ H_ 0.738819 0.594669 0.256456 0.10394
H_ H_ 0.711415 0.948308 0.285766 0.10394
H_ H_ 0.625307 0.483366 0.314527 0.10394
H_ H_ 0.0239058 0.592331 0.256633 0.10394
H_ H_ 0.986753 0.669595 0.207913 0.10394
H_ H_ 0.539082 0.766615 0.315406 0.10394
H_ H_ 0.584161 0.695222 0.3644 0.10394
H_ H_ 0.526442 0.941678 0.343938 0.10394
H_ H_ 0.971118 0.881107 0.374226 0.10394
H_ H_ 0.845936 0.997096 0.386056 0.10394
H_ H_ 0.574395 0.803336 0.128556 0.10394
H_ H_ 1.00722 0.761664 0.0959819 0.10394
H_ H_ 0.53502 0.792741 0.441996 0.10394
H_ H_ 0.610075 0.829991 0.983205 0.10394
H_ H_ 0.704179 0.744792 0.0979493 0.10394
H_ H_ 0.758088 0.702207 0.171218 0.10394
H_ H_ 0.729693 0.83896 0.264972 0.10394
H_ H_ 0.680812 0.880596 0.191074 0.10394
H_ H_ 0.711502 0.87376 0.441953 0.10394
H_ H_ 0.764605 0.887814 0.376853 0.10394
H_ H_ 0.88935 0.919769 0.484334 0.10394
H_ H_ 0.813187 0.89043 0.160071 0.10394
H_ H_ 0.739547 0.937886 0.194673 0.10394
H_ H_ 0.830982 0.529257 0.288224 0.10394
H_ H_ 0.912283 0.99211895 0.234598 0.10394
H_ H_ 0.515939 0.866157 0.183862 0.10394
H_ H_ 0.551972 0.786562 0.222622 0.10394
H_ H_ 0.911087 0.761162 0.25598 0.10394
H_ H_ 0.871792 0.837188 0.205973 0.10394
H_ H_ 0.958865 0.549588 0.1138 0.10394
H_ H_ 0.510194 0.610547 0.080653 0.10394
H_ H_ 0.645124 0.500776 0.0798067 0.10394
H_ H_ 0.943157 0.656701 0.389422 0.10394
H_ H_ 0.516178 0.692351 0.445155 0.10394
H_ H_ 0.917698 0.774026 0.0494284 0.10394
H_ H_ 0.848553 0.724519 0.497589 0.10394
H_ H_ 0.728296 0.70279 0.379038 0.10394
H_ H_ 0.694368 0.748179 0.304598 0.10394
H_ H_ 0.840738 0.718719 0.244777 0.10394
H_ H_ 0.878069 0.675092 0.323092 0.10394
H_ H_ 0.774058 0.645928 0.0584703 0.10394
H_ H_ 0.728608 0.607621 0.12107 0.10394
H_ H_ 0.608389 0.576831 0.0012046 0.10394
C_ C_ 0.677939 0.588022 0.297116 0.18167
C_ C_ 0.722909 0.567466 0.278937 -0.15533
C_ C_ 0.733984 0.514603 0.273471 0.02923
C_ C_ 0.703417 0.986901 0.282924 -0.15533
C_ C_ 0.653959 0.507757 0.306011 0.18167
C_ C_ 0.524327 0.623635 0.270844 0.18167
C_ C_ 0.00453652 0.673776 0.245392 -0.15533
C_ C_ 0.502551 0.715654 0.258916 0.02923
C_ C_ 0.534142 0.726598 0.303492 -0.15533
C_ C_ 0.561431 0.685769 0.329588 0.18167
C_ C_ 0.505234 0.544715 0.364428 0.69207
C_ C_ 0.97258 0.00890383 0.366502 0.02923
C_ C_ -0.009561000000000042 0.958227 0.370312 -0.15533
C_ C_ 0.959174 0.922413 0.381966 -0.15533
C_ C_ 0.907915 0.9354 0.387107 0.02923
C_ C_ 0.888252 0.986663 0.387016 -0.15533
C_ C_ 0.920402 0.0232114 0.37968 0.02923
C_ C_ 0.899784 0.565879 0.387571 0.69207
C_ C_ 0.894614 0.834462 0.393446 0.69661
C_ C_ 0.567126 0.796944 0.0893354 0.18167
C_ C_ 0.523649 0.773315 0.0714469 -0.15533
C_ C_ 0.511324 0.771172 0.0173751 0.02923
C_ C_ 0.546453 0.792157 0.483689 -0.15533
C_ C_ 0.587551 0.808575 0.00524865 0.18167
C_ C_ 0.71345 0.767079 0.13401 0.18167
C_ C_ 0.74132 0.741279 0.175703 -0.15533
C_ C_ 0.744925 0.766254 0.223383 0.02923
C_ C_ 0.7268 0.819816 0.228091 -0.15533
C_ C_ 0.70131 0.844567 0.18607 0.18167
C_ C_ 0.742189 0.86872 0.0443142 0.69207
C_ C_ 0.772091 0.886679 0.502968 0.02923
C_ C_ 0.751106 0.884918 0.452845 -0.15533
C_ C_ 0.781892 0.894836 0.416507 -0.15533
C_ C_ 0.835642 0.898042 0.425337 0.02923
C_ C_ 0.85385 0.904006 0.476893 -0.15533
C_ C_ 0.824641 0.891842 0.515892 0.02923
C_ C_ 0.856893 0.883212 0.0701228 0.69207
C_ C_ 0.846809 0.888976 0.327508 0.69661
C_ C_ 0.816981 0.926792 0.182061 0.18167
C_ C_ 0.775868 0.952987 0.20382 -0.15533
C_ C_ 0.782044 0.994705 0.239407 0.02923
C_ C_ 0.824901 0.506964 0.252299 -0.15533
C_ C_ 0.871683 0.985117 0.224331 0.18167
C_ C_ 0.99667073 0.844543 0.191884 0.18167
C_ C_ 0.51151 0.792642 0.214272 -0.15533
C_ C_ 0.986233 0.769839 0.239889 0.02923
C_ C_ 0.935717 0.784718 0.23856 -0.15533
C_ C_ 0.913906 0.824556 0.207945 0.18167
C_ C_ 0.989536 0.949303 0.116732 0.69207
C_ C_ 0.521358 0.487407 0.106785 0.02923
C_ C_ 0.501827 0.538802 0.103144 -0.15533
C_ C_ 0.531375 0.576241 0.0950122 -0.15533
C_ C_ 0.584198 0.564582 0.0906964 0.02923
C_ C_ 0.606654 0.511994 0.0914757 -0.15533
C_ C_ 0.573377 0.473843 0.0944277 0.02923
C_ C_ 0.604332 0.92166 0.104983 0.69207
C_ C_ 0.595251 0.661077 0.0982343 0.69661
C_ C_ 0.937271 0.681506 0.423138 0.18167
C_ C_ 0.978797 0.702976 0.447961 -0.15533
C_ C_ 0.972193 0.737609 0.491832 0.02923
C_ C_ 0.922324 0.754183 1.0123792 -0.15533
C_ C_ 0.883435 0.718929 0.483228 0.18167
C_ C_ 0.755281 0.709482 0.351675 0.18167
C_ C_ 0.736209 0.737579 0.311446 -0.15533
C_ C_ 0.766546 0.740643 0.271143 0.02923
C_ C_ 0.818727 0.722055 0.276635 -0.15533
C_ C_ 0.837126 0.694023 0.320622 0.18167
C_ C_ 0.76151 0.62067 0.452552 0.69207
C_ C_ 0.72866 0.612947 0.991019 0.02923
C_ C_ 0.741492 0.623368 0.044179 -0.15533
C_ C_ 0.711893 0.61159 0.08201 -0.15533
C_ C_ 0.660761 0.600745 0.0680307 0.02923
C_ C_ 0.646495 0.589763 0.0155032 -0.15533
C_ C_ 0.677161 0.600754 0.976955 0.02923
C_ C_ 0.648642 0.60514 0.424033 0.69207
C_ C_ 0.637502 0.60599 0.160851 0.69661
C_ C_ 0.871137 0.890519 0.380934 -0.30787
C_ C_ 0.618522 0.607833 0.103547 -0.30787
N_ N_ 0.643996 0.557858 0.312323 -0.32189
N_ N_ 0.551889 0.637265 0.314656 -0.32189
N_ N_ 0.601404 0.808792 0.0564355 -0.32189
N_ N_ 0.694941 0.816761 0.139799 -0.32189
N_ N_ 0.861299 0.945722 0.1903 -0.32189
N_ N_ 0.944346 0.852622 0.185534 -0.32189
N_ N_ 0.889057 0.691754 0.439673 -0.32189
N_ N_ 0.80655 0.691098 0.357643 -0.32189
O_ O_ 0.0102228 0.587701 0.399415 -0.63271
O_ O_ 0.544853 0.532268 0.338338 -0.57982
O_ O_ 0.899325 0.58787 0.342553 -0.63271
O_ O_ 0.870841 0.587086 0.422482 -0.57982
O_ O_ 0.745399 0.89359 0.0897787 -0.63271
O_ O_ 0.702964 0.842245 0.029881 -0.57982
O_ O_ 0.853866 0.841937 0.0910371 -0.63271
O_ O_ 0.890254 0.914812 0.0895788 -0.57982
O_ O_ 0.494772 0.898041 0.0930156 -0.63271
O_ O_ 0.956504 0.960616 0.149966 -0.57982
O_ O_ 0.603701 0.896621 0.145556 -0.63271
O_ O_ 0.637689 0.906399 0.0749301 -0.57982
O_ O_ 0.75844 0.599105 0.407165 -0.63271
O_ O_ 0.7917 0.656583 0.461001 -0.57982
O_ O_ 0.649954 0.642718 0.394576 -0.63271
O_ O_ 0.614222 0.573796 0.409588 -0.57982
F_ F_ 0.929017 0.832188 0.439237 -0.20885
F_ F_ 0.923404 0.80789 0.354633 -0.20885
F_ F_ 0.86146 0.799209 0.402444 -0.20885
F_ F_ 0.811679 0.929925 0.322988 -0.20885
F_ F_ 0.821497 0.846972 0.317759 -0.20885
F_ F_ 0.879962 0.886871 0.290834 -0.20885
F_ F_ 0.567726 0.666927 0.0486984 -0.20885
F_ F_ 0.557033 0.676432 0.129552 -0.20885
F_ F_ 0.628568 0.698664 0.101409 -0.20885
F_ F_ 0.672794 0.562544 0.168615 -0.20885
F_ F_ 0.662033 0.647164 0.180162 -0.20885
F_ F_ 0.59962 0.601681 0.192368 -0.20885
Zn Zn 0.589373 0.593884 0.849155 0.83971
Zn Zn 0.658305 0.851555 0.575714 0.83971
Zn Zn 0.906634 0.917114 0.652065 0.83971
Zn Zn 0.833753 0.661129 0.912339 0.83971
H_ H_ 0.670646 0.635961 0.803263 0.10394
H_ H_ 0.744664 0.602371 0.765272 0.10394
H_ H_ 0.71032 0.941718 0.791392 0.10394
H_ H_ 0.632784 0.485931 0.817862 0.10394
H_ H_ 0.0245728 0.594071 0.74787 0.10394
H_ H_ 0.97156 0.668861 0.703781 0.10394
H_ H_ 0.563267 0.773747 0.816249 0.10394
H_ H_ 0.583134 0.701011 0.875904 0.10394
H_ H_ 0.521844 0.944224 0.849861 0.10394
H_ H_ 0.97661 0.889386 0.882489 0.10394
H_ H_ 0.849076 0.997539 0.90418 0.10394
H_ H_ 0.582161 0.806507 0.628137 0.10394
H_ H_ -0.00707987 0.77654 0.591744 0.10394
H_ H_ 0.526034 0.798973 0.94619 0.10394
H_ H_ 0.624477 0.80781 0.47743 0.10394
H_ H_ 0.719545 0.757041 0.59273 0.10394
H_ H_ 0.767444 0.715635 0.668279 0.10394
H_ H_ 0.70443 0.836849 0.762223 0.10394
H_ H_ 0.664543 0.880101 0.68667 0.10394
H_ H_ 0.710892 0.906176 0.952339 0.10394
H_ H_ 0.763541 0.925436 0.888365 0.10394
H_ H_ 0.899295 0.905002 0.986498 0.10394
H_ H_ 0.801552 0.895332 0.659128 0.10394
H_ H_ 0.727144 0.942155 0.698748 0.10394
H_ H_ 0.841295 0.544939 0.787116 0.10394
H_ H_ 0.898865 0.99773762 0.739021 0.10394
H_ H_ 0.518911 0.879523 0.669635 0.10394
H_ H_ 0.561256 0.809021 0.721232 0.10394
H_ H_ 0.9046 0.746479 0.715801 0.10394
H_ H_ 0.869128 0.831999 0.692536 0.10394
H_ H_ 0.967129 0.560605 0.642416 0.10394
H_ H_ 0.518904 0.613656 0.62568 0.10394
H_ H_ 0.63533 0.502479 0.583596 0.10394
H_ H_ 0.937309 0.668647 0.88853 0.10394
H_ H_ 0.50958 0.706706 0.934342 0.10394
H_ H_ 0.920209 0.758174 0.54856 0.10394
H_ H_ 0.847821 0.723735 1.00802978 0.10394
H_ H_ 0.72359 0.697309 0.876783 0.10394
H_ H_ 0.685711 0.739776 0.802977 0.10394
H_ H_ 0.829375 0.766508 0.762763 0.10394
H_ H_ 0.871487 0.709146 0.833972 0.10394
H_ H_ 0.78372 0.601645 0.550235 0.10394
H_ H_ 0.73129 0.574904 0.614623 0.10394
H_ H_ 0.599956 0.596727 0.504574 0.10394
C_ C_ 0.680559 0.596549 0.804179 0.18167
C_ C_ 0.724412 0.577035 0.784177 -0.15533
C_ C_ 0.738281 0.523379 0.777442 0.02923
C_ C_ 0.697704 0.982532 0.788889 -0.15533
C_ C_ 0.657298 0.512346 0.808536 0.18167
C_ C_ 0.527872 0.641762 0.771972 0.18167
C_ C_ -0.004334999999999978 0.675524 0.73888 -0.15533
C_ C_ 0.515019 0.733196 0.760307 0.02923
C_ C_ 0.547879 0.737591 0.805665 -0.15533
C_ C_ 0.567004 0.695744 0.836286 0.18167
C_ C_ 0.511616 0.555421 0.878367 0.69207
C_ C_ 0.969113 0.0179258 0.880648 0.02923
C_ C_ -0.008670999999999984 0.967047 0.884206 -0.15533
C_ C_ 0.959472 0.928385 0.891376 -0.15533
C_ C_ 0.909309 0.938451 0.896879 0.02923
C_ C_ 0.889976 0.989105 0.903064 -0.15533
C_ C_ 0.917582 0.0288433 0.893252 0.02923
C_ C_ 0.890731 0.581047 0.877066 0.69207
C_ C_ 0.897927 0.838035 0.89428 0.69661
C_ C_ 0.572542 0.799777 0.587589 0.18167
C_ C_ 0.528754 0.780641 0.569811 -0.15533
C_ C_ 0.515468 0.774054 0.516529 0.02923
C_ C_ 0.537949 0.797523 0.986561 -0.15533
C_ C_ 0.595793 0.804564 0.503515 0.18167
C_ C_ 0.715824 0.773254 0.629913 0.18167
C_ C_ 0.74237 0.751369 0.672787 -0.15533
C_ C_ 0.730474 0.770491 0.721865 0.02923
C_ C_ 0.703003 0.817144 0.725606 -0.15533
C_ C_ 0.683134 0.842901 0.682219 0.18167
C_ C_ 0.73709 0.874092 0.541738 0.69207
C_ C_ 0.775829 0.885386 1.00777122 0.02923
C_ C_ 0.753196 0.899583 0.958572 -0.15533
C_ C_ 0.782387 0.910277 0.919938 -0.15533
C_ C_ 0.836478 0.903396 0.928919 0.02923
C_ C_ 0.858033 0.901653 0.980603 -0.15533
C_ C_ 0.829064 0.891947 0.0196702 0.02923
C_ C_ 0.853962 0.881207 0.56558 0.69207
C_ C_ 0.844699 0.891834 0.832333 0.69661
C_ C_ 0.805691 0.931961 0.680781 0.18167
C_ C_ 0.765928 0.954793 0.709128 -0.15533
C_ C_ 0.770782 -0.0009519999999999529 0.73916 0.02923
C_ C_ 0.832056 0.516133 0.759387 -0.15533
C_ C_ 0.861764 0.991058 0.72036 0.18167
C_ C_ 0.986646 0.852142 0.700155 0.18167
C_ C_ 0.519555 0.815004 0.716783 -0.15533
C_ C_ 0.978515 0.770796 0.735005 0.02923
C_ C_ 0.928912 0.77586 0.712697 -0.15533
C_ C_ 0.90706 0.822297 0.692743 0.18167
C_ C_ 0.981448 0.954499 0.612424 0.69207
C_ C_ 0.517947 0.484548 0.612211 0.02923
C_ C_ 0.498648 0.537884 0.614834 -0.15533
C_ C_ 0.530175 0.576667 0.607909 -0.15533
C_ C_ 0.582351 0.564586 0.601627 0.02923
C_ C_ 0.598855 0.512744 0.591468 -0.15533
C_ C_ 0.56822 0.473068 0.598235 0.02923
C_ C_ 0.592377 0.926801 0.590135 0.69207
C_ C_ 0.600368 0.658909 0.612463 0.69661
C_ C_ 0.932907 0.693771 0.923608 0.18167
C_ C_ 0.976681 0.708665 0.95076 -0.15533
C_ C_ 0.970939 0.744136 0.993974 0.02923
C_ C_ 0.925968 0.737881 0.511324 -0.15533
C_ C_ 0.882007 0.727435 0.988398 0.18167
C_ C_ 0.747588 0.702027 0.846608 0.18167
C_ C_ 0.723411 0.725635 0.80302 -0.15533
C_ C_ 0.755167 0.743989 0.76797 0.02923
C_ C_ 0.808913 0.739405 0.779019 -0.15533
C_ C_ 0.83027 0.710644 0.821508 0.18167
C_ C_ 0.764729 0.623498 0.951663 0.69207
C_ C_ 0.726268 0.609578 0.490672 0.02923
C_ C_ 0.745792 0.599808 0.539089 -0.15533
C_ C_ 0.713834 0.591922 0.576932 -0.15533
C_ C_ 0.659923 0.596546 0.565752 0.02923
C_ C_ 0.639609 0.603277 0.515208 -0.15533
C_ C_ 0.673926 0.604049 0.476852 0.02923
C_ C_ 0.650618 0.613357 0.926047 0.69207
C_ C_ 0.650372 0.597249 0.663926 0.69661
C_ C_ 0.873242 0.895597 0.888326 -0.30787
C_ C_ 0.623732 0.603152 0.608027 -0.30787
N_ N_ 0.644255 0.564774 0.812339 -0.32189
N_ N_ 0.559257 0.648396 0.816516 -0.32189
N_ N_ 0.606075 0.810957 0.55408 -0.32189
N_ N_ 0.685318 0.818834 0.63445 -0.32189
N_ N_ 0.853984 0.94881 0.689458 -0.32189
N_ N_ 0.935896 0.858891 0.684869 -0.32189
N_ N_ 0.888848 0.698758 0.943757 -0.32189
N_ N_ 0.799141 0.689159 0.850044 -0.32189
O_ O_ 1.000071609 0.601187 0.8858 -0.63271
O_ O_ 0.549099 0.543452 0.848743 -0.57982
O_ O_ 0.888063 0.610789 0.83645 -0.63271
O_ O_ 0.861415 0.595198 0.912588 -0.57982
O_ O_ 0.734945 0.89996 0.586695 -0.63271
O_ O_ 0.707059 0.83753 0.532772 -0.57982
O_ O_ 0.85747 0.839045 0.587481 -0.63271
O_ O_ 0.872662 0.92103 0.589567 -0.57982
O_ O_ 0.485503 0.913061 0.585416 -0.63271
O_ O_ 0.947809 0.964388 0.645575 -0.57982
O_ O_ 0.59481 0.904492 0.633987 -0.63271
O_ O_ 0.623818 0.909654 0.55811 -0.57982
O_ O_ 0.757353 0.60372 0.905047 -0.63271
O_ O_ 0.793373 0.660283 0.961187 -0.57982
O_ O_ 0.656121 0.656105 0.90286 -0.63271
O_ O_ 0.610842 0.591003 0.912853 -0.57982
F_ F_ 0.934828 0.834797 0.937618 -0.20885
F_ F_ 0.919641 0.810379 0.854419 -0.20885
F_ F_ 0.860614 0.808028 0.904536 -0.20885
F_ F_ 0.821469 0.940306 0.820649 -0.20885
F_ F_ 0.807802 0.856505 0.82253 -0.20885
F_ F_ 0.87885 0.887487 0.798043 -0.20885
F_ F_ 0.558154 0.664837 0.574715 -0.20885
F_ F_ 0.585989 0.680458 0.659089 -0.20885
F_ F_ 0.633196 0.690367 0.600005 -0.20885
F_ F_ 0.676151 0.549194 0.666072 -0.20885
F_ F_ 0.684904 0.630481 0.682527 -0.20885
F_ F_ 0.612692 0.597025 0.69849 -0.20885
_cell_length_a 26.508
_cell_length_b 26.37200000322088
_cell_length_c 26.311999743092066
_cell_angle_alpha 93.74100058972084
_cell_angle_beta 96.04100104955006
_cell_angle_gamma 83.6869992558723
_symmetry_space_group_name_H-M         'P 1'
_symmetry_Int_Tables_number            1
loop_
_symmetry_equiv_pos_as_xyz
   'x, y, z'
                         
loop_
_atom_site_label
_atom_site_type_symbol
_atom_site_fract_x 
_atom_site_fract_y
_atom_site_fract_z
_atom_site_charge
Zn Zn 0.0908381 0.0843629 0.345578 0.83971
Zn Zn 0.162857 0.348256 0.0881598 0.83971
Zn Zn 0.41065 0.413014 0.15954 0.83971
Zn Zn 0.341778 0.151419 0.415728 0.83971
H_ H_ 0.179164 0.128884 0.314374 0.10394
H_ H_ 0.261084 0.0949609 0.283037 0.10394
H_ H_ 0.206853 0.449723 0.282361 0.10394
H_ H_ 0.135485 0.979879 0.319339 0.10394
H_ H_ 0.537428 0.0955717 0.257786 0.10394
H_ H_ 0.497102 0.173486 0.208382 0.10394
H_ H_ 0.0431175 0.273475 0.319731 0.10394
H_ H_ 0.0719359 0.196704 0.372674 0.10394
H_ H_ 0.0355729 0.4407 0.369068 0.10394
H_ H_ 0.484201 0.37378 0.382137 0.10394
H_ H_ 0.350086 0.484399 0.402463 0.10394
H_ H_ 0.0874975 0.304755 0.133142 0.10394
H_ H_ 0.493444 0.273331 0.101447 0.10394
H_ H_ 0.0360118 0.296154 0.449336 0.10394
H_ H_ 0.118877 0.332118 0.98692 0.10394
H_ H_ 0.218321 0.256755 0.108548 0.10394
H_ H_ 0.254038 0.212627 0.187479 0.10394
H_ H_ 0.215762 0.348733 0.278439 0.10394
H_ H_ 0.17171 0.383913 0.202834 0.10394
H_ H_ 0.213334 0.382679 0.443717 0.10394
H_ H_ 0.26658 0.377312 0.372771 0.10394
H_ H_ 0.396188 0.399914 0.489542 0.10394
H_ H_ 0.303166 0.389788 0.162766 0.10394
H_ H_ 0.231087 0.444957 0.180524 0.10394
H_ H_ 0.342266 0.047153 0.275984 0.10394
H_ H_ 0.392577 0.509558 0.224098 0.10394
H_ H_ 0.00877079 0.384785 0.193891 0.10394
H_ H_ 0.0532059 0.308391 0.222742 0.10394
H_ H_ 0.418957 0.23822 0.222754 0.10394
H_ H_ 0.378611 0.314808 0.178531 0.10394
H_ H_ 0.463164 0.0465072 0.118315 0.10394
H_ H_ 0.0162765 0.114613 0.0897187 0.10394
H_ H_ 0.15171 -9.38349e-05 0.0939667 0.10394
H_ H_ 0.449611 0.157068 0.397097 0.10394
H_ H_ 0.0238029 0.194678 0.447456 0.10394
H_ H_ 0.411444 0.276427 0.0481957 0.10394
H_ H_ 0.347911 0.237381 0.494657 0.10394
H_ H_ 0.236206 0.198628 0.390333 0.10394
H_ H_ 0.193413 0.249665 0.319571 0.10394
H_ H_ 0.3378 0.242323 0.258813 0.10394
H_ H_ 0.378439 0.179657 0.321481 0.10394
H_ H_ 0.28169 0.121512 0.0536941 0.10394
H_ H_ 0.234664 0.100803 0.119639 0.10394
H_ H_ 0.104196 0.0953285 0.00737006 0.10394
C_ C_ 0.185834 0.0880267 0.302714 0.18167
C_ C_ 0.231133 0.0703123 0.283861 -0.15533
C_ C_ 0.245347 0.0169531 0.277533 0.02923
C_ C_ 0.197751 0.491557 0.28341 -0.15533
C_ C_ 0.163859 0.00627548 0.311175 0.18167
C_ C_ 0.0276009 0.13328 0.267128 0.18167
C_ C_ 0.513036 0.177765 0.248859 -0.15533
C_ C_ 0.00998352 0.226387 0.259827 0.02923
C_ C_ 0.042682 0.233845 0.304785 -0.15533
C_ C_ 0.0673824 0.190005 0.329634 0.18167
C_ C_ 0.00810387 0.0471103 0.359637 0.69207
C_ C_ 0.471845 0.506294 0.372925 0.02923
C_ C_ 0.492575 0.454374 0.370582 -0.15533
C_ C_ 0.464436 0.412249 0.378079 -0.15533
C_ C_ 0.412764 0.423568 0.389416 0.02923
C_ C_ 0.392505 0.476504 0.398339 -0.15533
C_ C_ 0.421274 0.51855 0.390119 0.02923
C_ C_ 0.401024 0.0693368 0.389076 0.69207
C_ C_ 0.397944 0.325143 0.382301 0.69661
C_ C_ 0.0791955 0.29798 0.0921357 0.18167
C_ C_ 0.0347469 0.276557 0.0733562 -0.15533
C_ C_ 0.0226361 0.269658 0.0202811 0.02923
C_ C_ 0.0509623 0.293589 0.489031 -0.15533
C_ C_ 0.100316 0.307977 0.00872627 0.18167
C_ C_ 0.215736 0.275561 0.146822 0.18167
C_ C_ 0.234702 0.250599 0.190583 -0.15533
C_ C_ 0.24115 0.276782 0.237753 0.02923
C_ C_ 0.219376 0.328921 0.240936 -0.15533
C_ C_ 0.196051 0.349668 0.197832 0.18167
C_ C_ 0.23884 0.371193 0.0444228 0.69207
C_ C_ 0.275271 0.383044 0.505195 0.02923
C_ C_ 0.253597 0.383557 0.453189 -0.15533
C_ C_ 0.285429 0.37696 0.41203 -0.15533
C_ C_ 0.337691 0.388228 0.422606 0.02923
C_ C_ 0.35708 0.39654 0.474915 -0.15533
C_ C_ 0.32753 0.388655 0.514908 0.02923
C_ C_ 0.347547 0.389186 0.0745792 0.69207
C_ C_ 0.353718 0.385255 0.324116 0.69661
C_ C_ 0.31016 0.423473 0.186666 0.18167
C_ C_ 0.265754 0.454281 0.201681 -0.15533
C_ C_ 0.271561 0.502093 0.232406 0.02923
C_ C_ 0.336192 0.0112747 0.253386 -0.15533
C_ C_ 0.361556 0.488202 0.225201 0.18167
C_ C_ 0.492791 0.35286 0.206189 0.18167
C_ C_ 0.0139304 0.308001 0.216224 -0.15533
C_ C_ 0.48642 0.274237 0.248373 0.02923
C_ C_ 0.440707 0.270031 0.218329 -0.15533
C_ C_ 0.417242 0.313827 0.193047 0.18167
C_ C_ 0.487484 0.448028 0.11952 0.69207
C_ C_ 0.0259038 0.986569 0.111189 0.02923
C_ C_ 0.00543613 0.0369968 0.104329 -0.15533
C_ C_ 0.036989 0.0769869 0.102701 -0.15533
C_ C_ 0.091322 0.0656271 0.100943 0.02923
C_ C_ 0.11196 0.0121206 0.0992852 -0.15533
C_ C_ 0.0798644 0.97406 0.108924 0.02923
C_ C_ 0.0944137 0.426509 0.108605 0.69207
C_ C_ 0.101408 0.165903 0.113066 0.69661
C_ C_ 0.442319 0.181115 0.432053 0.18167
C_ C_ 0.482568 0.198721 0.463496 -0.15533
C_ C_ 0.474762 0.236763 0.502079 0.02923
C_ C_ 0.420624 0.250417 0.017127 -0.15533
C_ C_ 0.384542 0.225262 0.487928 0.18167
C_ C_ 0.255957 0.200692 0.356915 0.18167
C_ C_ 0.23177 0.233846 0.318671 -0.15533
C_ C_ 0.262479 0.248385 0.28212 0.02923
C_ C_ 0.313629 0.229198 0.285267 -0.15533
C_ C_ 0.336254 0.194856 0.32149 0.18167
C_ C_ 0.264581 0.119049 0.45161 0.69207
C_ C_ 0.225958 0.114187 0.99206 0.02923
C_ C_ 0.243954 0.119098 0.0434805 -0.15533
C_ C_ 0.215995 0.104759 0.080828 -0.15533
C_ C_ 0.16406 0.101544 0.0693834 0.02923
C_ C_ 0.144068 0.101584 0.0182953 -0.15533
C_ C_ 0.17536 0.103208 0.978872 0.02923
C_ C_ 0.152275 0.110229 0.425107 0.69207
C_ C_ 0.149701 0.104117 0.167712 0.69661
C_ C_ 0.376687 0.381688 0.381821 -0.30787
C_ C_ 0.128083 0.109695 0.11159 -0.30787
N_ N_ 0.152915 0.0564329 0.315991 -0.32189
N_ N_ 0.0631005 0.141928 0.307464 -0.32189
N_ N_ 0.113767 0.306918 0.0602897 -0.32189
N_ N_ 0.194702 0.324869 0.150223 -0.32189
N_ N_ 0.35683 0.44429 0.194909 -0.32189
N_ N_ 0.443968 0.353226 0.18419 -0.32189
N_ N_ 0.392389 0.192913 0.446156 -0.32189
N_ N_ 0.307717 0.186122 0.35913 -0.32189
O_ O_ 0.513506 0.0799136 0.404784 -0.63271
O_ O_ 0.0488018 0.0351565 0.336883 -0.57982
O_ O_ 0.401453 0.0979349 0.350552 -0.63271
O_ O_ 0.369409 0.0842904 0.421936 -0.57982
O_ O_ 0.238186 0.395932 0.0888972 -0.63271
O_ O_ 0.205402 0.338565 0.0365272 -0.57982
O_ O_ 0.352735 0.344011 0.0933297 -0.63271
O_ O_ 0.373708 0.424552 0.0980876 -0.57982
O_ O_ 0.991473 0.404377 0.10134 -0.63271
O_ O_ 0.455514 0.458951 0.154523 -0.57982
O_ O_ 0.0917918 0.403417 0.14979 -0.63271
O_ O_ 0.131086 0.409497 0.0801927 -0.57982
O_ O_ 0.256771 0.0999836 0.405016 -0.63271
O_ O_ 0.292888 0.157271 0.45842 -0.57982
O_ O_ 0.156681 0.151521 0.402567 -0.63271
O_ O_ 0.113888 0.0821184 0.410105 -0.57982
F_ F_ 0.436093 0.321319 0.422199 -0.20885
F_ F_ 0.420928 0.308495 0.33952 -0.20885
F_ F_ 0.361157 0.291905 0.386979 -0.20885
F_ F_ 0.31732 0.426801 0.322577 -0.20885
F_ F_ 0.32619 0.344634 0.304565 -0.20885
F_ F_ 0.385828 0.394784 0.286168 -0.20885
F_ F_ 0.0695156 0.175637 0.0681229 -0.20885
F_ F_ 0.0678098 0.178969 0.15057 -0.20885
F_ F_ 0.135538 0.201312 0.121706 -0.20885
F_ F_ 0.179503 0.0594295 0.175219 -0.20885
F_ F_ 0.185587 0.138709 0.184048 -0.20885
F_ F_ 0.111974 0.107985 0.201525 -0.20885
Zn Zn 0.0881669 0.0850647 0.846652 0.83971
Zn Zn 0.161021 0.353531 0.585212 0.83971
Zn Zn 0.409889 0.410106 0.654328 0.83971
Zn Zn 0.340584 0.155425 0.917197 0.83971
H_ H_ 0.162488 0.128514 0.798408 0.10394
H_ H_ 0.246404 0.0969447 0.771098 0.10394
H_ H_ 0.21548 0.44269 0.785644 0.10394
H_ H_ 0.133004 0.980303 0.818033 0.10394
H_ H_ 0.539765 0.10321 0.745448 0.10394
H_ H_ 0.504134 0.180883 0.703054 0.10394
H_ H_ 0.0473437 0.272426 0.841015 0.10394
H_ H_ 0.075841 0.192774 0.887028 0.10394
H_ H_ 0.0307453 0.450413 0.863623 0.10394
H_ H_ 0.48324 0.390528 0.901434 0.10394
H_ H_ 0.355492 0.500927 0.897725 0.10394
H_ H_ 0.0920331 0.297898 0.635875 0.10394
H_ H_ 0.50865 0.260278 0.605455 0.10394
H_ H_ 0.0412818 0.2975 0.953305 0.10394
H_ H_ 0.116418 0.337414 0.485572 0.10394
H_ H_ 0.21703 0.256047 0.594769 0.10394
H_ H_ 0.265562 0.207781 0.663712 0.10394
H_ H_ 0.222806 0.335081 0.773216 0.10394
H_ H_ 0.182415 0.379603 0.701156 0.10394
H_ H_ 0.223085 0.363353 0.942442 0.10394
H_ H_ 0.281084 0.371489 0.876551 0.10394
H_ H_ 0.391594 0.415353 0.995823 0.10394
H_ H_ 0.306817 0.397137 0.656801 0.10394
H_ H_ 0.231296 0.449553 0.687811 0.10394
H_ H_ 0.334159 0.039938 0.786918 0.10394
H_ H_ 0.403091 0.500789 0.732035 0.10394
H_ H_ 0.0193381 0.381034 0.690341 0.10394
H_ H_ 0.0592939 0.308597 0.735665 0.10394
H_ H_ 0.4157 0.241339 0.716762 0.10394
H_ H_ 0.367414 0.321315 0.686782 0.10394
H_ H_ 0.46544 0.0609598 0.614579 0.10394
H_ H_ 0.0228267 0.121054 0.618951 0.10394
H_ H_ 0.142398 -0.000622936 0.594485 0.10394
H_ H_ 0.441857 0.155903 0.904622 0.10394
H_ H_ 0.0156785 0.196215 0.941346 0.10394
H_ H_ 0.415493 0.276815 0.549469 0.10394
H_ H_ 0.34458 0.2286 0.005980000000000096 0.10394
H_ H_ 0.238197 0.191839 0.879662 0.10394
H_ H_ 0.198266 0.225514 0.79404 0.10394
H_ H_ 0.346386 0.245292 0.762012 0.10394
H_ H_ 0.382079 0.195859 0.835057 0.10394
H_ H_ 0.291926 0.105761 0.55098 0.10394
H_ H_ 0.242432 0.0846304 0.616563 0.10394
H_ H_ 0.10557 0.0937511 0.50234 0.10394
C_ C_ 0.177337 0.0896523 0.804282 0.18167
C_ C_ 0.222184 0.0706004 0.784067 -0.15533
C_ C_ 0.233733 0.019049 0.770069 0.02923
C_ C_ 0.204296 0.485153 0.792169 -0.15533
C_ C_ 0.154255 0.00509988 0.802736 0.18167
C_ C_ 0.031358 0.140187 0.7718 0.18167
C_ C_ 0.51291 0.182481 0.743314 -0.15533
C_ C_ 0.0140736 0.233152 0.774965 0.02923
C_ C_ 0.0458556 0.236143 0.821548 -0.15533
C_ C_ 0.0632781 0.190933 0.845689 0.18167
C_ C_ 0.00107819 0.0558174 0.861523 0.69207
C_ C_ 0.476908 0.515429 0.885722 0.02923
C_ C_ 0.498967 0.465713 0.889158 -0.15533
C_ C_ 0.467851 0.42584 0.894166 -0.15533
C_ C_ 0.415535 0.437403 0.902461 0.02923
C_ C_ 0.395147 0.489081 0.899733 -0.15533
C_ C_ 0.42389 0.525649 0.88422 0.02923
C_ C_ 0.391614 0.0689655 0.891244 0.69207
C_ C_ 0.406666 0.340175 0.896179 0.69661
C_ C_ 0.0784269 0.296958 0.593873 0.18167
C_ C_ 0.0355026 0.275214 0.574028 -0.15533
C_ C_ 0.0206644 0.272119 0.521331 0.02923
C_ C_ 0.0565526 0.284038 0.988338 -0.15533
C_ C_ 0.0939627 0.318273 0.511033 0.18167
C_ C_ 0.218912 0.271396 0.634241 0.18167
C_ C_ 0.243713 0.245312 0.673107 -0.15533
C_ C_ 0.24359 0.264378 0.725365 0.02923
C_ C_ 0.221927 0.314044 0.735744 -0.15533
C_ C_ 0.198818 0.340799 0.693645 0.18167
C_ C_ 0.23946 0.375605 0.544801 0.69207
C_ C_ 0.276251 0.378005 0.00679671 0.02923
C_ C_ 0.260787 0.373145 0.954278 -0.15533
C_ C_ 0.291506 0.384355 0.917485 -0.15533
C_ C_ 0.337972 0.402117 0.931731 0.02923
C_ C_ 0.355347 0.406611 0.983772 -0.15533
C_ C_ 0.324859 0.394357 0.0221296 0.02923
C_ C_ 0.350438 0.383469 0.567474 0.69207
C_ C_ 0.353032 0.399983 0.83519 0.69661
C_ C_ 0.312431 0.427272 0.687477 0.18167
C_ C_ 0.269936 0.456844 0.705433 -0.15533
C_ C_ 0.276843 0.495996 0.74341 0.02923
C_ C_ 0.326069 0.0141993 0.753965 -0.15533
C_ C_ 0.365028 0.488243 0.724203 0.18167
C_ C_ 0.484676 0.357039 0.721057 0.18167
C_ C_ 0.0179244 0.313527 0.730119 -0.15533
C_ C_ 0.47827 0.273094 0.751104 0.02923
C_ C_ 0.431846 0.274749 0.725425 -0.15533
C_ C_ 0.410574 0.318676 0.700758 0.18167
C_ C_ 0.486406 0.446018 0.628274 0.69207
C_ C_ 0.0193365 0.993886 0.612149 0.02923
C_ C_ 0.00381919 0.0444535 0.610514 -0.15533
C_ C_ 0.0377642 0.0801582 0.612716 -0.15533
C_ C_ 0.0896143 0.0664787 0.606724 0.02923
C_ C_ 0.105411 0.0157227 0.605136 -0.15533
C_ C_ 0.071111 0.978944 0.607175 0.02923
C_ C_ 0.100601 0.43076 0.611978 0.69207
C_ C_ 0.105459 0.162488 0.600125 0.69661
C_ C_ 0.436949 0.183415 0.93484 0.18167
C_ C_ 0.478855 0.20772 0.959275 -0.15533
C_ C_ 0.472369 0.242909 1.000819752 0.02923
C_ C_ 0.425564 0.248632 0.515462 -0.15533
C_ C_ 0.380826 0.225896 0.990944 0.18167
C_ C_ 0.261716 0.197123 0.849742 0.18167
C_ C_ 0.238135 0.217606 0.802025 -0.15533
C_ C_ 0.270248 0.234451 0.768792 0.02923
C_ C_ 0.321731 0.224517 0.78015 -0.15533
C_ C_ 0.342436 0.19917 0.822049 0.18167
C_ C_ 0.263221 0.117272 0.953186 0.69207
C_ C_ 0.229275 0.109081 0.491425 0.02923
C_ C_ 0.251199 0.102934 0.541664 -0.15533
C_ C_ 0.221187 0.0918144 0.580083 -0.15533
C_ C_ 0.166526 0.0919705 0.568352 0.02923
C_ C_ 0.146859 0.0917134 0.516204 -0.15533
C_ C_ 0.176596 0.103161 0.479791 0.02923
C_ C_ 0.150231 0.109214 0.927067 0.69207
C_ C_ 0.15286 0.108138 0.665147 0.69661
C_ C_ 0.377229 0.397605 0.891707 -0.30787
C_ C_ 0.127951 0.105812 0.60914 -0.30787
N_ N_ 0.142955 0.0554826 0.80982 -0.32189
N_ N_ 0.0638919 0.145435 0.816532 -0.32189
N_ N_ 0.105167 0.318951 0.562502 -0.32189
N_ N_ 0.198393 0.319978 0.644354 -0.32189
N_ N_ 0.358485 0.443531 0.696768 -0.32189
N_ N_ 0.440284 0.35426 0.693321 -0.32189
N_ N_ 0.389585 0.197905 0.946688 -0.32189
N_ N_ 0.312024 0.183383 0.854962 -0.32189
O_ O_ 0.501136 0.0866726 0.892928 -0.63271
O_ O_ 0.0442061 0.0373386 0.84318 -0.57982
O_ O_ 0.392668 0.0929714 0.848032 -0.63271
O_ O_ 0.365719 0.0901138 0.927715 -0.57982
O_ O_ 0.243092 0.403402 0.587688 -0.63271
O_ O_ 0.199473 0.34916 0.531839 -0.57982
O_ O_ 0.347557 0.34238 0.593099 -0.63271
O_ O_ 0.380221 0.41766 0.588847 -0.57982
O_ O_ 0.994465 0.412064 0.606499 -0.63271
O_ O_ 0.45391 0.458087 0.661973 -0.57982
O_ O_ 0.104813 0.406063 0.652761 -0.63271
O_ O_ 0.131048 0.413744 0.578131 -0.57982
O_ O_ 0.255405 0.0949483 0.908085 -0.63271
O_ O_ 0.290513 0.156392 0.958269 -0.57982
O_ O_ 0.153346 0.148089 0.900483 -0.63271
O_ O_ 0.115016 0.0794655 0.91189 -0.57982
F_ F_ 0.439063 0.338796 0.941274 -0.20885
F_ F_ 0.433885 0.32231 0.856438 -0.20885
F_ F_ 0.371067 0.305847 0.89474 -0.20885
F_ F_ 0.314395 0.437235 0.827329 -0.20885
F_ F_ 0.333299 0.353943 0.816816 -0.20885
F_ F_ 0.385912 0.408522 0.802601 -0.20885
F_ F_ 0.0697027 0.167771 0.557072 -0.20885
F_ F_ 0.0789627 0.189784 0.637581 -0.20885
F_ F_ 0.143236 0.19214 0.592497 -0.20885
F_ F_ 0.173971 0.0603132 0.676072 -0.20885
F_ F_ 0.189175 0.142797 0.673686 -0.20885
F_ F_ 0.115015 0.118902 0.697565 -0.20885
Zn Zn 0.0859238 0.584698 0.35081 0.83971
Zn Zn 0.161135 0.840737 0.0826647 0.83971
Zn Zn 0.408494 0.910399 0.152623 0.83971
Zn Zn 0.34086 0.654954 0.418805 0.83971
H_ H_ 0.170151 0.636155 0.311837 0.10394
H_ H_ 0.252437 0.598032 0.280533 0.10394
H_ H_ 0.212024 0.94761 0.279549 0.10394
H_ H_ 0.127104 0.489979 0.310084 0.10394
H_ H_ 0.52413 0.583664 0.255009 0.10394
H_ H_ 0.47097 0.653931 0.211894 0.10394
H_ H_ 0.0375542 0.764948 0.338838 0.10394
H_ H_ 0.0811152 0.692178 0.375997 0.10394
H_ H_ 0.0285909 0.943962 0.366373 0.10394
H_ H_ 0.47826 0.877311 0.349243 0.10394
H_ H_ 0.359307 0.9828 0.406828 0.10394
H_ H_ 0.0902481 0.782669 0.123783 0.10394
H_ H_ 0.506379 0.748495 0.094999 0.10394
H_ H_ 0.0302045 0.790164 0.437106 0.10394
H_ H_ 0.114528 0.82616 0.977655 0.10394
H_ H_ 0.203062 0.741167 0.113773 0.10394
H_ H_ 0.246603 0.701446 0.193199 0.10394
H_ H_ 0.218081 0.854567 0.2711 0.10394
H_ H_ 0.182096 0.885555 0.183706 0.10394
H_ H_ 0.21759 0.868874 0.435215 0.10394
H_ H_ 0.273736 0.872723 0.367373 0.10394
H_ H_ 0.392869 0.906335 0.485939 0.10394
H_ H_ 0.309793 0.903473 0.155481 0.10394
H_ H_ 0.235308 0.955156 0.186938 0.10394
H_ H_ 0.331318 0.540161 0.280959 0.10394
H_ H_ 0.411943 -0.0014170000000000016 0.228257 0.10394
H_ H_ 0.0212272 0.87088 0.180498 0.10394
H_ H_ 0.0594616 0.789641 0.227953 0.10394
H_ H_ 0.404744 0.739865 0.227426 0.10394
H_ H_ 0.365035 0.825728 0.195947 0.10394
H_ H_ 0.463115 0.548922 0.108309 0.10394
H_ H_ 0.0128029 0.616736 0.111922 0.10394
H_ H_ 0.136555 0.505466 0.0864139 0.10394
H_ H_ 0.444194 0.662154 0.394156 0.10394
H_ H_ 0.0152317 0.692354 0.431902 0.10394
H_ H_ 0.417526 0.769626 0.0511532 0.10394
H_ H_ 0.347675 0.741371 0.503159 0.10394
H_ H_ 0.237908 0.716516 0.399176 0.10394
H_ H_ 0.19139 0.753175 0.324696 0.10394
H_ H_ 0.333638 0.727365 0.249626 0.10394
H_ H_ 0.37504 0.684966 0.325268 0.10394
H_ H_ 0.28043 0.633352 0.0562281 0.10394
H_ H_ 0.233285 0.595541 0.117877 0.10394
H_ H_ 0.108181 0.579574 0.00595724 0.10394
C_ C_ 0.176835 0.594705 0.300954 0.18167
C_ C_ 0.222122 0.574424 0.281347 -0.15533
C_ C_ 0.22931 0.523095 0.265501 0.02923
C_ C_ 0.20955 0.985487 0.289644 -0.15533
C_ C_ 0.153669 0.512439 0.304667 0.18167
C_ C_ 0.0246611 0.631778 0.273865 0.18167
C_ C_ 0.499238 0.664161 0.242271 -0.15533
C_ C_ 0.00991822 0.722913 0.267141 0.02923
C_ C_ 0.0415209 0.730577 0.313895 -0.15533
C_ C_ 0.0606643 0.687772 0.338868 0.18167
C_ C_ 0.0135302 0.541873 0.37598 0.69207
C_ C_ 0.475845 0.00245278 0.373743 0.02923
C_ C_ 0.493008 0.951111 0.361723 -0.15533
C_ C_ 0.464528 0.911824 0.365767 -0.15533
C_ C_ 0.414028 0.922103 0.38125 0.02923
C_ C_ 0.395182 0.974253 0.389981 -0.15533
C_ C_ 0.424138 0.0155474 0.384001 0.02923
C_ C_ 0.396189 0.57083 0.388298 0.69207
C_ C_ 0.40459 0.826838 0.380497 0.69661
C_ C_ 0.0789904 0.785364 0.0839327 0.18167
C_ C_ 0.0299107 0.771611 0.0671865 -0.15533
C_ C_ 0.0143982 0.770111 0.0163296 0.02923
C_ C_ 0.0404552 0.792854 0.478659 -0.15533
C_ C_ 0.091588 0.806576 0.00274454 0.18167
C_ C_ 0.209136 0.762724 0.146889 0.18167
C_ C_ 0.228914 0.742397 0.193009 -0.15533
C_ C_ 0.234997 0.775141 0.236373 0.02923
C_ C_ 0.214875 0.826322 0.236085 -0.15533
C_ C_ 0.192777 0.845494 0.187195 0.18167
C_ C_ 0.246113 0.850557 0.0526252 0.69207
C_ C_ 0.274402 0.872695 0.498775 0.02923
C_ C_ 0.257792 0.867729 0.44603 -0.15533
C_ C_ 0.289186 0.871764 0.408109 -0.15533
C_ C_ 0.340027 0.881758 0.421547 0.02923
C_ C_ 0.355409 0.89196 0.473792 -0.15533
C_ C_ 0.325757 0.883076 0.512572 0.02923
C_ C_ 0.35567 0.877382 0.0714573 0.69207
C_ C_ 0.353674 0.883304 0.322949 0.69661
C_ C_ 0.313026 0.937781 0.17837 0.18167
C_ C_ 0.273788 0.962654 0.201438 -0.15533
C_ C_ 0.286134 0.996259 0.24418 0.02923
C_ C_ 0.322077 0.511037 0.250873 -0.15533
C_ C_ 0.374336 0.987689 0.224353 0.18167
C_ C_ 0.490646 0.836867 0.191502 0.18167
C_ C_ 0.0173856 0.801995 0.220129 -0.15533
C_ C_ 0.479006 0.759414 0.227953 0.02923
C_ C_ 0.426747 0.771468 0.221843 -0.15533
C_ C_ 0.406284 0.814444 0.197034 0.18167
C_ C_ 0.489319 0.944746 0.116478 0.69207
C_ C_ 0.0179288 0.49049 0.109747 0.02923
C_ C_ -0.000968181 0.540225 0.11567 -0.15533
C_ C_ 0.0287313 0.578119 0.108481 -0.15533
C_ C_ 0.0797335 0.566789 0.0975405 0.02923
C_ C_ 0.097509 0.516089 0.090592 -0.15533
C_ C_ 0.0688764 0.47861 0.101656 0.02923
C_ C_ 0.104536 0.919783 0.104542 0.69207
C_ C_ 0.101481 0.659966 0.108342 0.69661
C_ C_ 0.437922 0.685894 0.429877 0.18167
C_ C_ 0.478871 0.710218 0.452546 -0.15533
C_ C_ 0.471452 0.74708 0.494483 0.02923
C_ C_ 0.421443 0.747532 0.0167106 -0.15533
C_ C_ 0.384187 0.729485 0.486973 0.18167
C_ C_ 0.257949 0.714552 0.365031 0.18167
C_ C_ 0.231987 0.737031 0.321991 -0.15533
C_ C_ 0.261107 0.751484 0.284028 0.02923
C_ C_ 0.311938 0.726257 0.282248 -0.15533
C_ C_ 0.333117 0.700333 0.324713 0.18167
C_ C_ 0.268897 0.621086 0.458141 0.69207
C_ C_ 0.224878 0.612759 0.990185 0.02923
C_ C_ 0.244355 0.616022 0.0431754 -0.15533
C_ C_ 0.213859 0.608033 0.0804458 -0.15533
C_ C_ 0.161759 0.596868 0.0678677 0.02923
C_ C_ 0.146842 0.585511 0.0164901 -0.15533
C_ C_ 0.172855 0.601389 0.979097 0.02923
C_ C_ 0.158889 0.607247 0.425935 0.69207
C_ C_ 0.144136 0.599057 0.166191 0.69661
C_ C_ 0.376774 0.882135 0.37839 -0.30787
C_ C_ 0.121985 0.603927 0.108575 -0.30787
N_ N_ 0.144984 0.562964 0.314854 -0.32189
N_ N_ 0.0559065 0.640118 0.3164 -0.32189
N_ N_ 0.106291 0.805622 0.0530269 -0.32189
N_ N_ 0.188406 0.81265 0.145208 -0.32189
N_ N_ 0.360749 0.950845 0.18772 -0.32189
N_ N_ 0.438314 0.846801 0.183943 -0.32189
N_ N_ 0.390927 0.698141 0.445402 -0.32189
N_ N_ 0.305665 0.690448 0.362317 -0.32189
O_ O_ 0.504116 0.586123 0.394376 -0.63271
O_ O_ 0.0499411 0.531181 0.346916 -0.57982
O_ O_ 0.391174 0.594483 0.345628 -0.63271
O_ O_ 0.371763 0.591928 0.426609 -0.57982
O_ O_ 0.245705 0.882459 0.0938694 -0.63271
O_ O_ 0.209005 0.82282 0.0392583 -0.57982
O_ O_ 0.356908 0.838551 0.102203 -0.63271
O_ O_ 0.383166 0.913855 0.0871504 -0.57982
O_ O_ 0.993155 0.904765 0.0928079 -0.63271
O_ O_ 0.457509 0.95266 0.153905 -0.57982
O_ O_ 0.0962255 0.888505 0.140133 -0.63271
O_ O_ 0.1395 0.904611 0.0721801 -0.57982
O_ O_ 0.260602 0.603109 0.409823 -0.63271
O_ O_ 0.301588 0.654694 0.468001 -0.57982
O_ O_ 0.161034 0.648531 0.401075 -0.63271
O_ O_ 0.119272 0.581928 0.412704 -0.57982
F_ F_ 0.439728 0.824012 0.422227 -0.20885
F_ F_ 0.433575 0.806529 0.340871 -0.20885
F_ F_ 0.371974 0.790622 0.382493 -0.20885
F_ F_ 0.316688 0.925139 0.31522 -0.20885
F_ F_ 0.332202 0.83986 0.304724 -0.20885
F_ F_ 0.39023 0.885533 0.28901 -0.20885
F_ F_ 0.0740753 0.672437 0.0626593 -0.20885
F_ F_ 0.0750691 0.678074 0.150818 -0.20885
F_ F_ 0.142305 0.689156 0.113537 -0.20885
F_ F_ 0.17842 0.554467 0.168812 -0.20885
F_ F_ 0.17735 0.636502 0.186675 -0.20885
F_ F_ 0.106954 0.598146 0.200361 -0.20885
Zn Zn 0.0871264 0.584508 0.840275 0.83971
Zn Zn 0.155687 0.840571 0.576835 0.83971
Zn Zn 0.407124 0.917735 0.646951 0.83971
Zn Zn 0.333885 0.656848 0.910391 0.83971
H_ H_ 0.162898 0.628792 0.796315 0.10394
H_ H_ 0.238643 0.597559 0.754973 0.10394
H_ H_ 0.212732 0.944459 0.780228 0.10394
H_ H_ 0.139194 0.481708 0.828587 0.10394
H_ H_ 0.519496 0.602837 0.756095 0.10394
H_ H_ 0.476055 0.675297 0.710717 0.10394
H_ H_ 0.0252853 0.764504 0.82677 0.10394
H_ H_ 0.0678732 0.691218 0.870097 0.10394
H_ H_ 0.0297447 0.956545 0.878879 0.10394
H_ H_ 0.474467 0.880795 0.875369 0.10394
H_ H_ 0.346983 0.99256 0.901382 0.10394
H_ H_ 0.0734687 0.80994 0.624365 0.10394
H_ H_ 0.501725 0.77343 0.593989 0.10394
H_ H_ 0.0387935 0.792053 0.944029 0.10394
H_ H_ 0.111683 0.815254 0.471195 0.10394
H_ H_ 0.206315 0.741048 0.58329 0.10394
H_ H_ 0.247514 0.69094 0.655578 0.10394
H_ H_ 0.240938 0.829259 0.749762 0.10394
H_ H_ 0.194333 0.873943 0.678546 0.10394
H_ H_ 0.219909 0.844582 0.945275 0.10394
H_ H_ 0.25778 0.8841 0.881811 0.10394
H_ H_ 0.394236 0.893128 0.987167 0.10394
H_ H_ 0.298555 0.917863 0.642859 0.10394
H_ H_ 0.231728 0.962465 0.680662 0.10394
H_ H_ 0.330198 0.545822 0.775708 0.10394
H_ H_ 0.402163 -0.00426783 0.742401 0.10394
H_ H_ 0.0108367 0.880002 0.697249 0.10394
H_ H_ 0.0461972 0.810696 0.745805 0.10394
H_ H_ 0.412548 0.764073 0.740949 0.10394
H_ H_ 0.373977 0.834309 0.691665 0.10394
H_ H_ 0.46342 0.551736 0.634106 0.10394
H_ H_ 0.0156902 0.626742 0.618044 0.10394
H_ H_ 0.123334 0.508552 0.560518 0.10394
H_ H_ 0.435584 0.673797 0.885164 0.10394
H_ H_ 0.0149431 0.696812 0.93669 0.10394
H_ H_ 0.417411 0.78913 0.535852 0.10394
H_ H_ 0.35377 0.713904 0.0146307 0.10394
H_ H_ 0.229228 0.690038 0.864319 0.10394
H_ H_ 0.197244 0.738838 0.788649 0.10394
H_ H_ 0.343613 0.728823 0.737794 0.10394
H_ H_ 0.381495 0.690974 0.820663 0.10394
H_ H_ 0.292029 0.605778 0.562678 0.10394
H_ H_ 0.234478 0.59347 0.624806 0.10394
H_ H_ 0.110316 0.594326 0.506931 0.10394
C_ C_ 0.173836 0.590111 0.794701 0.18167
C_ C_ 0.219168 0.571845 0.775844 -0.15533
C_ C_ 0.233953 0.518293 0.769011 0.02923
C_ C_ 0.200573 0.984976 0.782512 -0.15533
C_ C_ 0.160543 0.506211 0.812828 0.18167
C_ C_ 0.0212849 0.632659 0.763606 0.18167
C_ C_ 0.503887 0.682804 0.743122 -0.15533
C_ C_ 0.0015893 0.724753 0.758792 0.02923
C_ C_ 0.0240557 0.728732 0.808252 -0.15533
C_ C_ 0.0521317 0.687122 0.831225 0.18167
C_ C_ 0.0026051 0.554115 0.863369 0.69207
C_ C_ 0.467608 0.00664189 0.875588 0.02923
C_ C_ 0.484901 0.955887 0.866775 -0.15533
C_ C_ 0.455923 0.920224 0.879025 -0.15533
C_ C_ 0.4044 0.928771 0.88933 0.02923
C_ C_ 0.388583 0.97988 0.901876 -0.15533
C_ C_ 0.419323 0.0195395 0.896542 0.02923
C_ C_ 0.395679 0.575915 0.878817 0.69207
C_ C_ 0.395498 0.830014 0.88398 0.69661
C_ C_ 0.068308 0.801536 0.584895 0.18167
C_ C_ 0.0214089 0.785295 0.566262 -0.15533
C_ C_ 0.00808418 0.775404 0.513592 0.02923
C_ C_ 0.0469951 0.788339 0.983185 -0.15533
C_ C_ 0.0889863 0.806174 0.498351 0.18167
C_ C_ 0.218634 0.759689 0.61887 0.18167
C_ C_ 0.2405 0.731618 0.662272 -0.15533
C_ C_ 0.249344 0.756642 0.709623 0.02923
C_ C_ 0.238848 0.810306 0.713431 -0.15533
C_ C_ 0.210692 0.835483 0.672612 0.18167
C_ C_ 0.237391 0.868785 0.537239 0.69207
C_ C_ 0.277635 0.861773 0.00861266 0.02923
C_ C_ 0.257997 0.854858 0.956672 -0.15533
C_ C_ 0.281768 0.873905 0.915831 -0.15533
C_ C_ 0.330839 0.88869 0.926228 0.02923
C_ C_ 0.353555 0.888757 0.978187 -0.15533
C_ C_ 0.327655 0.877524 0.0200522 0.02923
C_ C_ 0.350701 0.884276 0.566676 0.69207
C_ C_ 0.340568 0.891814 0.833157 0.69661
C_ C_ 0.308138 0.944782 0.672461 0.18167
C_ C_ 0.268368 0.966049 0.699418 -0.15533
C_ C_ 0.277226 0.999676 0.739302 0.02923
C_ C_ 0.324203 0.515336 0.747159 -0.15533
C_ C_ 0.365857 0.988805 0.73031 0.18167
C_ C_ 0.495521 0.856365 0.688567 0.18167
C_ C_ 0.008237 0.811164 0.729585 -0.15533
C_ C_ 0.490134 0.779011 0.733635 0.02923
C_ C_ 0.437239 0.78588 0.7223 -0.15533
C_ C_ 0.4146 0.826392 0.692774 0.18167
C_ C_ 0.483886 0.957601 0.610961 0.69207
C_ C_ 0.0203851 0.497641 0.623067 0.02923
C_ C_ 1.00308713 0.550136 0.627802 -0.15533
C_ C_ 0.0318794 0.586729 0.614409 -0.15533
C_ C_ 0.0811383 0.574552 0.600487 0.02923
C_ C_ 0.0948863 0.520945 0.588011 -0.15533
C_ C_ 0.0717296 0.48371 0.610572 0.02923
C_ C_ 0.0941513 0.923761 0.60585 0.69207
C_ C_ 0.101834 0.66742 0.608258 0.69661
C_ C_ 0.432077 0.692278 0.922815 0.18167
C_ C_ 0.472926 0.713225 0.949765 -0.15533
C_ C_ 0.467045 0.743838 -0.005842000000000014 0.02923
C_ C_ 0.42419 0.758587 0.507444 -0.15533
C_ C_ 0.380879 0.721867 0.991502 0.18167
C_ C_ 0.256338 0.701175 0.838773 0.18167
C_ C_ 0.236914 0.72013 0.790781 -0.15533
C_ C_ 0.268002 0.729217 0.75505 0.02923
C_ C_ 0.320016 0.720529 0.767447 -0.15533
C_ C_ 0.340339 0.701983 0.814759 0.18167
C_ C_ 0.257071 0.624792 0.949685 0.69207
C_ C_ 0.233571 0.611004 0.49526 0.02923
C_ C_ 0.251435 0.608296 0.549915 -0.15533
C_ C_ 0.216764 0.600063 0.58473 -0.15533
C_ C_ 0.164704 0.601137 0.569572 0.02923
C_ C_ 0.148237 0.601988 0.517782 -0.15533
C_ C_ 0.180926 0.606176 0.479667 0.02923
C_ C_ 0.143846 0.6112 0.929591 0.69207
C_ C_ 0.143298 0.604594 0.664932 0.69661
C_ C_ 0.367736 0.88656 0.884848 -0.30787
C_ C_ 0.122879 0.612031 0.609505 -0.30787
N_ N_ 0.147804 0.557535 0.814417 -0.32189
N_ N_ 0.0529049 0.63953 0.808535 -0.32189
N_ N_ 0.10259 0.804223 0.550097 -0.32189
N_ N_ 0.198724 0.808402 0.628673 -0.32189
N_ N_ 0.356043 0.955895 0.687816 -0.32189
N_ N_ 0.442457 0.862288 0.679634 -0.32189
N_ N_ 0.387024 0.694724 0.945686 -0.32189
N_ N_ 0.308474 0.68842 0.848725 -0.32189
O_ O_ 0.500483 0.60301 0.892892 -0.63271
O_ O_ 0.0407353 0.541508 0.835927 -0.57982
O_ O_ 0.400786 0.600443 0.838438 -0.63271
O_ O_ 0.36532 0.594457 0.913939 -0.57982
O_ O_ 0.233851 0.900441 0.577924 -0.63271
O_ O_ 0.202684 0.836356 0.528248 -0.57982
O_ O_ 0.364513 0.842724 0.591996 -0.63271
O_ O_ 0.365497 0.925646 0.587167 -0.57982
O_ O_ 0.991029 0.909691 0.594034 -0.63271
O_ O_ 0.45067 0.966213 0.64492 -0.57982
O_ O_ 0.0969668 0.897351 0.648436 -0.63271
O_ O_ 0.123422 0.906978 0.570427 -0.57982
O_ O_ 0.256729 0.595421 0.90661 -0.63271
O_ O_ 0.287916 0.660942 0.95641 -0.57982
O_ O_ 0.152057 0.64824 0.903145 -0.63271
O_ O_ 0.110263 0.581678 0.908926 -0.57982
F_ F_ 0.432984 0.821204 0.923441 -0.20885
F_ F_ 0.420922 0.811366 0.839813 -0.20885
F_ F_ 0.361045 0.796877 0.888594 -0.20885
F_ F_ 0.302399 0.930412 0.826632 -0.20885
F_ F_ 0.318982 0.848662 0.815102 -0.20885
F_ F_ 0.36981 0.895233 0.794865 -0.20885
F_ F_ 0.0658572 0.675745 0.566557 -0.20885
F_ F_ 0.0739169 0.684892 0.648637 -0.20885
F_ F_ 0.140997 0.698402 0.607827 -0.20885
F_ F_ 0.172786 0.556306 0.666107 -0.20885
F_ F_ 0.17632 0.64085 0.684303 -0.20885
F_ F_ 0.105052 0.604965 0.698384 -0.20885
Zn Zn 0.594681 0.0829289 0.352655 0.83971
Zn Zn 0.658501 0.338478 0.083376 0.83971
Zn Zn 0.907514 0.418138 0.157026 0.83971
Zn Zn 0.846456 0.15847 0.416803 0.83971
H_ H_ 0.680339 0.131408 0.31546 0.10394
H_ H_ 0.756541 0.0968345 0.26948 0.10394
H_ H_ 0.703376 0.443334 0.277435 0.10394
H_ H_ 0.629625 0.986949 0.310084 0.10394
H_ H_ 0.024017 0.0924019 0.253744 0.10394
H_ H_ 0.9772967 0.170197 0.208047 0.10394
H_ H_ 0.532463 0.270901 0.343354 0.10394
H_ H_ 0.570087 0.197379 0.390759 0.10394
H_ H_ 0.530916 0.445793 0.356013 0.10394
H_ H_ 0.988881 0.376972 0.38503 0.10394
H_ H_ 0.864307 0.486282 0.420344 0.10394
H_ H_ 0.575444 0.301325 0.136436 0.10394
H_ H_ 1.0086491 0.269963 0.0993025 0.10394
H_ H_ 0.540966 0.274646 0.44846 0.10394
H_ H_ 0.612098 0.324514 0.984518 0.10394
H_ H_ 0.718646 0.241568 0.105403 0.10394
H_ H_ 0.747542 0.200532 0.18767 0.10394
H_ H_ 0.727324 0.338297 0.267685 0.10394
H_ H_ 0.678925 0.376462 0.188981 0.10394
H_ H_ 0.720897 0.378863 0.449972 0.10394
H_ H_ 0.780135 0.367106 0.383503 0.10394
H_ H_ 0.909778 0.371826 0.494654 0.10394
H_ H_ 0.809669 0.384782 0.170329 0.10394
H_ H_ 0.729477 0.442049 0.19709 0.10394
H_ H_ 0.837818 0.0362971 0.283148 0.10394
H_ H_ 0.899957 0.487908 0.245067 0.10394
H_ H_ 0.511757 0.38644 0.203704 0.10394
H_ H_ 0.554718 0.310846 0.246886 0.10394
H_ H_ 0.910959 0.245307 0.23144 0.10394
H_ H_ 0.867663 0.322091 0.187027 0.10394
H_ H_ 0.96478 0.049274 0.094891 0.10394
H_ H_ 0.51393 0.111612 0.108093 0.10394
H_ H_ 0.644223 0.0047812 0.0958444 0.10394
H_ H_ 0.950661 0.170412 0.392646 0.10394
H_ H_ 0.521529 0.182324 0.459007 0.10394
H_ H_ 0.929836 0.269767 0.0626129 0.10394
H_ H_ 0.854651 0.226059 0.505916 0.10394
H_ H_ 0.740823 0.207228 0.399188 0.10394
H_ H_ 0.696797 0.248713 0.320943 0.10394
H_ H_ 0.832542 0.232856 0.247106 0.10394
H_ H_ 0.875865 0.183373 0.31951 0.10394
H_ H_ 0.780414 0.135246 0.0628138 0.10394
H_ H_ 0.722067 0.13242 0.123832 0.10394
H_ H_ 0.606479 0.0817258 0.0064787 0.10394
C_ C_ 0.685887 0.091767 0.302693 0.18167
C_ C_ 0.728797 0.0725135 0.276578 -0.15533
C_ C_ 0.73891 0.0186857 0.268585 0.02923
C_ C_ 0.699077 0.484407 0.289102 -0.15533
C_ C_ 0.657303 0.010196 0.301311 0.18167
C_ C_ 0.534501 0.135692 0.275664 0.18167
C_ C_ 0.00153273 0.174962 0.241755 -0.15533
C_ C_ 0.516213 0.228476 0.270381 0.02923
C_ C_ 0.539313 0.23359 0.321613 -0.15533
C_ C_ 0.55695 0.191245 0.350394 0.18167
C_ C_ 0.509813 0.0427704 0.368834 0.69207
C_ C_ 0.978556 0.503537 0.381782 0.02923
C_ C_ 0.997463 0.451251 0.382241 -0.15533
C_ C_ 0.969155 0.413247 0.390198 -0.15533
C_ C_ 0.91852 0.422797 0.4002 0.02923
C_ C_ 0.902605 0.475527 0.410438 -0.15533
C_ C_ 0.927673 0.514581 0.393288 0.02923
C_ C_ 0.89642 0.0757426 0.380393 0.69207
C_ C_ 0.907849 0.327494 0.381756 0.69661
C_ C_ 0.566451 0.298524 0.0944952 0.18167
C_ C_ 0.520877 0.283033 0.0746607 -0.15533
C_ C_ 0.511481 0.274516 0.021103 0.02923
C_ C_ 0.548365 0.283007 0.489122 -0.15533
C_ C_ 0.589408 0.306626 0.00997463 0.18167
C_ C_ 0.718266 0.263353 0.141445 0.18167
C_ C_ 0.73722 0.239726 0.186498 -0.15533
C_ C_ 0.733628 0.2647 0.233073 0.02923
C_ C_ 0.717388 0.317254 0.23383 -0.15533
C_ C_ 0.694426 0.337987 0.188123 0.18167
C_ C_ 0.735547 0.370951 0.0455047 0.69207
C_ C_ 0.779657 0.375086 0.511526 0.02923
C_ C_ 0.761873 0.372985 0.459227 -0.15533
C_ C_ 0.793266 0.377208 0.421363 -0.15533
C_ C_ 0.845746 0.384774 0.433369 0.02923
C_ C_ 0.867232 0.379693 0.485627 -0.15533
C_ C_ 0.833487 0.373821 0.523837 0.02923
C_ C_ 0.848687 0.386731 0.0750591 0.69207
C_ C_ 0.854596 0.394014 0.337713 0.69661
C_ C_ 0.809521 0.424044 0.186121 0.18167
C_ C_ 0.769359 0.449193 0.210282 -0.15533
C_ C_ 0.776214 0.490242 0.24479 0.02923
C_ C_ 0.831563 0.0104196 0.248696 -0.15533
C_ C_ 0.863685 0.480244 0.231408 0.18167
C_ C_ 0.988794 0.350478 0.193921 0.18167
C_ C_ 0.513642 0.315804 0.24021 -0.15533
C_ C_ 0.986673 0.268254 0.228446 0.02923
C_ C_ 0.933537 0.273041 0.216673 -0.15533
C_ C_ 0.908216 0.316765 0.193507 0.18167
C_ C_ 0.985562 0.451496 0.119832 0.69207
C_ C_ 0.523311 0.983274 0.106901 0.02923
C_ C_ 0.501417 0.0356645 0.108248 -0.15533
C_ C_ 0.532683 0.0744459 0.105125 -0.15533
C_ C_ 0.583313 0.0652852 0.0988954 0.02923
C_ C_ 0.605122 0.0141 0.0959343 -0.15533
C_ C_ 0.576591 0.974106 0.101439 0.02923
C_ C_ 0.596803 0.42136 0.102108 0.69207
C_ C_ 0.59458 0.1646 0.115665 0.69661
C_ C_ 0.943679 0.190441 0.426618 0.18167
C_ C_ 0.985968 0.208789 0.454787 -0.15533
C_ C_ 0.979321 0.241148 0.499284 0.02923
C_ C_ 0.932817 0.247905 0.0278477 -0.15533
C_ C_ 0.891036 0.222044 0.491048 0.18167
C_ C_ 0.761638 0.208406 0.362539 0.18167
C_ C_ 0.737048 0.235569 0.322227 -0.15533
C_ C_ 0.760546 0.241042 0.279323 0.02923
C_ C_ 0.811204 0.223209 0.278193 -0.15533
C_ C_ 0.837196 0.201933 0.322535 0.18167
C_ C_ 0.771006 0.123884 0.457954 0.69207
C_ C_ 0.723547 0.124918 0.996162 0.02923
C_ C_ 0.741985 0.123184 0.0488137 -0.15533
C_ C_ 0.709299 0.118129 0.0858684 -0.15533
C_ C_ 0.65931 0.104194 0.0719852 0.02923
C_ C_ 0.642905 0.0989375 0.0195008 -0.15533
C_ C_ 0.673666 0.110204 0.982704 0.02923
C_ C_ 0.661469 0.10407 0.429411 0.69207
C_ C_ 0.645056 0.100364 0.165222 0.69661
C_ C_ 0.880589 0.383031 0.390036 -0.30787
C_ C_ 0.619811 0.108467 0.110669 -0.30787
N_ N_ 0.648765 0.060678 0.306751 -0.32189
N_ N_ 0.557076 0.14229 0.326616 -0.32189
N_ N_ 0.60205 0.308384 0.0619937 -0.32189
N_ N_ 0.692529 0.310558 0.144591 -0.32189
N_ N_ 0.855263 0.442881 0.193931 -0.32189
N_ N_ 0.93738 0.354783 0.1853 -0.32189
N_ N_ 0.898584 0.196314 0.44636 -0.32189
N_ N_ 0.810499 0.189499 0.359818 -0.32189
O_ O_ -0.002403000000000044 0.0955634 0.373785 -0.63271
O_ O_ 0.547796 0.0342154 0.339147 -0.57982
O_ O_ 0.884227 0.101283 0.338763 -0.63271
O_ O_ 0.883239 0.0987876 0.421621 -0.57982
O_ O_ 0.742512 0.39034 0.0930033 -0.63271
O_ O_ 0.705526 0.334427 0.037105 -0.57982
O_ O_ 0.849375 0.345002 0.101326 -0.63271
O_ O_ 0.876371 0.42382 0.0963685 -0.57982
O_ O_ 0.486888 0.403097 0.0943729 -0.63271
O_ O_ 0.953614 0.462543 0.155051 -0.57982
O_ O_ 0.589621 0.397558 0.142604 -0.63271
O_ O_ 0.636539 0.405683 0.0783134 -0.57982
O_ O_ 0.764519 0.102559 0.411722 -0.63271
O_ O_ 0.808815 0.152676 0.466851 -0.57982
O_ O_ 0.655442 0.148726 0.409027 -0.63271
O_ O_ 0.627206 0.0738965 0.41471 -0.57982
F_ F_ 0.942032 0.314747 0.424524 -0.20885
F_ F_ 0.935488 0.319516 0.342368 -0.20885
F_ F_ 0.873496 0.291311 0.374506 -0.20885
F_ F_ 0.820362 0.439272 0.344339 -0.20885
F_ F_ 0.831145 0.352599 0.315353 -0.20885
F_ F_ 0.889093 0.39917 0.302895 -0.20885
F_ F_ 0.564493 0.175173 0.070937 -0.20885
F_ F_ 0.564657 0.169699 0.155025 -0.20885
F_ F_ 0.627108 0.203212 0.121281 -0.20885
F_ F_ 0.684555 0.058146 0.171289 -0.20885
F_ F_ 0.666634 0.142688 0.190342 -0.20885
F_ F_ 0.611682 0.0880714 0.200886 -0.20885
Zn Zn 0.586783 0.0807759 0.847896 0.83971
Zn Zn 0.660379 0.345359 0.585457 0.83971
Zn Zn 0.909071 0.420023 0.662348 0.83971
Zn Zn 0.835651 0.163212 0.926121 0.83971
H_ H_ 0.66416 0.129169 0.814046 0.10394
H_ H_ 0.745175 0.0983879 0.78268 0.10394
H_ H_ 0.713723 0.450847 0.790272 0.10394
H_ H_ 0.634731 0.978231 0.833568 0.10394
H_ H_ 0.0276186 0.102565 0.754519 0.10394
H_ H_ 0.98274 0.183772 0.716122 0.10394
H_ H_ 0.510928 0.258822 0.854198 0.10394
H_ H_ 0.565834 0.185922 0.883314 0.10394
H_ H_ 0.540413 0.458807 0.895655 0.10394
H_ H_ 0.97961 0.383504 0.878989 0.10394
H_ H_ 0.846479 0.492767 0.876523 0.10394
H_ H_ 0.585369 0.305211 0.633078 0.10394
H_ H_ 0.01151 0.265673 0.601208 0.10394
H_ H_ 0.541263 0.283176 0.947115 0.10394
H_ H_ 0.619485 0.318284 0.482558 0.10394
H_ H_ 0.713019 0.253448 0.606855 0.10394
H_ H_ 0.754486 0.207204 0.686241 0.10394
H_ H_ 0.706522 0.342803 0.774063 0.10394
H_ H_ 0.683867 0.388193 0.692879 0.10394
H_ H_ 0.715547 0.382691 0.941254 0.10394
H_ H_ 0.764741 0.408856 0.882279 0.10394
H_ H_ 0.890555 0.412798 0.993773 0.10394
H_ H_ 0.804779 0.39555 0.673976 0.10394
H_ H_ 0.735042 0.455113 0.700061 0.10394
H_ H_ 0.823192 0.0471017 0.772201 0.10394
H_ H_ 0.911408 0.497432 0.747406 0.10394
H_ H_ 0.507864 0.38717 0.716869 0.10394
H_ H_ 0.546588 0.309546 0.762836 0.10394
H_ H_ 0.912366 0.252528 0.736312 0.10394
H_ H_ 0.87232 0.332811 0.696358 0.10394
H_ H_ 0.963312 0.0587369 0.612731 0.10394
H_ H_ 0.519749 0.124365 0.61253 0.10394
H_ H_ 0.644187 0.00582908 0.589441 0.10394
H_ H_ 0.930849 0.176222 0.898025 0.10394
H_ H_ 0.516487 0.189869 0.95325 0.10394
H_ H_ 0.927261 0.268991 0.552846 0.10394
H_ H_ 0.85435 0.230549 0.0246278 0.10394
H_ H_ 0.733475 0.197714 0.890877 0.10394
H_ H_ 0.688521 0.236992 0.815552 0.10394
H_ H_ 0.831305 0.243555 0.75805 0.10394
H_ H_ 0.874453 0.199073 0.829953 0.10394
H_ H_ 0.789038 0.132884 0.560399 0.10394
H_ H_ 0.731203 0.122521 0.625817 0.10394
H_ H_ 0.613803 0.0875028 0.51113 0.10394
C_ C_ 0.673296 0.0880433 0.804637 0.18167
C_ C_ 0.719679 0.0694845 0.786519 -0.15533
C_ C_ 0.728583 0.0174946 0.772305 0.02923
C_ C_ 0.703058 0.491879 0.792536 -0.15533
C_ C_ 0.654638 0.00209649 0.812315 0.18167
C_ C_ 0.53621 0.13958 0.768441 0.18167
C_ C_ 0.00634248 0.18567 0.751087 -0.15533
C_ C_ 0.499726 0.226437 0.775042 0.02923
C_ C_ 0.518773 0.226445 0.82673 -0.15533
C_ C_ 0.54726 0.183097 0.846973 0.18167
C_ C_ 0.503257 0.0440882 0.864205 0.69207
C_ C_ 0.968308 0.515335 0.87186 0.02923
C_ C_ 0.989545 0.462473 0.871471 -0.15533
C_ C_ 0.95959 0.422778 0.880439 -0.15533
C_ C_ 0.907551 0.434819 0.888833 0.02923
C_ C_ 0.886921 0.484962 0.879868 -0.15533
C_ C_ 0.91531 0.527628 0.873838 0.02923
C_ C_ 0.8826 0.0790006 0.884322 0.69207
C_ C_ 0.903884 0.339807 0.910804 0.69661
C_ C_ 0.575592 0.294683 0.593459 0.18167
C_ C_ 0.530631 0.27131 0.575596 -0.15533
C_ C_ 0.515772 0.266795 0.523004 0.02923
C_ C_ 0.546487 0.285706 0.988217 -0.15533
C_ C_ 0.594908 0.301595 0.506297 0.18167
C_ C_ 0.712335 0.269808 0.645035 0.18167
C_ C_ 0.73507 0.244409 0.689194 -0.15533
C_ C_ 0.729791 0.272507 0.733785 0.02923
C_ C_ 0.708925 0.322809 0.736605 -0.15533
C_ C_ 0.693242 0.347089 0.691334 0.18167
C_ C_ 0.744772 0.369831 0.550331 0.69207
C_ C_ 0.773026 0.37803 1.00741478 0.02923
C_ C_ 0.752239 0.386296 0.956507 -0.15533
C_ C_ 0.782053 0.40358 0.920109 -0.15533
C_ C_ 0.834151 0.407201 0.933668 0.02923
C_ C_ 0.851458 0.407986 0.985143 -0.15533
C_ C_ 0.824006 0.387794 0.022238 0.02923
C_ C_ 0.856991 0.372562 0.577545 0.69207
C_ C_ 0.847007 0.375842 0.841666 0.69661
C_ C_ 0.813729 0.429074 0.695865 0.18167
C_ C_ 0.77296 0.46195 0.714526 -0.15533
C_ C_ 0.782428 0.501497 0.749823 0.02923
C_ C_ 0.818211 0.0176592 0.74192 -0.15533
C_ C_ 0.873504 0.484367 0.741278 0.18167
C_ C_ 0.994452 0.353903 0.702299 0.18167
C_ C_ 0.506515 0.314424 0.750554 -0.15533
C_ C_ 0.987166 0.279942 0.748728 0.02923
C_ C_ 0.935664 0.282536 0.732581 -0.15533
C_ C_ 0.913748 0.326312 0.705082 0.18167
C_ C_ 0.986437 0.458325 0.62585 0.69207
C_ C_ 0.51749 0.99592 0.598485 0.02923
C_ C_ 0.502926 0.0481635 0.60642 -0.15533
C_ C_ 0.53719 0.0839352 0.611356 -0.15533
C_ C_ 0.588302 0.07106 0.600228 0.02923
C_ C_ 0.603288 0.0180866 0.589389 -0.15533
C_ C_ 0.569922 0.981841 0.589409 0.02923
C_ C_ 0.590653 0.42099 0.598991 0.69207
C_ C_ 0.609086 0.163901 0.607889 0.69661
C_ C_ 0.933439 0.192885 0.934955 0.18167
C_ C_ 0.978975 0.208086 0.958352 -0.15533
C_ C_ 0.976718 0.244595 0.000998569 0.02923
C_ C_ 0.932091 0.246116 0.518404 -0.15533
C_ C_ 0.889801 0.226616 1.00461941 0.18167
C_ C_ 0.75562 0.213303 0.863777 0.18167
C_ C_ 0.729837 0.237963 0.821685 -0.15533
C_ C_ 0.757393 0.249772 0.782788 0.02923
C_ C_ 0.811951 0.235733 0.788548 -0.15533
C_ C_ 0.834203 0.208637 0.828728 0.18167
C_ C_ 0.758867 0.133952 0.956969 0.69207
C_ C_ 0.735678 0.116401 0.495234 0.02923
C_ C_ 0.752897 0.119767 0.547685 -0.15533
C_ C_ 0.717998 0.116171 0.584915 -0.15533
C_ C_ 0.670116 0.10112 0.573402 0.02923
C_ C_ 0.65307 0.0952283 0.521054 -0.15533
C_ C_ 0.68509 0.101288 0.482989 0.02923
C_ C_ 0.650161 0.107592 0.92768 0.69207
C_ C_ 0.651566 0.101135 0.670282 0.69661
C_ C_ 0.87333 0.390906 0.894427 -0.30787
C_ C_ 0.630315 0.108274 0.612162 -0.30787
N_ N_ 0.640419 0.0534794 0.816555 -0.32189
N_ N_ 0.5507 0.139727 0.819841 -0.32189
N_ N_ 0.606204 0.308274 0.557698 -0.32189
N_ N_ 0.688533 0.31807 0.647401 -0.32189
N_ N_ 0.86151 0.44426 0.708439 -0.32189
N_ N_ 0.943549 0.3595 0.69213 -0.32189
N_ N_ 0.890672 0.198401 0.959668 -0.32189
N_ N_ 0.806526 0.196416 0.865371 -0.32189
O_ O_ -0.0040839999999999765 0.103025 0.876248 -0.63271
O_ O_ 0.542206 0.0314702 0.834745 -0.57982
O_ O_ 0.885944 0.106366 0.844756 -0.63271
O_ O_ 0.859483 0.0987507 0.923403 -0.57982
O_ O_ 0.738644 0.404897 0.587093 -0.63271
O_ O_ 0.710827 0.336843 0.542998 -0.57982
O_ O_ 0.853715 0.335606 0.606453 -0.63271
O_ O_ 0.87455 0.414856 0.597639 -0.57982
O_ O_ 0.485101 0.401194 0.603882 -0.63271
O_ O_ 0.946892 0.469555 0.652179 -0.57982
O_ O_ 0.59455 0.397062 0.642904 -0.63271
O_ O_ 0.622642 0.40412 0.565931 -0.57982
O_ O_ 0.755744 0.109081 0.912297 -0.63271
O_ O_ 0.795505 0.162888 0.971772 -0.57982
O_ O_ 0.64595 0.148894 0.904796 -0.63271
O_ O_ 0.620442 0.0712791 0.911078 -0.57982
F_ F_ 0.940811 0.34364 0.953928 -0.20885
F_ F_ 0.930867 0.311598 0.875279 -0.20885
F_ F_ 0.871647 0.306184 0.920732 -0.20885
F_ F_ 0.819552 0.417151 0.819109 -0.20885
F_ F_ 0.814199 0.338147 0.841021 -0.20885
F_ F_ 0.883571 0.362043 0.807968 -0.20885
F_ F_ 0.576965 0.171585 0.565 -0.20885
F_ F_ 0.583707 0.181859 0.648118 -0.20885
F_ F_ 0.646806 0.196116 0.605363 -0.20885
F_ F_ 0.684357 0.0571116 0.677691 -0.20885
F_ F_ 0.679855 0.139607 0.694448 -0.20885
F_ F_ 0.612925 0.100387 0.701085 -0.20885
Zn Zn 0.588077 0.581098 0.349052 0.83971
Zn Zn 0.660302 0.842032 0.079385 0.83971
Zn Zn 0.913379 0.911351 0.155301 0.83971
Zn Zn 0.838143 0.651436 0.413023 0.83971
H_ H_ 0.670898 0.630187 0.305223 0.10394
H_ H_ 0.738819 0.594669 0.256456 0.10394
H_ H_ 0.711415 0.948308 0.285766 0.10394
H_ H_ 0.625307 0.483366 0.314527 0.10394
H_ H_ 0.0239058 0.592331 0.256633 0.10394
H_ H_ 0.986753 0.669595 0.207913 0.10394
H_ H_ 0.539082 0.766615 0.315406 0.10394
H_ H_ 0.584161 0.695222 0.3644 0.10394
H_ H_ 0.526442 0.941678 0.343938 0.10394
H_ H_ 0.971118 0.881107 0.374226 0.10394
H_ H_ 0.845936 0.997096 0.386056 0.10394
H_ H_ 0.574395 0.803336 0.128556 0.10394
H_ H_ 1.00722 0.761664 0.0959819 0.10394
H_ H_ 0.53502 0.792741 0.441996 0.10394
H_ H_ 0.610075 0.829991 0.983205 0.10394
H_ H_ 0.704179 0.744792 0.0979493 0.10394
H_ H_ 0.758088 0.702207 0.171218 0.10394
H_ H_ 0.729693 0.83896 0.264972 0.10394
H_ H_ 0.680812 0.880596 0.191074 0.10394
H_ H_ 0.711502 0.87376 0.441953 0.10394
H_ H_ 0.764605 0.887814 0.376853 0.10394
H_ H_ 0.88935 0.919769 0.484334 0.10394
H_ H_ 0.813187 0.89043 0.160071 0.10394
H_ H_ 0.739547 0.937886 0.194673 0.10394
H_ H_ 0.830982 0.529257 0.288224 0.10394
H_ H_ 0.912283 0.99211895 0.234598 0.10394
H_ H_ 0.515939 0.866157 0.183862 0.10394
H_ H_ 0.551972 0.786562 0.222622 0.10394
H_ H_ 0.911087 0.761162 0.25598 0.10394
H_ H_ 0.871792 0.837188 0.205973 0.10394
H_ H_ 0.958865 0.549588 0.1138 0.10394
H_ H_ 0.510194 0.610547 0.080653 0.10394
H_ H_ 0.645124 0.500776 0.0798067 0.10394
H_ H_ 0.943157 0.656701 0.389422 0.10394
H_ H_ 0.516178 0.692351 0.445155 0.10394
H_ H_ 0.917698 0.774026 0.0494284 0.10394
H_ H_ 0.848553 0.724519 0.497589 0.10394
H_ H_ 0.728296 0.70279 0.379038 0.10394
H_ H_ 0.694368 0.748179 0.304598 0.10394
H_ H_ 0.840738 0.718719 0.244777 0.10394
H_ H_ 0.878069 0.675092 0.323092 0.10394
H_ H_ 0.774058 0.645928 0.0584703 0.10394
H_ H_ 0.728608 0.607621 0.12107 0.10394
H_ H_ 0.608389 0.576831 0.0012046 0.10394
C_ C_ 0.677939 0.588022 0.297116 0.18167
C_ C_ 0.722909 0.567466 0.278937 -0.15533
C_ C_ 0.733984 0.514603 0.273471 0.02923
C_ C_ 0.703417 0.986901 0.282924 -0.15533
C_ C_ 0.653959 0.507757 0.306011 0.18167
C_ C_ 0.524327 0.623635 0.270844 0.18167
C_ C_ 0.00453652 0.673776 0.245392 -0.15533
C_ C_ 0.502551 0.715654 0.258916 0.02923
C_ C_ 0.534142 0.726598 0.303492 -0.15533
C_ C_ 0.561431 0.685769 0.329588 0.18167
C_ C_ 0.505234 0.544715 0.364428 0.69207
C_ C_ 0.97258 0.00890383 0.366502 0.02923
C_ C_ -0.009561000000000042 0.958227 0.370312 -0.15533
C_ C_ 0.959174 0.922413 0.381966 -0.15533
C_ C_ 0.907915 0.9354 0.387107 0.02923
C_ C_ 0.888252 0.986663 0.387016 -0.15533
C_ C_ 0.920402 0.0232114 0.37968 0.02923
C_ C_ 0.899784 0.565879 0.387571 0.69207
C_ C_ 0.894614 0.834462 0.393446 0.69661
C_ C_ 0.567126 0.796944 0.0893354 0.18167
C_ C_ 0.523649 0.773315 0.0714469 -0.15533
C_ C_ 0.511324 0.771172 0.0173751 0.02923
C_ C_ 0.546453 0.792157 0.483689 -0.15533
C_ C_ 0.587551 0.808575 0.00524865 0.18167
C_ C_ 0.71345 0.767079 0.13401 0.18167
C_ C_ 0.74132 0.741279 0.175703 -0.15533
C_ C_ 0.744925 0.766254 0.223383 0.02923
C_ C_ 0.7268 0.819816 0.228091 -0.15533
C_ C_ 0.70131 0.844567 0.18607 0.18167
C_ C_ 0.742189 0.86872 0.0443142 0.69207
C_ C_ 0.772091 0.886679 0.502968 0.02923
C_ C_ 0.751106 0.884918 0.452845 -0.15533
C_ C_ 0.781892 0.894836 0.416507 -0.15533
C_ C_ 0.835642 0.898042 0.425337 0.02923
C_ C_ 0.85385 0.904006 0.476893 -0.15533
C_ C_ 0.824641 0.891842 0.515892 0.02923
C_ C_ 0.856893 0.883212 0.0701228 0.69207
C_ C_ 0.846809 0.888976 0.327508 0.69661
C_ C_ 0.816981 0.926792 0.182061 0.18167
C_ C_ 0.775868 0.952987 0.20382 -0.15533
C_ C_ 0.782044 0.994705 0.239407 0.02923
C_ C_ 0.824901 0.506964 0.252299 -0.15533
C_ C_ 0.871683 0.985117 0.224331 0.18167
C_ C_ 0.99667073 0.844543 0.191884 0.18167
C_ C_ 0.51151 0.792642 0.214272 -0.15533
C_ C_ 0.986233 0.769839 0.239889 0.02923
C_ C_ 0.935717 0.784718 0.23856 -0.15533
C_ C_ 0.913906 0.824556 0.207945 0.18167
C_ C_ 0.989536 0.949303 0.116732 0.69207
C_ C_ 0.521358 0.487407 0.106785 0.02923
C_ C_ 0.501827 0.538802 0.103144 -0.15533
C_ C_ 0.531375 0.576241 0.0950122 -0.15533
C_ C_ 0.584198 0.564582 0.0906964 0.02923
C_ C_ 0.606654 0.511994 0.0914757 -0.15533
C_ C_ 0.573377 0.473843 0.0944277 0.02923
C_ C_ 0.604332 0.92166 0.104983 0.69207
C_ C_ 0.595251 0.661077 0.0982343 0.69661
C_ C_ 0.937271 0.681506 0.423138 0.18167
C_ C_ 0.978797 0.702976 0.447961 -0.15533
C_ C_ 0.972193 0.737609 0.491832 0.02923
C_ C_ 0.922324 0.754183 1.0123792 -0.15533
C_ C_ 0.883435 0.718929 0.483228 0.18167
C_ C_ 0.755281 0.709482 0.351675 0.18167
C_ C_ 0.736209 0.737579 0.311446 -0.15533
C_ C_ 0.766546 0.740643 0.271143 0.02923
C_ C_ 0.818727 0.722055 0.276635 -0.15533
C_ C_ 0.837126 0.694023 0.320622 0.18167
C_ C_ 0.76151 0.62067 0.452552 0.69207
C_ C_ 0.72866 0.612947 0.991019 0.02923
C_ C_ 0.741492 0.623368 0.044179 -0.15533
C_ C_ 0.711893 0.61159 0.08201 -0.15533
C_ C_ 0.660761 0.600745 0.0680307 0.02923
C_ C_ 0.646495 0.589763 0.0155032 -0.15533
C_ C_ 0.677161 0.600754 0.976955 0.02923
C_ C_ 0.648642 0.60514 0.424033 0.69207
C_ C_ 0.637502 0.60599 0.160851 0.69661
C_ C_ 0.871137 0.890519 0.380934 -0.30787
C_ C_ 0.618522 0.607833 0.103547 -0.30787
N_ N_ 0.643996 0.557858 0.312323 -0.32189
N_ N_ 0.551889 0.637265 0.314656 -0.32189
N_ N_ 0.601404 0.808792 0.0564355 -0.32189
N_ N_ 0.694941 0.816761 0.139799 -0.32189
N_ N_ 0.861299 0.945722 0.1903 -0.32189
N_ N_ 0.944346 0.852622 0.185534 -0.32189
N_ N_ 0.889057 0.691754 0.439673 -0.32189
N_ N_ 0.80655 0.691098 0.357643 -0.32189
O_ O_ 0.0102228 0.587701 0.399415 -0.63271
O_ O_ 0.544853 0.532268 0.338338 -0.57982
O_ O_ 0.899325 0.58787 0.342553 -0.63271
O_ O_ 0.870841 0.587086 0.422482 -0.57982
O_ O_ 0.745399 0.89359 0.0897787 -0.63271
O_ O_ 0.702964 0.842245 0.029881 -0.57982
O_ O_ 0.853866 0.841937 0.0910371 -0.63271
O_ O_ 0.890254 0.914812 0.0895788 -0.57982
O_ O_ 0.494772 0.898041 0.0930156 -0.63271
O_ O_ 0.956504 0.960616 0.149966 -0.57982
O_ O_ 0.603701 0.896621 0.145556 -0.63271
O_ O_ 0.637689 0.906399 0.0749301 -0.57982
O_ O_ 0.75844 0.599105 0.407165 -0.63271
O_ O_ 0.7917 0.656583 0.461001 -0.57982
O_ O_ 0.649954 0.642718 0.394576 -0.63271
O_ O_ 0.614222 0.573796 0.409588 -0.57982
F_ F_ 0.929017 0.832188 0.439237 -0.20885
F_ F_ 0.923404 0.80789 0.354633 -0.20885
F_ F_ 0.86146 0.799209 0.402444 -0.20885
F_ F_ 0.811679 0.929925 0.322988 -0.20885
F_ F_ 0.821497 0.846972 0.317759 -0.20885
F_ F_ 0.879962 0.886871 0.290834 -0.20885
F_ F_ 0.567726 0.666927 0.0486984 -0.20885
F_ F_ 0.557033 0.676432 0.129552 -0.20885
F_ F_ 0.628568 0.698664 0.101409 -0.20885
F_ F_ 0.672794 0.562544 0.168615 -0.20885
F_ F_ 0.662033 0.647164 0.180162 -0.20885
F_ F_ 0.59962 0.601681 0.192368 -0.20885
Zn Zn 0.589373 0.593884 0.849155 0.83971
Zn Zn 0.658305 0.851555 0.575714 0.83971
Zn Zn 0.906634 0.917114 0.652065 0.83971
Zn Zn 0.833753 0.661129 0.912339 0.83971
H_ H_ 0.670646 0.635961 0.803263 0.10394
H_ H_ 0.744664 0.602371 0.765272 0.10394
H_ H_ 0.71032 0.941718 0.791392 0.10394
H_ H_ 0.632784 0.485931 0.817862 0.10394
H_ H_ 0.0245728 0.594071 0.74787 0.10394
H_ H_ 0.97156 0.668861 0.703781 0.10394
H_ H_ 0.563267 0.773747 0.816249 0.10394
H_ H_ 0.583134 0.701011 0.875904 0.10394
H_ H_ 0.521844 0.944224 0.849861 0.10394
H_ H_ 0.97661 0.889386 0.882489 0.10394
H_ H_ 0.849076 0.997539 0.90418 0.10394
H_ H_ 0.582161 0.806507 0.628137 0.10394
H_ H_ -0.00707987 0.77654 0.591744 0.10394
H_ H_ 0.526034 0.798973 0.94619 0.10394
H_ H_ 0.624477 0.80781 0.47743 0.10394
H_ H_ 0.719545 0.757041 0.59273 0.10394
H_ H_ 0.767444 0.715635 0.668279 0.10394
H_ H_ 0.70443 0.836849 0.762223 0.10394
H_ H_ 0.664543 0.880101 0.68667 0.10394
H_ H_ 0.710892 0.906176 0.952339 0.10394
H_ H_ 0.763541 0.925436 0.888365 0.10394
H_ H_ 0.899295 0.905002 0.986498 0.10394
H_ H_ 0.801552 0.895332 0.659128 0.10394
H_ H_ 0.727144 0.942155 0.698748 0.10394
H_ H_ 0.841295 0.544939 0.787116 0.10394
H_ H_ 0.898865 0.99773762 0.739021 0.10394
H_ H_ 0.518911 0.879523 0.669635 0.10394
H_ H_ 0.561256 0.809021 0.721232 0.10394
H_ H_ 0.9046 0.746479 0.715801 0.10394
H_ H_ 0.869128 0.831999 0.692536 0.10394
H_ H_ 0.967129 0.560605 0.642416 0.10394
H_ H_ 0.518904 0.613656 0.62568 0.10394
H_ H_ 0.63533 0.502479 0.583596 0.10394
H_ H_ 0.937309 0.668647 0.88853 0.10394
H_ H_ 0.50958 0.706706 0.934342 0.10394
H_ H_ 0.920209 0.758174 0.54856 0.10394
H_ H_ 0.847821 0.723735 1.00802978 0.10394
H_ H_ 0.72359 0.697309 0.876783 0.10394
H_ H_ 0.685711 0.739776 0.802977 0.10394
H_ H_ 0.829375 0.766508 0.762763 0.10394
H_ H_ 0.871487 0.709146 0.833972 0.10394
H_ H_ 0.78372 0.601645 0.550235 0.10394
H_ H_ 0.73129 0.574904 0.614623 0.10394
H_ H_ 0.599956 0.596727 0.504574 0.10394
C_ C_ 0.680559 0.596549 0.804179 0.18167
C_ C_ 0.724412 0.577035 0.784177 -0.15533
C_ C_ 0.738281 0.523379 0.777442 0.02923
C_ C_ 0.697704 0.982532 0.788889 -0.15533
C_ C_ 0.657298 0.512346 0.808536 0.18167
C_ C_ 0.527872 0.641762 0.771972 0.18167
C_ C_ -0.004334999999999978 0.675524 0.73888 -0.15533
C_ C_ 0.515019 0.733196 0.760307 0.02923
C_ C_ 0.547879 0.737591 0.805665 -0.15533
C_ C_ 0.567004 0.695744 0.836286 0.18167
C_ C_ 0.511616 0.555421 0.878367 0.69207
C_ C_ 0.969113 0.0179258 0.880648 0.02923
C_ C_ -0.008670999999999984 0.967047 0.884206 -0.15533
C_ C_ 0.959472 0.928385 0.891376 -0.15533
C_ C_ 0.909309 0.938451 0.896879 0.02923
C_ C_ 0.889976 0.989105 0.903064 -0.15533
C_ C_ 0.917582 0.0288433 0.893252 0.02923
C_ C_ 0.890731 0.581047 0.877066 0.69207
C_ C_ 0.897927 0.838035 0.89428 0.69661
C_ C_ 0.572542 0.799777 0.587589 0.18167
C_ C_ 0.528754 0.780641 0.569811 -0.15533
C_ C_ 0.515468 0.774054 0.516529 0.02923
C_ C_ 0.537949 0.797523 0.986561 -0.15533
C_ C_ 0.595793 0.804564 0.503515 0.18167
C_ C_ 0.715824 0.773254 0.629913 0.18167
C_ C_ 0.74237 0.751369 0.672787 -0.15533
C_ C_ 0.730474 0.770491 0.721865 0.02923
C_ C_ 0.703003 0.817144 0.725606 -0.15533
C_ C_ 0.683134 0.842901 0.682219 0.18167
C_ C_ 0.73709 0.874092 0.541738 0.69207
C_ C_ 0.775829 0.885386 1.00777122 0.02923
C_ C_ 0.753196 0.899583 0.958572 -0.15533
C_ C_ 0.782387 0.910277 0.919938 -0.15533
C_ C_ 0.836478 0.903396 0.928919 0.02923
C_ C_ 0.858033 0.901653 0.980603 -0.15533
C_ C_ 0.829064 0.891947 0.0196702 0.02923
C_ C_ 0.853962 0.881207 0.56558 0.69207
C_ C_ 0.844699 0.891834 0.832333 0.69661
C_ C_ 0.805691 0.931961 0.680781 0.18167
C_ C_ 0.765928 0.954793 0.709128 -0.15533
C_ C_ 0.770782 -0.0009519999999999529 0.73916 0.02923
C_ C_ 0.832056 0.516133 0.759387 -0.15533
C_ C_ 0.861764 0.991058 0.72036 0.18167
C_ C_ 0.986646 0.852142 0.700155 0.18167
C_ C_ 0.519555 0.815004 0.716783 -0.15533
C_ C_ 0.978515 0.770796 0.735005 0.02923
C_ C_ 0.928912 0.77586 0.712697 -0.15533
C_ C_ 0.90706 0.822297 0.692743 0.18167
C_ C_ 0.981448 0.954499 0.612424 0.69207
C_ C_ 0.517947 0.484548 0.612211 0.02923
C_ C_ 0.498648 0.537884 0.614834 -0.15533
C_ C_ 0.530175 0.576667 0.607909 -0.15533
C_ C_ 0.582351 0.564586 0.601627 0.02923
C_ C_ 0.598855 0.512744 0.591468 -0.15533
C_ C_ 0.56822 0.473068 0.598235 0.02923
C_ C_ 0.592377 0.926801 0.590135 0.69207
C_ C_ 0.600368 0.658909 0.612463 0.69661
C_ C_ 0.932907 0.693771 0.923608 0.18167
C_ C_ 0.976681 0.708665 0.95076 -0.15533
C_ C_ 0.970939 0.744136 0.993974 0.02923
C_ C_ 0.925968 0.737881 0.511324 -0.15533
C_ C_ 0.882007 0.727435 0.988398 0.18167
C_ C_ 0.747588 0.702027 0.846608 0.18167
C_ C_ 0.723411 0.725635 0.80302 -0.15533
C_ C_ 0.755167 0.743989 0.76797 0.02923
C_ C_ 0.808913 0.739405 0.779019 -0.15533
C_ C_ 0.83027 0.710644 0.821508 0.18167
C_ C_ 0.764729 0.623498 0.951663 0.69207
C_ C_ 0.726268 0.609578 0.490672 0.02923
C_ C_ 0.745792 0.599808 0.539089 -0.15533
C_ C_ 0.713834 0.591922 0.576932 -0.15533
C_ C_ 0.659923 0.596546 0.565752 0.02923
C_ C_ 0.639609 0.603277 0.515208 -0.15533
C_ C_ 0.673926 0.604049 0.476852 0.02923
C_ C_ 0.650618 0.613357 0.926047 0.69207
C_ C_ 0.650372 0.597249 0.663926 0.69661
C_ C_ 0.873242 0.895597 0.888326 -0.30787
C_ C_ 0.623732 0.603152 0.608027 -0.30787
N_ N_ 0.644255 0.564774 0.812339 -0.32189
N_ N_ 0.559257 0.648396 0.816516 -0.32189
N_ N_ 0.606075 0.810957 0.55408 -0.32189
N_ N_ 0.685318 0.818834 0.63445 -0.32189
N_ N_ 0.853984 0.94881 0.689458 -0.32189
N_ N_ 0.935896 0.858891 0.684869 -0.32189
N_ N_ 0.888848 0.698758 0.943757 -0.32189
N_ N_ 0.799141 0.689159 0.850044 -0.32189
O_ O_ 1.000071609 0.601187 0.8858 -0.63271
O_ O_ 0.549099 0.543452 0.848743 -0.57982
O_ O_ 0.888063 0.610789 0.83645 -0.63271
O_ O_ 0.861415 0.595198 0.912588 -0.57982
O_ O_ 0.734945 0.89996 0.586695 -0.63271
O_ O_ 0.707059 0.83753 0.532772 -0.57982
O_ O_ 0.85747 0.839045 0.587481 -0.63271
O_ O_ 0.872662 0.92103 0.589567 -0.57982
O_ O_ 0.485503 0.913061 0.585416 -0.63271
O_ O_ 0.947809 0.964388 0.645575 -0.57982
O_ O_ 0.59481 0.904492 0.633987 -0.63271
O_ O_ 0.623818 0.909654 0.55811 -0.57982
O_ O_ 0.757353 0.60372 0.905047 -0.63271
O_ O_ 0.793373 0.660283 0.961187 -0.57982
O_ O_ 0.656121 0.656105 0.90286 -0.63271
O_ O_ 0.610842 0.591003 0.912853 -0.57982
F_ F_ 0.934828 0.834797 0.937618 -0.20885
F_ F_ 0.919641 0.810379 0.854419 -0.20885
F_ F_ 0.860614 0.808028 0.904536 -0.20885
F_ F_ 0.821469 0.940306 0.820649 -0.20885
F_ F_ 0.807802 0.856505 0.82253 -0.20885
F_ F_ 0.87885 0.887487 0.798043 -0.20885
F_ F_ 0.558154 0.664837 0.574715 -0.20885
F_ F_ 0.585989 0.680458 0.659089 -0.20885
F_ F_ 0.633196 0.690367 0.600005 -0.20885
F_ F_ 0.676151 0.549194 0.666072 -0.20885
F_ F_ 0.684904 0.630481 0.682527 -0.20885
F_ F_ 0.612692 0.597025 0.69849 -0.20885
