_cell_length_a 26.508
_cell_length_b 26.37200000322088
_cell_length_c 26.311999743092066
_cell_angle_alpha 93.74100058972084
_cell_angle_beta 96.04100104955006
_cell_angle_gamma 83.6869992558723
_symmetry_space_group_name_H-M         'P 1'
_symmetry_Int_Tables_number            1
loop_
_symmetry_equiv_pos_as_xyz
   'x, y, z'
                         
loop_
_atom_site_label
_atom_site_type_symbol
_atom_site_fract_x 
_atom_site_fract_y
_atom_site_fract_z
_atom_site_charge
Zn Zn 0.0863265 0.0908641 0.345533 0.83971
Zn Zn 0.157841 0.346372 0.0823834 0.83971
Zn Zn 0.401733 0.419439 0.147126 0.83971
Zn Zn 0.336669 0.165201 0.420358 0.83971
H_ H_ 0.171338 0.139774 0.310511 0.10394
H_ H_ 0.261055 0.0952731 0.293075 0.10394
H_ H_ 0.200979 0.454097 0.264288 0.10394
H_ H_ 0.124709 0.99147 0.309696 0.10394
H_ H_ 0.532292 0.108842 0.2488 0.10394
H_ H_ 0.482597 0.182931 0.206614 0.10394
H_ H_ 0.0408446 0.285161 0.341647 0.10394
H_ H_ 0.0759857 0.202038 0.383087 0.10394
H_ H_ 0.0302712 0.445904 0.380515 0.10394
H_ H_ 0.479357 0.38227 0.369339 0.10394
H_ H_ 0.350638 0.492901 0.398133 0.10394
H_ H_ 0.0762916 0.313996 0.133702 0.10394
H_ H_ 0.499155 0.274672 0.0964733 0.10394
H_ H_ 0.0342791 0.288756 0.443297 0.10394
H_ H_ 0.124354 0.305292 0.985161 0.10394
H_ H_ 0.209287 0.242212 0.103883 0.10394
H_ H_ 0.258448 0.204285 0.18155 0.10394
H_ H_ 0.222637 0.346739 0.265603 0.10394
H_ H_ 0.174466 0.383481 0.187291 0.10394
H_ H_ 0.210492 0.373931 0.43833 0.10394
H_ H_ 0.266951 0.3808 0.373044 0.10394
H_ H_ 0.389393 0.413433 0.491355 0.10394
H_ H_ 0.294879 0.402054 0.153864 0.10394
H_ H_ 0.224574 0.459374 0.176328 0.10394
H_ H_ 0.334384 0.0415971 0.287995 0.10394
H_ H_ 0.399534 0.497685 0.22713 0.10394
H_ H_ 0.0110609 0.39643 0.19742 0.10394
H_ H_ 0.052488 0.323078 0.244428 0.10394
H_ H_ 0.411559 0.259242 0.235111 0.10394
H_ H_ 0.371865 0.33037 0.190743 0.10394
H_ H_ 0.467014 0.0543134 0.135295 0.10394
H_ H_ 0.0181729 0.11942 0.100453 0.10394
H_ H_ 0.140569 0.0032624 0.0865396 0.10394
H_ H_ 0.437987 0.179058 0.389621 0.10394
H_ H_ 0.0154895 0.189061 0.446723 0.10394
H_ H_ 0.40781 0.281914 0.0507942 0.10394
H_ H_ 0.347062 0.235458 0.507869 0.10394
H_ H_ 0.245572 0.229627 0.394545 0.10394
H_ H_ 0.212612 0.289519 0.327505 0.10394
H_ H_ 0.336097 0.220148 0.242369 0.10394
H_ H_ 0.373592 0.178982 0.318361 0.10394
H_ H_ 0.286324 0.0999592 0.0486732 0.10394
H_ H_ 0.231999 0.0844741 0.111483 0.10394
H_ H_ 0.0979863 0.106885 0.00942615 0.10394
C_ C_ 0.182195 0.0984835 0.309278 0.18167
C_ C_ 0.225993 0.0784445 0.28786 -0.15533
C_ C_ 0.231509 0.0258154 0.273517 0.02923
C_ C_ 0.198384 0.493946 0.278455 -0.15533
C_ C_ 0.151372 0.0164624 0.302631 0.18167
C_ C_ 0.0247418 0.150684 0.275989 0.18167
C_ C_ 0.504817 0.188895 0.241157 -0.15533
C_ C_ 0.00515287 0.242472 0.276326 0.02923
C_ C_ 0.0328951 0.247425 0.32538 -0.15533
C_ C_ 0.0583716 0.201009 0.344717 0.18167
C_ C_ 0.00348329 0.0508647 0.358738 0.69207
C_ C_ 0.471661 0.514717 0.37739 0.02923
C_ C_ 0.489974 0.461294 0.3677 -0.15533
C_ C_ 0.460608 0.422262 0.376477 -0.15533
C_ C_ 0.408128 0.433367 0.386891 0.02923
C_ C_ 0.389338 0.484958 0.392663 -0.15533
C_ C_ 0.419242 0.524969 0.387109 0.02923
C_ C_ 0.392344 0.0785536 0.388804 0.69207
C_ C_ 0.395602 0.33534 0.387894 0.69661
C_ C_ 0.0715419 0.300677 0.0933536 0.18167
C_ C_ 0.0282636 0.277877 0.0768447 -0.15533
C_ C_ 0.0175115 0.266442 0.0247562 0.02923
C_ C_ 0.0438034 0.28797 0.485111 -0.15533
C_ C_ 0.0966452 0.296668 0.00913264 0.18167
C_ C_ 0.216595 0.266114 0.137747 0.18167
C_ C_ 0.244387 0.245609 0.180223 -0.15533
C_ C_ 0.244164 0.27392 0.228083 0.02923
C_ C_ 0.217768 0.322414 0.230883 -0.15533
C_ C_ 0.19381 0.344232 0.186828 0.18167
C_ C_ 0.237721 0.364938 0.0400365 0.69207
C_ C_ 0.269786 0.376875 0.502138 0.02923
C_ C_ 0.248989 0.382231 0.450895 -0.15533
C_ C_ 0.280621 0.389204 0.411499 -0.15533
C_ C_ 0.332865 0.400736 0.423746 0.02923
C_ C_ 0.351386 0.401213 0.476804 -0.15533
C_ C_ 0.321836 0.38665 0.515931 0.02923
C_ C_ 0.349603 0.377888 0.0681697 0.69207
C_ C_ 0.346985 0.395105 0.325737 0.69661
C_ C_ 0.300053 0.438434 0.17203 0.18167
C_ C_ 0.261664 0.466785 0.193955 -0.15533
C_ C_ 0.270517 0.507357 0.23101 0.02923
C_ C_ 0.323843 0.0139922 0.255757 -0.15533
C_ C_ 0.359693 0.493632 0.213242 0.18167
C_ C_ 0.490677 0.366797 0.20126 0.18167
C_ C_ 0.00943032 0.328057 0.237253 -0.15533
C_ C_ 0.487361 0.283373 0.236255 0.02923
C_ C_ 0.43626 0.284787 0.221512 -0.15533
C_ C_ 0.413122 0.325918 0.194641 0.18167
C_ C_ 0.481988 0.454612 0.114603 0.69207
C_ C_ 0.0209867 0.987284 0.111559 0.02923
C_ C_ 0.0011939 0.0403003 0.111909 -0.15533
C_ C_ 0.0327691 0.0786067 0.103876 -0.15533
C_ C_ 0.0863643 0.0658417 0.101976 0.02923
C_ C_ 0.100546 0.0145813 0.0929467 -0.15533
C_ C_ 0.0726852 0.975754 0.101051 0.02923
C_ C_ 0.0927522 0.427324 0.101023 0.69207
C_ C_ 0.102502 0.16043 0.115356 0.69661
C_ C_ 0.434006 0.19667 0.428436 0.18167
C_ C_ 0.47832 0.211553 0.457163 -0.15533
C_ C_ 0.471835 0.242774 0.504321 0.02923
C_ C_ 0.414328 0.256648 0.0191062 -0.15533
C_ C_ 0.383477 0.227416 0.493469 0.18167
C_ C_ 0.264625 0.226891 0.359974 0.18167
C_ C_ 0.242789 0.256564 0.320353 -0.15533
C_ C_ 0.26754 0.250421 0.275652 0.02923
C_ C_ 0.315187 0.221844 0.275222 -0.15533
C_ C_ 0.335547 0.193545 0.316257 0.18167
C_ C_ 0.258068 0.132595 0.45451 0.69207
C_ C_ 0.221819 0.109614 0.988004 0.02923
C_ C_ 0.243337 0.102568 0.0387419 -0.15533
C_ C_ 0.213569 0.0948031 0.0768058 -0.15533
C_ C_ 0.160636 0.100704 0.0670973 0.02923
C_ C_ 0.138682 0.104115 0.0170079 -0.15533
C_ C_ 0.169646 0.106745 0.97703 0.02923
C_ C_ 0.147575 0.110276 0.430186 0.69207
C_ C_ 0.151441 0.0958996 0.16396 0.69661
C_ C_ 0.369378 0.390998 0.381954 -0.30787
C_ C_ 0.126148 0.103988 0.10985 -0.30787
N_ N_ 0.144479 0.0690004 0.311931 -0.32189
N_ N_ 0.0565413 0.155796 0.319188 -0.32189
N_ N_ 0.104267 0.311925 0.0594365 -0.32189
N_ N_ 0.191999 0.313583 0.141413 -0.32189
N_ N_ 0.348701 0.452852 0.181554 -0.32189
N_ N_ 0.440759 0.363858 0.182637 -0.32189
N_ N_ 0.389069 0.204306 0.445797 -0.32189
N_ N_ 0.309873 0.196446 0.356909 -0.32189
O_ O_ 0.502992 0.103037 0.388363 -0.63271
O_ O_ 0.0381794 0.0455966 0.326453 -0.57982
O_ O_ 0.396526 0.101702 0.345372 -0.63271
O_ O_ 0.36253 0.0999639 0.421036 -0.57982
O_ O_ 0.228514 0.403932 0.0737573 -0.63271
O_ O_ 0.204058 0.331605 0.0356036 -0.57982
O_ O_ 0.343576 0.343459 0.100459 -0.63271
O_ O_ 0.376713 0.414965 0.0828997 -0.57982
O_ O_ 0.990966 0.412799 0.0999189 -0.63271
O_ O_ 0.442752 0.470397 0.139417 -0.57982
O_ O_ 0.0919146 0.407262 0.146382 -0.63271
O_ O_ 0.128512 0.410421 0.0703205 -0.57982
O_ O_ 0.2629 0.108792 0.408699 -0.63271
O_ O_ 0.290749 0.167635 0.465291 -0.57982
O_ O_ 0.157868 0.148656 0.404787 -0.63271
O_ O_ 0.109546 0.0847495 0.413927 -0.57982
F_ F_ 0.427512 0.332495 0.430782 -0.20885
F_ F_ 0.42091 0.320389 0.344118 -0.20885
F_ F_ 0.359948 0.300943 0.385148 -0.20885
F_ F_ 0.314695 0.438121 0.321308 -0.20885
F_ F_ 0.320438 0.352566 0.305588 -0.20885
F_ F_ 0.382099 0.397401 0.289738 -0.20885
F_ F_ 0.0699617 0.173973 0.0750807 -0.20885
F_ F_ 0.0733053 0.172372 0.156059 -0.20885
F_ F_ 0.139947 0.193404 0.11999 -0.20885
F_ F_ 0.177989 0.048492 0.170145 -0.20885
F_ F_ 0.187924 0.129636 0.173662 -0.20885
F_ F_ 0.118912 0.103552 0.201983 -0.20885
Zn Zn 0.0854896 0.0755731 0.845268 0.83971
Zn Zn 0.153863 0.347259 0.584698 0.83971
Zn Zn 0.409392 0.410279 0.65272 0.83971
Zn Zn 0.330068 0.160741 0.915883 0.83971
H_ H_ 0.149261 0.124824 0.79123 0.10394
H_ H_ 0.236755 0.0973978 0.761617 0.10394
H_ H_ 0.219513 0.447826 0.800212 0.10394
H_ H_ 0.145544 0.975473 0.84606 0.10394
H_ H_ 0.527702 0.0884969 0.751406 0.10394
H_ H_ 0.482147 0.159521 0.698325 0.10394
H_ H_ 0.0171664 0.259988 0.831671 0.10394
H_ H_ 0.0656192 0.185612 0.876709 0.10394
H_ H_ 0.0430831 0.450824 0.889635 0.10394
H_ H_ 0.483166 0.376399 0.887008 0.10394
H_ H_ 0.353303 0.488608 0.892661 0.10394
H_ H_ 0.0860331 0.292821 0.630156 0.10394
H_ H_ 0.512912 0.253543 0.606732 0.10394
H_ H_ 0.0448695 0.266004 0.94955 0.10394
H_ H_ 0.104535 0.329607 0.480462 0.10394
H_ H_ 0.211181 0.255293 0.598657 0.10394
H_ H_ 0.249856 0.209346 0.676411 0.10394
H_ H_ 0.213802 0.336738 0.773035 0.10394
H_ H_ 0.174406 0.381565 0.697508 0.10394
H_ H_ 0.216509 0.356393 0.938075 0.10394
H_ H_ 0.269471 0.367617 0.872196 0.10394
H_ H_ 0.395977 0.394004 0.987269 0.10394
H_ H_ 0.307971 0.393684 0.663451 0.10394
H_ H_ 0.236532 0.443242 0.700835 0.10394
H_ H_ 0.331787 0.0467898 0.782601 0.10394
H_ H_ 0.410526 0.485328 0.744409 0.10394
H_ H_ 0.0181103 0.376395 0.703002 0.10394
H_ H_ 0.0579576 0.296518 0.737231 0.10394
H_ H_ 0.408672 0.238238 0.715928 0.10394
H_ H_ 0.367667 0.322117 0.675919 0.10394
H_ H_ 0.459432 0.0460609 0.590185 0.10394
H_ H_ 0.0232261 0.115862 0.613863 0.10394
H_ H_ 0.145431 -0.00871999999999995 0.596932 0.10394
H_ H_ 0.429206 0.174184 0.894452 0.10394
H_ H_ 0.0172831 0.163145 0.996152 0.10394
H_ H_ 0.416791 0.272746 0.560604 0.10394
H_ H_ 0.339594 0.229577 0.0151247 0.10394
H_ H_ 0.225984 0.208921 0.891258 0.10394
H_ H_ 0.182514 0.247894 0.817508 0.10394
H_ H_ 0.324143 0.230203 0.744112 0.10394
H_ H_ 0.366162 0.190464 0.825695 0.10394
H_ H_ 0.289127 0.122023 0.554372 0.10394
H_ H_ 0.246359 0.0830147 0.616295 0.10394
H_ H_ 0.114472 0.0750036 0.50892 0.10394
C_ C_ 0.165917 0.0855698 0.791147 0.18167
C_ C_ 0.214435 0.0707259 0.776318 -0.15533
C_ C_ 0.233638 0.0178226 0.777204 0.02923
C_ C_ 0.206073 0.487054 0.790956 -0.15533
C_ C_ 0.164045 0.00431932 0.826327 0.18167
C_ C_ 0.0254257 0.125325 0.768448 0.18167
C_ C_ 0.500139 0.166759 0.73814 -0.15533
C_ C_ 0.00652157 0.217285 0.759386 0.02923
C_ C_ 0.0246379 0.223699 0.810576 -0.15533
C_ C_ 0.0476782 0.181111 0.838221 0.18167
C_ C_ 0.00419109 0.037477 0.867459 0.69207
C_ C_ 0.475518 0.50172 0.872088 0.02923
C_ C_ 0.494598 0.450229 0.876649 -0.15533
C_ C_ 0.46415 0.411873 0.884058 -0.15533
C_ C_ 0.414063 0.424998 0.896926 0.02923
C_ C_ 0.394321 0.477723 0.89853 -0.15533
C_ C_ 0.424692 0.516349 0.881698 0.02923
C_ C_ 0.387766 0.0752456 0.881898 0.69207
C_ C_ 0.399223 0.328508 0.881106 0.69661
C_ C_ 0.074992 0.28973 0.589134 0.18167
C_ C_ 0.028767 0.270074 0.570588 -0.15533
C_ C_ 0.0159989 0.26205 0.517143 0.02923
C_ C_ 0.0531523 0.276186 0.990285 -0.15533
C_ C_ 0.0840582 0.313135 0.505553 0.18167
C_ C_ 0.208656 0.27099 0.637665 0.18167
C_ C_ 0.225777 0.242719 0.681403 -0.15533
C_ C_ 0.225324 0.265977 0.72928 0.02923
C_ C_ 0.212094 0.318951 0.734256 -0.15533
C_ C_ 0.191426 0.343651 0.69115 0.18167
C_ C_ 0.236505 0.368689 0.543087 0.69207
C_ C_ 0.27414 0.365784 0.000175209 0.02923
C_ C_ 0.256403 0.362802 0.948892 -0.15533
C_ C_ 0.288265 0.36607 0.910988 -0.15533
C_ C_ 0.337601 0.383441 0.923845 0.02923
C_ C_ 0.354892 0.386707 0.976795 -0.15533
C_ C_ 0.325656 0.374455 0.0147716 0.02923
C_ C_ 0.350662 0.378279 0.566592 0.69207
C_ C_ 0.352927 0.387608 0.826465 0.69661
C_ C_ 0.31475 0.427852 0.689148 0.18167
C_ C_ 0.274446 0.454379 0.711308 -0.15533
C_ C_ 0.283251 0.495948 0.74707 0.02923
C_ C_ 0.325208 0.015225 0.754063 -0.15533
C_ C_ 0.371587 0.481467 0.731301 0.18167
C_ C_ 0.492698 0.344276 0.695819 0.18167
C_ C_ 0.0187504 0.297543 0.71945 -0.15533
C_ C_ 0.481616 0.261958 0.727849 0.02923
C_ C_ 0.429562 0.269622 0.71192 -0.15533
C_ C_ 0.408804 0.316694 0.693515 0.18167
C_ C_ 0.486654 0.445867 0.618381 0.69207
C_ C_ 0.0243528 0.989915 0.625819 0.02923
C_ C_ 0.00956836 0.0414058 0.63131 -0.15533
C_ C_ 0.0396579 0.0758016 0.615649 -0.15533
C_ C_ 0.0901387 0.0604341 0.605911 0.02923
C_ C_ 0.107099 0.00826356 0.603777 -0.15533
C_ C_ 0.0735267 0.972258 0.616493 0.02923
C_ C_ 0.0923867 0.424435 0.608123 0.69207
C_ C_ 0.108469 0.150132 0.601858 0.69661
C_ C_ 0.425893 0.195528 0.930183 0.18167
C_ C_ 0.466154 0.221508 0.952356 -0.15533
C_ C_ 0.461212 0.251342 0.997029 0.02923
C_ C_ 0.424394 0.245988 0.523607 -0.15533
C_ C_ 0.374873 0.229618 0.996685 0.18167
C_ C_ 0.247195 0.21187 0.858005 0.18167
C_ C_ 0.224088 0.236663 0.817413 -0.15533
C_ C_ 0.25013 0.241235 0.773905 0.02923
C_ C_ 0.302793 0.222788 0.774415 -0.15533
C_ C_ 0.325361 0.195687 0.818647 0.18167
C_ C_ 0.257182 0.119696 0.951687 0.69207
C_ C_ 0.228732 0.111522 0.490707 0.02923
C_ C_ 0.249824 0.115395 0.543598 -0.15533
C_ C_ 0.223094 0.0978329 0.582638 -0.15533
C_ C_ 0.171954 0.086305 0.570152 0.02923
C_ C_ 0.1523 0.0837781 0.518895 -0.15533
C_ C_ 0.178393 0.0994881 0.479712 0.02923
C_ C_ 0.147762 0.104811 0.922594 0.69207
C_ C_ 0.154253 0.0960989 0.665425 0.69661
C_ C_ 0.375509 0.3829 0.883015 -0.30787
C_ C_ 0.132749 0.0971464 0.609443 -0.30787
N_ N_ 0.140312 0.0513535 0.812946 -0.32189
N_ N_ 0.0510574 0.134108 0.814459 -0.32189
N_ N_ 0.101667 0.310959 0.556522 -0.32189
N_ N_ 0.186829 0.319913 0.645148 -0.32189
N_ N_ 0.362395 0.442401 0.696505 -0.32189
N_ N_ 0.440664 0.350139 0.680269 -0.32189
N_ N_ 0.382366 0.198509 0.953363 -0.32189
N_ N_ 0.296885 0.188739 0.857551 -0.32189
O_ O_ 0.495692 0.0978397 0.879212 -0.63271
O_ O_ 0.0484918 0.023919 0.849187 -0.57982
O_ O_ 0.390842 0.0991565 0.841945 -0.63271
O_ O_ 0.365864 0.0995147 0.920845 -0.57982
O_ O_ 0.247155 0.387638 0.588652 -0.63271
O_ O_ 0.199872 0.339933 0.536323 -0.57982
O_ O_ 0.352553 0.335837 0.5871 -0.63271
O_ O_ 0.373275 0.415957 0.590944 -0.57982
O_ O_ 0.98117 0.417168 0.586642 -0.63271
O_ O_ 0.453677 0.455238 0.650852 -0.57982
O_ O_ 0.0931973 0.399989 0.651417 -0.63271
O_ O_ 0.123377 0.408934 0.575082 -0.57982
O_ O_ 0.255523 0.0939814 0.907317 -0.63271
O_ O_ 0.289629 0.155685 0.962328 -0.57982
O_ O_ 0.150836 0.144616 0.89407 -0.63271
O_ O_ 0.108272 0.0804195 0.911054 -0.57982
F_ F_ 0.430631 0.318962 0.927599 -0.20885
F_ F_ 0.429906 0.314959 0.840421 -0.20885
F_ F_ 0.362325 0.292352 0.874788 -0.20885
F_ F_ 0.324783 0.435545 0.82469 -0.20885
F_ F_ 0.322053 0.352256 0.803732 -0.20885
F_ F_ 0.390717 0.386783 0.793211 -0.20885
F_ F_ 0.0784037 0.149332 0.554389 -0.20885
F_ F_ 0.0775228 0.173251 0.636581 -0.20885
F_ F_ 0.141351 0.185127 0.59814 -0.20885
F_ F_ 0.182755 0.0515813 0.671496 -0.20885
F_ F_ 0.183408 0.135262 0.681247 -0.20885
F_ F_ 0.116159 0.103724 0.697206 -0.20885
Zn Zn 0.0885714 0.585474 0.349948 0.83971
Zn Zn 0.163548 0.842915 0.0841188 0.83971
Zn Zn 0.408119 0.918605 0.158807 0.83971
Zn Zn 0.338661 0.662465 0.422147 0.83971
H_ H_ 0.163932 0.635714 0.311121 0.10394
H_ H_ 0.242787 0.606269 0.273203 0.10394
H_ H_ 0.201058 0.952385 0.277009 0.10394
H_ H_ 0.126699 0.486095 0.311028 0.10394
H_ H_ 0.546766 0.598248 0.245801 0.10394
H_ H_ 0.505165 0.672119 0.198532 0.10394
H_ H_ 0.0286542 0.772177 0.326651 0.10394
H_ H_ 0.0652015 0.701799 0.379768 0.10394
H_ H_ 0.0242037 0.947679 0.339433 0.10394
H_ H_ 0.468684 0.890523 0.370941 0.10394
H_ H_ 0.370559 0.99670708 0.444249 0.10394
H_ H_ 0.0756865 0.810693 0.135616 0.10394
H_ H_ 0.508425 0.75853 0.101402 0.10394
H_ H_ 0.0492071 0.78124 0.450797 0.10394
H_ H_ 0.121059 0.815516 0.985207 0.10394
H_ H_ 0.225016 0.752235 0.0977721 0.10394
H_ H_ 0.267685 0.709333 0.175154 0.10394
H_ H_ 0.215623 0.832131 0.267989 0.10394
H_ H_ 0.173894 0.877051 0.194759 0.10394
H_ H_ 0.212702 0.873642 0.449283 0.10394
H_ H_ 0.265563 0.886666 0.379333 0.10394
H_ H_ 0.388023 0.917609 0.498691 0.10394
H_ H_ 0.297232 0.89967 0.161645 0.10394
H_ H_ 0.227337 0.957847 0.18795 0.10394
H_ H_ 0.329245 0.54957 0.271997 0.10394
H_ H_ 0.402206 -0.01022400000000001 0.245183 0.10394
H_ H_ 0.00541351 0.884088 0.194817 0.10394
H_ H_ 0.0492046 0.815151 0.238301 0.10394
H_ H_ 0.420876 0.736181 0.211359 0.10394
H_ H_ 0.374952 0.819555 0.184638 0.10394
H_ H_ 0.457664 0.554894 0.106092 0.10394
H_ H_ 0.0157769 0.622618 0.0994636 0.10394
H_ H_ 0.141492 0.50518 0.0789108 0.10394
H_ H_ 0.438972 0.664819 0.402487 0.10394
H_ H_ 0.0209171 0.686593 0.449825 0.10394
H_ H_ 0.419185 0.776139 0.0482023 0.10394
H_ H_ 0.346879 0.732157 0.515297 0.10394
H_ H_ 0.234119 0.691512 0.379998 0.10394
H_ H_ 0.197433 0.724305 0.300018 0.10394
H_ H_ 0.339236 0.762792 0.264715 0.10394
H_ H_ 0.379347 0.721012 0.347822 0.10394
H_ H_ 0.287481 0.623394 0.0511249 0.10394
H_ H_ 0.230748 0.615737 0.120803 0.10394
H_ H_ 0.106268 0.595058 0.00435163 0.10394
C_ C_ 0.173505 0.594145 0.303787 0.18167
C_ C_ 0.220473 0.578212 0.284234 -0.15533
C_ C_ 0.229512 0.52771 0.264024 0.02923
C_ C_ 0.195339 0.995434 0.285418 -0.15533
C_ C_ 0.152399 0.510943 0.29875 0.18167
C_ C_ 0.038406 0.635191 0.271995 0.18167
C_ C_ 0.522859 0.680058 0.236538 -0.15533
C_ C_ 0.0133109 0.723986 0.257759 0.02923
C_ C_ 0.0303816 0.734226 0.309478 -0.15533
C_ C_ 0.0560934 0.694139 0.339493 0.18167
C_ C_ 0.0054078 0.548123 0.372246 0.69207
C_ C_ 0.471435 0.0157387 0.380552 0.02923
C_ C_ 0.492055 0.963412 0.384662 -0.15533
C_ C_ 0.457609 0.927769 0.382845 -0.15533
C_ C_ 0.411455 0.940049 0.399566 0.02923
C_ C_ 0.398144 0.989086 0.416772 -0.15533
C_ C_ 0.422731 0.0292961 0.401754 0.02923
C_ C_ 0.394839 0.57837 0.386814 0.69207
C_ C_ 0.395644 0.844 0.40211 0.69661
C_ C_ 0.0702034 0.802512 0.0945469 0.18167
C_ C_ 0.0305694 0.774354 0.073477 -0.15533
C_ C_ 0.0180926 0.769776 0.022272 0.02923
C_ C_ 0.0559128 0.78371 0.491652 -0.15533
C_ C_ 0.099476 0.798953 0.011116 0.18167
C_ C_ 0.219568 0.768761 0.13736 0.18167
C_ C_ 0.247322 0.745876 0.179272 -0.15533
C_ C_ 0.242765 0.767466 0.226911 0.02923
C_ C_ 0.217604 0.816061 0.232514 -0.15533
C_ C_ 0.191885 0.839628 0.19096 0.18167
C_ C_ 0.242253 0.864484 0.0445363 0.69207
C_ C_ 0.269828 0.886906 0.511154 0.02923
C_ C_ 0.251893 0.882566 0.458672 -0.15533
C_ C_ 0.281585 0.89166 0.419735 -0.15533
C_ C_ 0.333271 0.906365 0.43301 0.02923
C_ C_ 0.349023 0.910714 0.486663 -0.15533
C_ C_ 0.318335 0.899578 0.523861 0.02923
C_ C_ 0.350463 0.894148 0.0725678 0.69207
C_ C_ 0.347421 0.904676 0.337676 0.69661
C_ C_ 0.306066 0.9339 0.184648 0.18167
C_ C_ 0.264988 0.965632 0.203658 -0.15533
C_ C_ 0.273384 1.00215976 0.244324 0.02923
C_ C_ 0.322674 0.517528 0.244062 -0.15533
C_ C_ 0.363249 0.982943 0.234172 0.18167
C_ C_ 0.485731 0.861465 0.214503 0.18167
C_ C_ 0.0116519 0.811554 0.221468 -0.15533
C_ C_ 0.491287 0.772445 0.232033 0.02923
C_ C_ 0.440472 0.770632 0.212017 -0.15533
C_ C_ 0.415656 0.816073 0.191828 0.18167
C_ C_ 0.488758 0.953764 0.129498 0.69207
C_ C_ 0.0201468 0.495263 0.109092 0.02923
C_ C_ -0.0003149999999999542 0.54664 0.104098 -0.15533
C_ C_ 0.0320005 0.584327 0.0998161 -0.15533
C_ C_ 0.0850475 0.57051 0.09651 0.02923
C_ C_ 0.101507 0.517951 0.0883439 -0.15533
C_ C_ 0.0685829 0.480611 0.0961655 0.02923
C_ C_ 0.0988292 0.921305 0.101212 0.69207
C_ C_ 0.0988517 0.666014 0.101452 0.69661
C_ C_ 0.435961 0.688801 0.437552 0.18167
C_ C_ 0.476189 0.715175 0.460704 -0.15533
C_ C_ 0.469047 0.751835 0.501895 0.02923
C_ C_ 0.426907 0.749117 0.0166585 -0.15533
C_ C_ 0.382278 0.728081 0.499754 0.18167
C_ C_ 0.259052 0.700088 0.352201 0.18167
C_ C_ 0.237684 0.719151 0.305239 -0.15533
C_ C_ 0.267022 0.738252 0.271295 0.02923
C_ C_ 0.317569 0.741765 0.287448 -0.15533
C_ C_ 0.340164 0.717099 0.331173 0.18167
C_ C_ 0.258267 0.62466 0.456325 0.69207
C_ C_ 0.228184 0.61938 0.989219 0.02923
C_ C_ 0.246903 0.621648 0.0416774 -0.15533
C_ C_ 0.21509 0.614188 0.0789098 -0.15533
C_ C_ 0.163578 0.604663 0.0644323 0.02923
C_ C_ 0.146018 0.599925 0.0123776 -0.15533
C_ C_ 0.177085 0.611923 0.975633 0.02923
C_ C_ 0.150886 0.60124 0.431772 0.69207
C_ C_ 0.149812 0.60229 0.161471 0.69661
C_ C_ 0.372512 0.900589 0.393172 -0.30787
C_ C_ 0.124629 0.610222 0.104253 -0.30787
N_ N_ 0.140576 0.562573 0.309823 -0.32189
N_ N_ 0.059417 0.645826 0.31918 -0.32189
N_ N_ 0.107035 0.808566 0.0627658 -0.32189
N_ N_ 0.195447 0.816457 0.144481 -0.32189
N_ N_ 0.3557 0.947213 0.195748 -0.32189
N_ N_ 0.436589 0.861299 0.195955 -0.32189
N_ N_ 0.389758 0.697611 0.4581 -0.32189
N_ N_ 0.310651 0.693479 0.361549 -0.32189
O_ O_ 0.495615 0.598927 0.394898 -0.63271
O_ O_ 0.0421859 0.540522 0.34289 -0.57982
O_ O_ 0.393229 0.603583 0.34593 -0.63271
O_ O_ 0.365888 0.598544 0.42338 -0.57982
O_ O_ 0.240648 0.896942 0.0841335 -0.63271
O_ O_ 0.204779 0.836403 0.0327352 -0.57982
O_ O_ 0.349163 0.854883 0.0993854 -0.63271
O_ O_ 0.384547 0.922654 0.090332 -0.57982
O_ O_ 0.989778 0.902978 0.0990519 -0.63271
O_ O_ 0.455283 0.963994 0.164995 -0.57982
O_ O_ 0.0946772 0.89443 0.140289 -0.63271
O_ O_ 0.138621 0.90684 0.074712 -0.57982
O_ O_ 0.260117 0.595947 0.413551 -0.63271
O_ O_ 0.28762 0.661826 0.465652 -0.57982
O_ O_ 0.150513 0.643049 0.405999 -0.63271
O_ O_ 0.124275 0.566556 0.409197 -0.57982
F_ F_ 0.434714 0.843925 0.44291 -0.20885
F_ F_ 0.418101 0.820512 0.362137 -0.20885
F_ F_ 0.362513 0.810427 0.417019 -0.20885
F_ F_ 0.311281 0.947437 0.336041 -0.20885
F_ F_ 0.319716 0.864882 0.319908 -0.20885
F_ F_ 0.380777 0.90416 0.300263 -0.20885
F_ F_ 0.0724602 0.671497 0.0528919 -0.20885
F_ F_ 0.0664263 0.684634 0.139883 -0.20885
F_ F_ 0.133809 0.702051 0.105452 -0.20885
F_ F_ 0.187597 0.562745 0.163588 -0.20885
F_ F_ 0.169374 0.647554 0.18559 -0.20885
F_ F_ 0.116856 0.587501 0.193887 -0.20885
Zn Zn 0.0964179 0.58946 0.846049 0.83971
Zn Zn 0.158765 0.845756 0.589461 0.83971
Zn Zn 0.407884 0.916398 0.657419 0.83971
Zn Zn 0.346403 0.65137 0.912166 0.83971
H_ H_ 0.175246 0.633579 0.800616 0.10394
H_ H_ 0.254491 0.592522 0.762152 0.10394
H_ H_ 0.226782 0.947339 0.810293 0.10394
H_ H_ 0.136647 0.489167 0.822946 0.10394
H_ H_ 0.529208 0.589578 0.742047 0.10394
H_ H_ 0.48796 0.664844 0.691111 0.10394
H_ H_ 0.0363284 0.773461 0.846866 0.10394
H_ H_ 0.0757991 0.696345 0.887421 0.10394
H_ H_ 0.0257819 0.934467 0.851603 0.10394
H_ H_ 0.48903 0.888573 0.911876 0.10394
H_ H_ 0.350149 0.987886 0.89262 0.10394
H_ H_ 0.087287 0.79406 0.636946 0.10394
H_ H_ 0.496278 0.779021 0.60059 0.10394
H_ H_ 0.0486678 0.775684 0.948084 0.10394
H_ H_ 0.126853 0.813861 0.48762 0.10394
H_ H_ 0.228093 0.759669 0.600629 0.10394
H_ H_ 0.283448 0.71281 0.669093 0.10394
H_ H_ 0.220183 0.834226 0.774197 0.10394
H_ H_ 0.179491 0.880828 0.701098 0.10394
H_ H_ 0.2277 0.846188 0.940022 0.10394
H_ H_ 0.271762 0.878044 0.876275 0.10394
H_ H_ 0.3852 0.929303 0.989087 0.10394
H_ H_ 0.309864 0.894517 0.669925 0.10394
H_ H_ 0.235504 0.943275 0.697625 0.10394
H_ H_ 0.342865 0.537307 0.786409 0.10394
H_ H_ 0.407677 0.00281758 0.739178 0.10394
H_ H_ 0.0117146 0.893257 0.706502 0.10394
H_ H_ 0.0565257 0.821492 0.751752 0.10394
H_ H_ 0.410076 0.737167 0.708663 0.10394
H_ H_ 0.368721 0.817604 0.684918 0.10394
H_ H_ 0.462838 0.542034 0.610444 0.10394
H_ H_ 0.0193692 0.622929 0.618624 0.10394
H_ H_ 0.140914 0.506048 0.593334 0.10394
H_ H_ 0.447352 0.664244 0.896932 0.10394
H_ H_ 0.019317 0.696585 0.949392 0.10394
H_ H_ 0.414653 0.7863 0.555151 0.10394
H_ H_ 0.347609 0.72835 0.00472103 0.10394
H_ H_ 0.240981 0.666975 0.864637 0.10394
H_ H_ 0.20427 0.712325 0.788986 0.10394
H_ H_ 0.355194 0.7535 0.77029 0.10394
H_ H_ 0.387116 0.709942 0.840797 0.10394
H_ H_ 0.28412 0.623967 0.557869 0.10394
H_ H_ 0.230797 0.614885 0.624691 0.10394
H_ H_ 0.112061 0.566906 0.512278 0.10394
C_ C_ 0.184478 0.593452 0.798792 0.18167
C_ C_ 0.229168 0.57251 0.779055 -0.15533
C_ C_ 0.241653 0.518217 0.776611 0.02923
C_ C_ 0.209933 0.985408 0.806516 -0.15533
C_ C_ 0.160372 0.511552 0.806362 0.18167
C_ C_ 0.0365424 0.643289 0.771677 0.18167
C_ C_ 0.505373 0.669333 0.730211 -0.15533
C_ C_ 0.0160763 0.733957 0.773313 0.02923
C_ C_ 0.039222 0.737302 0.82407 -0.15533
C_ C_ 0.0587601 0.694869 0.847728 0.18167
C_ C_ 0.0151375 0.55025 0.869342 0.69207
C_ C_ 0.469661 0.0137155 0.881911 0.02923
C_ C_ 0.491234 0.961957 0.880861 -0.15533
C_ C_ 0.46643 0.922623 0.894746 -0.15533
C_ C_ 0.413332 0.932013 0.898924 0.02923
C_ C_ 0.389918 0.983334 0.891629 -0.15533
C_ C_ 0.418304 0.0244659 0.886605 0.02923
C_ C_ 0.401751 0.5683 0.880836 0.69207
C_ C_ 0.407389 0.832167 0.902318 0.69661
C_ C_ 0.0797049 0.791283 0.596839 0.18167
C_ C_ 0.0302769 0.776329 0.575853 -0.15533
C_ C_ 0.0198592 0.769938 0.523408 0.02923
C_ C_ 0.0528668 0.784193 0.98952 -0.15533
C_ C_ 0.102663 0.800351 0.515165 0.18167
C_ C_ 0.225634 0.774803 0.637848 0.18167
C_ C_ 0.257611 0.749253 0.677249 -0.15533
C_ C_ 0.2522 0.768411 0.727359 0.02923
C_ C_ 0.224819 0.817307 0.737361 -0.15533
C_ C_ 0.197791 0.841603 0.694792 0.18167
C_ C_ 0.234512 0.880803 0.551904 0.69207
C_ C_ 0.279604 0.872329 0.00485128 0.02923
C_ C_ 0.260827 0.869169 0.953014 -0.15533
C_ C_ 0.290115 0.881774 0.914055 -0.15533
C_ C_ 0.338999 0.896477 0.929316 0.02923
C_ C_ 0.35284 0.908697 0.981019 -0.15533
C_ C_ 0.325739 0.895179 0.0191721 0.02923
C_ C_ 0.343976 0.893377 0.576752 0.69207
C_ C_ 0.35807 0.880158 0.832876 0.69661
C_ C_ 0.313191 0.930293 0.691485 0.18167
C_ C_ 0.270564 0.955176 0.712629 -0.15533
C_ C_ 0.274702 0.998174 0.743913 0.02923
C_ C_ 0.333432 0.5099 0.757534 -0.15533
C_ C_ 0.366573 0.989826 0.730541 0.18167
C_ C_ 0.489345 0.84798 0.700603 0.18167
C_ C_ 0.0153391 0.820192 0.737924 -0.15533
C_ C_ 0.48364 0.76396 0.730313 0.02923
C_ C_ 0.434195 0.767132 0.705976 -0.15533
C_ C_ 0.410103 0.811158 0.68376 0.18167
C_ C_ 0.490104 0.946906 0.620979 0.69207
C_ C_ 0.0209219 0.49324 0.620703 0.02923
C_ C_ 1.00375232 0.546132 0.630364 -0.15533
C_ C_ 0.0348798 0.583453 0.618515 -0.15533
C_ C_ 0.0856584 0.568977 0.606206 0.02923
C_ C_ 0.100403 0.516214 0.59587 -0.15533
C_ C_ 0.0711256 0.48028 0.610139 0.02923
C_ C_ 0.0906523 0.919335 0.614879 0.69207
C_ C_ 0.100942 0.662352 0.605399 0.69661
C_ C_ 0.442106 0.687401 0.929607 0.18167
C_ C_ 0.484468 0.707157 0.957514 -0.15533
C_ C_ 0.476048 0.741123 -0.0007519999999999749 0.02923
C_ C_ 0.423305 0.755882 0.522964 -0.15533
C_ C_ 0.387514 0.720904 0.991927 0.18167
C_ C_ 0.264877 0.685627 0.841267 0.18167
C_ C_ 0.24352 0.71077 0.799091 -0.15533
C_ C_ 0.275484 0.737909 0.770747 0.02923
C_ C_ 0.328495 0.729572 0.782535 -0.15533
C_ C_ 0.348913 0.703282 0.827251 0.18167
C_ C_ 0.266717 0.624749 0.950952 0.69207
C_ C_ 0.226126 0.610317 0.496479 0.02923
C_ C_ 0.245327 0.614298 0.546781 -0.15533
C_ C_ 0.21584 0.606064 0.586452 -0.15533
C_ C_ 0.164971 0.594115 0.573753 0.02923
C_ C_ 0.148049 0.584981 0.523301 -0.15533
C_ C_ 0.175718 0.598163 0.484365 0.02923
C_ C_ 0.155587 0.612975 0.923738 0.69207
C_ C_ 0.148906 0.603531 0.666501 0.69661
C_ C_ 0.380428 0.887868 0.890307 -0.30787
C_ C_ 0.125445 0.607067 0.610439 -0.30787
N_ N_ 0.15069 0.562312 0.811329 -0.32189
N_ N_ 0.0632618 0.64964 0.818801 -0.32189
N_ N_ 0.113868 0.800454 0.566525 -0.32189
N_ N_ 0.194681 0.818014 0.647246 -0.32189
N_ N_ 0.358985 0.948135 0.700384 -0.32189
N_ N_ 0.43847 0.852441 0.684498 -0.32189
N_ N_ 0.396917 0.688382 0.950206 -0.32189
N_ N_ 0.316761 0.682664 0.855789 -0.32189
O_ O_ 0.503454 0.585544 0.880568 -0.63271
O_ O_ 0.0516552 0.540953 0.839781 -0.57982
O_ O_ 0.398598 0.593553 0.841111 -0.63271
O_ O_ 0.371547 0.584262 0.915628 -0.57982
O_ O_ 0.235427 0.907175 0.595507 -0.63271
O_ O_ 0.205414 0.843142 0.544878 -0.57982
O_ O_ 0.348566 0.849263 0.597749 -0.63271
O_ O_ 0.370936 0.929676 0.597997 -0.57982
O_ O_ 0.981834 0.915523 0.598794 -0.63271
O_ O_ 0.453208 0.960727 0.652228 -0.57982
O_ O_ 0.0940894 0.896175 0.658588 -0.63271
O_ O_ 0.126585 0.906756 0.584886 -0.57982
O_ O_ 0.267229 0.594882 0.909783 -0.63271
O_ O_ 0.301881 0.656856 0.959843 -0.57982
O_ O_ 0.158745 0.651554 0.895771 -0.63271
O_ O_ 0.122125 0.58149 0.907309 -0.57982
F_ F_ 0.434629 0.838695 0.951531 -0.20885
F_ F_ 0.443965 0.81963 0.869186 -0.20885
F_ F_ 0.375113 0.794798 0.902944 -0.20885
F_ F_ 0.322238 0.921652 0.820242 -0.20885
F_ F_ 0.333248 0.835014 0.824646 -0.20885
F_ F_ 0.392675 0.876024 0.797132 -0.20885
F_ F_ 0.0691234 0.666405 0.5607 -0.20885
F_ F_ 0.0730676 0.684676 0.644523 -0.20885
F_ F_ 0.136662 0.695382 0.602549 -0.20885
F_ F_ 0.182094 0.55952 0.675122 -0.20885
F_ F_ 0.173804 0.645824 0.683019 -0.20885
F_ F_ 0.11169 0.604942 0.699463 -0.20885
Zn Zn 0.587389 0.0909985 0.342747 0.83971
Zn Zn 0.656691 0.342852 0.0756724 0.83971
Zn Zn 0.90416 0.425924 0.149934 0.83971
Zn Zn 0.834919 0.159392 0.412532 0.83971
H_ H_ 0.677789 0.131212 0.308321 0.10394
H_ H_ 0.756368 0.0908037 0.271793 0.10394
H_ H_ 0.708393 0.447381 0.284048 0.10394
H_ H_ 0.625312 0.984054 0.312487 0.10394
H_ H_ 0.017107 0.114795 0.258371 0.10394
H_ H_ 0.980406 0.186483 0.213742 0.10394
H_ H_ 0.535444 0.280042 0.33234 0.10394
H_ H_ 0.562695 0.200452 0.380359 0.10394
H_ H_ 0.528011 0.452122 0.36134 0.10394
H_ H_ 0.983706 0.382124 0.4004 0.10394
H_ H_ 0.848344 0.48988 0.400894 0.10394
H_ H_ 0.578991 0.297777 0.127789 0.10394
H_ H_ 1.00306739 0.269193 0.105106 0.10394
H_ H_ 0.526109 0.305516 0.456005 0.10394
H_ H_ 0.606779 0.334081 0.980774 0.10394
H_ H_ 0.699158 0.244964 0.0926934 0.10394
H_ H_ 0.752232 0.204742 0.167873 0.10394
H_ H_ 0.716489 0.337747 0.266273 0.10394
H_ H_ 0.683403 0.381687 0.184783 0.10394
H_ H_ 0.716539 0.355917 0.447519 0.10394
H_ H_ 0.766849 0.375101 0.379624 0.10394
H_ H_ 0.884342 0.414427 0.488838 0.10394
H_ H_ 0.792601 0.424849 0.136964 0.10394
H_ H_ 0.727619 0.460496 0.182795 0.10394
H_ H_ 0.832533 0.0331204 0.278838 0.10394
H_ H_ 0.906631 0.489029 0.238237 0.10394
H_ H_ 0.508462 0.400599 0.197235 0.10394
H_ H_ 0.557424 0.322411 0.240163 0.10394
H_ H_ 0.900609 0.276671 0.247317 0.10394
H_ H_ 0.86643 0.344441 0.19866 0.10394
H_ H_ 0.96091 0.0509766 0.11444 0.10394
H_ H_ 0.514309 0.117294 0.104382 0.10394
H_ H_ 0.64144 0.00401639 0.0795985 0.10394
H_ H_ 0.944854 0.15792 0.391752 0.10394
H_ H_ 0.514675 0.208708 0.439617 0.10394
H_ H_ 0.920528 0.295893 0.029067 0.10394
H_ H_ 0.844218 0.233278 0.493528 0.10394
H_ H_ 0.735205 0.196477 0.380253 0.10394
H_ H_ 0.688162 0.234045 0.308421 0.10394
H_ H_ 0.829142 0.216895 0.234968 0.10394
H_ H_ 0.874826 0.198865 0.319706 0.10394
H_ H_ 0.79012 0.079397 0.048167 0.10394
H_ H_ 0.737233 0.0724585 0.117765 0.10394
H_ H_ 0.60651 0.096062 0.007584 0.10394
C_ C_ 0.681263 0.0913166 0.299121 0.18167
C_ C_ 0.726866 0.0684151 0.282169 -0.15533
C_ C_ 0.732247 0.0161877 0.268485 0.02923
C_ C_ 0.699474 0.486828 0.283109 -0.15533
C_ C_ 0.648671 0.0112193 0.298174 0.18167
C_ C_ 0.532064 0.14816 0.266765 0.18167
C_ C_ 0.00490684 0.193383 0.251075 -0.15533
C_ C_ 0.51072 0.238989 0.262127 0.02923
C_ C_ 0.530327 0.243116 0.314847 -0.15533
C_ C_ 0.554907 0.199745 0.338524 0.18167
C_ C_ 0.508399 0.0541195 0.37185 0.69207
C_ C_ 0.968974 0.508627 0.378266 0.02923
C_ C_ 0.989979 0.456983 0.379059 -0.15533
C_ C_ 0.96144 0.417509 0.389492 -0.15533
C_ C_ 0.907424 0.428169 0.396146 0.02923
C_ C_ 0.887307 0.480412 0.39794 -0.15533
C_ C_ 0.9175 0.520326 0.387406 0.02923
C_ C_ 0.893121 0.0732854 0.376645 0.69207
C_ C_ 0.896314 0.330597 0.386053 0.69661
C_ C_ 0.570569 0.292521 0.0872496 0.18167
C_ C_ 0.522296 0.281523 0.0693515 -0.15533
C_ C_ 0.503361 0.283487 0.0183238 0.02923
C_ C_ 0.542078 0.298285 0.494458 -0.15533
C_ C_ 0.582709 0.318845 0.00457378 0.18167
C_ C_ 0.706429 0.265894 0.12972 0.18167
C_ C_ 0.730162 0.24114 0.171529 -0.15533
C_ C_ 0.729719 0.264364 0.222095 0.02923
C_ C_ 0.716526 0.317984 0.226988 -0.15533
C_ C_ 0.697468 0.342201 0.182098 0.18167
C_ C_ 0.735315 0.373599 0.03556 0.69207
C_ C_ 0.774209 0.373162 0.50778 0.02923
C_ C_ 0.752818 0.371001 0.456886 -0.15533
C_ C_ 0.785206 0.373509 0.41789 -0.15533
C_ C_ 0.832076 0.392462 0.428308 0.02923
C_ C_ 0.851413 0.396614 0.478572 -0.15533
C_ C_ 0.824357 0.385053 0.518907 0.02923
C_ C_ 0.849269 0.386679 0.0673874 0.69207
C_ C_ 0.842797 0.392623 0.330737 0.69661
C_ C_ 0.805032 0.445501 0.171232 0.18167
C_ C_ 0.765561 0.467236 0.198575 -0.15533
C_ C_ 0.7748 0.50049 0.242084 0.02923
C_ C_ 0.82611 -0.000293525 0.252781 -0.15533
C_ C_ 0.865193 0.488868 0.223981 0.18167
C_ C_ 0.986417 0.366765 0.205443 0.18167
C_ C_ 0.516559 0.325071 0.227986 -0.15533
C_ C_ 0.980488 0.289519 0.248741 0.02923
C_ C_ 0.927758 0.294843 0.230478 -0.15533
C_ C_ 0.907309 0.336413 0.204903 0.18167
C_ C_ 0.983942 0.459564 0.117096 0.69207
C_ C_ 0.523115 0.992551 0.121573 0.02923
C_ C_ 0.507013 0.0422895 0.128114 -0.15533
C_ C_ 0.536674 0.0788054 0.115725 -0.15533
C_ C_ 0.587603 0.0658769 0.10377 0.02923
C_ C_ 0.602807 0.0145849 0.0943236 -0.15533
C_ C_ 0.572349 0.978186 0.104152 0.02923
C_ C_ 0.591263 0.423668 0.101665 0.69207
C_ C_ 0.604593 0.161765 0.108741 0.69661
C_ C_ 0.937766 0.181905 0.42484 0.18167
C_ C_ 0.979002 0.20249 0.452999 -0.15533
C_ C_ 0.970985 0.236667 0.495495 0.02923
C_ C_ 0.925394 0.258444 0.00609875 -0.15533
C_ C_ 0.881623 0.226316 0.48175 0.18167
C_ C_ 0.754507 0.202884 0.349077 0.18167
C_ C_ 0.728318 0.223205 0.305383 -0.15533
C_ C_ 0.756353 0.233822 0.265343 0.02923
C_ C_ 0.808022 0.220747 0.268336 -0.15533
C_ C_ 0.83286 0.201449 0.313539 0.18167
C_ C_ 0.763217 0.127024 0.453501 0.69207
C_ C_ 0.726762 0.106456 0.991304 0.02923
C_ C_ 0.750063 0.0940768 0.0416205 -0.15533
C_ C_ 0.719669 0.0855357 0.080699 -0.15533
C_ C_ 0.666857 0.0943539 0.069417 0.02923
C_ C_ 0.646511 0.0943994 0.0172593 -0.15533
C_ C_ 0.67495 0.10268 0.979436 0.02923
C_ C_ 0.653132 0.11062 0.422109 0.69207
C_ C_ 0.653177 0.0959401 0.162821 0.69661
C_ C_ 0.870352 0.387035 0.385619 -0.30787
C_ C_ 0.627301 0.103917 0.109291 -0.30787
N_ N_ 0.643152 0.0626643 0.30986 -0.32189
N_ N_ 0.559156 0.155319 0.311799 -0.32189
N_ N_ 0.600686 0.31048 0.0541307 -0.32189
N_ N_ 0.692253 0.317048 0.135742 -0.32189
N_ N_ 0.853829 0.454853 0.185231 -0.32189
N_ N_ 0.936098 0.369962 0.189826 -0.32189
N_ N_ 0.888525 0.196089 0.437477 -0.32189
N_ N_ 0.804829 0.194619 0.354061 -0.32189
O_ O_ 0.00464996 0.0861167 0.394286 -0.63271
O_ O_ 0.546645 0.0394927 0.34492 -0.57982
O_ O_ 0.885482 0.0988516 0.335039 -0.63271
O_ O_ 0.872569 0.0942562 0.416573 -0.57982
O_ O_ 0.730618 0.408667 0.0748895 -0.63271
O_ O_ 0.706243 0.335766 0.0299154 -0.57982
O_ O_ 0.853078 0.345128 0.0934363 -0.63271
O_ O_ 0.87009 0.426515 0.08969 -0.57982
O_ O_ 0.490191 0.40581 0.10057 -0.63271
O_ O_ 0.947357 0.473397 0.145695 -0.57982
O_ O_ 0.594074 0.401025 0.144261 -0.63271
O_ O_ 0.625175 0.408721 0.0700956 -0.57982
O_ O_ 0.763803 0.102147 0.410062 -0.63271
O_ O_ 0.792689 0.165464 0.462263 -0.57982
O_ O_ 0.657255 0.150824 0.395347 -0.63271
O_ O_ 0.614738 0.0852716 0.408876 -0.57982
F_ F_ 0.92417 0.320614 0.429201 -0.20885
F_ F_ 0.928468 0.322164 0.346251 -0.20885
F_ F_ 0.86223 0.292488 0.38188 -0.20885
F_ F_ 0.806028 0.432426 0.326229 -0.20885
F_ F_ 0.822465 0.348482 0.309588 -0.20885
F_ F_ 0.877809 0.39606 0.296437 -0.20885
F_ F_ 0.574237 0.174557 0.064478 -0.20885
F_ F_ 0.578508 0.177704 0.151383 -0.20885
F_ F_ 0.641068 0.194689 0.110998 -0.20885
F_ F_ 0.678737 0.046035 0.168274 -0.20885
F_ F_ 0.683413 0.134025 0.1804 -0.20885
F_ F_ 0.616968 0.101859 0.198002 -0.20885
Zn Zn 0.585598 0.0846333 0.849099 0.83971
Zn Zn 0.662323 0.339208 0.585647 0.83971
Zn Zn 0.910441 0.41203 0.651066 0.83971
Zn Zn 0.843107 0.153082 0.922159 0.83971
H_ H_ 0.664322 0.129599 0.80141 0.10394
H_ H_ 0.74497 0.0943572 0.772527 0.10394
H_ H_ 0.7197 0.446574 0.78245 0.10394
H_ H_ 0.637452 0.984372 0.837956 0.10394
H_ H_ 0.0214973 0.0879246 0.756342 0.10394
H_ H_ 0.987735 0.15818 0.697637 0.10394
H_ H_ 0.533541 0.264317 0.823614 0.10394
H_ H_ 0.577539 0.193408 0.872419 0.10394
H_ H_ 0.531744 0.437006 0.869729 0.10394
H_ H_ 0.99399 0.382511 0.899971 0.10394
H_ H_ 0.860378 0.491346 0.905137 0.10394
H_ H_ 0.590441 0.291673 0.6363 0.10394
H_ H_ 0.0106462 0.250902 0.597745 0.10394
H_ H_ 0.526822 0.299995 0.943638 0.10394
H_ H_ 0.610173 0.333566 0.492148 0.10394
H_ H_ 0.704432 0.237413 0.608392 0.10394
H_ H_ 0.743283 0.194276 0.685706 0.10394
H_ H_ 0.737123 0.342853 0.764707 0.10394
H_ H_ 0.698151 0.381474 0.685186 0.10394
H_ H_ 0.724122 0.352071 0.930451 0.10394
H_ H_ 0.779214 0.377647 0.871067 0.10394
H_ H_ 0.899368 0.394935 0.987811 0.10394
H_ H_ 0.810659 0.394188 0.664472 0.10394
H_ H_ 0.736533 0.445868 0.688713 0.10394
H_ H_ 0.82734 0.0484513 0.780127 0.10394
H_ H_ 0.908569 0.498391 0.725203 0.10394
H_ H_ 0.515607 0.370857 0.682571 0.10394
H_ H_ 0.551457 0.300784 0.733299 0.10394
H_ H_ 0.912315 0.24325 0.71954 0.10394
H_ H_ 0.874021 0.324681 0.691245 0.10394
H_ H_ 0.970044 0.0573259 0.638304 0.10394
H_ H_ 0.512328 0.110413 0.58357 0.10394
H_ H_ 0.644888 0.00034000000000000696 0.58346 0.10394
H_ H_ 0.94283 0.115357 0.962371 0.10394
H_ H_ 0.502977 0.216813 0.936205 0.10394
H_ H_ 0.913873 0.270161 0.54491 0.10394
H_ H_ 0.846571 0.25602 -0.02178100000000005 0.10394
H_ H_ 0.738462 0.191151 0.885377 0.10394
H_ H_ 0.696434 0.241697 0.812281 0.10394
H_ H_ 0.841553 0.237883 0.756623 0.10394
H_ H_ 0.882716 0.188019 0.831053 0.10394
H_ H_ 0.786821 0.111925 0.5552 0.10394
H_ H_ 0.726427 0.11165 0.618097 0.10394
H_ H_ 0.603444 0.0981208 0.499562 0.10394
C_ C_ 0.672803 0.0893577 0.798803 0.18167
C_ C_ 0.719571 0.0689723 0.782357 -0.15533
C_ C_ 0.731474 0.0185006 0.77333 0.02923
C_ C_ 0.711005 0.485994 0.789649 -0.15533
C_ C_ 0.657545 0.00566906 0.818042 0.18167
C_ C_ 0.527448 0.127316 0.766078 0.18167
C_ C_ 0.000929075 0.1653 0.738866 -0.15533
C_ C_ 0.505115 0.217644 0.757568 0.02923
C_ C_ 0.531187 0.226703 0.807621 -0.15533
C_ C_ 0.559237 0.186701 0.832358 0.18167
C_ C_ 0.501727 0.0509639 0.861768 0.69207
C_ C_ 0.981452 0.510455 0.877957 0.02923
C_ C_ 1.0025741 0.458948 0.881658 -0.15533
C_ C_ 0.972565 0.419866 0.889957 -0.15533
C_ C_ 0.921112 0.429335 0.895654 0.02923
C_ C_ 0.900369 0.481307 0.896317 -0.15533
C_ C_ 0.928531 0.522414 0.889045 0.02923
C_ C_ 0.889404 0.0697017 0.876867 0.69207
C_ C_ 0.912395 0.331855 0.89094 0.69661
C_ C_ 0.574331 0.29501 0.59811 0.18167
C_ C_ 0.530497 0.272988 0.580719 -0.15533
C_ C_ 0.512371 0.276393 0.528781 0.02923
C_ C_ 0.537125 0.299091 0.986133 -0.15533
C_ C_ 0.588453 0.313951 0.513718 0.18167
C_ C_ 0.708226 0.257985 0.645239 0.18167
C_ C_ 0.729128 0.23605 0.688335 -0.15533
C_ C_ 0.739396 0.265653 0.732193 0.02923
C_ C_ 0.725344 0.319666 0.732468 -0.15533
C_ C_ 0.708682 0.341409 0.685236 0.18167
C_ C_ 0.73893 0.364184 0.547731 0.69207
C_ C_ 0.774941 0.377026 0.998243 0.02923
C_ C_ 0.761897 0.367559 0.946045 -0.15533
C_ C_ 0.792055 0.378993 0.910372 -0.15533
C_ C_ 0.844692 0.38854 0.924456 0.02923
C_ C_ 0.858068 0.397317 0.977401 -0.15533
C_ C_ 0.825348 0.386915 0.0143978 0.02923
C_ C_ 0.852026 0.385103 0.571211 0.69207
C_ C_ 0.864307 0.386655 0.825942 0.69661
C_ C_ 0.814999 0.429931 0.682826 0.18167
C_ C_ 0.773843 0.456219 0.705611 -0.15533
C_ C_ 0.781022 0.499743 0.738431 0.02923
C_ C_ 0.82082 0.0177392 0.750936 -0.15533
C_ C_ 0.871442 0.486431 0.722638 0.18167
C_ C_ 0.99624 0.344054 0.70224 0.18167
C_ C_ 0.512433 0.298543 0.715821 -0.15533
C_ C_ 0.986649 0.262923 0.730274 0.02923
C_ C_ 0.935309 0.270213 0.715097 -0.15533
C_ C_ 0.914881 0.315585 0.694901 0.18167
C_ C_ 0.984827 0.453952 0.621906 0.69207
C_ C_ 0.520187 0.985443 0.606583 0.02923
C_ C_ 0.499501 0.0337962 0.591823 -0.15533
C_ C_ 0.5297 0.0724323 0.584767 -0.15533
C_ C_ 0.583083 0.0626301 0.590524 0.02923
C_ C_ 0.603866 0.00992959 0.586153 -0.15533
C_ C_ 0.573908 0.972405 0.600151 0.02923
C_ C_ 0.600923 0.419154 0.612843 0.69207
C_ C_ 0.593566 0.159132 0.605791 0.69661
C_ C_ 0.939003 0.157736 0.972003 0.18167
C_ C_ 0.980709 0.184822 0.99018 -0.15533
C_ C_ 0.975504 0.234831 0.00686882 0.02923
C_ C_ 0.920823 0.250297 0.508409 -0.15533
C_ C_ 0.884833 0.233636 0.986289 0.18167
C_ C_ 0.760599 0.19719 0.85649 0.18167
C_ C_ 0.736747 0.228755 0.818497 -0.15533
C_ C_ 0.765515 0.239642 0.778765 0.02923
C_ C_ 0.81906 0.226901 0.784963 -0.15533
C_ C_ 0.842785 0.202697 0.829059 0.18167
C_ C_ 0.761582 0.117477 0.954294 0.69207
C_ C_ 0.726744 0.118711 0.490601 0.02923
C_ C_ 0.74536 0.114008 0.541867 -0.15533
C_ C_ 0.711809 0.108851 0.579938 -0.15533
C_ C_ 0.659951 0.102453 0.565844 0.02923
C_ C_ 0.642958 0.103313 0.513511 -0.15533
C_ C_ 0.67584 0.110858 0.475574 0.02923
C_ C_ 0.6463 0.107759 0.92712 0.69207
C_ C_ 0.641492 0.0953402 0.661225 0.69661
C_ C_ 0.883947 0.386774 0.884817 -0.30787
C_ C_ 0.620335 0.104456 0.604899 -0.30787
N_ N_ 0.642137 0.0572975 0.817407 -0.32189
N_ N_ 0.554339 0.138337 0.812541 -0.32189
N_ N_ 0.606251 0.305109 0.562613 -0.32189
N_ N_ 0.694305 0.309963 0.645137 -0.32189
N_ N_ 0.86257 0.442973 0.692978 -0.32189
N_ N_ 0.94542 0.350633 0.682199 -0.32189
N_ N_ 0.894294 0.186138 0.963947 -0.32189
N_ N_ 0.813661 0.189635 0.864743 -0.32189
O_ O_ -0.004368999999999956 0.084505 0.883982 -0.63271
O_ O_ 0.543539 0.0367411 0.835578 -0.57982
O_ O_ 0.893825 0.0965978 0.83883 -0.63271
O_ O_ 0.865571 0.0882302 0.916171 -0.57982
O_ O_ 0.74087 0.389345 0.59239 -0.63271
O_ O_ 0.703779 0.330998 0.53862 -0.57982
O_ O_ 0.858803 0.34431 0.596297 -0.63271
O_ O_ 0.870919 0.426503 0.592321 -0.57982
O_ O_ 0.487545 0.405324 0.587083 -0.63271
O_ O_ 0.95376 0.45834 0.657939 -0.57982
O_ O_ 0.596107 0.389244 0.648118 -0.63271
O_ O_ 0.638318 0.404219 0.585259 -0.57982
O_ O_ 0.761536 0.0923525 0.910061 -0.63271
O_ O_ 0.791462 0.154627 0.964204 -0.57982
O_ O_ 0.654118 0.145471 0.900279 -0.63271
O_ O_ 0.604724 0.0845342 0.913754 -0.57982
F_ F_ 0.943969 0.328823 0.934992 -0.20885
F_ F_ 0.943266 0.316085 0.852698 -0.20885
F_ F_ 0.879607 0.295203 0.8862 -0.20885
F_ F_ 0.827545 0.426977 0.820723 -0.20885
F_ F_ 0.845409 0.344132 0.799894 -0.20885
F_ F_ 0.900742 0.399448 0.797266 -0.20885
F_ F_ 0.569086 0.170023 0.556331 -0.20885
F_ F_ 0.556956 0.168774 0.638916 -0.20885
F_ F_ 0.6265 0.197197 0.618308 -0.20885
F_ F_ 0.67611 0.0518296 0.66657 -0.20885
F_ F_ 0.663938 0.136684 0.683989 -0.20885
F_ F_ 0.60154 0.0838494 0.687906 -0.20885
Zn Zn 0.591459 0.585902 0.351846 0.83971
Zn Zn 0.657968 0.84483 0.0867452 0.83971
Zn Zn 0.905589 0.912839 0.14731 0.83971
Zn Zn 0.843566 0.659823 0.421163 0.83971
H_ H_ 0.675683 0.630876 0.322121 0.10394
H_ H_ 0.751287 0.594938 0.281181 0.10394
H_ H_ 0.706922 0.944697 0.290143 0.10394
H_ H_ 0.634985 0.480056 0.322336 0.10394
H_ H_ 0.041135 0.594752 0.261543 0.10394
H_ H_ 0.99868 0.665882 0.203608 0.10394
H_ H_ 0.521659 0.768501 0.339133 0.10394
H_ H_ 0.565137 0.696899 0.379814 0.10394
H_ H_ 0.53204 0.950826 0.375765 0.10394
H_ H_ 0.978945 0.878938 0.366455 0.10394
H_ H_ 0.851434 0.985961 0.388464 0.10394
H_ H_ 0.579215 0.802924 0.134144 0.10394
H_ H_ 1.00318819 0.762709 0.0977971 0.10394
H_ H_ 0.536506 0.801945 0.451015 0.10394
H_ H_ 0.617755 0.8323 0.9893 0.10394
H_ H_ 0.718133 0.751311 0.103738 0.10394
H_ H_ 0.76961 0.706882 0.175464 0.10394
H_ H_ 0.725959 0.842578 0.271874 0.10394
H_ H_ 0.68018 0.880488 0.199393 0.10394
H_ H_ 0.719972 0.876707 0.448384 0.10394
H_ H_ 0.768656 0.894982 0.378418 0.10394
H_ H_ 0.905354 0.897013 0.487791 0.10394
H_ H_ 0.800069 0.893522 0.151978 0.10394
H_ H_ 0.726852 0.949262 0.18596 0.10394
H_ H_ 0.839679 0.533323 0.289 0.10394
H_ H_ 0.900324 0.990841 0.227351 0.10394
H_ H_ 0.502558 0.895736 0.215133 0.10394
H_ H_ 0.5528 0.821153 0.249581 0.10394
H_ H_ 0.917413 0.731859 0.206542 0.10394
H_ H_ 0.870816 0.811025 0.169024 0.10394
H_ H_ 0.959644 0.55632 0.110627 0.10394
H_ H_ 0.521639 0.618271 0.109099 0.10394
H_ H_ 0.639816 0.501137 0.0850392 0.10394
H_ H_ 0.943869 0.66389 0.396396 0.10394
H_ H_ 0.512721 0.709837 0.445207 0.10394
H_ H_ 0.918559 0.78092 0.0491139 0.10394
H_ H_ 0.853668 0.727766 0.511691 0.10394
H_ H_ 0.741483 0.699272 0.386329 0.10394
H_ H_ 0.701376 0.745205 0.312266 0.10394
H_ H_ 0.851979 0.749565 0.265001 0.10394
H_ H_ 0.887697 0.697852 0.334191 0.10394
H_ H_ 0.78633 0.605968 0.0472462 0.10394
H_ H_ 0.733877 0.593338 0.113107 0.10394
H_ H_ 0.604001 0.594382 0.00166517 0.10394
C_ C_ 0.682949 0.590232 0.311535 0.18167
C_ C_ 0.728156 0.569327 0.292349 -0.15533
C_ C_ 0.73395 0.51871 0.275341 0.02923
C_ C_ 0.695534 0.987201 0.283867 -0.15533
C_ C_ 0.656307 0.506055 0.30771 0.18167
C_ C_ 0.5415 0.637039 0.265411 0.18167
C_ C_ 0.0180565 0.674144 0.239237 -0.15533
C_ C_ 0.517037 0.728686 0.262317 0.02923
C_ C_ 0.527712 0.733145 0.316439 -0.15533
C_ C_ 0.557103 0.691656 0.338559 0.18167
C_ C_ 0.504805 0.554253 0.371169 0.69207
C_ C_ 0.968077 0.00947587 0.362595 0.02923
C_ C_ -0.013521000000000005 0.959018 0.353263 -0.15533
C_ C_ 0.960123 0.917428 0.366064 -0.15533
C_ C_ 0.910187 0.92608 0.378812 0.02923
C_ C_ 0.891164 0.97922 0.383262 -0.15533
C_ C_ 0.918296 0.0209444 0.377759 0.02923
C_ C_ 0.895345 0.574673 0.385757 0.69207
C_ C_ 0.907549 0.828596 0.387222 0.69661
C_ C_ 0.570791 0.799954 0.0944382 0.18167
C_ C_ 0.526863 0.778117 0.0738804 -0.15533
C_ C_ 0.517035 0.770675 0.0206098 0.02923
C_ C_ 0.548544 0.792659 0.488994 -0.15533
C_ C_ 0.590447 0.817723 0.0113531 0.18167
C_ C_ 0.716731 0.767961 0.141261 0.18167
C_ C_ 0.746525 0.743167 0.18231 -0.15533
C_ C_ 0.749774 0.770436 0.229612 0.02923
C_ C_ 0.727424 0.820436 0.235566 -0.15533
C_ C_ 0.698025 0.84162 0.194361 0.18167
C_ C_ 0.732513 0.873155 0.0418367 0.69207
C_ C_ 0.783888 0.869125 0.504621 0.02923
C_ C_ 0.759957 0.879377 0.454505 -0.15533
C_ C_ 0.788581 0.887741 0.415586 -0.15533
C_ C_ 0.841921 0.888677 0.424193 0.02923
C_ C_ 0.865301 0.888642 0.477702 -0.15533
C_ C_ 0.835518 0.880448 0.516994 0.02923
C_ C_ 0.850079 0.879794 0.0630335 0.69207
C_ C_ 0.845529 0.879131 0.32442 0.69661
C_ C_ 0.807614 0.927705 0.176897 0.18167
C_ C_ 0.767297 0.951306 0.203387 -0.15533
C_ C_ 0.775868 0.989838 0.240407 0.02923
C_ C_ 0.826249 0.514478 0.254154 -0.15533
C_ C_ 0.863847 0.977159 0.224908 0.18167
C_ C_ 0.986033 0.850592 0.195711 0.18167
C_ C_ 0.513452 0.817794 0.2338 -0.15533
C_ C_ 0.987554 0.766375 0.225419 0.02923
C_ C_ 0.935722 0.765824 0.20676 -0.15533
C_ C_ 0.912124 0.808524 0.180213 0.18167
C_ C_ 0.988013 0.948638 0.121585 0.69207
C_ C_ 0.518705 0.490914 0.107042 0.02923
C_ C_ 0.500138 0.544405 0.108101 -0.15533
C_ C_ 0.533518 0.58022 0.0991158 -0.15533
C_ C_ 0.584337 0.565814 0.0956965 0.02923
C_ C_ 0.600165 0.514048 0.0916487 -0.15533
C_ C_ 0.568626 0.475627 0.0972614 0.02923
C_ C_ 0.599189 0.926863 0.109238 0.69207
C_ C_ 0.607247 0.660755 0.101959 0.69661
C_ C_ 0.941478 0.689386 0.430101 0.18167
C_ C_ 0.984907 0.706072 0.459518 -0.15533
C_ C_ 0.977176 0.742808 0.502319 0.02923
C_ C_ 0.923857 0.756061 1.0163389 -0.15533
C_ C_ 0.889432 0.723928 0.494911 0.18167
C_ C_ 0.765323 0.709532 0.358435 0.18167
C_ C_ 0.741732 0.733153 0.313887 -0.15533
C_ C_ 0.772318 0.744598 0.275965 0.02923
C_ C_ 0.824424 0.735696 0.286821 -0.15533
C_ C_ 0.844563 0.706178 0.325582 0.18167
C_ C_ 0.763509 0.631625 0.456409 0.69207
C_ C_ 0.728378 0.609331 0.984027 0.02923
C_ C_ 0.748156 0.601788 0.0345128 -0.15533
C_ C_ 0.717202 0.594716 0.0750675 -0.15533
C_ C_ 0.66311 0.593867 0.0620071 0.02923
C_ C_ 0.6445 0.591872 0.0114169 -0.15533
C_ C_ 0.676703 0.601901 0.971917 0.02923
C_ C_ 0.651903 0.612158 0.428209 0.69207
C_ C_ 0.655044 0.596537 0.159181 0.69661
C_ C_ 0.874539 0.881744 0.379025 -0.30787
C_ C_ 0.62674 0.603206 0.104005 -0.30787
N_ N_ 0.64734 0.557678 0.318754 -0.32189
N_ N_ 0.560635 0.645291 0.314534 -0.32189
N_ N_ 0.601502 0.818323 0.0617729 -0.32189
N_ N_ 0.691318 0.814291 0.147924 -0.32189
N_ N_ 0.856516 0.936447 0.191712 -0.32189
N_ N_ 0.937929 0.849378 0.175044 -0.32189
N_ N_ 0.895743 0.697601 0.450016 -0.32189
N_ N_ 0.815301 0.692214 0.360711 -0.32189
O_ O_ 0.00628367 0.590391 0.40197 -0.63271
O_ O_ 0.546046 0.541475 0.350394 -0.57982
O_ O_ 0.895966 0.598751 0.34181 -0.63271
O_ O_ 0.878541 0.597824 0.427018 -0.57982
O_ O_ 0.734683 0.90663 0.0829877 -0.63271
O_ O_ 0.700406 0.838142 0.0379261 -0.57982
O_ O_ 0.839685 0.845126 0.0897593 -0.63271
O_ O_ 0.878867 0.915755 0.0818477 -0.57982
O_ O_ 0.488669 0.909558 0.104834 -0.63271
O_ O_ 0.950359 0.960091 0.149257 -0.57982
O_ O_ 0.598441 0.90233 0.151603 -0.63271
O_ O_ 0.635013 0.910983 0.0811257 -0.57982
O_ O_ 0.760604 0.606882 0.410719 -0.63271
O_ O_ 0.798853 0.662741 0.466689 -0.57982
O_ O_ 0.649036 0.655446 0.405914 -0.63271
O_ O_ 0.61506 0.584103 0.417438 -0.57982
F_ F_ 0.952313 0.830598 0.42259 -0.20885
F_ F_ 0.924234 0.803948 0.341943 -0.20885
F_ F_ 0.877965 0.794747 0.40592 -0.20885
F_ F_ 0.811421 0.919552 0.313365 -0.20885
F_ F_ 0.814202 0.840412 0.321143 -0.20885
F_ F_ 0.872166 0.872005 0.284153 -0.20885
F_ F_ 0.57222 0.670598 0.0596983 -0.20885
F_ F_ 0.582306 0.678068 0.143919 -0.20885
F_ F_ 0.643783 0.692532 0.10009 -0.20885
F_ F_ 0.684161 0.551747 0.161782 -0.20885
F_ F_ 0.688236 0.634321 0.177448 -0.20885
F_ F_ 0.619547 0.59801 0.193331 -0.20885
Zn Zn 0.590808 0.577754 0.840688 0.83971
Zn Zn 0.667841 0.83804 0.58634 0.83971
Zn Zn 0.907154 0.915806 0.663287 0.83971
Zn Zn 0.842956 0.654906 0.918652 0.83971
H_ H_ 0.668138 0.628055 0.799642 0.10394
H_ H_ 0.749282 0.600353 0.765496 0.10394
H_ H_ 0.709802 0.945001 0.792242 0.10394
H_ H_ 0.639421 0.476662 0.820216 0.10394
H_ H_ 0.040183 0.606846 0.753279 0.10394
H_ H_ 0.990203 0.679599 0.712532 0.10394
H_ H_ 0.523292 0.757119 0.831288 0.10394
H_ H_ 0.562312 0.68098 0.874242 0.10394
H_ H_ 0.531271 0.955155 0.877671 0.10394
H_ H_ 0.974487 0.872789 0.877968 0.10394
H_ H_ 0.845441 0.984993 0.89382 0.10394
H_ H_ 0.587499 0.798068 0.635237 0.10394
H_ H_ 0.00528318 0.762595 0.599315 0.10394
H_ H_ 0.538166 0.793765 0.949291 0.10394
H_ H_ 0.614393 0.82874 0.488859 0.10394
H_ H_ 0.720424 0.738234 0.607153 0.10394
H_ H_ 0.754498 0.698175 0.690956 0.10394
H_ H_ 0.731859 0.849285 0.766273 0.10394
H_ H_ 0.6914 0.879455 0.683524 0.10394
H_ H_ 0.710559 0.86087 0.942581 0.10394
H_ H_ 0.757172 0.887969 0.873971 0.10394
H_ H_ 0.88223 0.912989 0.978772 0.10394
H_ H_ 0.802977 0.893131 0.669032 0.10394
H_ H_ 0.7282 0.952309 0.691145 0.10394
H_ H_ 0.840398 0.55223 0.764346 0.10394
H_ H_ 0.900373 1.00236895 0.737964 0.10394
H_ H_ 0.512731 0.88059 0.700473 0.10394
H_ H_ 0.550427 0.804435 0.743951 0.10394
H_ H_ 0.921736 0.741531 0.721299 0.10394
H_ H_ 0.873622 0.823835 0.697782 0.10394
H_ H_ 0.962776 0.555991 0.634998 0.10394
H_ H_ 0.517118 0.611848 0.610781 0.10394
H_ H_ 0.647736 0.503739 0.602178 0.10394
H_ H_ 0.946965 0.656738 0.90684 0.10394
H_ H_ 0.522932 0.692848 0.950629 0.10394
H_ H_ 0.923393 0.770019 0.556582 0.10394
H_ H_ 0.843091 0.742042 0.999216968 0.10394
H_ H_ 0.739698 0.695407 0.890199 0.10394
H_ H_ 0.696448 0.739179 0.81819 0.10394
H_ H_ 0.839696 0.739682 0.755774 0.10394
H_ H_ 0.881705 0.695181 0.831254 0.10394
H_ H_ 0.790093 0.624373 0.557551 0.10394
H_ H_ 0.733466 0.612639 0.622499 0.10394
H_ H_ 0.609336 0.58404 0.506235 0.10394
C_ C_ 0.680266 0.589312 0.796988 0.18167
C_ C_ 0.726048 0.571713 0.777122 -0.15533
C_ C_ 0.742576 0.51843 0.772434 0.02923
C_ C_ 0.701669 0.986893 0.79573 -0.15533
C_ C_ 0.667035 0.503966 0.810108 0.18167
C_ C_ 0.527785 0.626987 0.758916 0.18167
C_ C_ 0.0159239 0.68524 0.746824 -0.15533
C_ C_ 0.508611 0.719385 0.756252 0.02923
C_ C_ 0.526846 0.722111 0.80792 -0.15533
C_ C_ 0.545889 0.679377 0.833958 0.18167
C_ C_ 0.509419 0.540519 0.859661 0.69207
C_ C_ 0.967525 -0.00019599999999997397 0.869308 0.02923
C_ C_ -0.013904000000000027 0.947802 0.862706 -0.15533
C_ C_ 0.955012 0.91029 0.869028 -0.15533
C_ C_ 0.903235 0.923552 0.877766 0.02923
C_ C_ 0.884896 0.976846 0.883795 -0.15533
C_ C_ 0.91729 0.014965 0.878412 0.02923
C_ C_ 0.902239 0.574429 0.887282 0.69207
C_ C_ 0.89407 0.826678 0.892374 0.69661
C_ C_ 0.575364 0.795982 0.595025 0.18167
C_ C_ 0.527291 0.780861 0.576048 -0.15533
C_ C_ 0.512974 0.780738 0.522542 0.02923
C_ C_ 0.550927 0.789194 0.989239 -0.15533
C_ C_ 0.593655 0.809383 0.511693 0.18167
C_ C_ 0.722823 0.760391 0.645036 0.18167
C_ C_ 0.742512 0.739388 0.689846 -0.15533
C_ C_ 0.742939 0.771345 0.735762 0.02923
C_ C_ 0.728012 0.823729 0.732728 -0.15533
C_ C_ 0.70082 0.840625 0.68869 0.18167
C_ C_ 0.749216 0.866757 0.542923 0.69207
C_ C_ 0.769565 0.875713 1.000993628 0.02923
C_ C_ 0.747874 0.87279 0.949027 -0.15533
C_ C_ 0.776209 0.883779 0.911404 -0.15533
C_ C_ 0.827278 0.89246 0.921717 0.02923
C_ C_ 0.845351 0.90271 0.97315 -0.15533
C_ C_ 0.821078 0.88746 0.0125156 0.02923
C_ C_ 0.862364 0.879733 0.572101 0.69207
C_ C_ 0.840175 0.87384 0.825725 0.69661
C_ C_ 0.808623 0.928186 0.693596 0.18167
C_ C_ 0.767229 0.957373 0.706282 -0.15533
C_ C_ 0.772516 -0.001747000000000054 0.742831 0.02923
C_ C_ 0.829939 0.516672 0.745929 -0.15533
C_ C_ 0.863243 0.986101 0.735787 0.18167
C_ C_ 0.989716 0.861291 0.713808 0.18167
C_ C_ 0.513131 0.803629 0.722969 -0.15533
C_ C_ 0.988854 0.777474 0.745427 0.02923
C_ C_ 0.93839 0.776902 0.725096 -0.15533
C_ C_ 0.913332 0.820764 0.701508 0.18167
C_ C_ 0.982501 0.957528 0.627982 0.69207
C_ C_ 0.522948 0.485064 0.615247 0.02923
C_ C_ 0.502989 0.535415 0.611832 -0.15533
C_ C_ 0.534614 0.574506 0.609471 -0.15533
C_ C_ 0.587053 0.563881 0.603721 0.02923
C_ C_ 0.605746 0.513231 0.603029 -0.15533
C_ C_ 0.575409 0.473775 0.610976 0.02923
C_ C_ 0.60069 0.92014 0.606053 0.69207
C_ C_ 0.601239 0.661273 0.60727 0.69661
C_ C_ 0.939289 0.68398 0.938549 0.18167
C_ C_ 0.981204 0.703952 0.963818 -0.15533
C_ C_ 0.973424 0.739784 1.00330434 0.02923
C_ C_ 0.9305 0.747376 0.521854 -0.15533
C_ C_ 0.882719 0.731889 0.990605 0.18167
C_ C_ 0.762299 0.705175 0.861523 0.18167
C_ C_ 0.738386 0.728573 0.817913 -0.15533
C_ C_ 0.768666 0.74674 0.781208 0.02923
C_ C_ 0.818683 0.729039 0.784807 -0.15533
C_ C_ 0.840521 0.706297 0.829088 0.18167
C_ C_ 0.765086 0.623125 0.949793 0.69207
C_ C_ 0.728404 0.62348 0.494751 0.02923
C_ C_ 0.748424 0.619744 0.54576 -0.15533
C_ C_ 0.71734 0.610414 0.583387 -0.15533
C_ C_ 0.665096 0.6033 0.571333 0.02923
C_ C_ 0.649454 0.594852 0.518296 -0.15533
C_ C_ 0.677217 0.609697 0.479928 0.02923
C_ C_ 0.651363 0.609465 0.919605 0.69207
C_ C_ 0.649165 0.602176 0.666399 0.69661
C_ C_ 0.866437 0.880113 0.880243 -0.30787
C_ C_ 0.624874 0.60615 0.610998 -0.30787
N_ N_ 0.652028 0.555697 0.81489 -0.32189
N_ N_ 0.554495 0.634894 0.80596 -0.32189
N_ N_ 0.608695 0.807362 0.562007 -0.32189
N_ N_ 0.699597 0.808782 0.645954 -0.32189
N_ N_ 0.855987 0.943678 0.706097 -0.32189
N_ N_ 0.939557 0.861141 0.695589 -0.32189
N_ N_ 0.891148 0.700068 0.948002 -0.32189
N_ N_ 0.81207 0.689517 0.863689 -0.32189
O_ O_ 1.0151393 0.592815 0.897956 -0.63271
O_ O_ 0.549562 0.525678 0.834033 -0.57982
O_ O_ 0.894884 0.597402 0.842603 -0.63271
O_ O_ 0.875776 0.593764 0.923196 -0.57982
O_ O_ 0.756174 0.888171 0.590739 -0.63271
O_ O_ 0.713605 0.835715 0.536524 -0.57982
O_ O_ 0.860433 0.840479 0.599962 -0.63271
O_ O_ 0.874209 0.923513 0.597637 -0.57982
O_ O_ 0.494413 0.899236 0.601979 -0.63271
O_ O_ 0.95471 0.961733 0.667323 -0.57982
O_ O_ 0.597564 0.896279 0.648344 -0.63271
O_ O_ 0.632448 0.900152 0.575029 -0.57982
O_ O_ 0.766535 0.600858 0.904405 -0.63271
O_ O_ 0.798859 0.655635 0.963214 -0.57982
O_ O_ 0.660349 0.649256 0.894488 -0.63271
O_ O_ 0.604723 0.594388 0.907771 -0.57982
F_ F_ 0.926956 0.824967 0.935026 -0.20885
F_ F_ 0.917162 0.803505 0.849709 -0.20885
F_ F_ 0.860183 0.793175 0.89998 -0.20885
F_ F_ 0.808206 0.916301 0.813199 -0.20885
F_ F_ 0.816323 0.828688 0.81816 -0.20885
F_ F_ 0.872341 0.873118 0.787419 -0.20885
F_ F_ 0.575808 0.668626 0.560085 -0.20885
F_ F_ 0.56964 0.67837 0.645386 -0.20885
F_ F_ 0.63554 0.699454 0.611801 -0.20885
F_ F_ 0.683385 0.561713 0.678471 -0.20885
F_ F_ 0.675433 0.64333 0.687143 -0.20885
F_ F_ 0.610665 0.600289 0.696204 -0.20885
_cell_length_a 26.508
_cell_length_b 26.37200000322088
_cell_length_c 26.311999743092066
_cell_angle_alpha 93.74100058972084
_cell_angle_beta 96.04100104955006
_cell_angle_gamma 83.6869992558723
_symmetry_space_group_name_H-M         'P 1'
_symmetry_Int_Tables_number            1
loop_
_symmetry_equiv_pos_as_xyz
   'x, y, z'
                         
loop_
_atom_site_label
_atom_site_type_symbol
_atom_site_fract_x 
_atom_site_fract_y
_atom_site_fract_z
_atom_site_charge
Zn Zn 0.0863265 0.0908641 0.345533 0.83971
Zn Zn 0.157841 0.346372 0.0823834 0.83971
Zn Zn 0.401733 0.419439 0.147126 0.83971
Zn Zn 0.336669 0.165201 0.420358 0.83971
H_ H_ 0.171338 0.139774 0.310511 0.10394
H_ H_ 0.261055 0.0952731 0.293075 0.10394
H_ H_ 0.200979 0.454097 0.264288 0.10394
H_ H_ 0.124709 0.99147 0.309696 0.10394
H_ H_ 0.532292 0.108842 0.2488 0.10394
H_ H_ 0.482597 0.182931 0.206614 0.10394
H_ H_ 0.0408446 0.285161 0.341647 0.10394
H_ H_ 0.0759857 0.202038 0.383087 0.10394
H_ H_ 0.0302712 0.445904 0.380515 0.10394
H_ H_ 0.479357 0.38227 0.369339 0.10394
H_ H_ 0.350638 0.492901 0.398133 0.10394
H_ H_ 0.0762916 0.313996 0.133702 0.10394
H_ H_ 0.499155 0.274672 0.0964733 0.10394
H_ H_ 0.0342791 0.288756 0.443297 0.10394
H_ H_ 0.124354 0.305292 0.985161 0.10394
H_ H_ 0.209287 0.242212 0.103883 0.10394
H_ H_ 0.258448 0.204285 0.18155 0.10394
H_ H_ 0.222637 0.346739 0.265603 0.10394
H_ H_ 0.174466 0.383481 0.187291 0.10394
H_ H_ 0.210492 0.373931 0.43833 0.10394
H_ H_ 0.266951 0.3808 0.373044 0.10394
H_ H_ 0.389393 0.413433 0.491355 0.10394
H_ H_ 0.294879 0.402054 0.153864 0.10394
H_ H_ 0.224574 0.459374 0.176328 0.10394
H_ H_ 0.334384 0.0415971 0.287995 0.10394
H_ H_ 0.399534 0.497685 0.22713 0.10394
H_ H_ 0.0110609 0.39643 0.19742 0.10394
H_ H_ 0.052488 0.323078 0.244428 0.10394
H_ H_ 0.411559 0.259242 0.235111 0.10394
H_ H_ 0.371865 0.33037 0.190743 0.10394
H_ H_ 0.467014 0.0543134 0.135295 0.10394
H_ H_ 0.0181729 0.11942 0.100453 0.10394
H_ H_ 0.140569 0.0032624 0.0865396 0.10394
H_ H_ 0.437987 0.179058 0.389621 0.10394
H_ H_ 0.0154895 0.189061 0.446723 0.10394
H_ H_ 0.40781 0.281914 0.0507942 0.10394
H_ H_ 0.347062 0.235458 0.507869 0.10394
H_ H_ 0.245572 0.229627 0.394545 0.10394
H_ H_ 0.212612 0.289519 0.327505 0.10394
H_ H_ 0.336097 0.220148 0.242369 0.10394
H_ H_ 0.373592 0.178982 0.318361 0.10394
H_ H_ 0.286324 0.0999592 0.0486732 0.10394
H_ H_ 0.231999 0.0844741 0.111483 0.10394
H_ H_ 0.0979863 0.106885 0.00942615 0.10394
C_ C_ 0.182195 0.0984835 0.309278 0.18167
C_ C_ 0.225993 0.0784445 0.28786 -0.15533
C_ C_ 0.231509 0.0258154 0.273517 0.02923
C_ C_ 0.198384 0.493946 0.278455 -0.15533
C_ C_ 0.151372 0.0164624 0.302631 0.18167
C_ C_ 0.0247418 0.150684 0.275989 0.18167
C_ C_ 0.504817 0.188895 0.241157 -0.15533
C_ C_ 0.00515287 0.242472 0.276326 0.02923
C_ C_ 0.0328951 0.247425 0.32538 -0.15533
C_ C_ 0.0583716 0.201009 0.344717 0.18167
C_ C_ 0.00348329 0.0508647 0.358738 0.69207
C_ C_ 0.471661 0.514717 0.37739 0.02923
C_ C_ 0.489974 0.461294 0.3677 -0.15533
C_ C_ 0.460608 0.422262 0.376477 -0.15533
C_ C_ 0.408128 0.433367 0.386891 0.02923
C_ C_ 0.389338 0.484958 0.392663 -0.15533
C_ C_ 0.419242 0.524969 0.387109 0.02923
C_ C_ 0.392344 0.0785536 0.388804 0.69207
C_ C_ 0.395602 0.33534 0.387894 0.69661
C_ C_ 0.0715419 0.300677 0.0933536 0.18167
C_ C_ 0.0282636 0.277877 0.0768447 -0.15533
C_ C_ 0.0175115 0.266442 0.0247562 0.02923
C_ C_ 0.0438034 0.28797 0.485111 -0.15533
C_ C_ 0.0966452 0.296668 0.00913264 0.18167
C_ C_ 0.216595 0.266114 0.137747 0.18167
C_ C_ 0.244387 0.245609 0.180223 -0.15533
C_ C_ 0.244164 0.27392 0.228083 0.02923
C_ C_ 0.217768 0.322414 0.230883 -0.15533
C_ C_ 0.19381 0.344232 0.186828 0.18167
C_ C_ 0.237721 0.364938 0.0400365 0.69207
C_ C_ 0.269786 0.376875 0.502138 0.02923
C_ C_ 0.248989 0.382231 0.450895 -0.15533
C_ C_ 0.280621 0.389204 0.411499 -0.15533
C_ C_ 0.332865 0.400736 0.423746 0.02923
C_ C_ 0.351386 0.401213 0.476804 -0.15533
C_ C_ 0.321836 0.38665 0.515931 0.02923
C_ C_ 0.349603 0.377888 0.0681697 0.69207
C_ C_ 0.346985 0.395105 0.325737 0.69661
C_ C_ 0.300053 0.438434 0.17203 0.18167
C_ C_ 0.261664 0.466785 0.193955 -0.15533
C_ C_ 0.270517 0.507357 0.23101 0.02923
C_ C_ 0.323843 0.0139922 0.255757 -0.15533
C_ C_ 0.359693 0.493632 0.213242 0.18167
C_ C_ 0.490677 0.366797 0.20126 0.18167
C_ C_ 0.00943032 0.328057 0.237253 -0.15533
C_ C_ 0.487361 0.283373 0.236255 0.02923
C_ C_ 0.43626 0.284787 0.221512 -0.15533
C_ C_ 0.413122 0.325918 0.194641 0.18167
C_ C_ 0.481988 0.454612 0.114603 0.69207
C_ C_ 0.0209867 0.987284 0.111559 0.02923
C_ C_ 0.0011939 0.0403003 0.111909 -0.15533
C_ C_ 0.0327691 0.0786067 0.103876 -0.15533
C_ C_ 0.0863643 0.0658417 0.101976 0.02923
C_ C_ 0.100546 0.0145813 0.0929467 -0.15533
C_ C_ 0.0726852 0.975754 0.101051 0.02923
C_ C_ 0.0927522 0.427324 0.101023 0.69207
C_ C_ 0.102502 0.16043 0.115356 0.69661
C_ C_ 0.434006 0.19667 0.428436 0.18167
C_ C_ 0.47832 0.211553 0.457163 -0.15533
C_ C_ 0.471835 0.242774 0.504321 0.02923
C_ C_ 0.414328 0.256648 0.0191062 -0.15533
C_ C_ 0.383477 0.227416 0.493469 0.18167
C_ C_ 0.264625 0.226891 0.359974 0.18167
C_ C_ 0.242789 0.256564 0.320353 -0.15533
C_ C_ 0.26754 0.250421 0.275652 0.02923
C_ C_ 0.315187 0.221844 0.275222 -0.15533
C_ C_ 0.335547 0.193545 0.316257 0.18167
C_ C_ 0.258068 0.132595 0.45451 0.69207
C_ C_ 0.221819 0.109614 0.988004 0.02923
C_ C_ 0.243337 0.102568 0.0387419 -0.15533
C_ C_ 0.213569 0.0948031 0.0768058 -0.15533
C_ C_ 0.160636 0.100704 0.0670973 0.02923
C_ C_ 0.138682 0.104115 0.0170079 -0.15533
C_ C_ 0.169646 0.106745 0.97703 0.02923
C_ C_ 0.147575 0.110276 0.430186 0.69207
C_ C_ 0.151441 0.0958996 0.16396 0.69661
C_ C_ 0.369378 0.390998 0.381954 -0.30787
C_ C_ 0.126148 0.103988 0.10985 -0.30787
N_ N_ 0.144479 0.0690004 0.311931 -0.32189
N_ N_ 0.0565413 0.155796 0.319188 -0.32189
N_ N_ 0.104267 0.311925 0.0594365 -0.32189
N_ N_ 0.191999 0.313583 0.141413 -0.32189
N_ N_ 0.348701 0.452852 0.181554 -0.32189
N_ N_ 0.440759 0.363858 0.182637 -0.32189
N_ N_ 0.389069 0.204306 0.445797 -0.32189
N_ N_ 0.309873 0.196446 0.356909 -0.32189
O_ O_ 0.502992 0.103037 0.388363 -0.63271
O_ O_ 0.0381794 0.0455966 0.326453 -0.57982
O_ O_ 0.396526 0.101702 0.345372 -0.63271
O_ O_ 0.36253 0.0999639 0.421036 -0.57982
O_ O_ 0.228514 0.403932 0.0737573 -0.63271
O_ O_ 0.204058 0.331605 0.0356036 -0.57982
O_ O_ 0.343576 0.343459 0.100459 -0.63271
O_ O_ 0.376713 0.414965 0.0828997 -0.57982
O_ O_ 0.990966 0.412799 0.0999189 -0.63271
O_ O_ 0.442752 0.470397 0.139417 -0.57982
O_ O_ 0.0919146 0.407262 0.146382 -0.63271
O_ O_ 0.128512 0.410421 0.0703205 -0.57982
O_ O_ 0.2629 0.108792 0.408699 -0.63271
O_ O_ 0.290749 0.167635 0.465291 -0.57982
O_ O_ 0.157868 0.148656 0.404787 -0.63271
O_ O_ 0.109546 0.0847495 0.413927 -0.57982
F_ F_ 0.427512 0.332495 0.430782 -0.20885
F_ F_ 0.42091 0.320389 0.344118 -0.20885
F_ F_ 0.359948 0.300943 0.385148 -0.20885
F_ F_ 0.314695 0.438121 0.321308 -0.20885
F_ F_ 0.320438 0.352566 0.305588 -0.20885
F_ F_ 0.382099 0.397401 0.289738 -0.20885
F_ F_ 0.0699617 0.173973 0.0750807 -0.20885
F_ F_ 0.0733053 0.172372 0.156059 -0.20885
F_ F_ 0.139947 0.193404 0.11999 -0.20885
F_ F_ 0.177989 0.048492 0.170145 -0.20885
F_ F_ 0.187924 0.129636 0.173662 -0.20885
F_ F_ 0.118912 0.103552 0.201983 -0.20885
Zn Zn 0.0854896 0.0755731 0.845268 0.83971
Zn Zn 0.153863 0.347259 0.584698 0.83971
Zn Zn 0.409392 0.410279 0.65272 0.83971
Zn Zn 0.330068 0.160741 0.915883 0.83971
H_ H_ 0.149261 0.124824 0.79123 0.10394
H_ H_ 0.236755 0.0973978 0.761617 0.10394
H_ H_ 0.219513 0.447826 0.800212 0.10394
H_ H_ 0.145544 0.975473 0.84606 0.10394
H_ H_ 0.527702 0.0884969 0.751406 0.10394
H_ H_ 0.482147 0.159521 0.698325 0.10394
H_ H_ 0.0171664 0.259988 0.831671 0.10394
H_ H_ 0.0656192 0.185612 0.876709 0.10394
H_ H_ 0.0430831 0.450824 0.889635 0.10394
H_ H_ 0.483166 0.376399 0.887008 0.10394
H_ H_ 0.353303 0.488608 0.892661 0.10394
H_ H_ 0.0860331 0.292821 0.630156 0.10394
H_ H_ 0.512912 0.253543 0.606732 0.10394
H_ H_ 0.0448695 0.266004 0.94955 0.10394
H_ H_ 0.104535 0.329607 0.480462 0.10394
H_ H_ 0.211181 0.255293 0.598657 0.10394
H_ H_ 0.249856 0.209346 0.676411 0.10394
H_ H_ 0.213802 0.336738 0.773035 0.10394
H_ H_ 0.174406 0.381565 0.697508 0.10394
H_ H_ 0.216509 0.356393 0.938075 0.10394
H_ H_ 0.269471 0.367617 0.872196 0.10394
H_ H_ 0.395977 0.394004 0.987269 0.10394
H_ H_ 0.307971 0.393684 0.663451 0.10394
H_ H_ 0.236532 0.443242 0.700835 0.10394
H_ H_ 0.331787 0.0467898 0.782601 0.10394
H_ H_ 0.410526 0.485328 0.744409 0.10394
H_ H_ 0.0181103 0.376395 0.703002 0.10394
H_ H_ 0.0579576 0.296518 0.737231 0.10394
H_ H_ 0.408672 0.238238 0.715928 0.10394
H_ H_ 0.367667 0.322117 0.675919 0.10394
H_ H_ 0.459432 0.0460609 0.590185 0.10394
H_ H_ 0.0232261 0.115862 0.613863 0.10394
H_ H_ 0.145431 -0.00871999999999995 0.596932 0.10394
H_ H_ 0.429206 0.174184 0.894452 0.10394
H_ H_ 0.0172831 0.163145 0.996152 0.10394
H_ H_ 0.416791 0.272746 0.560604 0.10394
H_ H_ 0.339594 0.229577 0.0151247 0.10394
H_ H_ 0.225984 0.208921 0.891258 0.10394
H_ H_ 0.182514 0.247894 0.817508 0.10394
H_ H_ 0.324143 0.230203 0.744112 0.10394
H_ H_ 0.366162 0.190464 0.825695 0.10394
H_ H_ 0.289127 0.122023 0.554372 0.10394
H_ H_ 0.246359 0.0830147 0.616295 0.10394
H_ H_ 0.114472 0.0750036 0.50892 0.10394
C_ C_ 0.165917 0.0855698 0.791147 0.18167
C_ C_ 0.214435 0.0707259 0.776318 -0.15533
C_ C_ 0.233638 0.0178226 0.777204 0.02923
C_ C_ 0.206073 0.487054 0.790956 -0.15533
C_ C_ 0.164045 0.00431932 0.826327 0.18167
C_ C_ 0.0254257 0.125325 0.768448 0.18167
C_ C_ 0.500139 0.166759 0.73814 -0.15533
C_ C_ 0.00652157 0.217285 0.759386 0.02923
C_ C_ 0.0246379 0.223699 0.810576 -0.15533
C_ C_ 0.0476782 0.181111 0.838221 0.18167
C_ C_ 0.00419109 0.037477 0.867459 0.69207
C_ C_ 0.475518 0.50172 0.872088 0.02923
C_ C_ 0.494598 0.450229 0.876649 -0.15533
C_ C_ 0.46415 0.411873 0.884058 -0.15533
C_ C_ 0.414063 0.424998 0.896926 0.02923
C_ C_ 0.394321 0.477723 0.89853 -0.15533
C_ C_ 0.424692 0.516349 0.881698 0.02923
C_ C_ 0.387766 0.0752456 0.881898 0.69207
C_ C_ 0.399223 0.328508 0.881106 0.69661
C_ C_ 0.074992 0.28973 0.589134 0.18167
C_ C_ 0.028767 0.270074 0.570588 -0.15533
C_ C_ 0.0159989 0.26205 0.517143 0.02923
C_ C_ 0.0531523 0.276186 0.990285 -0.15533
C_ C_ 0.0840582 0.313135 0.505553 0.18167
C_ C_ 0.208656 0.27099 0.637665 0.18167
C_ C_ 0.225777 0.242719 0.681403 -0.15533
C_ C_ 0.225324 0.265977 0.72928 0.02923
C_ C_ 0.212094 0.318951 0.734256 -0.15533
C_ C_ 0.191426 0.343651 0.69115 0.18167
C_ C_ 0.236505 0.368689 0.543087 0.69207
C_ C_ 0.27414 0.365784 0.000175209 0.02923
C_ C_ 0.256403 0.362802 0.948892 -0.15533
C_ C_ 0.288265 0.36607 0.910988 -0.15533
C_ C_ 0.337601 0.383441 0.923845 0.02923
C_ C_ 0.354892 0.386707 0.976795 -0.15533
C_ C_ 0.325656 0.374455 0.0147716 0.02923
C_ C_ 0.350662 0.378279 0.566592 0.69207
C_ C_ 0.352927 0.387608 0.826465 0.69661
C_ C_ 0.31475 0.427852 0.689148 0.18167
C_ C_ 0.274446 0.454379 0.711308 -0.15533
C_ C_ 0.283251 0.495948 0.74707 0.02923
C_ C_ 0.325208 0.015225 0.754063 -0.15533
C_ C_ 0.371587 0.481467 0.731301 0.18167
C_ C_ 0.492698 0.344276 0.695819 0.18167
C_ C_ 0.0187504 0.297543 0.71945 -0.15533
C_ C_ 0.481616 0.261958 0.727849 0.02923
C_ C_ 0.429562 0.269622 0.71192 -0.15533
C_ C_ 0.408804 0.316694 0.693515 0.18167
C_ C_ 0.486654 0.445867 0.618381 0.69207
C_ C_ 0.0243528 0.989915 0.625819 0.02923
C_ C_ 0.00956836 0.0414058 0.63131 -0.15533
C_ C_ 0.0396579 0.0758016 0.615649 -0.15533
C_ C_ 0.0901387 0.0604341 0.605911 0.02923
C_ C_ 0.107099 0.00826356 0.603777 -0.15533
C_ C_ 0.0735267 0.972258 0.616493 0.02923
C_ C_ 0.0923867 0.424435 0.608123 0.69207
C_ C_ 0.108469 0.150132 0.601858 0.69661
C_ C_ 0.425893 0.195528 0.930183 0.18167
C_ C_ 0.466154 0.221508 0.952356 -0.15533
C_ C_ 0.461212 0.251342 0.997029 0.02923
C_ C_ 0.424394 0.245988 0.523607 -0.15533
C_ C_ 0.374873 0.229618 0.996685 0.18167
C_ C_ 0.247195 0.21187 0.858005 0.18167
C_ C_ 0.224088 0.236663 0.817413 -0.15533
C_ C_ 0.25013 0.241235 0.773905 0.02923
C_ C_ 0.302793 0.222788 0.774415 -0.15533
C_ C_ 0.325361 0.195687 0.818647 0.18167
C_ C_ 0.257182 0.119696 0.951687 0.69207
C_ C_ 0.228732 0.111522 0.490707 0.02923
C_ C_ 0.249824 0.115395 0.543598 -0.15533
C_ C_ 0.223094 0.0978329 0.582638 -0.15533
C_ C_ 0.171954 0.086305 0.570152 0.02923
C_ C_ 0.1523 0.0837781 0.518895 -0.15533
C_ C_ 0.178393 0.0994881 0.479712 0.02923
C_ C_ 0.147762 0.104811 0.922594 0.69207
C_ C_ 0.154253 0.0960989 0.665425 0.69661
C_ C_ 0.375509 0.3829 0.883015 -0.30787
C_ C_ 0.132749 0.0971464 0.609443 -0.30787
N_ N_ 0.140312 0.0513535 0.812946 -0.32189
N_ N_ 0.0510574 0.134108 0.814459 -0.32189
N_ N_ 0.101667 0.310959 0.556522 -0.32189
N_ N_ 0.186829 0.319913 0.645148 -0.32189
N_ N_ 0.362395 0.442401 0.696505 -0.32189
N_ N_ 0.440664 0.350139 0.680269 -0.32189
N_ N_ 0.382366 0.198509 0.953363 -0.32189
N_ N_ 0.296885 0.188739 0.857551 -0.32189
O_ O_ 0.495692 0.0978397 0.879212 -0.63271
O_ O_ 0.0484918 0.023919 0.849187 -0.57982
O_ O_ 0.390842 0.0991565 0.841945 -0.63271
O_ O_ 0.365864 0.0995147 0.920845 -0.57982
O_ O_ 0.247155 0.387638 0.588652 -0.63271
O_ O_ 0.199872 0.339933 0.536323 -0.57982
O_ O_ 0.352553 0.335837 0.5871 -0.63271
O_ O_ 0.373275 0.415957 0.590944 -0.57982
O_ O_ 0.98117 0.417168 0.586642 -0.63271
O_ O_ 0.453677 0.455238 0.650852 -0.57982
O_ O_ 0.0931973 0.399989 0.651417 -0.63271
O_ O_ 0.123377 0.408934 0.575082 -0.57982
O_ O_ 0.255523 0.0939814 0.907317 -0.63271
O_ O_ 0.289629 0.155685 0.962328 -0.57982
O_ O_ 0.150836 0.144616 0.89407 -0.63271
O_ O_ 0.108272 0.0804195 0.911054 -0.57982
F_ F_ 0.430631 0.318962 0.927599 -0.20885
F_ F_ 0.429906 0.314959 0.840421 -0.20885
F_ F_ 0.362325 0.292352 0.874788 -0.20885
F_ F_ 0.324783 0.435545 0.82469 -0.20885
F_ F_ 0.322053 0.352256 0.803732 -0.20885
F_ F_ 0.390717 0.386783 0.793211 -0.20885
F_ F_ 0.0784037 0.149332 0.554389 -0.20885
F_ F_ 0.0775228 0.173251 0.636581 -0.20885
F_ F_ 0.141351 0.185127 0.59814 -0.20885
F_ F_ 0.182755 0.0515813 0.671496 -0.20885
F_ F_ 0.183408 0.135262 0.681247 -0.20885
F_ F_ 0.116159 0.103724 0.697206 -0.20885
Zn Zn 0.0885714 0.585474 0.349948 0.83971
Zn Zn 0.163548 0.842915 0.0841188 0.83971
Zn Zn 0.408119 0.918605 0.158807 0.83971
Zn Zn 0.338661 0.662465 0.422147 0.83971
H_ H_ 0.163932 0.635714 0.311121 0.10394
H_ H_ 0.242787 0.606269 0.273203 0.10394
H_ H_ 0.201058 0.952385 0.277009 0.10394
H_ H_ 0.126699 0.486095 0.311028 0.10394
H_ H_ 0.546766 0.598248 0.245801 0.10394
H_ H_ 0.505165 0.672119 0.198532 0.10394
H_ H_ 0.0286542 0.772177 0.326651 0.10394
H_ H_ 0.0652015 0.701799 0.379768 0.10394
H_ H_ 0.0242037 0.947679 0.339433 0.10394
H_ H_ 0.468684 0.890523 0.370941 0.10394
H_ H_ 0.370559 0.99670708 0.444249 0.10394
H_ H_ 0.0756865 0.810693 0.135616 0.10394
H_ H_ 0.508425 0.75853 0.101402 0.10394
H_ H_ 0.0492071 0.78124 0.450797 0.10394
H_ H_ 0.121059 0.815516 0.985207 0.10394
H_ H_ 0.225016 0.752235 0.0977721 0.10394
H_ H_ 0.267685 0.709333 0.175154 0.10394
H_ H_ 0.215623 0.832131 0.267989 0.10394
H_ H_ 0.173894 0.877051 0.194759 0.10394
H_ H_ 0.212702 0.873642 0.449283 0.10394
H_ H_ 0.265563 0.886666 0.379333 0.10394
H_ H_ 0.388023 0.917609 0.498691 0.10394
H_ H_ 0.297232 0.89967 0.161645 0.10394
H_ H_ 0.227337 0.957847 0.18795 0.10394
H_ H_ 0.329245 0.54957 0.271997 0.10394
H_ H_ 0.402206 -0.01022400000000001 0.245183 0.10394
H_ H_ 0.00541351 0.884088 0.194817 0.10394
H_ H_ 0.0492046 0.815151 0.238301 0.10394
H_ H_ 0.420876 0.736181 0.211359 0.10394
H_ H_ 0.374952 0.819555 0.184638 0.10394
H_ H_ 0.457664 0.554894 0.106092 0.10394
H_ H_ 0.0157769 0.622618 0.0994636 0.10394
H_ H_ 0.141492 0.50518 0.0789108 0.10394
H_ H_ 0.438972 0.664819 0.402487 0.10394
H_ H_ 0.0209171 0.686593 0.449825 0.10394
H_ H_ 0.419185 0.776139 0.0482023 0.10394
H_ H_ 0.346879 0.732157 0.515297 0.10394
H_ H_ 0.234119 0.691512 0.379998 0.10394
H_ H_ 0.197433 0.724305 0.300018 0.10394
H_ H_ 0.339236 0.762792 0.264715 0.10394
H_ H_ 0.379347 0.721012 0.347822 0.10394
H_ H_ 0.287481 0.623394 0.0511249 0.10394
H_ H_ 0.230748 0.615737 0.120803 0.10394
H_ H_ 0.106268 0.595058 0.00435163 0.10394
C_ C_ 0.173505 0.594145 0.303787 0.18167
C_ C_ 0.220473 0.578212 0.284234 -0.15533
C_ C_ 0.229512 0.52771 0.264024 0.02923
C_ C_ 0.195339 0.995434 0.285418 -0.15533
C_ C_ 0.152399 0.510943 0.29875 0.18167
C_ C_ 0.038406 0.635191 0.271995 0.18167
C_ C_ 0.522859 0.680058 0.236538 -0.15533
C_ C_ 0.0133109 0.723986 0.257759 0.02923
C_ C_ 0.0303816 0.734226 0.309478 -0.15533
C_ C_ 0.0560934 0.694139 0.339493 0.18167
C_ C_ 0.0054078 0.548123 0.372246 0.69207
C_ C_ 0.471435 0.0157387 0.380552 0.02923
C_ C_ 0.492055 0.963412 0.384662 -0.15533
C_ C_ 0.457609 0.927769 0.382845 -0.15533
C_ C_ 0.411455 0.940049 0.399566 0.02923
C_ C_ 0.398144 0.989086 0.416772 -0.15533
C_ C_ 0.422731 0.0292961 0.401754 0.02923
C_ C_ 0.394839 0.57837 0.386814 0.69207
C_ C_ 0.395644 0.844 0.40211 0.69661
C_ C_ 0.0702034 0.802512 0.0945469 0.18167
C_ C_ 0.0305694 0.774354 0.073477 -0.15533
C_ C_ 0.0180926 0.769776 0.022272 0.02923
C_ C_ 0.0559128 0.78371 0.491652 -0.15533
C_ C_ 0.099476 0.798953 0.011116 0.18167
C_ C_ 0.219568 0.768761 0.13736 0.18167
C_ C_ 0.247322 0.745876 0.179272 -0.15533
C_ C_ 0.242765 0.767466 0.226911 0.02923
C_ C_ 0.217604 0.816061 0.232514 -0.15533
C_ C_ 0.191885 0.839628 0.19096 0.18167
C_ C_ 0.242253 0.864484 0.0445363 0.69207
C_ C_ 0.269828 0.886906 0.511154 0.02923
C_ C_ 0.251893 0.882566 0.458672 -0.15533
C_ C_ 0.281585 0.89166 0.419735 -0.15533
C_ C_ 0.333271 0.906365 0.43301 0.02923
C_ C_ 0.349023 0.910714 0.486663 -0.15533
C_ C_ 0.318335 0.899578 0.523861 0.02923
C_ C_ 0.350463 0.894148 0.0725678 0.69207
C_ C_ 0.347421 0.904676 0.337676 0.69661
C_ C_ 0.306066 0.9339 0.184648 0.18167
C_ C_ 0.264988 0.965632 0.203658 -0.15533
C_ C_ 0.273384 1.00215976 0.244324 0.02923
C_ C_ 0.322674 0.517528 0.244062 -0.15533
C_ C_ 0.363249 0.982943 0.234172 0.18167
C_ C_ 0.485731 0.861465 0.214503 0.18167
C_ C_ 0.0116519 0.811554 0.221468 -0.15533
C_ C_ 0.491287 0.772445 0.232033 0.02923
C_ C_ 0.440472 0.770632 0.212017 -0.15533
C_ C_ 0.415656 0.816073 0.191828 0.18167
C_ C_ 0.488758 0.953764 0.129498 0.69207
C_ C_ 0.0201468 0.495263 0.109092 0.02923
C_ C_ -0.0003149999999999542 0.54664 0.104098 -0.15533
C_ C_ 0.0320005 0.584327 0.0998161 -0.15533
C_ C_ 0.0850475 0.57051 0.09651 0.02923
C_ C_ 0.101507 0.517951 0.0883439 -0.15533
C_ C_ 0.0685829 0.480611 0.0961655 0.02923
C_ C_ 0.0988292 0.921305 0.101212 0.69207
C_ C_ 0.0988517 0.666014 0.101452 0.69661
C_ C_ 0.435961 0.688801 0.437552 0.18167
C_ C_ 0.476189 0.715175 0.460704 -0.15533
C_ C_ 0.469047 0.751835 0.501895 0.02923
C_ C_ 0.426907 0.749117 0.0166585 -0.15533
C_ C_ 0.382278 0.728081 0.499754 0.18167
C_ C_ 0.259052 0.700088 0.352201 0.18167
C_ C_ 0.237684 0.719151 0.305239 -0.15533
C_ C_ 0.267022 0.738252 0.271295 0.02923
C_ C_ 0.317569 0.741765 0.287448 -0.15533
C_ C_ 0.340164 0.717099 0.331173 0.18167
C_ C_ 0.258267 0.62466 0.456325 0.69207
C_ C_ 0.228184 0.61938 0.989219 0.02923
C_ C_ 0.246903 0.621648 0.0416774 -0.15533
C_ C_ 0.21509 0.614188 0.0789098 -0.15533
C_ C_ 0.163578 0.604663 0.0644323 0.02923
C_ C_ 0.146018 0.599925 0.0123776 -0.15533
C_ C_ 0.177085 0.611923 0.975633 0.02923
C_ C_ 0.150886 0.60124 0.431772 0.69207
C_ C_ 0.149812 0.60229 0.161471 0.69661
C_ C_ 0.372512 0.900589 0.393172 -0.30787
C_ C_ 0.124629 0.610222 0.104253 -0.30787
N_ N_ 0.140576 0.562573 0.309823 -0.32189
N_ N_ 0.059417 0.645826 0.31918 -0.32189
N_ N_ 0.107035 0.808566 0.0627658 -0.32189
N_ N_ 0.195447 0.816457 0.144481 -0.32189
N_ N_ 0.3557 0.947213 0.195748 -0.32189
N_ N_ 0.436589 0.861299 0.195955 -0.32189
N_ N_ 0.389758 0.697611 0.4581 -0.32189
N_ N_ 0.310651 0.693479 0.361549 -0.32189
O_ O_ 0.495615 0.598927 0.394898 -0.63271
O_ O_ 0.0421859 0.540522 0.34289 -0.57982
O_ O_ 0.393229 0.603583 0.34593 -0.63271
O_ O_ 0.365888 0.598544 0.42338 -0.57982
O_ O_ 0.240648 0.896942 0.0841335 -0.63271
O_ O_ 0.204779 0.836403 0.0327352 -0.57982
O_ O_ 0.349163 0.854883 0.0993854 -0.63271
O_ O_ 0.384547 0.922654 0.090332 -0.57982
O_ O_ 0.989778 0.902978 0.0990519 -0.63271
O_ O_ 0.455283 0.963994 0.164995 -0.57982
O_ O_ 0.0946772 0.89443 0.140289 -0.63271
O_ O_ 0.138621 0.90684 0.074712 -0.57982
O_ O_ 0.260117 0.595947 0.413551 -0.63271
O_ O_ 0.28762 0.661826 0.465652 -0.57982
O_ O_ 0.150513 0.643049 0.405999 -0.63271
O_ O_ 0.124275 0.566556 0.409197 -0.57982
F_ F_ 0.434714 0.843925 0.44291 -0.20885
F_ F_ 0.418101 0.820512 0.362137 -0.20885
F_ F_ 0.362513 0.810427 0.417019 -0.20885
F_ F_ 0.311281 0.947437 0.336041 -0.20885
F_ F_ 0.319716 0.864882 0.319908 -0.20885
F_ F_ 0.380777 0.90416 0.300263 -0.20885
F_ F_ 0.0724602 0.671497 0.0528919 -0.20885
F_ F_ 0.0664263 0.684634 0.139883 -0.20885
F_ F_ 0.133809 0.702051 0.105452 -0.20885
F_ F_ 0.187597 0.562745 0.163588 -0.20885
F_ F_ 0.169374 0.647554 0.18559 -0.20885
F_ F_ 0.116856 0.587501 0.193887 -0.20885
Zn Zn 0.0964179 0.58946 0.846049 0.83971
Zn Zn 0.158765 0.845756 0.589461 0.83971
Zn Zn 0.407884 0.916398 0.657419 0.83971
Zn Zn 0.346403 0.65137 0.912166 0.83971
H_ H_ 0.175246 0.633579 0.800616 0.10394
H_ H_ 0.254491 0.592522 0.762152 0.10394
H_ H_ 0.226782 0.947339 0.810293 0.10394
H_ H_ 0.136647 0.489167 0.822946 0.10394
H_ H_ 0.529208 0.589578 0.742047 0.10394
H_ H_ 0.48796 0.664844 0.691111 0.10394
H_ H_ 0.0363284 0.773461 0.846866 0.10394
H_ H_ 0.0757991 0.696345 0.887421 0.10394
H_ H_ 0.0257819 0.934467 0.851603 0.10394
H_ H_ 0.48903 0.888573 0.911876 0.10394
H_ H_ 0.350149 0.987886 0.89262 0.10394
H_ H_ 0.087287 0.79406 0.636946 0.10394
H_ H_ 0.496278 0.779021 0.60059 0.10394
H_ H_ 0.0486678 0.775684 0.948084 0.10394
H_ H_ 0.126853 0.813861 0.48762 0.10394
H_ H_ 0.228093 0.759669 0.600629 0.10394
H_ H_ 0.283448 0.71281 0.669093 0.10394
H_ H_ 0.220183 0.834226 0.774197 0.10394
H_ H_ 0.179491 0.880828 0.701098 0.10394
H_ H_ 0.2277 0.846188 0.940022 0.10394
H_ H_ 0.271762 0.878044 0.876275 0.10394
H_ H_ 0.3852 0.929303 0.989087 0.10394
H_ H_ 0.309864 0.894517 0.669925 0.10394
H_ H_ 0.235504 0.943275 0.697625 0.10394
H_ H_ 0.342865 0.537307 0.786409 0.10394
H_ H_ 0.407677 0.00281758 0.739178 0.10394
H_ H_ 0.0117146 0.893257 0.706502 0.10394
H_ H_ 0.0565257 0.821492 0.751752 0.10394
H_ H_ 0.410076 0.737167 0.708663 0.10394
H_ H_ 0.368721 0.817604 0.684918 0.10394
H_ H_ 0.462838 0.542034 0.610444 0.10394
H_ H_ 0.0193692 0.622929 0.618624 0.10394
H_ H_ 0.140914 0.506048 0.593334 0.10394
H_ H_ 0.447352 0.664244 0.896932 0.10394
H_ H_ 0.019317 0.696585 0.949392 0.10394
H_ H_ 0.414653 0.7863 0.555151 0.10394
H_ H_ 0.347609 0.72835 0.00472103 0.10394
H_ H_ 0.240981 0.666975 0.864637 0.10394
H_ H_ 0.20427 0.712325 0.788986 0.10394
H_ H_ 0.355194 0.7535 0.77029 0.10394
H_ H_ 0.387116 0.709942 0.840797 0.10394
H_ H_ 0.28412 0.623967 0.557869 0.10394
H_ H_ 0.230797 0.614885 0.624691 0.10394
H_ H_ 0.112061 0.566906 0.512278 0.10394
C_ C_ 0.184478 0.593452 0.798792 0.18167
C_ C_ 0.229168 0.57251 0.779055 -0.15533
C_ C_ 0.241653 0.518217 0.776611 0.02923
C_ C_ 0.209933 0.985408 0.806516 -0.15533
C_ C_ 0.160372 0.511552 0.806362 0.18167
C_ C_ 0.0365424 0.643289 0.771677 0.18167
C_ C_ 0.505373 0.669333 0.730211 -0.15533
C_ C_ 0.0160763 0.733957 0.773313 0.02923
C_ C_ 0.039222 0.737302 0.82407 -0.15533
C_ C_ 0.0587601 0.694869 0.847728 0.18167
C_ C_ 0.0151375 0.55025 0.869342 0.69207
C_ C_ 0.469661 0.0137155 0.881911 0.02923
C_ C_ 0.491234 0.961957 0.880861 -0.15533
C_ C_ 0.46643 0.922623 0.894746 -0.15533
C_ C_ 0.413332 0.932013 0.898924 0.02923
C_ C_ 0.389918 0.983334 0.891629 -0.15533
C_ C_ 0.418304 0.0244659 0.886605 0.02923
C_ C_ 0.401751 0.5683 0.880836 0.69207
C_ C_ 0.407389 0.832167 0.902318 0.69661
C_ C_ 0.0797049 0.791283 0.596839 0.18167
C_ C_ 0.0302769 0.776329 0.575853 -0.15533
C_ C_ 0.0198592 0.769938 0.523408 0.02923
C_ C_ 0.0528668 0.784193 0.98952 -0.15533
C_ C_ 0.102663 0.800351 0.515165 0.18167
C_ C_ 0.225634 0.774803 0.637848 0.18167
C_ C_ 0.257611 0.749253 0.677249 -0.15533
C_ C_ 0.2522 0.768411 0.727359 0.02923
C_ C_ 0.224819 0.817307 0.737361 -0.15533
C_ C_ 0.197791 0.841603 0.694792 0.18167
C_ C_ 0.234512 0.880803 0.551904 0.69207
C_ C_ 0.279604 0.872329 0.00485128 0.02923
C_ C_ 0.260827 0.869169 0.953014 -0.15533
C_ C_ 0.290115 0.881774 0.914055 -0.15533
C_ C_ 0.338999 0.896477 0.929316 0.02923
C_ C_ 0.35284 0.908697 0.981019 -0.15533
C_ C_ 0.325739 0.895179 0.0191721 0.02923
C_ C_ 0.343976 0.893377 0.576752 0.69207
C_ C_ 0.35807 0.880158 0.832876 0.69661
C_ C_ 0.313191 0.930293 0.691485 0.18167
C_ C_ 0.270564 0.955176 0.712629 -0.15533
C_ C_ 0.274702 0.998174 0.743913 0.02923
C_ C_ 0.333432 0.5099 0.757534 -0.15533
C_ C_ 0.366573 0.989826 0.730541 0.18167
C_ C_ 0.489345 0.84798 0.700603 0.18167
C_ C_ 0.0153391 0.820192 0.737924 -0.15533
C_ C_ 0.48364 0.76396 0.730313 0.02923
C_ C_ 0.434195 0.767132 0.705976 -0.15533
C_ C_ 0.410103 0.811158 0.68376 0.18167
C_ C_ 0.490104 0.946906 0.620979 0.69207
C_ C_ 0.0209219 0.49324 0.620703 0.02923
C_ C_ 1.00375232 0.546132 0.630364 -0.15533
C_ C_ 0.0348798 0.583453 0.618515 -0.15533
C_ C_ 0.0856584 0.568977 0.606206 0.02923
C_ C_ 0.100403 0.516214 0.59587 -0.15533
C_ C_ 0.0711256 0.48028 0.610139 0.02923
C_ C_ 0.0906523 0.919335 0.614879 0.69207
C_ C_ 0.100942 0.662352 0.605399 0.69661
C_ C_ 0.442106 0.687401 0.929607 0.18167
C_ C_ 0.484468 0.707157 0.957514 -0.15533
C_ C_ 0.476048 0.741123 -0.0007519999999999749 0.02923
C_ C_ 0.423305 0.755882 0.522964 -0.15533
C_ C_ 0.387514 0.720904 0.991927 0.18167
C_ C_ 0.264877 0.685627 0.841267 0.18167
C_ C_ 0.24352 0.71077 0.799091 -0.15533
C_ C_ 0.275484 0.737909 0.770747 0.02923
C_ C_ 0.328495 0.729572 0.782535 -0.15533
C_ C_ 0.348913 0.703282 0.827251 0.18167
C_ C_ 0.266717 0.624749 0.950952 0.69207
C_ C_ 0.226126 0.610317 0.496479 0.02923
C_ C_ 0.245327 0.614298 0.546781 -0.15533
C_ C_ 0.21584 0.606064 0.586452 -0.15533
C_ C_ 0.164971 0.594115 0.573753 0.02923
C_ C_ 0.148049 0.584981 0.523301 -0.15533
C_ C_ 0.175718 0.598163 0.484365 0.02923
C_ C_ 0.155587 0.612975 0.923738 0.69207
C_ C_ 0.148906 0.603531 0.666501 0.69661
C_ C_ 0.380428 0.887868 0.890307 -0.30787
C_ C_ 0.125445 0.607067 0.610439 -0.30787
N_ N_ 0.15069 0.562312 0.811329 -0.32189
N_ N_ 0.0632618 0.64964 0.818801 -0.32189
N_ N_ 0.113868 0.800454 0.566525 -0.32189
N_ N_ 0.194681 0.818014 0.647246 -0.32189
N_ N_ 0.358985 0.948135 0.700384 -0.32189
N_ N_ 0.43847 0.852441 0.684498 -0.32189
N_ N_ 0.396917 0.688382 0.950206 -0.32189
N_ N_ 0.316761 0.682664 0.855789 -0.32189
O_ O_ 0.503454 0.585544 0.880568 -0.63271
O_ O_ 0.0516552 0.540953 0.839781 -0.57982
O_ O_ 0.398598 0.593553 0.841111 -0.63271
O_ O_ 0.371547 0.584262 0.915628 -0.57982
O_ O_ 0.235427 0.907175 0.595507 -0.63271
O_ O_ 0.205414 0.843142 0.544878 -0.57982
O_ O_ 0.348566 0.849263 0.597749 -0.63271
O_ O_ 0.370936 0.929676 0.597997 -0.57982
O_ O_ 0.981834 0.915523 0.598794 -0.63271
O_ O_ 0.453208 0.960727 0.652228 -0.57982
O_ O_ 0.0940894 0.896175 0.658588 -0.63271
O_ O_ 0.126585 0.906756 0.584886 -0.57982
O_ O_ 0.267229 0.594882 0.909783 -0.63271
O_ O_ 0.301881 0.656856 0.959843 -0.57982
O_ O_ 0.158745 0.651554 0.895771 -0.63271
O_ O_ 0.122125 0.58149 0.907309 -0.57982
F_ F_ 0.434629 0.838695 0.951531 -0.20885
F_ F_ 0.443965 0.81963 0.869186 -0.20885
F_ F_ 0.375113 0.794798 0.902944 -0.20885
F_ F_ 0.322238 0.921652 0.820242 -0.20885
F_ F_ 0.333248 0.835014 0.824646 -0.20885
F_ F_ 0.392675 0.876024 0.797132 -0.20885
F_ F_ 0.0691234 0.666405 0.5607 -0.20885
F_ F_ 0.0730676 0.684676 0.644523 -0.20885
F_ F_ 0.136662 0.695382 0.602549 -0.20885
F_ F_ 0.182094 0.55952 0.675122 -0.20885
F_ F_ 0.173804 0.645824 0.683019 -0.20885
F_ F_ 0.11169 0.604942 0.699463 -0.20885
Zn Zn 0.587389 0.0909985 0.342747 0.83971
Zn Zn 0.656691 0.342852 0.0756724 0.83971
Zn Zn 0.90416 0.425924 0.149934 0.83971
Zn Zn 0.834919 0.159392 0.412532 0.83971
H_ H_ 0.677789 0.131212 0.308321 0.10394
H_ H_ 0.756368 0.0908037 0.271793 0.10394
H_ H_ 0.708393 0.447381 0.284048 0.10394
H_ H_ 0.625312 0.984054 0.312487 0.10394
H_ H_ 0.017107 0.114795 0.258371 0.10394
H_ H_ 0.980406 0.186483 0.213742 0.10394
H_ H_ 0.535444 0.280042 0.33234 0.10394
H_ H_ 0.562695 0.200452 0.380359 0.10394
H_ H_ 0.528011 0.452122 0.36134 0.10394
H_ H_ 0.983706 0.382124 0.4004 0.10394
H_ H_ 0.848344 0.48988 0.400894 0.10394
H_ H_ 0.578991 0.297777 0.127789 0.10394
H_ H_ 1.00306739 0.269193 0.105106 0.10394
H_ H_ 0.526109 0.305516 0.456005 0.10394
H_ H_ 0.606779 0.334081 0.980774 0.10394
H_ H_ 0.699158 0.244964 0.0926934 0.10394
H_ H_ 0.752232 0.204742 0.167873 0.10394
H_ H_ 0.716489 0.337747 0.266273 0.10394
H_ H_ 0.683403 0.381687 0.184783 0.10394
H_ H_ 0.716539 0.355917 0.447519 0.10394
H_ H_ 0.766849 0.375101 0.379624 0.10394
H_ H_ 0.884342 0.414427 0.488838 0.10394
H_ H_ 0.792601 0.424849 0.136964 0.10394
H_ H_ 0.727619 0.460496 0.182795 0.10394
H_ H_ 0.832533 0.0331204 0.278838 0.10394
H_ H_ 0.906631 0.489029 0.238237 0.10394
H_ H_ 0.508462 0.400599 0.197235 0.10394
H_ H_ 0.557424 0.322411 0.240163 0.10394
H_ H_ 0.900609 0.276671 0.247317 0.10394
H_ H_ 0.86643 0.344441 0.19866 0.10394
H_ H_ 0.96091 0.0509766 0.11444 0.10394
H_ H_ 0.514309 0.117294 0.104382 0.10394
H_ H_ 0.64144 0.00401639 0.0795985 0.10394
H_ H_ 0.944854 0.15792 0.391752 0.10394
H_ H_ 0.514675 0.208708 0.439617 0.10394
H_ H_ 0.920528 0.295893 0.029067 0.10394
H_ H_ 0.844218 0.233278 0.493528 0.10394
H_ H_ 0.735205 0.196477 0.380253 0.10394
H_ H_ 0.688162 0.234045 0.308421 0.10394
H_ H_ 0.829142 0.216895 0.234968 0.10394
H_ H_ 0.874826 0.198865 0.319706 0.10394
H_ H_ 0.79012 0.079397 0.048167 0.10394
H_ H_ 0.737233 0.0724585 0.117765 0.10394
H_ H_ 0.60651 0.096062 0.007584 0.10394
C_ C_ 0.681263 0.0913166 0.299121 0.18167
C_ C_ 0.726866 0.0684151 0.282169 -0.15533
C_ C_ 0.732247 0.0161877 0.268485 0.02923
C_ C_ 0.699474 0.486828 0.283109 -0.15533
C_ C_ 0.648671 0.0112193 0.298174 0.18167
C_ C_ 0.532064 0.14816 0.266765 0.18167
C_ C_ 0.00490684 0.193383 0.251075 -0.15533
C_ C_ 0.51072 0.238989 0.262127 0.02923
C_ C_ 0.530327 0.243116 0.314847 -0.15533
C_ C_ 0.554907 0.199745 0.338524 0.18167
C_ C_ 0.508399 0.0541195 0.37185 0.69207
C_ C_ 0.968974 0.508627 0.378266 0.02923
C_ C_ 0.989979 0.456983 0.379059 -0.15533
C_ C_ 0.96144 0.417509 0.389492 -0.15533
C_ C_ 0.907424 0.428169 0.396146 0.02923
C_ C_ 0.887307 0.480412 0.39794 -0.15533
C_ C_ 0.9175 0.520326 0.387406 0.02923
C_ C_ 0.893121 0.0732854 0.376645 0.69207
C_ C_ 0.896314 0.330597 0.386053 0.69661
C_ C_ 0.570569 0.292521 0.0872496 0.18167
C_ C_ 0.522296 0.281523 0.0693515 -0.15533
C_ C_ 0.503361 0.283487 0.0183238 0.02923
C_ C_ 0.542078 0.298285 0.494458 -0.15533
C_ C_ 0.582709 0.318845 0.00457378 0.18167
C_ C_ 0.706429 0.265894 0.12972 0.18167
C_ C_ 0.730162 0.24114 0.171529 -0.15533
C_ C_ 0.729719 0.264364 0.222095 0.02923
C_ C_ 0.716526 0.317984 0.226988 -0.15533
C_ C_ 0.697468 0.342201 0.182098 0.18167
C_ C_ 0.735315 0.373599 0.03556 0.69207
C_ C_ 0.774209 0.373162 0.50778 0.02923
C_ C_ 0.752818 0.371001 0.456886 -0.15533
C_ C_ 0.785206 0.373509 0.41789 -0.15533
C_ C_ 0.832076 0.392462 0.428308 0.02923
C_ C_ 0.851413 0.396614 0.478572 -0.15533
C_ C_ 0.824357 0.385053 0.518907 0.02923
C_ C_ 0.849269 0.386679 0.0673874 0.69207
C_ C_ 0.842797 0.392623 0.330737 0.69661
C_ C_ 0.805032 0.445501 0.171232 0.18167
C_ C_ 0.765561 0.467236 0.198575 -0.15533
C_ C_ 0.7748 0.50049 0.242084 0.02923
C_ C_ 0.82611 -0.000293525 0.252781 -0.15533
C_ C_ 0.865193 0.488868 0.223981 0.18167
C_ C_ 0.986417 0.366765 0.205443 0.18167
C_ C_ 0.516559 0.325071 0.227986 -0.15533
C_ C_ 0.980488 0.289519 0.248741 0.02923
C_ C_ 0.927758 0.294843 0.230478 -0.15533
C_ C_ 0.907309 0.336413 0.204903 0.18167
C_ C_ 0.983942 0.459564 0.117096 0.69207
C_ C_ 0.523115 0.992551 0.121573 0.02923
C_ C_ 0.507013 0.0422895 0.128114 -0.15533
C_ C_ 0.536674 0.0788054 0.115725 -0.15533
C_ C_ 0.587603 0.0658769 0.10377 0.02923
C_ C_ 0.602807 0.0145849 0.0943236 -0.15533
C_ C_ 0.572349 0.978186 0.104152 0.02923
C_ C_ 0.591263 0.423668 0.101665 0.69207
C_ C_ 0.604593 0.161765 0.108741 0.69661
C_ C_ 0.937766 0.181905 0.42484 0.18167
C_ C_ 0.979002 0.20249 0.452999 -0.15533
C_ C_ 0.970985 0.236667 0.495495 0.02923
C_ C_ 0.925394 0.258444 0.00609875 -0.15533
C_ C_ 0.881623 0.226316 0.48175 0.18167
C_ C_ 0.754507 0.202884 0.349077 0.18167
C_ C_ 0.728318 0.223205 0.305383 -0.15533
C_ C_ 0.756353 0.233822 0.265343 0.02923
C_ C_ 0.808022 0.220747 0.268336 -0.15533
C_ C_ 0.83286 0.201449 0.313539 0.18167
C_ C_ 0.763217 0.127024 0.453501 0.69207
C_ C_ 0.726762 0.106456 0.991304 0.02923
C_ C_ 0.750063 0.0940768 0.0416205 -0.15533
C_ C_ 0.719669 0.0855357 0.080699 -0.15533
C_ C_ 0.666857 0.0943539 0.069417 0.02923
C_ C_ 0.646511 0.0943994 0.0172593 -0.15533
C_ C_ 0.67495 0.10268 0.979436 0.02923
C_ C_ 0.653132 0.11062 0.422109 0.69207
C_ C_ 0.653177 0.0959401 0.162821 0.69661
C_ C_ 0.870352 0.387035 0.385619 -0.30787
C_ C_ 0.627301 0.103917 0.109291 -0.30787
N_ N_ 0.643152 0.0626643 0.30986 -0.32189
N_ N_ 0.559156 0.155319 0.311799 -0.32189
N_ N_ 0.600686 0.31048 0.0541307 -0.32189
N_ N_ 0.692253 0.317048 0.135742 -0.32189
N_ N_ 0.853829 0.454853 0.185231 -0.32189
N_ N_ 0.936098 0.369962 0.189826 -0.32189
N_ N_ 0.888525 0.196089 0.437477 -0.32189
N_ N_ 0.804829 0.194619 0.354061 -0.32189
O_ O_ 0.00464996 0.0861167 0.394286 -0.63271
O_ O_ 0.546645 0.0394927 0.34492 -0.57982
O_ O_ 0.885482 0.0988516 0.335039 -0.63271
O_ O_ 0.872569 0.0942562 0.416573 -0.57982
O_ O_ 0.730618 0.408667 0.0748895 -0.63271
O_ O_ 0.706243 0.335766 0.0299154 -0.57982
O_ O_ 0.853078 0.345128 0.0934363 -0.63271
O_ O_ 0.87009 0.426515 0.08969 -0.57982
O_ O_ 0.490191 0.40581 0.10057 -0.63271
O_ O_ 0.947357 0.473397 0.145695 -0.57982
O_ O_ 0.594074 0.401025 0.144261 -0.63271
O_ O_ 0.625175 0.408721 0.0700956 -0.57982
O_ O_ 0.763803 0.102147 0.410062 -0.63271
O_ O_ 0.792689 0.165464 0.462263 -0.57982
O_ O_ 0.657255 0.150824 0.395347 -0.63271
O_ O_ 0.614738 0.0852716 0.408876 -0.57982
F_ F_ 0.92417 0.320614 0.429201 -0.20885
F_ F_ 0.928468 0.322164 0.346251 -0.20885
F_ F_ 0.86223 0.292488 0.38188 -0.20885
F_ F_ 0.806028 0.432426 0.326229 -0.20885
F_ F_ 0.822465 0.348482 0.309588 -0.20885
F_ F_ 0.877809 0.39606 0.296437 -0.20885
F_ F_ 0.574237 0.174557 0.064478 -0.20885
F_ F_ 0.578508 0.177704 0.151383 -0.20885
F_ F_ 0.641068 0.194689 0.110998 -0.20885
F_ F_ 0.678737 0.046035 0.168274 -0.20885
F_ F_ 0.683413 0.134025 0.1804 -0.20885
F_ F_ 0.616968 0.101859 0.198002 -0.20885
Zn Zn 0.585598 0.0846333 0.849099 0.83971
Zn Zn 0.662323 0.339208 0.585647 0.83971
Zn Zn 0.910441 0.41203 0.651066 0.83971
Zn Zn 0.843107 0.153082 0.922159 0.83971
H_ H_ 0.664322 0.129599 0.80141 0.10394
H_ H_ 0.74497 0.0943572 0.772527 0.10394
H_ H_ 0.7197 0.446574 0.78245 0.10394
H_ H_ 0.637452 0.984372 0.837956 0.10394
H_ H_ 0.0214973 0.0879246 0.756342 0.10394
H_ H_ 0.987735 0.15818 0.697637 0.10394
H_ H_ 0.533541 0.264317 0.823614 0.10394
H_ H_ 0.577539 0.193408 0.872419 0.10394
H_ H_ 0.531744 0.437006 0.869729 0.10394
H_ H_ 0.99399 0.382511 0.899971 0.10394
H_ H_ 0.860378 0.491346 0.905137 0.10394
H_ H_ 0.590441 0.291673 0.6363 0.10394
H_ H_ 0.0106462 0.250902 0.597745 0.10394
H_ H_ 0.526822 0.299995 0.943638 0.10394
H_ H_ 0.610173 0.333566 0.492148 0.10394
H_ H_ 0.704432 0.237413 0.608392 0.10394
H_ H_ 0.743283 0.194276 0.685706 0.10394
H_ H_ 0.737123 0.342853 0.764707 0.10394
H_ H_ 0.698151 0.381474 0.685186 0.10394
H_ H_ 0.724122 0.352071 0.930451 0.10394
H_ H_ 0.779214 0.377647 0.871067 0.10394
H_ H_ 0.899368 0.394935 0.987811 0.10394
H_ H_ 0.810659 0.394188 0.664472 0.10394
H_ H_ 0.736533 0.445868 0.688713 0.10394
H_ H_ 0.82734 0.0484513 0.780127 0.10394
H_ H_ 0.908569 0.498391 0.725203 0.10394
H_ H_ 0.515607 0.370857 0.682571 0.10394
H_ H_ 0.551457 0.300784 0.733299 0.10394
H_ H_ 0.912315 0.24325 0.71954 0.10394
H_ H_ 0.874021 0.324681 0.691245 0.10394
H_ H_ 0.970044 0.0573259 0.638304 0.10394
H_ H_ 0.512328 0.110413 0.58357 0.10394
H_ H_ 0.644888 0.00034000000000000696 0.58346 0.10394
H_ H_ 0.94283 0.115357 0.962371 0.10394
H_ H_ 0.502977 0.216813 0.936205 0.10394
H_ H_ 0.913873 0.270161 0.54491 0.10394
H_ H_ 0.846571 0.25602 -0.02178100000000005 0.10394
H_ H_ 0.738462 0.191151 0.885377 0.10394
H_ H_ 0.696434 0.241697 0.812281 0.10394
H_ H_ 0.841553 0.237883 0.756623 0.10394
H_ H_ 0.882716 0.188019 0.831053 0.10394
H_ H_ 0.786821 0.111925 0.5552 0.10394
H_ H_ 0.726427 0.11165 0.618097 0.10394
H_ H_ 0.603444 0.0981208 0.499562 0.10394
C_ C_ 0.672803 0.0893577 0.798803 0.18167
C_ C_ 0.719571 0.0689723 0.782357 -0.15533
C_ C_ 0.731474 0.0185006 0.77333 0.02923
C_ C_ 0.711005 0.485994 0.789649 -0.15533
C_ C_ 0.657545 0.00566906 0.818042 0.18167
C_ C_ 0.527448 0.127316 0.766078 0.18167
C_ C_ 0.000929075 0.1653 0.738866 -0.15533
C_ C_ 0.505115 0.217644 0.757568 0.02923
C_ C_ 0.531187 0.226703 0.807621 -0.15533
C_ C_ 0.559237 0.186701 0.832358 0.18167
C_ C_ 0.501727 0.0509639 0.861768 0.69207
C_ C_ 0.981452 0.510455 0.877957 0.02923
C_ C_ 1.0025741 0.458948 0.881658 -0.15533
C_ C_ 0.972565 0.419866 0.889957 -0.15533
C_ C_ 0.921112 0.429335 0.895654 0.02923
C_ C_ 0.900369 0.481307 0.896317 -0.15533
C_ C_ 0.928531 0.522414 0.889045 0.02923
C_ C_ 0.889404 0.0697017 0.876867 0.69207
C_ C_ 0.912395 0.331855 0.89094 0.69661
C_ C_ 0.574331 0.29501 0.59811 0.18167
C_ C_ 0.530497 0.272988 0.580719 -0.15533
C_ C_ 0.512371 0.276393 0.528781 0.02923
C_ C_ 0.537125 0.299091 0.986133 -0.15533
C_ C_ 0.588453 0.313951 0.513718 0.18167
C_ C_ 0.708226 0.257985 0.645239 0.18167
C_ C_ 0.729128 0.23605 0.688335 -0.15533
C_ C_ 0.739396 0.265653 0.732193 0.02923
C_ C_ 0.725344 0.319666 0.732468 -0.15533
C_ C_ 0.708682 0.341409 0.685236 0.18167
C_ C_ 0.73893 0.364184 0.547731 0.69207
C_ C_ 0.774941 0.377026 0.998243 0.02923
C_ C_ 0.761897 0.367559 0.946045 -0.15533
C_ C_ 0.792055 0.378993 0.910372 -0.15533
C_ C_ 0.844692 0.38854 0.924456 0.02923
C_ C_ 0.858068 0.397317 0.977401 -0.15533
C_ C_ 0.825348 0.386915 0.0143978 0.02923
C_ C_ 0.852026 0.385103 0.571211 0.69207
C_ C_ 0.864307 0.386655 0.825942 0.69661
C_ C_ 0.814999 0.429931 0.682826 0.18167
C_ C_ 0.773843 0.456219 0.705611 -0.15533
C_ C_ 0.781022 0.499743 0.738431 0.02923
C_ C_ 0.82082 0.0177392 0.750936 -0.15533
C_ C_ 0.871442 0.486431 0.722638 0.18167
C_ C_ 0.99624 0.344054 0.70224 0.18167
C_ C_ 0.512433 0.298543 0.715821 -0.15533
C_ C_ 0.986649 0.262923 0.730274 0.02923
C_ C_ 0.935309 0.270213 0.715097 -0.15533
C_ C_ 0.914881 0.315585 0.694901 0.18167
C_ C_ 0.984827 0.453952 0.621906 0.69207
C_ C_ 0.520187 0.985443 0.606583 0.02923
C_ C_ 0.499501 0.0337962 0.591823 -0.15533
C_ C_ 0.5297 0.0724323 0.584767 -0.15533
C_ C_ 0.583083 0.0626301 0.590524 0.02923
C_ C_ 0.603866 0.00992959 0.586153 -0.15533
C_ C_ 0.573908 0.972405 0.600151 0.02923
C_ C_ 0.600923 0.419154 0.612843 0.69207
C_ C_ 0.593566 0.159132 0.605791 0.69661
C_ C_ 0.939003 0.157736 0.972003 0.18167
C_ C_ 0.980709 0.184822 0.99018 -0.15533
C_ C_ 0.975504 0.234831 0.00686882 0.02923
C_ C_ 0.920823 0.250297 0.508409 -0.15533
C_ C_ 0.884833 0.233636 0.986289 0.18167
C_ C_ 0.760599 0.19719 0.85649 0.18167
C_ C_ 0.736747 0.228755 0.818497 -0.15533
C_ C_ 0.765515 0.239642 0.778765 0.02923
C_ C_ 0.81906 0.226901 0.784963 -0.15533
C_ C_ 0.842785 0.202697 0.829059 0.18167
C_ C_ 0.761582 0.117477 0.954294 0.69207
C_ C_ 0.726744 0.118711 0.490601 0.02923
C_ C_ 0.74536 0.114008 0.541867 -0.15533
C_ C_ 0.711809 0.108851 0.579938 -0.15533
C_ C_ 0.659951 0.102453 0.565844 0.02923
C_ C_ 0.642958 0.103313 0.513511 -0.15533
C_ C_ 0.67584 0.110858 0.475574 0.02923
C_ C_ 0.6463 0.107759 0.92712 0.69207
C_ C_ 0.641492 0.0953402 0.661225 0.69661
C_ C_ 0.883947 0.386774 0.884817 -0.30787
C_ C_ 0.620335 0.104456 0.604899 -0.30787
N_ N_ 0.642137 0.0572975 0.817407 -0.32189
N_ N_ 0.554339 0.138337 0.812541 -0.32189
N_ N_ 0.606251 0.305109 0.562613 -0.32189
N_ N_ 0.694305 0.309963 0.645137 -0.32189
N_ N_ 0.86257 0.442973 0.692978 -0.32189
N_ N_ 0.94542 0.350633 0.682199 -0.32189
N_ N_ 0.894294 0.186138 0.963947 -0.32189
N_ N_ 0.813661 0.189635 0.864743 -0.32189
O_ O_ -0.004368999999999956 0.084505 0.883982 -0.63271
O_ O_ 0.543539 0.0367411 0.835578 -0.57982
O_ O_ 0.893825 0.0965978 0.83883 -0.63271
O_ O_ 0.865571 0.0882302 0.916171 -0.57982
O_ O_ 0.74087 0.389345 0.59239 -0.63271
O_ O_ 0.703779 0.330998 0.53862 -0.57982
O_ O_ 0.858803 0.34431 0.596297 -0.63271
O_ O_ 0.870919 0.426503 0.592321 -0.57982
O_ O_ 0.487545 0.405324 0.587083 -0.63271
O_ O_ 0.95376 0.45834 0.657939 -0.57982
O_ O_ 0.596107 0.389244 0.648118 -0.63271
O_ O_ 0.638318 0.404219 0.585259 -0.57982
O_ O_ 0.761536 0.0923525 0.910061 -0.63271
O_ O_ 0.791462 0.154627 0.964204 -0.57982
O_ O_ 0.654118 0.145471 0.900279 -0.63271
O_ O_ 0.604724 0.0845342 0.913754 -0.57982
F_ F_ 0.943969 0.328823 0.934992 -0.20885
F_ F_ 0.943266 0.316085 0.852698 -0.20885
F_ F_ 0.879607 0.295203 0.8862 -0.20885
F_ F_ 0.827545 0.426977 0.820723 -0.20885
F_ F_ 0.845409 0.344132 0.799894 -0.20885
F_ F_ 0.900742 0.399448 0.797266 -0.20885
F_ F_ 0.569086 0.170023 0.556331 -0.20885
F_ F_ 0.556956 0.168774 0.638916 -0.20885
F_ F_ 0.6265 0.197197 0.618308 -0.20885
F_ F_ 0.67611 0.0518296 0.66657 -0.20885
F_ F_ 0.663938 0.136684 0.683989 -0.20885
F_ F_ 0.60154 0.0838494 0.687906 -0.20885
Zn Zn 0.591459 0.585902 0.351846 0.83971
Zn Zn 0.657968 0.84483 0.0867452 0.83971
Zn Zn 0.905589 0.912839 0.14731 0.83971
Zn Zn 0.843566 0.659823 0.421163 0.83971
H_ H_ 0.675683 0.630876 0.322121 0.10394
H_ H_ 0.751287 0.594938 0.281181 0.10394
H_ H_ 0.706922 0.944697 0.290143 0.10394
H_ H_ 0.634985 0.480056 0.322336 0.10394
H_ H_ 0.041135 0.594752 0.261543 0.10394
H_ H_ 0.99868 0.665882 0.203608 0.10394
H_ H_ 0.521659 0.768501 0.339133 0.10394
H_ H_ 0.565137 0.696899 0.379814 0.10394
H_ H_ 0.53204 0.950826 0.375765 0.10394
H_ H_ 0.978945 0.878938 0.366455 0.10394
H_ H_ 0.851434 0.985961 0.388464 0.10394
H_ H_ 0.579215 0.802924 0.134144 0.10394
H_ H_ 1.00318819 0.762709 0.0977971 0.10394
H_ H_ 0.536506 0.801945 0.451015 0.10394
H_ H_ 0.617755 0.8323 0.9893 0.10394
H_ H_ 0.718133 0.751311 0.103738 0.10394
H_ H_ 0.76961 0.706882 0.175464 0.10394
H_ H_ 0.725959 0.842578 0.271874 0.10394
H_ H_ 0.68018 0.880488 0.199393 0.10394
H_ H_ 0.719972 0.876707 0.448384 0.10394
H_ H_ 0.768656 0.894982 0.378418 0.10394
H_ H_ 0.905354 0.897013 0.487791 0.10394
H_ H_ 0.800069 0.893522 0.151978 0.10394
H_ H_ 0.726852 0.949262 0.18596 0.10394
H_ H_ 0.839679 0.533323 0.289 0.10394
H_ H_ 0.900324 0.990841 0.227351 0.10394
H_ H_ 0.502558 0.895736 0.215133 0.10394
H_ H_ 0.5528 0.821153 0.249581 0.10394
H_ H_ 0.917413 0.731859 0.206542 0.10394
H_ H_ 0.870816 0.811025 0.169024 0.10394
H_ H_ 0.959644 0.55632 0.110627 0.10394
H_ H_ 0.521639 0.618271 0.109099 0.10394
H_ H_ 0.639816 0.501137 0.0850392 0.10394
H_ H_ 0.943869 0.66389 0.396396 0.10394
H_ H_ 0.512721 0.709837 0.445207 0.10394
H_ H_ 0.918559 0.78092 0.0491139 0.10394
H_ H_ 0.853668 0.727766 0.511691 0.10394
H_ H_ 0.741483 0.699272 0.386329 0.10394
H_ H_ 0.701376 0.745205 0.312266 0.10394
H_ H_ 0.851979 0.749565 0.265001 0.10394
H_ H_ 0.887697 0.697852 0.334191 0.10394
H_ H_ 0.78633 0.605968 0.0472462 0.10394
H_ H_ 0.733877 0.593338 0.113107 0.10394
H_ H_ 0.604001 0.594382 0.00166517 0.10394
C_ C_ 0.682949 0.590232 0.311535 0.18167
C_ C_ 0.728156 0.569327 0.292349 -0.15533
C_ C_ 0.73395 0.51871 0.275341 0.02923
C_ C_ 0.695534 0.987201 0.283867 -0.15533
C_ C_ 0.656307 0.506055 0.30771 0.18167
C_ C_ 0.5415 0.637039 0.265411 0.18167
C_ C_ 0.0180565 0.674144 0.239237 -0.15533
C_ C_ 0.517037 0.728686 0.262317 0.02923
C_ C_ 0.527712 0.733145 0.316439 -0.15533
C_ C_ 0.557103 0.691656 0.338559 0.18167
C_ C_ 0.504805 0.554253 0.371169 0.69207
C_ C_ 0.968077 0.00947587 0.362595 0.02923
C_ C_ -0.013521000000000005 0.959018 0.353263 -0.15533
C_ C_ 0.960123 0.917428 0.366064 -0.15533
C_ C_ 0.910187 0.92608 0.378812 0.02923
C_ C_ 0.891164 0.97922 0.383262 -0.15533
C_ C_ 0.918296 0.0209444 0.377759 0.02923
C_ C_ 0.895345 0.574673 0.385757 0.69207
C_ C_ 0.907549 0.828596 0.387222 0.69661
C_ C_ 0.570791 0.799954 0.0944382 0.18167
C_ C_ 0.526863 0.778117 0.0738804 -0.15533
C_ C_ 0.517035 0.770675 0.0206098 0.02923
C_ C_ 0.548544 0.792659 0.488994 -0.15533
C_ C_ 0.590447 0.817723 0.0113531 0.18167
C_ C_ 0.716731 0.767961 0.141261 0.18167
C_ C_ 0.746525 0.743167 0.18231 -0.15533
C_ C_ 0.749774 0.770436 0.229612 0.02923
C_ C_ 0.727424 0.820436 0.235566 -0.15533
C_ C_ 0.698025 0.84162 0.194361 0.18167
C_ C_ 0.732513 0.873155 0.0418367 0.69207
C_ C_ 0.783888 0.869125 0.504621 0.02923
C_ C_ 0.759957 0.879377 0.454505 -0.15533
C_ C_ 0.788581 0.887741 0.415586 -0.15533
C_ C_ 0.841921 0.888677 0.424193 0.02923
C_ C_ 0.865301 0.888642 0.477702 -0.15533
C_ C_ 0.835518 0.880448 0.516994 0.02923
C_ C_ 0.850079 0.879794 0.0630335 0.69207
C_ C_ 0.845529 0.879131 0.32442 0.69661
C_ C_ 0.807614 0.927705 0.176897 0.18167
C_ C_ 0.767297 0.951306 0.203387 -0.15533
C_ C_ 0.775868 0.989838 0.240407 0.02923
C_ C_ 0.826249 0.514478 0.254154 -0.15533
C_ C_ 0.863847 0.977159 0.224908 0.18167
C_ C_ 0.986033 0.850592 0.195711 0.18167
C_ C_ 0.513452 0.817794 0.2338 -0.15533
C_ C_ 0.987554 0.766375 0.225419 0.02923
C_ C_ 0.935722 0.765824 0.20676 -0.15533
C_ C_ 0.912124 0.808524 0.180213 0.18167
C_ C_ 0.988013 0.948638 0.121585 0.69207
C_ C_ 0.518705 0.490914 0.107042 0.02923
C_ C_ 0.500138 0.544405 0.108101 -0.15533
C_ C_ 0.533518 0.58022 0.0991158 -0.15533
C_ C_ 0.584337 0.565814 0.0956965 0.02923
C_ C_ 0.600165 0.514048 0.0916487 -0.15533
C_ C_ 0.568626 0.475627 0.0972614 0.02923
C_ C_ 0.599189 0.926863 0.109238 0.69207
C_ C_ 0.607247 0.660755 0.101959 0.69661
C_ C_ 0.941478 0.689386 0.430101 0.18167
C_ C_ 0.984907 0.706072 0.459518 -0.15533
C_ C_ 0.977176 0.742808 0.502319 0.02923
C_ C_ 0.923857 0.756061 1.0163389 -0.15533
C_ C_ 0.889432 0.723928 0.494911 0.18167
C_ C_ 0.765323 0.709532 0.358435 0.18167
C_ C_ 0.741732 0.733153 0.313887 -0.15533
C_ C_ 0.772318 0.744598 0.275965 0.02923
C_ C_ 0.824424 0.735696 0.286821 -0.15533
C_ C_ 0.844563 0.706178 0.325582 0.18167
C_ C_ 0.763509 0.631625 0.456409 0.69207
C_ C_ 0.728378 0.609331 0.984027 0.02923
C_ C_ 0.748156 0.601788 0.0345128 -0.15533
C_ C_ 0.717202 0.594716 0.0750675 -0.15533
C_ C_ 0.66311 0.593867 0.0620071 0.02923
C_ C_ 0.6445 0.591872 0.0114169 -0.15533
C_ C_ 0.676703 0.601901 0.971917 0.02923
C_ C_ 0.651903 0.612158 0.428209 0.69207
C_ C_ 0.655044 0.596537 0.159181 0.69661
C_ C_ 0.874539 0.881744 0.379025 -0.30787
C_ C_ 0.62674 0.603206 0.104005 -0.30787
N_ N_ 0.64734 0.557678 0.318754 -0.32189
N_ N_ 0.560635 0.645291 0.314534 -0.32189
N_ N_ 0.601502 0.818323 0.0617729 -0.32189
N_ N_ 0.691318 0.814291 0.147924 -0.32189
N_ N_ 0.856516 0.936447 0.191712 -0.32189
N_ N_ 0.937929 0.849378 0.175044 -0.32189
N_ N_ 0.895743 0.697601 0.450016 -0.32189
N_ N_ 0.815301 0.692214 0.360711 -0.32189
O_ O_ 0.00628367 0.590391 0.40197 -0.63271
O_ O_ 0.546046 0.541475 0.350394 -0.57982
O_ O_ 0.895966 0.598751 0.34181 -0.63271
O_ O_ 0.878541 0.597824 0.427018 -0.57982
O_ O_ 0.734683 0.90663 0.0829877 -0.63271
O_ O_ 0.700406 0.838142 0.0379261 -0.57982
O_ O_ 0.839685 0.845126 0.0897593 -0.63271
O_ O_ 0.878867 0.915755 0.0818477 -0.57982
O_ O_ 0.488669 0.909558 0.104834 -0.63271
O_ O_ 0.950359 0.960091 0.149257 -0.57982
O_ O_ 0.598441 0.90233 0.151603 -0.63271
O_ O_ 0.635013 0.910983 0.0811257 -0.57982
O_ O_ 0.760604 0.606882 0.410719 -0.63271
O_ O_ 0.798853 0.662741 0.466689 -0.57982
O_ O_ 0.649036 0.655446 0.405914 -0.63271
O_ O_ 0.61506 0.584103 0.417438 -0.57982
F_ F_ 0.952313 0.830598 0.42259 -0.20885
F_ F_ 0.924234 0.803948 0.341943 -0.20885
F_ F_ 0.877965 0.794747 0.40592 -0.20885
F_ F_ 0.811421 0.919552 0.313365 -0.20885
F_ F_ 0.814202 0.840412 0.321143 -0.20885
F_ F_ 0.872166 0.872005 0.284153 -0.20885
F_ F_ 0.57222 0.670598 0.0596983 -0.20885
F_ F_ 0.582306 0.678068 0.143919 -0.20885
F_ F_ 0.643783 0.692532 0.10009 -0.20885
F_ F_ 0.684161 0.551747 0.161782 -0.20885
F_ F_ 0.688236 0.634321 0.177448 -0.20885
F_ F_ 0.619547 0.59801 0.193331 -0.20885
Zn Zn 0.590808 0.577754 0.840688 0.83971
Zn Zn 0.667841 0.83804 0.58634 0.83971
Zn Zn 0.907154 0.915806 0.663287 0.83971
Zn Zn 0.842956 0.654906 0.918652 0.83971
H_ H_ 0.668138 0.628055 0.799642 0.10394
H_ H_ 0.749282 0.600353 0.765496 0.10394
H_ H_ 0.709802 0.945001 0.792242 0.10394
H_ H_ 0.639421 0.476662 0.820216 0.10394
H_ H_ 0.040183 0.606846 0.753279 0.10394
H_ H_ 0.990203 0.679599 0.712532 0.10394
H_ H_ 0.523292 0.757119 0.831288 0.10394
H_ H_ 0.562312 0.68098 0.874242 0.10394
H_ H_ 0.531271 0.955155 0.877671 0.10394
H_ H_ 0.974487 0.872789 0.877968 0.10394
H_ H_ 0.845441 0.984993 0.89382 0.10394
H_ H_ 0.587499 0.798068 0.635237 0.10394
H_ H_ 0.00528318 0.762595 0.599315 0.10394
H_ H_ 0.538166 0.793765 0.949291 0.10394
H_ H_ 0.614393 0.82874 0.488859 0.10394
H_ H_ 0.720424 0.738234 0.607153 0.10394
H_ H_ 0.754498 0.698175 0.690956 0.10394
H_ H_ 0.731859 0.849285 0.766273 0.10394
H_ H_ 0.6914 0.879455 0.683524 0.10394
H_ H_ 0.710559 0.86087 0.942581 0.10394
H_ H_ 0.757172 0.887969 0.873971 0.10394
H_ H_ 0.88223 0.912989 0.978772 0.10394
H_ H_ 0.802977 0.893131 0.669032 0.10394
H_ H_ 0.7282 0.952309 0.691145 0.10394
H_ H_ 0.840398 0.55223 0.764346 0.10394
H_ H_ 0.900373 1.00236895 0.737964 0.10394
H_ H_ 0.512731 0.88059 0.700473 0.10394
H_ H_ 0.550427 0.804435 0.743951 0.10394
H_ H_ 0.921736 0.741531 0.721299 0.10394
H_ H_ 0.873622 0.823835 0.697782 0.10394
H_ H_ 0.962776 0.555991 0.634998 0.10394
H_ H_ 0.517118 0.611848 0.610781 0.10394
H_ H_ 0.647736 0.503739 0.602178 0.10394
H_ H_ 0.946965 0.656738 0.90684 0.10394
H_ H_ 0.522932 0.692848 0.950629 0.10394
H_ H_ 0.923393 0.770019 0.556582 0.10394
H_ H_ 0.843091 0.742042 0.999216968 0.10394
H_ H_ 0.739698 0.695407 0.890199 0.10394
H_ H_ 0.696448 0.739179 0.81819 0.10394
H_ H_ 0.839696 0.739682 0.755774 0.10394
H_ H_ 0.881705 0.695181 0.831254 0.10394
H_ H_ 0.790093 0.624373 0.557551 0.10394
H_ H_ 0.733466 0.612639 0.622499 0.10394
H_ H_ 0.609336 0.58404 0.506235 0.10394
C_ C_ 0.680266 0.589312 0.796988 0.18167
C_ C_ 0.726048 0.571713 0.777122 -0.15533
C_ C_ 0.742576 0.51843 0.772434 0.02923
C_ C_ 0.701669 0.986893 0.79573 -0.15533
C_ C_ 0.667035 0.503966 0.810108 0.18167
C_ C_ 0.527785 0.626987 0.758916 0.18167
C_ C_ 0.0159239 0.68524 0.746824 -0.15533
C_ C_ 0.508611 0.719385 0.756252 0.02923
C_ C_ 0.526846 0.722111 0.80792 -0.15533
C_ C_ 0.545889 0.679377 0.833958 0.18167
C_ C_ 0.509419 0.540519 0.859661 0.69207
C_ C_ 0.967525 -0.00019599999999997397 0.869308 0.02923
C_ C_ -0.013904000000000027 0.947802 0.862706 -0.15533
C_ C_ 0.955012 0.91029 0.869028 -0.15533
C_ C_ 0.903235 0.923552 0.877766 0.02923
C_ C_ 0.884896 0.976846 0.883795 -0.15533
C_ C_ 0.91729 0.014965 0.878412 0.02923
C_ C_ 0.902239 0.574429 0.887282 0.69207
C_ C_ 0.89407 0.826678 0.892374 0.69661
C_ C_ 0.575364 0.795982 0.595025 0.18167
C_ C_ 0.527291 0.780861 0.576048 -0.15533
C_ C_ 0.512974 0.780738 0.522542 0.02923
C_ C_ 0.550927 0.789194 0.989239 -0.15533
C_ C_ 0.593655 0.809383 0.511693 0.18167
C_ C_ 0.722823 0.760391 0.645036 0.18167
C_ C_ 0.742512 0.739388 0.689846 -0.15533
C_ C_ 0.742939 0.771345 0.735762 0.02923
C_ C_ 0.728012 0.823729 0.732728 -0.15533
C_ C_ 0.70082 0.840625 0.68869 0.18167
C_ C_ 0.749216 0.866757 0.542923 0.69207
C_ C_ 0.769565 0.875713 1.000993628 0.02923
C_ C_ 0.747874 0.87279 0.949027 -0.15533
C_ C_ 0.776209 0.883779 0.911404 -0.15533
C_ C_ 0.827278 0.89246 0.921717 0.02923
C_ C_ 0.845351 0.90271 0.97315 -0.15533
C_ C_ 0.821078 0.88746 0.0125156 0.02923
C_ C_ 0.862364 0.879733 0.572101 0.69207
C_ C_ 0.840175 0.87384 0.825725 0.69661
C_ C_ 0.808623 0.928186 0.693596 0.18167
C_ C_ 0.767229 0.957373 0.706282 -0.15533
C_ C_ 0.772516 -0.001747000000000054 0.742831 0.02923
C_ C_ 0.829939 0.516672 0.745929 -0.15533
C_ C_ 0.863243 0.986101 0.735787 0.18167
C_ C_ 0.989716 0.861291 0.713808 0.18167
C_ C_ 0.513131 0.803629 0.722969 -0.15533
C_ C_ 0.988854 0.777474 0.745427 0.02923
C_ C_ 0.93839 0.776902 0.725096 -0.15533
C_ C_ 0.913332 0.820764 0.701508 0.18167
C_ C_ 0.982501 0.957528 0.627982 0.69207
C_ C_ 0.522948 0.485064 0.615247 0.02923
C_ C_ 0.502989 0.535415 0.611832 -0.15533
C_ C_ 0.534614 0.574506 0.609471 -0.15533
C_ C_ 0.587053 0.563881 0.603721 0.02923
C_ C_ 0.605746 0.513231 0.603029 -0.15533
C_ C_ 0.575409 0.473775 0.610976 0.02923
C_ C_ 0.60069 0.92014 0.606053 0.69207
C_ C_ 0.601239 0.661273 0.60727 0.69661
C_ C_ 0.939289 0.68398 0.938549 0.18167
C_ C_ 0.981204 0.703952 0.963818 -0.15533
C_ C_ 0.973424 0.739784 1.00330434 0.02923
C_ C_ 0.9305 0.747376 0.521854 -0.15533
C_ C_ 0.882719 0.731889 0.990605 0.18167
C_ C_ 0.762299 0.705175 0.861523 0.18167
C_ C_ 0.738386 0.728573 0.817913 -0.15533
C_ C_ 0.768666 0.74674 0.781208 0.02923
C_ C_ 0.818683 0.729039 0.784807 -0.15533
C_ C_ 0.840521 0.706297 0.829088 0.18167
C_ C_ 0.765086 0.623125 0.949793 0.69207
C_ C_ 0.728404 0.62348 0.494751 0.02923
C_ C_ 0.748424 0.619744 0.54576 -0.15533
C_ C_ 0.71734 0.610414 0.583387 -0.15533
C_ C_ 0.665096 0.6033 0.571333 0.02923
C_ C_ 0.649454 0.594852 0.518296 -0.15533
C_ C_ 0.677217 0.609697 0.479928 0.02923
C_ C_ 0.651363 0.609465 0.919605 0.69207
C_ C_ 0.649165 0.602176 0.666399 0.69661
C_ C_ 0.866437 0.880113 0.880243 -0.30787
C_ C_ 0.624874 0.60615 0.610998 -0.30787
N_ N_ 0.652028 0.555697 0.81489 -0.32189
N_ N_ 0.554495 0.634894 0.80596 -0.32189
N_ N_ 0.608695 0.807362 0.562007 -0.32189
N_ N_ 0.699597 0.808782 0.645954 -0.32189
N_ N_ 0.855987 0.943678 0.706097 -0.32189
N_ N_ 0.939557 0.861141 0.695589 -0.32189
N_ N_ 0.891148 0.700068 0.948002 -0.32189
N_ N_ 0.81207 0.689517 0.863689 -0.32189
O_ O_ 1.0151393 0.592815 0.897956 -0.63271
O_ O_ 0.549562 0.525678 0.834033 -0.57982
O_ O_ 0.894884 0.597402 0.842603 -0.63271
O_ O_ 0.875776 0.593764 0.923196 -0.57982
O_ O_ 0.756174 0.888171 0.590739 -0.63271
O_ O_ 0.713605 0.835715 0.536524 -0.57982
O_ O_ 0.860433 0.840479 0.599962 -0.63271
O_ O_ 0.874209 0.923513 0.597637 -0.57982
O_ O_ 0.494413 0.899236 0.601979 -0.63271
O_ O_ 0.95471 0.961733 0.667323 -0.57982
O_ O_ 0.597564 0.896279 0.648344 -0.63271
O_ O_ 0.632448 0.900152 0.575029 -0.57982
O_ O_ 0.766535 0.600858 0.904405 -0.63271
O_ O_ 0.798859 0.655635 0.963214 -0.57982
O_ O_ 0.660349 0.649256 0.894488 -0.63271
O_ O_ 0.604723 0.594388 0.907771 -0.57982
F_ F_ 0.926956 0.824967 0.935026 -0.20885
F_ F_ 0.917162 0.803505 0.849709 -0.20885
F_ F_ 0.860183 0.793175 0.89998 -0.20885
F_ F_ 0.808206 0.916301 0.813199 -0.20885
F_ F_ 0.816323 0.828688 0.81816 -0.20885
F_ F_ 0.872341 0.873118 0.787419 -0.20885
F_ F_ 0.575808 0.668626 0.560085 -0.20885
F_ F_ 0.56964 0.67837 0.645386 -0.20885
F_ F_ 0.63554 0.699454 0.611801 -0.20885
F_ F_ 0.683385 0.561713 0.678471 -0.20885
F_ F_ 0.675433 0.64333 0.687143 -0.20885
F_ F_ 0.610665 0.600289 0.696204 -0.20885
