_cell_length_a 26.508
_cell_length_b 26.37200000322088
_cell_length_c 26.311999743092066
_cell_angle_alpha 93.74100058972084
_cell_angle_beta 96.04100104955006
_cell_angle_gamma 83.6869992558723
_symmetry_space_group_name_H-M         'P 1'
_symmetry_Int_Tables_number            1
loop_
_symmetry_equiv_pos_as_xyz
   'x, y, z'
                         
loop_
_atom_site_label
_atom_site_type_symbol
_atom_site_fract_x 
_atom_site_fract_y
_atom_site_fract_z
_atom_site_charge
Zn Zn 0.0926828 0.0878519 0.345972 0.83971
Zn Zn 0.165242 0.341201 0.0848153 0.83971
Zn Zn 0.409907 0.412933 0.156755 0.83971
Zn Zn 0.345818 0.16107 0.418333 0.83971
H_ H_ 0.158779 0.132362 0.293222 0.10394
H_ H_ 0.248995 0.105247 0.27028 0.10394
H_ H_ 0.21933 0.454966 0.310268 0.10394
H_ H_ 0.138075 0.984591 0.323389 0.10394
H_ H_ 0.527948 0.0950037 0.256576 0.10394
H_ H_ 0.495588 0.169588 0.207383 0.10394
H_ H_ 0.0305685 0.269737 0.344951 0.10394
H_ H_ 0.0720309 0.193902 0.383143 0.10394
H_ H_ 0.0298788 0.444795 0.368158 0.10394
H_ H_ 0.479011 0.377133 0.37399 0.10394
H_ H_ 0.361755 0.490942 0.42581 0.10394
H_ H_ 0.0853051 0.307774 0.137732 0.10394
H_ H_ 0.512981 0.245876 0.104899 0.10394
H_ H_ 0.0443909 0.283126 0.447154 0.10394
H_ H_ 0.134488 0.279162 0.990917 0.10394
H_ H_ 0.224334 0.255692 0.100191 0.10394
H_ H_ 0.253086 0.204166 0.173326 0.10394
H_ H_ 0.217761 0.336631 0.269746 0.10394
H_ H_ 0.183063 0.382933 0.196074 0.10394
H_ H_ 0.222504 0.348939 0.446149 0.10394
H_ H_ 0.269799 0.371362 0.380399 0.10394
H_ H_ 0.39507 0.403203 0.492579 0.10394
H_ H_ 0.306115 0.401368 0.161117 0.10394
H_ H_ 0.231309 0.452696 0.192607 0.10394
H_ H_ 0.333791 0.0617922 0.274332 0.10394
H_ H_ 0.403621 0.507651 0.233951 0.10394
H_ H_ 0.00906771 0.389511 0.206183 0.10394
H_ H_ 0.0490934 0.32109 0.262331 0.10394
H_ H_ 0.413846 0.246087 0.231367 0.10394
H_ H_ 0.371162 0.327157 0.20171 0.10394
H_ H_ 0.467526 0.0596655 0.130778 0.10394
H_ H_ 0.0223592 0.123345 0.101806 0.10394
H_ H_ 0.151128 0.0114585 0.0908601 0.10394
H_ H_ 0.44516 0.162581 0.402963 0.10394
H_ H_ 0.0162437 0.180867 0.45909 0.10394
H_ H_ 0.418443 0.274005 0.0496419 0.10394
H_ H_ 0.347638 0.238512 0.505567 0.10394
H_ H_ 0.244416 0.210306 0.39636 0.10394
H_ H_ 0.199472 0.255461 0.321064 0.10394
H_ H_ 0.332015 0.211412 0.239018 0.10394
H_ H_ 0.381445 0.19541 0.328924 0.10394
H_ H_ 0.281062 0.130339 0.0496426 0.10394
H_ H_ 0.23335 0.11624 0.11568 0.10394
H_ H_ 0.102824 0.0969408 0.00460592 0.10394
C_ C_ 0.177267 0.0937718 0.299849 0.18167
C_ C_ 0.223861 0.0787351 0.280844 -0.15533
C_ C_ 0.240539 0.0263978 0.277319 0.02923
C_ C_ 0.201421 0.487944 0.293977 -0.15533
C_ C_ 0.162611 0.0109309 0.313648 0.18167
C_ C_ 0.0383946 0.140989 0.26891 0.18167
C_ C_ 0.510427 0.174712 0.248215 -0.15533
C_ C_ 0.0066201 0.233482 0.274177 0.02923
C_ C_ 0.0265976 0.234917 0.324245 -0.15533
C_ C_ 0.049854 0.190958 0.346636 0.18167
C_ C_ 0.00570895 0.0449321 0.362572 0.69207
C_ C_ 0.472579 0.504619 0.372405 0.02923
C_ C_ 0.491889 0.45179 0.365306 -0.15533
C_ C_ 0.461545 0.41579 0.376011 -0.15533
C_ C_ 0.411265 0.428221 0.39495 0.02923
C_ C_ 0.397454 0.481021 0.407799 -0.15533
C_ C_ 0.424542 0.517412 0.39193 0.02923
C_ C_ 0.393287 0.0735153 0.373811 0.69207
C_ C_ 0.397251 0.331863 0.389121 0.69661
C_ C_ 0.0744922 0.300485 0.0965258 0.18167
C_ C_ 0.028995 0.282688 0.0783042 -0.15533
C_ C_ 0.017282 0.268945 0.0269312 0.02923
C_ C_ 0.04868 0.28836 0.487908 -0.15533
C_ C_ 0.101253 0.289182 0.0135406 0.18167
C_ C_ 0.221674 0.272119 0.138193 0.18167
C_ C_ 0.236509 0.242712 0.179833 -0.15533
C_ C_ 0.238872 0.267523 0.230214 0.02923
C_ C_ 0.222754 0.319757 0.232585 -0.15533
C_ C_ 0.199509 0.343737 0.190864 0.18167
C_ C_ 0.243881 0.363616 0.0458529 0.69207
C_ C_ 0.274437 0.372686 0.509885 0.02923
C_ C_ 0.254744 0.370009 0.458172 -0.15533
C_ C_ 0.28399 0.37835 0.419803 -0.15533
C_ C_ 0.334001 0.393867 0.43104 0.02923
C_ C_ 0.354504 0.398448 0.483055 -0.15533
C_ C_ 0.325828 0.386453 0.523833 0.02923
C_ C_ 0.351554 0.376312 0.0756949 0.69207
C_ C_ 0.345869 0.39116 0.330847 0.69661
C_ C_ 0.310456 0.437584 0.181926 0.18167
C_ C_ 0.269679 0.461595 0.208992 -0.15533
C_ C_ 0.277752 0.497194 0.248363 0.02923
C_ C_ 0.328379 0.0271953 0.249678 -0.15533
C_ C_ 0.367771 0.491706 0.229153 0.18167
C_ C_ 0.493929 0.348794 0.202932 0.18167
C_ C_ 0.0113417 0.321383 0.246312 -0.15533
C_ C_ 0.489641 0.266139 0.236594 0.02923
C_ C_ 0.437043 0.274331 0.224465 -0.15533
C_ C_ 0.413239 0.317454 0.202982 0.18167
C_ C_ 0.493433 0.444226 0.121905 0.69207
C_ C_ 0.0302761 0.995004 0.113022 0.02923
C_ C_ 0.0104364 0.048019 0.113252 -0.15533
C_ C_ 0.0399532 0.0860884 0.10585 -0.15533
C_ C_ 0.0918024 0.0735535 0.101573 0.02923
C_ C_ 0.112742 0.021605 0.0961876 -0.15533
C_ C_ 0.0803675 0.981091 0.100081 0.02923
C_ C_ 0.0998035 0.421592 0.111673 0.69207
C_ C_ 0.107219 0.168815 0.117199 0.69661
C_ C_ 0.440725 0.184201 0.439512 0.18167
C_ C_ 0.481375 0.205855 0.46624 -0.15533
C_ C_ 0.475003 0.244231 0.50449 0.02923
C_ C_ 0.423749 0.247898 0.0189556 -0.15533
C_ C_ 0.386704 0.231033 0.493144 0.18167
C_ C_ 0.262977 0.211049 0.360755 0.18167
C_ C_ 0.236017 0.236512 0.318638 -0.15533
C_ C_ 0.263872 0.241249 0.276629 0.02923
C_ C_ 0.314344 0.218636 0.275624 -0.15533
C_ C_ 0.340606 0.200724 0.320693 0.18167
C_ C_ 0.268115 0.124651 0.452729 0.69207
C_ C_ 0.22083 0.131502 0.988324 0.02923
C_ C_ 0.24194 0.12874 0.0399896 -0.15533
C_ C_ 0.213679 0.117348 0.0770926 -0.15533
C_ C_ 0.16222 0.108157 0.0685881 0.02923
C_ C_ 0.141169 0.104601 0.0153863 -0.15533
C_ C_ 0.167751 0.12298 0.977905 0.02923
C_ C_ 0.158034 0.108881 0.429005 0.69207
C_ C_ 0.158902 0.101483 0.165927 0.69661
C_ C_ 0.371439 0.387382 0.389504 -0.30787
C_ C_ 0.129363 0.114014 0.11386 -0.30787
N_ N_ 0.146376 0.0615536 0.310177 -0.32189
N_ N_ 0.0587712 0.146713 0.317475 -0.32189
N_ N_ 0.110855 0.30195 0.0633885 -0.32189
N_ N_ 0.198129 0.31905 0.143988 -0.32189
N_ N_ 0.359102 0.453003 0.1928 -0.32189
N_ N_ 0.441429 0.351832 0.189127 -0.32189
N_ N_ 0.394544 0.197965 0.453096 -0.32189
N_ N_ 0.31368 0.193539 0.360598 -0.32189
O_ O_ 0.507241 0.0872202 0.394787 -0.63271
O_ O_ 0.0431433 0.0410134 0.334084 -0.57982
O_ O_ 0.403377 0.100343 0.337862 -0.63271
O_ O_ 0.378967 0.096375 0.416172 -0.57982
O_ O_ 0.250326 0.382341 0.093897 -0.63271
O_ O_ 0.207314 0.33567 0.0329287 -0.57982
O_ O_ 0.35512 0.335437 0.102896 -0.63271
O_ O_ 0.379535 0.412067 0.0927292 -0.57982
O_ O_ 0.985856 0.408395 0.100645 -0.63271
O_ O_ 0.458359 0.45628 0.15351 -0.57982
O_ O_ 0.0969227 0.398307 0.154701 -0.63271
O_ O_ 0.132111 0.40476 0.0805671 -0.57982
O_ O_ 0.2598 0.104524 0.407207 -0.63271
O_ O_ 0.300372 0.157133 0.461931 -0.57982
O_ O_ 0.159921 0.15229 0.40623 -0.63271
O_ O_ 0.125941 0.0781095 0.40741 -0.57982
F_ F_ 0.436899 0.328925 0.428166 -0.20885
F_ F_ 0.417646 0.30495 0.35028 -0.20885
F_ F_ 0.362344 0.299585 0.397366 -0.20885
F_ F_ 0.314453 0.437584 0.330035 -0.20885
F_ F_ 0.322239 0.349724 0.309949 -0.20885
F_ F_ 0.381962 0.397568 0.296537 -0.20885
F_ F_ 0.0729112 0.181269 0.076896 -0.20885
F_ F_ 0.0854767 0.183723 0.161698 -0.20885
F_ F_ 0.143212 0.201171 0.112803 -0.20885
F_ F_ 0.194076 0.0576059 0.164114 -0.20885
F_ F_ 0.180311 0.139922 0.19351 -0.20885
F_ F_ 0.123888 0.08888 0.195664 -0.20885
Zn Zn 0.0826492 0.0922957 0.840605 0.83971
Zn Zn 0.154422 0.352622 0.58291 0.83971
Zn Zn 0.408112 0.415061 0.658377 0.83971
Zn Zn 0.336931 0.16097 0.914711 0.83971
H_ H_ 0.169273 0.135927 0.797251 0.10394
H_ H_ 0.255182 0.0995843 0.780847 0.10394
H_ H_ 0.219926 0.446489 0.806177 0.10394
H_ H_ 0.135277 0.993042 0.839788 0.10394
H_ H_ 0.516175 0.0990862 0.764127 0.10394
H_ H_ 0.483098 0.176568 0.715664 0.10394
H_ H_ 0.00262186 0.26865 0.838202 0.10394
H_ H_ 0.0409353 0.185969 0.876468 0.10394
H_ H_ 0.0228213 0.440835 0.853488 0.10394
H_ H_ 0.493143 0.379571 0.895541 0.10394
H_ H_ 0.36245 0.484928 0.911991 0.10394
H_ H_ 0.0764786 0.305158 0.633218 0.10394
H_ H_ 0.50899 0.256357 0.608837 0.10394
H_ H_ 0.0505212 0.254699 0.956109 0.10394
H_ H_ 0.110535 0.33883 0.489795 0.10394
H_ H_ 0.204542 0.249262 0.60512 0.10394
H_ H_ 0.250565 0.214161 0.681401 0.10394
H_ H_ 0.210972 0.353889 0.767737 0.10394
H_ H_ 0.168169 0.390881 0.689727 0.10394
H_ H_ 0.220951 0.370049 0.948695 0.10394
H_ H_ 0.271982 0.383288 0.879944 0.10394
H_ H_ 0.399942 0.397457 0.996406 0.10394
H_ H_ 0.309903 0.395704 0.666965 0.10394
H_ H_ 0.242678 0.43419 0.715176 0.10394
H_ H_ 0.336362 0.0337695 0.784678 0.10394
H_ H_ 0.407608 0.505482 0.734973 0.10394
H_ H_ 0.0164301 0.392972 0.701493 0.10394
H_ H_ 0.0568208 0.312848 0.736415 0.10394
H_ H_ 0.411808 0.255218 0.749827 0.10394
H_ H_ 0.371878 0.321761 0.701818 0.10394
H_ H_ 0.459754 0.0525637 0.618 0.10394
H_ H_ 0.0193308 0.114981 0.590911 0.10394
H_ H_ 0.150132 0.00392602 0.60419 0.10394
H_ H_ 0.437683 0.162561 0.894578 0.10394
H_ H_ 0.0197258 0.172624 0.979723 0.10394
H_ H_ 0.418092 0.285905 0.550284 0.10394
H_ H_ 0.34429 0.23609 0.00278062 0.10394
H_ H_ 0.247203 0.226463 0.897985 0.10394
H_ H_ 0.203493 0.277181 0.829159 0.10394
H_ H_ 0.330426 0.232465 0.742241 0.10394
H_ H_ 0.373664 0.190762 0.811299 0.10394
H_ H_ 0.292642 0.124283 0.557189 0.10394
H_ H_ 0.236055 0.110967 0.6248 0.10394
H_ H_ 0.120422 0.0649899 0.509981 0.10394
C_ C_ 0.178655 0.0944406 0.796612 0.18167
C_ C_ 0.225779 0.0735713 0.783549 -0.15533
C_ C_ 0.237373 0.0190138 0.779113 0.02923
C_ C_ 0.208895 0.48664 0.804649 -0.15533
C_ C_ 0.156658 0.0151474 0.817077 0.18167
C_ C_ 0.0282821 0.143773 0.758463 0.18167
C_ C_ 0.507264 0.181265 0.750821 -0.15533
C_ C_ 0.00626424 0.23305 0.761383 0.02923
C_ C_ 0.0156504 0.233505 0.814249 -0.15533
C_ C_ 0.0357595 0.189058 0.837824 0.18167
C_ C_ 0.00425329 0.048233 0.859596 0.69207
C_ C_ 0.482133 0.507375 0.889136 0.02923
C_ C_ 0.505777 0.456437 0.895449 -0.15533
C_ C_ 0.474959 0.415705 0.895917 -0.15533
C_ C_ 0.419177 0.425868 0.897758 0.02923
C_ C_ 0.401685 0.4763 0.905176 -0.15533
C_ C_ 0.429624 0.515614 0.896995 0.02923
C_ C_ 0.388761 0.0739838 0.875406 0.69207
C_ C_ 0.408459 0.327572 0.887897 0.69661
C_ C_ 0.0673386 0.300927 0.592886 0.18167
C_ C_ 0.0245789 0.278528 0.572269 -0.15533
C_ C_ 0.0163133 0.270455 0.519814 0.02923
C_ C_ 0.0552285 0.270178 0.994729 -0.15533
C_ C_ 0.0875175 0.316125 0.509613 0.18167
C_ C_ 0.206438 0.27285 0.641632 0.18167
C_ C_ 0.22856 0.251285 0.684873 -0.15533
C_ C_ 0.232565 0.279753 0.730963 0.02923
C_ C_ 0.204079 0.328587 0.733762 -0.15533
C_ C_ 0.184338 0.350929 0.687795 0.18167
C_ C_ 0.238244 0.364271 0.549011 0.69207
C_ C_ 0.281081 0.367689 0.00841095 0.02923
C_ C_ 0.261697 0.36866 0.957877 -0.15533
C_ C_ 0.291273 0.379259 0.91835 -0.15533
C_ C_ 0.342984 0.389597 0.931644 0.02923
C_ C_ 0.363323 0.385234 0.984805 -0.15533
C_ C_ 0.331773 0.374957 0.0213821 0.02923
C_ C_ 0.351573 0.385507 0.577186 0.69207
C_ C_ 0.353489 0.392392 0.835819 0.69661
C_ C_ 0.319204 0.422206 0.699676 0.18167
C_ C_ 0.279837 0.445696 0.727688 -0.15533
C_ C_ 0.283819 0.49268 0.754163 0.02923
C_ C_ 0.32587 0.01061 0.752727 -0.15533
C_ C_ 0.371654 0.486787 0.733118 0.18167
C_ C_ 0.491523 0.3533 0.708384 0.18167
C_ C_ 0.0162405 0.317508 0.725431 -0.15533
C_ C_ 0.489998 0.274919 0.750954 0.02923
C_ C_ 0.437381 0.280519 0.741259 -0.15533
C_ C_ 0.413676 0.321693 0.712831 0.18167
C_ C_ 0.484429 0.450202 0.622464 0.69207
C_ C_ 0.0218971 0.989959 0.609544 0.02923
C_ C_ 0.00311056 0.0410172 0.606568 -0.15533
C_ C_ 0.0359895 0.0777507 0.602138 -0.15533
C_ C_ 0.0907507 0.0651298 0.601619 0.02923
C_ C_ 0.107958 0.0118114 0.602256 -0.15533
C_ C_ 0.0763274 0.974208 0.605844 0.02923
C_ C_ 0.0948051 0.43131 0.605314 0.69207
C_ C_ 0.104456 0.159141 0.5974 0.69661
C_ C_ 0.435162 0.187149 0.929789 0.18167
C_ C_ 0.477672 0.208643 0.954275 -0.15533
C_ C_ 0.470176 0.239202 0.998811 0.02923
C_ C_ 0.4261 0.25704 0.51669 -0.15533
C_ C_ 0.382452 0.224361 0.992033 0.18167
C_ C_ 0.264217 0.227594 0.863394 0.18167
C_ C_ 0.238599 0.256157 0.822451 -0.15533
C_ C_ 0.261743 0.25518 0.777236 0.02923
C_ C_ 0.311727 0.231952 0.776438 -0.15533
C_ C_ 0.335661 0.205151 0.816395 0.18167
C_ C_ 0.254122 0.140903 0.948494 0.69207
C_ C_ 0.234743 0.116285 0.493546 0.02923
C_ C_ 0.251989 0.118496 0.547068 -0.15533
C_ C_ 0.220899 0.109952 0.585546 -0.15533
C_ C_ 0.171295 0.0993316 0.572381 0.02923
C_ C_ 0.157583 0.0820975 0.521047 -0.15533
C_ C_ 0.183243 0.101547 0.482182 0.02923
C_ C_ 0.142745 0.126593 0.924315 0.69207
C_ C_ 0.148402 0.112353 0.66726 0.69661
C_ C_ 0.382011 0.384546 0.890582 -0.30787
C_ C_ 0.129651 0.106468 0.610478 -0.30787
N_ N_ 0.143089 0.0662199 0.810965 -0.32189
N_ N_ 0.0477988 0.146474 0.807733 -0.32189
N_ N_ 0.0997681 0.316108 0.560847 -0.32189
N_ N_ 0.185216 0.322076 0.64294 -0.32189
N_ N_ 0.36523 0.442611 0.7039 -0.32189
N_ N_ 0.44037 0.356892 0.695699 -0.32189
N_ N_ 0.388402 0.198247 0.947806 -0.32189
N_ N_ 0.31084 0.201655 0.859938 -0.32189
O_ O_ 0.500248 0.0898542 0.896731 -0.63271
O_ O_ 0.0439896 0.040239 0.833026 -0.57982
O_ O_ 0.392026 0.10302 0.837329 -0.63271
O_ O_ 0.355871 0.0895273 0.90868 -0.57982
O_ O_ 0.244438 0.386206 0.596038 -0.63271
O_ O_ 0.197155 0.338608 0.536232 -0.57982
O_ O_ 0.363776 0.3428 0.59735 -0.63271
O_ O_ 0.365512 0.426507 0.601419 -0.57982
O_ O_ 0.987149 0.41768 0.589899 -0.63271
O_ O_ 0.454882 0.460168 0.659244 -0.57982
O_ O_ 0.0868183 0.402162 0.642982 -0.63271
O_ O_ 0.131229 0.416881 0.576221 -0.57982
O_ O_ 0.245667 0.12568 0.899599 -0.63271
O_ O_ 0.293909 0.165197 0.962922 -0.57982
O_ O_ 0.147544 0.168013 0.898703 -0.63271
O_ O_ 0.108545 0.0965076 0.90609 -0.57982
F_ F_ 0.442296 0.315888 0.930301 -0.20885
F_ F_ 0.438693 0.32363 0.848352 -0.20885
F_ F_ 0.37196 0.290945 0.877473 -0.20885
F_ F_ 0.320979 0.435664 0.838154 -0.20885
F_ F_ 0.326119 0.354074 0.813854 -0.20885
F_ F_ 0.386169 0.398538 0.802225 -0.20885
F_ F_ 0.0836144 0.159874 0.546054 -0.20885
F_ F_ 0.0654668 0.175532 0.630645 -0.20885
F_ F_ 0.134203 0.200009 0.605373 -0.20885
F_ F_ 0.180886 0.068075 0.677415 -0.20885
F_ F_ 0.175076 0.1549 0.682189 -0.20885
F_ F_ 0.110061 0.113027 0.699369 -0.20885
Zn Zn 0.0851709 0.583831 0.346421 0.83971
Zn Zn 0.160498 0.841468 0.0816818 0.83971
Zn Zn 0.40525 0.923953 0.15385 0.83971
Zn Zn 0.339613 0.652635 0.416858 0.83971
H_ H_ 0.162479 0.632253 0.299168 0.10394
H_ H_ 0.238421 0.59682 0.255793 0.10394
H_ H_ 0.226365 0.952562 0.302 0.10394
H_ H_ 0.135867 0.485898 0.337321 0.10394
H_ H_ 0.524107 0.600315 0.241804 0.10394
H_ H_ 0.479208 0.674094 0.194526 0.10394
H_ H_ 0.0317103 0.772085 0.327278 0.10394
H_ H_ 0.0657555 0.693987 0.378454 0.10394
H_ H_ 0.0252108 0.942673 0.340478 0.10394
H_ H_ 0.48319 0.880909 0.391801 0.10394
H_ H_ 0.346286 0.991857 0.386687 0.10394
H_ H_ 0.0850716 0.802845 0.129591 0.10394
H_ H_ 0.511011 0.757309 0.0909501 0.10394
H_ H_ 0.0327931 0.777453 0.433583 0.10394
H_ H_ 0.115598 0.824475 0.981425 0.10394
H_ H_ 0.214928 0.745479 0.0974918 0.10394
H_ H_ 0.261103 0.699435 0.165728 0.10394
H_ H_ 0.198346 0.824618 0.271201 0.10394
H_ H_ 0.183907 0.878966 0.191271 0.10394
H_ H_ 0.22515 0.840117 0.433942 0.10394
H_ H_ 0.273779 0.876669 0.374232 0.10394
H_ H_ 0.394098 0.901943 0.486978 0.10394
H_ H_ 0.310707 0.902762 0.165304 0.10394
H_ H_ 0.237899 0.946561 0.201247 0.10394
H_ H_ 0.331911 0.541943 0.29141 0.10394
H_ H_ 0.405682 0.0167734 0.22783 0.10394
H_ H_ 0.0234091 0.870646 0.175391 0.10394
H_ H_ 0.0573298 0.798597 0.224213 0.10394
H_ H_ 0.408734 0.744209 0.209415 0.10394
H_ H_ 0.364586 0.827848 0.18413 0.10394
H_ H_ 0.467368 0.54385 0.107463 0.10394
H_ H_ 0.0177041 0.610647 0.0921839 0.10394
H_ H_ 0.147483 0.499453 0.0985379 0.10394
H_ H_ 0.443741 0.661006 0.396897 0.10394
H_ H_ 0.00171768 0.690197 0.424777 0.10394
H_ H_ 0.410706 0.780239 0.0412482 0.10394
H_ H_ 0.348657 0.727735 0.5037 0.10394
H_ H_ 0.235299 0.682822 0.37766 0.10394
H_ H_ 0.189509 0.734813 0.304475 0.10394
H_ H_ 0.335672 0.718654 0.244268 0.10394
H_ H_ 0.376347 0.697312 0.330615 0.10394
H_ H_ 0.288099 0.618126 0.058111 0.10394
H_ H_ 0.232081 0.601514 0.120378 0.10394
H_ H_ 0.106468 0.585159 0.00446516 0.10394
C_ C_ 0.174962 0.590842 0.2981 0.18167
C_ C_ 0.213805 0.57107 0.270369 -0.15533
C_ C_ 0.230375 0.518967 0.2715 0.02923
C_ C_ 0.210516 0.99249 0.296696 -0.15533
C_ C_ 0.157214 0.508689 0.313601 0.18167
C_ C_ 0.0224955 0.634595 0.268818 0.18167
C_ C_ 0.502895 0.678439 0.231521 -0.15533
C_ C_ 0.0100523 0.726823 0.260266 0.02923
C_ C_ 0.034133 0.732907 0.31075 -0.15533
C_ C_ 0.0491258 0.691089 0.340421 0.18167
C_ C_ 0.00718954 0.545431 0.376701 0.69207
C_ C_ 0.468301 0.00852977 0.367633 0.02923
C_ C_ 0.490116 0.957293 0.374484 -0.15533
C_ C_ 0.461824 0.918461 0.386313 -0.15533
C_ C_ 0.409786 0.929067 0.389869 0.02923
C_ C_ 0.386232 0.982228 0.383139 -0.15533
C_ C_ 0.415662 0.0206739 0.376256 0.02923
C_ C_ 0.400739 0.571042 0.390616 0.69207
C_ C_ 0.40302 0.828692 0.383065 0.69661
C_ C_ 0.0752401 0.796324 0.089369 0.18167
C_ C_ 0.0283332 0.775305 0.073744 -0.15533
C_ C_ 0.0138234 0.772086 0.0198418 0.02923
C_ C_ 0.0398225 0.782771 0.47556 -0.15533
C_ C_ 0.0891153 0.811878 0.00401352 0.18167
C_ C_ 0.215277 0.765026 0.134296 0.18167
C_ C_ 0.240601 0.737204 0.173713 -0.15533
C_ C_ 0.238663 0.759942 0.224592 0.02923
C_ C_ 0.209144 0.809768 0.230604 -0.15533
C_ C_ 0.191635 0.835717 0.188921 0.18167
C_ C_ 0.242671 0.867096 0.0498374 0.69207
C_ C_ 0.280159 0.857786 0.500224 0.02923
C_ C_ 0.259954 0.857682 0.448089 -0.15533
C_ C_ 0.290235 0.871909 0.413198 -0.15533
C_ C_ 0.339431 0.887959 0.424147 0.02923
C_ C_ 0.356829 0.890281 0.475714 -0.15533
C_ C_ 0.327342 0.875625 0.514091 0.02923
C_ C_ 0.354745 0.893998 0.0678579 0.69207
C_ C_ 0.35029 0.88732 0.327298 0.69661
C_ C_ 0.314265 0.939182 0.187973 0.18167
C_ C_ 0.274965 0.95963 0.215367 -0.15533
C_ C_ 0.281325 1.00551758 0.24513 0.02923
C_ C_ 0.327399 0.514724 0.258812 -0.15533
C_ C_ 0.368796 1.00173306 0.226156 0.18167
C_ C_ 0.486986 0.85765 0.192246 0.18167
C_ C_ 0.0165355 0.811172 0.224188 -0.15533
C_ C_ 0.481839 0.773101 0.222962 0.02923
C_ C_ 0.430203 0.77784 0.21101 -0.15533
C_ C_ 0.406478 0.823729 0.192601 0.18167
C_ C_ 0.483265 0.958714 0.126757 0.69207
C_ C_ 0.0218933 0.485173 0.106493 0.02923
C_ C_ 0.00309843 0.536502 0.101149 -0.15533
C_ C_ 0.0367197 0.5749 0.102882 -0.15533
C_ C_ 0.0888795 0.563597 0.0989425 0.02923
C_ C_ 0.107757 0.510625 0.102271 -0.15533
C_ C_ 0.0761183 0.472075 0.104979 0.02923
C_ C_ 0.100609 0.925724 0.099904 0.69207
C_ C_ 0.0969048 0.660063 0.0990773 0.69661
C_ C_ 0.441785 0.680508 0.43395 0.18167
C_ C_ 0.483236 0.703446 0.457175 -0.15533
C_ C_ 0.475562 0.739453 0.497775 0.02923
C_ C_ 0.417243 0.758609 0.00643422 -0.15533
C_ C_ 0.386241 0.721982 0.490271 0.18167
C_ C_ 0.256109 0.696982 0.351086 0.18167
C_ C_ 0.230778 0.723468 0.308896 -0.15533
C_ C_ 0.261656 0.73484 0.2704 0.02923
C_ C_ 0.313344 0.719068 0.275181 -0.15533
C_ C_ 0.336352 0.700671 0.320194 0.18167
C_ C_ 0.259359 0.618938 0.449913 0.69207
C_ C_ 0.232489 0.605143 0.992355 0.02923
C_ C_ 0.247925 0.610756 0.0465633 -0.15533
C_ C_ 0.212414 0.607198 0.082893 -0.15533
C_ C_ 0.162692 0.59858 0.0677151 0.02923
C_ C_ 0.147239 0.591 0.0161821 -0.15533
C_ C_ 0.179375 0.59785 0.976612 0.02923
C_ C_ 0.147633 0.611383 0.42668 0.69207
C_ C_ 0.144179 0.606178 0.163801 0.69661
C_ C_ 0.376443 0.883319 0.382287 -0.30787
C_ C_ 0.123116 0.605983 0.105636 -0.30787
N_ N_ 0.142253 0.559452 0.309297 -0.32189
N_ N_ 0.0485807 0.642786 0.316357 -0.32189
N_ N_ 0.106659 0.808988 0.0552269 -0.32189
N_ N_ 0.191565 0.812712 0.141958 -0.32189
N_ N_ 0.36064 0.957603 0.197394 -0.32189
N_ N_ 0.435922 0.863181 0.187881 -0.32189
N_ N_ 0.395683 0.690804 0.448741 -0.32189
N_ N_ 0.306582 0.684135 0.354434 -0.32189
O_ O_ 0.507774 0.580836 0.405148 -0.63271
O_ O_ 0.041039 0.536256 0.343902 -0.57982
O_ O_ 0.40194 0.59945 0.349538 -0.63271
O_ O_ 0.363542 0.587331 0.421432 -0.57982
O_ O_ 0.252605 0.882432 0.0990416 -0.63271
O_ O_ 0.207411 0.836856 0.0394807 -0.57982
O_ O_ 0.362189 0.850867 0.0907817 -0.63271
O_ O_ 0.364211 0.934405 0.0960064 -0.57982
O_ O_ 0.991728 0.912647 0.095179 -0.63271
O_ O_ 0.452049 0.971126 0.160255 -0.57982
O_ O_ 0.0999187 0.901918 0.140622 -0.63271
O_ O_ 0.137324 0.909064 0.071107 -0.57982
O_ O_ 0.252977 0.592706 0.405744 -0.63271
O_ O_ 0.291072 0.655366 0.457185 -0.57982
O_ O_ 0.14871 0.651695 0.399129 -0.63271
O_ O_ 0.10929 0.585109 0.413254 -0.57982
F_ F_ 0.436157 0.823717 0.425967 -0.20885
F_ F_ 0.431784 0.809604 0.342359 -0.20885
F_ F_ 0.3662 0.796319 0.38396 -0.20885
F_ F_ 0.316532 0.930657 0.326871 -0.20885
F_ F_ 0.321467 0.848238 0.309333 -0.20885
F_ F_ 0.383997 0.885328 0.291318 -0.20885
F_ F_ 0.0700353 0.666927 0.0493105 -0.20885
F_ F_ 0.0642774 0.676066 0.136862 -0.20885
F_ F_ 0.132054 0.695759 0.102666 -0.20885
F_ F_ 0.174558 0.561138 0.173725 -0.20885
F_ F_ 0.170236 0.648266 0.179089 -0.20885
F_ F_ 0.106253 0.61139 0.196428 -0.20885
Zn Zn 0.0868603 0.58318 0.841592 0.83971
Zn Zn 0.158694 0.838774 0.577528 0.83971
Zn Zn 0.40138 0.915033 0.650567 0.83971
Zn Zn 0.339261 0.653077 0.913221 0.83971
H_ H_ 0.168411 0.63189 0.80184 0.10394
H_ H_ 0.252717 0.593393 0.768363 0.10394
H_ H_ 0.203351 0.948632 0.790876 0.10394
H_ H_ 0.134614 0.484045 0.835695 0.10394
H_ H_ 0.511402 0.602775 0.75063 0.10394
H_ H_ 0.479357 0.675694 0.702003 0.10394
H_ H_ 0.0360474 0.766871 0.825262 0.10394
H_ H_ 0.0602491 0.68409 0.878977 0.10394
H_ H_ 0.0264686 0.950409 0.844874 0.10394
H_ H_ 0.472756 0.881004 0.876969 0.10394
H_ H_ 0.340853 0.994874 0.88674 0.10394
H_ H_ 0.0695229 0.805786 0.620357 0.10394
H_ H_ 0.501789 0.769418 0.598869 0.10394
H_ H_ 0.0300142 0.797661 0.943057 0.10394
H_ H_ 0.108056 0.817719 0.469205 0.10394
H_ H_ 0.227428 0.746971 0.586579 0.10394
H_ H_ 0.27734 0.708147 0.661368 0.10394
H_ H_ 0.214475 0.821778 0.763338 0.10394
H_ H_ 0.175298 0.866747 0.686809 0.10394
H_ H_ 0.21651 0.870466 0.948865 0.10394
H_ H_ 0.263435 0.875939 0.885052 0.10394
H_ H_ 0.394084 0.91564 0.984549 0.10394
H_ H_ 0.297175 0.901342 0.655644 0.10394
H_ H_ 0.229467 0.94221 0.706729 0.10394
H_ H_ 0.336293 0.545456 0.783667 0.10394
H_ H_ 0.398455 -0.00693303 0.730507 0.10394
H_ H_ 0.0172558 0.890271 0.700996 0.10394
H_ H_ 0.0557683 0.810594 0.738064 0.10394
H_ H_ 0.404103 0.754054 0.738821 0.10394
H_ H_ 0.363841 0.83079 0.694916 0.10394
H_ H_ 0.458561 0.547911 0.609523 0.10394
H_ H_ 0.019749 0.627181 0.619107 0.10394
H_ H_ 0.146716 0.515685 0.598289 0.10394
H_ H_ 0.441604 0.665964 0.895048 0.10394
H_ H_ 0.0196458 0.695276 0.950343 0.10394
H_ H_ 0.41851 0.778451 0.547266 0.10394
H_ H_ 0.342446 0.738598 -0.006712999999999969 0.10394
H_ H_ 0.237092 0.707454 0.885422 0.10394
H_ H_ 0.196774 0.741092 0.806151 0.10394
H_ H_ 0.33678 0.714197 0.742167 0.10394
H_ H_ 0.375798 0.674817 0.820906 0.10394
H_ H_ 0.286263 0.625762 0.547236 0.10394
H_ H_ 0.235962 0.617085 0.61899 0.10394
H_ H_ 0.108186 0.595342 0.510843 0.10394
C_ C_ 0.179313 0.590629 0.799938 0.18167
C_ C_ 0.226453 0.570086 0.783957 -0.15533
C_ C_ 0.240397 0.516005 0.782822 0.02923
C_ C_ 0.201508 0.989444 0.79749 -0.15533
C_ C_ 0.161737 0.50843 0.820525 0.18167
C_ C_ 0.0295209 0.635011 0.763778 0.18167
C_ C_ 0.499078 0.681877 0.740113 -0.15533
C_ C_ 0.0111839 0.725639 0.759967 0.02923
C_ C_ 0.0359924 0.728353 0.807705 -0.15533
C_ C_ 0.0487828 0.68452 0.83837 0.18167
C_ C_ 0.00539438 0.544544 0.866143 0.69207
C_ C_ 0.466354 0.00940636 0.871603 0.02923
C_ C_ 0.487526 0.959481 0.873205 -0.15533
C_ C_ 0.457264 0.921577 0.880487 -0.15533
C_ C_ 0.404275 0.931687 0.885637 0.02923
C_ C_ 0.383623 0.983881 0.8878 -0.15533
C_ C_ 0.412709 0.0208641 0.872878 0.02923
C_ C_ 0.40205 0.567587 0.887623 0.69207
C_ C_ 0.3931 0.834255 0.881974 0.69661
C_ C_ 0.0609707 0.80071 0.578623 0.18167
C_ C_ 0.0204998 0.771512 0.561517 -0.15533
C_ C_ 0.011321 0.761617 0.509887 0.02923
C_ C_ 0.0442938 0.791637 0.984382 -0.15533
C_ C_ 0.0819272 0.806802 0.495991 0.18167
C_ C_ 0.221508 0.763172 0.626908 0.18167
C_ C_ 0.248749 0.737796 0.66785 -0.15533
C_ C_ 0.24231 0.753939 0.718487 0.02923
C_ C_ 0.214751 0.802223 0.724564 -0.15533
C_ C_ 0.186689 0.826524 0.683054 0.18167
C_ C_ 0.244707 0.848321 0.537994 0.69207
C_ C_ 0.276516 0.877529 0.00923535 0.02923
C_ C_ 0.254505 0.877114 0.958916 -0.15533
C_ C_ 0.282937 0.885704 0.920577 -0.15533
C_ C_ 0.333293 0.897251 0.924787 0.02923
C_ C_ 0.352512 0.906334 0.977632 -0.15533
C_ C_ 0.324658 0.897455 0.0187002 0.02923
C_ C_ 0.351099 0.881304 0.568149 0.69207
C_ C_ 0.337504 0.890203 0.827739 0.69661
C_ C_ 0.305899 0.930533 0.68585 0.18167
C_ C_ 0.26607 0.958016 0.711433 -0.15533
C_ C_ 0.276157 0.996436 0.747584 0.02923
C_ C_ 0.33088 0.511924 0.760563 -0.15533
C_ C_ 0.362406 0.987094 0.723219 0.18167
C_ C_ 0.483714 0.854372 0.70175 0.18167
C_ C_ 0.0165773 0.81362 0.727707 -0.15533
C_ C_ 0.479916 0.773464 0.736475 0.02923
C_ C_ 0.427027 0.781129 0.726224 -0.15533
C_ C_ 0.404046 0.825741 0.704886 0.18167
C_ C_ 0.484425 0.948882 0.622458 0.69207
C_ C_ 0.0202788 0.499433 0.603688 0.02923
C_ C_ 1.000902628 0.55291 0.601947 -0.15533
C_ C_ 0.03543 0.590093 0.60832 -0.15533
C_ C_ 0.0884847 0.576935 0.603872 0.02923
C_ C_ 0.105843 0.52437 0.59796 -0.15533
C_ C_ 0.0735815 0.486971 0.606329 0.02923
C_ C_ 0.0989818 0.920585 0.608216 0.69207
C_ C_ 0.107315 0.672485 0.605818 0.69661
C_ C_ 0.437794 0.684387 0.930846 0.18167
C_ C_ 0.477399 0.712603 0.952611 -0.15533
C_ C_ 0.467 0.750979 -0.01053000000000004 0.02923
C_ C_ 0.426992 0.748711 0.51441 -0.15533
C_ C_ 0.379547 0.731175 0.981738 0.18167
C_ C_ 0.258501 0.704449 0.853858 0.18167
C_ C_ 0.237667 0.726444 0.807144 -0.15533
C_ C_ 0.263397 0.723151 0.76409 0.02923
C_ C_ 0.313617 0.702953 0.769834 -0.15533
C_ C_ 0.336788 0.685508 0.817012 0.18167
C_ C_ 0.266477 0.616815 0.952638 0.69207
C_ C_ 0.225008 0.616184 0.489541 0.02923
C_ C_ 0.246698 0.618331 0.539827 -0.15533
C_ C_ 0.217961 0.616255 0.58034 -0.15533
C_ C_ 0.167829 0.603745 0.571287 0.02923
C_ C_ 0.147414 0.596967 0.518747 -0.15533
C_ C_ 0.17422 0.608576 0.478634 0.02923
C_ C_ 0.154161 0.605965 0.923352 0.69207
C_ C_ 0.152859 0.610351 0.666458 0.69661
C_ C_ 0.368501 0.888889 0.88159 -0.30787
C_ C_ 0.130057 0.615582 0.610292 -0.30787
N_ N_ 0.147619 0.560152 0.814979 -0.32189
N_ N_ 0.048132 0.638647 0.814086 -0.32189
N_ N_ 0.0938017 0.809651 0.546638 -0.32189
N_ N_ 0.187038 0.802104 0.63605 -0.32189
N_ N_ 0.350982 0.951009 0.686475 -0.32189
N_ N_ 0.431837 0.859426 0.689093 -0.32189
N_ N_ 0.390539 0.694522 0.944656 -0.32189
N_ N_ 0.307549 0.684443 0.855377 -0.32189
O_ O_ 0.512355 0.593463 0.897543 -0.63271
O_ O_ 0.0423685 0.532506 0.836774 -0.57982
O_ O_ 0.407847 0.589532 0.844291 -0.63271
O_ O_ 0.371751 0.588636 0.918913 -0.57982
O_ O_ 0.255283 0.852485 0.585977 -0.63271
O_ O_ 0.199254 0.834351 0.522374 -0.57982
O_ O_ 0.364092 0.840046 0.594071 -0.63271
O_ O_ 0.367882 0.925449 0.587552 -0.57982
O_ O_ 0.991642 0.909333 0.600452 -0.63271
O_ O_ 0.449789 0.960785 0.655043 -0.57982
O_ O_ 0.100779 0.895321 0.649213 -0.63271
O_ O_ 0.131824 0.905089 0.574819 -0.57982
O_ O_ 0.250307 0.610095 0.903871 -0.63271
O_ O_ 0.300731 0.647296 0.965475 -0.57982
O_ O_ 0.152262 0.652563 0.902756 -0.63271
O_ O_ 0.120168 0.573604 0.905835 -0.57982
F_ F_ 0.427868 0.829991 0.924744 -0.20885
F_ F_ 0.419973 0.816834 0.840242 -0.20885
F_ F_ 0.36187 0.796851 0.888733 -0.20885
F_ F_ 0.297858 0.929995 0.830209 -0.20885
F_ F_ 0.317933 0.846466 0.809193 -0.20885
F_ F_ 0.364912 0.900688 0.78966 -0.20885
F_ F_ 0.0758803 0.676012 0.56021 -0.20885
F_ F_ 0.0817989 0.689959 0.648851 -0.20885
F_ F_ 0.145349 0.703712 0.605532 -0.20885
F_ F_ 0.187629 0.56746 0.674179 -0.20885
F_ F_ 0.181814 0.651119 0.680824 -0.20885
F_ F_ 0.116012 0.610028 0.702123 -0.20885
Zn Zn 0.590101 0.0800315 0.349074 0.83971
Zn Zn 0.665972 0.339255 0.0853583 0.83971
Zn Zn 0.909698 0.422285 0.161697 0.83971
Zn Zn 0.842535 0.149597 0.425171 0.83971
H_ H_ 0.669734 0.128523 0.314678 0.10394
H_ H_ 0.754572 0.096216 0.279944 0.10394
H_ H_ 0.710046 0.453405 0.298729 0.10394
H_ H_ 0.638101 0.974782 0.324063 0.10394
H_ H_ 0.0370075 0.105186 0.246769 0.10394
H_ H_ 0.995732 0.182756 0.207597 0.10394
H_ H_ 0.546606 0.267582 0.335712 0.10394
H_ H_ 0.579667 0.192954 0.382177 0.10394
H_ H_ 0.532783 0.438854 0.35549 0.10394
H_ H_ 0.979683 0.377889 0.375042 0.10394
H_ H_ 0.84723 0.484283 0.401874 0.10394
H_ H_ 0.587742 0.287613 0.135152 0.10394
H_ H_ 1.000367678 0.277206 0.103564 0.10394
H_ H_ 0.535339 0.293652 0.454222 0.10394
H_ H_ 0.619087 0.313983 0.987488 0.10394
H_ H_ 0.722627 0.242849 0.0967606 0.10394
H_ H_ 0.761969 0.193819 0.174119 0.10394
H_ H_ 0.723018 0.32673 0.272068 0.10394
H_ H_ 0.689956 0.374803 0.194951 0.10394
H_ H_ 0.71776 0.373602 0.446561 0.10394
H_ H_ 0.767051 0.376172 0.381233 0.10394
H_ H_ 0.902887 0.390054 0.491435 0.10394
H_ H_ 0.80751 0.401831 0.164356 0.10394
H_ H_ 0.729009 0.454708 0.192593 0.10394
H_ H_ 0.834988 0.0443133 0.284295 0.10394
H_ H_ 0.899039 0.511672 0.240175 0.10394
H_ H_ 0.514174 0.381398 0.195169 0.10394
H_ H_ 0.555257 0.309308 0.246908 0.10394
H_ H_ 0.913522 0.247439 0.230512 0.10394
H_ H_ 0.86856 0.328028 0.186051 0.10394
H_ H_ 0.969737 0.0592064 0.118529 0.10394
H_ H_ 0.523067 0.119475 0.123598 0.10394
H_ H_ 0.644071 0.0047600000000000975 0.0928143 0.10394
H_ H_ 0.945433 0.155109 0.401066 0.10394
H_ H_ 0.519762 0.199064 0.452004 0.10394
H_ H_ 0.911763 0.305289 0.0168802 0.10394
H_ H_ 0.845322 0.239564 0.4979 0.10394
H_ H_ 0.737853 0.177263 0.377147 0.10394
H_ H_ 0.694495 0.219352 0.304683 0.10394
H_ H_ 0.840635 0.234053 0.255364 0.10394
H_ H_ 0.881011 0.193965 0.336507 0.10394
H_ H_ 0.78938 0.104264 0.058767 0.10394
H_ H_ 0.735357 0.078931 0.12073 0.10394
H_ H_ 0.606777 0.0835081 0.00945425 0.10394
C_ C_ 0.68063 0.0875453 0.309296 0.18167
C_ C_ 0.726535 0.0707045 0.28795 -0.15533
C_ C_ 0.736286 0.0199105 0.27036 0.02923
C_ C_ 0.696511 0.493988 0.288679 -0.15533
C_ C_ 0.659053 0.00373064 0.310246 0.18167
C_ C_ 0.532486 0.132117 0.275323 0.18167
C_ C_ 0.0123519 0.185301 0.246094 -0.15533
C_ C_ 0.51039 0.223377 0.271499 0.02923
C_ C_ 0.544354 0.229746 0.315693 -0.15533
C_ C_ 0.5619 0.188541 0.344 0.18167
C_ C_ 0.506071 0.0479036 0.363111 0.69207
C_ C_ 0.97093 0.50547 0.383315 0.02923
C_ C_ 0.990657 0.455536 0.379218 -0.15533
C_ C_ 0.961784 0.415601 0.382429 -0.15533
C_ C_ 0.909981 0.424409 0.391081 0.02923
C_ C_ 0.88979 0.475685 0.397437 -0.15533
C_ C_ 0.917284 0.517785 0.387042 0.02923
C_ C_ 0.898551 0.0681902 0.387411 0.69207
C_ C_ 0.90138 0.326084 0.385289 0.69661
C_ C_ 0.574011 0.287675 0.094843 0.18167
C_ C_ 0.528771 0.267696 0.0775107 -0.15533
C_ C_ 0.515609 0.26496 0.0224786 0.02923
C_ C_ 0.549225 0.28882 0.495149 -0.15533
C_ C_ 0.59286 0.302332 0.0115912 0.18167
C_ C_ 0.729214 0.26326 0.134396 0.18167
C_ C_ 0.747435 0.234643 0.178177 -0.15533
C_ C_ 0.742615 0.257376 0.2292 0.02923
C_ C_ 0.724737 0.310503 0.233851 -0.15533
C_ C_ 0.709128 0.336402 0.188955 0.18167
C_ C_ 0.742812 0.370943 0.0494748 0.69207
C_ C_ 0.775016 0.377819 0.508076 0.02923
C_ C_ 0.757941 0.370568 0.45669 -0.15533
C_ C_ 0.78589 0.381582 0.418944 -0.15533
C_ C_ 0.83879 0.385443 0.427914 0.02923
C_ C_ 0.859833 0.389134 0.479767 -0.15533
C_ C_ 0.827992 0.384927 0.519405 0.02923
C_ C_ 0.852738 0.385511 0.0758592 0.69207
C_ C_ 0.846287 0.387933 0.328901 0.69661
C_ C_ 0.810161 0.438902 0.185529 0.18167
C_ C_ 0.76575 0.464506 0.204475 -0.15533
C_ C_ 0.772256 0.502613 0.245235 0.02923
C_ C_ 0.827596 0.0199865 0.248691 -0.15533
C_ C_ 0.861884 0.498378 0.230467 0.18167
C_ C_ 0.989477 0.359674 0.213751 0.18167
C_ C_ 0.517263 0.306471 0.228281 -0.15533
C_ C_ 0.984723 0.280681 0.248781 0.02923
C_ C_ 0.934942 0.280041 0.226034 -0.15533
C_ C_ 0.910795 0.323387 0.202055 0.18167
C_ C_ 0.991913 0.449701 0.126076 0.69207
C_ C_ 0.521874 0.993586 0.118873 0.02923
C_ C_ 0.504266 0.0448004 0.119375 -0.15533
C_ C_ 0.536148 0.0797493 0.110187 -0.15533
C_ C_ 0.586606 0.0661901 0.101135 0.02923
C_ C_ 0.604644 0.0141626 0.101253 -0.15533
C_ C_ 0.570064 0.977667 0.106164 0.02923
C_ C_ 0.604296 0.419589 0.104003 0.69207
C_ C_ 0.604844 0.162178 0.10694 0.69661
C_ C_ 0.939101 0.184682 0.431304 0.18167
C_ C_ 0.981453 0.201819 0.462058 -0.15533
C_ C_ 0.974046 0.24355 0.4973 0.02923
C_ C_ 0.922809 0.264966 0.00849584 -0.15533
C_ C_ 0.883673 0.229287 0.486768 0.18167
C_ C_ 0.760442 0.189059 0.352855 0.18167
C_ C_ 0.735746 0.214949 0.310454 -0.15533
C_ C_ 0.765369 0.230749 0.274274 0.02923
C_ C_ 0.818184 0.221424 0.281479 -0.15533
C_ C_ 0.84171 0.198051 0.326456 0.18167
C_ C_ 0.767363 0.116136 0.461713 0.69207
C_ C_ 0.728507 0.114076 0.99784 0.02923
C_ C_ 0.749181 0.10239 0.0480911 -0.15533
C_ C_ 0.718323 0.0933012 0.0857794 -0.15533
C_ C_ 0.665517 0.092017 0.071895 0.02923
C_ C_ 0.646017 0.0938194 0.0207284 -0.15533
C_ C_ 0.677046 0.10463 0.98327 0.02923
C_ C_ 0.654529 0.110278 0.428238 0.69207
C_ C_ 0.649704 0.102932 0.167298 0.69661
C_ C_ 0.874162 0.382744 0.384795 -0.30787
C_ C_ 0.627466 0.105395 0.111979 -0.30787
N_ N_ 0.644793 0.0545573 0.311321 -0.32189
N_ N_ 0.562289 0.140908 0.319452 -0.32189
N_ N_ 0.606188 0.301503 0.0627391 -0.32189
N_ N_ 0.705075 0.31202 0.142673 -0.32189
N_ N_ 0.857293 0.454618 0.200876 -0.32189
N_ N_ 0.94118 0.360528 0.192768 -0.32189
N_ N_ 0.89342 0.193478 0.448559 -0.32189
N_ N_ 0.812134 0.182089 0.360236 -0.32189
O_ O_ 0.00687853 0.0814647 0.400019 -0.63271
O_ O_ 0.543628 0.033399 0.335474 -0.57982
O_ O_ 0.891737 0.0944205 0.345711 -0.63271
O_ O_ 0.877185 0.0872561 0.428562 -0.57982
O_ O_ 0.746609 0.391302 0.0975115 -0.63271
O_ O_ 0.702853 0.346875 0.0334883 -0.57982
O_ O_ 0.84847 0.344645 0.10069 -0.63271
O_ O_ 0.88142 0.420579 0.0961211 -0.57982
O_ O_ 0.496077 0.399652 0.095195 -0.63271
O_ O_ 0.960689 0.465421 0.159512 -0.57982
O_ O_ 0.599401 0.396438 0.147028 -0.63271
O_ O_ 0.638446 0.401515 0.0734725 -0.57982
O_ O_ 0.768598 0.0881516 0.419106 -0.63271
O_ O_ 0.799813 0.150656 0.473497 -0.57982
O_ O_ 0.660821 0.148327 0.401356 -0.63271
O_ O_ 0.617004 0.0833438 0.414021 -0.57982
F_ F_ 0.937447 0.326443 0.428435 -0.20885
F_ F_ 0.924878 0.308465 0.342177 -0.20885
F_ F_ 0.865489 0.291121 0.389528 -0.20885
F_ F_ 0.817712 0.436649 0.326444 -0.20885
F_ F_ 0.817618 0.347924 0.314994 -0.20885
F_ F_ 0.879579 0.383232 0.291187 -0.20885
F_ F_ 0.576028 0.16848 0.0615407 -0.20885
F_ F_ 0.576415 0.181457 0.145591 -0.20885
F_ F_ 0.644249 0.192727 0.106427 -0.20885
F_ F_ 0.673732 0.0554882 0.180983 -0.20885
F_ F_ 0.683886 0.140645 0.181246 -0.20885
F_ F_ 0.614529 0.114771 0.201792 -0.20885
Zn Zn 0.590328 0.081565 0.84902 0.83971
Zn Zn 0.664822 0.343695 0.593273 0.83971
Zn Zn 0.910303 0.428259 0.652878 0.83971
Zn Zn 0.843896 0.155037 0.923533 0.83971
H_ H_ 0.658646 0.128529 0.803514 0.10394
H_ H_ 0.737592 0.0984216 0.759877 0.10394
H_ H_ 0.716352 0.455219 0.789934 0.10394
H_ H_ 0.646015 0.979685 0.845102 0.10394
H_ H_ 0.0266762 0.105906 0.737322 0.10394
H_ H_ 0.996321 0.183191 0.692713 0.10394
H_ H_ 0.536148 0.267368 0.845835 0.10394
H_ H_ 0.581102 0.185981 0.885222 0.10394
H_ H_ 0.547324 0.449403 0.903341 0.10394
H_ H_ 0.971565 0.376897 0.873475 0.10394
H_ H_ 0.855843 0.491151 0.91598 0.10394
H_ H_ 0.600849 0.280328 0.635827 0.10394
H_ H_ 0.000171051 0.263602 0.595554 0.10394
H_ H_ 0.536483 0.286935 0.953368 0.10394
H_ H_ 0.616795 0.327609 0.490888 0.10394
H_ H_ 0.724997 0.259677 0.607452 0.10394
H_ H_ 0.767525 0.214606 0.677884 0.10394
H_ H_ 0.711786 0.339005 0.7811 0.10394
H_ H_ 0.674817 0.38407 0.706556 0.10394
H_ H_ 0.713408 0.387881 0.953377 0.10394
H_ H_ 0.760756 0.405015 0.8847 0.10394
H_ H_ 0.894983 0.408319 0.990294 0.10394
H_ H_ 0.806458 0.410048 0.664645 0.10394
H_ H_ 0.731454 0.463161 0.690459 0.10394
H_ H_ 0.829438 0.052918 0.76927 0.10394
H_ H_ 0.905602 0.513521 0.742914 0.10394
H_ H_ 0.514491 0.379884 0.695 0.10394
H_ H_ 0.560358 0.30735 0.737305 0.10394
H_ H_ 0.907689 0.257988 0.72279 0.10394
H_ H_ 0.871102 0.342137 0.692432 0.10394
H_ H_ 0.963792 0.0514044 0.610618 0.10394
H_ H_ 0.517996 0.112132 0.580988 0.10394
H_ H_ 0.642031 -0.0040959999999999885 0.588076 0.10394
H_ H_ 0.94507 0.12641 0.959974 0.10394
H_ H_ 0.514036 0.200479 0.941425 0.10394
H_ H_ 0.915206 0.293543 0.532619 0.10394
H_ H_ 0.84329 0.256114 -0.011488999999999971 0.10394
H_ H_ 0.739183 0.193256 0.889944 0.10394
H_ H_ 0.696075 0.232717 0.815059 0.10394
H_ H_ 0.847932 0.256628 0.772502 0.10394
H_ H_ 0.884944 0.203878 0.848957 0.10394
H_ H_ 0.784829 0.113306 0.562521 0.10394
H_ H_ 0.729182 0.103595 0.623809 0.10394
H_ H_ 0.603113 0.0963435 0.503472 0.10394
C_ C_ 0.670593 0.0885763 0.795454 0.18167
C_ C_ 0.718264 0.0716806 0.777911 -0.15533
C_ C_ 0.734395 0.0189642 0.771991 0.02923
C_ C_ 0.702247 0.494043 0.793168 -0.15533
C_ C_ 0.663761 0.00345332 0.819974 0.18167
C_ C_ 0.526899 0.136219 0.775991 0.18167
C_ C_ 0.00988379 0.18719 0.732905 -0.15533
C_ C_ 0.515861 0.228536 0.774356 0.02923
C_ C_ 0.542464 0.230722 0.824134 -0.15533
C_ C_ 0.562123 0.184935 0.847614 0.18167
C_ C_ 0.501058 0.0493208 0.865452 0.69207
C_ C_ 0.968991 0.505255 0.870227 0.02923
C_ C_ 0.987443 0.453633 0.871463 -0.15533
C_ C_ 0.956383 0.416254 0.879014 -0.15533
C_ C_ 0.906507 0.430853 0.889812 0.02923
C_ C_ 0.89156 0.482058 0.8999 -0.15533
C_ C_ 0.919338 0.519668 0.882871 0.02923
C_ C_ 0.891776 0.0754896 0.87718 0.69207
C_ C_ 0.890367 0.332802 0.889352 0.69661
C_ C_ 0.58193 0.289496 0.599304 0.18167
C_ C_ 0.531007 0.274734 0.581806 -0.15533
C_ C_ 0.517312 0.271503 0.528496 0.02923
C_ C_ 0.547575 0.28576 0.991982 -0.15533
C_ C_ 0.594953 0.308253 0.514951 0.18167
C_ C_ 0.725392 0.277162 0.646335 0.18167
C_ C_ 0.749693 0.25025 0.687065 -0.15533
C_ C_ 0.747321 0.271536 0.738279 0.02923
C_ C_ 0.716206 0.318399 0.743212 -0.15533
C_ C_ 0.693571 0.34537 0.701587 0.18167
C_ C_ 0.738894 0.37551 0.548127 0.69207
C_ C_ 0.773891 0.38923 1.0110069 0.02923
C_ C_ 0.751726 0.389887 0.959513 -0.15533
C_ C_ 0.780265 0.398089 0.923044 -0.15533
C_ C_ 0.833685 0.400416 0.931645 0.02923
C_ C_ 0.855184 0.403546 0.982667 -0.15533
C_ C_ 0.826895 0.393146 0.0241787 0.02923
C_ C_ 0.850809 0.386209 0.573459 0.69207
C_ C_ 0.836213 0.395742 0.83293 0.69661
C_ C_ 0.813227 0.444619 0.686375 0.18167
C_ C_ 0.770056 0.473416 0.707366 -0.15533
C_ C_ 0.777912 0.510339 0.747256 0.02923
C_ C_ 0.823478 0.019312 0.741522 -0.15533
C_ C_ 0.866472 0.501723 0.731096 0.18167
C_ C_ 0.994052 0.362393 0.701966 0.18167
C_ C_ 0.518493 0.311376 0.730918 -0.15533
C_ C_ 0.986293 0.27918 0.734951 0.02923
C_ C_ 0.934426 0.288126 0.715919 -0.15533
C_ C_ 0.911923 0.335769 0.698379 0.18167
C_ C_ 0.985911 0.461717 0.612652 0.69207
C_ C_ 0.520269 0.98802 0.61455 0.02923
C_ C_ 0.499695 0.0400732 0.610922 -0.15533
C_ C_ 0.531651 0.0746906 0.593869 -0.15533
C_ C_ 0.585139 0.0587547 0.591188 0.02923
C_ C_ 0.601946 0.00740133 0.590461 -0.15533
C_ C_ 0.570854 0.972363 0.605797 0.02923
C_ C_ 0.592346 0.418571 0.610821 0.69207
C_ C_ 0.600729 0.155386 0.609338 0.69661
C_ C_ 0.938587 0.165958 0.963193 0.18167
C_ C_ 0.980399 0.193349 0.97913 -0.15533
C_ C_ 0.972712 0.237925 0.0100374 0.02923
C_ C_ 0.924114 0.259015 0.507718 -0.15533
C_ C_ 0.881505 0.238014 0.987378 0.18167
C_ C_ 0.762034 0.204495 0.861805 0.18167
C_ C_ 0.738276 0.228419 0.818495 -0.15533
C_ C_ 0.770168 0.245526 0.784327 0.02923
C_ C_ 0.823495 0.236589 0.794732 -0.15533
C_ C_ 0.844499 0.207093 0.836414 0.18167
C_ C_ 0.765318 0.117926 0.96109 0.69207
C_ C_ 0.731326 0.106876 0.49695 0.02923
C_ C_ 0.748255 0.10482 0.549437 -0.15533
C_ C_ 0.713876 0.102242 0.58377 -0.15533
C_ C_ 0.661034 0.0972896 0.567427 0.02923
C_ C_ 0.643297 0.101107 0.51528 -0.15533
C_ C_ 0.677673 0.109122 0.481869 0.02923
C_ C_ 0.654892 0.101723 0.928201 0.69207
C_ C_ 0.643373 0.087568 0.661972 0.69661
C_ C_ 0.866152 0.391168 0.88706 -0.30787
C_ C_ 0.622983 0.0991126 0.606871 -0.30787
N_ N_ 0.645023 0.0548067 0.814669 -0.32189
N_ N_ 0.558279 0.139545 0.820848 -0.32189
N_ N_ 0.61137 0.30861 0.566347 -0.32189
N_ N_ 0.695338 0.322331 0.65429 -0.32189
N_ N_ 0.858746 0.462997 0.694867 -0.32189
N_ N_ 0.942011 0.371734 0.689948 -0.32189
N_ N_ 0.891834 0.190972 0.960141 -0.32189
N_ N_ 0.812466 0.191361 0.867324 -0.32189
O_ O_ 0.00327217 0.0881824 0.890256 -0.63271
O_ O_ 0.541743 0.0389662 0.840749 -0.57982
O_ O_ 0.900442 0.105611 0.843913 -0.63271
O_ O_ 0.8716 0.0927361 0.919131 -0.57982
O_ O_ 0.741552 0.403595 0.591628 -0.63271
O_ O_ 0.70586 0.343028 0.540207 -0.57982
O_ O_ 0.849826 0.346541 0.600439 -0.63271
O_ O_ 0.878186 0.422534 0.588565 -0.57982
O_ O_ 0.479378 0.408239 0.593462 -0.63271
O_ O_ 0.954398 0.473497 0.64813 -0.57982
O_ O_ 0.583814 0.394963 0.650643 -0.63271
O_ O_ 0.634277 0.403978 0.588112 -0.57982
O_ O_ 0.767968 0.087635 0.920259 -0.63271
O_ O_ 0.800465 0.150895 0.971118 -0.57982
O_ O_ 0.659928 0.139728 0.89886 -0.63271
O_ O_ 0.619166 0.0730413 0.914464 -0.57982
F_ F_ 0.927246 0.323465 0.930583 -0.20885
F_ F_ 0.913775 0.319383 0.846112 -0.20885
F_ F_ 0.851661 0.300525 0.890794 -0.20885
F_ F_ 0.809125 0.443569 0.830403 -0.20885
F_ F_ 0.80302 0.358599 0.822846 -0.20885
F_ F_ 0.871793 0.394833 0.796895 -0.20885
F_ F_ 0.571387 0.16322 0.565402 -0.20885
F_ F_ 0.573585 0.167735 0.652233 -0.20885
F_ F_ 0.63869 0.18884 0.617986 -0.20885
F_ F_ 0.67912 0.048549 0.65919 -0.20885
F_ F_ 0.666052 0.125136 0.690492 -0.20885
F_ F_ 0.604696 0.075618 0.688683 -0.20885
Zn Zn 0.582028 0.587406 0.341448 0.83971
Zn Zn 0.658354 0.844703 0.076222 0.83971
Zn Zn 0.914678 0.920567 0.151802 0.83971
Zn Zn 0.82888 0.651481 0.409129 0.83971
H_ H_ 0.659507 0.637094 0.296982 0.10394
H_ H_ 0.747672 0.603997 0.272729 0.10394
H_ H_ 0.708087 0.947901 0.275257 0.10394
H_ H_ 0.626902 0.491011 0.324002 0.10394
H_ H_ 0.0153363 0.597097 0.254713 0.10394
H_ H_ 0.990223 0.669726 0.198646 0.10394
H_ H_ 0.540383 0.774842 0.315185 0.10394
H_ H_ 0.564929 0.703079 0.368475 0.10394
H_ H_ 0.530152 0.950724 0.370941 0.10394
H_ H_ 0.977467 0.87598 0.361836 0.10394
H_ H_ 0.858722 0.982768 0.40706 0.10394
H_ H_ 0.582944 0.80271 0.121862 0.10394
H_ H_ 1.0104106 0.755743 0.099426 0.10394
H_ H_ 0.543209 0.791099 0.449331 0.10394
H_ H_ 0.606703 0.83749 0.971856 0.10394
H_ H_ 0.708673 0.744136 0.0969945 0.10394
H_ H_ 0.738728 0.699674 0.175456 0.10394
H_ H_ 0.706809 0.837846 0.264813 0.10394
H_ H_ 0.676356 0.882421 0.185114 0.10394
H_ H_ 0.716555 0.88323 0.44695 0.10394
H_ H_ 0.774155 0.892882 0.377964 0.10394
H_ H_ 0.897531 0.907677 0.489422 0.10394
H_ H_ 0.811261 0.902504 0.153106 0.10394
H_ H_ 0.735624 0.95253 0.189177 0.10394
H_ H_ 0.829254 0.545645 0.285205 0.10394
H_ H_ 0.905763 1.0106302 0.22189 0.10394
H_ H_ 0.509016 0.88785 0.190084 0.10394
H_ H_ 0.550918 0.804666 0.221872 0.10394
H_ H_ 0.908183 0.753668 0.230032 0.10394
H_ H_ 0.873758 0.832822 0.185477 0.10394
H_ H_ 0.963791 0.548345 0.0926347 0.10394
H_ H_ 0.517613 0.608683 0.0883428 0.10394
H_ H_ 0.64773 0.503028 0.0807382 0.10394
H_ H_ 0.929254 0.671478 0.380985 0.10394
H_ H_ 0.518961 0.697617 0.441012 0.10394
H_ H_ 0.911755 0.788568 0.0351075 0.10394
H_ H_ 0.845702 0.70934 0.51322 0.10394
H_ H_ 0.725996 0.698433 0.384569 0.10394
H_ H_ 0.681602 0.738303 0.308746 0.10394
H_ H_ 0.822621 0.75289 0.253246 0.10394
H_ H_ 0.867954 0.698676 0.32204 0.10394
H_ H_ 0.782014 0.630852 0.0547092 0.10394
H_ H_ 0.725164 0.615977 0.11816 0.10394
H_ H_ 0.608862 0.583648 -0.00154733 0.10394
C_ C_ 0.671141 0.598081 0.294089 0.18167
C_ C_ 0.717321 0.577689 0.27746 -0.15533
C_ C_ 0.730495 0.525452 0.273684 0.02923
C_ C_ 0.703291 0.986106 0.286246 -0.15533
C_ C_ 0.650267 0.514905 0.307866 0.18167
C_ C_ 0.524888 0.63753 0.260495 0.18167
C_ C_ 0.00298235 0.677177 0.240813 -0.15533
C_ C_ 0.508166 0.728778 0.250094 0.02923
C_ C_ 0.532728 0.736914 0.29956 -0.15533
C_ C_ 0.555682 0.693266 0.327998 0.18167
C_ C_ 0.509955 0.540858 0.373602 0.69207
C_ C_ 0.970808 0.00256705 0.363689 0.02923
C_ C_ -0.011850000000000027 0.953545 0.352987 -0.15533
C_ C_ 0.959347 0.913892 0.363537 -0.15533
C_ C_ 0.91559 0.923068 0.390866 0.02923
C_ C_ 0.898725 0.975697 0.402278 -0.15533
C_ C_ 0.925184 0.0157332 0.38699 0.02923
C_ C_ 0.892717 0.570621 0.384373 0.69207
C_ C_ 0.901668 0.826261 0.393027 0.69661
C_ C_ 0.567406 0.805709 0.0817006 0.18167
C_ C_ 0.523763 0.782192 0.0645978 -0.15533
C_ C_ 0.507397 0.782411 0.0121572 0.02923
C_ C_ 0.554565 0.78487 0.490111 -0.15533
C_ C_ 0.585889 0.817912 -0.0035089999999999844 0.18167
C_ C_ 0.713754 0.766496 0.13397 0.18167
C_ C_ 0.725481 0.739318 0.178038 -0.15533
C_ C_ 0.724343 0.76489 0.226556 0.02923
C_ C_ 0.707994 0.816996 0.227893 -0.15533
C_ C_ 0.68755 0.841055 0.183277 0.18167
C_ C_ 0.741192 0.869685 0.0392039 0.69207
C_ C_ 0.779527 0.872347 0.506343 0.02923
C_ C_ 0.758727 0.877834 0.454997 -0.15533
C_ C_ 0.789186 0.885877 0.416152 -0.15533
C_ C_ 0.841841 0.885699 0.428935 0.02923
C_ C_ 0.860413 0.894384 0.480016 -0.15533
C_ C_ 0.831754 0.88318 0.518851 0.02923
C_ C_ 0.854012 0.880268 0.0688945 0.69207
C_ C_ 0.852403 0.881558 0.328914 0.69661
C_ C_ 0.815823 0.938193 0.177891 0.18167
C_ C_ 0.773657 0.964711 0.198598 -0.15533
C_ C_ 0.780936 1.00177501 0.238896 0.02923
C_ C_ 0.820927 0.519566 0.255081 -0.15533
C_ C_ 0.868536 0.99614 0.221141 0.18167
C_ C_ 0.995838 0.851381 0.192978 0.18167
C_ C_ 0.510555 0.811659 0.210441 -0.15533
C_ C_ 0.985387 0.774459 0.235114 0.02923
C_ C_ 0.931964 0.783127 0.221664 -0.15533
C_ C_ 0.913295 0.822349 0.188517 0.18167
C_ C_ 0.992541 0.958638 0.120583 0.69207
C_ C_ 0.526068 0.484591 0.107191 0.02923
C_ C_ 0.506433 0.535514 0.101329 -0.15533
C_ C_ 0.537772 0.573067 0.0979017 -0.15533
C_ C_ 0.589923 0.564786 0.0946476 0.02923
C_ C_ 0.61004 0.512064 0.0905417 -0.15533
C_ C_ 0.579432 0.472475 0.0978953 0.02923
C_ C_ 0.595036 0.922125 0.109048 0.69207
C_ C_ 0.601751 0.662768 0.103037 0.69661
C_ C_ 0.926608 0.681495 0.421483 0.18167
C_ C_ 0.968992 0.700379 0.444755 -0.15533
C_ C_ 0.966455 0.731691 0.490178 0.02923
C_ C_ 0.920531 0.756866 1.00987173 -0.15533
C_ C_ 0.87964 0.711828 0.490453 0.18167
C_ C_ 0.745771 0.70382 0.351732 0.18167
C_ C_ 0.722973 0.732375 0.313625 -0.15533
C_ C_ 0.748417 0.739948 0.272279 0.02923
C_ C_ 0.802102 0.734571 0.277906 -0.15533
C_ C_ 0.825015 0.707903 0.319474 0.18167
C_ C_ 0.755817 0.622671 0.449735 0.69207
C_ C_ 0.727048 0.613397 0.988899 0.02923
C_ C_ 0.745793 0.615249 0.0414403 -0.15533
C_ C_ 0.713926 0.609214 0.079073 -0.15533
C_ C_ 0.663721 0.600748 0.0662621 0.02923
C_ C_ 0.644933 0.598351 0.0135019 -0.15533
C_ C_ 0.67347 0.609438 0.973856 0.02923
C_ C_ 0.640685 0.611437 0.423248 0.69207
C_ C_ 0.647768 0.603854 0.165057 0.69661
C_ C_ 0.876914 0.880227 0.386376 -0.30787
C_ C_ 0.625699 0.608726 0.107489 -0.30787
N_ N_ 0.637346 0.565777 0.303635 -0.32189
N_ N_ 0.546745 0.64479 0.309282 -0.32189
N_ N_ 0.599643 0.816995 0.0488885 -0.32189
N_ N_ 0.693451 0.815811 0.137211 -0.32189
N_ N_ 0.861506 0.952389 0.191664 -0.32189
N_ N_ 0.945806 0.856058 0.174995 -0.32189
N_ N_ 0.87995 0.690314 0.441178 -0.32189
N_ N_ 0.79515 0.686574 0.350012 -0.32189
O_ O_ 0.00140679 0.589616 0.398178 -0.63271
O_ O_ 0.539212 0.538614 0.337862 -0.57982
O_ O_ 0.894928 0.596146 0.343006 -0.63271
O_ O_ 0.857801 0.58736 0.41429 -0.57982
O_ O_ 0.740675 0.899178 0.0815793 -0.63271
O_ O_ 0.702598 0.84425 0.0262947 -0.57982
O_ O_ 0.855336 0.838543 0.0930475 -0.63271
O_ O_ 0.878763 0.918718 0.0903429 -0.57982
O_ O_ 0.480767 0.916327 0.0974723 -0.63271
O_ O_ 0.959577 0.969388 0.152143 -0.57982
O_ O_ 0.590815 0.898022 0.150277 -0.63271
O_ O_ 0.632977 0.908023 0.0821643 -0.57982
O_ O_ 0.748473 0.604719 0.40229 -0.63271
O_ O_ 0.790355 0.652087 0.462168 -0.57982
O_ O_ 0.639752 0.652445 0.397372 -0.63271
O_ O_ 0.616066 0.573728 0.403586 -0.57982
F_ F_ 0.94094 0.822039 0.43658 -0.20885
F_ F_ 0.929833 0.803563 0.353526 -0.20885
F_ F_ 0.868255 0.78861 0.395251 -0.20885
F_ F_ 0.827606 0.928574 0.315363 -0.20885
F_ F_ 0.816215 0.847595 0.31515 -0.20885
F_ F_ 0.890759 0.872028 0.298791 -0.20885
F_ F_ 0.568503 0.667378 0.0605703 -0.20885
F_ F_ 0.569844 0.676847 0.142391 -0.20885
F_ F_ 0.635759 0.69853 0.105727 -0.20885
F_ F_ 0.682537 0.560656 0.174804 -0.20885
F_ F_ 0.672653 0.644328 0.188447 -0.20885
F_ F_ 0.607925 0.598583 0.193913 -0.20885
Zn Zn 0.585545 0.588896 0.844869 0.83971
Zn Zn 0.667331 0.841104 0.580431 0.83971
Zn Zn 0.910183 0.918201 0.653859 0.83971
Zn Zn 0.839301 0.651749 0.919656 0.83971
H_ H_ 0.654775 0.636282 0.789692 0.10394
H_ H_ 0.741179 0.605449 0.764465 0.10394
H_ H_ 0.718732 0.945312 0.799373 0.10394
H_ H_ 0.626886 0.490925 0.820018 0.10394
H_ H_ 0.030343 0.595194 0.745875 0.10394
H_ H_ 0.99790258 0.673387 0.696373 0.10394
H_ H_ 0.529014 0.773192 0.83293 0.10394
H_ H_ 0.573786 0.693388 0.87604 0.10394
H_ H_ 0.529258 0.949598 0.87188 0.10394
H_ H_ 0.983512 0.881622 0.868659 0.10394
H_ H_ 0.847661 0.986037 0.882991 0.10394
H_ H_ 0.579756 0.802621 0.633817 0.10394
H_ H_ -0.0005220000000000224 0.75318 0.589808 0.10394
H_ H_ 0.531534 0.798046 0.938899 0.10394
H_ H_ 0.627092 0.812922 0.487834 0.10394
H_ H_ 0.730557 0.75739 0.602668 0.10394
H_ H_ 0.772069 0.714171 0.674642 0.10394
H_ H_ 0.713271 0.831987 0.772488 0.10394
H_ H_ 0.667247 0.877049 0.695668 0.10394
H_ H_ 0.716523 0.881732 0.940367 0.10394
H_ H_ 0.769064 0.900641 0.877606 0.10394
H_ H_ 0.905817 0.886002 0.982641 0.10394
H_ H_ 0.812938 0.893334 0.662534 0.10394
H_ H_ 0.732384 0.939112 0.699469 0.10394
H_ H_ 0.838517 0.552072 0.791048 0.10394
H_ H_ 0.899385 1.0141223 0.717526 0.10394
H_ H_ 0.506256 0.884375 0.695093 0.10394
H_ H_ 0.548416 0.809376 0.730032 0.10394
H_ H_ 0.914479 0.745118 0.71044 0.10394
H_ H_ 0.874777 0.828242 0.682997 0.10394
H_ H_ 0.962404 0.566079 0.608601 0.10394
H_ H_ 0.513223 0.61445 0.610671 0.10394
H_ H_ 0.639811 0.501587 0.584424 0.10394
H_ H_ 0.945319 0.659662 0.903819 0.10394
H_ H_ 0.514978 0.70275 0.940955 0.10394
H_ H_ 0.913639 0.763816 0.544297 0.10394
H_ H_ 0.838511 0.747985 0.987531 0.10394
H_ H_ 0.734245 0.691843 0.885457 0.10394
H_ H_ 0.694989 0.731419 0.810166 0.10394
H_ H_ 0.841762 0.72823 0.754978 0.10394
H_ H_ 0.881832 0.701566 0.835773 0.10394
H_ H_ 0.778647 0.627204 0.549403 0.10394
H_ H_ 0.729242 0.60812 0.615695 0.10394
H_ H_ 0.600976 0.595509 0.508187 0.10394
C_ C_ 0.669483 0.597195 0.791088 0.18167
C_ C_ 0.717823 0.579174 0.77905 -0.15533
C_ C_ 0.734801 0.528589 0.777648 0.02923
C_ C_ 0.705633 0.98407 0.794894 -0.15533
C_ C_ 0.653482 0.513254 0.80568 0.18167
C_ C_ 0.518456 0.640492 0.767334 0.18167
C_ C_ 0.00899213 0.677113 0.736601 -0.15533
C_ C_ 0.500905 0.730127 0.765385 0.02923
C_ C_ 0.529631 0.735958 0.813725 -0.15533
C_ C_ 0.551643 0.69102 0.839049 0.18167
C_ C_ 0.512594 0.547959 0.872253 0.69207
C_ C_ 0.969105 0.0102759 0.860868 0.02923
C_ C_ -0.011695000000000011 0.959523 0.854137 -0.15533
C_ C_ 0.962416 0.920499 0.870238 -0.15533
C_ C_ 0.910449 0.927635 0.87345 0.02923
C_ C_ 0.887221 0.978198 0.876559 -0.15533
C_ C_ 0.915858 0.0196205 0.87276 0.02923
C_ C_ 0.897474 0.572794 0.886354 0.69207
C_ C_ 0.90582 0.827877 0.87827 0.69661
C_ C_ 0.575911 0.795066 0.59427 0.18167
C_ C_ 0.528736 0.77995 0.5734 -0.15533
C_ C_ 0.518962 0.768746 0.520947 0.02923
C_ C_ 0.539633 0.800562 0.978609 -0.15533
C_ C_ 0.602216 0.796029 0.511481 0.18167
C_ C_ 0.725922 0.774225 0.640287 0.18167
C_ C_ 0.748638 0.747519 0.682766 -0.15533
C_ C_ 0.741027 0.765514 0.731146 0.02923
C_ C_ 0.710712 0.811044 0.73584 -0.15533
C_ C_ 0.684964 0.836902 0.692974 0.18167
C_ C_ 0.745684 0.862073 0.543095 0.69207
C_ C_ 0.777695 0.877574 1.00222606 0.02923
C_ C_ 0.757708 0.882925 0.951935 -0.15533
C_ C_ 0.787155 0.895087 0.915336 -0.15533
C_ C_ 0.84038 0.888223 0.923649 0.02923
C_ C_ 0.862518 0.886116 0.975648 -0.15533
C_ C_ 0.833031 0.880891 0.0141659 0.02923
C_ C_ 0.856016 0.883127 0.571481 0.69207
C_ C_ 0.843764 0.879376 0.822163 0.69661
C_ C_ 0.813649 0.931871 0.683141 0.18167
C_ C_ 0.770614 0.95454 0.705144 -0.15533
C_ C_ 0.774555 8.999999999992347e-05 0.739239 0.02923
C_ C_ 0.827319 0.527546 0.758015 -0.15533
C_ C_ 0.862608 0.99765 0.713898 0.18167
C_ C_ 0.99368 0.85697 0.702379 0.18167
C_ C_ 0.5073 0.813921 0.727455 -0.15533
C_ C_ 0.988121 0.771266 0.73164 0.02923
C_ C_ 0.937421 0.774923 0.708487 -0.15533
C_ C_ 0.915398 0.819911 0.686466 0.18167
C_ C_ 0.985402 0.954928 0.61901 0.69207
C_ C_ 0.517711 0.487257 0.611698 0.02923
C_ C_ 0.499185 0.537173 0.611397 -0.15533
C_ C_ 0.530584 0.576869 0.613468 -0.15533
C_ C_ 0.581545 0.564481 0.600292 0.02923
C_ C_ 0.601115 0.511661 0.597833 -0.15533
C_ C_ 0.57003 0.472549 0.606836 0.02923
C_ C_ 0.595958 0.917432 0.6074 0.69207
C_ C_ 0.592655 0.661055 0.60946 0.69661
C_ C_ 0.937986 0.684286 0.935543 0.18167
C_ C_ 0.979652 0.706787 0.960599 -0.15533
C_ C_ 0.970834 0.744394 0.997991 0.02923
C_ C_ 0.919346 0.740577 0.510595 -0.15533
C_ C_ 0.87856 0.73404 0.984136 0.18167
C_ C_ 0.757875 0.700692 0.857647 0.18167
C_ C_ 0.734777 0.724116 0.814846 -0.15533
C_ C_ 0.764538 0.734561 0.775564 0.02923
C_ C_ 0.816389 0.721142 0.782211 -0.15533
C_ C_ 0.839474 0.705614 0.830514 0.18167
C_ C_ 0.763192 0.620376 0.952596 0.69207
C_ C_ 0.721344 0.613213 0.487898 0.02923
C_ C_ 0.740491 0.617963 0.540615 -0.15533
C_ C_ 0.710029 0.608404 0.579229 -0.15533
C_ C_ 0.660044 0.597801 0.567543 0.02923
C_ C_ 0.637686 0.600825 0.516919 -0.15533
C_ C_ 0.667183 0.609092 0.476912 0.02923
C_ C_ 0.654077 0.605919 0.919613 0.69207
C_ C_ 0.64667 0.597775 0.664071 0.69661
C_ C_ 0.875877 0.883894 0.877496 -0.30787
C_ C_ 0.621193 0.60493 0.608852 -0.30787
N_ N_ 0.637935 0.563364 0.802728 -0.32189
N_ N_ 0.545496 0.645087 0.815556 -0.32189
N_ N_ 0.611758 0.802553 0.565382 -0.32189
N_ N_ 0.696198 0.819161 0.645666 -0.32189
N_ N_ 0.858672 0.949999 0.689863 -0.32189
N_ N_ 0.943404 0.858577 0.682485 -0.32189
N_ N_ 0.888713 0.694193 0.951413 -0.32189
N_ N_ 0.810523 0.688018 0.86303 -0.32189
O_ O_ 1.00103649 0.59111 0.889355 -0.63271
O_ O_ 0.547079 0.537199 0.839926 -0.57982
O_ O_ 0.894481 0.603112 0.847043 -0.63271
O_ O_ 0.872042 0.587109 0.925003 -0.57982
O_ O_ 0.742804 0.890334 0.586439 -0.63271
O_ O_ 0.715198 0.827514 0.535174 -0.57982
O_ O_ 0.860476 0.843938 0.598315 -0.63271
O_ O_ 0.883726 0.919172 0.588744 -0.57982
O_ O_ 0.487715 0.904285 0.597949 -0.63271
O_ O_ 0.954526 0.96219 0.65501 -0.57982
O_ O_ 0.593017 0.893278 0.648171 -0.63271
O_ O_ 0.627701 0.899853 0.574438 -0.57982
O_ O_ 0.76837 0.58952 0.912662 -0.63271
O_ O_ 0.792014 0.656621 0.961081 -0.57982
O_ O_ 0.65485 0.647404 0.89383 -0.63271
O_ O_ 0.618334 0.576582 0.904855 -0.57982
F_ F_ 0.943646 0.825311 0.920489 -0.20885
F_ F_ 0.932457 0.808419 0.839339 -0.20885
F_ F_ 0.87237 0.793141 0.883559 -0.20885
F_ F_ 0.815013 0.924978 0.814134 -0.20885
F_ F_ 0.810757 0.840135 0.81892 -0.20885
F_ F_ 0.874807 0.878042 0.781443 -0.20885
F_ F_ 0.561902 0.672794 0.565365 -0.20885
F_ F_ 0.563507 0.677225 0.646207 -0.20885
F_ F_ 0.62901 0.695683 0.613014 -0.20885
F_ F_ 0.680905 0.553944 0.668392 -0.20885
F_ F_ 0.670587 0.638279 0.684312 -0.20885
F_ F_ 0.611476 0.592014 0.697576 -0.20885
_cell_length_a 26.508
_cell_length_b 26.37200000322088
_cell_length_c 26.311999743092066
_cell_angle_alpha 93.74100058972084
_cell_angle_beta 96.04100104955006
_cell_angle_gamma 83.6869992558723
_symmetry_space_group_name_H-M         'P 1'
_symmetry_Int_Tables_number            1
loop_
_symmetry_equiv_pos_as_xyz
   'x, y, z'
                         
loop_
_atom_site_label
_atom_site_type_symbol
_atom_site_fract_x 
_atom_site_fract_y
_atom_site_fract_z
_atom_site_charge
Zn Zn 0.0926828 0.0878519 0.345972 0.83971
Zn Zn 0.165242 0.341201 0.0848153 0.83971
Zn Zn 0.409907 0.412933 0.156755 0.83971
Zn Zn 0.345818 0.16107 0.418333 0.83971
H_ H_ 0.158779 0.132362 0.293222 0.10394
H_ H_ 0.248995 0.105247 0.27028 0.10394
H_ H_ 0.21933 0.454966 0.310268 0.10394
H_ H_ 0.138075 0.984591 0.323389 0.10394
H_ H_ 0.527948 0.0950037 0.256576 0.10394
H_ H_ 0.495588 0.169588 0.207383 0.10394
H_ H_ 0.0305685 0.269737 0.344951 0.10394
H_ H_ 0.0720309 0.193902 0.383143 0.10394
H_ H_ 0.0298788 0.444795 0.368158 0.10394
H_ H_ 0.479011 0.377133 0.37399 0.10394
H_ H_ 0.361755 0.490942 0.42581 0.10394
H_ H_ 0.0853051 0.307774 0.137732 0.10394
H_ H_ 0.512981 0.245876 0.104899 0.10394
H_ H_ 0.0443909 0.283126 0.447154 0.10394
H_ H_ 0.134488 0.279162 0.990917 0.10394
H_ H_ 0.224334 0.255692 0.100191 0.10394
H_ H_ 0.253086 0.204166 0.173326 0.10394
H_ H_ 0.217761 0.336631 0.269746 0.10394
H_ H_ 0.183063 0.382933 0.196074 0.10394
H_ H_ 0.222504 0.348939 0.446149 0.10394
H_ H_ 0.269799 0.371362 0.380399 0.10394
H_ H_ 0.39507 0.403203 0.492579 0.10394
H_ H_ 0.306115 0.401368 0.161117 0.10394
H_ H_ 0.231309 0.452696 0.192607 0.10394
H_ H_ 0.333791 0.0617922 0.274332 0.10394
H_ H_ 0.403621 0.507651 0.233951 0.10394
H_ H_ 0.00906771 0.389511 0.206183 0.10394
H_ H_ 0.0490934 0.32109 0.262331 0.10394
H_ H_ 0.413846 0.246087 0.231367 0.10394
H_ H_ 0.371162 0.327157 0.20171 0.10394
H_ H_ 0.467526 0.0596655 0.130778 0.10394
H_ H_ 0.0223592 0.123345 0.101806 0.10394
H_ H_ 0.151128 0.0114585 0.0908601 0.10394
H_ H_ 0.44516 0.162581 0.402963 0.10394
H_ H_ 0.0162437 0.180867 0.45909 0.10394
H_ H_ 0.418443 0.274005 0.0496419 0.10394
H_ H_ 0.347638 0.238512 0.505567 0.10394
H_ H_ 0.244416 0.210306 0.39636 0.10394
H_ H_ 0.199472 0.255461 0.321064 0.10394
H_ H_ 0.332015 0.211412 0.239018 0.10394
H_ H_ 0.381445 0.19541 0.328924 0.10394
H_ H_ 0.281062 0.130339 0.0496426 0.10394
H_ H_ 0.23335 0.11624 0.11568 0.10394
H_ H_ 0.102824 0.0969408 0.00460592 0.10394
C_ C_ 0.177267 0.0937718 0.299849 0.18167
C_ C_ 0.223861 0.0787351 0.280844 -0.15533
C_ C_ 0.240539 0.0263978 0.277319 0.02923
C_ C_ 0.201421 0.487944 0.293977 -0.15533
C_ C_ 0.162611 0.0109309 0.313648 0.18167
C_ C_ 0.0383946 0.140989 0.26891 0.18167
C_ C_ 0.510427 0.174712 0.248215 -0.15533
C_ C_ 0.0066201 0.233482 0.274177 0.02923
C_ C_ 0.0265976 0.234917 0.324245 -0.15533
C_ C_ 0.049854 0.190958 0.346636 0.18167
C_ C_ 0.00570895 0.0449321 0.362572 0.69207
C_ C_ 0.472579 0.504619 0.372405 0.02923
C_ C_ 0.491889 0.45179 0.365306 -0.15533
C_ C_ 0.461545 0.41579 0.376011 -0.15533
C_ C_ 0.411265 0.428221 0.39495 0.02923
C_ C_ 0.397454 0.481021 0.407799 -0.15533
C_ C_ 0.424542 0.517412 0.39193 0.02923
C_ C_ 0.393287 0.0735153 0.373811 0.69207
C_ C_ 0.397251 0.331863 0.389121 0.69661
C_ C_ 0.0744922 0.300485 0.0965258 0.18167
C_ C_ 0.028995 0.282688 0.0783042 -0.15533
C_ C_ 0.017282 0.268945 0.0269312 0.02923
C_ C_ 0.04868 0.28836 0.487908 -0.15533
C_ C_ 0.101253 0.289182 0.0135406 0.18167
C_ C_ 0.221674 0.272119 0.138193 0.18167
C_ C_ 0.236509 0.242712 0.179833 -0.15533
C_ C_ 0.238872 0.267523 0.230214 0.02923
C_ C_ 0.222754 0.319757 0.232585 -0.15533
C_ C_ 0.199509 0.343737 0.190864 0.18167
C_ C_ 0.243881 0.363616 0.0458529 0.69207
C_ C_ 0.274437 0.372686 0.509885 0.02923
C_ C_ 0.254744 0.370009 0.458172 -0.15533
C_ C_ 0.28399 0.37835 0.419803 -0.15533
C_ C_ 0.334001 0.393867 0.43104 0.02923
C_ C_ 0.354504 0.398448 0.483055 -0.15533
C_ C_ 0.325828 0.386453 0.523833 0.02923
C_ C_ 0.351554 0.376312 0.0756949 0.69207
C_ C_ 0.345869 0.39116 0.330847 0.69661
C_ C_ 0.310456 0.437584 0.181926 0.18167
C_ C_ 0.269679 0.461595 0.208992 -0.15533
C_ C_ 0.277752 0.497194 0.248363 0.02923
C_ C_ 0.328379 0.0271953 0.249678 -0.15533
C_ C_ 0.367771 0.491706 0.229153 0.18167
C_ C_ 0.493929 0.348794 0.202932 0.18167
C_ C_ 0.0113417 0.321383 0.246312 -0.15533
C_ C_ 0.489641 0.266139 0.236594 0.02923
C_ C_ 0.437043 0.274331 0.224465 -0.15533
C_ C_ 0.413239 0.317454 0.202982 0.18167
C_ C_ 0.493433 0.444226 0.121905 0.69207
C_ C_ 0.0302761 0.995004 0.113022 0.02923
C_ C_ 0.0104364 0.048019 0.113252 -0.15533
C_ C_ 0.0399532 0.0860884 0.10585 -0.15533
C_ C_ 0.0918024 0.0735535 0.101573 0.02923
C_ C_ 0.112742 0.021605 0.0961876 -0.15533
C_ C_ 0.0803675 0.981091 0.100081 0.02923
C_ C_ 0.0998035 0.421592 0.111673 0.69207
C_ C_ 0.107219 0.168815 0.117199 0.69661
C_ C_ 0.440725 0.184201 0.439512 0.18167
C_ C_ 0.481375 0.205855 0.46624 -0.15533
C_ C_ 0.475003 0.244231 0.50449 0.02923
C_ C_ 0.423749 0.247898 0.0189556 -0.15533
C_ C_ 0.386704 0.231033 0.493144 0.18167
C_ C_ 0.262977 0.211049 0.360755 0.18167
C_ C_ 0.236017 0.236512 0.318638 -0.15533
C_ C_ 0.263872 0.241249 0.276629 0.02923
C_ C_ 0.314344 0.218636 0.275624 -0.15533
C_ C_ 0.340606 0.200724 0.320693 0.18167
C_ C_ 0.268115 0.124651 0.452729 0.69207
C_ C_ 0.22083 0.131502 0.988324 0.02923
C_ C_ 0.24194 0.12874 0.0399896 -0.15533
C_ C_ 0.213679 0.117348 0.0770926 -0.15533
C_ C_ 0.16222 0.108157 0.0685881 0.02923
C_ C_ 0.141169 0.104601 0.0153863 -0.15533
C_ C_ 0.167751 0.12298 0.977905 0.02923
C_ C_ 0.158034 0.108881 0.429005 0.69207
C_ C_ 0.158902 0.101483 0.165927 0.69661
C_ C_ 0.371439 0.387382 0.389504 -0.30787
C_ C_ 0.129363 0.114014 0.11386 -0.30787
N_ N_ 0.146376 0.0615536 0.310177 -0.32189
N_ N_ 0.0587712 0.146713 0.317475 -0.32189
N_ N_ 0.110855 0.30195 0.0633885 -0.32189
N_ N_ 0.198129 0.31905 0.143988 -0.32189
N_ N_ 0.359102 0.453003 0.1928 -0.32189
N_ N_ 0.441429 0.351832 0.189127 -0.32189
N_ N_ 0.394544 0.197965 0.453096 -0.32189
N_ N_ 0.31368 0.193539 0.360598 -0.32189
O_ O_ 0.507241 0.0872202 0.394787 -0.63271
O_ O_ 0.0431433 0.0410134 0.334084 -0.57982
O_ O_ 0.403377 0.100343 0.337862 -0.63271
O_ O_ 0.378967 0.096375 0.416172 -0.57982
O_ O_ 0.250326 0.382341 0.093897 -0.63271
O_ O_ 0.207314 0.33567 0.0329287 -0.57982
O_ O_ 0.35512 0.335437 0.102896 -0.63271
O_ O_ 0.379535 0.412067 0.0927292 -0.57982
O_ O_ 0.985856 0.408395 0.100645 -0.63271
O_ O_ 0.458359 0.45628 0.15351 -0.57982
O_ O_ 0.0969227 0.398307 0.154701 -0.63271
O_ O_ 0.132111 0.40476 0.0805671 -0.57982
O_ O_ 0.2598 0.104524 0.407207 -0.63271
O_ O_ 0.300372 0.157133 0.461931 -0.57982
O_ O_ 0.159921 0.15229 0.40623 -0.63271
O_ O_ 0.125941 0.0781095 0.40741 -0.57982
F_ F_ 0.436899 0.328925 0.428166 -0.20885
F_ F_ 0.417646 0.30495 0.35028 -0.20885
F_ F_ 0.362344 0.299585 0.397366 -0.20885
F_ F_ 0.314453 0.437584 0.330035 -0.20885
F_ F_ 0.322239 0.349724 0.309949 -0.20885
F_ F_ 0.381962 0.397568 0.296537 -0.20885
F_ F_ 0.0729112 0.181269 0.076896 -0.20885
F_ F_ 0.0854767 0.183723 0.161698 -0.20885
F_ F_ 0.143212 0.201171 0.112803 -0.20885
F_ F_ 0.194076 0.0576059 0.164114 -0.20885
F_ F_ 0.180311 0.139922 0.19351 -0.20885
F_ F_ 0.123888 0.08888 0.195664 -0.20885
Zn Zn 0.0826492 0.0922957 0.840605 0.83971
Zn Zn 0.154422 0.352622 0.58291 0.83971
Zn Zn 0.408112 0.415061 0.658377 0.83971
Zn Zn 0.336931 0.16097 0.914711 0.83971
H_ H_ 0.169273 0.135927 0.797251 0.10394
H_ H_ 0.255182 0.0995843 0.780847 0.10394
H_ H_ 0.219926 0.446489 0.806177 0.10394
H_ H_ 0.135277 0.993042 0.839788 0.10394
H_ H_ 0.516175 0.0990862 0.764127 0.10394
H_ H_ 0.483098 0.176568 0.715664 0.10394
H_ H_ 0.00262186 0.26865 0.838202 0.10394
H_ H_ 0.0409353 0.185969 0.876468 0.10394
H_ H_ 0.0228213 0.440835 0.853488 0.10394
H_ H_ 0.493143 0.379571 0.895541 0.10394
H_ H_ 0.36245 0.484928 0.911991 0.10394
H_ H_ 0.0764786 0.305158 0.633218 0.10394
H_ H_ 0.50899 0.256357 0.608837 0.10394
H_ H_ 0.0505212 0.254699 0.956109 0.10394
H_ H_ 0.110535 0.33883 0.489795 0.10394
H_ H_ 0.204542 0.249262 0.60512 0.10394
H_ H_ 0.250565 0.214161 0.681401 0.10394
H_ H_ 0.210972 0.353889 0.767737 0.10394
H_ H_ 0.168169 0.390881 0.689727 0.10394
H_ H_ 0.220951 0.370049 0.948695 0.10394
H_ H_ 0.271982 0.383288 0.879944 0.10394
H_ H_ 0.399942 0.397457 0.996406 0.10394
H_ H_ 0.309903 0.395704 0.666965 0.10394
H_ H_ 0.242678 0.43419 0.715176 0.10394
H_ H_ 0.336362 0.0337695 0.784678 0.10394
H_ H_ 0.407608 0.505482 0.734973 0.10394
H_ H_ 0.0164301 0.392972 0.701493 0.10394
H_ H_ 0.0568208 0.312848 0.736415 0.10394
H_ H_ 0.411808 0.255218 0.749827 0.10394
H_ H_ 0.371878 0.321761 0.701818 0.10394
H_ H_ 0.459754 0.0525637 0.618 0.10394
H_ H_ 0.0193308 0.114981 0.590911 0.10394
H_ H_ 0.150132 0.00392602 0.60419 0.10394
H_ H_ 0.437683 0.162561 0.894578 0.10394
H_ H_ 0.0197258 0.172624 0.979723 0.10394
H_ H_ 0.418092 0.285905 0.550284 0.10394
H_ H_ 0.34429 0.23609 0.00278062 0.10394
H_ H_ 0.247203 0.226463 0.897985 0.10394
H_ H_ 0.203493 0.277181 0.829159 0.10394
H_ H_ 0.330426 0.232465 0.742241 0.10394
H_ H_ 0.373664 0.190762 0.811299 0.10394
H_ H_ 0.292642 0.124283 0.557189 0.10394
H_ H_ 0.236055 0.110967 0.6248 0.10394
H_ H_ 0.120422 0.0649899 0.509981 0.10394
C_ C_ 0.178655 0.0944406 0.796612 0.18167
C_ C_ 0.225779 0.0735713 0.783549 -0.15533
C_ C_ 0.237373 0.0190138 0.779113 0.02923
C_ C_ 0.208895 0.48664 0.804649 -0.15533
C_ C_ 0.156658 0.0151474 0.817077 0.18167
C_ C_ 0.0282821 0.143773 0.758463 0.18167
C_ C_ 0.507264 0.181265 0.750821 -0.15533
C_ C_ 0.00626424 0.23305 0.761383 0.02923
C_ C_ 0.0156504 0.233505 0.814249 -0.15533
C_ C_ 0.0357595 0.189058 0.837824 0.18167
C_ C_ 0.00425329 0.048233 0.859596 0.69207
C_ C_ 0.482133 0.507375 0.889136 0.02923
C_ C_ 0.505777 0.456437 0.895449 -0.15533
C_ C_ 0.474959 0.415705 0.895917 -0.15533
C_ C_ 0.419177 0.425868 0.897758 0.02923
C_ C_ 0.401685 0.4763 0.905176 -0.15533
C_ C_ 0.429624 0.515614 0.896995 0.02923
C_ C_ 0.388761 0.0739838 0.875406 0.69207
C_ C_ 0.408459 0.327572 0.887897 0.69661
C_ C_ 0.0673386 0.300927 0.592886 0.18167
C_ C_ 0.0245789 0.278528 0.572269 -0.15533
C_ C_ 0.0163133 0.270455 0.519814 0.02923
C_ C_ 0.0552285 0.270178 0.994729 -0.15533
C_ C_ 0.0875175 0.316125 0.509613 0.18167
C_ C_ 0.206438 0.27285 0.641632 0.18167
C_ C_ 0.22856 0.251285 0.684873 -0.15533
C_ C_ 0.232565 0.279753 0.730963 0.02923
C_ C_ 0.204079 0.328587 0.733762 -0.15533
C_ C_ 0.184338 0.350929 0.687795 0.18167
C_ C_ 0.238244 0.364271 0.549011 0.69207
C_ C_ 0.281081 0.367689 0.00841095 0.02923
C_ C_ 0.261697 0.36866 0.957877 -0.15533
C_ C_ 0.291273 0.379259 0.91835 -0.15533
C_ C_ 0.342984 0.389597 0.931644 0.02923
C_ C_ 0.363323 0.385234 0.984805 -0.15533
C_ C_ 0.331773 0.374957 0.0213821 0.02923
C_ C_ 0.351573 0.385507 0.577186 0.69207
C_ C_ 0.353489 0.392392 0.835819 0.69661
C_ C_ 0.319204 0.422206 0.699676 0.18167
C_ C_ 0.279837 0.445696 0.727688 -0.15533
C_ C_ 0.283819 0.49268 0.754163 0.02923
C_ C_ 0.32587 0.01061 0.752727 -0.15533
C_ C_ 0.371654 0.486787 0.733118 0.18167
C_ C_ 0.491523 0.3533 0.708384 0.18167
C_ C_ 0.0162405 0.317508 0.725431 -0.15533
C_ C_ 0.489998 0.274919 0.750954 0.02923
C_ C_ 0.437381 0.280519 0.741259 -0.15533
C_ C_ 0.413676 0.321693 0.712831 0.18167
C_ C_ 0.484429 0.450202 0.622464 0.69207
C_ C_ 0.0218971 0.989959 0.609544 0.02923
C_ C_ 0.00311056 0.0410172 0.606568 -0.15533
C_ C_ 0.0359895 0.0777507 0.602138 -0.15533
C_ C_ 0.0907507 0.0651298 0.601619 0.02923
C_ C_ 0.107958 0.0118114 0.602256 -0.15533
C_ C_ 0.0763274 0.974208 0.605844 0.02923
C_ C_ 0.0948051 0.43131 0.605314 0.69207
C_ C_ 0.104456 0.159141 0.5974 0.69661
C_ C_ 0.435162 0.187149 0.929789 0.18167
C_ C_ 0.477672 0.208643 0.954275 -0.15533
C_ C_ 0.470176 0.239202 0.998811 0.02923
C_ C_ 0.4261 0.25704 0.51669 -0.15533
C_ C_ 0.382452 0.224361 0.992033 0.18167
C_ C_ 0.264217 0.227594 0.863394 0.18167
C_ C_ 0.238599 0.256157 0.822451 -0.15533
C_ C_ 0.261743 0.25518 0.777236 0.02923
C_ C_ 0.311727 0.231952 0.776438 -0.15533
C_ C_ 0.335661 0.205151 0.816395 0.18167
C_ C_ 0.254122 0.140903 0.948494 0.69207
C_ C_ 0.234743 0.116285 0.493546 0.02923
C_ C_ 0.251989 0.118496 0.547068 -0.15533
C_ C_ 0.220899 0.109952 0.585546 -0.15533
C_ C_ 0.171295 0.0993316 0.572381 0.02923
C_ C_ 0.157583 0.0820975 0.521047 -0.15533
C_ C_ 0.183243 0.101547 0.482182 0.02923
C_ C_ 0.142745 0.126593 0.924315 0.69207
C_ C_ 0.148402 0.112353 0.66726 0.69661
C_ C_ 0.382011 0.384546 0.890582 -0.30787
C_ C_ 0.129651 0.106468 0.610478 -0.30787
N_ N_ 0.143089 0.0662199 0.810965 -0.32189
N_ N_ 0.0477988 0.146474 0.807733 -0.32189
N_ N_ 0.0997681 0.316108 0.560847 -0.32189
N_ N_ 0.185216 0.322076 0.64294 -0.32189
N_ N_ 0.36523 0.442611 0.7039 -0.32189
N_ N_ 0.44037 0.356892 0.695699 -0.32189
N_ N_ 0.388402 0.198247 0.947806 -0.32189
N_ N_ 0.31084 0.201655 0.859938 -0.32189
O_ O_ 0.500248 0.0898542 0.896731 -0.63271
O_ O_ 0.0439896 0.040239 0.833026 -0.57982
O_ O_ 0.392026 0.10302 0.837329 -0.63271
O_ O_ 0.355871 0.0895273 0.90868 -0.57982
O_ O_ 0.244438 0.386206 0.596038 -0.63271
O_ O_ 0.197155 0.338608 0.536232 -0.57982
O_ O_ 0.363776 0.3428 0.59735 -0.63271
O_ O_ 0.365512 0.426507 0.601419 -0.57982
O_ O_ 0.987149 0.41768 0.589899 -0.63271
O_ O_ 0.454882 0.460168 0.659244 -0.57982
O_ O_ 0.0868183 0.402162 0.642982 -0.63271
O_ O_ 0.131229 0.416881 0.576221 -0.57982
O_ O_ 0.245667 0.12568 0.899599 -0.63271
O_ O_ 0.293909 0.165197 0.962922 -0.57982
O_ O_ 0.147544 0.168013 0.898703 -0.63271
O_ O_ 0.108545 0.0965076 0.90609 -0.57982
F_ F_ 0.442296 0.315888 0.930301 -0.20885
F_ F_ 0.438693 0.32363 0.848352 -0.20885
F_ F_ 0.37196 0.290945 0.877473 -0.20885
F_ F_ 0.320979 0.435664 0.838154 -0.20885
F_ F_ 0.326119 0.354074 0.813854 -0.20885
F_ F_ 0.386169 0.398538 0.802225 -0.20885
F_ F_ 0.0836144 0.159874 0.546054 -0.20885
F_ F_ 0.0654668 0.175532 0.630645 -0.20885
F_ F_ 0.134203 0.200009 0.605373 -0.20885
F_ F_ 0.180886 0.068075 0.677415 -0.20885
F_ F_ 0.175076 0.1549 0.682189 -0.20885
F_ F_ 0.110061 0.113027 0.699369 -0.20885
Zn Zn 0.0851709 0.583831 0.346421 0.83971
Zn Zn 0.160498 0.841468 0.0816818 0.83971
Zn Zn 0.40525 0.923953 0.15385 0.83971
Zn Zn 0.339613 0.652635 0.416858 0.83971
H_ H_ 0.162479 0.632253 0.299168 0.10394
H_ H_ 0.238421 0.59682 0.255793 0.10394
H_ H_ 0.226365 0.952562 0.302 0.10394
H_ H_ 0.135867 0.485898 0.337321 0.10394
H_ H_ 0.524107 0.600315 0.241804 0.10394
H_ H_ 0.479208 0.674094 0.194526 0.10394
H_ H_ 0.0317103 0.772085 0.327278 0.10394
H_ H_ 0.0657555 0.693987 0.378454 0.10394
H_ H_ 0.0252108 0.942673 0.340478 0.10394
H_ H_ 0.48319 0.880909 0.391801 0.10394
H_ H_ 0.346286 0.991857 0.386687 0.10394
H_ H_ 0.0850716 0.802845 0.129591 0.10394
H_ H_ 0.511011 0.757309 0.0909501 0.10394
H_ H_ 0.0327931 0.777453 0.433583 0.10394
H_ H_ 0.115598 0.824475 0.981425 0.10394
H_ H_ 0.214928 0.745479 0.0974918 0.10394
H_ H_ 0.261103 0.699435 0.165728 0.10394
H_ H_ 0.198346 0.824618 0.271201 0.10394
H_ H_ 0.183907 0.878966 0.191271 0.10394
H_ H_ 0.22515 0.840117 0.433942 0.10394
H_ H_ 0.273779 0.876669 0.374232 0.10394
H_ H_ 0.394098 0.901943 0.486978 0.10394
H_ H_ 0.310707 0.902762 0.165304 0.10394
H_ H_ 0.237899 0.946561 0.201247 0.10394
H_ H_ 0.331911 0.541943 0.29141 0.10394
H_ H_ 0.405682 0.0167734 0.22783 0.10394
H_ H_ 0.0234091 0.870646 0.175391 0.10394
H_ H_ 0.0573298 0.798597 0.224213 0.10394
H_ H_ 0.408734 0.744209 0.209415 0.10394
H_ H_ 0.364586 0.827848 0.18413 0.10394
H_ H_ 0.467368 0.54385 0.107463 0.10394
H_ H_ 0.0177041 0.610647 0.0921839 0.10394
H_ H_ 0.147483 0.499453 0.0985379 0.10394
H_ H_ 0.443741 0.661006 0.396897 0.10394
H_ H_ 0.00171768 0.690197 0.424777 0.10394
H_ H_ 0.410706 0.780239 0.0412482 0.10394
H_ H_ 0.348657 0.727735 0.5037 0.10394
H_ H_ 0.235299 0.682822 0.37766 0.10394
H_ H_ 0.189509 0.734813 0.304475 0.10394
H_ H_ 0.335672 0.718654 0.244268 0.10394
H_ H_ 0.376347 0.697312 0.330615 0.10394
H_ H_ 0.288099 0.618126 0.058111 0.10394
H_ H_ 0.232081 0.601514 0.120378 0.10394
H_ H_ 0.106468 0.585159 0.00446516 0.10394
C_ C_ 0.174962 0.590842 0.2981 0.18167
C_ C_ 0.213805 0.57107 0.270369 -0.15533
C_ C_ 0.230375 0.518967 0.2715 0.02923
C_ C_ 0.210516 0.99249 0.296696 -0.15533
C_ C_ 0.157214 0.508689 0.313601 0.18167
C_ C_ 0.0224955 0.634595 0.268818 0.18167
C_ C_ 0.502895 0.678439 0.231521 -0.15533
C_ C_ 0.0100523 0.726823 0.260266 0.02923
C_ C_ 0.034133 0.732907 0.31075 -0.15533
C_ C_ 0.0491258 0.691089 0.340421 0.18167
C_ C_ 0.00718954 0.545431 0.376701 0.69207
C_ C_ 0.468301 0.00852977 0.367633 0.02923
C_ C_ 0.490116 0.957293 0.374484 -0.15533
C_ C_ 0.461824 0.918461 0.386313 -0.15533
C_ C_ 0.409786 0.929067 0.389869 0.02923
C_ C_ 0.386232 0.982228 0.383139 -0.15533
C_ C_ 0.415662 0.0206739 0.376256 0.02923
C_ C_ 0.400739 0.571042 0.390616 0.69207
C_ C_ 0.40302 0.828692 0.383065 0.69661
C_ C_ 0.0752401 0.796324 0.089369 0.18167
C_ C_ 0.0283332 0.775305 0.073744 -0.15533
C_ C_ 0.0138234 0.772086 0.0198418 0.02923
C_ C_ 0.0398225 0.782771 0.47556 -0.15533
C_ C_ 0.0891153 0.811878 0.00401352 0.18167
C_ C_ 0.215277 0.765026 0.134296 0.18167
C_ C_ 0.240601 0.737204 0.173713 -0.15533
C_ C_ 0.238663 0.759942 0.224592 0.02923
C_ C_ 0.209144 0.809768 0.230604 -0.15533
C_ C_ 0.191635 0.835717 0.188921 0.18167
C_ C_ 0.242671 0.867096 0.0498374 0.69207
C_ C_ 0.280159 0.857786 0.500224 0.02923
C_ C_ 0.259954 0.857682 0.448089 -0.15533
C_ C_ 0.290235 0.871909 0.413198 -0.15533
C_ C_ 0.339431 0.887959 0.424147 0.02923
C_ C_ 0.356829 0.890281 0.475714 -0.15533
C_ C_ 0.327342 0.875625 0.514091 0.02923
C_ C_ 0.354745 0.893998 0.0678579 0.69207
C_ C_ 0.35029 0.88732 0.327298 0.69661
C_ C_ 0.314265 0.939182 0.187973 0.18167
C_ C_ 0.274965 0.95963 0.215367 -0.15533
C_ C_ 0.281325 1.00551758 0.24513 0.02923
C_ C_ 0.327399 0.514724 0.258812 -0.15533
C_ C_ 0.368796 1.00173306 0.226156 0.18167
C_ C_ 0.486986 0.85765 0.192246 0.18167
C_ C_ 0.0165355 0.811172 0.224188 -0.15533
C_ C_ 0.481839 0.773101 0.222962 0.02923
C_ C_ 0.430203 0.77784 0.21101 -0.15533
C_ C_ 0.406478 0.823729 0.192601 0.18167
C_ C_ 0.483265 0.958714 0.126757 0.69207
C_ C_ 0.0218933 0.485173 0.106493 0.02923
C_ C_ 0.00309843 0.536502 0.101149 -0.15533
C_ C_ 0.0367197 0.5749 0.102882 -0.15533
C_ C_ 0.0888795 0.563597 0.0989425 0.02923
C_ C_ 0.107757 0.510625 0.102271 -0.15533
C_ C_ 0.0761183 0.472075 0.104979 0.02923
C_ C_ 0.100609 0.925724 0.099904 0.69207
C_ C_ 0.0969048 0.660063 0.0990773 0.69661
C_ C_ 0.441785 0.680508 0.43395 0.18167
C_ C_ 0.483236 0.703446 0.457175 -0.15533
C_ C_ 0.475562 0.739453 0.497775 0.02923
C_ C_ 0.417243 0.758609 0.00643422 -0.15533
C_ C_ 0.386241 0.721982 0.490271 0.18167
C_ C_ 0.256109 0.696982 0.351086 0.18167
C_ C_ 0.230778 0.723468 0.308896 -0.15533
C_ C_ 0.261656 0.73484 0.2704 0.02923
C_ C_ 0.313344 0.719068 0.275181 -0.15533
C_ C_ 0.336352 0.700671 0.320194 0.18167
C_ C_ 0.259359 0.618938 0.449913 0.69207
C_ C_ 0.232489 0.605143 0.992355 0.02923
C_ C_ 0.247925 0.610756 0.0465633 -0.15533
C_ C_ 0.212414 0.607198 0.082893 -0.15533
C_ C_ 0.162692 0.59858 0.0677151 0.02923
C_ C_ 0.147239 0.591 0.0161821 -0.15533
C_ C_ 0.179375 0.59785 0.976612 0.02923
C_ C_ 0.147633 0.611383 0.42668 0.69207
C_ C_ 0.144179 0.606178 0.163801 0.69661
C_ C_ 0.376443 0.883319 0.382287 -0.30787
C_ C_ 0.123116 0.605983 0.105636 -0.30787
N_ N_ 0.142253 0.559452 0.309297 -0.32189
N_ N_ 0.0485807 0.642786 0.316357 -0.32189
N_ N_ 0.106659 0.808988 0.0552269 -0.32189
N_ N_ 0.191565 0.812712 0.141958 -0.32189
N_ N_ 0.36064 0.957603 0.197394 -0.32189
N_ N_ 0.435922 0.863181 0.187881 -0.32189
N_ N_ 0.395683 0.690804 0.448741 -0.32189
N_ N_ 0.306582 0.684135 0.354434 -0.32189
O_ O_ 0.507774 0.580836 0.405148 -0.63271
O_ O_ 0.041039 0.536256 0.343902 -0.57982
O_ O_ 0.40194 0.59945 0.349538 -0.63271
O_ O_ 0.363542 0.587331 0.421432 -0.57982
O_ O_ 0.252605 0.882432 0.0990416 -0.63271
O_ O_ 0.207411 0.836856 0.0394807 -0.57982
O_ O_ 0.362189 0.850867 0.0907817 -0.63271
O_ O_ 0.364211 0.934405 0.0960064 -0.57982
O_ O_ 0.991728 0.912647 0.095179 -0.63271
O_ O_ 0.452049 0.971126 0.160255 -0.57982
O_ O_ 0.0999187 0.901918 0.140622 -0.63271
O_ O_ 0.137324 0.909064 0.071107 -0.57982
O_ O_ 0.252977 0.592706 0.405744 -0.63271
O_ O_ 0.291072 0.655366 0.457185 -0.57982
O_ O_ 0.14871 0.651695 0.399129 -0.63271
O_ O_ 0.10929 0.585109 0.413254 -0.57982
F_ F_ 0.436157 0.823717 0.425967 -0.20885
F_ F_ 0.431784 0.809604 0.342359 -0.20885
F_ F_ 0.3662 0.796319 0.38396 -0.20885
F_ F_ 0.316532 0.930657 0.326871 -0.20885
F_ F_ 0.321467 0.848238 0.309333 -0.20885
F_ F_ 0.383997 0.885328 0.291318 -0.20885
F_ F_ 0.0700353 0.666927 0.0493105 -0.20885
F_ F_ 0.0642774 0.676066 0.136862 -0.20885
F_ F_ 0.132054 0.695759 0.102666 -0.20885
F_ F_ 0.174558 0.561138 0.173725 -0.20885
F_ F_ 0.170236 0.648266 0.179089 -0.20885
F_ F_ 0.106253 0.61139 0.196428 -0.20885
Zn Zn 0.0868603 0.58318 0.841592 0.83971
Zn Zn 0.158694 0.838774 0.577528 0.83971
Zn Zn 0.40138 0.915033 0.650567 0.83971
Zn Zn 0.339261 0.653077 0.913221 0.83971
H_ H_ 0.168411 0.63189 0.80184 0.10394
H_ H_ 0.252717 0.593393 0.768363 0.10394
H_ H_ 0.203351 0.948632 0.790876 0.10394
H_ H_ 0.134614 0.484045 0.835695 0.10394
H_ H_ 0.511402 0.602775 0.75063 0.10394
H_ H_ 0.479357 0.675694 0.702003 0.10394
H_ H_ 0.0360474 0.766871 0.825262 0.10394
H_ H_ 0.0602491 0.68409 0.878977 0.10394
H_ H_ 0.0264686 0.950409 0.844874 0.10394
H_ H_ 0.472756 0.881004 0.876969 0.10394
H_ H_ 0.340853 0.994874 0.88674 0.10394
H_ H_ 0.0695229 0.805786 0.620357 0.10394
H_ H_ 0.501789 0.769418 0.598869 0.10394
H_ H_ 0.0300142 0.797661 0.943057 0.10394
H_ H_ 0.108056 0.817719 0.469205 0.10394
H_ H_ 0.227428 0.746971 0.586579 0.10394
H_ H_ 0.27734 0.708147 0.661368 0.10394
H_ H_ 0.214475 0.821778 0.763338 0.10394
H_ H_ 0.175298 0.866747 0.686809 0.10394
H_ H_ 0.21651 0.870466 0.948865 0.10394
H_ H_ 0.263435 0.875939 0.885052 0.10394
H_ H_ 0.394084 0.91564 0.984549 0.10394
H_ H_ 0.297175 0.901342 0.655644 0.10394
H_ H_ 0.229467 0.94221 0.706729 0.10394
H_ H_ 0.336293 0.545456 0.783667 0.10394
H_ H_ 0.398455 -0.00693303 0.730507 0.10394
H_ H_ 0.0172558 0.890271 0.700996 0.10394
H_ H_ 0.0557683 0.810594 0.738064 0.10394
H_ H_ 0.404103 0.754054 0.738821 0.10394
H_ H_ 0.363841 0.83079 0.694916 0.10394
H_ H_ 0.458561 0.547911 0.609523 0.10394
H_ H_ 0.019749 0.627181 0.619107 0.10394
H_ H_ 0.146716 0.515685 0.598289 0.10394
H_ H_ 0.441604 0.665964 0.895048 0.10394
H_ H_ 0.0196458 0.695276 0.950343 0.10394
H_ H_ 0.41851 0.778451 0.547266 0.10394
H_ H_ 0.342446 0.738598 -0.006712999999999969 0.10394
H_ H_ 0.237092 0.707454 0.885422 0.10394
H_ H_ 0.196774 0.741092 0.806151 0.10394
H_ H_ 0.33678 0.714197 0.742167 0.10394
H_ H_ 0.375798 0.674817 0.820906 0.10394
H_ H_ 0.286263 0.625762 0.547236 0.10394
H_ H_ 0.235962 0.617085 0.61899 0.10394
H_ H_ 0.108186 0.595342 0.510843 0.10394
C_ C_ 0.179313 0.590629 0.799938 0.18167
C_ C_ 0.226453 0.570086 0.783957 -0.15533
C_ C_ 0.240397 0.516005 0.782822 0.02923
C_ C_ 0.201508 0.989444 0.79749 -0.15533
C_ C_ 0.161737 0.50843 0.820525 0.18167
C_ C_ 0.0295209 0.635011 0.763778 0.18167
C_ C_ 0.499078 0.681877 0.740113 -0.15533
C_ C_ 0.0111839 0.725639 0.759967 0.02923
C_ C_ 0.0359924 0.728353 0.807705 -0.15533
C_ C_ 0.0487828 0.68452 0.83837 0.18167
C_ C_ 0.00539438 0.544544 0.866143 0.69207
C_ C_ 0.466354 0.00940636 0.871603 0.02923
C_ C_ 0.487526 0.959481 0.873205 -0.15533
C_ C_ 0.457264 0.921577 0.880487 -0.15533
C_ C_ 0.404275 0.931687 0.885637 0.02923
C_ C_ 0.383623 0.983881 0.8878 -0.15533
C_ C_ 0.412709 0.0208641 0.872878 0.02923
C_ C_ 0.40205 0.567587 0.887623 0.69207
C_ C_ 0.3931 0.834255 0.881974 0.69661
C_ C_ 0.0609707 0.80071 0.578623 0.18167
C_ C_ 0.0204998 0.771512 0.561517 -0.15533
C_ C_ 0.011321 0.761617 0.509887 0.02923
C_ C_ 0.0442938 0.791637 0.984382 -0.15533
C_ C_ 0.0819272 0.806802 0.495991 0.18167
C_ C_ 0.221508 0.763172 0.626908 0.18167
C_ C_ 0.248749 0.737796 0.66785 -0.15533
C_ C_ 0.24231 0.753939 0.718487 0.02923
C_ C_ 0.214751 0.802223 0.724564 -0.15533
C_ C_ 0.186689 0.826524 0.683054 0.18167
C_ C_ 0.244707 0.848321 0.537994 0.69207
C_ C_ 0.276516 0.877529 0.00923535 0.02923
C_ C_ 0.254505 0.877114 0.958916 -0.15533
C_ C_ 0.282937 0.885704 0.920577 -0.15533
C_ C_ 0.333293 0.897251 0.924787 0.02923
C_ C_ 0.352512 0.906334 0.977632 -0.15533
C_ C_ 0.324658 0.897455 0.0187002 0.02923
C_ C_ 0.351099 0.881304 0.568149 0.69207
C_ C_ 0.337504 0.890203 0.827739 0.69661
C_ C_ 0.305899 0.930533 0.68585 0.18167
C_ C_ 0.26607 0.958016 0.711433 -0.15533
C_ C_ 0.276157 0.996436 0.747584 0.02923
C_ C_ 0.33088 0.511924 0.760563 -0.15533
C_ C_ 0.362406 0.987094 0.723219 0.18167
C_ C_ 0.483714 0.854372 0.70175 0.18167
C_ C_ 0.0165773 0.81362 0.727707 -0.15533
C_ C_ 0.479916 0.773464 0.736475 0.02923
C_ C_ 0.427027 0.781129 0.726224 -0.15533
C_ C_ 0.404046 0.825741 0.704886 0.18167
C_ C_ 0.484425 0.948882 0.622458 0.69207
C_ C_ 0.0202788 0.499433 0.603688 0.02923
C_ C_ 1.000902628 0.55291 0.601947 -0.15533
C_ C_ 0.03543 0.590093 0.60832 -0.15533
C_ C_ 0.0884847 0.576935 0.603872 0.02923
C_ C_ 0.105843 0.52437 0.59796 -0.15533
C_ C_ 0.0735815 0.486971 0.606329 0.02923
C_ C_ 0.0989818 0.920585 0.608216 0.69207
C_ C_ 0.107315 0.672485 0.605818 0.69661
C_ C_ 0.437794 0.684387 0.930846 0.18167
C_ C_ 0.477399 0.712603 0.952611 -0.15533
C_ C_ 0.467 0.750979 -0.01053000000000004 0.02923
C_ C_ 0.426992 0.748711 0.51441 -0.15533
C_ C_ 0.379547 0.731175 0.981738 0.18167
C_ C_ 0.258501 0.704449 0.853858 0.18167
C_ C_ 0.237667 0.726444 0.807144 -0.15533
C_ C_ 0.263397 0.723151 0.76409 0.02923
C_ C_ 0.313617 0.702953 0.769834 -0.15533
C_ C_ 0.336788 0.685508 0.817012 0.18167
C_ C_ 0.266477 0.616815 0.952638 0.69207
C_ C_ 0.225008 0.616184 0.489541 0.02923
C_ C_ 0.246698 0.618331 0.539827 -0.15533
C_ C_ 0.217961 0.616255 0.58034 -0.15533
C_ C_ 0.167829 0.603745 0.571287 0.02923
C_ C_ 0.147414 0.596967 0.518747 -0.15533
C_ C_ 0.17422 0.608576 0.478634 0.02923
C_ C_ 0.154161 0.605965 0.923352 0.69207
C_ C_ 0.152859 0.610351 0.666458 0.69661
C_ C_ 0.368501 0.888889 0.88159 -0.30787
C_ C_ 0.130057 0.615582 0.610292 -0.30787
N_ N_ 0.147619 0.560152 0.814979 -0.32189
N_ N_ 0.048132 0.638647 0.814086 -0.32189
N_ N_ 0.0938017 0.809651 0.546638 -0.32189
N_ N_ 0.187038 0.802104 0.63605 -0.32189
N_ N_ 0.350982 0.951009 0.686475 -0.32189
N_ N_ 0.431837 0.859426 0.689093 -0.32189
N_ N_ 0.390539 0.694522 0.944656 -0.32189
N_ N_ 0.307549 0.684443 0.855377 -0.32189
O_ O_ 0.512355 0.593463 0.897543 -0.63271
O_ O_ 0.0423685 0.532506 0.836774 -0.57982
O_ O_ 0.407847 0.589532 0.844291 -0.63271
O_ O_ 0.371751 0.588636 0.918913 -0.57982
O_ O_ 0.255283 0.852485 0.585977 -0.63271
O_ O_ 0.199254 0.834351 0.522374 -0.57982
O_ O_ 0.364092 0.840046 0.594071 -0.63271
O_ O_ 0.367882 0.925449 0.587552 -0.57982
O_ O_ 0.991642 0.909333 0.600452 -0.63271
O_ O_ 0.449789 0.960785 0.655043 -0.57982
O_ O_ 0.100779 0.895321 0.649213 -0.63271
O_ O_ 0.131824 0.905089 0.574819 -0.57982
O_ O_ 0.250307 0.610095 0.903871 -0.63271
O_ O_ 0.300731 0.647296 0.965475 -0.57982
O_ O_ 0.152262 0.652563 0.902756 -0.63271
O_ O_ 0.120168 0.573604 0.905835 -0.57982
F_ F_ 0.427868 0.829991 0.924744 -0.20885
F_ F_ 0.419973 0.816834 0.840242 -0.20885
F_ F_ 0.36187 0.796851 0.888733 -0.20885
F_ F_ 0.297858 0.929995 0.830209 -0.20885
F_ F_ 0.317933 0.846466 0.809193 -0.20885
F_ F_ 0.364912 0.900688 0.78966 -0.20885
F_ F_ 0.0758803 0.676012 0.56021 -0.20885
F_ F_ 0.0817989 0.689959 0.648851 -0.20885
F_ F_ 0.145349 0.703712 0.605532 -0.20885
F_ F_ 0.187629 0.56746 0.674179 -0.20885
F_ F_ 0.181814 0.651119 0.680824 -0.20885
F_ F_ 0.116012 0.610028 0.702123 -0.20885
Zn Zn 0.590101 0.0800315 0.349074 0.83971
Zn Zn 0.665972 0.339255 0.0853583 0.83971
Zn Zn 0.909698 0.422285 0.161697 0.83971
Zn Zn 0.842535 0.149597 0.425171 0.83971
H_ H_ 0.669734 0.128523 0.314678 0.10394
H_ H_ 0.754572 0.096216 0.279944 0.10394
H_ H_ 0.710046 0.453405 0.298729 0.10394
H_ H_ 0.638101 0.974782 0.324063 0.10394
H_ H_ 0.0370075 0.105186 0.246769 0.10394
H_ H_ 0.995732 0.182756 0.207597 0.10394
H_ H_ 0.546606 0.267582 0.335712 0.10394
H_ H_ 0.579667 0.192954 0.382177 0.10394
H_ H_ 0.532783 0.438854 0.35549 0.10394
H_ H_ 0.979683 0.377889 0.375042 0.10394
H_ H_ 0.84723 0.484283 0.401874 0.10394
H_ H_ 0.587742 0.287613 0.135152 0.10394
H_ H_ 1.000367678 0.277206 0.103564 0.10394
H_ H_ 0.535339 0.293652 0.454222 0.10394
H_ H_ 0.619087 0.313983 0.987488 0.10394
H_ H_ 0.722627 0.242849 0.0967606 0.10394
H_ H_ 0.761969 0.193819 0.174119 0.10394
H_ H_ 0.723018 0.32673 0.272068 0.10394
H_ H_ 0.689956 0.374803 0.194951 0.10394
H_ H_ 0.71776 0.373602 0.446561 0.10394
H_ H_ 0.767051 0.376172 0.381233 0.10394
H_ H_ 0.902887 0.390054 0.491435 0.10394
H_ H_ 0.80751 0.401831 0.164356 0.10394
H_ H_ 0.729009 0.454708 0.192593 0.10394
H_ H_ 0.834988 0.0443133 0.284295 0.10394
H_ H_ 0.899039 0.511672 0.240175 0.10394
H_ H_ 0.514174 0.381398 0.195169 0.10394
H_ H_ 0.555257 0.309308 0.246908 0.10394
H_ H_ 0.913522 0.247439 0.230512 0.10394
H_ H_ 0.86856 0.328028 0.186051 0.10394
H_ H_ 0.969737 0.0592064 0.118529 0.10394
H_ H_ 0.523067 0.119475 0.123598 0.10394
H_ H_ 0.644071 0.0047600000000000975 0.0928143 0.10394
H_ H_ 0.945433 0.155109 0.401066 0.10394
H_ H_ 0.519762 0.199064 0.452004 0.10394
H_ H_ 0.911763 0.305289 0.0168802 0.10394
H_ H_ 0.845322 0.239564 0.4979 0.10394
H_ H_ 0.737853 0.177263 0.377147 0.10394
H_ H_ 0.694495 0.219352 0.304683 0.10394
H_ H_ 0.840635 0.234053 0.255364 0.10394
H_ H_ 0.881011 0.193965 0.336507 0.10394
H_ H_ 0.78938 0.104264 0.058767 0.10394
H_ H_ 0.735357 0.078931 0.12073 0.10394
H_ H_ 0.606777 0.0835081 0.00945425 0.10394
C_ C_ 0.68063 0.0875453 0.309296 0.18167
C_ C_ 0.726535 0.0707045 0.28795 -0.15533
C_ C_ 0.736286 0.0199105 0.27036 0.02923
C_ C_ 0.696511 0.493988 0.288679 -0.15533
C_ C_ 0.659053 0.00373064 0.310246 0.18167
C_ C_ 0.532486 0.132117 0.275323 0.18167
C_ C_ 0.0123519 0.185301 0.246094 -0.15533
C_ C_ 0.51039 0.223377 0.271499 0.02923
C_ C_ 0.544354 0.229746 0.315693 -0.15533
C_ C_ 0.5619 0.188541 0.344 0.18167
C_ C_ 0.506071 0.0479036 0.363111 0.69207
C_ C_ 0.97093 0.50547 0.383315 0.02923
C_ C_ 0.990657 0.455536 0.379218 -0.15533
C_ C_ 0.961784 0.415601 0.382429 -0.15533
C_ C_ 0.909981 0.424409 0.391081 0.02923
C_ C_ 0.88979 0.475685 0.397437 -0.15533
C_ C_ 0.917284 0.517785 0.387042 0.02923
C_ C_ 0.898551 0.0681902 0.387411 0.69207
C_ C_ 0.90138 0.326084 0.385289 0.69661
C_ C_ 0.574011 0.287675 0.094843 0.18167
C_ C_ 0.528771 0.267696 0.0775107 -0.15533
C_ C_ 0.515609 0.26496 0.0224786 0.02923
C_ C_ 0.549225 0.28882 0.495149 -0.15533
C_ C_ 0.59286 0.302332 0.0115912 0.18167
C_ C_ 0.729214 0.26326 0.134396 0.18167
C_ C_ 0.747435 0.234643 0.178177 -0.15533
C_ C_ 0.742615 0.257376 0.2292 0.02923
C_ C_ 0.724737 0.310503 0.233851 -0.15533
C_ C_ 0.709128 0.336402 0.188955 0.18167
C_ C_ 0.742812 0.370943 0.0494748 0.69207
C_ C_ 0.775016 0.377819 0.508076 0.02923
C_ C_ 0.757941 0.370568 0.45669 -0.15533
C_ C_ 0.78589 0.381582 0.418944 -0.15533
C_ C_ 0.83879 0.385443 0.427914 0.02923
C_ C_ 0.859833 0.389134 0.479767 -0.15533
C_ C_ 0.827992 0.384927 0.519405 0.02923
C_ C_ 0.852738 0.385511 0.0758592 0.69207
C_ C_ 0.846287 0.387933 0.328901 0.69661
C_ C_ 0.810161 0.438902 0.185529 0.18167
C_ C_ 0.76575 0.464506 0.204475 -0.15533
C_ C_ 0.772256 0.502613 0.245235 0.02923
C_ C_ 0.827596 0.0199865 0.248691 -0.15533
C_ C_ 0.861884 0.498378 0.230467 0.18167
C_ C_ 0.989477 0.359674 0.213751 0.18167
C_ C_ 0.517263 0.306471 0.228281 -0.15533
C_ C_ 0.984723 0.280681 0.248781 0.02923
C_ C_ 0.934942 0.280041 0.226034 -0.15533
C_ C_ 0.910795 0.323387 0.202055 0.18167
C_ C_ 0.991913 0.449701 0.126076 0.69207
C_ C_ 0.521874 0.993586 0.118873 0.02923
C_ C_ 0.504266 0.0448004 0.119375 -0.15533
C_ C_ 0.536148 0.0797493 0.110187 -0.15533
C_ C_ 0.586606 0.0661901 0.101135 0.02923
C_ C_ 0.604644 0.0141626 0.101253 -0.15533
C_ C_ 0.570064 0.977667 0.106164 0.02923
C_ C_ 0.604296 0.419589 0.104003 0.69207
C_ C_ 0.604844 0.162178 0.10694 0.69661
C_ C_ 0.939101 0.184682 0.431304 0.18167
C_ C_ 0.981453 0.201819 0.462058 -0.15533
C_ C_ 0.974046 0.24355 0.4973 0.02923
C_ C_ 0.922809 0.264966 0.00849584 -0.15533
C_ C_ 0.883673 0.229287 0.486768 0.18167
C_ C_ 0.760442 0.189059 0.352855 0.18167
C_ C_ 0.735746 0.214949 0.310454 -0.15533
C_ C_ 0.765369 0.230749 0.274274 0.02923
C_ C_ 0.818184 0.221424 0.281479 -0.15533
C_ C_ 0.84171 0.198051 0.326456 0.18167
C_ C_ 0.767363 0.116136 0.461713 0.69207
C_ C_ 0.728507 0.114076 0.99784 0.02923
C_ C_ 0.749181 0.10239 0.0480911 -0.15533
C_ C_ 0.718323 0.0933012 0.0857794 -0.15533
C_ C_ 0.665517 0.092017 0.071895 0.02923
C_ C_ 0.646017 0.0938194 0.0207284 -0.15533
C_ C_ 0.677046 0.10463 0.98327 0.02923
C_ C_ 0.654529 0.110278 0.428238 0.69207
C_ C_ 0.649704 0.102932 0.167298 0.69661
C_ C_ 0.874162 0.382744 0.384795 -0.30787
C_ C_ 0.627466 0.105395 0.111979 -0.30787
N_ N_ 0.644793 0.0545573 0.311321 -0.32189
N_ N_ 0.562289 0.140908 0.319452 -0.32189
N_ N_ 0.606188 0.301503 0.0627391 -0.32189
N_ N_ 0.705075 0.31202 0.142673 -0.32189
N_ N_ 0.857293 0.454618 0.200876 -0.32189
N_ N_ 0.94118 0.360528 0.192768 -0.32189
N_ N_ 0.89342 0.193478 0.448559 -0.32189
N_ N_ 0.812134 0.182089 0.360236 -0.32189
O_ O_ 0.00687853 0.0814647 0.400019 -0.63271
O_ O_ 0.543628 0.033399 0.335474 -0.57982
O_ O_ 0.891737 0.0944205 0.345711 -0.63271
O_ O_ 0.877185 0.0872561 0.428562 -0.57982
O_ O_ 0.746609 0.391302 0.0975115 -0.63271
O_ O_ 0.702853 0.346875 0.0334883 -0.57982
O_ O_ 0.84847 0.344645 0.10069 -0.63271
O_ O_ 0.88142 0.420579 0.0961211 -0.57982
O_ O_ 0.496077 0.399652 0.095195 -0.63271
O_ O_ 0.960689 0.465421 0.159512 -0.57982
O_ O_ 0.599401 0.396438 0.147028 -0.63271
O_ O_ 0.638446 0.401515 0.0734725 -0.57982
O_ O_ 0.768598 0.0881516 0.419106 -0.63271
O_ O_ 0.799813 0.150656 0.473497 -0.57982
O_ O_ 0.660821 0.148327 0.401356 -0.63271
O_ O_ 0.617004 0.0833438 0.414021 -0.57982
F_ F_ 0.937447 0.326443 0.428435 -0.20885
F_ F_ 0.924878 0.308465 0.342177 -0.20885
F_ F_ 0.865489 0.291121 0.389528 -0.20885
F_ F_ 0.817712 0.436649 0.326444 -0.20885
F_ F_ 0.817618 0.347924 0.314994 -0.20885
F_ F_ 0.879579 0.383232 0.291187 -0.20885
F_ F_ 0.576028 0.16848 0.0615407 -0.20885
F_ F_ 0.576415 0.181457 0.145591 -0.20885
F_ F_ 0.644249 0.192727 0.106427 -0.20885
F_ F_ 0.673732 0.0554882 0.180983 -0.20885
F_ F_ 0.683886 0.140645 0.181246 -0.20885
F_ F_ 0.614529 0.114771 0.201792 -0.20885
Zn Zn 0.590328 0.081565 0.84902 0.83971
Zn Zn 0.664822 0.343695 0.593273 0.83971
Zn Zn 0.910303 0.428259 0.652878 0.83971
Zn Zn 0.843896 0.155037 0.923533 0.83971
H_ H_ 0.658646 0.128529 0.803514 0.10394
H_ H_ 0.737592 0.0984216 0.759877 0.10394
H_ H_ 0.716352 0.455219 0.789934 0.10394
H_ H_ 0.646015 0.979685 0.845102 0.10394
H_ H_ 0.0266762 0.105906 0.737322 0.10394
H_ H_ 0.996321 0.183191 0.692713 0.10394
H_ H_ 0.536148 0.267368 0.845835 0.10394
H_ H_ 0.581102 0.185981 0.885222 0.10394
H_ H_ 0.547324 0.449403 0.903341 0.10394
H_ H_ 0.971565 0.376897 0.873475 0.10394
H_ H_ 0.855843 0.491151 0.91598 0.10394
H_ H_ 0.600849 0.280328 0.635827 0.10394
H_ H_ 0.000171051 0.263602 0.595554 0.10394
H_ H_ 0.536483 0.286935 0.953368 0.10394
H_ H_ 0.616795 0.327609 0.490888 0.10394
H_ H_ 0.724997 0.259677 0.607452 0.10394
H_ H_ 0.767525 0.214606 0.677884 0.10394
H_ H_ 0.711786 0.339005 0.7811 0.10394
H_ H_ 0.674817 0.38407 0.706556 0.10394
H_ H_ 0.713408 0.387881 0.953377 0.10394
H_ H_ 0.760756 0.405015 0.8847 0.10394
H_ H_ 0.894983 0.408319 0.990294 0.10394
H_ H_ 0.806458 0.410048 0.664645 0.10394
H_ H_ 0.731454 0.463161 0.690459 0.10394
H_ H_ 0.829438 0.052918 0.76927 0.10394
H_ H_ 0.905602 0.513521 0.742914 0.10394
H_ H_ 0.514491 0.379884 0.695 0.10394
H_ H_ 0.560358 0.30735 0.737305 0.10394
H_ H_ 0.907689 0.257988 0.72279 0.10394
H_ H_ 0.871102 0.342137 0.692432 0.10394
H_ H_ 0.963792 0.0514044 0.610618 0.10394
H_ H_ 0.517996 0.112132 0.580988 0.10394
H_ H_ 0.642031 -0.0040959999999999885 0.588076 0.10394
H_ H_ 0.94507 0.12641 0.959974 0.10394
H_ H_ 0.514036 0.200479 0.941425 0.10394
H_ H_ 0.915206 0.293543 0.532619 0.10394
H_ H_ 0.84329 0.256114 -0.011488999999999971 0.10394
H_ H_ 0.739183 0.193256 0.889944 0.10394
H_ H_ 0.696075 0.232717 0.815059 0.10394
H_ H_ 0.847932 0.256628 0.772502 0.10394
H_ H_ 0.884944 0.203878 0.848957 0.10394
H_ H_ 0.784829 0.113306 0.562521 0.10394
H_ H_ 0.729182 0.103595 0.623809 0.10394
H_ H_ 0.603113 0.0963435 0.503472 0.10394
C_ C_ 0.670593 0.0885763 0.795454 0.18167
C_ C_ 0.718264 0.0716806 0.777911 -0.15533
C_ C_ 0.734395 0.0189642 0.771991 0.02923
C_ C_ 0.702247 0.494043 0.793168 -0.15533
C_ C_ 0.663761 0.00345332 0.819974 0.18167
C_ C_ 0.526899 0.136219 0.775991 0.18167
C_ C_ 0.00988379 0.18719 0.732905 -0.15533
C_ C_ 0.515861 0.228536 0.774356 0.02923
C_ C_ 0.542464 0.230722 0.824134 -0.15533
C_ C_ 0.562123 0.184935 0.847614 0.18167
C_ C_ 0.501058 0.0493208 0.865452 0.69207
C_ C_ 0.968991 0.505255 0.870227 0.02923
C_ C_ 0.987443 0.453633 0.871463 -0.15533
C_ C_ 0.956383 0.416254 0.879014 -0.15533
C_ C_ 0.906507 0.430853 0.889812 0.02923
C_ C_ 0.89156 0.482058 0.8999 -0.15533
C_ C_ 0.919338 0.519668 0.882871 0.02923
C_ C_ 0.891776 0.0754896 0.87718 0.69207
C_ C_ 0.890367 0.332802 0.889352 0.69661
C_ C_ 0.58193 0.289496 0.599304 0.18167
C_ C_ 0.531007 0.274734 0.581806 -0.15533
C_ C_ 0.517312 0.271503 0.528496 0.02923
C_ C_ 0.547575 0.28576 0.991982 -0.15533
C_ C_ 0.594953 0.308253 0.514951 0.18167
C_ C_ 0.725392 0.277162 0.646335 0.18167
C_ C_ 0.749693 0.25025 0.687065 -0.15533
C_ C_ 0.747321 0.271536 0.738279 0.02923
C_ C_ 0.716206 0.318399 0.743212 -0.15533
C_ C_ 0.693571 0.34537 0.701587 0.18167
C_ C_ 0.738894 0.37551 0.548127 0.69207
C_ C_ 0.773891 0.38923 1.0110069 0.02923
C_ C_ 0.751726 0.389887 0.959513 -0.15533
C_ C_ 0.780265 0.398089 0.923044 -0.15533
C_ C_ 0.833685 0.400416 0.931645 0.02923
C_ C_ 0.855184 0.403546 0.982667 -0.15533
C_ C_ 0.826895 0.393146 0.0241787 0.02923
C_ C_ 0.850809 0.386209 0.573459 0.69207
C_ C_ 0.836213 0.395742 0.83293 0.69661
C_ C_ 0.813227 0.444619 0.686375 0.18167
C_ C_ 0.770056 0.473416 0.707366 -0.15533
C_ C_ 0.777912 0.510339 0.747256 0.02923
C_ C_ 0.823478 0.019312 0.741522 -0.15533
C_ C_ 0.866472 0.501723 0.731096 0.18167
C_ C_ 0.994052 0.362393 0.701966 0.18167
C_ C_ 0.518493 0.311376 0.730918 -0.15533
C_ C_ 0.986293 0.27918 0.734951 0.02923
C_ C_ 0.934426 0.288126 0.715919 -0.15533
C_ C_ 0.911923 0.335769 0.698379 0.18167
C_ C_ 0.985911 0.461717 0.612652 0.69207
C_ C_ 0.520269 0.98802 0.61455 0.02923
C_ C_ 0.499695 0.0400732 0.610922 -0.15533
C_ C_ 0.531651 0.0746906 0.593869 -0.15533
C_ C_ 0.585139 0.0587547 0.591188 0.02923
C_ C_ 0.601946 0.00740133 0.590461 -0.15533
C_ C_ 0.570854 0.972363 0.605797 0.02923
C_ C_ 0.592346 0.418571 0.610821 0.69207
C_ C_ 0.600729 0.155386 0.609338 0.69661
C_ C_ 0.938587 0.165958 0.963193 0.18167
C_ C_ 0.980399 0.193349 0.97913 -0.15533
C_ C_ 0.972712 0.237925 0.0100374 0.02923
C_ C_ 0.924114 0.259015 0.507718 -0.15533
C_ C_ 0.881505 0.238014 0.987378 0.18167
C_ C_ 0.762034 0.204495 0.861805 0.18167
C_ C_ 0.738276 0.228419 0.818495 -0.15533
C_ C_ 0.770168 0.245526 0.784327 0.02923
C_ C_ 0.823495 0.236589 0.794732 -0.15533
C_ C_ 0.844499 0.207093 0.836414 0.18167
C_ C_ 0.765318 0.117926 0.96109 0.69207
C_ C_ 0.731326 0.106876 0.49695 0.02923
C_ C_ 0.748255 0.10482 0.549437 -0.15533
C_ C_ 0.713876 0.102242 0.58377 -0.15533
C_ C_ 0.661034 0.0972896 0.567427 0.02923
C_ C_ 0.643297 0.101107 0.51528 -0.15533
C_ C_ 0.677673 0.109122 0.481869 0.02923
C_ C_ 0.654892 0.101723 0.928201 0.69207
C_ C_ 0.643373 0.087568 0.661972 0.69661
C_ C_ 0.866152 0.391168 0.88706 -0.30787
C_ C_ 0.622983 0.0991126 0.606871 -0.30787
N_ N_ 0.645023 0.0548067 0.814669 -0.32189
N_ N_ 0.558279 0.139545 0.820848 -0.32189
N_ N_ 0.61137 0.30861 0.566347 -0.32189
N_ N_ 0.695338 0.322331 0.65429 -0.32189
N_ N_ 0.858746 0.462997 0.694867 -0.32189
N_ N_ 0.942011 0.371734 0.689948 -0.32189
N_ N_ 0.891834 0.190972 0.960141 -0.32189
N_ N_ 0.812466 0.191361 0.867324 -0.32189
O_ O_ 0.00327217 0.0881824 0.890256 -0.63271
O_ O_ 0.541743 0.0389662 0.840749 -0.57982
O_ O_ 0.900442 0.105611 0.843913 -0.63271
O_ O_ 0.8716 0.0927361 0.919131 -0.57982
O_ O_ 0.741552 0.403595 0.591628 -0.63271
O_ O_ 0.70586 0.343028 0.540207 -0.57982
O_ O_ 0.849826 0.346541 0.600439 -0.63271
O_ O_ 0.878186 0.422534 0.588565 -0.57982
O_ O_ 0.479378 0.408239 0.593462 -0.63271
O_ O_ 0.954398 0.473497 0.64813 -0.57982
O_ O_ 0.583814 0.394963 0.650643 -0.63271
O_ O_ 0.634277 0.403978 0.588112 -0.57982
O_ O_ 0.767968 0.087635 0.920259 -0.63271
O_ O_ 0.800465 0.150895 0.971118 -0.57982
O_ O_ 0.659928 0.139728 0.89886 -0.63271
O_ O_ 0.619166 0.0730413 0.914464 -0.57982
F_ F_ 0.927246 0.323465 0.930583 -0.20885
F_ F_ 0.913775 0.319383 0.846112 -0.20885
F_ F_ 0.851661 0.300525 0.890794 -0.20885
F_ F_ 0.809125 0.443569 0.830403 -0.20885
F_ F_ 0.80302 0.358599 0.822846 -0.20885
F_ F_ 0.871793 0.394833 0.796895 -0.20885
F_ F_ 0.571387 0.16322 0.565402 -0.20885
F_ F_ 0.573585 0.167735 0.652233 -0.20885
F_ F_ 0.63869 0.18884 0.617986 -0.20885
F_ F_ 0.67912 0.048549 0.65919 -0.20885
F_ F_ 0.666052 0.125136 0.690492 -0.20885
F_ F_ 0.604696 0.075618 0.688683 -0.20885
Zn Zn 0.582028 0.587406 0.341448 0.83971
Zn Zn 0.658354 0.844703 0.076222 0.83971
Zn Zn 0.914678 0.920567 0.151802 0.83971
Zn Zn 0.82888 0.651481 0.409129 0.83971
H_ H_ 0.659507 0.637094 0.296982 0.10394
H_ H_ 0.747672 0.603997 0.272729 0.10394
H_ H_ 0.708087 0.947901 0.275257 0.10394
H_ H_ 0.626902 0.491011 0.324002 0.10394
H_ H_ 0.0153363 0.597097 0.254713 0.10394
H_ H_ 0.990223 0.669726 0.198646 0.10394
H_ H_ 0.540383 0.774842 0.315185 0.10394
H_ H_ 0.564929 0.703079 0.368475 0.10394
H_ H_ 0.530152 0.950724 0.370941 0.10394
H_ H_ 0.977467 0.87598 0.361836 0.10394
H_ H_ 0.858722 0.982768 0.40706 0.10394
H_ H_ 0.582944 0.80271 0.121862 0.10394
H_ H_ 1.0104106 0.755743 0.099426 0.10394
H_ H_ 0.543209 0.791099 0.449331 0.10394
H_ H_ 0.606703 0.83749 0.971856 0.10394
H_ H_ 0.708673 0.744136 0.0969945 0.10394
H_ H_ 0.738728 0.699674 0.175456 0.10394
H_ H_ 0.706809 0.837846 0.264813 0.10394
H_ H_ 0.676356 0.882421 0.185114 0.10394
H_ H_ 0.716555 0.88323 0.44695 0.10394
H_ H_ 0.774155 0.892882 0.377964 0.10394
H_ H_ 0.897531 0.907677 0.489422 0.10394
H_ H_ 0.811261 0.902504 0.153106 0.10394
H_ H_ 0.735624 0.95253 0.189177 0.10394
H_ H_ 0.829254 0.545645 0.285205 0.10394
H_ H_ 0.905763 1.0106302 0.22189 0.10394
H_ H_ 0.509016 0.88785 0.190084 0.10394
H_ H_ 0.550918 0.804666 0.221872 0.10394
H_ H_ 0.908183 0.753668 0.230032 0.10394
H_ H_ 0.873758 0.832822 0.185477 0.10394
H_ H_ 0.963791 0.548345 0.0926347 0.10394
H_ H_ 0.517613 0.608683 0.0883428 0.10394
H_ H_ 0.64773 0.503028 0.0807382 0.10394
H_ H_ 0.929254 0.671478 0.380985 0.10394
H_ H_ 0.518961 0.697617 0.441012 0.10394
H_ H_ 0.911755 0.788568 0.0351075 0.10394
H_ H_ 0.845702 0.70934 0.51322 0.10394
H_ H_ 0.725996 0.698433 0.384569 0.10394
H_ H_ 0.681602 0.738303 0.308746 0.10394
H_ H_ 0.822621 0.75289 0.253246 0.10394
H_ H_ 0.867954 0.698676 0.32204 0.10394
H_ H_ 0.782014 0.630852 0.0547092 0.10394
H_ H_ 0.725164 0.615977 0.11816 0.10394
H_ H_ 0.608862 0.583648 -0.00154733 0.10394
C_ C_ 0.671141 0.598081 0.294089 0.18167
C_ C_ 0.717321 0.577689 0.27746 -0.15533
C_ C_ 0.730495 0.525452 0.273684 0.02923
C_ C_ 0.703291 0.986106 0.286246 -0.15533
C_ C_ 0.650267 0.514905 0.307866 0.18167
C_ C_ 0.524888 0.63753 0.260495 0.18167
C_ C_ 0.00298235 0.677177 0.240813 -0.15533
C_ C_ 0.508166 0.728778 0.250094 0.02923
C_ C_ 0.532728 0.736914 0.29956 -0.15533
C_ C_ 0.555682 0.693266 0.327998 0.18167
C_ C_ 0.509955 0.540858 0.373602 0.69207
C_ C_ 0.970808 0.00256705 0.363689 0.02923
C_ C_ -0.011850000000000027 0.953545 0.352987 -0.15533
C_ C_ 0.959347 0.913892 0.363537 -0.15533
C_ C_ 0.91559 0.923068 0.390866 0.02923
C_ C_ 0.898725 0.975697 0.402278 -0.15533
C_ C_ 0.925184 0.0157332 0.38699 0.02923
C_ C_ 0.892717 0.570621 0.384373 0.69207
C_ C_ 0.901668 0.826261 0.393027 0.69661
C_ C_ 0.567406 0.805709 0.0817006 0.18167
C_ C_ 0.523763 0.782192 0.0645978 -0.15533
C_ C_ 0.507397 0.782411 0.0121572 0.02923
C_ C_ 0.554565 0.78487 0.490111 -0.15533
C_ C_ 0.585889 0.817912 -0.0035089999999999844 0.18167
C_ C_ 0.713754 0.766496 0.13397 0.18167
C_ C_ 0.725481 0.739318 0.178038 -0.15533
C_ C_ 0.724343 0.76489 0.226556 0.02923
C_ C_ 0.707994 0.816996 0.227893 -0.15533
C_ C_ 0.68755 0.841055 0.183277 0.18167
C_ C_ 0.741192 0.869685 0.0392039 0.69207
C_ C_ 0.779527 0.872347 0.506343 0.02923
C_ C_ 0.758727 0.877834 0.454997 -0.15533
C_ C_ 0.789186 0.885877 0.416152 -0.15533
C_ C_ 0.841841 0.885699 0.428935 0.02923
C_ C_ 0.860413 0.894384 0.480016 -0.15533
C_ C_ 0.831754 0.88318 0.518851 0.02923
C_ C_ 0.854012 0.880268 0.0688945 0.69207
C_ C_ 0.852403 0.881558 0.328914 0.69661
C_ C_ 0.815823 0.938193 0.177891 0.18167
C_ C_ 0.773657 0.964711 0.198598 -0.15533
C_ C_ 0.780936 1.00177501 0.238896 0.02923
C_ C_ 0.820927 0.519566 0.255081 -0.15533
C_ C_ 0.868536 0.99614 0.221141 0.18167
C_ C_ 0.995838 0.851381 0.192978 0.18167
C_ C_ 0.510555 0.811659 0.210441 -0.15533
C_ C_ 0.985387 0.774459 0.235114 0.02923
C_ C_ 0.931964 0.783127 0.221664 -0.15533
C_ C_ 0.913295 0.822349 0.188517 0.18167
C_ C_ 0.992541 0.958638 0.120583 0.69207
C_ C_ 0.526068 0.484591 0.107191 0.02923
C_ C_ 0.506433 0.535514 0.101329 -0.15533
C_ C_ 0.537772 0.573067 0.0979017 -0.15533
C_ C_ 0.589923 0.564786 0.0946476 0.02923
C_ C_ 0.61004 0.512064 0.0905417 -0.15533
C_ C_ 0.579432 0.472475 0.0978953 0.02923
C_ C_ 0.595036 0.922125 0.109048 0.69207
C_ C_ 0.601751 0.662768 0.103037 0.69661
C_ C_ 0.926608 0.681495 0.421483 0.18167
C_ C_ 0.968992 0.700379 0.444755 -0.15533
C_ C_ 0.966455 0.731691 0.490178 0.02923
C_ C_ 0.920531 0.756866 1.00987173 -0.15533
C_ C_ 0.87964 0.711828 0.490453 0.18167
C_ C_ 0.745771 0.70382 0.351732 0.18167
C_ C_ 0.722973 0.732375 0.313625 -0.15533
C_ C_ 0.748417 0.739948 0.272279 0.02923
C_ C_ 0.802102 0.734571 0.277906 -0.15533
C_ C_ 0.825015 0.707903 0.319474 0.18167
C_ C_ 0.755817 0.622671 0.449735 0.69207
C_ C_ 0.727048 0.613397 0.988899 0.02923
C_ C_ 0.745793 0.615249 0.0414403 -0.15533
C_ C_ 0.713926 0.609214 0.079073 -0.15533
C_ C_ 0.663721 0.600748 0.0662621 0.02923
C_ C_ 0.644933 0.598351 0.0135019 -0.15533
C_ C_ 0.67347 0.609438 0.973856 0.02923
C_ C_ 0.640685 0.611437 0.423248 0.69207
C_ C_ 0.647768 0.603854 0.165057 0.69661
C_ C_ 0.876914 0.880227 0.386376 -0.30787
C_ C_ 0.625699 0.608726 0.107489 -0.30787
N_ N_ 0.637346 0.565777 0.303635 -0.32189
N_ N_ 0.546745 0.64479 0.309282 -0.32189
N_ N_ 0.599643 0.816995 0.0488885 -0.32189
N_ N_ 0.693451 0.815811 0.137211 -0.32189
N_ N_ 0.861506 0.952389 0.191664 -0.32189
N_ N_ 0.945806 0.856058 0.174995 -0.32189
N_ N_ 0.87995 0.690314 0.441178 -0.32189
N_ N_ 0.79515 0.686574 0.350012 -0.32189
O_ O_ 0.00140679 0.589616 0.398178 -0.63271
O_ O_ 0.539212 0.538614 0.337862 -0.57982
O_ O_ 0.894928 0.596146 0.343006 -0.63271
O_ O_ 0.857801 0.58736 0.41429 -0.57982
O_ O_ 0.740675 0.899178 0.0815793 -0.63271
O_ O_ 0.702598 0.84425 0.0262947 -0.57982
O_ O_ 0.855336 0.838543 0.0930475 -0.63271
O_ O_ 0.878763 0.918718 0.0903429 -0.57982
O_ O_ 0.480767 0.916327 0.0974723 -0.63271
O_ O_ 0.959577 0.969388 0.152143 -0.57982
O_ O_ 0.590815 0.898022 0.150277 -0.63271
O_ O_ 0.632977 0.908023 0.0821643 -0.57982
O_ O_ 0.748473 0.604719 0.40229 -0.63271
O_ O_ 0.790355 0.652087 0.462168 -0.57982
O_ O_ 0.639752 0.652445 0.397372 -0.63271
O_ O_ 0.616066 0.573728 0.403586 -0.57982
F_ F_ 0.94094 0.822039 0.43658 -0.20885
F_ F_ 0.929833 0.803563 0.353526 -0.20885
F_ F_ 0.868255 0.78861 0.395251 -0.20885
F_ F_ 0.827606 0.928574 0.315363 -0.20885
F_ F_ 0.816215 0.847595 0.31515 -0.20885
F_ F_ 0.890759 0.872028 0.298791 -0.20885
F_ F_ 0.568503 0.667378 0.0605703 -0.20885
F_ F_ 0.569844 0.676847 0.142391 -0.20885
F_ F_ 0.635759 0.69853 0.105727 -0.20885
F_ F_ 0.682537 0.560656 0.174804 -0.20885
F_ F_ 0.672653 0.644328 0.188447 -0.20885
F_ F_ 0.607925 0.598583 0.193913 -0.20885
Zn Zn 0.585545 0.588896 0.844869 0.83971
Zn Zn 0.667331 0.841104 0.580431 0.83971
Zn Zn 0.910183 0.918201 0.653859 0.83971
Zn Zn 0.839301 0.651749 0.919656 0.83971
H_ H_ 0.654775 0.636282 0.789692 0.10394
H_ H_ 0.741179 0.605449 0.764465 0.10394
H_ H_ 0.718732 0.945312 0.799373 0.10394
H_ H_ 0.626886 0.490925 0.820018 0.10394
H_ H_ 0.030343 0.595194 0.745875 0.10394
H_ H_ 0.99790258 0.673387 0.696373 0.10394
H_ H_ 0.529014 0.773192 0.83293 0.10394
H_ H_ 0.573786 0.693388 0.87604 0.10394
H_ H_ 0.529258 0.949598 0.87188 0.10394
H_ H_ 0.983512 0.881622 0.868659 0.10394
H_ H_ 0.847661 0.986037 0.882991 0.10394
H_ H_ 0.579756 0.802621 0.633817 0.10394
H_ H_ -0.0005220000000000224 0.75318 0.589808 0.10394
H_ H_ 0.531534 0.798046 0.938899 0.10394
H_ H_ 0.627092 0.812922 0.487834 0.10394
H_ H_ 0.730557 0.75739 0.602668 0.10394
H_ H_ 0.772069 0.714171 0.674642 0.10394
H_ H_ 0.713271 0.831987 0.772488 0.10394
H_ H_ 0.667247 0.877049 0.695668 0.10394
H_ H_ 0.716523 0.881732 0.940367 0.10394
H_ H_ 0.769064 0.900641 0.877606 0.10394
H_ H_ 0.905817 0.886002 0.982641 0.10394
H_ H_ 0.812938 0.893334 0.662534 0.10394
H_ H_ 0.732384 0.939112 0.699469 0.10394
H_ H_ 0.838517 0.552072 0.791048 0.10394
H_ H_ 0.899385 1.0141223 0.717526 0.10394
H_ H_ 0.506256 0.884375 0.695093 0.10394
H_ H_ 0.548416 0.809376 0.730032 0.10394
H_ H_ 0.914479 0.745118 0.71044 0.10394
H_ H_ 0.874777 0.828242 0.682997 0.10394
H_ H_ 0.962404 0.566079 0.608601 0.10394
H_ H_ 0.513223 0.61445 0.610671 0.10394
H_ H_ 0.639811 0.501587 0.584424 0.10394
H_ H_ 0.945319 0.659662 0.903819 0.10394
H_ H_ 0.514978 0.70275 0.940955 0.10394
H_ H_ 0.913639 0.763816 0.544297 0.10394
H_ H_ 0.838511 0.747985 0.987531 0.10394
H_ H_ 0.734245 0.691843 0.885457 0.10394
H_ H_ 0.694989 0.731419 0.810166 0.10394
H_ H_ 0.841762 0.72823 0.754978 0.10394
H_ H_ 0.881832 0.701566 0.835773 0.10394
H_ H_ 0.778647 0.627204 0.549403 0.10394
H_ H_ 0.729242 0.60812 0.615695 0.10394
H_ H_ 0.600976 0.595509 0.508187 0.10394
C_ C_ 0.669483 0.597195 0.791088 0.18167
C_ C_ 0.717823 0.579174 0.77905 -0.15533
C_ C_ 0.734801 0.528589 0.777648 0.02923
C_ C_ 0.705633 0.98407 0.794894 -0.15533
C_ C_ 0.653482 0.513254 0.80568 0.18167
C_ C_ 0.518456 0.640492 0.767334 0.18167
C_ C_ 0.00899213 0.677113 0.736601 -0.15533
C_ C_ 0.500905 0.730127 0.765385 0.02923
C_ C_ 0.529631 0.735958 0.813725 -0.15533
C_ C_ 0.551643 0.69102 0.839049 0.18167
C_ C_ 0.512594 0.547959 0.872253 0.69207
C_ C_ 0.969105 0.0102759 0.860868 0.02923
C_ C_ -0.011695000000000011 0.959523 0.854137 -0.15533
C_ C_ 0.962416 0.920499 0.870238 -0.15533
C_ C_ 0.910449 0.927635 0.87345 0.02923
C_ C_ 0.887221 0.978198 0.876559 -0.15533
C_ C_ 0.915858 0.0196205 0.87276 0.02923
C_ C_ 0.897474 0.572794 0.886354 0.69207
C_ C_ 0.90582 0.827877 0.87827 0.69661
C_ C_ 0.575911 0.795066 0.59427 0.18167
C_ C_ 0.528736 0.77995 0.5734 -0.15533
C_ C_ 0.518962 0.768746 0.520947 0.02923
C_ C_ 0.539633 0.800562 0.978609 -0.15533
C_ C_ 0.602216 0.796029 0.511481 0.18167
C_ C_ 0.725922 0.774225 0.640287 0.18167
C_ C_ 0.748638 0.747519 0.682766 -0.15533
C_ C_ 0.741027 0.765514 0.731146 0.02923
C_ C_ 0.710712 0.811044 0.73584 -0.15533
C_ C_ 0.684964 0.836902 0.692974 0.18167
C_ C_ 0.745684 0.862073 0.543095 0.69207
C_ C_ 0.777695 0.877574 1.00222606 0.02923
C_ C_ 0.757708 0.882925 0.951935 -0.15533
C_ C_ 0.787155 0.895087 0.915336 -0.15533
C_ C_ 0.84038 0.888223 0.923649 0.02923
C_ C_ 0.862518 0.886116 0.975648 -0.15533
C_ C_ 0.833031 0.880891 0.0141659 0.02923
C_ C_ 0.856016 0.883127 0.571481 0.69207
C_ C_ 0.843764 0.879376 0.822163 0.69661
C_ C_ 0.813649 0.931871 0.683141 0.18167
C_ C_ 0.770614 0.95454 0.705144 -0.15533
C_ C_ 0.774555 8.999999999992347e-05 0.739239 0.02923
C_ C_ 0.827319 0.527546 0.758015 -0.15533
C_ C_ 0.862608 0.99765 0.713898 0.18167
C_ C_ 0.99368 0.85697 0.702379 0.18167
C_ C_ 0.5073 0.813921 0.727455 -0.15533
C_ C_ 0.988121 0.771266 0.73164 0.02923
C_ C_ 0.937421 0.774923 0.708487 -0.15533
C_ C_ 0.915398 0.819911 0.686466 0.18167
C_ C_ 0.985402 0.954928 0.61901 0.69207
C_ C_ 0.517711 0.487257 0.611698 0.02923
C_ C_ 0.499185 0.537173 0.611397 -0.15533
C_ C_ 0.530584 0.576869 0.613468 -0.15533
C_ C_ 0.581545 0.564481 0.600292 0.02923
C_ C_ 0.601115 0.511661 0.597833 -0.15533
C_ C_ 0.57003 0.472549 0.606836 0.02923
C_ C_ 0.595958 0.917432 0.6074 0.69207
C_ C_ 0.592655 0.661055 0.60946 0.69661
C_ C_ 0.937986 0.684286 0.935543 0.18167
C_ C_ 0.979652 0.706787 0.960599 -0.15533
C_ C_ 0.970834 0.744394 0.997991 0.02923
C_ C_ 0.919346 0.740577 0.510595 -0.15533
C_ C_ 0.87856 0.73404 0.984136 0.18167
C_ C_ 0.757875 0.700692 0.857647 0.18167
C_ C_ 0.734777 0.724116 0.814846 -0.15533
C_ C_ 0.764538 0.734561 0.775564 0.02923
C_ C_ 0.816389 0.721142 0.782211 -0.15533
C_ C_ 0.839474 0.705614 0.830514 0.18167
C_ C_ 0.763192 0.620376 0.952596 0.69207
C_ C_ 0.721344 0.613213 0.487898 0.02923
C_ C_ 0.740491 0.617963 0.540615 -0.15533
C_ C_ 0.710029 0.608404 0.579229 -0.15533
C_ C_ 0.660044 0.597801 0.567543 0.02923
C_ C_ 0.637686 0.600825 0.516919 -0.15533
C_ C_ 0.667183 0.609092 0.476912 0.02923
C_ C_ 0.654077 0.605919 0.919613 0.69207
C_ C_ 0.64667 0.597775 0.664071 0.69661
C_ C_ 0.875877 0.883894 0.877496 -0.30787
C_ C_ 0.621193 0.60493 0.608852 -0.30787
N_ N_ 0.637935 0.563364 0.802728 -0.32189
N_ N_ 0.545496 0.645087 0.815556 -0.32189
N_ N_ 0.611758 0.802553 0.565382 -0.32189
N_ N_ 0.696198 0.819161 0.645666 -0.32189
N_ N_ 0.858672 0.949999 0.689863 -0.32189
N_ N_ 0.943404 0.858577 0.682485 -0.32189
N_ N_ 0.888713 0.694193 0.951413 -0.32189
N_ N_ 0.810523 0.688018 0.86303 -0.32189
O_ O_ 1.00103649 0.59111 0.889355 -0.63271
O_ O_ 0.547079 0.537199 0.839926 -0.57982
O_ O_ 0.894481 0.603112 0.847043 -0.63271
O_ O_ 0.872042 0.587109 0.925003 -0.57982
O_ O_ 0.742804 0.890334 0.586439 -0.63271
O_ O_ 0.715198 0.827514 0.535174 -0.57982
O_ O_ 0.860476 0.843938 0.598315 -0.63271
O_ O_ 0.883726 0.919172 0.588744 -0.57982
O_ O_ 0.487715 0.904285 0.597949 -0.63271
O_ O_ 0.954526 0.96219 0.65501 -0.57982
O_ O_ 0.593017 0.893278 0.648171 -0.63271
O_ O_ 0.627701 0.899853 0.574438 -0.57982
O_ O_ 0.76837 0.58952 0.912662 -0.63271
O_ O_ 0.792014 0.656621 0.961081 -0.57982
O_ O_ 0.65485 0.647404 0.89383 -0.63271
O_ O_ 0.618334 0.576582 0.904855 -0.57982
F_ F_ 0.943646 0.825311 0.920489 -0.20885
F_ F_ 0.932457 0.808419 0.839339 -0.20885
F_ F_ 0.87237 0.793141 0.883559 -0.20885
F_ F_ 0.815013 0.924978 0.814134 -0.20885
F_ F_ 0.810757 0.840135 0.81892 -0.20885
F_ F_ 0.874807 0.878042 0.781443 -0.20885
F_ F_ 0.561902 0.672794 0.565365 -0.20885
F_ F_ 0.563507 0.677225 0.646207 -0.20885
F_ F_ 0.62901 0.695683 0.613014 -0.20885
F_ F_ 0.680905 0.553944 0.668392 -0.20885
F_ F_ 0.670587 0.638279 0.684312 -0.20885
F_ F_ 0.611476 0.592014 0.697576 -0.20885
