_cell_length_a 26.508
_cell_length_b 26.37200000322088
_cell_length_c 26.311999743092066
_cell_angle_alpha 93.74100058972084
_cell_angle_beta 96.04100104955006
_cell_angle_gamma 83.6869992558723
_symmetry_space_group_name_H-M         'P 1'
_symmetry_Int_Tables_number            1
loop_
_symmetry_equiv_pos_as_xyz
   'x, y, z'
                         
loop_
_atom_site_label
_atom_site_type_symbol
_atom_site_fract_x 
_atom_site_fract_y
_atom_site_fract_z
_atom_site_charge
Zn Zn 0.0899591 0.0880175 0.353465 0.83971
Zn Zn 0.165131 0.343759 0.0867426 0.83971
Zn Zn 0.408248 0.415477 0.150914 0.83971
Zn Zn 0.344491 0.156892 0.421173 0.83971
H_ H_ 0.164388 0.133479 0.289733 0.10394
H_ H_ 0.243043 0.0930901 0.249877 0.10394
H_ H_ 0.223123 0.44616 0.285692 0.10394
H_ H_ 0.148596 0.994538 0.355495 0.10394
H_ H_ 0.520942 0.0934556 0.242943 0.10394
H_ H_ 0.485765 0.162854 0.191616 0.10394
H_ H_ 0.0390853 0.275777 0.333045 0.10394
H_ H_ 0.0768119 0.200221 0.380713 0.10394
H_ H_ 0.0342095 0.442008 0.370628 0.10394
H_ H_ 0.481312 0.380682 0.37622 0.10394
H_ H_ 0.354902 0.491541 0.41047 0.10394
H_ H_ 0.082052 0.315793 0.14231 0.10394
H_ H_ 0.503305 0.259947 0.0926694 0.10394
H_ H_ 0.0343634 0.29179 0.448017 0.10394
H_ H_ 0.124025 0.314477 0.992985 0.10394
H_ H_ 0.224344 0.245239 0.100043 0.10394
H_ H_ 0.260617 0.196371 0.177219 0.10394
H_ H_ 0.229733 0.326309 0.27608 0.10394
H_ H_ 0.186208 0.37256 0.197418 0.10394
H_ H_ 0.213532 0.385432 0.446587 0.10394
H_ H_ 0.262521 0.391045 0.379499 0.10394
H_ H_ 0.396514 0.39752 0.483273 0.10394
H_ H_ 0.307291 0.403391 0.154437 0.10394
H_ H_ 0.23514 0.455723 0.182945 0.10394
H_ H_ 0.335287 0.0519224 0.278774 0.10394
H_ H_ 0.404405 0.50631 0.227117 0.10394
H_ H_ 0.0123733 0.384403 0.191399 0.10394
H_ H_ 0.0607323 0.303337 0.225393 0.10394
H_ H_ 0.411733 0.233177 0.205054 0.10394
H_ H_ 0.367048 0.320864 0.185332 0.10394
H_ H_ 0.456974 0.0489535 0.121425 0.10394
H_ H_ 0.0103424 0.118052 0.105285 0.10394
H_ H_ 0.143583 0.00621896 0.0915505 0.10394
H_ H_ 0.446918 0.172376 0.399927 0.10394
H_ H_ 0.0150224 0.189853 0.451545 0.10394
H_ H_ 0.417629 0.28858 0.0368177 0.10394
H_ H_ 0.348284 0.227867 0.512907 0.10394
H_ H_ 0.243687 0.175435 0.380361 0.10394
H_ H_ 0.204762 0.224018 0.309043 0.10394
H_ H_ 0.352582 0.23403 0.262185 0.10394
H_ H_ 0.390296 0.186096 0.331051 0.10394
H_ H_ 0.276076 0.140495 0.0571226 0.10394
H_ H_ 0.225546 0.108174 0.121424 0.10394
H_ H_ 0.0993992 0.0934734 0.00681321 0.10394
C_ C_ 0.173945 0.0920923 0.29168 0.18167
C_ C_ 0.220534 0.0716232 0.273036 -0.15533
C_ C_ 0.241121 0.0228072 0.282251 0.02923
C_ C_ 0.209503 0.486507 0.281468 -0.15533
C_ C_ 0.16972 0.0153176 0.330266 0.18167
C_ C_ 0.0298306 0.136935 0.274246 0.18167
C_ C_ 0.503054 0.171413 0.230297 -0.15533
C_ C_ 0.012316 0.228006 0.266426 0.02923
C_ C_ 0.0361841 0.235706 0.315708 -0.15533
C_ C_ 0.059869 0.192794 0.340471 0.18167
C_ C_ 0.00659042 0.0444962 0.369388 0.69207
C_ C_ 0.472129 0.509073 0.375065 0.02923
C_ C_ 0.492216 0.455777 0.371935 -0.15533
C_ C_ 0.463153 0.418368 0.38072 -0.15533
C_ C_ 0.410708 0.428895 0.387411 0.02923
C_ C_ 0.393325 0.481827 0.397987 -0.15533
C_ C_ 0.421338 0.520401 0.385337 0.02923
C_ C_ 0.398446 0.0689724 0.387707 0.69207
C_ C_ 0.398795 0.328689 0.387078 0.69661
C_ C_ 0.0745771 0.302371 0.103236 0.18167
C_ C_ 0.0283641 0.285145 0.0865216 -0.15533
C_ C_ 0.0161797 0.274793 0.0318816 0.02923
C_ C_ 0.0435989 0.294225 0.489198 -0.15533
C_ C_ 0.0949588 0.308216 0.0172339 0.18167
C_ C_ 0.220896 0.262681 0.139142 0.18167
C_ C_ 0.245704 0.236691 0.180725 -0.15533
C_ C_ 0.251196 0.262025 0.230163 0.02923
C_ C_ 0.224665 0.309219 0.236974 -0.15533
C_ C_ 0.196474 0.333592 0.193855 0.18167
C_ C_ 0.237294 0.367748 0.0442172 0.69207
C_ C_ 0.276853 0.38189 0.507056 0.02923
C_ C_ 0.254447 0.384276 0.456755 -0.15533
C_ C_ 0.282772 0.385922 0.416428 -0.15533
C_ C_ 0.337077 0.392354 0.424746 0.02923
C_ C_ 0.357346 0.393666 0.475895 -0.15533
C_ C_ 0.330253 0.386511 0.516131 0.02923
C_ C_ 0.350751 0.379455 0.064246 0.69207
C_ C_ 0.346834 0.387509 0.324574 0.69661
C_ C_ 0.312337 0.439371 0.171562 0.18167
C_ C_ 0.272022 0.467183 0.194713 -0.15533
C_ C_ 0.280426 0.504503 0.232308 0.02923
C_ C_ 0.330146 0.0148194 0.257085 -0.15533
C_ C_ 0.36671 0.495237 0.216887 0.18167
C_ C_ 0.489162 0.350422 0.193554 0.18167
C_ C_ 0.0180171 0.311384 0.223846 -0.15533
C_ C_ 0.486193 0.263198 0.217212 0.02923
C_ C_ 0.433717 0.266616 0.201883 -0.15533
C_ C_ 0.410031 0.313122 0.187726 0.18167
C_ C_ 0.48683 0.449942 0.108236 0.69207
C_ C_ 0.0226756 0.990984 0.12712 0.02923
C_ C_ 0.000738603 0.0430019 0.125629 -0.15533
C_ C_ 0.0295457 0.0826871 0.113011 -0.15533
C_ C_ 0.0816455 0.0695666 0.102563 0.02923
C_ C_ 0.102447 0.0176518 0.100121 -0.15533
C_ C_ 0.0718963 0.97909 0.108813 0.02923
C_ C_ 0.104791 0.425597 0.113452 0.69207
C_ C_ 0.0969439 0.162918 0.112426 0.69661
C_ C_ 0.438897 0.192761 0.436112 0.18167
C_ C_ 0.475935 0.219355 0.460339 -0.15533
C_ C_ 0.468096 0.249988 0.505061 0.02923
C_ C_ 0.423136 0.263716 0.00627728 -0.15533
C_ C_ 0.384605 0.22514 0.499841 0.18167
C_ C_ 0.26808 0.187086 0.351093 0.18167
C_ C_ 0.246429 0.212948 0.310273 -0.15533
C_ C_ 0.274966 0.231925 0.275996 0.02923
C_ C_ 0.326657 0.223955 0.28761 -0.15533
C_ C_ 0.347791 0.192749 0.325688 0.18167
C_ C_ 0.271232 0.12034 0.456705 0.69207
C_ C_ 0.222207 0.122628 0.992123 0.02923
C_ C_ 0.239144 0.124842 0.0441748 -0.15533
C_ C_ 0.207417 0.114716 0.0824811 -0.15533
C_ C_ 0.15822 0.101399 0.0690531 0.02923
C_ C_ 0.140929 0.101042 0.0171627 -0.15533
C_ C_ 0.170419 0.115377 0.978919 0.02923
C_ C_ 0.155214 0.115476 0.431983 0.69207
C_ C_ 0.144613 0.102547 0.165267 0.69661
C_ C_ 0.374544 0.385129 0.382684 -0.30787
C_ C_ 0.120377 0.108749 0.110759 -0.30787
N_ N_ 0.148548 0.0622877 0.319729 -0.32189
N_ N_ 0.0580499 0.144764 0.320294 -0.32189
N_ N_ 0.108155 0.309757 0.0682423 -0.32189
N_ N_ 0.194363 0.309164 0.146686 -0.32189
N_ N_ 0.359509 0.45227 0.186355 -0.32189
N_ N_ 0.438331 0.352987 0.181712 -0.32189
N_ N_ 0.393173 0.19676 0.455651 -0.32189
N_ N_ 0.318261 0.180147 0.359199 -0.32189
O_ O_ 0.50229 0.0932854 0.39387 -0.63271
O_ O_ 0.0518038 0.0341014 0.35346 -0.57982
O_ O_ 0.398243 0.0944384 0.34659 -0.63271
O_ O_ 0.379221 0.0926755 0.427367 -0.57982
O_ O_ 0.249292 0.387376 0.0892567 -0.63271
O_ O_ 0.205111 0.333666 0.038158 -0.57982
O_ O_ 0.352385 0.336337 0.0867014 -0.63271
O_ O_ 0.374907 0.418205 0.0868427 -0.57982
O_ O_ 0.98871 0.406721 0.0956671 -0.63271
O_ O_ 0.458584 0.454955 0.145877 -0.57982
O_ O_ 0.102715 0.401213 0.155097 -0.63271
O_ O_ 0.140954 0.410044 0.0853011 -0.57982
O_ O_ 0.268125 0.0926605 0.413009 -0.63271
O_ O_ 0.301393 0.155516 0.465483 -0.57982
O_ O_ 0.162693 0.155796 0.406466 -0.63271
O_ O_ 0.115625 0.0905164 0.418567 -0.57982
F_ F_ 0.433985 0.328198 0.427327 -0.20885
F_ F_ 0.422203 0.306658 0.344963 -0.20885
F_ F_ 0.363253 0.296688 0.394588 -0.20885
F_ F_ 0.311742 0.431672 0.323194 -0.20885
F_ F_ 0.319266 0.344278 0.309902 -0.20885
F_ F_ 0.382368 0.392755 0.289675 -0.20885
F_ F_ 0.0648288 0.170129 0.0681091 -0.20885
F_ F_ 0.0688713 0.179044 0.153973 -0.20885
F_ F_ 0.130645 0.198493 0.109135 -0.20885
F_ F_ 0.174534 0.0590396 0.171987 -0.20885
F_ F_ 0.172779 0.140992 0.185404 -0.20885
F_ F_ 0.110996 0.0948725 0.20175 -0.20885
Zn Zn 0.0814051 0.0869353 0.842771 0.83971
Zn Zn 0.15807 0.353134 0.582393 0.83971
Zn Zn 0.411789 0.416528 0.656028 0.83971
Zn Zn 0.33336 0.1635 0.916709 0.83971
H_ H_ 0.168028 0.128906 0.808906 0.10394
H_ H_ 0.253327 0.0949645 0.784291 0.10394
H_ H_ 0.212749 0.455075 0.77528 0.10394
H_ H_ 0.126442 0.980694 0.808466 0.10394
H_ H_ 0.523705 0.0941484 0.756816 0.10394
H_ H_ 0.489249 0.168076 0.702764 0.10394
H_ H_ 0.0251955 0.271347 0.829079 0.10394
H_ H_ 0.0642406 0.197243 0.873182 0.10394
H_ H_ 0.0333848 0.444164 0.861525 0.10394
H_ H_ 0.473915 0.375585 0.860034 0.10394
H_ H_ 0.352093 0.488901 0.898485 0.10394
H_ H_ 0.0823017 0.305576 0.631696 0.10394
H_ H_ 0.507519 0.267267 0.609129 0.10394
H_ H_ 0.0405352 0.282287 0.958075 0.10394
H_ H_ 0.11163 0.335587 0.482548 0.10394
H_ H_ 0.228261 0.260393 0.592572 0.10394
H_ H_ 0.263935 0.209075 0.668775 0.10394
H_ H_ 0.21607 0.342858 0.764878 0.10394
H_ H_ 0.177913 0.382998 0.688769 0.10394
H_ H_ 0.210451 0.362638 0.937549 0.10394
H_ H_ 0.264797 0.375194 0.874935 0.10394
H_ H_ 0.389516 0.405912 0.983431 0.10394
H_ H_ 0.307769 0.407853 0.652669 0.10394
H_ H_ 0.231986 0.46475 0.675403 0.10394
H_ H_ 0.333849 0.0300944 0.791512 0.10394
H_ H_ 0.40428 0.502895 0.738305 0.10394
H_ H_ 0.0147104 0.389582 0.691103 0.10394
H_ H_ 0.0586299 0.31026 0.729568 0.10394
H_ H_ 0.41317 0.242664 0.71326 0.10394
H_ H_ 0.378536 0.326437 0.683779 0.10394
H_ H_ 0.461288 0.0532321 0.628785 0.10394
H_ H_ 0.0342004 0.123636 0.632479 0.10394
H_ H_ 0.153017 0.0108597 0.60587 0.10394
H_ H_ 0.435256 0.166373 0.890528 0.10394
H_ H_ 0.0184923 0.185401 0.96692 0.10394
H_ H_ 0.414775 0.275726 0.558766 0.10394
H_ H_ 0.345612 0.246101 -0.0005749999999999922 0.10394
H_ H_ 0.225355 0.204142 0.874597 0.10394
H_ H_ 0.189867 0.245057 0.795589 0.10394
H_ H_ 0.342118 0.231489 0.750801 0.10394
H_ H_ 0.371801 0.190372 0.831695 0.10394
H_ H_ 0.299125 0.100989 0.549114 0.10394
H_ H_ 0.24686 0.0958732 0.623495 0.10394
H_ H_ 0.112508 0.097377 0.517303 0.10394
C_ C_ 0.178462 0.0888807 0.806448 0.18167
C_ C_ 0.224998 0.0696862 0.78707 -0.15533
C_ C_ 0.235017 0.0167231 0.77587 0.02923
C_ C_ 0.200309 0.495698 0.777289 -0.15533
C_ C_ 0.152695 0.00569026 0.803844 0.18167
C_ C_ 0.0360786 0.140453 0.757439 0.18167
C_ C_ 0.511474 0.174302 0.739345 -0.15533
C_ C_ 0.013696 0.230714 0.754884 0.02923
C_ C_ 0.0298272 0.23569 0.806624 -0.15533
C_ C_ 0.0478048 0.192305 0.834467 0.18167
C_ C_ -0.0034720000000000306 0.0461601 0.861182 0.69207
C_ C_ 0.473887 0.503129 0.875137 0.02923
C_ C_ 0.489366 0.450955 0.867807 -0.15533
C_ C_ 0.457977 0.413524 0.871439 -0.15533
C_ C_ 0.408246 0.425081 0.887044 0.02923
C_ C_ 0.390398 0.479146 0.89285 -0.15533
C_ C_ 0.422366 0.516353 0.884855 0.02923
C_ C_ 0.389582 0.0752886 0.880167 0.69207
C_ C_ 0.394887 0.332576 0.884495 0.69661
C_ C_ 0.0765407 0.296191 0.591896 0.18167
C_ C_ 0.0292794 0.278762 0.574103 -0.15533
C_ C_ 0.0157452 0.271279 0.522532 0.02923
C_ C_ 0.0518436 0.283414 0.998403 -0.15533
C_ C_ 0.0900595 0.314435 0.506669 0.18167
C_ C_ 0.226731 0.276731 0.631067 0.18167
C_ C_ 0.251039 0.248839 0.673567 -0.15533
C_ C_ 0.242324 0.269262 0.723403 0.02923
C_ C_ 0.217099 0.318888 0.729176 -0.15533
C_ C_ 0.194086 0.343398 0.685454 0.18167
C_ C_ 0.241916 0.376286 0.547281 0.69207
C_ C_ 0.269832 0.375979 0.00204291 0.02923
C_ C_ 0.249727 0.372465 0.949419 -0.15533
C_ C_ 0.282216 0.37835 0.911834 -0.15533
C_ C_ 0.333002 0.38945 0.922643 0.02923
C_ C_ 0.351464 0.395588 0.974226 -0.15533
C_ C_ 0.32302 0.383066 0.0126015 0.02923
C_ C_ 0.354945 0.389391 0.569712 0.69207
C_ C_ 0.343953 0.389112 0.824918 0.69661
C_ C_ 0.311669 0.443121 0.673684 0.18167
C_ C_ 0.269775 0.473266 0.693463 -0.15533
C_ C_ 0.275811 0.509003 0.732596 0.02923
C_ C_ 0.327028 0.00281493 0.761479 -0.15533
C_ C_ 0.366321 0.495035 0.726014 0.18167
C_ C_ 0.497187 0.354773 0.702766 0.18167
C_ C_ 0.0182255 0.313493 0.717949 -0.15533
C_ C_ 0.488336 0.269125 0.732573 0.02923
C_ C_ 0.437516 0.273781 0.712304 -0.15533
C_ C_ 0.417143 0.321296 0.691698 0.18167
C_ C_ 0.494504 0.4515 0.630918 0.69207
C_ C_ 0.0274949 0.997897 0.61625 0.02923
C_ C_ 0.0116926 0.0521945 0.626352 -0.15533
C_ C_ 0.0462948 0.0864853 0.622033 -0.15533
C_ C_ 0.0980095 0.0717969 0.617604 0.02923
C_ C_ 0.113576 0.0200238 0.611637 -0.15533
C_ C_ 0.0795671 0.984362 0.6148 0.02923
C_ C_ 0.0948409 0.425875 0.607397 0.69207
C_ C_ 0.116149 0.168016 0.616608 0.69661
C_ C_ 0.432195 0.195177 0.921912 0.18167
C_ C_ 0.476098 0.213203 0.949354 -0.15533
C_ C_ 0.471721 0.247566 0.991536 0.02923
C_ C_ 0.423203 0.249907 0.525876 -0.15533
C_ C_ 0.381003 0.239025 0.981595 0.18167
C_ C_ 0.249586 0.20688 0.845336 0.18167
C_ C_ 0.230159 0.23447 0.803739 -0.15533
C_ C_ 0.260395 0.239503 0.767587 0.02923
C_ C_ 0.314604 0.222422 0.77607 -0.15533
C_ C_ 0.334168 0.197904 0.820027 0.18167
C_ C_ 0.258379 0.130098 0.954289 0.69207
C_ C_ 0.23628 0.113497 0.495722 0.02923
C_ C_ 0.258792 0.105758 0.546198 -0.15533
C_ C_ 0.226469 0.10443 0.587483 -0.15533
C_ C_ 0.173463 0.101522 0.577037 0.02923
C_ C_ 0.152385 0.0994719 0.527209 -0.15533
C_ C_ 0.180929 0.109523 0.484825 0.02923
C_ C_ 0.144017 0.119634 0.925681 0.69207
C_ C_ 0.168049 0.109039 0.673627 0.69661
C_ C_ 0.368032 0.386072 0.87996 -0.30787
C_ C_ 0.137853 0.111681 0.622079 -0.30787
N_ N_ 0.142721 0.0560756 0.812595 -0.32189
N_ N_ 0.054563 0.145925 0.80882 -0.32189
N_ N_ 0.106009 0.315446 0.558785 -0.32189
N_ N_ 0.196551 0.321017 0.638761 -0.32189
N_ N_ 0.359081 0.453973 0.693783 -0.32189
N_ N_ 0.445636 0.35987 0.688664 -0.32189
N_ N_ 0.386694 0.203437 0.942521 -0.32189
N_ N_ 0.300167 0.190102 0.852435 -0.32189
O_ O_ 0.49633 0.0957748 0.877667 -0.63271
O_ O_ 0.0363093 0.0370951 0.834985 -0.57982
O_ O_ 0.392552 0.0978031 0.838654 -0.63271
O_ O_ 0.36133 0.0977337 0.91423 -0.57982
O_ O_ 0.240304 0.406495 0.588888 -0.63271
O_ O_ 0.205098 0.346371 0.538306 -0.57982
O_ O_ 0.348537 0.350948 0.596094 -0.63271
O_ O_ 0.386931 0.421172 0.586386 -0.57982
O_ O_ 0.988544 0.408191 0.599508 -0.63271
O_ O_ 0.455244 0.464546 0.656059 -0.57982
O_ O_ 0.0906061 0.395291 0.643012 -0.63271
O_ O_ 0.131379 0.414526 0.580143 -0.57982
O_ O_ 0.253759 0.108345 0.910017 -0.63271
O_ O_ 0.287294 0.167267 0.963371 -0.57982
O_ O_ 0.143367 0.159267 0.898852 -0.63271
O_ O_ 0.10866 0.0879773 0.90935 -0.57982
F_ F_ 0.432036 0.328079 0.925714 -0.20885
F_ F_ 0.416862 0.312274 0.841169 -0.20885
F_ F_ 0.363135 0.297135 0.889989 -0.20885
F_ F_ 0.311565 0.433792 0.816206 -0.20885
F_ F_ 0.317259 0.347378 0.810564 -0.20885
F_ F_ 0.384108 0.387166 0.791341 -0.20885
F_ F_ 0.0814136 0.174363 0.57184 -0.20885
F_ F_ 0.0912174 0.189267 0.659926 -0.20885
F_ F_ 0.154081 0.199427 0.612206 -0.20885
F_ F_ 0.191832 0.0609844 0.674908 -0.20885
F_ F_ 0.204788 0.140945 0.687139 -0.20885
F_ F_ 0.135257 0.111373 0.712595 -0.20885
Zn Zn 0.0911614 0.576305 0.33914 0.83971
Zn Zn 0.155926 0.845629 0.0901216 0.83971
Zn Zn 0.407028 0.908979 0.157076 0.83971
Zn Zn 0.342284 0.653507 0.417328 0.83971
H_ H_ 0.163407 0.629007 0.288114 0.10394
H_ H_ 0.253504 0.599365 0.275623 0.10394
H_ H_ 0.229999 0.956874 0.321773 0.10394
H_ H_ 0.139446 0.474898 0.310336 0.10394
H_ H_ 0.540423 0.596259 0.254358 0.10394
H_ H_ 0.481049 0.661686 0.210312 0.10394
H_ H_ 0.0305956 0.762466 0.3404 0.10394
H_ H_ 0.0675093 0.681511 0.38124 0.10394
H_ H_ 0.0211975 0.942145 0.349757 0.10394
H_ H_ 0.484487 0.878541 0.358514 0.10394
H_ H_ 0.373843 0.984562 0.434333 0.10394
H_ H_ 0.0717422 0.815195 0.13472 0.10394
H_ H_ 0.506083 0.751969 0.101141 0.10394
H_ H_ 0.0453814 0.787313 0.443886 0.10394
H_ H_ 0.122354 0.814016 0.988234 0.10394
H_ H_ 0.214127 0.746074 0.101086 0.10394
H_ H_ 0.262495 0.705886 0.177292 0.10394
H_ H_ 0.221519 0.832549 0.271317 0.10394
H_ H_ 0.184044 0.878285 0.197102 0.10394
H_ H_ 0.220288 0.883389 0.442472 0.10394
H_ H_ 0.281855 0.867229 0.378733 0.10394
H_ H_ 0.403606 0.904314 0.492233 0.10394
H_ H_ 0.309803 0.893326 0.1667 0.10394
H_ H_ 0.241834 0.936433 0.218783 0.10394
H_ H_ 0.332428 0.557891 0.264818 0.10394
H_ H_ 0.40105 0.00877564 0.224166 0.10394
H_ H_ 0.0109876 0.879873 0.199461 0.10394
H_ H_ 0.0479961 0.812607 0.254212 0.10394
H_ H_ 0.408165 0.734722 0.212164 0.10394
H_ H_ 0.366863 0.820883 0.186023 0.10394
H_ H_ 0.46527 0.548508 0.110619 0.10394
H_ H_ 0.01643 0.617865 0.108247 0.10394
H_ H_ 0.14701 0.506618 0.0915381 0.10394
H_ H_ 0.445672 0.65448 0.400967 0.10394
H_ H_ 0.020347 0.695203 0.446239 0.10394
H_ H_ 0.418335 0.775655 0.0439422 0.10394
H_ H_ 0.343061 0.744701 0.494441 0.10394
H_ H_ 0.238374 0.686533 0.383729 0.10394
H_ H_ 0.197185 0.720565 0.305734 0.10394
H_ H_ 0.340594 0.745633 0.256787 0.10394
H_ H_ 0.381793 0.704853 0.337066 0.10394
H_ H_ 0.281911 0.630346 0.0460214 0.10394
H_ H_ 0.229838 0.627583 0.10875 0.10394
H_ H_ 0.111139 0.586127 0.00048000000000003595 0.10394
C_ C_ 0.177159 0.589982 0.289395 0.18167
C_ C_ 0.224959 0.573173 0.274613 -0.15533
C_ C_ 0.239739 0.521441 0.265293 0.02923
C_ C_ 0.21592 0.994802 0.313857 -0.15533
C_ C_ 0.161185 0.505275 0.297412 0.18167
C_ C_ 0.0376116 0.634361 0.264805 0.18167
C_ C_ 0.505121 0.673159 0.244138 -0.15533
C_ C_ 0.00725058 0.723817 0.267229 0.02923
C_ C_ 0.0299032 0.72753 0.318879 -0.15533
C_ C_ 0.0522774 0.682427 0.340671 0.18167
C_ C_ 0.0108552 0.542757 0.372133 0.69207
C_ C_ 0.475586 0.00879018 0.374952 0.02923
C_ C_ 0.494645 0.95813 0.362882 -0.15533
C_ C_ 0.467402 0.917319 0.370287 -0.15533
C_ C_ 0.421297 0.926152 0.391699 0.02923
C_ C_ 0.404016 0.976893 0.408604 -0.15533
C_ C_ 0.428159 0.0180657 0.393945 0.02923
C_ C_ 0.396611 0.5725 0.385931 0.69207
C_ C_ 0.409633 0.827732 0.38681 0.69661
C_ C_ 0.0637201 0.805486 0.0937205 0.18167
C_ C_ 0.0213769 0.782466 0.0755731 -0.15533
C_ C_ 0.0132571 0.769317 0.0221747 0.02923
C_ C_ 0.0546043 0.786972 0.484786 -0.15533
C_ C_ 0.0952231 0.800669 0.0118488 0.18167
C_ C_ 0.217415 0.767077 0.138773 0.18167
C_ C_ 0.240909 0.742026 0.180689 -0.15533
C_ C_ 0.239056 0.763078 0.230464 0.02923
C_ C_ 0.219505 0.812147 0.237187 -0.15533
C_ C_ 0.196055 0.838696 0.194453 0.18167
C_ C_ 0.231066 0.874804 0.0485328 0.69207
C_ C_ 0.278086 0.884742 0.50735 0.02923
C_ C_ 0.260965 0.880592 0.454304 -0.15533
C_ C_ 0.293609 0.880139 0.416962 -0.15533
C_ C_ 0.346781 0.888386 0.428439 0.02923
C_ C_ 0.364146 0.897398 0.480162 -0.15533
C_ C_ 0.331949 0.892314 0.520458 0.02923
C_ C_ 0.340696 0.886209 0.0744136 0.69207
C_ C_ 0.357494 0.888759 0.33061 0.69661
C_ C_ 0.317137 0.924139 0.196987 0.18167
C_ C_ 0.276336 0.953793 0.220513 -0.15533
C_ C_ 0.28271 0.996897 0.251998 0.02923
C_ C_ 0.326596 0.523942 0.239541 -0.15533
C_ C_ 0.36822 0.990312 0.226625 0.18167
C_ C_ 0.488719 0.843125 0.197937 0.18167
C_ C_ 0.00982016 0.810403 0.237734 -0.15533
C_ C_ 0.481478 0.764475 0.233658 0.02923
C_ C_ 0.429339 0.766682 0.215431 -0.15533
C_ C_ 0.407672 0.811423 0.192069 0.18167
C_ C_ 0.4853 0.947187 0.127219 0.69207
C_ C_ 0.0235268 0.487822 0.109061 0.02923
C_ C_ 0.00329867 0.538694 0.106896 -0.15533
C_ C_ 0.0331283 0.578929 0.0996469 -0.15533
C_ C_ 0.0859828 0.566179 0.0956487 0.02923
C_ C_ 0.106265 0.515145 0.0946787 -0.15533
C_ C_ 0.0758662 0.475461 0.104339 0.02923
C_ C_ 0.0956344 0.926081 0.113175 0.69207
C_ C_ 0.0987624 0.664391 0.0992335 0.69661
C_ C_ 0.439472 0.680878 0.434802 0.18167
C_ C_ 0.480478 0.703345 0.460122 -0.15533
C_ C_ 0.472367 0.739761 0.5012 0.02923
C_ C_ 0.424959 0.750478 0.0107851 -0.15533
C_ C_ 0.382049 0.732309 0.485056 0.18167
C_ C_ 0.260774 0.694552 0.352202 0.18167
C_ C_ 0.237588 0.718107 0.30941 -0.15533
C_ C_ 0.264593 0.735364 0.273137 0.02923
C_ C_ 0.31819 0.72582 0.278742 -0.15533
C_ C_ 0.342166 0.705804 0.325103 0.18167
C_ C_ 0.263691 0.614494 0.452431 0.69207
C_ C_ 0.226823 0.619045 0.982126 0.02923
C_ C_ 0.24447 0.62116 0.0339208 -0.15533
C_ C_ 0.214714 0.614272 0.072988 -0.15533
C_ C_ 0.163549 0.603642 0.0627022 0.02923
C_ C_ 0.148877 0.592964 0.0102096 -0.15533
C_ C_ 0.176551 0.610001 0.972106 0.02923
C_ C_ 0.152785 0.599198 0.420722 0.69207
C_ C_ 0.152725 0.600754 0.158768 0.69661
C_ C_ 0.38437 0.883719 0.38477 -0.30787
C_ C_ 0.123903 0.608814 0.103236 -0.30787
N_ N_ 0.147166 0.555711 0.303989 -0.32189
N_ N_ 0.0568663 0.637832 0.314366 -0.32189
N_ N_ 0.101644 0.809743 0.0644334 -0.32189
N_ N_ 0.188614 0.811869 0.147711 -0.32189
N_ N_ 0.362662 0.9433 0.200235 -0.32189
N_ N_ 0.438395 0.846858 0.180884 -0.32189
N_ N_ 0.39118 0.694984 0.447354 -0.32189
N_ N_ 0.313019 0.683599 0.356279 -0.32189
O_ O_ 0.506548 0.585156 0.411061 -0.63271
O_ O_ 0.040854 0.534547 0.33543 -0.57982
O_ O_ 0.389141 0.600724 0.345965 -0.63271
O_ O_ 0.376444 0.592873 0.426282 -0.57982
O_ O_ 0.238836 0.90048 0.094165 -0.63271
O_ O_ 0.202852 0.83673 0.0482905 -0.57982
O_ O_ 0.347179 0.842513 0.0951597 -0.63271
O_ O_ 0.372118 0.918334 0.0948202 -0.57982
O_ O_ 0.987751 0.908335 0.108293 -0.63271
O_ O_ 0.453193 0.953692 0.162263 -0.57982
O_ O_ 0.101904 0.901591 0.155142 -0.63271
O_ O_ 0.127262 0.910498 0.0794408 -0.57982
O_ O_ 0.259002 0.593211 0.406158 -0.63271
O_ O_ 0.297889 0.646993 0.462284 -0.57982
O_ O_ 0.158474 0.63789 0.392622 -0.63271
O_ O_ 0.122485 0.566361 0.40279 -0.57982
F_ F_ 0.44825 0.821794 0.427225 -0.20885
F_ F_ 0.428383 0.811133 0.339943 -0.20885
F_ F_ 0.378408 0.792113 0.398231 -0.20885
F_ F_ 0.320327 0.930262 0.331087 -0.20885
F_ F_ 0.336736 0.845054 0.309327 -0.20885
F_ F_ 0.389248 0.89653 0.295603 -0.20885
F_ F_ 0.0656836 0.67312 0.0590237 -0.20885
F_ F_ 0.0716936 0.680948 0.140363 -0.20885
F_ F_ 0.135885 0.696093 0.0974699 -0.20885
F_ F_ 0.190299 0.559421 0.156457 -0.20885
F_ F_ 0.176274 0.642169 0.181596 -0.20885
F_ F_ 0.122624 0.585162 0.19279 -0.20885
Zn Zn 0.085189 0.584932 0.840427 0.83971
Zn Zn 0.161867 0.847351 0.583842 0.83971
Zn Zn 0.411996 0.915695 0.655391 0.83971
Zn Zn 0.342491 0.653851 0.91271 0.83971
H_ H_ 0.161855 0.63806 0.797032 0.10394
H_ H_ 0.239339 0.607428 0.758934 0.10394
H_ H_ 0.208389 0.943869 0.792514 0.10394
H_ H_ 0.135637 0.484352 0.817319 0.10394
H_ H_ 0.513212 0.599732 0.754528 0.10394
H_ H_ 0.467026 0.676595 0.715318 0.10394
H_ H_ 0.0490329 0.773091 0.807032 0.10394
H_ H_ 0.0835581 0.700553 0.862269 0.10394
H_ H_ 0.0160974 0.944782 0.841529 0.10394
H_ H_ 0.469642 0.881864 0.887461 0.10394
H_ H_ 0.345948 0.996566 0.899718 0.10394
H_ H_ 0.083592 0.808672 0.632468 0.10394
H_ H_ 0.495894 0.777474 0.59845 0.10394
H_ H_ 0.042254 0.780569 0.950952 0.10394
H_ H_ 0.124496 0.817705 0.480055 0.10394
H_ H_ 0.207939 0.746682 0.5932 0.10394
H_ H_ 0.243162 0.696188 0.66492 0.10394
H_ H_ 0.227651 0.831836 0.763313 0.10394
H_ H_ 0.195081 0.878622 0.69244 0.10394
H_ H_ 0.205231 0.874117 0.946833 0.10394
H_ H_ 0.258303 0.888949 0.883337 0.10394
H_ H_ 0.384984 0.911291 0.9917 0.10394
H_ H_ 0.297589 0.900941 0.661578 0.10394
H_ H_ 0.228935 0.958112 0.685967 0.10394
H_ H_ 0.332835 0.541623 0.785187 0.10394
H_ H_ 0.406892 -0.013985000000000025 0.749029 0.10394
H_ H_ 0.0151043 0.883554 0.683904 0.10394
H_ H_ 0.057424 0.802996 0.721309 0.10394
H_ H_ 0.405508 0.764092 0.752139 0.10394
H_ H_ 0.370732 0.830728 0.69425 0.10394
H_ H_ 0.465539 0.541946 0.60747 0.10394
H_ H_ 0.00233833 0.615023 0.590174 0.10394
H_ H_ 0.138136 0.508611 0.582653 0.10394
H_ H_ 0.44828 0.66193 0.892584 0.10394
H_ H_ 0.0150147 0.698828 0.938763 0.10394
H_ H_ 0.414688 0.783325 0.541971 0.10394
H_ H_ 0.351372 0.723872 0.0010099999999999554 0.10394
H_ H_ 0.244839 0.703534 0.8824 0.10394
H_ H_ 0.19783 0.736084 0.804762 0.10394
H_ H_ 0.33077 0.696076 0.730339 0.10394
H_ H_ 0.378101 0.672476 0.811674 0.10394
H_ H_ 0.285249 0.61456 0.553036 0.10394
H_ H_ 0.230243 0.602164 0.617864 0.10394
H_ H_ 0.100613 0.589303 0.500236 0.10394
C_ C_ 0.173056 0.596231 0.792812 0.18167
C_ C_ 0.216996 0.58061 0.770905 -0.15533
C_ C_ 0.2298 0.529908 0.760494 0.02923
C_ C_ 0.199663 0.98622 0.787975 -0.15533
C_ C_ 0.159771 0.51156 0.803509 0.18167
C_ C_ 0.0195574 0.636732 0.771031 0.18167
C_ C_ 0.491342 0.682565 0.750766 -0.15533
C_ C_ 0.00805771 0.725756 0.755431 0.02923
C_ C_ 0.0367534 0.735195 0.800319 -0.15533
C_ C_ 0.0584467 0.69563 0.829355 0.18167
C_ C_ 0.00916983 0.542283 0.870123 0.69207
C_ C_ 0.467446 0.00959622 0.871942 0.02923
C_ C_ 0.484132 0.958629 0.864892 -0.15533
C_ C_ 0.453291 0.920443 0.880246 -0.15533
C_ C_ 0.403579 0.934698 0.893207 0.02923
C_ C_ 0.384341 0.985336 0.893608 -0.15533
C_ C_ 0.415188 0.0240788 0.884942 0.02923
C_ C_ 0.397939 0.570093 0.88635 0.69207
C_ C_ 0.394493 0.834249 0.896222 0.69661
C_ C_ 0.075228 0.806549 0.589506 0.18167
C_ C_ 0.028866 0.788366 0.568605 -0.15533
C_ C_ 0.020433 0.774683 0.517993 0.02923
C_ C_ 0.0501495 0.782085 0.99066 -0.15533
C_ C_ 0.100484 0.80616 0.506367 0.18167
C_ C_ 0.214216 0.765954 0.630106 0.18167
C_ C_ 0.234383 0.7358 0.67222 -0.15533
C_ C_ 0.238016 0.758893 0.721262 0.02923
C_ C_ 0.226368 0.811965 0.725334 -0.15533
C_ C_ 0.205733 0.839452 0.684754 0.18167
C_ C_ 0.241502 0.876727 0.545838 0.69207
C_ C_ 0.2642 0.879643 0.00812853 0.02923
C_ C_ 0.246178 0.88068 0.957213 -0.15533
C_ C_ 0.278136 0.889839 0.91985 -0.15533
C_ C_ 0.331235 0.897036 0.931611 0.02923
C_ C_ 0.348246 0.901734 0.983949 -0.15533
C_ C_ 0.316068 0.891224 0.0220906 0.02923
C_ C_ 0.354144 0.890177 0.573651 0.69207
C_ C_ 0.338659 0.887797 0.833054 0.69661
C_ C_ 0.306671 0.936255 0.679393 0.18167
C_ C_ 0.266567 0.966763 0.700039 -0.15533
C_ C_ 0.2757 0.998235 0.742887 0.02923
C_ C_ 0.324646 0.51931 0.751414 -0.15533
C_ C_ 0.366305 0.977881 0.733865 0.18167
C_ C_ 0.493018 0.855298 0.712039 0.18167
C_ C_ 0.0152801 0.808096 0.711244 -0.15533
C_ C_ 0.481884 0.776567 0.74544 0.02923
C_ C_ 0.42945 0.786338 0.733605 -0.15533
C_ C_ 0.411088 0.824644 0.703027 0.18167
C_ C_ 0.488229 0.953518 0.636864 0.69207
C_ C_ 0.0166834 0.490309 0.60869 0.02923
C_ C_ 0.99469 0.541477 0.605628 -0.15533
C_ C_ 0.0237649 0.579703 0.596865 -0.15533
C_ C_ 0.0766514 0.569316 0.593486 0.02923
C_ C_ 0.0963751 0.517338 0.589357 -0.15533
C_ C_ 0.0672223 0.479058 0.60253 0.02923
C_ C_ 0.104514 0.929511 0.61191 0.69207
C_ C_ 0.0917064 0.666006 0.602172 0.69661
C_ C_ 0.443399 0.679672 0.928494 0.18167
C_ C_ 0.482739 0.702353 0.958133 -0.15533
C_ C_ 0.475128 0.737494 -0.0008820000000000494 0.02923
C_ C_ 0.422593 0.753841 0.514974 -0.15533
C_ C_ 0.386241 0.72274 0.985108 0.18167
C_ C_ 0.264189 0.700416 0.849215 0.18167
C_ C_ 0.2379 0.725048 0.807493 -0.15533
C_ C_ 0.265523 0.733888 0.766768 0.02923
C_ C_ 0.315066 0.707484 0.765448 -0.15533
C_ C_ 0.339835 0.691389 0.811762 0.18167
C_ C_ 0.259894 0.630395 0.943746 0.69207
C_ C_ 0.225188 0.608746 0.489201 0.02923
C_ C_ 0.244795 0.609811 0.541859 -0.15533
C_ C_ 0.211068 0.608373 0.579078 -0.15533
C_ C_ 0.157482 0.603135 0.564697 0.02923
C_ C_ 0.14165 0.593106 0.511834 -0.15533
C_ C_ 0.17317 0.600103 0.474568 0.02923
C_ C_ 0.15049 0.611699 0.920502 0.69207
C_ C_ 0.138066 0.606628 0.661231 0.69661
C_ C_ 0.3669 0.890394 0.888445 -0.30787
C_ C_ 0.11651 0.609671 0.605363 -0.30787
N_ N_ 0.142935 0.562303 0.805301 -0.32189
N_ N_ 0.0517812 0.64655 0.814355 -0.32189
N_ N_ 0.109636 0.813112 0.556983 -0.32189
N_ N_ 0.195511 0.815593 0.638551 -0.32189
N_ N_ 0.355853 0.941502 0.697186 -0.32189
N_ N_ 0.443015 0.859487 0.693947 -0.32189
N_ N_ 0.396114 0.689637 0.94443 -0.32189
N_ N_ 0.315445 0.6883 0.854146 -0.32189
O_ O_ 0.50207 0.58368 0.892546 -0.63271
O_ O_ 0.0424251 0.537897 0.836065 -0.57982
O_ O_ 0.389753 0.592677 0.84278 -0.63271
O_ O_ 0.368698 0.587831 0.922717 -0.57982
O_ O_ 0.234828 0.906244 0.586243 -0.63271
O_ O_ 0.21076 0.841449 0.537294 -0.57982
O_ O_ 0.346567 0.852321 0.600553 -0.63271
O_ O_ 0.384935 0.923879 0.592882 -0.57982
O_ O_ 0.994775 0.914655 0.59179 -0.63271
O_ O_ 0.455148 0.962011 0.670681 -0.57982
O_ O_ 0.104064 0.901961 0.652717 -0.63271
O_ O_ 0.13319 0.912895 0.574203 -0.57982
O_ O_ 0.258458 0.603881 0.899272 -0.63271
O_ O_ 0.296098 0.658445 0.953178 -0.57982
O_ O_ 0.153942 0.64834 0.891555 -0.63271
O_ O_ 0.1161 0.582084 0.904374 -0.57982
F_ F_ 0.428145 0.830136 0.939774 -0.20885
F_ F_ 0.422702 0.815311 0.855523 -0.20885
F_ F_ 0.361245 0.798285 0.896314 -0.20885
F_ F_ 0.299245 0.925639 0.824605 -0.20885
F_ F_ 0.315418 0.843782 0.818638 -0.20885
F_ F_ 0.371816 0.893362 0.798184 -0.20885
F_ F_ 0.0610953 0.670754 0.557191 -0.20885
F_ F_ 0.0613432 0.684624 0.640222 -0.20885
F_ F_ 0.130041 0.700316 0.605313 -0.20885
F_ F_ 0.169404 0.56015 0.66561 -0.20885
F_ F_ 0.169443 0.642941 0.680705 -0.20885
F_ F_ 0.100044 0.606902 0.694932 -0.20885
Zn Zn 0.585906 0.0871218 0.344949 0.83971
Zn Zn 0.667528 0.341841 0.0804698 0.83971
Zn Zn 0.908417 0.415414 0.150828 0.83971
Zn Zn 0.839102 0.15375 0.41964 0.83971
H_ H_ 0.66571 0.131634 0.297947 0.10394
H_ H_ 0.739846 0.094153 0.255146 0.10394
H_ H_ 0.705245 0.456129 0.291499 0.10394
H_ H_ 0.632622 0.982095 0.325054 0.10394
H_ H_ 0.0323926 0.0964983 0.253809 0.10394
H_ H_ 0.988446 0.17093 0.210222 0.10394
H_ H_ 0.53417 0.266658 0.31436 0.10394
H_ H_ 0.566589 0.189889 0.36607 0.10394
H_ H_ 0.526665 0.445444 0.358147 0.10394
H_ H_ 0.980571 0.372247 0.376965 0.10394
H_ H_ 0.853616 0.485933 0.396392 0.10394
H_ H_ 0.581213 0.30693 0.129791 0.10394
H_ H_ 1.0031204 0.273644 0.111789 0.10394
H_ H_ 0.523166 0.309953 0.455757 0.10394
H_ H_ 0.616518 0.33404 0.982608 0.10394
H_ H_ 0.704611 0.233387 0.101437 0.10394
H_ H_ 0.751889 0.191074 0.174891 0.10394
H_ H_ 0.721127 0.329051 0.266589 0.10394
H_ H_ 0.692288 0.375788 0.187203 0.10394
H_ H_ 0.715129 0.379395 0.449761 0.10394
H_ H_ 0.762134 0.386619 0.382595 0.10394
H_ H_ 0.897648 0.399802 0.485642 0.10394
H_ H_ 0.800827 0.390048 0.169955 0.10394
H_ H_ 0.728018 0.446391 0.204644 0.10394
H_ H_ 0.829578 0.0419581 0.285702 0.10394
H_ H_ 0.901847 0.501849 0.22705 0.10394
H_ H_ 0.509913 0.379003 0.181446 0.10394
H_ H_ 0.550971 0.311988 0.236734 0.10394
H_ H_ 0.912688 0.251914 0.231339 0.10394
H_ H_ 0.872631 0.327237 0.193182 0.10394
H_ H_ 0.962378 0.0545892 0.133428 0.10394
H_ H_ 0.504982 0.115868 0.107921 0.10394
H_ H_ 0.636583 0.0064085 0.0889362 0.10394
H_ H_ 0.939189 0.165201 0.403463 0.10394
H_ H_ 0.510532 0.223033 0.440775 0.10394
H_ H_ 0.913765 0.282709 0.0574135 0.10394
H_ H_ 0.847987 0.233634 0.513539 0.10394
H_ H_ 0.736847 0.198928 0.387213 0.10394
H_ H_ 0.698087 0.237747 0.310657 0.10394
H_ H_ 0.84296 0.219832 0.248174 0.10394
H_ H_ 0.882082 0.18964 0.329767 0.10394
H_ H_ 0.779499 0.120853 0.055985 0.10394
H_ H_ 0.723456 0.102982 0.119172 0.10394
H_ H_ 0.605248 0.0785206 2.28908e-06 0.10394
C_ C_ 0.672016 0.0906602 0.291886 0.18167
C_ C_ 0.715169 0.0713573 0.270478 -0.15533
C_ C_ 0.730075 0.0185553 0.268443 0.02923
C_ C_ 0.700354 0.494917 0.292351 -0.15533
C_ C_ 0.654596 0.00801831 0.308664 0.18167
C_ C_ 0.527498 0.130734 0.258723 0.18167
C_ C_ 0.00987821 0.176868 0.246663 -0.15533
C_ C_ 0.510242 0.221218 0.248058 0.02923
C_ C_ 0.532162 0.228962 0.298001 -0.15533
C_ C_ 0.553602 0.186904 0.32648 0.18167
C_ C_ 0.504969 0.051334 0.364111 0.69207
C_ C_ 0.976255 0.50317 0.380604 0.02923
C_ C_ 0.995191 0.450779 0.377781 -0.15533
C_ C_ 0.962979 0.412141 0.37973 -0.15533
C_ C_ 0.91107 0.424904 0.388487 0.02923
C_ C_ 0.892101 0.476245 0.392528 -0.15533
C_ C_ 0.926152 0.516821 0.389478 0.02923
C_ C_ 0.892662 0.0712559 0.383884 0.69207
C_ C_ 0.897707 0.331505 0.389177 0.69661
C_ C_ 0.57294 0.299877 0.0886088 0.18167
C_ C_ 0.526492 0.279121 0.0683288 -0.15533
C_ C_ 0.514945 0.276651 0.013837 0.02923
C_ C_ 0.534784 0.309462 0.495387 -0.15533
C_ C_ 0.589916 0.317549 0.00715243 0.18167
C_ C_ 0.716603 0.255892 0.134084 0.18167
C_ C_ 0.7385 0.230633 0.177492 -0.15533
C_ C_ 0.744166 0.257991 0.226179 0.02923
C_ C_ 0.728322 0.309583 0.229533 -0.15533
C_ C_ 0.711872 0.335111 0.183849 0.18167
C_ C_ 0.742694 0.363306 0.0400253 0.69207
C_ C_ 0.778081 0.377271 0.506859 0.02923
C_ C_ 0.755682 0.385476 0.458904 -0.15533
C_ C_ 0.783328 0.387679 0.419288 -0.15533
C_ C_ 0.835056 0.397495 0.425342 0.02923
C_ C_ 0.858634 0.397491 0.476808 -0.15533
C_ C_ 0.82899 0.390287 0.517414 0.02923
C_ C_ 0.8532 0.383236 0.0682942 0.69207
C_ C_ 0.842105 0.388516 0.32898 0.69661
C_ C_ 0.807626 0.428276 0.187244 0.18167
C_ C_ 0.766504 0.457276 0.208213 -0.15533
C_ C_ 0.776769 0.500227 0.244074 0.02923
C_ C_ 0.822247 0.0110711 0.256176 -0.15533
C_ C_ 0.865195 0.4892 0.221343 0.18167
C_ C_ 0.991615 0.355436 0.199582 0.18167
C_ C_ 0.514894 0.306444 0.213402 -0.15533
C_ C_ 0.988076 0.274496 0.239491 0.02923
C_ C_ 0.934972 0.281579 0.227687 -0.15533
C_ C_ 0.912668 0.323329 0.200209 0.18167
C_ C_ 0.988372 0.450982 0.120879 0.69207
C_ C_ 0.520302 0.985992 0.123325 0.02923
C_ C_ 0.499092 0.0370971 0.119838 -0.15533
C_ C_ 0.529272 0.0769576 0.113335 -0.15533
C_ C_ 0.578315 0.0662482 0.102389 0.02923
C_ C_ 0.599128 0.0131464 0.100085 -0.15533
C_ C_ 0.571412 0.973434 0.108533 0.02923
C_ C_ 0.597633 0.419165 0.0975046 0.69207
C_ C_ 0.584514 0.163504 0.0904917 0.69661
C_ C_ 0.936082 0.183156 0.438996 0.18167
C_ C_ 0.978449 0.205279 0.46234 -0.15533
C_ C_ 0.971684 0.239907 0.504635 0.02923
C_ C_ 0.922028 0.263671 0.0228152 -0.15533
C_ C_ 0.883665 0.225609 0.498877 0.18167
C_ C_ 0.760356 0.202181 0.353875 0.18167
C_ C_ 0.739035 0.231407 0.313687 -0.15533
C_ C_ 0.767488 0.232853 0.272186 0.02923
C_ C_ 0.819193 0.219009 0.27823 -0.15533
C_ C_ 0.84215 0.200037 0.325416 0.18167
C_ C_ 0.758739 0.12737 0.456025 0.69207
C_ C_ 0.725718 0.111333 0.992267 0.02923
C_ C_ 0.742512 0.109044 0.0434959 -0.15533
C_ C_ 0.706832 0.104905 0.0798942 -0.15533
C_ C_ 0.656938 0.096036 0.0655804 0.02923
C_ C_ 0.643834 0.087412 0.0134618 -0.15533
C_ C_ 0.67565 0.0969368 0.97666 0.02923
C_ C_ 0.650627 0.109209 0.422499 0.69207
C_ C_ 0.634476 0.114698 0.159279 0.69661
C_ C_ 0.870908 0.386912 0.381817 -0.30787
C_ C_ 0.613957 0.10933 0.101971 -0.30787
N_ N_ 0.639128 0.0593244 0.30782 -0.32189
N_ N_ 0.554513 0.139153 0.304172 -0.32189
N_ N_ 0.606164 0.312995 0.0565119 -0.32189
N_ N_ 0.703833 0.307206 0.138422 -0.32189
N_ N_ 0.854493 0.445774 0.190556 -0.32189
N_ N_ 0.941415 0.360444 0.188024 -0.32189
N_ N_ 0.889118 0.193755 0.455897 -0.32189
N_ N_ 0.811801 0.186499 0.359645 -0.32189
O_ O_ -0.003858000000000028 0.0941953 0.380364 -0.63271
O_ O_ 0.542444 0.0405326 0.335999 -0.57982
O_ O_ 0.886746 0.0980785 0.341813 -0.63271
O_ O_ 0.870435 0.0906753 0.424135 -0.57982
O_ O_ 0.750787 0.382708 0.0871766 -0.63271
O_ O_ 0.705954 0.333471 0.0307389 -0.57982
O_ O_ 0.854852 0.344329 0.0960981 -0.63271
O_ O_ 0.883893 0.41699 0.0845477 -0.57982
O_ O_ 0.487827 0.407674 0.0807208 -0.63271
O_ O_ 0.951731 0.462084 0.151742 -0.57982
O_ O_ 0.599332 0.394084 0.139801 -0.63271
O_ O_ 0.635707 0.40424 0.071891 -0.57982
O_ O_ 0.752894 0.105742 0.409684 -0.63271
O_ O_ 0.79779 0.153252 0.468917 -0.57982
O_ O_ 0.646999 0.150671 0.398215 -0.63271
O_ O_ 0.620473 0.0739968 0.404121 -0.57982
F_ F_ 0.934842 0.32551 0.429205 -0.20885
F_ F_ 0.920961 0.31586 0.343922 -0.20885
F_ F_ 0.862626 0.297977 0.395627 -0.20885
F_ F_ 0.807251 0.429279 0.321378 -0.20885
F_ F_ 0.816552 0.345538 0.316163 -0.20885
F_ F_ 0.874519 0.388014 0.28983 -0.20885
F_ F_ 0.554781 0.165195 0.0435959 -0.20885
F_ F_ 0.558153 0.185567 0.129364 -0.20885
F_ F_ 0.620999 0.196739 0.0894832 -0.20885
F_ F_ 0.669093 0.0720232 0.171894 -0.20885
F_ F_ 0.658984 0.157784 0.169818 -0.20885
F_ F_ 0.596573 0.119099 0.194168 -0.20885
Zn Zn 0.590769 0.082563 0.845839 0.83971
Zn Zn 0.662159 0.343801 0.585586 0.83971
Zn Zn 0.90847 0.420601 0.653648 0.83971
Zn Zn 0.841418 0.161123 0.922069 0.83971
H_ H_ 0.669495 0.136137 0.814307 0.10394
H_ H_ 0.748094 0.109093 0.779759 0.10394
H_ H_ 0.723715 0.444339 0.797267 0.10394
H_ H_ 0.635768 0.981188 0.814179 0.10394
H_ H_ 0.0381851 0.101985 0.736857 0.10394
H_ H_ 1.0004084 0.175486 0.693083 0.10394
H_ H_ 0.529812 0.265819 0.833868 0.10394
H_ H_ 0.576085 0.193712 0.876357 0.10394
H_ H_ 0.527044 0.440564 0.853875 0.10394
H_ H_ 0.984691 0.375932 0.884613 0.10394
H_ H_ 0.855731 0.481715 0.906378 0.10394
H_ H_ 0.582527 0.307989 0.636419 0.10394
H_ H_ 0.0048903 0.26242 0.599705 0.10394
H_ H_ 0.531798 0.299968 0.94176 0.10394
H_ H_ 0.59875 0.355585 0.490513 0.10394
H_ H_ 0.724799 0.238724 0.594101 0.10394
H_ H_ 0.770806 0.198676 0.670879 0.10394
H_ H_ 0.736379 0.332807 0.760963 0.10394
H_ H_ 0.697601 0.372106 0.683646 0.10394
H_ H_ 0.719623 0.351548 0.938603 0.10394
H_ H_ 0.768624 0.381706 0.875685 0.10394
H_ H_ 0.895069 0.405676 0.987149 0.10394
H_ H_ 0.806768 0.399707 0.661936 0.10394
H_ H_ 0.733948 0.448364 0.70139 0.10394
H_ H_ 0.841441 0.0282391 0.797451 0.10394
H_ H_ 0.909571 0.495628 0.739409 0.10394
H_ H_ 0.519 0.387042 0.706911 0.10394
H_ H_ 0.559333 0.303413 0.734708 0.10394
H_ H_ 0.917802 0.245653 0.707027 0.10394
H_ H_ 0.878006 0.323448 0.6731 0.10394
H_ H_ 0.97052 0.0637549 0.63236 0.10394
H_ H_ 0.510351 0.12262 0.603189 0.10394
H_ H_ 0.640429 0.00629146 0.596122 0.10394
H_ H_ 0.944516 0.158633 0.918075 0.10394
H_ H_ 0.513441 0.20182 0.937099 0.10394
H_ H_ 0.91892 0.272801 0.557666 0.10394
H_ H_ 0.843047 0.246059 0.006690000000000085 0.10394
H_ H_ 0.737616 0.202941 0.886247 0.10394
H_ H_ 0.703128 0.245235 0.805983 0.10394
H_ H_ 0.854294 0.237546 0.759431 0.10394
H_ H_ 0.887127 0.192065 0.832586 0.10394
H_ H_ 0.779105 0.134464 0.559338 0.10394
H_ H_ 0.728467 0.0973231 0.61701 0.10394
H_ H_ 0.599364 0.104856 0.500063 0.10394
C_ C_ 0.678547 0.0955361 0.802357 0.18167
C_ C_ 0.722101 0.0786815 0.778607 -0.15533
C_ C_ 0.736313 0.0279517 0.765928 0.02923
C_ C_ 0.708408 0.485688 0.796134 -0.15533
C_ C_ 0.661971 0.010277 0.803532 0.18167
C_ C_ 0.537802 0.13294 0.764449 0.18167
C_ C_ 0.0139399 0.183014 0.730564 -0.15533
C_ C_ 0.511354 0.223525 0.761882 0.02923
C_ C_ 0.531266 0.229301 0.813013 -0.15533
C_ C_ 0.557408 0.188188 0.837412 0.18167
C_ C_ 0.503621 0.0481013 0.862342 0.69207
C_ C_ 0.973328 0.501708 0.872905 0.02923
C_ C_ 0.995064 0.451907 0.873309 -0.15533
C_ C_ 0.965376 0.41196 0.87761 -0.15533
C_ C_ 0.913451 0.42168 0.888966 0.02923
C_ C_ 0.895725 0.473813 0.89737 -0.15533
C_ C_ 0.92429 0.513804 0.888929 0.02923
C_ C_ 0.887944 0.0740608 0.88037 0.69207
C_ C_ 0.904867 0.32384 0.882738 0.69661
C_ C_ 0.571643 0.302328 0.595965 0.18167
C_ C_ 0.524749 0.285915 0.580651 -0.15533
C_ C_ 0.507396 0.284037 0.527542 0.02923
C_ C_ 0.547059 0.295585 0.98336 -0.15533
C_ C_ 0.582051 0.325307 0.512023 0.18167
C_ C_ 0.721914 0.259021 0.631764 0.18167
C_ C_ 0.746746 0.234827 0.674199 -0.15533
C_ C_ 0.747964 0.259387 0.724293 0.02923
C_ C_ 0.726273 0.310884 0.726548 -0.15533
C_ C_ 0.705121 0.334486 0.683538 0.18167
C_ C_ 0.74563 0.362936 0.546595 0.69207
C_ C_ 0.777806 0.369764 1.00162573 0.02923
C_ C_ 0.759892 0.362196 0.950657 -0.15533
C_ C_ 0.78876 0.376273 0.914745 -0.15533
C_ C_ 0.839569 0.386428 0.924835 0.02923
C_ C_ 0.857029 0.393655 0.977818 -0.15533
C_ C_ 0.828547 0.384535 0.0168932 0.02923
C_ C_ 0.8578 0.386712 0.568528 0.69207
C_ C_ 0.851475 0.380644 0.826197 0.69661
C_ C_ 0.810697 0.433826 0.685306 0.18167
C_ C_ 0.771794 0.460043 0.710437 -0.15533
C_ C_ 0.780908 0.498482 0.745888 0.02923
C_ C_ 0.831966 0.00923721 0.758142 -0.15533
C_ C_ 0.869048 0.490154 0.728783 0.18167
C_ C_ 0.992813 0.359266 0.698991 0.18167
C_ C_ 0.519401 0.306516 0.723393 -0.15533
C_ C_ 0.989389 0.274674 0.72776 0.02923
C_ C_ 0.939405 0.277922 0.71011 -0.15533
C_ C_ 0.916591 0.321537 0.684958 0.18167
C_ C_ 0.985115 0.452555 0.620542 0.69207
C_ C_ 0.521119 0.994963 0.628146 0.02923
C_ C_ 0.499909 0.0456066 0.6216 -0.15533
C_ C_ 0.529293 0.0838854 0.609981 -0.15533
C_ C_ 0.582253 0.0731128 0.602909 0.02923
C_ C_ 0.600631 0.0197807 0.603184 -0.15533
C_ C_ 0.573442 0.981876 0.618393 0.02923
C_ C_ 0.607038 0.42238 0.620012 0.69207
C_ C_ 0.59376 0.167867 0.599841 0.69661
C_ C_ 0.938043 0.184916 0.949255 0.18167
C_ C_ 0.980532 0.203423 0.975204 -0.15533
C_ C_ 0.973353 0.243385 0.0139623 0.02923
C_ C_ 0.924084 0.251241 0.521701 -0.15533
C_ C_ 0.881601 0.240272 0.993461 0.18167
C_ C_ 0.761858 0.205673 0.854536 0.18167
C_ C_ 0.742466 0.230647 0.809133 -0.15533
C_ C_ 0.772336 0.235671 0.769661 0.02923
C_ C_ 0.824234 0.22397 0.782462 -0.15533
C_ C_ 0.845229 0.199015 0.826394 0.18167
C_ C_ 0.762444 0.119964 0.953604 0.69207
C_ C_ 0.722621 0.122607 0.492061 0.02923
C_ C_ 0.739884 0.123335 0.545977 -0.15533
C_ C_ 0.71011 0.108218 0.579879 -0.15533
C_ C_ 0.658164 0.103946 0.566048 0.02923
C_ C_ 0.639943 0.105683 0.514215 -0.15533
C_ C_ 0.673508 0.108468 0.476822 0.02923
C_ C_ 0.652556 0.100886 0.924403 0.69207
C_ C_ 0.646849 0.115215 0.662294 0.69661
C_ C_ 0.877408 0.379807 0.882026 -0.30787
C_ C_ 0.620038 0.111765 0.607142 -0.30787
N_ N_ 0.646974 0.0605153 0.813751 -0.32189
N_ N_ 0.563119 0.141112 0.811597 -0.32189
N_ N_ 0.600691 0.319344 0.562672 -0.32189
N_ N_ 0.695653 0.306832 0.639151 -0.32189
N_ N_ 0.858071 0.450912 0.692923 -0.32189
N_ N_ 0.943504 0.361439 0.68158 -0.32189
N_ N_ 0.889736 0.199708 0.959461 -0.32189
N_ N_ 0.81362 0.191214 0.862642 -0.32189
O_ O_ -0.00298505 0.089775 0.88968 -0.63271
O_ O_ 0.5433 0.0340339 0.835881 -0.57982
O_ O_ 0.893188 0.099426 0.841658 -0.63271
O_ O_ 0.866234 0.0941646 0.9208 -0.57982
O_ O_ 0.760464 0.363144 0.595585 -0.63271
O_ O_ 0.702937 0.340564 0.534111 -0.57982
O_ O_ 0.864249 0.344845 0.591478 -0.63271
O_ O_ 0.873 0.4283 0.591949 -0.57982
O_ O_ 0.493183 0.408389 0.602618 -0.63271
O_ O_ 0.955851 0.463893 0.657408 -0.57982
O_ O_ 0.600906 0.393262 0.657642 -0.63271
O_ O_ 0.645883 0.411423 0.596153 -0.57982
O_ O_ 0.75803 0.100142 0.906448 -0.63271
O_ O_ 0.792571 0.157896 0.963864 -0.57982
O_ O_ 0.653975 0.142709 0.900393 -0.63271
O_ O_ 0.617294 0.0715872 0.908088 -0.57982
F_ F_ 0.940857 0.31435 0.921672 -0.20885
F_ F_ 0.926676 0.307767 0.838083 -0.20885
F_ F_ 0.867411 0.290598 0.886725 -0.20885
F_ F_ 0.819449 0.424154 0.822119 -0.20885
F_ F_ 0.819487 0.343278 0.809956 -0.20885
F_ F_ 0.882092 0.385933 0.787936 -0.20885
F_ F_ 0.555773 0.171376 0.558096 -0.20885
F_ F_ 0.571076 0.189678 0.642026 -0.20885
F_ F_ 0.628944 0.200983 0.590922 -0.20885
F_ F_ 0.670393 0.0672622 0.67268 -0.20885
F_ F_ 0.679928 0.151317 0.673707 -0.20885
F_ F_ 0.612739 0.124996 0.700362 -0.20885
Zn Zn 0.590752 0.589915 0.351785 0.83971
Zn Zn 0.661551 0.841239 0.0886568 0.83971
Zn Zn 0.909401 0.915296 0.160184 0.83971
Zn Zn 0.84332 0.652513 0.421023 0.83971
H_ H_ 0.676301 0.638145 0.307385 0.10394
H_ H_ 0.747392 0.60227 0.259908 0.10394
H_ H_ 0.710654 0.944348 0.294448 0.10394
H_ H_ 0.634203 0.494087 0.332996 0.10394
H_ H_ 0.0413692 0.59893 0.243669 0.10394
H_ H_ 0.997374 0.673176 0.200502 0.10394
H_ H_ 0.52361 0.77136 0.333574 0.10394
H_ H_ 0.562048 0.699543 0.382785 0.10394
H_ H_ 0.530712 0.950595 0.344657 0.10394
H_ H_ 0.97498 0.882484 0.378813 0.10394
H_ H_ 0.851112 0.989914 0.408499 0.10394
H_ H_ 0.584597 0.79186 0.13907 0.10394
H_ H_ 0.995201 0.77331 0.102357 0.10394
H_ H_ 0.535127 0.794484 0.45024 0.10394
H_ H_ 0.612623 0.830099 0.990528 0.10394
H_ H_ 0.72332 0.741995 0.106129 0.10394
H_ H_ 0.757338 0.698148 0.177218 0.10394
H_ H_ 0.709229 0.82699 0.275434 0.10394
H_ H_ 0.669022 0.869197 0.201311 0.10394
H_ H_ 0.717962 0.853225 0.442788 0.10394
H_ H_ 0.772841 0.859502 0.379078 0.10394
H_ H_ 0.885912 0.913012 0.484637 0.10394
H_ H_ 0.809381 0.889907 0.171336 0.10394
H_ H_ 0.730689 0.939474 0.195028 0.10394
H_ H_ 0.836911 0.542563 0.278922 0.10394
H_ H_ 0.902133 0.99533813 0.246552 0.10394
H_ H_ 0.513306 0.874081 0.194001 0.10394
H_ H_ 0.552217 0.797156 0.232936 0.10394
H_ H_ 0.913537 0.734425 0.216723 0.10394
H_ H_ 0.868928 0.820001 0.191156 0.10394
H_ H_ 0.962937 0.549216 0.11493 0.10394
H_ H_ 0.523175 0.613769 0.111105 0.10394
H_ H_ 0.652084 0.496724 0.09449 0.10394
H_ H_ 0.944359 0.657805 0.404362 0.10394
H_ H_ 0.518434 0.687467 0.453744 0.10394
H_ H_ 0.915804 0.767733 0.0503725 0.10394
H_ H_ 0.843355 0.744278 0.494706 0.10394
H_ H_ 0.741206 0.702739 0.398529 0.10394
H_ H_ 0.693789 0.741324 0.319332 0.10394
H_ H_ 0.839847 0.731483 0.254923 0.10394
H_ H_ 0.874925 0.682235 0.328339 0.10394
H_ H_ 0.788516 0.597178 0.0473406 0.10394
H_ H_ 0.737116 0.602584 0.118581 0.10394
H_ H_ 0.609036 0.580262 0.00377975 0.10394
C_ C_ 0.681156 0.598742 0.299748 0.18167
C_ C_ 0.72355 0.578323 0.276174 -0.15533
C_ C_ 0.73398 0.524557 0.271659 0.02923
C_ C_ 0.699875 0.986209 0.29179 -0.15533
C_ C_ 0.656474 0.518931 0.31342 0.18167
C_ C_ 0.536292 0.634885 0.272883 0.18167
C_ C_ 0.0132415 0.677028 0.239644 -0.15533
C_ C_ 0.503442 0.723037 0.264949 0.02923
C_ C_ 0.522249 0.732884 0.316528 -0.15533
C_ C_ 0.548145 0.69379 0.342325 0.18167
C_ C_ 0.507781 0.547644 0.375386 0.69207
C_ C_ 0.969476 0.00580717 0.369115 0.02923
C_ C_ -0.01583100000000004 0.95581 0.3603 -0.15533
C_ C_ 0.955552 0.918208 0.374935 -0.15533
C_ C_ 0.907994 0.928533 0.391339 0.02923
C_ C_ 0.88738 0.980064 0.391475 -0.15533
C_ C_ 0.917798 0.0191735 0.382438 0.02923
C_ C_ 0.903461 0.570311 0.392371 0.69207
C_ C_ 0.898003 0.832962 0.387349 0.69661
C_ C_ 0.573456 0.790967 0.0965096 0.18167
C_ C_ 0.527411 0.769507 0.0752669 -0.15533
C_ C_ 0.516604 0.767638 0.0242172 0.02923
C_ C_ 0.545378 0.791248 0.489233 -0.15533
C_ C_ 0.587257 0.81589 0.0146029 0.18167
C_ C_ 0.716771 0.760569 0.143465 0.18167
C_ C_ 0.738218 0.73533 0.185609 -0.15533
C_ C_ 0.736503 0.758305 0.23373 0.02923
C_ C_ 0.708626 0.806736 0.239065 -0.15533
C_ C_ 0.690522 0.833086 0.19674 0.18167
C_ C_ 0.740773 0.864251 0.0470552 0.69207
C_ C_ 0.775434 0.872033 0.506284 0.02923
C_ C_ 0.756769 0.858858 0.455226 -0.15533
C_ C_ 0.785934 0.871997 0.416981 -0.15533
C_ C_ 0.834166 0.888567 0.42809 0.02923
C_ C_ 0.849674 0.901001 0.478214 -0.15533
C_ C_ 0.823758 0.891258 0.518707 0.02923
C_ C_ 0.852322 0.882126 0.0760318 0.69207
C_ C_ 0.844017 0.888813 0.330568 0.69661
C_ C_ 0.810967 0.928629 0.186354 0.18167
C_ C_ 0.766492 0.95385 0.205338 -0.15533
C_ C_ 0.773664 0.995162 0.242642 0.02923
C_ C_ 0.827054 0.514748 0.250075 -0.15533
C_ C_ 0.86352 0.988804 0.231236 0.18167
C_ C_ 0.987119 0.851416 0.207523 0.18167
C_ C_ 0.511178 0.802006 0.222432 -0.15533
C_ C_ 0.982798 0.768983 0.243445 0.02923
C_ C_ 0.934124 0.766712 0.21513 -0.15533
C_ C_ 0.909518 0.812246 0.194249 0.18167
C_ C_ 0.98895 0.951077 0.136918 0.69207
C_ C_ 0.521739 0.486555 0.100422 0.02923
C_ C_ 0.506033 0.538192 0.111956 -0.15533
C_ C_ 0.53766 0.575084 0.104928 -0.15533
C_ C_ 0.591897 0.55994 0.10023 0.02923
C_ C_ 0.610565 0.507504 0.09 -0.15533
C_ C_ 0.574459 0.472373 0.0952688 0.02923
C_ C_ 0.596369 0.921825 0.110854 0.69207
C_ C_ 0.60567 0.657817 0.110311 0.69661
C_ C_ 0.93942 0.682678 0.436833 0.18167
C_ C_ 0.980359 0.708964 0.456694 -0.15533
C_ C_ 0.972912 0.747191 0.494503 0.02923
C_ C_ 0.924752 0.744119 1.0187152 -0.15533
C_ C_ 0.883173 0.731154 0.4905 0.18167
C_ C_ 0.759617 0.702701 0.363772 0.18167
C_ C_ 0.733 0.726138 0.319374 -0.15533
C_ C_ 0.760369 0.731633 0.277687 0.02923
C_ C_ 0.814432 0.71978 0.283035 -0.15533
C_ C_ 0.833623 0.691248 0.324506 0.18167
C_ C_ 0.763488 0.625632 0.457822 0.69207
C_ C_ 0.726228 0.611143 0.989831 0.02923
C_ C_ 0.747735 0.607097 0.0407099 -0.15533
C_ C_ 0.717657 0.600339 0.0787371 -0.15533
C_ C_ 0.666261 0.59459 0.0667277 0.02923
C_ C_ 0.646876 0.588347 0.0156556 -0.15533
C_ C_ 0.674472 0.602642 0.976316 0.02923
C_ C_ 0.650679 0.614145 0.426944 0.69207
C_ C_ 0.650405 0.593706 0.164173 0.69661
C_ C_ 0.872125 0.887104 0.384991 -0.30787
C_ C_ 0.629023 0.602302 0.108544 -0.30787
N_ N_ 0.646002 0.56897 0.314392 -0.32189
N_ N_ 0.559959 0.64749 0.318472 -0.32189
N_ N_ 0.601264 0.813727 0.0661962 -0.32189
N_ N_ 0.693688 0.810209 0.149227 -0.32189
N_ N_ 0.856421 0.949379 0.196256 -0.32189
N_ N_ 0.93649 0.85385 0.194738 -0.32189
N_ N_ 0.893369 0.692687 0.454705 -0.32189
N_ N_ 0.807837 0.680952 0.363084 -0.32189
O_ O_ 0.00817284 0.5869 0.397485 -0.63271
O_ O_ 0.546017 0.541042 0.345245 -0.57982
O_ O_ 0.89931 0.5958 0.351279 -0.63271
O_ O_ 0.871439 0.586923 0.427049 -0.57982
O_ O_ 0.746639 0.885083 0.0960891 -0.63271
O_ O_ 0.700149 0.839499 0.0355457 -0.57982
O_ O_ 0.862168 0.839534 0.101287 -0.63271
O_ O_ 0.881608 0.917127 0.0927538 -0.57982
O_ O_ 0.485162 0.907993 0.096967 -0.63271
O_ O_ 0.951851 0.961967 0.164083 -0.57982
O_ O_ 0.591983 0.896433 0.149879 -0.63271
O_ O_ 0.633314 0.906744 0.0818376 -0.57982
O_ O_ 0.756636 0.60678 0.41146 -0.63271
O_ O_ 0.802678 0.65288 0.470812 -0.57982
O_ O_ 0.650635 0.654052 0.40078 -0.63271
O_ O_ 0.616382 0.583189 0.413513 -0.57982
F_ F_ 0.937945 0.826697 0.426725 -0.20885
F_ F_ 0.922536 0.816099 0.345528 -0.20885
F_ F_ 0.86525 0.795056 0.390026 -0.20885
F_ F_ 0.801589 0.923258 0.333956 -0.20885
F_ F_ 0.824203 0.84532 0.309956 -0.20885
F_ F_ 0.87058 0.906159 0.296311 -0.20885
F_ F_ 0.577094 0.666409 0.0641128 -0.20885
F_ F_ 0.576102 0.675206 0.148278 -0.20885
F_ F_ 0.644681 0.690414 0.112436 -0.20885
F_ F_ 0.679307 0.546066 0.172278 -0.20885
F_ F_ 0.684074 0.628679 0.181225 -0.20885
F_ F_ 0.613486 0.600123 0.196556 -0.20885
Zn Zn 0.585865 0.58199 0.844741 0.83971
Zn Zn 0.659982 0.850084 0.588977 0.83971
Zn Zn 0.911056 0.920716 0.646511 0.83971
Zn Zn 0.839132 0.650152 0.917735 0.83971
H_ H_ 0.667639 0.629003 0.80843 0.10394
H_ H_ 0.754565 0.597872 0.783819 0.10394
H_ H_ 0.705472 0.952418 0.76202 0.10394
H_ H_ 0.640844 0.480299 0.82787 0.10394
H_ H_ 0.00339359 0.600298 0.767953 0.10394
H_ H_ 0.972783 0.66591 0.708402 0.10394
H_ H_ 0.53539 0.767536 0.841915 0.10394
H_ H_ 0.567318 0.691691 0.884458 0.10394
H_ H_ 0.522383 0.947485 0.854118 0.10394
H_ H_ 0.966769 0.875929 0.865764 0.10394
H_ H_ 0.845465 0.991954 0.91288 0.10394
H_ H_ 0.578348 0.811791 0.634347 0.10394
H_ H_ 0.009630000000000027 0.769848 0.592816 0.10394
H_ H_ 0.532691 0.793578 0.950824 0.10394
H_ H_ 0.606988 0.837375 0.484059 0.10394
H_ H_ 0.7178 0.751551 0.595244 0.10394
H_ H_ 0.758774 0.699209 0.665229 0.10394
H_ H_ 0.732373 0.830913 0.768067 0.10394
H_ H_ 0.695038 0.881093 0.695297 0.10394
H_ H_ 0.711331 0.901687 0.951162 0.10394
H_ H_ 0.761908 0.908934 0.880805 0.10394
H_ H_ 0.893836 0.907629 0.991185 0.10394
H_ H_ 0.803189 0.971208 0.616598 0.10394
H_ H_ 0.735388 0.997283 0.666749 0.10394
H_ H_ 0.837587 0.535198 0.79114 0.10394
H_ H_ 0.911229 0.981804 0.742963 0.10394
H_ H_ 0.517328 0.881547 0.698809 0.10394
H_ H_ 0.554223 0.805038 0.746306 0.10394
H_ H_ 0.910921 0.755386 0.726813 0.10394
H_ H_ 0.872166 0.831349 0.683583 0.10394
H_ H_ 0.955046 0.553029 0.610457 0.10394
H_ H_ 0.516295 0.61362 0.605973 0.10394
H_ H_ 0.650227 0.51091 0.604419 0.10394
H_ H_ 0.941036 0.665811 0.895179 0.10394
H_ H_ 0.521392 0.692369 0.951243 0.10394
H_ H_ 0.920112 0.782727 0.544495 0.10394
H_ H_ 0.847803 0.726206 1.00708241 0.10394
H_ H_ 0.736792 0.689955 0.884201 0.10394
H_ H_ 0.691013 0.73445 0.808712 0.10394
H_ H_ 0.836409 0.713864 0.744314 0.10394
H_ H_ 0.878766 0.674589 0.824921 0.10394
H_ H_ 0.785115 0.627573 0.55675 0.10394
H_ H_ 0.730445 0.608543 0.621608 0.10394
H_ H_ 0.601829 0.603826 0.509733 0.10394
C_ C_ 0.67729 0.588822 0.800393 0.18167
C_ C_ 0.727082 0.572159 0.788394 -0.15533
C_ C_ 0.740777 0.519772 0.779901 0.02923
C_ C_ 0.701312 0.992455 0.772659 -0.15533
C_ C_ 0.662937 0.505561 0.814548 0.18167
C_ C_ 0.518899 0.638015 0.772683 0.18167
C_ C_ -0.00012999999999996348 0.674691 0.73947 -0.15533
C_ C_ 0.502218 0.73049 0.772772 0.02923
C_ C_ 0.532884 0.731196 0.820659 -0.15533
C_ C_ 0.553746 0.688103 0.843752 0.18167
C_ C_ 0.506327 0.539936 0.867129 0.69207
C_ C_ 0.962334 0.00588395 0.869397 0.02923
C_ C_ -0.019264999999999977 0.955001 0.860904 -0.15533
C_ C_ 0.952577 0.917034 0.87513 -0.15533
C_ C_ 0.903033 0.926933 0.891278 0.02923
C_ C_ 0.883192 0.979901 0.897154 -0.15533
C_ C_ 0.912115 0.0194735 0.883759 0.02923
C_ C_ 0.894839 0.564816 0.886351 0.69207
C_ C_ 0.892668 0.829788 0.902932 0.69661
C_ C_ 0.569313 0.806345 0.594286 0.18167
C_ C_ 0.524688 0.783306 0.573702 -0.15533
C_ C_ 0.515403 0.768832 0.522024 0.02923
C_ C_ 0.542849 0.793985 0.993458 -0.15533
C_ C_ 0.587643 0.815328 0.507795 0.18167
C_ C_ 0.716466 0.767 0.635039 0.18167
C_ C_ 0.736899 0.736289 0.673856 -0.15533
C_ C_ 0.738277 0.758232 0.725209 0.02923
C_ C_ 0.727614 0.811623 0.731986 -0.15533
C_ C_ 0.703045 0.839286 0.692375 0.18167
C_ C_ 0.736722 0.866848 0.543286 0.69207
C_ C_ 0.772994 0.880556 1.0111376 0.02923
C_ C_ 0.75192 0.89295 0.9613 -0.15533
C_ C_ 0.782376 0.89821 0.919956 -0.15533
C_ C_ 0.834701 0.896729 0.931815 0.02923
C_ C_ 0.85636 0.897108 0.982426 -0.15533
C_ C_ 0.826393 0.883102 0.0223074 0.02923
C_ C_ 0.848607 0.88769 0.572098 0.69207
C_ C_ 0.843292 0.877483 0.8349 0.69661
C_ C_ 0.813679 0.973717 0.658839 0.18167
C_ C_ 0.77355 0.994165 0.68658 -0.15533
C_ C_ 0.780492 0.01105 0.737204 0.02923
C_ C_ 0.830293 0.510112 0.758643 -0.15533
C_ C_ 0.871946 0.981047 0.731589 0.18167
C_ C_ 0.993132 0.854824 0.692209 0.18167
C_ C_ 0.514197 0.81171 0.737687 -0.15533
C_ C_ 0.985134 0.7687 0.721701 0.02923
C_ C_ 0.933452 0.779816 0.711499 -0.15533
C_ C_ 0.911677 0.827386 0.695309 0.18167
C_ C_ 0.990986 0.959054 0.619966 0.69207
C_ C_ 0.530355 0.487414 0.623592 0.02923
C_ C_ 0.506362 0.535226 0.614771 -0.15533
C_ C_ 0.536044 0.575116 0.608405 -0.15533
C_ C_ 0.589269 0.56724 0.609132 0.02923
C_ C_ 0.613595 0.517515 0.613804 -0.15533
C_ C_ 0.583738 0.475601 0.619467 0.02923
C_ C_ 0.597163 0.929741 0.621198 0.69207
C_ C_ 0.595491 0.663651 0.607366 0.69661
C_ C_ 0.935677 0.684447 0.931105 0.18167
C_ C_ 0.977845 0.706695 0.956764 -0.15533
C_ C_ 0.971951 0.738694 1.00200254 0.02923
C_ C_ 0.925126 0.75516 0.514636 -0.15533
C_ C_ 0.886651 0.714152 0.996564 0.18167
C_ C_ 0.756847 0.691992 0.851151 0.18167
C_ C_ 0.732648 0.718478 0.809449 -0.15533
C_ C_ 0.761064 0.725606 0.76697 0.02923
C_ C_ 0.814456 0.708188 0.773986 -0.15533
C_ C_ 0.837766 0.687918 0.819535 0.18167
C_ C_ 0.763324 0.620009 0.951466 0.69207
C_ C_ 0.72603 0.623553 0.494441 0.02923
C_ C_ 0.744537 0.623943 0.547201 -0.15533
C_ C_ 0.714244 0.61002 0.584466 -0.15533
C_ C_ 0.662347 0.6073 0.572422 0.02923
C_ C_ 0.643827 0.608437 0.521117 -0.15533
C_ C_ 0.675655 0.612008 0.480145 0.02923
C_ C_ 0.649309 0.602214 0.922219 0.69207
C_ C_ 0.65164 0.611715 0.671524 0.69661
C_ C_ 0.869551 0.882623 0.889202 -0.30787
C_ C_ 0.625592 0.609726 0.615116 -0.30787
N_ N_ 0.643351 0.555206 0.811821 -0.32189
N_ N_ 0.546815 0.642419 0.819228 -0.32189
N_ N_ 0.599794 0.818102 0.560288 -0.32189
N_ N_ 0.697173 0.816764 0.644917 -0.32189
N_ N_ 0.861468 0.961446 0.683061 -0.32189
N_ N_ 0.941434 0.862743 0.681968 -0.32189
N_ N_ 0.889624 0.691333 0.949443 -0.32189
N_ N_ 0.808423 0.676655 0.854695 -0.32189
O_ O_ 1.00320225 0.585146 0.89637 -0.63271
O_ O_ 0.545407 0.530665 0.838037 -0.57982
O_ O_ 0.898809 0.594359 0.849396 -0.63271
O_ O_ 0.869754 0.584561 0.923874 -0.57982
O_ O_ 0.741454 0.893637 0.587975 -0.63271
O_ O_ 0.699299 0.837491 0.53159 -0.57982
O_ O_ 0.845998 0.848426 0.599022 -0.63271
O_ O_ 0.885282 0.916587 0.584695 -0.57982
O_ O_ 0.492208 0.910633 0.612087 -0.63271
O_ O_ 0.952253 0.969459 0.646767 -0.57982
O_ O_ 0.599219 0.90604 0.663363 -0.63271
O_ O_ 0.626404 0.912334 0.585455 -0.57982
O_ O_ 0.759802 0.601128 0.904828 -0.63271
O_ O_ 0.795654 0.65435 0.963258 -0.57982
O_ O_ 0.651198 0.643752 0.894923 -0.63271
O_ O_ 0.611279 0.575175 0.909447 -0.57982
F_ F_ 0.929861 0.830143 0.942048 -0.20885
F_ F_ 0.916523 0.806268 0.860063 -0.20885
F_ F_ 0.859945 0.793807 0.914138 -0.20885
F_ F_ 0.814008 0.924051 0.823495 -0.20885
F_ F_ 0.814627 0.834133 0.827455 -0.20885
F_ F_ 0.878403 0.874491 0.798146 -0.20885
F_ F_ 0.561924 0.668488 0.563916 -0.20885
F_ F_ 0.572088 0.684088 0.651915 -0.20885
F_ F_ 0.627931 0.700698 0.604582 -0.20885
F_ F_ 0.687054 0.571436 0.683762 -0.20885
F_ F_ 0.674712 0.655853 0.687123 -0.20885
F_ F_ 0.610387 0.614411 0.705856 -0.20885
_cell_length_a 26.508
_cell_length_b 26.37200000322088
_cell_length_c 26.311999743092066
_cell_angle_alpha 93.74100058972084
_cell_angle_beta 96.04100104955006
_cell_angle_gamma 83.6869992558723
_symmetry_space_group_name_H-M         'P 1'
_symmetry_Int_Tables_number            1
loop_
_symmetry_equiv_pos_as_xyz
   'x, y, z'
                         
loop_
_atom_site_label
_atom_site_type_symbol
_atom_site_fract_x 
_atom_site_fract_y
_atom_site_fract_z
_atom_site_charge
Zn Zn 0.0899591 0.0880175 0.353465 0.83971
Zn Zn 0.165131 0.343759 0.0867426 0.83971
Zn Zn 0.408248 0.415477 0.150914 0.83971
Zn Zn 0.344491 0.156892 0.421173 0.83971
H_ H_ 0.164388 0.133479 0.289733 0.10394
H_ H_ 0.243043 0.0930901 0.249877 0.10394
H_ H_ 0.223123 0.44616 0.285692 0.10394
H_ H_ 0.148596 0.994538 0.355495 0.10394
H_ H_ 0.520942 0.0934556 0.242943 0.10394
H_ H_ 0.485765 0.162854 0.191616 0.10394
H_ H_ 0.0390853 0.275777 0.333045 0.10394
H_ H_ 0.0768119 0.200221 0.380713 0.10394
H_ H_ 0.0342095 0.442008 0.370628 0.10394
H_ H_ 0.481312 0.380682 0.37622 0.10394
H_ H_ 0.354902 0.491541 0.41047 0.10394
H_ H_ 0.082052 0.315793 0.14231 0.10394
H_ H_ 0.503305 0.259947 0.0926694 0.10394
H_ H_ 0.0343634 0.29179 0.448017 0.10394
H_ H_ 0.124025 0.314477 0.992985 0.10394
H_ H_ 0.224344 0.245239 0.100043 0.10394
H_ H_ 0.260617 0.196371 0.177219 0.10394
H_ H_ 0.229733 0.326309 0.27608 0.10394
H_ H_ 0.186208 0.37256 0.197418 0.10394
H_ H_ 0.213532 0.385432 0.446587 0.10394
H_ H_ 0.262521 0.391045 0.379499 0.10394
H_ H_ 0.396514 0.39752 0.483273 0.10394
H_ H_ 0.307291 0.403391 0.154437 0.10394
H_ H_ 0.23514 0.455723 0.182945 0.10394
H_ H_ 0.335287 0.0519224 0.278774 0.10394
H_ H_ 0.404405 0.50631 0.227117 0.10394
H_ H_ 0.0123733 0.384403 0.191399 0.10394
H_ H_ 0.0607323 0.303337 0.225393 0.10394
H_ H_ 0.411733 0.233177 0.205054 0.10394
H_ H_ 0.367048 0.320864 0.185332 0.10394
H_ H_ 0.456974 0.0489535 0.121425 0.10394
H_ H_ 0.0103424 0.118052 0.105285 0.10394
H_ H_ 0.143583 0.00621896 0.0915505 0.10394
H_ H_ 0.446918 0.172376 0.399927 0.10394
H_ H_ 0.0150224 0.189853 0.451545 0.10394
H_ H_ 0.417629 0.28858 0.0368177 0.10394
H_ H_ 0.348284 0.227867 0.512907 0.10394
H_ H_ 0.243687 0.175435 0.380361 0.10394
H_ H_ 0.204762 0.224018 0.309043 0.10394
H_ H_ 0.352582 0.23403 0.262185 0.10394
H_ H_ 0.390296 0.186096 0.331051 0.10394
H_ H_ 0.276076 0.140495 0.0571226 0.10394
H_ H_ 0.225546 0.108174 0.121424 0.10394
H_ H_ 0.0993992 0.0934734 0.00681321 0.10394
C_ C_ 0.173945 0.0920923 0.29168 0.18167
C_ C_ 0.220534 0.0716232 0.273036 -0.15533
C_ C_ 0.241121 0.0228072 0.282251 0.02923
C_ C_ 0.209503 0.486507 0.281468 -0.15533
C_ C_ 0.16972 0.0153176 0.330266 0.18167
C_ C_ 0.0298306 0.136935 0.274246 0.18167
C_ C_ 0.503054 0.171413 0.230297 -0.15533
C_ C_ 0.012316 0.228006 0.266426 0.02923
C_ C_ 0.0361841 0.235706 0.315708 -0.15533
C_ C_ 0.059869 0.192794 0.340471 0.18167
C_ C_ 0.00659042 0.0444962 0.369388 0.69207
C_ C_ 0.472129 0.509073 0.375065 0.02923
C_ C_ 0.492216 0.455777 0.371935 -0.15533
C_ C_ 0.463153 0.418368 0.38072 -0.15533
C_ C_ 0.410708 0.428895 0.387411 0.02923
C_ C_ 0.393325 0.481827 0.397987 -0.15533
C_ C_ 0.421338 0.520401 0.385337 0.02923
C_ C_ 0.398446 0.0689724 0.387707 0.69207
C_ C_ 0.398795 0.328689 0.387078 0.69661
C_ C_ 0.0745771 0.302371 0.103236 0.18167
C_ C_ 0.0283641 0.285145 0.0865216 -0.15533
C_ C_ 0.0161797 0.274793 0.0318816 0.02923
C_ C_ 0.0435989 0.294225 0.489198 -0.15533
C_ C_ 0.0949588 0.308216 0.0172339 0.18167
C_ C_ 0.220896 0.262681 0.139142 0.18167
C_ C_ 0.245704 0.236691 0.180725 -0.15533
C_ C_ 0.251196 0.262025 0.230163 0.02923
C_ C_ 0.224665 0.309219 0.236974 -0.15533
C_ C_ 0.196474 0.333592 0.193855 0.18167
C_ C_ 0.237294 0.367748 0.0442172 0.69207
C_ C_ 0.276853 0.38189 0.507056 0.02923
C_ C_ 0.254447 0.384276 0.456755 -0.15533
C_ C_ 0.282772 0.385922 0.416428 -0.15533
C_ C_ 0.337077 0.392354 0.424746 0.02923
C_ C_ 0.357346 0.393666 0.475895 -0.15533
C_ C_ 0.330253 0.386511 0.516131 0.02923
C_ C_ 0.350751 0.379455 0.064246 0.69207
C_ C_ 0.346834 0.387509 0.324574 0.69661
C_ C_ 0.312337 0.439371 0.171562 0.18167
C_ C_ 0.272022 0.467183 0.194713 -0.15533
C_ C_ 0.280426 0.504503 0.232308 0.02923
C_ C_ 0.330146 0.0148194 0.257085 -0.15533
C_ C_ 0.36671 0.495237 0.216887 0.18167
C_ C_ 0.489162 0.350422 0.193554 0.18167
C_ C_ 0.0180171 0.311384 0.223846 -0.15533
C_ C_ 0.486193 0.263198 0.217212 0.02923
C_ C_ 0.433717 0.266616 0.201883 -0.15533
C_ C_ 0.410031 0.313122 0.187726 0.18167
C_ C_ 0.48683 0.449942 0.108236 0.69207
C_ C_ 0.0226756 0.990984 0.12712 0.02923
C_ C_ 0.000738603 0.0430019 0.125629 -0.15533
C_ C_ 0.0295457 0.0826871 0.113011 -0.15533
C_ C_ 0.0816455 0.0695666 0.102563 0.02923
C_ C_ 0.102447 0.0176518 0.100121 -0.15533
C_ C_ 0.0718963 0.97909 0.108813 0.02923
C_ C_ 0.104791 0.425597 0.113452 0.69207
C_ C_ 0.0969439 0.162918 0.112426 0.69661
C_ C_ 0.438897 0.192761 0.436112 0.18167
C_ C_ 0.475935 0.219355 0.460339 -0.15533
C_ C_ 0.468096 0.249988 0.505061 0.02923
C_ C_ 0.423136 0.263716 0.00627728 -0.15533
C_ C_ 0.384605 0.22514 0.499841 0.18167
C_ C_ 0.26808 0.187086 0.351093 0.18167
C_ C_ 0.246429 0.212948 0.310273 -0.15533
C_ C_ 0.274966 0.231925 0.275996 0.02923
C_ C_ 0.326657 0.223955 0.28761 -0.15533
C_ C_ 0.347791 0.192749 0.325688 0.18167
C_ C_ 0.271232 0.12034 0.456705 0.69207
C_ C_ 0.222207 0.122628 0.992123 0.02923
C_ C_ 0.239144 0.124842 0.0441748 -0.15533
C_ C_ 0.207417 0.114716 0.0824811 -0.15533
C_ C_ 0.15822 0.101399 0.0690531 0.02923
C_ C_ 0.140929 0.101042 0.0171627 -0.15533
C_ C_ 0.170419 0.115377 0.978919 0.02923
C_ C_ 0.155214 0.115476 0.431983 0.69207
C_ C_ 0.144613 0.102547 0.165267 0.69661
C_ C_ 0.374544 0.385129 0.382684 -0.30787
C_ C_ 0.120377 0.108749 0.110759 -0.30787
N_ N_ 0.148548 0.0622877 0.319729 -0.32189
N_ N_ 0.0580499 0.144764 0.320294 -0.32189
N_ N_ 0.108155 0.309757 0.0682423 -0.32189
N_ N_ 0.194363 0.309164 0.146686 -0.32189
N_ N_ 0.359509 0.45227 0.186355 -0.32189
N_ N_ 0.438331 0.352987 0.181712 -0.32189
N_ N_ 0.393173 0.19676 0.455651 -0.32189
N_ N_ 0.318261 0.180147 0.359199 -0.32189
O_ O_ 0.50229 0.0932854 0.39387 -0.63271
O_ O_ 0.0518038 0.0341014 0.35346 -0.57982
O_ O_ 0.398243 0.0944384 0.34659 -0.63271
O_ O_ 0.379221 0.0926755 0.427367 -0.57982
O_ O_ 0.249292 0.387376 0.0892567 -0.63271
O_ O_ 0.205111 0.333666 0.038158 -0.57982
O_ O_ 0.352385 0.336337 0.0867014 -0.63271
O_ O_ 0.374907 0.418205 0.0868427 -0.57982
O_ O_ 0.98871 0.406721 0.0956671 -0.63271
O_ O_ 0.458584 0.454955 0.145877 -0.57982
O_ O_ 0.102715 0.401213 0.155097 -0.63271
O_ O_ 0.140954 0.410044 0.0853011 -0.57982
O_ O_ 0.268125 0.0926605 0.413009 -0.63271
O_ O_ 0.301393 0.155516 0.465483 -0.57982
O_ O_ 0.162693 0.155796 0.406466 -0.63271
O_ O_ 0.115625 0.0905164 0.418567 -0.57982
F_ F_ 0.433985 0.328198 0.427327 -0.20885
F_ F_ 0.422203 0.306658 0.344963 -0.20885
F_ F_ 0.363253 0.296688 0.394588 -0.20885
F_ F_ 0.311742 0.431672 0.323194 -0.20885
F_ F_ 0.319266 0.344278 0.309902 -0.20885
F_ F_ 0.382368 0.392755 0.289675 -0.20885
F_ F_ 0.0648288 0.170129 0.0681091 -0.20885
F_ F_ 0.0688713 0.179044 0.153973 -0.20885
F_ F_ 0.130645 0.198493 0.109135 -0.20885
F_ F_ 0.174534 0.0590396 0.171987 -0.20885
F_ F_ 0.172779 0.140992 0.185404 -0.20885
F_ F_ 0.110996 0.0948725 0.20175 -0.20885
Zn Zn 0.0814051 0.0869353 0.842771 0.83971
Zn Zn 0.15807 0.353134 0.582393 0.83971
Zn Zn 0.411789 0.416528 0.656028 0.83971
Zn Zn 0.33336 0.1635 0.916709 0.83971
H_ H_ 0.168028 0.128906 0.808906 0.10394
H_ H_ 0.253327 0.0949645 0.784291 0.10394
H_ H_ 0.212749 0.455075 0.77528 0.10394
H_ H_ 0.126442 0.980694 0.808466 0.10394
H_ H_ 0.523705 0.0941484 0.756816 0.10394
H_ H_ 0.489249 0.168076 0.702764 0.10394
H_ H_ 0.0251955 0.271347 0.829079 0.10394
H_ H_ 0.0642406 0.197243 0.873182 0.10394
H_ H_ 0.0333848 0.444164 0.861525 0.10394
H_ H_ 0.473915 0.375585 0.860034 0.10394
H_ H_ 0.352093 0.488901 0.898485 0.10394
H_ H_ 0.0823017 0.305576 0.631696 0.10394
H_ H_ 0.507519 0.267267 0.609129 0.10394
H_ H_ 0.0405352 0.282287 0.958075 0.10394
H_ H_ 0.11163 0.335587 0.482548 0.10394
H_ H_ 0.228261 0.260393 0.592572 0.10394
H_ H_ 0.263935 0.209075 0.668775 0.10394
H_ H_ 0.21607 0.342858 0.764878 0.10394
H_ H_ 0.177913 0.382998 0.688769 0.10394
H_ H_ 0.210451 0.362638 0.937549 0.10394
H_ H_ 0.264797 0.375194 0.874935 0.10394
H_ H_ 0.389516 0.405912 0.983431 0.10394
H_ H_ 0.307769 0.407853 0.652669 0.10394
H_ H_ 0.231986 0.46475 0.675403 0.10394
H_ H_ 0.333849 0.0300944 0.791512 0.10394
H_ H_ 0.40428 0.502895 0.738305 0.10394
H_ H_ 0.0147104 0.389582 0.691103 0.10394
H_ H_ 0.0586299 0.31026 0.729568 0.10394
H_ H_ 0.41317 0.242664 0.71326 0.10394
H_ H_ 0.378536 0.326437 0.683779 0.10394
H_ H_ 0.461288 0.0532321 0.628785 0.10394
H_ H_ 0.0342004 0.123636 0.632479 0.10394
H_ H_ 0.153017 0.0108597 0.60587 0.10394
H_ H_ 0.435256 0.166373 0.890528 0.10394
H_ H_ 0.0184923 0.185401 0.96692 0.10394
H_ H_ 0.414775 0.275726 0.558766 0.10394
H_ H_ 0.345612 0.246101 -0.0005749999999999922 0.10394
H_ H_ 0.225355 0.204142 0.874597 0.10394
H_ H_ 0.189867 0.245057 0.795589 0.10394
H_ H_ 0.342118 0.231489 0.750801 0.10394
H_ H_ 0.371801 0.190372 0.831695 0.10394
H_ H_ 0.299125 0.100989 0.549114 0.10394
H_ H_ 0.24686 0.0958732 0.623495 0.10394
H_ H_ 0.112508 0.097377 0.517303 0.10394
C_ C_ 0.178462 0.0888807 0.806448 0.18167
C_ C_ 0.224998 0.0696862 0.78707 -0.15533
C_ C_ 0.235017 0.0167231 0.77587 0.02923
C_ C_ 0.200309 0.495698 0.777289 -0.15533
C_ C_ 0.152695 0.00569026 0.803844 0.18167
C_ C_ 0.0360786 0.140453 0.757439 0.18167
C_ C_ 0.511474 0.174302 0.739345 -0.15533
C_ C_ 0.013696 0.230714 0.754884 0.02923
C_ C_ 0.0298272 0.23569 0.806624 -0.15533
C_ C_ 0.0478048 0.192305 0.834467 0.18167
C_ C_ -0.0034720000000000306 0.0461601 0.861182 0.69207
C_ C_ 0.473887 0.503129 0.875137 0.02923
C_ C_ 0.489366 0.450955 0.867807 -0.15533
C_ C_ 0.457977 0.413524 0.871439 -0.15533
C_ C_ 0.408246 0.425081 0.887044 0.02923
C_ C_ 0.390398 0.479146 0.89285 -0.15533
C_ C_ 0.422366 0.516353 0.884855 0.02923
C_ C_ 0.389582 0.0752886 0.880167 0.69207
C_ C_ 0.394887 0.332576 0.884495 0.69661
C_ C_ 0.0765407 0.296191 0.591896 0.18167
C_ C_ 0.0292794 0.278762 0.574103 -0.15533
C_ C_ 0.0157452 0.271279 0.522532 0.02923
C_ C_ 0.0518436 0.283414 0.998403 -0.15533
C_ C_ 0.0900595 0.314435 0.506669 0.18167
C_ C_ 0.226731 0.276731 0.631067 0.18167
C_ C_ 0.251039 0.248839 0.673567 -0.15533
C_ C_ 0.242324 0.269262 0.723403 0.02923
C_ C_ 0.217099 0.318888 0.729176 -0.15533
C_ C_ 0.194086 0.343398 0.685454 0.18167
C_ C_ 0.241916 0.376286 0.547281 0.69207
C_ C_ 0.269832 0.375979 0.00204291 0.02923
C_ C_ 0.249727 0.372465 0.949419 -0.15533
C_ C_ 0.282216 0.37835 0.911834 -0.15533
C_ C_ 0.333002 0.38945 0.922643 0.02923
C_ C_ 0.351464 0.395588 0.974226 -0.15533
C_ C_ 0.32302 0.383066 0.0126015 0.02923
C_ C_ 0.354945 0.389391 0.569712 0.69207
C_ C_ 0.343953 0.389112 0.824918 0.69661
C_ C_ 0.311669 0.443121 0.673684 0.18167
C_ C_ 0.269775 0.473266 0.693463 -0.15533
C_ C_ 0.275811 0.509003 0.732596 0.02923
C_ C_ 0.327028 0.00281493 0.761479 -0.15533
C_ C_ 0.366321 0.495035 0.726014 0.18167
C_ C_ 0.497187 0.354773 0.702766 0.18167
C_ C_ 0.0182255 0.313493 0.717949 -0.15533
C_ C_ 0.488336 0.269125 0.732573 0.02923
C_ C_ 0.437516 0.273781 0.712304 -0.15533
C_ C_ 0.417143 0.321296 0.691698 0.18167
C_ C_ 0.494504 0.4515 0.630918 0.69207
C_ C_ 0.0274949 0.997897 0.61625 0.02923
C_ C_ 0.0116926 0.0521945 0.626352 -0.15533
C_ C_ 0.0462948 0.0864853 0.622033 -0.15533
C_ C_ 0.0980095 0.0717969 0.617604 0.02923
C_ C_ 0.113576 0.0200238 0.611637 -0.15533
C_ C_ 0.0795671 0.984362 0.6148 0.02923
C_ C_ 0.0948409 0.425875 0.607397 0.69207
C_ C_ 0.116149 0.168016 0.616608 0.69661
C_ C_ 0.432195 0.195177 0.921912 0.18167
C_ C_ 0.476098 0.213203 0.949354 -0.15533
C_ C_ 0.471721 0.247566 0.991536 0.02923
C_ C_ 0.423203 0.249907 0.525876 -0.15533
C_ C_ 0.381003 0.239025 0.981595 0.18167
C_ C_ 0.249586 0.20688 0.845336 0.18167
C_ C_ 0.230159 0.23447 0.803739 -0.15533
C_ C_ 0.260395 0.239503 0.767587 0.02923
C_ C_ 0.314604 0.222422 0.77607 -0.15533
C_ C_ 0.334168 0.197904 0.820027 0.18167
C_ C_ 0.258379 0.130098 0.954289 0.69207
C_ C_ 0.23628 0.113497 0.495722 0.02923
C_ C_ 0.258792 0.105758 0.546198 -0.15533
C_ C_ 0.226469 0.10443 0.587483 -0.15533
C_ C_ 0.173463 0.101522 0.577037 0.02923
C_ C_ 0.152385 0.0994719 0.527209 -0.15533
C_ C_ 0.180929 0.109523 0.484825 0.02923
C_ C_ 0.144017 0.119634 0.925681 0.69207
C_ C_ 0.168049 0.109039 0.673627 0.69661
C_ C_ 0.368032 0.386072 0.87996 -0.30787
C_ C_ 0.137853 0.111681 0.622079 -0.30787
N_ N_ 0.142721 0.0560756 0.812595 -0.32189
N_ N_ 0.054563 0.145925 0.80882 -0.32189
N_ N_ 0.106009 0.315446 0.558785 -0.32189
N_ N_ 0.196551 0.321017 0.638761 -0.32189
N_ N_ 0.359081 0.453973 0.693783 -0.32189
N_ N_ 0.445636 0.35987 0.688664 -0.32189
N_ N_ 0.386694 0.203437 0.942521 -0.32189
N_ N_ 0.300167 0.190102 0.852435 -0.32189
O_ O_ 0.49633 0.0957748 0.877667 -0.63271
O_ O_ 0.0363093 0.0370951 0.834985 -0.57982
O_ O_ 0.392552 0.0978031 0.838654 -0.63271
O_ O_ 0.36133 0.0977337 0.91423 -0.57982
O_ O_ 0.240304 0.406495 0.588888 -0.63271
O_ O_ 0.205098 0.346371 0.538306 -0.57982
O_ O_ 0.348537 0.350948 0.596094 -0.63271
O_ O_ 0.386931 0.421172 0.586386 -0.57982
O_ O_ 0.988544 0.408191 0.599508 -0.63271
O_ O_ 0.455244 0.464546 0.656059 -0.57982
O_ O_ 0.0906061 0.395291 0.643012 -0.63271
O_ O_ 0.131379 0.414526 0.580143 -0.57982
O_ O_ 0.253759 0.108345 0.910017 -0.63271
O_ O_ 0.287294 0.167267 0.963371 -0.57982
O_ O_ 0.143367 0.159267 0.898852 -0.63271
O_ O_ 0.10866 0.0879773 0.90935 -0.57982
F_ F_ 0.432036 0.328079 0.925714 -0.20885
F_ F_ 0.416862 0.312274 0.841169 -0.20885
F_ F_ 0.363135 0.297135 0.889989 -0.20885
F_ F_ 0.311565 0.433792 0.816206 -0.20885
F_ F_ 0.317259 0.347378 0.810564 -0.20885
F_ F_ 0.384108 0.387166 0.791341 -0.20885
F_ F_ 0.0814136 0.174363 0.57184 -0.20885
F_ F_ 0.0912174 0.189267 0.659926 -0.20885
F_ F_ 0.154081 0.199427 0.612206 -0.20885
F_ F_ 0.191832 0.0609844 0.674908 -0.20885
F_ F_ 0.204788 0.140945 0.687139 -0.20885
F_ F_ 0.135257 0.111373 0.712595 -0.20885
Zn Zn 0.0911614 0.576305 0.33914 0.83971
Zn Zn 0.155926 0.845629 0.0901216 0.83971
Zn Zn 0.407028 0.908979 0.157076 0.83971
Zn Zn 0.342284 0.653507 0.417328 0.83971
H_ H_ 0.163407 0.629007 0.288114 0.10394
H_ H_ 0.253504 0.599365 0.275623 0.10394
H_ H_ 0.229999 0.956874 0.321773 0.10394
H_ H_ 0.139446 0.474898 0.310336 0.10394
H_ H_ 0.540423 0.596259 0.254358 0.10394
H_ H_ 0.481049 0.661686 0.210312 0.10394
H_ H_ 0.0305956 0.762466 0.3404 0.10394
H_ H_ 0.0675093 0.681511 0.38124 0.10394
H_ H_ 0.0211975 0.942145 0.349757 0.10394
H_ H_ 0.484487 0.878541 0.358514 0.10394
H_ H_ 0.373843 0.984562 0.434333 0.10394
H_ H_ 0.0717422 0.815195 0.13472 0.10394
H_ H_ 0.506083 0.751969 0.101141 0.10394
H_ H_ 0.0453814 0.787313 0.443886 0.10394
H_ H_ 0.122354 0.814016 0.988234 0.10394
H_ H_ 0.214127 0.746074 0.101086 0.10394
H_ H_ 0.262495 0.705886 0.177292 0.10394
H_ H_ 0.221519 0.832549 0.271317 0.10394
H_ H_ 0.184044 0.878285 0.197102 0.10394
H_ H_ 0.220288 0.883389 0.442472 0.10394
H_ H_ 0.281855 0.867229 0.378733 0.10394
H_ H_ 0.403606 0.904314 0.492233 0.10394
H_ H_ 0.309803 0.893326 0.1667 0.10394
H_ H_ 0.241834 0.936433 0.218783 0.10394
H_ H_ 0.332428 0.557891 0.264818 0.10394
H_ H_ 0.40105 0.00877564 0.224166 0.10394
H_ H_ 0.0109876 0.879873 0.199461 0.10394
H_ H_ 0.0479961 0.812607 0.254212 0.10394
H_ H_ 0.408165 0.734722 0.212164 0.10394
H_ H_ 0.366863 0.820883 0.186023 0.10394
H_ H_ 0.46527 0.548508 0.110619 0.10394
H_ H_ 0.01643 0.617865 0.108247 0.10394
H_ H_ 0.14701 0.506618 0.0915381 0.10394
H_ H_ 0.445672 0.65448 0.400967 0.10394
H_ H_ 0.020347 0.695203 0.446239 0.10394
H_ H_ 0.418335 0.775655 0.0439422 0.10394
H_ H_ 0.343061 0.744701 0.494441 0.10394
H_ H_ 0.238374 0.686533 0.383729 0.10394
H_ H_ 0.197185 0.720565 0.305734 0.10394
H_ H_ 0.340594 0.745633 0.256787 0.10394
H_ H_ 0.381793 0.704853 0.337066 0.10394
H_ H_ 0.281911 0.630346 0.0460214 0.10394
H_ H_ 0.229838 0.627583 0.10875 0.10394
H_ H_ 0.111139 0.586127 0.00048000000000003595 0.10394
C_ C_ 0.177159 0.589982 0.289395 0.18167
C_ C_ 0.224959 0.573173 0.274613 -0.15533
C_ C_ 0.239739 0.521441 0.265293 0.02923
C_ C_ 0.21592 0.994802 0.313857 -0.15533
C_ C_ 0.161185 0.505275 0.297412 0.18167
C_ C_ 0.0376116 0.634361 0.264805 0.18167
C_ C_ 0.505121 0.673159 0.244138 -0.15533
C_ C_ 0.00725058 0.723817 0.267229 0.02923
C_ C_ 0.0299032 0.72753 0.318879 -0.15533
C_ C_ 0.0522774 0.682427 0.340671 0.18167
C_ C_ 0.0108552 0.542757 0.372133 0.69207
C_ C_ 0.475586 0.00879018 0.374952 0.02923
C_ C_ 0.494645 0.95813 0.362882 -0.15533
C_ C_ 0.467402 0.917319 0.370287 -0.15533
C_ C_ 0.421297 0.926152 0.391699 0.02923
C_ C_ 0.404016 0.976893 0.408604 -0.15533
C_ C_ 0.428159 0.0180657 0.393945 0.02923
C_ C_ 0.396611 0.5725 0.385931 0.69207
C_ C_ 0.409633 0.827732 0.38681 0.69661
C_ C_ 0.0637201 0.805486 0.0937205 0.18167
C_ C_ 0.0213769 0.782466 0.0755731 -0.15533
C_ C_ 0.0132571 0.769317 0.0221747 0.02923
C_ C_ 0.0546043 0.786972 0.484786 -0.15533
C_ C_ 0.0952231 0.800669 0.0118488 0.18167
C_ C_ 0.217415 0.767077 0.138773 0.18167
C_ C_ 0.240909 0.742026 0.180689 -0.15533
C_ C_ 0.239056 0.763078 0.230464 0.02923
C_ C_ 0.219505 0.812147 0.237187 -0.15533
C_ C_ 0.196055 0.838696 0.194453 0.18167
C_ C_ 0.231066 0.874804 0.0485328 0.69207
C_ C_ 0.278086 0.884742 0.50735 0.02923
C_ C_ 0.260965 0.880592 0.454304 -0.15533
C_ C_ 0.293609 0.880139 0.416962 -0.15533
C_ C_ 0.346781 0.888386 0.428439 0.02923
C_ C_ 0.364146 0.897398 0.480162 -0.15533
C_ C_ 0.331949 0.892314 0.520458 0.02923
C_ C_ 0.340696 0.886209 0.0744136 0.69207
C_ C_ 0.357494 0.888759 0.33061 0.69661
C_ C_ 0.317137 0.924139 0.196987 0.18167
C_ C_ 0.276336 0.953793 0.220513 -0.15533
C_ C_ 0.28271 0.996897 0.251998 0.02923
C_ C_ 0.326596 0.523942 0.239541 -0.15533
C_ C_ 0.36822 0.990312 0.226625 0.18167
C_ C_ 0.488719 0.843125 0.197937 0.18167
C_ C_ 0.00982016 0.810403 0.237734 -0.15533
C_ C_ 0.481478 0.764475 0.233658 0.02923
C_ C_ 0.429339 0.766682 0.215431 -0.15533
C_ C_ 0.407672 0.811423 0.192069 0.18167
C_ C_ 0.4853 0.947187 0.127219 0.69207
C_ C_ 0.0235268 0.487822 0.109061 0.02923
C_ C_ 0.00329867 0.538694 0.106896 -0.15533
C_ C_ 0.0331283 0.578929 0.0996469 -0.15533
C_ C_ 0.0859828 0.566179 0.0956487 0.02923
C_ C_ 0.106265 0.515145 0.0946787 -0.15533
C_ C_ 0.0758662 0.475461 0.104339 0.02923
C_ C_ 0.0956344 0.926081 0.113175 0.69207
C_ C_ 0.0987624 0.664391 0.0992335 0.69661
C_ C_ 0.439472 0.680878 0.434802 0.18167
C_ C_ 0.480478 0.703345 0.460122 -0.15533
C_ C_ 0.472367 0.739761 0.5012 0.02923
C_ C_ 0.424959 0.750478 0.0107851 -0.15533
C_ C_ 0.382049 0.732309 0.485056 0.18167
C_ C_ 0.260774 0.694552 0.352202 0.18167
C_ C_ 0.237588 0.718107 0.30941 -0.15533
C_ C_ 0.264593 0.735364 0.273137 0.02923
C_ C_ 0.31819 0.72582 0.278742 -0.15533
C_ C_ 0.342166 0.705804 0.325103 0.18167
C_ C_ 0.263691 0.614494 0.452431 0.69207
C_ C_ 0.226823 0.619045 0.982126 0.02923
C_ C_ 0.24447 0.62116 0.0339208 -0.15533
C_ C_ 0.214714 0.614272 0.072988 -0.15533
C_ C_ 0.163549 0.603642 0.0627022 0.02923
C_ C_ 0.148877 0.592964 0.0102096 -0.15533
C_ C_ 0.176551 0.610001 0.972106 0.02923
C_ C_ 0.152785 0.599198 0.420722 0.69207
C_ C_ 0.152725 0.600754 0.158768 0.69661
C_ C_ 0.38437 0.883719 0.38477 -0.30787
C_ C_ 0.123903 0.608814 0.103236 -0.30787
N_ N_ 0.147166 0.555711 0.303989 -0.32189
N_ N_ 0.0568663 0.637832 0.314366 -0.32189
N_ N_ 0.101644 0.809743 0.0644334 -0.32189
N_ N_ 0.188614 0.811869 0.147711 -0.32189
N_ N_ 0.362662 0.9433 0.200235 -0.32189
N_ N_ 0.438395 0.846858 0.180884 -0.32189
N_ N_ 0.39118 0.694984 0.447354 -0.32189
N_ N_ 0.313019 0.683599 0.356279 -0.32189
O_ O_ 0.506548 0.585156 0.411061 -0.63271
O_ O_ 0.040854 0.534547 0.33543 -0.57982
O_ O_ 0.389141 0.600724 0.345965 -0.63271
O_ O_ 0.376444 0.592873 0.426282 -0.57982
O_ O_ 0.238836 0.90048 0.094165 -0.63271
O_ O_ 0.202852 0.83673 0.0482905 -0.57982
O_ O_ 0.347179 0.842513 0.0951597 -0.63271
O_ O_ 0.372118 0.918334 0.0948202 -0.57982
O_ O_ 0.987751 0.908335 0.108293 -0.63271
O_ O_ 0.453193 0.953692 0.162263 -0.57982
O_ O_ 0.101904 0.901591 0.155142 -0.63271
O_ O_ 0.127262 0.910498 0.0794408 -0.57982
O_ O_ 0.259002 0.593211 0.406158 -0.63271
O_ O_ 0.297889 0.646993 0.462284 -0.57982
O_ O_ 0.158474 0.63789 0.392622 -0.63271
O_ O_ 0.122485 0.566361 0.40279 -0.57982
F_ F_ 0.44825 0.821794 0.427225 -0.20885
F_ F_ 0.428383 0.811133 0.339943 -0.20885
F_ F_ 0.378408 0.792113 0.398231 -0.20885
F_ F_ 0.320327 0.930262 0.331087 -0.20885
F_ F_ 0.336736 0.845054 0.309327 -0.20885
F_ F_ 0.389248 0.89653 0.295603 -0.20885
F_ F_ 0.0656836 0.67312 0.0590237 -0.20885
F_ F_ 0.0716936 0.680948 0.140363 -0.20885
F_ F_ 0.135885 0.696093 0.0974699 -0.20885
F_ F_ 0.190299 0.559421 0.156457 -0.20885
F_ F_ 0.176274 0.642169 0.181596 -0.20885
F_ F_ 0.122624 0.585162 0.19279 -0.20885
Zn Zn 0.085189 0.584932 0.840427 0.83971
Zn Zn 0.161867 0.847351 0.583842 0.83971
Zn Zn 0.411996 0.915695 0.655391 0.83971
Zn Zn 0.342491 0.653851 0.91271 0.83971
H_ H_ 0.161855 0.63806 0.797032 0.10394
H_ H_ 0.239339 0.607428 0.758934 0.10394
H_ H_ 0.208389 0.943869 0.792514 0.10394
H_ H_ 0.135637 0.484352 0.817319 0.10394
H_ H_ 0.513212 0.599732 0.754528 0.10394
H_ H_ 0.467026 0.676595 0.715318 0.10394
H_ H_ 0.0490329 0.773091 0.807032 0.10394
H_ H_ 0.0835581 0.700553 0.862269 0.10394
H_ H_ 0.0160974 0.944782 0.841529 0.10394
H_ H_ 0.469642 0.881864 0.887461 0.10394
H_ H_ 0.345948 0.996566 0.899718 0.10394
H_ H_ 0.083592 0.808672 0.632468 0.10394
H_ H_ 0.495894 0.777474 0.59845 0.10394
H_ H_ 0.042254 0.780569 0.950952 0.10394
H_ H_ 0.124496 0.817705 0.480055 0.10394
H_ H_ 0.207939 0.746682 0.5932 0.10394
H_ H_ 0.243162 0.696188 0.66492 0.10394
H_ H_ 0.227651 0.831836 0.763313 0.10394
H_ H_ 0.195081 0.878622 0.69244 0.10394
H_ H_ 0.205231 0.874117 0.946833 0.10394
H_ H_ 0.258303 0.888949 0.883337 0.10394
H_ H_ 0.384984 0.911291 0.9917 0.10394
H_ H_ 0.297589 0.900941 0.661578 0.10394
H_ H_ 0.228935 0.958112 0.685967 0.10394
H_ H_ 0.332835 0.541623 0.785187 0.10394
H_ H_ 0.406892 -0.013985000000000025 0.749029 0.10394
H_ H_ 0.0151043 0.883554 0.683904 0.10394
H_ H_ 0.057424 0.802996 0.721309 0.10394
H_ H_ 0.405508 0.764092 0.752139 0.10394
H_ H_ 0.370732 0.830728 0.69425 0.10394
H_ H_ 0.465539 0.541946 0.60747 0.10394
H_ H_ 0.00233833 0.615023 0.590174 0.10394
H_ H_ 0.138136 0.508611 0.582653 0.10394
H_ H_ 0.44828 0.66193 0.892584 0.10394
H_ H_ 0.0150147 0.698828 0.938763 0.10394
H_ H_ 0.414688 0.783325 0.541971 0.10394
H_ H_ 0.351372 0.723872 0.0010099999999999554 0.10394
H_ H_ 0.244839 0.703534 0.8824 0.10394
H_ H_ 0.19783 0.736084 0.804762 0.10394
H_ H_ 0.33077 0.696076 0.730339 0.10394
H_ H_ 0.378101 0.672476 0.811674 0.10394
H_ H_ 0.285249 0.61456 0.553036 0.10394
H_ H_ 0.230243 0.602164 0.617864 0.10394
H_ H_ 0.100613 0.589303 0.500236 0.10394
C_ C_ 0.173056 0.596231 0.792812 0.18167
C_ C_ 0.216996 0.58061 0.770905 -0.15533
C_ C_ 0.2298 0.529908 0.760494 0.02923
C_ C_ 0.199663 0.98622 0.787975 -0.15533
C_ C_ 0.159771 0.51156 0.803509 0.18167
C_ C_ 0.0195574 0.636732 0.771031 0.18167
C_ C_ 0.491342 0.682565 0.750766 -0.15533
C_ C_ 0.00805771 0.725756 0.755431 0.02923
C_ C_ 0.0367534 0.735195 0.800319 -0.15533
C_ C_ 0.0584467 0.69563 0.829355 0.18167
C_ C_ 0.00916983 0.542283 0.870123 0.69207
C_ C_ 0.467446 0.00959622 0.871942 0.02923
C_ C_ 0.484132 0.958629 0.864892 -0.15533
C_ C_ 0.453291 0.920443 0.880246 -0.15533
C_ C_ 0.403579 0.934698 0.893207 0.02923
C_ C_ 0.384341 0.985336 0.893608 -0.15533
C_ C_ 0.415188 0.0240788 0.884942 0.02923
C_ C_ 0.397939 0.570093 0.88635 0.69207
C_ C_ 0.394493 0.834249 0.896222 0.69661
C_ C_ 0.075228 0.806549 0.589506 0.18167
C_ C_ 0.028866 0.788366 0.568605 -0.15533
C_ C_ 0.020433 0.774683 0.517993 0.02923
C_ C_ 0.0501495 0.782085 0.99066 -0.15533
C_ C_ 0.100484 0.80616 0.506367 0.18167
C_ C_ 0.214216 0.765954 0.630106 0.18167
C_ C_ 0.234383 0.7358 0.67222 -0.15533
C_ C_ 0.238016 0.758893 0.721262 0.02923
C_ C_ 0.226368 0.811965 0.725334 -0.15533
C_ C_ 0.205733 0.839452 0.684754 0.18167
C_ C_ 0.241502 0.876727 0.545838 0.69207
C_ C_ 0.2642 0.879643 0.00812853 0.02923
C_ C_ 0.246178 0.88068 0.957213 -0.15533
C_ C_ 0.278136 0.889839 0.91985 -0.15533
C_ C_ 0.331235 0.897036 0.931611 0.02923
C_ C_ 0.348246 0.901734 0.983949 -0.15533
C_ C_ 0.316068 0.891224 0.0220906 0.02923
C_ C_ 0.354144 0.890177 0.573651 0.69207
C_ C_ 0.338659 0.887797 0.833054 0.69661
C_ C_ 0.306671 0.936255 0.679393 0.18167
C_ C_ 0.266567 0.966763 0.700039 -0.15533
C_ C_ 0.2757 0.998235 0.742887 0.02923
C_ C_ 0.324646 0.51931 0.751414 -0.15533
C_ C_ 0.366305 0.977881 0.733865 0.18167
C_ C_ 0.493018 0.855298 0.712039 0.18167
C_ C_ 0.0152801 0.808096 0.711244 -0.15533
C_ C_ 0.481884 0.776567 0.74544 0.02923
C_ C_ 0.42945 0.786338 0.733605 -0.15533
C_ C_ 0.411088 0.824644 0.703027 0.18167
C_ C_ 0.488229 0.953518 0.636864 0.69207
C_ C_ 0.0166834 0.490309 0.60869 0.02923
C_ C_ 0.99469 0.541477 0.605628 -0.15533
C_ C_ 0.0237649 0.579703 0.596865 -0.15533
C_ C_ 0.0766514 0.569316 0.593486 0.02923
C_ C_ 0.0963751 0.517338 0.589357 -0.15533
C_ C_ 0.0672223 0.479058 0.60253 0.02923
C_ C_ 0.104514 0.929511 0.61191 0.69207
C_ C_ 0.0917064 0.666006 0.602172 0.69661
C_ C_ 0.443399 0.679672 0.928494 0.18167
C_ C_ 0.482739 0.702353 0.958133 -0.15533
C_ C_ 0.475128 0.737494 -0.0008820000000000494 0.02923
C_ C_ 0.422593 0.753841 0.514974 -0.15533
C_ C_ 0.386241 0.72274 0.985108 0.18167
C_ C_ 0.264189 0.700416 0.849215 0.18167
C_ C_ 0.2379 0.725048 0.807493 -0.15533
C_ C_ 0.265523 0.733888 0.766768 0.02923
C_ C_ 0.315066 0.707484 0.765448 -0.15533
C_ C_ 0.339835 0.691389 0.811762 0.18167
C_ C_ 0.259894 0.630395 0.943746 0.69207
C_ C_ 0.225188 0.608746 0.489201 0.02923
C_ C_ 0.244795 0.609811 0.541859 -0.15533
C_ C_ 0.211068 0.608373 0.579078 -0.15533
C_ C_ 0.157482 0.603135 0.564697 0.02923
C_ C_ 0.14165 0.593106 0.511834 -0.15533
C_ C_ 0.17317 0.600103 0.474568 0.02923
C_ C_ 0.15049 0.611699 0.920502 0.69207
C_ C_ 0.138066 0.606628 0.661231 0.69661
C_ C_ 0.3669 0.890394 0.888445 -0.30787
C_ C_ 0.11651 0.609671 0.605363 -0.30787
N_ N_ 0.142935 0.562303 0.805301 -0.32189
N_ N_ 0.0517812 0.64655 0.814355 -0.32189
N_ N_ 0.109636 0.813112 0.556983 -0.32189
N_ N_ 0.195511 0.815593 0.638551 -0.32189
N_ N_ 0.355853 0.941502 0.697186 -0.32189
N_ N_ 0.443015 0.859487 0.693947 -0.32189
N_ N_ 0.396114 0.689637 0.94443 -0.32189
N_ N_ 0.315445 0.6883 0.854146 -0.32189
O_ O_ 0.50207 0.58368 0.892546 -0.63271
O_ O_ 0.0424251 0.537897 0.836065 -0.57982
O_ O_ 0.389753 0.592677 0.84278 -0.63271
O_ O_ 0.368698 0.587831 0.922717 -0.57982
O_ O_ 0.234828 0.906244 0.586243 -0.63271
O_ O_ 0.21076 0.841449 0.537294 -0.57982
O_ O_ 0.346567 0.852321 0.600553 -0.63271
O_ O_ 0.384935 0.923879 0.592882 -0.57982
O_ O_ 0.994775 0.914655 0.59179 -0.63271
O_ O_ 0.455148 0.962011 0.670681 -0.57982
O_ O_ 0.104064 0.901961 0.652717 -0.63271
O_ O_ 0.13319 0.912895 0.574203 -0.57982
O_ O_ 0.258458 0.603881 0.899272 -0.63271
O_ O_ 0.296098 0.658445 0.953178 -0.57982
O_ O_ 0.153942 0.64834 0.891555 -0.63271
O_ O_ 0.1161 0.582084 0.904374 -0.57982
F_ F_ 0.428145 0.830136 0.939774 -0.20885
F_ F_ 0.422702 0.815311 0.855523 -0.20885
F_ F_ 0.361245 0.798285 0.896314 -0.20885
F_ F_ 0.299245 0.925639 0.824605 -0.20885
F_ F_ 0.315418 0.843782 0.818638 -0.20885
F_ F_ 0.371816 0.893362 0.798184 -0.20885
F_ F_ 0.0610953 0.670754 0.557191 -0.20885
F_ F_ 0.0613432 0.684624 0.640222 -0.20885
F_ F_ 0.130041 0.700316 0.605313 -0.20885
F_ F_ 0.169404 0.56015 0.66561 -0.20885
F_ F_ 0.169443 0.642941 0.680705 -0.20885
F_ F_ 0.100044 0.606902 0.694932 -0.20885
Zn Zn 0.585906 0.0871218 0.344949 0.83971
Zn Zn 0.667528 0.341841 0.0804698 0.83971
Zn Zn 0.908417 0.415414 0.150828 0.83971
Zn Zn 0.839102 0.15375 0.41964 0.83971
H_ H_ 0.66571 0.131634 0.297947 0.10394
H_ H_ 0.739846 0.094153 0.255146 0.10394
H_ H_ 0.705245 0.456129 0.291499 0.10394
H_ H_ 0.632622 0.982095 0.325054 0.10394
H_ H_ 0.0323926 0.0964983 0.253809 0.10394
H_ H_ 0.988446 0.17093 0.210222 0.10394
H_ H_ 0.53417 0.266658 0.31436 0.10394
H_ H_ 0.566589 0.189889 0.36607 0.10394
H_ H_ 0.526665 0.445444 0.358147 0.10394
H_ H_ 0.980571 0.372247 0.376965 0.10394
H_ H_ 0.853616 0.485933 0.396392 0.10394
H_ H_ 0.581213 0.30693 0.129791 0.10394
H_ H_ 1.0031204 0.273644 0.111789 0.10394
H_ H_ 0.523166 0.309953 0.455757 0.10394
H_ H_ 0.616518 0.33404 0.982608 0.10394
H_ H_ 0.704611 0.233387 0.101437 0.10394
H_ H_ 0.751889 0.191074 0.174891 0.10394
H_ H_ 0.721127 0.329051 0.266589 0.10394
H_ H_ 0.692288 0.375788 0.187203 0.10394
H_ H_ 0.715129 0.379395 0.449761 0.10394
H_ H_ 0.762134 0.386619 0.382595 0.10394
H_ H_ 0.897648 0.399802 0.485642 0.10394
H_ H_ 0.800827 0.390048 0.169955 0.10394
H_ H_ 0.728018 0.446391 0.204644 0.10394
H_ H_ 0.829578 0.0419581 0.285702 0.10394
H_ H_ 0.901847 0.501849 0.22705 0.10394
H_ H_ 0.509913 0.379003 0.181446 0.10394
H_ H_ 0.550971 0.311988 0.236734 0.10394
H_ H_ 0.912688 0.251914 0.231339 0.10394
H_ H_ 0.872631 0.327237 0.193182 0.10394
H_ H_ 0.962378 0.0545892 0.133428 0.10394
H_ H_ 0.504982 0.115868 0.107921 0.10394
H_ H_ 0.636583 0.0064085 0.0889362 0.10394
H_ H_ 0.939189 0.165201 0.403463 0.10394
H_ H_ 0.510532 0.223033 0.440775 0.10394
H_ H_ 0.913765 0.282709 0.0574135 0.10394
H_ H_ 0.847987 0.233634 0.513539 0.10394
H_ H_ 0.736847 0.198928 0.387213 0.10394
H_ H_ 0.698087 0.237747 0.310657 0.10394
H_ H_ 0.84296 0.219832 0.248174 0.10394
H_ H_ 0.882082 0.18964 0.329767 0.10394
H_ H_ 0.779499 0.120853 0.055985 0.10394
H_ H_ 0.723456 0.102982 0.119172 0.10394
H_ H_ 0.605248 0.0785206 2.28908e-06 0.10394
C_ C_ 0.672016 0.0906602 0.291886 0.18167
C_ C_ 0.715169 0.0713573 0.270478 -0.15533
C_ C_ 0.730075 0.0185553 0.268443 0.02923
C_ C_ 0.700354 0.494917 0.292351 -0.15533
C_ C_ 0.654596 0.00801831 0.308664 0.18167
C_ C_ 0.527498 0.130734 0.258723 0.18167
C_ C_ 0.00987821 0.176868 0.246663 -0.15533
C_ C_ 0.510242 0.221218 0.248058 0.02923
C_ C_ 0.532162 0.228962 0.298001 -0.15533
C_ C_ 0.553602 0.186904 0.32648 0.18167
C_ C_ 0.504969 0.051334 0.364111 0.69207
C_ C_ 0.976255 0.50317 0.380604 0.02923
C_ C_ 0.995191 0.450779 0.377781 -0.15533
C_ C_ 0.962979 0.412141 0.37973 -0.15533
C_ C_ 0.91107 0.424904 0.388487 0.02923
C_ C_ 0.892101 0.476245 0.392528 -0.15533
C_ C_ 0.926152 0.516821 0.389478 0.02923
C_ C_ 0.892662 0.0712559 0.383884 0.69207
C_ C_ 0.897707 0.331505 0.389177 0.69661
C_ C_ 0.57294 0.299877 0.0886088 0.18167
C_ C_ 0.526492 0.279121 0.0683288 -0.15533
C_ C_ 0.514945 0.276651 0.013837 0.02923
C_ C_ 0.534784 0.309462 0.495387 -0.15533
C_ C_ 0.589916 0.317549 0.00715243 0.18167
C_ C_ 0.716603 0.255892 0.134084 0.18167
C_ C_ 0.7385 0.230633 0.177492 -0.15533
C_ C_ 0.744166 0.257991 0.226179 0.02923
C_ C_ 0.728322 0.309583 0.229533 -0.15533
C_ C_ 0.711872 0.335111 0.183849 0.18167
C_ C_ 0.742694 0.363306 0.0400253 0.69207
C_ C_ 0.778081 0.377271 0.506859 0.02923
C_ C_ 0.755682 0.385476 0.458904 -0.15533
C_ C_ 0.783328 0.387679 0.419288 -0.15533
C_ C_ 0.835056 0.397495 0.425342 0.02923
C_ C_ 0.858634 0.397491 0.476808 -0.15533
C_ C_ 0.82899 0.390287 0.517414 0.02923
C_ C_ 0.8532 0.383236 0.0682942 0.69207
C_ C_ 0.842105 0.388516 0.32898 0.69661
C_ C_ 0.807626 0.428276 0.187244 0.18167
C_ C_ 0.766504 0.457276 0.208213 -0.15533
C_ C_ 0.776769 0.500227 0.244074 0.02923
C_ C_ 0.822247 0.0110711 0.256176 -0.15533
C_ C_ 0.865195 0.4892 0.221343 0.18167
C_ C_ 0.991615 0.355436 0.199582 0.18167
C_ C_ 0.514894 0.306444 0.213402 -0.15533
C_ C_ 0.988076 0.274496 0.239491 0.02923
C_ C_ 0.934972 0.281579 0.227687 -0.15533
C_ C_ 0.912668 0.323329 0.200209 0.18167
C_ C_ 0.988372 0.450982 0.120879 0.69207
C_ C_ 0.520302 0.985992 0.123325 0.02923
C_ C_ 0.499092 0.0370971 0.119838 -0.15533
C_ C_ 0.529272 0.0769576 0.113335 -0.15533
C_ C_ 0.578315 0.0662482 0.102389 0.02923
C_ C_ 0.599128 0.0131464 0.100085 -0.15533
C_ C_ 0.571412 0.973434 0.108533 0.02923
C_ C_ 0.597633 0.419165 0.0975046 0.69207
C_ C_ 0.584514 0.163504 0.0904917 0.69661
C_ C_ 0.936082 0.183156 0.438996 0.18167
C_ C_ 0.978449 0.205279 0.46234 -0.15533
C_ C_ 0.971684 0.239907 0.504635 0.02923
C_ C_ 0.922028 0.263671 0.0228152 -0.15533
C_ C_ 0.883665 0.225609 0.498877 0.18167
C_ C_ 0.760356 0.202181 0.353875 0.18167
C_ C_ 0.739035 0.231407 0.313687 -0.15533
C_ C_ 0.767488 0.232853 0.272186 0.02923
C_ C_ 0.819193 0.219009 0.27823 -0.15533
C_ C_ 0.84215 0.200037 0.325416 0.18167
C_ C_ 0.758739 0.12737 0.456025 0.69207
C_ C_ 0.725718 0.111333 0.992267 0.02923
C_ C_ 0.742512 0.109044 0.0434959 -0.15533
C_ C_ 0.706832 0.104905 0.0798942 -0.15533
C_ C_ 0.656938 0.096036 0.0655804 0.02923
C_ C_ 0.643834 0.087412 0.0134618 -0.15533
C_ C_ 0.67565 0.0969368 0.97666 0.02923
C_ C_ 0.650627 0.109209 0.422499 0.69207
C_ C_ 0.634476 0.114698 0.159279 0.69661
C_ C_ 0.870908 0.386912 0.381817 -0.30787
C_ C_ 0.613957 0.10933 0.101971 -0.30787
N_ N_ 0.639128 0.0593244 0.30782 -0.32189
N_ N_ 0.554513 0.139153 0.304172 -0.32189
N_ N_ 0.606164 0.312995 0.0565119 -0.32189
N_ N_ 0.703833 0.307206 0.138422 -0.32189
N_ N_ 0.854493 0.445774 0.190556 -0.32189
N_ N_ 0.941415 0.360444 0.188024 -0.32189
N_ N_ 0.889118 0.193755 0.455897 -0.32189
N_ N_ 0.811801 0.186499 0.359645 -0.32189
O_ O_ -0.003858000000000028 0.0941953 0.380364 -0.63271
O_ O_ 0.542444 0.0405326 0.335999 -0.57982
O_ O_ 0.886746 0.0980785 0.341813 -0.63271
O_ O_ 0.870435 0.0906753 0.424135 -0.57982
O_ O_ 0.750787 0.382708 0.0871766 -0.63271
O_ O_ 0.705954 0.333471 0.0307389 -0.57982
O_ O_ 0.854852 0.344329 0.0960981 -0.63271
O_ O_ 0.883893 0.41699 0.0845477 -0.57982
O_ O_ 0.487827 0.407674 0.0807208 -0.63271
O_ O_ 0.951731 0.462084 0.151742 -0.57982
O_ O_ 0.599332 0.394084 0.139801 -0.63271
O_ O_ 0.635707 0.40424 0.071891 -0.57982
O_ O_ 0.752894 0.105742 0.409684 -0.63271
O_ O_ 0.79779 0.153252 0.468917 -0.57982
O_ O_ 0.646999 0.150671 0.398215 -0.63271
O_ O_ 0.620473 0.0739968 0.404121 -0.57982
F_ F_ 0.934842 0.32551 0.429205 -0.20885
F_ F_ 0.920961 0.31586 0.343922 -0.20885
F_ F_ 0.862626 0.297977 0.395627 -0.20885
F_ F_ 0.807251 0.429279 0.321378 -0.20885
F_ F_ 0.816552 0.345538 0.316163 -0.20885
F_ F_ 0.874519 0.388014 0.28983 -0.20885
F_ F_ 0.554781 0.165195 0.0435959 -0.20885
F_ F_ 0.558153 0.185567 0.129364 -0.20885
F_ F_ 0.620999 0.196739 0.0894832 -0.20885
F_ F_ 0.669093 0.0720232 0.171894 -0.20885
F_ F_ 0.658984 0.157784 0.169818 -0.20885
F_ F_ 0.596573 0.119099 0.194168 -0.20885
Zn Zn 0.590769 0.082563 0.845839 0.83971
Zn Zn 0.662159 0.343801 0.585586 0.83971
Zn Zn 0.90847 0.420601 0.653648 0.83971
Zn Zn 0.841418 0.161123 0.922069 0.83971
H_ H_ 0.669495 0.136137 0.814307 0.10394
H_ H_ 0.748094 0.109093 0.779759 0.10394
H_ H_ 0.723715 0.444339 0.797267 0.10394
H_ H_ 0.635768 0.981188 0.814179 0.10394
H_ H_ 0.0381851 0.101985 0.736857 0.10394
H_ H_ 1.0004084 0.175486 0.693083 0.10394
H_ H_ 0.529812 0.265819 0.833868 0.10394
H_ H_ 0.576085 0.193712 0.876357 0.10394
H_ H_ 0.527044 0.440564 0.853875 0.10394
H_ H_ 0.984691 0.375932 0.884613 0.10394
H_ H_ 0.855731 0.481715 0.906378 0.10394
H_ H_ 0.582527 0.307989 0.636419 0.10394
H_ H_ 0.0048903 0.26242 0.599705 0.10394
H_ H_ 0.531798 0.299968 0.94176 0.10394
H_ H_ 0.59875 0.355585 0.490513 0.10394
H_ H_ 0.724799 0.238724 0.594101 0.10394
H_ H_ 0.770806 0.198676 0.670879 0.10394
H_ H_ 0.736379 0.332807 0.760963 0.10394
H_ H_ 0.697601 0.372106 0.683646 0.10394
H_ H_ 0.719623 0.351548 0.938603 0.10394
H_ H_ 0.768624 0.381706 0.875685 0.10394
H_ H_ 0.895069 0.405676 0.987149 0.10394
H_ H_ 0.806768 0.399707 0.661936 0.10394
H_ H_ 0.733948 0.448364 0.70139 0.10394
H_ H_ 0.841441 0.0282391 0.797451 0.10394
H_ H_ 0.909571 0.495628 0.739409 0.10394
H_ H_ 0.519 0.387042 0.706911 0.10394
H_ H_ 0.559333 0.303413 0.734708 0.10394
H_ H_ 0.917802 0.245653 0.707027 0.10394
H_ H_ 0.878006 0.323448 0.6731 0.10394
H_ H_ 0.97052 0.0637549 0.63236 0.10394
H_ H_ 0.510351 0.12262 0.603189 0.10394
H_ H_ 0.640429 0.00629146 0.596122 0.10394
H_ H_ 0.944516 0.158633 0.918075 0.10394
H_ H_ 0.513441 0.20182 0.937099 0.10394
H_ H_ 0.91892 0.272801 0.557666 0.10394
H_ H_ 0.843047 0.246059 0.006690000000000085 0.10394
H_ H_ 0.737616 0.202941 0.886247 0.10394
H_ H_ 0.703128 0.245235 0.805983 0.10394
H_ H_ 0.854294 0.237546 0.759431 0.10394
H_ H_ 0.887127 0.192065 0.832586 0.10394
H_ H_ 0.779105 0.134464 0.559338 0.10394
H_ H_ 0.728467 0.0973231 0.61701 0.10394
H_ H_ 0.599364 0.104856 0.500063 0.10394
C_ C_ 0.678547 0.0955361 0.802357 0.18167
C_ C_ 0.722101 0.0786815 0.778607 -0.15533
C_ C_ 0.736313 0.0279517 0.765928 0.02923
C_ C_ 0.708408 0.485688 0.796134 -0.15533
C_ C_ 0.661971 0.010277 0.803532 0.18167
C_ C_ 0.537802 0.13294 0.764449 0.18167
C_ C_ 0.0139399 0.183014 0.730564 -0.15533
C_ C_ 0.511354 0.223525 0.761882 0.02923
C_ C_ 0.531266 0.229301 0.813013 -0.15533
C_ C_ 0.557408 0.188188 0.837412 0.18167
C_ C_ 0.503621 0.0481013 0.862342 0.69207
C_ C_ 0.973328 0.501708 0.872905 0.02923
C_ C_ 0.995064 0.451907 0.873309 -0.15533
C_ C_ 0.965376 0.41196 0.87761 -0.15533
C_ C_ 0.913451 0.42168 0.888966 0.02923
C_ C_ 0.895725 0.473813 0.89737 -0.15533
C_ C_ 0.92429 0.513804 0.888929 0.02923
C_ C_ 0.887944 0.0740608 0.88037 0.69207
C_ C_ 0.904867 0.32384 0.882738 0.69661
C_ C_ 0.571643 0.302328 0.595965 0.18167
C_ C_ 0.524749 0.285915 0.580651 -0.15533
C_ C_ 0.507396 0.284037 0.527542 0.02923
C_ C_ 0.547059 0.295585 0.98336 -0.15533
C_ C_ 0.582051 0.325307 0.512023 0.18167
C_ C_ 0.721914 0.259021 0.631764 0.18167
C_ C_ 0.746746 0.234827 0.674199 -0.15533
C_ C_ 0.747964 0.259387 0.724293 0.02923
C_ C_ 0.726273 0.310884 0.726548 -0.15533
C_ C_ 0.705121 0.334486 0.683538 0.18167
C_ C_ 0.74563 0.362936 0.546595 0.69207
C_ C_ 0.777806 0.369764 1.00162573 0.02923
C_ C_ 0.759892 0.362196 0.950657 -0.15533
C_ C_ 0.78876 0.376273 0.914745 -0.15533
C_ C_ 0.839569 0.386428 0.924835 0.02923
C_ C_ 0.857029 0.393655 0.977818 -0.15533
C_ C_ 0.828547 0.384535 0.0168932 0.02923
C_ C_ 0.8578 0.386712 0.568528 0.69207
C_ C_ 0.851475 0.380644 0.826197 0.69661
C_ C_ 0.810697 0.433826 0.685306 0.18167
C_ C_ 0.771794 0.460043 0.710437 -0.15533
C_ C_ 0.780908 0.498482 0.745888 0.02923
C_ C_ 0.831966 0.00923721 0.758142 -0.15533
C_ C_ 0.869048 0.490154 0.728783 0.18167
C_ C_ 0.992813 0.359266 0.698991 0.18167
C_ C_ 0.519401 0.306516 0.723393 -0.15533
C_ C_ 0.989389 0.274674 0.72776 0.02923
C_ C_ 0.939405 0.277922 0.71011 -0.15533
C_ C_ 0.916591 0.321537 0.684958 0.18167
C_ C_ 0.985115 0.452555 0.620542 0.69207
C_ C_ 0.521119 0.994963 0.628146 0.02923
C_ C_ 0.499909 0.0456066 0.6216 -0.15533
C_ C_ 0.529293 0.0838854 0.609981 -0.15533
C_ C_ 0.582253 0.0731128 0.602909 0.02923
C_ C_ 0.600631 0.0197807 0.603184 -0.15533
C_ C_ 0.573442 0.981876 0.618393 0.02923
C_ C_ 0.607038 0.42238 0.620012 0.69207
C_ C_ 0.59376 0.167867 0.599841 0.69661
C_ C_ 0.938043 0.184916 0.949255 0.18167
C_ C_ 0.980532 0.203423 0.975204 -0.15533
C_ C_ 0.973353 0.243385 0.0139623 0.02923
C_ C_ 0.924084 0.251241 0.521701 -0.15533
C_ C_ 0.881601 0.240272 0.993461 0.18167
C_ C_ 0.761858 0.205673 0.854536 0.18167
C_ C_ 0.742466 0.230647 0.809133 -0.15533
C_ C_ 0.772336 0.235671 0.769661 0.02923
C_ C_ 0.824234 0.22397 0.782462 -0.15533
C_ C_ 0.845229 0.199015 0.826394 0.18167
C_ C_ 0.762444 0.119964 0.953604 0.69207
C_ C_ 0.722621 0.122607 0.492061 0.02923
C_ C_ 0.739884 0.123335 0.545977 -0.15533
C_ C_ 0.71011 0.108218 0.579879 -0.15533
C_ C_ 0.658164 0.103946 0.566048 0.02923
C_ C_ 0.639943 0.105683 0.514215 -0.15533
C_ C_ 0.673508 0.108468 0.476822 0.02923
C_ C_ 0.652556 0.100886 0.924403 0.69207
C_ C_ 0.646849 0.115215 0.662294 0.69661
C_ C_ 0.877408 0.379807 0.882026 -0.30787
C_ C_ 0.620038 0.111765 0.607142 -0.30787
N_ N_ 0.646974 0.0605153 0.813751 -0.32189
N_ N_ 0.563119 0.141112 0.811597 -0.32189
N_ N_ 0.600691 0.319344 0.562672 -0.32189
N_ N_ 0.695653 0.306832 0.639151 -0.32189
N_ N_ 0.858071 0.450912 0.692923 -0.32189
N_ N_ 0.943504 0.361439 0.68158 -0.32189
N_ N_ 0.889736 0.199708 0.959461 -0.32189
N_ N_ 0.81362 0.191214 0.862642 -0.32189
O_ O_ -0.00298505 0.089775 0.88968 -0.63271
O_ O_ 0.5433 0.0340339 0.835881 -0.57982
O_ O_ 0.893188 0.099426 0.841658 -0.63271
O_ O_ 0.866234 0.0941646 0.9208 -0.57982
O_ O_ 0.760464 0.363144 0.595585 -0.63271
O_ O_ 0.702937 0.340564 0.534111 -0.57982
O_ O_ 0.864249 0.344845 0.591478 -0.63271
O_ O_ 0.873 0.4283 0.591949 -0.57982
O_ O_ 0.493183 0.408389 0.602618 -0.63271
O_ O_ 0.955851 0.463893 0.657408 -0.57982
O_ O_ 0.600906 0.393262 0.657642 -0.63271
O_ O_ 0.645883 0.411423 0.596153 -0.57982
O_ O_ 0.75803 0.100142 0.906448 -0.63271
O_ O_ 0.792571 0.157896 0.963864 -0.57982
O_ O_ 0.653975 0.142709 0.900393 -0.63271
O_ O_ 0.617294 0.0715872 0.908088 -0.57982
F_ F_ 0.940857 0.31435 0.921672 -0.20885
F_ F_ 0.926676 0.307767 0.838083 -0.20885
F_ F_ 0.867411 0.290598 0.886725 -0.20885
F_ F_ 0.819449 0.424154 0.822119 -0.20885
F_ F_ 0.819487 0.343278 0.809956 -0.20885
F_ F_ 0.882092 0.385933 0.787936 -0.20885
F_ F_ 0.555773 0.171376 0.558096 -0.20885
F_ F_ 0.571076 0.189678 0.642026 -0.20885
F_ F_ 0.628944 0.200983 0.590922 -0.20885
F_ F_ 0.670393 0.0672622 0.67268 -0.20885
F_ F_ 0.679928 0.151317 0.673707 -0.20885
F_ F_ 0.612739 0.124996 0.700362 -0.20885
Zn Zn 0.590752 0.589915 0.351785 0.83971
Zn Zn 0.661551 0.841239 0.0886568 0.83971
Zn Zn 0.909401 0.915296 0.160184 0.83971
Zn Zn 0.84332 0.652513 0.421023 0.83971
H_ H_ 0.676301 0.638145 0.307385 0.10394
H_ H_ 0.747392 0.60227 0.259908 0.10394
H_ H_ 0.710654 0.944348 0.294448 0.10394
H_ H_ 0.634203 0.494087 0.332996 0.10394
H_ H_ 0.0413692 0.59893 0.243669 0.10394
H_ H_ 0.997374 0.673176 0.200502 0.10394
H_ H_ 0.52361 0.77136 0.333574 0.10394
H_ H_ 0.562048 0.699543 0.382785 0.10394
H_ H_ 0.530712 0.950595 0.344657 0.10394
H_ H_ 0.97498 0.882484 0.378813 0.10394
H_ H_ 0.851112 0.989914 0.408499 0.10394
H_ H_ 0.584597 0.79186 0.13907 0.10394
H_ H_ 0.995201 0.77331 0.102357 0.10394
H_ H_ 0.535127 0.794484 0.45024 0.10394
H_ H_ 0.612623 0.830099 0.990528 0.10394
H_ H_ 0.72332 0.741995 0.106129 0.10394
H_ H_ 0.757338 0.698148 0.177218 0.10394
H_ H_ 0.709229 0.82699 0.275434 0.10394
H_ H_ 0.669022 0.869197 0.201311 0.10394
H_ H_ 0.717962 0.853225 0.442788 0.10394
H_ H_ 0.772841 0.859502 0.379078 0.10394
H_ H_ 0.885912 0.913012 0.484637 0.10394
H_ H_ 0.809381 0.889907 0.171336 0.10394
H_ H_ 0.730689 0.939474 0.195028 0.10394
H_ H_ 0.836911 0.542563 0.278922 0.10394
H_ H_ 0.902133 0.99533813 0.246552 0.10394
H_ H_ 0.513306 0.874081 0.194001 0.10394
H_ H_ 0.552217 0.797156 0.232936 0.10394
H_ H_ 0.913537 0.734425 0.216723 0.10394
H_ H_ 0.868928 0.820001 0.191156 0.10394
H_ H_ 0.962937 0.549216 0.11493 0.10394
H_ H_ 0.523175 0.613769 0.111105 0.10394
H_ H_ 0.652084 0.496724 0.09449 0.10394
H_ H_ 0.944359 0.657805 0.404362 0.10394
H_ H_ 0.518434 0.687467 0.453744 0.10394
H_ H_ 0.915804 0.767733 0.0503725 0.10394
H_ H_ 0.843355 0.744278 0.494706 0.10394
H_ H_ 0.741206 0.702739 0.398529 0.10394
H_ H_ 0.693789 0.741324 0.319332 0.10394
H_ H_ 0.839847 0.731483 0.254923 0.10394
H_ H_ 0.874925 0.682235 0.328339 0.10394
H_ H_ 0.788516 0.597178 0.0473406 0.10394
H_ H_ 0.737116 0.602584 0.118581 0.10394
H_ H_ 0.609036 0.580262 0.00377975 0.10394
C_ C_ 0.681156 0.598742 0.299748 0.18167
C_ C_ 0.72355 0.578323 0.276174 -0.15533
C_ C_ 0.73398 0.524557 0.271659 0.02923
C_ C_ 0.699875 0.986209 0.29179 -0.15533
C_ C_ 0.656474 0.518931 0.31342 0.18167
C_ C_ 0.536292 0.634885 0.272883 0.18167
C_ C_ 0.0132415 0.677028 0.239644 -0.15533
C_ C_ 0.503442 0.723037 0.264949 0.02923
C_ C_ 0.522249 0.732884 0.316528 -0.15533
C_ C_ 0.548145 0.69379 0.342325 0.18167
C_ C_ 0.507781 0.547644 0.375386 0.69207
C_ C_ 0.969476 0.00580717 0.369115 0.02923
C_ C_ -0.01583100000000004 0.95581 0.3603 -0.15533
C_ C_ 0.955552 0.918208 0.374935 -0.15533
C_ C_ 0.907994 0.928533 0.391339 0.02923
C_ C_ 0.88738 0.980064 0.391475 -0.15533
C_ C_ 0.917798 0.0191735 0.382438 0.02923
C_ C_ 0.903461 0.570311 0.392371 0.69207
C_ C_ 0.898003 0.832962 0.387349 0.69661
C_ C_ 0.573456 0.790967 0.0965096 0.18167
C_ C_ 0.527411 0.769507 0.0752669 -0.15533
C_ C_ 0.516604 0.767638 0.0242172 0.02923
C_ C_ 0.545378 0.791248 0.489233 -0.15533
C_ C_ 0.587257 0.81589 0.0146029 0.18167
C_ C_ 0.716771 0.760569 0.143465 0.18167
C_ C_ 0.738218 0.73533 0.185609 -0.15533
C_ C_ 0.736503 0.758305 0.23373 0.02923
C_ C_ 0.708626 0.806736 0.239065 -0.15533
C_ C_ 0.690522 0.833086 0.19674 0.18167
C_ C_ 0.740773 0.864251 0.0470552 0.69207
C_ C_ 0.775434 0.872033 0.506284 0.02923
C_ C_ 0.756769 0.858858 0.455226 -0.15533
C_ C_ 0.785934 0.871997 0.416981 -0.15533
C_ C_ 0.834166 0.888567 0.42809 0.02923
C_ C_ 0.849674 0.901001 0.478214 -0.15533
C_ C_ 0.823758 0.891258 0.518707 0.02923
C_ C_ 0.852322 0.882126 0.0760318 0.69207
C_ C_ 0.844017 0.888813 0.330568 0.69661
C_ C_ 0.810967 0.928629 0.186354 0.18167
C_ C_ 0.766492 0.95385 0.205338 -0.15533
C_ C_ 0.773664 0.995162 0.242642 0.02923
C_ C_ 0.827054 0.514748 0.250075 -0.15533
C_ C_ 0.86352 0.988804 0.231236 0.18167
C_ C_ 0.987119 0.851416 0.207523 0.18167
C_ C_ 0.511178 0.802006 0.222432 -0.15533
C_ C_ 0.982798 0.768983 0.243445 0.02923
C_ C_ 0.934124 0.766712 0.21513 -0.15533
C_ C_ 0.909518 0.812246 0.194249 0.18167
C_ C_ 0.98895 0.951077 0.136918 0.69207
C_ C_ 0.521739 0.486555 0.100422 0.02923
C_ C_ 0.506033 0.538192 0.111956 -0.15533
C_ C_ 0.53766 0.575084 0.104928 -0.15533
C_ C_ 0.591897 0.55994 0.10023 0.02923
C_ C_ 0.610565 0.507504 0.09 -0.15533
C_ C_ 0.574459 0.472373 0.0952688 0.02923
C_ C_ 0.596369 0.921825 0.110854 0.69207
C_ C_ 0.60567 0.657817 0.110311 0.69661
C_ C_ 0.93942 0.682678 0.436833 0.18167
C_ C_ 0.980359 0.708964 0.456694 -0.15533
C_ C_ 0.972912 0.747191 0.494503 0.02923
C_ C_ 0.924752 0.744119 1.0187152 -0.15533
C_ C_ 0.883173 0.731154 0.4905 0.18167
C_ C_ 0.759617 0.702701 0.363772 0.18167
C_ C_ 0.733 0.726138 0.319374 -0.15533
C_ C_ 0.760369 0.731633 0.277687 0.02923
C_ C_ 0.814432 0.71978 0.283035 -0.15533
C_ C_ 0.833623 0.691248 0.324506 0.18167
C_ C_ 0.763488 0.625632 0.457822 0.69207
C_ C_ 0.726228 0.611143 0.989831 0.02923
C_ C_ 0.747735 0.607097 0.0407099 -0.15533
C_ C_ 0.717657 0.600339 0.0787371 -0.15533
C_ C_ 0.666261 0.59459 0.0667277 0.02923
C_ C_ 0.646876 0.588347 0.0156556 -0.15533
C_ C_ 0.674472 0.602642 0.976316 0.02923
C_ C_ 0.650679 0.614145 0.426944 0.69207
C_ C_ 0.650405 0.593706 0.164173 0.69661
C_ C_ 0.872125 0.887104 0.384991 -0.30787
C_ C_ 0.629023 0.602302 0.108544 -0.30787
N_ N_ 0.646002 0.56897 0.314392 -0.32189
N_ N_ 0.559959 0.64749 0.318472 -0.32189
N_ N_ 0.601264 0.813727 0.0661962 -0.32189
N_ N_ 0.693688 0.810209 0.149227 -0.32189
N_ N_ 0.856421 0.949379 0.196256 -0.32189
N_ N_ 0.93649 0.85385 0.194738 -0.32189
N_ N_ 0.893369 0.692687 0.454705 -0.32189
N_ N_ 0.807837 0.680952 0.363084 -0.32189
O_ O_ 0.00817284 0.5869 0.397485 -0.63271
O_ O_ 0.546017 0.541042 0.345245 -0.57982
O_ O_ 0.89931 0.5958 0.351279 -0.63271
O_ O_ 0.871439 0.586923 0.427049 -0.57982
O_ O_ 0.746639 0.885083 0.0960891 -0.63271
O_ O_ 0.700149 0.839499 0.0355457 -0.57982
O_ O_ 0.862168 0.839534 0.101287 -0.63271
O_ O_ 0.881608 0.917127 0.0927538 -0.57982
O_ O_ 0.485162 0.907993 0.096967 -0.63271
O_ O_ 0.951851 0.961967 0.164083 -0.57982
O_ O_ 0.591983 0.896433 0.149879 -0.63271
O_ O_ 0.633314 0.906744 0.0818376 -0.57982
O_ O_ 0.756636 0.60678 0.41146 -0.63271
O_ O_ 0.802678 0.65288 0.470812 -0.57982
O_ O_ 0.650635 0.654052 0.40078 -0.63271
O_ O_ 0.616382 0.583189 0.413513 -0.57982
F_ F_ 0.937945 0.826697 0.426725 -0.20885
F_ F_ 0.922536 0.816099 0.345528 -0.20885
F_ F_ 0.86525 0.795056 0.390026 -0.20885
F_ F_ 0.801589 0.923258 0.333956 -0.20885
F_ F_ 0.824203 0.84532 0.309956 -0.20885
F_ F_ 0.87058 0.906159 0.296311 -0.20885
F_ F_ 0.577094 0.666409 0.0641128 -0.20885
F_ F_ 0.576102 0.675206 0.148278 -0.20885
F_ F_ 0.644681 0.690414 0.112436 -0.20885
F_ F_ 0.679307 0.546066 0.172278 -0.20885
F_ F_ 0.684074 0.628679 0.181225 -0.20885
F_ F_ 0.613486 0.600123 0.196556 -0.20885
Zn Zn 0.585865 0.58199 0.844741 0.83971
Zn Zn 0.659982 0.850084 0.588977 0.83971
Zn Zn 0.911056 0.920716 0.646511 0.83971
Zn Zn 0.839132 0.650152 0.917735 0.83971
H_ H_ 0.667639 0.629003 0.80843 0.10394
H_ H_ 0.754565 0.597872 0.783819 0.10394
H_ H_ 0.705472 0.952418 0.76202 0.10394
H_ H_ 0.640844 0.480299 0.82787 0.10394
H_ H_ 0.00339359 0.600298 0.767953 0.10394
H_ H_ 0.972783 0.66591 0.708402 0.10394
H_ H_ 0.53539 0.767536 0.841915 0.10394
H_ H_ 0.567318 0.691691 0.884458 0.10394
H_ H_ 0.522383 0.947485 0.854118 0.10394
H_ H_ 0.966769 0.875929 0.865764 0.10394
H_ H_ 0.845465 0.991954 0.91288 0.10394
H_ H_ 0.578348 0.811791 0.634347 0.10394
H_ H_ 0.009630000000000027 0.769848 0.592816 0.10394
H_ H_ 0.532691 0.793578 0.950824 0.10394
H_ H_ 0.606988 0.837375 0.484059 0.10394
H_ H_ 0.7178 0.751551 0.595244 0.10394
H_ H_ 0.758774 0.699209 0.665229 0.10394
H_ H_ 0.732373 0.830913 0.768067 0.10394
H_ H_ 0.695038 0.881093 0.695297 0.10394
H_ H_ 0.711331 0.901687 0.951162 0.10394
H_ H_ 0.761908 0.908934 0.880805 0.10394
H_ H_ 0.893836 0.907629 0.991185 0.10394
H_ H_ 0.803189 0.971208 0.616598 0.10394
H_ H_ 0.735388 0.997283 0.666749 0.10394
H_ H_ 0.837587 0.535198 0.79114 0.10394
H_ H_ 0.911229 0.981804 0.742963 0.10394
H_ H_ 0.517328 0.881547 0.698809 0.10394
H_ H_ 0.554223 0.805038 0.746306 0.10394
H_ H_ 0.910921 0.755386 0.726813 0.10394
H_ H_ 0.872166 0.831349 0.683583 0.10394
H_ H_ 0.955046 0.553029 0.610457 0.10394
H_ H_ 0.516295 0.61362 0.605973 0.10394
H_ H_ 0.650227 0.51091 0.604419 0.10394
H_ H_ 0.941036 0.665811 0.895179 0.10394
H_ H_ 0.521392 0.692369 0.951243 0.10394
H_ H_ 0.920112 0.782727 0.544495 0.10394
H_ H_ 0.847803 0.726206 1.00708241 0.10394
H_ H_ 0.736792 0.689955 0.884201 0.10394
H_ H_ 0.691013 0.73445 0.808712 0.10394
H_ H_ 0.836409 0.713864 0.744314 0.10394
H_ H_ 0.878766 0.674589 0.824921 0.10394
H_ H_ 0.785115 0.627573 0.55675 0.10394
H_ H_ 0.730445 0.608543 0.621608 0.10394
H_ H_ 0.601829 0.603826 0.509733 0.10394
C_ C_ 0.67729 0.588822 0.800393 0.18167
C_ C_ 0.727082 0.572159 0.788394 -0.15533
C_ C_ 0.740777 0.519772 0.779901 0.02923
C_ C_ 0.701312 0.992455 0.772659 -0.15533
C_ C_ 0.662937 0.505561 0.814548 0.18167
C_ C_ 0.518899 0.638015 0.772683 0.18167
C_ C_ -0.00012999999999996348 0.674691 0.73947 -0.15533
C_ C_ 0.502218 0.73049 0.772772 0.02923
C_ C_ 0.532884 0.731196 0.820659 -0.15533
C_ C_ 0.553746 0.688103 0.843752 0.18167
C_ C_ 0.506327 0.539936 0.867129 0.69207
C_ C_ 0.962334 0.00588395 0.869397 0.02923
C_ C_ -0.019264999999999977 0.955001 0.860904 -0.15533
C_ C_ 0.952577 0.917034 0.87513 -0.15533
C_ C_ 0.903033 0.926933 0.891278 0.02923
C_ C_ 0.883192 0.979901 0.897154 -0.15533
C_ C_ 0.912115 0.0194735 0.883759 0.02923
C_ C_ 0.894839 0.564816 0.886351 0.69207
C_ C_ 0.892668 0.829788 0.902932 0.69661
C_ C_ 0.569313 0.806345 0.594286 0.18167
C_ C_ 0.524688 0.783306 0.573702 -0.15533
C_ C_ 0.515403 0.768832 0.522024 0.02923
C_ C_ 0.542849 0.793985 0.993458 -0.15533
C_ C_ 0.587643 0.815328 0.507795 0.18167
C_ C_ 0.716466 0.767 0.635039 0.18167
C_ C_ 0.736899 0.736289 0.673856 -0.15533
C_ C_ 0.738277 0.758232 0.725209 0.02923
C_ C_ 0.727614 0.811623 0.731986 -0.15533
C_ C_ 0.703045 0.839286 0.692375 0.18167
C_ C_ 0.736722 0.866848 0.543286 0.69207
C_ C_ 0.772994 0.880556 1.0111376 0.02923
C_ C_ 0.75192 0.89295 0.9613 -0.15533
C_ C_ 0.782376 0.89821 0.919956 -0.15533
C_ C_ 0.834701 0.896729 0.931815 0.02923
C_ C_ 0.85636 0.897108 0.982426 -0.15533
C_ C_ 0.826393 0.883102 0.0223074 0.02923
C_ C_ 0.848607 0.88769 0.572098 0.69207
C_ C_ 0.843292 0.877483 0.8349 0.69661
C_ C_ 0.813679 0.973717 0.658839 0.18167
C_ C_ 0.77355 0.994165 0.68658 -0.15533
C_ C_ 0.780492 0.01105 0.737204 0.02923
C_ C_ 0.830293 0.510112 0.758643 -0.15533
C_ C_ 0.871946 0.981047 0.731589 0.18167
C_ C_ 0.993132 0.854824 0.692209 0.18167
C_ C_ 0.514197 0.81171 0.737687 -0.15533
C_ C_ 0.985134 0.7687 0.721701 0.02923
C_ C_ 0.933452 0.779816 0.711499 -0.15533
C_ C_ 0.911677 0.827386 0.695309 0.18167
C_ C_ 0.990986 0.959054 0.619966 0.69207
C_ C_ 0.530355 0.487414 0.623592 0.02923
C_ C_ 0.506362 0.535226 0.614771 -0.15533
C_ C_ 0.536044 0.575116 0.608405 -0.15533
C_ C_ 0.589269 0.56724 0.609132 0.02923
C_ C_ 0.613595 0.517515 0.613804 -0.15533
C_ C_ 0.583738 0.475601 0.619467 0.02923
C_ C_ 0.597163 0.929741 0.621198 0.69207
C_ C_ 0.595491 0.663651 0.607366 0.69661
C_ C_ 0.935677 0.684447 0.931105 0.18167
C_ C_ 0.977845 0.706695 0.956764 -0.15533
C_ C_ 0.971951 0.738694 1.00200254 0.02923
C_ C_ 0.925126 0.75516 0.514636 -0.15533
C_ C_ 0.886651 0.714152 0.996564 0.18167
C_ C_ 0.756847 0.691992 0.851151 0.18167
C_ C_ 0.732648 0.718478 0.809449 -0.15533
C_ C_ 0.761064 0.725606 0.76697 0.02923
C_ C_ 0.814456 0.708188 0.773986 -0.15533
C_ C_ 0.837766 0.687918 0.819535 0.18167
C_ C_ 0.763324 0.620009 0.951466 0.69207
C_ C_ 0.72603 0.623553 0.494441 0.02923
C_ C_ 0.744537 0.623943 0.547201 -0.15533
C_ C_ 0.714244 0.61002 0.584466 -0.15533
C_ C_ 0.662347 0.6073 0.572422 0.02923
C_ C_ 0.643827 0.608437 0.521117 -0.15533
C_ C_ 0.675655 0.612008 0.480145 0.02923
C_ C_ 0.649309 0.602214 0.922219 0.69207
C_ C_ 0.65164 0.611715 0.671524 0.69661
C_ C_ 0.869551 0.882623 0.889202 -0.30787
C_ C_ 0.625592 0.609726 0.615116 -0.30787
N_ N_ 0.643351 0.555206 0.811821 -0.32189
N_ N_ 0.546815 0.642419 0.819228 -0.32189
N_ N_ 0.599794 0.818102 0.560288 -0.32189
N_ N_ 0.697173 0.816764 0.644917 -0.32189
N_ N_ 0.861468 0.961446 0.683061 -0.32189
N_ N_ 0.941434 0.862743 0.681968 -0.32189
N_ N_ 0.889624 0.691333 0.949443 -0.32189
N_ N_ 0.808423 0.676655 0.854695 -0.32189
O_ O_ 1.00320225 0.585146 0.89637 -0.63271
O_ O_ 0.545407 0.530665 0.838037 -0.57982
O_ O_ 0.898809 0.594359 0.849396 -0.63271
O_ O_ 0.869754 0.584561 0.923874 -0.57982
O_ O_ 0.741454 0.893637 0.587975 -0.63271
O_ O_ 0.699299 0.837491 0.53159 -0.57982
O_ O_ 0.845998 0.848426 0.599022 -0.63271
O_ O_ 0.885282 0.916587 0.584695 -0.57982
O_ O_ 0.492208 0.910633 0.612087 -0.63271
O_ O_ 0.952253 0.969459 0.646767 -0.57982
O_ O_ 0.599219 0.90604 0.663363 -0.63271
O_ O_ 0.626404 0.912334 0.585455 -0.57982
O_ O_ 0.759802 0.601128 0.904828 -0.63271
O_ O_ 0.795654 0.65435 0.963258 -0.57982
O_ O_ 0.651198 0.643752 0.894923 -0.63271
O_ O_ 0.611279 0.575175 0.909447 -0.57982
F_ F_ 0.929861 0.830143 0.942048 -0.20885
F_ F_ 0.916523 0.806268 0.860063 -0.20885
F_ F_ 0.859945 0.793807 0.914138 -0.20885
F_ F_ 0.814008 0.924051 0.823495 -0.20885
F_ F_ 0.814627 0.834133 0.827455 -0.20885
F_ F_ 0.878403 0.874491 0.798146 -0.20885
F_ F_ 0.561924 0.668488 0.563916 -0.20885
F_ F_ 0.572088 0.684088 0.651915 -0.20885
F_ F_ 0.627931 0.700698 0.604582 -0.20885
F_ F_ 0.687054 0.571436 0.683762 -0.20885
F_ F_ 0.674712 0.655853 0.687123 -0.20885
F_ F_ 0.610387 0.614411 0.705856 -0.20885
