_cell_length_a 26.508
_cell_length_b 26.37200000322088
_cell_length_c 26.311999743092066
_cell_angle_alpha 93.74100058972084
_cell_angle_beta 96.04100104955006
_cell_angle_gamma 83.6869992558723
_symmetry_space_group_name_H-M         'P 1'
_symmetry_Int_Tables_number            1
loop_
_symmetry_equiv_pos_as_xyz
   'x, y, z'
                         
loop_
_atom_site_label
_atom_site_type_symbol
_atom_site_fract_x 
_atom_site_fract_y
_atom_site_fract_z
_atom_site_charge
Zn Zn 0.0847151 0.0863441 0.345671 0.83971
Zn Zn 0.1601 0.34205 0.0815609 0.83971
Zn Zn 0.414317 0.420511 0.159758 0.83971
Zn Zn 0.335135 0.151394 0.414746 0.83971
H_ H_ 0.163636 0.134424 0.293986 0.10394
H_ H_ 0.241034 0.0947983 0.258426 0.10394
H_ H_ 0.21029 0.439044 0.288942 0.10394
H_ H_ 0.131644 0.992319 0.339445 0.10394
H_ H_ 0.524719 0.0969026 0.239355 0.10394
H_ H_ 0.476234 0.175921 0.204713 0.10394
H_ H_ 0.0423736 0.268998 0.335242 0.10394
H_ H_ 0.0635714 0.188719 0.381812 0.10394
H_ H_ 0.0288226 0.441193 0.357284 0.10394
H_ H_ 0.47917 0.384286 0.381708 0.10394
H_ H_ 0.353584 0.494078 0.40877 0.10394
H_ H_ 0.0757942 0.308433 0.12469 0.10394
H_ H_ 0.509169 0.259504 0.0873653 0.10394
H_ H_ 0.0258788 0.309626 0.452983 0.10394
H_ H_ 0.124847 0.305394 0.979718 0.10394
H_ H_ 0.207049 0.249737 0.103592 0.10394
H_ H_ 0.256224 0.207293 0.177455 0.10394
H_ H_ 0.21421 0.339965 0.273369 0.10394
H_ H_ 0.180926 0.38329 0.19714 0.10394
H_ H_ 0.216906 0.365742 0.451353 0.10394
H_ H_ 0.265219 0.37871 0.381199 0.10394
H_ H_ 0.396952 0.404475 0.494377 0.10394
H_ H_ 0.310986 0.40332 0.159827 0.10394
H_ H_ 0.236505 0.447524 0.19832 0.10394
H_ H_ 0.322695 0.0424687 0.283957 0.10394
H_ H_ 0.411553 0.493713 0.247052 0.10394
H_ H_ 0.0173665 0.39227 0.213025 0.10394
H_ H_ 0.0517376 0.316713 0.253734 0.10394
H_ H_ 0.406427 0.274833 0.261155 0.10394
H_ H_ 0.372687 0.33969 0.200002 0.10394
H_ H_ 0.464738 0.0548201 0.139624 0.10394
H_ H_ 0.0177109 0.119655 0.112027 0.10394
H_ H_ 0.144625 0.0102973 0.0871429 0.10394
H_ H_ 0.43555 0.161929 0.390602 0.10394
H_ H_ 0.0150477 0.206547 0.446125 0.10394
H_ H_ 0.417571 0.274358 0.0386938 0.10394
H_ H_ 0.335861 0.22915 0.499721 0.10394
H_ H_ 0.229211 0.181934 0.374723 0.10394
H_ H_ 0.188286 0.230561 0.305944 0.10394
H_ H_ 0.334238 0.229651 0.245284 0.10394
H_ H_ 0.375629 0.182397 0.318955 0.10394
H_ H_ 0.284216 0.108255 0.0505725 0.10394
H_ H_ 0.227449 0.11742 0.117294 0.10394
H_ H_ 0.101266 0.103749 0.00336412 0.10394
C_ C_ 0.171297 0.0932568 0.294048 0.18167
C_ C_ 0.215402 0.0717615 0.273087 -0.15533
C_ C_ 0.22318 0.0176043 0.263496 0.02923
C_ C_ 0.204393 0.479496 0.295113 -0.15533
C_ C_ 0.151324 0.0124698 0.313314 0.18167
C_ C_ 0.0285737 0.136923 0.264606 0.18167
C_ C_ 0.498589 0.178262 0.241145 -0.15533
C_ C_ 0.00852834 0.227525 0.266173 0.02923
C_ C_ 0.0324571 0.232067 0.316657 -0.15533
C_ C_ 0.0479482 0.187279 0.34159 0.18167
C_ C_ 0.0060419 0.0435011 0.361568 0.69207
C_ C_ 0.470396 0.512067 0.380124 0.02923
C_ C_ 0.489718 0.459928 0.373541 -0.15533
C_ C_ 0.46208 0.421151 0.386157 -0.15533
C_ C_ 0.409437 0.432001 0.397472 0.02923
C_ C_ 0.391683 0.484383 0.400437 -0.15533
C_ C_ 0.419689 0.525035 0.390658 0.02923
C_ C_ 0.39307 0.0692911 0.385655 0.69207
C_ C_ 0.402566 0.332053 0.391131 0.69661
C_ C_ 0.0682185 0.301977 0.083458 0.18167
C_ C_ 0.0206169 0.288068 0.0624307 -0.15533
C_ C_ 0.0138617 0.272159 0.0109734 0.02923
C_ C_ 0.0364756 0.30649 0.493379 -0.15533
C_ C_ 0.0949668 0.299914 0.00154308 0.18167
C_ C_ 0.212239 0.271197 0.14046 0.18167
C_ C_ 0.235132 0.243255 0.181852 -0.15533
C_ C_ 0.238001 0.26974 0.231134 0.02923
C_ C_ 0.221806 0.322439 0.236753 -0.15533
C_ C_ 0.200513 0.346842 0.192133 0.18167
C_ C_ 0.246157 0.364756 0.0521744 0.69207
C_ C_ 0.277998 0.369439 0.512333 0.02923
C_ C_ 0.257475 0.370063 0.459126 -0.15533
C_ C_ 0.28448 0.382944 0.419954 -0.15533
C_ C_ 0.335522 0.393336 0.432458 0.02923
C_ C_ 0.355893 0.3969 0.484892 -0.15533
C_ C_ 0.328561 0.38155 0.522309 0.02923
C_ C_ 0.357978 0.390424 0.0763496 0.69207
C_ C_ 0.347039 0.387731 0.33676 0.69661
C_ C_ 0.31587 0.431001 0.189992 0.18167
C_ C_ 0.274704 0.460106 0.209142 -0.15533
C_ C_ 0.28197 0.494909 0.250045 0.02923
C_ C_ 0.318486 0.0149581 0.251085 -0.15533
C_ C_ 0.372455 0.486474 0.234708 0.18167
C_ C_ 0.493898 0.34402 0.19042 0.18167
C_ C_ 0.0169025 0.314303 0.233597 -0.15533
C_ C_ 0.482101 0.272012 0.240182 0.02923
C_ C_ 0.430531 0.287697 0.234844 -0.15533
C_ C_ 0.412876 0.326512 0.201624 0.18167
C_ C_ 0.491664 0.457568 0.133429 0.69207
C_ C_ 0.0268849 0.99102 0.112399 0.02923
C_ C_ 0.00648468 0.042809 0.11457 -0.15533
C_ C_ 0.0353728 0.0813182 0.109574 -0.15533
C_ C_ 0.0858605 0.0709749 0.0973195 0.02923
C_ C_ 0.107017 0.0189548 0.0943638 -0.15533
C_ C_ 0.0790864 0.978838 0.104149 0.02923
C_ C_ 0.101511 0.425289 0.110237 0.69207
C_ C_ 0.0954263 0.168349 0.108458 0.69661
C_ C_ 0.430307 0.183939 0.427417 0.18167
C_ C_ 0.469582 0.212261 0.451175 -0.15533
C_ C_ 0.460987 0.244875 0.49579 0.02923
C_ C_ 0.427473 0.247955 0.00943966 -0.15533
C_ C_ 0.373056 0.226222 0.485207 0.18167
C_ C_ 0.252436 0.193091 0.348959 0.18167
C_ C_ 0.22888 0.225366 0.309779 -0.15533
C_ C_ 0.260815 0.241787 0.275974 0.02923
C_ C_ 0.310962 0.223171 0.276708 -0.15533
C_ C_ 0.332877 0.192032 0.315149 0.18167
C_ C_ 0.256362 0.126664 0.452457 0.69207
C_ C_ 0.22577 0.121764 0.990627 0.02923
C_ C_ 0.244443 0.117188 0.0410837 -0.15533
C_ C_ 0.210653 0.121415 0.0783621 -0.15533
C_ C_ 0.158961 0.113408 0.0652557 0.02923
C_ C_ 0.139244 0.110858 0.0133422 -0.15533
C_ C_ 0.173967 0.114127 0.975623 0.02923
C_ C_ 0.146452 0.112524 0.426592 0.69207
C_ C_ 0.147514 0.101233 0.1626 0.69661
C_ C_ 0.375456 0.388048 0.391885 -0.30787
C_ C_ 0.122185 0.112894 0.108289 -0.30787
N_ N_ 0.138361 0.0625829 0.310763 -0.32189
N_ N_ 0.0502757 0.141445 0.315049 -0.32189
N_ N_ 0.104084 0.309599 0.0544827 -0.32189
N_ N_ 0.19572 0.321353 0.145686 -0.32189
N_ N_ 0.362033 0.446653 0.200527 -0.32189
N_ N_ 0.443498 0.358117 0.18514 -0.32189
N_ N_ 0.382627 0.192183 0.443446 -0.32189
N_ N_ 0.305452 0.181837 0.354156 -0.32189
O_ O_ 0.496776 0.0860596 0.384428 -0.63271
O_ O_ 0.0443431 0.0360988 0.335872 -0.57982
O_ O_ 0.382009 0.0938831 0.343911 -0.63271
O_ O_ 0.374725 0.0898469 0.42685 -0.57982
O_ O_ 0.242208 0.398141 0.0907937 -0.63271
O_ O_ 0.212171 0.332982 0.042422 -0.57982
O_ O_ 0.362933 0.347535 0.0992892 -0.63271
O_ O_ 0.37948 0.430299 0.0965465 -0.57982
O_ O_ 0.99806085 0.40259 0.0949603 -0.63271
O_ O_ 0.464652 0.463074 0.172402 -0.57982
O_ O_ 0.100883 0.404913 0.154217 -0.63271
O_ O_ 0.134089 0.405345 0.078808 -0.57982
O_ O_ 0.260073 0.0998599 0.408705 -0.63271
O_ O_ 0.2904 0.158281 0.462468 -0.57982
O_ O_ 0.146693 0.152678 0.399611 -0.63271
O_ O_ 0.108304 0.0846235 0.412352 -0.57982
F_ F_ 0.438977 0.328159 0.432586 -0.20885
F_ F_ 0.427285 0.317005 0.348704 -0.20885
F_ F_ 0.370574 0.295791 0.390714 -0.20885
F_ F_ 0.309584 0.428784 0.333119 -0.20885
F_ F_ 0.321064 0.343956 0.320968 -0.20885
F_ F_ 0.381093 0.390105 0.300073 -0.20885
F_ F_ 0.0638261 0.174277 0.0664091 -0.20885
F_ F_ 0.069583 0.180831 0.150803 -0.20885
F_ F_ 0.12966 0.205379 0.106971 -0.20885
F_ F_ 0.183929 0.0589481 0.158018 -0.20885
F_ F_ 0.172579 0.144246 0.18335 -0.20885
F_ F_ 0.115765 0.0940112 0.198858 -0.20885
Zn Zn 0.0943331 0.0893286 0.844351 0.83971
Zn Zn 0.160697 0.344195 0.590719 0.83971
Zn Zn 0.408628 0.415762 0.659848 0.83971
Zn Zn 0.338111 0.150803 0.914668 0.83971
H_ H_ 0.172831 0.13667 0.800928 0.10394
H_ H_ 0.243455 0.100479 0.754716 0.10394
H_ H_ 0.204641 0.437088 0.78373 0.10394
H_ H_ 0.146423 0.986525 0.83862 0.10394
H_ H_ 0.526489 0.0987264 0.755855 0.10394
H_ H_ 0.493575 0.170882 0.707325 0.10394
H_ H_ 0.032946 0.274345 0.829244 0.10394
H_ H_ 0.0727647 0.203147 0.876475 0.10394
H_ H_ 0.0293608 0.444 0.854028 0.10394
H_ H_ 0.479347 0.382996 0.863306 0.10394
H_ H_ 0.350485 0.489852 0.904437 0.10394
H_ H_ 0.0844749 0.299098 0.634702 0.10394
H_ H_ 0.479303 0.289877 0.592738 0.10394
H_ H_ 0.0423252 0.274883 0.93931 0.10394
H_ H_ 0.104892 0.342887 0.490494 0.10394
H_ H_ 0.222741 0.241672 0.603287 0.10394
H_ H_ 0.26971 0.202811 0.673699 0.10394
H_ H_ 0.229202 0.3357 0.771037 0.10394
H_ H_ 0.178886 0.375849 0.694638 0.10394
H_ H_ 0.227058 0.353127 0.952828 0.10394
H_ H_ 0.264092 0.383319 0.886616 0.10394
H_ H_ 0.399371 0.412009 0.991207 0.10394
H_ H_ 0.314142 0.388259 0.671445 0.10394
H_ H_ 0.23471 0.4342 0.695792 0.10394
H_ H_ 0.340983 0.0494236 0.766313 0.10394
H_ H_ 0.405539 0.495732 0.744219 0.10394
H_ H_ 0.0111209 0.387636 0.699643 0.10394
H_ H_ 0.0552174 0.307221 0.732751 0.10394
H_ H_ 0.414799 0.248997 0.739843 0.10394
H_ H_ 0.374838 0.32803 0.7012 0.10394
H_ H_ 0.460506 0.0614405 0.594265 0.10394
H_ H_ 0.0149173 0.112195 0.595262 0.10394
H_ H_ 0.143603 -0.004242999999999997 0.591794 0.10394
H_ H_ 0.446462 0.162256 0.889101 0.10394
H_ H_ 0.0138839 0.194375 0.947386 0.10394
H_ H_ 0.407407 0.262179 0.55079 0.10394
H_ H_ 0.351081 0.225983 0.00522718 0.10394
H_ H_ 0.236208 0.201125 0.88648 0.10394
H_ H_ 0.198526 0.24915 0.809557 0.10394
H_ H_ 0.337394 0.209067 0.743577 0.10394
H_ H_ 0.378442 0.181438 0.81973 0.10394
H_ H_ 0.287867 0.091495 0.546835 0.10394
H_ H_ 0.230203 0.0816078 0.61377 0.10394
H_ H_ 0.10089 0.0974894 0.508399 0.10394
C_ C_ 0.182174 0.0951061 0.798299 0.18167
C_ C_ 0.226879 0.0756527 0.776838 -0.15533
C_ C_ 0.240873 0.0229761 0.772507 0.02923
C_ C_ 0.198037 0.478657 0.790003 -0.15533
C_ C_ 0.168505 0.011344 0.820631 0.18167
C_ C_ 0.0358386 0.137611 0.765777 0.18167
C_ C_ 0.511001 0.176038 0.7459 -0.15533
C_ C_ 0.0101759 0.228517 0.758494 0.02923
C_ C_ 0.0350725 0.237099 0.809032 -0.15533
C_ C_ 0.0577368 0.195335 0.836508 0.18167
C_ C_ 0.012886 0.0509113 0.871452 0.69207
C_ C_ 0.46963 0.513936 0.869565 0.02923
C_ C_ 0.489741 0.463625 0.862401 -0.15533
C_ C_ 0.460957 0.42227 0.870184 -0.15533
C_ C_ 0.410371 0.430626 0.882772 0.02923
C_ C_ 0.390272 0.481662 0.890115 -0.15533
C_ C_ 0.418771 0.522933 0.883845 0.02923
C_ C_ 0.398884 0.0722244 0.882763 0.69207
C_ C_ 0.402872 0.3314 0.893889 0.69661
C_ C_ 0.0685152 0.302494 0.596174 0.18167
C_ C_ 0.0225602 0.282186 0.576766 -0.15533
C_ C_ 0.0116932 0.276632 0.523669 0.02923
C_ C_ 0.0485421 0.285599 0.979899 -0.15533
C_ C_ 0.0795741 0.329378 0.515007 0.18167
C_ C_ 0.223943 0.26373 0.639433 0.18167
C_ C_ 0.246161 0.239171 0.680831 -0.15533
C_ C_ 0.243145 0.262987 0.728881 0.02923
C_ C_ 0.226209 0.315618 0.733671 -0.15533
C_ C_ 0.20139 0.338511 0.690157 0.18167
C_ C_ 0.242436 0.367839 0.551634 0.69207
C_ C_ 0.283247 0.370701 0.0135014 0.02923
C_ C_ 0.263993 0.363739 0.960427 -0.15533
C_ C_ 0.289044 0.378181 0.921204 -0.15533
C_ C_ 0.33944 0.395469 0.93111 0.02923
C_ C_ 0.358295 0.404431 0.982997 -0.15533
C_ C_ 0.332019 0.391019 0.023656 0.02923
C_ C_ 0.352346 0.379703 0.574251 0.69207
C_ C_ 0.344485 0.38309 0.834355 0.69661
C_ C_ 0.313915 0.426567 0.690516 0.18167
C_ C_ 0.269403 0.450975 0.708921 -0.15533
C_ C_ 0.273187 0.492307 0.743714 0.02923
C_ C_ 0.332291 0.016262 0.743352 -0.15533
C_ C_ 0.365366 0.485224 0.734572 0.18167
C_ C_ 0.493703 0.349091 0.698128 0.18167
C_ C_ 0.0141984 0.310977 0.721696 -0.15533
C_ C_ 0.489594 0.269423 0.735782 0.02923
C_ C_ 0.435984 0.276931 0.726138 -0.15533
C_ C_ 0.412912 0.320292 0.70346 0.18167
C_ C_ 0.485458 0.454956 0.629968 0.69207
C_ C_ 0.0208479 0.985914 0.615103 0.02923
C_ C_ 0.000459899 0.0366047 0.602471 -0.15533
C_ C_ 0.0330912 0.0762508 0.603857 -0.15533
C_ C_ 0.0856175 0.0618364 0.601035 0.02923
C_ C_ 0.104578 0.00689368 0.600247 -0.15533
C_ C_ 0.072633 0.970548 0.605335 0.02923
C_ C_ 0.0973533 0.425262 0.619076 0.69207
C_ C_ 0.104622 0.160328 0.607874 0.69661
C_ C_ 0.44067 0.18517 0.924009 0.18167
C_ C_ 0.482277 0.209716 0.94819 -0.15533
C_ C_ 0.477813 0.240754 0.991579 0.02923
C_ C_ 0.413684 0.247938 0.515268 -0.15533
C_ C_ 0.387941 0.221487 0.986154 0.18167
C_ C_ 0.259123 0.205664 0.855555 0.18167
C_ C_ 0.235505 0.229125 0.812533 -0.15533
C_ C_ 0.265062 0.235252 0.773776 0.02923
C_ C_ 0.315844 0.212965 0.776706 -0.15533
C_ C_ 0.338748 0.19175 0.819874 0.18167
C_ C_ 0.263728 0.127901 0.955386 0.69207
C_ C_ 0.223869 0.113786 0.490829 0.02923
C_ C_ 0.24479 0.0995616 0.539935 -0.15533
C_ C_ 0.214793 0.090952 0.577443 -0.15533
C_ C_ 0.162753 0.0924403 0.566734 0.02923
C_ C_ 0.141753 0.0979717 0.517374 -0.15533
C_ C_ 0.171551 0.11106 0.477806 0.02923
C_ C_ 0.15328 0.113905 0.921708 0.69207
C_ C_ 0.151427 0.0948519 0.664949 0.69661
C_ C_ 0.374545 0.386198 0.88717 -0.30787
C_ C_ 0.126774 0.102038 0.609549 -0.30787
N_ N_ 0.151169 0.0619708 0.814444 -0.32189
N_ N_ 0.0579043 0.147393 0.815148 -0.32189
N_ N_ 0.0973891 0.321364 0.564613 -0.32189
N_ N_ 0.195864 0.309288 0.644271 -0.32189
N_ N_ 0.35888 0.445185 0.700031 -0.32189
N_ N_ 0.442761 0.355533 0.68728 -0.32189
N_ N_ 0.395954 0.187276 0.945127 -0.32189
N_ N_ 0.30747 0.181995 0.855203 -0.32189
O_ O_ 0.507383 0.0898892 0.885479 -0.63271
O_ O_ 0.0528503 0.040825 0.846316 -0.57982
O_ O_ 0.394893 0.0946906 0.840769 -0.63271
O_ O_ 0.370487 0.089726 0.917687 -0.57982
O_ O_ 0.24893 0.391154 0.59676 -0.63271
O_ O_ 0.201538 0.342985 0.541344 -0.57982
O_ O_ 0.359223 0.337325 0.598092 -0.63271
O_ O_ 0.373223 0.41989 0.595807 -0.57982
O_ O_ 0.982054 0.414122 0.596681 -0.63271
O_ O_ 0.451682 0.465981 0.66251 -0.57982
O_ O_ 0.0866619 0.399241 0.658452 -0.63271
O_ O_ 0.139915 0.413259 0.597902 -0.57982
O_ O_ 0.257825 0.105078 0.909849 -0.63271
O_ O_ 0.293072 0.163113 0.96211 -0.57982
O_ O_ 0.152064 0.15462 0.894173 -0.63271
O_ O_ 0.1209 0.0810224 0.907293 -0.57982
F_ F_ 0.439858 0.335091 0.934633 -0.20885
F_ F_ 0.426295 0.310434 0.852357 -0.20885
F_ F_ 0.369271 0.294533 0.903716 -0.20885
F_ F_ 0.311048 0.42862 0.831221 -0.20885
F_ F_ 0.313867 0.343176 0.824096 -0.20885
F_ F_ 0.372715 0.379843 0.794016 -0.20885
F_ F_ 0.0732725 0.1662 0.562779 -0.20885
F_ F_ 0.0771966 0.176524 0.648464 -0.20885
F_ F_ 0.144669 0.191405 0.606503 -0.20885
F_ F_ 0.173994 0.048259 0.67254 -0.20885
F_ F_ 0.187854 0.12934 0.677735 -0.20885
F_ F_ 0.116836 0.104531 0.699906 -0.20885
Zn Zn 0.0849633 0.580572 0.345901 0.83971
Zn Zn 0.162747 0.842777 0.0739157 0.83971
Zn Zn 0.406085 0.914729 0.156337 0.83971
Zn Zn 0.335293 0.658067 0.415285 0.83971
H_ H_ 0.161935 0.621226 0.300882 0.10394
H_ H_ 0.245828 0.589632 0.266843 0.10394
H_ H_ 0.202387 0.947702 0.287883 0.10394
H_ H_ 0.137315 0.474699 0.329899 0.10394
H_ H_ 0.526948 0.596327 0.249706 0.10394
H_ H_ 0.498422 0.672976 0.204517 0.10394
H_ H_ 0.0250316 0.766934 0.350398 0.10394
H_ H_ 0.0668092 0.687367 0.383216 0.10394
H_ H_ 0.0204704 0.939846 0.345248 0.10394
H_ H_ 0.468016 0.87331 0.354409 0.10394
H_ H_ 0.351868 0.983025 0.3992 0.10394
H_ H_ 0.0837448 0.809121 0.133865 0.10394
H_ H_ 0.508173 0.767713 0.0991179 0.10394
H_ H_ 0.0461776 0.772758 0.446183 0.10394
H_ H_ 0.117664 0.818812 0.977762 0.10394
H_ H_ 0.231171 0.749004 0.0932249 0.10394
H_ H_ 0.248607 0.702809 0.165467 0.10394
H_ H_ 0.205995 0.832501 0.261221 0.10394
H_ H_ 0.182526 0.880924 0.181689 0.10394
H_ H_ 0.216639 0.859817 0.44535 0.10394
H_ H_ 0.270179 0.872483 0.37606 0.10394
H_ H_ 0.396502 0.899306 0.485449 0.10394
H_ H_ 0.304497 0.895562 0.156998 0.10394
H_ H_ 0.230512 0.935 0.195317 0.10394
H_ H_ 0.336166 0.542041 0.290813 0.10394
H_ H_ 0.399111 -0.000414656 0.237935 0.10394
H_ H_ 0.0153385 0.878312 0.190344 0.10394
H_ H_ 0.0563034 0.803165 0.230083 0.10394
H_ H_ 0.421794 0.741444 0.221603 0.10394
H_ H_ 0.375902 0.81733 0.188683 0.10394
H_ H_ 0.472352 0.559581 0.150572 0.10394
H_ H_ 0.0187429 0.617492 0.0881517 0.10394
H_ H_ 0.150492 0.511585 0.10346 0.10394
H_ H_ 0.441079 0.672931 0.395713 0.10394
H_ H_ 0.0179271 0.687448 0.448124 0.10394
H_ H_ 0.422083 0.787585 0.048694 0.10394
H_ H_ 0.339636 0.742529 0.503307 0.10394
H_ H_ 0.222712 0.689605 0.369475 0.10394
H_ H_ 0.187763 0.744137 0.298623 0.10394
H_ H_ 0.342126 0.735902 0.252306 0.10394
H_ H_ 0.373234 0.696538 0.328824 0.10394
H_ H_ 0.285523 0.61216 0.0607775 0.10394
H_ H_ 0.229654 0.604634 0.122725 0.10394
H_ H_ 0.0996958 0.598678 0.0126486 0.10394
C_ C_ 0.175273 0.582695 0.300966 0.18167
C_ C_ 0.222714 0.567089 0.285463 -0.15533
C_ C_ 0.237431 0.513681 0.279389 0.02923
C_ C_ 0.191014 0.987567 0.285504 -0.15533
C_ C_ 0.161314 0.499257 0.320895 0.18167
C_ C_ 0.0230368 0.641144 0.268529 0.18167
C_ C_ 0.51474 0.678646 0.242534 -0.15533
C_ C_ 0.00496567 0.730964 0.274243 0.02923
C_ C_ 0.0260841 0.731362 0.325464 -0.15533
C_ C_ 0.0467301 0.68654 0.346709 0.18167
C_ C_ 0.00565411 0.538595 0.370235 0.69207
C_ C_ 0.466748 0.00389141 0.364692 0.02923
C_ C_ 0.483777 0.951502 0.354459 -0.15533
C_ C_ 0.454784 0.9128 0.365518 -0.15533
C_ C_ 0.406595 0.924304 0.382959 0.02923
C_ C_ 0.391479 0.975922 0.394252 -0.15533
C_ C_ 0.418596 0.016826 0.383601 0.02923
C_ C_ 0.395332 0.578373 0.388971 0.69207
C_ C_ 0.393018 0.826512 0.372559 0.69661
C_ C_ 0.0721945 0.803708 0.0922128 0.18167
C_ C_ 0.0252364 0.785726 0.0739063 -0.15533
C_ C_ 0.0142727 0.773364 0.0210725 0.02923
C_ C_ 0.0525683 0.775994 0.486121 -0.15533
C_ C_ 0.0932878 0.803557 0.00498969 0.18167
C_ C_ 0.227636 0.769238 0.128752 0.18167
C_ C_ 0.236978 0.741784 0.173025 -0.15533
C_ C_ 0.239351 0.766255 0.220863 0.02923
C_ C_ 0.216367 0.816737 0.223479 -0.15533
C_ C_ 0.199159 0.840797 0.178849 0.18167
C_ C_ 0.242981 0.866727 0.0403963 0.69207
C_ C_ 0.275391 0.873354 0.505959 0.02923
C_ C_ 0.256238 0.86608 0.454687 -0.15533
C_ C_ 0.284261 0.875807 0.414919 -0.15533
C_ C_ 0.335607 0.887641 0.423733 0.02923
C_ C_ 0.356573 0.892461 0.474873 -0.15533
C_ C_ 0.327429 0.885807 0.514894 0.02923
C_ C_ 0.351278 0.878555 0.0666732 0.69207
C_ C_ 0.338779 0.892473 0.325983 0.69661
C_ C_ 0.308399 0.929743 0.183915 0.18167
C_ C_ 0.265079 0.953501 0.20404 -0.15533
C_ C_ 0.270317 0.994511 0.240179 0.02923
C_ C_ 0.330843 0.512826 0.259278 -0.15533
C_ C_ 0.360676 0.98925 0.226458 0.18167
C_ C_ 0.491577 0.857895 0.210818 0.18167
C_ C_ 0.0147306 0.810382 0.229427 -0.15533
C_ C_ 0.491554 0.77439 0.242515 0.02923
C_ C_ 0.441421 0.77439 0.220208 -0.15533
C_ C_ 0.417214 0.815714 0.195797 0.18167
C_ C_ 0.482948 0.952885 0.12433 0.69207
C_ C_ 0.0247802 0.490315 0.105668 0.02923
C_ C_ 0.0045315 0.541006 0.101145 -0.15533
C_ C_ 0.0362101 0.579146 0.101573 -0.15533
C_ C_ 0.088107 0.568538 0.10595 0.02923
C_ C_ 0.109352 0.518576 0.104354 -0.15533
C_ C_ 0.0785154 0.47872 0.101869 0.02923
C_ C_ 0.103176 0.92449 0.105128 0.69207
C_ C_ 0.102184 0.667401 0.118435 0.69661
C_ C_ 0.434562 0.688197 0.433886 0.18167
C_ C_ 0.474502 0.706947 0.46228 -0.15533
C_ C_ 0.468702 0.744445 0.503294 0.02923
C_ C_ 0.424833 0.76187 0.0149273 -0.15533
C_ C_ 0.376292 0.735232 0.488486 0.18167
C_ C_ 0.250071 0.704009 0.347716 0.18167
C_ C_ 0.228265 0.730088 0.302447 -0.15533
C_ C_ 0.260682 0.73845 0.264183 0.02923
C_ C_ 0.314836 0.723323 0.274541 -0.15533
C_ C_ 0.333014 0.699143 0.31917 0.18167
C_ C_ 0.259504 0.615684 0.453835 0.69207
C_ C_ 0.223444 0.619429 0.997734 0.02923
C_ C_ 0.244214 0.614818 0.0480545 -0.15533
C_ C_ 0.212273 0.610552 0.0861407 -0.15533
C_ C_ 0.159266 0.607385 0.0750318 0.02923
C_ C_ 0.140894 0.604815 0.0222102 -0.15533
C_ C_ 0.1711 0.610486 0.983654 0.02923
C_ C_ 0.143775 0.6111 0.427146 0.69207
C_ C_ 0.148831 0.60591 0.172748 0.69661
C_ C_ 0.369295 0.884781 0.377126 -0.30787
C_ C_ 0.123177 0.610005 0.117313 -0.30787
N_ N_ 0.144718 0.549809 0.3176 -0.32189
N_ N_ 0.0494966 0.641938 0.316429 -0.32189
N_ N_ 0.106838 0.808632 0.0568392 -0.32189
N_ N_ 0.202155 0.816046 0.132399 -0.32189
N_ N_ 0.355185 0.947567 0.193945 -0.32189
N_ N_ 0.441811 0.857951 0.190553 -0.32189
N_ N_ 0.384312 0.701849 0.446781 -0.32189
N_ N_ 0.300731 0.688854 0.353893 -0.32189
O_ O_ 0.50642 0.591158 0.395654 -0.63271
O_ O_ 0.0395214 0.532996 0.33758 -0.57982
O_ O_ 0.403537 0.602945 0.351104 -0.63271
O_ O_ 0.358808 0.595532 0.417493 -0.57982
O_ O_ 0.240257 0.899938 0.0816019 -0.63271
O_ O_ 0.207583 0.838233 0.0248868 -0.57982
O_ O_ 0.350223 0.835991 0.0885058 -0.63271
O_ O_ 0.377754 0.914562 0.0900945 -0.57982
O_ O_ 0.990481 0.910291 0.0903521 -0.63271
O_ O_ 0.450673 0.959123 0.159351 -0.57982
O_ O_ 0.102566 0.899046 0.147294 -0.63271
O_ O_ 0.132667 0.906098 0.0694885 -0.57982
O_ O_ 0.254523 0.594097 0.408548 -0.63271
O_ O_ 0.289097 0.652224 0.462965 -0.57982
O_ O_ 0.151127 0.648941 0.398443 -0.63271
O_ O_ 0.109917 0.578824 0.41015 -0.57982
F_ F_ 0.429883 0.812815 0.412118 -0.20885
F_ F_ 0.414077 0.810491 0.325463 -0.20885
F_ F_ 0.358795 0.793836 0.380115 -0.20885
F_ F_ 0.301886 0.931705 0.331055 -0.20885
F_ F_ 0.311304 0.852428 0.304963 -0.20885
F_ F_ 0.369926 0.905261 0.291142 -0.20885
F_ F_ 0.0807586 0.680384 0.0720188 -0.20885
F_ F_ 0.0633307 0.677341 0.148494 -0.20885
F_ F_ 0.137833 0.700899 0.131157 -0.20885
F_ F_ 0.177344 0.56055 0.181497 -0.20885
F_ F_ 0.183394 0.640218 0.194014 -0.20885
F_ F_ 0.111216 0.611184 0.20852 -0.20885
Zn Zn 0.0866773 0.580523 0.847379 0.83971
Zn Zn 0.160648 0.841787 0.585334 0.83971
Zn Zn 0.410734 0.917633 0.649783 0.83971
Zn Zn 0.341325 0.662547 0.927042 0.83971
H_ H_ 0.166159 0.623663 0.80809 0.10394
H_ H_ 0.242103 0.593921 0.767396 0.10394
H_ H_ 0.225949 0.950859 0.797053 0.10394
H_ H_ 0.134256 0.477249 0.832502 0.10394
H_ H_ 0.522395 0.600445 0.762922 0.10394
H_ H_ 0.484071 0.666983 0.703424 0.10394
H_ H_ 0.0244336 0.763254 0.830075 0.10394
H_ H_ 0.062207 0.684692 0.874281 0.10394
H_ H_ 0.0355869 0.948407 0.862653 0.10394
H_ H_ 0.482865 0.882209 0.878598 0.10394
H_ H_ 0.356632 0.985603 0.903756 0.10394
H_ H_ 0.0812068 0.790773 0.634697 0.10394
H_ H_ 0.502273 0.764279 0.59984 0.10394
H_ H_ 0.0372162 0.783107 0.944891 0.10394
H_ H_ 0.11394 0.817667 0.484406 0.10394
H_ H_ 0.232475 0.757941 0.59834 0.10394
H_ H_ 0.272655 0.708333 0.671044 0.10394
H_ H_ 0.220708 0.835496 0.7693 0.10394
H_ H_ 0.173833 0.879421 0.690508 0.10394
H_ H_ 0.219219 0.869822 0.937876 0.10394
H_ H_ 0.272118 0.872908 0.875726 0.10394
H_ H_ 0.397551 0.901477 0.98285 0.10394
H_ H_ 0.307415 0.897316 0.658773 0.10394
H_ H_ 0.233845 0.945103 0.702649 0.10394
H_ H_ 0.32841 0.539461 0.787321 0.10394
H_ H_ 0.410793 -0.01192099999999996 0.740398 0.10394
H_ H_ 0.0112771 0.881745 0.697192 0.10394
H_ H_ 0.0514604 0.811471 0.748994 0.10394
H_ H_ 0.411242 0.752247 0.727512 0.10394
H_ H_ 0.371275 0.83156 0.689443 0.10394
H_ H_ 0.457133 0.553773 0.616613 0.10394
H_ H_ 0.0149425 0.620942 0.602848 0.10394
H_ H_ 0.141063 0.503157 0.592997 0.10394
H_ H_ 0.441592 0.672947 0.898057 0.10394
H_ H_ 0.0235454 0.679394 0.968487 0.10394
H_ H_ 0.41145 0.787396 0.540255 0.10394
H_ H_ 0.344423 0.761067 -0.004928999999999961 0.10394
H_ H_ 0.236385 0.716896 0.898099 0.10394
H_ H_ 0.19501 0.750889 0.816352 0.10394
H_ H_ 0.338746 0.713408 0.749797 0.10394
H_ H_ 0.380582 0.684428 0.831902 0.10394
H_ H_ 0.283291 0.605869 0.549205 0.10394
H_ H_ 0.234298 0.60146 0.617416 0.10394
H_ H_ 0.100867 0.591398 0.509317 0.10394
C_ C_ 0.175367 0.582506 0.802644 0.18167
C_ C_ 0.218647 0.566131 0.778906 -0.15533
C_ C_ 0.228473 0.513093 0.771926 0.02923
C_ C_ 0.214725 0.990672 0.797715 -0.15533
C_ C_ 0.156822 0.498294 0.813894 0.18167
C_ C_ 0.031455 0.627893 0.763133 0.18167
C_ C_ 0.5024 0.677659 0.741316 -0.15533
C_ C_ 0.00575771 0.72048 0.75934 0.02923
C_ C_ 0.0259038 0.726754 0.809366 -0.15533
C_ C_ 0.0483183 0.684016 0.835175 0.18167
C_ C_ 0.0106597 0.542881 0.863871 0.69207
C_ C_ 0.47475 0.00806928 0.86547 0.02923
C_ C_ 0.48855 0.956423 0.856048 -0.15533
C_ C_ 0.46319 0.917838 0.869818 -0.15533
C_ C_ 0.414727 0.926611 0.885024 0.02923
C_ C_ 0.395879 0.980021 0.893955 -0.15533
C_ C_ 0.424367 0.0201951 0.883823 0.02923
C_ C_ 0.39145 0.575949 0.886702 0.69207
C_ C_ 0.405198 0.830571 0.888649 0.69661
C_ C_ 0.0713382 0.793763 0.593438 0.18167
C_ C_ 0.0250582 0.776601 0.570976 -0.15533
C_ C_ 0.0140647 0.769555 0.517706 0.02923
C_ C_ 0.0495752 0.78337 0.987126 -0.15533
C_ C_ 0.09622 0.796394 0.508378 0.18167
C_ C_ 0.226213 0.770854 0.636762 0.18167
C_ C_ 0.250096 0.746345 0.679038 -0.15533
C_ C_ 0.244495 0.766593 0.72788 0.02923
C_ C_ 0.221595 0.816986 0.7339 -0.15533
C_ C_ 0.193022 0.840474 0.689957 0.18167
C_ C_ 0.243464 0.862557 0.547048 0.69207
C_ C_ 0.276237 0.879052 0.0012099999999999334 0.02923
C_ C_ 0.258022 0.875893 0.949926 -0.15533
C_ C_ 0.288764 0.8829 0.911863 -0.15533
C_ C_ 0.340499 0.891165 0.924384 0.02923
C_ C_ 0.35797 0.896243 0.975689 -0.15533
C_ C_ 0.328749 0.881088 0.0136333 0.02923
C_ C_ 0.353459 0.886679 0.567131 0.69207
C_ C_ 0.352017 0.882666 0.828653 0.69661
C_ C_ 0.310978 0.933386 0.679026 0.18167
C_ C_ 0.271585 0.959357 0.706065 -0.15533
C_ C_ 0.281297 0.999846 0.738865 0.02923
C_ C_ 0.322635 0.510646 0.757463 -0.15533
C_ C_ 0.370588 0.983405 0.724351 0.18167
C_ C_ 0.492356 0.852956 0.692416 0.18167
C_ C_ 0.0136964 0.809442 0.731929 -0.15533
C_ C_ 0.487993 0.771008 0.728389 0.02923
C_ C_ 0.434954 0.779605 0.718144 -0.15533
C_ C_ 0.411509 0.823323 0.692218 0.18167
C_ C_ 0.488112 0.959383 0.618544 0.69207
C_ C_ 0.020447 0.493534 0.61932 0.02923
C_ C_ 1.00107 0.542289 0.605677 -0.15533
C_ C_ 0.0334796 0.581324 0.607777 -0.15533
C_ C_ 0.08711 0.567878 0.605764 0.02923
C_ C_ 0.104355 0.515921 0.603722 -0.15533
C_ C_ 0.0730566 0.479683 0.616669 0.02923
C_ C_ 0.0937355 0.916863 0.606416 0.69207
C_ C_ 0.103259 0.661808 0.615746 0.69661
C_ C_ 0.437122 0.691886 0.933152 0.18167
C_ C_ 0.480065 0.712887 0.95701 -0.15533
C_ C_ 0.474659 0.749519 -0.0007719999999999949 0.02923
C_ C_ 0.419548 0.756971 0.515229 -0.15533
C_ C_ 0.383004 0.743208 0.986425 0.18167
C_ C_ 0.258889 0.714411 0.863906 0.18167
C_ C_ 0.236156 0.73762 0.819991 -0.15533
C_ C_ 0.264678 0.736676 0.777103 0.02923
C_ C_ 0.316943 0.719074 0.783094 -0.15533
C_ C_ 0.3391 0.696133 0.82697 0.18167
C_ C_ 0.257549 0.637904 0.961577 0.69207
C_ C_ 0.223131 0.60801 0.490131 0.02923
C_ C_ 0.243883 0.602489 0.539162 -0.15533
C_ C_ 0.214771 0.59876 0.579879 -0.15533
C_ C_ 0.162408 0.594375 0.570065 0.02923
C_ C_ 0.141482 0.595472 0.519876 -0.15533
C_ C_ 0.170087 0.605903 0.480079 0.02923
C_ C_ 0.147828 0.614326 0.930815 0.69207
C_ C_ 0.153184 0.597225 0.668165 0.69661
C_ C_ 0.378242 0.884184 0.882978 -0.30787
C_ C_ 0.126252 0.6049 0.614252 -0.30787
N_ N_ 0.142111 0.549536 0.814135 -0.32189
N_ N_ 0.0547982 0.638047 0.811745 -0.32189
N_ N_ 0.105636 0.804005 0.560931 -0.32189
N_ N_ 0.193816 0.812913 0.644282 -0.32189
N_ N_ 0.359885 0.945842 0.68891 -0.32189
N_ N_ 0.440853 0.859082 0.680102 -0.32189
N_ N_ 0.388902 0.706036 0.948042 -0.32189
N_ N_ 0.308989 0.692342 0.866386 -0.32189
O_ O_ 0.494371 0.600195 0.874321 -0.63271
O_ O_ 0.0492125 0.532588 0.836595 -0.57982
O_ O_ 0.380407 0.599496 0.844372 -0.63271
O_ O_ 0.378213 0.599315 0.929512 -0.57982
O_ O_ 0.24607 0.890252 0.59099 -0.63271
O_ O_ 0.2067 0.832639 0.539581 -0.57982
O_ O_ 0.355371 0.847415 0.595625 -0.63271
O_ O_ 0.378859 0.923939 0.585055 -0.57982
O_ O_ 0.986227 0.905142 0.597508 -0.63271
O_ O_ 0.455594 0.96694 0.653368 -0.57982
O_ O_ 0.0931853 0.891148 0.647011 -0.63271
O_ O_ 0.126833 0.901462 0.573419 -0.57982
O_ O_ 0.259534 0.616004 0.916281 -0.63271
O_ O_ 0.296564 0.664693 0.978329 -0.57982
O_ O_ 0.149378 0.654327 0.903552 -0.63271
O_ O_ 0.115689 0.579808 0.913777 -0.57982
F_ F_ 0.440251 0.829625 0.934668 -0.20885
F_ F_ 0.433648 0.810797 0.850487 -0.20885
F_ F_ 0.37196 0.794133 0.891126 -0.20885
F_ F_ 0.316671 0.925397 0.820154 -0.20885
F_ F_ 0.322038 0.843965 0.816768 -0.20885
F_ F_ 0.384361 0.881788 0.791595 -0.20885
F_ F_ 0.075929 0.678498 0.570912 -0.20885
F_ F_ 0.0710135 0.674125 0.651966 -0.20885
F_ F_ 0.143292 0.692953 0.628451 -0.20885
F_ F_ 0.178161 0.549599 0.66925 -0.20885
F_ F_ 0.188791 0.630786 0.688554 -0.20885
F_ F_ 0.118524 0.601378 0.703291 -0.20885
Zn Zn 0.587197 0.0824738 0.341295 0.83971
Zn Zn 0.662645 0.348708 0.0822048 0.83971
Zn Zn 0.913002 0.416266 0.151207 0.83971
Zn Zn 0.841542 0.157113 0.41369 0.83971
H_ H_ 0.673316 0.129382 0.302543 0.10394
H_ H_ 0.762893 0.0916158 0.283692 0.10394
H_ H_ 0.71001 0.446543 0.277751 0.10394
H_ H_ 0.627139 0.985758 0.315826 0.10394
H_ H_ 0.0411099 0.102137 0.241668 0.10394
H_ H_ 0.986299 0.179176 0.202499 0.10394
H_ H_ 0.522804 0.265441 0.338844 0.10394
H_ H_ 0.567402 0.184902 0.376121 0.10394
H_ H_ 0.529836 0.448763 0.362978 0.10394
H_ H_ 0.975771 0.373762 0.379029 0.10394
H_ H_ 0.854965 0.486093 0.413704 0.10394
H_ H_ 0.585221 0.293373 0.124011 0.10394
H_ H_ 0.996655 0.277492 0.0911606 0.10394
H_ H_ 0.532331 0.294066 0.446062 0.10394
H_ H_ 0.612712 0.337078 0.980467 0.10394
H_ H_ 0.712143 0.251745 0.0956116 0.10394
H_ H_ 0.763495 0.204563 0.172293 0.10394
H_ H_ 0.713371 0.333742 0.27038 0.10394
H_ H_ 0.664814 0.375441 0.196008 0.10394
H_ H_ 0.719221 0.350273 0.449727 0.10394
H_ H_ 0.775494 0.354582 0.382615 0.10394
H_ H_ 0.886525 0.416578 0.486641 0.10394
H_ H_ 0.815934 0.405404 0.153092 0.10394
H_ H_ 0.738492 0.450788 0.188489 0.10394
H_ H_ 0.844354 0.0271217 0.29499 0.10394
H_ H_ 0.91124 0.496684 0.239452 0.10394
H_ H_ 0.520298 0.370319 0.181382 0.10394
H_ H_ 0.554097 0.297492 0.228578 0.10394
H_ H_ 0.912486 0.249753 0.231446 0.10394
H_ H_ 0.87367 0.327704 0.191601 0.10394
H_ H_ 0.966843 0.054748 0.120645 0.10394
H_ H_ 0.512352 0.120241 0.125418 0.10394
H_ H_ 0.644848 0.0087241 0.100932 0.10394
H_ H_ 0.945973 0.165986 0.398345 0.10394
H_ H_ 0.506028 0.209958 0.433413 0.10394
H_ H_ 0.915218 0.287506 0.0395871 0.10394
H_ H_ 0.845455 0.223974 0.511776 0.10394
H_ H_ 0.738463 0.192148 0.380549 0.10394
H_ H_ 0.695685 0.232563 0.305894 0.10394
H_ H_ 0.841852 0.225826 0.244413 0.10394
H_ H_ 0.883452 0.191211 0.322665 0.10394
H_ H_ 0.778121 0.127216 0.0582668 0.10394
H_ H_ 0.729097 0.0941193 0.124202 0.10394
H_ H_ 0.601784 0.0841667 0.0106451 0.10394
C_ C_ 0.68252 0.0894326 0.303611 0.18167
C_ C_ 0.731186 0.0677477 0.289264 -0.15533
C_ C_ 0.739152 0.0155412 0.275064 0.02923
C_ C_ 0.701839 0.488727 0.282405 -0.15533
C_ C_ 0.658697 0.00622019 0.309844 0.18167
C_ C_ 0.524446 0.134489 0.261904 0.18167
C_ C_ 0.00395081 0.180765 0.240206 -0.15533
C_ C_ 0.504053 0.226806 0.266787 0.02923
C_ C_ 0.526184 0.229149 0.316521 -0.15533
C_ C_ 0.54665 0.183544 0.338 0.18167
C_ C_ 0.506167 0.0398452 0.363148 0.69207
C_ C_ 0.969746 0.499575 0.369037 0.02923
C_ C_ 0.988014 0.449224 0.360801 -0.15533
C_ C_ 0.957746 0.410976 0.372607 -0.15533
C_ C_ 0.9075 0.424676 0.388575 0.02923
C_ C_ 0.888886 0.475272 0.391388 -0.15533
C_ C_ 0.917867 0.513574 0.380069 0.02923
C_ C_ 0.897732 0.073218 0.385657 0.69207
C_ C_ 0.894393 0.327108 0.384323 0.69661
C_ C_ 0.571968 0.304058 0.0852486 0.18167
C_ C_ 0.528827 0.280857 0.0645931 -0.15533
C_ C_ 0.517516 0.275017 0.0124749 0.02923
C_ C_ 0.538788 0.296111 0.486608 -0.15533
C_ C_ 0.593052 0.316002 0.0024399999999999977 0.18167
C_ C_ 0.716277 0.27015 0.135504 0.18167
C_ C_ 0.744035 0.245282 0.177187 -0.15533
C_ C_ 0.742051 0.267076 0.227191 0.02923
C_ C_ 0.717671 0.317462 0.231727 -0.15533
C_ C_ 0.691651 0.341641 0.190204 0.18167
C_ C_ 0.746818 0.359982 0.0431322 0.69207
C_ C_ 0.776594 0.368967 0.511326 0.02923
C_ C_ 0.757632 0.360937 0.460338 -0.15533
C_ C_ 0.787856 0.367277 0.421589 -0.15533
C_ C_ 0.833093 0.387321 0.42903 0.02923
C_ C_ 0.852008 0.396593 0.479064 -0.15533
C_ C_ 0.826163 0.387423 0.520943 0.02923
C_ C_ 0.858091 0.376613 0.0690872 0.69207
C_ C_ 0.838794 0.388778 0.329716 0.69661
C_ C_ 0.816814 0.439123 0.175044 0.18167
C_ C_ 0.776227 0.461799 0.199438 -0.15533
C_ C_ 0.779553 0.501809 0.238454 0.02923
C_ C_ 0.832077 0.00507169 0.260507 -0.15533
C_ C_ 0.87038 0.489971 0.227111 0.18167
C_ C_ 0.993803 0.358377 0.210549 0.18167
C_ C_ 0.513708 0.302241 0.217962 -0.15533
C_ C_ 0.987458 0.275355 0.242235 0.02923
C_ C_ 0.93495 0.282349 0.229648 -0.15533
C_ C_ 0.913708 0.32488 0.201066 0.18167
C_ C_ 0.987371 0.450996 0.112363 0.69207
C_ C_ 0.518563 0.990211 0.122327 0.02923
C_ C_ 0.502974 0.0432977 0.132581 -0.15533
C_ C_ 0.533927 0.0804923 0.122578 -0.15533
C_ C_ 0.583871 0.0693265 0.110192 0.02923
C_ C_ 0.603579 0.0174528 0.109202 -0.15533
C_ C_ 0.571009 0.977742 0.112361 0.02923
C_ C_ 0.599527 0.429618 0.10795 0.69207
C_ C_ 0.593987 0.163177 0.0962158 0.69661
C_ C_ 0.940013 0.185083 0.435882 0.18167
C_ C_ 0.979827 0.210174 0.459968 -0.15533
C_ C_ 0.969764 0.246168 0.500169 0.02923
C_ C_ 0.921221 0.253448 0.0133367 -0.15533
C_ C_ 0.88159 0.223792 0.494222 0.18167
C_ C_ 0.760693 0.19949 0.349653 0.18167
C_ C_ 0.736336 0.220823 0.307156 -0.15533
C_ C_ 0.765661 0.236694 0.269509 0.02923
C_ C_ 0.819092 0.223186 0.276373 -0.15533
C_ C_ 0.841487 0.200187 0.318582 0.18167
C_ C_ 0.760487 0.128348 0.450925 0.69207
C_ C_ 0.72416 0.105712 0.993268 0.02923
C_ C_ 0.73979 0.115424 0.0464891 -0.15533
C_ C_ 0.710933 0.101381 0.0844163 -0.15533
C_ C_ 0.659541 0.0962414 0.0722372 0.02923
C_ C_ 0.641524 0.0880997 0.0200407 -0.15533
C_ C_ 0.67511 0.0910806 0.980756 0.02923
C_ C_ 0.647458 0.111892 0.422577 0.69207
C_ C_ 0.646678 0.116383 0.167395 0.69661
C_ C_ 0.869303 0.384668 0.385235 -0.30787
C_ C_ 0.620113 0.111922 0.111304 -0.30787
N_ N_ 0.648191 0.0576777 0.311701 -0.32189
N_ N_ 0.549343 0.138621 0.309557 -0.32189
N_ N_ 0.605218 0.317866 0.0538681 -0.32189
N_ N_ 0.691655 0.317357 0.142613 -0.32189
N_ N_ 0.862698 0.457197 0.186132 -0.32189
N_ N_ 0.942099 0.363135 0.195166 -0.32189
N_ N_ 0.891043 0.193193 0.451773 -0.32189
N_ N_ 0.813016 0.190043 0.356053 -0.32189
O_ O_ 0.00107995 0.0883875 0.385122 -0.63271
O_ O_ 0.548423 0.0325303 0.336999 -0.57982
O_ O_ 0.891817 0.0976201 0.343026 -0.63271
O_ O_ 0.868029 0.0893876 0.419834 -0.57982
O_ O_ 0.750668 0.388982 0.0857107 -0.63271
O_ O_ 0.705812 0.337714 0.0314398 -0.57982
O_ O_ 0.859166 0.339086 0.100332 -0.63271
O_ O_ 0.883379 0.414885 0.0850268 -0.57982
O_ O_ 0.480445 0.425565 0.0965576 -0.63271
O_ O_ 0.958063 0.460663 0.149035 -0.57982
O_ O_ 0.591727 0.398613 0.144089 -0.63271
O_ O_ 0.635953 0.414163 0.0769262 -0.57982
O_ O_ 0.76099 0.098269 0.409127 -0.63271
O_ O_ 0.794704 0.161614 0.458775 -0.57982
O_ O_ 0.652989 0.150002 0.395479 -0.63271
O_ O_ 0.609208 0.08502 0.409089 -0.57982
F_ F_ 0.932664 0.322569 0.424139 -0.20885
F_ F_ 0.917097 0.314807 0.340026 -0.20885
F_ F_ 0.861301 0.287883 0.387832 -0.20885
F_ F_ 0.805699 0.430931 0.331195 -0.20885
F_ F_ 0.814992 0.347919 0.310861 -0.20885
F_ F_ 0.870388 0.396961 0.292139 -0.20885
F_ F_ 0.559987 0.16025 0.0540263 -0.20885
F_ F_ 0.56417 0.186109 0.13486 -0.20885
F_ F_ 0.628644 0.19796 0.0897445 -0.20885
F_ F_ 0.673989 0.0706504 0.181812 -0.20885
F_ F_ 0.680861 0.153897 0.176079 -0.20885
F_ F_ 0.61174 0.131619 0.205616 -0.20885
Zn Zn 0.593091 0.0803633 0.847762 0.83971
Zn Zn 0.653243 0.349487 0.59064 0.83971
Zn Zn 0.905994 0.418331 0.656135 0.83971
Zn Zn 0.837252 0.150655 0.918427 0.83971
H_ H_ 0.678033 0.129392 0.806893 0.10394
H_ H_ 0.753523 0.0906306 0.765667 0.10394
H_ H_ 0.725538 0.458559 0.805522 0.10394
H_ H_ 0.64112 0.978998 0.825188 0.10394
H_ H_ 0.0426863 0.101861 0.745702 0.10394
H_ H_ 0.996231 0.169384 0.696618 0.10394
H_ H_ 0.5377 0.270572 0.833003 0.10394
H_ H_ 0.579653 0.194691 0.877756 0.10394
H_ H_ 0.525897 0.456091 0.847575 0.10394
H_ H_ 0.987132 0.378918 0.883338 0.10394
H_ H_ 0.851627 0.483675 0.896496 0.10394
H_ H_ 0.562726 0.31631 0.631192 0.10394
H_ H_ -0.00197915 0.269226 0.600816 0.10394
H_ H_ 0.533793 0.294434 0.941429 0.10394
H_ H_ 0.614828 0.319985 0.486742 0.10394
H_ H_ 0.714623 0.244538 0.60027 0.10394
H_ H_ 0.754895 0.19887 0.67378 0.10394
H_ H_ 0.715736 0.332771 0.771616 0.10394
H_ H_ 0.677686 0.376434 0.694826 0.10394
H_ H_ 0.719601 0.371686 0.942804 0.10394
H_ H_ 0.770808 0.377034 0.872753 0.10394
H_ H_ 0.902457 0.380651 0.984496 0.10394
H_ H_ 0.807059 0.404489 0.669358 0.10394
H_ H_ 0.73719 0.446202 0.717786 0.10394
H_ H_ 0.834592 0.0431075 0.768055 0.10394
H_ H_ 0.908269 0.50361 0.741678 0.10394
H_ H_ 0.5164 0.377818 0.687857 0.10394
H_ H_ 0.559156 0.302448 0.727161 0.10394
H_ H_ 0.912946 0.246649 0.729717 0.10394
H_ H_ 0.8698 0.32806 0.696571 0.10394
H_ H_ 0.961622 0.0464611 0.605729 0.10394
H_ H_ 0.511066 0.12651 0.606922 0.10394
H_ H_ 0.645923 0.0166325 0.59431 0.10394
H_ H_ 0.937282 0.161334 0.894497 0.10394
H_ H_ 0.519661 0.198316 0.937954 0.10394
H_ H_ 0.914566 0.275285 0.554819 0.10394
H_ H_ 0.839824 0.237428 0.00282586 0.10394
H_ H_ 0.734597 0.192169 0.888481 0.10394
H_ H_ 0.690991 0.231582 0.814974 0.10394
H_ H_ 0.832512 0.213277 0.748071 0.10394
H_ H_ 0.871591 0.170707 0.823309 0.10394
H_ H_ 0.777665 0.132797 0.55333 0.10394
H_ H_ 0.72111 0.143709 0.617614 0.10394
H_ H_ 0.598035 0.111217 0.504635 0.10394
C_ C_ 0.685671 0.0881062 0.799378 0.18167
C_ C_ 0.730445 0.0661409 0.779162 -0.15533
C_ C_ 0.742079 0.0136391 0.774031 0.02923
C_ C_ 0.712295 0.498427 0.80239 -0.15533
C_ C_ 0.664545 0.00450167 0.810931 0.18167
C_ C_ 0.533769 0.136151 0.772652 0.18167
C_ C_ 0.0130023 0.177738 0.736749 -0.15533
C_ C_ 0.515714 0.224924 0.765549 0.02923
C_ C_ 0.537114 0.231531 0.814473 -0.15533
C_ C_ 0.56156 0.190791 0.839632 0.18167
C_ C_ 0.508983 0.0473831 0.857203 0.69207
C_ C_ 0.972101 0.503673 0.86703 0.02923
C_ C_ 0.991341 0.451938 0.863343 -0.15533
C_ C_ 0.965694 0.413477 0.877297 -0.15533
C_ C_ 0.913241 0.423108 0.886738 0.02923
C_ C_ 0.891309 0.475107 0.889147 -0.15533
C_ C_ 0.92311 0.515855 0.883921 0.02923
C_ C_ 0.897912 0.0708987 0.891052 0.69207
C_ C_ 0.906937 0.32566 0.872244 0.69661
C_ C_ 0.555401 0.309812 0.589884 0.18167
C_ C_ 0.509937 0.291079 0.568497 -0.15533
C_ C_ 0.501599 0.279773 0.515734 0.02923
C_ C_ 0.547994 0.2944 0.98061 -0.15533
C_ C_ 0.586002 0.309816 0.508886 0.18167
C_ C_ 0.714917 0.264103 0.63695 0.18167
C_ C_ 0.737931 0.237633 0.679522 -0.15533
C_ C_ 0.73743 0.261592 0.730021 0.02923
C_ C_ 0.715985 0.311359 0.735168 -0.15533
C_ C_ 0.695291 0.336274 0.69241 0.18167
C_ C_ 0.741826 0.363521 0.552436 0.69207
C_ C_ 0.779156 0.369804 1.00442961 0.02923
C_ C_ 0.758621 0.376986 0.953861 -0.15533
C_ C_ 0.788961 0.383538 0.91358 -0.15533
C_ C_ 0.841171 0.38302 0.922543 0.02923
C_ C_ 0.861873 0.380195 0.974453 -0.15533
C_ C_ 0.831728 0.37301 0.0154423 0.02923
C_ C_ 0.854664 0.387716 0.572909 0.69207
C_ C_ 0.85072 0.383177 0.820439 0.69661
C_ C_ 0.812742 0.436682 0.692179 0.18167
C_ C_ 0.771363 0.466394 0.712081 -0.15533
C_ C_ 0.781195 0.507846 0.746845 0.02923
C_ C_ 0.830716 0.0110819 0.743181 -0.15533
C_ C_ 0.870939 0.491141 0.735552 0.18167
C_ C_ 0.989735 0.35442 0.700408 0.18167
C_ C_ 0.517954 0.307019 0.720698 -0.15533
C_ C_ 0.984444 0.270766 0.730496 0.02923
C_ C_ 0.932406 0.275854 0.718751 -0.15533
C_ C_ 0.90954 0.320041 0.696642 0.18167
C_ C_ 0.985291 0.455387 0.62706 0.69207
C_ C_ 0.523133 0.997302 0.611055 0.02923
C_ C_ 0.5021 0.0498139 0.605398 -0.15533
C_ C_ 0.532396 0.0884459 0.605596 -0.15533
C_ C_ 0.585387 0.0787679 0.601262 0.02923
C_ C_ 0.6062 0.0268482 0.598503 -0.15533
C_ C_ 0.575585 0.986068 0.607264 0.02923
C_ C_ 0.596566 0.428605 0.619029 0.69207
C_ C_ 0.594317 0.178122 0.605522 0.69661
C_ C_ 0.933371 0.183736 0.932474 0.18167
C_ C_ 0.976139 0.203421 0.960887 -0.15533
C_ C_ 0.970853 0.242988 -0.003955000000000042 0.02923
C_ C_ 0.923588 0.24959 0.521161 -0.15533
C_ C_ 0.878573 0.229663 0.98903 0.18167
C_ C_ 0.755258 0.198968 0.856509 0.18167
C_ C_ 0.732466 0.22635 0.816082 -0.15533
C_ C_ 0.759578 0.232444 0.774153 0.02923
C_ C_ 0.810181 0.212377 0.776912 -0.15533
C_ C_ 0.833301 0.187325 0.821304 0.18167
C_ C_ 0.760983 0.113415 0.953263 0.69207
C_ C_ 0.722594 0.123105 0.488825 0.02923
C_ C_ 0.738723 0.132151 0.541388 -0.15533
C_ C_ 0.705966 0.133028 0.578703 -0.15533
C_ C_ 0.655282 0.121352 0.566664 0.02923
C_ C_ 0.637083 0.113042 0.515835 -0.15533
C_ C_ 0.668839 0.116323 0.476188 0.02923
C_ C_ 0.651876 0.0918756 0.927333 0.69207
C_ C_ 0.645856 0.114797 0.661236 0.69661
C_ C_ 0.876797 0.380683 0.876357 -0.30787
C_ C_ 0.61975 0.122104 0.605922 -0.30787
N_ N_ 0.652391 0.0563212 0.813491 -0.32189
N_ N_ 0.562232 0.142374 0.817254 -0.32189
N_ N_ 0.593665 0.318375 0.560645 -0.32189
N_ N_ 0.692695 0.313058 0.644291 -0.32189
N_ N_ 0.860384 0.452699 0.700567 -0.32189
N_ N_ 0.938213 0.358055 0.687179 -0.32189
N_ N_ 0.885634 0.197261 0.947509 -0.32189
N_ N_ 0.80538 0.183898 0.860451 -0.32189
O_ O_ 0.00229577 0.0976347 0.890268 -0.63271
O_ O_ 0.546727 0.0363527 0.828282 -0.57982
O_ O_ 0.891559 0.0895958 0.846626 -0.63271
O_ O_ 0.872695 0.0905055 0.92941 -0.57982
O_ O_ 0.752019 0.384892 0.599175 -0.63271
O_ O_ 0.698232 0.344443 0.542128 -0.57982
O_ O_ 0.858719 0.346523 0.599083 -0.63271
O_ O_ 0.878534 0.426726 0.589693 -0.57982
O_ O_ 0.487504 0.411601 0.604545 -0.63271
O_ O_ 0.949639 0.466176 0.657697 -0.57982
O_ O_ 0.590291 0.404759 0.659572 -0.63271
O_ O_ 0.637773 0.416434 0.596665 -0.57982
O_ O_ 0.758863 0.0881323 0.908519 -0.63271
O_ O_ 0.792908 0.147239 0.962518 -0.57982
O_ O_ 0.656294 0.128307 0.897667 -0.63271
O_ O_ 0.614101 0.0650012 0.91462 -0.57982
F_ F_ 0.940224 0.320872 0.915883 -0.20885
F_ F_ 0.935956 0.317315 0.830282 -0.20885
F_ F_ 0.875348 0.287929 0.8728 -0.20885
F_ F_ 0.817544 0.424515 0.817271 -0.20885
F_ F_ 0.827907 0.339989 0.804773 -0.20885
F_ F_ 0.889081 0.388948 0.789996 -0.20885
F_ F_ 0.56125 0.186086 0.560101 -0.20885
F_ F_ 0.56816 0.192982 0.648537 -0.20885
F_ F_ 0.626866 0.217559 0.608352 -0.20885
F_ F_ 0.685349 0.0777499 0.663025 -0.20885
F_ F_ 0.666485 0.158706 0.682631 -0.20885
F_ F_ 0.613465 0.104979 0.694802 -0.20885
Zn Zn 0.583547 0.58049 0.339966 0.83971
Zn Zn 0.664828 0.852641 0.0818979 0.83971
Zn Zn 0.910124 0.915201 0.152548 0.83971
Zn Zn 0.841563 0.65325 0.415277 0.83971
H_ H_ 0.665911 0.631537 0.302557 0.10394
H_ H_ 0.749878 0.601384 0.272828 0.10394
H_ H_ 0.7106 0.941996 0.286735 0.10394
H_ H_ 0.627879 0.479621 0.306326 0.10394
H_ H_ 0.0200728 0.602849 0.245987 0.10394
H_ H_ 0.987362 0.684354 0.207383 0.10394
H_ H_ 0.547354 0.7658 0.337112 0.10394
H_ H_ 0.56823 0.685552 0.385033 0.10394
H_ H_ 0.521654 0.939775 0.343372 0.10394
H_ H_ 0.973832 0.880865 0.379505 0.10394
H_ H_ 0.852784 0.990487 0.401129 0.10394
H_ H_ 0.582133 0.809157 0.135597 0.10394
H_ H_ 0.999027 0.774546 0.0993053 0.10394
H_ H_ 0.525374 0.806417 0.448519 0.10394
H_ H_ 0.624636 0.819531 0.985452 0.10394
H_ H_ 0.723764 0.761859 0.0901045 0.10394
H_ H_ 0.750439 0.698388 0.160498 0.10394
H_ H_ 0.715888 0.824924 0.270045 0.10394
H_ H_ 0.676384 0.878222 0.196515 0.10394
H_ H_ 0.716361 0.863216 0.442659 0.10394
H_ H_ 0.762252 0.885744 0.377435 0.10394
H_ H_ 0.885957 0.919952 0.492511 0.10394
H_ H_ 0.80162 0.908762 0.149402 0.10394
H_ H_ 0.732743 0.952345 0.190244 0.10394
H_ H_ 0.834374 0.552986 0.274467 0.10394
H_ H_ 0.9124 0.982887 0.243549 0.10394
H_ H_ 0.511317 0.890339 0.205233 0.10394
H_ H_ 0.55415 0.821787 0.258184 0.10394
H_ H_ 0.904761 0.762457 0.250541 0.10394
H_ H_ 0.869374 0.827099 0.19195 0.10394
H_ H_ 0.964557 0.550538 0.100546 0.10394
H_ H_ 0.517578 0.622737 0.110563 0.10394
H_ H_ 0.647668 0.512225 0.0984537 0.10394
H_ H_ 0.943708 0.653606 0.397798 0.10394
H_ H_ 0.511917 0.696972 0.449496 0.10394
H_ H_ 0.912532 0.789556 0.0338617 0.10394
H_ H_ 0.841467 0.739863 0.488446 0.10394
H_ H_ 0.735769 0.694825 0.381066 0.10394
H_ H_ 0.69653 0.739246 0.309269 0.10394
H_ H_ 0.832989 0.706264 0.234187 0.10394
H_ H_ 0.879892 0.678708 0.318826 0.10394
H_ H_ 0.784995 0.62696 0.0450824 0.10394
H_ H_ 0.737966 0.617941 0.120411 0.10394
H_ H_ 0.607144 0.582803 0.0113329 0.10394
C_ C_ 0.676927 0.591971 0.298219 0.18167
C_ C_ 0.726117 0.573335 0.283551 -0.15533
C_ C_ 0.736111 0.521822 0.269472 0.02923
C_ C_ 0.703385 0.983429 0.290188 -0.15533
C_ C_ 0.653155 0.506767 0.294636 0.18167
C_ C_ 0.525955 0.634653 0.26936 0.18167
C_ C_ -0.000771268 0.684581 0.247684 -0.15533
C_ C_ 0.518472 0.72649 0.265759 0.02923
C_ C_ 0.538123 0.728924 0.318943 -0.15533
C_ C_ 0.549652 0.683753 0.345965 0.18167
C_ C_ 0.503598 0.548654 0.3674 0.69207
C_ C_ 0.969816 0.00594702 0.367343 0.02923
C_ C_ -0.011445000000000038 0.955453 0.367862 -0.15533
C_ C_ 0.958449 0.917332 0.378156 -0.15533
C_ C_ 0.909993 0.92963 0.39242 0.02923
C_ C_ 0.891346 0.980968 0.39481 -0.15533
C_ C_ 0.920923 0.0209452 0.385044 0.02923
C_ C_ 0.894469 0.567453 0.380273 0.69207
C_ C_ 0.893922 0.834195 0.396643 0.69661
C_ C_ 0.572442 0.807176 0.0920211 0.18167
C_ C_ 0.531601 0.780329 0.0727339 -0.15533
C_ C_ 0.519377 0.77655 0.0194408 0.02923
C_ C_ 0.541579 0.79688 0.487979 -0.15533
C_ C_ 0.595505 0.81338 0.00908636 0.18167
C_ C_ 0.72276 0.773061 0.129342 0.18167
C_ C_ 0.74098 0.740501 0.170197 -0.15533
C_ C_ 0.738961 0.758355 0.220369 0.02923
C_ C_ 0.716797 0.80845 0.230021 -0.15533
C_ C_ 0.691999 0.838389 0.189235 0.18167
C_ C_ 0.747285 0.871589 0.0454016 0.69207
C_ C_ 0.771974 0.877611 0.506347 0.02923
C_ C_ 0.754796 0.872944 0.454247 -0.15533
C_ C_ 0.78122 0.889287 0.415997 -0.15533
C_ C_ 0.830903 0.902285 0.429023 0.02923
C_ C_ 0.851159 0.902449 0.480227 -0.15533
C_ C_ 0.822676 0.888786 0.519569 0.02923
C_ C_ 0.860862 0.882255 0.0668949 0.69207
C_ C_ 0.844173 0.885958 0.331575 0.69661
C_ C_ 0.810742 0.93551 0.17958 0.18167
C_ C_ 0.770824 0.963534 0.203503 -0.15533
C_ C_ 0.78072 0.996764 0.245998 0.02923
C_ C_ 0.829009 0.517357 0.251883 -0.15533
C_ C_ 0.872964 0.977418 0.234281 0.18167
C_ C_ 0.992269 0.849654 0.198671 0.18167
C_ C_ 0.516994 0.816717 0.238668 -0.15533
C_ C_ 0.983929 0.779537 0.250281 0.02923
C_ C_ 0.930438 0.787268 0.237568 -0.15533
C_ C_ 0.910192 0.821648 0.203119 0.18167
C_ C_ 0.988141 0.953033 0.119251 0.69207
C_ C_ 0.525363 0.496019 0.125121 0.02923
C_ C_ 0.507578 0.54761 0.131086 -0.15533
C_ C_ 0.537323 0.585695 0.119546 -0.15533
C_ C_ 0.588141 0.574421 0.106001 0.02923
C_ C_ 0.608494 0.521738 0.107134 -0.15533
C_ C_ 0.577304 0.48334 0.111758 0.02923
C_ C_ 0.594605 0.924098 0.107524 0.69207
C_ C_ 0.600213 0.671249 0.112935 0.69661
C_ C_ 0.937364 0.680453 0.430053 0.18167
C_ C_ 0.979663 0.700114 0.458048 -0.15533
C_ C_ 0.970439 0.739741 0.49639 0.02923
C_ C_ 0.921504 0.756026 1.0103638 -0.15533
C_ C_ 0.880674 0.731125 0.480697 0.18167
C_ C_ 0.757476 0.695818 0.349193 0.18167
C_ C_ 0.73315 0.716125 0.305178 -0.15533
C_ C_ 0.761096 0.724777 0.263778 0.02923
C_ C_ 0.814007 0.707304 0.265828 -0.15533
C_ C_ 0.838114 0.687466 0.31245 0.18167
C_ C_ 0.760663 0.624392 0.452732 0.69207
C_ C_ 0.722571 0.616683 0.991177 0.02923
C_ C_ 0.7452 0.618714 0.0407543 -0.15533
C_ C_ 0.715944 0.617115 0.0815121 -0.15533
C_ C_ 0.663371 0.605884 0.0709151 0.02923
C_ C_ 0.642074 0.602192 0.0196532 -0.15533
C_ C_ 0.671601 0.607667 0.980608 0.02923
C_ C_ 0.650473 0.602507 0.420661 0.69207
C_ C_ 0.655077 0.607752 0.167813 0.69661
C_ C_ 0.870204 0.89031 0.388567 -0.30787
C_ C_ 0.626125 0.615544 0.112923 -0.30787
N_ N_ 0.642092 0.558213 0.303235 -0.32189
N_ N_ 0.548264 0.639405 0.316945 -0.32189
N_ N_ 0.605563 0.821315 0.0594939 -0.32189
N_ N_ 0.694344 0.818311 0.140782 -0.32189
N_ N_ 0.859575 0.943956 0.193342 -0.32189
N_ N_ 0.941404 0.854169 0.183497 -0.32189
N_ N_ 0.890394 0.69557 0.442708 -0.32189
N_ N_ 0.807589 0.677884 0.350712 -0.32189
O_ O_ 0.009077 0.57118 0.410126 -0.63271
O_ O_ 0.538888 0.534036 0.336554 -0.57982
O_ O_ 0.900429 0.596492 0.34214 -0.63271
O_ O_ 0.874054 0.589405 0.418785 -0.57982
O_ O_ 0.746919 0.910403 0.0805935 -0.63271
O_ O_ 0.709209 0.841815 0.0397948 -0.57982
O_ O_ 0.856647 0.842783 0.0947598 -0.63271
O_ O_ 0.878593 0.922194 0.0902753 -0.57982
O_ O_ 0.491851 0.908074 0.0994773 -0.63271
O_ O_ 0.957038 0.95988 0.155809 -0.57982
O_ O_ 0.597791 0.896221 0.149216 -0.63271
O_ O_ 0.629693 0.914085 0.0782901 -0.57982
O_ O_ 0.755761 0.601163 0.406334 -0.63271
O_ O_ 0.795908 0.656556 0.461952 -0.57982
O_ O_ 0.650495 0.641639 0.394295 -0.63271
O_ O_ 0.623834 0.56893 0.40067 -0.57982
F_ F_ 0.927868 0.832361 0.439905 -0.20885
F_ F_ 0.923314 0.812666 0.356011 -0.20885
F_ F_ 0.856232 0.802497 0.400628 -0.20885
F_ F_ 0.810426 0.928675 0.31936 -0.20885
F_ F_ 0.812645 0.845052 0.324451 -0.20885
F_ F_ 0.876856 0.876297 0.29614 -0.20885
F_ F_ 0.566849 0.681906 0.0697991 -0.20885
F_ F_ 0.569895 0.684164 0.152746 -0.20885
F_ F_ 0.636862 0.704587 0.116323 -0.20885
F_ F_ 0.68789 0.565636 0.172801 -0.20885
F_ F_ 0.682489 0.64834 0.191693 -0.20885
F_ F_ 0.620897 0.605019 0.205918 -0.20885
Zn Zn 0.592031 0.589453 0.847823 0.83971
Zn Zn 0.656116 0.850215 0.58788 0.83971
Zn Zn 0.911209 0.913024 0.651585 0.83971
Zn Zn 0.841822 0.653251 0.916216 0.83971
H_ H_ 0.664156 0.642974 0.795251 0.10394
H_ H_ 0.745097 0.60698 0.754544 0.10394
H_ H_ 0.723136 0.945832 0.805274 0.10394
H_ H_ 0.644914 0.49827 0.843867 0.10394
H_ H_ 0.0327702 0.590048 0.749151 0.10394
H_ H_ 0.994747 0.666397 0.69777 0.10394
H_ H_ 0.542048 0.777604 0.819072 0.10394
H_ H_ 0.582458 0.706909 0.872449 0.10394
H_ H_ 0.526195 0.947485 0.846051 0.10394
H_ H_ 0.99047 0.878474 0.878919 0.10394
H_ H_ 0.861822 0.986433 0.91082 0.10394
H_ H_ 0.58285 0.79332 0.631223 0.10394
H_ H_ -0.00320186 0.773694 0.596375 0.10394
H_ H_ 0.547553 0.786646 0.947292 0.10394
H_ H_ 0.603656 0.842558 0.488237 0.10394
H_ H_ 0.707452 0.749325 0.594808 0.10394
H_ H_ 0.747219 0.698947 0.663751 0.10394
H_ H_ 0.73092 0.832983 0.765079 0.10394
H_ H_ 0.685661 0.8793 0.695072 0.10394
H_ H_ 0.730646 0.84814 0.946819 0.10394
H_ H_ 0.782059 0.852954 0.873975 0.10394
H_ H_ 0.899422 0.915639 0.988463 0.10394
H_ H_ 0.811664 0.888752 0.658791 0.10394
H_ H_ 0.734593 0.938814 0.693855 0.10394
H_ H_ 0.837794 0.550969 0.784117 0.10394
H_ H_ 0.908256 1.00387 0.726137 0.10394
H_ H_ 0.513028 0.886142 0.694809 0.10394
H_ H_ 0.55795 0.80419 0.722121 0.10394
H_ H_ 0.913319 0.734467 0.705261 0.10394
H_ H_ 0.869696 0.819131 0.67337 0.10394
H_ H_ 0.959418 0.550773 0.601507 0.10394
H_ H_ 0.511204 0.62298 0.604286 0.10394
H_ H_ 0.638957 0.508529 0.590088 0.10394
H_ H_ 0.952662 0.65281 0.903688 0.10394
H_ H_ 0.519808 0.700332 0.94625 0.10394
H_ H_ 0.914872 0.770782 0.546163 0.10394
H_ H_ 0.841836 0.741634 0.985199 0.10394
H_ H_ 0.728888 0.683869 0.872364 0.10394
H_ H_ 0.695241 0.731582 0.796162 0.10394
H_ H_ 0.844431 0.726315 0.752484 0.10394
H_ H_ 0.88195 0.683644 0.83273 0.10394
H_ H_ 0.775216 0.638861 0.555978 0.10394
H_ H_ 0.727864 0.607386 0.617118 0.10394
H_ H_ 0.600913 0.590216 0.505264 0.10394
C_ C_ 0.678121 0.601428 0.79692 0.18167
C_ C_ 0.723686 0.583576 0.776052 -0.15533
C_ C_ 0.740327 0.531312 0.778461 0.02923
C_ C_ 0.712389 0.98423 0.798562 -0.15533
C_ C_ 0.666253 0.518437 0.820379 0.18167
C_ C_ 0.5276 0.639157 0.771929 0.18167
C_ C_ 0.00378731 0.669891 0.738779 -0.15533
C_ C_ 0.511022 0.726684 0.757402 0.02923
C_ C_ 0.535727 0.738713 0.80716 -0.15533
C_ C_ 0.56033 0.698695 0.835635 0.18167
C_ C_ 0.506337 0.552781 0.861275 0.69207
C_ C_ 0.978644 0.0104349 0.879774 0.02923
C_ C_ -0.0028766 0.959392 0.872833 -0.15533
C_ C_ 0.971286 0.917995 0.882034 -0.15533
C_ C_ 0.920599 0.92665 0.889301 0.02923
C_ C_ 0.898935 0.978695 0.901214 -0.15533
C_ C_ 0.9274 0.0198359 0.89582 0.02923
C_ C_ 0.89654 0.568802 0.884318 0.69207
C_ C_ 0.915426 0.82741 0.883611 0.69661
C_ C_ 0.569702 0.797537 0.592039 0.18167
C_ C_ 0.524806 0.777258 0.572502 -0.15533
C_ C_ 0.509599 0.778312 0.521313 0.02923
C_ C_ 0.55067 0.795555 0.987692 -0.15533
C_ C_ 0.584396 0.820611 0.511242 0.18167
C_ C_ 0.714806 0.768024 0.630942 0.18167
C_ C_ 0.742743 0.740041 0.670544 -0.15533
C_ C_ 0.748908 0.7615 0.721229 0.02923
C_ C_ 0.730549 0.812753 0.727258 -0.15533
C_ C_ 0.702291 0.83891 0.687601 0.18167
C_ C_ 0.73532 0.871711 0.547558 0.69207
C_ C_ 0.784159 0.869317 1.0055637 0.02923
C_ C_ 0.769466 0.857493 0.953854 -0.15533
C_ C_ 0.800511 0.862527 0.913315 -0.15533
C_ C_ 0.847661 0.884496 0.925306 0.02923
C_ C_ 0.862962 0.896688 0.978095 -0.15533
C_ C_ 0.833089 0.888871 0.0171697 0.02923
C_ C_ 0.848513 0.885106 0.571118 0.69207
C_ C_ 0.864337 0.884938 0.827685 0.69661
C_ C_ 0.814986 0.922623 0.683359 0.18167
C_ C_ 0.773059 0.948139 0.706627 -0.15533
C_ C_ 0.78129 -0.007726000000000011 0.740104 0.02923
C_ C_ 0.829575 0.523532 0.754255 -0.15533
C_ C_ 0.871094 0.985454 0.720816 0.18167
C_ C_ 0.990667 0.848812 0.702622 0.18167
C_ C_ 0.517422 0.812075 0.720947 -0.15533
C_ C_ 0.984707 0.764651 0.729047 0.02923
C_ C_ 0.932824 0.768162 0.708996 -0.15533
C_ C_ 0.910427 0.814279 0.687863 0.18167
C_ C_ 0.985199 0.948267 0.622765 0.69207
C_ C_ 0.517831 0.493502 0.618994 0.02923
C_ C_ 0.498404 0.544881 0.61459 -0.15533
C_ C_ 0.529171 0.58309 0.607085 -0.15533
C_ C_ 0.5803 0.570614 0.60024 0.02923
C_ C_ 0.59843 0.52045 0.60318 -0.15533
C_ C_ 0.570802 0.4806 0.611955 0.02923
C_ C_ 0.601987 0.93361 0.612674 0.69207
C_ C_ 0.598083 0.667822 0.606311 0.69661
C_ C_ 0.944253 0.678321 0.937021 0.18167
C_ C_ 0.983619 0.69709 0.969972 -0.15533
C_ C_ 0.972219 0.740528 1.00147538 0.02923
C_ C_ 0.921826 0.747749 0.512742 -0.15533
C_ C_ 0.882309 0.73114 0.980632 0.18167
C_ C_ 0.754945 0.693043 0.84625 0.18167
C_ C_ 0.73385 0.717394 0.800476 -0.15533
C_ C_ 0.76684 0.732556 0.768118 0.02923
C_ C_ 0.819427 0.716609 0.778786 -0.15533
C_ C_ 0.838775 0.691609 0.82172 0.18167
C_ C_ 0.755936 0.620151 0.948875 0.69207
C_ C_ 0.725465 0.616203 0.491589 0.02923
C_ C_ 0.7377 0.629091 0.543017 -0.15533
C_ C_ 0.711451 0.612396 0.580614 -0.15533
C_ C_ 0.661628 0.599589 0.568544 0.02923
C_ C_ 0.641718 0.594298 0.515423 -0.15533
C_ C_ 0.673832 0.601962 0.47604 0.02923
C_ C_ 0.645583 0.613151 0.93006 0.69207
C_ C_ 0.644722 0.604604 0.663636 0.69661
C_ C_ 0.887207 0.881412 0.883849 -0.30787
C_ C_ 0.6216 0.609691 0.607628 -0.30787
N_ N_ 0.650323 0.568737 0.815329 -0.32189
N_ N_ 0.556304 0.649976 0.817167 -0.32189
N_ N_ 0.59853 0.820257 0.561307 -0.32189
N_ N_ 0.691406 0.816062 0.641208 -0.32189
N_ N_ 0.861061 0.943316 0.689303 -0.32189
N_ N_ 0.939804 0.852751 0.684599 -0.32189
N_ N_ 0.895257 0.690617 0.947133 -0.32189
N_ N_ 0.806039 0.678584 0.853745 -0.32189
O_ O_ 1.0137652 0.578048 0.901337 -0.63271
O_ O_ 0.55056 0.540084 0.843178 -0.57982
O_ O_ 0.901329 0.597066 0.846294 -0.63271
O_ O_ 0.871432 0.588726 0.922798 -0.57982
O_ O_ 0.743454 0.893603 0.593278 -0.63271
O_ O_ 0.697877 0.842348 0.53891 -0.57982
O_ O_ 0.860166 0.841559 0.591065 -0.63271
O_ O_ 0.872017 0.924012 0.593956 -0.57982
O_ O_ 0.490918 0.913576 0.593342 -0.63271
O_ O_ 0.956674 0.958202 0.660827 -0.57982
O_ O_ 0.59812 0.906354 0.652493 -0.63271
O_ O_ 0.638653 0.916964 0.583531 -0.57982
O_ O_ 0.753073 0.588579 0.907322 -0.63271
O_ O_ 0.791568 0.652497 0.955609 -0.57982
O_ O_ 0.652568 0.650792 0.901939 -0.63271
O_ O_ 0.606828 0.587924 0.915257 -0.57982
F_ F_ 0.947687 0.826632 0.927875 -0.20885
F_ F_ 0.942371 0.813989 0.843247 -0.20885
F_ F_ 0.887628 0.788537 0.885413 -0.20885
F_ F_ 0.834129 0.929727 0.823197 -0.20885
F_ F_ 0.83712 0.843673 0.811342 -0.20885
F_ F_ 0.900852 0.885546 0.795249 -0.20885
F_ F_ 0.564486 0.672923 0.563888 -0.20885
F_ F_ 0.57176 0.685624 0.646241 -0.20885
F_ F_ 0.635276 0.700247 0.599984 -0.20885
F_ F_ 0.679737 0.562878 0.6703 -0.20885
F_ F_ 0.669864 0.644578 0.683318 -0.20885
F_ F_ 0.607234 0.599684 0.695459 -0.20885
_cell_length_a 26.508
_cell_length_b 26.37200000322088
_cell_length_c 26.311999743092066
_cell_angle_alpha 93.74100058972084
_cell_angle_beta 96.04100104955006
_cell_angle_gamma 83.6869992558723
_symmetry_space_group_name_H-M         'P 1'
_symmetry_Int_Tables_number            1
loop_
_symmetry_equiv_pos_as_xyz
   'x, y, z'
                         
loop_
_atom_site_label
_atom_site_type_symbol
_atom_site_fract_x 
_atom_site_fract_y
_atom_site_fract_z
_atom_site_charge
Zn Zn 0.0847151 0.0863441 0.345671 0.83971
Zn Zn 0.1601 0.34205 0.0815609 0.83971
Zn Zn 0.414317 0.420511 0.159758 0.83971
Zn Zn 0.335135 0.151394 0.414746 0.83971
H_ H_ 0.163636 0.134424 0.293986 0.10394
H_ H_ 0.241034 0.0947983 0.258426 0.10394
H_ H_ 0.21029 0.439044 0.288942 0.10394
H_ H_ 0.131644 0.992319 0.339445 0.10394
H_ H_ 0.524719 0.0969026 0.239355 0.10394
H_ H_ 0.476234 0.175921 0.204713 0.10394
H_ H_ 0.0423736 0.268998 0.335242 0.10394
H_ H_ 0.0635714 0.188719 0.381812 0.10394
H_ H_ 0.0288226 0.441193 0.357284 0.10394
H_ H_ 0.47917 0.384286 0.381708 0.10394
H_ H_ 0.353584 0.494078 0.40877 0.10394
H_ H_ 0.0757942 0.308433 0.12469 0.10394
H_ H_ 0.509169 0.259504 0.0873653 0.10394
H_ H_ 0.0258788 0.309626 0.452983 0.10394
H_ H_ 0.124847 0.305394 0.979718 0.10394
H_ H_ 0.207049 0.249737 0.103592 0.10394
H_ H_ 0.256224 0.207293 0.177455 0.10394
H_ H_ 0.21421 0.339965 0.273369 0.10394
H_ H_ 0.180926 0.38329 0.19714 0.10394
H_ H_ 0.216906 0.365742 0.451353 0.10394
H_ H_ 0.265219 0.37871 0.381199 0.10394
H_ H_ 0.396952 0.404475 0.494377 0.10394
H_ H_ 0.310986 0.40332 0.159827 0.10394
H_ H_ 0.236505 0.447524 0.19832 0.10394
H_ H_ 0.322695 0.0424687 0.283957 0.10394
H_ H_ 0.411553 0.493713 0.247052 0.10394
H_ H_ 0.0173665 0.39227 0.213025 0.10394
H_ H_ 0.0517376 0.316713 0.253734 0.10394
H_ H_ 0.406427 0.274833 0.261155 0.10394
H_ H_ 0.372687 0.33969 0.200002 0.10394
H_ H_ 0.464738 0.0548201 0.139624 0.10394
H_ H_ 0.0177109 0.119655 0.112027 0.10394
H_ H_ 0.144625 0.0102973 0.0871429 0.10394
H_ H_ 0.43555 0.161929 0.390602 0.10394
H_ H_ 0.0150477 0.206547 0.446125 0.10394
H_ H_ 0.417571 0.274358 0.0386938 0.10394
H_ H_ 0.335861 0.22915 0.499721 0.10394
H_ H_ 0.229211 0.181934 0.374723 0.10394
H_ H_ 0.188286 0.230561 0.305944 0.10394
H_ H_ 0.334238 0.229651 0.245284 0.10394
H_ H_ 0.375629 0.182397 0.318955 0.10394
H_ H_ 0.284216 0.108255 0.0505725 0.10394
H_ H_ 0.227449 0.11742 0.117294 0.10394
H_ H_ 0.101266 0.103749 0.00336412 0.10394
C_ C_ 0.171297 0.0932568 0.294048 0.18167
C_ C_ 0.215402 0.0717615 0.273087 -0.15533
C_ C_ 0.22318 0.0176043 0.263496 0.02923
C_ C_ 0.204393 0.479496 0.295113 -0.15533
C_ C_ 0.151324 0.0124698 0.313314 0.18167
C_ C_ 0.0285737 0.136923 0.264606 0.18167
C_ C_ 0.498589 0.178262 0.241145 -0.15533
C_ C_ 0.00852834 0.227525 0.266173 0.02923
C_ C_ 0.0324571 0.232067 0.316657 -0.15533
C_ C_ 0.0479482 0.187279 0.34159 0.18167
C_ C_ 0.0060419 0.0435011 0.361568 0.69207
C_ C_ 0.470396 0.512067 0.380124 0.02923
C_ C_ 0.489718 0.459928 0.373541 -0.15533
C_ C_ 0.46208 0.421151 0.386157 -0.15533
C_ C_ 0.409437 0.432001 0.397472 0.02923
C_ C_ 0.391683 0.484383 0.400437 -0.15533
C_ C_ 0.419689 0.525035 0.390658 0.02923
C_ C_ 0.39307 0.0692911 0.385655 0.69207
C_ C_ 0.402566 0.332053 0.391131 0.69661
C_ C_ 0.0682185 0.301977 0.083458 0.18167
C_ C_ 0.0206169 0.288068 0.0624307 -0.15533
C_ C_ 0.0138617 0.272159 0.0109734 0.02923
C_ C_ 0.0364756 0.30649 0.493379 -0.15533
C_ C_ 0.0949668 0.299914 0.00154308 0.18167
C_ C_ 0.212239 0.271197 0.14046 0.18167
C_ C_ 0.235132 0.243255 0.181852 -0.15533
C_ C_ 0.238001 0.26974 0.231134 0.02923
C_ C_ 0.221806 0.322439 0.236753 -0.15533
C_ C_ 0.200513 0.346842 0.192133 0.18167
C_ C_ 0.246157 0.364756 0.0521744 0.69207
C_ C_ 0.277998 0.369439 0.512333 0.02923
C_ C_ 0.257475 0.370063 0.459126 -0.15533
C_ C_ 0.28448 0.382944 0.419954 -0.15533
C_ C_ 0.335522 0.393336 0.432458 0.02923
C_ C_ 0.355893 0.3969 0.484892 -0.15533
C_ C_ 0.328561 0.38155 0.522309 0.02923
C_ C_ 0.357978 0.390424 0.0763496 0.69207
C_ C_ 0.347039 0.387731 0.33676 0.69661
C_ C_ 0.31587 0.431001 0.189992 0.18167
C_ C_ 0.274704 0.460106 0.209142 -0.15533
C_ C_ 0.28197 0.494909 0.250045 0.02923
C_ C_ 0.318486 0.0149581 0.251085 -0.15533
C_ C_ 0.372455 0.486474 0.234708 0.18167
C_ C_ 0.493898 0.34402 0.19042 0.18167
C_ C_ 0.0169025 0.314303 0.233597 -0.15533
C_ C_ 0.482101 0.272012 0.240182 0.02923
C_ C_ 0.430531 0.287697 0.234844 -0.15533
C_ C_ 0.412876 0.326512 0.201624 0.18167
C_ C_ 0.491664 0.457568 0.133429 0.69207
C_ C_ 0.0268849 0.99102 0.112399 0.02923
C_ C_ 0.00648468 0.042809 0.11457 -0.15533
C_ C_ 0.0353728 0.0813182 0.109574 -0.15533
C_ C_ 0.0858605 0.0709749 0.0973195 0.02923
C_ C_ 0.107017 0.0189548 0.0943638 -0.15533
C_ C_ 0.0790864 0.978838 0.104149 0.02923
C_ C_ 0.101511 0.425289 0.110237 0.69207
C_ C_ 0.0954263 0.168349 0.108458 0.69661
C_ C_ 0.430307 0.183939 0.427417 0.18167
C_ C_ 0.469582 0.212261 0.451175 -0.15533
C_ C_ 0.460987 0.244875 0.49579 0.02923
C_ C_ 0.427473 0.247955 0.00943966 -0.15533
C_ C_ 0.373056 0.226222 0.485207 0.18167
C_ C_ 0.252436 0.193091 0.348959 0.18167
C_ C_ 0.22888 0.225366 0.309779 -0.15533
C_ C_ 0.260815 0.241787 0.275974 0.02923
C_ C_ 0.310962 0.223171 0.276708 -0.15533
C_ C_ 0.332877 0.192032 0.315149 0.18167
C_ C_ 0.256362 0.126664 0.452457 0.69207
C_ C_ 0.22577 0.121764 0.990627 0.02923
C_ C_ 0.244443 0.117188 0.0410837 -0.15533
C_ C_ 0.210653 0.121415 0.0783621 -0.15533
C_ C_ 0.158961 0.113408 0.0652557 0.02923
C_ C_ 0.139244 0.110858 0.0133422 -0.15533
C_ C_ 0.173967 0.114127 0.975623 0.02923
C_ C_ 0.146452 0.112524 0.426592 0.69207
C_ C_ 0.147514 0.101233 0.1626 0.69661
C_ C_ 0.375456 0.388048 0.391885 -0.30787
C_ C_ 0.122185 0.112894 0.108289 -0.30787
N_ N_ 0.138361 0.0625829 0.310763 -0.32189
N_ N_ 0.0502757 0.141445 0.315049 -0.32189
N_ N_ 0.104084 0.309599 0.0544827 -0.32189
N_ N_ 0.19572 0.321353 0.145686 -0.32189
N_ N_ 0.362033 0.446653 0.200527 -0.32189
N_ N_ 0.443498 0.358117 0.18514 -0.32189
N_ N_ 0.382627 0.192183 0.443446 -0.32189
N_ N_ 0.305452 0.181837 0.354156 -0.32189
O_ O_ 0.496776 0.0860596 0.384428 -0.63271
O_ O_ 0.0443431 0.0360988 0.335872 -0.57982
O_ O_ 0.382009 0.0938831 0.343911 -0.63271
O_ O_ 0.374725 0.0898469 0.42685 -0.57982
O_ O_ 0.242208 0.398141 0.0907937 -0.63271
O_ O_ 0.212171 0.332982 0.042422 -0.57982
O_ O_ 0.362933 0.347535 0.0992892 -0.63271
O_ O_ 0.37948 0.430299 0.0965465 -0.57982
O_ O_ 0.99806085 0.40259 0.0949603 -0.63271
O_ O_ 0.464652 0.463074 0.172402 -0.57982
O_ O_ 0.100883 0.404913 0.154217 -0.63271
O_ O_ 0.134089 0.405345 0.078808 -0.57982
O_ O_ 0.260073 0.0998599 0.408705 -0.63271
O_ O_ 0.2904 0.158281 0.462468 -0.57982
O_ O_ 0.146693 0.152678 0.399611 -0.63271
O_ O_ 0.108304 0.0846235 0.412352 -0.57982
F_ F_ 0.438977 0.328159 0.432586 -0.20885
F_ F_ 0.427285 0.317005 0.348704 -0.20885
F_ F_ 0.370574 0.295791 0.390714 -0.20885
F_ F_ 0.309584 0.428784 0.333119 -0.20885
F_ F_ 0.321064 0.343956 0.320968 -0.20885
F_ F_ 0.381093 0.390105 0.300073 -0.20885
F_ F_ 0.0638261 0.174277 0.0664091 -0.20885
F_ F_ 0.069583 0.180831 0.150803 -0.20885
F_ F_ 0.12966 0.205379 0.106971 -0.20885
F_ F_ 0.183929 0.0589481 0.158018 -0.20885
F_ F_ 0.172579 0.144246 0.18335 -0.20885
F_ F_ 0.115765 0.0940112 0.198858 -0.20885
Zn Zn 0.0943331 0.0893286 0.844351 0.83971
Zn Zn 0.160697 0.344195 0.590719 0.83971
Zn Zn 0.408628 0.415762 0.659848 0.83971
Zn Zn 0.338111 0.150803 0.914668 0.83971
H_ H_ 0.172831 0.13667 0.800928 0.10394
H_ H_ 0.243455 0.100479 0.754716 0.10394
H_ H_ 0.204641 0.437088 0.78373 0.10394
H_ H_ 0.146423 0.986525 0.83862 0.10394
H_ H_ 0.526489 0.0987264 0.755855 0.10394
H_ H_ 0.493575 0.170882 0.707325 0.10394
H_ H_ 0.032946 0.274345 0.829244 0.10394
H_ H_ 0.0727647 0.203147 0.876475 0.10394
H_ H_ 0.0293608 0.444 0.854028 0.10394
H_ H_ 0.479347 0.382996 0.863306 0.10394
H_ H_ 0.350485 0.489852 0.904437 0.10394
H_ H_ 0.0844749 0.299098 0.634702 0.10394
H_ H_ 0.479303 0.289877 0.592738 0.10394
H_ H_ 0.0423252 0.274883 0.93931 0.10394
H_ H_ 0.104892 0.342887 0.490494 0.10394
H_ H_ 0.222741 0.241672 0.603287 0.10394
H_ H_ 0.26971 0.202811 0.673699 0.10394
H_ H_ 0.229202 0.3357 0.771037 0.10394
H_ H_ 0.178886 0.375849 0.694638 0.10394
H_ H_ 0.227058 0.353127 0.952828 0.10394
H_ H_ 0.264092 0.383319 0.886616 0.10394
H_ H_ 0.399371 0.412009 0.991207 0.10394
H_ H_ 0.314142 0.388259 0.671445 0.10394
H_ H_ 0.23471 0.4342 0.695792 0.10394
H_ H_ 0.340983 0.0494236 0.766313 0.10394
H_ H_ 0.405539 0.495732 0.744219 0.10394
H_ H_ 0.0111209 0.387636 0.699643 0.10394
H_ H_ 0.0552174 0.307221 0.732751 0.10394
H_ H_ 0.414799 0.248997 0.739843 0.10394
H_ H_ 0.374838 0.32803 0.7012 0.10394
H_ H_ 0.460506 0.0614405 0.594265 0.10394
H_ H_ 0.0149173 0.112195 0.595262 0.10394
H_ H_ 0.143603 -0.004242999999999997 0.591794 0.10394
H_ H_ 0.446462 0.162256 0.889101 0.10394
H_ H_ 0.0138839 0.194375 0.947386 0.10394
H_ H_ 0.407407 0.262179 0.55079 0.10394
H_ H_ 0.351081 0.225983 0.00522718 0.10394
H_ H_ 0.236208 0.201125 0.88648 0.10394
H_ H_ 0.198526 0.24915 0.809557 0.10394
H_ H_ 0.337394 0.209067 0.743577 0.10394
H_ H_ 0.378442 0.181438 0.81973 0.10394
H_ H_ 0.287867 0.091495 0.546835 0.10394
H_ H_ 0.230203 0.0816078 0.61377 0.10394
H_ H_ 0.10089 0.0974894 0.508399 0.10394
C_ C_ 0.182174 0.0951061 0.798299 0.18167
C_ C_ 0.226879 0.0756527 0.776838 -0.15533
C_ C_ 0.240873 0.0229761 0.772507 0.02923
C_ C_ 0.198037 0.478657 0.790003 -0.15533
C_ C_ 0.168505 0.011344 0.820631 0.18167
C_ C_ 0.0358386 0.137611 0.765777 0.18167
C_ C_ 0.511001 0.176038 0.7459 -0.15533
C_ C_ 0.0101759 0.228517 0.758494 0.02923
C_ C_ 0.0350725 0.237099 0.809032 -0.15533
C_ C_ 0.0577368 0.195335 0.836508 0.18167
C_ C_ 0.012886 0.0509113 0.871452 0.69207
C_ C_ 0.46963 0.513936 0.869565 0.02923
C_ C_ 0.489741 0.463625 0.862401 -0.15533
C_ C_ 0.460957 0.42227 0.870184 -0.15533
C_ C_ 0.410371 0.430626 0.882772 0.02923
C_ C_ 0.390272 0.481662 0.890115 -0.15533
C_ C_ 0.418771 0.522933 0.883845 0.02923
C_ C_ 0.398884 0.0722244 0.882763 0.69207
C_ C_ 0.402872 0.3314 0.893889 0.69661
C_ C_ 0.0685152 0.302494 0.596174 0.18167
C_ C_ 0.0225602 0.282186 0.576766 -0.15533
C_ C_ 0.0116932 0.276632 0.523669 0.02923
C_ C_ 0.0485421 0.285599 0.979899 -0.15533
C_ C_ 0.0795741 0.329378 0.515007 0.18167
C_ C_ 0.223943 0.26373 0.639433 0.18167
C_ C_ 0.246161 0.239171 0.680831 -0.15533
C_ C_ 0.243145 0.262987 0.728881 0.02923
C_ C_ 0.226209 0.315618 0.733671 -0.15533
C_ C_ 0.20139 0.338511 0.690157 0.18167
C_ C_ 0.242436 0.367839 0.551634 0.69207
C_ C_ 0.283247 0.370701 0.0135014 0.02923
C_ C_ 0.263993 0.363739 0.960427 -0.15533
C_ C_ 0.289044 0.378181 0.921204 -0.15533
C_ C_ 0.33944 0.395469 0.93111 0.02923
C_ C_ 0.358295 0.404431 0.982997 -0.15533
C_ C_ 0.332019 0.391019 0.023656 0.02923
C_ C_ 0.352346 0.379703 0.574251 0.69207
C_ C_ 0.344485 0.38309 0.834355 0.69661
C_ C_ 0.313915 0.426567 0.690516 0.18167
C_ C_ 0.269403 0.450975 0.708921 -0.15533
C_ C_ 0.273187 0.492307 0.743714 0.02923
C_ C_ 0.332291 0.016262 0.743352 -0.15533
C_ C_ 0.365366 0.485224 0.734572 0.18167
C_ C_ 0.493703 0.349091 0.698128 0.18167
C_ C_ 0.0141984 0.310977 0.721696 -0.15533
C_ C_ 0.489594 0.269423 0.735782 0.02923
C_ C_ 0.435984 0.276931 0.726138 -0.15533
C_ C_ 0.412912 0.320292 0.70346 0.18167
C_ C_ 0.485458 0.454956 0.629968 0.69207
C_ C_ 0.0208479 0.985914 0.615103 0.02923
C_ C_ 0.000459899 0.0366047 0.602471 -0.15533
C_ C_ 0.0330912 0.0762508 0.603857 -0.15533
C_ C_ 0.0856175 0.0618364 0.601035 0.02923
C_ C_ 0.104578 0.00689368 0.600247 -0.15533
C_ C_ 0.072633 0.970548 0.605335 0.02923
C_ C_ 0.0973533 0.425262 0.619076 0.69207
C_ C_ 0.104622 0.160328 0.607874 0.69661
C_ C_ 0.44067 0.18517 0.924009 0.18167
C_ C_ 0.482277 0.209716 0.94819 -0.15533
C_ C_ 0.477813 0.240754 0.991579 0.02923
C_ C_ 0.413684 0.247938 0.515268 -0.15533
C_ C_ 0.387941 0.221487 0.986154 0.18167
C_ C_ 0.259123 0.205664 0.855555 0.18167
C_ C_ 0.235505 0.229125 0.812533 -0.15533
C_ C_ 0.265062 0.235252 0.773776 0.02923
C_ C_ 0.315844 0.212965 0.776706 -0.15533
C_ C_ 0.338748 0.19175 0.819874 0.18167
C_ C_ 0.263728 0.127901 0.955386 0.69207
C_ C_ 0.223869 0.113786 0.490829 0.02923
C_ C_ 0.24479 0.0995616 0.539935 -0.15533
C_ C_ 0.214793 0.090952 0.577443 -0.15533
C_ C_ 0.162753 0.0924403 0.566734 0.02923
C_ C_ 0.141753 0.0979717 0.517374 -0.15533
C_ C_ 0.171551 0.11106 0.477806 0.02923
C_ C_ 0.15328 0.113905 0.921708 0.69207
C_ C_ 0.151427 0.0948519 0.664949 0.69661
C_ C_ 0.374545 0.386198 0.88717 -0.30787
C_ C_ 0.126774 0.102038 0.609549 -0.30787
N_ N_ 0.151169 0.0619708 0.814444 -0.32189
N_ N_ 0.0579043 0.147393 0.815148 -0.32189
N_ N_ 0.0973891 0.321364 0.564613 -0.32189
N_ N_ 0.195864 0.309288 0.644271 -0.32189
N_ N_ 0.35888 0.445185 0.700031 -0.32189
N_ N_ 0.442761 0.355533 0.68728 -0.32189
N_ N_ 0.395954 0.187276 0.945127 -0.32189
N_ N_ 0.30747 0.181995 0.855203 -0.32189
O_ O_ 0.507383 0.0898892 0.885479 -0.63271
O_ O_ 0.0528503 0.040825 0.846316 -0.57982
O_ O_ 0.394893 0.0946906 0.840769 -0.63271
O_ O_ 0.370487 0.089726 0.917687 -0.57982
O_ O_ 0.24893 0.391154 0.59676 -0.63271
O_ O_ 0.201538 0.342985 0.541344 -0.57982
O_ O_ 0.359223 0.337325 0.598092 -0.63271
O_ O_ 0.373223 0.41989 0.595807 -0.57982
O_ O_ 0.982054 0.414122 0.596681 -0.63271
O_ O_ 0.451682 0.465981 0.66251 -0.57982
O_ O_ 0.0866619 0.399241 0.658452 -0.63271
O_ O_ 0.139915 0.413259 0.597902 -0.57982
O_ O_ 0.257825 0.105078 0.909849 -0.63271
O_ O_ 0.293072 0.163113 0.96211 -0.57982
O_ O_ 0.152064 0.15462 0.894173 -0.63271
O_ O_ 0.1209 0.0810224 0.907293 -0.57982
F_ F_ 0.439858 0.335091 0.934633 -0.20885
F_ F_ 0.426295 0.310434 0.852357 -0.20885
F_ F_ 0.369271 0.294533 0.903716 -0.20885
F_ F_ 0.311048 0.42862 0.831221 -0.20885
F_ F_ 0.313867 0.343176 0.824096 -0.20885
F_ F_ 0.372715 0.379843 0.794016 -0.20885
F_ F_ 0.0732725 0.1662 0.562779 -0.20885
F_ F_ 0.0771966 0.176524 0.648464 -0.20885
F_ F_ 0.144669 0.191405 0.606503 -0.20885
F_ F_ 0.173994 0.048259 0.67254 -0.20885
F_ F_ 0.187854 0.12934 0.677735 -0.20885
F_ F_ 0.116836 0.104531 0.699906 -0.20885
Zn Zn 0.0849633 0.580572 0.345901 0.83971
Zn Zn 0.162747 0.842777 0.0739157 0.83971
Zn Zn 0.406085 0.914729 0.156337 0.83971
Zn Zn 0.335293 0.658067 0.415285 0.83971
H_ H_ 0.161935 0.621226 0.300882 0.10394
H_ H_ 0.245828 0.589632 0.266843 0.10394
H_ H_ 0.202387 0.947702 0.287883 0.10394
H_ H_ 0.137315 0.474699 0.329899 0.10394
H_ H_ 0.526948 0.596327 0.249706 0.10394
H_ H_ 0.498422 0.672976 0.204517 0.10394
H_ H_ 0.0250316 0.766934 0.350398 0.10394
H_ H_ 0.0668092 0.687367 0.383216 0.10394
H_ H_ 0.0204704 0.939846 0.345248 0.10394
H_ H_ 0.468016 0.87331 0.354409 0.10394
H_ H_ 0.351868 0.983025 0.3992 0.10394
H_ H_ 0.0837448 0.809121 0.133865 0.10394
H_ H_ 0.508173 0.767713 0.0991179 0.10394
H_ H_ 0.0461776 0.772758 0.446183 0.10394
H_ H_ 0.117664 0.818812 0.977762 0.10394
H_ H_ 0.231171 0.749004 0.0932249 0.10394
H_ H_ 0.248607 0.702809 0.165467 0.10394
H_ H_ 0.205995 0.832501 0.261221 0.10394
H_ H_ 0.182526 0.880924 0.181689 0.10394
H_ H_ 0.216639 0.859817 0.44535 0.10394
H_ H_ 0.270179 0.872483 0.37606 0.10394
H_ H_ 0.396502 0.899306 0.485449 0.10394
H_ H_ 0.304497 0.895562 0.156998 0.10394
H_ H_ 0.230512 0.935 0.195317 0.10394
H_ H_ 0.336166 0.542041 0.290813 0.10394
H_ H_ 0.399111 -0.000414656 0.237935 0.10394
H_ H_ 0.0153385 0.878312 0.190344 0.10394
H_ H_ 0.0563034 0.803165 0.230083 0.10394
H_ H_ 0.421794 0.741444 0.221603 0.10394
H_ H_ 0.375902 0.81733 0.188683 0.10394
H_ H_ 0.472352 0.559581 0.150572 0.10394
H_ H_ 0.0187429 0.617492 0.0881517 0.10394
H_ H_ 0.150492 0.511585 0.10346 0.10394
H_ H_ 0.441079 0.672931 0.395713 0.10394
H_ H_ 0.0179271 0.687448 0.448124 0.10394
H_ H_ 0.422083 0.787585 0.048694 0.10394
H_ H_ 0.339636 0.742529 0.503307 0.10394
H_ H_ 0.222712 0.689605 0.369475 0.10394
H_ H_ 0.187763 0.744137 0.298623 0.10394
H_ H_ 0.342126 0.735902 0.252306 0.10394
H_ H_ 0.373234 0.696538 0.328824 0.10394
H_ H_ 0.285523 0.61216 0.0607775 0.10394
H_ H_ 0.229654 0.604634 0.122725 0.10394
H_ H_ 0.0996958 0.598678 0.0126486 0.10394
C_ C_ 0.175273 0.582695 0.300966 0.18167
C_ C_ 0.222714 0.567089 0.285463 -0.15533
C_ C_ 0.237431 0.513681 0.279389 0.02923
C_ C_ 0.191014 0.987567 0.285504 -0.15533
C_ C_ 0.161314 0.499257 0.320895 0.18167
C_ C_ 0.0230368 0.641144 0.268529 0.18167
C_ C_ 0.51474 0.678646 0.242534 -0.15533
C_ C_ 0.00496567 0.730964 0.274243 0.02923
C_ C_ 0.0260841 0.731362 0.325464 -0.15533
C_ C_ 0.0467301 0.68654 0.346709 0.18167
C_ C_ 0.00565411 0.538595 0.370235 0.69207
C_ C_ 0.466748 0.00389141 0.364692 0.02923
C_ C_ 0.483777 0.951502 0.354459 -0.15533
C_ C_ 0.454784 0.9128 0.365518 -0.15533
C_ C_ 0.406595 0.924304 0.382959 0.02923
C_ C_ 0.391479 0.975922 0.394252 -0.15533
C_ C_ 0.418596 0.016826 0.383601 0.02923
C_ C_ 0.395332 0.578373 0.388971 0.69207
C_ C_ 0.393018 0.826512 0.372559 0.69661
C_ C_ 0.0721945 0.803708 0.0922128 0.18167
C_ C_ 0.0252364 0.785726 0.0739063 -0.15533
C_ C_ 0.0142727 0.773364 0.0210725 0.02923
C_ C_ 0.0525683 0.775994 0.486121 -0.15533
C_ C_ 0.0932878 0.803557 0.00498969 0.18167
C_ C_ 0.227636 0.769238 0.128752 0.18167
C_ C_ 0.236978 0.741784 0.173025 -0.15533
C_ C_ 0.239351 0.766255 0.220863 0.02923
C_ C_ 0.216367 0.816737 0.223479 -0.15533
C_ C_ 0.199159 0.840797 0.178849 0.18167
C_ C_ 0.242981 0.866727 0.0403963 0.69207
C_ C_ 0.275391 0.873354 0.505959 0.02923
C_ C_ 0.256238 0.86608 0.454687 -0.15533
C_ C_ 0.284261 0.875807 0.414919 -0.15533
C_ C_ 0.335607 0.887641 0.423733 0.02923
C_ C_ 0.356573 0.892461 0.474873 -0.15533
C_ C_ 0.327429 0.885807 0.514894 0.02923
C_ C_ 0.351278 0.878555 0.0666732 0.69207
C_ C_ 0.338779 0.892473 0.325983 0.69661
C_ C_ 0.308399 0.929743 0.183915 0.18167
C_ C_ 0.265079 0.953501 0.20404 -0.15533
C_ C_ 0.270317 0.994511 0.240179 0.02923
C_ C_ 0.330843 0.512826 0.259278 -0.15533
C_ C_ 0.360676 0.98925 0.226458 0.18167
C_ C_ 0.491577 0.857895 0.210818 0.18167
C_ C_ 0.0147306 0.810382 0.229427 -0.15533
C_ C_ 0.491554 0.77439 0.242515 0.02923
C_ C_ 0.441421 0.77439 0.220208 -0.15533
C_ C_ 0.417214 0.815714 0.195797 0.18167
C_ C_ 0.482948 0.952885 0.12433 0.69207
C_ C_ 0.0247802 0.490315 0.105668 0.02923
C_ C_ 0.0045315 0.541006 0.101145 -0.15533
C_ C_ 0.0362101 0.579146 0.101573 -0.15533
C_ C_ 0.088107 0.568538 0.10595 0.02923
C_ C_ 0.109352 0.518576 0.104354 -0.15533
C_ C_ 0.0785154 0.47872 0.101869 0.02923
C_ C_ 0.103176 0.92449 0.105128 0.69207
C_ C_ 0.102184 0.667401 0.118435 0.69661
C_ C_ 0.434562 0.688197 0.433886 0.18167
C_ C_ 0.474502 0.706947 0.46228 -0.15533
C_ C_ 0.468702 0.744445 0.503294 0.02923
C_ C_ 0.424833 0.76187 0.0149273 -0.15533
C_ C_ 0.376292 0.735232 0.488486 0.18167
C_ C_ 0.250071 0.704009 0.347716 0.18167
C_ C_ 0.228265 0.730088 0.302447 -0.15533
C_ C_ 0.260682 0.73845 0.264183 0.02923
C_ C_ 0.314836 0.723323 0.274541 -0.15533
C_ C_ 0.333014 0.699143 0.31917 0.18167
C_ C_ 0.259504 0.615684 0.453835 0.69207
C_ C_ 0.223444 0.619429 0.997734 0.02923
C_ C_ 0.244214 0.614818 0.0480545 -0.15533
C_ C_ 0.212273 0.610552 0.0861407 -0.15533
C_ C_ 0.159266 0.607385 0.0750318 0.02923
C_ C_ 0.140894 0.604815 0.0222102 -0.15533
C_ C_ 0.1711 0.610486 0.983654 0.02923
C_ C_ 0.143775 0.6111 0.427146 0.69207
C_ C_ 0.148831 0.60591 0.172748 0.69661
C_ C_ 0.369295 0.884781 0.377126 -0.30787
C_ C_ 0.123177 0.610005 0.117313 -0.30787
N_ N_ 0.144718 0.549809 0.3176 -0.32189
N_ N_ 0.0494966 0.641938 0.316429 -0.32189
N_ N_ 0.106838 0.808632 0.0568392 -0.32189
N_ N_ 0.202155 0.816046 0.132399 -0.32189
N_ N_ 0.355185 0.947567 0.193945 -0.32189
N_ N_ 0.441811 0.857951 0.190553 -0.32189
N_ N_ 0.384312 0.701849 0.446781 -0.32189
N_ N_ 0.300731 0.688854 0.353893 -0.32189
O_ O_ 0.50642 0.591158 0.395654 -0.63271
O_ O_ 0.0395214 0.532996 0.33758 -0.57982
O_ O_ 0.403537 0.602945 0.351104 -0.63271
O_ O_ 0.358808 0.595532 0.417493 -0.57982
O_ O_ 0.240257 0.899938 0.0816019 -0.63271
O_ O_ 0.207583 0.838233 0.0248868 -0.57982
O_ O_ 0.350223 0.835991 0.0885058 -0.63271
O_ O_ 0.377754 0.914562 0.0900945 -0.57982
O_ O_ 0.990481 0.910291 0.0903521 -0.63271
O_ O_ 0.450673 0.959123 0.159351 -0.57982
O_ O_ 0.102566 0.899046 0.147294 -0.63271
O_ O_ 0.132667 0.906098 0.0694885 -0.57982
O_ O_ 0.254523 0.594097 0.408548 -0.63271
O_ O_ 0.289097 0.652224 0.462965 -0.57982
O_ O_ 0.151127 0.648941 0.398443 -0.63271
O_ O_ 0.109917 0.578824 0.41015 -0.57982
F_ F_ 0.429883 0.812815 0.412118 -0.20885
F_ F_ 0.414077 0.810491 0.325463 -0.20885
F_ F_ 0.358795 0.793836 0.380115 -0.20885
F_ F_ 0.301886 0.931705 0.331055 -0.20885
F_ F_ 0.311304 0.852428 0.304963 -0.20885
F_ F_ 0.369926 0.905261 0.291142 -0.20885
F_ F_ 0.0807586 0.680384 0.0720188 -0.20885
F_ F_ 0.0633307 0.677341 0.148494 -0.20885
F_ F_ 0.137833 0.700899 0.131157 -0.20885
F_ F_ 0.177344 0.56055 0.181497 -0.20885
F_ F_ 0.183394 0.640218 0.194014 -0.20885
F_ F_ 0.111216 0.611184 0.20852 -0.20885
Zn Zn 0.0866773 0.580523 0.847379 0.83971
Zn Zn 0.160648 0.841787 0.585334 0.83971
Zn Zn 0.410734 0.917633 0.649783 0.83971
Zn Zn 0.341325 0.662547 0.927042 0.83971
H_ H_ 0.166159 0.623663 0.80809 0.10394
H_ H_ 0.242103 0.593921 0.767396 0.10394
H_ H_ 0.225949 0.950859 0.797053 0.10394
H_ H_ 0.134256 0.477249 0.832502 0.10394
H_ H_ 0.522395 0.600445 0.762922 0.10394
H_ H_ 0.484071 0.666983 0.703424 0.10394
H_ H_ 0.0244336 0.763254 0.830075 0.10394
H_ H_ 0.062207 0.684692 0.874281 0.10394
H_ H_ 0.0355869 0.948407 0.862653 0.10394
H_ H_ 0.482865 0.882209 0.878598 0.10394
H_ H_ 0.356632 0.985603 0.903756 0.10394
H_ H_ 0.0812068 0.790773 0.634697 0.10394
H_ H_ 0.502273 0.764279 0.59984 0.10394
H_ H_ 0.0372162 0.783107 0.944891 0.10394
H_ H_ 0.11394 0.817667 0.484406 0.10394
H_ H_ 0.232475 0.757941 0.59834 0.10394
H_ H_ 0.272655 0.708333 0.671044 0.10394
H_ H_ 0.220708 0.835496 0.7693 0.10394
H_ H_ 0.173833 0.879421 0.690508 0.10394
H_ H_ 0.219219 0.869822 0.937876 0.10394
H_ H_ 0.272118 0.872908 0.875726 0.10394
H_ H_ 0.397551 0.901477 0.98285 0.10394
H_ H_ 0.307415 0.897316 0.658773 0.10394
H_ H_ 0.233845 0.945103 0.702649 0.10394
H_ H_ 0.32841 0.539461 0.787321 0.10394
H_ H_ 0.410793 -0.01192099999999996 0.740398 0.10394
H_ H_ 0.0112771 0.881745 0.697192 0.10394
H_ H_ 0.0514604 0.811471 0.748994 0.10394
H_ H_ 0.411242 0.752247 0.727512 0.10394
H_ H_ 0.371275 0.83156 0.689443 0.10394
H_ H_ 0.457133 0.553773 0.616613 0.10394
H_ H_ 0.0149425 0.620942 0.602848 0.10394
H_ H_ 0.141063 0.503157 0.592997 0.10394
H_ H_ 0.441592 0.672947 0.898057 0.10394
H_ H_ 0.0235454 0.679394 0.968487 0.10394
H_ H_ 0.41145 0.787396 0.540255 0.10394
H_ H_ 0.344423 0.761067 -0.004928999999999961 0.10394
H_ H_ 0.236385 0.716896 0.898099 0.10394
H_ H_ 0.19501 0.750889 0.816352 0.10394
H_ H_ 0.338746 0.713408 0.749797 0.10394
H_ H_ 0.380582 0.684428 0.831902 0.10394
H_ H_ 0.283291 0.605869 0.549205 0.10394
H_ H_ 0.234298 0.60146 0.617416 0.10394
H_ H_ 0.100867 0.591398 0.509317 0.10394
C_ C_ 0.175367 0.582506 0.802644 0.18167
C_ C_ 0.218647 0.566131 0.778906 -0.15533
C_ C_ 0.228473 0.513093 0.771926 0.02923
C_ C_ 0.214725 0.990672 0.797715 -0.15533
C_ C_ 0.156822 0.498294 0.813894 0.18167
C_ C_ 0.031455 0.627893 0.763133 0.18167
C_ C_ 0.5024 0.677659 0.741316 -0.15533
C_ C_ 0.00575771 0.72048 0.75934 0.02923
C_ C_ 0.0259038 0.726754 0.809366 -0.15533
C_ C_ 0.0483183 0.684016 0.835175 0.18167
C_ C_ 0.0106597 0.542881 0.863871 0.69207
C_ C_ 0.47475 0.00806928 0.86547 0.02923
C_ C_ 0.48855 0.956423 0.856048 -0.15533
C_ C_ 0.46319 0.917838 0.869818 -0.15533
C_ C_ 0.414727 0.926611 0.885024 0.02923
C_ C_ 0.395879 0.980021 0.893955 -0.15533
C_ C_ 0.424367 0.0201951 0.883823 0.02923
C_ C_ 0.39145 0.575949 0.886702 0.69207
C_ C_ 0.405198 0.830571 0.888649 0.69661
C_ C_ 0.0713382 0.793763 0.593438 0.18167
C_ C_ 0.0250582 0.776601 0.570976 -0.15533
C_ C_ 0.0140647 0.769555 0.517706 0.02923
C_ C_ 0.0495752 0.78337 0.987126 -0.15533
C_ C_ 0.09622 0.796394 0.508378 0.18167
C_ C_ 0.226213 0.770854 0.636762 0.18167
C_ C_ 0.250096 0.746345 0.679038 -0.15533
C_ C_ 0.244495 0.766593 0.72788 0.02923
C_ C_ 0.221595 0.816986 0.7339 -0.15533
C_ C_ 0.193022 0.840474 0.689957 0.18167
C_ C_ 0.243464 0.862557 0.547048 0.69207
C_ C_ 0.276237 0.879052 0.0012099999999999334 0.02923
C_ C_ 0.258022 0.875893 0.949926 -0.15533
C_ C_ 0.288764 0.8829 0.911863 -0.15533
C_ C_ 0.340499 0.891165 0.924384 0.02923
C_ C_ 0.35797 0.896243 0.975689 -0.15533
C_ C_ 0.328749 0.881088 0.0136333 0.02923
C_ C_ 0.353459 0.886679 0.567131 0.69207
C_ C_ 0.352017 0.882666 0.828653 0.69661
C_ C_ 0.310978 0.933386 0.679026 0.18167
C_ C_ 0.271585 0.959357 0.706065 -0.15533
C_ C_ 0.281297 0.999846 0.738865 0.02923
C_ C_ 0.322635 0.510646 0.757463 -0.15533
C_ C_ 0.370588 0.983405 0.724351 0.18167
C_ C_ 0.492356 0.852956 0.692416 0.18167
C_ C_ 0.0136964 0.809442 0.731929 -0.15533
C_ C_ 0.487993 0.771008 0.728389 0.02923
C_ C_ 0.434954 0.779605 0.718144 -0.15533
C_ C_ 0.411509 0.823323 0.692218 0.18167
C_ C_ 0.488112 0.959383 0.618544 0.69207
C_ C_ 0.020447 0.493534 0.61932 0.02923
C_ C_ 1.00107 0.542289 0.605677 -0.15533
C_ C_ 0.0334796 0.581324 0.607777 -0.15533
C_ C_ 0.08711 0.567878 0.605764 0.02923
C_ C_ 0.104355 0.515921 0.603722 -0.15533
C_ C_ 0.0730566 0.479683 0.616669 0.02923
C_ C_ 0.0937355 0.916863 0.606416 0.69207
C_ C_ 0.103259 0.661808 0.615746 0.69661
C_ C_ 0.437122 0.691886 0.933152 0.18167
C_ C_ 0.480065 0.712887 0.95701 -0.15533
C_ C_ 0.474659 0.749519 -0.0007719999999999949 0.02923
C_ C_ 0.419548 0.756971 0.515229 -0.15533
C_ C_ 0.383004 0.743208 0.986425 0.18167
C_ C_ 0.258889 0.714411 0.863906 0.18167
C_ C_ 0.236156 0.73762 0.819991 -0.15533
C_ C_ 0.264678 0.736676 0.777103 0.02923
C_ C_ 0.316943 0.719074 0.783094 -0.15533
C_ C_ 0.3391 0.696133 0.82697 0.18167
C_ C_ 0.257549 0.637904 0.961577 0.69207
C_ C_ 0.223131 0.60801 0.490131 0.02923
C_ C_ 0.243883 0.602489 0.539162 -0.15533
C_ C_ 0.214771 0.59876 0.579879 -0.15533
C_ C_ 0.162408 0.594375 0.570065 0.02923
C_ C_ 0.141482 0.595472 0.519876 -0.15533
C_ C_ 0.170087 0.605903 0.480079 0.02923
C_ C_ 0.147828 0.614326 0.930815 0.69207
C_ C_ 0.153184 0.597225 0.668165 0.69661
C_ C_ 0.378242 0.884184 0.882978 -0.30787
C_ C_ 0.126252 0.6049 0.614252 -0.30787
N_ N_ 0.142111 0.549536 0.814135 -0.32189
N_ N_ 0.0547982 0.638047 0.811745 -0.32189
N_ N_ 0.105636 0.804005 0.560931 -0.32189
N_ N_ 0.193816 0.812913 0.644282 -0.32189
N_ N_ 0.359885 0.945842 0.68891 -0.32189
N_ N_ 0.440853 0.859082 0.680102 -0.32189
N_ N_ 0.388902 0.706036 0.948042 -0.32189
N_ N_ 0.308989 0.692342 0.866386 -0.32189
O_ O_ 0.494371 0.600195 0.874321 -0.63271
O_ O_ 0.0492125 0.532588 0.836595 -0.57982
O_ O_ 0.380407 0.599496 0.844372 -0.63271
O_ O_ 0.378213 0.599315 0.929512 -0.57982
O_ O_ 0.24607 0.890252 0.59099 -0.63271
O_ O_ 0.2067 0.832639 0.539581 -0.57982
O_ O_ 0.355371 0.847415 0.595625 -0.63271
O_ O_ 0.378859 0.923939 0.585055 -0.57982
O_ O_ 0.986227 0.905142 0.597508 -0.63271
O_ O_ 0.455594 0.96694 0.653368 -0.57982
O_ O_ 0.0931853 0.891148 0.647011 -0.63271
O_ O_ 0.126833 0.901462 0.573419 -0.57982
O_ O_ 0.259534 0.616004 0.916281 -0.63271
O_ O_ 0.296564 0.664693 0.978329 -0.57982
O_ O_ 0.149378 0.654327 0.903552 -0.63271
O_ O_ 0.115689 0.579808 0.913777 -0.57982
F_ F_ 0.440251 0.829625 0.934668 -0.20885
F_ F_ 0.433648 0.810797 0.850487 -0.20885
F_ F_ 0.37196 0.794133 0.891126 -0.20885
F_ F_ 0.316671 0.925397 0.820154 -0.20885
F_ F_ 0.322038 0.843965 0.816768 -0.20885
F_ F_ 0.384361 0.881788 0.791595 -0.20885
F_ F_ 0.075929 0.678498 0.570912 -0.20885
F_ F_ 0.0710135 0.674125 0.651966 -0.20885
F_ F_ 0.143292 0.692953 0.628451 -0.20885
F_ F_ 0.178161 0.549599 0.66925 -0.20885
F_ F_ 0.188791 0.630786 0.688554 -0.20885
F_ F_ 0.118524 0.601378 0.703291 -0.20885
Zn Zn 0.587197 0.0824738 0.341295 0.83971
Zn Zn 0.662645 0.348708 0.0822048 0.83971
Zn Zn 0.913002 0.416266 0.151207 0.83971
Zn Zn 0.841542 0.157113 0.41369 0.83971
H_ H_ 0.673316 0.129382 0.302543 0.10394
H_ H_ 0.762893 0.0916158 0.283692 0.10394
H_ H_ 0.71001 0.446543 0.277751 0.10394
H_ H_ 0.627139 0.985758 0.315826 0.10394
H_ H_ 0.0411099 0.102137 0.241668 0.10394
H_ H_ 0.986299 0.179176 0.202499 0.10394
H_ H_ 0.522804 0.265441 0.338844 0.10394
H_ H_ 0.567402 0.184902 0.376121 0.10394
H_ H_ 0.529836 0.448763 0.362978 0.10394
H_ H_ 0.975771 0.373762 0.379029 0.10394
H_ H_ 0.854965 0.486093 0.413704 0.10394
H_ H_ 0.585221 0.293373 0.124011 0.10394
H_ H_ 0.996655 0.277492 0.0911606 0.10394
H_ H_ 0.532331 0.294066 0.446062 0.10394
H_ H_ 0.612712 0.337078 0.980467 0.10394
H_ H_ 0.712143 0.251745 0.0956116 0.10394
H_ H_ 0.763495 0.204563 0.172293 0.10394
H_ H_ 0.713371 0.333742 0.27038 0.10394
H_ H_ 0.664814 0.375441 0.196008 0.10394
H_ H_ 0.719221 0.350273 0.449727 0.10394
H_ H_ 0.775494 0.354582 0.382615 0.10394
H_ H_ 0.886525 0.416578 0.486641 0.10394
H_ H_ 0.815934 0.405404 0.153092 0.10394
H_ H_ 0.738492 0.450788 0.188489 0.10394
H_ H_ 0.844354 0.0271217 0.29499 0.10394
H_ H_ 0.91124 0.496684 0.239452 0.10394
H_ H_ 0.520298 0.370319 0.181382 0.10394
H_ H_ 0.554097 0.297492 0.228578 0.10394
H_ H_ 0.912486 0.249753 0.231446 0.10394
H_ H_ 0.87367 0.327704 0.191601 0.10394
H_ H_ 0.966843 0.054748 0.120645 0.10394
H_ H_ 0.512352 0.120241 0.125418 0.10394
H_ H_ 0.644848 0.0087241 0.100932 0.10394
H_ H_ 0.945973 0.165986 0.398345 0.10394
H_ H_ 0.506028 0.209958 0.433413 0.10394
H_ H_ 0.915218 0.287506 0.0395871 0.10394
H_ H_ 0.845455 0.223974 0.511776 0.10394
H_ H_ 0.738463 0.192148 0.380549 0.10394
H_ H_ 0.695685 0.232563 0.305894 0.10394
H_ H_ 0.841852 0.225826 0.244413 0.10394
H_ H_ 0.883452 0.191211 0.322665 0.10394
H_ H_ 0.778121 0.127216 0.0582668 0.10394
H_ H_ 0.729097 0.0941193 0.124202 0.10394
H_ H_ 0.601784 0.0841667 0.0106451 0.10394
C_ C_ 0.68252 0.0894326 0.303611 0.18167
C_ C_ 0.731186 0.0677477 0.289264 -0.15533
C_ C_ 0.739152 0.0155412 0.275064 0.02923
C_ C_ 0.701839 0.488727 0.282405 -0.15533
C_ C_ 0.658697 0.00622019 0.309844 0.18167
C_ C_ 0.524446 0.134489 0.261904 0.18167
C_ C_ 0.00395081 0.180765 0.240206 -0.15533
C_ C_ 0.504053 0.226806 0.266787 0.02923
C_ C_ 0.526184 0.229149 0.316521 -0.15533
C_ C_ 0.54665 0.183544 0.338 0.18167
C_ C_ 0.506167 0.0398452 0.363148 0.69207
C_ C_ 0.969746 0.499575 0.369037 0.02923
C_ C_ 0.988014 0.449224 0.360801 -0.15533
C_ C_ 0.957746 0.410976 0.372607 -0.15533
C_ C_ 0.9075 0.424676 0.388575 0.02923
C_ C_ 0.888886 0.475272 0.391388 -0.15533
C_ C_ 0.917867 0.513574 0.380069 0.02923
C_ C_ 0.897732 0.073218 0.385657 0.69207
C_ C_ 0.894393 0.327108 0.384323 0.69661
C_ C_ 0.571968 0.304058 0.0852486 0.18167
C_ C_ 0.528827 0.280857 0.0645931 -0.15533
C_ C_ 0.517516 0.275017 0.0124749 0.02923
C_ C_ 0.538788 0.296111 0.486608 -0.15533
C_ C_ 0.593052 0.316002 0.0024399999999999977 0.18167
C_ C_ 0.716277 0.27015 0.135504 0.18167
C_ C_ 0.744035 0.245282 0.177187 -0.15533
C_ C_ 0.742051 0.267076 0.227191 0.02923
C_ C_ 0.717671 0.317462 0.231727 -0.15533
C_ C_ 0.691651 0.341641 0.190204 0.18167
C_ C_ 0.746818 0.359982 0.0431322 0.69207
C_ C_ 0.776594 0.368967 0.511326 0.02923
C_ C_ 0.757632 0.360937 0.460338 -0.15533
C_ C_ 0.787856 0.367277 0.421589 -0.15533
C_ C_ 0.833093 0.387321 0.42903 0.02923
C_ C_ 0.852008 0.396593 0.479064 -0.15533
C_ C_ 0.826163 0.387423 0.520943 0.02923
C_ C_ 0.858091 0.376613 0.0690872 0.69207
C_ C_ 0.838794 0.388778 0.329716 0.69661
C_ C_ 0.816814 0.439123 0.175044 0.18167
C_ C_ 0.776227 0.461799 0.199438 -0.15533
C_ C_ 0.779553 0.501809 0.238454 0.02923
C_ C_ 0.832077 0.00507169 0.260507 -0.15533
C_ C_ 0.87038 0.489971 0.227111 0.18167
C_ C_ 0.993803 0.358377 0.210549 0.18167
C_ C_ 0.513708 0.302241 0.217962 -0.15533
C_ C_ 0.987458 0.275355 0.242235 0.02923
C_ C_ 0.93495 0.282349 0.229648 -0.15533
C_ C_ 0.913708 0.32488 0.201066 0.18167
C_ C_ 0.987371 0.450996 0.112363 0.69207
C_ C_ 0.518563 0.990211 0.122327 0.02923
C_ C_ 0.502974 0.0432977 0.132581 -0.15533
C_ C_ 0.533927 0.0804923 0.122578 -0.15533
C_ C_ 0.583871 0.0693265 0.110192 0.02923
C_ C_ 0.603579 0.0174528 0.109202 -0.15533
C_ C_ 0.571009 0.977742 0.112361 0.02923
C_ C_ 0.599527 0.429618 0.10795 0.69207
C_ C_ 0.593987 0.163177 0.0962158 0.69661
C_ C_ 0.940013 0.185083 0.435882 0.18167
C_ C_ 0.979827 0.210174 0.459968 -0.15533
C_ C_ 0.969764 0.246168 0.500169 0.02923
C_ C_ 0.921221 0.253448 0.0133367 -0.15533
C_ C_ 0.88159 0.223792 0.494222 0.18167
C_ C_ 0.760693 0.19949 0.349653 0.18167
C_ C_ 0.736336 0.220823 0.307156 -0.15533
C_ C_ 0.765661 0.236694 0.269509 0.02923
C_ C_ 0.819092 0.223186 0.276373 -0.15533
C_ C_ 0.841487 0.200187 0.318582 0.18167
C_ C_ 0.760487 0.128348 0.450925 0.69207
C_ C_ 0.72416 0.105712 0.993268 0.02923
C_ C_ 0.73979 0.115424 0.0464891 -0.15533
C_ C_ 0.710933 0.101381 0.0844163 -0.15533
C_ C_ 0.659541 0.0962414 0.0722372 0.02923
C_ C_ 0.641524 0.0880997 0.0200407 -0.15533
C_ C_ 0.67511 0.0910806 0.980756 0.02923
C_ C_ 0.647458 0.111892 0.422577 0.69207
C_ C_ 0.646678 0.116383 0.167395 0.69661
C_ C_ 0.869303 0.384668 0.385235 -0.30787
C_ C_ 0.620113 0.111922 0.111304 -0.30787
N_ N_ 0.648191 0.0576777 0.311701 -0.32189
N_ N_ 0.549343 0.138621 0.309557 -0.32189
N_ N_ 0.605218 0.317866 0.0538681 -0.32189
N_ N_ 0.691655 0.317357 0.142613 -0.32189
N_ N_ 0.862698 0.457197 0.186132 -0.32189
N_ N_ 0.942099 0.363135 0.195166 -0.32189
N_ N_ 0.891043 0.193193 0.451773 -0.32189
N_ N_ 0.813016 0.190043 0.356053 -0.32189
O_ O_ 0.00107995 0.0883875 0.385122 -0.63271
O_ O_ 0.548423 0.0325303 0.336999 -0.57982
O_ O_ 0.891817 0.0976201 0.343026 -0.63271
O_ O_ 0.868029 0.0893876 0.419834 -0.57982
O_ O_ 0.750668 0.388982 0.0857107 -0.63271
O_ O_ 0.705812 0.337714 0.0314398 -0.57982
O_ O_ 0.859166 0.339086 0.100332 -0.63271
O_ O_ 0.883379 0.414885 0.0850268 -0.57982
O_ O_ 0.480445 0.425565 0.0965576 -0.63271
O_ O_ 0.958063 0.460663 0.149035 -0.57982
O_ O_ 0.591727 0.398613 0.144089 -0.63271
O_ O_ 0.635953 0.414163 0.0769262 -0.57982
O_ O_ 0.76099 0.098269 0.409127 -0.63271
O_ O_ 0.794704 0.161614 0.458775 -0.57982
O_ O_ 0.652989 0.150002 0.395479 -0.63271
O_ O_ 0.609208 0.08502 0.409089 -0.57982
F_ F_ 0.932664 0.322569 0.424139 -0.20885
F_ F_ 0.917097 0.314807 0.340026 -0.20885
F_ F_ 0.861301 0.287883 0.387832 -0.20885
F_ F_ 0.805699 0.430931 0.331195 -0.20885
F_ F_ 0.814992 0.347919 0.310861 -0.20885
F_ F_ 0.870388 0.396961 0.292139 -0.20885
F_ F_ 0.559987 0.16025 0.0540263 -0.20885
F_ F_ 0.56417 0.186109 0.13486 -0.20885
F_ F_ 0.628644 0.19796 0.0897445 -0.20885
F_ F_ 0.673989 0.0706504 0.181812 -0.20885
F_ F_ 0.680861 0.153897 0.176079 -0.20885
F_ F_ 0.61174 0.131619 0.205616 -0.20885
Zn Zn 0.593091 0.0803633 0.847762 0.83971
Zn Zn 0.653243 0.349487 0.59064 0.83971
Zn Zn 0.905994 0.418331 0.656135 0.83971
Zn Zn 0.837252 0.150655 0.918427 0.83971
H_ H_ 0.678033 0.129392 0.806893 0.10394
H_ H_ 0.753523 0.0906306 0.765667 0.10394
H_ H_ 0.725538 0.458559 0.805522 0.10394
H_ H_ 0.64112 0.978998 0.825188 0.10394
H_ H_ 0.0426863 0.101861 0.745702 0.10394
H_ H_ 0.996231 0.169384 0.696618 0.10394
H_ H_ 0.5377 0.270572 0.833003 0.10394
H_ H_ 0.579653 0.194691 0.877756 0.10394
H_ H_ 0.525897 0.456091 0.847575 0.10394
H_ H_ 0.987132 0.378918 0.883338 0.10394
H_ H_ 0.851627 0.483675 0.896496 0.10394
H_ H_ 0.562726 0.31631 0.631192 0.10394
H_ H_ -0.00197915 0.269226 0.600816 0.10394
H_ H_ 0.533793 0.294434 0.941429 0.10394
H_ H_ 0.614828 0.319985 0.486742 0.10394
H_ H_ 0.714623 0.244538 0.60027 0.10394
H_ H_ 0.754895 0.19887 0.67378 0.10394
H_ H_ 0.715736 0.332771 0.771616 0.10394
H_ H_ 0.677686 0.376434 0.694826 0.10394
H_ H_ 0.719601 0.371686 0.942804 0.10394
H_ H_ 0.770808 0.377034 0.872753 0.10394
H_ H_ 0.902457 0.380651 0.984496 0.10394
H_ H_ 0.807059 0.404489 0.669358 0.10394
H_ H_ 0.73719 0.446202 0.717786 0.10394
H_ H_ 0.834592 0.0431075 0.768055 0.10394
H_ H_ 0.908269 0.50361 0.741678 0.10394
H_ H_ 0.5164 0.377818 0.687857 0.10394
H_ H_ 0.559156 0.302448 0.727161 0.10394
H_ H_ 0.912946 0.246649 0.729717 0.10394
H_ H_ 0.8698 0.32806 0.696571 0.10394
H_ H_ 0.961622 0.0464611 0.605729 0.10394
H_ H_ 0.511066 0.12651 0.606922 0.10394
H_ H_ 0.645923 0.0166325 0.59431 0.10394
H_ H_ 0.937282 0.161334 0.894497 0.10394
H_ H_ 0.519661 0.198316 0.937954 0.10394
H_ H_ 0.914566 0.275285 0.554819 0.10394
H_ H_ 0.839824 0.237428 0.00282586 0.10394
H_ H_ 0.734597 0.192169 0.888481 0.10394
H_ H_ 0.690991 0.231582 0.814974 0.10394
H_ H_ 0.832512 0.213277 0.748071 0.10394
H_ H_ 0.871591 0.170707 0.823309 0.10394
H_ H_ 0.777665 0.132797 0.55333 0.10394
H_ H_ 0.72111 0.143709 0.617614 0.10394
H_ H_ 0.598035 0.111217 0.504635 0.10394
C_ C_ 0.685671 0.0881062 0.799378 0.18167
C_ C_ 0.730445 0.0661409 0.779162 -0.15533
C_ C_ 0.742079 0.0136391 0.774031 0.02923
C_ C_ 0.712295 0.498427 0.80239 -0.15533
C_ C_ 0.664545 0.00450167 0.810931 0.18167
C_ C_ 0.533769 0.136151 0.772652 0.18167
C_ C_ 0.0130023 0.177738 0.736749 -0.15533
C_ C_ 0.515714 0.224924 0.765549 0.02923
C_ C_ 0.537114 0.231531 0.814473 -0.15533
C_ C_ 0.56156 0.190791 0.839632 0.18167
C_ C_ 0.508983 0.0473831 0.857203 0.69207
C_ C_ 0.972101 0.503673 0.86703 0.02923
C_ C_ 0.991341 0.451938 0.863343 -0.15533
C_ C_ 0.965694 0.413477 0.877297 -0.15533
C_ C_ 0.913241 0.423108 0.886738 0.02923
C_ C_ 0.891309 0.475107 0.889147 -0.15533
C_ C_ 0.92311 0.515855 0.883921 0.02923
C_ C_ 0.897912 0.0708987 0.891052 0.69207
C_ C_ 0.906937 0.32566 0.872244 0.69661
C_ C_ 0.555401 0.309812 0.589884 0.18167
C_ C_ 0.509937 0.291079 0.568497 -0.15533
C_ C_ 0.501599 0.279773 0.515734 0.02923
C_ C_ 0.547994 0.2944 0.98061 -0.15533
C_ C_ 0.586002 0.309816 0.508886 0.18167
C_ C_ 0.714917 0.264103 0.63695 0.18167
C_ C_ 0.737931 0.237633 0.679522 -0.15533
C_ C_ 0.73743 0.261592 0.730021 0.02923
C_ C_ 0.715985 0.311359 0.735168 -0.15533
C_ C_ 0.695291 0.336274 0.69241 0.18167
C_ C_ 0.741826 0.363521 0.552436 0.69207
C_ C_ 0.779156 0.369804 1.00442961 0.02923
C_ C_ 0.758621 0.376986 0.953861 -0.15533
C_ C_ 0.788961 0.383538 0.91358 -0.15533
C_ C_ 0.841171 0.38302 0.922543 0.02923
C_ C_ 0.861873 0.380195 0.974453 -0.15533
C_ C_ 0.831728 0.37301 0.0154423 0.02923
C_ C_ 0.854664 0.387716 0.572909 0.69207
C_ C_ 0.85072 0.383177 0.820439 0.69661
C_ C_ 0.812742 0.436682 0.692179 0.18167
C_ C_ 0.771363 0.466394 0.712081 -0.15533
C_ C_ 0.781195 0.507846 0.746845 0.02923
C_ C_ 0.830716 0.0110819 0.743181 -0.15533
C_ C_ 0.870939 0.491141 0.735552 0.18167
C_ C_ 0.989735 0.35442 0.700408 0.18167
C_ C_ 0.517954 0.307019 0.720698 -0.15533
C_ C_ 0.984444 0.270766 0.730496 0.02923
C_ C_ 0.932406 0.275854 0.718751 -0.15533
C_ C_ 0.90954 0.320041 0.696642 0.18167
C_ C_ 0.985291 0.455387 0.62706 0.69207
C_ C_ 0.523133 0.997302 0.611055 0.02923
C_ C_ 0.5021 0.0498139 0.605398 -0.15533
C_ C_ 0.532396 0.0884459 0.605596 -0.15533
C_ C_ 0.585387 0.0787679 0.601262 0.02923
C_ C_ 0.6062 0.0268482 0.598503 -0.15533
C_ C_ 0.575585 0.986068 0.607264 0.02923
C_ C_ 0.596566 0.428605 0.619029 0.69207
C_ C_ 0.594317 0.178122 0.605522 0.69661
C_ C_ 0.933371 0.183736 0.932474 0.18167
C_ C_ 0.976139 0.203421 0.960887 -0.15533
C_ C_ 0.970853 0.242988 -0.003955000000000042 0.02923
C_ C_ 0.923588 0.24959 0.521161 -0.15533
C_ C_ 0.878573 0.229663 0.98903 0.18167
C_ C_ 0.755258 0.198968 0.856509 0.18167
C_ C_ 0.732466 0.22635 0.816082 -0.15533
C_ C_ 0.759578 0.232444 0.774153 0.02923
C_ C_ 0.810181 0.212377 0.776912 -0.15533
C_ C_ 0.833301 0.187325 0.821304 0.18167
C_ C_ 0.760983 0.113415 0.953263 0.69207
C_ C_ 0.722594 0.123105 0.488825 0.02923
C_ C_ 0.738723 0.132151 0.541388 -0.15533
C_ C_ 0.705966 0.133028 0.578703 -0.15533
C_ C_ 0.655282 0.121352 0.566664 0.02923
C_ C_ 0.637083 0.113042 0.515835 -0.15533
C_ C_ 0.668839 0.116323 0.476188 0.02923
C_ C_ 0.651876 0.0918756 0.927333 0.69207
C_ C_ 0.645856 0.114797 0.661236 0.69661
C_ C_ 0.876797 0.380683 0.876357 -0.30787
C_ C_ 0.61975 0.122104 0.605922 -0.30787
N_ N_ 0.652391 0.0563212 0.813491 -0.32189
N_ N_ 0.562232 0.142374 0.817254 -0.32189
N_ N_ 0.593665 0.318375 0.560645 -0.32189
N_ N_ 0.692695 0.313058 0.644291 -0.32189
N_ N_ 0.860384 0.452699 0.700567 -0.32189
N_ N_ 0.938213 0.358055 0.687179 -0.32189
N_ N_ 0.885634 0.197261 0.947509 -0.32189
N_ N_ 0.80538 0.183898 0.860451 -0.32189
O_ O_ 0.00229577 0.0976347 0.890268 -0.63271
O_ O_ 0.546727 0.0363527 0.828282 -0.57982
O_ O_ 0.891559 0.0895958 0.846626 -0.63271
O_ O_ 0.872695 0.0905055 0.92941 -0.57982
O_ O_ 0.752019 0.384892 0.599175 -0.63271
O_ O_ 0.698232 0.344443 0.542128 -0.57982
O_ O_ 0.858719 0.346523 0.599083 -0.63271
O_ O_ 0.878534 0.426726 0.589693 -0.57982
O_ O_ 0.487504 0.411601 0.604545 -0.63271
O_ O_ 0.949639 0.466176 0.657697 -0.57982
O_ O_ 0.590291 0.404759 0.659572 -0.63271
O_ O_ 0.637773 0.416434 0.596665 -0.57982
O_ O_ 0.758863 0.0881323 0.908519 -0.63271
O_ O_ 0.792908 0.147239 0.962518 -0.57982
O_ O_ 0.656294 0.128307 0.897667 -0.63271
O_ O_ 0.614101 0.0650012 0.91462 -0.57982
F_ F_ 0.940224 0.320872 0.915883 -0.20885
F_ F_ 0.935956 0.317315 0.830282 -0.20885
F_ F_ 0.875348 0.287929 0.8728 -0.20885
F_ F_ 0.817544 0.424515 0.817271 -0.20885
F_ F_ 0.827907 0.339989 0.804773 -0.20885
F_ F_ 0.889081 0.388948 0.789996 -0.20885
F_ F_ 0.56125 0.186086 0.560101 -0.20885
F_ F_ 0.56816 0.192982 0.648537 -0.20885
F_ F_ 0.626866 0.217559 0.608352 -0.20885
F_ F_ 0.685349 0.0777499 0.663025 -0.20885
F_ F_ 0.666485 0.158706 0.682631 -0.20885
F_ F_ 0.613465 0.104979 0.694802 -0.20885
Zn Zn 0.583547 0.58049 0.339966 0.83971
Zn Zn 0.664828 0.852641 0.0818979 0.83971
Zn Zn 0.910124 0.915201 0.152548 0.83971
Zn Zn 0.841563 0.65325 0.415277 0.83971
H_ H_ 0.665911 0.631537 0.302557 0.10394
H_ H_ 0.749878 0.601384 0.272828 0.10394
H_ H_ 0.7106 0.941996 0.286735 0.10394
H_ H_ 0.627879 0.479621 0.306326 0.10394
H_ H_ 0.0200728 0.602849 0.245987 0.10394
H_ H_ 0.987362 0.684354 0.207383 0.10394
H_ H_ 0.547354 0.7658 0.337112 0.10394
H_ H_ 0.56823 0.685552 0.385033 0.10394
H_ H_ 0.521654 0.939775 0.343372 0.10394
H_ H_ 0.973832 0.880865 0.379505 0.10394
H_ H_ 0.852784 0.990487 0.401129 0.10394
H_ H_ 0.582133 0.809157 0.135597 0.10394
H_ H_ 0.999027 0.774546 0.0993053 0.10394
H_ H_ 0.525374 0.806417 0.448519 0.10394
H_ H_ 0.624636 0.819531 0.985452 0.10394
H_ H_ 0.723764 0.761859 0.0901045 0.10394
H_ H_ 0.750439 0.698388 0.160498 0.10394
H_ H_ 0.715888 0.824924 0.270045 0.10394
H_ H_ 0.676384 0.878222 0.196515 0.10394
H_ H_ 0.716361 0.863216 0.442659 0.10394
H_ H_ 0.762252 0.885744 0.377435 0.10394
H_ H_ 0.885957 0.919952 0.492511 0.10394
H_ H_ 0.80162 0.908762 0.149402 0.10394
H_ H_ 0.732743 0.952345 0.190244 0.10394
H_ H_ 0.834374 0.552986 0.274467 0.10394
H_ H_ 0.9124 0.982887 0.243549 0.10394
H_ H_ 0.511317 0.890339 0.205233 0.10394
H_ H_ 0.55415 0.821787 0.258184 0.10394
H_ H_ 0.904761 0.762457 0.250541 0.10394
H_ H_ 0.869374 0.827099 0.19195 0.10394
H_ H_ 0.964557 0.550538 0.100546 0.10394
H_ H_ 0.517578 0.622737 0.110563 0.10394
H_ H_ 0.647668 0.512225 0.0984537 0.10394
H_ H_ 0.943708 0.653606 0.397798 0.10394
H_ H_ 0.511917 0.696972 0.449496 0.10394
H_ H_ 0.912532 0.789556 0.0338617 0.10394
H_ H_ 0.841467 0.739863 0.488446 0.10394
H_ H_ 0.735769 0.694825 0.381066 0.10394
H_ H_ 0.69653 0.739246 0.309269 0.10394
H_ H_ 0.832989 0.706264 0.234187 0.10394
H_ H_ 0.879892 0.678708 0.318826 0.10394
H_ H_ 0.784995 0.62696 0.0450824 0.10394
H_ H_ 0.737966 0.617941 0.120411 0.10394
H_ H_ 0.607144 0.582803 0.0113329 0.10394
C_ C_ 0.676927 0.591971 0.298219 0.18167
C_ C_ 0.726117 0.573335 0.283551 -0.15533
C_ C_ 0.736111 0.521822 0.269472 0.02923
C_ C_ 0.703385 0.983429 0.290188 -0.15533
C_ C_ 0.653155 0.506767 0.294636 0.18167
C_ C_ 0.525955 0.634653 0.26936 0.18167
C_ C_ -0.000771268 0.684581 0.247684 -0.15533
C_ C_ 0.518472 0.72649 0.265759 0.02923
C_ C_ 0.538123 0.728924 0.318943 -0.15533
C_ C_ 0.549652 0.683753 0.345965 0.18167
C_ C_ 0.503598 0.548654 0.3674 0.69207
C_ C_ 0.969816 0.00594702 0.367343 0.02923
C_ C_ -0.011445000000000038 0.955453 0.367862 -0.15533
C_ C_ 0.958449 0.917332 0.378156 -0.15533
C_ C_ 0.909993 0.92963 0.39242 0.02923
C_ C_ 0.891346 0.980968 0.39481 -0.15533
C_ C_ 0.920923 0.0209452 0.385044 0.02923
C_ C_ 0.894469 0.567453 0.380273 0.69207
C_ C_ 0.893922 0.834195 0.396643 0.69661
C_ C_ 0.572442 0.807176 0.0920211 0.18167
C_ C_ 0.531601 0.780329 0.0727339 -0.15533
C_ C_ 0.519377 0.77655 0.0194408 0.02923
C_ C_ 0.541579 0.79688 0.487979 -0.15533
C_ C_ 0.595505 0.81338 0.00908636 0.18167
C_ C_ 0.72276 0.773061 0.129342 0.18167
C_ C_ 0.74098 0.740501 0.170197 -0.15533
C_ C_ 0.738961 0.758355 0.220369 0.02923
C_ C_ 0.716797 0.80845 0.230021 -0.15533
C_ C_ 0.691999 0.838389 0.189235 0.18167
C_ C_ 0.747285 0.871589 0.0454016 0.69207
C_ C_ 0.771974 0.877611 0.506347 0.02923
C_ C_ 0.754796 0.872944 0.454247 -0.15533
C_ C_ 0.78122 0.889287 0.415997 -0.15533
C_ C_ 0.830903 0.902285 0.429023 0.02923
C_ C_ 0.851159 0.902449 0.480227 -0.15533
C_ C_ 0.822676 0.888786 0.519569 0.02923
C_ C_ 0.860862 0.882255 0.0668949 0.69207
C_ C_ 0.844173 0.885958 0.331575 0.69661
C_ C_ 0.810742 0.93551 0.17958 0.18167
C_ C_ 0.770824 0.963534 0.203503 -0.15533
C_ C_ 0.78072 0.996764 0.245998 0.02923
C_ C_ 0.829009 0.517357 0.251883 -0.15533
C_ C_ 0.872964 0.977418 0.234281 0.18167
C_ C_ 0.992269 0.849654 0.198671 0.18167
C_ C_ 0.516994 0.816717 0.238668 -0.15533
C_ C_ 0.983929 0.779537 0.250281 0.02923
C_ C_ 0.930438 0.787268 0.237568 -0.15533
C_ C_ 0.910192 0.821648 0.203119 0.18167
C_ C_ 0.988141 0.953033 0.119251 0.69207
C_ C_ 0.525363 0.496019 0.125121 0.02923
C_ C_ 0.507578 0.54761 0.131086 -0.15533
C_ C_ 0.537323 0.585695 0.119546 -0.15533
C_ C_ 0.588141 0.574421 0.106001 0.02923
C_ C_ 0.608494 0.521738 0.107134 -0.15533
C_ C_ 0.577304 0.48334 0.111758 0.02923
C_ C_ 0.594605 0.924098 0.107524 0.69207
C_ C_ 0.600213 0.671249 0.112935 0.69661
C_ C_ 0.937364 0.680453 0.430053 0.18167
C_ C_ 0.979663 0.700114 0.458048 -0.15533
C_ C_ 0.970439 0.739741 0.49639 0.02923
C_ C_ 0.921504 0.756026 1.0103638 -0.15533
C_ C_ 0.880674 0.731125 0.480697 0.18167
C_ C_ 0.757476 0.695818 0.349193 0.18167
C_ C_ 0.73315 0.716125 0.305178 -0.15533
C_ C_ 0.761096 0.724777 0.263778 0.02923
C_ C_ 0.814007 0.707304 0.265828 -0.15533
C_ C_ 0.838114 0.687466 0.31245 0.18167
C_ C_ 0.760663 0.624392 0.452732 0.69207
C_ C_ 0.722571 0.616683 0.991177 0.02923
C_ C_ 0.7452 0.618714 0.0407543 -0.15533
C_ C_ 0.715944 0.617115 0.0815121 -0.15533
C_ C_ 0.663371 0.605884 0.0709151 0.02923
C_ C_ 0.642074 0.602192 0.0196532 -0.15533
C_ C_ 0.671601 0.607667 0.980608 0.02923
C_ C_ 0.650473 0.602507 0.420661 0.69207
C_ C_ 0.655077 0.607752 0.167813 0.69661
C_ C_ 0.870204 0.89031 0.388567 -0.30787
C_ C_ 0.626125 0.615544 0.112923 -0.30787
N_ N_ 0.642092 0.558213 0.303235 -0.32189
N_ N_ 0.548264 0.639405 0.316945 -0.32189
N_ N_ 0.605563 0.821315 0.0594939 -0.32189
N_ N_ 0.694344 0.818311 0.140782 -0.32189
N_ N_ 0.859575 0.943956 0.193342 -0.32189
N_ N_ 0.941404 0.854169 0.183497 -0.32189
N_ N_ 0.890394 0.69557 0.442708 -0.32189
N_ N_ 0.807589 0.677884 0.350712 -0.32189
O_ O_ 0.009077 0.57118 0.410126 -0.63271
O_ O_ 0.538888 0.534036 0.336554 -0.57982
O_ O_ 0.900429 0.596492 0.34214 -0.63271
O_ O_ 0.874054 0.589405 0.418785 -0.57982
O_ O_ 0.746919 0.910403 0.0805935 -0.63271
O_ O_ 0.709209 0.841815 0.0397948 -0.57982
O_ O_ 0.856647 0.842783 0.0947598 -0.63271
O_ O_ 0.878593 0.922194 0.0902753 -0.57982
O_ O_ 0.491851 0.908074 0.0994773 -0.63271
O_ O_ 0.957038 0.95988 0.155809 -0.57982
O_ O_ 0.597791 0.896221 0.149216 -0.63271
O_ O_ 0.629693 0.914085 0.0782901 -0.57982
O_ O_ 0.755761 0.601163 0.406334 -0.63271
O_ O_ 0.795908 0.656556 0.461952 -0.57982
O_ O_ 0.650495 0.641639 0.394295 -0.63271
O_ O_ 0.623834 0.56893 0.40067 -0.57982
F_ F_ 0.927868 0.832361 0.439905 -0.20885
F_ F_ 0.923314 0.812666 0.356011 -0.20885
F_ F_ 0.856232 0.802497 0.400628 -0.20885
F_ F_ 0.810426 0.928675 0.31936 -0.20885
F_ F_ 0.812645 0.845052 0.324451 -0.20885
F_ F_ 0.876856 0.876297 0.29614 -0.20885
F_ F_ 0.566849 0.681906 0.0697991 -0.20885
F_ F_ 0.569895 0.684164 0.152746 -0.20885
F_ F_ 0.636862 0.704587 0.116323 -0.20885
F_ F_ 0.68789 0.565636 0.172801 -0.20885
F_ F_ 0.682489 0.64834 0.191693 -0.20885
F_ F_ 0.620897 0.605019 0.205918 -0.20885
Zn Zn 0.592031 0.589453 0.847823 0.83971
Zn Zn 0.656116 0.850215 0.58788 0.83971
Zn Zn 0.911209 0.913024 0.651585 0.83971
Zn Zn 0.841822 0.653251 0.916216 0.83971
H_ H_ 0.664156 0.642974 0.795251 0.10394
H_ H_ 0.745097 0.60698 0.754544 0.10394
H_ H_ 0.723136 0.945832 0.805274 0.10394
H_ H_ 0.644914 0.49827 0.843867 0.10394
H_ H_ 0.0327702 0.590048 0.749151 0.10394
H_ H_ 0.994747 0.666397 0.69777 0.10394
H_ H_ 0.542048 0.777604 0.819072 0.10394
H_ H_ 0.582458 0.706909 0.872449 0.10394
H_ H_ 0.526195 0.947485 0.846051 0.10394
H_ H_ 0.99047 0.878474 0.878919 0.10394
H_ H_ 0.861822 0.986433 0.91082 0.10394
H_ H_ 0.58285 0.79332 0.631223 0.10394
H_ H_ -0.00320186 0.773694 0.596375 0.10394
H_ H_ 0.547553 0.786646 0.947292 0.10394
H_ H_ 0.603656 0.842558 0.488237 0.10394
H_ H_ 0.707452 0.749325 0.594808 0.10394
H_ H_ 0.747219 0.698947 0.663751 0.10394
H_ H_ 0.73092 0.832983 0.765079 0.10394
H_ H_ 0.685661 0.8793 0.695072 0.10394
H_ H_ 0.730646 0.84814 0.946819 0.10394
H_ H_ 0.782059 0.852954 0.873975 0.10394
H_ H_ 0.899422 0.915639 0.988463 0.10394
H_ H_ 0.811664 0.888752 0.658791 0.10394
H_ H_ 0.734593 0.938814 0.693855 0.10394
H_ H_ 0.837794 0.550969 0.784117 0.10394
H_ H_ 0.908256 1.00387 0.726137 0.10394
H_ H_ 0.513028 0.886142 0.694809 0.10394
H_ H_ 0.55795 0.80419 0.722121 0.10394
H_ H_ 0.913319 0.734467 0.705261 0.10394
H_ H_ 0.869696 0.819131 0.67337 0.10394
H_ H_ 0.959418 0.550773 0.601507 0.10394
H_ H_ 0.511204 0.62298 0.604286 0.10394
H_ H_ 0.638957 0.508529 0.590088 0.10394
H_ H_ 0.952662 0.65281 0.903688 0.10394
H_ H_ 0.519808 0.700332 0.94625 0.10394
H_ H_ 0.914872 0.770782 0.546163 0.10394
H_ H_ 0.841836 0.741634 0.985199 0.10394
H_ H_ 0.728888 0.683869 0.872364 0.10394
H_ H_ 0.695241 0.731582 0.796162 0.10394
H_ H_ 0.844431 0.726315 0.752484 0.10394
H_ H_ 0.88195 0.683644 0.83273 0.10394
H_ H_ 0.775216 0.638861 0.555978 0.10394
H_ H_ 0.727864 0.607386 0.617118 0.10394
H_ H_ 0.600913 0.590216 0.505264 0.10394
C_ C_ 0.678121 0.601428 0.79692 0.18167
C_ C_ 0.723686 0.583576 0.776052 -0.15533
C_ C_ 0.740327 0.531312 0.778461 0.02923
C_ C_ 0.712389 0.98423 0.798562 -0.15533
C_ C_ 0.666253 0.518437 0.820379 0.18167
C_ C_ 0.5276 0.639157 0.771929 0.18167
C_ C_ 0.00378731 0.669891 0.738779 -0.15533
C_ C_ 0.511022 0.726684 0.757402 0.02923
C_ C_ 0.535727 0.738713 0.80716 -0.15533
C_ C_ 0.56033 0.698695 0.835635 0.18167
C_ C_ 0.506337 0.552781 0.861275 0.69207
C_ C_ 0.978644 0.0104349 0.879774 0.02923
C_ C_ -0.0028766 0.959392 0.872833 -0.15533
C_ C_ 0.971286 0.917995 0.882034 -0.15533
C_ C_ 0.920599 0.92665 0.889301 0.02923
C_ C_ 0.898935 0.978695 0.901214 -0.15533
C_ C_ 0.9274 0.0198359 0.89582 0.02923
C_ C_ 0.89654 0.568802 0.884318 0.69207
C_ C_ 0.915426 0.82741 0.883611 0.69661
C_ C_ 0.569702 0.797537 0.592039 0.18167
C_ C_ 0.524806 0.777258 0.572502 -0.15533
C_ C_ 0.509599 0.778312 0.521313 0.02923
C_ C_ 0.55067 0.795555 0.987692 -0.15533
C_ C_ 0.584396 0.820611 0.511242 0.18167
C_ C_ 0.714806 0.768024 0.630942 0.18167
C_ C_ 0.742743 0.740041 0.670544 -0.15533
C_ C_ 0.748908 0.7615 0.721229 0.02923
C_ C_ 0.730549 0.812753 0.727258 -0.15533
C_ C_ 0.702291 0.83891 0.687601 0.18167
C_ C_ 0.73532 0.871711 0.547558 0.69207
C_ C_ 0.784159 0.869317 1.0055637 0.02923
C_ C_ 0.769466 0.857493 0.953854 -0.15533
C_ C_ 0.800511 0.862527 0.913315 -0.15533
C_ C_ 0.847661 0.884496 0.925306 0.02923
C_ C_ 0.862962 0.896688 0.978095 -0.15533
C_ C_ 0.833089 0.888871 0.0171697 0.02923
C_ C_ 0.848513 0.885106 0.571118 0.69207
C_ C_ 0.864337 0.884938 0.827685 0.69661
C_ C_ 0.814986 0.922623 0.683359 0.18167
C_ C_ 0.773059 0.948139 0.706627 -0.15533
C_ C_ 0.78129 -0.007726000000000011 0.740104 0.02923
C_ C_ 0.829575 0.523532 0.754255 -0.15533
C_ C_ 0.871094 0.985454 0.720816 0.18167
C_ C_ 0.990667 0.848812 0.702622 0.18167
C_ C_ 0.517422 0.812075 0.720947 -0.15533
C_ C_ 0.984707 0.764651 0.729047 0.02923
C_ C_ 0.932824 0.768162 0.708996 -0.15533
C_ C_ 0.910427 0.814279 0.687863 0.18167
C_ C_ 0.985199 0.948267 0.622765 0.69207
C_ C_ 0.517831 0.493502 0.618994 0.02923
C_ C_ 0.498404 0.544881 0.61459 -0.15533
C_ C_ 0.529171 0.58309 0.607085 -0.15533
C_ C_ 0.5803 0.570614 0.60024 0.02923
C_ C_ 0.59843 0.52045 0.60318 -0.15533
C_ C_ 0.570802 0.4806 0.611955 0.02923
C_ C_ 0.601987 0.93361 0.612674 0.69207
C_ C_ 0.598083 0.667822 0.606311 0.69661
C_ C_ 0.944253 0.678321 0.937021 0.18167
C_ C_ 0.983619 0.69709 0.969972 -0.15533
C_ C_ 0.972219 0.740528 1.00147538 0.02923
C_ C_ 0.921826 0.747749 0.512742 -0.15533
C_ C_ 0.882309 0.73114 0.980632 0.18167
C_ C_ 0.754945 0.693043 0.84625 0.18167
C_ C_ 0.73385 0.717394 0.800476 -0.15533
C_ C_ 0.76684 0.732556 0.768118 0.02923
C_ C_ 0.819427 0.716609 0.778786 -0.15533
C_ C_ 0.838775 0.691609 0.82172 0.18167
C_ C_ 0.755936 0.620151 0.948875 0.69207
C_ C_ 0.725465 0.616203 0.491589 0.02923
C_ C_ 0.7377 0.629091 0.543017 -0.15533
C_ C_ 0.711451 0.612396 0.580614 -0.15533
C_ C_ 0.661628 0.599589 0.568544 0.02923
C_ C_ 0.641718 0.594298 0.515423 -0.15533
C_ C_ 0.673832 0.601962 0.47604 0.02923
C_ C_ 0.645583 0.613151 0.93006 0.69207
C_ C_ 0.644722 0.604604 0.663636 0.69661
C_ C_ 0.887207 0.881412 0.883849 -0.30787
C_ C_ 0.6216 0.609691 0.607628 -0.30787
N_ N_ 0.650323 0.568737 0.815329 -0.32189
N_ N_ 0.556304 0.649976 0.817167 -0.32189
N_ N_ 0.59853 0.820257 0.561307 -0.32189
N_ N_ 0.691406 0.816062 0.641208 -0.32189
N_ N_ 0.861061 0.943316 0.689303 -0.32189
N_ N_ 0.939804 0.852751 0.684599 -0.32189
N_ N_ 0.895257 0.690617 0.947133 -0.32189
N_ N_ 0.806039 0.678584 0.853745 -0.32189
O_ O_ 1.0137652 0.578048 0.901337 -0.63271
O_ O_ 0.55056 0.540084 0.843178 -0.57982
O_ O_ 0.901329 0.597066 0.846294 -0.63271
O_ O_ 0.871432 0.588726 0.922798 -0.57982
O_ O_ 0.743454 0.893603 0.593278 -0.63271
O_ O_ 0.697877 0.842348 0.53891 -0.57982
O_ O_ 0.860166 0.841559 0.591065 -0.63271
O_ O_ 0.872017 0.924012 0.593956 -0.57982
O_ O_ 0.490918 0.913576 0.593342 -0.63271
O_ O_ 0.956674 0.958202 0.660827 -0.57982
O_ O_ 0.59812 0.906354 0.652493 -0.63271
O_ O_ 0.638653 0.916964 0.583531 -0.57982
O_ O_ 0.753073 0.588579 0.907322 -0.63271
O_ O_ 0.791568 0.652497 0.955609 -0.57982
O_ O_ 0.652568 0.650792 0.901939 -0.63271
O_ O_ 0.606828 0.587924 0.915257 -0.57982
F_ F_ 0.947687 0.826632 0.927875 -0.20885
F_ F_ 0.942371 0.813989 0.843247 -0.20885
F_ F_ 0.887628 0.788537 0.885413 -0.20885
F_ F_ 0.834129 0.929727 0.823197 -0.20885
F_ F_ 0.83712 0.843673 0.811342 -0.20885
F_ F_ 0.900852 0.885546 0.795249 -0.20885
F_ F_ 0.564486 0.672923 0.563888 -0.20885
F_ F_ 0.57176 0.685624 0.646241 -0.20885
F_ F_ 0.635276 0.700247 0.599984 -0.20885
F_ F_ 0.679737 0.562878 0.6703 -0.20885
F_ F_ 0.669864 0.644578 0.683318 -0.20885
F_ F_ 0.607234 0.599684 0.695459 -0.20885
