_cell_length_a 26.508
_cell_length_b 26.37200000322088
_cell_length_c 26.311999743092066
_cell_angle_alpha 93.74100058972084
_cell_angle_beta 96.04100104955006
_cell_angle_gamma 83.6869992558723
_symmetry_space_group_name_H-M         'P 1'
_symmetry_Int_Tables_number            1
loop_
_symmetry_equiv_pos_as_xyz
   'x, y, z'
                         
loop_
_atom_site_label
_atom_site_type_symbol
_atom_site_fract_x 
_atom_site_fract_y
_atom_site_fract_z
_atom_site_charge
Zn Zn 0.092504 0.0872028 0.345236 0.83971
Zn Zn 0.159151 0.342838 0.0830135 0.83971
Zn Zn 0.405064 0.405907 0.151506 0.83971
Zn Zn 0.343237 0.155048 0.420906 0.83971
H_ H_ 0.171768 0.132246 0.298319 0.10394
H_ H_ 0.253756 0.0992467 0.268102 0.10394
H_ H_ 0.201943 0.444821 0.275057 0.10394
H_ H_ 0.149526 0.986128 0.336121 0.10394
H_ H_ 0.539502 0.0992468 0.256109 0.10394
H_ H_ 0.498331 0.168471 0.206981 0.10394
H_ H_ 0.0295728 0.269657 0.339323 0.10394
H_ H_ 0.0774287 0.19417 0.380056 0.10394
H_ H_ 0.035445 0.443466 0.355752 0.10394
H_ H_ 0.47809 0.379393 0.365962 0.10394
H_ H_ 0.35371 0.491602 0.404568 0.10394
H_ H_ 0.0804943 0.29899 0.128142 0.10394
H_ H_ 0.502321 0.271061 0.103977 0.10394
H_ H_ 0.0396975 0.275208 0.449575 0.10394
H_ H_ 0.11962 0.314223 0.980998 0.10394
H_ H_ 0.230328 0.248294 0.0944074 0.10394
H_ H_ 0.269384 0.199551 0.171531 0.10394
H_ H_ 0.215397 0.325202 0.266565 0.10394
H_ H_ 0.170085 0.367299 0.19468 0.10394
H_ H_ 0.220026 0.359089 0.441159 0.10394
H_ H_ 0.268601 0.383191 0.376165 0.10394
H_ H_ 0.398687 0.397965 0.490977 0.10394
H_ H_ 0.300696 0.387078 0.159206 0.10394
H_ H_ 0.224589 0.436742 0.191095 0.10394
H_ H_ 0.335826 0.0438185 0.283006 0.10394
H_ H_ 0.39574 0.493598 0.230255 0.10394
H_ H_ 0.0174063 0.376104 0.189083 0.10394
H_ H_ 0.0502049 0.313322 0.250703 0.10394
H_ H_ 0.418715 0.229589 0.208804 0.10394
H_ H_ 0.373851 0.308545 0.178775 0.10394
H_ H_ 0.463207 0.0398891 0.127973 0.10394
H_ H_ 0.0130616 0.119199 0.101424 0.10394
H_ H_ 0.141711 0.0057982 0.0864069 0.10394
H_ H_ 0.444179 0.166044 0.399625 0.10394
H_ H_ 0.0144959 0.190134 0.453245 0.10394
H_ H_ 0.406484 0.280669 0.0366945 0.10394
H_ H_ 0.341923 0.246364 0.489325 0.10394
H_ H_ 0.243045 0.193287 0.380545 0.10394
H_ H_ 0.200499 0.241063 0.310891 0.10394
H_ H_ 0.344424 0.223619 0.247147 0.10394
H_ H_ 0.386814 0.184782 0.331276 0.10394
H_ H_ 0.287559 0.128296 0.0553233 0.10394
H_ H_ 0.228154 0.127837 0.118586 0.10394
H_ H_ 0.110877 0.100604 0.00497397 0.10394
C_ C_ 0.181416 0.0928457 0.293876 0.18167
C_ C_ 0.228958 0.0735545 0.281083 -0.15533
C_ C_ 0.239694 0.0215039 0.273378 0.02923
C_ C_ 0.194781 0.48709 0.279732 -0.15533
C_ C_ 0.164864 0.00987094 0.313142 0.18167
C_ C_ 0.0285678 0.140679 0.270406 0.18167
C_ C_ 0.514014 0.178258 0.246688 -0.15533
C_ C_ 0.0049554 0.229901 0.26895 0.02923
C_ C_ 0.0335169 0.235026 0.3174 -0.15533
C_ C_ 0.0568983 0.192896 0.341933 0.18167
C_ C_ 0.0130174 0.0496456 0.369808 0.69207
C_ C_ 0.477192 0.505362 0.379442 0.02923
C_ C_ 0.496619 0.454536 0.380632 -0.15533
C_ C_ 0.46315 0.416501 0.379757 -0.15533
C_ C_ 0.411713 0.427693 0.391261 0.02923
C_ C_ 0.394125 0.479808 0.398682 -0.15533
C_ C_ 0.423822 0.518262 0.385287 0.02923
C_ C_ 0.395039 0.0685653 0.383604 0.69207
C_ C_ 0.397149 0.329602 0.382782 0.69661
C_ C_ 0.0687 0.29908 0.0880601 0.18167
C_ C_ 0.0232681 0.283017 0.0681862 -0.15533
C_ C_ 0.0111177 0.276334 0.0148793 0.02923
C_ C_ 0.0456123 0.285205 0.490175 -0.15533
C_ C_ 0.0953257 0.298683 0.00513517 0.18167
C_ C_ 0.226703 0.264127 0.132582 0.18167
C_ C_ 0.249223 0.237384 0.175246 -0.15533
C_ C_ 0.244585 0.258333 0.224589 0.02923
C_ C_ 0.217944 0.307666 0.228782 -0.15533
C_ C_ 0.193491 0.332126 0.187011 0.18167
C_ C_ 0.238388 0.362095 0.0404634 0.69207
C_ C_ 0.27712 0.372149 0.505636 0.02923
C_ C_ 0.257624 0.371151 0.45236 -0.15533
C_ C_ 0.288236 0.381606 0.414401 -0.15533
C_ C_ 0.338804 0.388841 0.425561 0.02923
C_ C_ 0.360567 0.390497 0.477815 -0.15533
C_ C_ 0.330913 0.380566 0.517042 0.02923
C_ C_ 0.348459 0.37381 0.0672398 0.69207
C_ C_ 0.347509 0.391655 0.32884 0.69661
C_ C_ 0.306792 0.421871 0.181213 0.18167
C_ C_ 0.262228 0.451387 0.200887 -0.15533
C_ C_ 0.26908 0.494352 0.233337 0.02923
C_ C_ 0.329094 0.0177781 0.251359 -0.15533
C_ C_ 0.357514 0.48389 0.216987 0.18167
C_ C_ 0.488968 0.352967 0.204581 0.18167
C_ C_ 0.00908943 0.313879 0.233206 -0.15533
C_ C_ 0.484489 0.271184 0.24176 0.02923
C_ C_ 0.436685 0.265918 0.214895 -0.15533
C_ C_ 0.413073 0.309222 0.191188 0.18167
C_ C_ 0.476975 0.449056 0.111203 0.69207
C_ C_ 0.0173298 0.991002 0.108716 0.02923
C_ C_ 2.77077e-05 0.0427955 0.103369 -0.15533
C_ C_ 0.0317858 0.0787994 0.100006 -0.15533
C_ C_ 0.0849625 0.066792 0.0976148 0.02923
C_ C_ 0.101895 0.0158633 0.0952621 -0.15533
C_ C_ 0.0703996 0.977237 0.102292 0.02923
C_ C_ 0.1045 0.425194 0.105507 0.69207
C_ C_ 0.10091 0.163365 0.113052 0.69661
C_ C_ 0.43898 0.188495 0.433691 0.18167
C_ C_ 0.48124 0.210306 0.461312 -0.15533
C_ C_ 0.47221 0.248283 0.498947 0.02923
C_ C_ 0.418465 0.250396 0.012746 -0.15533
C_ C_ 0.383451 0.232422 0.486946 0.18167
C_ C_ 0.265033 0.20017 0.352415 0.18167
C_ C_ 0.242055 0.226192 0.311066 -0.15533
C_ C_ 0.269815 0.230785 0.270377 0.02923
C_ C_ 0.321585 0.213105 0.275079 -0.15533
C_ C_ 0.34427 0.189103 0.320928 0.18167
C_ C_ 0.260897 0.126619 0.456676 0.69207
C_ C_ 0.229871 0.118194 0.990937 0.02923
C_ C_ 0.2472 0.120916 0.043805 -0.15533
C_ C_ 0.216925 0.113629 0.0823821 -0.15533
C_ C_ 0.16735 0.101314 0.0694015 0.02923
C_ C_ 0.151062 0.10127 0.0156697 -0.15533
C_ C_ 0.179278 0.106998 0.9752 0.02923
C_ C_ 0.149496 0.114566 0.426534 0.69207
C_ C_ 0.147633 0.0984947 0.164976 0.69661
C_ C_ 0.374413 0.384966 0.382811 -0.30787
C_ C_ 0.125495 0.106765 0.109232 -0.30787
N_ N_ 0.150582 0.0621203 0.311457 -0.32189
N_ N_ 0.0550712 0.146348 0.315932 -0.32189
N_ N_ 0.103878 0.307712 0.0566651 -0.32189
N_ N_ 0.197029 0.3091 0.140004 -0.32189
N_ N_ 0.353956 0.437762 0.192982 -0.32189
N_ N_ 0.439079 0.350402 0.186011 -0.32189
N_ N_ 0.393878 0.19756 0.450328 -0.32189
N_ N_ 0.313674 0.183082 0.357496 -0.32189
O_ O_ 0.501932 0.0858819 0.399327 -0.63271
O_ O_ 0.0483948 0.0395557 0.339733 -0.57982
O_ O_ 0.402075 0.0964285 0.345907 -0.63271
O_ O_ 0.37336 0.0896637 0.423929 -0.57982
O_ O_ 0.239116 0.392694 0.0818532 -0.63271
O_ O_ 0.201142 0.329787 0.0345694 -0.57982
O_ O_ 0.341495 0.336811 0.0953485 -0.63271
O_ O_ 0.377704 0.408982 0.0856682 -0.57982
O_ O_ 0.999437 0.406148 0.0982074 -0.63271
O_ O_ 0.450289 0.452137 0.148787 -0.57982
O_ O_ 0.101547 0.398359 0.145341 -0.63271
O_ O_ 0.136403 0.406466 0.0722239 -0.57982
O_ O_ 0.259068 0.0947476 0.415328 -0.63271
O_ O_ 0.294094 0.160836 0.461794 -0.57982
O_ O_ 0.159111 0.149987 0.395407 -0.63271
O_ O_ 0.112002 0.0862002 0.411182 -0.57982
F_ F_ 0.430437 0.31218 0.422865 -0.20885
F_ F_ 0.424306 0.318618 0.341542 -0.20885
F_ F_ 0.365816 0.292138 0.372728 -0.20885
F_ F_ 0.315081 0.437029 0.328198 -0.20885
F_ F_ 0.317772 0.354343 0.310806 -0.20885
F_ F_ 0.382455 0.390434 0.291547 -0.20885
F_ F_ 0.0702867 0.175677 0.0688787 -0.20885
F_ F_ 0.0661378 0.17101 0.150013 -0.20885
F_ F_ 0.138042 0.196253 0.12094 -0.20885
F_ F_ 0.181858 0.054871 0.163961 -0.20885
F_ F_ 0.173066 0.135514 0.190179 -0.20885
F_ F_ 0.110447 0.0894213 0.197263 -0.20885
Zn Zn 0.0826523 0.090499 0.843981 0.83971
Zn Zn 0.160124 0.351554 0.585842 0.83971
Zn Zn 0.406592 0.407822 0.655947 0.83971
Zn Zn 0.343857 0.149237 0.911118 0.83971
H_ H_ 0.166073 0.132957 0.804466 0.10394
H_ H_ 0.241716 0.0999548 0.762918 0.10394
H_ H_ 0.209679 0.446383 0.780447 0.10394
H_ H_ 0.138188 0.986489 0.846362 0.10394
H_ H_ 0.528068 0.0934574 0.760538 0.10394
H_ H_ 0.493638 0.162085 0.709109 0.10394
H_ H_ 0.0388212 0.279367 0.835512 0.10394
H_ H_ 0.0813898 0.201313 0.876235 0.10394
H_ H_ 0.02973 0.449726 0.868353 0.10394
H_ H_ 0.470616 0.373193 0.848964 0.10394
H_ H_ 0.351591 0.477583 0.905145 0.10394
H_ H_ 0.0774982 0.310705 0.633625 0.10394
H_ H_ 0.504601 0.272528 0.596035 0.10394
H_ H_ 0.0415539 0.273273 0.94217 0.10394
H_ H_ 0.113653 0.318989 0.483865 0.10394
H_ H_ 0.229919 0.261404 0.594176 0.10394
H_ H_ 0.279372 0.219261 0.668381 0.10394
H_ H_ 0.195486 0.325086 0.769057 0.10394
H_ H_ 0.160084 0.370742 0.69548 0.10394
H_ H_ 0.209187 0.374585 0.940128 0.10394
H_ H_ 0.262258 0.388094 0.874525 0.10394
H_ H_ 0.395911 0.383664 0.982215 0.10394
H_ H_ 0.307101 0.392689 0.661697 0.10394
H_ H_ 0.230711 0.450329 0.686054 0.10394
H_ H_ 0.333969 0.0433498 0.792338 0.10394
H_ H_ 0.403414 0.501148 0.727684 0.10394
H_ H_ 0.0139751 0.401939 0.698802 0.10394
H_ H_ 0.0581271 0.330881 0.746046 0.10394
H_ H_ 0.406279 0.236092 0.724053 0.10394
H_ H_ 0.370785 0.306602 0.676046 0.10394
H_ H_ 0.459001 0.0610495 0.613057 0.10394
H_ H_ 0.0136617 0.124956 0.615524 0.10394
H_ H_ 0.142275 0.00998349 0.599101 0.10394
H_ H_ 0.44673 0.165553 0.893243 0.10394
H_ H_ 0.00993821 0.196621 0.946301 0.10394
H_ H_ 0.411308 0.287198 0.535312 0.10394
H_ H_ 0.341815 0.233133 -0.005603000000000025 0.10394
H_ H_ 0.241325 0.197297 0.883164 0.10394
H_ H_ 0.199005 0.243199 0.808682 0.10394
H_ H_ 0.336633 0.210421 0.733314 0.10394
H_ H_ 0.378909 0.177058 0.819194 0.10394
H_ H_ 0.277595 0.140003 0.563299 0.10394
H_ H_ 0.231959 0.11721 0.624341 0.10394
H_ H_ 0.105407 0.0959337 0.507059 0.10394
C_ C_ 0.17352 0.0918886 0.797681 0.18167
C_ C_ 0.219929 0.0730411 0.780907 -0.15533
C_ C_ 0.234151 0.0193761 0.780498 0.02923
C_ C_ 0.200912 0.487602 0.783183 -0.15533
C_ C_ 0.159589 0.0103462 0.821837 0.18167
C_ C_ 0.0350539 0.147321 0.766965 0.18167
C_ C_ 0.507402 0.171773 0.7488 -0.15533
C_ C_ 0.0164668 0.237777 0.76408 0.02923
C_ C_ 0.0407376 0.241901 0.815108 -0.15533
C_ C_ 0.0593376 0.197674 0.840667 0.18167
C_ C_ 0.00626792 0.051285 0.865806 0.69207
C_ C_ 0.467475 0.501899 0.868778 0.02923
C_ C_ 0.486307 0.450569 0.857255 -0.15533
C_ C_ 0.452865 0.411797 0.856982 -0.15533
C_ C_ 0.406603 0.420257 0.879839 0.02923
C_ C_ 0.388654 0.471108 0.894167 -0.15533
C_ C_ 0.416805 0.512152 0.884341 0.02923
C_ C_ 0.405503 0.0684458 0.896334 0.69207
C_ C_ 0.399914 0.321956 0.883058 0.69661
C_ C_ 0.0630259 0.313179 0.593703 0.18167
C_ C_ 0.0212048 0.287636 0.576284 -0.15533
C_ C_ 0.0127231 0.273284 0.524695 0.02923
C_ C_ 0.0492886 0.283299 0.983724 -0.15533
C_ C_ 0.0869466 0.311729 0.509064 0.18167
C_ C_ 0.226325 0.276071 0.633371 0.18167
C_ C_ 0.250077 0.249287 0.675517 -0.15533
C_ C_ 0.240528 0.266349 0.723807 0.02923
C_ C_ 0.204539 0.30925 0.730932 -0.15533
C_ C_ 0.183777 0.336296 0.68998 0.18167
C_ C_ 0.238384 0.370721 0.542647 0.69207
C_ C_ 0.273352 0.370222 0.00197007 0.02923
C_ C_ 0.252631 0.368169 0.950168 -0.15533
C_ C_ 0.282655 0.3795 0.911816 -0.15533
C_ C_ 0.335175 0.3821 0.922135 0.02923
C_ C_ 0.357102 0.379657 0.974033 -0.15533
C_ C_ 0.326368 0.374817 0.0141834 0.02923
C_ C_ 0.354833 0.377683 0.570374 0.69207
C_ C_ 0.345411 0.378736 0.822527 0.69661
C_ C_ 0.311313 0.43152 0.679625 0.18167
C_ C_ 0.268557 0.459028 0.701305 -0.15533
C_ C_ 0.279177 0.496503 0.740836 0.02923
C_ C_ 0.326675 0.014161 0.764352 -0.15533
C_ C_ 0.366925 0.488305 0.723536 0.18167
C_ C_ 0.487219 0.342992 0.702095 0.18167
C_ C_ 0.0180762 0.329832 0.734163 -0.15533
C_ C_ 0.479514 0.264521 0.74368 0.02923
C_ C_ 0.42853 0.26714 0.723628 -0.15533
C_ C_ 0.409137 0.306814 0.69191 0.18167
C_ C_ 0.488208 0.446704 0.619959 0.69207
C_ C_ 0.0173353 0.995578 0.615323 0.02923
C_ C_ -0.0006396 0.0469382 0.619944 -0.15533
C_ C_ 0.0300285 0.0854751 0.612795 -0.15533
C_ C_ 0.0818783 0.0718391 0.607858 0.02923
C_ C_ 0.100982 0.0213351 0.60125 -0.15533
C_ C_ 0.0701329 0.982113 0.60935 0.02923
C_ C_ 0.0955927 0.432722 0.607947 0.69207
C_ C_ 0.100173 0.163657 0.611314 0.69661
C_ C_ 0.441017 0.181969 0.931575 0.18167
C_ C_ 0.481121 0.200915 0.964029 -0.15533
C_ C_ 0.470222 0.238977 1.00180653 0.02923
C_ C_ 0.422656 0.255941 0.51612 -0.15533
C_ C_ 0.380082 0.226663 0.982962 0.18167
C_ C_ 0.264209 0.204011 0.851187 0.18167
C_ C_ 0.240805 0.232686 0.810101 -0.15533
C_ C_ 0.267476 0.240453 0.768453 0.02923
C_ C_ 0.31823 0.214119 0.768174 -0.15533
C_ C_ 0.340915 0.191213 0.814573 0.18167
C_ C_ 0.263817 0.126049 0.952952 0.69207
C_ C_ 0.222542 0.12447 0.497192 0.02923
C_ C_ 0.241873 0.128125 0.548291 -0.15533
C_ C_ 0.212384 0.11668 0.584788 -0.15533
C_ C_ 0.162794 0.102933 0.572168 0.02923
C_ C_ 0.144216 0.102292 0.519836 -0.15533
C_ C_ 0.172308 0.111541 0.480276 0.02923
C_ C_ 0.153818 0.112578 0.923227 0.69207
C_ C_ 0.15094 0.103489 0.667634 0.69661
C_ C_ 0.371217 0.377309 0.878355 -0.30787
C_ C_ 0.124409 0.108103 0.611426 -0.30787
N_ N_ 0.143549 0.0613113 0.816152 -0.32189
N_ N_ 0.0538959 0.151863 0.817017 -0.32189
N_ N_ 0.0962585 0.324815 0.559771 -0.32189
N_ N_ 0.193316 0.317499 0.642273 -0.32189
N_ N_ 0.358562 0.445527 0.694485 -0.32189
N_ N_ 0.437496 0.346041 0.686419 -0.32189
N_ N_ 0.391319 0.191939 0.943011 -0.32189
N_ N_ 0.310862 0.178835 0.850146 -0.32189
O_ O_ 0.508472 0.0860353 0.901655 -0.63271
O_ O_ 0.0440535 0.0394417 0.836012 -0.57982
O_ O_ 0.400795 0.091691 0.853579 -0.63271
O_ O_ 0.378434 0.088826 0.931297 -0.57982
O_ O_ 0.249407 0.388814 0.587559 -0.63271
O_ O_ 0.201961 0.342342 0.533521 -0.57982
O_ O_ 0.353212 0.33635 0.5952 -0.63271
O_ O_ 0.384745 0.41339 0.588997 -0.57982
O_ O_ 0.986622 0.419899 0.598867 -0.63271
O_ O_ 0.452909 0.456947 0.654687 -0.57982
O_ O_ 0.0929664 0.412431 0.653557 -0.63271
O_ O_ 0.135558 0.416651 0.583053 -0.57982
O_ O_ 0.265105 0.0941274 0.911797 -0.63271
O_ O_ 0.296832 0.160648 0.959281 -0.57982
O_ O_ 0.161338 0.15189 0.896434 -0.63271
O_ O_ 0.113559 0.0888805 0.908765 -0.57982
F_ F_ 0.439887 0.322266 0.922818 -0.20885
F_ F_ 0.422538 0.303273 0.839203 -0.20885
F_ F_ 0.366898 0.286797 0.891706 -0.20885
F_ F_ 0.311796 0.420617 0.814744 -0.20885
F_ F_ 0.321443 0.335391 0.807445 -0.20885
F_ F_ 0.381546 0.376742 0.786817 -0.20885
F_ F_ 0.0672978 0.174456 0.568267 -0.20885
F_ F_ 0.0745328 0.180701 0.655084 -0.20885
F_ F_ 0.133373 0.201951 0.607394 -0.20885
F_ F_ 0.188598 0.0631027 0.67077 -0.20885
F_ F_ 0.174463 0.142659 0.688556 -0.20885
F_ F_ 0.116753 0.0936965 0.701258 -0.20885
Zn Zn 0.0903973 0.587894 0.345397 0.83971
Zn Zn 0.159942 0.839024 0.0815782 0.83971
Zn Zn 0.409062 0.91251 0.155545 0.83971
Zn Zn 0.342527 0.660514 0.41308 0.83971
H_ H_ 0.16851 0.630521 0.301474 0.10394
H_ H_ 0.247764 0.596991 0.259434 0.10394
H_ H_ 0.219401 0.949454 0.293825 0.10394
H_ H_ 0.123673 0.482675 0.310958 0.10394
H_ H_ 0.512074 0.589861 0.258752 0.10394
H_ H_ 0.455679 0.663637 0.215757 0.10394
H_ H_ 0.0255749 0.770892 0.338511 0.10394
H_ H_ 0.069366 0.696424 0.381486 0.10394
H_ H_ 0.0395143 0.94294 0.367169 0.10394
H_ H_ 0.47184 0.876448 0.342571 0.10394
H_ H_ 0.356356 0.983987 0.40543 0.10394
H_ H_ 0.0829476 0.796344 0.126419 0.10394
H_ H_ 0.505502 0.767644 0.102752 0.10394
H_ H_ 0.032488 0.799203 0.442704 0.10394
H_ H_ 0.120298 0.815463 0.980626 0.10394
H_ H_ 0.219734 0.749839 0.0947962 0.10394
H_ H_ 0.250281 0.695763 0.167282 0.10394
H_ H_ 0.208249 0.82675 0.269831 0.10394
H_ H_ 0.176443 0.876526 0.194781 0.10394
H_ H_ 0.220668 0.872722 0.443649 0.10394
H_ H_ 0.271181 0.898687 0.382977 0.10394
H_ H_ 0.402562 0.896896 0.488523 0.10394
H_ H_ 0.308555 0.90442 0.153047 0.10394
H_ H_ 0.234 0.950683 0.196172 0.10394
H_ H_ 0.32347 0.540998 0.26934 0.10394
H_ H_ 0.407373 0.003249999999999975 0.232845 0.10394
H_ H_ 0.0136941 0.889484 0.20229 0.10394
H_ H_ 0.0529122 0.808153 0.242481 0.10394
H_ H_ 0.395215 0.74901 0.236316 0.10394
H_ H_ 0.360255 0.830573 0.195646 0.10394
H_ H_ 0.456453 0.553814 0.1087 0.10394
H_ H_ 0.0197778 0.61623 0.0921557 0.10394
H_ H_ 0.149903 0.507827 0.0885407 0.10394
H_ H_ 0.442753 0.675045 0.383691 0.10394
H_ H_ 0.0139537 0.706258 0.440276 0.10394
H_ H_ 0.418515 0.782904 0.0423975 0.10394
H_ H_ 0.352866 0.742708 0.49481 0.10394
H_ H_ 0.24062 0.728039 0.398027 0.10394
H_ H_ 0.193138 0.75938 0.321349 0.10394
H_ H_ 0.318696 0.69583 0.234384 0.10394
H_ H_ 0.363291 0.665178 0.311857 0.10394
H_ H_ 0.277559 0.638172 0.0473417 0.10394
H_ H_ 0.230388 0.622425 0.112579 0.10394
H_ H_ 0.103327 0.593267 0.00121437 0.10394
C_ C_ 0.176937 0.591723 0.293999 0.18167
C_ C_ 0.219789 0.573076 0.270947 -0.15533
C_ C_ 0.226181 0.519436 0.261502 0.02923
C_ C_ 0.207684 0.990537 0.293264 -0.15533
C_ C_ 0.148923 0.508232 0.296281 0.18167
C_ C_ 0.0314287 0.639606 0.266286 0.18167
C_ C_ 0.485748 0.668672 0.248971 -0.15533
C_ C_ 0.0077946 0.73141 0.266543 0.02923
C_ C_ 0.0348035 0.736412 0.315335 -0.15533
C_ C_ 0.0543078 0.693502 0.34036 0.18167
C_ C_ 0.00869848 0.546822 0.358091 0.69207
C_ C_ 0.47115 0.0048202 0.364977 0.02923
C_ C_ 0.485498 0.953483 0.346945 -0.15533
C_ C_ 0.459676 0.914651 0.357099 -0.15533
C_ C_ 0.414387 0.924698 0.383748 0.02923
C_ C_ 0.395973 0.975862 0.395538 -0.15533
C_ C_ 0.423045 0.0171514 0.386037 0.02923
C_ C_ 0.400386 0.571695 0.382568 0.69207
C_ C_ 0.400245 0.827744 0.385107 0.69661
C_ C_ 0.0714845 0.794426 0.0849259 0.18167
C_ C_ 0.0257627 0.780669 0.0639795 -0.15533
C_ C_ 0.0157213 0.770909 0.0116369 0.02923
C_ C_ 0.0423088 0.79922 0.485947 -0.15533
C_ C_ 0.0947716 0.805324 0.00336598 0.18167
C_ C_ 0.219605 0.767372 0.134829 0.18167
C_ C_ 0.233796 0.737236 0.175562 -0.15533
C_ C_ 0.229543 0.757807 0.22651 0.02923
C_ C_ 0.211587 0.808215 0.232383 -0.15533
C_ C_ 0.191949 0.836764 0.189648 0.18167
C_ C_ 0.240658 0.860558 0.0437326 0.69207
C_ C_ 0.282624 0.867769 0.506741 0.02923
C_ C_ 0.261062 0.873735 0.455788 -0.15533
C_ C_ 0.290642 0.887197 0.417798 -0.15533
C_ C_ 0.342133 0.892493 0.427175 0.02923
C_ C_ 0.364312 0.888503 0.477286 -0.15533
C_ C_ 0.336137 0.879258 0.517865 0.02923
C_ C_ 0.353619 0.876713 0.0686708 0.69207
C_ C_ 0.348149 0.88008 0.326371 0.69661
C_ C_ 0.314353 0.935829 0.18112 0.18167
C_ C_ 0.272786 0.960388 0.207426 -0.15533
C_ C_ 0.280591 1.000378067 0.241923 0.02923
C_ C_ 0.316564 0.51268 0.238264 -0.15533
C_ C_ 0.36954 0.991029 0.227721 0.18167
C_ C_ 0.48507 0.844378 0.203351 0.18167
C_ C_ 0.0121751 0.815363 0.231807 -0.15533
C_ C_ 0.475524 0.763752 0.23664 0.02923
C_ C_ 0.420528 0.772431 0.221894 -0.15533
C_ C_ 0.401463 0.818392 0.199455 0.18167
C_ C_ 0.492272 0.944 0.133548 0.69207
C_ C_ 0.0276299 0.490698 0.111999 0.02923
C_ C_ 0.00677763 0.540953 0.104964 -0.15533
C_ C_ 0.0377346 0.578049 0.0938647 -0.15533
C_ C_ 0.0891383 0.569868 0.0924787 0.02923
C_ C_ 0.109128 0.517493 0.091162 -0.15533
C_ C_ 0.0805793 0.47839 0.10146 0.02923
C_ C_ 0.0945774 0.922723 0.102102 0.69207
C_ C_ 0.10138 0.668318 0.100915 0.69661
C_ C_ 0.440762 0.689174 0.423815 0.18167
C_ C_ 0.483941 0.704807 0.452782 -0.15533
C_ C_ 0.477615 0.74161 0.493509 0.02923
C_ C_ 0.424647 0.753236 0.0125146 -0.15533
C_ C_ 0.390756 0.728982 0.486882 0.18167
C_ C_ 0.258936 0.72345 0.36178 0.18167
C_ C_ 0.230898 0.739416 0.318544 -0.15533
C_ C_ 0.253866 0.734468 0.272091 0.02923
C_ C_ 0.30309 0.707913 0.269976 -0.15533
C_ C_ 0.328596 0.688226 0.315435 0.18167
C_ C_ 0.263698 0.634121 0.451037 0.69207
C_ C_ 0.222176 0.623758 0.983632 0.02923
C_ C_ 0.239478 0.629667 0.0356538 -0.15533
C_ C_ 0.209884 0.621055 0.072866 -0.15533
C_ C_ 0.161784 0.606221 0.0619814 0.02923
C_ C_ 0.142398 0.601802 0.0110936 -0.15533
C_ C_ 0.173334 0.610522 0.971039 0.02923
C_ C_ 0.158326 0.612573 0.420467 0.69207
C_ C_ 0.149168 0.606127 0.158902 0.69661
C_ C_ 0.376045 0.883581 0.381601 -0.30787
C_ C_ 0.124296 0.612383 0.103346 -0.30787
N_ N_ 0.141651 0.56043 0.305882 -0.32189
N_ N_ 0.0525064 0.648243 0.315595 -0.32189
N_ N_ 0.107136 0.804208 0.0542078 -0.32189
N_ N_ 0.191794 0.813789 0.141932 -0.32189
N_ N_ 0.361347 0.950526 0.195216 -0.32189
N_ N_ 0.433882 0.850506 0.186525 -0.32189
N_ N_ 0.395484 0.700344 0.441305 -0.32189
N_ N_ 0.303682 0.69427 0.358503 -0.32189
O_ O_ 0.507019 0.592202 0.386773 -0.63271
O_ O_ 0.0505082 0.536608 0.335834 -0.57982
O_ O_ 0.401503 0.591437 0.339614 -0.63271
O_ O_ 0.367794 0.591852 0.414434 -0.57982
O_ O_ 0.245687 0.881111 0.0898747 -0.63271
O_ O_ 0.201713 0.835497 0.0304431 -0.57982
O_ O_ 0.355555 0.833708 0.0902875 -0.63271
O_ O_ 0.380533 0.913043 0.0925326 -0.57982
O_ O_ 0.985255 0.906467 0.107778 -0.63271
O_ O_ 0.456753 0.953145 0.16544 -0.57982
O_ O_ 0.0948417 0.896937 0.143826 -0.63271
O_ O_ 0.131751 0.905021 0.0738357 -0.57982
O_ O_ 0.265836 0.601069 0.412557 -0.63271
O_ O_ 0.296447 0.667197 0.458187 -0.57982
O_ O_ 0.157583 0.649874 0.390456 -0.63271
O_ O_ 0.125626 0.578642 0.408782 -0.57982
F_ F_ 0.436742 0.824756 0.427222 -0.20885
F_ F_ 0.425269 0.808193 0.342129 -0.20885
F_ F_ 0.36486 0.794714 0.393036 -0.20885
F_ F_ 0.319027 0.925868 0.318775 -0.20885
F_ F_ 0.316759 0.843703 0.31562 -0.20885
F_ F_ 0.378423 0.881415 0.28813 -0.20885
F_ F_ 0.070082 0.68019 0.0578532 -0.20885
F_ F_ 0.0751291 0.683716 0.142114 -0.20885
F_ F_ 0.140488 0.700323 0.103348 -0.20885
F_ F_ 0.187098 0.56607 0.160236 -0.20885
F_ F_ 0.173819 0.647336 0.179813 -0.20885
F_ F_ 0.117332 0.593631 0.191527 -0.20885
Zn Zn 0.0874431 0.583187 0.839772 0.83971
Zn Zn 0.16283 0.847878 0.583943 0.83971
Zn Zn 0.412065 0.922799 0.660148 0.83971
Zn Zn 0.343547 0.654066 0.917145 0.83971
H_ H_ 0.174967 0.631174 0.807341 0.10394
H_ H_ 0.261225 0.595066 0.790668 0.10394
H_ H_ 0.218184 0.950858 0.81058 0.10394
H_ H_ 0.12187 0.488035 0.800948 0.10394
H_ H_ 0.540655 0.595036 0.745672 0.10394
H_ H_ 0.493773 0.673908 0.697639 0.10394
H_ H_ 0.0115916 0.762466 0.832747 0.10394
H_ H_ 0.0680256 0.689345 0.869229 0.10394
H_ H_ 0.0350294 0.94892 0.876859 0.10394
H_ H_ 0.480533 0.873141 0.873979 0.10394
H_ H_ 0.362447 0.985457 0.918439 0.10394
H_ H_ 0.0836868 0.809571 0.62911 0.10394
H_ H_ 0.510927 0.759674 0.596756 0.10394
H_ H_ 0.0388016 0.787243 0.939413 0.10394
H_ H_ 0.104057 0.846273 0.483465 0.10394
H_ H_ 0.234279 0.751996 0.593898 0.10394
H_ H_ 0.268442 0.70196 0.671182 0.10394
H_ H_ 0.210875 0.828117 0.767084 0.10394
H_ H_ 0.171234 0.869789 0.693483 0.10394
H_ H_ 0.213313 0.877554 0.945675 0.10394
H_ H_ 0.267086 0.911173 0.883488 0.10394
H_ H_ 0.40084 0.894087 0.988856 0.10394
H_ H_ 0.308577 0.90145 0.666234 0.10394
H_ H_ 0.234864 0.948027 0.706 0.10394
H_ H_ 0.334718 0.548394 0.770651 0.10394
H_ H_ 0.401538 0.00450459 0.74238 0.10394
H_ H_ 0.00482011 0.881165 0.688255 0.10394
H_ H_ 0.0486461 0.806819 0.732452 0.10394
H_ H_ 0.407437 0.742736 0.714751 0.10394
H_ H_ 0.368521 0.829554 0.68864 0.10394
H_ H_ 0.464753 0.548215 0.616845 0.10394
H_ H_ 0.020798 0.632159 0.615611 0.10394
H_ H_ 0.140124 0.513296 0.58693 0.10394
H_ H_ 0.449703 0.656334 0.903387 0.10394
H_ H_ 0.0130896 0.702562 0.931895 0.10394
H_ H_ 0.423262 0.79204 0.530708 0.10394
H_ H_ 0.349393 0.732429 0.00115489 0.10394
H_ H_ 0.23962 0.695918 0.887361 0.10394
H_ H_ 0.19025 0.721701 0.805252 0.10394
H_ H_ 0.333124 0.730849 0.745685 0.10394
H_ H_ 0.38123 0.69379 0.824426 0.10394
H_ H_ 0.292141 0.627012 0.551251 0.10394
H_ H_ 0.240773 0.593408 0.612614 0.10394
H_ H_ 0.108736 0.602151 0.504658 0.10394
C_ C_ 0.182053 0.590711 0.801424 0.18167
C_ C_ 0.230661 0.569172 0.785538 -0.15533
C_ C_ 0.238965 0.516021 0.773585 0.02923
C_ C_ 0.204728 0.989065 0.80344 -0.15533
C_ C_ 0.15394 0.509046 0.799405 0.18167
C_ C_ 0.0324044 0.634144 0.755771 0.18167
C_ C_ 0.505571 0.674731 0.738578 -0.15533
C_ C_ 0.005740000000000078 0.723567 0.756782 0.02923
C_ C_ 0.0241128 0.729411 0.808742 -0.15533
C_ C_ 0.0518242 0.68789 0.831513 0.18167
C_ C_ 0.00228358 0.550335 0.865688 0.69207
C_ C_ 0.479541 0.0017300000000000093 0.883937 0.02923
C_ C_ 0.499042 0.94978 0.883361 -0.15533
C_ C_ 0.465721 0.91168 0.881923 -0.15533
C_ C_ 0.415244 0.92235 0.89484 0.02923
C_ C_ 0.39915 0.975486 0.904407 -0.15533
C_ C_ 0.430903 0.0145009 0.897405 0.02923
C_ C_ 0.385917 0.564268 0.879145 0.69207
C_ C_ 0.397582 0.826859 0.893232 0.69661
C_ C_ 0.0731474 0.80429 0.590344 0.18167
C_ C_ 0.0306417 0.778976 0.570982 -0.15533
C_ C_ 0.0161404 0.772922 0.517755 0.02923
C_ C_ 0.0468868 0.791523 0.979712 -0.15533
C_ C_ 0.0869798 0.819959 0.506247 0.18167
C_ C_ 0.225061 0.765926 0.631806 0.18167
C_ C_ 0.245426 0.736113 0.673396 -0.15533
C_ C_ 0.232482 0.756521 0.722921 0.02923
C_ C_ 0.207056 0.806076 0.729329 -0.15533
C_ C_ 0.191937 0.832467 0.687807 0.18167
C_ C_ 0.247393 0.863162 0.54627 0.69207
C_ C_ 0.276808 0.872517 0.005629 0.02923
C_ C_ 0.252783 0.884645 0.955994 -0.15533
C_ C_ 0.285777 0.89665 0.91835 -0.15533
C_ C_ 0.337509 0.895726 0.92933 0.02923
C_ C_ 0.35736 0.891385 0.980171 -0.15533
C_ C_ 0.326855 0.885081 0.0188999 0.02923
C_ C_ 0.363226 0.878072 0.571678 0.69207
C_ C_ 0.352891 0.885495 0.830628 0.69661
C_ C_ 0.31313 0.934151 0.69066 0.18167
C_ C_ 0.27289 0.956739 0.716022 -0.15533
C_ C_ 0.278776 0.994701 0.753367 0.02923
C_ C_ 0.329076 0.512287 0.750555 -0.15533
C_ C_ 0.366548 0.991205 0.737027 0.18167
C_ C_ 0.488566 0.858743 0.716389 0.18167
C_ C_ 0.00565042 0.809647 0.722772 -0.15533
C_ C_ 0.481351 0.771664 0.739 0.02923
C_ C_ 0.429383 0.775599 0.71602 -0.15533
C_ C_ 0.407689 0.823866 0.699219 0.18167
C_ C_ 0.485467 0.961593 0.63091 0.69207
C_ C_ 0.022754 0.50133 0.619483 0.02923
C_ C_ 1.00548101 0.553497 0.616634 -0.15533
C_ C_ 0.0375516 0.591229 0.610925 -0.15533
C_ C_ 0.0865285 0.577214 0.597411 0.02923
C_ C_ 0.0996221 0.524238 0.588558 -0.15533
C_ C_ 0.0700088 0.486229 0.601834 0.02923
C_ C_ 0.0964881 0.928351 0.612179 0.69207
C_ C_ 0.106652 0.668689 0.609133 0.69661
C_ C_ 0.443772 0.67783 0.938587 0.18167
C_ C_ 0.48551 0.694829 0.967946 -0.15533
C_ C_ 0.476203 0.739479 0.0023599999999999177 0.02923
C_ C_ 0.430355 0.75752 0.50573 -0.15533
C_ C_ 0.384835 0.728273 0.986249 0.18167
C_ C_ 0.260374 0.697896 0.854024 0.18167
C_ C_ 0.231714 0.718067 0.809318 -0.15533
C_ C_ 0.258679 0.730982 0.769719 0.02923
C_ C_ 0.313658 0.718091 0.775813 -0.15533
C_ C_ 0.338847 0.701341 0.8221 0.18167
C_ C_ 0.262739 0.626488 0.948019 0.69207
C_ C_ 0.229115 0.630684 0.490247 0.02923
C_ C_ 0.250811 0.624547 0.54127 -0.15533
C_ C_ 0.221185 0.610281 0.578426 -0.15533
C_ C_ 0.167303 0.60503 0.567892 0.02923
C_ C_ 0.14779 0.606185 0.515985 -0.15533
C_ C_ 0.17733 0.619678 0.476699 0.02923
C_ C_ 0.145565 0.616464 0.920059 0.69207
C_ C_ 0.15592 0.600823 0.663756 0.69661
C_ C_ 0.374039 0.884415 0.887072 -0.30787
C_ C_ 0.129463 0.612334 0.609582 -0.30787
N_ N_ 0.144761 0.56068 0.80658 -0.32189
N_ N_ 0.0578981 0.641918 0.805215 -0.32189
N_ N_ 0.102002 0.822621 0.55765 -0.32189
N_ N_ 0.196382 0.81221 0.63846 -0.32189
N_ N_ 0.359447 0.949949 0.703214 -0.32189
N_ N_ 0.438007 0.861445 0.695772 -0.32189
N_ N_ 0.395948 0.691695 0.949247 -0.32189
N_ N_ 0.311674 0.687128 0.858079 -0.32189
O_ O_ 0.499068 0.58127 0.90485 -0.63271
O_ O_ 0.0428544 0.538442 0.838825 -0.57982
O_ O_ 0.388192 0.592672 0.840262 -0.63271
O_ O_ 0.365687 0.583426 0.92092 -0.57982
O_ O_ 0.260687 0.877786 0.59364 -0.63271
O_ O_ 0.207223 0.839147 0.535681 -0.57982
O_ O_ 0.372736 0.83418 0.593589 -0.63271
O_ O_ 0.383084 0.91821 0.594312 -0.57982
O_ O_ 0.981785 0.911717 0.596152 -0.63271
O_ O_ 0.455667 0.968573 0.666717 -0.57982
O_ O_ 0.0942181 0.902796 0.653357 -0.63271
O_ O_ 0.133523 0.915599 0.584851 -0.57982
O_ O_ 0.255866 0.605393 0.901762 -0.63271
O_ O_ 0.294608 0.660844 0.957797 -0.57982
O_ O_ 0.15009 0.657573 0.895242 -0.63271
O_ O_ 0.109523 0.58762 0.905847 -0.57982
F_ F_ 0.433551 0.819114 0.932406 -0.20885
F_ F_ 0.421956 0.803902 0.850753 -0.20885
F_ F_ 0.356946 0.79711 0.895487 -0.20885
F_ F_ 0.325454 0.932165 0.829972 -0.20885
F_ F_ 0.317137 0.848767 0.816114 -0.20885
F_ F_ 0.387725 0.879443 0.795091 -0.20885
F_ F_ 0.0730255 0.676221 0.563881 -0.20885
F_ F_ 0.0824944 0.687056 0.652702 -0.20885
F_ F_ 0.14252 0.701607 0.607289 -0.20885
F_ F_ 0.187704 0.556075 0.66928 -0.20885
F_ F_ 0.180996 0.641398 0.681003 -0.20885
F_ F_ 0.11578 0.5968 0.693778 -0.20885
Zn Zn 0.588556 0.0868074 0.354589 0.83971
Zn Zn 0.659198 0.345124 0.0850718 0.83971
Zn Zn 0.915242 0.413947 0.149484 0.83971
Zn Zn 0.838073 0.153161 0.419353 0.83971
H_ H_ 0.670455 0.135294 0.312059 0.10394
H_ H_ 0.739164 0.103156 0.267958 0.10394
H_ H_ 0.722218 0.44506 0.296274 0.10394
H_ H_ 0.648877 0.987149 0.355536 0.10394
H_ H_ 0.0231784 0.103881 0.256987 0.10394
H_ H_ 0.97421 0.176021 0.212079 0.10394
H_ H_ 0.522011 0.272937 0.340593 0.10394
H_ H_ 0.566323 0.203851 0.386527 0.10394
H_ H_ 0.534585 0.44336 0.373856 0.10394
H_ H_ 0.986151 0.378281 0.370529 0.10394
H_ H_ 0.861805 0.482698 0.404825 0.10394
H_ H_ 0.58155 0.303569 0.134705 0.10394
H_ H_ 0.99929777 0.274458 0.0954284 0.10394
H_ H_ 0.527245 0.30376 0.442499 0.10394
H_ H_ 0.615983 0.315118 0.982632 0.10394
H_ H_ 0.717518 0.249675 0.0947803 0.10394
H_ H_ 0.764901 0.20506 0.161566 0.10394
H_ H_ 0.70741 0.317745 0.270692 0.10394
H_ H_ 0.666879 0.367222 0.200415 0.10394
H_ H_ 0.727545 0.353789 0.44023 0.10394
H_ H_ 0.781302 0.370241 0.373773 0.10394
H_ H_ 0.900127 0.40945 0.487318 0.10394
H_ H_ 0.811642 0.387061 0.159909 0.10394
H_ H_ 0.734058 0.431415 0.201692 0.10394
H_ H_ 0.837471 0.0510613 0.290262 0.10394
H_ H_ 0.903819 0.499103 0.224471 0.10394
H_ H_ 0.513474 0.38172 0.195642 0.10394
H_ H_ 0.551072 0.31172 0.247646 0.10394
H_ H_ 0.902145 0.26124 0.248264 0.10394
H_ H_ 0.873028 0.326524 0.18935 0.10394
H_ H_ 0.958871 0.0549569 0.0948325 0.10394
H_ H_ 0.515535 0.107511 0.120343 0.10394
H_ H_ 0.64702 0.00589625 0.10333 0.10394
H_ H_ 0.938874 0.167837 0.400627 0.10394
H_ H_ 0.519396 0.196481 0.452302 0.10394
H_ H_ 0.909628 0.297134 0.0327413 0.10394
H_ H_ 0.844281 0.235823 0.506595 0.10394
H_ H_ 0.737846 0.210336 0.390048 0.10394
H_ H_ 0.694699 0.239492 0.309441 0.10394
H_ H_ 0.837745 0.218438 0.245888 0.10394
H_ H_ 0.879026 0.193517 0.332628 0.10394
H_ H_ 0.775027 0.140662 0.0644709 0.10394
H_ H_ 0.731049 0.101341 0.125452 0.10394
H_ H_ 0.604532 0.0817342 0.0141767 0.10394
C_ C_ 0.678527 0.0952704 0.311272 0.18167
C_ C_ 0.718988 0.0766112 0.284073 -0.15533
C_ C_ 0.734769 0.0243453 0.280742 0.02923
C_ C_ 0.711041 0.48399 0.292576 -0.15533
C_ C_ 0.665913 0.0116304 0.331741 0.18167
C_ C_ 0.53715 0.138835 0.274471 0.18167
C_ C_ 0.0024951 0.182673 0.246171 -0.15533
C_ C_ 0.514229 0.228025 0.267609 0.02923
C_ C_ 0.528913 0.234872 0.319695 -0.15533
C_ C_ 0.553041 0.194401 0.347639 0.18167
C_ C_ 0.505576 0.0458452 0.364356 0.69207
C_ C_ 0.975481 0.505678 0.364474 0.02923
C_ C_ 0.995202 0.454202 0.362822 -0.15533
C_ C_ 0.970214 0.41581 0.379627 -0.15533
C_ C_ 0.920477 0.425817 0.390488 0.02923
C_ C_ 0.898351 0.477258 0.392138 -0.15533
C_ C_ 0.92677 0.518618 0.381151 0.02923
C_ C_ 0.90409 0.0713198 0.390992 0.69207
C_ C_ 0.911545 0.329138 0.387598 0.69661
C_ C_ 0.573043 0.295702 0.0939565 0.18167
C_ C_ 0.526995 0.276742 0.0770532 -0.15533
C_ C_ 0.510684 0.271588 0.0228345 0.02923
C_ C_ 0.542591 0.299764 0.483877 -0.15533
C_ C_ 0.588707 0.308 0.00798718 0.18167
C_ C_ 0.719289 0.266014 0.133735 0.18167
C_ C_ 0.743881 0.237407 0.173498 -0.15533
C_ C_ 0.736636 0.254916 0.224333 0.02923
C_ C_ 0.705696 0.300062 0.232687 -0.15533
C_ C_ 0.685862 0.329594 0.192464 0.18167
C_ C_ 0.743807 0.367162 0.0482438 0.69207
C_ C_ 0.782229 0.368248 0.501897 0.02923
C_ C_ 0.76501 0.364954 0.450488 -0.15533
C_ C_ 0.797728 0.367707 0.413942 -0.15533
C_ C_ 0.845047 0.387125 0.425325 0.02923
C_ C_ 0.861925 0.397142 0.4779 -0.15533
C_ C_ 0.830605 0.386779 0.516039 0.02923
C_ C_ 0.856302 0.38272 0.0694447 0.69207
C_ C_ 0.861801 0.383249 0.327786 0.69661
C_ C_ 0.816317 0.422457 0.181708 0.18167
C_ C_ 0.772643 0.446259 0.206219 -0.15533
C_ C_ 0.78073 0.48991 0.238392 0.02923
C_ C_ 0.828413 0.0210572 0.26032 -0.15533
C_ C_ 0.869045 0.482057 0.221613 0.18167
C_ C_ 0.991534 0.350914 0.202349 0.18167
C_ C_ 0.510051 0.315548 0.239481 -0.15533
C_ C_ 0.979096 0.275307 0.244438 0.02923
C_ C_ 0.928283 0.280629 0.229564 -0.15533
C_ C_ 0.911513 0.319659 0.196852 0.18167
C_ C_ 0.993511 0.451052 0.119743 0.69207
C_ C_ 0.525727 0.983354 0.125668 0.02923
C_ C_ 0.504462 0.0335099 0.124211 -0.15533
C_ C_ 0.536375 0.0727252 0.118799 -0.15533
C_ C_ 0.587186 0.0631447 0.113125 0.02923
C_ C_ 0.607885 0.0110269 0.110248 -0.15533
C_ C_ 0.577852 0.972464 0.121454 0.02923
C_ C_ 0.590088 0.422032 0.104072 0.69207
C_ C_ 0.592765 0.160702 0.104545 0.69661
C_ C_ 0.935767 0.183172 0.437539 0.18167
C_ C_ 0.977572 0.200073 0.46837 -0.15533
C_ C_ 0.96981 0.243066 0.50367 0.02923
C_ C_ 0.917836 0.260644 0.012418 -0.15533
C_ C_ 0.882023 0.222985 0.496332 0.18167
C_ C_ 0.758213 0.204266 0.358334 0.18167
C_ C_ 0.734237 0.224547 0.311289 -0.15533
C_ C_ 0.760739 0.227703 0.269654 0.02923
C_ C_ 0.813294 0.211466 0.276043 -0.15533
C_ C_ 0.836994 0.190638 0.322151 0.18167
C_ C_ 0.758862 0.128082 0.460358 0.69207
C_ C_ 0.723548 0.119997 0.99829353 0.02923
C_ C_ 0.738181 0.127562 0.0514889 -0.15533
C_ C_ 0.711572 0.107726 0.0873838 -0.15533
C_ C_ 0.660509 0.097897 0.0747094 0.02923
C_ C_ 0.643113 0.0937594 0.0248155 -0.15533
C_ C_ 0.674756 0.101873 0.986202 0.02923
C_ C_ 0.647679 0.116677 0.433614 0.69207
C_ C_ 0.643971 0.113548 0.170845 0.69661
C_ C_ 0.885373 0.382561 0.384162 -0.30787
C_ C_ 0.621064 0.106662 0.113772 -0.30787
N_ N_ 0.650701 0.0634034 0.331826 -0.32189
N_ N_ 0.560216 0.147316 0.323763 -0.32189
N_ N_ 0.603886 0.306395 0.0598433 -0.32189
N_ N_ 0.690212 0.311025 0.143819 -0.32189
N_ N_ 0.862616 0.440606 0.191654 -0.32189
N_ N_ 0.942004 0.355178 0.185136 -0.32189
N_ N_ 0.888826 0.192999 0.45344 -0.32189
N_ N_ 0.80748 0.18403 0.359803 -0.32189
O_ O_ 0.0029081 0.0957318 0.390129 -0.63271
O_ O_ 0.54813 0.0365861 0.341954 -0.57982
O_ O_ 0.9001 0.0926888 0.345732 -0.63271
O_ O_ 0.873178 0.0873177 0.424725 -0.57982
O_ O_ 0.742837 0.401613 0.0857349 -0.63271
O_ O_ 0.705433 0.339405 0.0386765 -0.57982
O_ O_ 0.858708 0.340826 0.0944024 -0.63271
O_ O_ 0.888727 0.414269 0.0823178 -0.57982
O_ O_ 0.482507 0.406111 0.0850084 -0.63271
O_ O_ 0.961788 0.459974 0.154679 -0.57982
O_ O_ 0.591349 0.400047 0.14789 -0.63271
O_ O_ 0.62302 0.40563 0.0705205 -0.57982
O_ O_ 0.753673 0.10151 0.416582 -0.63271
O_ O_ 0.79664 0.155523 0.466955 -0.57982
O_ O_ 0.646473 0.159698 0.408613 -0.63271
O_ O_ 0.615404 0.0853853 0.418425 -0.57982
F_ F_ 0.945352 0.328643 0.432797 -0.20885
F_ F_ 0.935551 0.307048 0.345966 -0.20885
F_ F_ 0.876071 0.29231 0.395308 -0.20885
F_ F_ 0.821681 0.420939 0.325244 -0.20885
F_ F_ 0.838947 0.339665 0.310747 -0.20885
F_ F_ 0.89953 0.391299 0.297132 -0.20885
F_ F_ 0.558736 0.157344 0.0604289 -0.20885
F_ F_ 0.565454 0.18079 0.143829 -0.20885
F_ F_ 0.628533 0.196059 0.0973748 -0.20885
F_ F_ 0.67825 0.0710974 0.183568 -0.20885
F_ F_ 0.670461 0.156159 0.17983 -0.20885
F_ F_ 0.606566 0.11584 0.204895 -0.20885
Zn Zn 0.589649 0.0797567 0.854413 0.83971
Zn Zn 0.664474 0.345861 0.577196 0.83971
Zn Zn 0.904854 0.427809 0.653237 0.83971
Zn Zn 0.832654 0.158157 0.917141 0.83971
H_ H_ 0.677779 0.135678 0.826707 0.10394
H_ H_ 0.76257 0.0981306 0.802095 0.10394
H_ H_ 0.710708 0.450538 0.783979 0.10394
H_ H_ 0.630452 0.988903 0.810435 0.10394
H_ H_ 0.0338146 0.110888 0.74781 0.10394
H_ H_ 0.981801 0.182922 0.710928 0.10394
H_ H_ 0.524717 0.264603 0.839404 0.10394
H_ H_ 0.567482 0.190584 0.885105 0.10394
H_ H_ 0.527454 0.439509 0.852801 0.10394
H_ H_ 0.980876 0.385201 0.887536 0.10394
H_ H_ 0.848656 0.488615 0.900595 0.10394
H_ H_ 0.583319 0.311834 0.627256 0.10394
H_ H_ -0.002686999999999995 0.275229 0.603651 0.10394
H_ H_ 0.52744 0.291121 0.948632 0.10394
H_ H_ 0.611547 0.333226 0.478773 0.10394
H_ H_ 0.712685 0.2419 0.596775 0.10394
H_ H_ 0.748512 0.197728 0.674056 0.10394
H_ H_ 0.713805 0.336167 0.765465 0.10394
H_ H_ 0.690922 0.381276 0.686256 0.10394
H_ H_ 0.720385 0.355953 0.94967 0.10394
H_ H_ 0.774415 0.35286 0.876391 0.10394
H_ H_ 0.895322 0.410607 0.988732 0.10394
H_ H_ 0.80551 0.407244 0.661341 0.10394
H_ H_ 0.7292 0.455536 0.690446 0.10394
H_ H_ 0.843249 0.0414075 0.789602 0.10394
H_ H_ 0.902248 0.505655 0.74275 0.10394
H_ H_ 0.511142 0.373781 0.694798 0.10394
H_ H_ 0.54785 0.30092 0.751842 0.10394
H_ H_ 0.918754 0.254414 0.719907 0.10394
H_ H_ 0.878666 0.329705 0.680219 0.10394
H_ H_ 0.963573 0.0609633 0.637626 0.10394
H_ H_ 0.511855 0.127507 0.606811 0.10394
H_ H_ 0.644002 0.01751 0.619733 0.10394
H_ H_ 0.936455 0.161318 0.898299 0.10394
H_ H_ 0.519642 0.196959 0.951794 0.10394
H_ H_ 0.906291 0.286735 0.538126 0.10394
H_ H_ 0.840916 0.246664 -0.00202045 0.10394
H_ H_ 0.726375 0.202458 0.884797 0.10394
H_ H_ 0.687476 0.241586 0.805941 0.10394
H_ H_ 0.836626 0.223583 0.753095 0.10394
H_ H_ 0.874311 0.19254 0.831523 0.10394
H_ H_ 0.777142 0.151964 0.561919 0.10394
H_ H_ 0.726101 0.130177 0.631907 0.10394
H_ H_ 0.603703 0.0950274 0.518141 0.10394
C_ C_ 0.684266 0.0964997 0.815345 0.18167
C_ C_ 0.728185 0.0795025 0.793065 -0.15533
C_ C_ 0.739945 0.0276058 0.781037 0.02923
C_ C_ 0.695888 0.490645 0.783011 -0.15533
C_ C_ 0.660338 0.0112075 0.81526 0.18167
C_ C_ 0.53082 0.13102 0.776627 0.18167
C_ C_ 0.00994718 0.189019 0.742522 -0.15533
C_ C_ 0.504508 0.219775 0.772155 0.02923
C_ C_ 0.522233 0.22793 0.822959 -0.15533
C_ C_ 0.547694 0.18523 0.847927 0.18167
C_ C_ 0.514761 0.0400025 0.879046 0.69207
C_ C_ 0.96716 0.510795 0.872462 0.02923
C_ C_ 0.987854 0.459168 0.867484 -0.15533
C_ C_ 0.959995 0.419527 0.877808 -0.15533
C_ C_ 0.907193 0.428442 0.885381 0.02923
C_ C_ 0.887955 0.480217 0.894299 -0.15533
C_ C_ 0.914892 0.521973 0.884918 0.02923
C_ C_ 0.894058 0.0778061 0.885158 0.69207
C_ C_ 0.904806 0.330747 0.881111 0.69661
C_ C_ 0.574197 0.303606 0.587543 0.18167
C_ C_ 0.52712 0.287225 0.57175 -0.15533
C_ C_ 0.512579 0.28206 0.519967 0.02923
C_ C_ 0.543701 0.287209 0.98874 -0.15533
C_ C_ 0.589126 0.316361 0.501965 0.18167
C_ C_ 0.71097 0.262727 0.6343 0.18167
C_ C_ 0.736473 0.239894 0.677364 -0.15533
C_ C_ 0.740017 0.266253 0.726946 0.02923
C_ C_ 0.720112 0.31721 0.728054 -0.15533
C_ C_ 0.697184 0.340523 0.684262 0.18167
C_ C_ 0.746928 0.363285 0.539964 0.69207
C_ C_ 0.779282 0.369951 1.00854514 0.02923
C_ C_ 0.761327 0.359743 0.958512 -0.15533
C_ C_ 0.79008 0.363993 0.916234 -0.15533
C_ C_ 0.838007 0.385292 0.926039 0.02923
C_ C_ 0.858624 0.393687 0.978059 -0.15533
C_ C_ 0.830306 0.385166 0.0189266 0.02923
C_ C_ 0.849679 0.392536 0.570016 0.69207
C_ C_ 0.844731 0.383803 0.830228 0.69661
C_ C_ 0.808669 0.443575 0.680519 0.18167
C_ C_ 0.765019 0.468539 0.701691 -0.15533
C_ C_ 0.772376 0.508194 0.740042 0.02923
C_ C_ 0.832074 0.0188876 0.758891 -0.15533
C_ C_ 0.862396 0.494408 0.730995 0.18167
C_ C_ 0.994757 0.368205 0.701842 0.18167
C_ C_ 0.509299 0.304252 0.734718 -0.15533
C_ C_ 0.992342 0.284728 0.738853 0.02923
C_ C_ 0.940798 0.287323 0.718591 -0.15533
C_ C_ 0.916127 0.331159 0.69412 0.18167
C_ C_ 0.984879 0.463439 0.624948 0.69207
C_ C_ 0.521435 0.997758 0.62424 0.02923
C_ C_ 0.499428 0.0498092 0.61749 -0.15533
C_ C_ 0.529837 0.0890279 0.61263 -0.15533
C_ C_ 0.585033 0.0777448 0.614412 0.02923
C_ C_ 0.604196 0.0268598 0.621528 -0.15533
C_ C_ 0.574309 0.98653 0.626379 0.02923
C_ C_ 0.597757 0.42121 0.601362 0.69207
C_ C_ 0.593412 0.172577 0.612146 0.69661
C_ C_ 0.931153 0.187027 0.933084 0.18167
C_ C_ 0.973339 0.206876 0.958853 -0.15533
C_ C_ 0.966383 0.247224 -0.004920999999999953 0.02923
C_ C_ 0.920651 0.251917 0.518203 -0.15533
C_ C_ 0.878051 0.234754 0.989389 0.18167
C_ C_ 0.751601 0.213392 0.859824 0.18167
C_ C_ 0.727929 0.230429 0.81193 -0.15533
C_ C_ 0.760307 0.237548 0.772898 0.02923
C_ C_ 0.812638 0.22317 0.782637 -0.15533
C_ C_ 0.831842 0.203449 0.826808 0.18167
C_ C_ 0.759649 0.127769 0.959664 0.69207
C_ C_ 0.7215 0.129396 0.500635 0.02923
C_ C_ 0.737854 0.140545 0.551941 -0.15533
C_ C_ 0.713274 0.124056 0.591386 -0.15533
C_ C_ 0.662096 0.111127 0.579574 0.02923
C_ C_ 0.644183 0.101652 0.528186 -0.15533
C_ C_ 0.672903 0.112423 0.486399 0.02923
C_ C_ 0.651283 0.103145 0.934106 0.69207
C_ C_ 0.642713 0.118897 0.679649 0.69661
C_ C_ 0.871925 0.384413 0.881689 -0.30787
C_ C_ 0.621666 0.119402 0.619266 -0.30787
N_ N_ 0.648062 0.0638236 0.818283 -0.32189
N_ N_ 0.552852 0.140003 0.824251 -0.32189
N_ N_ 0.606405 0.313466 0.551963 -0.32189
N_ N_ 0.692965 0.312976 0.637591 -0.32189
N_ N_ 0.855751 0.458769 0.692109 -0.32189
N_ N_ 0.942986 0.368177 0.68231 -0.32189
N_ N_ 0.88635 0.194357 0.954925 -0.32189
N_ N_ 0.802137 0.194516 0.862526 -0.32189
O_ O_ 0.0028600000000000847 0.0968572 0.888122 -0.63271
O_ O_ 0.552325 0.028104 0.849382 -0.57982
O_ O_ 0.891432 0.104479 0.844908 -0.63271
O_ O_ 0.864604 0.0931807 0.92077 -0.57982
O_ O_ 0.751412 0.385954 0.58635 -0.63271
O_ O_ 0.706138 0.340105 0.52777 -0.57982
O_ O_ 0.856858 0.35245 0.597247 -0.63271
O_ O_ 0.87048 0.433691 0.588758 -0.57982
O_ O_ 0.495112 0.399071 0.599854 -0.63271
O_ O_ 0.950272 0.472963 0.657332 -0.57982
O_ O_ 0.598241 0.399099 0.645083 -0.63271
O_ O_ 0.634875 0.404712 0.572059 -0.57982
O_ O_ 0.755852 0.103456 0.914829 -0.63271
O_ O_ 0.790729 0.161704 0.966697 -0.57982
O_ O_ 0.650136 0.144204 0.907467 -0.63271
O_ O_ 0.620979 0.0684446 0.917801 -0.57982
F_ F_ 0.933341 0.327454 0.928339 -0.20885
F_ F_ 0.933858 0.31486 0.839658 -0.20885
F_ F_ 0.873571 0.290417 0.883438 -0.20885
F_ F_ 0.803812 0.419771 0.825459 -0.20885
F_ F_ 0.826941 0.34003 0.807789 -0.20885
F_ F_ 0.875591 0.395867 0.79446 -0.20885
F_ F_ 0.565087 0.178991 0.565121 -0.20885
F_ F_ 0.560091 0.18899 0.648907 -0.20885
F_ F_ 0.625816 0.209539 0.613684 -0.20885
F_ F_ 0.683398 0.0828118 0.691076 -0.20885
F_ F_ 0.662578 0.161893 0.699282 -0.20885
F_ F_ 0.60624 0.10818 0.710742 -0.20885
Zn Zn 0.592062 0.580629 0.344395 0.83971
Zn Zn 0.663539 0.847511 0.0848694 0.83971
Zn Zn 0.910402 0.920806 0.159341 0.83971
Zn Zn 0.843739 0.654979 0.417673 0.83971
H_ H_ 0.673391 0.630214 0.293636 0.10394
H_ H_ 0.751916 0.594422 0.260643 0.10394
H_ H_ 0.714885 0.951512 0.299914 0.10394
H_ H_ 0.644349 0.481109 0.328218 0.10394
H_ H_ 0.0405087 0.601961 0.247938 0.10394
H_ H_ 1.00006 0.681297 0.199457 0.10394
H_ H_ 0.526743 0.759694 0.334403 0.10394
H_ H_ 0.576045 0.689389 0.372021 0.10394
H_ H_ 0.517014 0.942944 0.322922 0.10394
H_ H_ 0.982325 0.881367 0.369678 0.10394
H_ H_ 0.866126 0.988464 0.417669 0.10394
H_ H_ 0.585715 0.803025 0.136995 0.10394
H_ H_ 0.996728 0.779471 0.0878609 0.10394
H_ H_ 0.549429 0.773088 0.441752 0.10394
H_ H_ 0.617408 0.829557 0.988633 0.10394
H_ H_ 0.714634 0.751841 0.0940595 0.10394
H_ H_ 0.750596 0.69661 0.165533 0.10394
H_ H_ 0.724292 0.827166 0.267659 0.10394
H_ H_ 0.683204 0.872551 0.199142 0.10394
H_ H_ 0.709683 0.889911 0.436733 0.10394
H_ H_ 0.769117 0.905542 0.373396 0.10394
H_ H_ 0.899681 0.891967 0.491143 0.10394
H_ H_ 0.808867 0.90241 0.172072 0.10394
H_ H_ 0.734719 0.954299 0.200622 0.10394
H_ H_ 0.835286 0.542301 0.276379 0.10394
H_ H_ 0.906426 1.01362 0.241075 0.10394
H_ H_ 0.509897 0.871394 0.199328 0.10394
H_ H_ 0.547386 0.793141 0.234696 0.10394
H_ H_ 0.904554 0.757069 0.230991 0.10394
H_ H_ 0.869958 0.829656 0.182578 0.10394
H_ H_ 0.966743 0.553595 0.110874 0.10394
H_ H_ 0.514979 0.618627 0.125667 0.10394
H_ H_ 0.639077 0.506167 0.102964 0.10394
H_ H_ 0.949425 0.658965 0.399367 0.10394
H_ H_ 0.521816 0.691877 0.440277 0.10394
H_ H_ 0.918486 0.770701 0.0466495 0.10394
H_ H_ 0.840744 0.737308 0.492558 0.10394
H_ H_ 0.738428 0.690828 0.379615 0.10394
H_ H_ 0.696946 0.725498 0.298019 0.10394
H_ H_ 0.840118 0.703991 0.236537 0.10394
H_ H_ 0.884196 0.688713 0.32329 0.10394
H_ H_ 0.77992 0.612932 0.0545431 0.10394
H_ H_ 0.728295 0.599304 0.122635 0.10394
H_ H_ 0.59878 0.593809 0.00840457 0.10394
C_ C_ 0.682935 0.587414 0.293168 0.18167
C_ C_ 0.726673 0.567028 0.271013 -0.15533
C_ C_ 0.739018 0.514809 0.268922 0.02923
C_ C_ 0.705323 0.991319 0.302882 -0.15533
C_ C_ 0.666439 0.504613 0.312353 0.18167
C_ C_ 0.515971 0.627697 0.273098 0.18167
C_ C_ 0.0145168 0.682799 0.239984 -0.15533
C_ C_ 0.496242 0.717986 0.264331 0.02923
C_ C_ 0.528981 0.723843 0.311459 -0.15533
C_ C_ 0.558807 0.68248 0.332844 0.18167
C_ C_ 0.51105 0.5451 0.366287 0.69207
C_ C_ 0.980795 0.00772954 0.379688 0.02923
C_ C_ 0.0005800000000000249 0.956032 0.374552 -0.15533
C_ C_ 0.970955 0.916563 0.38263 -0.15533
C_ C_ 0.921061 0.930179 0.395289 0.02923
C_ C_ 0.906218 0.980026 0.408689 -0.15533
C_ C_ 0.931091 0.0201339 0.39568 0.02923
C_ C_ 0.901147 0.571965 0.383048 0.69207
C_ C_ 0.899384 0.837122 0.386285 0.69661
C_ C_ 0.574515 0.799106 0.0945013 0.18167
C_ C_ 0.530566 0.777519 0.0757987 -0.15533
C_ C_ 0.517668 0.769003 0.0231251 0.02923
C_ C_ 0.557146 0.781996 0.482439 -0.15533
C_ C_ 0.592863 0.813369 0.0120413 0.18167
C_ C_ 0.713767 0.765225 0.133881 0.18167
C_ C_ 0.736865 0.734778 0.172202 -0.15533
C_ C_ 0.740948 0.756063 0.221323 0.02923
C_ C_ 0.719821 0.807763 0.231729 -0.15533
C_ C_ 0.691957 0.83338 0.190873 0.18167
C_ C_ 0.747758 0.860081 0.0472081 0.69207
C_ C_ 0.7709 0.884218 0.498148 0.02923
C_ C_ 0.751212 0.893716 0.448107 -0.15533
C_ C_ 0.784653 0.901778 0.412482 -0.15533
C_ C_ 0.83891 0.897089 0.425228 0.02923
C_ C_ 0.857591 0.895916 0.477908 -0.15533
C_ C_ 0.823626 0.890552 0.514831 0.02923
C_ C_ 0.849963 0.889658 0.071033 0.69207
C_ C_ 0.857807 0.897601 0.329417 0.69661
C_ C_ 0.81501 0.939925 0.192673 0.18167
C_ C_ 0.772437 0.964585 0.21554 -0.15533
C_ C_ 0.780181 1.00480731 0.25271 0.02923
C_ C_ 0.829245 0.508525 0.247266 -0.15533
C_ C_ 0.867784 1.00013 0.232924 0.18167
C_ C_ 0.991621 0.857831 0.204851 0.18167
C_ C_ 0.506372 0.798632 0.223568 -0.15533
C_ C_ 0.982494 0.777798 0.24269 0.02923
C_ C_ 0.929898 0.781838 0.224376 -0.15533
C_ C_ 0.910907 0.824589 0.195413 0.18167
C_ C_ 0.982928 0.954128 0.124059 0.69207
C_ C_ 0.514101 0.488571 0.107117 0.02923
C_ C_ 0.495268 0.541374 0.108943 -0.15533
C_ C_ 0.52982 0.580539 0.11328 -0.15533
C_ C_ 0.581696 0.567712 0.107065 0.02923
C_ C_ 0.598505 0.516202 0.100529 -0.15533
C_ C_ 0.5678 0.475917 0.105355 0.02923
C_ C_ 0.602926 0.921252 0.119358 0.69207
C_ C_ 0.595667 0.664601 0.105745 0.69661
C_ C_ 0.94142 0.68283 0.434007 0.18167
C_ C_ 0.979662 0.712284 0.456988 -0.15533
C_ C_ 0.97237 0.744806 0.498391 0.02923
C_ C_ 0.923 0.750107 1.00943423 -0.15533
C_ C_ 0.882169 0.729495 0.484612 0.18167
C_ C_ 0.761507 0.692622 0.349579 0.18167
C_ C_ 0.738204 0.717969 0.304405 -0.15533
C_ C_ 0.767271 0.727309 0.264195 0.02923
C_ C_ 0.819063 0.710024 0.270479 -0.15533
C_ C_ 0.841683 0.695717 0.317119 0.18167
C_ C_ 0.76806 0.619542 0.4546 0.69207
C_ C_ 0.720185 0.608687 0.992381 0.02923
C_ C_ 0.7393 0.607707 0.0442829 -0.15533
C_ C_ 0.709255 0.602095 0.0834151 -0.15533
C_ C_ 0.658251 0.597608 0.0722386 0.02923
C_ C_ 0.63835 0.595093 0.0198533 -0.15533
C_ C_ 0.668845 0.601538 0.980834 0.02923
C_ C_ 0.655488 0.603661 0.422922 0.69207
C_ C_ 0.64202 0.603781 0.169584 0.69661
C_ C_ 0.877912 0.892452 0.385887 -0.30787
C_ C_ 0.619376 0.608086 0.112451 -0.30787
N_ N_ 0.649601 0.556098 0.305977 -0.32189
N_ N_ 0.555965 0.635703 0.310102 -0.32189
N_ N_ 0.603105 0.818293 0.06204 -0.32189
N_ N_ 0.689424 0.811688 0.142499 -0.32189
N_ N_ 0.861853 0.958057 0.198964 -0.32189
N_ N_ 0.940791 0.86213 0.189721 -0.32189
N_ N_ 0.892448 0.697892 0.443356 -0.32189
N_ N_ 0.813799 0.68589 0.357199 -0.32189
O_ O_ 0.008119999999999905 0.588849 0.389154 -0.63271
O_ O_ 0.55255 0.530334 0.344645 -0.57982
O_ O_ 0.8996 0.600367 0.342231 -0.63271
O_ O_ 0.876169 0.591431 0.420118 -0.57982
O_ O_ 0.752767 0.880965 0.0948973 -0.63271
O_ O_ 0.707485 0.838023 0.0364454 -0.57982
O_ O_ 0.861611 0.847592 0.0932678 -0.63271
O_ O_ 0.869683 0.929933 0.0940462 -0.57982
O_ O_ 0.491018 0.903054 0.104196 -0.63271
O_ O_ 0.951137 0.968317 0.159697 -0.57982
O_ O_ 0.597193 0.888407 0.15407 -0.63271
O_ O_ 0.640784 0.910523 0.091411 -0.57982
O_ O_ 0.764171 0.599712 0.407683 -0.63271
O_ O_ 0.802695 0.652309 0.467251 -0.57982
O_ O_ 0.665334 0.638752 0.392508 -0.63271
O_ O_ 0.617294 0.575881 0.411553 -0.57982
F_ F_ 0.92668 0.824305 0.433316 -0.20885
F_ F_ 0.92932 0.82094 0.347737 -0.20885
F_ F_ 0.864783 0.805664 0.382408 -0.20885
F_ F_ 0.826863 0.942225 0.327313 -0.20885
F_ F_ 0.833892 0.859379 0.301356 -0.20885
F_ F_ 0.896043 0.903066 0.298245 -0.20885
F_ F_ 0.562637 0.666916 0.0614111 -0.20885
F_ F_ 0.570229 0.683547 0.146786 -0.20885
F_ F_ 0.633765 0.695427 0.101016 -0.20885
F_ F_ 0.665431 0.55355 0.182201 -0.20885
F_ F_ 0.674114 0.639972 0.18617 -0.20885
F_ F_ 0.602534 0.610465 0.202123 -0.20885
Zn Zn 0.585375 0.583934 0.851994 0.83971
Zn Zn 0.655422 0.853419 0.582628 0.83971
Zn Zn 0.902328 0.920662 0.654384 0.83971
Zn Zn 0.831534 0.65744 0.915246 0.83971
H_ H_ 0.657721 0.63556 0.810828 0.10394
H_ H_ 0.737411 0.605657 0.77395 0.10394
H_ H_ 0.715546 0.949068 0.788075 0.10394
H_ H_ 0.629207 0.48031 0.823732 0.10394
H_ H_ 0.0214755 0.596709 0.744048 0.10394
H_ H_ 0.98469 0.669649 0.695605 0.10394
H_ H_ 0.521275 0.763773 0.836225 0.10394
H_ H_ 0.550788 0.688272 0.882688 0.10394
H_ H_ 0.538699 0.940709 0.876087 0.10394
H_ H_ 0.98343 0.880661 0.885885 0.10394
H_ H_ 0.847786 0.991051 0.896541 0.10394
H_ H_ 0.586764 0.805934 0.627715 0.10394
H_ H_ 0.0106176 0.763104 0.59976 0.10394
H_ H_ 0.545281 0.778687 0.950333 0.10394
H_ H_ 0.625042 0.813195 0.475536 0.10394
H_ H_ 0.696691 0.754693 0.592289 0.10394
H_ H_ 0.748723 0.705775 0.661781 0.10394
H_ H_ 0.717637 0.836834 0.768562 0.10394
H_ H_ 0.682146 0.88554 0.692579 0.10394
H_ H_ 0.722372 0.84798 0.947379 0.10394
H_ H_ 0.77091 0.86654 0.877357 0.10394
H_ H_ 0.891957 0.912793 0.983484 0.10394
H_ H_ 0.7979 0.919463 0.650405 0.10394
H_ H_ 0.731089 0.972577 0.691353 0.10394
H_ H_ 0.828612 0.553589 0.778642 0.10394
H_ H_ 0.909202 0.999317 0.73986 0.10394
H_ H_ 0.514154 0.887302 0.709977 0.10394
H_ H_ 0.551474 0.805542 0.746933 0.10394
H_ H_ 0.908082 0.735948 0.711125 0.10394
H_ H_ 0.858853 0.822134 0.689911 0.10394
H_ H_ 0.966662 0.564388 0.626732 0.10394
H_ H_ 0.523214 0.615541 0.614795 0.10394
H_ H_ 0.639985 0.499346 0.575176 0.10394
H_ H_ 0.936184 0.665046 0.887404 0.10394
H_ H_ 0.525814 0.677987 0.965387 0.10394
H_ H_ 0.913754 0.783564 0.542806 0.10394
H_ H_ 0.846129 0.731019 1.00231043 0.10394
H_ H_ 0.728503 0.705823 0.886568 0.10394
H_ H_ 0.683333 0.741019 0.804271 0.10394
H_ H_ 0.831747 0.720477 0.745098 0.10394
H_ H_ 0.869324 0.686579 0.823807 0.10394
H_ H_ 0.788215 0.597731 0.552693 0.10394
H_ H_ 0.73072 0.604944 0.617734 0.10394
H_ H_ 0.608965 0.591485 0.505917 0.10394
C_ C_ 0.668526 0.593397 0.801279 0.18167
C_ C_ 0.716742 0.576944 0.785784 -0.15533
C_ C_ 0.729869 0.525242 0.77189 0.02923
C_ C_ 0.707845 0.991544 0.795574 -0.15533
C_ C_ 0.652254 0.507739 0.806494 0.18167
C_ C_ 0.534222 0.633056 0.765052 0.18167
C_ C_ 0.0023699999999999832 0.674348 0.734979 -0.15533
C_ C_ 0.507261 0.722849 0.762708 0.02923
C_ C_ 0.525833 0.728179 0.813985 -0.15533
C_ C_ 0.545288 0.685069 0.842157 0.18167
C_ C_ 0.501095 0.544991 0.868858 0.69207
C_ C_ 0.971874 0.0136309 0.878688 0.02923
C_ C_ -0.005329999999999946 0.961044 0.880327 -0.15533
C_ C_ 0.965677 0.919029 0.8856 -0.15533
C_ C_ 0.912293 0.930393 0.887784 0.02923
C_ C_ 0.889028 0.982423 0.891165 -0.15533
C_ C_ 0.918102 0.0237509 0.886105 0.02923
C_ C_ 0.886184 0.572132 0.881159 0.69207
C_ C_ 0.902432 0.8326 0.890262 0.69661
C_ C_ 0.57777 0.7948 0.58643 0.18167
C_ C_ 0.531283 0.775291 0.567669 -0.15533
C_ C_ 0.521043 0.768375 0.51481 0.02923
C_ C_ 0.549093 0.788421 0.991099 -0.15533
C_ C_ 0.599058 0.806252 0.502054 0.18167
C_ C_ 0.708409 0.771481 0.631763 0.18167
C_ C_ 0.73252 0.744068 0.672665 -0.15533
C_ C_ 0.73154 0.766436 0.723827 0.02923
C_ C_ 0.715838 0.818511 0.731339 -0.15533
C_ C_ 0.695927 0.846194 0.687366 0.18167
C_ C_ 0.732347 0.884134 0.535512 0.69207
C_ C_ 0.778926 0.875504 1.00441618 0.02923
C_ C_ 0.760066 0.863903 0.953138 -0.15533
C_ C_ 0.785708 0.87856 0.915584 -0.15533
C_ C_ 0.835904 0.893983 0.924178 0.02923
C_ C_ 0.856374 0.898491 0.975292 -0.15533
C_ C_ 0.826169 0.891671 0.0161386 0.02923
C_ C_ 0.844297 0.889721 0.570047 0.69207
C_ C_ 0.849315 0.886658 0.829224 0.69661
C_ C_ 0.80772 0.949664 0.679917 0.18167
C_ C_ 0.770342 0.976496 0.705763 -0.15533
C_ C_ 0.781173 0.010053 0.746452 0.02923
C_ C_ 0.821929 0.520149 0.754829 -0.15533
C_ C_ 0.870733 0.989235 0.731996 0.18167
C_ C_ 0.980157 0.853107 0.698824 0.18167
C_ C_ 0.510428 0.813989 0.740629 -0.15533
C_ C_ 0.978096 0.767337 0.728578 0.02923
C_ C_ 0.928441 0.769256 0.706983 -0.15533
C_ C_ 0.901897 0.817848 0.694952 0.18167
C_ C_ 0.981347 0.955996 0.623406 0.69207
C_ C_ 0.522591 0.485787 0.608436 0.02923
C_ C_ 0.505018 0.538408 0.61351 -0.15533
C_ C_ 0.536001 0.575175 0.607448 -0.15533
C_ C_ 0.58655 0.563714 0.594959 0.02923
C_ C_ 0.603368 0.510702 0.583828 -0.15533
C_ C_ 0.570949 0.472292 0.594484 0.02923
C_ C_ 0.598051 0.932422 0.619522 0.69207
C_ C_ 0.609784 0.659735 0.608328 0.69661
C_ C_ 0.933672 0.687901 0.92408 0.18167
C_ C_ 0.976292 0.712677 0.945371 -0.15533
C_ C_ 0.970508 0.744312 0.988747 0.02923
C_ C_ 0.922995 0.753914 0.51282 -0.15533
C_ C_ 0.882364 0.725916 0.98645 0.18167
C_ C_ 0.748585 0.704193 0.851813 0.18167
C_ C_ 0.72574 0.728776 0.808402 -0.15533
C_ C_ 0.754997 0.736847 0.768299 0.02923
C_ C_ 0.807519 0.721742 0.775464 -0.15533
C_ C_ 0.82919 0.699703 0.82114 0.18167
C_ C_ 0.752524 0.623583 0.953508 0.69207
C_ C_ 0.730431 0.611362 0.492179 0.02923
C_ C_ 0.74912 0.607496 0.542943 -0.15533
C_ C_ 0.716635 0.600503 0.579291 -0.15533
C_ C_ 0.663866 0.597034 0.567628 0.02923
C_ C_ 0.646556 0.597346 0.515678 -0.15533
C_ C_ 0.677852 0.606144 0.477403 0.02923
C_ C_ 0.642911 0.603182 0.930023 0.69207
C_ C_ 0.649738 0.593832 0.664785 0.69661
C_ C_ 0.876178 0.885969 0.884172 -0.30787
C_ C_ 0.627144 0.601853 0.609253 -0.30787
N_ N_ 0.639035 0.559131 0.813118 -0.32189
N_ N_ 0.548198 0.63817 0.817499 -0.32189
N_ N_ 0.607053 0.81296 0.553299 -0.32189
N_ N_ 0.689768 0.821075 0.640985 -0.32189
N_ N_ 0.857426 0.953883 0.695856 -0.32189
N_ N_ 0.928892 0.858907 0.690838 -0.32189
N_ N_ 0.887393 0.696725 0.942192 -0.32189
N_ N_ 0.799623 0.688082 0.857128 -0.32189
O_ O_ 0.999846 0.594009 0.891494 -0.63271
O_ O_ 0.538538 0.538696 0.841809 -0.57982
O_ O_ 0.884883 0.596178 0.838824 -0.63271
O_ O_ 0.859469 0.592167 0.917821 -0.57982
O_ O_ 0.729534 0.921252 0.572982 -0.63271
O_ O_ 0.701616 0.84668 0.535553 -0.57982
O_ O_ 0.845521 0.849674 0.596193 -0.63271
O_ O_ 0.873402 0.924738 0.588825 -0.57982
O_ O_ 0.481691 0.920573 0.600028 -0.63271
O_ O_ 0.950608 0.964134 0.658987 -0.57982
O_ O_ 0.591066 0.897003 0.650564 -0.63271
O_ O_ 0.631807 0.919778 0.587007 -0.57982
O_ O_ 0.749577 0.598376 0.907063 -0.63271
O_ O_ 0.786513 0.65684 0.963784 -0.57982
O_ O_ 0.642686 0.643364 0.902193 -0.63271
O_ O_ 0.611609 0.569069 0.912816 -0.57982
F_ F_ 0.93439 0.830714 0.935279 -0.20885
F_ F_ 0.934355 0.817718 0.853691 -0.20885
F_ F_ 0.86776 0.797399 0.892216 -0.20885
F_ F_ 0.809213 0.925822 0.8226 -0.20885
F_ F_ 0.825679 0.842378 0.811956 -0.20885
F_ F_ 0.882136 0.893173 0.794897 -0.20885
F_ F_ 0.57616 0.675698 0.568327 -0.20885
F_ F_ 0.584526 0.676216 0.649097 -0.20885
F_ F_ 0.648173 0.692478 0.609187 -0.20885
F_ F_ 0.679843 0.549998 0.662966 -0.20885
F_ F_ 0.678435 0.631343 0.686577 -0.20885
F_ F_ 0.614483 0.588094 0.698324 -0.20885
_cell_length_a 26.508
_cell_length_b 26.37200000322088
_cell_length_c 26.311999743092066
_cell_angle_alpha 93.74100058972084
_cell_angle_beta 96.04100104955006
_cell_angle_gamma 83.6869992558723
_symmetry_space_group_name_H-M         'P 1'
_symmetry_Int_Tables_number            1
loop_
_symmetry_equiv_pos_as_xyz
   'x, y, z'
                         
loop_
_atom_site_label
_atom_site_type_symbol
_atom_site_fract_x 
_atom_site_fract_y
_atom_site_fract_z
_atom_site_charge
Zn Zn 0.092504 0.0872028 0.345236 0.83971
Zn Zn 0.159151 0.342838 0.0830135 0.83971
Zn Zn 0.405064 0.405907 0.151506 0.83971
Zn Zn 0.343237 0.155048 0.420906 0.83971
H_ H_ 0.171768 0.132246 0.298319 0.10394
H_ H_ 0.253756 0.0992467 0.268102 0.10394
H_ H_ 0.201943 0.444821 0.275057 0.10394
H_ H_ 0.149526 0.986128 0.336121 0.10394
H_ H_ 0.539502 0.0992468 0.256109 0.10394
H_ H_ 0.498331 0.168471 0.206981 0.10394
H_ H_ 0.0295728 0.269657 0.339323 0.10394
H_ H_ 0.0774287 0.19417 0.380056 0.10394
H_ H_ 0.035445 0.443466 0.355752 0.10394
H_ H_ 0.47809 0.379393 0.365962 0.10394
H_ H_ 0.35371 0.491602 0.404568 0.10394
H_ H_ 0.0804943 0.29899 0.128142 0.10394
H_ H_ 0.502321 0.271061 0.103977 0.10394
H_ H_ 0.0396975 0.275208 0.449575 0.10394
H_ H_ 0.11962 0.314223 0.980998 0.10394
H_ H_ 0.230328 0.248294 0.0944074 0.10394
H_ H_ 0.269384 0.199551 0.171531 0.10394
H_ H_ 0.215397 0.325202 0.266565 0.10394
H_ H_ 0.170085 0.367299 0.19468 0.10394
H_ H_ 0.220026 0.359089 0.441159 0.10394
H_ H_ 0.268601 0.383191 0.376165 0.10394
H_ H_ 0.398687 0.397965 0.490977 0.10394
H_ H_ 0.300696 0.387078 0.159206 0.10394
H_ H_ 0.224589 0.436742 0.191095 0.10394
H_ H_ 0.335826 0.0438185 0.283006 0.10394
H_ H_ 0.39574 0.493598 0.230255 0.10394
H_ H_ 0.0174063 0.376104 0.189083 0.10394
H_ H_ 0.0502049 0.313322 0.250703 0.10394
H_ H_ 0.418715 0.229589 0.208804 0.10394
H_ H_ 0.373851 0.308545 0.178775 0.10394
H_ H_ 0.463207 0.0398891 0.127973 0.10394
H_ H_ 0.0130616 0.119199 0.101424 0.10394
H_ H_ 0.141711 0.0057982 0.0864069 0.10394
H_ H_ 0.444179 0.166044 0.399625 0.10394
H_ H_ 0.0144959 0.190134 0.453245 0.10394
H_ H_ 0.406484 0.280669 0.0366945 0.10394
H_ H_ 0.341923 0.246364 0.489325 0.10394
H_ H_ 0.243045 0.193287 0.380545 0.10394
H_ H_ 0.200499 0.241063 0.310891 0.10394
H_ H_ 0.344424 0.223619 0.247147 0.10394
H_ H_ 0.386814 0.184782 0.331276 0.10394
H_ H_ 0.287559 0.128296 0.0553233 0.10394
H_ H_ 0.228154 0.127837 0.118586 0.10394
H_ H_ 0.110877 0.100604 0.00497397 0.10394
C_ C_ 0.181416 0.0928457 0.293876 0.18167
C_ C_ 0.228958 0.0735545 0.281083 -0.15533
C_ C_ 0.239694 0.0215039 0.273378 0.02923
C_ C_ 0.194781 0.48709 0.279732 -0.15533
C_ C_ 0.164864 0.00987094 0.313142 0.18167
C_ C_ 0.0285678 0.140679 0.270406 0.18167
C_ C_ 0.514014 0.178258 0.246688 -0.15533
C_ C_ 0.0049554 0.229901 0.26895 0.02923
C_ C_ 0.0335169 0.235026 0.3174 -0.15533
C_ C_ 0.0568983 0.192896 0.341933 0.18167
C_ C_ 0.0130174 0.0496456 0.369808 0.69207
C_ C_ 0.477192 0.505362 0.379442 0.02923
C_ C_ 0.496619 0.454536 0.380632 -0.15533
C_ C_ 0.46315 0.416501 0.379757 -0.15533
C_ C_ 0.411713 0.427693 0.391261 0.02923
C_ C_ 0.394125 0.479808 0.398682 -0.15533
C_ C_ 0.423822 0.518262 0.385287 0.02923
C_ C_ 0.395039 0.0685653 0.383604 0.69207
C_ C_ 0.397149 0.329602 0.382782 0.69661
C_ C_ 0.0687 0.29908 0.0880601 0.18167
C_ C_ 0.0232681 0.283017 0.0681862 -0.15533
C_ C_ 0.0111177 0.276334 0.0148793 0.02923
C_ C_ 0.0456123 0.285205 0.490175 -0.15533
C_ C_ 0.0953257 0.298683 0.00513517 0.18167
C_ C_ 0.226703 0.264127 0.132582 0.18167
C_ C_ 0.249223 0.237384 0.175246 -0.15533
C_ C_ 0.244585 0.258333 0.224589 0.02923
C_ C_ 0.217944 0.307666 0.228782 -0.15533
C_ C_ 0.193491 0.332126 0.187011 0.18167
C_ C_ 0.238388 0.362095 0.0404634 0.69207
C_ C_ 0.27712 0.372149 0.505636 0.02923
C_ C_ 0.257624 0.371151 0.45236 -0.15533
C_ C_ 0.288236 0.381606 0.414401 -0.15533
C_ C_ 0.338804 0.388841 0.425561 0.02923
C_ C_ 0.360567 0.390497 0.477815 -0.15533
C_ C_ 0.330913 0.380566 0.517042 0.02923
C_ C_ 0.348459 0.37381 0.0672398 0.69207
C_ C_ 0.347509 0.391655 0.32884 0.69661
C_ C_ 0.306792 0.421871 0.181213 0.18167
C_ C_ 0.262228 0.451387 0.200887 -0.15533
C_ C_ 0.26908 0.494352 0.233337 0.02923
C_ C_ 0.329094 0.0177781 0.251359 -0.15533
C_ C_ 0.357514 0.48389 0.216987 0.18167
C_ C_ 0.488968 0.352967 0.204581 0.18167
C_ C_ 0.00908943 0.313879 0.233206 -0.15533
C_ C_ 0.484489 0.271184 0.24176 0.02923
C_ C_ 0.436685 0.265918 0.214895 -0.15533
C_ C_ 0.413073 0.309222 0.191188 0.18167
C_ C_ 0.476975 0.449056 0.111203 0.69207
C_ C_ 0.0173298 0.991002 0.108716 0.02923
C_ C_ 2.77077e-05 0.0427955 0.103369 -0.15533
C_ C_ 0.0317858 0.0787994 0.100006 -0.15533
C_ C_ 0.0849625 0.066792 0.0976148 0.02923
C_ C_ 0.101895 0.0158633 0.0952621 -0.15533
C_ C_ 0.0703996 0.977237 0.102292 0.02923
C_ C_ 0.1045 0.425194 0.105507 0.69207
C_ C_ 0.10091 0.163365 0.113052 0.69661
C_ C_ 0.43898 0.188495 0.433691 0.18167
C_ C_ 0.48124 0.210306 0.461312 -0.15533
C_ C_ 0.47221 0.248283 0.498947 0.02923
C_ C_ 0.418465 0.250396 0.012746 -0.15533
C_ C_ 0.383451 0.232422 0.486946 0.18167
C_ C_ 0.265033 0.20017 0.352415 0.18167
C_ C_ 0.242055 0.226192 0.311066 -0.15533
C_ C_ 0.269815 0.230785 0.270377 0.02923
C_ C_ 0.321585 0.213105 0.275079 -0.15533
C_ C_ 0.34427 0.189103 0.320928 0.18167
C_ C_ 0.260897 0.126619 0.456676 0.69207
C_ C_ 0.229871 0.118194 0.990937 0.02923
C_ C_ 0.2472 0.120916 0.043805 -0.15533
C_ C_ 0.216925 0.113629 0.0823821 -0.15533
C_ C_ 0.16735 0.101314 0.0694015 0.02923
C_ C_ 0.151062 0.10127 0.0156697 -0.15533
C_ C_ 0.179278 0.106998 0.9752 0.02923
C_ C_ 0.149496 0.114566 0.426534 0.69207
C_ C_ 0.147633 0.0984947 0.164976 0.69661
C_ C_ 0.374413 0.384966 0.382811 -0.30787
C_ C_ 0.125495 0.106765 0.109232 -0.30787
N_ N_ 0.150582 0.0621203 0.311457 -0.32189
N_ N_ 0.0550712 0.146348 0.315932 -0.32189
N_ N_ 0.103878 0.307712 0.0566651 -0.32189
N_ N_ 0.197029 0.3091 0.140004 -0.32189
N_ N_ 0.353956 0.437762 0.192982 -0.32189
N_ N_ 0.439079 0.350402 0.186011 -0.32189
N_ N_ 0.393878 0.19756 0.450328 -0.32189
N_ N_ 0.313674 0.183082 0.357496 -0.32189
O_ O_ 0.501932 0.0858819 0.399327 -0.63271
O_ O_ 0.0483948 0.0395557 0.339733 -0.57982
O_ O_ 0.402075 0.0964285 0.345907 -0.63271
O_ O_ 0.37336 0.0896637 0.423929 -0.57982
O_ O_ 0.239116 0.392694 0.0818532 -0.63271
O_ O_ 0.201142 0.329787 0.0345694 -0.57982
O_ O_ 0.341495 0.336811 0.0953485 -0.63271
O_ O_ 0.377704 0.408982 0.0856682 -0.57982
O_ O_ 0.999437 0.406148 0.0982074 -0.63271
O_ O_ 0.450289 0.452137 0.148787 -0.57982
O_ O_ 0.101547 0.398359 0.145341 -0.63271
O_ O_ 0.136403 0.406466 0.0722239 -0.57982
O_ O_ 0.259068 0.0947476 0.415328 -0.63271
O_ O_ 0.294094 0.160836 0.461794 -0.57982
O_ O_ 0.159111 0.149987 0.395407 -0.63271
O_ O_ 0.112002 0.0862002 0.411182 -0.57982
F_ F_ 0.430437 0.31218 0.422865 -0.20885
F_ F_ 0.424306 0.318618 0.341542 -0.20885
F_ F_ 0.365816 0.292138 0.372728 -0.20885
F_ F_ 0.315081 0.437029 0.328198 -0.20885
F_ F_ 0.317772 0.354343 0.310806 -0.20885
F_ F_ 0.382455 0.390434 0.291547 -0.20885
F_ F_ 0.0702867 0.175677 0.0688787 -0.20885
F_ F_ 0.0661378 0.17101 0.150013 -0.20885
F_ F_ 0.138042 0.196253 0.12094 -0.20885
F_ F_ 0.181858 0.054871 0.163961 -0.20885
F_ F_ 0.173066 0.135514 0.190179 -0.20885
F_ F_ 0.110447 0.0894213 0.197263 -0.20885
Zn Zn 0.0826523 0.090499 0.843981 0.83971
Zn Zn 0.160124 0.351554 0.585842 0.83971
Zn Zn 0.406592 0.407822 0.655947 0.83971
Zn Zn 0.343857 0.149237 0.911118 0.83971
H_ H_ 0.166073 0.132957 0.804466 0.10394
H_ H_ 0.241716 0.0999548 0.762918 0.10394
H_ H_ 0.209679 0.446383 0.780447 0.10394
H_ H_ 0.138188 0.986489 0.846362 0.10394
H_ H_ 0.528068 0.0934574 0.760538 0.10394
H_ H_ 0.493638 0.162085 0.709109 0.10394
H_ H_ 0.0388212 0.279367 0.835512 0.10394
H_ H_ 0.0813898 0.201313 0.876235 0.10394
H_ H_ 0.02973 0.449726 0.868353 0.10394
H_ H_ 0.470616 0.373193 0.848964 0.10394
H_ H_ 0.351591 0.477583 0.905145 0.10394
H_ H_ 0.0774982 0.310705 0.633625 0.10394
H_ H_ 0.504601 0.272528 0.596035 0.10394
H_ H_ 0.0415539 0.273273 0.94217 0.10394
H_ H_ 0.113653 0.318989 0.483865 0.10394
H_ H_ 0.229919 0.261404 0.594176 0.10394
H_ H_ 0.279372 0.219261 0.668381 0.10394
H_ H_ 0.195486 0.325086 0.769057 0.10394
H_ H_ 0.160084 0.370742 0.69548 0.10394
H_ H_ 0.209187 0.374585 0.940128 0.10394
H_ H_ 0.262258 0.388094 0.874525 0.10394
H_ H_ 0.395911 0.383664 0.982215 0.10394
H_ H_ 0.307101 0.392689 0.661697 0.10394
H_ H_ 0.230711 0.450329 0.686054 0.10394
H_ H_ 0.333969 0.0433498 0.792338 0.10394
H_ H_ 0.403414 0.501148 0.727684 0.10394
H_ H_ 0.0139751 0.401939 0.698802 0.10394
H_ H_ 0.0581271 0.330881 0.746046 0.10394
H_ H_ 0.406279 0.236092 0.724053 0.10394
H_ H_ 0.370785 0.306602 0.676046 0.10394
H_ H_ 0.459001 0.0610495 0.613057 0.10394
H_ H_ 0.0136617 0.124956 0.615524 0.10394
H_ H_ 0.142275 0.00998349 0.599101 0.10394
H_ H_ 0.44673 0.165553 0.893243 0.10394
H_ H_ 0.00993821 0.196621 0.946301 0.10394
H_ H_ 0.411308 0.287198 0.535312 0.10394
H_ H_ 0.341815 0.233133 -0.005603000000000025 0.10394
H_ H_ 0.241325 0.197297 0.883164 0.10394
H_ H_ 0.199005 0.243199 0.808682 0.10394
H_ H_ 0.336633 0.210421 0.733314 0.10394
H_ H_ 0.378909 0.177058 0.819194 0.10394
H_ H_ 0.277595 0.140003 0.563299 0.10394
H_ H_ 0.231959 0.11721 0.624341 0.10394
H_ H_ 0.105407 0.0959337 0.507059 0.10394
C_ C_ 0.17352 0.0918886 0.797681 0.18167
C_ C_ 0.219929 0.0730411 0.780907 -0.15533
C_ C_ 0.234151 0.0193761 0.780498 0.02923
C_ C_ 0.200912 0.487602 0.783183 -0.15533
C_ C_ 0.159589 0.0103462 0.821837 0.18167
C_ C_ 0.0350539 0.147321 0.766965 0.18167
C_ C_ 0.507402 0.171773 0.7488 -0.15533
C_ C_ 0.0164668 0.237777 0.76408 0.02923
C_ C_ 0.0407376 0.241901 0.815108 -0.15533
C_ C_ 0.0593376 0.197674 0.840667 0.18167
C_ C_ 0.00626792 0.051285 0.865806 0.69207
C_ C_ 0.467475 0.501899 0.868778 0.02923
C_ C_ 0.486307 0.450569 0.857255 -0.15533
C_ C_ 0.452865 0.411797 0.856982 -0.15533
C_ C_ 0.406603 0.420257 0.879839 0.02923
C_ C_ 0.388654 0.471108 0.894167 -0.15533
C_ C_ 0.416805 0.512152 0.884341 0.02923
C_ C_ 0.405503 0.0684458 0.896334 0.69207
C_ C_ 0.399914 0.321956 0.883058 0.69661
C_ C_ 0.0630259 0.313179 0.593703 0.18167
C_ C_ 0.0212048 0.287636 0.576284 -0.15533
C_ C_ 0.0127231 0.273284 0.524695 0.02923
C_ C_ 0.0492886 0.283299 0.983724 -0.15533
C_ C_ 0.0869466 0.311729 0.509064 0.18167
C_ C_ 0.226325 0.276071 0.633371 0.18167
C_ C_ 0.250077 0.249287 0.675517 -0.15533
C_ C_ 0.240528 0.266349 0.723807 0.02923
C_ C_ 0.204539 0.30925 0.730932 -0.15533
C_ C_ 0.183777 0.336296 0.68998 0.18167
C_ C_ 0.238384 0.370721 0.542647 0.69207
C_ C_ 0.273352 0.370222 0.00197007 0.02923
C_ C_ 0.252631 0.368169 0.950168 -0.15533
C_ C_ 0.282655 0.3795 0.911816 -0.15533
C_ C_ 0.335175 0.3821 0.922135 0.02923
C_ C_ 0.357102 0.379657 0.974033 -0.15533
C_ C_ 0.326368 0.374817 0.0141834 0.02923
C_ C_ 0.354833 0.377683 0.570374 0.69207
C_ C_ 0.345411 0.378736 0.822527 0.69661
C_ C_ 0.311313 0.43152 0.679625 0.18167
C_ C_ 0.268557 0.459028 0.701305 -0.15533
C_ C_ 0.279177 0.496503 0.740836 0.02923
C_ C_ 0.326675 0.014161 0.764352 -0.15533
C_ C_ 0.366925 0.488305 0.723536 0.18167
C_ C_ 0.487219 0.342992 0.702095 0.18167
C_ C_ 0.0180762 0.329832 0.734163 -0.15533
C_ C_ 0.479514 0.264521 0.74368 0.02923
C_ C_ 0.42853 0.26714 0.723628 -0.15533
C_ C_ 0.409137 0.306814 0.69191 0.18167
C_ C_ 0.488208 0.446704 0.619959 0.69207
C_ C_ 0.0173353 0.995578 0.615323 0.02923
C_ C_ -0.0006396 0.0469382 0.619944 -0.15533
C_ C_ 0.0300285 0.0854751 0.612795 -0.15533
C_ C_ 0.0818783 0.0718391 0.607858 0.02923
C_ C_ 0.100982 0.0213351 0.60125 -0.15533
C_ C_ 0.0701329 0.982113 0.60935 0.02923
C_ C_ 0.0955927 0.432722 0.607947 0.69207
C_ C_ 0.100173 0.163657 0.611314 0.69661
C_ C_ 0.441017 0.181969 0.931575 0.18167
C_ C_ 0.481121 0.200915 0.964029 -0.15533
C_ C_ 0.470222 0.238977 1.00180653 0.02923
C_ C_ 0.422656 0.255941 0.51612 -0.15533
C_ C_ 0.380082 0.226663 0.982962 0.18167
C_ C_ 0.264209 0.204011 0.851187 0.18167
C_ C_ 0.240805 0.232686 0.810101 -0.15533
C_ C_ 0.267476 0.240453 0.768453 0.02923
C_ C_ 0.31823 0.214119 0.768174 -0.15533
C_ C_ 0.340915 0.191213 0.814573 0.18167
C_ C_ 0.263817 0.126049 0.952952 0.69207
C_ C_ 0.222542 0.12447 0.497192 0.02923
C_ C_ 0.241873 0.128125 0.548291 -0.15533
C_ C_ 0.212384 0.11668 0.584788 -0.15533
C_ C_ 0.162794 0.102933 0.572168 0.02923
C_ C_ 0.144216 0.102292 0.519836 -0.15533
C_ C_ 0.172308 0.111541 0.480276 0.02923
C_ C_ 0.153818 0.112578 0.923227 0.69207
C_ C_ 0.15094 0.103489 0.667634 0.69661
C_ C_ 0.371217 0.377309 0.878355 -0.30787
C_ C_ 0.124409 0.108103 0.611426 -0.30787
N_ N_ 0.143549 0.0613113 0.816152 -0.32189
N_ N_ 0.0538959 0.151863 0.817017 -0.32189
N_ N_ 0.0962585 0.324815 0.559771 -0.32189
N_ N_ 0.193316 0.317499 0.642273 -0.32189
N_ N_ 0.358562 0.445527 0.694485 -0.32189
N_ N_ 0.437496 0.346041 0.686419 -0.32189
N_ N_ 0.391319 0.191939 0.943011 -0.32189
N_ N_ 0.310862 0.178835 0.850146 -0.32189
O_ O_ 0.508472 0.0860353 0.901655 -0.63271
O_ O_ 0.0440535 0.0394417 0.836012 -0.57982
O_ O_ 0.400795 0.091691 0.853579 -0.63271
O_ O_ 0.378434 0.088826 0.931297 -0.57982
O_ O_ 0.249407 0.388814 0.587559 -0.63271
O_ O_ 0.201961 0.342342 0.533521 -0.57982
O_ O_ 0.353212 0.33635 0.5952 -0.63271
O_ O_ 0.384745 0.41339 0.588997 -0.57982
O_ O_ 0.986622 0.419899 0.598867 -0.63271
O_ O_ 0.452909 0.456947 0.654687 -0.57982
O_ O_ 0.0929664 0.412431 0.653557 -0.63271
O_ O_ 0.135558 0.416651 0.583053 -0.57982
O_ O_ 0.265105 0.0941274 0.911797 -0.63271
O_ O_ 0.296832 0.160648 0.959281 -0.57982
O_ O_ 0.161338 0.15189 0.896434 -0.63271
O_ O_ 0.113559 0.0888805 0.908765 -0.57982
F_ F_ 0.439887 0.322266 0.922818 -0.20885
F_ F_ 0.422538 0.303273 0.839203 -0.20885
F_ F_ 0.366898 0.286797 0.891706 -0.20885
F_ F_ 0.311796 0.420617 0.814744 -0.20885
F_ F_ 0.321443 0.335391 0.807445 -0.20885
F_ F_ 0.381546 0.376742 0.786817 -0.20885
F_ F_ 0.0672978 0.174456 0.568267 -0.20885
F_ F_ 0.0745328 0.180701 0.655084 -0.20885
F_ F_ 0.133373 0.201951 0.607394 -0.20885
F_ F_ 0.188598 0.0631027 0.67077 -0.20885
F_ F_ 0.174463 0.142659 0.688556 -0.20885
F_ F_ 0.116753 0.0936965 0.701258 -0.20885
Zn Zn 0.0903973 0.587894 0.345397 0.83971
Zn Zn 0.159942 0.839024 0.0815782 0.83971
Zn Zn 0.409062 0.91251 0.155545 0.83971
Zn Zn 0.342527 0.660514 0.41308 0.83971
H_ H_ 0.16851 0.630521 0.301474 0.10394
H_ H_ 0.247764 0.596991 0.259434 0.10394
H_ H_ 0.219401 0.949454 0.293825 0.10394
H_ H_ 0.123673 0.482675 0.310958 0.10394
H_ H_ 0.512074 0.589861 0.258752 0.10394
H_ H_ 0.455679 0.663637 0.215757 0.10394
H_ H_ 0.0255749 0.770892 0.338511 0.10394
H_ H_ 0.069366 0.696424 0.381486 0.10394
H_ H_ 0.0395143 0.94294 0.367169 0.10394
H_ H_ 0.47184 0.876448 0.342571 0.10394
H_ H_ 0.356356 0.983987 0.40543 0.10394
H_ H_ 0.0829476 0.796344 0.126419 0.10394
H_ H_ 0.505502 0.767644 0.102752 0.10394
H_ H_ 0.032488 0.799203 0.442704 0.10394
H_ H_ 0.120298 0.815463 0.980626 0.10394
H_ H_ 0.219734 0.749839 0.0947962 0.10394
H_ H_ 0.250281 0.695763 0.167282 0.10394
H_ H_ 0.208249 0.82675 0.269831 0.10394
H_ H_ 0.176443 0.876526 0.194781 0.10394
H_ H_ 0.220668 0.872722 0.443649 0.10394
H_ H_ 0.271181 0.898687 0.382977 0.10394
H_ H_ 0.402562 0.896896 0.488523 0.10394
H_ H_ 0.308555 0.90442 0.153047 0.10394
H_ H_ 0.234 0.950683 0.196172 0.10394
H_ H_ 0.32347 0.540998 0.26934 0.10394
H_ H_ 0.407373 0.003249999999999975 0.232845 0.10394
H_ H_ 0.0136941 0.889484 0.20229 0.10394
H_ H_ 0.0529122 0.808153 0.242481 0.10394
H_ H_ 0.395215 0.74901 0.236316 0.10394
H_ H_ 0.360255 0.830573 0.195646 0.10394
H_ H_ 0.456453 0.553814 0.1087 0.10394
H_ H_ 0.0197778 0.61623 0.0921557 0.10394
H_ H_ 0.149903 0.507827 0.0885407 0.10394
H_ H_ 0.442753 0.675045 0.383691 0.10394
H_ H_ 0.0139537 0.706258 0.440276 0.10394
H_ H_ 0.418515 0.782904 0.0423975 0.10394
H_ H_ 0.352866 0.742708 0.49481 0.10394
H_ H_ 0.24062 0.728039 0.398027 0.10394
H_ H_ 0.193138 0.75938 0.321349 0.10394
H_ H_ 0.318696 0.69583 0.234384 0.10394
H_ H_ 0.363291 0.665178 0.311857 0.10394
H_ H_ 0.277559 0.638172 0.0473417 0.10394
H_ H_ 0.230388 0.622425 0.112579 0.10394
H_ H_ 0.103327 0.593267 0.00121437 0.10394
C_ C_ 0.176937 0.591723 0.293999 0.18167
C_ C_ 0.219789 0.573076 0.270947 -0.15533
C_ C_ 0.226181 0.519436 0.261502 0.02923
C_ C_ 0.207684 0.990537 0.293264 -0.15533
C_ C_ 0.148923 0.508232 0.296281 0.18167
C_ C_ 0.0314287 0.639606 0.266286 0.18167
C_ C_ 0.485748 0.668672 0.248971 -0.15533
C_ C_ 0.0077946 0.73141 0.266543 0.02923
C_ C_ 0.0348035 0.736412 0.315335 -0.15533
C_ C_ 0.0543078 0.693502 0.34036 0.18167
C_ C_ 0.00869848 0.546822 0.358091 0.69207
C_ C_ 0.47115 0.0048202 0.364977 0.02923
C_ C_ 0.485498 0.953483 0.346945 -0.15533
C_ C_ 0.459676 0.914651 0.357099 -0.15533
C_ C_ 0.414387 0.924698 0.383748 0.02923
C_ C_ 0.395973 0.975862 0.395538 -0.15533
C_ C_ 0.423045 0.0171514 0.386037 0.02923
C_ C_ 0.400386 0.571695 0.382568 0.69207
C_ C_ 0.400245 0.827744 0.385107 0.69661
C_ C_ 0.0714845 0.794426 0.0849259 0.18167
C_ C_ 0.0257627 0.780669 0.0639795 -0.15533
C_ C_ 0.0157213 0.770909 0.0116369 0.02923
C_ C_ 0.0423088 0.79922 0.485947 -0.15533
C_ C_ 0.0947716 0.805324 0.00336598 0.18167
C_ C_ 0.219605 0.767372 0.134829 0.18167
C_ C_ 0.233796 0.737236 0.175562 -0.15533
C_ C_ 0.229543 0.757807 0.22651 0.02923
C_ C_ 0.211587 0.808215 0.232383 -0.15533
C_ C_ 0.191949 0.836764 0.189648 0.18167
C_ C_ 0.240658 0.860558 0.0437326 0.69207
C_ C_ 0.282624 0.867769 0.506741 0.02923
C_ C_ 0.261062 0.873735 0.455788 -0.15533
C_ C_ 0.290642 0.887197 0.417798 -0.15533
C_ C_ 0.342133 0.892493 0.427175 0.02923
C_ C_ 0.364312 0.888503 0.477286 -0.15533
C_ C_ 0.336137 0.879258 0.517865 0.02923
C_ C_ 0.353619 0.876713 0.0686708 0.69207
C_ C_ 0.348149 0.88008 0.326371 0.69661
C_ C_ 0.314353 0.935829 0.18112 0.18167
C_ C_ 0.272786 0.960388 0.207426 -0.15533
C_ C_ 0.280591 1.000378067 0.241923 0.02923
C_ C_ 0.316564 0.51268 0.238264 -0.15533
C_ C_ 0.36954 0.991029 0.227721 0.18167
C_ C_ 0.48507 0.844378 0.203351 0.18167
C_ C_ 0.0121751 0.815363 0.231807 -0.15533
C_ C_ 0.475524 0.763752 0.23664 0.02923
C_ C_ 0.420528 0.772431 0.221894 -0.15533
C_ C_ 0.401463 0.818392 0.199455 0.18167
C_ C_ 0.492272 0.944 0.133548 0.69207
C_ C_ 0.0276299 0.490698 0.111999 0.02923
C_ C_ 0.00677763 0.540953 0.104964 -0.15533
C_ C_ 0.0377346 0.578049 0.0938647 -0.15533
C_ C_ 0.0891383 0.569868 0.0924787 0.02923
C_ C_ 0.109128 0.517493 0.091162 -0.15533
C_ C_ 0.0805793 0.47839 0.10146 0.02923
C_ C_ 0.0945774 0.922723 0.102102 0.69207
C_ C_ 0.10138 0.668318 0.100915 0.69661
C_ C_ 0.440762 0.689174 0.423815 0.18167
C_ C_ 0.483941 0.704807 0.452782 -0.15533
C_ C_ 0.477615 0.74161 0.493509 0.02923
C_ C_ 0.424647 0.753236 0.0125146 -0.15533
C_ C_ 0.390756 0.728982 0.486882 0.18167
C_ C_ 0.258936 0.72345 0.36178 0.18167
C_ C_ 0.230898 0.739416 0.318544 -0.15533
C_ C_ 0.253866 0.734468 0.272091 0.02923
C_ C_ 0.30309 0.707913 0.269976 -0.15533
C_ C_ 0.328596 0.688226 0.315435 0.18167
C_ C_ 0.263698 0.634121 0.451037 0.69207
C_ C_ 0.222176 0.623758 0.983632 0.02923
C_ C_ 0.239478 0.629667 0.0356538 -0.15533
C_ C_ 0.209884 0.621055 0.072866 -0.15533
C_ C_ 0.161784 0.606221 0.0619814 0.02923
C_ C_ 0.142398 0.601802 0.0110936 -0.15533
C_ C_ 0.173334 0.610522 0.971039 0.02923
C_ C_ 0.158326 0.612573 0.420467 0.69207
C_ C_ 0.149168 0.606127 0.158902 0.69661
C_ C_ 0.376045 0.883581 0.381601 -0.30787
C_ C_ 0.124296 0.612383 0.103346 -0.30787
N_ N_ 0.141651 0.56043 0.305882 -0.32189
N_ N_ 0.0525064 0.648243 0.315595 -0.32189
N_ N_ 0.107136 0.804208 0.0542078 -0.32189
N_ N_ 0.191794 0.813789 0.141932 -0.32189
N_ N_ 0.361347 0.950526 0.195216 -0.32189
N_ N_ 0.433882 0.850506 0.186525 -0.32189
N_ N_ 0.395484 0.700344 0.441305 -0.32189
N_ N_ 0.303682 0.69427 0.358503 -0.32189
O_ O_ 0.507019 0.592202 0.386773 -0.63271
O_ O_ 0.0505082 0.536608 0.335834 -0.57982
O_ O_ 0.401503 0.591437 0.339614 -0.63271
O_ O_ 0.367794 0.591852 0.414434 -0.57982
O_ O_ 0.245687 0.881111 0.0898747 -0.63271
O_ O_ 0.201713 0.835497 0.0304431 -0.57982
O_ O_ 0.355555 0.833708 0.0902875 -0.63271
O_ O_ 0.380533 0.913043 0.0925326 -0.57982
O_ O_ 0.985255 0.906467 0.107778 -0.63271
O_ O_ 0.456753 0.953145 0.16544 -0.57982
O_ O_ 0.0948417 0.896937 0.143826 -0.63271
O_ O_ 0.131751 0.905021 0.0738357 -0.57982
O_ O_ 0.265836 0.601069 0.412557 -0.63271
O_ O_ 0.296447 0.667197 0.458187 -0.57982
O_ O_ 0.157583 0.649874 0.390456 -0.63271
O_ O_ 0.125626 0.578642 0.408782 -0.57982
F_ F_ 0.436742 0.824756 0.427222 -0.20885
F_ F_ 0.425269 0.808193 0.342129 -0.20885
F_ F_ 0.36486 0.794714 0.393036 -0.20885
F_ F_ 0.319027 0.925868 0.318775 -0.20885
F_ F_ 0.316759 0.843703 0.31562 -0.20885
F_ F_ 0.378423 0.881415 0.28813 -0.20885
F_ F_ 0.070082 0.68019 0.0578532 -0.20885
F_ F_ 0.0751291 0.683716 0.142114 -0.20885
F_ F_ 0.140488 0.700323 0.103348 -0.20885
F_ F_ 0.187098 0.56607 0.160236 -0.20885
F_ F_ 0.173819 0.647336 0.179813 -0.20885
F_ F_ 0.117332 0.593631 0.191527 -0.20885
Zn Zn 0.0874431 0.583187 0.839772 0.83971
Zn Zn 0.16283 0.847878 0.583943 0.83971
Zn Zn 0.412065 0.922799 0.660148 0.83971
Zn Zn 0.343547 0.654066 0.917145 0.83971
H_ H_ 0.174967 0.631174 0.807341 0.10394
H_ H_ 0.261225 0.595066 0.790668 0.10394
H_ H_ 0.218184 0.950858 0.81058 0.10394
H_ H_ 0.12187 0.488035 0.800948 0.10394
H_ H_ 0.540655 0.595036 0.745672 0.10394
H_ H_ 0.493773 0.673908 0.697639 0.10394
H_ H_ 0.0115916 0.762466 0.832747 0.10394
H_ H_ 0.0680256 0.689345 0.869229 0.10394
H_ H_ 0.0350294 0.94892 0.876859 0.10394
H_ H_ 0.480533 0.873141 0.873979 0.10394
H_ H_ 0.362447 0.985457 0.918439 0.10394
H_ H_ 0.0836868 0.809571 0.62911 0.10394
H_ H_ 0.510927 0.759674 0.596756 0.10394
H_ H_ 0.0388016 0.787243 0.939413 0.10394
H_ H_ 0.104057 0.846273 0.483465 0.10394
H_ H_ 0.234279 0.751996 0.593898 0.10394
H_ H_ 0.268442 0.70196 0.671182 0.10394
H_ H_ 0.210875 0.828117 0.767084 0.10394
H_ H_ 0.171234 0.869789 0.693483 0.10394
H_ H_ 0.213313 0.877554 0.945675 0.10394
H_ H_ 0.267086 0.911173 0.883488 0.10394
H_ H_ 0.40084 0.894087 0.988856 0.10394
H_ H_ 0.308577 0.90145 0.666234 0.10394
H_ H_ 0.234864 0.948027 0.706 0.10394
H_ H_ 0.334718 0.548394 0.770651 0.10394
H_ H_ 0.401538 0.00450459 0.74238 0.10394
H_ H_ 0.00482011 0.881165 0.688255 0.10394
H_ H_ 0.0486461 0.806819 0.732452 0.10394
H_ H_ 0.407437 0.742736 0.714751 0.10394
H_ H_ 0.368521 0.829554 0.68864 0.10394
H_ H_ 0.464753 0.548215 0.616845 0.10394
H_ H_ 0.020798 0.632159 0.615611 0.10394
H_ H_ 0.140124 0.513296 0.58693 0.10394
H_ H_ 0.449703 0.656334 0.903387 0.10394
H_ H_ 0.0130896 0.702562 0.931895 0.10394
H_ H_ 0.423262 0.79204 0.530708 0.10394
H_ H_ 0.349393 0.732429 0.00115489 0.10394
H_ H_ 0.23962 0.695918 0.887361 0.10394
H_ H_ 0.19025 0.721701 0.805252 0.10394
H_ H_ 0.333124 0.730849 0.745685 0.10394
H_ H_ 0.38123 0.69379 0.824426 0.10394
H_ H_ 0.292141 0.627012 0.551251 0.10394
H_ H_ 0.240773 0.593408 0.612614 0.10394
H_ H_ 0.108736 0.602151 0.504658 0.10394
C_ C_ 0.182053 0.590711 0.801424 0.18167
C_ C_ 0.230661 0.569172 0.785538 -0.15533
C_ C_ 0.238965 0.516021 0.773585 0.02923
C_ C_ 0.204728 0.989065 0.80344 -0.15533
C_ C_ 0.15394 0.509046 0.799405 0.18167
C_ C_ 0.0324044 0.634144 0.755771 0.18167
C_ C_ 0.505571 0.674731 0.738578 -0.15533
C_ C_ 0.005740000000000078 0.723567 0.756782 0.02923
C_ C_ 0.0241128 0.729411 0.808742 -0.15533
C_ C_ 0.0518242 0.68789 0.831513 0.18167
C_ C_ 0.00228358 0.550335 0.865688 0.69207
C_ C_ 0.479541 0.0017300000000000093 0.883937 0.02923
C_ C_ 0.499042 0.94978 0.883361 -0.15533
C_ C_ 0.465721 0.91168 0.881923 -0.15533
C_ C_ 0.415244 0.92235 0.89484 0.02923
C_ C_ 0.39915 0.975486 0.904407 -0.15533
C_ C_ 0.430903 0.0145009 0.897405 0.02923
C_ C_ 0.385917 0.564268 0.879145 0.69207
C_ C_ 0.397582 0.826859 0.893232 0.69661
C_ C_ 0.0731474 0.80429 0.590344 0.18167
C_ C_ 0.0306417 0.778976 0.570982 -0.15533
C_ C_ 0.0161404 0.772922 0.517755 0.02923
C_ C_ 0.0468868 0.791523 0.979712 -0.15533
C_ C_ 0.0869798 0.819959 0.506247 0.18167
C_ C_ 0.225061 0.765926 0.631806 0.18167
C_ C_ 0.245426 0.736113 0.673396 -0.15533
C_ C_ 0.232482 0.756521 0.722921 0.02923
C_ C_ 0.207056 0.806076 0.729329 -0.15533
C_ C_ 0.191937 0.832467 0.687807 0.18167
C_ C_ 0.247393 0.863162 0.54627 0.69207
C_ C_ 0.276808 0.872517 0.005629 0.02923
C_ C_ 0.252783 0.884645 0.955994 -0.15533
C_ C_ 0.285777 0.89665 0.91835 -0.15533
C_ C_ 0.337509 0.895726 0.92933 0.02923
C_ C_ 0.35736 0.891385 0.980171 -0.15533
C_ C_ 0.326855 0.885081 0.0188999 0.02923
C_ C_ 0.363226 0.878072 0.571678 0.69207
C_ C_ 0.352891 0.885495 0.830628 0.69661
C_ C_ 0.31313 0.934151 0.69066 0.18167
C_ C_ 0.27289 0.956739 0.716022 -0.15533
C_ C_ 0.278776 0.994701 0.753367 0.02923
C_ C_ 0.329076 0.512287 0.750555 -0.15533
C_ C_ 0.366548 0.991205 0.737027 0.18167
C_ C_ 0.488566 0.858743 0.716389 0.18167
C_ C_ 0.00565042 0.809647 0.722772 -0.15533
C_ C_ 0.481351 0.771664 0.739 0.02923
C_ C_ 0.429383 0.775599 0.71602 -0.15533
C_ C_ 0.407689 0.823866 0.699219 0.18167
C_ C_ 0.485467 0.961593 0.63091 0.69207
C_ C_ 0.022754 0.50133 0.619483 0.02923
C_ C_ 1.00548101 0.553497 0.616634 -0.15533
C_ C_ 0.0375516 0.591229 0.610925 -0.15533
C_ C_ 0.0865285 0.577214 0.597411 0.02923
C_ C_ 0.0996221 0.524238 0.588558 -0.15533
C_ C_ 0.0700088 0.486229 0.601834 0.02923
C_ C_ 0.0964881 0.928351 0.612179 0.69207
C_ C_ 0.106652 0.668689 0.609133 0.69661
C_ C_ 0.443772 0.67783 0.938587 0.18167
C_ C_ 0.48551 0.694829 0.967946 -0.15533
C_ C_ 0.476203 0.739479 0.0023599999999999177 0.02923
C_ C_ 0.430355 0.75752 0.50573 -0.15533
C_ C_ 0.384835 0.728273 0.986249 0.18167
C_ C_ 0.260374 0.697896 0.854024 0.18167
C_ C_ 0.231714 0.718067 0.809318 -0.15533
C_ C_ 0.258679 0.730982 0.769719 0.02923
C_ C_ 0.313658 0.718091 0.775813 -0.15533
C_ C_ 0.338847 0.701341 0.8221 0.18167
C_ C_ 0.262739 0.626488 0.948019 0.69207
C_ C_ 0.229115 0.630684 0.490247 0.02923
C_ C_ 0.250811 0.624547 0.54127 -0.15533
C_ C_ 0.221185 0.610281 0.578426 -0.15533
C_ C_ 0.167303 0.60503 0.567892 0.02923
C_ C_ 0.14779 0.606185 0.515985 -0.15533
C_ C_ 0.17733 0.619678 0.476699 0.02923
C_ C_ 0.145565 0.616464 0.920059 0.69207
C_ C_ 0.15592 0.600823 0.663756 0.69661
C_ C_ 0.374039 0.884415 0.887072 -0.30787
C_ C_ 0.129463 0.612334 0.609582 -0.30787
N_ N_ 0.144761 0.56068 0.80658 -0.32189
N_ N_ 0.0578981 0.641918 0.805215 -0.32189
N_ N_ 0.102002 0.822621 0.55765 -0.32189
N_ N_ 0.196382 0.81221 0.63846 -0.32189
N_ N_ 0.359447 0.949949 0.703214 -0.32189
N_ N_ 0.438007 0.861445 0.695772 -0.32189
N_ N_ 0.395948 0.691695 0.949247 -0.32189
N_ N_ 0.311674 0.687128 0.858079 -0.32189
O_ O_ 0.499068 0.58127 0.90485 -0.63271
O_ O_ 0.0428544 0.538442 0.838825 -0.57982
O_ O_ 0.388192 0.592672 0.840262 -0.63271
O_ O_ 0.365687 0.583426 0.92092 -0.57982
O_ O_ 0.260687 0.877786 0.59364 -0.63271
O_ O_ 0.207223 0.839147 0.535681 -0.57982
O_ O_ 0.372736 0.83418 0.593589 -0.63271
O_ O_ 0.383084 0.91821 0.594312 -0.57982
O_ O_ 0.981785 0.911717 0.596152 -0.63271
O_ O_ 0.455667 0.968573 0.666717 -0.57982
O_ O_ 0.0942181 0.902796 0.653357 -0.63271
O_ O_ 0.133523 0.915599 0.584851 -0.57982
O_ O_ 0.255866 0.605393 0.901762 -0.63271
O_ O_ 0.294608 0.660844 0.957797 -0.57982
O_ O_ 0.15009 0.657573 0.895242 -0.63271
O_ O_ 0.109523 0.58762 0.905847 -0.57982
F_ F_ 0.433551 0.819114 0.932406 -0.20885
F_ F_ 0.421956 0.803902 0.850753 -0.20885
F_ F_ 0.356946 0.79711 0.895487 -0.20885
F_ F_ 0.325454 0.932165 0.829972 -0.20885
F_ F_ 0.317137 0.848767 0.816114 -0.20885
F_ F_ 0.387725 0.879443 0.795091 -0.20885
F_ F_ 0.0730255 0.676221 0.563881 -0.20885
F_ F_ 0.0824944 0.687056 0.652702 -0.20885
F_ F_ 0.14252 0.701607 0.607289 -0.20885
F_ F_ 0.187704 0.556075 0.66928 -0.20885
F_ F_ 0.180996 0.641398 0.681003 -0.20885
F_ F_ 0.11578 0.5968 0.693778 -0.20885
Zn Zn 0.588556 0.0868074 0.354589 0.83971
Zn Zn 0.659198 0.345124 0.0850718 0.83971
Zn Zn 0.915242 0.413947 0.149484 0.83971
Zn Zn 0.838073 0.153161 0.419353 0.83971
H_ H_ 0.670455 0.135294 0.312059 0.10394
H_ H_ 0.739164 0.103156 0.267958 0.10394
H_ H_ 0.722218 0.44506 0.296274 0.10394
H_ H_ 0.648877 0.987149 0.355536 0.10394
H_ H_ 0.0231784 0.103881 0.256987 0.10394
H_ H_ 0.97421 0.176021 0.212079 0.10394
H_ H_ 0.522011 0.272937 0.340593 0.10394
H_ H_ 0.566323 0.203851 0.386527 0.10394
H_ H_ 0.534585 0.44336 0.373856 0.10394
H_ H_ 0.986151 0.378281 0.370529 0.10394
H_ H_ 0.861805 0.482698 0.404825 0.10394
H_ H_ 0.58155 0.303569 0.134705 0.10394
H_ H_ 0.99929777 0.274458 0.0954284 0.10394
H_ H_ 0.527245 0.30376 0.442499 0.10394
H_ H_ 0.615983 0.315118 0.982632 0.10394
H_ H_ 0.717518 0.249675 0.0947803 0.10394
H_ H_ 0.764901 0.20506 0.161566 0.10394
H_ H_ 0.70741 0.317745 0.270692 0.10394
H_ H_ 0.666879 0.367222 0.200415 0.10394
H_ H_ 0.727545 0.353789 0.44023 0.10394
H_ H_ 0.781302 0.370241 0.373773 0.10394
H_ H_ 0.900127 0.40945 0.487318 0.10394
H_ H_ 0.811642 0.387061 0.159909 0.10394
H_ H_ 0.734058 0.431415 0.201692 0.10394
H_ H_ 0.837471 0.0510613 0.290262 0.10394
H_ H_ 0.903819 0.499103 0.224471 0.10394
H_ H_ 0.513474 0.38172 0.195642 0.10394
H_ H_ 0.551072 0.31172 0.247646 0.10394
H_ H_ 0.902145 0.26124 0.248264 0.10394
H_ H_ 0.873028 0.326524 0.18935 0.10394
H_ H_ 0.958871 0.0549569 0.0948325 0.10394
H_ H_ 0.515535 0.107511 0.120343 0.10394
H_ H_ 0.64702 0.00589625 0.10333 0.10394
H_ H_ 0.938874 0.167837 0.400627 0.10394
H_ H_ 0.519396 0.196481 0.452302 0.10394
H_ H_ 0.909628 0.297134 0.0327413 0.10394
H_ H_ 0.844281 0.235823 0.506595 0.10394
H_ H_ 0.737846 0.210336 0.390048 0.10394
H_ H_ 0.694699 0.239492 0.309441 0.10394
H_ H_ 0.837745 0.218438 0.245888 0.10394
H_ H_ 0.879026 0.193517 0.332628 0.10394
H_ H_ 0.775027 0.140662 0.0644709 0.10394
H_ H_ 0.731049 0.101341 0.125452 0.10394
H_ H_ 0.604532 0.0817342 0.0141767 0.10394
C_ C_ 0.678527 0.0952704 0.311272 0.18167
C_ C_ 0.718988 0.0766112 0.284073 -0.15533
C_ C_ 0.734769 0.0243453 0.280742 0.02923
C_ C_ 0.711041 0.48399 0.292576 -0.15533
C_ C_ 0.665913 0.0116304 0.331741 0.18167
C_ C_ 0.53715 0.138835 0.274471 0.18167
C_ C_ 0.0024951 0.182673 0.246171 -0.15533
C_ C_ 0.514229 0.228025 0.267609 0.02923
C_ C_ 0.528913 0.234872 0.319695 -0.15533
C_ C_ 0.553041 0.194401 0.347639 0.18167
C_ C_ 0.505576 0.0458452 0.364356 0.69207
C_ C_ 0.975481 0.505678 0.364474 0.02923
C_ C_ 0.995202 0.454202 0.362822 -0.15533
C_ C_ 0.970214 0.41581 0.379627 -0.15533
C_ C_ 0.920477 0.425817 0.390488 0.02923
C_ C_ 0.898351 0.477258 0.392138 -0.15533
C_ C_ 0.92677 0.518618 0.381151 0.02923
C_ C_ 0.90409 0.0713198 0.390992 0.69207
C_ C_ 0.911545 0.329138 0.387598 0.69661
C_ C_ 0.573043 0.295702 0.0939565 0.18167
C_ C_ 0.526995 0.276742 0.0770532 -0.15533
C_ C_ 0.510684 0.271588 0.0228345 0.02923
C_ C_ 0.542591 0.299764 0.483877 -0.15533
C_ C_ 0.588707 0.308 0.00798718 0.18167
C_ C_ 0.719289 0.266014 0.133735 0.18167
C_ C_ 0.743881 0.237407 0.173498 -0.15533
C_ C_ 0.736636 0.254916 0.224333 0.02923
C_ C_ 0.705696 0.300062 0.232687 -0.15533
C_ C_ 0.685862 0.329594 0.192464 0.18167
C_ C_ 0.743807 0.367162 0.0482438 0.69207
C_ C_ 0.782229 0.368248 0.501897 0.02923
C_ C_ 0.76501 0.364954 0.450488 -0.15533
C_ C_ 0.797728 0.367707 0.413942 -0.15533
C_ C_ 0.845047 0.387125 0.425325 0.02923
C_ C_ 0.861925 0.397142 0.4779 -0.15533
C_ C_ 0.830605 0.386779 0.516039 0.02923
C_ C_ 0.856302 0.38272 0.0694447 0.69207
C_ C_ 0.861801 0.383249 0.327786 0.69661
C_ C_ 0.816317 0.422457 0.181708 0.18167
C_ C_ 0.772643 0.446259 0.206219 -0.15533
C_ C_ 0.78073 0.48991 0.238392 0.02923
C_ C_ 0.828413 0.0210572 0.26032 -0.15533
C_ C_ 0.869045 0.482057 0.221613 0.18167
C_ C_ 0.991534 0.350914 0.202349 0.18167
C_ C_ 0.510051 0.315548 0.239481 -0.15533
C_ C_ 0.979096 0.275307 0.244438 0.02923
C_ C_ 0.928283 0.280629 0.229564 -0.15533
C_ C_ 0.911513 0.319659 0.196852 0.18167
C_ C_ 0.993511 0.451052 0.119743 0.69207
C_ C_ 0.525727 0.983354 0.125668 0.02923
C_ C_ 0.504462 0.0335099 0.124211 -0.15533
C_ C_ 0.536375 0.0727252 0.118799 -0.15533
C_ C_ 0.587186 0.0631447 0.113125 0.02923
C_ C_ 0.607885 0.0110269 0.110248 -0.15533
C_ C_ 0.577852 0.972464 0.121454 0.02923
C_ C_ 0.590088 0.422032 0.104072 0.69207
C_ C_ 0.592765 0.160702 0.104545 0.69661
C_ C_ 0.935767 0.183172 0.437539 0.18167
C_ C_ 0.977572 0.200073 0.46837 -0.15533
C_ C_ 0.96981 0.243066 0.50367 0.02923
C_ C_ 0.917836 0.260644 0.012418 -0.15533
C_ C_ 0.882023 0.222985 0.496332 0.18167
C_ C_ 0.758213 0.204266 0.358334 0.18167
C_ C_ 0.734237 0.224547 0.311289 -0.15533
C_ C_ 0.760739 0.227703 0.269654 0.02923
C_ C_ 0.813294 0.211466 0.276043 -0.15533
C_ C_ 0.836994 0.190638 0.322151 0.18167
C_ C_ 0.758862 0.128082 0.460358 0.69207
C_ C_ 0.723548 0.119997 0.99829353 0.02923
C_ C_ 0.738181 0.127562 0.0514889 -0.15533
C_ C_ 0.711572 0.107726 0.0873838 -0.15533
C_ C_ 0.660509 0.097897 0.0747094 0.02923
C_ C_ 0.643113 0.0937594 0.0248155 -0.15533
C_ C_ 0.674756 0.101873 0.986202 0.02923
C_ C_ 0.647679 0.116677 0.433614 0.69207
C_ C_ 0.643971 0.113548 0.170845 0.69661
C_ C_ 0.885373 0.382561 0.384162 -0.30787
C_ C_ 0.621064 0.106662 0.113772 -0.30787
N_ N_ 0.650701 0.0634034 0.331826 -0.32189
N_ N_ 0.560216 0.147316 0.323763 -0.32189
N_ N_ 0.603886 0.306395 0.0598433 -0.32189
N_ N_ 0.690212 0.311025 0.143819 -0.32189
N_ N_ 0.862616 0.440606 0.191654 -0.32189
N_ N_ 0.942004 0.355178 0.185136 -0.32189
N_ N_ 0.888826 0.192999 0.45344 -0.32189
N_ N_ 0.80748 0.18403 0.359803 -0.32189
O_ O_ 0.0029081 0.0957318 0.390129 -0.63271
O_ O_ 0.54813 0.0365861 0.341954 -0.57982
O_ O_ 0.9001 0.0926888 0.345732 -0.63271
O_ O_ 0.873178 0.0873177 0.424725 -0.57982
O_ O_ 0.742837 0.401613 0.0857349 -0.63271
O_ O_ 0.705433 0.339405 0.0386765 -0.57982
O_ O_ 0.858708 0.340826 0.0944024 -0.63271
O_ O_ 0.888727 0.414269 0.0823178 -0.57982
O_ O_ 0.482507 0.406111 0.0850084 -0.63271
O_ O_ 0.961788 0.459974 0.154679 -0.57982
O_ O_ 0.591349 0.400047 0.14789 -0.63271
O_ O_ 0.62302 0.40563 0.0705205 -0.57982
O_ O_ 0.753673 0.10151 0.416582 -0.63271
O_ O_ 0.79664 0.155523 0.466955 -0.57982
O_ O_ 0.646473 0.159698 0.408613 -0.63271
O_ O_ 0.615404 0.0853853 0.418425 -0.57982
F_ F_ 0.945352 0.328643 0.432797 -0.20885
F_ F_ 0.935551 0.307048 0.345966 -0.20885
F_ F_ 0.876071 0.29231 0.395308 -0.20885
F_ F_ 0.821681 0.420939 0.325244 -0.20885
F_ F_ 0.838947 0.339665 0.310747 -0.20885
F_ F_ 0.89953 0.391299 0.297132 -0.20885
F_ F_ 0.558736 0.157344 0.0604289 -0.20885
F_ F_ 0.565454 0.18079 0.143829 -0.20885
F_ F_ 0.628533 0.196059 0.0973748 -0.20885
F_ F_ 0.67825 0.0710974 0.183568 -0.20885
F_ F_ 0.670461 0.156159 0.17983 -0.20885
F_ F_ 0.606566 0.11584 0.204895 -0.20885
Zn Zn 0.589649 0.0797567 0.854413 0.83971
Zn Zn 0.664474 0.345861 0.577196 0.83971
Zn Zn 0.904854 0.427809 0.653237 0.83971
Zn Zn 0.832654 0.158157 0.917141 0.83971
H_ H_ 0.677779 0.135678 0.826707 0.10394
H_ H_ 0.76257 0.0981306 0.802095 0.10394
H_ H_ 0.710708 0.450538 0.783979 0.10394
H_ H_ 0.630452 0.988903 0.810435 0.10394
H_ H_ 0.0338146 0.110888 0.74781 0.10394
H_ H_ 0.981801 0.182922 0.710928 0.10394
H_ H_ 0.524717 0.264603 0.839404 0.10394
H_ H_ 0.567482 0.190584 0.885105 0.10394
H_ H_ 0.527454 0.439509 0.852801 0.10394
H_ H_ 0.980876 0.385201 0.887536 0.10394
H_ H_ 0.848656 0.488615 0.900595 0.10394
H_ H_ 0.583319 0.311834 0.627256 0.10394
H_ H_ -0.002686999999999995 0.275229 0.603651 0.10394
H_ H_ 0.52744 0.291121 0.948632 0.10394
H_ H_ 0.611547 0.333226 0.478773 0.10394
H_ H_ 0.712685 0.2419 0.596775 0.10394
H_ H_ 0.748512 0.197728 0.674056 0.10394
H_ H_ 0.713805 0.336167 0.765465 0.10394
H_ H_ 0.690922 0.381276 0.686256 0.10394
H_ H_ 0.720385 0.355953 0.94967 0.10394
H_ H_ 0.774415 0.35286 0.876391 0.10394
H_ H_ 0.895322 0.410607 0.988732 0.10394
H_ H_ 0.80551 0.407244 0.661341 0.10394
H_ H_ 0.7292 0.455536 0.690446 0.10394
H_ H_ 0.843249 0.0414075 0.789602 0.10394
H_ H_ 0.902248 0.505655 0.74275 0.10394
H_ H_ 0.511142 0.373781 0.694798 0.10394
H_ H_ 0.54785 0.30092 0.751842 0.10394
H_ H_ 0.918754 0.254414 0.719907 0.10394
H_ H_ 0.878666 0.329705 0.680219 0.10394
H_ H_ 0.963573 0.0609633 0.637626 0.10394
H_ H_ 0.511855 0.127507 0.606811 0.10394
H_ H_ 0.644002 0.01751 0.619733 0.10394
H_ H_ 0.936455 0.161318 0.898299 0.10394
H_ H_ 0.519642 0.196959 0.951794 0.10394
H_ H_ 0.906291 0.286735 0.538126 0.10394
H_ H_ 0.840916 0.246664 -0.00202045 0.10394
H_ H_ 0.726375 0.202458 0.884797 0.10394
H_ H_ 0.687476 0.241586 0.805941 0.10394
H_ H_ 0.836626 0.223583 0.753095 0.10394
H_ H_ 0.874311 0.19254 0.831523 0.10394
H_ H_ 0.777142 0.151964 0.561919 0.10394
H_ H_ 0.726101 0.130177 0.631907 0.10394
H_ H_ 0.603703 0.0950274 0.518141 0.10394
C_ C_ 0.684266 0.0964997 0.815345 0.18167
C_ C_ 0.728185 0.0795025 0.793065 -0.15533
C_ C_ 0.739945 0.0276058 0.781037 0.02923
C_ C_ 0.695888 0.490645 0.783011 -0.15533
C_ C_ 0.660338 0.0112075 0.81526 0.18167
C_ C_ 0.53082 0.13102 0.776627 0.18167
C_ C_ 0.00994718 0.189019 0.742522 -0.15533
C_ C_ 0.504508 0.219775 0.772155 0.02923
C_ C_ 0.522233 0.22793 0.822959 -0.15533
C_ C_ 0.547694 0.18523 0.847927 0.18167
C_ C_ 0.514761 0.0400025 0.879046 0.69207
C_ C_ 0.96716 0.510795 0.872462 0.02923
C_ C_ 0.987854 0.459168 0.867484 -0.15533
C_ C_ 0.959995 0.419527 0.877808 -0.15533
C_ C_ 0.907193 0.428442 0.885381 0.02923
C_ C_ 0.887955 0.480217 0.894299 -0.15533
C_ C_ 0.914892 0.521973 0.884918 0.02923
C_ C_ 0.894058 0.0778061 0.885158 0.69207
C_ C_ 0.904806 0.330747 0.881111 0.69661
C_ C_ 0.574197 0.303606 0.587543 0.18167
C_ C_ 0.52712 0.287225 0.57175 -0.15533
C_ C_ 0.512579 0.28206 0.519967 0.02923
C_ C_ 0.543701 0.287209 0.98874 -0.15533
C_ C_ 0.589126 0.316361 0.501965 0.18167
C_ C_ 0.71097 0.262727 0.6343 0.18167
C_ C_ 0.736473 0.239894 0.677364 -0.15533
C_ C_ 0.740017 0.266253 0.726946 0.02923
C_ C_ 0.720112 0.31721 0.728054 -0.15533
C_ C_ 0.697184 0.340523 0.684262 0.18167
C_ C_ 0.746928 0.363285 0.539964 0.69207
C_ C_ 0.779282 0.369951 1.00854514 0.02923
C_ C_ 0.761327 0.359743 0.958512 -0.15533
C_ C_ 0.79008 0.363993 0.916234 -0.15533
C_ C_ 0.838007 0.385292 0.926039 0.02923
C_ C_ 0.858624 0.393687 0.978059 -0.15533
C_ C_ 0.830306 0.385166 0.0189266 0.02923
C_ C_ 0.849679 0.392536 0.570016 0.69207
C_ C_ 0.844731 0.383803 0.830228 0.69661
C_ C_ 0.808669 0.443575 0.680519 0.18167
C_ C_ 0.765019 0.468539 0.701691 -0.15533
C_ C_ 0.772376 0.508194 0.740042 0.02923
C_ C_ 0.832074 0.0188876 0.758891 -0.15533
C_ C_ 0.862396 0.494408 0.730995 0.18167
C_ C_ 0.994757 0.368205 0.701842 0.18167
C_ C_ 0.509299 0.304252 0.734718 -0.15533
C_ C_ 0.992342 0.284728 0.738853 0.02923
C_ C_ 0.940798 0.287323 0.718591 -0.15533
C_ C_ 0.916127 0.331159 0.69412 0.18167
C_ C_ 0.984879 0.463439 0.624948 0.69207
C_ C_ 0.521435 0.997758 0.62424 0.02923
C_ C_ 0.499428 0.0498092 0.61749 -0.15533
C_ C_ 0.529837 0.0890279 0.61263 -0.15533
C_ C_ 0.585033 0.0777448 0.614412 0.02923
C_ C_ 0.604196 0.0268598 0.621528 -0.15533
C_ C_ 0.574309 0.98653 0.626379 0.02923
C_ C_ 0.597757 0.42121 0.601362 0.69207
C_ C_ 0.593412 0.172577 0.612146 0.69661
C_ C_ 0.931153 0.187027 0.933084 0.18167
C_ C_ 0.973339 0.206876 0.958853 -0.15533
C_ C_ 0.966383 0.247224 -0.004920999999999953 0.02923
C_ C_ 0.920651 0.251917 0.518203 -0.15533
C_ C_ 0.878051 0.234754 0.989389 0.18167
C_ C_ 0.751601 0.213392 0.859824 0.18167
C_ C_ 0.727929 0.230429 0.81193 -0.15533
C_ C_ 0.760307 0.237548 0.772898 0.02923
C_ C_ 0.812638 0.22317 0.782637 -0.15533
C_ C_ 0.831842 0.203449 0.826808 0.18167
C_ C_ 0.759649 0.127769 0.959664 0.69207
C_ C_ 0.7215 0.129396 0.500635 0.02923
C_ C_ 0.737854 0.140545 0.551941 -0.15533
C_ C_ 0.713274 0.124056 0.591386 -0.15533
C_ C_ 0.662096 0.111127 0.579574 0.02923
C_ C_ 0.644183 0.101652 0.528186 -0.15533
C_ C_ 0.672903 0.112423 0.486399 0.02923
C_ C_ 0.651283 0.103145 0.934106 0.69207
C_ C_ 0.642713 0.118897 0.679649 0.69661
C_ C_ 0.871925 0.384413 0.881689 -0.30787
C_ C_ 0.621666 0.119402 0.619266 -0.30787
N_ N_ 0.648062 0.0638236 0.818283 -0.32189
N_ N_ 0.552852 0.140003 0.824251 -0.32189
N_ N_ 0.606405 0.313466 0.551963 -0.32189
N_ N_ 0.692965 0.312976 0.637591 -0.32189
N_ N_ 0.855751 0.458769 0.692109 -0.32189
N_ N_ 0.942986 0.368177 0.68231 -0.32189
N_ N_ 0.88635 0.194357 0.954925 -0.32189
N_ N_ 0.802137 0.194516 0.862526 -0.32189
O_ O_ 0.0028600000000000847 0.0968572 0.888122 -0.63271
O_ O_ 0.552325 0.028104 0.849382 -0.57982
O_ O_ 0.891432 0.104479 0.844908 -0.63271
O_ O_ 0.864604 0.0931807 0.92077 -0.57982
O_ O_ 0.751412 0.385954 0.58635 -0.63271
O_ O_ 0.706138 0.340105 0.52777 -0.57982
O_ O_ 0.856858 0.35245 0.597247 -0.63271
O_ O_ 0.87048 0.433691 0.588758 -0.57982
O_ O_ 0.495112 0.399071 0.599854 -0.63271
O_ O_ 0.950272 0.472963 0.657332 -0.57982
O_ O_ 0.598241 0.399099 0.645083 -0.63271
O_ O_ 0.634875 0.404712 0.572059 -0.57982
O_ O_ 0.755852 0.103456 0.914829 -0.63271
O_ O_ 0.790729 0.161704 0.966697 -0.57982
O_ O_ 0.650136 0.144204 0.907467 -0.63271
O_ O_ 0.620979 0.0684446 0.917801 -0.57982
F_ F_ 0.933341 0.327454 0.928339 -0.20885
F_ F_ 0.933858 0.31486 0.839658 -0.20885
F_ F_ 0.873571 0.290417 0.883438 -0.20885
F_ F_ 0.803812 0.419771 0.825459 -0.20885
F_ F_ 0.826941 0.34003 0.807789 -0.20885
F_ F_ 0.875591 0.395867 0.79446 -0.20885
F_ F_ 0.565087 0.178991 0.565121 -0.20885
F_ F_ 0.560091 0.18899 0.648907 -0.20885
F_ F_ 0.625816 0.209539 0.613684 -0.20885
F_ F_ 0.683398 0.0828118 0.691076 -0.20885
F_ F_ 0.662578 0.161893 0.699282 -0.20885
F_ F_ 0.60624 0.10818 0.710742 -0.20885
Zn Zn 0.592062 0.580629 0.344395 0.83971
Zn Zn 0.663539 0.847511 0.0848694 0.83971
Zn Zn 0.910402 0.920806 0.159341 0.83971
Zn Zn 0.843739 0.654979 0.417673 0.83971
H_ H_ 0.673391 0.630214 0.293636 0.10394
H_ H_ 0.751916 0.594422 0.260643 0.10394
H_ H_ 0.714885 0.951512 0.299914 0.10394
H_ H_ 0.644349 0.481109 0.328218 0.10394
H_ H_ 0.0405087 0.601961 0.247938 0.10394
H_ H_ 1.00006 0.681297 0.199457 0.10394
H_ H_ 0.526743 0.759694 0.334403 0.10394
H_ H_ 0.576045 0.689389 0.372021 0.10394
H_ H_ 0.517014 0.942944 0.322922 0.10394
H_ H_ 0.982325 0.881367 0.369678 0.10394
H_ H_ 0.866126 0.988464 0.417669 0.10394
H_ H_ 0.585715 0.803025 0.136995 0.10394
H_ H_ 0.996728 0.779471 0.0878609 0.10394
H_ H_ 0.549429 0.773088 0.441752 0.10394
H_ H_ 0.617408 0.829557 0.988633 0.10394
H_ H_ 0.714634 0.751841 0.0940595 0.10394
H_ H_ 0.750596 0.69661 0.165533 0.10394
H_ H_ 0.724292 0.827166 0.267659 0.10394
H_ H_ 0.683204 0.872551 0.199142 0.10394
H_ H_ 0.709683 0.889911 0.436733 0.10394
H_ H_ 0.769117 0.905542 0.373396 0.10394
H_ H_ 0.899681 0.891967 0.491143 0.10394
H_ H_ 0.808867 0.90241 0.172072 0.10394
H_ H_ 0.734719 0.954299 0.200622 0.10394
H_ H_ 0.835286 0.542301 0.276379 0.10394
H_ H_ 0.906426 1.01362 0.241075 0.10394
H_ H_ 0.509897 0.871394 0.199328 0.10394
H_ H_ 0.547386 0.793141 0.234696 0.10394
H_ H_ 0.904554 0.757069 0.230991 0.10394
H_ H_ 0.869958 0.829656 0.182578 0.10394
H_ H_ 0.966743 0.553595 0.110874 0.10394
H_ H_ 0.514979 0.618627 0.125667 0.10394
H_ H_ 0.639077 0.506167 0.102964 0.10394
H_ H_ 0.949425 0.658965 0.399367 0.10394
H_ H_ 0.521816 0.691877 0.440277 0.10394
H_ H_ 0.918486 0.770701 0.0466495 0.10394
H_ H_ 0.840744 0.737308 0.492558 0.10394
H_ H_ 0.738428 0.690828 0.379615 0.10394
H_ H_ 0.696946 0.725498 0.298019 0.10394
H_ H_ 0.840118 0.703991 0.236537 0.10394
H_ H_ 0.884196 0.688713 0.32329 0.10394
H_ H_ 0.77992 0.612932 0.0545431 0.10394
H_ H_ 0.728295 0.599304 0.122635 0.10394
H_ H_ 0.59878 0.593809 0.00840457 0.10394
C_ C_ 0.682935 0.587414 0.293168 0.18167
C_ C_ 0.726673 0.567028 0.271013 -0.15533
C_ C_ 0.739018 0.514809 0.268922 0.02923
C_ C_ 0.705323 0.991319 0.302882 -0.15533
C_ C_ 0.666439 0.504613 0.312353 0.18167
C_ C_ 0.515971 0.627697 0.273098 0.18167
C_ C_ 0.0145168 0.682799 0.239984 -0.15533
C_ C_ 0.496242 0.717986 0.264331 0.02923
C_ C_ 0.528981 0.723843 0.311459 -0.15533
C_ C_ 0.558807 0.68248 0.332844 0.18167
C_ C_ 0.51105 0.5451 0.366287 0.69207
C_ C_ 0.980795 0.00772954 0.379688 0.02923
C_ C_ 0.0005800000000000249 0.956032 0.374552 -0.15533
C_ C_ 0.970955 0.916563 0.38263 -0.15533
C_ C_ 0.921061 0.930179 0.395289 0.02923
C_ C_ 0.906218 0.980026 0.408689 -0.15533
C_ C_ 0.931091 0.0201339 0.39568 0.02923
C_ C_ 0.901147 0.571965 0.383048 0.69207
C_ C_ 0.899384 0.837122 0.386285 0.69661
C_ C_ 0.574515 0.799106 0.0945013 0.18167
C_ C_ 0.530566 0.777519 0.0757987 -0.15533
C_ C_ 0.517668 0.769003 0.0231251 0.02923
C_ C_ 0.557146 0.781996 0.482439 -0.15533
C_ C_ 0.592863 0.813369 0.0120413 0.18167
C_ C_ 0.713767 0.765225 0.133881 0.18167
C_ C_ 0.736865 0.734778 0.172202 -0.15533
C_ C_ 0.740948 0.756063 0.221323 0.02923
C_ C_ 0.719821 0.807763 0.231729 -0.15533
C_ C_ 0.691957 0.83338 0.190873 0.18167
C_ C_ 0.747758 0.860081 0.0472081 0.69207
C_ C_ 0.7709 0.884218 0.498148 0.02923
C_ C_ 0.751212 0.893716 0.448107 -0.15533
C_ C_ 0.784653 0.901778 0.412482 -0.15533
C_ C_ 0.83891 0.897089 0.425228 0.02923
C_ C_ 0.857591 0.895916 0.477908 -0.15533
C_ C_ 0.823626 0.890552 0.514831 0.02923
C_ C_ 0.849963 0.889658 0.071033 0.69207
C_ C_ 0.857807 0.897601 0.329417 0.69661
C_ C_ 0.81501 0.939925 0.192673 0.18167
C_ C_ 0.772437 0.964585 0.21554 -0.15533
C_ C_ 0.780181 1.00480731 0.25271 0.02923
C_ C_ 0.829245 0.508525 0.247266 -0.15533
C_ C_ 0.867784 1.00013 0.232924 0.18167
C_ C_ 0.991621 0.857831 0.204851 0.18167
C_ C_ 0.506372 0.798632 0.223568 -0.15533
C_ C_ 0.982494 0.777798 0.24269 0.02923
C_ C_ 0.929898 0.781838 0.224376 -0.15533
C_ C_ 0.910907 0.824589 0.195413 0.18167
C_ C_ 0.982928 0.954128 0.124059 0.69207
C_ C_ 0.514101 0.488571 0.107117 0.02923
C_ C_ 0.495268 0.541374 0.108943 -0.15533
C_ C_ 0.52982 0.580539 0.11328 -0.15533
C_ C_ 0.581696 0.567712 0.107065 0.02923
C_ C_ 0.598505 0.516202 0.100529 -0.15533
C_ C_ 0.5678 0.475917 0.105355 0.02923
C_ C_ 0.602926 0.921252 0.119358 0.69207
C_ C_ 0.595667 0.664601 0.105745 0.69661
C_ C_ 0.94142 0.68283 0.434007 0.18167
C_ C_ 0.979662 0.712284 0.456988 -0.15533
C_ C_ 0.97237 0.744806 0.498391 0.02923
C_ C_ 0.923 0.750107 1.00943423 -0.15533
C_ C_ 0.882169 0.729495 0.484612 0.18167
C_ C_ 0.761507 0.692622 0.349579 0.18167
C_ C_ 0.738204 0.717969 0.304405 -0.15533
C_ C_ 0.767271 0.727309 0.264195 0.02923
C_ C_ 0.819063 0.710024 0.270479 -0.15533
C_ C_ 0.841683 0.695717 0.317119 0.18167
C_ C_ 0.76806 0.619542 0.4546 0.69207
C_ C_ 0.720185 0.608687 0.992381 0.02923
C_ C_ 0.7393 0.607707 0.0442829 -0.15533
C_ C_ 0.709255 0.602095 0.0834151 -0.15533
C_ C_ 0.658251 0.597608 0.0722386 0.02923
C_ C_ 0.63835 0.595093 0.0198533 -0.15533
C_ C_ 0.668845 0.601538 0.980834 0.02923
C_ C_ 0.655488 0.603661 0.422922 0.69207
C_ C_ 0.64202 0.603781 0.169584 0.69661
C_ C_ 0.877912 0.892452 0.385887 -0.30787
C_ C_ 0.619376 0.608086 0.112451 -0.30787
N_ N_ 0.649601 0.556098 0.305977 -0.32189
N_ N_ 0.555965 0.635703 0.310102 -0.32189
N_ N_ 0.603105 0.818293 0.06204 -0.32189
N_ N_ 0.689424 0.811688 0.142499 -0.32189
N_ N_ 0.861853 0.958057 0.198964 -0.32189
N_ N_ 0.940791 0.86213 0.189721 -0.32189
N_ N_ 0.892448 0.697892 0.443356 -0.32189
N_ N_ 0.813799 0.68589 0.357199 -0.32189
O_ O_ 0.008119999999999905 0.588849 0.389154 -0.63271
O_ O_ 0.55255 0.530334 0.344645 -0.57982
O_ O_ 0.8996 0.600367 0.342231 -0.63271
O_ O_ 0.876169 0.591431 0.420118 -0.57982
O_ O_ 0.752767 0.880965 0.0948973 -0.63271
O_ O_ 0.707485 0.838023 0.0364454 -0.57982
O_ O_ 0.861611 0.847592 0.0932678 -0.63271
O_ O_ 0.869683 0.929933 0.0940462 -0.57982
O_ O_ 0.491018 0.903054 0.104196 -0.63271
O_ O_ 0.951137 0.968317 0.159697 -0.57982
O_ O_ 0.597193 0.888407 0.15407 -0.63271
O_ O_ 0.640784 0.910523 0.091411 -0.57982
O_ O_ 0.764171 0.599712 0.407683 -0.63271
O_ O_ 0.802695 0.652309 0.467251 -0.57982
O_ O_ 0.665334 0.638752 0.392508 -0.63271
O_ O_ 0.617294 0.575881 0.411553 -0.57982
F_ F_ 0.92668 0.824305 0.433316 -0.20885
F_ F_ 0.92932 0.82094 0.347737 -0.20885
F_ F_ 0.864783 0.805664 0.382408 -0.20885
F_ F_ 0.826863 0.942225 0.327313 -0.20885
F_ F_ 0.833892 0.859379 0.301356 -0.20885
F_ F_ 0.896043 0.903066 0.298245 -0.20885
F_ F_ 0.562637 0.666916 0.0614111 -0.20885
F_ F_ 0.570229 0.683547 0.146786 -0.20885
F_ F_ 0.633765 0.695427 0.101016 -0.20885
F_ F_ 0.665431 0.55355 0.182201 -0.20885
F_ F_ 0.674114 0.639972 0.18617 -0.20885
F_ F_ 0.602534 0.610465 0.202123 -0.20885
Zn Zn 0.585375 0.583934 0.851994 0.83971
Zn Zn 0.655422 0.853419 0.582628 0.83971
Zn Zn 0.902328 0.920662 0.654384 0.83971
Zn Zn 0.831534 0.65744 0.915246 0.83971
H_ H_ 0.657721 0.63556 0.810828 0.10394
H_ H_ 0.737411 0.605657 0.77395 0.10394
H_ H_ 0.715546 0.949068 0.788075 0.10394
H_ H_ 0.629207 0.48031 0.823732 0.10394
H_ H_ 0.0214755 0.596709 0.744048 0.10394
H_ H_ 0.98469 0.669649 0.695605 0.10394
H_ H_ 0.521275 0.763773 0.836225 0.10394
H_ H_ 0.550788 0.688272 0.882688 0.10394
H_ H_ 0.538699 0.940709 0.876087 0.10394
H_ H_ 0.98343 0.880661 0.885885 0.10394
H_ H_ 0.847786 0.991051 0.896541 0.10394
H_ H_ 0.586764 0.805934 0.627715 0.10394
H_ H_ 0.0106176 0.763104 0.59976 0.10394
H_ H_ 0.545281 0.778687 0.950333 0.10394
H_ H_ 0.625042 0.813195 0.475536 0.10394
H_ H_ 0.696691 0.754693 0.592289 0.10394
H_ H_ 0.748723 0.705775 0.661781 0.10394
H_ H_ 0.717637 0.836834 0.768562 0.10394
H_ H_ 0.682146 0.88554 0.692579 0.10394
H_ H_ 0.722372 0.84798 0.947379 0.10394
H_ H_ 0.77091 0.86654 0.877357 0.10394
H_ H_ 0.891957 0.912793 0.983484 0.10394
H_ H_ 0.7979 0.919463 0.650405 0.10394
H_ H_ 0.731089 0.972577 0.691353 0.10394
H_ H_ 0.828612 0.553589 0.778642 0.10394
H_ H_ 0.909202 0.999317 0.73986 0.10394
H_ H_ 0.514154 0.887302 0.709977 0.10394
H_ H_ 0.551474 0.805542 0.746933 0.10394
H_ H_ 0.908082 0.735948 0.711125 0.10394
H_ H_ 0.858853 0.822134 0.689911 0.10394
H_ H_ 0.966662 0.564388 0.626732 0.10394
H_ H_ 0.523214 0.615541 0.614795 0.10394
H_ H_ 0.639985 0.499346 0.575176 0.10394
H_ H_ 0.936184 0.665046 0.887404 0.10394
H_ H_ 0.525814 0.677987 0.965387 0.10394
H_ H_ 0.913754 0.783564 0.542806 0.10394
H_ H_ 0.846129 0.731019 1.00231043 0.10394
H_ H_ 0.728503 0.705823 0.886568 0.10394
H_ H_ 0.683333 0.741019 0.804271 0.10394
H_ H_ 0.831747 0.720477 0.745098 0.10394
H_ H_ 0.869324 0.686579 0.823807 0.10394
H_ H_ 0.788215 0.597731 0.552693 0.10394
H_ H_ 0.73072 0.604944 0.617734 0.10394
H_ H_ 0.608965 0.591485 0.505917 0.10394
C_ C_ 0.668526 0.593397 0.801279 0.18167
C_ C_ 0.716742 0.576944 0.785784 -0.15533
C_ C_ 0.729869 0.525242 0.77189 0.02923
C_ C_ 0.707845 0.991544 0.795574 -0.15533
C_ C_ 0.652254 0.507739 0.806494 0.18167
C_ C_ 0.534222 0.633056 0.765052 0.18167
C_ C_ 0.0023699999999999832 0.674348 0.734979 -0.15533
C_ C_ 0.507261 0.722849 0.762708 0.02923
C_ C_ 0.525833 0.728179 0.813985 -0.15533
C_ C_ 0.545288 0.685069 0.842157 0.18167
C_ C_ 0.501095 0.544991 0.868858 0.69207
C_ C_ 0.971874 0.0136309 0.878688 0.02923
C_ C_ -0.005329999999999946 0.961044 0.880327 -0.15533
C_ C_ 0.965677 0.919029 0.8856 -0.15533
C_ C_ 0.912293 0.930393 0.887784 0.02923
C_ C_ 0.889028 0.982423 0.891165 -0.15533
C_ C_ 0.918102 0.0237509 0.886105 0.02923
C_ C_ 0.886184 0.572132 0.881159 0.69207
C_ C_ 0.902432 0.8326 0.890262 0.69661
C_ C_ 0.57777 0.7948 0.58643 0.18167
C_ C_ 0.531283 0.775291 0.567669 -0.15533
C_ C_ 0.521043 0.768375 0.51481 0.02923
C_ C_ 0.549093 0.788421 0.991099 -0.15533
C_ C_ 0.599058 0.806252 0.502054 0.18167
C_ C_ 0.708409 0.771481 0.631763 0.18167
C_ C_ 0.73252 0.744068 0.672665 -0.15533
C_ C_ 0.73154 0.766436 0.723827 0.02923
C_ C_ 0.715838 0.818511 0.731339 -0.15533
C_ C_ 0.695927 0.846194 0.687366 0.18167
C_ C_ 0.732347 0.884134 0.535512 0.69207
C_ C_ 0.778926 0.875504 1.00441618 0.02923
C_ C_ 0.760066 0.863903 0.953138 -0.15533
C_ C_ 0.785708 0.87856 0.915584 -0.15533
C_ C_ 0.835904 0.893983 0.924178 0.02923
C_ C_ 0.856374 0.898491 0.975292 -0.15533
C_ C_ 0.826169 0.891671 0.0161386 0.02923
C_ C_ 0.844297 0.889721 0.570047 0.69207
C_ C_ 0.849315 0.886658 0.829224 0.69661
C_ C_ 0.80772 0.949664 0.679917 0.18167
C_ C_ 0.770342 0.976496 0.705763 -0.15533
C_ C_ 0.781173 0.010053 0.746452 0.02923
C_ C_ 0.821929 0.520149 0.754829 -0.15533
C_ C_ 0.870733 0.989235 0.731996 0.18167
C_ C_ 0.980157 0.853107 0.698824 0.18167
C_ C_ 0.510428 0.813989 0.740629 -0.15533
C_ C_ 0.978096 0.767337 0.728578 0.02923
C_ C_ 0.928441 0.769256 0.706983 -0.15533
C_ C_ 0.901897 0.817848 0.694952 0.18167
C_ C_ 0.981347 0.955996 0.623406 0.69207
C_ C_ 0.522591 0.485787 0.608436 0.02923
C_ C_ 0.505018 0.538408 0.61351 -0.15533
C_ C_ 0.536001 0.575175 0.607448 -0.15533
C_ C_ 0.58655 0.563714 0.594959 0.02923
C_ C_ 0.603368 0.510702 0.583828 -0.15533
C_ C_ 0.570949 0.472292 0.594484 0.02923
C_ C_ 0.598051 0.932422 0.619522 0.69207
C_ C_ 0.609784 0.659735 0.608328 0.69661
C_ C_ 0.933672 0.687901 0.92408 0.18167
C_ C_ 0.976292 0.712677 0.945371 -0.15533
C_ C_ 0.970508 0.744312 0.988747 0.02923
C_ C_ 0.922995 0.753914 0.51282 -0.15533
C_ C_ 0.882364 0.725916 0.98645 0.18167
C_ C_ 0.748585 0.704193 0.851813 0.18167
C_ C_ 0.72574 0.728776 0.808402 -0.15533
C_ C_ 0.754997 0.736847 0.768299 0.02923
C_ C_ 0.807519 0.721742 0.775464 -0.15533
C_ C_ 0.82919 0.699703 0.82114 0.18167
C_ C_ 0.752524 0.623583 0.953508 0.69207
C_ C_ 0.730431 0.611362 0.492179 0.02923
C_ C_ 0.74912 0.607496 0.542943 -0.15533
C_ C_ 0.716635 0.600503 0.579291 -0.15533
C_ C_ 0.663866 0.597034 0.567628 0.02923
C_ C_ 0.646556 0.597346 0.515678 -0.15533
C_ C_ 0.677852 0.606144 0.477403 0.02923
C_ C_ 0.642911 0.603182 0.930023 0.69207
C_ C_ 0.649738 0.593832 0.664785 0.69661
C_ C_ 0.876178 0.885969 0.884172 -0.30787
C_ C_ 0.627144 0.601853 0.609253 -0.30787
N_ N_ 0.639035 0.559131 0.813118 -0.32189
N_ N_ 0.548198 0.63817 0.817499 -0.32189
N_ N_ 0.607053 0.81296 0.553299 -0.32189
N_ N_ 0.689768 0.821075 0.640985 -0.32189
N_ N_ 0.857426 0.953883 0.695856 -0.32189
N_ N_ 0.928892 0.858907 0.690838 -0.32189
N_ N_ 0.887393 0.696725 0.942192 -0.32189
N_ N_ 0.799623 0.688082 0.857128 -0.32189
O_ O_ 0.999846 0.594009 0.891494 -0.63271
O_ O_ 0.538538 0.538696 0.841809 -0.57982
O_ O_ 0.884883 0.596178 0.838824 -0.63271
O_ O_ 0.859469 0.592167 0.917821 -0.57982
O_ O_ 0.729534 0.921252 0.572982 -0.63271
O_ O_ 0.701616 0.84668 0.535553 -0.57982
O_ O_ 0.845521 0.849674 0.596193 -0.63271
O_ O_ 0.873402 0.924738 0.588825 -0.57982
O_ O_ 0.481691 0.920573 0.600028 -0.63271
O_ O_ 0.950608 0.964134 0.658987 -0.57982
O_ O_ 0.591066 0.897003 0.650564 -0.63271
O_ O_ 0.631807 0.919778 0.587007 -0.57982
O_ O_ 0.749577 0.598376 0.907063 -0.63271
O_ O_ 0.786513 0.65684 0.963784 -0.57982
O_ O_ 0.642686 0.643364 0.902193 -0.63271
O_ O_ 0.611609 0.569069 0.912816 -0.57982
F_ F_ 0.93439 0.830714 0.935279 -0.20885
F_ F_ 0.934355 0.817718 0.853691 -0.20885
F_ F_ 0.86776 0.797399 0.892216 -0.20885
F_ F_ 0.809213 0.925822 0.8226 -0.20885
F_ F_ 0.825679 0.842378 0.811956 -0.20885
F_ F_ 0.882136 0.893173 0.794897 -0.20885
F_ F_ 0.57616 0.675698 0.568327 -0.20885
F_ F_ 0.584526 0.676216 0.649097 -0.20885
F_ F_ 0.648173 0.692478 0.609187 -0.20885
F_ F_ 0.679843 0.549998 0.662966 -0.20885
F_ F_ 0.678435 0.631343 0.686577 -0.20885
F_ F_ 0.614483 0.588094 0.698324 -0.20885
