_cell_length_a 26.508
_cell_length_b 26.37200000322088
_cell_length_c 26.311999743092066
_cell_angle_alpha 93.74100058972084
_cell_angle_beta 96.04100104955006
_cell_angle_gamma 83.6869992558723
_symmetry_space_group_name_H-M         'P 1'
_symmetry_Int_Tables_number            1
loop_
_symmetry_equiv_pos_as_xyz
   'x, y, z'
                         
loop_
_atom_site_label
_atom_site_type_symbol
_atom_site_fract_x 
_atom_site_fract_y
_atom_site_fract_z
_atom_site_charge
Zn Zn 0.0863175 0.0840851 0.351231 0.83971
Zn Zn 0.159437 0.341694 0.0832934 0.83971
Zn Zn 0.408082 0.418547 0.153392 0.83971
Zn Zn 0.342514 0.163036 0.419573 0.83971
H_ H_ 0.162912 0.1312 0.306092 0.10394
H_ H_ 0.241103 0.100925 0.270322 0.10394
H_ H_ 0.214224 0.447479 0.283225 0.10394
H_ H_ 0.142472 0.981776 0.344376 0.10394
H_ H_ 0.522404 0.0977117 0.250762 0.10394
H_ H_ 0.485238 0.175163 0.200142 0.10394
H_ H_ 0.0258935 0.267056 0.339467 0.10394
H_ H_ 0.0708481 0.191382 0.37605 0.10394
H_ H_ 0.019951 0.432383 0.34318 0.10394
H_ H_ 0.477688 0.386109 0.37608 0.10394
H_ H_ 0.356763 0.497432 0.417764 0.10394
H_ H_ 0.0868715 0.298417 0.137955 0.10394
H_ H_ 0.502989 0.277287 0.104988 0.10394
H_ H_ 0.0640845 0.25378 0.452157 0.10394
H_ H_ 0.104304 0.327944 0.986247 0.10394
H_ H_ 0.226394 0.25504 0.0993873 0.10394
H_ H_ 0.269031 0.207674 0.176514 0.10394
H_ H_ 0.228867 0.343555 0.267561 0.10394
H_ H_ 0.191876 0.387765 0.191017 0.10394
H_ H_ 0.228149 0.356087 0.448424 0.10394
H_ H_ 0.274625 0.376273 0.387293 0.10394
H_ H_ 0.389854 0.429639 0.497114 0.10394
H_ H_ 0.301668 0.405027 0.158147 0.10394
H_ H_ 0.230914 0.459988 0.18691 0.10394
H_ H_ 0.32173 0.0589189 0.269711 0.10394
H_ H_ 0.4059 0.497808 0.241709 0.10394
H_ H_ 0.016562 0.370083 0.19605 0.10394
H_ H_ 0.0483355 0.298556 0.248562 0.10394
H_ H_ 0.418513 0.241512 0.21413 0.10394
H_ H_ 0.375824 0.318742 0.182118 0.10394
H_ H_ 0.46346 0.0478767 0.123696 0.10394
H_ H_ 0.0158862 0.113534 0.102943 0.10394
H_ H_ 0.144059 0.00230029 0.0848347 0.10394
H_ H_ 0.449574 0.167338 0.401463 0.10394
H_ H_ 0.0190553 0.186651 0.448349 0.10394
H_ H_ 0.40745 0.299289 0.0339027 0.10394
H_ H_ 0.348259 0.239499 0.504369 0.10394
H_ H_ 0.233543 0.181134 0.367056 0.10394
H_ H_ 0.197205 0.224648 0.297436 0.10394
H_ H_ 0.351143 0.241263 0.259861 0.10394
H_ H_ 0.385381 0.205212 0.341688 0.10394
H_ H_ 0.285445 0.085855 0.0493513 0.10394
H_ H_ 0.232672 0.100135 0.117161 0.10394
H_ H_ 0.101006 0.0982351 0.00489759 0.10394
C_ C_ 0.174754 0.0917114 0.304593 0.18167
C_ C_ 0.218586 0.0728727 0.28309 -0.15533
C_ C_ 0.230372 0.0193129 0.273766 0.02923
C_ C_ 0.205792 0.489884 0.291646 -0.15533
C_ C_ 0.15832 0.00671729 0.319288 0.18167
C_ C_ 0.0238108 0.132589 0.269027 0.18167
C_ C_ 0.508525 0.177875 0.239313 -0.15533
C_ C_ -0.0016840000000000188 0.222128 0.268514 0.02923
C_ C_ 0.0225222 0.228536 0.319035 -0.15533
C_ C_ 0.0462912 0.184766 0.34321 0.18167
C_ C_ 0.0127379 0.0352813 0.373695 0.69207
C_ C_ 0.473355 0.513991 0.382919 0.02923
C_ C_ 0.493455 0.462936 0.376978 -0.15533
C_ C_ 0.461776 0.424273 0.382487 -0.15533
C_ C_ 0.413323 0.435193 0.399562 0.02923
C_ C_ 0.39296 0.485832 0.405377 -0.15533
C_ C_ 0.423137 0.525581 0.399153 0.02923
C_ C_ 0.395235 0.0738878 0.37717 0.69207
C_ C_ 0.401962 0.337951 0.399473 0.69661
C_ C_ 0.0744507 0.297395 0.0981683 0.18167
C_ C_ 0.0271716 0.278948 0.0820619 -0.15533
C_ C_ 0.0145759 0.269202 0.0311884 0.02923
C_ C_ 0.0615052 0.272644 0.489696 -0.15533
C_ C_ 0.0820932 0.317442 0.012879 0.18167
C_ C_ 0.222259 0.27076 0.138262 0.18167
C_ C_ 0.249915 0.247022 0.179347 -0.15533
C_ C_ 0.251319 0.27173 0.227892 0.02923
C_ C_ 0.227195 0.322289 0.231805 -0.15533
C_ C_ 0.201272 0.346285 0.188734 0.18167
C_ C_ 0.241919 0.364213 0.040922 0.69207
C_ C_ 0.281848 0.375935 0.514477 0.02923
C_ C_ 0.264636 0.371636 0.462429 -0.15533
C_ C_ 0.290843 0.385951 0.424543 -0.15533
C_ C_ 0.340106 0.401549 0.434995 0.02923
C_ C_ 0.357684 0.410525 0.487527 -0.15533
C_ C_ 0.331223 0.393095 0.526006 0.02923
C_ C_ 0.347748 0.390428 0.0699156 0.69207
C_ C_ 0.351181 0.39311 0.338683 0.69661
C_ C_ 0.308914 0.438397 0.180993 0.18167
C_ C_ 0.268758 0.467168 0.200149 -0.15533
C_ C_ 0.277398 0.503819 0.240789 0.02923
C_ C_ 0.317866 0.0216095 0.246268 -0.15533
C_ C_ 0.367294 0.489886 0.228653 0.18167
C_ C_ 0.491912 0.356493 0.203319 0.18167
C_ C_ 0.00746244 0.304012 0.234492 -0.15533
C_ C_ 0.493851 0.269283 0.232768 0.02923
C_ C_ 0.440873 0.272999 0.21461 -0.15533
C_ C_ 0.416073 0.315729 0.189195 0.18167
C_ C_ 0.485762 0.453831 0.122515 0.69207
C_ C_ 0.0248556 0.98771 0.115889 0.02923
C_ C_ 0.00590764 0.0409864 0.120171 -0.15533
C_ C_ 0.0343335 0.0778149 0.113496 -0.15533
C_ C_ 0.0847079 0.0657426 0.102028 0.02923
C_ C_ 0.1037 0.0133125 0.0958228 -0.15533
C_ C_ 0.0754953 0.975176 0.107649 0.02923
C_ C_ 0.107959 0.424289 0.118458 0.69207
C_ C_ 0.102686 0.16353 0.111481 0.69661
C_ C_ 0.441639 0.194532 0.433828 0.18167
C_ C_ 0.479831 0.222145 0.455607 -0.15533
C_ C_ 0.473549 0.252886 0.501455 0.02923
C_ C_ 0.4194 0.259849 0.0164691 -0.15533
C_ C_ 0.387339 0.228809 0.493807 0.18167
C_ C_ 0.260948 0.199693 0.349575 0.18167
C_ C_ 0.237662 0.22595 0.307325 -0.15533
C_ C_ 0.271955 0.245426 0.275272 0.02923
C_ C_ 0.325045 0.228422 0.283795 -0.15533
C_ C_ 0.344031 0.209399 0.331494 0.18167
C_ C_ 0.260427 0.131474 0.453168 0.69207
C_ C_ 0.225033 0.114335 0.99395 0.02923
C_ C_ 0.244649 0.101706 0.0412312 -0.15533
C_ C_ 0.212558 0.100361 0.0803622 -0.15533
C_ C_ 0.15988 0.096896 0.0688291 0.02923
C_ C_ 0.139751 0.0987043 0.0168936 -0.15533
C_ C_ 0.17256 0.108401 0.981247 0.02923
C_ C_ 0.149605 0.116118 0.432171 0.69207
C_ C_ 0.151774 0.104366 0.166972 0.69661
C_ C_ 0.376554 0.393306 0.394419 -0.30787
C_ C_ 0.12424 0.106557 0.112272 -0.30787
N_ N_ 0.144084 0.0586422 0.317711 -0.32189
N_ N_ 0.0485543 0.137597 0.316337 -0.32189
N_ N_ 0.0995779 0.317662 0.0629548 -0.32189
N_ N_ 0.196163 0.318433 0.143823 -0.32189
N_ N_ 0.357604 0.449238 0.195548 -0.32189
N_ N_ 0.442089 0.356527 0.183698 -0.32189
N_ N_ 0.395065 0.198303 0.451501 -0.32189
N_ N_ 0.312666 0.195208 0.361801 -0.32189
O_ O_ 0.505107 0.0926549 0.383894 -0.63271
O_ O_ 0.0483475 0.0295826 0.345895 -0.57982
O_ O_ 0.394258 0.0966594 0.333945 -0.63271
O_ O_ 0.367508 0.0965005 0.414118 -0.57982
O_ O_ 0.244522 0.389223 0.0867987 -0.63271
O_ O_ 0.202854 0.336274 0.0316253 -0.57982
O_ O_ 0.347671 0.351301 0.0977451 -0.63271
O_ O_ 0.378497 0.424713 0.0865939 -0.57982
O_ O_ 0.998775 0.403961 0.10609 -0.63271
O_ O_ 0.450904 0.466693 0.155632 -0.57982
O_ O_ 0.104854 0.394781 0.155318 -0.63271
O_ O_ 0.134709 0.408879 0.0805615 -0.57982
O_ O_ 0.256338 0.106814 0.407527 -0.63271
O_ O_ 0.292569 0.164807 0.459854 -0.57982
O_ O_ 0.155662 0.155216 0.405191 -0.63271
O_ O_ 0.112449 0.0902443 0.418316 -0.57982
F_ F_ 0.43808 0.335719 0.44254 -0.20885
F_ F_ 0.42661 0.317319 0.358711 -0.20885
F_ F_ 0.363195 0.305936 0.40263 -0.20885
F_ F_ 0.313996 0.433961 0.332937 -0.20885
F_ F_ 0.327029 0.350185 0.321098 -0.20885
F_ F_ 0.388181 0.392497 0.305134 -0.20885
F_ F_ 0.0724122 0.171799 0.066438 -0.20885
F_ F_ 0.0707587 0.179949 0.149373 -0.20885
F_ F_ 0.143842 0.194113 0.115499 -0.20885
F_ F_ 0.178997 0.0559862 0.171295 -0.20885
F_ F_ 0.183144 0.141289 0.185048 -0.20885
F_ F_ 0.11517 0.107284 0.200866 -0.20885
Zn Zn 0.0805422 0.0819629 0.848529 0.83971
Zn Zn 0.163387 0.34342 0.587126 0.83971
Zn Zn 0.41399 0.416367 0.663204 0.83971
Zn Zn 0.343155 0.151225 0.919552 0.83971
H_ H_ 0.170352 0.135197 0.812569 0.10394
H_ H_ 0.24853 0.10015 0.773402 0.10394
H_ H_ 0.220849 0.455294 0.808825 0.10394
H_ H_ 0.11313 0.986847 0.796678 0.10394
H_ H_ 0.525858 0.0993375 0.760992 0.10394
H_ H_ 0.490929 0.167767 0.706436 0.10394
H_ H_ 0.0301716 0.270159 0.844901 0.10394
H_ H_ 0.0692348 0.185787 0.884332 0.10394
H_ H_ 0.0208341 0.444173 0.85402 0.10394
H_ H_ 0.488107 0.371068 0.896096 0.10394
H_ H_ 0.358658 0.480646 0.912686 0.10394
H_ H_ 0.0672496 0.315513 0.631161 0.10394
H_ H_ 0.498514 0.277899 0.601407 0.10394
H_ H_ 0.0312566 0.284203 0.953786 0.10394
H_ H_ 0.136332 0.294095 0.491477 0.10394
H_ H_ 0.220665 0.25042 0.601958 0.10394
H_ H_ 0.265868 0.205258 0.673249 0.10394
H_ H_ 0.218085 0.333005 0.778877 0.10394
H_ H_ 0.180247 0.380191 0.700911 0.10394
H_ H_ 0.229387 0.34425 0.939932 0.10394
H_ H_ 0.283335 0.345936 0.873898 0.10394
H_ H_ 0.396036 0.400676 0.98773 0.10394
H_ H_ 0.308456 0.394254 0.673293 0.10394
H_ H_ 0.234433 0.439114 0.714289 0.10394
H_ H_ 0.332235 0.0429491 0.789769 0.10394
H_ H_ 0.402357 0.509262 0.724232 0.10394
H_ H_ 0.00973912 0.388987 0.713398 0.10394
H_ H_ 0.0521441 0.313461 0.75707 0.10394
H_ H_ 0.417092 0.245952 0.734519 0.10394
H_ H_ 0.372243 0.320533 0.688635 0.10394
H_ H_ 0.46207 0.0492071 0.606328 0.10394
H_ H_ 0.0282596 0.127251 0.631122 0.10394
H_ H_ 0.146342 0.0108511 0.590037 0.10394
H_ H_ 0.453276 0.134371 0.94555 0.10394
H_ H_ 0.0201104 0.188523 0.958032 0.10394
H_ H_ 0.415574 0.282722 0.547837 0.10394
H_ H_ 0.339387 0.248239 -0.0121702 0.10394
H_ H_ 0.240216 0.20106 0.893966 0.10394
H_ H_ 0.198154 0.250734 0.818569 0.10394
H_ H_ 0.337705 0.218071 0.748591 0.10394
H_ H_ 0.378515 0.190625 0.831715 0.10394
H_ H_ 0.291374 0.114096 0.549067 0.10394
H_ H_ 0.241818 0.0979541 0.617955 0.10394
H_ H_ 0.104716 0.105875 0.516083 0.10394
C_ C_ 0.178036 0.0937755 0.80304 0.18167
C_ C_ 0.220609 0.073951 0.777918 -0.15533
C_ C_ 0.228667 0.0223426 0.763519 0.02923
C_ C_ 0.206993 0.493627 0.803549 -0.15533
C_ C_ 0.142336 0.0121889 0.789058 0.18167
C_ C_ 0.0231304 0.134267 0.775839 0.18167
C_ C_ 0.509371 0.174869 0.744308 -0.15533
C_ C_ 0.00580183 0.227857 0.773152 0.02923
C_ C_ 0.0271431 0.231588 0.823299 -0.15533
C_ C_ 0.051167 0.187716 0.846366 0.18167
C_ C_ 0.00771766 0.0409941 0.867351 0.69207
C_ C_ 0.476231 0.501685 0.883513 0.02923
C_ C_ 0.497847 0.450089 0.885931 -0.15533
C_ C_ 0.46979 0.409329 0.893542 -0.15533
C_ C_ 0.417647 0.419517 0.896998 0.02923
C_ C_ 0.39591 0.471278 0.900268 -0.15533
C_ C_ 0.424025 0.510051 0.891605 0.02923
C_ C_ 0.39141 0.0683737 0.879383 0.69207
C_ C_ 0.409678 0.318748 0.881151 0.69661
C_ C_ 0.0661885 0.303408 0.591659 0.18167
C_ C_ 0.023867 0.281128 0.569208 -0.15533
C_ C_ 0.0203122 0.26976 0.516908 0.02923
C_ C_ 0.0406917 0.291974 0.99602 -0.15533
C_ C_ 0.104963 0.291019 0.5146 0.18167
C_ C_ 0.219742 0.268582 0.641332 0.18167
C_ C_ 0.245112 0.242194 0.682021 -0.15533
C_ C_ 0.244822 0.266281 0.732043 0.02923
C_ C_ 0.220501 0.316586 0.737525 -0.15533
C_ C_ 0.197283 0.341433 0.694737 0.18167
C_ C_ 0.247457 0.363877 0.554172 0.69207
C_ C_ 0.279127 0.366699 0.00383074 0.02923
C_ C_ 0.266006 0.35333 0.952165 -0.15533
C_ C_ 0.298783 0.352944 0.913498 -0.15533
C_ C_ 0.345682 0.377481 0.923491 0.02923
C_ C_ 0.359547 0.39064 0.975749 -0.15533
C_ C_ 0.327213 0.386826 0.0164355 0.02923
C_ C_ 0.36228 0.388837 0.577416 0.69207
C_ C_ 0.355289 0.386245 0.829241 0.69661
C_ C_ 0.314066 0.427256 0.699526 0.18167
C_ C_ 0.270075 0.456688 0.714663 -0.15533
C_ C_ 0.275993 0.502384 0.744486 0.02923
C_ C_ 0.324671 0.0151697 0.758639 -0.15533
C_ C_ 0.365541 0.494215 0.723042 0.18167
C_ C_ 0.496349 0.348226 0.698666 0.18167
C_ C_ 0.0123286 0.315699 0.741478 -0.15533
C_ C_ 0.489823 0.265891 0.73468 0.02923
C_ C_ 0.43634 0.274741 0.722109 -0.15533
C_ C_ 0.413798 0.316769 0.696878 0.18167
C_ C_ 0.492578 0.455996 0.624728 0.69207
C_ C_ 0.025185 0.998059 0.616444 0.02923
C_ C_ 0.0071209 0.0499026 0.620334 -0.15533
C_ C_ 0.0408029 0.088194 0.623374 -0.15533
C_ C_ 0.092632 0.0747271 0.609669 0.02923
C_ C_ 0.108425 0.0226525 0.600329 -0.15533
C_ C_ 0.0762789 0.983928 0.608789 0.02923
C_ C_ 0.100255 0.421445 0.604954 0.69207
C_ C_ 0.113734 0.172023 0.616932 0.69661
C_ C_ 0.444289 0.172761 0.958404 0.18167
C_ C_ 0.483619 0.199699 0.981862 -0.15533
C_ C_ 0.470073 0.244479 1.0105413 0.02923
C_ C_ 0.425606 0.259518 0.516091 -0.15533
C_ C_ 0.379871 0.232518 0.988069 0.18167
C_ C_ 0.261063 0.208485 0.863295 0.18167
C_ C_ 0.237855 0.236296 0.820779 -0.15533
C_ C_ 0.265227 0.237131 0.778399 0.02923
C_ C_ 0.315498 0.216462 0.780675 -0.15533
C_ C_ 0.33866 0.192249 0.824545 0.18167
C_ C_ 0.260988 0.120749 0.955345 0.69207
C_ C_ 0.22729 0.11998 0.493868 0.02923
C_ C_ 0.250211 0.115711 0.542575 -0.15533
C_ C_ 0.221038 0.107903 0.581179 -0.15533
C_ C_ 0.168594 0.107108 0.572771 0.02923
C_ C_ 0.146335 0.106037 0.523618 -0.15533
C_ C_ 0.174763 0.112609 0.483374 0.02923
C_ C_ 0.149214 0.111251 0.927949 0.69207
C_ C_ 0.15912 0.104622 0.670019 0.69661
C_ C_ 0.382044 0.376458 0.882724 -0.30787
C_ C_ 0.13277 0.112954 0.616717 -0.30787
N_ N_ 0.139257 0.0629679 0.808275 -0.32189
N_ N_ 0.0482418 0.141439 0.823142 -0.32189
N_ N_ 0.107522 0.306209 0.564359 -0.32189
N_ N_ 0.194887 0.314989 0.648483 -0.32189
N_ N_ 0.359436 0.44687 0.702002 -0.32189
N_ N_ 0.442382 0.355481 0.68993 -0.32189
N_ N_ 0.394373 0.18626 0.964955 -0.32189
N_ N_ 0.31052 0.188683 0.864417 -0.32189
O_ O_ 0.503056 0.0868732 0.892526 -0.63271
O_ O_ 0.0396858 0.0362492 0.833561 -0.57982
O_ O_ 0.397976 0.0969 0.841235 -0.63271
O_ O_ 0.371373 0.091698 0.919508 -0.57982
O_ O_ 0.245233 0.387352 0.600313 -0.63271
O_ O_ 0.21211 0.331122 0.542918 -0.57982
O_ O_ 0.365496 0.345922 0.600541 -0.63271
O_ O_ 0.388502 0.424231 0.598941 -0.57982
O_ O_ 0.998836 0.404562 0.603278 -0.63271
O_ O_ 0.460035 0.46027 0.660298 -0.57982
O_ O_ 0.101191 0.395985 0.646559 -0.63271
O_ O_ 0.136184 0.408983 0.576097 -0.57982
O_ O_ 0.265292 0.0866558 0.916345 -0.63271
O_ O_ 0.298272 0.149222 0.96853 -0.57982
O_ O_ 0.156694 0.148297 0.899885 -0.63271
O_ O_ 0.117656 0.0790448 0.911017 -0.57982
F_ F_ 0.440927 0.304563 0.923707 -0.20885
F_ F_ 0.440583 0.314679 0.841676 -0.20885
F_ F_ 0.374678 0.281948 0.871733 -0.20885
F_ F_ 0.317121 0.426059 0.835497 -0.20885
F_ F_ 0.332144 0.345659 0.805425 -0.20885
F_ F_ 0.388362 0.399312 0.79522 -0.20885
F_ F_ 0.0791387 0.182315 0.576224 -0.20885
F_ F_ 0.0858435 0.185742 0.658173 -0.20885
F_ F_ 0.150261 0.203124 0.612966 -0.20885
F_ F_ 0.189597 0.0577342 0.672419 -0.20885
F_ F_ 0.19679 0.13674 0.683799 -0.20885
F_ F_ 0.125143 0.106914 0.706515 -0.20885
Zn Zn 0.0867621 0.585623 0.337339 0.83971
Zn Zn 0.158362 0.845337 0.0860817 0.83971
Zn Zn 0.407701 0.915191 0.15823 0.83971
Zn Zn 0.33688 0.662666 0.423714 0.83971
H_ H_ 0.170004 0.634964 0.30403 0.10394
H_ H_ 0.248181 0.601649 0.26422 0.10394
H_ H_ 0.210179 0.944123 0.293241 0.10394
H_ H_ 0.135087 0.485056 0.326737 0.10394
H_ H_ 0.535894 0.601865 0.259488 0.10394
H_ H_ 0.496171 0.676004 0.209977 0.10394
H_ H_ 0.0274635 0.771094 0.337437 0.10394
H_ H_ 0.0658695 0.696275 0.377679 0.10394
H_ H_ 0.0254407 0.936052 0.344341 0.10394
H_ H_ 0.487443 0.884692 0.396629 0.10394
H_ H_ 0.355224 0.986919 0.402602 0.10394
H_ H_ 0.0657918 0.809596 0.133334 0.10394
H_ H_ 0.483902 0.771042 0.0952676 0.10394
H_ H_ 0.0439061 0.789387 0.450557 0.10394
H_ H_ 0.121169 0.808441 0.985859 0.10394
H_ H_ 0.219784 0.752822 0.0977904 0.10394
H_ H_ 0.265474 0.707815 0.176976 0.10394
H_ H_ 0.225121 0.836763 0.271769 0.10394
H_ H_ 0.183322 0.881224 0.197662 0.10394
H_ H_ 0.234969 0.830878 0.437421 0.10394
H_ H_ 0.290182 0.842922 0.374318 0.10394
H_ H_ 0.407287 0.883424 0.484685 0.10394
H_ H_ 0.306044 0.895829 0.166139 0.10394
H_ H_ 0.228998 0.946348 0.198693 0.10394
H_ H_ 0.338339 0.541701 0.286703 0.10394
H_ H_ 0.397107 0.0148376 0.222729 0.10394
H_ H_ 0.00973209 0.880393 0.191056 0.10394
H_ H_ 0.0480242 0.806199 0.234153 0.10394
H_ H_ 0.419361 0.744572 0.230808 0.10394
H_ H_ 0.377889 0.815574 0.185259 0.10394
H_ H_ 0.460391 0.55253 0.107037 0.10394
H_ H_ 0.0143373 0.613526 0.0938452 0.10394
H_ H_ 0.152543 0.50757 0.10323 0.10394
H_ H_ 0.439092 0.664914 0.402306 0.10394
H_ H_ 0.0175371 0.690699 0.451469 0.10394
H_ H_ 0.396187 0.789995 0.00425325 0.10394
H_ H_ 0.346332 0.749561 0.505849 0.10394
H_ H_ 0.234457 0.706058 0.38852 0.10394
H_ H_ 0.190804 0.7425 0.302939 0.10394
H_ H_ 0.342675 0.741208 0.255623 0.10394
H_ H_ 0.379727 0.691149 0.333878 0.10394
H_ H_ 0.28843 0.612032 0.0458755 0.10394
H_ H_ 0.230508 0.618332 0.11324 0.10394
H_ H_ 0.105765 0.58085 0.00789246 0.10394
C_ C_ 0.179584 0.593751 0.299193 0.18167
C_ C_ 0.225557 0.5746 0.279965 -0.15533
C_ C_ 0.238127 0.522825 0.273191 0.02923
C_ C_ 0.198645 0.986026 0.293091 -0.15533
C_ C_ 0.158266 0.51075 0.308646 0.18167
C_ C_ 0.0278778 0.641658 0.266868 0.18167
C_ C_ 0.520038 0.682294 0.24526 -0.15533
C_ C_ 0.0022699999999999942 0.730473 0.267591 0.02923
C_ C_ 0.0303837 0.735763 0.314877 -0.15533
C_ C_ 0.0512027 0.691994 0.33792 0.18167
C_ C_ 0.00535906 0.542491 0.358283 0.69207
C_ C_ 0.472971 0.00903552 0.374011 0.02923
C_ C_ 0.493239 0.959134 0.377045 -0.15533
C_ C_ 0.467856 0.920975 0.393082 -0.15533
C_ C_ 0.414759 0.928594 0.394208 0.02923
C_ C_ 0.393395 0.980035 0.394844 -0.15533
C_ C_ 0.419356 0.0220277 0.383988 0.02923
C_ C_ 0.394181 0.579678 0.39665 0.69207
C_ C_ 0.411469 0.828675 0.380743 0.69661
C_ C_ 0.0601803 0.806578 0.091375 0.18167
C_ C_ 0.0164077 0.785405 0.0688841 -0.15533
C_ C_ 0.0136547 0.766141 0.018269 0.02923
C_ C_ 0.0551801 0.790606 0.491153 -0.15533
C_ C_ 0.0962073 0.793277 0.0124421 0.18167
C_ C_ 0.213962 0.767637 0.138181 0.18167
C_ C_ 0.244522 0.745883 0.17878 -0.15533
C_ C_ 0.243481 0.769239 0.22848 0.02923
C_ C_ 0.22451 0.818073 0.234386 -0.15533
C_ C_ 0.199387 0.84268 0.19101 0.18167
C_ C_ 0.245302 0.859184 0.0447804 0.69207
C_ C_ 0.281345 0.86846 0.500601 0.02923
C_ C_ 0.269474 0.850826 0.45018 -0.15533
C_ C_ 0.300445 0.855031 0.412734 -0.15533
C_ C_ 0.345598 0.878488 0.424553 0.02923
C_ C_ 0.366142 0.883404 0.476231 -0.15533
C_ C_ 0.332017 0.884282 0.515952 0.02923
C_ C_ 0.355241 0.885377 0.0702398 0.69207
C_ C_ 0.357069 0.888868 0.330454 0.69661
C_ C_ 0.308235 0.934958 0.183934 0.18167
C_ C_ 0.26563 0.958271 0.209256 -0.15533
C_ C_ 0.271559 1.00119 0.241669 0.02923
C_ C_ 0.328028 0.518221 0.251783 -0.15533
C_ C_ 0.358137 0.999463 0.217704 0.18167
C_ C_ 0.488119 0.858047 0.209267 0.18167
C_ C_ 0.00760471 0.811716 0.228554 -0.15533
C_ C_ 0.492449 0.774695 0.242547 0.02923
C_ C_ 0.441478 0.773805 0.223731 -0.15533
C_ C_ 0.415392 0.817693 0.199418 0.18167
C_ C_ 0.490797 0.947761 0.129366 0.69207
C_ C_ 0.0279555 0.487006 0.118029 0.02923
C_ C_ 0.00865786 0.537155 0.112662 -0.15533
C_ C_ 0.037378 0.576521 0.10365 -0.15533
C_ C_ 0.0906578 0.566816 0.102148 0.02923
C_ C_ 0.111641 0.516868 0.110903 -0.15533
C_ C_ 0.0821404 0.476113 0.117202 0.02923
C_ C_ 0.100132 0.924153 0.108901 0.69207
C_ C_ 0.101939 0.663723 0.101542 0.69661
C_ C_ 0.435339 0.690586 0.436469 0.18167
C_ C_ 0.47883 0.706375 0.465038 -0.15533
C_ C_ 0.472055 0.74693 0.501183 0.02923
C_ C_ 0.408673 0.750176 -0.006062000000000012 -0.15533
C_ C_ 0.383972 0.732518 0.495298 0.18167
C_ C_ 0.256842 0.710484 0.356437 0.18167
C_ C_ 0.233 0.730928 0.310437 -0.15533
C_ C_ 0.264964 0.737805 0.272718 0.02923
C_ C_ 0.317091 0.724935 0.279501 -0.15533
C_ C_ 0.338063 0.70024 0.32297 0.18167
C_ C_ 0.257357 0.630718 0.450905 0.69207
C_ C_ 0.224765 0.609067 0.984944 0.02923
C_ C_ 0.246866 0.615021 0.0375712 -0.15533
C_ C_ 0.215783 0.609544 0.0767416 -0.15533
C_ C_ 0.163607 0.599534 0.0668718 0.02923
C_ C_ 0.144391 0.590977 0.0160198 -0.15533
C_ C_ 0.172583 0.599108 0.974686 0.02923
C_ C_ 0.145655 0.611344 0.419088 0.69207
C_ C_ 0.152682 0.607267 0.164282 0.69661
C_ C_ 0.380718 0.882149 0.383224 -0.30787
C_ C_ 0.12719 0.608446 0.10881 -0.30787
N_ N_ 0.146816 0.560798 0.310057 -0.32189
N_ N_ 0.0558125 0.645933 0.312764 -0.32189
N_ N_ 0.0993339 0.808946 0.0629789 -0.32189
N_ N_ 0.189988 0.815525 0.144842 -0.32189
N_ N_ 0.353465 0.953748 0.19199 -0.32189
N_ N_ 0.438219 0.858183 0.192465 -0.32189
N_ N_ 0.388927 0.70205 0.453529 -0.32189
N_ N_ 0.306784 0.693981 0.360798 -0.32189
O_ O_ 0.505868 0.596961 0.401982 -0.63271
O_ O_ 0.0437865 0.532766 0.329535 -0.57982
O_ O_ 0.389224 0.602552 0.351853 -0.63271
O_ O_ 0.36916 0.599475 0.43391 -0.57982
O_ O_ 0.248885 0.888716 0.0878986 -0.63271
O_ O_ 0.207321 0.831463 0.0387822 -0.57982
O_ O_ 0.353255 0.845005 0.0958249 -0.63271
O_ O_ 0.383644 0.918909 0.0930012 -0.57982
O_ O_ 0.990265 0.905729 0.094845 -0.63271
O_ O_ 0.451765 0.962872 0.155166 -0.57982
O_ O_ 0.0965208 0.897155 0.147816 -0.63271
O_ O_ 0.135 0.908729 0.0773731 -0.57982
O_ O_ 0.258337 0.60913 0.404875 -0.63271
O_ O_ 0.285483 0.670043 0.464141 -0.57982
O_ O_ 0.149044 0.654513 0.397258 -0.63271
O_ O_ 0.108373 0.585406 0.404793 -0.57982
F_ F_ 0.440549 0.815461 0.4251 -0.20885
F_ F_ 0.440594 0.822205 0.341749 -0.20885
F_ F_ 0.376431 0.790676 0.372772 -0.20885
F_ F_ 0.318001 0.92736 0.330399 -0.20885
F_ F_ 0.335492 0.849302 0.304184 -0.20885
F_ F_ 0.389626 0.905056 0.298251 -0.20885
F_ F_ 0.0724696 0.669997 0.0547943 -0.20885
F_ F_ 0.0710929 0.683802 0.13584 -0.20885
F_ F_ 0.135636 0.698116 0.0977215 -0.20885
F_ F_ 0.188345 0.566104 0.174841 -0.20885
F_ F_ 0.180026 0.648225 0.181562 -0.20885
F_ F_ 0.11626 0.608658 0.197574 -0.20885
Zn Zn 0.0808041 0.587971 0.842124 0.83971
Zn Zn 0.166638 0.849826 0.587906 0.83971
Zn Zn 0.411736 0.923763 0.660416 0.83971
Zn Zn 0.337872 0.640724 0.905694 0.83971
H_ H_ 0.155716 0.633025 0.786269 0.10394
H_ H_ 0.240335 0.602108 0.761862 0.10394
H_ H_ 0.193875 0.950827 0.76261 0.10394
H_ H_ 0.139809 0.49335 0.843625 0.10394
H_ H_ 0.53331 0.605011 0.750024 0.10394
H_ H_ 0.49787 0.679729 0.705947 0.10394
H_ H_ 0.0217636 0.768711 0.828044 0.10394
H_ H_ 0.0644585 0.700232 0.874473 0.10394
H_ H_ 0.0266356 0.940224 0.873342 0.10394
H_ H_ 0.478113 0.878151 0.868573 0.10394
H_ H_ 0.349038 0.989092 0.89547 0.10394
H_ H_ 0.0816926 0.807447 0.635014 0.10394
H_ H_ 0.505857 0.769992 0.599587 0.10394
H_ H_ 0.0526917 0.753942 0.952342 0.10394
H_ H_ 0.126679 0.824905 0.487871 0.10394
H_ H_ 0.208068 0.750749 0.595437 0.10394
H_ H_ 0.257709 0.700678 0.665007 0.10394
H_ H_ 0.218425 0.831553 0.767802 0.10394
H_ H_ 0.18732 0.882478 0.694248 0.10394
H_ H_ 0.219668 0.848385 0.942253 0.10394
H_ H_ 0.274978 0.858487 0.874867 0.10394
H_ H_ 0.393539 0.907934 0.985948 0.10394
H_ H_ 0.307215 0.908129 0.650134 0.10394
H_ H_ 0.230286 0.958391 0.680616 0.10394
H_ H_ 0.329768 0.555725 0.7728 0.10394
H_ H_ 0.403446 0.00751933 0.742155 0.10394
H_ H_ 0.00225438 0.895369 0.707494 0.10394
H_ H_ 0.0502465 0.817358 0.743045 0.10394
H_ H_ 0.417941 0.748691 0.720548 0.10394
H_ H_ 0.378283 0.827655 0.683494 0.10394
H_ H_ 0.469469 0.558747 0.633761 0.10394
H_ H_ 0.0151377 0.613365 0.591827 0.10394
H_ H_ 0.14746 0.508337 0.59723 0.10394
H_ H_ 0.441748 0.607641 0.959952 0.10394
H_ H_ 0.0142074 0.682605 0.951638 0.10394
H_ H_ 0.417681 0.787516 0.548294 0.10394
H_ H_ 0.337472 0.73914 -0.047567000000000026 0.10394
H_ H_ 0.230629 0.687345 0.874041 0.10394
H_ H_ 0.192803 0.73229 0.80098 0.10394
H_ H_ 0.339216 0.720751 0.741817 0.10394
H_ H_ 0.37534 0.674086 0.819345 0.10394
H_ H_ 0.27778 0.643937 0.549534 0.10394
H_ H_ 0.224288 0.621882 0.615594 0.10394
H_ H_ 0.105469 0.580969 0.500041 0.10394
C_ C_ 0.172383 0.594944 0.791974 0.18167
C_ C_ 0.220357 0.577695 0.777019 -0.15533
C_ C_ 0.235983 0.52562 0.778215 0.02923
C_ C_ 0.187845 0.992589 0.766723 -0.15533
C_ C_ 0.161151 0.514048 0.821116 0.18167
C_ C_ 0.02146 0.637102 0.76589 0.18167
C_ C_ 0.51556 0.685928 0.744489 -0.15533
C_ C_ 0.00586609 0.728271 0.757354 0.02923
C_ C_ 0.0272849 0.73476 0.808904 -0.15533
C_ C_ 0.0486127 0.692539 0.835377 0.18167
C_ C_ -0.0018439999999999568 0.544972 0.860883 0.69207
C_ C_ 0.472025 0.0054599 0.87141 0.02923
C_ C_ 0.492574 0.953157 0.868609 -0.15533
C_ C_ 0.461938 0.91655 0.877515 -0.15533
C_ C_ 0.410603 0.926945 0.888028 0.02923
C_ C_ 0.390431 0.97805 0.892863 -0.15533
C_ C_ 0.420567 0.0174746 0.884536 0.02923
C_ C_ 0.395582 0.559653 0.885261 0.69207
C_ C_ 0.402215 0.824861 0.878886 0.69661
C_ C_ 0.0739838 0.804116 0.594508 0.18167
C_ C_ 0.0317481 0.77924 0.574535 -0.15533
C_ C_ 0.0187182 0.774353 0.521733 0.02923
C_ C_ 0.0516943 0.773077 0.989006 -0.15533
C_ C_ 0.0982017 0.813718 0.5112 0.18167
C_ C_ 0.214938 0.769042 0.63277 0.18167
C_ C_ 0.240681 0.740623 0.671811 -0.15533
C_ C_ 0.239394 0.763084 0.7221 0.02923
C_ C_ 0.220794 0.813662 0.729421 -0.15533
C_ C_ 0.198602 0.840596 0.689317 0.18167
C_ C_ 0.245584 0.863561 0.540586 0.69207
C_ C_ 0.277405 0.868932 0.00357849 0.02923
C_ C_ 0.256236 0.86359 0.952826 -0.15533
C_ C_ 0.288357 0.867774 0.91238 -0.15533
C_ C_ 0.338183 0.883141 0.923433 0.02923
C_ C_ 0.356857 0.891923 0.975876 -0.15533
C_ C_ 0.327068 0.886453 0.0163917 0.02923
C_ C_ 0.356452 0.881748 0.57056 0.69207
C_ C_ 0.344999 0.886604 0.824291 0.69661
C_ C_ 0.311221 0.937339 0.680471 0.18167
C_ C_ 0.268493 0.966023 0.697618 -0.15533
C_ C_ 0.274897 1.00001 0.739135 0.02923
C_ C_ 0.323784 0.522928 0.746822 -0.15533
C_ C_ 0.366655 0.989965 0.735368 0.18167
C_ C_ 0.489941 0.866131 0.723089 0.18167
C_ C_ 0.012603 0.815773 0.724567 -0.15533
C_ C_ 0.488494 0.780278 0.74394 0.02923
C_ C_ 0.439247 0.780028 0.721245 -0.15533
C_ C_ 0.417337 0.825465 0.699908 0.18167
C_ C_ 0.49227 0.953948 0.631065 0.69207
C_ C_ 0.0255017 0.489659 0.61843 0.02923
C_ C_ 1.00483958 0.541276 0.617298 -0.15533
C_ C_ 0.0324795 0.575337 0.596388 -0.15533
C_ C_ 0.0859008 0.564831 0.594471 0.02923
C_ C_ 0.108052 0.513783 0.601703 -0.15533
C_ C_ 0.0764357 0.474701 0.605594 0.02923
C_ C_ 0.101555 0.931933 0.612994 0.69207
C_ C_ 0.0925218 0.659292 0.586925 0.69661
C_ C_ 0.43524 0.647555 0.966693 0.18167
C_ C_ 0.473138 0.677524 0.991143 -0.15533
C_ C_ 0.460109 0.730221 0.000754087 0.02923
C_ C_ 0.424332 0.760505 0.51639 -0.15533
C_ C_ 0.374504 0.721289 0.966555 0.18167
C_ C_ 0.253895 0.693518 0.846478 0.18167
C_ C_ 0.231468 0.720273 0.804989 -0.15533
C_ C_ 0.260739 0.729972 0.764374 0.02923
C_ C_ 0.31364 0.7136 0.771139 -0.15533
C_ C_ 0.334153 0.686393 0.813787 0.18167
C_ C_ 0.258167 0.616633 0.942641 0.69207
C_ C_ 0.224025 0.618768 0.487683 0.02923
C_ C_ 0.243703 0.622247 0.538846 -0.15533
C_ C_ 0.213607 0.613017 0.575435 -0.15533
C_ C_ 0.163053 0.598573 0.563823 0.02923
C_ C_ 0.145102 0.591821 0.510241 -0.15533
C_ C_ 0.171981 0.606197 0.472312 0.02923
C_ C_ 0.145672 0.606751 0.921182 0.69207
C_ C_ 0.14338 0.612299 0.65627 0.69661
C_ C_ 0.374515 0.882507 0.880007 -0.30787
C_ C_ 0.122151 0.60627 0.599808 -0.30787
N_ N_ 0.142375 0.562241 0.809395 -0.32189
N_ N_ 0.046518 0.646101 0.811805 -0.32189
N_ N_ 0.109728 0.8175 0.564035 -0.32189
N_ N_ 0.197 0.817644 0.640872 -0.32189
N_ N_ 0.358447 0.950683 0.699039 -0.32189
N_ N_ 0.443004 0.866745 0.699628 -0.32189
N_ N_ 0.39004 0.673258 0.948319 -0.32189
N_ N_ 0.303091 0.673106 0.848574 -0.32189
O_ O_ 0.507792 0.581883 0.90028 -0.63271
O_ O_ 0.0359834 0.536358 0.833405 -0.57982
O_ O_ 0.401544 0.587546 0.845358 -0.63271
O_ O_ 0.363047 0.577693 0.9194 -0.57982
O_ O_ 0.250992 0.892863 0.583145 -0.63271
O_ O_ 0.204194 0.838984 0.530633 -0.57982
O_ O_ 0.357874 0.839049 0.5938 -0.63271
O_ O_ 0.38168 0.919664 0.592548 -0.57982
O_ O_ 0.997427 0.912722 0.598014 -0.63271
O_ O_ 0.45672 0.968554 0.664331 -0.57982
O_ O_ 0.0959283 0.90173 0.649796 -0.63271
O_ O_ 0.135096 0.915109 0.578672 -0.57982
O_ O_ 0.248395 0.596228 0.895319 -0.63271
O_ O_ 0.293708 0.647149 0.951326 -0.57982
O_ O_ 0.146352 0.649386 0.899181 -0.63271
O_ O_ 0.106791 0.581895 0.907464 -0.57982
F_ F_ 0.430653 0.816712 0.926046 -0.20885
F_ F_ 0.430345 0.811861 0.837637 -0.20885
F_ F_ 0.367826 0.789673 0.87513 -0.20885
F_ F_ 0.308609 0.928364 0.823442 -0.20885
F_ F_ 0.320721 0.843578 0.804378 -0.20885
F_ F_ 0.377881 0.8937 0.789211 -0.20885
F_ F_ 0.0581491 0.654133 0.54296 -0.20885
F_ F_ 0.0634536 0.679543 0.626378 -0.20885
F_ F_ 0.120987 0.697202 0.578794 -0.20885
F_ F_ 0.180199 0.574186 0.671506 -0.20885
F_ F_ 0.159529 0.660801 0.669659 -0.20885
F_ F_ 0.106426 0.609067 0.688776 -0.20885
Zn Zn 0.587595 0.0808899 0.343615 0.83971
Zn Zn 0.663351 0.346012 0.0887757 0.83971
Zn Zn 0.908139 0.420506 0.162513 0.83971
Zn Zn 0.843828 0.148959 0.412231 0.83971
H_ H_ 0.663355 0.136486 0.297626 0.10394
H_ H_ 0.74406 0.108052 0.267101 0.10394
H_ H_ 0.710192 0.453917 0.280621 0.10394
H_ H_ 0.6335 0.984502 0.3237 0.10394
H_ H_ 0.0311989 0.0950236 0.247897 0.10394
H_ H_ 0.981353 0.17043 0.206384 0.10394
H_ H_ 0.532953 0.269363 0.32964 0.10394
H_ H_ 0.56821 0.188468 0.378461 0.10394
H_ H_ 0.534662 0.452384 0.376867 0.10394
H_ H_ 0.97146 0.373762 0.378327 0.10394
H_ H_ 0.856927 0.49162 0.409488 0.10394
H_ H_ 0.592389 0.296884 0.136169 0.10394
H_ H_ 1.00768465 0.257724 0.107499 0.10394
H_ H_ 0.538344 0.30543 0.451309 0.10394
H_ H_ 0.609207 0.331952 0.981548 0.10394
H_ H_ 0.716029 0.244875 0.106548 0.10394
H_ H_ 0.748394 0.199035 0.17358 0.10394
H_ H_ 0.713499 0.334426 0.271824 0.10394
H_ H_ 0.680425 0.379633 0.195024 0.10394
H_ H_ 0.718951 0.349281 0.444786 0.10394
H_ H_ 0.758744 0.388682 0.379789 0.10394
H_ H_ 0.889142 0.401037 0.480487 0.10394
H_ H_ 0.807948 0.405002 0.167134 0.10394
H_ H_ 0.732996 0.452943 0.200742 0.10394
H_ H_ 0.838928 0.0511736 0.283988 0.10394
H_ H_ 0.902105 0.518343 0.22552 0.10394
H_ H_ 0.515684 0.388847 0.200287 0.10394
H_ H_ 0.556194 0.308501 0.241144 0.10394
H_ H_ 0.903528 0.245981 0.236852 0.10394
H_ H_ 0.863225 0.333772 0.200892 0.10394
H_ H_ 0.965796 0.0509886 0.126629 0.10394
H_ H_ 0.516395 0.113531 0.108552 0.10394
H_ H_ 0.641216 0.00292674 0.0853063 0.10394
H_ H_ 0.945826 0.14417 0.413825 0.10394
H_ H_ 0.515402 0.215671 0.440384 0.10394
H_ H_ 0.920682 0.276051 0.0641112 0.10394
H_ H_ 0.845497 0.241986 0.49953 0.10394
H_ H_ 0.736676 0.183136 0.384809 0.10394
H_ H_ 0.689085 0.22914 0.315313 0.10394
H_ H_ 0.834793 0.232613 0.252799 0.10394
H_ H_ 0.878971 0.184962 0.328298 0.10394
H_ H_ 0.779949 0.133039 0.0594632 0.10394
H_ H_ 0.726653 0.118395 0.12085 0.10394
H_ H_ 0.601106 0.0927637 0.00890659 0.10394
C_ C_ 0.675023 0.0973721 0.298312 0.18167
C_ C_ 0.722839 0.0790362 0.279584 -0.15533
C_ C_ 0.738699 0.0263355 0.275651 0.02923
C_ C_ 0.702141 0.495607 0.288536 -0.15533
C_ C_ 0.659328 0.0117704 0.312238 0.18167
C_ C_ 0.527307 0.13433 0.267051 0.18167
C_ C_ -0.0038240000000000496 0.174262 0.245335 -0.15533
C_ C_ 0.515196 0.225186 0.261475 0.02923
C_ C_ 0.538749 0.231477 0.311024 -0.15533
C_ C_ 0.561169 0.186424 0.336526 0.18167
C_ C_ 0.506257 0.0468464 0.360479 0.69207
C_ C_ 0.971359 0.502657 0.366762 0.02923
C_ C_ 0.98534 0.449233 0.356867 -0.15533
C_ C_ 0.954207 0.412779 0.369845 -0.15533
C_ C_ 0.905253 0.427871 0.383799 0.02923
C_ C_ 0.894719 0.479242 0.399221 -0.15533
C_ C_ 0.921463 0.516785 0.38428 0.02923
C_ C_ 0.899959 0.0646069 0.378129 0.69207
C_ C_ 0.885354 0.331092 0.372015 0.69661
C_ C_ 0.578751 0.296344 0.0949911 0.18167
C_ C_ 0.529175 0.282022 0.0784909 -0.15533
C_ C_ 0.512298 0.276337 0.0261753 0.02923
C_ C_ 0.549082 0.30303 0.492192 -0.15533
C_ C_ 0.588213 0.314608 0.0108992 0.18167
C_ C_ 0.717979 0.266731 0.140102 0.18167
C_ C_ 0.735486 0.238249 0.182544 -0.15533
C_ C_ 0.734375 0.262643 0.233176 0.02923
C_ C_ 0.709754 0.312979 0.235488 -0.15533
C_ C_ 0.690811 0.338991 0.19186 0.18167
C_ C_ 0.746567 0.363072 0.0551275 0.69207
C_ C_ 0.778646 0.368674 0.505931 0.02923
C_ C_ 0.75588 0.36521 0.455868 -0.15533
C_ C_ 0.777262 0.388166 0.417999 -0.15533
C_ C_ 0.828767 0.395454 0.423847 0.02923
C_ C_ 0.850447 0.396216 0.474731 -0.15533
C_ C_ 0.8266 0.385149 0.517313 0.02923
C_ C_ 0.85642 0.392018 0.0769136 0.69207
C_ C_ 0.831338 0.397675 0.325524 0.69661
C_ C_ 0.812597 0.439495 0.190397 0.18167
C_ C_ 0.770587 0.466963 0.205422 -0.15533
C_ C_ 0.778567 0.505732 0.242982 0.02923
C_ C_ 0.829961 0.0210456 0.251609 -0.15533
C_ C_ 0.865872 0.502852 0.22753 0.18167
C_ C_ 0.987875 0.349581 0.21205 0.18167
C_ C_ 0.51703 0.312183 0.226973 -0.15533
C_ C_ 0.976777 0.268486 0.241973 0.02923
C_ C_ 0.925157 0.277034 0.228578 -0.15533
C_ C_ 0.905572 0.321826 0.205269 0.18167
C_ C_ 0.99459 0.448419 0.130994 0.69207
C_ C_ 0.522816 0.986134 0.113264 0.02923
C_ C_ 0.501154 0.0378095 0.112034 -0.15533
C_ C_ 0.532707 0.0765099 0.1074 -0.15533
C_ C_ 0.584699 0.0670483 0.100993 0.02923
C_ C_ 0.604299 0.0143968 0.0984276 -0.15533
C_ C_ 0.575143 0.974731 0.107634 0.02923
C_ C_ 0.596974 0.421988 0.102851 0.69207
C_ C_ 0.593276 0.163244 0.111825 0.69661
C_ C_ 0.937659 0.176468 0.438312 0.18167
C_ C_ 0.980982 0.199058 0.461722 -0.15533
C_ C_ 0.974258 0.24453 0.492631 0.02923
C_ C_ 0.925355 0.250219 0.027147 -0.15533
C_ C_ 0.883952 0.230178 0.489641 0.18167
C_ C_ 0.756463 0.194362 0.355831 0.18167
C_ C_ 0.73057 0.219829 0.314721 -0.15533
C_ C_ 0.758744 0.234149 0.277552 0.02923
C_ C_ 0.813429 0.225352 0.282984 -0.15533
C_ C_ 0.836353 0.193599 0.320675 0.18167
C_ C_ 0.767741 0.114491 0.450458 0.69207
C_ C_ 0.724921 0.117174 0.993955 0.02923
C_ C_ 0.740647 0.126513 0.0450736 -0.15533
C_ C_ 0.709377 0.118256 0.0831617 -0.15533
C_ C_ 0.660361 0.103539 0.0700264 0.02923
C_ C_ 0.641197 0.103698 0.0191116 -0.15533
C_ C_ 0.673114 0.107479 0.98058 0.02923
C_ C_ 0.656083 0.101601 0.420851 0.69207
C_ C_ 0.647489 0.098298 0.16638 0.69661
C_ C_ 0.861792 0.388523 0.377334 -0.30787
C_ C_ 0.620858 0.108612 0.112904 -0.30787
N_ N_ 0.642078 0.0625626 0.308132 -0.32189
N_ N_ 0.555264 0.140111 0.312571 -0.32189
N_ N_ 0.607804 0.311933 0.0604254 -0.32189
N_ N_ 0.692176 0.313114 0.145435 -0.32189
N_ N_ 0.858437 0.458287 0.197906 -0.32189
N_ N_ 0.936647 0.356563 0.195921 -0.32189
N_ N_ 0.889915 0.191445 0.451237 -0.32189
N_ N_ 0.808629 0.180777 0.35697 -0.32189
O_ O_ 0.00883324 0.0754917 0.406713 -0.63271
O_ O_ 0.540412 0.0337849 0.327941 -0.57982
O_ O_ 0.905388 0.0932134 0.339577 -0.63271
O_ O_ 0.869922 0.0836985 0.412189 -0.57982
O_ O_ 0.746909 0.393737 0.0955987 -0.63271
O_ O_ 0.712512 0.330869 0.0450459 -0.57982
O_ O_ 0.852102 0.35505 0.105191 -0.63271
O_ O_ 0.882174 0.429039 0.0948792 -0.57982
O_ O_ 0.483869 0.408174 0.0952982 -0.63271
O_ O_ 0.957765 0.460395 0.160571 -0.57982
O_ O_ 0.591985 0.398411 0.143975 -0.63271
O_ O_ 0.631773 0.40778 0.0741049 -0.57982
O_ O_ 0.760255 0.0946294 0.402543 -0.63271
O_ O_ 0.799285 0.149012 0.459358 -0.57982
O_ O_ 0.6547 0.142648 0.393848 -0.63271
O_ O_ 0.625229 0.0680666 0.403645 -0.57982
F_ F_ 0.917798 0.320554 0.417934 -0.20885
F_ F_ 0.914677 0.315956 0.332394 -0.20885
F_ F_ 0.847011 0.298442 0.370478 -0.20885
F_ F_ 0.806772 0.446168 0.330213 -0.20885
F_ F_ 0.796197 0.36234 0.308153 -0.20885
F_ F_ 0.8625 0.400649 0.285511 -0.20885
F_ F_ 0.560263 0.168731 0.070249 -0.20885
F_ F_ 0.570956 0.178289 0.155842 -0.20885
F_ F_ 0.629677 0.196622 0.110617 -0.20885
F_ F_ 0.686119 0.0573951 0.17121 -0.20885
F_ F_ 0.668531 0.141533 0.189324 -0.20885
F_ F_ 0.612228 0.083441 0.196416 -0.20885
Zn Zn 0.586963 0.0825457 0.844654 0.83971
Zn Zn 0.664512 0.348179 0.589851 0.83971
Zn Zn 0.911392 0.4128 0.653506 0.83971
Zn Zn 0.843375 0.15485 0.922935 0.83971
H_ H_ 0.662903 0.132037 0.794889 0.10394
H_ H_ 0.74614 0.103357 0.757629 0.10394
H_ H_ 0.704164 0.439831 0.789401 0.10394
H_ H_ 0.626342 0.985869 0.80311 0.10394
H_ H_ 0.0231475 0.0947026 0.758302 0.10394
H_ H_ 0.995418 0.171457 0.705057 0.10394
H_ H_ 0.538416 0.276015 0.828299 0.10394
H_ H_ 0.578247 0.201495 0.881496 0.10394
H_ H_ 0.536326 0.439181 0.876518 0.10394
H_ H_ 0.969587 0.374408 0.868975 0.10394
H_ H_ 0.84662 0.487088 0.902873 0.10394
H_ H_ 0.579091 0.313337 0.6387 0.10394
H_ H_ -0.007705999999999991 0.28056 0.59294 0.10394
H_ H_ 0.535202 0.287571 0.953697 0.10394
H_ H_ 0.620171 0.334541 0.491365 0.10394
H_ H_ 0.715573 0.253434 0.601521 0.10394
H_ H_ 0.7561 0.204631 0.677258 0.10394
H_ H_ 0.721411 0.340408 0.772876 0.10394
H_ H_ 0.675159 0.385023 0.697148 0.10394
H_ H_ 0.715713 0.372006 0.954842 0.10394
H_ H_ 0.763737 0.373683 0.88593 0.10394
H_ H_ 0.893883 0.410106 0.987441 0.10394
H_ H_ 0.80755 0.390589 0.661241 0.10394
H_ H_ 0.735406 0.444894 0.682752 0.10394
H_ H_ 0.832836 0.0381907 0.788896 0.10394
H_ H_ 0.905261 0.495052 0.735586 0.10394
H_ H_ 0.519404 0.378656 0.689794 0.10394
H_ H_ 0.558284 0.300236 0.73343 0.10394
H_ H_ 0.911453 0.239661 0.718499 0.10394
H_ H_ 0.873987 0.320507 0.682445 0.10394
H_ H_ 0.96704 0.0589519 0.628372 0.10394
H_ H_ 0.50806 0.116412 0.589445 0.10394
H_ H_ 0.648305 0.0173827 0.611374 0.10394
H_ H_ 0.944273 0.156308 0.914037 0.10394
H_ H_ 0.522012 0.189948 0.973671 0.10394
H_ H_ 0.916355 0.288858 0.536596 0.10394
H_ H_ 0.849422 0.23344 0.014691 0.10394
H_ H_ 0.730783 0.195612 0.885943 0.10394
H_ H_ 0.695753 0.247418 0.814047 0.10394
H_ H_ 0.842814 0.242077 0.765444 0.10394
H_ H_ 0.881856 0.19696 0.840501 0.10394
H_ H_ 0.780149 0.134728 0.551324 0.10394
H_ H_ 0.721531 0.127347 0.617008 0.10394
H_ H_ 0.605604 0.080654 0.498457 0.10394
C_ C_ 0.677213 0.0930312 0.793155 0.18167
C_ C_ 0.719247 0.0764832 0.766054 -0.15533
C_ C_ 0.734678 0.0253694 0.761618 0.02923
C_ C_ 0.695368 0.480557 0.788094 -0.15533
C_ C_ 0.654655 0.00953672 0.793957 0.18167
C_ C_ 0.530274 0.136153 0.773967 0.18167
C_ C_ 0.00524191 0.177821 0.747271 -0.15533
C_ C_ 0.513475 0.223907 0.765505 0.02923
C_ C_ 0.536694 0.234513 0.814471 -0.15533
C_ C_ 0.562857 0.193131 0.840573 0.18167
C_ C_ 0.505013 0.0441008 0.863627 0.69207
C_ C_ 0.960383 0.505131 0.860033 0.02923
C_ C_ 0.982662 0.452381 0.858006 -0.15533
C_ C_ 0.954442 0.41417 0.871774 -0.15533
C_ C_ 0.905179 0.42466 0.888912 0.02923
C_ C_ 0.88646 0.476813 0.894811 -0.15533
C_ C_ 0.911374 0.515999 0.877177 0.02923
C_ C_ 0.899211 0.0735267 0.881294 0.69207
C_ C_ 0.897336 0.32709 0.901127 0.69661
C_ C_ 0.571762 0.306676 0.596641 0.18167
C_ C_ 0.525057 0.290946 0.576978 -0.15533
C_ C_ 0.515492 0.282517 0.522486 0.02923
C_ C_ 0.544172 0.290353 0.992674 -0.15533
C_ C_ 0.594867 0.319686 0.514425 0.18167
C_ C_ 0.71854 0.273421 0.640243 0.18167
C_ C_ 0.741231 0.245833 0.681654 -0.15533
C_ C_ 0.740161 0.270415 0.731638 0.02923
C_ C_ 0.715293 0.321078 0.736389 -0.15533
C_ C_ 0.692408 0.346166 0.69324 0.18167
C_ C_ 0.747095 0.361955 0.548821 0.69207
C_ C_ 0.779772 0.373835 1.0153864 0.02923
C_ C_ 0.756969 0.373502 0.96286 -0.15533
C_ C_ 0.781309 0.385272 0.923749 -0.15533
C_ C_ 0.833785 0.393222 0.934443 0.02923
C_ C_ 0.854067 0.403373 0.983655 -0.15533
C_ C_ 0.829445 0.39146 0.0253805 0.02923
C_ C_ 0.855713 0.381387 0.56834 0.69207
C_ C_ 0.842782 0.373734 0.835883 0.69661
C_ C_ 0.81379 0.422226 0.686035 0.18167
C_ C_ 0.7709 0.4524 0.702687 -0.15533
C_ C_ 0.776684 0.487224 0.744438 0.02923
C_ C_ 0.828115 0.0135278 0.753188 -0.15533
C_ C_ 0.865221 0.48476 0.726885 0.18167
C_ C_ 0.987928 0.356194 0.7179 0.18167
C_ C_ 0.518005 0.306014 0.726548 -0.15533
C_ C_ 0.984901 0.272916 0.744411 0.02923
C_ C_ 0.935228 0.270743 0.716789 -0.15533
C_ C_ 0.914769 0.314688 0.692109 0.18167
C_ C_ 0.99324 0.450327 0.626655 0.69207
C_ C_ 0.526391 0.992781 0.618757 0.02923
C_ C_ 0.501655 0.0383429 0.602272 -0.15533
C_ C_ 0.528218 0.0788032 0.592806 -0.15533
C_ C_ 0.581485 0.0740583 0.599243 0.02923
C_ C_ 0.606315 0.023821 0.603085 -0.15533
C_ C_ 0.577458 0.981633 0.604955 0.02923
C_ C_ 0.608709 0.431375 0.613448 0.69207
C_ C_ 0.590906 0.170109 0.588288 0.69661
C_ C_ 0.941584 0.180932 0.944563 0.18167
C_ C_ 0.982939 0.19877 0.972939 -0.15533
C_ C_ 0.974223 0.236724 0.0131299 0.02923
C_ C_ 0.926226 0.256397 0.510623 -0.15533
C_ C_ 0.884428 0.223011 1.00138926 0.18167
C_ C_ 0.756955 0.205547 0.859231 0.18167
C_ C_ 0.734979 0.234154 0.81753 -0.15533
C_ C_ 0.764519 0.242841 0.778497 0.02923
C_ C_ 0.817477 0.230056 0.78969 -0.15533
C_ C_ 0.839341 0.205302 0.832435 0.18167
C_ C_ 0.760434 0.123554 0.956616 0.69207
C_ C_ 0.727008 0.113332 0.488999 0.02923
C_ C_ 0.741435 0.124768 0.540329 -0.15533
C_ C_ 0.707135 0.122751 0.576826 -0.15533
C_ C_ 0.657846 0.105597 0.564425 0.02923
C_ C_ 0.645587 0.0903971 0.51197 -0.15533
C_ C_ 0.677098 0.101596 0.475449 0.02923
C_ C_ 0.646892 0.107173 0.927471 0.69207
C_ C_ 0.639138 0.120081 0.657539 0.69661
C_ C_ 0.870345 0.382174 0.888412 -0.30787
C_ C_ 0.61586 0.117611 0.601479 -0.30787
N_ N_ 0.644669 0.0603838 0.802471 -0.32189
N_ N_ 0.557137 0.144828 0.819818 -0.32189
N_ N_ 0.607163 0.318355 0.56458 -0.32189
N_ N_ 0.695443 0.322077 0.646666 -0.32189
N_ N_ 0.859206 0.443535 0.695861 -0.32189
N_ N_ 0.941522 0.353939 0.690415 -0.32189
N_ N_ 0.893428 0.191545 0.959319 -0.32189
N_ N_ 0.809245 0.195505 0.867854 -0.32189
O_ O_ 0.00906653 0.0817914 0.89832 -0.63271
O_ O_ 0.542022 0.0356853 0.832885 -0.57982
O_ O_ 0.901835 0.102744 0.841223 -0.63271
O_ O_ 0.872831 0.0915202 0.919106 -0.57982
O_ O_ 0.74897 0.396123 0.587086 -0.63271
O_ O_ 0.709254 0.333999 0.543441 -0.57982
O_ O_ 0.858367 0.340818 0.593223 -0.63271
O_ O_ 0.885935 0.415888 0.585204 -0.57982
O_ O_ 0.498712 0.410719 0.60088 -0.63271
O_ O_ 0.958097 0.460727 0.65945 -0.57982
O_ O_ 0.597524 0.399815 0.64716 -0.63271
O_ O_ 0.639672 0.412703 0.577736 -0.57982
O_ O_ 0.755456 0.103104 0.909404 -0.63271
O_ O_ 0.79786 0.15199 0.969385 -0.57982
O_ O_ 0.656727 0.141574 0.896895 -0.63271
O_ O_ 0.613549 0.0753969 0.910869 -0.57982
F_ F_ 0.936463 0.326912 0.941072 -0.20885
F_ F_ 0.920009 0.302099 0.858783 -0.20885
F_ F_ 0.860198 0.295477 0.913698 -0.20885
F_ F_ 0.804878 0.410527 0.824484 -0.20885
F_ F_ 0.823458 0.326799 0.82205 -0.20885
F_ F_ 0.876393 0.374442 0.801021 -0.20885
F_ F_ 0.561193 0.165964 0.542319 -0.20885
F_ F_ 0.560477 0.186517 0.625637 -0.20885
F_ F_ 0.623004 0.207154 0.584449 -0.20885
F_ F_ 0.676727 0.0796525 0.668963 -0.20885
F_ F_ 0.664169 0.163403 0.67165 -0.20885
F_ F_ 0.603659 0.120243 0.692517 -0.20885
Zn Zn 0.591969 0.587024 0.350965 0.83971
Zn Zn 0.653341 0.836791 0.0720336 0.83971
Zn Zn 0.906824 0.915916 0.149077 0.83971
Zn Zn 0.841896 0.657866 0.415663 0.83971
H_ H_ 0.668736 0.640841 0.298923 0.10394
H_ H_ 0.751807 0.609089 0.270988 0.10394
H_ H_ 0.72214 0.952062 0.295849 0.10394
H_ H_ 0.630731 0.492806 0.318641 0.10394
H_ H_ 0.0311603 0.604655 0.245898 0.10394
H_ H_ 0.983243 0.677287 0.205029 0.10394
H_ H_ 0.533724 0.773246 0.342102 0.10394
H_ H_ 0.570335 0.69727 0.383864 0.10394
H_ H_ 0.532504 0.948812 0.368587 0.10394
H_ H_ 0.965581 0.870562 0.340282 0.10394
H_ H_ 0.851659 0.983803 0.391141 0.10394
H_ H_ 0.566648 0.805249 0.125161 0.10394
H_ H_ 0.993833 0.773291 0.0960735 0.10394
H_ H_ 0.532321 0.795235 0.446575 0.10394
H_ H_ 0.611952 0.800383 0.974672 0.10394
H_ H_ 0.716478 0.742687 0.0921659 0.10394
H_ H_ 0.759326 0.700546 0.169065 0.10394
H_ H_ 0.722922 0.83641 0.257933 0.10394
H_ H_ 0.681474 0.874412 0.180274 0.10394
H_ H_ 0.718627 0.845209 0.438317 0.10394
H_ H_ 0.763813 0.864847 0.371311 0.10394
H_ H_ 0.89199 0.899295 0.482296 0.10394
H_ H_ 0.802077 0.913097 0.150295 0.10394
H_ H_ 0.732218 0.955062 0.199022 0.10394
H_ H_ 0.831844 0.561338 0.274706 0.10394
H_ H_ 0.912604 0.999273137 0.239977 0.10394
H_ H_ 0.510457 0.890264 0.201598 0.10394
H_ H_ 0.554657 0.816909 0.243565 0.10394
H_ H_ 0.901908 0.747663 0.228705 0.10394
H_ H_ 0.862707 0.829905 0.186697 0.10394
H_ H_ 0.970786 0.549773 0.126071 0.10394
H_ H_ 0.512985 0.616695 0.0854052 0.10394
H_ H_ 0.643261 0.50648 0.0910101 0.10394
H_ H_ 0.941287 0.668508 0.39131 0.10394
H_ H_ 0.517175 0.687423 0.456027 0.10394
H_ H_ 0.911556 0.787618 0.0324359 0.10394
H_ H_ 0.845258 0.743739 0.500256 0.10394
H_ H_ 0.734955 0.709156 0.38444 0.10394
H_ H_ 0.695723 0.746454 0.307298 0.10394
H_ H_ 0.832544 0.701097 0.237279 0.10394
H_ H_ 0.877444 0.682794 0.3233 0.10394
H_ H_ 0.776861 0.645143 0.05139 0.10394
H_ H_ 0.729314 0.622976 0.11428 0.10394
H_ H_ 0.609198 0.58461 0.00459719 0.10394
C_ C_ 0.677805 0.601172 0.296105 0.18167
C_ C_ 0.724942 0.58121 0.27851 -0.15533
C_ C_ 0.73769 0.5288 0.272761 0.02923
C_ C_ 0.708025 0.992695 0.294435 -0.15533
C_ C_ 0.656444 0.517285 0.306044 0.18167
C_ C_ 0.535606 0.640891 0.27644 0.18167
C_ C_ 0.0007699999999999374 0.683698 0.243349 -0.15533
C_ C_ 0.520848 0.730934 0.266987 0.02923
C_ C_ 0.539867 0.737417 0.318319 -0.15533
C_ C_ 0.560862 0.694694 0.344434 0.18167
C_ C_ 0.507825 0.553442 0.374274 0.69207
C_ C_ 0.973313 -0.0019649999999999945 0.368855 0.02923
C_ C_ -0.011426000000000047 0.945808 0.357658 -0.15533
C_ C_ 0.954152 0.907582 0.356507 -0.15533
C_ C_ 0.90743 0.919793 0.379603 0.02923
C_ C_ 0.891906 0.973323 0.391163 -0.15533
C_ C_ 0.922216 0.0104707 0.379781 0.02923
C_ C_ 0.896219 0.571052 0.382603 0.69207
C_ C_ 0.894123 0.82415 0.379686 0.69661
C_ C_ 0.555224 0.80134 0.0853878 0.18167
C_ C_ 0.512466 0.774042 0.0700881 -0.15533
C_ C_ 0.501989 0.762772 0.0172753 0.02923
C_ C_ 0.542747 0.795822 0.487586 -0.15533
C_ C_ 0.581627 0.79489 0.000559949 0.18167
C_ C_ 0.717252 0.762868 0.128613 0.18167
C_ C_ 0.739207 0.737874 0.172253 -0.15533
C_ C_ 0.737119 0.762445 0.220126 0.02923
C_ C_ 0.715256 0.812377 0.222461 -0.15533
C_ C_ 0.692413 0.835222 0.18032 0.18167
C_ C_ 0.738131 0.85842 0.0423663 0.69207
C_ C_ 0.774538 0.868316 0.50009 0.02923
C_ C_ 0.756108 0.853621 0.449392 -0.15533
C_ C_ 0.784669 0.864502 0.410228 -0.15533
C_ C_ 0.835497 0.881017 0.420754 0.02923
C_ C_ 0.855241 0.888615 0.472052 -0.15533
C_ C_ 0.826674 0.877881 0.51246 0.02923
C_ C_ 0.850343 0.883354 0.064762 0.69207
C_ C_ 0.840335 0.885244 0.324718 0.69661
C_ C_ 0.811179 0.942862 0.178914 0.18167
C_ C_ 0.77223 0.962832 0.210731 -0.15533
C_ C_ 0.779162 1.00428655 0.244299 0.02923
C_ C_ 0.824638 0.529546 0.248173 -0.15533
C_ C_ 0.870435 0.991717 0.229512 0.18167
C_ C_ 0.984859 0.851392 0.198501 0.18167
C_ C_ 0.515628 0.819418 0.23786 -0.15533
C_ C_ 0.978406 0.773495 0.239472 0.02923
C_ C_ 0.925958 0.777863 0.222044 -0.15533
C_ C_ 0.902965 0.823653 0.197284 0.18167
C_ C_ 0.988345 0.949058 0.121936 0.69207
C_ C_ 0.520314 0.490419 0.108725 0.02923
C_ C_ 0.500532 0.542218 0.108017 -0.15533
C_ C_ 0.531244 0.579637 0.0982926 -0.15533
C_ C_ 0.584967 0.566807 0.0919123 0.02923
C_ C_ 0.602782 0.515651 0.0898123 -0.15533
C_ C_ 0.572708 0.476469 0.100157 0.02923
C_ C_ 0.601787 0.922154 0.110069 0.69207
C_ C_ 0.600328 0.66118 0.106234 0.69661
C_ C_ 0.937322 0.688194 0.428941 0.18167
C_ C_ 0.980061 0.707466 0.457282 -0.15533
C_ C_ 0.975538 0.742673 0.499583 0.02923
C_ C_ 0.919448 0.752603 1.00996226 -0.15533
C_ C_ 0.885085 0.732942 0.488546 0.18167
C_ C_ 0.758526 0.711456 0.354624 0.18167
C_ C_ 0.738589 0.735502 0.311348 -0.15533
C_ C_ 0.764358 0.739779 0.268302 0.02923
C_ C_ 0.814576 0.714232 0.272094 -0.15533
C_ C_ 0.837403 0.693101 0.316504 0.18167
C_ C_ 0.766031 0.624796 0.45535 0.69207
C_ C_ 0.726759 0.617207 0.986869 0.02923
C_ C_ 0.743865 0.625436 0.0398564 -0.15533
C_ C_ 0.715173 0.612494 0.0758914 -0.15533
C_ C_ 0.664524 0.600372 0.0639381 0.02923
C_ C_ 0.64795 0.590693 0.0130837 -0.15533
C_ C_ 0.676437 0.601361 0.973377 0.02923
C_ C_ 0.655973 0.606852 0.427695 0.69207
C_ C_ 0.650543 0.597064 0.159493 0.69661
C_ C_ 0.869024 0.878272 0.375888 -0.30787
C_ C_ 0.625638 0.606916 0.103921 -0.30787
N_ N_ 0.646614 0.568054 0.310856 -0.32189
N_ N_ 0.560846 0.646684 0.322173 -0.32189
N_ N_ 0.589358 0.807449 0.0510664 -0.32189
N_ N_ 0.688588 0.809209 0.133978 -0.32189
N_ N_ 0.85949 0.953575 0.192872 -0.32189
N_ N_ 0.933514 0.857326 0.181737 -0.32189
N_ N_ 0.891282 0.697514 0.449196 -0.32189
N_ N_ 0.808277 0.690064 0.355764 -0.32189
O_ O_ -0.0031600000000000517 0.587577 0.380538 -0.63271
O_ O_ 0.5377 0.548047 0.337007 -0.57982
O_ O_ 0.890697 0.597031 0.341132 -0.63271
O_ O_ 0.877677 0.595206 0.42366 -0.57982
O_ O_ 0.732387 0.885132 0.0869683 -0.63271
O_ O_ 0.699332 0.832397 0.0266561 -0.57982
O_ O_ 0.850813 0.846228 0.0937055 -0.63271
O_ O_ 0.875897 0.920917 0.0839686 -0.57982
O_ O_ 0.490407 0.903456 0.106059 -0.63271
O_ O_ 0.958164 0.955597 0.158626 -0.57982
O_ O_ 0.596039 0.891653 0.147107 -0.63271
O_ O_ 0.623697 0.903053 0.0706256 -0.57982
O_ O_ 0.764514 0.593435 0.413224 -0.63271
O_ O_ 0.80029 0.657857 0.463798 -0.57982
O_ O_ 0.65497 0.648599 0.401496 -0.63271
O_ O_ 0.621898 0.575933 0.412599 -0.57982
F_ F_ 0.931983 0.822754 0.418116 -0.20885
F_ F_ 0.914978 0.80209 0.334578 -0.20885
F_ F_ 0.860283 0.789985 0.386652 -0.20885
F_ F_ 0.807409 0.928151 0.32699 -0.20885
F_ F_ 0.815193 0.843567 0.307257 -0.20885
F_ F_ 0.870919 0.892839 0.286958 -0.20885
F_ F_ 0.573192 0.669274 0.0595295 -0.20885
F_ F_ 0.568353 0.672 0.146031 -0.20885
F_ F_ 0.637199 0.695584 0.112441 -0.20885
F_ F_ 0.687404 0.556468 0.163099 -0.20885
F_ F_ 0.67763 0.637521 0.181775 -0.20885
F_ F_ 0.611998 0.593118 0.189335 -0.20885
Zn Zn 0.584416 0.581366 0.841524 0.83971
Zn Zn 0.661296 0.849367 0.58198 0.83971
Zn Zn 0.908015 0.918312 0.648369 0.83971
Zn Zn 0.834918 0.660196 0.910557 0.83971
H_ H_ 0.670408 0.627594 0.806125 0.10394
H_ H_ 0.746032 0.588981 0.768086 0.10394
H_ H_ 0.712326 0.949397 0.766501 0.10394
H_ H_ 0.620307 0.477972 0.816265 0.10394
H_ H_ 0.022351 0.598628 0.747734 0.10394
H_ H_ 0.990894 0.67625 0.696012 0.10394
H_ H_ 0.542787 0.77474 0.840857 0.10394
H_ H_ 0.571739 0.696577 0.886292 0.10394
H_ H_ 0.532324 0.940606 0.865857 0.10394
H_ H_ 0.974463 0.883093 0.888748 0.10394
H_ H_ 0.844963 0.992229 0.888429 0.10394
H_ H_ 0.580845 0.810083 0.630829 0.10394
H_ H_ 0.006869 0.766194 0.599485 0.10394
H_ H_ 0.529179 0.759793 0.941854 0.10394
H_ H_ 0.614477 0.823095 0.479096 0.10394
H_ H_ 0.711782 0.753808 0.594603 0.10394
H_ H_ 0.750272 0.703694 0.670487 0.10394
H_ H_ 0.722571 0.844084 0.766262 0.10394
H_ H_ 0.687616 0.891879 0.683981 0.10394
H_ H_ 0.709999 0.865553 0.94273 0.10394
H_ H_ 0.758794 0.885507 0.875025 0.10394
H_ H_ 0.887197 0.913504 0.981846 0.10394
H_ H_ 0.804822 0.943736 0.622864 0.10394
H_ H_ 0.734028 0.990763 0.660998 0.10394
H_ H_ 0.831995 0.542129 0.773863 0.10394
H_ H_ 0.905858 0.99237 0.743666 0.10394
H_ H_ 0.512825 0.894721 0.715321 0.10394
H_ H_ 0.547645 0.826923 0.77195 0.10394
H_ H_ 0.908953 0.750328 0.725481 0.10394
H_ H_ 0.867742 0.824524 0.680628 0.10394
H_ H_ 0.967355 0.55186 0.628634 0.10394
H_ H_ 0.523772 0.62295 0.618331 0.10394
H_ H_ 0.648457 0.51111 0.589978 0.10394
H_ H_ 0.940238 0.658921 0.894955 0.10394
H_ H_ 0.511534 0.663818 0.997145 0.10394
H_ H_ 0.915645 0.787314 0.545662 0.10394
H_ H_ 0.839445 0.744737 0.98821 0.10394
H_ H_ 0.73342 0.709497 0.886699 0.10394
H_ H_ 0.69125 0.748633 0.811074 0.10394
H_ H_ 0.826782 0.722431 0.735815 0.10394
H_ H_ 0.875171 0.68419 0.812106 0.10394
H_ H_ 0.784409 0.639666 0.562688 0.10394
H_ H_ 0.730106 0.616057 0.625917 0.10394
H_ H_ 0.607662 0.598881 0.511323 0.10394
C_ C_ 0.676637 0.58468 0.803644 0.18167
C_ C_ 0.721896 0.563174 0.782253 -0.15533
C_ C_ 0.732324 0.509972 0.773982 0.02923
C_ C_ 0.701874 0.989786 0.775235 -0.15533
C_ C_ 0.651312 0.501945 0.808131 0.18167
C_ C_ 0.537903 0.642187 0.768573 0.18167
C_ C_ 0.000832649 0.679292 0.735799 -0.15533
C_ C_ 0.514847 0.733872 0.77083 0.02923
C_ C_ 0.541315 0.738216 0.818927 -0.15533
C_ C_ 0.561582 0.693487 0.84411 0.18167
C_ C_ 0.505299 0.543157 0.868763 0.69207
C_ C_ 0.971038 0.00498374 0.873339 0.02923
C_ C_ -0.011483000000000021 0.952865 0.873134 -0.15533
C_ C_ 0.955778 0.917327 0.881582 -0.15533
C_ C_ 0.903491 0.929259 0.886425 0.02923
C_ C_ 0.884549 0.982633 0.884239 -0.15533
C_ C_ 0.917709 0.0194883 0.879063 0.02923
C_ C_ 0.887959 0.569454 0.875347 0.69207
C_ C_ 0.896864 0.832814 0.899621 0.69661
C_ C_ 0.570735 0.80891 0.591543 0.18167
C_ C_ 0.527263 0.785369 0.573317 -0.15533
C_ C_ 0.517065 0.771937 0.521009 0.02923
C_ C_ 0.536759 0.771326 0.982746 -0.15533
C_ C_ 0.591176 0.810964 0.505318 0.18167
C_ C_ 0.713594 0.771415 0.634137 0.18167
C_ C_ 0.737203 0.745426 0.675817 -0.15533
C_ C_ 0.738479 0.771749 0.725607 0.02923
C_ C_ 0.721682 0.824062 0.729504 -0.15533
C_ C_ 0.699672 0.849483 0.684307 0.18167
C_ C_ 0.739748 0.867062 0.540986 0.69207
C_ C_ 0.769033 0.876247 1.00399621 0.02923
C_ C_ 0.745828 0.8819 0.952009 -0.15533
C_ C_ 0.775755 0.889444 0.912284 -0.15533
C_ C_ 0.828535 0.897511 0.923287 0.02923
C_ C_ 0.84851 0.903173 0.974788 -0.15533
C_ C_ 0.822598 0.884834 0.012708 0.02923
C_ C_ 0.850889 0.881112 0.565073 0.69207
C_ C_ 0.845757 0.877318 0.827844 0.69661
C_ C_ 0.812571 0.962191 0.659134 0.18167
C_ C_ 0.77097 0.990353 0.681172 -0.15533
C_ C_ 0.777834 0.00839206 0.733335 0.02923
C_ C_ 0.826428 0.505921 0.755189 -0.15533
C_ C_ 0.868698 0.988715 0.728352 0.18167
C_ C_ 0.983829 0.860498 0.705821 0.18167
C_ C_ 0.514857 0.822539 0.742511 -0.15533
C_ C_ 0.984159 0.774538 0.729042 0.02923
C_ C_ 0.931195 0.780288 0.716583 -0.15533
C_ C_ 0.909447 0.822627 0.691127 0.18167
C_ C_ 0.985681 0.960318 0.61498 0.69207
C_ C_ 0.53073 0.49503 0.626317 0.02923
C_ C_ 0.511074 0.547936 0.631552 -0.15533
C_ C_ 0.539815 0.585089 0.619366 -0.15533
C_ C_ 0.590313 0.572894 0.605972 0.02923
C_ C_ 0.609522 0.522149 0.600451 -0.15533
C_ C_ 0.580429 0.483368 0.60959 0.02923
C_ C_ 0.603915 0.928111 0.606299 0.69207
C_ C_ 0.60495 0.668997 0.614246 0.69661
C_ C_ 0.935701 0.680056 0.931047 0.18167
C_ C_ 0.977035 0.697151 0.961151 -0.15533
C_ C_ 0.970165 0.73503 1.00026 0.02923
C_ C_ 0.924624 0.760517 0.512571 -0.15533
C_ C_ 0.878444 0.727202 0.98338 0.18167
C_ C_ 0.755806 0.711381 0.8546 0.18167
C_ C_ 0.730163 0.733558 0.810307 -0.15533
C_ C_ 0.760218 0.744905 0.772091 0.02923
C_ C_ 0.808606 0.720924 0.770506 -0.15533
C_ C_ 0.832803 0.698612 0.812593 0.18167
C_ C_ 0.758779 0.628446 0.946139 0.69207
C_ C_ 0.728656 0.621619 0.494958 0.02923
C_ C_ 0.744934 0.631568 0.548931 -0.15533
C_ C_ 0.717111 0.613532 0.586113 -0.15533
C_ C_ 0.667168 0.60823 0.57194 0.02923
C_ C_ 0.649553 0.597896 0.519869 -0.15533
C_ C_ 0.680796 0.606687 0.480609 0.02923
C_ C_ 0.651983 0.605687 0.919243 0.69207
C_ C_ 0.654323 0.607864 0.670988 0.69661
C_ C_ 0.868511 0.88505 0.884274 -0.30787
C_ C_ 0.629628 0.613201 0.613085 -0.30787
N_ N_ 0.640176 0.552943 0.810507 -0.32189
N_ N_ 0.562089 0.647743 0.817426 -0.32189
N_ N_ 0.603842 0.817728 0.55745 -0.32189
N_ N_ 0.690904 0.82045 0.640041 -0.32189
N_ N_ 0.859738 0.958259 0.685222 -0.32189
N_ N_ 0.93765 0.858837 0.680108 -0.32189
N_ N_ 0.887497 0.691027 0.945158 -0.32189
N_ N_ 0.805744 0.687674 0.852335 -0.32189
O_ O_ 0.999721672 0.580644 0.89879 -0.63271
O_ O_ 0.536729 0.534322 0.835145 -0.57982
O_ O_ 0.894256 0.597054 0.837681 -0.63271
O_ O_ 0.858047 0.591815 0.910363 -0.57982
O_ O_ 0.741912 0.89887 0.580167 -0.63271
O_ O_ 0.703532 0.836462 0.535574 -0.57982
O_ O_ 0.848948 0.842151 0.594801 -0.63271
O_ O_ 0.883337 0.915955 0.578674 -0.57982
O_ O_ 0.495216 0.905417 0.613039 -0.63271
O_ O_ 0.951228 0.969197 0.646665 -0.57982
O_ O_ 0.5981 0.898555 0.6435 -0.63271
O_ O_ 0.635599 0.91127 0.573098 -0.57982
O_ O_ 0.753116 0.606537 0.898968 -0.63271
O_ O_ 0.790541 0.662574 0.958121 -0.57982
O_ O_ 0.650989 0.648706 0.895241 -0.63271
O_ O_ 0.615979 0.575662 0.905019 -0.57982
F_ F_ 0.931631 0.8322 0.943559 -0.20885
F_ F_ 0.921872 0.807394 0.862206 -0.20885
F_ F_ 0.861983 0.796804 0.900925 -0.20885
F_ F_ 0.815136 0.918984 0.811909 -0.20885
F_ F_ 0.81745 0.835242 0.819923 -0.20885
F_ F_ 0.884753 0.870565 0.798633 -0.20885
F_ F_ 0.568069 0.677404 0.572563 -0.20885
F_ F_ 0.581501 0.680848 0.657222 -0.20885
F_ F_ 0.641226 0.703656 0.617746 -0.20885
F_ F_ 0.687607 0.563311 0.673977 -0.20885
F_ F_ 0.683193 0.645968 0.691857 -0.20885
F_ F_ 0.618099 0.604087 0.705628 -0.20885
_cell_length_a 26.508
_cell_length_b 26.37200000322088
_cell_length_c 26.311999743092066
_cell_angle_alpha 93.74100058972084
_cell_angle_beta 96.04100104955006
_cell_angle_gamma 83.6869992558723
_symmetry_space_group_name_H-M         'P 1'
_symmetry_Int_Tables_number            1
loop_
_symmetry_equiv_pos_as_xyz
   'x, y, z'
                         
loop_
_atom_site_label
_atom_site_type_symbol
_atom_site_fract_x 
_atom_site_fract_y
_atom_site_fract_z
_atom_site_charge
Zn Zn 0.0863175 0.0840851 0.351231 0.83971
Zn Zn 0.159437 0.341694 0.0832934 0.83971
Zn Zn 0.408082 0.418547 0.153392 0.83971
Zn Zn 0.342514 0.163036 0.419573 0.83971
H_ H_ 0.162912 0.1312 0.306092 0.10394
H_ H_ 0.241103 0.100925 0.270322 0.10394
H_ H_ 0.214224 0.447479 0.283225 0.10394
H_ H_ 0.142472 0.981776 0.344376 0.10394
H_ H_ 0.522404 0.0977117 0.250762 0.10394
H_ H_ 0.485238 0.175163 0.200142 0.10394
H_ H_ 0.0258935 0.267056 0.339467 0.10394
H_ H_ 0.0708481 0.191382 0.37605 0.10394
H_ H_ 0.019951 0.432383 0.34318 0.10394
H_ H_ 0.477688 0.386109 0.37608 0.10394
H_ H_ 0.356763 0.497432 0.417764 0.10394
H_ H_ 0.0868715 0.298417 0.137955 0.10394
H_ H_ 0.502989 0.277287 0.104988 0.10394
H_ H_ 0.0640845 0.25378 0.452157 0.10394
H_ H_ 0.104304 0.327944 0.986247 0.10394
H_ H_ 0.226394 0.25504 0.0993873 0.10394
H_ H_ 0.269031 0.207674 0.176514 0.10394
H_ H_ 0.228867 0.343555 0.267561 0.10394
H_ H_ 0.191876 0.387765 0.191017 0.10394
H_ H_ 0.228149 0.356087 0.448424 0.10394
H_ H_ 0.274625 0.376273 0.387293 0.10394
H_ H_ 0.389854 0.429639 0.497114 0.10394
H_ H_ 0.301668 0.405027 0.158147 0.10394
H_ H_ 0.230914 0.459988 0.18691 0.10394
H_ H_ 0.32173 0.0589189 0.269711 0.10394
H_ H_ 0.4059 0.497808 0.241709 0.10394
H_ H_ 0.016562 0.370083 0.19605 0.10394
H_ H_ 0.0483355 0.298556 0.248562 0.10394
H_ H_ 0.418513 0.241512 0.21413 0.10394
H_ H_ 0.375824 0.318742 0.182118 0.10394
H_ H_ 0.46346 0.0478767 0.123696 0.10394
H_ H_ 0.0158862 0.113534 0.102943 0.10394
H_ H_ 0.144059 0.00230029 0.0848347 0.10394
H_ H_ 0.449574 0.167338 0.401463 0.10394
H_ H_ 0.0190553 0.186651 0.448349 0.10394
H_ H_ 0.40745 0.299289 0.0339027 0.10394
H_ H_ 0.348259 0.239499 0.504369 0.10394
H_ H_ 0.233543 0.181134 0.367056 0.10394
H_ H_ 0.197205 0.224648 0.297436 0.10394
H_ H_ 0.351143 0.241263 0.259861 0.10394
H_ H_ 0.385381 0.205212 0.341688 0.10394
H_ H_ 0.285445 0.085855 0.0493513 0.10394
H_ H_ 0.232672 0.100135 0.117161 0.10394
H_ H_ 0.101006 0.0982351 0.00489759 0.10394
C_ C_ 0.174754 0.0917114 0.304593 0.18167
C_ C_ 0.218586 0.0728727 0.28309 -0.15533
C_ C_ 0.230372 0.0193129 0.273766 0.02923
C_ C_ 0.205792 0.489884 0.291646 -0.15533
C_ C_ 0.15832 0.00671729 0.319288 0.18167
C_ C_ 0.0238108 0.132589 0.269027 0.18167
C_ C_ 0.508525 0.177875 0.239313 -0.15533
C_ C_ -0.0016840000000000188 0.222128 0.268514 0.02923
C_ C_ 0.0225222 0.228536 0.319035 -0.15533
C_ C_ 0.0462912 0.184766 0.34321 0.18167
C_ C_ 0.0127379 0.0352813 0.373695 0.69207
C_ C_ 0.473355 0.513991 0.382919 0.02923
C_ C_ 0.493455 0.462936 0.376978 -0.15533
C_ C_ 0.461776 0.424273 0.382487 -0.15533
C_ C_ 0.413323 0.435193 0.399562 0.02923
C_ C_ 0.39296 0.485832 0.405377 -0.15533
C_ C_ 0.423137 0.525581 0.399153 0.02923
C_ C_ 0.395235 0.0738878 0.37717 0.69207
C_ C_ 0.401962 0.337951 0.399473 0.69661
C_ C_ 0.0744507 0.297395 0.0981683 0.18167
C_ C_ 0.0271716 0.278948 0.0820619 -0.15533
C_ C_ 0.0145759 0.269202 0.0311884 0.02923
C_ C_ 0.0615052 0.272644 0.489696 -0.15533
C_ C_ 0.0820932 0.317442 0.012879 0.18167
C_ C_ 0.222259 0.27076 0.138262 0.18167
C_ C_ 0.249915 0.247022 0.179347 -0.15533
C_ C_ 0.251319 0.27173 0.227892 0.02923
C_ C_ 0.227195 0.322289 0.231805 -0.15533
C_ C_ 0.201272 0.346285 0.188734 0.18167
C_ C_ 0.241919 0.364213 0.040922 0.69207
C_ C_ 0.281848 0.375935 0.514477 0.02923
C_ C_ 0.264636 0.371636 0.462429 -0.15533
C_ C_ 0.290843 0.385951 0.424543 -0.15533
C_ C_ 0.340106 0.401549 0.434995 0.02923
C_ C_ 0.357684 0.410525 0.487527 -0.15533
C_ C_ 0.331223 0.393095 0.526006 0.02923
C_ C_ 0.347748 0.390428 0.0699156 0.69207
C_ C_ 0.351181 0.39311 0.338683 0.69661
C_ C_ 0.308914 0.438397 0.180993 0.18167
C_ C_ 0.268758 0.467168 0.200149 -0.15533
C_ C_ 0.277398 0.503819 0.240789 0.02923
C_ C_ 0.317866 0.0216095 0.246268 -0.15533
C_ C_ 0.367294 0.489886 0.228653 0.18167
C_ C_ 0.491912 0.356493 0.203319 0.18167
C_ C_ 0.00746244 0.304012 0.234492 -0.15533
C_ C_ 0.493851 0.269283 0.232768 0.02923
C_ C_ 0.440873 0.272999 0.21461 -0.15533
C_ C_ 0.416073 0.315729 0.189195 0.18167
C_ C_ 0.485762 0.453831 0.122515 0.69207
C_ C_ 0.0248556 0.98771 0.115889 0.02923
C_ C_ 0.00590764 0.0409864 0.120171 -0.15533
C_ C_ 0.0343335 0.0778149 0.113496 -0.15533
C_ C_ 0.0847079 0.0657426 0.102028 0.02923
C_ C_ 0.1037 0.0133125 0.0958228 -0.15533
C_ C_ 0.0754953 0.975176 0.107649 0.02923
C_ C_ 0.107959 0.424289 0.118458 0.69207
C_ C_ 0.102686 0.16353 0.111481 0.69661
C_ C_ 0.441639 0.194532 0.433828 0.18167
C_ C_ 0.479831 0.222145 0.455607 -0.15533
C_ C_ 0.473549 0.252886 0.501455 0.02923
C_ C_ 0.4194 0.259849 0.0164691 -0.15533
C_ C_ 0.387339 0.228809 0.493807 0.18167
C_ C_ 0.260948 0.199693 0.349575 0.18167
C_ C_ 0.237662 0.22595 0.307325 -0.15533
C_ C_ 0.271955 0.245426 0.275272 0.02923
C_ C_ 0.325045 0.228422 0.283795 -0.15533
C_ C_ 0.344031 0.209399 0.331494 0.18167
C_ C_ 0.260427 0.131474 0.453168 0.69207
C_ C_ 0.225033 0.114335 0.99395 0.02923
C_ C_ 0.244649 0.101706 0.0412312 -0.15533
C_ C_ 0.212558 0.100361 0.0803622 -0.15533
C_ C_ 0.15988 0.096896 0.0688291 0.02923
C_ C_ 0.139751 0.0987043 0.0168936 -0.15533
C_ C_ 0.17256 0.108401 0.981247 0.02923
C_ C_ 0.149605 0.116118 0.432171 0.69207
C_ C_ 0.151774 0.104366 0.166972 0.69661
C_ C_ 0.376554 0.393306 0.394419 -0.30787
C_ C_ 0.12424 0.106557 0.112272 -0.30787
N_ N_ 0.144084 0.0586422 0.317711 -0.32189
N_ N_ 0.0485543 0.137597 0.316337 -0.32189
N_ N_ 0.0995779 0.317662 0.0629548 -0.32189
N_ N_ 0.196163 0.318433 0.143823 -0.32189
N_ N_ 0.357604 0.449238 0.195548 -0.32189
N_ N_ 0.442089 0.356527 0.183698 -0.32189
N_ N_ 0.395065 0.198303 0.451501 -0.32189
N_ N_ 0.312666 0.195208 0.361801 -0.32189
O_ O_ 0.505107 0.0926549 0.383894 -0.63271
O_ O_ 0.0483475 0.0295826 0.345895 -0.57982
O_ O_ 0.394258 0.0966594 0.333945 -0.63271
O_ O_ 0.367508 0.0965005 0.414118 -0.57982
O_ O_ 0.244522 0.389223 0.0867987 -0.63271
O_ O_ 0.202854 0.336274 0.0316253 -0.57982
O_ O_ 0.347671 0.351301 0.0977451 -0.63271
O_ O_ 0.378497 0.424713 0.0865939 -0.57982
O_ O_ 0.998775 0.403961 0.10609 -0.63271
O_ O_ 0.450904 0.466693 0.155632 -0.57982
O_ O_ 0.104854 0.394781 0.155318 -0.63271
O_ O_ 0.134709 0.408879 0.0805615 -0.57982
O_ O_ 0.256338 0.106814 0.407527 -0.63271
O_ O_ 0.292569 0.164807 0.459854 -0.57982
O_ O_ 0.155662 0.155216 0.405191 -0.63271
O_ O_ 0.112449 0.0902443 0.418316 -0.57982
F_ F_ 0.43808 0.335719 0.44254 -0.20885
F_ F_ 0.42661 0.317319 0.358711 -0.20885
F_ F_ 0.363195 0.305936 0.40263 -0.20885
F_ F_ 0.313996 0.433961 0.332937 -0.20885
F_ F_ 0.327029 0.350185 0.321098 -0.20885
F_ F_ 0.388181 0.392497 0.305134 -0.20885
F_ F_ 0.0724122 0.171799 0.066438 -0.20885
F_ F_ 0.0707587 0.179949 0.149373 -0.20885
F_ F_ 0.143842 0.194113 0.115499 -0.20885
F_ F_ 0.178997 0.0559862 0.171295 -0.20885
F_ F_ 0.183144 0.141289 0.185048 -0.20885
F_ F_ 0.11517 0.107284 0.200866 -0.20885
Zn Zn 0.0805422 0.0819629 0.848529 0.83971
Zn Zn 0.163387 0.34342 0.587126 0.83971
Zn Zn 0.41399 0.416367 0.663204 0.83971
Zn Zn 0.343155 0.151225 0.919552 0.83971
H_ H_ 0.170352 0.135197 0.812569 0.10394
H_ H_ 0.24853 0.10015 0.773402 0.10394
H_ H_ 0.220849 0.455294 0.808825 0.10394
H_ H_ 0.11313 0.986847 0.796678 0.10394
H_ H_ 0.525858 0.0993375 0.760992 0.10394
H_ H_ 0.490929 0.167767 0.706436 0.10394
H_ H_ 0.0301716 0.270159 0.844901 0.10394
H_ H_ 0.0692348 0.185787 0.884332 0.10394
H_ H_ 0.0208341 0.444173 0.85402 0.10394
H_ H_ 0.488107 0.371068 0.896096 0.10394
H_ H_ 0.358658 0.480646 0.912686 0.10394
H_ H_ 0.0672496 0.315513 0.631161 0.10394
H_ H_ 0.498514 0.277899 0.601407 0.10394
H_ H_ 0.0312566 0.284203 0.953786 0.10394
H_ H_ 0.136332 0.294095 0.491477 0.10394
H_ H_ 0.220665 0.25042 0.601958 0.10394
H_ H_ 0.265868 0.205258 0.673249 0.10394
H_ H_ 0.218085 0.333005 0.778877 0.10394
H_ H_ 0.180247 0.380191 0.700911 0.10394
H_ H_ 0.229387 0.34425 0.939932 0.10394
H_ H_ 0.283335 0.345936 0.873898 0.10394
H_ H_ 0.396036 0.400676 0.98773 0.10394
H_ H_ 0.308456 0.394254 0.673293 0.10394
H_ H_ 0.234433 0.439114 0.714289 0.10394
H_ H_ 0.332235 0.0429491 0.789769 0.10394
H_ H_ 0.402357 0.509262 0.724232 0.10394
H_ H_ 0.00973912 0.388987 0.713398 0.10394
H_ H_ 0.0521441 0.313461 0.75707 0.10394
H_ H_ 0.417092 0.245952 0.734519 0.10394
H_ H_ 0.372243 0.320533 0.688635 0.10394
H_ H_ 0.46207 0.0492071 0.606328 0.10394
H_ H_ 0.0282596 0.127251 0.631122 0.10394
H_ H_ 0.146342 0.0108511 0.590037 0.10394
H_ H_ 0.453276 0.134371 0.94555 0.10394
H_ H_ 0.0201104 0.188523 0.958032 0.10394
H_ H_ 0.415574 0.282722 0.547837 0.10394
H_ H_ 0.339387 0.248239 -0.0121702 0.10394
H_ H_ 0.240216 0.20106 0.893966 0.10394
H_ H_ 0.198154 0.250734 0.818569 0.10394
H_ H_ 0.337705 0.218071 0.748591 0.10394
H_ H_ 0.378515 0.190625 0.831715 0.10394
H_ H_ 0.291374 0.114096 0.549067 0.10394
H_ H_ 0.241818 0.0979541 0.617955 0.10394
H_ H_ 0.104716 0.105875 0.516083 0.10394
C_ C_ 0.178036 0.0937755 0.80304 0.18167
C_ C_ 0.220609 0.073951 0.777918 -0.15533
C_ C_ 0.228667 0.0223426 0.763519 0.02923
C_ C_ 0.206993 0.493627 0.803549 -0.15533
C_ C_ 0.142336 0.0121889 0.789058 0.18167
C_ C_ 0.0231304 0.134267 0.775839 0.18167
C_ C_ 0.509371 0.174869 0.744308 -0.15533
C_ C_ 0.00580183 0.227857 0.773152 0.02923
C_ C_ 0.0271431 0.231588 0.823299 -0.15533
C_ C_ 0.051167 0.187716 0.846366 0.18167
C_ C_ 0.00771766 0.0409941 0.867351 0.69207
C_ C_ 0.476231 0.501685 0.883513 0.02923
C_ C_ 0.497847 0.450089 0.885931 -0.15533
C_ C_ 0.46979 0.409329 0.893542 -0.15533
C_ C_ 0.417647 0.419517 0.896998 0.02923
C_ C_ 0.39591 0.471278 0.900268 -0.15533
C_ C_ 0.424025 0.510051 0.891605 0.02923
C_ C_ 0.39141 0.0683737 0.879383 0.69207
C_ C_ 0.409678 0.318748 0.881151 0.69661
C_ C_ 0.0661885 0.303408 0.591659 0.18167
C_ C_ 0.023867 0.281128 0.569208 -0.15533
C_ C_ 0.0203122 0.26976 0.516908 0.02923
C_ C_ 0.0406917 0.291974 0.99602 -0.15533
C_ C_ 0.104963 0.291019 0.5146 0.18167
C_ C_ 0.219742 0.268582 0.641332 0.18167
C_ C_ 0.245112 0.242194 0.682021 -0.15533
C_ C_ 0.244822 0.266281 0.732043 0.02923
C_ C_ 0.220501 0.316586 0.737525 -0.15533
C_ C_ 0.197283 0.341433 0.694737 0.18167
C_ C_ 0.247457 0.363877 0.554172 0.69207
C_ C_ 0.279127 0.366699 0.00383074 0.02923
C_ C_ 0.266006 0.35333 0.952165 -0.15533
C_ C_ 0.298783 0.352944 0.913498 -0.15533
C_ C_ 0.345682 0.377481 0.923491 0.02923
C_ C_ 0.359547 0.39064 0.975749 -0.15533
C_ C_ 0.327213 0.386826 0.0164355 0.02923
C_ C_ 0.36228 0.388837 0.577416 0.69207
C_ C_ 0.355289 0.386245 0.829241 0.69661
C_ C_ 0.314066 0.427256 0.699526 0.18167
C_ C_ 0.270075 0.456688 0.714663 -0.15533
C_ C_ 0.275993 0.502384 0.744486 0.02923
C_ C_ 0.324671 0.0151697 0.758639 -0.15533
C_ C_ 0.365541 0.494215 0.723042 0.18167
C_ C_ 0.496349 0.348226 0.698666 0.18167
C_ C_ 0.0123286 0.315699 0.741478 -0.15533
C_ C_ 0.489823 0.265891 0.73468 0.02923
C_ C_ 0.43634 0.274741 0.722109 -0.15533
C_ C_ 0.413798 0.316769 0.696878 0.18167
C_ C_ 0.492578 0.455996 0.624728 0.69207
C_ C_ 0.025185 0.998059 0.616444 0.02923
C_ C_ 0.0071209 0.0499026 0.620334 -0.15533
C_ C_ 0.0408029 0.088194 0.623374 -0.15533
C_ C_ 0.092632 0.0747271 0.609669 0.02923
C_ C_ 0.108425 0.0226525 0.600329 -0.15533
C_ C_ 0.0762789 0.983928 0.608789 0.02923
C_ C_ 0.100255 0.421445 0.604954 0.69207
C_ C_ 0.113734 0.172023 0.616932 0.69661
C_ C_ 0.444289 0.172761 0.958404 0.18167
C_ C_ 0.483619 0.199699 0.981862 -0.15533
C_ C_ 0.470073 0.244479 1.0105413 0.02923
C_ C_ 0.425606 0.259518 0.516091 -0.15533
C_ C_ 0.379871 0.232518 0.988069 0.18167
C_ C_ 0.261063 0.208485 0.863295 0.18167
C_ C_ 0.237855 0.236296 0.820779 -0.15533
C_ C_ 0.265227 0.237131 0.778399 0.02923
C_ C_ 0.315498 0.216462 0.780675 -0.15533
C_ C_ 0.33866 0.192249 0.824545 0.18167
C_ C_ 0.260988 0.120749 0.955345 0.69207
C_ C_ 0.22729 0.11998 0.493868 0.02923
C_ C_ 0.250211 0.115711 0.542575 -0.15533
C_ C_ 0.221038 0.107903 0.581179 -0.15533
C_ C_ 0.168594 0.107108 0.572771 0.02923
C_ C_ 0.146335 0.106037 0.523618 -0.15533
C_ C_ 0.174763 0.112609 0.483374 0.02923
C_ C_ 0.149214 0.111251 0.927949 0.69207
C_ C_ 0.15912 0.104622 0.670019 0.69661
C_ C_ 0.382044 0.376458 0.882724 -0.30787
C_ C_ 0.13277 0.112954 0.616717 -0.30787
N_ N_ 0.139257 0.0629679 0.808275 -0.32189
N_ N_ 0.0482418 0.141439 0.823142 -0.32189
N_ N_ 0.107522 0.306209 0.564359 -0.32189
N_ N_ 0.194887 0.314989 0.648483 -0.32189
N_ N_ 0.359436 0.44687 0.702002 -0.32189
N_ N_ 0.442382 0.355481 0.68993 -0.32189
N_ N_ 0.394373 0.18626 0.964955 -0.32189
N_ N_ 0.31052 0.188683 0.864417 -0.32189
O_ O_ 0.503056 0.0868732 0.892526 -0.63271
O_ O_ 0.0396858 0.0362492 0.833561 -0.57982
O_ O_ 0.397976 0.0969 0.841235 -0.63271
O_ O_ 0.371373 0.091698 0.919508 -0.57982
O_ O_ 0.245233 0.387352 0.600313 -0.63271
O_ O_ 0.21211 0.331122 0.542918 -0.57982
O_ O_ 0.365496 0.345922 0.600541 -0.63271
O_ O_ 0.388502 0.424231 0.598941 -0.57982
O_ O_ 0.998836 0.404562 0.603278 -0.63271
O_ O_ 0.460035 0.46027 0.660298 -0.57982
O_ O_ 0.101191 0.395985 0.646559 -0.63271
O_ O_ 0.136184 0.408983 0.576097 -0.57982
O_ O_ 0.265292 0.0866558 0.916345 -0.63271
O_ O_ 0.298272 0.149222 0.96853 -0.57982
O_ O_ 0.156694 0.148297 0.899885 -0.63271
O_ O_ 0.117656 0.0790448 0.911017 -0.57982
F_ F_ 0.440927 0.304563 0.923707 -0.20885
F_ F_ 0.440583 0.314679 0.841676 -0.20885
F_ F_ 0.374678 0.281948 0.871733 -0.20885
F_ F_ 0.317121 0.426059 0.835497 -0.20885
F_ F_ 0.332144 0.345659 0.805425 -0.20885
F_ F_ 0.388362 0.399312 0.79522 -0.20885
F_ F_ 0.0791387 0.182315 0.576224 -0.20885
F_ F_ 0.0858435 0.185742 0.658173 -0.20885
F_ F_ 0.150261 0.203124 0.612966 -0.20885
F_ F_ 0.189597 0.0577342 0.672419 -0.20885
F_ F_ 0.19679 0.13674 0.683799 -0.20885
F_ F_ 0.125143 0.106914 0.706515 -0.20885
Zn Zn 0.0867621 0.585623 0.337339 0.83971
Zn Zn 0.158362 0.845337 0.0860817 0.83971
Zn Zn 0.407701 0.915191 0.15823 0.83971
Zn Zn 0.33688 0.662666 0.423714 0.83971
H_ H_ 0.170004 0.634964 0.30403 0.10394
H_ H_ 0.248181 0.601649 0.26422 0.10394
H_ H_ 0.210179 0.944123 0.293241 0.10394
H_ H_ 0.135087 0.485056 0.326737 0.10394
H_ H_ 0.535894 0.601865 0.259488 0.10394
H_ H_ 0.496171 0.676004 0.209977 0.10394
H_ H_ 0.0274635 0.771094 0.337437 0.10394
H_ H_ 0.0658695 0.696275 0.377679 0.10394
H_ H_ 0.0254407 0.936052 0.344341 0.10394
H_ H_ 0.487443 0.884692 0.396629 0.10394
H_ H_ 0.355224 0.986919 0.402602 0.10394
H_ H_ 0.0657918 0.809596 0.133334 0.10394
H_ H_ 0.483902 0.771042 0.0952676 0.10394
H_ H_ 0.0439061 0.789387 0.450557 0.10394
H_ H_ 0.121169 0.808441 0.985859 0.10394
H_ H_ 0.219784 0.752822 0.0977904 0.10394
H_ H_ 0.265474 0.707815 0.176976 0.10394
H_ H_ 0.225121 0.836763 0.271769 0.10394
H_ H_ 0.183322 0.881224 0.197662 0.10394
H_ H_ 0.234969 0.830878 0.437421 0.10394
H_ H_ 0.290182 0.842922 0.374318 0.10394
H_ H_ 0.407287 0.883424 0.484685 0.10394
H_ H_ 0.306044 0.895829 0.166139 0.10394
H_ H_ 0.228998 0.946348 0.198693 0.10394
H_ H_ 0.338339 0.541701 0.286703 0.10394
H_ H_ 0.397107 0.0148376 0.222729 0.10394
H_ H_ 0.00973209 0.880393 0.191056 0.10394
H_ H_ 0.0480242 0.806199 0.234153 0.10394
H_ H_ 0.419361 0.744572 0.230808 0.10394
H_ H_ 0.377889 0.815574 0.185259 0.10394
H_ H_ 0.460391 0.55253 0.107037 0.10394
H_ H_ 0.0143373 0.613526 0.0938452 0.10394
H_ H_ 0.152543 0.50757 0.10323 0.10394
H_ H_ 0.439092 0.664914 0.402306 0.10394
H_ H_ 0.0175371 0.690699 0.451469 0.10394
H_ H_ 0.396187 0.789995 0.00425325 0.10394
H_ H_ 0.346332 0.749561 0.505849 0.10394
H_ H_ 0.234457 0.706058 0.38852 0.10394
H_ H_ 0.190804 0.7425 0.302939 0.10394
H_ H_ 0.342675 0.741208 0.255623 0.10394
H_ H_ 0.379727 0.691149 0.333878 0.10394
H_ H_ 0.28843 0.612032 0.0458755 0.10394
H_ H_ 0.230508 0.618332 0.11324 0.10394
H_ H_ 0.105765 0.58085 0.00789246 0.10394
C_ C_ 0.179584 0.593751 0.299193 0.18167
C_ C_ 0.225557 0.5746 0.279965 -0.15533
C_ C_ 0.238127 0.522825 0.273191 0.02923
C_ C_ 0.198645 0.986026 0.293091 -0.15533
C_ C_ 0.158266 0.51075 0.308646 0.18167
C_ C_ 0.0278778 0.641658 0.266868 0.18167
C_ C_ 0.520038 0.682294 0.24526 -0.15533
C_ C_ 0.0022699999999999942 0.730473 0.267591 0.02923
C_ C_ 0.0303837 0.735763 0.314877 -0.15533
C_ C_ 0.0512027 0.691994 0.33792 0.18167
C_ C_ 0.00535906 0.542491 0.358283 0.69207
C_ C_ 0.472971 0.00903552 0.374011 0.02923
C_ C_ 0.493239 0.959134 0.377045 -0.15533
C_ C_ 0.467856 0.920975 0.393082 -0.15533
C_ C_ 0.414759 0.928594 0.394208 0.02923
C_ C_ 0.393395 0.980035 0.394844 -0.15533
C_ C_ 0.419356 0.0220277 0.383988 0.02923
C_ C_ 0.394181 0.579678 0.39665 0.69207
C_ C_ 0.411469 0.828675 0.380743 0.69661
C_ C_ 0.0601803 0.806578 0.091375 0.18167
C_ C_ 0.0164077 0.785405 0.0688841 -0.15533
C_ C_ 0.0136547 0.766141 0.018269 0.02923
C_ C_ 0.0551801 0.790606 0.491153 -0.15533
C_ C_ 0.0962073 0.793277 0.0124421 0.18167
C_ C_ 0.213962 0.767637 0.138181 0.18167
C_ C_ 0.244522 0.745883 0.17878 -0.15533
C_ C_ 0.243481 0.769239 0.22848 0.02923
C_ C_ 0.22451 0.818073 0.234386 -0.15533
C_ C_ 0.199387 0.84268 0.19101 0.18167
C_ C_ 0.245302 0.859184 0.0447804 0.69207
C_ C_ 0.281345 0.86846 0.500601 0.02923
C_ C_ 0.269474 0.850826 0.45018 -0.15533
C_ C_ 0.300445 0.855031 0.412734 -0.15533
C_ C_ 0.345598 0.878488 0.424553 0.02923
C_ C_ 0.366142 0.883404 0.476231 -0.15533
C_ C_ 0.332017 0.884282 0.515952 0.02923
C_ C_ 0.355241 0.885377 0.0702398 0.69207
C_ C_ 0.357069 0.888868 0.330454 0.69661
C_ C_ 0.308235 0.934958 0.183934 0.18167
C_ C_ 0.26563 0.958271 0.209256 -0.15533
C_ C_ 0.271559 1.00119 0.241669 0.02923
C_ C_ 0.328028 0.518221 0.251783 -0.15533
C_ C_ 0.358137 0.999463 0.217704 0.18167
C_ C_ 0.488119 0.858047 0.209267 0.18167
C_ C_ 0.00760471 0.811716 0.228554 -0.15533
C_ C_ 0.492449 0.774695 0.242547 0.02923
C_ C_ 0.441478 0.773805 0.223731 -0.15533
C_ C_ 0.415392 0.817693 0.199418 0.18167
C_ C_ 0.490797 0.947761 0.129366 0.69207
C_ C_ 0.0279555 0.487006 0.118029 0.02923
C_ C_ 0.00865786 0.537155 0.112662 -0.15533
C_ C_ 0.037378 0.576521 0.10365 -0.15533
C_ C_ 0.0906578 0.566816 0.102148 0.02923
C_ C_ 0.111641 0.516868 0.110903 -0.15533
C_ C_ 0.0821404 0.476113 0.117202 0.02923
C_ C_ 0.100132 0.924153 0.108901 0.69207
C_ C_ 0.101939 0.663723 0.101542 0.69661
C_ C_ 0.435339 0.690586 0.436469 0.18167
C_ C_ 0.47883 0.706375 0.465038 -0.15533
C_ C_ 0.472055 0.74693 0.501183 0.02923
C_ C_ 0.408673 0.750176 -0.006062000000000012 -0.15533
C_ C_ 0.383972 0.732518 0.495298 0.18167
C_ C_ 0.256842 0.710484 0.356437 0.18167
C_ C_ 0.233 0.730928 0.310437 -0.15533
C_ C_ 0.264964 0.737805 0.272718 0.02923
C_ C_ 0.317091 0.724935 0.279501 -0.15533
C_ C_ 0.338063 0.70024 0.32297 0.18167
C_ C_ 0.257357 0.630718 0.450905 0.69207
C_ C_ 0.224765 0.609067 0.984944 0.02923
C_ C_ 0.246866 0.615021 0.0375712 -0.15533
C_ C_ 0.215783 0.609544 0.0767416 -0.15533
C_ C_ 0.163607 0.599534 0.0668718 0.02923
C_ C_ 0.144391 0.590977 0.0160198 -0.15533
C_ C_ 0.172583 0.599108 0.974686 0.02923
C_ C_ 0.145655 0.611344 0.419088 0.69207
C_ C_ 0.152682 0.607267 0.164282 0.69661
C_ C_ 0.380718 0.882149 0.383224 -0.30787
C_ C_ 0.12719 0.608446 0.10881 -0.30787
N_ N_ 0.146816 0.560798 0.310057 -0.32189
N_ N_ 0.0558125 0.645933 0.312764 -0.32189
N_ N_ 0.0993339 0.808946 0.0629789 -0.32189
N_ N_ 0.189988 0.815525 0.144842 -0.32189
N_ N_ 0.353465 0.953748 0.19199 -0.32189
N_ N_ 0.438219 0.858183 0.192465 -0.32189
N_ N_ 0.388927 0.70205 0.453529 -0.32189
N_ N_ 0.306784 0.693981 0.360798 -0.32189
O_ O_ 0.505868 0.596961 0.401982 -0.63271
O_ O_ 0.0437865 0.532766 0.329535 -0.57982
O_ O_ 0.389224 0.602552 0.351853 -0.63271
O_ O_ 0.36916 0.599475 0.43391 -0.57982
O_ O_ 0.248885 0.888716 0.0878986 -0.63271
O_ O_ 0.207321 0.831463 0.0387822 -0.57982
O_ O_ 0.353255 0.845005 0.0958249 -0.63271
O_ O_ 0.383644 0.918909 0.0930012 -0.57982
O_ O_ 0.990265 0.905729 0.094845 -0.63271
O_ O_ 0.451765 0.962872 0.155166 -0.57982
O_ O_ 0.0965208 0.897155 0.147816 -0.63271
O_ O_ 0.135 0.908729 0.0773731 -0.57982
O_ O_ 0.258337 0.60913 0.404875 -0.63271
O_ O_ 0.285483 0.670043 0.464141 -0.57982
O_ O_ 0.149044 0.654513 0.397258 -0.63271
O_ O_ 0.108373 0.585406 0.404793 -0.57982
F_ F_ 0.440549 0.815461 0.4251 -0.20885
F_ F_ 0.440594 0.822205 0.341749 -0.20885
F_ F_ 0.376431 0.790676 0.372772 -0.20885
F_ F_ 0.318001 0.92736 0.330399 -0.20885
F_ F_ 0.335492 0.849302 0.304184 -0.20885
F_ F_ 0.389626 0.905056 0.298251 -0.20885
F_ F_ 0.0724696 0.669997 0.0547943 -0.20885
F_ F_ 0.0710929 0.683802 0.13584 -0.20885
F_ F_ 0.135636 0.698116 0.0977215 -0.20885
F_ F_ 0.188345 0.566104 0.174841 -0.20885
F_ F_ 0.180026 0.648225 0.181562 -0.20885
F_ F_ 0.11626 0.608658 0.197574 -0.20885
Zn Zn 0.0808041 0.587971 0.842124 0.83971
Zn Zn 0.166638 0.849826 0.587906 0.83971
Zn Zn 0.411736 0.923763 0.660416 0.83971
Zn Zn 0.337872 0.640724 0.905694 0.83971
H_ H_ 0.155716 0.633025 0.786269 0.10394
H_ H_ 0.240335 0.602108 0.761862 0.10394
H_ H_ 0.193875 0.950827 0.76261 0.10394
H_ H_ 0.139809 0.49335 0.843625 0.10394
H_ H_ 0.53331 0.605011 0.750024 0.10394
H_ H_ 0.49787 0.679729 0.705947 0.10394
H_ H_ 0.0217636 0.768711 0.828044 0.10394
H_ H_ 0.0644585 0.700232 0.874473 0.10394
H_ H_ 0.0266356 0.940224 0.873342 0.10394
H_ H_ 0.478113 0.878151 0.868573 0.10394
H_ H_ 0.349038 0.989092 0.89547 0.10394
H_ H_ 0.0816926 0.807447 0.635014 0.10394
H_ H_ 0.505857 0.769992 0.599587 0.10394
H_ H_ 0.0526917 0.753942 0.952342 0.10394
H_ H_ 0.126679 0.824905 0.487871 0.10394
H_ H_ 0.208068 0.750749 0.595437 0.10394
H_ H_ 0.257709 0.700678 0.665007 0.10394
H_ H_ 0.218425 0.831553 0.767802 0.10394
H_ H_ 0.18732 0.882478 0.694248 0.10394
H_ H_ 0.219668 0.848385 0.942253 0.10394
H_ H_ 0.274978 0.858487 0.874867 0.10394
H_ H_ 0.393539 0.907934 0.985948 0.10394
H_ H_ 0.307215 0.908129 0.650134 0.10394
H_ H_ 0.230286 0.958391 0.680616 0.10394
H_ H_ 0.329768 0.555725 0.7728 0.10394
H_ H_ 0.403446 0.00751933 0.742155 0.10394
H_ H_ 0.00225438 0.895369 0.707494 0.10394
H_ H_ 0.0502465 0.817358 0.743045 0.10394
H_ H_ 0.417941 0.748691 0.720548 0.10394
H_ H_ 0.378283 0.827655 0.683494 0.10394
H_ H_ 0.469469 0.558747 0.633761 0.10394
H_ H_ 0.0151377 0.613365 0.591827 0.10394
H_ H_ 0.14746 0.508337 0.59723 0.10394
H_ H_ 0.441748 0.607641 0.959952 0.10394
H_ H_ 0.0142074 0.682605 0.951638 0.10394
H_ H_ 0.417681 0.787516 0.548294 0.10394
H_ H_ 0.337472 0.73914 -0.047567000000000026 0.10394
H_ H_ 0.230629 0.687345 0.874041 0.10394
H_ H_ 0.192803 0.73229 0.80098 0.10394
H_ H_ 0.339216 0.720751 0.741817 0.10394
H_ H_ 0.37534 0.674086 0.819345 0.10394
H_ H_ 0.27778 0.643937 0.549534 0.10394
H_ H_ 0.224288 0.621882 0.615594 0.10394
H_ H_ 0.105469 0.580969 0.500041 0.10394
C_ C_ 0.172383 0.594944 0.791974 0.18167
C_ C_ 0.220357 0.577695 0.777019 -0.15533
C_ C_ 0.235983 0.52562 0.778215 0.02923
C_ C_ 0.187845 0.992589 0.766723 -0.15533
C_ C_ 0.161151 0.514048 0.821116 0.18167
C_ C_ 0.02146 0.637102 0.76589 0.18167
C_ C_ 0.51556 0.685928 0.744489 -0.15533
C_ C_ 0.00586609 0.728271 0.757354 0.02923
C_ C_ 0.0272849 0.73476 0.808904 -0.15533
C_ C_ 0.0486127 0.692539 0.835377 0.18167
C_ C_ -0.0018439999999999568 0.544972 0.860883 0.69207
C_ C_ 0.472025 0.0054599 0.87141 0.02923
C_ C_ 0.492574 0.953157 0.868609 -0.15533
C_ C_ 0.461938 0.91655 0.877515 -0.15533
C_ C_ 0.410603 0.926945 0.888028 0.02923
C_ C_ 0.390431 0.97805 0.892863 -0.15533
C_ C_ 0.420567 0.0174746 0.884536 0.02923
C_ C_ 0.395582 0.559653 0.885261 0.69207
C_ C_ 0.402215 0.824861 0.878886 0.69661
C_ C_ 0.0739838 0.804116 0.594508 0.18167
C_ C_ 0.0317481 0.77924 0.574535 -0.15533
C_ C_ 0.0187182 0.774353 0.521733 0.02923
C_ C_ 0.0516943 0.773077 0.989006 -0.15533
C_ C_ 0.0982017 0.813718 0.5112 0.18167
C_ C_ 0.214938 0.769042 0.63277 0.18167
C_ C_ 0.240681 0.740623 0.671811 -0.15533
C_ C_ 0.239394 0.763084 0.7221 0.02923
C_ C_ 0.220794 0.813662 0.729421 -0.15533
C_ C_ 0.198602 0.840596 0.689317 0.18167
C_ C_ 0.245584 0.863561 0.540586 0.69207
C_ C_ 0.277405 0.868932 0.00357849 0.02923
C_ C_ 0.256236 0.86359 0.952826 -0.15533
C_ C_ 0.288357 0.867774 0.91238 -0.15533
C_ C_ 0.338183 0.883141 0.923433 0.02923
C_ C_ 0.356857 0.891923 0.975876 -0.15533
C_ C_ 0.327068 0.886453 0.0163917 0.02923
C_ C_ 0.356452 0.881748 0.57056 0.69207
C_ C_ 0.344999 0.886604 0.824291 0.69661
C_ C_ 0.311221 0.937339 0.680471 0.18167
C_ C_ 0.268493 0.966023 0.697618 -0.15533
C_ C_ 0.274897 1.00001 0.739135 0.02923
C_ C_ 0.323784 0.522928 0.746822 -0.15533
C_ C_ 0.366655 0.989965 0.735368 0.18167
C_ C_ 0.489941 0.866131 0.723089 0.18167
C_ C_ 0.012603 0.815773 0.724567 -0.15533
C_ C_ 0.488494 0.780278 0.74394 0.02923
C_ C_ 0.439247 0.780028 0.721245 -0.15533
C_ C_ 0.417337 0.825465 0.699908 0.18167
C_ C_ 0.49227 0.953948 0.631065 0.69207
C_ C_ 0.0255017 0.489659 0.61843 0.02923
C_ C_ 1.00483958 0.541276 0.617298 -0.15533
C_ C_ 0.0324795 0.575337 0.596388 -0.15533
C_ C_ 0.0859008 0.564831 0.594471 0.02923
C_ C_ 0.108052 0.513783 0.601703 -0.15533
C_ C_ 0.0764357 0.474701 0.605594 0.02923
C_ C_ 0.101555 0.931933 0.612994 0.69207
C_ C_ 0.0925218 0.659292 0.586925 0.69661
C_ C_ 0.43524 0.647555 0.966693 0.18167
C_ C_ 0.473138 0.677524 0.991143 -0.15533
C_ C_ 0.460109 0.730221 0.000754087 0.02923
C_ C_ 0.424332 0.760505 0.51639 -0.15533
C_ C_ 0.374504 0.721289 0.966555 0.18167
C_ C_ 0.253895 0.693518 0.846478 0.18167
C_ C_ 0.231468 0.720273 0.804989 -0.15533
C_ C_ 0.260739 0.729972 0.764374 0.02923
C_ C_ 0.31364 0.7136 0.771139 -0.15533
C_ C_ 0.334153 0.686393 0.813787 0.18167
C_ C_ 0.258167 0.616633 0.942641 0.69207
C_ C_ 0.224025 0.618768 0.487683 0.02923
C_ C_ 0.243703 0.622247 0.538846 -0.15533
C_ C_ 0.213607 0.613017 0.575435 -0.15533
C_ C_ 0.163053 0.598573 0.563823 0.02923
C_ C_ 0.145102 0.591821 0.510241 -0.15533
C_ C_ 0.171981 0.606197 0.472312 0.02923
C_ C_ 0.145672 0.606751 0.921182 0.69207
C_ C_ 0.14338 0.612299 0.65627 0.69661
C_ C_ 0.374515 0.882507 0.880007 -0.30787
C_ C_ 0.122151 0.60627 0.599808 -0.30787
N_ N_ 0.142375 0.562241 0.809395 -0.32189
N_ N_ 0.046518 0.646101 0.811805 -0.32189
N_ N_ 0.109728 0.8175 0.564035 -0.32189
N_ N_ 0.197 0.817644 0.640872 -0.32189
N_ N_ 0.358447 0.950683 0.699039 -0.32189
N_ N_ 0.443004 0.866745 0.699628 -0.32189
N_ N_ 0.39004 0.673258 0.948319 -0.32189
N_ N_ 0.303091 0.673106 0.848574 -0.32189
O_ O_ 0.507792 0.581883 0.90028 -0.63271
O_ O_ 0.0359834 0.536358 0.833405 -0.57982
O_ O_ 0.401544 0.587546 0.845358 -0.63271
O_ O_ 0.363047 0.577693 0.9194 -0.57982
O_ O_ 0.250992 0.892863 0.583145 -0.63271
O_ O_ 0.204194 0.838984 0.530633 -0.57982
O_ O_ 0.357874 0.839049 0.5938 -0.63271
O_ O_ 0.38168 0.919664 0.592548 -0.57982
O_ O_ 0.997427 0.912722 0.598014 -0.63271
O_ O_ 0.45672 0.968554 0.664331 -0.57982
O_ O_ 0.0959283 0.90173 0.649796 -0.63271
O_ O_ 0.135096 0.915109 0.578672 -0.57982
O_ O_ 0.248395 0.596228 0.895319 -0.63271
O_ O_ 0.293708 0.647149 0.951326 -0.57982
O_ O_ 0.146352 0.649386 0.899181 -0.63271
O_ O_ 0.106791 0.581895 0.907464 -0.57982
F_ F_ 0.430653 0.816712 0.926046 -0.20885
F_ F_ 0.430345 0.811861 0.837637 -0.20885
F_ F_ 0.367826 0.789673 0.87513 -0.20885
F_ F_ 0.308609 0.928364 0.823442 -0.20885
F_ F_ 0.320721 0.843578 0.804378 -0.20885
F_ F_ 0.377881 0.8937 0.789211 -0.20885
F_ F_ 0.0581491 0.654133 0.54296 -0.20885
F_ F_ 0.0634536 0.679543 0.626378 -0.20885
F_ F_ 0.120987 0.697202 0.578794 -0.20885
F_ F_ 0.180199 0.574186 0.671506 -0.20885
F_ F_ 0.159529 0.660801 0.669659 -0.20885
F_ F_ 0.106426 0.609067 0.688776 -0.20885
Zn Zn 0.587595 0.0808899 0.343615 0.83971
Zn Zn 0.663351 0.346012 0.0887757 0.83971
Zn Zn 0.908139 0.420506 0.162513 0.83971
Zn Zn 0.843828 0.148959 0.412231 0.83971
H_ H_ 0.663355 0.136486 0.297626 0.10394
H_ H_ 0.74406 0.108052 0.267101 0.10394
H_ H_ 0.710192 0.453917 0.280621 0.10394
H_ H_ 0.6335 0.984502 0.3237 0.10394
H_ H_ 0.0311989 0.0950236 0.247897 0.10394
H_ H_ 0.981353 0.17043 0.206384 0.10394
H_ H_ 0.532953 0.269363 0.32964 0.10394
H_ H_ 0.56821 0.188468 0.378461 0.10394
H_ H_ 0.534662 0.452384 0.376867 0.10394
H_ H_ 0.97146 0.373762 0.378327 0.10394
H_ H_ 0.856927 0.49162 0.409488 0.10394
H_ H_ 0.592389 0.296884 0.136169 0.10394
H_ H_ 1.00768465 0.257724 0.107499 0.10394
H_ H_ 0.538344 0.30543 0.451309 0.10394
H_ H_ 0.609207 0.331952 0.981548 0.10394
H_ H_ 0.716029 0.244875 0.106548 0.10394
H_ H_ 0.748394 0.199035 0.17358 0.10394
H_ H_ 0.713499 0.334426 0.271824 0.10394
H_ H_ 0.680425 0.379633 0.195024 0.10394
H_ H_ 0.718951 0.349281 0.444786 0.10394
H_ H_ 0.758744 0.388682 0.379789 0.10394
H_ H_ 0.889142 0.401037 0.480487 0.10394
H_ H_ 0.807948 0.405002 0.167134 0.10394
H_ H_ 0.732996 0.452943 0.200742 0.10394
H_ H_ 0.838928 0.0511736 0.283988 0.10394
H_ H_ 0.902105 0.518343 0.22552 0.10394
H_ H_ 0.515684 0.388847 0.200287 0.10394
H_ H_ 0.556194 0.308501 0.241144 0.10394
H_ H_ 0.903528 0.245981 0.236852 0.10394
H_ H_ 0.863225 0.333772 0.200892 0.10394
H_ H_ 0.965796 0.0509886 0.126629 0.10394
H_ H_ 0.516395 0.113531 0.108552 0.10394
H_ H_ 0.641216 0.00292674 0.0853063 0.10394
H_ H_ 0.945826 0.14417 0.413825 0.10394
H_ H_ 0.515402 0.215671 0.440384 0.10394
H_ H_ 0.920682 0.276051 0.0641112 0.10394
H_ H_ 0.845497 0.241986 0.49953 0.10394
H_ H_ 0.736676 0.183136 0.384809 0.10394
H_ H_ 0.689085 0.22914 0.315313 0.10394
H_ H_ 0.834793 0.232613 0.252799 0.10394
H_ H_ 0.878971 0.184962 0.328298 0.10394
H_ H_ 0.779949 0.133039 0.0594632 0.10394
H_ H_ 0.726653 0.118395 0.12085 0.10394
H_ H_ 0.601106 0.0927637 0.00890659 0.10394
C_ C_ 0.675023 0.0973721 0.298312 0.18167
C_ C_ 0.722839 0.0790362 0.279584 -0.15533
C_ C_ 0.738699 0.0263355 0.275651 0.02923
C_ C_ 0.702141 0.495607 0.288536 -0.15533
C_ C_ 0.659328 0.0117704 0.312238 0.18167
C_ C_ 0.527307 0.13433 0.267051 0.18167
C_ C_ -0.0038240000000000496 0.174262 0.245335 -0.15533
C_ C_ 0.515196 0.225186 0.261475 0.02923
C_ C_ 0.538749 0.231477 0.311024 -0.15533
C_ C_ 0.561169 0.186424 0.336526 0.18167
C_ C_ 0.506257 0.0468464 0.360479 0.69207
C_ C_ 0.971359 0.502657 0.366762 0.02923
C_ C_ 0.98534 0.449233 0.356867 -0.15533
C_ C_ 0.954207 0.412779 0.369845 -0.15533
C_ C_ 0.905253 0.427871 0.383799 0.02923
C_ C_ 0.894719 0.479242 0.399221 -0.15533
C_ C_ 0.921463 0.516785 0.38428 0.02923
C_ C_ 0.899959 0.0646069 0.378129 0.69207
C_ C_ 0.885354 0.331092 0.372015 0.69661
C_ C_ 0.578751 0.296344 0.0949911 0.18167
C_ C_ 0.529175 0.282022 0.0784909 -0.15533
C_ C_ 0.512298 0.276337 0.0261753 0.02923
C_ C_ 0.549082 0.30303 0.492192 -0.15533
C_ C_ 0.588213 0.314608 0.0108992 0.18167
C_ C_ 0.717979 0.266731 0.140102 0.18167
C_ C_ 0.735486 0.238249 0.182544 -0.15533
C_ C_ 0.734375 0.262643 0.233176 0.02923
C_ C_ 0.709754 0.312979 0.235488 -0.15533
C_ C_ 0.690811 0.338991 0.19186 0.18167
C_ C_ 0.746567 0.363072 0.0551275 0.69207
C_ C_ 0.778646 0.368674 0.505931 0.02923
C_ C_ 0.75588 0.36521 0.455868 -0.15533
C_ C_ 0.777262 0.388166 0.417999 -0.15533
C_ C_ 0.828767 0.395454 0.423847 0.02923
C_ C_ 0.850447 0.396216 0.474731 -0.15533
C_ C_ 0.8266 0.385149 0.517313 0.02923
C_ C_ 0.85642 0.392018 0.0769136 0.69207
C_ C_ 0.831338 0.397675 0.325524 0.69661
C_ C_ 0.812597 0.439495 0.190397 0.18167
C_ C_ 0.770587 0.466963 0.205422 -0.15533
C_ C_ 0.778567 0.505732 0.242982 0.02923
C_ C_ 0.829961 0.0210456 0.251609 -0.15533
C_ C_ 0.865872 0.502852 0.22753 0.18167
C_ C_ 0.987875 0.349581 0.21205 0.18167
C_ C_ 0.51703 0.312183 0.226973 -0.15533
C_ C_ 0.976777 0.268486 0.241973 0.02923
C_ C_ 0.925157 0.277034 0.228578 -0.15533
C_ C_ 0.905572 0.321826 0.205269 0.18167
C_ C_ 0.99459 0.448419 0.130994 0.69207
C_ C_ 0.522816 0.986134 0.113264 0.02923
C_ C_ 0.501154 0.0378095 0.112034 -0.15533
C_ C_ 0.532707 0.0765099 0.1074 -0.15533
C_ C_ 0.584699 0.0670483 0.100993 0.02923
C_ C_ 0.604299 0.0143968 0.0984276 -0.15533
C_ C_ 0.575143 0.974731 0.107634 0.02923
C_ C_ 0.596974 0.421988 0.102851 0.69207
C_ C_ 0.593276 0.163244 0.111825 0.69661
C_ C_ 0.937659 0.176468 0.438312 0.18167
C_ C_ 0.980982 0.199058 0.461722 -0.15533
C_ C_ 0.974258 0.24453 0.492631 0.02923
C_ C_ 0.925355 0.250219 0.027147 -0.15533
C_ C_ 0.883952 0.230178 0.489641 0.18167
C_ C_ 0.756463 0.194362 0.355831 0.18167
C_ C_ 0.73057 0.219829 0.314721 -0.15533
C_ C_ 0.758744 0.234149 0.277552 0.02923
C_ C_ 0.813429 0.225352 0.282984 -0.15533
C_ C_ 0.836353 0.193599 0.320675 0.18167
C_ C_ 0.767741 0.114491 0.450458 0.69207
C_ C_ 0.724921 0.117174 0.993955 0.02923
C_ C_ 0.740647 0.126513 0.0450736 -0.15533
C_ C_ 0.709377 0.118256 0.0831617 -0.15533
C_ C_ 0.660361 0.103539 0.0700264 0.02923
C_ C_ 0.641197 0.103698 0.0191116 -0.15533
C_ C_ 0.673114 0.107479 0.98058 0.02923
C_ C_ 0.656083 0.101601 0.420851 0.69207
C_ C_ 0.647489 0.098298 0.16638 0.69661
C_ C_ 0.861792 0.388523 0.377334 -0.30787
C_ C_ 0.620858 0.108612 0.112904 -0.30787
N_ N_ 0.642078 0.0625626 0.308132 -0.32189
N_ N_ 0.555264 0.140111 0.312571 -0.32189
N_ N_ 0.607804 0.311933 0.0604254 -0.32189
N_ N_ 0.692176 0.313114 0.145435 -0.32189
N_ N_ 0.858437 0.458287 0.197906 -0.32189
N_ N_ 0.936647 0.356563 0.195921 -0.32189
N_ N_ 0.889915 0.191445 0.451237 -0.32189
N_ N_ 0.808629 0.180777 0.35697 -0.32189
O_ O_ 0.00883324 0.0754917 0.406713 -0.63271
O_ O_ 0.540412 0.0337849 0.327941 -0.57982
O_ O_ 0.905388 0.0932134 0.339577 -0.63271
O_ O_ 0.869922 0.0836985 0.412189 -0.57982
O_ O_ 0.746909 0.393737 0.0955987 -0.63271
O_ O_ 0.712512 0.330869 0.0450459 -0.57982
O_ O_ 0.852102 0.35505 0.105191 -0.63271
O_ O_ 0.882174 0.429039 0.0948792 -0.57982
O_ O_ 0.483869 0.408174 0.0952982 -0.63271
O_ O_ 0.957765 0.460395 0.160571 -0.57982
O_ O_ 0.591985 0.398411 0.143975 -0.63271
O_ O_ 0.631773 0.40778 0.0741049 -0.57982
O_ O_ 0.760255 0.0946294 0.402543 -0.63271
O_ O_ 0.799285 0.149012 0.459358 -0.57982
O_ O_ 0.6547 0.142648 0.393848 -0.63271
O_ O_ 0.625229 0.0680666 0.403645 -0.57982
F_ F_ 0.917798 0.320554 0.417934 -0.20885
F_ F_ 0.914677 0.315956 0.332394 -0.20885
F_ F_ 0.847011 0.298442 0.370478 -0.20885
F_ F_ 0.806772 0.446168 0.330213 -0.20885
F_ F_ 0.796197 0.36234 0.308153 -0.20885
F_ F_ 0.8625 0.400649 0.285511 -0.20885
F_ F_ 0.560263 0.168731 0.070249 -0.20885
F_ F_ 0.570956 0.178289 0.155842 -0.20885
F_ F_ 0.629677 0.196622 0.110617 -0.20885
F_ F_ 0.686119 0.0573951 0.17121 -0.20885
F_ F_ 0.668531 0.141533 0.189324 -0.20885
F_ F_ 0.612228 0.083441 0.196416 -0.20885
Zn Zn 0.586963 0.0825457 0.844654 0.83971
Zn Zn 0.664512 0.348179 0.589851 0.83971
Zn Zn 0.911392 0.4128 0.653506 0.83971
Zn Zn 0.843375 0.15485 0.922935 0.83971
H_ H_ 0.662903 0.132037 0.794889 0.10394
H_ H_ 0.74614 0.103357 0.757629 0.10394
H_ H_ 0.704164 0.439831 0.789401 0.10394
H_ H_ 0.626342 0.985869 0.80311 0.10394
H_ H_ 0.0231475 0.0947026 0.758302 0.10394
H_ H_ 0.995418 0.171457 0.705057 0.10394
H_ H_ 0.538416 0.276015 0.828299 0.10394
H_ H_ 0.578247 0.201495 0.881496 0.10394
H_ H_ 0.536326 0.439181 0.876518 0.10394
H_ H_ 0.969587 0.374408 0.868975 0.10394
H_ H_ 0.84662 0.487088 0.902873 0.10394
H_ H_ 0.579091 0.313337 0.6387 0.10394
H_ H_ -0.007705999999999991 0.28056 0.59294 0.10394
H_ H_ 0.535202 0.287571 0.953697 0.10394
H_ H_ 0.620171 0.334541 0.491365 0.10394
H_ H_ 0.715573 0.253434 0.601521 0.10394
H_ H_ 0.7561 0.204631 0.677258 0.10394
H_ H_ 0.721411 0.340408 0.772876 0.10394
H_ H_ 0.675159 0.385023 0.697148 0.10394
H_ H_ 0.715713 0.372006 0.954842 0.10394
H_ H_ 0.763737 0.373683 0.88593 0.10394
H_ H_ 0.893883 0.410106 0.987441 0.10394
H_ H_ 0.80755 0.390589 0.661241 0.10394
H_ H_ 0.735406 0.444894 0.682752 0.10394
H_ H_ 0.832836 0.0381907 0.788896 0.10394
H_ H_ 0.905261 0.495052 0.735586 0.10394
H_ H_ 0.519404 0.378656 0.689794 0.10394
H_ H_ 0.558284 0.300236 0.73343 0.10394
H_ H_ 0.911453 0.239661 0.718499 0.10394
H_ H_ 0.873987 0.320507 0.682445 0.10394
H_ H_ 0.96704 0.0589519 0.628372 0.10394
H_ H_ 0.50806 0.116412 0.589445 0.10394
H_ H_ 0.648305 0.0173827 0.611374 0.10394
H_ H_ 0.944273 0.156308 0.914037 0.10394
H_ H_ 0.522012 0.189948 0.973671 0.10394
H_ H_ 0.916355 0.288858 0.536596 0.10394
H_ H_ 0.849422 0.23344 0.014691 0.10394
H_ H_ 0.730783 0.195612 0.885943 0.10394
H_ H_ 0.695753 0.247418 0.814047 0.10394
H_ H_ 0.842814 0.242077 0.765444 0.10394
H_ H_ 0.881856 0.19696 0.840501 0.10394
H_ H_ 0.780149 0.134728 0.551324 0.10394
H_ H_ 0.721531 0.127347 0.617008 0.10394
H_ H_ 0.605604 0.080654 0.498457 0.10394
C_ C_ 0.677213 0.0930312 0.793155 0.18167
C_ C_ 0.719247 0.0764832 0.766054 -0.15533
C_ C_ 0.734678 0.0253694 0.761618 0.02923
C_ C_ 0.695368 0.480557 0.788094 -0.15533
C_ C_ 0.654655 0.00953672 0.793957 0.18167
C_ C_ 0.530274 0.136153 0.773967 0.18167
C_ C_ 0.00524191 0.177821 0.747271 -0.15533
C_ C_ 0.513475 0.223907 0.765505 0.02923
C_ C_ 0.536694 0.234513 0.814471 -0.15533
C_ C_ 0.562857 0.193131 0.840573 0.18167
C_ C_ 0.505013 0.0441008 0.863627 0.69207
C_ C_ 0.960383 0.505131 0.860033 0.02923
C_ C_ 0.982662 0.452381 0.858006 -0.15533
C_ C_ 0.954442 0.41417 0.871774 -0.15533
C_ C_ 0.905179 0.42466 0.888912 0.02923
C_ C_ 0.88646 0.476813 0.894811 -0.15533
C_ C_ 0.911374 0.515999 0.877177 0.02923
C_ C_ 0.899211 0.0735267 0.881294 0.69207
C_ C_ 0.897336 0.32709 0.901127 0.69661
C_ C_ 0.571762 0.306676 0.596641 0.18167
C_ C_ 0.525057 0.290946 0.576978 -0.15533
C_ C_ 0.515492 0.282517 0.522486 0.02923
C_ C_ 0.544172 0.290353 0.992674 -0.15533
C_ C_ 0.594867 0.319686 0.514425 0.18167
C_ C_ 0.71854 0.273421 0.640243 0.18167
C_ C_ 0.741231 0.245833 0.681654 -0.15533
C_ C_ 0.740161 0.270415 0.731638 0.02923
C_ C_ 0.715293 0.321078 0.736389 -0.15533
C_ C_ 0.692408 0.346166 0.69324 0.18167
C_ C_ 0.747095 0.361955 0.548821 0.69207
C_ C_ 0.779772 0.373835 1.0153864 0.02923
C_ C_ 0.756969 0.373502 0.96286 -0.15533
C_ C_ 0.781309 0.385272 0.923749 -0.15533
C_ C_ 0.833785 0.393222 0.934443 0.02923
C_ C_ 0.854067 0.403373 0.983655 -0.15533
C_ C_ 0.829445 0.39146 0.0253805 0.02923
C_ C_ 0.855713 0.381387 0.56834 0.69207
C_ C_ 0.842782 0.373734 0.835883 0.69661
C_ C_ 0.81379 0.422226 0.686035 0.18167
C_ C_ 0.7709 0.4524 0.702687 -0.15533
C_ C_ 0.776684 0.487224 0.744438 0.02923
C_ C_ 0.828115 0.0135278 0.753188 -0.15533
C_ C_ 0.865221 0.48476 0.726885 0.18167
C_ C_ 0.987928 0.356194 0.7179 0.18167
C_ C_ 0.518005 0.306014 0.726548 -0.15533
C_ C_ 0.984901 0.272916 0.744411 0.02923
C_ C_ 0.935228 0.270743 0.716789 -0.15533
C_ C_ 0.914769 0.314688 0.692109 0.18167
C_ C_ 0.99324 0.450327 0.626655 0.69207
C_ C_ 0.526391 0.992781 0.618757 0.02923
C_ C_ 0.501655 0.0383429 0.602272 -0.15533
C_ C_ 0.528218 0.0788032 0.592806 -0.15533
C_ C_ 0.581485 0.0740583 0.599243 0.02923
C_ C_ 0.606315 0.023821 0.603085 -0.15533
C_ C_ 0.577458 0.981633 0.604955 0.02923
C_ C_ 0.608709 0.431375 0.613448 0.69207
C_ C_ 0.590906 0.170109 0.588288 0.69661
C_ C_ 0.941584 0.180932 0.944563 0.18167
C_ C_ 0.982939 0.19877 0.972939 -0.15533
C_ C_ 0.974223 0.236724 0.0131299 0.02923
C_ C_ 0.926226 0.256397 0.510623 -0.15533
C_ C_ 0.884428 0.223011 1.00138926 0.18167
C_ C_ 0.756955 0.205547 0.859231 0.18167
C_ C_ 0.734979 0.234154 0.81753 -0.15533
C_ C_ 0.764519 0.242841 0.778497 0.02923
C_ C_ 0.817477 0.230056 0.78969 -0.15533
C_ C_ 0.839341 0.205302 0.832435 0.18167
C_ C_ 0.760434 0.123554 0.956616 0.69207
C_ C_ 0.727008 0.113332 0.488999 0.02923
C_ C_ 0.741435 0.124768 0.540329 -0.15533
C_ C_ 0.707135 0.122751 0.576826 -0.15533
C_ C_ 0.657846 0.105597 0.564425 0.02923
C_ C_ 0.645587 0.0903971 0.51197 -0.15533
C_ C_ 0.677098 0.101596 0.475449 0.02923
C_ C_ 0.646892 0.107173 0.927471 0.69207
C_ C_ 0.639138 0.120081 0.657539 0.69661
C_ C_ 0.870345 0.382174 0.888412 -0.30787
C_ C_ 0.61586 0.117611 0.601479 -0.30787
N_ N_ 0.644669 0.0603838 0.802471 -0.32189
N_ N_ 0.557137 0.144828 0.819818 -0.32189
N_ N_ 0.607163 0.318355 0.56458 -0.32189
N_ N_ 0.695443 0.322077 0.646666 -0.32189
N_ N_ 0.859206 0.443535 0.695861 -0.32189
N_ N_ 0.941522 0.353939 0.690415 -0.32189
N_ N_ 0.893428 0.191545 0.959319 -0.32189
N_ N_ 0.809245 0.195505 0.867854 -0.32189
O_ O_ 0.00906653 0.0817914 0.89832 -0.63271
O_ O_ 0.542022 0.0356853 0.832885 -0.57982
O_ O_ 0.901835 0.102744 0.841223 -0.63271
O_ O_ 0.872831 0.0915202 0.919106 -0.57982
O_ O_ 0.74897 0.396123 0.587086 -0.63271
O_ O_ 0.709254 0.333999 0.543441 -0.57982
O_ O_ 0.858367 0.340818 0.593223 -0.63271
O_ O_ 0.885935 0.415888 0.585204 -0.57982
O_ O_ 0.498712 0.410719 0.60088 -0.63271
O_ O_ 0.958097 0.460727 0.65945 -0.57982
O_ O_ 0.597524 0.399815 0.64716 -0.63271
O_ O_ 0.639672 0.412703 0.577736 -0.57982
O_ O_ 0.755456 0.103104 0.909404 -0.63271
O_ O_ 0.79786 0.15199 0.969385 -0.57982
O_ O_ 0.656727 0.141574 0.896895 -0.63271
O_ O_ 0.613549 0.0753969 0.910869 -0.57982
F_ F_ 0.936463 0.326912 0.941072 -0.20885
F_ F_ 0.920009 0.302099 0.858783 -0.20885
F_ F_ 0.860198 0.295477 0.913698 -0.20885
F_ F_ 0.804878 0.410527 0.824484 -0.20885
F_ F_ 0.823458 0.326799 0.82205 -0.20885
F_ F_ 0.876393 0.374442 0.801021 -0.20885
F_ F_ 0.561193 0.165964 0.542319 -0.20885
F_ F_ 0.560477 0.186517 0.625637 -0.20885
F_ F_ 0.623004 0.207154 0.584449 -0.20885
F_ F_ 0.676727 0.0796525 0.668963 -0.20885
F_ F_ 0.664169 0.163403 0.67165 -0.20885
F_ F_ 0.603659 0.120243 0.692517 -0.20885
Zn Zn 0.591969 0.587024 0.350965 0.83971
Zn Zn 0.653341 0.836791 0.0720336 0.83971
Zn Zn 0.906824 0.915916 0.149077 0.83971
Zn Zn 0.841896 0.657866 0.415663 0.83971
H_ H_ 0.668736 0.640841 0.298923 0.10394
H_ H_ 0.751807 0.609089 0.270988 0.10394
H_ H_ 0.72214 0.952062 0.295849 0.10394
H_ H_ 0.630731 0.492806 0.318641 0.10394
H_ H_ 0.0311603 0.604655 0.245898 0.10394
H_ H_ 0.983243 0.677287 0.205029 0.10394
H_ H_ 0.533724 0.773246 0.342102 0.10394
H_ H_ 0.570335 0.69727 0.383864 0.10394
H_ H_ 0.532504 0.948812 0.368587 0.10394
H_ H_ 0.965581 0.870562 0.340282 0.10394
H_ H_ 0.851659 0.983803 0.391141 0.10394
H_ H_ 0.566648 0.805249 0.125161 0.10394
H_ H_ 0.993833 0.773291 0.0960735 0.10394
H_ H_ 0.532321 0.795235 0.446575 0.10394
H_ H_ 0.611952 0.800383 0.974672 0.10394
H_ H_ 0.716478 0.742687 0.0921659 0.10394
H_ H_ 0.759326 0.700546 0.169065 0.10394
H_ H_ 0.722922 0.83641 0.257933 0.10394
H_ H_ 0.681474 0.874412 0.180274 0.10394
H_ H_ 0.718627 0.845209 0.438317 0.10394
H_ H_ 0.763813 0.864847 0.371311 0.10394
H_ H_ 0.89199 0.899295 0.482296 0.10394
H_ H_ 0.802077 0.913097 0.150295 0.10394
H_ H_ 0.732218 0.955062 0.199022 0.10394
H_ H_ 0.831844 0.561338 0.274706 0.10394
H_ H_ 0.912604 0.999273137 0.239977 0.10394
H_ H_ 0.510457 0.890264 0.201598 0.10394
H_ H_ 0.554657 0.816909 0.243565 0.10394
H_ H_ 0.901908 0.747663 0.228705 0.10394
H_ H_ 0.862707 0.829905 0.186697 0.10394
H_ H_ 0.970786 0.549773 0.126071 0.10394
H_ H_ 0.512985 0.616695 0.0854052 0.10394
H_ H_ 0.643261 0.50648 0.0910101 0.10394
H_ H_ 0.941287 0.668508 0.39131 0.10394
H_ H_ 0.517175 0.687423 0.456027 0.10394
H_ H_ 0.911556 0.787618 0.0324359 0.10394
H_ H_ 0.845258 0.743739 0.500256 0.10394
H_ H_ 0.734955 0.709156 0.38444 0.10394
H_ H_ 0.695723 0.746454 0.307298 0.10394
H_ H_ 0.832544 0.701097 0.237279 0.10394
H_ H_ 0.877444 0.682794 0.3233 0.10394
H_ H_ 0.776861 0.645143 0.05139 0.10394
H_ H_ 0.729314 0.622976 0.11428 0.10394
H_ H_ 0.609198 0.58461 0.00459719 0.10394
C_ C_ 0.677805 0.601172 0.296105 0.18167
C_ C_ 0.724942 0.58121 0.27851 -0.15533
C_ C_ 0.73769 0.5288 0.272761 0.02923
C_ C_ 0.708025 0.992695 0.294435 -0.15533
C_ C_ 0.656444 0.517285 0.306044 0.18167
C_ C_ 0.535606 0.640891 0.27644 0.18167
C_ C_ 0.0007699999999999374 0.683698 0.243349 -0.15533
C_ C_ 0.520848 0.730934 0.266987 0.02923
C_ C_ 0.539867 0.737417 0.318319 -0.15533
C_ C_ 0.560862 0.694694 0.344434 0.18167
C_ C_ 0.507825 0.553442 0.374274 0.69207
C_ C_ 0.973313 -0.0019649999999999945 0.368855 0.02923
C_ C_ -0.011426000000000047 0.945808 0.357658 -0.15533
C_ C_ 0.954152 0.907582 0.356507 -0.15533
C_ C_ 0.90743 0.919793 0.379603 0.02923
C_ C_ 0.891906 0.973323 0.391163 -0.15533
C_ C_ 0.922216 0.0104707 0.379781 0.02923
C_ C_ 0.896219 0.571052 0.382603 0.69207
C_ C_ 0.894123 0.82415 0.379686 0.69661
C_ C_ 0.555224 0.80134 0.0853878 0.18167
C_ C_ 0.512466 0.774042 0.0700881 -0.15533
C_ C_ 0.501989 0.762772 0.0172753 0.02923
C_ C_ 0.542747 0.795822 0.487586 -0.15533
C_ C_ 0.581627 0.79489 0.000559949 0.18167
C_ C_ 0.717252 0.762868 0.128613 0.18167
C_ C_ 0.739207 0.737874 0.172253 -0.15533
C_ C_ 0.737119 0.762445 0.220126 0.02923
C_ C_ 0.715256 0.812377 0.222461 -0.15533
C_ C_ 0.692413 0.835222 0.18032 0.18167
C_ C_ 0.738131 0.85842 0.0423663 0.69207
C_ C_ 0.774538 0.868316 0.50009 0.02923
C_ C_ 0.756108 0.853621 0.449392 -0.15533
C_ C_ 0.784669 0.864502 0.410228 -0.15533
C_ C_ 0.835497 0.881017 0.420754 0.02923
C_ C_ 0.855241 0.888615 0.472052 -0.15533
C_ C_ 0.826674 0.877881 0.51246 0.02923
C_ C_ 0.850343 0.883354 0.064762 0.69207
C_ C_ 0.840335 0.885244 0.324718 0.69661
C_ C_ 0.811179 0.942862 0.178914 0.18167
C_ C_ 0.77223 0.962832 0.210731 -0.15533
C_ C_ 0.779162 1.00428655 0.244299 0.02923
C_ C_ 0.824638 0.529546 0.248173 -0.15533
C_ C_ 0.870435 0.991717 0.229512 0.18167
C_ C_ 0.984859 0.851392 0.198501 0.18167
C_ C_ 0.515628 0.819418 0.23786 -0.15533
C_ C_ 0.978406 0.773495 0.239472 0.02923
C_ C_ 0.925958 0.777863 0.222044 -0.15533
C_ C_ 0.902965 0.823653 0.197284 0.18167
C_ C_ 0.988345 0.949058 0.121936 0.69207
C_ C_ 0.520314 0.490419 0.108725 0.02923
C_ C_ 0.500532 0.542218 0.108017 -0.15533
C_ C_ 0.531244 0.579637 0.0982926 -0.15533
C_ C_ 0.584967 0.566807 0.0919123 0.02923
C_ C_ 0.602782 0.515651 0.0898123 -0.15533
C_ C_ 0.572708 0.476469 0.100157 0.02923
C_ C_ 0.601787 0.922154 0.110069 0.69207
C_ C_ 0.600328 0.66118 0.106234 0.69661
C_ C_ 0.937322 0.688194 0.428941 0.18167
C_ C_ 0.980061 0.707466 0.457282 -0.15533
C_ C_ 0.975538 0.742673 0.499583 0.02923
C_ C_ 0.919448 0.752603 1.00996226 -0.15533
C_ C_ 0.885085 0.732942 0.488546 0.18167
C_ C_ 0.758526 0.711456 0.354624 0.18167
C_ C_ 0.738589 0.735502 0.311348 -0.15533
C_ C_ 0.764358 0.739779 0.268302 0.02923
C_ C_ 0.814576 0.714232 0.272094 -0.15533
C_ C_ 0.837403 0.693101 0.316504 0.18167
C_ C_ 0.766031 0.624796 0.45535 0.69207
C_ C_ 0.726759 0.617207 0.986869 0.02923
C_ C_ 0.743865 0.625436 0.0398564 -0.15533
C_ C_ 0.715173 0.612494 0.0758914 -0.15533
C_ C_ 0.664524 0.600372 0.0639381 0.02923
C_ C_ 0.64795 0.590693 0.0130837 -0.15533
C_ C_ 0.676437 0.601361 0.973377 0.02923
C_ C_ 0.655973 0.606852 0.427695 0.69207
C_ C_ 0.650543 0.597064 0.159493 0.69661
C_ C_ 0.869024 0.878272 0.375888 -0.30787
C_ C_ 0.625638 0.606916 0.103921 -0.30787
N_ N_ 0.646614 0.568054 0.310856 -0.32189
N_ N_ 0.560846 0.646684 0.322173 -0.32189
N_ N_ 0.589358 0.807449 0.0510664 -0.32189
N_ N_ 0.688588 0.809209 0.133978 -0.32189
N_ N_ 0.85949 0.953575 0.192872 -0.32189
N_ N_ 0.933514 0.857326 0.181737 -0.32189
N_ N_ 0.891282 0.697514 0.449196 -0.32189
N_ N_ 0.808277 0.690064 0.355764 -0.32189
O_ O_ -0.0031600000000000517 0.587577 0.380538 -0.63271
O_ O_ 0.5377 0.548047 0.337007 -0.57982
O_ O_ 0.890697 0.597031 0.341132 -0.63271
O_ O_ 0.877677 0.595206 0.42366 -0.57982
O_ O_ 0.732387 0.885132 0.0869683 -0.63271
O_ O_ 0.699332 0.832397 0.0266561 -0.57982
O_ O_ 0.850813 0.846228 0.0937055 -0.63271
O_ O_ 0.875897 0.920917 0.0839686 -0.57982
O_ O_ 0.490407 0.903456 0.106059 -0.63271
O_ O_ 0.958164 0.955597 0.158626 -0.57982
O_ O_ 0.596039 0.891653 0.147107 -0.63271
O_ O_ 0.623697 0.903053 0.0706256 -0.57982
O_ O_ 0.764514 0.593435 0.413224 -0.63271
O_ O_ 0.80029 0.657857 0.463798 -0.57982
O_ O_ 0.65497 0.648599 0.401496 -0.63271
O_ O_ 0.621898 0.575933 0.412599 -0.57982
F_ F_ 0.931983 0.822754 0.418116 -0.20885
F_ F_ 0.914978 0.80209 0.334578 -0.20885
F_ F_ 0.860283 0.789985 0.386652 -0.20885
F_ F_ 0.807409 0.928151 0.32699 -0.20885
F_ F_ 0.815193 0.843567 0.307257 -0.20885
F_ F_ 0.870919 0.892839 0.286958 -0.20885
F_ F_ 0.573192 0.669274 0.0595295 -0.20885
F_ F_ 0.568353 0.672 0.146031 -0.20885
F_ F_ 0.637199 0.695584 0.112441 -0.20885
F_ F_ 0.687404 0.556468 0.163099 -0.20885
F_ F_ 0.67763 0.637521 0.181775 -0.20885
F_ F_ 0.611998 0.593118 0.189335 -0.20885
Zn Zn 0.584416 0.581366 0.841524 0.83971
Zn Zn 0.661296 0.849367 0.58198 0.83971
Zn Zn 0.908015 0.918312 0.648369 0.83971
Zn Zn 0.834918 0.660196 0.910557 0.83971
H_ H_ 0.670408 0.627594 0.806125 0.10394
H_ H_ 0.746032 0.588981 0.768086 0.10394
H_ H_ 0.712326 0.949397 0.766501 0.10394
H_ H_ 0.620307 0.477972 0.816265 0.10394
H_ H_ 0.022351 0.598628 0.747734 0.10394
H_ H_ 0.990894 0.67625 0.696012 0.10394
H_ H_ 0.542787 0.77474 0.840857 0.10394
H_ H_ 0.571739 0.696577 0.886292 0.10394
H_ H_ 0.532324 0.940606 0.865857 0.10394
H_ H_ 0.974463 0.883093 0.888748 0.10394
H_ H_ 0.844963 0.992229 0.888429 0.10394
H_ H_ 0.580845 0.810083 0.630829 0.10394
H_ H_ 0.006869 0.766194 0.599485 0.10394
H_ H_ 0.529179 0.759793 0.941854 0.10394
H_ H_ 0.614477 0.823095 0.479096 0.10394
H_ H_ 0.711782 0.753808 0.594603 0.10394
H_ H_ 0.750272 0.703694 0.670487 0.10394
H_ H_ 0.722571 0.844084 0.766262 0.10394
H_ H_ 0.687616 0.891879 0.683981 0.10394
H_ H_ 0.709999 0.865553 0.94273 0.10394
H_ H_ 0.758794 0.885507 0.875025 0.10394
H_ H_ 0.887197 0.913504 0.981846 0.10394
H_ H_ 0.804822 0.943736 0.622864 0.10394
H_ H_ 0.734028 0.990763 0.660998 0.10394
H_ H_ 0.831995 0.542129 0.773863 0.10394
H_ H_ 0.905858 0.99237 0.743666 0.10394
H_ H_ 0.512825 0.894721 0.715321 0.10394
H_ H_ 0.547645 0.826923 0.77195 0.10394
H_ H_ 0.908953 0.750328 0.725481 0.10394
H_ H_ 0.867742 0.824524 0.680628 0.10394
H_ H_ 0.967355 0.55186 0.628634 0.10394
H_ H_ 0.523772 0.62295 0.618331 0.10394
H_ H_ 0.648457 0.51111 0.589978 0.10394
H_ H_ 0.940238 0.658921 0.894955 0.10394
H_ H_ 0.511534 0.663818 0.997145 0.10394
H_ H_ 0.915645 0.787314 0.545662 0.10394
H_ H_ 0.839445 0.744737 0.98821 0.10394
H_ H_ 0.73342 0.709497 0.886699 0.10394
H_ H_ 0.69125 0.748633 0.811074 0.10394
H_ H_ 0.826782 0.722431 0.735815 0.10394
H_ H_ 0.875171 0.68419 0.812106 0.10394
H_ H_ 0.784409 0.639666 0.562688 0.10394
H_ H_ 0.730106 0.616057 0.625917 0.10394
H_ H_ 0.607662 0.598881 0.511323 0.10394
C_ C_ 0.676637 0.58468 0.803644 0.18167
C_ C_ 0.721896 0.563174 0.782253 -0.15533
C_ C_ 0.732324 0.509972 0.773982 0.02923
C_ C_ 0.701874 0.989786 0.775235 -0.15533
C_ C_ 0.651312 0.501945 0.808131 0.18167
C_ C_ 0.537903 0.642187 0.768573 0.18167
C_ C_ 0.000832649 0.679292 0.735799 -0.15533
C_ C_ 0.514847 0.733872 0.77083 0.02923
C_ C_ 0.541315 0.738216 0.818927 -0.15533
C_ C_ 0.561582 0.693487 0.84411 0.18167
C_ C_ 0.505299 0.543157 0.868763 0.69207
C_ C_ 0.971038 0.00498374 0.873339 0.02923
C_ C_ -0.011483000000000021 0.952865 0.873134 -0.15533
C_ C_ 0.955778 0.917327 0.881582 -0.15533
C_ C_ 0.903491 0.929259 0.886425 0.02923
C_ C_ 0.884549 0.982633 0.884239 -0.15533
C_ C_ 0.917709 0.0194883 0.879063 0.02923
C_ C_ 0.887959 0.569454 0.875347 0.69207
C_ C_ 0.896864 0.832814 0.899621 0.69661
C_ C_ 0.570735 0.80891 0.591543 0.18167
C_ C_ 0.527263 0.785369 0.573317 -0.15533
C_ C_ 0.517065 0.771937 0.521009 0.02923
C_ C_ 0.536759 0.771326 0.982746 -0.15533
C_ C_ 0.591176 0.810964 0.505318 0.18167
C_ C_ 0.713594 0.771415 0.634137 0.18167
C_ C_ 0.737203 0.745426 0.675817 -0.15533
C_ C_ 0.738479 0.771749 0.725607 0.02923
C_ C_ 0.721682 0.824062 0.729504 -0.15533
C_ C_ 0.699672 0.849483 0.684307 0.18167
C_ C_ 0.739748 0.867062 0.540986 0.69207
C_ C_ 0.769033 0.876247 1.00399621 0.02923
C_ C_ 0.745828 0.8819 0.952009 -0.15533
C_ C_ 0.775755 0.889444 0.912284 -0.15533
C_ C_ 0.828535 0.897511 0.923287 0.02923
C_ C_ 0.84851 0.903173 0.974788 -0.15533
C_ C_ 0.822598 0.884834 0.012708 0.02923
C_ C_ 0.850889 0.881112 0.565073 0.69207
C_ C_ 0.845757 0.877318 0.827844 0.69661
C_ C_ 0.812571 0.962191 0.659134 0.18167
C_ C_ 0.77097 0.990353 0.681172 -0.15533
C_ C_ 0.777834 0.00839206 0.733335 0.02923
C_ C_ 0.826428 0.505921 0.755189 -0.15533
C_ C_ 0.868698 0.988715 0.728352 0.18167
C_ C_ 0.983829 0.860498 0.705821 0.18167
C_ C_ 0.514857 0.822539 0.742511 -0.15533
C_ C_ 0.984159 0.774538 0.729042 0.02923
C_ C_ 0.931195 0.780288 0.716583 -0.15533
C_ C_ 0.909447 0.822627 0.691127 0.18167
C_ C_ 0.985681 0.960318 0.61498 0.69207
C_ C_ 0.53073 0.49503 0.626317 0.02923
C_ C_ 0.511074 0.547936 0.631552 -0.15533
C_ C_ 0.539815 0.585089 0.619366 -0.15533
C_ C_ 0.590313 0.572894 0.605972 0.02923
C_ C_ 0.609522 0.522149 0.600451 -0.15533
C_ C_ 0.580429 0.483368 0.60959 0.02923
C_ C_ 0.603915 0.928111 0.606299 0.69207
C_ C_ 0.60495 0.668997 0.614246 0.69661
C_ C_ 0.935701 0.680056 0.931047 0.18167
C_ C_ 0.977035 0.697151 0.961151 -0.15533
C_ C_ 0.970165 0.73503 1.00026 0.02923
C_ C_ 0.924624 0.760517 0.512571 -0.15533
C_ C_ 0.878444 0.727202 0.98338 0.18167
C_ C_ 0.755806 0.711381 0.8546 0.18167
C_ C_ 0.730163 0.733558 0.810307 -0.15533
C_ C_ 0.760218 0.744905 0.772091 0.02923
C_ C_ 0.808606 0.720924 0.770506 -0.15533
C_ C_ 0.832803 0.698612 0.812593 0.18167
C_ C_ 0.758779 0.628446 0.946139 0.69207
C_ C_ 0.728656 0.621619 0.494958 0.02923
C_ C_ 0.744934 0.631568 0.548931 -0.15533
C_ C_ 0.717111 0.613532 0.586113 -0.15533
C_ C_ 0.667168 0.60823 0.57194 0.02923
C_ C_ 0.649553 0.597896 0.519869 -0.15533
C_ C_ 0.680796 0.606687 0.480609 0.02923
C_ C_ 0.651983 0.605687 0.919243 0.69207
C_ C_ 0.654323 0.607864 0.670988 0.69661
C_ C_ 0.868511 0.88505 0.884274 -0.30787
C_ C_ 0.629628 0.613201 0.613085 -0.30787
N_ N_ 0.640176 0.552943 0.810507 -0.32189
N_ N_ 0.562089 0.647743 0.817426 -0.32189
N_ N_ 0.603842 0.817728 0.55745 -0.32189
N_ N_ 0.690904 0.82045 0.640041 -0.32189
N_ N_ 0.859738 0.958259 0.685222 -0.32189
N_ N_ 0.93765 0.858837 0.680108 -0.32189
N_ N_ 0.887497 0.691027 0.945158 -0.32189
N_ N_ 0.805744 0.687674 0.852335 -0.32189
O_ O_ 0.999721672 0.580644 0.89879 -0.63271
O_ O_ 0.536729 0.534322 0.835145 -0.57982
O_ O_ 0.894256 0.597054 0.837681 -0.63271
O_ O_ 0.858047 0.591815 0.910363 -0.57982
O_ O_ 0.741912 0.89887 0.580167 -0.63271
O_ O_ 0.703532 0.836462 0.535574 -0.57982
O_ O_ 0.848948 0.842151 0.594801 -0.63271
O_ O_ 0.883337 0.915955 0.578674 -0.57982
O_ O_ 0.495216 0.905417 0.613039 -0.63271
O_ O_ 0.951228 0.969197 0.646665 -0.57982
O_ O_ 0.5981 0.898555 0.6435 -0.63271
O_ O_ 0.635599 0.91127 0.573098 -0.57982
O_ O_ 0.753116 0.606537 0.898968 -0.63271
O_ O_ 0.790541 0.662574 0.958121 -0.57982
O_ O_ 0.650989 0.648706 0.895241 -0.63271
O_ O_ 0.615979 0.575662 0.905019 -0.57982
F_ F_ 0.931631 0.8322 0.943559 -0.20885
F_ F_ 0.921872 0.807394 0.862206 -0.20885
F_ F_ 0.861983 0.796804 0.900925 -0.20885
F_ F_ 0.815136 0.918984 0.811909 -0.20885
F_ F_ 0.81745 0.835242 0.819923 -0.20885
F_ F_ 0.884753 0.870565 0.798633 -0.20885
F_ F_ 0.568069 0.677404 0.572563 -0.20885
F_ F_ 0.581501 0.680848 0.657222 -0.20885
F_ F_ 0.641226 0.703656 0.617746 -0.20885
F_ F_ 0.687607 0.563311 0.673977 -0.20885
F_ F_ 0.683193 0.645968 0.691857 -0.20885
F_ F_ 0.618099 0.604087 0.705628 -0.20885
