_cell_length_a 26.508
_cell_length_b 26.37200000322088
_cell_length_c 26.311999743092066
_cell_angle_alpha 93.74100058972084
_cell_angle_beta 96.04100104955006
_cell_angle_gamma 83.6869992558723
_symmetry_space_group_name_H-M         'P 1'
_symmetry_Int_Tables_number            1
loop_
_symmetry_equiv_pos_as_xyz
   'x, y, z'
                         
loop_
_atom_site_label
_atom_site_type_symbol
_atom_site_fract_x 
_atom_site_fract_y
_atom_site_fract_z
_atom_site_charge
Zn Zn 0.0846994 0.079908 0.36236 0.83971
Zn Zn 0.162563 0.362399 0.0794951 0.83971
Zn Zn 0.413334 0.420242 0.13761 0.83971
Zn Zn 0.33562 0.137577 0.420005 0.83971
H_ H_ 0.19766 0.0921714 0.36564 0.10394
H_ H_ 0.270927 0.0586136 0.32021 0.10394
H_ H_ 0.168881 0.468299 0.220905 0.10394
H_ H_ 0.0998594 1.00654391 0.2704 0.10394
H_ H_ 0.487614 0.108479 0.2948 0.10394
H_ H_ 0.449443 0.179027 0.24184 0.10394
H_ H_ 0.0770705 0.262245 0.300775 0.10394
H_ H_ 0.109991 0.187153 0.35147 0.10394
H_ H_ 0.0312661 0.431389 0.35078 0.10394
H_ H_ 0.479782 0.359355 0.3509 0.10394
H_ H_ 0.349987 0.465763 0.38436 0.10394
H_ H_ 0.0497514 0.366096 0.0907152 0.10394
H_ H_ 0.476926 0.32022 0.05791 0.10394
H_ H_ 0.0798396 0.22013 0.46833 0.10394
H_ H_ 0.148475 0.269962 1.00591987 0.10394
H_ H_ 0.26082 0.295595 0.107975 0.10394
H_ H_ 0.299761 0.243159 0.17865 0.10394
H_ H_ 0.170633 0.29954 0.261825 0.10394
H_ H_ 0.137204 0.350018 0.18684 0.10394
H_ H_ 0.218384 0.351662 0.430835 0.10394
H_ H_ 0.270774 0.350809 0.358925 0.10394
H_ H_ 0.399258 0.385025 0.46597 0.10394
H_ H_ 0.300572 0.408141 0.13445 0.10394
H_ H_ 0.227392 0.441479 0.18017 0.10394
H_ H_ 0.329476 0.0318115 0.27935 0.10394
H_ H_ 0.398469 0.493653 0.22973 0.10394
H_ H_ 0.0110209 0.391334 0.20446 0.10394
H_ H_ 0.0495099 0.32061 0.257025 0.10394
H_ H_ 0.420843 0.238173 0.199775 0.10394
H_ H_ 0.387887 0.313194 0.149095 0.10394
H_ H_ 0.467905 0.068888 0.15015 0.10394
H_ H_ 0.0196371 0.140757 0.14968 0.10394
H_ H_ 0.148808 0.0339195 0.1154 0.10394
H_ H_ 0.448614 0.133553 0.40899 0.10394
H_ H_ 0.0214949 0.179226 0.4415 0.10394
H_ H_ 0.418709 0.2791 0.0319 0.10394
H_ H_ 0.350028 0.229457 0.49413 0.10394
H_ H_ 0.237464 0.20359 0.39095 0.10394
H_ H_ 0.198533 0.255878 0.320155 0.10394
H_ H_ 0.328912 0.201273 0.238095 0.10394
H_ H_ 0.361989 0.15036 0.312945 0.10394
H_ H_ 0.28082 0.147358 0.0683699 0.10394
H_ H_ 0.228877 0.147902 0.14046 0.10394
H_ H_ 0.0997291 0.114495 0.0339102 0.10394
C_ C_ 0.192499 0.0655974 0.33254 0.18167
C_ C_ 0.233977 0.0458202 0.306675 -0.15533
C_ C_ 0.227591 0.0103921 0.264895 0.02923
C_ C_ 0.178098 0.495853 0.25221 -0.15533
C_ C_ 0.138419 0.0172864 0.2797 0.18167
C_ C_ 0.00659558 0.143068 0.29442 0.18167
C_ C_ 0.485343 0.183389 0.265 -0.15533
C_ C_ 0.00984183 0.228114 0.26547 0.02923
C_ C_ 0.0556536 0.229085 0.29738 -0.15533
C_ C_ 0.0749946 0.187376 0.3256 0.18167
C_ C_ 0.00503788 0.0302229 0.365745 0.69207
C_ C_ 0.470171 0.488985 0.36464 0.02923
C_ C_ 0.491153 0.438378 0.35734 -0.15533
C_ C_ 0.46193 0.397849 0.35812 -0.15533
C_ C_ 0.410676 0.406973 0.367845 0.02923
C_ C_ 0.389652 0.457671 0.376295 -0.15533
C_ C_ 0.418411 0.498772 0.373595 0.02923
C_ C_ 0.391658 0.0524967 0.37465 0.69207
C_ C_ 0.406145 0.309712 0.368035 0.69661
C_ C_ 0.0552184 0.332722 0.0644499 0.18167
C_ C_ 0.0139949 0.306632 0.0451149 -0.15533
C_ C_ 0.0207364 0.264509 0.0101151 0.02923
C_ C_ 0.070364 0.251741 0.495545 -0.15533
C_ C_ 0.109803 0.279432 0.0166049 0.18167
C_ C_ 0.2417 0.294798 0.142585 0.18167
C_ C_ 0.263389 0.26565 0.183 -0.15533
C_ C_ 0.23872 0.265532 0.227775 0.02923
C_ C_ 0.192286 0.296635 0.22865 -0.15533
C_ C_ 0.172574 0.324633 0.1869 0.18167
C_ C_ 0.24362 0.367347 0.03024 0.69207
C_ C_ 0.2788 0.365803 0.48882 0.02923
C_ C_ 0.258444 0.358134 0.43804 -0.15533
C_ C_ 0.288177 0.358345 0.39753 -0.15533
C_ C_ 0.339335 0.368036 0.40682 0.02923
C_ C_ 0.359698 0.376951 0.457675 -0.15533
C_ C_ 0.330524 0.374633 0.49873 0.02923
C_ C_ 0.357174 0.375632 0.052475 0.69207
C_ C_ 0.345927 0.366202 0.30925 0.69661
C_ C_ 0.305769 0.434635 0.16762 0.18167
C_ C_ 0.264346 0.454316 0.19361 -0.15533
C_ C_ 0.270767 0.489713 0.235415 0.02923
C_ C_ 0.320259 3.78989e-08 0.248035 -0.15533
C_ C_ 0.359904 0.482911 0.22045 0.18167
C_ C_ 0.491923 0.356855 0.20507 0.18167
C_ C_ 0.013331 0.316445 0.2343 -0.15533
C_ C_ 0.488641 0.27188 0.23419 0.02923
C_ C_ 0.442507 0.271141 0.202775 -0.15533
C_ C_ 0.423079 0.312888 0.17466 0.18167
C_ C_ 0.493806 0.469786 0.134545 0.69207
C_ C_ 0.028684 1.0110908 0.135875 0.02923
C_ C_ 0.00795163 0.0617611 0.14338 -0.15533
C_ C_ 0.0372905 0.102198 0.142375 -0.15533
C_ C_ 0.0884257 0.0929054 0.13225 0.02923
C_ C_ 0.109226 0.0421499 0.12375 -0.15533
C_ C_ 0.080372 1.00117052 0.12664 0.02923
C_ C_ 0.107153 0.447473 0.12533 0.69207
C_ C_ 0.0936844 0.190162 0.131895 0.69661
C_ C_ 0.443186 0.166832 0.435335 0.18167
C_ C_ 0.484452 0.192824 0.454795 -0.15533
C_ C_ 0.477766 0.234857 0.48991 0.02923
C_ C_ 0.428168 0.247595 0.0 -0.15533
C_ C_ 0.388688 0.220002 0.483415 0.18167
C_ C_ 0.256769 0.204635 0.3565 0.18167
C_ C_ 0.235165 0.233794 0.316075 -0.15533
C_ C_ 0.260204 0.234372 0.27159 0.02923
C_ C_ 0.306906 0.203676 0.27097 -0.15533
C_ C_ 0.326448 0.175511 0.31265 0.18167
C_ C_ 0.255003 0.132335 0.46901 0.69207
C_ C_ 0.220054 0.133649 1.0105752 0.02923
C_ C_ 0.240725 0.14099 0.06128 -0.15533
C_ C_ 0.211202 0.14063 0.101925 -0.15533
C_ C_ 0.159932 0.131255 0.0928551 0.02923
C_ C_ 0.139336 0.122444 0.0420802 -0.15533
C_ C_ 0.16834 0.124805 1.000930062 0.02923
C_ C_ 0.141649 0.12398 0.447265 0.69207
C_ C_ 0.153725 0.133486 0.19025 0.69661
C_ C_ 0.375402 0.363744 0.36396 -0.30787
C_ C_ 0.123986 0.135857 0.135825 -0.30787
N_ N_ 0.145064 0.0520667 0.31924 -0.32189
N_ N_ 0.0511258 0.144566 0.324265 -0.32189
N_ N_ 0.102796 0.319284 0.0510149 -0.32189
N_ N_ 0.19659 0.323873 0.144025 -0.32189
N_ N_ 0.353207 0.4482 0.180865 -0.32189
N_ N_ 0.44711 0.355561 0.175665 -0.32189
N_ N_ 0.395626 0.180271 0.44885 -0.32189
N_ N_ 0.30207 0.175871 0.35528 -0.32189
O_ O_ 0.497463 0.0712095 0.391985 -0.63271
O_ O_ 0.0444779 0.0201879 0.339995 -0.57982
O_ O_ 0.391113 0.0776696 0.33577 -0.63271
O_ O_ 0.36911 0.0671054 0.4151 -0.57982
O_ O_ 0.2513 0.393431 0.0712252 -0.63271
O_ O_ 0.204118 0.341874 0.0202 -0.57982
O_ O_ 0.357525 0.336907 0.0777651 -0.63271
O_ O_ 0.380133 0.415626 0.0664998 -0.57982
O_ O_ 1.00215255 0.428664 0.10876 -0.63271
O_ O_ 0.453852 0.47981 0.159595 -0.57982
O_ O_ 0.108669 0.422428 0.164435 -0.63271
O_ O_ 0.128931 0.432787 0.084455 -0.57982
O_ O_ 0.248587 0.104544 0.42896 -0.63271
O_ O_ 0.293119 0.159854 0.478035 -0.57982
O_ O_ 0.142346 0.16237 0.42174 -0.63271
O_ O_ 0.117733 0.0845509 0.43307 -0.57982
F_ F_ 0.442005 0.308924 0.40885 -0.20885
F_ F_ 0.431174 0.293629 0.326075 -0.20885
F_ F_ 0.375313 0.273122 0.373555 -0.20885
F_ F_ 0.309325 0.406501 0.30675 -0.20885
F_ F_ 0.322165 0.323536 0.29365 -0.20885
F_ F_ 0.377816 0.37127 0.273215 -0.20885
F_ F_ 0.0578456 0.191083 0.0910501 -0.20885
F_ F_ 0.068785 0.206333 0.173925 -0.20885
F_ F_ 0.124651 0.226695 0.126425 -0.20885
F_ F_ 0.19016 0.0931634 0.193115 -0.20885
F_ F_ 0.177824 0.176143 0.204535 -0.20885
F_ F_ 0.122202 0.128881 0.22676 -0.20885
Zn Zn 0.0846994 0.0799078 0.86236 0.83971
Zn Zn 0.162563 0.362399 0.579495 0.83971
Zn Zn 0.413334 0.420243 0.63761 0.83971
Zn Zn 0.33562 0.137577 0.920005 0.83971
H_ H_ 0.19766 0.0921717 0.86564 0.10394
H_ H_ 0.270927 0.0586134 0.82021 0.10394
H_ H_ 0.168881 0.468298 0.720905 0.10394
H_ H_ 0.0998593 1.00654412 0.7704 0.10394
H_ H_ 0.487614 0.108478 0.7948 0.10394
H_ H_ 0.449443 0.179027 0.74184 0.10394
H_ H_ 0.0770704 0.262246 0.800775 0.10394
H_ H_ 0.109992 0.187153 0.85147 0.10394
H_ H_ 0.031266 0.431388 0.85078 0.10394
H_ H_ 0.479782 0.359355 0.8509 0.10394
H_ H_ 0.349988 0.465763 0.88436 0.10394
H_ H_ 0.0497513 0.366096 0.590715 0.10394
H_ H_ 0.476926 0.32022 0.55791 0.10394
H_ H_ 0.0798395 0.22013 0.96833 0.10394
H_ H_ 0.148475 0.269962 0.50592 0.10394
H_ H_ 0.260821 0.295596 0.607975 0.10394
H_ H_ 0.299761 0.243158 0.67865 0.10394
H_ H_ 0.170633 0.299541 0.761825 0.10394
H_ H_ 0.137204 0.350018 0.68684 0.10394
H_ H_ 0.218384 0.351662 0.930835 0.10394
H_ H_ 0.270774 0.350808 0.858925 0.10394
H_ H_ 0.399258 0.385025 0.96597 0.10394
H_ H_ 0.300572 0.408141 0.63445 0.10394
H_ H_ 0.227392 0.441478 0.68017 0.10394
H_ H_ 0.329476 0.0318114 0.77935 0.10394
H_ H_ 0.398469 0.493652 0.72973 0.10394
H_ H_ 0.0110208 0.391334 0.70446 0.10394
H_ H_ 0.0495099 0.320609 0.757025 0.10394
H_ H_ 0.420843 0.238173 0.699775 0.10394
H_ H_ 0.387887 0.313194 0.649095 0.10394
H_ H_ 0.467905 0.0688882 0.65015 0.10394
H_ H_ 0.019637 0.140757 0.64968 0.10394
H_ H_ 0.148808 0.0339194 0.6154 0.10394
H_ H_ 0.448614 0.133552 0.90899 0.10394
H_ H_ 0.0214949 0.179226 0.9415 0.10394
H_ H_ 0.418709 0.2791 0.5319 0.10394
H_ H_ 0.350028 0.229457 -0.005870000000000042 0.10394
H_ H_ 0.237464 0.203591 0.89095 0.10394
H_ H_ 0.198534 0.255879 0.820155 0.10394
H_ H_ 0.328912 0.201273 0.738095 0.10394
H_ H_ 0.361989 0.15036 0.812945 0.10394
H_ H_ 0.28082 0.147358 0.56837 0.10394
H_ H_ 0.228877 0.147901 0.64046 0.10394
H_ H_ 0.0997291 0.114495 0.53391 0.10394
C_ C_ 0.192499 0.0655976 0.83254 0.18167
C_ C_ 0.233977 0.04582 0.806675 -0.15533
C_ C_ 0.227591 0.0103919 0.764895 0.02923
C_ C_ 0.178098 0.495853 0.75221 -0.15533
C_ C_ 0.138419 0.0172867 0.7797 0.18167
C_ C_ 0.00659556 0.143067 0.79442 0.18167
C_ C_ 0.485343 0.18339 0.765 -0.15533
C_ C_ 0.00984215 0.228115 0.76547 0.02923
C_ C_ 0.0556536 0.229084 0.79738 -0.15533
C_ C_ 0.0749946 0.187376 0.8256 0.18167
C_ C_ 0.00503783 0.0302231 0.865745 0.69207
C_ C_ 0.470171 0.488984 0.86464 0.02923
C_ C_ 0.491153 0.438378 0.85734 -0.15533
C_ C_ 0.46193 0.397848 0.85812 -0.15533
C_ C_ 0.410676 0.406973 0.867845 0.02923
C_ C_ 0.389652 0.457671 0.876295 -0.15533
C_ C_ 0.418411 0.498772 0.873595 0.02923
C_ C_ 0.391658 0.0524965 0.87465 0.69207
C_ C_ 0.406145 0.309713 0.868035 0.69661
C_ C_ 0.0552187 0.332723 0.56445 0.18167
C_ C_ 0.0139949 0.306632 0.545115 -0.15533
C_ C_ 0.0207364 0.264509 0.510115 0.02923
C_ C_ 0.070364 0.25174 0.995545 -0.15533
C_ C_ 0.109803 0.279431 0.516605 0.18167
C_ C_ 0.2417 0.294799 0.642585 0.18167
C_ C_ 0.263389 0.26565 0.683 -0.15533
C_ C_ 0.23872 0.265531 0.727775 0.02923
C_ C_ 0.192286 0.296635 0.72865 -0.15533
C_ C_ 0.172575 0.324633 0.6869 0.18167
C_ C_ 0.24362 0.367348 0.53024 0.69207
C_ C_ 0.2788 0.365803 -0.011179999999999968 0.02923
C_ C_ 0.258444 0.358133 0.93804 -0.15533
C_ C_ 0.288177 0.358344 0.89753 -0.15533
C_ C_ 0.339335 0.368035 0.90682 0.02923
C_ C_ 0.359697 0.376951 0.957675 -0.15533
C_ C_ 0.330524 0.374633 -0.0012699999999999934 0.02923
C_ C_ 0.357174 0.375632 0.552475 0.69207
C_ C_ 0.345927 0.366202 0.80925 0.69661
C_ C_ 0.305769 0.434636 0.66762 0.18167
C_ C_ 0.264346 0.454316 0.69361 -0.15533
C_ C_ 0.270767 0.489713 0.735415 0.02923
C_ C_ 0.320259 0.0 0.748035 -0.15533
C_ C_ 0.359904 0.482911 0.72045 0.18167
C_ C_ 0.491923 0.356854 0.70507 0.18167
C_ C_ 0.0133309 0.316445 0.7343 -0.15533
C_ C_ 0.488641 0.271879 0.73419 0.02923
C_ C_ 0.442507 0.271142 0.702775 -0.15533
C_ C_ 0.423078 0.312888 0.67466 0.18167
C_ C_ 0.493806 0.469786 0.634545 0.69207
C_ C_ 0.028684 1.0110911 0.635875 0.02923
C_ C_ 0.00795162 0.061761 0.64338 -0.15533
C_ C_ 0.0372905 0.102198 0.642375 -0.15533
C_ C_ 0.0884256 0.0929056 0.63225 0.02923
C_ C_ 0.109226 0.0421501 0.62375 -0.15533
C_ C_ 0.080372 1.00117037 0.62664 0.02923
C_ C_ 0.107152 0.447473 0.62533 0.69207
C_ C_ 0.0936844 0.190161 0.631895 0.69661
C_ C_ 0.443186 0.166831 0.935335 0.18167
C_ C_ 0.484451 0.192824 0.954795 -0.15533
C_ C_ 0.477766 0.234857 0.98991 0.02923
C_ C_ 0.428168 0.247595 0.5 -0.15533
C_ C_ 0.388688 0.220003 0.983415 0.18167
C_ C_ 0.256769 0.204634 0.8565 0.18167
C_ C_ 0.235165 0.233794 0.816075 -0.15533
C_ C_ 0.260204 0.234372 0.77159 0.02923
C_ C_ 0.306906 0.203676 0.77097 -0.15533
C_ C_ 0.326448 0.175511 0.81265 0.18167
C_ C_ 0.255003 0.132335 0.96901 0.69207
C_ C_ 0.220054 0.133649 0.510575 0.02923
C_ C_ 0.240724 0.140991 0.56128 -0.15533
C_ C_ 0.211202 0.14063 0.601925 -0.15533
C_ C_ 0.159932 0.131256 0.592855 0.02923
C_ C_ 0.139336 0.122444 0.54208 -0.15533
C_ C_ 0.16834 0.124805 0.50093 0.02923
C_ C_ 0.141649 0.123981 0.947265 0.69207
C_ C_ 0.153725 0.133486 0.69025 0.69661
C_ C_ 0.375402 0.363743 0.86396 -0.30787
C_ C_ 0.123986 0.135857 0.635825 -0.30787
N_ N_ 0.145064 0.0520665 0.81924 -0.32189
N_ N_ 0.0511262 0.144566 0.824265 -0.32189
N_ N_ 0.102796 0.319284 0.551015 -0.32189
N_ N_ 0.19659 0.323874 0.644025 -0.32189
N_ N_ 0.353207 0.4482 0.680865 -0.32189
N_ N_ 0.44711 0.355561 0.675665 -0.32189
N_ N_ 0.395626 0.180271 0.94885 -0.32189
N_ N_ 0.30207 0.17587 0.85528 -0.32189
O_ O_ 0.497463 0.0712093 0.891985 -0.63271
O_ O_ 0.0444778 0.0201881 0.839995 -0.57982
O_ O_ 0.391114 0.0776695 0.83577 -0.63271
O_ O_ 0.36911 0.0671056 0.9151 -0.57982
O_ O_ 0.2513 0.393431 0.571225 -0.63271
O_ O_ 0.204118 0.341874 0.5202 -0.57982
O_ O_ 0.357525 0.336907 0.577765 -0.63271
O_ O_ 0.380133 0.415626 0.5665 -0.57982
O_ O_ 1.00215253 0.428663 0.60876 -0.63271
O_ O_ 0.453852 0.47981 0.659595 -0.57982
O_ O_ 0.108669 0.422427 0.664435 -0.63271
O_ O_ 0.128931 0.432787 0.584455 -0.57982
O_ O_ 0.248587 0.104545 0.92896 -0.63271
O_ O_ 0.293119 0.159854 0.978035 -0.57982
O_ O_ 0.142346 0.162371 0.92174 -0.63271
O_ O_ 0.117733 0.0845512 0.93307 -0.57982
F_ F_ 0.442005 0.308925 0.90885 -0.20885
F_ F_ 0.431174 0.29363 0.826075 -0.20885
F_ F_ 0.375313 0.273122 0.873555 -0.20885
F_ F_ 0.309325 0.406501 0.80675 -0.20885
F_ F_ 0.322165 0.323536 0.79365 -0.20885
F_ F_ 0.377816 0.37127 0.773215 -0.20885
F_ F_ 0.0578456 0.191082 0.59105 -0.20885
F_ F_ 0.068785 0.206334 0.673925 -0.20885
F_ F_ 0.124651 0.226694 0.626425 -0.20885
F_ F_ 0.19016 0.0931636 0.693115 -0.20885
F_ F_ 0.177824 0.176142 0.704535 -0.20885
F_ F_ 0.122202 0.128881 0.72676 -0.20885
Zn Zn 0.0846994 0.579908 0.36236 0.83971
Zn Zn 0.162563 0.862399 0.0794951 0.83971
Zn Zn 0.413334 0.920242 0.13761 0.83971
Zn Zn 0.33562 0.637577 0.420005 0.83971
H_ H_ 0.19766 0.592171 0.36564 0.10394
H_ H_ 0.270927 0.558614 0.32021 0.10394
H_ H_ 0.168881 0.968299 0.220905 0.10394
H_ H_ 0.0998594 0.506544 0.2704 0.10394
H_ H_ 0.487614 0.608479 0.2948 0.10394
H_ H_ 0.449443 0.679027 0.24184 0.10394
H_ H_ 0.0770704 0.762245 0.300775 0.10394
H_ H_ 0.109991 0.687153 0.35147 0.10394
H_ H_ 0.031266 0.931388 0.35078 0.10394
H_ H_ 0.479782 0.859355 0.3509 0.10394
H_ H_ 0.349987 0.965763 0.38436 0.10394
H_ H_ 0.0497514 0.866096 0.0907152 0.10394
H_ H_ 0.476926 0.82022 0.05791 0.10394
H_ H_ 0.0798395 0.72013 0.46833 0.10394
H_ H_ 0.148475 0.769962 1.00591987 0.10394
H_ H_ 0.26082 0.795595 0.107975 0.10394
H_ H_ 0.299761 0.743159 0.17865 0.10394
H_ H_ 0.170633 0.799541 0.261825 0.10394
H_ H_ 0.137204 0.850018 0.18684 0.10394
H_ H_ 0.218384 0.851662 0.430835 0.10394
H_ H_ 0.270774 0.850809 0.358925 0.10394
H_ H_ 0.399258 0.885025 0.46597 0.10394
H_ H_ 0.300572 0.908141 0.13445 0.10394
H_ H_ 0.227392 0.941479 0.18017 0.10394
H_ H_ 0.329476 0.531811 0.27935 0.10394
H_ H_ 0.398469 -0.0063469999999999915 0.22973 0.10394
H_ H_ 0.0110209 0.891334 0.20446 0.10394
H_ H_ 0.0495099 0.82061 0.257025 0.10394
H_ H_ 0.420843 0.738173 0.199775 0.10394
H_ H_ 0.387887 0.813194 0.149095 0.10394
H_ H_ 0.467905 0.568888 0.15015 0.10394
H_ H_ 0.019637 0.640757 0.14968 0.10394
H_ H_ 0.148808 0.533919 0.1154 0.10394
H_ H_ 0.448614 0.633553 0.40899 0.10394
H_ H_ 0.0214949 0.679226 0.4415 0.10394
H_ H_ 0.418709 0.7791 0.0319 0.10394
H_ H_ 0.350028 0.729457 0.49413 0.10394
H_ H_ 0.237464 0.70359 0.39095 0.10394
H_ H_ 0.198533 0.755878 0.320155 0.10394
H_ H_ 0.328912 0.701273 0.238095 0.10394
H_ H_ 0.361989 0.65036 0.312945 0.10394
H_ H_ 0.28082 0.647358 0.0683699 0.10394
H_ H_ 0.228877 0.647902 0.14046 0.10394
H_ H_ 0.0997291 0.614495 0.0339102 0.10394
C_ C_ 0.192499 0.565597 0.33254 0.18167
C_ C_ 0.233977 0.54582 0.306675 -0.15533
C_ C_ 0.227591 0.510392 0.264895 0.02923
C_ C_ 0.178098 0.995853 0.25221 -0.15533
C_ C_ 0.138419 0.517286 0.2797 0.18167
C_ C_ 0.00659556 0.643068 0.29442 0.18167
C_ C_ 0.485343 0.683389 0.265 -0.15533
C_ C_ 0.00984219 0.728114 0.26547 0.02923
C_ C_ 0.0556536 0.729085 0.29738 -0.15533
C_ C_ 0.0749946 0.687376 0.3256 0.18167
C_ C_ 0.00503787 0.530223 0.365745 0.69207
C_ C_ 0.470171 -0.011014999999999997 0.36464 0.02923
C_ C_ 0.491153 0.938378 0.35734 -0.15533
C_ C_ 0.46193 0.897849 0.35812 -0.15533
C_ C_ 0.410676 0.906973 0.367845 0.02923
C_ C_ 0.389652 0.957671 0.376295 -0.15533
C_ C_ 0.418411 -0.0012280000000000069 0.373595 0.02923
C_ C_ 0.391658 0.552497 0.37465 0.69207
C_ C_ 0.406145 0.809712 0.368035 0.69661
C_ C_ 0.0552183 0.832722 0.0644499 0.18167
C_ C_ 0.0139949 0.806632 0.0451149 -0.15533
C_ C_ 0.0207364 0.764509 0.0101151 0.02923
C_ C_ 0.070364 0.751741 0.495545 -0.15533
C_ C_ 0.109803 0.779432 0.0166049 0.18167
C_ C_ 0.2417 0.794798 0.142585 0.18167
C_ C_ 0.263389 0.76565 0.183 -0.15533
C_ C_ 0.23872 0.765531 0.227775 0.02923
C_ C_ 0.192286 0.796635 0.22865 -0.15533
C_ C_ 0.172575 0.824633 0.1869 0.18167
C_ C_ 0.24362 0.867348 0.03024 0.69207
C_ C_ 0.2788 0.865803 0.48882 0.02923
C_ C_ 0.258444 0.858134 0.43804 -0.15533
C_ C_ 0.288177 0.858345 0.39753 -0.15533
C_ C_ 0.339335 0.868036 0.40682 0.02923
C_ C_ 0.359698 0.876951 0.457675 -0.15533
C_ C_ 0.330524 0.874633 0.49873 0.02923
C_ C_ 0.357174 0.875632 0.052475 0.69207
C_ C_ 0.345927 0.866202 0.30925 0.69661
C_ C_ 0.305769 0.934635 0.16762 0.18167
C_ C_ 0.264346 0.954316 0.19361 -0.15533
C_ C_ 0.270767 0.989713 0.235415 0.02923
C_ C_ 0.320259 0.5 0.248035 -0.15533
C_ C_ 0.359904 0.982911 0.22045 0.18167
C_ C_ 0.491923 0.856855 0.20507 0.18167
C_ C_ 0.0133309 0.816445 0.2343 -0.15533
C_ C_ 0.488641 0.77188 0.23419 0.02923
C_ C_ 0.442507 0.771141 0.202775 -0.15533
C_ C_ 0.423079 0.812888 0.17466 0.18167
C_ C_ 0.493806 0.969786 0.134545 0.69207
C_ C_ 0.028684 0.511091 0.135875 0.02923
C_ C_ 0.00795161 0.561761 0.14338 -0.15533
C_ C_ 0.0372905 0.602198 0.142375 -0.15533
C_ C_ 0.0884257 0.592905 0.13225 0.02923
C_ C_ 0.109226 0.54215 0.12375 -0.15533
C_ C_ 0.080372 0.501171 0.12664 0.02923
C_ C_ 0.107152 0.947473 0.12533 0.69207
C_ C_ 0.0936844 0.690161 0.131895 0.69661
C_ C_ 0.443186 0.666832 0.435335 0.18167
C_ C_ 0.484452 0.692824 0.454795 -0.15533
C_ C_ 0.477766 0.734857 0.48991 0.02923
C_ C_ 0.428168 0.747595 0.0 -0.15533
C_ C_ 0.388688 0.720002 0.483415 0.18167
C_ C_ 0.256769 0.704635 0.3565 0.18167
C_ C_ 0.235165 0.733794 0.316075 -0.15533
C_ C_ 0.260204 0.734372 0.27159 0.02923
C_ C_ 0.306906 0.703676 0.27097 -0.15533
C_ C_ 0.326448 0.675511 0.31265 0.18167
C_ C_ 0.255003 0.632335 0.46901 0.69207
C_ C_ 0.220054 0.633649 1.0105752 0.02923
C_ C_ 0.240725 0.64099 0.06128 -0.15533
C_ C_ 0.211202 0.64063 0.101925 -0.15533
C_ C_ 0.159932 0.631255 0.0928551 0.02923
C_ C_ 0.139336 0.622444 0.0420802 -0.15533
C_ C_ 0.16834 0.624805 1.000930062 0.02923
C_ C_ 0.141649 0.62398 0.447265 0.69207
C_ C_ 0.153725 0.633486 0.19025 0.69661
C_ C_ 0.375402 0.863744 0.36396 -0.30787
C_ C_ 0.123986 0.635857 0.135825 -0.30787
N_ N_ 0.145064 0.552067 0.31924 -0.32189
N_ N_ 0.0511258 0.644566 0.324265 -0.32189
N_ N_ 0.102796 0.819284 0.0510149 -0.32189
N_ N_ 0.19659 0.823873 0.144025 -0.32189
N_ N_ 0.353207 0.9482 0.180865 -0.32189
N_ N_ 0.44711 0.855561 0.175665 -0.32189
N_ N_ 0.395626 0.680271 0.44885 -0.32189
N_ N_ 0.30207 0.675871 0.35528 -0.32189
O_ O_ 0.497463 0.571209 0.391985 -0.63271
O_ O_ 0.0444779 0.520188 0.339995 -0.57982
O_ O_ 0.391113 0.57767 0.33577 -0.63271
O_ O_ 0.36911 0.567105 0.4151 -0.57982
O_ O_ 0.2513 0.893431 0.0712252 -0.63271
O_ O_ 0.204118 0.841874 0.0202 -0.57982
O_ O_ 0.357525 0.836907 0.0777651 -0.63271
O_ O_ 0.380133 0.915626 0.0664998 -0.57982
O_ O_ 1.00215253 0.928664 0.10876 -0.63271
O_ O_ 0.453852 0.97981 0.159595 -0.57982
O_ O_ 0.108669 0.922428 0.164435 -0.63271
O_ O_ 0.128931 0.932787 0.084455 -0.57982
O_ O_ 0.248587 0.604544 0.42896 -0.63271
O_ O_ 0.293119 0.659854 0.478035 -0.57982
O_ O_ 0.142346 0.66237 0.42174 -0.63271
O_ O_ 0.117733 0.584551 0.43307 -0.57982
F_ F_ 0.442005 0.808924 0.40885 -0.20885
F_ F_ 0.431174 0.793629 0.326075 -0.20885
F_ F_ 0.375313 0.773122 0.373555 -0.20885
F_ F_ 0.309325 0.906501 0.30675 -0.20885
F_ F_ 0.322165 0.823536 0.29365 -0.20885
F_ F_ 0.377816 0.87127 0.273215 -0.20885
F_ F_ 0.0578456 0.691083 0.0910501 -0.20885
F_ F_ 0.068785 0.706333 0.173925 -0.20885
F_ F_ 0.124651 0.726695 0.126425 -0.20885
F_ F_ 0.19016 0.593163 0.193115 -0.20885
F_ F_ 0.177824 0.676143 0.204535 -0.20885
F_ F_ 0.122202 0.628881 0.22676 -0.20885
Zn Zn 0.0846997 0.579908 0.86236 0.83971
Zn Zn 0.162563 0.862399 0.579495 0.83971
Zn Zn 0.413334 0.920243 0.63761 0.83971
Zn Zn 0.33562 0.637578 0.920005 0.83971
H_ H_ 0.19766 0.592172 0.86564 0.10394
H_ H_ 0.270927 0.558613 0.82021 0.10394
H_ H_ 0.168881 0.968298 0.720905 0.10394
H_ H_ 0.0998597 0.506544 0.7704 0.10394
H_ H_ 0.487615 0.608478 0.7948 0.10394
H_ H_ 0.449443 0.679027 0.74184 0.10394
H_ H_ 0.0770704 0.762246 0.800775 0.10394
H_ H_ 0.109992 0.687153 0.85147 0.10394
H_ H_ 0.031266 0.931388 0.85078 0.10394
H_ H_ 0.479781 0.859355 0.8509 0.10394
H_ H_ 0.349988 0.965763 0.88436 0.10394
H_ H_ 0.0497513 0.866096 0.590715 0.10394
H_ H_ 0.476926 0.82022 0.55791 0.10394
H_ H_ 0.0798395 0.720129 0.96833 0.10394
H_ H_ 0.148475 0.769962 0.50592 0.10394
H_ H_ 0.260821 0.795596 0.607975 0.10394
H_ H_ 0.299761 0.743158 0.67865 0.10394
H_ H_ 0.170632 0.799541 0.761825 0.10394
H_ H_ 0.137203 0.850018 0.68684 0.10394
H_ H_ 0.218384 0.851662 0.930835 0.10394
H_ H_ 0.270774 0.850808 0.858925 0.10394
H_ H_ 0.399258 0.885025 0.96597 0.10394
H_ H_ 0.300572 0.908141 0.63445 0.10394
H_ H_ 0.227392 0.941478 0.68017 0.10394
H_ H_ 0.329476 0.531811 0.77935 0.10394
H_ H_ 0.398469 -0.00634800000000002 0.72973 0.10394
H_ H_ 0.0110208 0.891334 0.70446 0.10394
H_ H_ 0.0495099 0.820609 0.757025 0.10394
H_ H_ 0.420843 0.738173 0.699775 0.10394
H_ H_ 0.387887 0.813194 0.649095 0.10394
H_ H_ 0.467905 0.568888 0.65015 0.10394
H_ H_ 0.019637 0.640757 0.64968 0.10394
H_ H_ 0.148807 0.533919 0.6154 0.10394
H_ H_ 0.448614 0.633552 0.90899 0.10394
H_ H_ 0.0214949 0.679226 0.9415 0.10394
H_ H_ 0.418709 0.7791 0.5319 0.10394
H_ H_ 0.350028 0.729457 -0.005870000000000042 0.10394
H_ H_ 0.237464 0.703591 0.89095 0.10394
H_ H_ 0.198534 0.755879 0.820155 0.10394
H_ H_ 0.328912 0.701273 0.738095 0.10394
H_ H_ 0.361989 0.65036 0.812945 0.10394
H_ H_ 0.28082 0.647358 0.56837 0.10394
H_ H_ 0.228877 0.647901 0.64046 0.10394
H_ H_ 0.0997291 0.614495 0.53391 0.10394
C_ C_ 0.192499 0.565598 0.83254 0.18167
C_ C_ 0.233977 0.54582 0.806675 -0.15533
C_ C_ 0.227591 0.510392 0.764895 0.02923
C_ C_ 0.178098 0.995853 0.75221 -0.15533
C_ C_ 0.138419 0.517287 0.7797 0.18167
C_ C_ 0.00659554 0.643067 0.79442 0.18167
C_ C_ 0.485343 0.68339 0.765 -0.15533
C_ C_ 0.00984213 0.728115 0.76547 0.02923
C_ C_ 0.0556535 0.729084 0.79738 -0.15533
C_ C_ 0.0749946 0.687376 0.8256 0.18167
C_ C_ 0.00503819 0.530223 0.865745 0.69207
C_ C_ 0.470171 -0.011016000000000026 0.86464 0.02923
C_ C_ 0.491153 0.938378 0.85734 -0.15533
C_ C_ 0.46193 0.897848 0.85812 -0.15533
C_ C_ 0.410676 0.906973 0.867845 0.02923
C_ C_ 0.389652 0.957671 0.876295 -0.15533
C_ C_ 0.418411 -0.0012280000000000069 0.873595 0.02923
C_ C_ 0.391658 0.552497 0.87465 0.69207
C_ C_ 0.406145 0.809713 0.868035 0.69661
C_ C_ 0.0552187 0.832723 0.56445 0.18167
C_ C_ 0.0139949 0.806632 0.545115 -0.15533
C_ C_ 0.0207364 0.764509 0.510115 0.02923
C_ C_ 0.070364 0.75174 0.995545 -0.15533
C_ C_ 0.109803 0.779431 0.516605 0.18167
C_ C_ 0.2417 0.794799 0.642585 0.18167
C_ C_ 0.263389 0.76565 0.683 -0.15533
C_ C_ 0.23872 0.765531 0.727775 0.02923
C_ C_ 0.192286 0.796635 0.72865 -0.15533
C_ C_ 0.172575 0.824633 0.6869 0.18167
C_ C_ 0.24362 0.867348 0.53024 0.69207
C_ C_ 0.2788 0.865804 -0.011179999999999968 0.02923
C_ C_ 0.258444 0.858133 0.93804 -0.15533
C_ C_ 0.288177 0.858344 0.89753 -0.15533
C_ C_ 0.339335 0.868035 0.90682 0.02923
C_ C_ 0.359697 0.876951 0.957675 -0.15533
C_ C_ 0.330525 0.874632 -0.0012699999999999934 0.02923
C_ C_ 0.357174 0.875632 0.552475 0.69207
C_ C_ 0.345927 0.866202 0.80925 0.69661
C_ C_ 0.305769 0.934636 0.66762 0.18167
C_ C_ 0.264346 0.954315 0.69361 -0.15533
C_ C_ 0.270767 0.989714 0.735415 0.02923
C_ C_ 0.320259 0.5 0.748035 -0.15533
C_ C_ 0.359904 0.982911 0.72045 0.18167
C_ C_ 0.491923 0.856854 0.70507 0.18167
C_ C_ 0.0133309 0.816445 0.7343 -0.15533
C_ C_ 0.488641 0.771879 0.73419 0.02923
C_ C_ 0.442507 0.771142 0.702775 -0.15533
C_ C_ 0.423078 0.812888 0.67466 0.18167
C_ C_ 0.493806 0.969786 0.634545 0.69207
C_ C_ 0.028684 0.511091 0.635875 0.02923
C_ C_ 1.0079516 0.561761 0.64338 -0.15533
C_ C_ 0.0372905 0.602198 0.642375 -0.15533
C_ C_ 0.0884256 0.592906 0.63225 0.02923
C_ C_ 0.109226 0.54215 0.62375 -0.15533
C_ C_ 0.080372 0.50117 0.62664 0.02923
C_ C_ 0.107152 0.947473 0.62533 0.69207
C_ C_ 0.0936844 0.690161 0.631895 0.69661
C_ C_ 0.443186 0.666831 0.935335 0.18167
C_ C_ 0.484451 0.692824 0.954795 -0.15533
C_ C_ 0.477766 0.734857 -0.010090000000000043 0.02923
C_ C_ 0.428168 0.747595 0.5 -0.15533
C_ C_ 0.388688 0.720003 0.983415 0.18167
C_ C_ 0.256769 0.704634 0.8565 0.18167
C_ C_ 0.235165 0.733794 0.816075 -0.15533
C_ C_ 0.260204 0.734372 0.77159 0.02923
C_ C_ 0.306906 0.703676 0.77097 -0.15533
C_ C_ 0.326448 0.675511 0.81265 0.18167
C_ C_ 0.255003 0.632335 0.96901 0.69207
C_ C_ 0.220054 0.633649 0.510575 0.02923
C_ C_ 0.240724 0.640991 0.56128 -0.15533
C_ C_ 0.211202 0.64063 0.601925 -0.15533
C_ C_ 0.159932 0.631256 0.592855 0.02923
C_ C_ 0.139336 0.622444 0.54208 -0.15533
C_ C_ 0.16834 0.624805 0.50093 0.02923
C_ C_ 0.141649 0.623981 0.947265 0.69207
C_ C_ 0.153725 0.633486 0.69025 0.69661
C_ C_ 0.375402 0.863743 0.86396 -0.30787
C_ C_ 0.123986 0.635857 0.635825 -0.30787
N_ N_ 0.145064 0.552066 0.81924 -0.32189
N_ N_ 0.0511262 0.644566 0.824265 -0.32189
N_ N_ 0.102796 0.819284 0.551015 -0.32189
N_ N_ 0.19659 0.823874 0.644025 -0.32189
N_ N_ 0.353207 0.9482 0.680865 -0.32189
N_ N_ 0.44711 0.855561 0.675665 -0.32189
N_ N_ 0.395626 0.680271 0.94885 -0.32189
N_ N_ 0.30207 0.67587 0.85528 -0.32189
O_ O_ 0.497463 0.57121 0.891985 -0.63271
O_ O_ 0.0444778 0.520188 0.839995 -0.57982
O_ O_ 0.391114 0.577669 0.83577 -0.63271
O_ O_ 0.369111 0.567106 0.9151 -0.57982
O_ O_ 0.2513 0.893431 0.571225 -0.63271
O_ O_ 0.204118 0.841874 0.5202 -0.57982
O_ O_ 0.357525 0.836907 0.577765 -0.63271
O_ O_ 0.380133 0.915626 0.5665 -0.57982
O_ O_ 1.00215251 0.928663 0.60876 -0.63271
O_ O_ 0.453852 0.97981 0.659595 -0.57982
O_ O_ 0.108669 0.922427 0.664435 -0.63271
O_ O_ 0.128931 0.932787 0.584455 -0.57982
O_ O_ 0.248587 0.604545 0.92896 -0.63271
O_ O_ 0.293119 0.659854 0.978035 -0.57982
O_ O_ 0.142346 0.662371 0.92174 -0.63271
O_ O_ 0.117733 0.584551 0.93307 -0.57982
F_ F_ 0.442005 0.808925 0.90885 -0.20885
F_ F_ 0.431174 0.79363 0.826075 -0.20885
F_ F_ 0.375313 0.773122 0.873555 -0.20885
F_ F_ 0.309325 0.906501 0.80675 -0.20885
F_ F_ 0.322165 0.823536 0.79365 -0.20885
F_ F_ 0.377816 0.87127 0.773215 -0.20885
F_ F_ 0.0578456 0.691082 0.59105 -0.20885
F_ F_ 0.068785 0.706334 0.673925 -0.20885
F_ F_ 0.124651 0.726694 0.626425 -0.20885
F_ F_ 0.19016 0.593164 0.693115 -0.20885
F_ F_ 0.177824 0.676142 0.704535 -0.20885
F_ F_ 0.122202 0.628881 0.72676 -0.20885
Zn Zn 0.584699 0.079908 0.36236 0.83971
Zn Zn 0.662563 0.362399 0.0794951 0.83971
Zn Zn 0.913334 0.420242 0.13761 0.83971
Zn Zn 0.83562 0.137577 0.420005 0.83971
H_ H_ 0.69766 0.0921714 0.36564 0.10394
H_ H_ 0.770927 0.0586136 0.32021 0.10394
H_ H_ 0.668881 0.468299 0.220905 0.10394
H_ H_ 0.599859 1.00654391 0.2704 0.10394
H_ H_ -0.012386000000000008 0.108479 0.2948 0.10394
H_ H_ 0.949443 0.179027 0.24184 0.10394
H_ H_ 0.57707 0.262245 0.300775 0.10394
H_ H_ 0.609991 0.187153 0.35147 0.10394
H_ H_ 0.531266 0.431389 0.35078 0.10394
H_ H_ 0.979782 0.359355 0.3509 0.10394
H_ H_ 0.849987 0.465763 0.38436 0.10394
H_ H_ 0.549751 0.366096 0.0907152 0.10394
H_ H_ 0.976926 0.32022 0.05791 0.10394
H_ H_ 0.57984 0.22013 0.46833 0.10394
H_ H_ 0.648475 0.269962 1.00591987 0.10394
H_ H_ 0.76082 0.295595 0.107975 0.10394
H_ H_ 0.799761 0.243159 0.17865 0.10394
H_ H_ 0.670633 0.29954 0.261825 0.10394
H_ H_ 0.637204 0.350018 0.18684 0.10394
H_ H_ 0.718384 0.351662 0.430835 0.10394
H_ H_ 0.770774 0.350809 0.358925 0.10394
H_ H_ 0.899258 0.385025 0.46597 0.10394
H_ H_ 0.800572 0.408141 0.13445 0.10394
H_ H_ 0.727392 0.441479 0.18017 0.10394
H_ H_ 0.829476 0.0318115 0.27935 0.10394
H_ H_ 0.898469 0.493653 0.22973 0.10394
H_ H_ 0.511021 0.391334 0.20446 0.10394
H_ H_ 0.54951 0.32061 0.257025 0.10394
H_ H_ 0.920843 0.238173 0.199775 0.10394
H_ H_ 0.887887 0.313194 0.149095 0.10394
H_ H_ 0.967905 0.068888 0.15015 0.10394
H_ H_ 0.519637 0.140757 0.14968 0.10394
H_ H_ 0.648808 0.0339195 0.1154 0.10394
H_ H_ 0.948614 0.133553 0.40899 0.10394
H_ H_ 0.521495 0.179226 0.4415 0.10394
H_ H_ 0.918709 0.2791 0.0319 0.10394
H_ H_ 0.850028 0.229457 0.49413 0.10394
H_ H_ 0.737464 0.20359 0.39095 0.10394
H_ H_ 0.698533 0.255878 0.320155 0.10394
H_ H_ 0.828912 0.201273 0.238095 0.10394
H_ H_ 0.861989 0.15036 0.312945 0.10394
H_ H_ 0.78082 0.147358 0.0683699 0.10394
H_ H_ 0.728877 0.147902 0.14046 0.10394
H_ H_ 0.599729 0.114495 0.0339102 0.10394
C_ C_ 0.692499 0.0655974 0.33254 0.18167
C_ C_ 0.733977 0.0458202 0.306675 -0.15533
C_ C_ 0.727591 0.0103921 0.264895 0.02923
C_ C_ 0.678098 0.495853 0.25221 -0.15533
C_ C_ 0.638419 0.0172864 0.2797 0.18167
C_ C_ 0.506596 0.143068 0.29442 0.18167
C_ C_ -0.014657000000000031 0.183389 0.265 -0.15533
C_ C_ 0.509842 0.228114 0.26547 0.02923
C_ C_ 0.555654 0.229085 0.29738 -0.15533
C_ C_ 0.574995 0.187376 0.3256 0.18167
C_ C_ 0.505038 0.0302229 0.365745 0.69207
C_ C_ 0.970171 0.488985 0.36464 0.02923
C_ C_ 0.991153 0.438378 0.35734 -0.15533
C_ C_ 0.96193 0.397849 0.35812 -0.15533
C_ C_ 0.910676 0.406973 0.367845 0.02923
C_ C_ 0.889652 0.457671 0.376295 -0.15533
C_ C_ 0.918411 0.498772 0.373595 0.02923
C_ C_ 0.891658 0.0524967 0.37465 0.69207
C_ C_ 0.906145 0.309712 0.368035 0.69661
C_ C_ 0.555218 0.332722 0.0644499 0.18167
C_ C_ 0.513995 0.306632 0.0451149 -0.15533
C_ C_ 0.520736 0.264509 0.0101151 0.02923
C_ C_ 0.570364 0.251741 0.495545 -0.15533
C_ C_ 0.609803 0.279432 0.0166049 0.18167
C_ C_ 0.7417 0.294798 0.142585 0.18167
C_ C_ 0.763389 0.26565 0.183 -0.15533
C_ C_ 0.73872 0.265532 0.227775 0.02923
C_ C_ 0.692286 0.296635 0.22865 -0.15533
C_ C_ 0.672574 0.324633 0.1869 0.18167
C_ C_ 0.74362 0.367347 0.03024 0.69207
C_ C_ 0.7788 0.365803 0.48882 0.02923
C_ C_ 0.758444 0.358134 0.43804 -0.15533
C_ C_ 0.788177 0.358345 0.39753 -0.15533
C_ C_ 0.839335 0.368036 0.40682 0.02923
C_ C_ 0.859698 0.376951 0.457675 -0.15533
C_ C_ 0.830524 0.374633 0.49873 0.02923
C_ C_ 0.857174 0.375632 0.052475 0.69207
C_ C_ 0.845927 0.366202 0.30925 0.69661
C_ C_ 0.805769 0.434635 0.16762 0.18167
C_ C_ 0.764346 0.454316 0.19361 -0.15533
C_ C_ 0.770767 0.489713 0.235415 0.02923
C_ C_ 0.820259 3.78989e-08 0.248035 -0.15533
C_ C_ 0.859904 0.482911 0.22045 0.18167
C_ C_ 0.991923 0.356855 0.20507 0.18167
C_ C_ 0.513331 0.316445 0.2343 -0.15533
C_ C_ 0.988641 0.27188 0.23419 0.02923
C_ C_ 0.942507 0.271141 0.202775 -0.15533
C_ C_ 0.923079 0.312888 0.17466 0.18167
C_ C_ 0.993806 0.469786 0.134545 0.69207
C_ C_ 0.528684 1.0110908 0.135875 0.02923
C_ C_ 0.507952 0.0617611 0.14338 -0.15533
C_ C_ 0.537291 0.102198 0.142375 -0.15533
C_ C_ 0.588426 0.0929054 0.13225 0.02923
C_ C_ 0.609226 0.0421499 0.12375 -0.15533
C_ C_ 0.580372 1.00117052 0.12664 0.02923
C_ C_ 0.607153 0.447473 0.12533 0.69207
C_ C_ 0.593684 0.190162 0.131895 0.69661
C_ C_ 0.943186 0.166832 0.435335 0.18167
C_ C_ 0.984452 0.192824 0.454795 -0.15533
C_ C_ 0.977766 0.234857 0.48991 0.02923
C_ C_ 0.928168 0.247595 0.0 -0.15533
C_ C_ 0.888688 0.220002 0.483415 0.18167
C_ C_ 0.756769 0.204635 0.3565 0.18167
C_ C_ 0.735165 0.233794 0.316075 -0.15533
C_ C_ 0.760204 0.234372 0.27159 0.02923
C_ C_ 0.806906 0.203676 0.27097 -0.15533
C_ C_ 0.826448 0.175511 0.31265 0.18167
C_ C_ 0.755003 0.132335 0.46901 0.69207
C_ C_ 0.720054 0.133649 1.0105752 0.02923
C_ C_ 0.740725 0.14099 0.06128 -0.15533
C_ C_ 0.711202 0.14063 0.101925 -0.15533
C_ C_ 0.659932 0.131255 0.0928551 0.02923
C_ C_ 0.639336 0.122444 0.0420802 -0.15533
C_ C_ 0.66834 0.124805 1.000930062 0.02923
C_ C_ 0.641649 0.12398 0.447265 0.69207
C_ C_ 0.653725 0.133486 0.19025 0.69661
C_ C_ 0.875402 0.363744 0.36396 -0.30787
C_ C_ 0.623986 0.135857 0.135825 -0.30787
N_ N_ 0.645064 0.0520667 0.31924 -0.32189
N_ N_ 0.551126 0.144566 0.324265 -0.32189
N_ N_ 0.602796 0.319284 0.0510149 -0.32189
N_ N_ 0.69659 0.323873 0.144025 -0.32189
N_ N_ 0.853207 0.4482 0.180865 -0.32189
N_ N_ 0.94711 0.355561 0.175665 -0.32189
N_ N_ 0.895626 0.180271 0.44885 -0.32189
N_ N_ 0.80207 0.175871 0.35528 -0.32189
O_ O_ -0.0025370000000000115 0.0712095 0.391985 -0.63271
O_ O_ 0.544478 0.0201879 0.339995 -0.57982
O_ O_ 0.891113 0.0776696 0.33577 -0.63271
O_ O_ 0.86911 0.0671054 0.4151 -0.57982
O_ O_ 0.7513 0.393431 0.0712252 -0.63271
O_ O_ 0.704118 0.341874 0.0202 -0.57982
O_ O_ 0.857525 0.336907 0.0777651 -0.63271
O_ O_ 0.880133 0.415626 0.0664998 -0.57982
O_ O_ 0.502153 0.428664 0.10876 -0.63271
O_ O_ 0.953852 0.47981 0.159595 -0.57982
O_ O_ 0.608669 0.422428 0.164435 -0.63271
O_ O_ 0.628931 0.432787 0.084455 -0.57982
O_ O_ 0.748587 0.104544 0.42896 -0.63271
O_ O_ 0.793119 0.159854 0.478035 -0.57982
O_ O_ 0.642346 0.16237 0.42174 -0.63271
O_ O_ 0.617733 0.0845509 0.43307 -0.57982
F_ F_ 0.942005 0.308924 0.40885 -0.20885
F_ F_ 0.931174 0.293629 0.326075 -0.20885
F_ F_ 0.875313 0.273122 0.373555 -0.20885
F_ F_ 0.809325 0.406501 0.30675 -0.20885
F_ F_ 0.822165 0.323536 0.29365 -0.20885
F_ F_ 0.877816 0.37127 0.273215 -0.20885
F_ F_ 0.557846 0.191083 0.0910501 -0.20885
F_ F_ 0.568785 0.206333 0.173925 -0.20885
F_ F_ 0.624651 0.226695 0.126425 -0.20885
F_ F_ 0.69016 0.0931634 0.193115 -0.20885
F_ F_ 0.677824 0.176143 0.204535 -0.20885
F_ F_ 0.622202 0.128881 0.22676 -0.20885
Zn Zn 0.584699 0.0799078 0.86236 0.83971
Zn Zn 0.662563 0.362399 0.579495 0.83971
Zn Zn 0.913334 0.420243 0.63761 0.83971
Zn Zn 0.83562 0.137577 0.920005 0.83971
H_ H_ 0.69766 0.0921717 0.86564 0.10394
H_ H_ 0.770927 0.0586134 0.82021 0.10394
H_ H_ 0.668881 0.468298 0.720905 0.10394
H_ H_ 0.599859 1.00654412 0.7704 0.10394
H_ H_ -0.012386000000000008 0.108478 0.7948 0.10394
H_ H_ 0.949443 0.179027 0.74184 0.10394
H_ H_ 0.57707 0.262246 0.800775 0.10394
H_ H_ 0.609992 0.187153 0.85147 0.10394
H_ H_ 0.531266 0.431388 0.85078 0.10394
H_ H_ 0.979782 0.359355 0.8509 0.10394
H_ H_ 0.849988 0.465763 0.88436 0.10394
H_ H_ 0.549751 0.366096 0.590715 0.10394
H_ H_ -0.02307400000000004 0.32022 0.55791 0.10394
H_ H_ 0.57984 0.22013 0.96833 0.10394
H_ H_ 0.648475 0.269962 0.50592 0.10394
H_ H_ 0.760821 0.295596 0.607975 0.10394
H_ H_ 0.799761 0.243158 0.67865 0.10394
H_ H_ 0.670633 0.299541 0.761825 0.10394
H_ H_ 0.637204 0.350018 0.68684 0.10394
H_ H_ 0.718384 0.351662 0.930835 0.10394
H_ H_ 0.770774 0.350808 0.858925 0.10394
H_ H_ 0.899258 0.385025 0.96597 0.10394
H_ H_ 0.800572 0.408141 0.63445 0.10394
H_ H_ 0.727392 0.441478 0.68017 0.10394
H_ H_ 0.829476 0.0318114 0.77935 0.10394
H_ H_ 0.898469 0.493652 0.72973 0.10394
H_ H_ 0.511021 0.391334 0.70446 0.10394
H_ H_ 0.54951 0.320609 0.757025 0.10394
H_ H_ 0.920843 0.238173 0.699775 0.10394
H_ H_ 0.887887 0.313194 0.649095 0.10394
H_ H_ 0.967905 0.0688882 0.65015 0.10394
H_ H_ 0.519637 0.140757 0.64968 0.10394
H_ H_ 0.648808 0.0339194 0.6154 0.10394
H_ H_ 0.948614 0.133552 0.90899 0.10394
H_ H_ 0.521495 0.179226 0.9415 0.10394
H_ H_ 0.918709 0.2791 0.5319 0.10394
H_ H_ 0.850028 0.229457 -0.005870000000000042 0.10394
H_ H_ 0.737464 0.203591 0.89095 0.10394
H_ H_ 0.698534 0.255879 0.820155 0.10394
H_ H_ 0.828912 0.201273 0.738095 0.10394
H_ H_ 0.861989 0.15036 0.812945 0.10394
H_ H_ 0.78082 0.147358 0.56837 0.10394
H_ H_ 0.728877 0.147901 0.64046 0.10394
H_ H_ 0.599729 0.114495 0.53391 0.10394
C_ C_ 0.692499 0.0655976 0.83254 0.18167
C_ C_ 0.733977 0.04582 0.806675 -0.15533
C_ C_ 0.727591 0.0103919 0.764895 0.02923
C_ C_ 0.678098 0.495853 0.75221 -0.15533
C_ C_ 0.638419 0.0172867 0.7797 0.18167
C_ C_ 0.506596 0.143067 0.79442 0.18167
C_ C_ -0.014657000000000031 0.18339 0.765 -0.15533
C_ C_ 0.509842 0.228115 0.76547 0.02923
C_ C_ 0.555654 0.229084 0.79738 -0.15533
C_ C_ 0.574995 0.187376 0.8256 0.18167
C_ C_ 0.505038 0.0302231 0.865745 0.69207
C_ C_ 0.970171 0.488984 0.86464 0.02923
C_ C_ 0.991153 0.438378 0.85734 -0.15533
C_ C_ 0.96193 0.397848 0.85812 -0.15533
C_ C_ 0.910676 0.406973 0.867845 0.02923
C_ C_ 0.889652 0.457671 0.876295 -0.15533
C_ C_ 0.918411 0.498772 0.873595 0.02923
C_ C_ 0.891658 0.0524965 0.87465 0.69207
C_ C_ 0.906145 0.309713 0.868035 0.69661
C_ C_ 0.555219 0.332723 0.56445 0.18167
C_ C_ 0.513995 0.306632 0.545115 -0.15533
C_ C_ 0.520736 0.264509 0.510115 0.02923
C_ C_ 0.570364 0.25174 0.995545 -0.15533
C_ C_ 0.609803 0.279431 0.516605 0.18167
C_ C_ 0.7417 0.294799 0.642585 0.18167
C_ C_ 0.763389 0.26565 0.683 -0.15533
C_ C_ 0.73872 0.265531 0.727775 0.02923
C_ C_ 0.692286 0.296635 0.72865 -0.15533
C_ C_ 0.672575 0.324633 0.6869 0.18167
C_ C_ 0.74362 0.367348 0.53024 0.69207
C_ C_ 0.7788 0.365803 0.98882 0.02923
C_ C_ 0.758444 0.358133 0.93804 -0.15533
C_ C_ 0.788177 0.358344 0.89753 -0.15533
C_ C_ 0.839335 0.368035 0.90682 0.02923
C_ C_ 0.859697 0.376951 0.957675 -0.15533
C_ C_ 0.830524 0.374633 -0.0012699999999999934 0.02923
C_ C_ 0.857174 0.375632 0.552475 0.69207
C_ C_ 0.845927 0.366202 0.80925 0.69661
C_ C_ 0.805769 0.434636 0.66762 0.18167
C_ C_ 0.764346 0.454316 0.69361 -0.15533
C_ C_ 0.770767 0.489713 0.735415 0.02923
C_ C_ 0.820259 0.0 0.748035 -0.15533
C_ C_ 0.859904 0.482911 0.72045 0.18167
C_ C_ 0.991923 0.356854 0.70507 0.18167
C_ C_ 0.513331 0.316445 0.7343 -0.15533
C_ C_ 0.988641 0.271879 0.73419 0.02923
C_ C_ 0.942507 0.271142 0.702775 -0.15533
C_ C_ 0.923078 0.312888 0.67466 0.18167
C_ C_ 0.993806 0.469786 0.634545 0.69207
C_ C_ 0.528684 1.0110911 0.635875 0.02923
C_ C_ 0.507952 0.061761 0.64338 -0.15533
C_ C_ 0.53729 0.102198 0.642375 -0.15533
C_ C_ 0.588426 0.0929056 0.63225 0.02923
C_ C_ 0.609226 0.0421501 0.62375 -0.15533
C_ C_ 0.580372 1.00117037 0.62664 0.02923
C_ C_ 0.607152 0.447473 0.62533 0.69207
C_ C_ 0.593684 0.190161 0.631895 0.69661
C_ C_ 0.943186 0.166831 0.935335 0.18167
C_ C_ 0.984451 0.192824 0.954795 -0.15533
C_ C_ 0.977766 0.234857 -0.010090000000000043 0.02923
C_ C_ 0.928168 0.247595 0.5 -0.15533
C_ C_ 0.888688 0.220003 0.983415 0.18167
C_ C_ 0.756769 0.204634 0.8565 0.18167
C_ C_ 0.735165 0.233794 0.816075 -0.15533
C_ C_ 0.760204 0.234372 0.77159 0.02923
C_ C_ 0.806906 0.203676 0.77097 -0.15533
C_ C_ 0.826448 0.175511 0.81265 0.18167
C_ C_ 0.755003 0.132335 0.96901 0.69207
C_ C_ 0.720054 0.133649 0.510575 0.02923
C_ C_ 0.740724 0.140991 0.56128 -0.15533
C_ C_ 0.711202 0.14063 0.601925 -0.15533
C_ C_ 0.659932 0.131256 0.592855 0.02923
C_ C_ 0.639336 0.122444 0.54208 -0.15533
C_ C_ 0.66834 0.124805 0.50093 0.02923
C_ C_ 0.641649 0.123981 0.947265 0.69207
C_ C_ 0.653725 0.133486 0.69025 0.69661
C_ C_ 0.875402 0.363743 0.86396 -0.30787
C_ C_ 0.623986 0.135857 0.635825 -0.30787
N_ N_ 0.645064 0.0520665 0.81924 -0.32189
N_ N_ 0.551126 0.144566 0.824265 -0.32189
N_ N_ 0.602796 0.319284 0.551015 -0.32189
N_ N_ 0.69659 0.323874 0.644025 -0.32189
N_ N_ 0.853207 0.4482 0.680865 -0.32189
N_ N_ 0.94711 0.355561 0.675665 -0.32189
N_ N_ 0.895626 0.180271 0.94885 -0.32189
N_ N_ 0.80207 0.17587 0.85528 -0.32189
O_ O_ -0.0025370000000000115 0.0712093 0.891985 -0.63271
O_ O_ 0.544478 0.0201881 0.839995 -0.57982
O_ O_ 0.891114 0.0776695 0.83577 -0.63271
O_ O_ 0.86911 0.0671056 0.9151 -0.57982
O_ O_ 0.7513 0.393431 0.571225 -0.63271
O_ O_ 0.704118 0.341874 0.5202 -0.57982
O_ O_ 0.857525 0.336907 0.577765 -0.63271
O_ O_ 0.880133 0.415626 0.5665 -0.57982
O_ O_ 0.502153 0.428663 0.60876 -0.63271
O_ O_ 0.953852 0.47981 0.659595 -0.57982
O_ O_ 0.608669 0.422427 0.664435 -0.63271
O_ O_ 0.628931 0.432787 0.584455 -0.57982
O_ O_ 0.748587 0.104545 0.92896 -0.63271
O_ O_ 0.793119 0.159854 0.978035 -0.57982
O_ O_ 0.642346 0.162371 0.92174 -0.63271
O_ O_ 0.617733 0.0845512 0.93307 -0.57982
F_ F_ 0.942005 0.308925 0.90885 -0.20885
F_ F_ 0.931174 0.29363 0.826075 -0.20885
F_ F_ 0.875313 0.273122 0.873555 -0.20885
F_ F_ 0.809325 0.406501 0.80675 -0.20885
F_ F_ 0.822165 0.323536 0.79365 -0.20885
F_ F_ 0.877816 0.37127 0.773215 -0.20885
F_ F_ 0.557846 0.191082 0.59105 -0.20885
F_ F_ 0.568785 0.206334 0.673925 -0.20885
F_ F_ 0.624651 0.226694 0.626425 -0.20885
F_ F_ 0.69016 0.0931636 0.693115 -0.20885
F_ F_ 0.677824 0.176142 0.704535 -0.20885
F_ F_ 0.622202 0.128881 0.72676 -0.20885
Zn Zn 0.584699 0.579908 0.36236 0.83971
Zn Zn 0.662563 0.862399 0.0794951 0.83971
Zn Zn 0.913334 0.920242 0.13761 0.83971
Zn Zn 0.83562 0.637577 0.420005 0.83971
H_ H_ 0.69766 0.592171 0.36564 0.10394
H_ H_ 0.770927 0.558614 0.32021 0.10394
H_ H_ 0.668881 0.968299 0.220905 0.10394
H_ H_ 0.599859 0.506544 0.2704 0.10394
H_ H_ -0.012386000000000008 0.608479 0.2948 0.10394
H_ H_ 0.949443 0.679027 0.24184 0.10394
H_ H_ 0.57707 0.762245 0.300775 0.10394
H_ H_ 0.609991 0.687153 0.35147 0.10394
H_ H_ 0.531266 0.931388 0.35078 0.10394
H_ H_ 0.979782 0.859355 0.3509 0.10394
H_ H_ 0.849987 0.965763 0.38436 0.10394
H_ H_ 0.549751 0.866096 0.0907152 0.10394
H_ H_ 0.976926 0.82022 0.05791 0.10394
H_ H_ 0.57984 0.72013 0.46833 0.10394
H_ H_ 0.648475 0.769962 1.00591987 0.10394
H_ H_ 0.76082 0.795595 0.107975 0.10394
H_ H_ 0.799761 0.743159 0.17865 0.10394
H_ H_ 0.670633 0.799541 0.261825 0.10394
H_ H_ 0.637204 0.850018 0.18684 0.10394
H_ H_ 0.718384 0.851662 0.430835 0.10394
H_ H_ 0.770774 0.850809 0.358925 0.10394
H_ H_ 0.899258 0.885025 0.46597 0.10394
H_ H_ 0.800572 0.908141 0.13445 0.10394
H_ H_ 0.727392 0.941479 0.18017 0.10394
H_ H_ 0.829476 0.531811 0.27935 0.10394
H_ H_ 0.898469 0.993653 0.22973 0.10394
H_ H_ 0.511021 0.891334 0.20446 0.10394
H_ H_ 0.54951 0.82061 0.257025 0.10394
H_ H_ 0.920843 0.738173 0.199775 0.10394
H_ H_ 0.887887 0.813194 0.149095 0.10394
H_ H_ 0.967905 0.568888 0.15015 0.10394
H_ H_ 0.519637 0.640757 0.14968 0.10394
H_ H_ 0.648808 0.533919 0.1154 0.10394
H_ H_ 0.948614 0.633553 0.40899 0.10394
H_ H_ 0.521495 0.679226 0.4415 0.10394
H_ H_ 0.918709 0.7791 0.0319 0.10394
H_ H_ 0.850028 0.729457 0.49413 0.10394
H_ H_ 0.737464 0.70359 0.39095 0.10394
H_ H_ 0.698533 0.755878 0.320155 0.10394
H_ H_ 0.828912 0.701273 0.238095 0.10394
H_ H_ 0.861989 0.65036 0.312945 0.10394
H_ H_ 0.78082 0.647358 0.0683699 0.10394
H_ H_ 0.728877 0.647902 0.14046 0.10394
H_ H_ 0.599729 0.614495 0.0339102 0.10394
C_ C_ 0.692499 0.565597 0.33254 0.18167
C_ C_ 0.733977 0.54582 0.306675 -0.15533
C_ C_ 0.727591 0.510392 0.264895 0.02923
C_ C_ 0.678098 0.995853 0.25221 -0.15533
C_ C_ 0.638419 0.517286 0.2797 0.18167
C_ C_ 0.506596 0.643068 0.29442 0.18167
C_ C_ -0.014657000000000031 0.683389 0.265 -0.15533
C_ C_ 0.509842 0.728114 0.26547 0.02923
C_ C_ 0.555654 0.729085 0.29738 -0.15533
C_ C_ 0.574995 0.687376 0.3256 0.18167
C_ C_ 0.505038 0.530223 0.365745 0.69207
C_ C_ 0.970171 -0.011014999999999997 0.36464 0.02923
C_ C_ -0.00884700000000005 0.938378 0.35734 -0.15533
C_ C_ 0.96193 0.897849 0.35812 -0.15533
C_ C_ 0.910676 0.906973 0.367845 0.02923
C_ C_ 0.889652 0.957671 0.376295 -0.15533
C_ C_ 0.918411 -0.0012280000000000069 0.373595 0.02923
C_ C_ 0.891658 0.552497 0.37465 0.69207
C_ C_ 0.906145 0.809712 0.368035 0.69661
C_ C_ 0.555218 0.832722 0.0644499 0.18167
C_ C_ 0.513995 0.806632 0.0451149 -0.15533
C_ C_ 0.520736 0.764509 0.0101151 0.02923
C_ C_ 0.570364 0.751741 0.495545 -0.15533
C_ C_ 0.609803 0.779432 0.0166049 0.18167
C_ C_ 0.7417 0.794798 0.142585 0.18167
C_ C_ 0.763389 0.76565 0.183 -0.15533
C_ C_ 0.73872 0.765531 0.227775 0.02923
C_ C_ 0.692286 0.796635 0.22865 -0.15533
C_ C_ 0.672575 0.824633 0.1869 0.18167
C_ C_ 0.74362 0.867348 0.03024 0.69207
C_ C_ 0.7788 0.865803 0.48882 0.02923
C_ C_ 0.758444 0.858134 0.43804 -0.15533
C_ C_ 0.788177 0.858345 0.39753 -0.15533
C_ C_ 0.839335 0.868036 0.40682 0.02923
C_ C_ 0.859698 0.876951 0.457675 -0.15533
C_ C_ 0.830524 0.874633 0.49873 0.02923
C_ C_ 0.857174 0.875632 0.052475 0.69207
C_ C_ 0.845927 0.866202 0.30925 0.69661
C_ C_ 0.805769 0.934635 0.16762 0.18167
C_ C_ 0.764346 0.954316 0.19361 -0.15533
C_ C_ 0.770767 0.989713 0.235415 0.02923
C_ C_ 0.820259 0.5 0.248035 -0.15533
C_ C_ 0.859904 0.982911 0.22045 0.18167
C_ C_ 0.991923 0.856855 0.20507 0.18167
C_ C_ 0.513331 0.816445 0.2343 -0.15533
C_ C_ 0.988641 0.77188 0.23419 0.02923
C_ C_ 0.942507 0.771141 0.202775 -0.15533
C_ C_ 0.923079 0.812888 0.17466 0.18167
C_ C_ 0.993806 0.969786 0.134545 0.69207
C_ C_ 0.528684 0.511091 0.135875 0.02923
C_ C_ 0.507952 0.561761 0.14338 -0.15533
C_ C_ 0.537291 0.602198 0.142375 -0.15533
C_ C_ 0.588426 0.592905 0.13225 0.02923
C_ C_ 0.609226 0.54215 0.12375 -0.15533
C_ C_ 0.580372 0.501171 0.12664 0.02923
C_ C_ 0.607152 0.947473 0.12533 0.69207
C_ C_ 0.593684 0.690161 0.131895 0.69661
C_ C_ 0.943186 0.666832 0.435335 0.18167
C_ C_ 0.984452 0.692824 0.454795 -0.15533
C_ C_ 0.977766 0.734857 0.48991 0.02923
C_ C_ 0.928168 0.747595 1.0 -0.15533
C_ C_ 0.888688 0.720002 0.483415 0.18167
C_ C_ 0.756769 0.704635 0.3565 0.18167
C_ C_ 0.735165 0.733794 0.316075 -0.15533
C_ C_ 0.760204 0.734372 0.27159 0.02923
C_ C_ 0.806906 0.703676 0.27097 -0.15533
C_ C_ 0.826448 0.675511 0.31265 0.18167
C_ C_ 0.755003 0.632335 0.46901 0.69207
C_ C_ 0.720054 0.633649 1.0105752 0.02923
C_ C_ 0.740725 0.64099 0.06128 -0.15533
C_ C_ 0.711202 0.64063 0.101925 -0.15533
C_ C_ 0.659932 0.631255 0.0928551 0.02923
C_ C_ 0.639336 0.622444 0.0420802 -0.15533
C_ C_ 0.66834 0.624805 1.000930062 0.02923
C_ C_ 0.641649 0.62398 0.447265 0.69207
C_ C_ 0.653725 0.633486 0.19025 0.69661
C_ C_ 0.875402 0.863744 0.36396 -0.30787
C_ C_ 0.623986 0.635857 0.135825 -0.30787
N_ N_ 0.645064 0.552067 0.31924 -0.32189
N_ N_ 0.551126 0.644566 0.324265 -0.32189
N_ N_ 0.602796 0.819284 0.0510149 -0.32189
N_ N_ 0.69659 0.823873 0.144025 -0.32189
N_ N_ 0.853207 0.9482 0.180865 -0.32189
N_ N_ 0.94711 0.855561 0.175665 -0.32189
N_ N_ 0.895626 0.680271 0.44885 -0.32189
N_ N_ 0.80207 0.675871 0.35528 -0.32189
O_ O_ -0.0025370000000000115 0.571209 0.391985 -0.63271
O_ O_ 0.544478 0.520188 0.339995 -0.57982
O_ O_ 0.891113 0.57767 0.33577 -0.63271
O_ O_ 0.86911 0.567105 0.4151 -0.57982
O_ O_ 0.7513 0.893431 0.0712252 -0.63271
O_ O_ 0.704118 0.841874 0.0202 -0.57982
O_ O_ 0.857525 0.836907 0.0777651 -0.63271
O_ O_ 0.880133 0.915626 0.0664998 -0.57982
O_ O_ 0.502153 0.928664 0.10876 -0.63271
O_ O_ 0.953852 0.97981 0.159595 -0.57982
O_ O_ 0.608669 0.922428 0.164435 -0.63271
O_ O_ 0.628931 0.932787 0.084455 -0.57982
O_ O_ 0.748587 0.604544 0.42896 -0.63271
O_ O_ 0.793119 0.659854 0.478035 -0.57982
O_ O_ 0.642346 0.66237 0.42174 -0.63271
O_ O_ 0.617733 0.584551 0.43307 -0.57982
F_ F_ 0.942005 0.808924 0.40885 -0.20885
F_ F_ 0.931174 0.793629 0.326075 -0.20885
F_ F_ 0.875313 0.773122 0.373555 -0.20885
F_ F_ 0.809325 0.906501 0.30675 -0.20885
F_ F_ 0.822165 0.823536 0.29365 -0.20885
F_ F_ 0.877816 0.87127 0.273215 -0.20885
F_ F_ 0.557846 0.691083 0.0910501 -0.20885
F_ F_ 0.568785 0.706333 0.173925 -0.20885
F_ F_ 0.624651 0.726695 0.126425 -0.20885
F_ F_ 0.69016 0.593163 0.193115 -0.20885
F_ F_ 0.677824 0.676143 0.204535 -0.20885
F_ F_ 0.622202 0.628881 0.22676 -0.20885
Zn Zn 0.5847 0.579908 0.86236 0.83971
Zn Zn 0.662563 0.862399 0.579495 0.83971
Zn Zn 0.913334 0.920243 0.63761 0.83971
Zn Zn 0.83562 0.637578 0.920005 0.83971
H_ H_ 0.69766 0.592172 0.86564 0.10394
H_ H_ 0.770927 0.558613 0.82021 0.10394
H_ H_ 0.668881 0.968298 0.720905 0.10394
H_ H_ 0.59986 0.506544 0.7704 0.10394
H_ H_ -0.01238499999999998 0.608478 0.7948 0.10394
H_ H_ 0.949443 0.679027 0.74184 0.10394
H_ H_ 0.57707 0.762246 0.800775 0.10394
H_ H_ 0.609992 0.687153 0.85147 0.10394
H_ H_ 0.531266 0.931388 0.85078 0.10394
H_ H_ 0.979781 0.859355 0.8509 0.10394
H_ H_ 0.849988 0.965763 0.88436 0.10394
H_ H_ 0.549751 0.866096 0.590715 0.10394
H_ H_ -0.02307400000000004 0.82022 0.55791 0.10394
H_ H_ 0.57984 0.720129 0.96833 0.10394
H_ H_ 0.648475 0.769962 0.50592 0.10394
H_ H_ 0.760821 0.795596 0.607975 0.10394
H_ H_ 0.799761 0.743158 0.67865 0.10394
H_ H_ 0.670632 0.799541 0.761825 0.10394
H_ H_ 0.637203 0.850018 0.68684 0.10394
H_ H_ 0.718384 0.851662 0.930835 0.10394
H_ H_ 0.770774 0.850808 0.858925 0.10394
H_ H_ 0.899258 0.885025 0.96597 0.10394
H_ H_ 0.800572 0.908141 0.63445 0.10394
H_ H_ 0.727392 0.941478 0.68017 0.10394
H_ H_ 0.829476 0.531811 0.77935 0.10394
H_ H_ 0.898469 0.993652 0.72973 0.10394
H_ H_ 0.511021 0.891334 0.70446 0.10394
H_ H_ 0.54951 0.820609 0.757025 0.10394
H_ H_ 0.920843 0.738173 0.699775 0.10394
H_ H_ 0.887887 0.813194 0.649095 0.10394
H_ H_ 0.967905 0.568888 0.65015 0.10394
H_ H_ 0.519637 0.640757 0.64968 0.10394
H_ H_ 0.648807 0.533919 0.6154 0.10394
H_ H_ 0.948614 0.633552 0.90899 0.10394
H_ H_ 0.521495 0.679226 0.9415 0.10394
H_ H_ 0.918709 0.7791 0.5319 0.10394
H_ H_ 0.850028 0.729457 0.99413 0.10394
H_ H_ 0.737464 0.703591 0.89095 0.10394
H_ H_ 0.698534 0.755879 0.820155 0.10394
H_ H_ 0.828912 0.701273 0.738095 0.10394
H_ H_ 0.861989 0.65036 0.812945 0.10394
H_ H_ 0.78082 0.647358 0.56837 0.10394
H_ H_ 0.728877 0.647901 0.64046 0.10394
H_ H_ 0.599729 0.614495 0.53391 0.10394
C_ C_ 0.692499 0.565598 0.83254 0.18167
C_ C_ 0.733977 0.54582 0.806675 -0.15533
C_ C_ 0.727591 0.510392 0.764895 0.02923
C_ C_ 0.678098 0.995853 0.75221 -0.15533
C_ C_ 0.638419 0.517287 0.7797 0.18167
C_ C_ 0.506596 0.643067 0.79442 0.18167
C_ C_ -0.014657000000000031 0.68339 0.765 -0.15533
C_ C_ 0.509842 0.728115 0.76547 0.02923
C_ C_ 0.555654 0.729084 0.79738 -0.15533
C_ C_ 0.574995 0.687376 0.8256 0.18167
C_ C_ 0.505038 0.530223 0.865745 0.69207
C_ C_ 0.970171 -0.011016000000000026 0.86464 0.02923
C_ C_ -0.00884700000000005 0.938378 0.85734 -0.15533
C_ C_ 0.96193 0.897848 0.85812 -0.15533
C_ C_ 0.910676 0.906973 0.867845 0.02923
C_ C_ 0.889652 0.957671 0.876295 -0.15533
C_ C_ 0.918411 -0.0012280000000000069 0.873595 0.02923
C_ C_ 0.891658 0.552497 0.87465 0.69207
C_ C_ 0.906145 0.809713 0.868035 0.69661
C_ C_ 0.555219 0.832723 0.56445 0.18167
C_ C_ 0.513995 0.806632 0.545115 -0.15533
C_ C_ 0.520736 0.764509 0.510115 0.02923
C_ C_ 0.570364 0.75174 0.995545 -0.15533
C_ C_ 0.609803 0.779431 0.516605 0.18167
C_ C_ 0.7417 0.794799 0.642585 0.18167
C_ C_ 0.763389 0.76565 0.683 -0.15533
C_ C_ 0.73872 0.765531 0.727775 0.02923
C_ C_ 0.692286 0.796635 0.72865 -0.15533
C_ C_ 0.672575 0.824633 0.6869 0.18167
C_ C_ 0.74362 0.867348 0.53024 0.69207
C_ C_ 0.7788 0.865804 0.98882 0.02923
C_ C_ 0.758444 0.858133 0.93804 -0.15533
C_ C_ 0.788177 0.858344 0.89753 -0.15533
C_ C_ 0.839335 0.868035 0.90682 0.02923
C_ C_ 0.859697 0.876951 0.957675 -0.15533
C_ C_ 0.830525 0.874632 -0.0012699999999999934 0.02923
C_ C_ 0.857174 0.875632 0.552475 0.69207
C_ C_ 0.845927 0.866202 0.80925 0.69661
C_ C_ 0.805769 0.934636 0.66762 0.18167
C_ C_ 0.764346 0.954315 0.69361 -0.15533
C_ C_ 0.770767 -0.010286000000000017 0.735415 0.02923
C_ C_ 0.820259 0.5 0.748035 -0.15533
C_ C_ 0.859904 0.982911 0.72045 0.18167
C_ C_ 0.991923 0.856854 0.70507 0.18167
C_ C_ 0.513331 0.816445 0.7343 -0.15533
C_ C_ 0.988641 0.771879 0.73419 0.02923
C_ C_ 0.942507 0.771142 0.702775 -0.15533
C_ C_ 0.923078 0.812888 0.67466 0.18167
C_ C_ 0.993806 0.969786 0.634545 0.69207
C_ C_ 0.528684 0.511091 0.635875 0.02923
C_ C_ 0.507952 0.561761 0.64338 -0.15533
C_ C_ 0.53729 0.602198 0.642375 -0.15533
C_ C_ 0.588426 0.592906 0.63225 0.02923
C_ C_ 0.609226 0.54215 0.62375 -0.15533
C_ C_ 0.580372 0.50117 0.62664 0.02923
C_ C_ 0.607152 0.947473 0.62533 0.69207
C_ C_ 0.593684 0.690161 0.631895 0.69661
C_ C_ 0.943186 0.666831 0.935335 0.18167
C_ C_ 0.984451 0.692824 0.954795 -0.15533
C_ C_ 0.977766 0.734857 0.98991 0.02923
C_ C_ 0.928168 0.747595 0.5 -0.15533
C_ C_ 0.888688 0.720003 0.983415 0.18167
C_ C_ 0.756769 0.704634 0.8565 0.18167
C_ C_ 0.735165 0.733794 0.816075 -0.15533
C_ C_ 0.760204 0.734372 0.77159 0.02923
C_ C_ 0.806906 0.703676 0.77097 -0.15533
C_ C_ 0.826448 0.675511 0.81265 0.18167
C_ C_ 0.755003 0.632335 0.96901 0.69207
C_ C_ 0.720054 0.633649 0.510575 0.02923
C_ C_ 0.740724 0.640991 0.56128 -0.15533
C_ C_ 0.711202 0.64063 0.601925 -0.15533
C_ C_ 0.659932 0.631256 0.592855 0.02923
C_ C_ 0.639336 0.622444 0.54208 -0.15533
C_ C_ 0.66834 0.624805 0.50093 0.02923
C_ C_ 0.641649 0.623981 0.947265 0.69207
C_ C_ 0.653725 0.633486 0.69025 0.69661
C_ C_ 0.875402 0.863743 0.86396 -0.30787
C_ C_ 0.623986 0.635857 0.635825 -0.30787
N_ N_ 0.645064 0.552066 0.81924 -0.32189
N_ N_ 0.551126 0.644566 0.824265 -0.32189
N_ N_ 0.602796 0.819284 0.551015 -0.32189
N_ N_ 0.69659 0.823874 0.644025 -0.32189
N_ N_ 0.853207 0.9482 0.680865 -0.32189
N_ N_ 0.94711 0.855561 0.675665 -0.32189
N_ N_ 0.895626 0.680271 0.94885 -0.32189
N_ N_ 0.80207 0.67587 0.85528 -0.32189
O_ O_ 0.997463 0.57121 0.891985 -0.63271
O_ O_ 0.544478 0.520188 0.839995 -0.57982
O_ O_ 0.891114 0.577669 0.83577 -0.63271
O_ O_ 0.869111 0.567106 0.9151 -0.57982
O_ O_ 0.7513 0.893431 0.571225 -0.63271
O_ O_ 0.704118 0.841874 0.5202 -0.57982
O_ O_ 0.857525 0.836907 0.577765 -0.63271
O_ O_ 0.880133 0.915626 0.5665 -0.57982
O_ O_ 0.502153 0.928663 0.60876 -0.63271
O_ O_ 0.953852 0.97981 0.659595 -0.57982
O_ O_ 0.608669 0.922427 0.664435 -0.63271
O_ O_ 0.628931 0.932787 0.584455 -0.57982
O_ O_ 0.748587 0.604545 0.92896 -0.63271
O_ O_ 0.793119 0.659854 0.978035 -0.57982
O_ O_ 0.642346 0.662371 0.92174 -0.63271
O_ O_ 0.617733 0.584551 0.93307 -0.57982
F_ F_ 0.942005 0.808925 0.90885 -0.20885
F_ F_ 0.931174 0.79363 0.826075 -0.20885
F_ F_ 0.875313 0.773122 0.873555 -0.20885
F_ F_ 0.809325 0.906501 0.80675 -0.20885
F_ F_ 0.822165 0.823536 0.79365 -0.20885
F_ F_ 0.877816 0.87127 0.773215 -0.20885
F_ F_ 0.557846 0.691082 0.59105 -0.20885
F_ F_ 0.568785 0.706334 0.673925 -0.20885
F_ F_ 0.624651 0.726694 0.626425 -0.20885
F_ F_ 0.69016 0.593164 0.693115 -0.20885
F_ F_ 0.677824 0.676142 0.704535 -0.20885
F_ F_ 0.622202 0.628881 0.72676 -0.20885
_cell_length_a 26.508
_cell_length_b 26.37200000322088
_cell_length_c 26.311999743092066
_cell_angle_alpha 93.74100058972084
_cell_angle_beta 96.04100104955006
_cell_angle_gamma 83.6869992558723
_symmetry_space_group_name_H-M         'P 1'
_symmetry_Int_Tables_number            1
loop_
_symmetry_equiv_pos_as_xyz
   'x, y, z'
                         
loop_
_atom_site_label
_atom_site_type_symbol
_atom_site_fract_x 
_atom_site_fract_y
_atom_site_fract_z
_atom_site_charge
Zn Zn 0.0846994 0.079908 0.36236 0.83971
Zn Zn 0.162563 0.362399 0.0794951 0.83971
Zn Zn 0.413334 0.420242 0.13761 0.83971
Zn Zn 0.33562 0.137577 0.420005 0.83971
H_ H_ 0.19766 0.0921714 0.36564 0.10394
H_ H_ 0.270927 0.0586136 0.32021 0.10394
H_ H_ 0.168881 0.468299 0.220905 0.10394
H_ H_ 0.0998594 1.00654391 0.2704 0.10394
H_ H_ 0.487614 0.108479 0.2948 0.10394
H_ H_ 0.449443 0.179027 0.24184 0.10394
H_ H_ 0.0770705 0.262245 0.300775 0.10394
H_ H_ 0.109991 0.187153 0.35147 0.10394
H_ H_ 0.0312661 0.431389 0.35078 0.10394
H_ H_ 0.479782 0.359355 0.3509 0.10394
H_ H_ 0.349987 0.465763 0.38436 0.10394
H_ H_ 0.0497514 0.366096 0.0907152 0.10394
H_ H_ 0.476926 0.32022 0.05791 0.10394
H_ H_ 0.0798396 0.22013 0.46833 0.10394
H_ H_ 0.148475 0.269962 1.00591987 0.10394
H_ H_ 0.26082 0.295595 0.107975 0.10394
H_ H_ 0.299761 0.243159 0.17865 0.10394
H_ H_ 0.170633 0.29954 0.261825 0.10394
H_ H_ 0.137204 0.350018 0.18684 0.10394
H_ H_ 0.218384 0.351662 0.430835 0.10394
H_ H_ 0.270774 0.350809 0.358925 0.10394
H_ H_ 0.399258 0.385025 0.46597 0.10394
H_ H_ 0.300572 0.408141 0.13445 0.10394
H_ H_ 0.227392 0.441479 0.18017 0.10394
H_ H_ 0.329476 0.0318115 0.27935 0.10394
H_ H_ 0.398469 0.493653 0.22973 0.10394
H_ H_ 0.0110209 0.391334 0.20446 0.10394
H_ H_ 0.0495099 0.32061 0.257025 0.10394
H_ H_ 0.420843 0.238173 0.199775 0.10394
H_ H_ 0.387887 0.313194 0.149095 0.10394
H_ H_ 0.467905 0.068888 0.15015 0.10394
H_ H_ 0.0196371 0.140757 0.14968 0.10394
H_ H_ 0.148808 0.0339195 0.1154 0.10394
H_ H_ 0.448614 0.133553 0.40899 0.10394
H_ H_ 0.0214949 0.179226 0.4415 0.10394
H_ H_ 0.418709 0.2791 0.0319 0.10394
H_ H_ 0.350028 0.229457 0.49413 0.10394
H_ H_ 0.237464 0.20359 0.39095 0.10394
H_ H_ 0.198533 0.255878 0.320155 0.10394
H_ H_ 0.328912 0.201273 0.238095 0.10394
H_ H_ 0.361989 0.15036 0.312945 0.10394
H_ H_ 0.28082 0.147358 0.0683699 0.10394
H_ H_ 0.228877 0.147902 0.14046 0.10394
H_ H_ 0.0997291 0.114495 0.0339102 0.10394
C_ C_ 0.192499 0.0655974 0.33254 0.18167
C_ C_ 0.233977 0.0458202 0.306675 -0.15533
C_ C_ 0.227591 0.0103921 0.264895 0.02923
C_ C_ 0.178098 0.495853 0.25221 -0.15533
C_ C_ 0.138419 0.0172864 0.2797 0.18167
C_ C_ 0.00659558 0.143068 0.29442 0.18167
C_ C_ 0.485343 0.183389 0.265 -0.15533
C_ C_ 0.00984183 0.228114 0.26547 0.02923
C_ C_ 0.0556536 0.229085 0.29738 -0.15533
C_ C_ 0.0749946 0.187376 0.3256 0.18167
C_ C_ 0.00503788 0.0302229 0.365745 0.69207
C_ C_ 0.470171 0.488985 0.36464 0.02923
C_ C_ 0.491153 0.438378 0.35734 -0.15533
C_ C_ 0.46193 0.397849 0.35812 -0.15533
C_ C_ 0.410676 0.406973 0.367845 0.02923
C_ C_ 0.389652 0.457671 0.376295 -0.15533
C_ C_ 0.418411 0.498772 0.373595 0.02923
C_ C_ 0.391658 0.0524967 0.37465 0.69207
C_ C_ 0.406145 0.309712 0.368035 0.69661
C_ C_ 0.0552184 0.332722 0.0644499 0.18167
C_ C_ 0.0139949 0.306632 0.0451149 -0.15533
C_ C_ 0.0207364 0.264509 0.0101151 0.02923
C_ C_ 0.070364 0.251741 0.495545 -0.15533
C_ C_ 0.109803 0.279432 0.0166049 0.18167
C_ C_ 0.2417 0.294798 0.142585 0.18167
C_ C_ 0.263389 0.26565 0.183 -0.15533
C_ C_ 0.23872 0.265532 0.227775 0.02923
C_ C_ 0.192286 0.296635 0.22865 -0.15533
C_ C_ 0.172574 0.324633 0.1869 0.18167
C_ C_ 0.24362 0.367347 0.03024 0.69207
C_ C_ 0.2788 0.365803 0.48882 0.02923
C_ C_ 0.258444 0.358134 0.43804 -0.15533
C_ C_ 0.288177 0.358345 0.39753 -0.15533
C_ C_ 0.339335 0.368036 0.40682 0.02923
C_ C_ 0.359698 0.376951 0.457675 -0.15533
C_ C_ 0.330524 0.374633 0.49873 0.02923
C_ C_ 0.357174 0.375632 0.052475 0.69207
C_ C_ 0.345927 0.366202 0.30925 0.69661
C_ C_ 0.305769 0.434635 0.16762 0.18167
C_ C_ 0.264346 0.454316 0.19361 -0.15533
C_ C_ 0.270767 0.489713 0.235415 0.02923
C_ C_ 0.320259 3.78989e-08 0.248035 -0.15533
C_ C_ 0.359904 0.482911 0.22045 0.18167
C_ C_ 0.491923 0.356855 0.20507 0.18167
C_ C_ 0.013331 0.316445 0.2343 -0.15533
C_ C_ 0.488641 0.27188 0.23419 0.02923
C_ C_ 0.442507 0.271141 0.202775 -0.15533
C_ C_ 0.423079 0.312888 0.17466 0.18167
C_ C_ 0.493806 0.469786 0.134545 0.69207
C_ C_ 0.028684 1.0110908 0.135875 0.02923
C_ C_ 0.00795163 0.0617611 0.14338 -0.15533
C_ C_ 0.0372905 0.102198 0.142375 -0.15533
C_ C_ 0.0884257 0.0929054 0.13225 0.02923
C_ C_ 0.109226 0.0421499 0.12375 -0.15533
C_ C_ 0.080372 1.00117052 0.12664 0.02923
C_ C_ 0.107153 0.447473 0.12533 0.69207
C_ C_ 0.0936844 0.190162 0.131895 0.69661
C_ C_ 0.443186 0.166832 0.435335 0.18167
C_ C_ 0.484452 0.192824 0.454795 -0.15533
C_ C_ 0.477766 0.234857 0.48991 0.02923
C_ C_ 0.428168 0.247595 0.0 -0.15533
C_ C_ 0.388688 0.220002 0.483415 0.18167
C_ C_ 0.256769 0.204635 0.3565 0.18167
C_ C_ 0.235165 0.233794 0.316075 -0.15533
C_ C_ 0.260204 0.234372 0.27159 0.02923
C_ C_ 0.306906 0.203676 0.27097 -0.15533
C_ C_ 0.326448 0.175511 0.31265 0.18167
C_ C_ 0.255003 0.132335 0.46901 0.69207
C_ C_ 0.220054 0.133649 1.0105752 0.02923
C_ C_ 0.240725 0.14099 0.06128 -0.15533
C_ C_ 0.211202 0.14063 0.101925 -0.15533
C_ C_ 0.159932 0.131255 0.0928551 0.02923
C_ C_ 0.139336 0.122444 0.0420802 -0.15533
C_ C_ 0.16834 0.124805 1.000930062 0.02923
C_ C_ 0.141649 0.12398 0.447265 0.69207
C_ C_ 0.153725 0.133486 0.19025 0.69661
C_ C_ 0.375402 0.363744 0.36396 -0.30787
C_ C_ 0.123986 0.135857 0.135825 -0.30787
N_ N_ 0.145064 0.0520667 0.31924 -0.32189
N_ N_ 0.0511258 0.144566 0.324265 -0.32189
N_ N_ 0.102796 0.319284 0.0510149 -0.32189
N_ N_ 0.19659 0.323873 0.144025 -0.32189
N_ N_ 0.353207 0.4482 0.180865 -0.32189
N_ N_ 0.44711 0.355561 0.175665 -0.32189
N_ N_ 0.395626 0.180271 0.44885 -0.32189
N_ N_ 0.30207 0.175871 0.35528 -0.32189
O_ O_ 0.497463 0.0712095 0.391985 -0.63271
O_ O_ 0.0444779 0.0201879 0.339995 -0.57982
O_ O_ 0.391113 0.0776696 0.33577 -0.63271
O_ O_ 0.36911 0.0671054 0.4151 -0.57982
O_ O_ 0.2513 0.393431 0.0712252 -0.63271
O_ O_ 0.204118 0.341874 0.0202 -0.57982
O_ O_ 0.357525 0.336907 0.0777651 -0.63271
O_ O_ 0.380133 0.415626 0.0664998 -0.57982
O_ O_ 1.00215255 0.428664 0.10876 -0.63271
O_ O_ 0.453852 0.47981 0.159595 -0.57982
O_ O_ 0.108669 0.422428 0.164435 -0.63271
O_ O_ 0.128931 0.432787 0.084455 -0.57982
O_ O_ 0.248587 0.104544 0.42896 -0.63271
O_ O_ 0.293119 0.159854 0.478035 -0.57982
O_ O_ 0.142346 0.16237 0.42174 -0.63271
O_ O_ 0.117733 0.0845509 0.43307 -0.57982
F_ F_ 0.442005 0.308924 0.40885 -0.20885
F_ F_ 0.431174 0.293629 0.326075 -0.20885
F_ F_ 0.375313 0.273122 0.373555 -0.20885
F_ F_ 0.309325 0.406501 0.30675 -0.20885
F_ F_ 0.322165 0.323536 0.29365 -0.20885
F_ F_ 0.377816 0.37127 0.273215 -0.20885
F_ F_ 0.0578456 0.191083 0.0910501 -0.20885
F_ F_ 0.068785 0.206333 0.173925 -0.20885
F_ F_ 0.124651 0.226695 0.126425 -0.20885
F_ F_ 0.19016 0.0931634 0.193115 -0.20885
F_ F_ 0.177824 0.176143 0.204535 -0.20885
F_ F_ 0.122202 0.128881 0.22676 -0.20885
Zn Zn 0.0846994 0.0799078 0.86236 0.83971
Zn Zn 0.162563 0.362399 0.579495 0.83971
Zn Zn 0.413334 0.420243 0.63761 0.83971
Zn Zn 0.33562 0.137577 0.920005 0.83971
H_ H_ 0.19766 0.0921717 0.86564 0.10394
H_ H_ 0.270927 0.0586134 0.82021 0.10394
H_ H_ 0.168881 0.468298 0.720905 0.10394
H_ H_ 0.0998593 1.00654412 0.7704 0.10394
H_ H_ 0.487614 0.108478 0.7948 0.10394
H_ H_ 0.449443 0.179027 0.74184 0.10394
H_ H_ 0.0770704 0.262246 0.800775 0.10394
H_ H_ 0.109992 0.187153 0.85147 0.10394
H_ H_ 0.031266 0.431388 0.85078 0.10394
H_ H_ 0.479782 0.359355 0.8509 0.10394
H_ H_ 0.349988 0.465763 0.88436 0.10394
H_ H_ 0.0497513 0.366096 0.590715 0.10394
H_ H_ 0.476926 0.32022 0.55791 0.10394
H_ H_ 0.0798395 0.22013 0.96833 0.10394
H_ H_ 0.148475 0.269962 0.50592 0.10394
H_ H_ 0.260821 0.295596 0.607975 0.10394
H_ H_ 0.299761 0.243158 0.67865 0.10394
H_ H_ 0.170633 0.299541 0.761825 0.10394
H_ H_ 0.137204 0.350018 0.68684 0.10394
H_ H_ 0.218384 0.351662 0.930835 0.10394
H_ H_ 0.270774 0.350808 0.858925 0.10394
H_ H_ 0.399258 0.385025 0.96597 0.10394
H_ H_ 0.300572 0.408141 0.63445 0.10394
H_ H_ 0.227392 0.441478 0.68017 0.10394
H_ H_ 0.329476 0.0318114 0.77935 0.10394
H_ H_ 0.398469 0.493652 0.72973 0.10394
H_ H_ 0.0110208 0.391334 0.70446 0.10394
H_ H_ 0.0495099 0.320609 0.757025 0.10394
H_ H_ 0.420843 0.238173 0.699775 0.10394
H_ H_ 0.387887 0.313194 0.649095 0.10394
H_ H_ 0.467905 0.0688882 0.65015 0.10394
H_ H_ 0.019637 0.140757 0.64968 0.10394
H_ H_ 0.148808 0.0339194 0.6154 0.10394
H_ H_ 0.448614 0.133552 0.90899 0.10394
H_ H_ 0.0214949 0.179226 0.9415 0.10394
H_ H_ 0.418709 0.2791 0.5319 0.10394
H_ H_ 0.350028 0.229457 -0.005870000000000042 0.10394
H_ H_ 0.237464 0.203591 0.89095 0.10394
H_ H_ 0.198534 0.255879 0.820155 0.10394
H_ H_ 0.328912 0.201273 0.738095 0.10394
H_ H_ 0.361989 0.15036 0.812945 0.10394
H_ H_ 0.28082 0.147358 0.56837 0.10394
H_ H_ 0.228877 0.147901 0.64046 0.10394
H_ H_ 0.0997291 0.114495 0.53391 0.10394
C_ C_ 0.192499 0.0655976 0.83254 0.18167
C_ C_ 0.233977 0.04582 0.806675 -0.15533
C_ C_ 0.227591 0.0103919 0.764895 0.02923
C_ C_ 0.178098 0.495853 0.75221 -0.15533
C_ C_ 0.138419 0.0172867 0.7797 0.18167
C_ C_ 0.00659556 0.143067 0.79442 0.18167
C_ C_ 0.485343 0.18339 0.765 -0.15533
C_ C_ 0.00984215 0.228115 0.76547 0.02923
C_ C_ 0.0556536 0.229084 0.79738 -0.15533
C_ C_ 0.0749946 0.187376 0.8256 0.18167
C_ C_ 0.00503783 0.0302231 0.865745 0.69207
C_ C_ 0.470171 0.488984 0.86464 0.02923
C_ C_ 0.491153 0.438378 0.85734 -0.15533
C_ C_ 0.46193 0.397848 0.85812 -0.15533
C_ C_ 0.410676 0.406973 0.867845 0.02923
C_ C_ 0.389652 0.457671 0.876295 -0.15533
C_ C_ 0.418411 0.498772 0.873595 0.02923
C_ C_ 0.391658 0.0524965 0.87465 0.69207
C_ C_ 0.406145 0.309713 0.868035 0.69661
C_ C_ 0.0552187 0.332723 0.56445 0.18167
C_ C_ 0.0139949 0.306632 0.545115 -0.15533
C_ C_ 0.0207364 0.264509 0.510115 0.02923
C_ C_ 0.070364 0.25174 0.995545 -0.15533
C_ C_ 0.109803 0.279431 0.516605 0.18167
C_ C_ 0.2417 0.294799 0.642585 0.18167
C_ C_ 0.263389 0.26565 0.683 -0.15533
C_ C_ 0.23872 0.265531 0.727775 0.02923
C_ C_ 0.192286 0.296635 0.72865 -0.15533
C_ C_ 0.172575 0.324633 0.6869 0.18167
C_ C_ 0.24362 0.367348 0.53024 0.69207
C_ C_ 0.2788 0.365803 -0.011179999999999968 0.02923
C_ C_ 0.258444 0.358133 0.93804 -0.15533
C_ C_ 0.288177 0.358344 0.89753 -0.15533
C_ C_ 0.339335 0.368035 0.90682 0.02923
C_ C_ 0.359697 0.376951 0.957675 -0.15533
C_ C_ 0.330524 0.374633 -0.0012699999999999934 0.02923
C_ C_ 0.357174 0.375632 0.552475 0.69207
C_ C_ 0.345927 0.366202 0.80925 0.69661
C_ C_ 0.305769 0.434636 0.66762 0.18167
C_ C_ 0.264346 0.454316 0.69361 -0.15533
C_ C_ 0.270767 0.489713 0.735415 0.02923
C_ C_ 0.320259 0.0 0.748035 -0.15533
C_ C_ 0.359904 0.482911 0.72045 0.18167
C_ C_ 0.491923 0.356854 0.70507 0.18167
C_ C_ 0.0133309 0.316445 0.7343 -0.15533
C_ C_ 0.488641 0.271879 0.73419 0.02923
C_ C_ 0.442507 0.271142 0.702775 -0.15533
C_ C_ 0.423078 0.312888 0.67466 0.18167
C_ C_ 0.493806 0.469786 0.634545 0.69207
C_ C_ 0.028684 1.0110911 0.635875 0.02923
C_ C_ 0.00795162 0.061761 0.64338 -0.15533
C_ C_ 0.0372905 0.102198 0.642375 -0.15533
C_ C_ 0.0884256 0.0929056 0.63225 0.02923
C_ C_ 0.109226 0.0421501 0.62375 -0.15533
C_ C_ 0.080372 1.00117037 0.62664 0.02923
C_ C_ 0.107152 0.447473 0.62533 0.69207
C_ C_ 0.0936844 0.190161 0.631895 0.69661
C_ C_ 0.443186 0.166831 0.935335 0.18167
C_ C_ 0.484451 0.192824 0.954795 -0.15533
C_ C_ 0.477766 0.234857 0.98991 0.02923
C_ C_ 0.428168 0.247595 0.5 -0.15533
C_ C_ 0.388688 0.220003 0.983415 0.18167
C_ C_ 0.256769 0.204634 0.8565 0.18167
C_ C_ 0.235165 0.233794 0.816075 -0.15533
C_ C_ 0.260204 0.234372 0.77159 0.02923
C_ C_ 0.306906 0.203676 0.77097 -0.15533
C_ C_ 0.326448 0.175511 0.81265 0.18167
C_ C_ 0.255003 0.132335 0.96901 0.69207
C_ C_ 0.220054 0.133649 0.510575 0.02923
C_ C_ 0.240724 0.140991 0.56128 -0.15533
C_ C_ 0.211202 0.14063 0.601925 -0.15533
C_ C_ 0.159932 0.131256 0.592855 0.02923
C_ C_ 0.139336 0.122444 0.54208 -0.15533
C_ C_ 0.16834 0.124805 0.50093 0.02923
C_ C_ 0.141649 0.123981 0.947265 0.69207
C_ C_ 0.153725 0.133486 0.69025 0.69661
C_ C_ 0.375402 0.363743 0.86396 -0.30787
C_ C_ 0.123986 0.135857 0.635825 -0.30787
N_ N_ 0.145064 0.0520665 0.81924 -0.32189
N_ N_ 0.0511262 0.144566 0.824265 -0.32189
N_ N_ 0.102796 0.319284 0.551015 -0.32189
N_ N_ 0.19659 0.323874 0.644025 -0.32189
N_ N_ 0.353207 0.4482 0.680865 -0.32189
N_ N_ 0.44711 0.355561 0.675665 -0.32189
N_ N_ 0.395626 0.180271 0.94885 -0.32189
N_ N_ 0.30207 0.17587 0.85528 -0.32189
O_ O_ 0.497463 0.0712093 0.891985 -0.63271
O_ O_ 0.0444778 0.0201881 0.839995 -0.57982
O_ O_ 0.391114 0.0776695 0.83577 -0.63271
O_ O_ 0.36911 0.0671056 0.9151 -0.57982
O_ O_ 0.2513 0.393431 0.571225 -0.63271
O_ O_ 0.204118 0.341874 0.5202 -0.57982
O_ O_ 0.357525 0.336907 0.577765 -0.63271
O_ O_ 0.380133 0.415626 0.5665 -0.57982
O_ O_ 1.00215253 0.428663 0.60876 -0.63271
O_ O_ 0.453852 0.47981 0.659595 -0.57982
O_ O_ 0.108669 0.422427 0.664435 -0.63271
O_ O_ 0.128931 0.432787 0.584455 -0.57982
O_ O_ 0.248587 0.104545 0.92896 -0.63271
O_ O_ 0.293119 0.159854 0.978035 -0.57982
O_ O_ 0.142346 0.162371 0.92174 -0.63271
O_ O_ 0.117733 0.0845512 0.93307 -0.57982
F_ F_ 0.442005 0.308925 0.90885 -0.20885
F_ F_ 0.431174 0.29363 0.826075 -0.20885
F_ F_ 0.375313 0.273122 0.873555 -0.20885
F_ F_ 0.309325 0.406501 0.80675 -0.20885
F_ F_ 0.322165 0.323536 0.79365 -0.20885
F_ F_ 0.377816 0.37127 0.773215 -0.20885
F_ F_ 0.0578456 0.191082 0.59105 -0.20885
F_ F_ 0.068785 0.206334 0.673925 -0.20885
F_ F_ 0.124651 0.226694 0.626425 -0.20885
F_ F_ 0.19016 0.0931636 0.693115 -0.20885
F_ F_ 0.177824 0.176142 0.704535 -0.20885
F_ F_ 0.122202 0.128881 0.72676 -0.20885
Zn Zn 0.0846994 0.579908 0.36236 0.83971
Zn Zn 0.162563 0.862399 0.0794951 0.83971
Zn Zn 0.413334 0.920242 0.13761 0.83971
Zn Zn 0.33562 0.637577 0.420005 0.83971
H_ H_ 0.19766 0.592171 0.36564 0.10394
H_ H_ 0.270927 0.558614 0.32021 0.10394
H_ H_ 0.168881 0.968299 0.220905 0.10394
H_ H_ 0.0998594 0.506544 0.2704 0.10394
H_ H_ 0.487614 0.608479 0.2948 0.10394
H_ H_ 0.449443 0.679027 0.24184 0.10394
H_ H_ 0.0770704 0.762245 0.300775 0.10394
H_ H_ 0.109991 0.687153 0.35147 0.10394
H_ H_ 0.031266 0.931388 0.35078 0.10394
H_ H_ 0.479782 0.859355 0.3509 0.10394
H_ H_ 0.349987 0.965763 0.38436 0.10394
H_ H_ 0.0497514 0.866096 0.0907152 0.10394
H_ H_ 0.476926 0.82022 0.05791 0.10394
H_ H_ 0.0798395 0.72013 0.46833 0.10394
H_ H_ 0.148475 0.769962 1.00591987 0.10394
H_ H_ 0.26082 0.795595 0.107975 0.10394
H_ H_ 0.299761 0.743159 0.17865 0.10394
H_ H_ 0.170633 0.799541 0.261825 0.10394
H_ H_ 0.137204 0.850018 0.18684 0.10394
H_ H_ 0.218384 0.851662 0.430835 0.10394
H_ H_ 0.270774 0.850809 0.358925 0.10394
H_ H_ 0.399258 0.885025 0.46597 0.10394
H_ H_ 0.300572 0.908141 0.13445 0.10394
H_ H_ 0.227392 0.941479 0.18017 0.10394
H_ H_ 0.329476 0.531811 0.27935 0.10394
H_ H_ 0.398469 -0.0063469999999999915 0.22973 0.10394
H_ H_ 0.0110209 0.891334 0.20446 0.10394
H_ H_ 0.0495099 0.82061 0.257025 0.10394
H_ H_ 0.420843 0.738173 0.199775 0.10394
H_ H_ 0.387887 0.813194 0.149095 0.10394
H_ H_ 0.467905 0.568888 0.15015 0.10394
H_ H_ 0.019637 0.640757 0.14968 0.10394
H_ H_ 0.148808 0.533919 0.1154 0.10394
H_ H_ 0.448614 0.633553 0.40899 0.10394
H_ H_ 0.0214949 0.679226 0.4415 0.10394
H_ H_ 0.418709 0.7791 0.0319 0.10394
H_ H_ 0.350028 0.729457 0.49413 0.10394
H_ H_ 0.237464 0.70359 0.39095 0.10394
H_ H_ 0.198533 0.755878 0.320155 0.10394
H_ H_ 0.328912 0.701273 0.238095 0.10394
H_ H_ 0.361989 0.65036 0.312945 0.10394
H_ H_ 0.28082 0.647358 0.0683699 0.10394
H_ H_ 0.228877 0.647902 0.14046 0.10394
H_ H_ 0.0997291 0.614495 0.0339102 0.10394
C_ C_ 0.192499 0.565597 0.33254 0.18167
C_ C_ 0.233977 0.54582 0.306675 -0.15533
C_ C_ 0.227591 0.510392 0.264895 0.02923
C_ C_ 0.178098 0.995853 0.25221 -0.15533
C_ C_ 0.138419 0.517286 0.2797 0.18167
C_ C_ 0.00659556 0.643068 0.29442 0.18167
C_ C_ 0.485343 0.683389 0.265 -0.15533
C_ C_ 0.00984219 0.728114 0.26547 0.02923
C_ C_ 0.0556536 0.729085 0.29738 -0.15533
C_ C_ 0.0749946 0.687376 0.3256 0.18167
C_ C_ 0.00503787 0.530223 0.365745 0.69207
C_ C_ 0.470171 -0.011014999999999997 0.36464 0.02923
C_ C_ 0.491153 0.938378 0.35734 -0.15533
C_ C_ 0.46193 0.897849 0.35812 -0.15533
C_ C_ 0.410676 0.906973 0.367845 0.02923
C_ C_ 0.389652 0.957671 0.376295 -0.15533
C_ C_ 0.418411 -0.0012280000000000069 0.373595 0.02923
C_ C_ 0.391658 0.552497 0.37465 0.69207
C_ C_ 0.406145 0.809712 0.368035 0.69661
C_ C_ 0.0552183 0.832722 0.0644499 0.18167
C_ C_ 0.0139949 0.806632 0.0451149 -0.15533
C_ C_ 0.0207364 0.764509 0.0101151 0.02923
C_ C_ 0.070364 0.751741 0.495545 -0.15533
C_ C_ 0.109803 0.779432 0.0166049 0.18167
C_ C_ 0.2417 0.794798 0.142585 0.18167
C_ C_ 0.263389 0.76565 0.183 -0.15533
C_ C_ 0.23872 0.765531 0.227775 0.02923
C_ C_ 0.192286 0.796635 0.22865 -0.15533
C_ C_ 0.172575 0.824633 0.1869 0.18167
C_ C_ 0.24362 0.867348 0.03024 0.69207
C_ C_ 0.2788 0.865803 0.48882 0.02923
C_ C_ 0.258444 0.858134 0.43804 -0.15533
C_ C_ 0.288177 0.858345 0.39753 -0.15533
C_ C_ 0.339335 0.868036 0.40682 0.02923
C_ C_ 0.359698 0.876951 0.457675 -0.15533
C_ C_ 0.330524 0.874633 0.49873 0.02923
C_ C_ 0.357174 0.875632 0.052475 0.69207
C_ C_ 0.345927 0.866202 0.30925 0.69661
C_ C_ 0.305769 0.934635 0.16762 0.18167
C_ C_ 0.264346 0.954316 0.19361 -0.15533
C_ C_ 0.270767 0.989713 0.235415 0.02923
C_ C_ 0.320259 0.5 0.248035 -0.15533
C_ C_ 0.359904 0.982911 0.22045 0.18167
C_ C_ 0.491923 0.856855 0.20507 0.18167
C_ C_ 0.0133309 0.816445 0.2343 -0.15533
C_ C_ 0.488641 0.77188 0.23419 0.02923
C_ C_ 0.442507 0.771141 0.202775 -0.15533
C_ C_ 0.423079 0.812888 0.17466 0.18167
C_ C_ 0.493806 0.969786 0.134545 0.69207
C_ C_ 0.028684 0.511091 0.135875 0.02923
C_ C_ 0.00795161 0.561761 0.14338 -0.15533
C_ C_ 0.0372905 0.602198 0.142375 -0.15533
C_ C_ 0.0884257 0.592905 0.13225 0.02923
C_ C_ 0.109226 0.54215 0.12375 -0.15533
C_ C_ 0.080372 0.501171 0.12664 0.02923
C_ C_ 0.107152 0.947473 0.12533 0.69207
C_ C_ 0.0936844 0.690161 0.131895 0.69661
C_ C_ 0.443186 0.666832 0.435335 0.18167
C_ C_ 0.484452 0.692824 0.454795 -0.15533
C_ C_ 0.477766 0.734857 0.48991 0.02923
C_ C_ 0.428168 0.747595 0.0 -0.15533
C_ C_ 0.388688 0.720002 0.483415 0.18167
C_ C_ 0.256769 0.704635 0.3565 0.18167
C_ C_ 0.235165 0.733794 0.316075 -0.15533
C_ C_ 0.260204 0.734372 0.27159 0.02923
C_ C_ 0.306906 0.703676 0.27097 -0.15533
C_ C_ 0.326448 0.675511 0.31265 0.18167
C_ C_ 0.255003 0.632335 0.46901 0.69207
C_ C_ 0.220054 0.633649 1.0105752 0.02923
C_ C_ 0.240725 0.64099 0.06128 -0.15533
C_ C_ 0.211202 0.64063 0.101925 -0.15533
C_ C_ 0.159932 0.631255 0.0928551 0.02923
C_ C_ 0.139336 0.622444 0.0420802 -0.15533
C_ C_ 0.16834 0.624805 1.000930062 0.02923
C_ C_ 0.141649 0.62398 0.447265 0.69207
C_ C_ 0.153725 0.633486 0.19025 0.69661
C_ C_ 0.375402 0.863744 0.36396 -0.30787
C_ C_ 0.123986 0.635857 0.135825 -0.30787
N_ N_ 0.145064 0.552067 0.31924 -0.32189
N_ N_ 0.0511258 0.644566 0.324265 -0.32189
N_ N_ 0.102796 0.819284 0.0510149 -0.32189
N_ N_ 0.19659 0.823873 0.144025 -0.32189
N_ N_ 0.353207 0.9482 0.180865 -0.32189
N_ N_ 0.44711 0.855561 0.175665 -0.32189
N_ N_ 0.395626 0.680271 0.44885 -0.32189
N_ N_ 0.30207 0.675871 0.35528 -0.32189
O_ O_ 0.497463 0.571209 0.391985 -0.63271
O_ O_ 0.0444779 0.520188 0.339995 -0.57982
O_ O_ 0.391113 0.57767 0.33577 -0.63271
O_ O_ 0.36911 0.567105 0.4151 -0.57982
O_ O_ 0.2513 0.893431 0.0712252 -0.63271
O_ O_ 0.204118 0.841874 0.0202 -0.57982
O_ O_ 0.357525 0.836907 0.0777651 -0.63271
O_ O_ 0.380133 0.915626 0.0664998 -0.57982
O_ O_ 1.00215253 0.928664 0.10876 -0.63271
O_ O_ 0.453852 0.97981 0.159595 -0.57982
O_ O_ 0.108669 0.922428 0.164435 -0.63271
O_ O_ 0.128931 0.932787 0.084455 -0.57982
O_ O_ 0.248587 0.604544 0.42896 -0.63271
O_ O_ 0.293119 0.659854 0.478035 -0.57982
O_ O_ 0.142346 0.66237 0.42174 -0.63271
O_ O_ 0.117733 0.584551 0.43307 -0.57982
F_ F_ 0.442005 0.808924 0.40885 -0.20885
F_ F_ 0.431174 0.793629 0.326075 -0.20885
F_ F_ 0.375313 0.773122 0.373555 -0.20885
F_ F_ 0.309325 0.906501 0.30675 -0.20885
F_ F_ 0.322165 0.823536 0.29365 -0.20885
F_ F_ 0.377816 0.87127 0.273215 -0.20885
F_ F_ 0.0578456 0.691083 0.0910501 -0.20885
F_ F_ 0.068785 0.706333 0.173925 -0.20885
F_ F_ 0.124651 0.726695 0.126425 -0.20885
F_ F_ 0.19016 0.593163 0.193115 -0.20885
F_ F_ 0.177824 0.676143 0.204535 -0.20885
F_ F_ 0.122202 0.628881 0.22676 -0.20885
Zn Zn 0.0846997 0.579908 0.86236 0.83971
Zn Zn 0.162563 0.862399 0.579495 0.83971
Zn Zn 0.413334 0.920243 0.63761 0.83971
Zn Zn 0.33562 0.637578 0.920005 0.83971
H_ H_ 0.19766 0.592172 0.86564 0.10394
H_ H_ 0.270927 0.558613 0.82021 0.10394
H_ H_ 0.168881 0.968298 0.720905 0.10394
H_ H_ 0.0998597 0.506544 0.7704 0.10394
H_ H_ 0.487615 0.608478 0.7948 0.10394
H_ H_ 0.449443 0.679027 0.74184 0.10394
H_ H_ 0.0770704 0.762246 0.800775 0.10394
H_ H_ 0.109992 0.687153 0.85147 0.10394
H_ H_ 0.031266 0.931388 0.85078 0.10394
H_ H_ 0.479781 0.859355 0.8509 0.10394
H_ H_ 0.349988 0.965763 0.88436 0.10394
H_ H_ 0.0497513 0.866096 0.590715 0.10394
H_ H_ 0.476926 0.82022 0.55791 0.10394
H_ H_ 0.0798395 0.720129 0.96833 0.10394
H_ H_ 0.148475 0.769962 0.50592 0.10394
H_ H_ 0.260821 0.795596 0.607975 0.10394
H_ H_ 0.299761 0.743158 0.67865 0.10394
H_ H_ 0.170632 0.799541 0.761825 0.10394
H_ H_ 0.137203 0.850018 0.68684 0.10394
H_ H_ 0.218384 0.851662 0.930835 0.10394
H_ H_ 0.270774 0.850808 0.858925 0.10394
H_ H_ 0.399258 0.885025 0.96597 0.10394
H_ H_ 0.300572 0.908141 0.63445 0.10394
H_ H_ 0.227392 0.941478 0.68017 0.10394
H_ H_ 0.329476 0.531811 0.77935 0.10394
H_ H_ 0.398469 -0.00634800000000002 0.72973 0.10394
H_ H_ 0.0110208 0.891334 0.70446 0.10394
H_ H_ 0.0495099 0.820609 0.757025 0.10394
H_ H_ 0.420843 0.738173 0.699775 0.10394
H_ H_ 0.387887 0.813194 0.649095 0.10394
H_ H_ 0.467905 0.568888 0.65015 0.10394
H_ H_ 0.019637 0.640757 0.64968 0.10394
H_ H_ 0.148807 0.533919 0.6154 0.10394
H_ H_ 0.448614 0.633552 0.90899 0.10394
H_ H_ 0.0214949 0.679226 0.9415 0.10394
H_ H_ 0.418709 0.7791 0.5319 0.10394
H_ H_ 0.350028 0.729457 -0.005870000000000042 0.10394
H_ H_ 0.237464 0.703591 0.89095 0.10394
H_ H_ 0.198534 0.755879 0.820155 0.10394
H_ H_ 0.328912 0.701273 0.738095 0.10394
H_ H_ 0.361989 0.65036 0.812945 0.10394
H_ H_ 0.28082 0.647358 0.56837 0.10394
H_ H_ 0.228877 0.647901 0.64046 0.10394
H_ H_ 0.0997291 0.614495 0.53391 0.10394
C_ C_ 0.192499 0.565598 0.83254 0.18167
C_ C_ 0.233977 0.54582 0.806675 -0.15533
C_ C_ 0.227591 0.510392 0.764895 0.02923
C_ C_ 0.178098 0.995853 0.75221 -0.15533
C_ C_ 0.138419 0.517287 0.7797 0.18167
C_ C_ 0.00659554 0.643067 0.79442 0.18167
C_ C_ 0.485343 0.68339 0.765 -0.15533
C_ C_ 0.00984213 0.728115 0.76547 0.02923
C_ C_ 0.0556535 0.729084 0.79738 -0.15533
C_ C_ 0.0749946 0.687376 0.8256 0.18167
C_ C_ 0.00503819 0.530223 0.865745 0.69207
C_ C_ 0.470171 -0.011016000000000026 0.86464 0.02923
C_ C_ 0.491153 0.938378 0.85734 -0.15533
C_ C_ 0.46193 0.897848 0.85812 -0.15533
C_ C_ 0.410676 0.906973 0.867845 0.02923
C_ C_ 0.389652 0.957671 0.876295 -0.15533
C_ C_ 0.418411 -0.0012280000000000069 0.873595 0.02923
C_ C_ 0.391658 0.552497 0.87465 0.69207
C_ C_ 0.406145 0.809713 0.868035 0.69661
C_ C_ 0.0552187 0.832723 0.56445 0.18167
C_ C_ 0.0139949 0.806632 0.545115 -0.15533
C_ C_ 0.0207364 0.764509 0.510115 0.02923
C_ C_ 0.070364 0.75174 0.995545 -0.15533
C_ C_ 0.109803 0.779431 0.516605 0.18167
C_ C_ 0.2417 0.794799 0.642585 0.18167
C_ C_ 0.263389 0.76565 0.683 -0.15533
C_ C_ 0.23872 0.765531 0.727775 0.02923
C_ C_ 0.192286 0.796635 0.72865 -0.15533
C_ C_ 0.172575 0.824633 0.6869 0.18167
C_ C_ 0.24362 0.867348 0.53024 0.69207
C_ C_ 0.2788 0.865804 -0.011179999999999968 0.02923
C_ C_ 0.258444 0.858133 0.93804 -0.15533
C_ C_ 0.288177 0.858344 0.89753 -0.15533
C_ C_ 0.339335 0.868035 0.90682 0.02923
C_ C_ 0.359697 0.876951 0.957675 -0.15533
C_ C_ 0.330525 0.874632 -0.0012699999999999934 0.02923
C_ C_ 0.357174 0.875632 0.552475 0.69207
C_ C_ 0.345927 0.866202 0.80925 0.69661
C_ C_ 0.305769 0.934636 0.66762 0.18167
C_ C_ 0.264346 0.954315 0.69361 -0.15533
C_ C_ 0.270767 0.989714 0.735415 0.02923
C_ C_ 0.320259 0.5 0.748035 -0.15533
C_ C_ 0.359904 0.982911 0.72045 0.18167
C_ C_ 0.491923 0.856854 0.70507 0.18167
C_ C_ 0.0133309 0.816445 0.7343 -0.15533
C_ C_ 0.488641 0.771879 0.73419 0.02923
C_ C_ 0.442507 0.771142 0.702775 -0.15533
C_ C_ 0.423078 0.812888 0.67466 0.18167
C_ C_ 0.493806 0.969786 0.634545 0.69207
C_ C_ 0.028684 0.511091 0.635875 0.02923
C_ C_ 1.0079516 0.561761 0.64338 -0.15533
C_ C_ 0.0372905 0.602198 0.642375 -0.15533
C_ C_ 0.0884256 0.592906 0.63225 0.02923
C_ C_ 0.109226 0.54215 0.62375 -0.15533
C_ C_ 0.080372 0.50117 0.62664 0.02923
C_ C_ 0.107152 0.947473 0.62533 0.69207
C_ C_ 0.0936844 0.690161 0.631895 0.69661
C_ C_ 0.443186 0.666831 0.935335 0.18167
C_ C_ 0.484451 0.692824 0.954795 -0.15533
C_ C_ 0.477766 0.734857 -0.010090000000000043 0.02923
C_ C_ 0.428168 0.747595 0.5 -0.15533
C_ C_ 0.388688 0.720003 0.983415 0.18167
C_ C_ 0.256769 0.704634 0.8565 0.18167
C_ C_ 0.235165 0.733794 0.816075 -0.15533
C_ C_ 0.260204 0.734372 0.77159 0.02923
C_ C_ 0.306906 0.703676 0.77097 -0.15533
C_ C_ 0.326448 0.675511 0.81265 0.18167
C_ C_ 0.255003 0.632335 0.96901 0.69207
C_ C_ 0.220054 0.633649 0.510575 0.02923
C_ C_ 0.240724 0.640991 0.56128 -0.15533
C_ C_ 0.211202 0.64063 0.601925 -0.15533
C_ C_ 0.159932 0.631256 0.592855 0.02923
C_ C_ 0.139336 0.622444 0.54208 -0.15533
C_ C_ 0.16834 0.624805 0.50093 0.02923
C_ C_ 0.141649 0.623981 0.947265 0.69207
C_ C_ 0.153725 0.633486 0.69025 0.69661
C_ C_ 0.375402 0.863743 0.86396 -0.30787
C_ C_ 0.123986 0.635857 0.635825 -0.30787
N_ N_ 0.145064 0.552066 0.81924 -0.32189
N_ N_ 0.0511262 0.644566 0.824265 -0.32189
N_ N_ 0.102796 0.819284 0.551015 -0.32189
N_ N_ 0.19659 0.823874 0.644025 -0.32189
N_ N_ 0.353207 0.9482 0.680865 -0.32189
N_ N_ 0.44711 0.855561 0.675665 -0.32189
N_ N_ 0.395626 0.680271 0.94885 -0.32189
N_ N_ 0.30207 0.67587 0.85528 -0.32189
O_ O_ 0.497463 0.57121 0.891985 -0.63271
O_ O_ 0.0444778 0.520188 0.839995 -0.57982
O_ O_ 0.391114 0.577669 0.83577 -0.63271
O_ O_ 0.369111 0.567106 0.9151 -0.57982
O_ O_ 0.2513 0.893431 0.571225 -0.63271
O_ O_ 0.204118 0.841874 0.5202 -0.57982
O_ O_ 0.357525 0.836907 0.577765 -0.63271
O_ O_ 0.380133 0.915626 0.5665 -0.57982
O_ O_ 1.00215251 0.928663 0.60876 -0.63271
O_ O_ 0.453852 0.97981 0.659595 -0.57982
O_ O_ 0.108669 0.922427 0.664435 -0.63271
O_ O_ 0.128931 0.932787 0.584455 -0.57982
O_ O_ 0.248587 0.604545 0.92896 -0.63271
O_ O_ 0.293119 0.659854 0.978035 -0.57982
O_ O_ 0.142346 0.662371 0.92174 -0.63271
O_ O_ 0.117733 0.584551 0.93307 -0.57982
F_ F_ 0.442005 0.808925 0.90885 -0.20885
F_ F_ 0.431174 0.79363 0.826075 -0.20885
F_ F_ 0.375313 0.773122 0.873555 -0.20885
F_ F_ 0.309325 0.906501 0.80675 -0.20885
F_ F_ 0.322165 0.823536 0.79365 -0.20885
F_ F_ 0.377816 0.87127 0.773215 -0.20885
F_ F_ 0.0578456 0.691082 0.59105 -0.20885
F_ F_ 0.068785 0.706334 0.673925 -0.20885
F_ F_ 0.124651 0.726694 0.626425 -0.20885
F_ F_ 0.19016 0.593164 0.693115 -0.20885
F_ F_ 0.177824 0.676142 0.704535 -0.20885
F_ F_ 0.122202 0.628881 0.72676 -0.20885
Zn Zn 0.584699 0.079908 0.36236 0.83971
Zn Zn 0.662563 0.362399 0.0794951 0.83971
Zn Zn 0.913334 0.420242 0.13761 0.83971
Zn Zn 0.83562 0.137577 0.420005 0.83971
H_ H_ 0.69766 0.0921714 0.36564 0.10394
H_ H_ 0.770927 0.0586136 0.32021 0.10394
H_ H_ 0.668881 0.468299 0.220905 0.10394
H_ H_ 0.599859 1.00654391 0.2704 0.10394
H_ H_ -0.012386000000000008 0.108479 0.2948 0.10394
H_ H_ 0.949443 0.179027 0.24184 0.10394
H_ H_ 0.57707 0.262245 0.300775 0.10394
H_ H_ 0.609991 0.187153 0.35147 0.10394
H_ H_ 0.531266 0.431389 0.35078 0.10394
H_ H_ 0.979782 0.359355 0.3509 0.10394
H_ H_ 0.849987 0.465763 0.38436 0.10394
H_ H_ 0.549751 0.366096 0.0907152 0.10394
H_ H_ 0.976926 0.32022 0.05791 0.10394
H_ H_ 0.57984 0.22013 0.46833 0.10394
H_ H_ 0.648475 0.269962 1.00591987 0.10394
H_ H_ 0.76082 0.295595 0.107975 0.10394
H_ H_ 0.799761 0.243159 0.17865 0.10394
H_ H_ 0.670633 0.29954 0.261825 0.10394
H_ H_ 0.637204 0.350018 0.18684 0.10394
H_ H_ 0.718384 0.351662 0.430835 0.10394
H_ H_ 0.770774 0.350809 0.358925 0.10394
H_ H_ 0.899258 0.385025 0.46597 0.10394
H_ H_ 0.800572 0.408141 0.13445 0.10394
H_ H_ 0.727392 0.441479 0.18017 0.10394
H_ H_ 0.829476 0.0318115 0.27935 0.10394
H_ H_ 0.898469 0.493653 0.22973 0.10394
H_ H_ 0.511021 0.391334 0.20446 0.10394
H_ H_ 0.54951 0.32061 0.257025 0.10394
H_ H_ 0.920843 0.238173 0.199775 0.10394
H_ H_ 0.887887 0.313194 0.149095 0.10394
H_ H_ 0.967905 0.068888 0.15015 0.10394
H_ H_ 0.519637 0.140757 0.14968 0.10394
H_ H_ 0.648808 0.0339195 0.1154 0.10394
H_ H_ 0.948614 0.133553 0.40899 0.10394
H_ H_ 0.521495 0.179226 0.4415 0.10394
H_ H_ 0.918709 0.2791 0.0319 0.10394
H_ H_ 0.850028 0.229457 0.49413 0.10394
H_ H_ 0.737464 0.20359 0.39095 0.10394
H_ H_ 0.698533 0.255878 0.320155 0.10394
H_ H_ 0.828912 0.201273 0.238095 0.10394
H_ H_ 0.861989 0.15036 0.312945 0.10394
H_ H_ 0.78082 0.147358 0.0683699 0.10394
H_ H_ 0.728877 0.147902 0.14046 0.10394
H_ H_ 0.599729 0.114495 0.0339102 0.10394
C_ C_ 0.692499 0.0655974 0.33254 0.18167
C_ C_ 0.733977 0.0458202 0.306675 -0.15533
C_ C_ 0.727591 0.0103921 0.264895 0.02923
C_ C_ 0.678098 0.495853 0.25221 -0.15533
C_ C_ 0.638419 0.0172864 0.2797 0.18167
C_ C_ 0.506596 0.143068 0.29442 0.18167
C_ C_ -0.014657000000000031 0.183389 0.265 -0.15533
C_ C_ 0.509842 0.228114 0.26547 0.02923
C_ C_ 0.555654 0.229085 0.29738 -0.15533
C_ C_ 0.574995 0.187376 0.3256 0.18167
C_ C_ 0.505038 0.0302229 0.365745 0.69207
C_ C_ 0.970171 0.488985 0.36464 0.02923
C_ C_ 0.991153 0.438378 0.35734 -0.15533
C_ C_ 0.96193 0.397849 0.35812 -0.15533
C_ C_ 0.910676 0.406973 0.367845 0.02923
C_ C_ 0.889652 0.457671 0.376295 -0.15533
C_ C_ 0.918411 0.498772 0.373595 0.02923
C_ C_ 0.891658 0.0524967 0.37465 0.69207
C_ C_ 0.906145 0.309712 0.368035 0.69661
C_ C_ 0.555218 0.332722 0.0644499 0.18167
C_ C_ 0.513995 0.306632 0.0451149 -0.15533
C_ C_ 0.520736 0.264509 0.0101151 0.02923
C_ C_ 0.570364 0.251741 0.495545 -0.15533
C_ C_ 0.609803 0.279432 0.0166049 0.18167
C_ C_ 0.7417 0.294798 0.142585 0.18167
C_ C_ 0.763389 0.26565 0.183 -0.15533
C_ C_ 0.73872 0.265532 0.227775 0.02923
C_ C_ 0.692286 0.296635 0.22865 -0.15533
C_ C_ 0.672574 0.324633 0.1869 0.18167
C_ C_ 0.74362 0.367347 0.03024 0.69207
C_ C_ 0.7788 0.365803 0.48882 0.02923
C_ C_ 0.758444 0.358134 0.43804 -0.15533
C_ C_ 0.788177 0.358345 0.39753 -0.15533
C_ C_ 0.839335 0.368036 0.40682 0.02923
C_ C_ 0.859698 0.376951 0.457675 -0.15533
C_ C_ 0.830524 0.374633 0.49873 0.02923
C_ C_ 0.857174 0.375632 0.052475 0.69207
C_ C_ 0.845927 0.366202 0.30925 0.69661
C_ C_ 0.805769 0.434635 0.16762 0.18167
C_ C_ 0.764346 0.454316 0.19361 -0.15533
C_ C_ 0.770767 0.489713 0.235415 0.02923
C_ C_ 0.820259 3.78989e-08 0.248035 -0.15533
C_ C_ 0.859904 0.482911 0.22045 0.18167
C_ C_ 0.991923 0.356855 0.20507 0.18167
C_ C_ 0.513331 0.316445 0.2343 -0.15533
C_ C_ 0.988641 0.27188 0.23419 0.02923
C_ C_ 0.942507 0.271141 0.202775 -0.15533
C_ C_ 0.923079 0.312888 0.17466 0.18167
C_ C_ 0.993806 0.469786 0.134545 0.69207
C_ C_ 0.528684 1.0110908 0.135875 0.02923
C_ C_ 0.507952 0.0617611 0.14338 -0.15533
C_ C_ 0.537291 0.102198 0.142375 -0.15533
C_ C_ 0.588426 0.0929054 0.13225 0.02923
C_ C_ 0.609226 0.0421499 0.12375 -0.15533
C_ C_ 0.580372 1.00117052 0.12664 0.02923
C_ C_ 0.607153 0.447473 0.12533 0.69207
C_ C_ 0.593684 0.190162 0.131895 0.69661
C_ C_ 0.943186 0.166832 0.435335 0.18167
C_ C_ 0.984452 0.192824 0.454795 -0.15533
C_ C_ 0.977766 0.234857 0.48991 0.02923
C_ C_ 0.928168 0.247595 0.0 -0.15533
C_ C_ 0.888688 0.220002 0.483415 0.18167
C_ C_ 0.756769 0.204635 0.3565 0.18167
C_ C_ 0.735165 0.233794 0.316075 -0.15533
C_ C_ 0.760204 0.234372 0.27159 0.02923
C_ C_ 0.806906 0.203676 0.27097 -0.15533
C_ C_ 0.826448 0.175511 0.31265 0.18167
C_ C_ 0.755003 0.132335 0.46901 0.69207
C_ C_ 0.720054 0.133649 1.0105752 0.02923
C_ C_ 0.740725 0.14099 0.06128 -0.15533
C_ C_ 0.711202 0.14063 0.101925 -0.15533
C_ C_ 0.659932 0.131255 0.0928551 0.02923
C_ C_ 0.639336 0.122444 0.0420802 -0.15533
C_ C_ 0.66834 0.124805 1.000930062 0.02923
C_ C_ 0.641649 0.12398 0.447265 0.69207
C_ C_ 0.653725 0.133486 0.19025 0.69661
C_ C_ 0.875402 0.363744 0.36396 -0.30787
C_ C_ 0.623986 0.135857 0.135825 -0.30787
N_ N_ 0.645064 0.0520667 0.31924 -0.32189
N_ N_ 0.551126 0.144566 0.324265 -0.32189
N_ N_ 0.602796 0.319284 0.0510149 -0.32189
N_ N_ 0.69659 0.323873 0.144025 -0.32189
N_ N_ 0.853207 0.4482 0.180865 -0.32189
N_ N_ 0.94711 0.355561 0.175665 -0.32189
N_ N_ 0.895626 0.180271 0.44885 -0.32189
N_ N_ 0.80207 0.175871 0.35528 -0.32189
O_ O_ -0.0025370000000000115 0.0712095 0.391985 -0.63271
O_ O_ 0.544478 0.0201879 0.339995 -0.57982
O_ O_ 0.891113 0.0776696 0.33577 -0.63271
O_ O_ 0.86911 0.0671054 0.4151 -0.57982
O_ O_ 0.7513 0.393431 0.0712252 -0.63271
O_ O_ 0.704118 0.341874 0.0202 -0.57982
O_ O_ 0.857525 0.336907 0.0777651 -0.63271
O_ O_ 0.880133 0.415626 0.0664998 -0.57982
O_ O_ 0.502153 0.428664 0.10876 -0.63271
O_ O_ 0.953852 0.47981 0.159595 -0.57982
O_ O_ 0.608669 0.422428 0.164435 -0.63271
O_ O_ 0.628931 0.432787 0.084455 -0.57982
O_ O_ 0.748587 0.104544 0.42896 -0.63271
O_ O_ 0.793119 0.159854 0.478035 -0.57982
O_ O_ 0.642346 0.16237 0.42174 -0.63271
O_ O_ 0.617733 0.0845509 0.43307 -0.57982
F_ F_ 0.942005 0.308924 0.40885 -0.20885
F_ F_ 0.931174 0.293629 0.326075 -0.20885
F_ F_ 0.875313 0.273122 0.373555 -0.20885
F_ F_ 0.809325 0.406501 0.30675 -0.20885
F_ F_ 0.822165 0.323536 0.29365 -0.20885
F_ F_ 0.877816 0.37127 0.273215 -0.20885
F_ F_ 0.557846 0.191083 0.0910501 -0.20885
F_ F_ 0.568785 0.206333 0.173925 -0.20885
F_ F_ 0.624651 0.226695 0.126425 -0.20885
F_ F_ 0.69016 0.0931634 0.193115 -0.20885
F_ F_ 0.677824 0.176143 0.204535 -0.20885
F_ F_ 0.622202 0.128881 0.22676 -0.20885
Zn Zn 0.584699 0.0799078 0.86236 0.83971
Zn Zn 0.662563 0.362399 0.579495 0.83971
Zn Zn 0.913334 0.420243 0.63761 0.83971
Zn Zn 0.83562 0.137577 0.920005 0.83971
H_ H_ 0.69766 0.0921717 0.86564 0.10394
H_ H_ 0.770927 0.0586134 0.82021 0.10394
H_ H_ 0.668881 0.468298 0.720905 0.10394
H_ H_ 0.599859 1.00654412 0.7704 0.10394
H_ H_ -0.012386000000000008 0.108478 0.7948 0.10394
H_ H_ 0.949443 0.179027 0.74184 0.10394
H_ H_ 0.57707 0.262246 0.800775 0.10394
H_ H_ 0.609992 0.187153 0.85147 0.10394
H_ H_ 0.531266 0.431388 0.85078 0.10394
H_ H_ 0.979782 0.359355 0.8509 0.10394
H_ H_ 0.849988 0.465763 0.88436 0.10394
H_ H_ 0.549751 0.366096 0.590715 0.10394
H_ H_ -0.02307400000000004 0.32022 0.55791 0.10394
H_ H_ 0.57984 0.22013 0.96833 0.10394
H_ H_ 0.648475 0.269962 0.50592 0.10394
H_ H_ 0.760821 0.295596 0.607975 0.10394
H_ H_ 0.799761 0.243158 0.67865 0.10394
H_ H_ 0.670633 0.299541 0.761825 0.10394
H_ H_ 0.637204 0.350018 0.68684 0.10394
H_ H_ 0.718384 0.351662 0.930835 0.10394
H_ H_ 0.770774 0.350808 0.858925 0.10394
H_ H_ 0.899258 0.385025 0.96597 0.10394
H_ H_ 0.800572 0.408141 0.63445 0.10394
H_ H_ 0.727392 0.441478 0.68017 0.10394
H_ H_ 0.829476 0.0318114 0.77935 0.10394
H_ H_ 0.898469 0.493652 0.72973 0.10394
H_ H_ 0.511021 0.391334 0.70446 0.10394
H_ H_ 0.54951 0.320609 0.757025 0.10394
H_ H_ 0.920843 0.238173 0.699775 0.10394
H_ H_ 0.887887 0.313194 0.649095 0.10394
H_ H_ 0.967905 0.0688882 0.65015 0.10394
H_ H_ 0.519637 0.140757 0.64968 0.10394
H_ H_ 0.648808 0.0339194 0.6154 0.10394
H_ H_ 0.948614 0.133552 0.90899 0.10394
H_ H_ 0.521495 0.179226 0.9415 0.10394
H_ H_ 0.918709 0.2791 0.5319 0.10394
H_ H_ 0.850028 0.229457 -0.005870000000000042 0.10394
H_ H_ 0.737464 0.203591 0.89095 0.10394
H_ H_ 0.698534 0.255879 0.820155 0.10394
H_ H_ 0.828912 0.201273 0.738095 0.10394
H_ H_ 0.861989 0.15036 0.812945 0.10394
H_ H_ 0.78082 0.147358 0.56837 0.10394
H_ H_ 0.728877 0.147901 0.64046 0.10394
H_ H_ 0.599729 0.114495 0.53391 0.10394
C_ C_ 0.692499 0.0655976 0.83254 0.18167
C_ C_ 0.733977 0.04582 0.806675 -0.15533
C_ C_ 0.727591 0.0103919 0.764895 0.02923
C_ C_ 0.678098 0.495853 0.75221 -0.15533
C_ C_ 0.638419 0.0172867 0.7797 0.18167
C_ C_ 0.506596 0.143067 0.79442 0.18167
C_ C_ -0.014657000000000031 0.18339 0.765 -0.15533
C_ C_ 0.509842 0.228115 0.76547 0.02923
C_ C_ 0.555654 0.229084 0.79738 -0.15533
C_ C_ 0.574995 0.187376 0.8256 0.18167
C_ C_ 0.505038 0.0302231 0.865745 0.69207
C_ C_ 0.970171 0.488984 0.86464 0.02923
C_ C_ 0.991153 0.438378 0.85734 -0.15533
C_ C_ 0.96193 0.397848 0.85812 -0.15533
C_ C_ 0.910676 0.406973 0.867845 0.02923
C_ C_ 0.889652 0.457671 0.876295 -0.15533
C_ C_ 0.918411 0.498772 0.873595 0.02923
C_ C_ 0.891658 0.0524965 0.87465 0.69207
C_ C_ 0.906145 0.309713 0.868035 0.69661
C_ C_ 0.555219 0.332723 0.56445 0.18167
C_ C_ 0.513995 0.306632 0.545115 -0.15533
C_ C_ 0.520736 0.264509 0.510115 0.02923
C_ C_ 0.570364 0.25174 0.995545 -0.15533
C_ C_ 0.609803 0.279431 0.516605 0.18167
C_ C_ 0.7417 0.294799 0.642585 0.18167
C_ C_ 0.763389 0.26565 0.683 -0.15533
C_ C_ 0.73872 0.265531 0.727775 0.02923
C_ C_ 0.692286 0.296635 0.72865 -0.15533
C_ C_ 0.672575 0.324633 0.6869 0.18167
C_ C_ 0.74362 0.367348 0.53024 0.69207
C_ C_ 0.7788 0.365803 0.98882 0.02923
C_ C_ 0.758444 0.358133 0.93804 -0.15533
C_ C_ 0.788177 0.358344 0.89753 -0.15533
C_ C_ 0.839335 0.368035 0.90682 0.02923
C_ C_ 0.859697 0.376951 0.957675 -0.15533
C_ C_ 0.830524 0.374633 -0.0012699999999999934 0.02923
C_ C_ 0.857174 0.375632 0.552475 0.69207
C_ C_ 0.845927 0.366202 0.80925 0.69661
C_ C_ 0.805769 0.434636 0.66762 0.18167
C_ C_ 0.764346 0.454316 0.69361 -0.15533
C_ C_ 0.770767 0.489713 0.735415 0.02923
C_ C_ 0.820259 0.0 0.748035 -0.15533
C_ C_ 0.859904 0.482911 0.72045 0.18167
C_ C_ 0.991923 0.356854 0.70507 0.18167
C_ C_ 0.513331 0.316445 0.7343 -0.15533
C_ C_ 0.988641 0.271879 0.73419 0.02923
C_ C_ 0.942507 0.271142 0.702775 -0.15533
C_ C_ 0.923078 0.312888 0.67466 0.18167
C_ C_ 0.993806 0.469786 0.634545 0.69207
C_ C_ 0.528684 1.0110911 0.635875 0.02923
C_ C_ 0.507952 0.061761 0.64338 -0.15533
C_ C_ 0.53729 0.102198 0.642375 -0.15533
C_ C_ 0.588426 0.0929056 0.63225 0.02923
C_ C_ 0.609226 0.0421501 0.62375 -0.15533
C_ C_ 0.580372 1.00117037 0.62664 0.02923
C_ C_ 0.607152 0.447473 0.62533 0.69207
C_ C_ 0.593684 0.190161 0.631895 0.69661
C_ C_ 0.943186 0.166831 0.935335 0.18167
C_ C_ 0.984451 0.192824 0.954795 -0.15533
C_ C_ 0.977766 0.234857 -0.010090000000000043 0.02923
C_ C_ 0.928168 0.247595 0.5 -0.15533
C_ C_ 0.888688 0.220003 0.983415 0.18167
C_ C_ 0.756769 0.204634 0.8565 0.18167
C_ C_ 0.735165 0.233794 0.816075 -0.15533
C_ C_ 0.760204 0.234372 0.77159 0.02923
C_ C_ 0.806906 0.203676 0.77097 -0.15533
C_ C_ 0.826448 0.175511 0.81265 0.18167
C_ C_ 0.755003 0.132335 0.96901 0.69207
C_ C_ 0.720054 0.133649 0.510575 0.02923
C_ C_ 0.740724 0.140991 0.56128 -0.15533
C_ C_ 0.711202 0.14063 0.601925 -0.15533
C_ C_ 0.659932 0.131256 0.592855 0.02923
C_ C_ 0.639336 0.122444 0.54208 -0.15533
C_ C_ 0.66834 0.124805 0.50093 0.02923
C_ C_ 0.641649 0.123981 0.947265 0.69207
C_ C_ 0.653725 0.133486 0.69025 0.69661
C_ C_ 0.875402 0.363743 0.86396 -0.30787
C_ C_ 0.623986 0.135857 0.635825 -0.30787
N_ N_ 0.645064 0.0520665 0.81924 -0.32189
N_ N_ 0.551126 0.144566 0.824265 -0.32189
N_ N_ 0.602796 0.319284 0.551015 -0.32189
N_ N_ 0.69659 0.323874 0.644025 -0.32189
N_ N_ 0.853207 0.4482 0.680865 -0.32189
N_ N_ 0.94711 0.355561 0.675665 -0.32189
N_ N_ 0.895626 0.180271 0.94885 -0.32189
N_ N_ 0.80207 0.17587 0.85528 -0.32189
O_ O_ -0.0025370000000000115 0.0712093 0.891985 -0.63271
O_ O_ 0.544478 0.0201881 0.839995 -0.57982
O_ O_ 0.891114 0.0776695 0.83577 -0.63271
O_ O_ 0.86911 0.0671056 0.9151 -0.57982
O_ O_ 0.7513 0.393431 0.571225 -0.63271
O_ O_ 0.704118 0.341874 0.5202 -0.57982
O_ O_ 0.857525 0.336907 0.577765 -0.63271
O_ O_ 0.880133 0.415626 0.5665 -0.57982
O_ O_ 0.502153 0.428663 0.60876 -0.63271
O_ O_ 0.953852 0.47981 0.659595 -0.57982
O_ O_ 0.608669 0.422427 0.664435 -0.63271
O_ O_ 0.628931 0.432787 0.584455 -0.57982
O_ O_ 0.748587 0.104545 0.92896 -0.63271
O_ O_ 0.793119 0.159854 0.978035 -0.57982
O_ O_ 0.642346 0.162371 0.92174 -0.63271
O_ O_ 0.617733 0.0845512 0.93307 -0.57982
F_ F_ 0.942005 0.308925 0.90885 -0.20885
F_ F_ 0.931174 0.29363 0.826075 -0.20885
F_ F_ 0.875313 0.273122 0.873555 -0.20885
F_ F_ 0.809325 0.406501 0.80675 -0.20885
F_ F_ 0.822165 0.323536 0.79365 -0.20885
F_ F_ 0.877816 0.37127 0.773215 -0.20885
F_ F_ 0.557846 0.191082 0.59105 -0.20885
F_ F_ 0.568785 0.206334 0.673925 -0.20885
F_ F_ 0.624651 0.226694 0.626425 -0.20885
F_ F_ 0.69016 0.0931636 0.693115 -0.20885
F_ F_ 0.677824 0.176142 0.704535 -0.20885
F_ F_ 0.622202 0.128881 0.72676 -0.20885
Zn Zn 0.584699 0.579908 0.36236 0.83971
Zn Zn 0.662563 0.862399 0.0794951 0.83971
Zn Zn 0.913334 0.920242 0.13761 0.83971
Zn Zn 0.83562 0.637577 0.420005 0.83971
H_ H_ 0.69766 0.592171 0.36564 0.10394
H_ H_ 0.770927 0.558614 0.32021 0.10394
H_ H_ 0.668881 0.968299 0.220905 0.10394
H_ H_ 0.599859 0.506544 0.2704 0.10394
H_ H_ -0.012386000000000008 0.608479 0.2948 0.10394
H_ H_ 0.949443 0.679027 0.24184 0.10394
H_ H_ 0.57707 0.762245 0.300775 0.10394
H_ H_ 0.609991 0.687153 0.35147 0.10394
H_ H_ 0.531266 0.931388 0.35078 0.10394
H_ H_ 0.979782 0.859355 0.3509 0.10394
H_ H_ 0.849987 0.965763 0.38436 0.10394
H_ H_ 0.549751 0.866096 0.0907152 0.10394
H_ H_ 0.976926 0.82022 0.05791 0.10394
H_ H_ 0.57984 0.72013 0.46833 0.10394
H_ H_ 0.648475 0.769962 1.00591987 0.10394
H_ H_ 0.76082 0.795595 0.107975 0.10394
H_ H_ 0.799761 0.743159 0.17865 0.10394
H_ H_ 0.670633 0.799541 0.261825 0.10394
H_ H_ 0.637204 0.850018 0.18684 0.10394
H_ H_ 0.718384 0.851662 0.430835 0.10394
H_ H_ 0.770774 0.850809 0.358925 0.10394
H_ H_ 0.899258 0.885025 0.46597 0.10394
H_ H_ 0.800572 0.908141 0.13445 0.10394
H_ H_ 0.727392 0.941479 0.18017 0.10394
H_ H_ 0.829476 0.531811 0.27935 0.10394
H_ H_ 0.898469 0.993653 0.22973 0.10394
H_ H_ 0.511021 0.891334 0.20446 0.10394
H_ H_ 0.54951 0.82061 0.257025 0.10394
H_ H_ 0.920843 0.738173 0.199775 0.10394
H_ H_ 0.887887 0.813194 0.149095 0.10394
H_ H_ 0.967905 0.568888 0.15015 0.10394
H_ H_ 0.519637 0.640757 0.14968 0.10394
H_ H_ 0.648808 0.533919 0.1154 0.10394
H_ H_ 0.948614 0.633553 0.40899 0.10394
H_ H_ 0.521495 0.679226 0.4415 0.10394
H_ H_ 0.918709 0.7791 0.0319 0.10394
H_ H_ 0.850028 0.729457 0.49413 0.10394
H_ H_ 0.737464 0.70359 0.39095 0.10394
H_ H_ 0.698533 0.755878 0.320155 0.10394
H_ H_ 0.828912 0.701273 0.238095 0.10394
H_ H_ 0.861989 0.65036 0.312945 0.10394
H_ H_ 0.78082 0.647358 0.0683699 0.10394
H_ H_ 0.728877 0.647902 0.14046 0.10394
H_ H_ 0.599729 0.614495 0.0339102 0.10394
C_ C_ 0.692499 0.565597 0.33254 0.18167
C_ C_ 0.733977 0.54582 0.306675 -0.15533
C_ C_ 0.727591 0.510392 0.264895 0.02923
C_ C_ 0.678098 0.995853 0.25221 -0.15533
C_ C_ 0.638419 0.517286 0.2797 0.18167
C_ C_ 0.506596 0.643068 0.29442 0.18167
C_ C_ -0.014657000000000031 0.683389 0.265 -0.15533
C_ C_ 0.509842 0.728114 0.26547 0.02923
C_ C_ 0.555654 0.729085 0.29738 -0.15533
C_ C_ 0.574995 0.687376 0.3256 0.18167
C_ C_ 0.505038 0.530223 0.365745 0.69207
C_ C_ 0.970171 -0.011014999999999997 0.36464 0.02923
C_ C_ -0.00884700000000005 0.938378 0.35734 -0.15533
C_ C_ 0.96193 0.897849 0.35812 -0.15533
C_ C_ 0.910676 0.906973 0.367845 0.02923
C_ C_ 0.889652 0.957671 0.376295 -0.15533
C_ C_ 0.918411 -0.0012280000000000069 0.373595 0.02923
C_ C_ 0.891658 0.552497 0.37465 0.69207
C_ C_ 0.906145 0.809712 0.368035 0.69661
C_ C_ 0.555218 0.832722 0.0644499 0.18167
C_ C_ 0.513995 0.806632 0.0451149 -0.15533
C_ C_ 0.520736 0.764509 0.0101151 0.02923
C_ C_ 0.570364 0.751741 0.495545 -0.15533
C_ C_ 0.609803 0.779432 0.0166049 0.18167
C_ C_ 0.7417 0.794798 0.142585 0.18167
C_ C_ 0.763389 0.76565 0.183 -0.15533
C_ C_ 0.73872 0.765531 0.227775 0.02923
C_ C_ 0.692286 0.796635 0.22865 -0.15533
C_ C_ 0.672575 0.824633 0.1869 0.18167
C_ C_ 0.74362 0.867348 0.03024 0.69207
C_ C_ 0.7788 0.865803 0.48882 0.02923
C_ C_ 0.758444 0.858134 0.43804 -0.15533
C_ C_ 0.788177 0.858345 0.39753 -0.15533
C_ C_ 0.839335 0.868036 0.40682 0.02923
C_ C_ 0.859698 0.876951 0.457675 -0.15533
C_ C_ 0.830524 0.874633 0.49873 0.02923
C_ C_ 0.857174 0.875632 0.052475 0.69207
C_ C_ 0.845927 0.866202 0.30925 0.69661
C_ C_ 0.805769 0.934635 0.16762 0.18167
C_ C_ 0.764346 0.954316 0.19361 -0.15533
C_ C_ 0.770767 0.989713 0.235415 0.02923
C_ C_ 0.820259 0.5 0.248035 -0.15533
C_ C_ 0.859904 0.982911 0.22045 0.18167
C_ C_ 0.991923 0.856855 0.20507 0.18167
C_ C_ 0.513331 0.816445 0.2343 -0.15533
C_ C_ 0.988641 0.77188 0.23419 0.02923
C_ C_ 0.942507 0.771141 0.202775 -0.15533
C_ C_ 0.923079 0.812888 0.17466 0.18167
C_ C_ 0.993806 0.969786 0.134545 0.69207
C_ C_ 0.528684 0.511091 0.135875 0.02923
C_ C_ 0.507952 0.561761 0.14338 -0.15533
C_ C_ 0.537291 0.602198 0.142375 -0.15533
C_ C_ 0.588426 0.592905 0.13225 0.02923
C_ C_ 0.609226 0.54215 0.12375 -0.15533
C_ C_ 0.580372 0.501171 0.12664 0.02923
C_ C_ 0.607152 0.947473 0.12533 0.69207
C_ C_ 0.593684 0.690161 0.131895 0.69661
C_ C_ 0.943186 0.666832 0.435335 0.18167
C_ C_ 0.984452 0.692824 0.454795 -0.15533
C_ C_ 0.977766 0.734857 0.48991 0.02923
C_ C_ 0.928168 0.747595 1.0 -0.15533
C_ C_ 0.888688 0.720002 0.483415 0.18167
C_ C_ 0.756769 0.704635 0.3565 0.18167
C_ C_ 0.735165 0.733794 0.316075 -0.15533
C_ C_ 0.760204 0.734372 0.27159 0.02923
C_ C_ 0.806906 0.703676 0.27097 -0.15533
C_ C_ 0.826448 0.675511 0.31265 0.18167
C_ C_ 0.755003 0.632335 0.46901 0.69207
C_ C_ 0.720054 0.633649 1.0105752 0.02923
C_ C_ 0.740725 0.64099 0.06128 -0.15533
C_ C_ 0.711202 0.64063 0.101925 -0.15533
C_ C_ 0.659932 0.631255 0.0928551 0.02923
C_ C_ 0.639336 0.622444 0.0420802 -0.15533
C_ C_ 0.66834 0.624805 1.000930062 0.02923
C_ C_ 0.641649 0.62398 0.447265 0.69207
C_ C_ 0.653725 0.633486 0.19025 0.69661
C_ C_ 0.875402 0.863744 0.36396 -0.30787
C_ C_ 0.623986 0.635857 0.135825 -0.30787
N_ N_ 0.645064 0.552067 0.31924 -0.32189
N_ N_ 0.551126 0.644566 0.324265 -0.32189
N_ N_ 0.602796 0.819284 0.0510149 -0.32189
N_ N_ 0.69659 0.823873 0.144025 -0.32189
N_ N_ 0.853207 0.9482 0.180865 -0.32189
N_ N_ 0.94711 0.855561 0.175665 -0.32189
N_ N_ 0.895626 0.680271 0.44885 -0.32189
N_ N_ 0.80207 0.675871 0.35528 -0.32189
O_ O_ -0.0025370000000000115 0.571209 0.391985 -0.63271
O_ O_ 0.544478 0.520188 0.339995 -0.57982
O_ O_ 0.891113 0.57767 0.33577 -0.63271
O_ O_ 0.86911 0.567105 0.4151 -0.57982
O_ O_ 0.7513 0.893431 0.0712252 -0.63271
O_ O_ 0.704118 0.841874 0.0202 -0.57982
O_ O_ 0.857525 0.836907 0.0777651 -0.63271
O_ O_ 0.880133 0.915626 0.0664998 -0.57982
O_ O_ 0.502153 0.928664 0.10876 -0.63271
O_ O_ 0.953852 0.97981 0.159595 -0.57982
O_ O_ 0.608669 0.922428 0.164435 -0.63271
O_ O_ 0.628931 0.932787 0.084455 -0.57982
O_ O_ 0.748587 0.604544 0.42896 -0.63271
O_ O_ 0.793119 0.659854 0.478035 -0.57982
O_ O_ 0.642346 0.66237 0.42174 -0.63271
O_ O_ 0.617733 0.584551 0.43307 -0.57982
F_ F_ 0.942005 0.808924 0.40885 -0.20885
F_ F_ 0.931174 0.793629 0.326075 -0.20885
F_ F_ 0.875313 0.773122 0.373555 -0.20885
F_ F_ 0.809325 0.906501 0.30675 -0.20885
F_ F_ 0.822165 0.823536 0.29365 -0.20885
F_ F_ 0.877816 0.87127 0.273215 -0.20885
F_ F_ 0.557846 0.691083 0.0910501 -0.20885
F_ F_ 0.568785 0.706333 0.173925 -0.20885
F_ F_ 0.624651 0.726695 0.126425 -0.20885
F_ F_ 0.69016 0.593163 0.193115 -0.20885
F_ F_ 0.677824 0.676143 0.204535 -0.20885
F_ F_ 0.622202 0.628881 0.22676 -0.20885
Zn Zn 0.5847 0.579908 0.86236 0.83971
Zn Zn 0.662563 0.862399 0.579495 0.83971
Zn Zn 0.913334 0.920243 0.63761 0.83971
Zn Zn 0.83562 0.637578 0.920005 0.83971
H_ H_ 0.69766 0.592172 0.86564 0.10394
H_ H_ 0.770927 0.558613 0.82021 0.10394
H_ H_ 0.668881 0.968298 0.720905 0.10394
H_ H_ 0.59986 0.506544 0.7704 0.10394
H_ H_ -0.01238499999999998 0.608478 0.7948 0.10394
H_ H_ 0.949443 0.679027 0.74184 0.10394
H_ H_ 0.57707 0.762246 0.800775 0.10394
H_ H_ 0.609992 0.687153 0.85147 0.10394
H_ H_ 0.531266 0.931388 0.85078 0.10394
H_ H_ 0.979781 0.859355 0.8509 0.10394
H_ H_ 0.849988 0.965763 0.88436 0.10394
H_ H_ 0.549751 0.866096 0.590715 0.10394
H_ H_ -0.02307400000000004 0.82022 0.55791 0.10394
H_ H_ 0.57984 0.720129 0.96833 0.10394
H_ H_ 0.648475 0.769962 0.50592 0.10394
H_ H_ 0.760821 0.795596 0.607975 0.10394
H_ H_ 0.799761 0.743158 0.67865 0.10394
H_ H_ 0.670632 0.799541 0.761825 0.10394
H_ H_ 0.637203 0.850018 0.68684 0.10394
H_ H_ 0.718384 0.851662 0.930835 0.10394
H_ H_ 0.770774 0.850808 0.858925 0.10394
H_ H_ 0.899258 0.885025 0.96597 0.10394
H_ H_ 0.800572 0.908141 0.63445 0.10394
H_ H_ 0.727392 0.941478 0.68017 0.10394
H_ H_ 0.829476 0.531811 0.77935 0.10394
H_ H_ 0.898469 0.993652 0.72973 0.10394
H_ H_ 0.511021 0.891334 0.70446 0.10394
H_ H_ 0.54951 0.820609 0.757025 0.10394
H_ H_ 0.920843 0.738173 0.699775 0.10394
H_ H_ 0.887887 0.813194 0.649095 0.10394
H_ H_ 0.967905 0.568888 0.65015 0.10394
H_ H_ 0.519637 0.640757 0.64968 0.10394
H_ H_ 0.648807 0.533919 0.6154 0.10394
H_ H_ 0.948614 0.633552 0.90899 0.10394
H_ H_ 0.521495 0.679226 0.9415 0.10394
H_ H_ 0.918709 0.7791 0.5319 0.10394
H_ H_ 0.850028 0.729457 0.99413 0.10394
H_ H_ 0.737464 0.703591 0.89095 0.10394
H_ H_ 0.698534 0.755879 0.820155 0.10394
H_ H_ 0.828912 0.701273 0.738095 0.10394
H_ H_ 0.861989 0.65036 0.812945 0.10394
H_ H_ 0.78082 0.647358 0.56837 0.10394
H_ H_ 0.728877 0.647901 0.64046 0.10394
H_ H_ 0.599729 0.614495 0.53391 0.10394
C_ C_ 0.692499 0.565598 0.83254 0.18167
C_ C_ 0.733977 0.54582 0.806675 -0.15533
C_ C_ 0.727591 0.510392 0.764895 0.02923
C_ C_ 0.678098 0.995853 0.75221 -0.15533
C_ C_ 0.638419 0.517287 0.7797 0.18167
C_ C_ 0.506596 0.643067 0.79442 0.18167
C_ C_ -0.014657000000000031 0.68339 0.765 -0.15533
C_ C_ 0.509842 0.728115 0.76547 0.02923
C_ C_ 0.555654 0.729084 0.79738 -0.15533
C_ C_ 0.574995 0.687376 0.8256 0.18167
C_ C_ 0.505038 0.530223 0.865745 0.69207
C_ C_ 0.970171 -0.011016000000000026 0.86464 0.02923
C_ C_ -0.00884700000000005 0.938378 0.85734 -0.15533
C_ C_ 0.96193 0.897848 0.85812 -0.15533
C_ C_ 0.910676 0.906973 0.867845 0.02923
C_ C_ 0.889652 0.957671 0.876295 -0.15533
C_ C_ 0.918411 -0.0012280000000000069 0.873595 0.02923
C_ C_ 0.891658 0.552497 0.87465 0.69207
C_ C_ 0.906145 0.809713 0.868035 0.69661
C_ C_ 0.555219 0.832723 0.56445 0.18167
C_ C_ 0.513995 0.806632 0.545115 -0.15533
C_ C_ 0.520736 0.764509 0.510115 0.02923
C_ C_ 0.570364 0.75174 0.995545 -0.15533
C_ C_ 0.609803 0.779431 0.516605 0.18167
C_ C_ 0.7417 0.794799 0.642585 0.18167
C_ C_ 0.763389 0.76565 0.683 -0.15533
C_ C_ 0.73872 0.765531 0.727775 0.02923
C_ C_ 0.692286 0.796635 0.72865 -0.15533
C_ C_ 0.672575 0.824633 0.6869 0.18167
C_ C_ 0.74362 0.867348 0.53024 0.69207
C_ C_ 0.7788 0.865804 0.98882 0.02923
C_ C_ 0.758444 0.858133 0.93804 -0.15533
C_ C_ 0.788177 0.858344 0.89753 -0.15533
C_ C_ 0.839335 0.868035 0.90682 0.02923
C_ C_ 0.859697 0.876951 0.957675 -0.15533
C_ C_ 0.830525 0.874632 -0.0012699999999999934 0.02923
C_ C_ 0.857174 0.875632 0.552475 0.69207
C_ C_ 0.845927 0.866202 0.80925 0.69661
C_ C_ 0.805769 0.934636 0.66762 0.18167
C_ C_ 0.764346 0.954315 0.69361 -0.15533
C_ C_ 0.770767 -0.010286000000000017 0.735415 0.02923
C_ C_ 0.820259 0.5 0.748035 -0.15533
C_ C_ 0.859904 0.982911 0.72045 0.18167
C_ C_ 0.991923 0.856854 0.70507 0.18167
C_ C_ 0.513331 0.816445 0.7343 -0.15533
C_ C_ 0.988641 0.771879 0.73419 0.02923
C_ C_ 0.942507 0.771142 0.702775 -0.15533
C_ C_ 0.923078 0.812888 0.67466 0.18167
C_ C_ 0.993806 0.969786 0.634545 0.69207
C_ C_ 0.528684 0.511091 0.635875 0.02923
C_ C_ 0.507952 0.561761 0.64338 -0.15533
C_ C_ 0.53729 0.602198 0.642375 -0.15533
C_ C_ 0.588426 0.592906 0.63225 0.02923
C_ C_ 0.609226 0.54215 0.62375 -0.15533
C_ C_ 0.580372 0.50117 0.62664 0.02923
C_ C_ 0.607152 0.947473 0.62533 0.69207
C_ C_ 0.593684 0.690161 0.631895 0.69661
C_ C_ 0.943186 0.666831 0.935335 0.18167
C_ C_ 0.984451 0.692824 0.954795 -0.15533
C_ C_ 0.977766 0.734857 0.98991 0.02923
C_ C_ 0.928168 0.747595 0.5 -0.15533
C_ C_ 0.888688 0.720003 0.983415 0.18167
C_ C_ 0.756769 0.704634 0.8565 0.18167
C_ C_ 0.735165 0.733794 0.816075 -0.15533
C_ C_ 0.760204 0.734372 0.77159 0.02923
C_ C_ 0.806906 0.703676 0.77097 -0.15533
C_ C_ 0.826448 0.675511 0.81265 0.18167
C_ C_ 0.755003 0.632335 0.96901 0.69207
C_ C_ 0.720054 0.633649 0.510575 0.02923
C_ C_ 0.740724 0.640991 0.56128 -0.15533
C_ C_ 0.711202 0.64063 0.601925 -0.15533
C_ C_ 0.659932 0.631256 0.592855 0.02923
C_ C_ 0.639336 0.622444 0.54208 -0.15533
C_ C_ 0.66834 0.624805 0.50093 0.02923
C_ C_ 0.641649 0.623981 0.947265 0.69207
C_ C_ 0.653725 0.633486 0.69025 0.69661
C_ C_ 0.875402 0.863743 0.86396 -0.30787
C_ C_ 0.623986 0.635857 0.635825 -0.30787
N_ N_ 0.645064 0.552066 0.81924 -0.32189
N_ N_ 0.551126 0.644566 0.824265 -0.32189
N_ N_ 0.602796 0.819284 0.551015 -0.32189
N_ N_ 0.69659 0.823874 0.644025 -0.32189
N_ N_ 0.853207 0.9482 0.680865 -0.32189
N_ N_ 0.94711 0.855561 0.675665 -0.32189
N_ N_ 0.895626 0.680271 0.94885 -0.32189
N_ N_ 0.80207 0.67587 0.85528 -0.32189
O_ O_ 0.997463 0.57121 0.891985 -0.63271
O_ O_ 0.544478 0.520188 0.839995 -0.57982
O_ O_ 0.891114 0.577669 0.83577 -0.63271
O_ O_ 0.869111 0.567106 0.9151 -0.57982
O_ O_ 0.7513 0.893431 0.571225 -0.63271
O_ O_ 0.704118 0.841874 0.5202 -0.57982
O_ O_ 0.857525 0.836907 0.577765 -0.63271
O_ O_ 0.880133 0.915626 0.5665 -0.57982
O_ O_ 0.502153 0.928663 0.60876 -0.63271
O_ O_ 0.953852 0.97981 0.659595 -0.57982
O_ O_ 0.608669 0.922427 0.664435 -0.63271
O_ O_ 0.628931 0.932787 0.584455 -0.57982
O_ O_ 0.748587 0.604545 0.92896 -0.63271
O_ O_ 0.793119 0.659854 0.978035 -0.57982
O_ O_ 0.642346 0.662371 0.92174 -0.63271
O_ O_ 0.617733 0.584551 0.93307 -0.57982
F_ F_ 0.942005 0.808925 0.90885 -0.20885
F_ F_ 0.931174 0.79363 0.826075 -0.20885
F_ F_ 0.875313 0.773122 0.873555 -0.20885
F_ F_ 0.809325 0.906501 0.80675 -0.20885
F_ F_ 0.822165 0.823536 0.79365 -0.20885
F_ F_ 0.877816 0.87127 0.773215 -0.20885
F_ F_ 0.557846 0.691082 0.59105 -0.20885
F_ F_ 0.568785 0.706334 0.673925 -0.20885
F_ F_ 0.624651 0.726694 0.626425 -0.20885
F_ F_ 0.69016 0.593164 0.693115 -0.20885
F_ F_ 0.677824 0.676142 0.704535 -0.20885
F_ F_ 0.622202 0.628881 0.72676 -0.20885
