_cell_length_a 26.508
_cell_length_b 26.37200000322088
_cell_length_c 26.311999743092066
_cell_angle_alpha 93.74100058972084
_cell_angle_beta 96.04100104955006
_cell_angle_gamma 83.6869992558723
_symmetry_space_group_name_H-M         'P 1'
_symmetry_Int_Tables_number            1
loop_
_symmetry_equiv_pos_as_xyz
   'x, y, z'
                         
loop_
_atom_site_label
_atom_site_type_symbol
_atom_site_fract_x 
_atom_site_fract_y
_atom_site_fract_z
_atom_site_charge
Zn Zn 0.0873585 0.094631 0.352541 0.83971
Zn Zn 0.161172 0.343326 0.0732799 0.83971
Zn Zn 0.411283 0.413599 0.152899 0.83971
Zn Zn 0.338046 0.155513 0.411791 0.83971
H_ H_ 0.160335 0.133058 0.292017 0.10394
H_ H_ 0.235518 0.0963677 0.257057 0.10394
H_ H_ 0.220886 0.445946 0.299051 0.10394
H_ H_ 0.137428 0.991862 0.345077 0.10394
H_ H_ 0.528118 0.0912759 0.238288 0.10394
H_ H_ 0.485603 0.167484 0.200464 0.10394
H_ H_ 0.0204948 0.277657 0.334398 0.10394
H_ H_ 0.0609334 0.20663 0.382795 0.10394
H_ H_ 0.0307356 0.443432 0.341815 0.10394
H_ H_ 0.476702 0.371954 0.367814 0.10394
H_ H_ 0.368027 0.48572 0.429998 0.10394
H_ H_ 0.07849 0.309973 0.128301 0.10394
H_ H_ 0.495084 0.284101 0.0980227 0.10394
H_ H_ 0.0436458 0.277267 0.44376 0.10394
H_ H_ 0.10756 0.326752 0.976507 0.10394
H_ H_ 0.239555 0.256836 0.0844554 0.10394
H_ H_ 0.268523 0.203013 0.155075 0.10394
H_ H_ 0.216699 0.329979 0.258402 0.10394
H_ H_ 0.187198 0.376347 0.183312 0.10394
H_ H_ 0.219468 0.352409 0.448915 0.10394
H_ H_ 0.262155 0.380456 0.384154 0.10394
H_ H_ 0.393698 0.406647 0.491347 0.10394
H_ H_ 0.308841 0.396428 0.158725 0.10394
H_ H_ 0.239307 0.435605 0.211739 0.10394
H_ H_ 0.324488 0.0428408 0.286302 0.10394
H_ H_ 0.406838 0.503455 0.225582 0.10394
H_ H_ 0.000695201 0.394949 0.207206 0.10394
H_ H_ 0.0457233 0.318171 0.252197 0.10394
H_ H_ 0.41315 0.244221 0.220866 0.10394
H_ H_ 0.377309 0.32424 0.185626 0.10394
H_ H_ 0.466371 0.0598141 0.143514 0.10394
H_ H_ 0.00794333 0.118006 0.10089 0.10394
H_ H_ 0.139735 0.00793503 0.0901411 0.10394
H_ H_ 0.440189 0.159642 0.398139 0.10394
H_ H_ 0.0140802 0.195785 0.447638 0.10394
H_ H_ 0.416704 0.298711 0.0187961 0.10394
H_ H_ 0.34296 0.237646 0.499034 0.10394
H_ H_ 0.241477 0.21506 0.384227 0.10394
H_ H_ 0.202163 0.258979 0.304615 0.10394
H_ H_ 0.337474 0.206536 0.23182 0.10394
H_ H_ 0.376994 0.175822 0.314157 0.10394
H_ H_ 0.285759 0.106149 0.0583286 0.10394
H_ H_ 0.226254 0.0957547 0.121035 0.10394
H_ H_ 0.100017 0.100635 0.00941663 0.10394
C_ C_ 0.170525 0.0932427 0.294977 0.18167
C_ C_ 0.213877 0.0716189 0.27479 -0.15533
C_ C_ 0.228413 0.0193355 0.274675 0.02923
C_ C_ 0.207516 0.483867 0.295057 -0.15533
C_ C_ 0.153541 0.0122242 0.317834 0.18167
C_ C_ 0.026262 0.143316 0.270566 0.18167
C_ C_ 0.508438 0.17275 0.233904 -0.15533
C_ C_ 0.00587458 0.233287 0.263622 0.02923
C_ C_ 0.023232 0.239736 0.317153 -0.15533
C_ C_ 0.0468389 0.199754 0.342359 0.18167
C_ C_ 0.010982 0.0493808 0.389144 0.69207
C_ C_ 0.477054 0.498656 0.378806 0.02923
C_ C_ 0.495534 0.447802 0.372043 -0.15533
C_ C_ 0.464509 0.409718 0.379178 -0.15533
C_ C_ 0.413338 0.422192 0.392961 0.02923
C_ C_ 0.400138 0.473047 0.407025 -0.15533
C_ C_ 0.426629 0.511246 0.39105 0.02923
C_ C_ 0.394843 0.0691831 0.384029 0.69207
C_ C_ 0.398862 0.326622 0.390852 0.69661
C_ C_ 0.0663464 0.308958 0.0882417 0.18167
C_ C_ 0.0236119 0.284562 0.0722855 -0.15533
C_ C_ 0.00651185 0.277173 0.0205142 0.02923
C_ C_ 0.0485213 0.291337 0.483436 -0.15533
C_ C_ 0.0820146 0.316408 0.00320507 0.18167
C_ C_ 0.234337 0.270872 0.121912 0.18167
C_ C_ 0.253662 0.241985 0.1639 -0.15533
C_ C_ 0.245408 0.263339 0.213839 0.02923
C_ C_ 0.219751 0.311388 0.219656 -0.15533
C_ C_ 0.198241 0.337057 0.177226 0.18167
C_ C_ 0.242653 0.374896 0.0403597 0.69207
C_ C_ 0.275318 0.371885 0.51035 0.02923
C_ C_ 0.253406 0.37031 0.460437 -0.15533
C_ C_ 0.282022 0.380006 0.420925 -0.15533
C_ C_ 0.335603 0.389093 0.429892 0.02923
C_ C_ 0.354093 0.396283 0.480512 -0.15533
C_ C_ 0.328474 0.37924 0.520232 0.02923
C_ C_ 0.355249 0.385993 0.067758 0.69207
C_ C_ 0.345096 0.38694 0.333757 0.69661
C_ C_ 0.312819 0.430007 0.182082 0.18167
C_ C_ 0.275048 0.453063 0.211938 -0.15533
C_ C_ 0.283959 0.493304 0.248977 0.02923
C_ C_ 0.317715 0.0166252 0.252487 -0.15533
C_ C_ 0.369829 0.487972 0.222433 0.18167
C_ C_ 0.498973 0.34866 0.201381 0.18167
C_ C_ 0.00806718 0.320308 0.234349 -0.15533
C_ C_ 0.489584 0.267138 0.233338 0.02923
C_ C_ 0.43702 0.273069 0.219436 -0.15533
C_ C_ 0.417868 0.315607 0.193246 0.18167
C_ C_ 0.484558 0.453664 0.117199 0.69207
C_ C_ 0.0209223 0.991788 0.119763 0.02923
C_ C_ -0.0004999999999999449 0.0416072 0.117114 -0.15533
C_ C_ 0.029065 0.0792727 0.109538 -0.15533
C_ C_ 0.0802751 0.0679805 0.100908 0.02923
C_ C_ 0.101098 0.0172276 0.0974724 -0.15533
C_ C_ 0.0729035 0.978963 0.108677 0.02923
C_ C_ 0.0997788 0.42579 0.105452 0.69207
C_ C_ 0.0937221 0.168936 0.104751 0.69661
C_ C_ 0.437771 0.179159 0.437464 0.18167
C_ C_ 0.480832 0.194786 0.46721 -0.15533
C_ C_ 0.470545 0.237828 0.501646 0.02923
C_ C_ 0.42442 0.260178 0.00200923 -0.15533
C_ C_ 0.3813 0.224376 0.491622 0.18167
C_ C_ 0.26194 0.217424 0.35157 0.18167
C_ C_ 0.239813 0.237598 0.305201 -0.15533
C_ C_ 0.267387 0.235577 0.260894 0.02923
C_ C_ 0.314133 0.205999 0.26208 -0.15533
C_ C_ 0.338418 0.190129 0.311026 0.18167
C_ C_ 0.267277 0.113128 0.455659 0.69207
C_ C_ 0.226207 0.121211 0.995386 0.02923
C_ C_ 0.245268 0.108206 0.0457621 -0.15533
C_ C_ 0.211671 0.104984 0.0832301 -0.15533
C_ C_ 0.159309 0.102187 0.0702326 0.02923
C_ C_ 0.141956 0.103552 0.0180636 -0.15533
C_ C_ 0.173948 0.115074 0.980784 0.02923
C_ C_ 0.149712 0.117074 0.431004 0.69207
C_ C_ 0.141821 0.107287 0.163487 0.69661
C_ C_ 0.372279 0.382084 0.388444 -0.30787
C_ C_ 0.116811 0.11117 0.108433 -0.30787
N_ N_ 0.13851 0.0622184 0.315526 -0.32189
N_ N_ 0.0500931 0.151819 0.316667 -0.32189
N_ N_ 0.0975222 0.319847 0.0539971 -0.32189
N_ N_ 0.202013 0.314835 0.12945 -0.32189
N_ N_ 0.359404 0.448668 0.188983 -0.32189
N_ N_ 0.448323 0.354175 0.18524 -0.32189
N_ N_ 0.387768 0.195342 0.448529 -0.32189
N_ N_ 0.307481 0.187794 0.350649 -0.32189
O_ O_ 0.499498 0.0878357 0.384724 -0.63271
O_ O_ 0.0450594 0.0439513 0.357408 -0.57982
O_ O_ 0.396262 0.0976049 0.343121 -0.63271
O_ O_ 0.372351 0.0934341 0.422118 -0.57982
O_ O_ 0.241034 0.401905 0.0850118 -0.63271
O_ O_ 0.205674 0.347013 0.0273688 -0.57982
O_ O_ 0.358991 0.344335 0.0917099 -0.63271
O_ O_ 0.384474 0.420761 0.0886782 -0.57982
O_ O_ 0.992552 0.410315 0.0968073 -0.63271
O_ O_ 0.449627 0.463138 0.148883 -0.57982
O_ O_ 0.0958695 0.39992 0.144793 -0.63271
O_ O_ 0.129833 0.409012 0.0709468 -0.57982
O_ O_ 0.264662 0.083388 0.412656 -0.63271
O_ O_ 0.293241 0.154158 0.458904 -0.57982
O_ O_ 0.167154 0.144053 0.39767 -0.63271
O_ O_ 0.104259 0.100561 0.420112 -0.57982
F_ F_ 0.434842 0.32305 0.433514 -0.20885
F_ F_ 0.421667 0.306206 0.346712 -0.20885
F_ F_ 0.364408 0.293142 0.395209 -0.20885
F_ F_ 0.313936 0.432089 0.331303 -0.20885
F_ F_ 0.315614 0.348891 0.317281 -0.20885
F_ F_ 0.382265 0.391814 0.300328 -0.20885
F_ F_ 0.0679695 0.174826 0.0568332 -0.20885
F_ F_ 0.0621998 0.186715 0.143415 -0.20885
F_ F_ 0.134563 0.200165 0.108285 -0.20885
F_ F_ 0.169464 0.0618279 0.168822 -0.20885
F_ F_ 0.174108 0.146192 0.178521 -0.20885
F_ F_ 0.104339 0.11127 0.196895 -0.20885
Zn Zn 0.0855441 0.0874181 0.846072 0.83971
Zn Zn 0.159204 0.345501 0.586019 0.83971
Zn Zn 0.411194 0.412158 0.654504 0.83971
Zn Zn 0.341729 0.150997 0.92163 0.83971
H_ H_ 0.174297 0.133455 0.80915 0.10394
H_ H_ 0.254069 0.0925382 0.776136 0.10394
H_ H_ 0.21714 0.449935 0.793467 0.10394
H_ H_ 0.124767 0.990179 0.822912 0.10394
H_ H_ 0.532254 0.0956364 0.75135 0.10394
H_ H_ 0.487006 0.17095 0.708635 0.10394
H_ H_ 0.0414775 0.271735 0.82566 0.10394
H_ H_ 0.0636357 0.19347 0.877925 0.10394
H_ H_ 0.0256833 0.440616 0.853718 0.10394
H_ H_ 0.493104 0.391277 0.92617 0.10394
H_ H_ 0.358827 0.489692 0.918494 0.10394
H_ H_ 0.0738881 0.314485 0.62977 0.10394
H_ H_ 0.502976 0.259432 0.59954 0.10394
H_ H_ 0.0289501 0.287739 0.944315 0.10394
H_ H_ 0.127764 0.306539 0.485962 0.10394
H_ H_ 0.226514 0.250273 0.603232 0.10394
H_ H_ 0.260813 0.206368 0.680791 0.10394
H_ H_ 0.205247 0.333585 0.770651 0.10394
H_ H_ 0.176433 0.37943 0.694819 0.10394
H_ H_ 0.218081 0.389041 0.938163 0.10394
H_ H_ 0.276182 0.38771 0.875488 0.10394
H_ H_ 0.407258 0.388576 0.989467 0.10394
H_ H_ 0.306687 0.391685 0.66326 0.10394
H_ H_ 0.235081 0.443929 0.698178 0.10394
H_ H_ 0.334906 0.0409626 0.779351 0.10394
H_ H_ 0.403724 0.50041 0.729242 0.10394
H_ H_ 0.0222129 0.386003 0.695012 0.10394
H_ H_ 0.0605284 0.3056 0.737832 0.10394
H_ H_ 0.407859 0.252166 0.748151 0.10394
H_ H_ 0.37113 0.329051 0.691301 0.10394
H_ H_ 0.464193 0.0515618 0.608579 0.10394
H_ H_ 0.0360648 0.12138 0.633596 0.10394
H_ H_ 0.152255 0.00544732 0.593024 0.10394
H_ H_ 0.448051 0.120862 0.956228 0.10394
H_ H_ 0.00726476 0.203595 0.942759 0.10394
H_ H_ 0.413035 0.277712 0.543633 0.10394
H_ H_ 0.345185 0.246436 -0.011131000000000002 0.10394
H_ H_ 0.235597 0.203475 0.899722 0.10394
H_ H_ 0.187544 0.236086 0.822107 0.10394
H_ H_ 0.33096 0.243549 0.762328 0.10394
H_ H_ 0.373008 0.189719 0.830646 0.10394
H_ H_ 0.289157 0.122154 0.552601 0.10394
H_ H_ 0.242874 0.102306 0.615319 0.10394
H_ H_ 0.114276 0.080429 0.511196 0.10394
C_ C_ 0.178611 0.0924378 0.800894 0.18167
C_ C_ 0.224774 0.0706772 0.787145 -0.15533
C_ C_ 0.234169 0.0167816 0.779997 0.02923
C_ C_ 0.211774 0.491771 0.799128 -0.15533
C_ C_ 0.153828 0.0105538 0.81125 0.18167
C_ C_ 0.0279364 0.135476 0.763067 0.18167
C_ C_ 0.505393 0.178333 0.748495 -0.15533
C_ C_ 0.0118866 0.226054 0.761048 0.02923
C_ C_ 0.0348165 0.232161 0.810126 -0.15533
C_ C_ 0.0525702 0.188767 0.837454 0.18167
C_ C_ 0.00749941 0.0479238 0.8691 0.69207
C_ C_ 0.474351 0.510367 0.882577 0.02923
C_ C_ 0.500147 0.461807 0.896464 -0.15533
C_ C_ 0.471983 0.422651 0.90611 -0.15533
C_ C_ 0.417867 0.431803 0.898768 0.02923
C_ C_ 0.396 0.481776 0.901639 -0.15533
C_ C_ 0.421344 0.522657 0.888566 0.02923
C_ C_ 0.393687 0.0706942 0.888207 0.69207
C_ C_ 0.412927 0.337262 0.878633 0.69661
C_ C_ 0.0682262 0.305495 0.590074 0.18167
C_ C_ 0.0225812 0.284182 0.569026 -0.15533
C_ C_ 0.0151467 0.273095 0.51634 0.02923
C_ C_ 0.0373596 0.295497 0.984455 -0.15533
C_ C_ 0.0952871 0.307567 0.507116 0.18167
C_ C_ 0.221741 0.270586 0.639656 0.18167
C_ C_ 0.236879 0.242538 0.683927 -0.15533
C_ C_ 0.228796 0.265178 0.733098 0.02923
C_ C_ 0.211639 0.316313 0.735825 -0.15533
C_ C_ 0.195361 0.342081 0.690606 0.18167
C_ C_ 0.242047 0.362754 0.550387 0.69207
C_ C_ 0.278561 0.384735 0.00178694 0.02923
C_ C_ 0.259107 0.38452 0.950546 -0.15533
C_ C_ 0.292853 0.387933 0.913395 -0.15533
C_ C_ 0.346559 0.389241 0.924001 0.02923
C_ C_ 0.364016 0.392369 0.977002 -0.15533
C_ C_ 0.331871 0.389223 0.0147661 0.02923
C_ C_ 0.358466 0.37787 0.572715 0.69207
C_ C_ 0.359084 0.398974 0.830272 0.69661
C_ C_ 0.312268 0.427079 0.686146 0.18167
C_ C_ 0.272027 0.455533 0.707201 -0.15533
C_ C_ 0.281168 0.499168 0.742561 0.02923
C_ C_ 0.324658 0.0128988 0.75035 -0.15533
C_ C_ 0.366342 0.489421 0.72075 0.18167
C_ C_ 0.493793 0.351455 0.709606 0.18167
C_ C_ 0.0201545 0.311356 0.726965 -0.15533
C_ C_ 0.485627 0.272379 0.745885 0.02923
C_ C_ 0.432512 0.276308 0.729338 -0.15533
C_ C_ 0.4123 0.32304 0.705609 0.18167
C_ C_ 0.491607 0.447575 0.624214 0.69207
C_ C_ 0.0285902 0.993849 0.618649 0.02923
C_ C_ 0.0116512 0.0462268 0.62363 -0.15533
C_ C_ 0.0465125 0.0832594 0.620247 -0.15533
C_ C_ 0.0965983 0.0689356 0.609211 0.02923
C_ C_ 0.112484 0.0160256 0.599965 -0.15533
C_ C_ 0.0791378 0.978874 0.605899 0.02923
C_ C_ 0.099419 0.424564 0.607393 0.69207
C_ C_ 0.113343 0.170866 0.612659 0.69661
C_ C_ 0.442589 0.16168 0.963609 0.18167
C_ C_ 0.483744 0.188419 0.979859 -0.15533
C_ C_ 0.475561 0.238245 0.999661843 0.02923
C_ C_ 0.421597 0.250112 0.515473 -0.15533
C_ C_ 0.384138 0.231392 0.983485 0.18167
C_ C_ 0.254398 0.203542 0.864808 0.18167
C_ C_ 0.227487 0.225774 0.821191 -0.15533
C_ C_ 0.254485 0.238769 0.781412 0.02923
C_ C_ 0.308422 0.226397 0.786513 -0.15533
C_ C_ 0.333314 0.20179 0.829763 0.18167
C_ C_ 0.265052 0.126277 0.958736 0.69207
C_ C_ 0.229879 0.11425 0.492189 0.02923
C_ C_ 0.25094 0.112964 0.542082 -0.15533
C_ C_ 0.223032 0.104353 0.579756 -0.15533
C_ C_ 0.172067 0.0981703 0.570647 0.02923
C_ C_ 0.151486 0.0940972 0.519327 -0.15533
C_ C_ 0.177845 0.106779 0.479443 0.02923
C_ C_ 0.15007 0.116794 0.926306 0.69207
C_ C_ 0.16036 0.112346 0.669662 0.69661
C_ C_ 0.383746 0.389082 0.88483 -0.30787
C_ C_ 0.135135 0.111026 0.613775 -0.30787
N_ N_ 0.142655 0.0615273 0.812228 -0.32189
N_ N_ 0.0488678 0.140815 0.812595 -0.32189
N_ N_ 0.101782 0.315559 0.558499 -0.32189
N_ N_ 0.194348 0.315665 0.643624 -0.32189
N_ N_ 0.359896 0.445742 0.692797 -0.32189
N_ N_ 0.442293 0.357321 0.693969 -0.32189
N_ N_ 0.392695 0.186318 0.958839 -0.32189
N_ N_ 0.306131 0.189756 0.866362 -0.32189
O_ O_ 0.50218 0.0865604 0.899308 -0.63271
O_ O_ 0.0399809 0.0399507 0.835611 -0.57982
O_ O_ 0.390772 0.0973407 0.847907 -0.63271
O_ O_ 0.364856 0.0862331 0.922675 -0.57982
O_ O_ 0.244485 0.386377 0.595065 -0.63271
O_ O_ 0.204265 0.33455 0.539258 -0.57982
O_ O_ 0.363822 0.336924 0.597847 -0.63271
O_ O_ 0.383408 0.41376 0.589713 -0.57982
O_ O_ 0.996197 0.404926 0.604501 -0.63271
O_ O_ 0.454235 0.459549 0.651596 -0.57982
O_ O_ 0.0962991 0.399148 0.647566 -0.63271
O_ O_ 0.135325 0.410171 0.579589 -0.57982
O_ O_ 0.258232 0.105157 0.911213 -0.63271
O_ O_ 0.300034 0.158944 0.96887 -0.57982
O_ O_ 0.154458 0.156655 0.900631 -0.63271
O_ O_ 0.111245 0.0913035 0.911342 -0.57982
F_ F_ 0.445373 0.322143 0.920337 -0.20885
F_ F_ 0.442572 0.333716 0.839495 -0.20885
F_ F_ 0.380308 0.298977 0.875091 -0.20885
F_ F_ 0.324717 0.444117 0.834299 -0.20885
F_ F_ 0.335572 0.357372 0.804779 -0.20885
F_ F_ 0.393108 0.406306 0.794544 -0.20885
F_ F_ 0.0828906 0.181797 0.568071 -0.20885
F_ F_ 0.0829591 0.185814 0.650761 -0.20885
F_ F_ 0.148545 0.206486 0.614629 -0.20885
F_ F_ 0.196194 0.0699192 0.678161 -0.20885
F_ F_ 0.186584 0.154289 0.687092 -0.20885
F_ F_ 0.12603 0.110253 0.703598 -0.20885
Zn Zn 0.0914584 0.581913 0.349162 0.83971
Zn Zn 0.157932 0.847383 0.089785 0.83971
Zn Zn 0.406637 0.920678 0.156612 0.83971
Zn Zn 0.341655 0.648066 0.4182 0.83971
H_ H_ 0.174831 0.629842 0.310686 0.10394
H_ H_ 0.252449 0.595176 0.272954 0.10394
H_ H_ 0.21281 0.952518 0.308034 0.10394
H_ H_ 0.137378 0.476945 0.318879 0.10394
H_ H_ 0.525826 0.599126 0.255939 0.10394
H_ H_ 0.480493 0.674922 0.207986 0.10394
H_ H_ 0.0484066 0.767384 0.333056 0.10394
H_ H_ 0.073762 0.69288 0.384689 0.10394
H_ H_ 0.0407702 0.947296 0.393647 0.10394
H_ H_ 0.469139 0.877478 0.351488 0.10394
H_ H_ 0.35352 0.984647 0.406976 0.10394
H_ H_ 0.0783349 0.803416 0.133874 0.10394
H_ H_ 0.50853 0.769174 0.0975122 0.10394
H_ H_ 0.0429456 0.773226 0.446211 0.10394
H_ H_ 0.12122 0.817807 0.984958 0.10394
H_ H_ 0.225769 0.748403 0.0941736 0.10394
H_ H_ 0.277662 0.704771 0.166933 0.10394
H_ H_ 0.224404 0.826304 0.273772 0.10394
H_ H_ 0.180245 0.870462 0.196227 0.10394
H_ H_ 0.217786 0.84765 0.442617 0.10394
H_ H_ 0.265836 0.869033 0.375293 0.10394
H_ H_ 0.391216 0.901424 0.482092 0.10394
H_ H_ 0.307436 0.894483 0.168596 0.10394
H_ H_ 0.226944 0.942502 0.200192 0.10394
H_ H_ 0.339003 0.547329 0.272523 0.10394
H_ H_ 0.392174 0.0133299 0.231539 0.10394
H_ H_ 0.0119783 0.889992 0.210846 0.10394
H_ H_ 0.0629103 0.806397 0.245947 0.10394
H_ H_ 0.406951 0.747664 0.220182 0.10394
H_ H_ 0.369196 0.827681 0.186635 0.10394
H_ H_ 0.458005 0.555448 0.114073 0.10394
H_ H_ 0.0175742 0.620265 0.0979273 0.10394
H_ H_ 0.149171 0.509663 0.106614 0.10394
H_ H_ 0.446648 0.652029 0.402403 0.10394
H_ H_ 0.0198987 0.684679 0.443429 0.10394
H_ H_ 0.420778 0.779526 0.0537775 0.10394
H_ H_ 0.345546 0.730705 0.502933 0.10394
H_ H_ 0.238873 0.689875 0.380988 0.10394
H_ H_ 0.199141 0.739278 0.308957 0.10394
H_ H_ 0.340385 0.719971 0.243198 0.10394
H_ H_ 0.38363 0.670603 0.324424 0.10394
H_ H_ 0.28996 0.60504 0.0476815 0.10394
H_ H_ 0.235522 0.598739 0.115061 0.10394
H_ H_ 0.115007 0.575607 0.00232886 0.10394
C_ C_ 0.184008 0.587837 0.307026 0.18167
C_ C_ 0.22727 0.568236 0.282161 -0.15533
C_ C_ 0.24151 0.51514 0.279022 0.02923
C_ C_ 0.199336 0.990071 0.299757 -0.15533
C_ C_ 0.160246 0.504866 0.310235 0.18167
C_ C_ 0.0312712 0.633678 0.27316 0.18167
C_ C_ 0.499232 0.678896 0.246058 -0.15533
C_ C_ 0.0193588 0.723155 0.265514 0.02923
C_ C_ 0.0429293 0.729209 0.314684 -0.15533
C_ C_ 0.0571909 0.68769 0.34567 0.18167
C_ C_ 0.0128189 0.543219 0.369121 0.69207
C_ C_ 0.471146 0.00185453 0.372814 0.02923
C_ C_ 0.490414 0.951091 0.370091 -0.15533
C_ C_ 0.45776 0.912123 0.369071 -0.15533
C_ C_ 0.40925 0.923326 0.385038 0.02923
C_ C_ 0.390537 0.975353 0.393259 -0.15533
C_ C_ 0.419422 0.0146875 0.384388 0.02923
C_ C_ 0.399847 0.562662 0.389608 0.69207
C_ C_ 0.392126 0.82477 0.375656 0.69661
C_ C_ 0.0702469 0.800342 0.093038 0.18167
C_ C_ 0.0225997 0.784311 0.0719669 -0.15533
C_ C_ 0.0157273 0.770158 0.0186192 0.02923
C_ C_ 0.056165 0.77596 0.485872 -0.15533
C_ C_ 0.0927979 0.808114 0.00976968 0.18167
C_ C_ 0.227092 0.765906 0.134178 0.18167
C_ C_ 0.253432 0.738882 0.175438 -0.15533
C_ C_ 0.243904 0.757149 0.225782 0.02923
C_ C_ 0.220054 0.806934 0.234143 -0.15533
C_ C_ 0.197868 0.831476 0.191438 0.18167
C_ C_ 0.239818 0.867625 0.0509661 0.69207
C_ C_ 0.274417 0.867122 0.503204 0.02923
C_ C_ 0.254285 0.860508 0.452235 -0.15533
C_ C_ 0.284253 0.870577 0.412959 -0.15533
C_ C_ 0.335601 0.882779 0.423597 0.02923
C_ C_ 0.353128 0.892054 0.473526 -0.15533
C_ C_ 0.323929 0.883324 0.514202 0.02923
C_ C_ 0.352827 0.889368 0.0742965 0.69207
C_ C_ 0.339735 0.890499 0.321943 0.69661
C_ C_ 0.30696 0.933149 0.186617 0.18167
C_ C_ 0.264011 0.957187 0.207913 -0.15533
C_ C_ 0.270422 0.99897481 0.242815 0.02923
C_ C_ 0.333274 0.510047 0.253767 -0.15533
C_ C_ 0.358538 0.995459 0.227521 0.18167
C_ C_ 0.489744 0.850721 0.195349 0.18167
C_ C_ 0.0221505 0.810121 0.233197 -0.15533
C_ C_ 0.480861 0.774099 0.233696 0.02923
C_ C_ 0.429428 0.777937 0.213112 -0.15533
C_ C_ 0.406045 0.823738 0.196815 0.18167
C_ C_ 0.486219 0.95921 0.131871 0.69207
C_ C_ 0.0258114 0.492284 0.109201 0.02923
C_ C_ 0.00544514 0.543833 0.112027 -0.15533
C_ C_ 0.0377498 0.582272 0.109176 -0.15533
C_ C_ 0.0904166 0.570793 0.102328 0.02923
C_ C_ 0.110389 0.51978 0.104177 -0.15533
C_ C_ 0.0772891 0.478598 0.101854 0.02923
C_ C_ 0.0997486 0.927767 0.114735 0.69207
C_ C_ 0.100494 0.664613 0.08469 0.69661
C_ C_ 0.440068 0.681556 0.433176 0.18167
C_ C_ 0.480227 0.702047 0.460518 -0.15533
C_ C_ 0.470144 0.742393 0.496673 0.02923
C_ C_ 0.425663 0.755453 0.0175513 -0.15533
C_ C_ 0.381907 0.725475 0.487249 0.18167
C_ C_ 0.26369 0.699092 0.353987 0.18167
C_ C_ 0.239927 0.727115 0.31108 -0.15533
C_ C_ 0.268914 0.72947 0.269407 0.02923
C_ C_ 0.321014 0.71243 0.274248 -0.15533
C_ C_ 0.344848 0.687476 0.3192 0.18167
C_ C_ 0.267241 0.614135 0.453251 0.69207
C_ C_ 0.229311 0.615958 0.988063 0.02923
C_ C_ 0.249748 0.611096 0.0404061 -0.15533
C_ C_ 0.218594 0.600632 0.0775318 -0.15533
C_ C_ 0.168923 0.592386 0.0650848 0.02923
C_ C_ 0.153169 0.587178 0.0137765 -0.15533
C_ C_ 0.178539 0.607545 0.976683 0.02923
C_ C_ 0.155837 0.600603 0.42382 0.69207
C_ C_ 0.148672 0.619759 0.158193 0.69661
C_ C_ 0.368649 0.882484 0.378578 -0.30787
C_ C_ 0.128534 0.611039 0.101939 -0.30787
N_ N_ 0.150557 0.55681 0.320135 -0.32189
N_ N_ 0.0558725 0.640651 0.320821 -0.32189
N_ N_ 0.101803 0.814521 0.0617814 -0.32189
N_ N_ 0.198142 0.811094 0.143955 -0.32189
N_ N_ 0.353072 0.953176 0.195119 -0.32189
N_ N_ 0.436846 0.860324 0.186797 -0.32189
N_ N_ 0.392488 0.691624 0.447264 -0.32189
N_ N_ 0.314581 0.67867 0.357407 -0.32189
O_ O_ 0.506531 0.581196 0.401976 -0.63271
O_ O_ 0.047728 0.536698 0.336938 -0.57982
O_ O_ 0.400397 0.588835 0.349214 -0.63271
O_ O_ 0.375155 0.583966 0.427617 -0.57982
O_ O_ 0.248253 0.887965 0.0988049 -0.63271
O_ O_ 0.201679 0.841198 0.0408697 -0.57982
O_ O_ 0.352889 0.849519 0.100646 -0.63271
O_ O_ 0.380596 0.926415 0.0916749 -0.57982
O_ O_ 0.997165 0.905089 0.111997 -0.63271
O_ O_ 0.451575 0.967514 0.163616 -0.57982
O_ O_ 0.0955823 0.897745 0.152257 -0.63271
O_ O_ 0.130275 0.91077 0.0818883 -0.57982
O_ O_ 0.263043 0.594631 0.406031 -0.63271
O_ O_ 0.297527 0.649815 0.464881 -0.57982
O_ O_ 0.151975 0.644406 0.405161 -0.63271
O_ O_ 0.118363 0.574403 0.411714 -0.57982
F_ F_ 0.42987 0.812231 0.413948 -0.20885
F_ F_ 0.415786 0.810638 0.331377 -0.20885
F_ F_ 0.353589 0.79074 0.374333 -0.20885
F_ F_ 0.312375 0.934521 0.325769 -0.20885
F_ F_ 0.310371 0.851466 0.305792 -0.20885
F_ F_ 0.376389 0.894178 0.287915 -0.20885
F_ F_ 0.0626386 0.661574 0.0442019 -0.20885
F_ F_ 0.0742535 0.689966 0.12524 -0.20885
F_ F_ 0.133896 0.697703 0.0749858 -0.20885
F_ F_ 0.177836 0.580071 0.180372 -0.20885
F_ F_ 0.17602 0.662081 0.161456 -0.20885
F_ F_ 0.109745 0.628645 0.189637 -0.20885
Zn Zn 0.0908539 0.585827 0.84297 0.83971
Zn Zn 0.158981 0.846035 0.584343 0.83971
Zn Zn 0.403488 0.917704 0.647239 0.83971
Zn Zn 0.342133 0.659852 0.914427 0.83971
H_ H_ 0.159499 0.630378 0.7894 0.10394
H_ H_ 0.241296 0.604204 0.754086 0.10394
H_ H_ 0.201415 0.946487 0.784412 0.10394
H_ H_ 0.144821 0.487079 0.83441 0.10394
H_ H_ 0.512526 0.596628 0.763592 0.10394
H_ H_ 0.471028 0.664491 0.709015 0.10394
H_ H_ 0.0363163 0.775266 0.839503 0.10394
H_ H_ 0.0846301 0.698576 0.882108 0.10394
H_ H_ 0.036403 0.948681 0.878129 0.10394
H_ H_ 0.48211 0.879446 0.890853 0.10394
H_ H_ 0.353144 0.987699 0.906533 0.10394
H_ H_ 0.0821648 0.808228 0.629874 0.10394
H_ H_ 0.504666 0.755027 0.594942 0.10394
H_ H_ 0.0396307 0.785727 0.94723 0.10394
H_ H_ 0.114854 0.823793 0.481974 0.10394
H_ H_ 0.216939 0.752648 0.592174 0.10394
H_ H_ 0.251118 0.70058 0.666026 0.10394
H_ H_ 0.21993 0.831825 0.768667 0.10394
H_ H_ 0.189719 0.88292 0.695404 0.10394
H_ H_ 0.222289 0.849729 0.952334 0.10394
H_ H_ 0.266514 0.870872 0.885711 0.10394
H_ H_ 0.387884 0.918663 0.990668 0.10394
H_ H_ 0.298584 0.902408 0.653267 0.10394
H_ H_ 0.225118 0.952637 0.693044 0.10394
H_ H_ 0.337924 0.547434 0.771539 0.10394
H_ H_ 0.398073 0.003889999999999949 0.727017 0.10394
H_ H_ 0.013665 0.876187 0.685886 0.10394
H_ H_ 0.0473536 0.816086 0.753777 0.10394
H_ H_ 0.394596 0.762009 0.743509 0.10394
H_ H_ 0.358667 0.842434 0.703835 0.10394
H_ H_ 0.466024 0.551017 0.606096 0.10394
H_ H_ 0.0158275 0.615249 0.586628 0.10394
H_ H_ 0.14697 0.507333 0.610081 0.10394
H_ H_ 0.440948 0.676734 0.89428 0.10394
H_ H_ 0.0183864 0.691324 0.946753 0.10394
H_ H_ 0.411717 0.780892 0.542538 0.10394
H_ H_ 0.347533 0.73603 0.0105296 0.10394
H_ H_ 0.246712 0.718754 0.89567 0.10394
H_ H_ 0.199075 0.761456 0.819614 0.10394
H_ H_ 0.322514 0.694431 0.731202 0.10394
H_ H_ 0.373542 0.67438 0.806701 0.10394
H_ H_ 0.287943 0.613441 0.55489 0.10394
H_ H_ 0.230469 0.612628 0.62133 0.10394
H_ H_ 0.115086 0.583626 0.504123 0.10394
C_ C_ 0.175197 0.591907 0.790397 0.18167
C_ C_ 0.221991 0.575077 0.773282 -0.15533
C_ C_ 0.239566 0.523011 0.773263 0.02923
C_ C_ 0.196227 0.987109 0.788647 -0.15533
C_ C_ 0.16678 0.51067 0.817553 0.18167
C_ C_ 0.02515 0.639268 0.778254 0.18167
C_ C_ 0.493763 0.675985 0.743862 -0.15533
C_ C_ 0.00315632 0.729398 0.773715 0.02923
C_ C_ 0.0331771 0.735595 0.82125 -0.15533
C_ C_ 0.06098 0.693505 0.845137 0.18167
C_ C_ 0.00738049 0.545155 0.871326 0.69207
C_ C_ 0.470576 0.00678467 0.878404 0.02923
C_ C_ 0.488762 0.952795 0.871588 -0.15533
C_ C_ 0.460317 0.914775 0.881111 -0.15533
C_ C_ 0.407523 0.927033 0.889919 0.02923
C_ C_ 0.392005 0.977716 0.90163 -0.15533
C_ C_ 0.418159 0.0183625 0.888069 0.02923
C_ C_ 0.395965 0.575998 0.885929 0.69207
C_ C_ 0.394016 0.832681 0.882576 0.69661
C_ C_ 0.0717161 0.800156 0.589627 0.18167
C_ C_ 0.0282232 0.777184 0.57003 -0.15533
C_ C_ 0.0205344 0.76408 0.516864 0.02923
C_ C_ 0.0503616 0.784356 0.987445 -0.15533
C_ C_ 0.0986476 0.800003 0.506609 0.18167
C_ C_ 0.216812 0.769208 0.632967 0.18167
C_ C_ 0.236606 0.739878 0.674413 -0.15533
C_ C_ 0.236178 0.761607 0.723551 0.02923
C_ C_ 0.215508 0.81182 0.7324 -0.15533
C_ C_ 0.203261 0.84249 0.690469 0.18167
C_ C_ 0.236818 0.863675 0.542745 0.69207
C_ C_ 0.276201 0.871535 0.0109257 0.02923
C_ C_ 0.261564 0.856633 0.959899 -0.15533
C_ C_ 0.286132 0.871957 0.921547 -0.15533
C_ C_ 0.333183 0.892119 0.930915 0.02923
C_ C_ 0.349588 0.9077 0.982923 -0.15533
C_ C_ 0.324983 0.890177 0.0229683 0.02923
C_ C_ 0.349687 0.885453 0.566737 0.69207
C_ C_ 0.339558 0.894387 0.833308 0.69661
C_ C_ 0.303195 0.936939 0.679036 0.18167
C_ C_ 0.263054 0.961968 0.705573 -0.15533
C_ C_ 0.275407 0.995281 0.747051 0.02923
C_ C_ 0.329801 0.514934 0.748244 -0.15533
C_ C_ 0.362226 0.989285 0.720254 0.18167
C_ C_ 0.482469 0.842067 0.682382 0.18167
C_ C_ 0.0112936 0.810633 0.730273 -0.15533
C_ C_ 0.470817 0.768381 0.727227 0.02923
C_ C_ 0.419946 0.785796 0.727527 -0.15533
C_ C_ 0.400538 0.829641 0.703674 0.18167
C_ C_ 0.489011 0.950799 0.623705 0.69207
C_ C_ 0.0231919 0.490476 0.612946 0.02923
C_ C_ 1.00371456 0.543143 0.611164 -0.15533
C_ C_ 0.0324201 0.577556 0.59554 -0.15533
C_ C_ 0.0865991 0.56871 0.60521 0.02923
C_ C_ 0.106345 0.517648 0.607308 -0.15533
C_ C_ 0.0750158 0.476223 0.606683 0.02923
C_ C_ 0.0990532 0.925442 0.604559 0.69207
C_ C_ 0.101528 0.665231 0.596149 0.69661
C_ C_ 0.436444 0.691178 0.933324 0.18167
C_ C_ 0.477347 0.712873 0.958494 -0.15533
C_ C_ 0.473916 0.74889 -0.0028409999999999824 0.02923
C_ C_ 0.420659 0.752801 0.512417 -0.15533
C_ C_ 0.383771 0.728158 0.994998 0.18167
C_ C_ 0.26394 0.716417 0.858544 0.18167
C_ C_ 0.236405 0.738238 0.815877 -0.15533
C_ C_ 0.2577 0.73262 0.767935 0.02923
C_ C_ 0.303932 0.701227 0.765739 -0.15533
C_ C_ 0.33497 0.69038 0.810651 0.18167
C_ C_ 0.261076 0.628937 0.947741 0.69207
C_ C_ 0.232457 0.605754 0.490572 0.02923
C_ C_ 0.248973 0.610965 0.542836 -0.15533
C_ C_ 0.216658 0.605826 0.582014 -0.15533
C_ C_ 0.166347 0.597827 0.568473 0.02923
C_ C_ 0.151248 0.589426 0.516877 -0.15533
C_ C_ 0.182914 0.595023 0.476457 0.02923
C_ C_ 0.155612 0.61123 0.923107 0.69207
C_ C_ 0.14831 0.613467 0.665599 0.69661
C_ C_ 0.369497 0.886633 0.886648 -0.30787
C_ C_ 0.124826 0.61007 0.608696 -0.30787
N_ N_ 0.147612 0.559929 0.811534 -0.32189
N_ N_ 0.0548663 0.645899 0.823472 -0.32189
N_ N_ 0.107473 0.807283 0.557686 -0.32189
N_ N_ 0.1997 0.818976 0.641389 -0.32189
N_ N_ 0.351463 0.949565 0.685949 -0.32189
N_ N_ 0.431093 0.858253 0.680723 -0.32189
N_ N_ 0.389229 0.699935 0.949447 -0.32189
N_ N_ 0.312851 0.694175 0.85605 -0.32189
O_ O_ 0.499203 0.596949 0.88648 -0.63271
O_ O_ 0.0446429 0.539476 0.841236 -0.57982
O_ O_ 0.385665 0.59402 0.840664 -0.63271
O_ O_ 0.385949 0.604843 0.926188 -0.57982
O_ O_ 0.231842 0.899572 0.57963 -0.63271
O_ O_ 0.198894 0.834995 0.533807 -0.57982
O_ O_ 0.356887 0.84551 0.59381 -0.63271
O_ O_ 0.369129 0.926832 0.584495 -0.57982
O_ O_ 0.992179 0.913977 0.59914 -0.63271
O_ O_ 0.452859 0.960941 0.65267 -0.57982
O_ O_ 0.106341 0.899876 0.645985 -0.63271
O_ O_ 0.126121 0.906459 0.567138 -0.57982
O_ O_ 0.264966 0.598143 0.905598 -0.63271
O_ O_ 0.299493 0.657297 0.961431 -0.57982
O_ O_ 0.159074 0.652195 0.897185 -0.63271
O_ O_ 0.116629 0.584186 0.908442 -0.57982
F_ F_ 0.430284 0.824832 0.925451 -0.20885
F_ F_ 0.420616 0.816937 0.841045 -0.20885
F_ F_ 0.362147 0.794621 0.886358 -0.20885
F_ F_ 0.299861 0.93339 0.840722 -0.20885
F_ F_ 0.315488 0.850445 0.815329 -0.20885
F_ F_ 0.368334 0.906603 0.792528 -0.20885
F_ F_ 0.0732492 0.667018 0.547456 -0.20885
F_ F_ 0.0686295 0.685671 0.629111 -0.20885
F_ F_ 0.136992 0.701109 0.597534 -0.20885
F_ F_ 0.179941 0.566849 0.674026 -0.20885
F_ F_ 0.17597 0.65666 0.675788 -0.20885
F_ F_ 0.112121 0.613387 0.697596 -0.20885
Zn Zn 0.585065 0.0773467 0.342043 0.83971
Zn Zn 0.661461 0.348856 0.0891428 0.83971
Zn Zn 0.908002 0.421851 0.153658 0.83971
Zn Zn 0.836076 0.155421 0.416613 0.83971
H_ H_ 0.666263 0.128924 0.305351 0.10394
H_ H_ 0.746486 0.0954646 0.265156 0.10394
H_ H_ 0.703774 0.453571 0.284064 0.10394
H_ H_ 0.640579 0.983195 0.333518 0.10394
H_ H_ 0.0268595 0.10439 0.252319 0.10394
H_ H_ 0.994607 0.176434 0.198326 0.10394
H_ H_ 0.540764 0.258459 0.332796 0.10394
H_ H_ 0.552953 0.181162 0.377221 0.10394
H_ H_ 0.529716 0.435892 0.357716 0.10394
H_ H_ 0.981585 0.375811 0.356948 0.10394
H_ H_ 0.866531 0.482097 0.420244 0.10394
H_ H_ 0.576497 0.313483 0.135158 0.10394
H_ H_ 0.99680976 0.278613 0.0987072 0.10394
H_ H_ 0.53596 0.278894 0.446462 0.10394
H_ H_ 0.633533 0.30169 0.991764 0.10394
H_ H_ 0.727518 0.252869 0.0904624 0.10394
H_ H_ 0.770609 0.206797 0.165471 0.10394
H_ H_ 0.704389 0.321003 0.269514 0.10394
H_ H_ 0.683799 0.378292 0.198278 0.10394
H_ H_ 0.72084 0.350698 0.442379 0.10394
H_ H_ 0.768297 0.370833 0.373622 0.10394
H_ H_ 0.899102 0.396261 0.482606 0.10394
H_ H_ 0.802563 0.399694 0.164524 0.10394
H_ H_ 0.725008 0.457967 0.188624 0.10394
H_ H_ 0.832244 0.0476472 0.279323 0.10394
H_ H_ 0.897038 0.510674 0.233044 0.10394
H_ H_ 0.522932 0.379129 0.196916 0.10394
H_ H_ 0.562659 0.298563 0.23287 0.10394
H_ H_ 0.915645 0.240423 0.201937 0.10394
H_ H_ 0.869134 0.32351 0.177091 0.10394
H_ H_ 0.959359 0.0531547 0.120657 0.10394
H_ H_ 0.51138 0.123213 0.113687 0.10394
H_ H_ 0.642683 0.0105734 0.091497 0.10394
H_ H_ 0.935323 0.167159 0.396472 0.10394
H_ H_ 0.517963 0.187803 0.455882 0.10394
H_ H_ 0.903802 0.283257 0.0470223 0.10394
H_ H_ 0.837434 0.254353 0.496109 0.10394
H_ H_ 0.727873 0.198099 0.38665 0.10394
H_ H_ 0.687807 0.226548 0.30161 0.10394
H_ H_ 0.839239 0.234329 0.256277 0.10394
H_ H_ 0.873368 0.181537 0.328249 0.10394
H_ H_ 0.780266 0.131101 0.0516556 0.10394
H_ H_ 0.725451 0.123501 0.117434 0.10394
H_ H_ 0.602517 0.0863102 0.00455929 0.10394
C_ C_ 0.676529 0.0887872 0.29999 0.18167
C_ C_ 0.723837 0.0695912 0.281573 -0.15533
C_ C_ 0.736533 0.0156524 0.276149 0.02923
C_ C_ 0.693792 0.492574 0.288331 -0.15533
C_ C_ 0.660723 0.0061918 0.315394 0.18167
C_ C_ 0.529397 0.129123 0.260227 0.18167
C_ C_ 0.00817834 0.184608 0.238275 -0.15533
C_ C_ 0.510616 0.221232 0.259476 0.02923
C_ C_ 0.529894 0.222795 0.312329 -0.15533
C_ C_ 0.544638 0.178257 0.336393 0.18167
C_ C_ 0.505013 0.0406457 0.361535 0.69207
C_ C_ 0.979085 0.504689 0.373916 0.02923
C_ C_ 0.993707 0.45409 0.357979 -0.15533
C_ C_ 0.964646 0.414044 0.364304 -0.15533
C_ C_ 0.917227 0.423991 0.388228 0.02923
C_ C_ 0.905009 0.474441 0.407458 -0.15533
C_ C_ 0.931691 0.51322 0.39529 0.02923
C_ C_ 0.898702 0.068297 0.38469 0.69207
C_ C_ 0.896122 0.333795 0.367777 0.69661
C_ C_ 0.571335 0.299447 0.0946362 0.18167
C_ C_ 0.525968 0.283521 0.0732334 -0.15533
C_ C_ 0.518399 0.268816 0.0198026 0.02923
C_ C_ 0.546141 0.284014 0.487739 -0.15533
C_ C_ 0.603134 0.296608 0.0119493 0.18167
C_ C_ 0.722156 0.269668 0.132416 0.18167
C_ C_ 0.744145 0.240628 0.173004 -0.15533
C_ C_ 0.734957 0.259865 0.22507 0.02923
C_ C_ 0.708998 0.306873 0.230785 -0.15533
C_ C_ 0.695815 0.338189 0.190547 0.18167
C_ C_ 0.737791 0.377395 0.0447597 0.69207
C_ C_ 0.77731 0.365489 0.500298 0.02923
C_ C_ 0.7585 0.362023 0.450403 -0.15533
C_ C_ 0.785802 0.374978 0.412136 -0.15533
C_ C_ 0.838377 0.382798 0.421719 0.02923
C_ C_ 0.859322 0.387917 0.473216 -0.15533
C_ C_ 0.829807 0.380418 0.513117 0.02923
C_ C_ 0.846968 0.39888 0.0690098 0.69207
C_ C_ 0.842671 0.40544 0.327286 0.69661
C_ C_ 0.807414 0.437913 0.180619 0.18167
C_ C_ 0.76476 0.461677 0.205983 -0.15533
C_ C_ 0.772472 0.501884 0.243077 0.02923
C_ C_ 0.827957 0.011344 0.253951 -0.15533
C_ C_ 0.859312 0.49667 0.222539 0.18167
C_ C_ 0.983934 0.36022 0.203798 0.18167
C_ C_ 0.52073 0.303888 0.225071 -0.15533
C_ C_ 0.982924 0.276009 0.233701 0.02923
C_ C_ 0.934059 0.273183 0.209269 -0.15533
C_ C_ 0.908342 0.319159 0.191346 0.18167
C_ C_ 0.99083 0.454469 0.121825 0.69207
C_ C_ 0.523845 0.996372 0.129495 0.02923
C_ C_ 0.504839 0.0483253 0.130709 -0.15533
C_ C_ 0.530257 0.0847786 0.112989 -0.15533
C_ C_ 0.582598 0.0709652 0.102503 0.02923
C_ C_ 0.60248 0.0199982 0.0974427 -0.15533
C_ C_ 0.573299 0.981272 0.112983 0.02923
C_ C_ 0.597901 0.430308 0.110855 0.69207
C_ C_ 0.594847 0.167578 0.116054 0.69661
C_ C_ 0.932195 0.18996 0.4318 0.18167
C_ C_ 0.974019 0.213218 0.454268 -0.15533
C_ C_ 0.968414 0.249923 0.493613 0.02923
C_ C_ 0.915312 0.253108 0.0161657 -0.15533
C_ C_ 0.876672 0.243018 0.484238 0.18167
C_ C_ 0.749704 0.195795 0.352658 0.18167
C_ C_ 0.728394 0.220967 0.308707 -0.15533
C_ C_ 0.758537 0.234003 0.271211 0.02923
C_ C_ 0.811158 0.224321 0.280768 -0.15533
C_ C_ 0.831882 0.197384 0.32318 0.18167
C_ C_ 0.761719 0.113564 0.447639 0.69207
C_ C_ 0.72369 0.112706 0.990906 0.02923
C_ C_ 0.742503 0.118322 0.0424815 -0.15533
C_ C_ 0.709637 0.115426 0.0791014 -0.15533
C_ C_ 0.65801 0.107109 0.0687398 0.02923
C_ C_ 0.638476 0.0992978 0.0161796 -0.15533
C_ C_ 0.669968 0.104815 0.978307 0.02923
C_ C_ 0.646943 0.109584 0.420314 0.69207
C_ C_ 0.649438 0.103287 0.164795 0.69661
C_ C_ 0.872023 0.387683 0.378596 -0.30787
C_ C_ 0.620501 0.113215 0.111482 -0.30787
N_ N_ 0.644704 0.0556207 0.312294 -0.32189
N_ N_ 0.55085 0.132583 0.308308 -0.32189
N_ N_ 0.606689 0.309386 0.0620605 -0.32189
N_ N_ 0.700499 0.318153 0.143364 -0.32189
N_ N_ 0.853905 0.454129 0.190794 -0.32189
N_ N_ 0.935961 0.359241 0.183091 -0.32189
N_ N_ 0.884515 0.203544 0.447399 -0.32189
N_ N_ 0.801094 0.180703 0.355665 -0.32189
O_ O_ -0.00369128 0.0965958 0.403052 -0.63271
O_ O_ 0.540451 0.0298872 0.333334 -0.57982
O_ O_ 0.894647 0.0898233 0.340189 -0.63271
O_ O_ 0.864645 0.0858255 0.418091 -0.57982
O_ O_ 0.742321 0.402993 0.0882762 -0.63271
O_ O_ 0.702586 0.345372 0.0365668 -0.57982
O_ O_ 0.851998 0.354522 0.0889583 -0.63271
O_ O_ 0.878936 0.43152 0.0890085 -0.57982
O_ O_ 0.491346 0.407268 0.0970792 -0.63271
O_ O_ 0.956979 0.466317 0.154147 -0.57982
O_ O_ 0.594121 0.403817 0.150126 -0.63271
O_ O_ 0.630098 0.414109 0.0790512 -0.57982
O_ O_ 0.75419 0.0975918 0.399434 -0.63271
O_ O_ 0.79484 0.147232 0.461354 -0.57982
O_ O_ 0.648046 0.152861 0.397388 -0.63271
O_ O_ 0.60951 0.0830832 0.406924 -0.57982
F_ F_ 0.937556 0.320961 0.400508 -0.20885
F_ F_ 0.917602 0.325758 0.319621 -0.20885
F_ F_ 0.864959 0.294057 0.367071 -0.20885
F_ F_ 0.808331 0.447739 0.335398 -0.20885
F_ F_ 0.816015 0.367496 0.29963 -0.20885
F_ F_ 0.874434 0.421468 0.295342 -0.20885
F_ F_ 0.55872 0.174207 0.0753304 -0.20885
F_ F_ 0.568702 0.172088 0.158726 -0.20885
F_ F_ 0.627829 0.201977 0.116111 -0.20885
F_ F_ 0.689108 0.0647608 0.166127 -0.20885
F_ F_ 0.661576 0.147667 0.193496 -0.20885
F_ F_ 0.614838 0.0893021 0.198102 -0.20885
Zn Zn 0.588041 0.0797173 0.847751 0.83971
Zn Zn 0.657542 0.341076 0.583361 0.83971
Zn Zn 0.909352 0.417423 0.652827 0.83971
Zn Zn 0.839203 0.15424 0.914097 0.83971
H_ H_ 0.670149 0.123125 0.815642 0.10394
H_ H_ 0.746265 0.0943156 0.770095 0.10394
H_ H_ 0.72666 0.456371 0.809521 0.10394
H_ H_ 0.622206 0.978427 0.800032 0.10394
H_ H_ 0.0294477 0.0956041 0.744988 0.10394
H_ H_ 0.979737 0.173239 0.706191 0.10394
H_ H_ 0.525816 0.263367 0.84775 0.10394
H_ H_ 0.557384 0.183404 0.889676 0.10394
H_ H_ 0.541562 0.456467 0.905563 0.10394
H_ H_ 0.971855 0.376375 0.871094 0.10394
H_ H_ 0.846468 0.491138 0.882861 0.10394
H_ H_ 0.579423 0.304503 0.635261 0.10394
H_ H_ -0.0031799999999999606 0.272623 0.594894 0.10394
H_ H_ 0.553659 0.263387 0.949658 0.10394
H_ H_ 0.62133 0.310816 0.485545 0.10394
H_ H_ 0.71861 0.249879 0.598385 0.10394
H_ H_ 0.762371 0.202675 0.670146 0.10394
H_ H_ 0.716055 0.334891 0.766244 0.10394
H_ H_ 0.679207 0.377634 0.68785 0.10394
H_ H_ 0.715097 0.377813 0.942282 0.10394
H_ H_ 0.764681 0.397967 0.878525 0.10394
H_ H_ 0.894439 0.412739 0.991582 0.10394
H_ H_ 0.805504 0.402205 0.664763 0.10394
H_ H_ 0.735024 0.444382 0.709039 0.10394
H_ H_ 0.836221 0.0429825 0.783737 0.10394
H_ H_ 0.902175 0.507872 0.731685 0.10394
H_ H_ 0.518064 0.381483 0.701497 0.10394
H_ H_ 0.559102 0.307648 0.751356 0.10394
H_ H_ 0.917773 0.246172 0.714197 0.10394
H_ H_ 0.875052 0.327783 0.68402 0.10394
H_ H_ 0.971589 0.0577213 0.625149 0.10394
H_ H_ 0.518392 0.116062 0.596319 0.10394
H_ H_ 0.643779 0.00434127 0.589717 0.10394
H_ H_ 0.938835 0.154843 0.905458 0.10394
H_ H_ 0.523306 0.169008 0.976311 0.10394
H_ H_ 0.914616 0.292097 0.541389 0.10394
H_ H_ 0.83882 0.231594 0.0086474 0.10394
H_ H_ 0.732365 0.193681 0.876308 0.10394
H_ H_ 0.690787 0.231345 0.796943 0.10394
H_ H_ 0.841881 0.240726 0.758417 0.10394
H_ H_ 0.876868 0.192823 0.830582 0.10394
H_ H_ 0.786882 0.10931 0.544956 0.10394
H_ H_ 0.734395 0.0963685 0.612005 0.10394
H_ H_ 0.601297 0.100114 0.503367 0.10394
C_ C_ 0.676286 0.0846566 0.804323 0.18167
C_ C_ 0.72316 0.0675223 0.781913 -0.15533
C_ C_ 0.733755 0.0144525 0.769422 0.02923
C_ C_ 0.707493 0.493871 0.798399 -0.15533
C_ C_ 0.653294 0.000202759 0.801253 0.18167
C_ C_ 0.530374 0.133606 0.773444 0.18167
C_ C_ 0.00294035 0.17707 0.739698 -0.15533
C_ C_ 0.508333 0.226982 0.774174 0.02923
C_ C_ 0.527211 0.230493 0.825443 -0.15533
C_ C_ 0.547729 0.184863 0.849953 0.18167
C_ C_ 0.505156 0.0452961 0.870126 0.69207
C_ C_ 0.971992 0.504877 0.871689 0.02923
C_ C_ 0.985645 0.452623 0.862888 -0.15533
C_ C_ 0.954563 0.415817 0.867009 -0.15533
C_ C_ 0.904998 0.427597 0.882135 0.02923
C_ C_ 0.886641 0.480433 0.881923 -0.15533
C_ C_ 0.919244 0.518934 0.880127 0.02923
C_ C_ 0.895215 0.0717133 0.88808 0.69207
C_ C_ 0.89301 0.330032 0.894597 0.69661
C_ C_ 0.569347 0.297846 0.592812 0.18167
C_ C_ 0.525989 0.274832 0.575235 -0.15533
C_ C_ 0.513719 0.266837 0.521915 0.02923
C_ C_ 0.559039 0.274078 0.989585 -0.15533
C_ C_ 0.593764 0.298023 0.508413 0.18167
C_ C_ 0.722536 0.267616 0.634607 0.18167
C_ C_ 0.743903 0.240601 0.675821 -0.15533
C_ C_ 0.742728 0.264919 0.725314 0.02923
C_ C_ 0.718333 0.313936 0.729414 -0.15533
C_ C_ 0.69376 0.336395 0.68654 0.18167
C_ C_ 0.740488 0.361564 0.540353 0.69207
C_ C_ 0.773961 0.384354 1.00545693 0.02923
C_ C_ 0.753361 0.384444 0.955693 -0.15533
C_ C_ 0.781816 0.393052 0.917454 -0.15533
C_ C_ 0.834383 0.400074 0.927633 0.02923
C_ C_ 0.853686 0.405758 0.979874 -0.15533
C_ C_ 0.824245 0.399177 0.017765 0.02923
C_ C_ 0.850388 0.384088 0.566653 0.69207
C_ C_ 0.840988 0.381614 0.829962 0.69661
C_ C_ 0.810975 0.435492 0.688856 0.18167
C_ C_ 0.770894 0.462008 0.713941 -0.15533
C_ C_ 0.778387 0.503568 0.746702 0.02923
C_ C_ 0.827365 0.0131681 0.752204 -0.15533
C_ C_ 0.866743 0.49247 0.728951 0.18167
C_ C_ 0.998418 0.355415 0.700194 0.18167
C_ C_ 0.518288 0.310121 0.734985 -0.15533
C_ C_ 0.991181 0.271206 0.730534 0.02923
C_ C_ 0.939572 0.277772 0.709646 -0.15533
C_ C_ 0.917824 0.321656 0.688959 0.18167
C_ C_ 0.988292 0.45252 0.620074 0.69207
C_ C_ 0.52429 0.989657 0.618784 0.02923
C_ C_ 0.504768 0.0409798 0.620149 -0.15533
C_ C_ 0.535321 0.0787758 0.607492 -0.15533
C_ C_ 0.586927 0.0661842 0.599222 0.02923
C_ C_ 0.604905 0.014005 0.598245 -0.15533
C_ C_ 0.573964 0.976885 0.607347 0.02923
C_ C_ 0.599715 0.420693 0.612106 0.69207
C_ C_ 0.60367 0.160986 0.605197 0.69661
C_ C_ 0.931435 0.185776 0.933135 0.18167
C_ C_ 0.971222 0.210243 0.958118 -0.15533
C_ C_ 0.964869 0.244985 0.0022400000000000198 0.02923
C_ C_ 0.919514 0.26383 0.510371 -0.15533
C_ C_ 0.876173 0.225234 0.992646 0.18167
C_ C_ 0.75545 0.199504 0.846733 0.18167
C_ C_ 0.73309 0.224238 0.804077 -0.15533
C_ C_ 0.764156 0.238153 0.770695 0.02923
C_ C_ 0.816371 0.227096 0.779875 -0.15533
C_ C_ 0.83671 0.194045 0.818708 0.18167
C_ C_ 0.756903 0.122544 0.951033 0.69207
C_ C_ 0.727264 0.104634 0.483788 0.02923
C_ C_ 0.74705 0.104732 0.534666 -0.15533
C_ C_ 0.715281 0.100775 0.573624 -0.15533
C_ C_ 0.662836 0.0956832 0.563516 0.02923
C_ C_ 0.642527 0.0986394 0.512259 -0.15533
C_ C_ 0.674652 0.101193 0.471793 0.02923
C_ C_ 0.649107 0.105051 0.923987 0.69207
C_ C_ 0.649902 0.102569 0.664038 0.69661
C_ C_ 0.870047 0.386037 0.884908 -0.30787
C_ C_ 0.626048 0.104809 0.607337 -0.30787
N_ N_ 0.644055 0.0509873 0.815854 -0.32189
N_ N_ 0.552573 0.13911 0.82061 -0.32189
N_ N_ 0.601977 0.309787 0.558381 -0.32189
N_ N_ 0.6942 0.312284 0.64114 -0.32189
N_ N_ 0.858016 0.450868 0.694041 -0.32189
N_ N_ 0.947255 0.360032 0.682478 -0.32189
N_ N_ 0.885251 0.192902 0.953172 -0.32189
N_ N_ 0.805526 0.182238 0.852253 -0.32189
O_ O_ 0.00593092 0.0926628 0.896719 -0.63271
O_ O_ 0.545836 0.0309805 0.845722 -0.57982
O_ O_ 0.888984 0.0956423 0.844996 -0.63271
O_ O_ 0.864636 0.0884118 0.921114 -0.57982
O_ O_ 0.752103 0.385026 0.584775 -0.63271
O_ O_ 0.698117 0.339541 0.530789 -0.57982
O_ O_ 0.853577 0.344756 0.59241 -0.63271
O_ O_ 0.877636 0.421465 0.584398 -0.57982
O_ O_ 0.492452 0.402568 0.59795 -0.63271
O_ O_ 0.953054 0.463527 0.651734 -0.57982
O_ O_ 0.592272 0.393496 0.650112 -0.63271
O_ O_ 0.639835 0.404718 0.589241 -0.57982
O_ O_ 0.748205 0.102981 0.904753 -0.63271
O_ O_ 0.792457 0.152986 0.961124 -0.57982
O_ O_ 0.646157 0.148611 0.903321 -0.63271
O_ O_ 0.618061 0.0723183 0.905298 -0.57982
F_ F_ 0.930809 0.332514 0.937589 -0.20885
F_ F_ 0.921798 0.303283 0.856958 -0.20885
F_ F_ 0.856235 0.296385 0.902483 -0.20885
F_ F_ 0.81226 0.426394 0.818245 -0.20885
F_ F_ 0.808838 0.344196 0.828094 -0.20885
F_ F_ 0.872051 0.369912 0.790291 -0.20885
F_ F_ 0.574548 0.174879 0.560441 -0.20885
F_ F_ 0.571134 0.176515 0.640917 -0.20885
F_ F_ 0.639882 0.19301 0.608442 -0.20885
F_ F_ 0.677448 0.0562196 0.673999 -0.20885
F_ F_ 0.680164 0.142027 0.679598 -0.20885
F_ F_ 0.615316 0.106849 0.700183 -0.20885
Zn Zn 0.582309 0.587614 0.351954 0.83971
Zn Zn 0.665571 0.84851 0.0854877 0.83971
Zn Zn 0.909961 0.912187 0.157768 0.83971
Zn Zn 0.840986 0.649467 0.414635 0.83971
H_ H_ 0.662828 0.636281 0.304307 0.10394
H_ H_ 0.744392 0.604403 0.273793 0.10394
H_ H_ 0.722267 0.94672 0.302456 0.10394
H_ H_ 0.626819 0.486538 0.321224 0.10394
H_ H_ 0.0217007 0.596754 0.255532 0.10394
H_ H_ 0.984337 0.669841 0.209384 0.10394
H_ H_ 0.519935 0.774378 0.333545 0.10394
H_ H_ 0.566878 0.701287 0.380142 0.10394
H_ H_ 0.528654 0.940206 0.360891 0.10394
H_ H_ 0.989032 0.878143 0.401954 0.10394
H_ H_ 0.855406 0.983602 0.402808 0.10394
H_ H_ 0.590336 0.799528 0.127341 0.10394
H_ H_ 0.994401 0.780177 0.10104 0.10394
H_ H_ 0.526668 0.7999 0.443071 0.10394
H_ H_ 0.611063 0.842128 0.982438 0.10394
H_ H_ 0.731144 0.75407 0.0956919 0.10394
H_ H_ 0.760537 0.700718 0.164272 0.10394
H_ H_ 0.732559 0.83336 0.266476 0.10394
H_ H_ 0.690164 0.877284 0.1908 0.10394
H_ H_ 0.719864 0.869914 0.442096 0.10394
H_ H_ 0.773516 0.887378 0.377114 0.10394
H_ H_ 0.905325 0.892376 0.493735 0.10394
H_ H_ 0.812939 0.892741 0.170018 0.10394
H_ H_ 0.734026 0.943136 0.192106 0.10394
H_ H_ 0.8275 0.55115 0.278224 0.10394
H_ H_ 0.90234 1.00739229 0.232492 0.10394
H_ H_ 0.516607 0.878345 0.183963 0.10394
H_ H_ 0.554564 0.803772 0.231089 0.10394
H_ H_ 0.920922 0.746053 0.23174 0.10394
H_ H_ 0.878347 0.818975 0.185265 0.10394
H_ H_ 0.966867 0.556027 0.119164 0.10394
H_ H_ 0.513762 0.620751 0.102828 0.10394
H_ H_ 0.640428 0.506978 0.0951432 0.10394
H_ H_ 0.940011 0.65636 0.396438 0.10394
H_ H_ 0.520023 0.684004 0.458486 0.10394
H_ H_ 0.919439 0.773689 0.0483207 0.10394
H_ H_ 0.849854 0.733166 0.505496 0.10394
H_ H_ 0.747081 0.704267 0.386376 0.10394
H_ H_ 0.702279 0.73669 0.304609 0.10394
H_ H_ 0.846038 0.708495 0.240023 0.10394
H_ H_ 0.881382 0.662042 0.312262 0.10394
H_ H_ 0.775815 0.648646 0.057765 0.10394
H_ H_ 0.727333 0.62174 0.12464 0.10394
H_ H_ 0.600742 0.595915 0.00648174 0.10394
C_ C_ 0.67237 0.595999 0.302422 0.18167
C_ C_ 0.719167 0.576862 0.281305 -0.15533
C_ C_ 0.729408 0.52424 0.273416 0.02923
C_ C_ 0.705791 0.984503 0.294864 -0.15533
C_ C_ 0.649666 0.512907 0.307939 0.18167
C_ C_ 0.524102 0.638202 0.272198 0.18167
C_ C_ 0.00995564 0.675014 0.245437 -0.15533
C_ C_ 0.501 0.729158 0.264791 0.02923
C_ C_ 0.52229 0.737167 0.315303 -0.15533
C_ C_ 0.545365 0.695217 0.344237 0.18167
C_ C_ 0.510251 0.540324 0.374566 0.69207
C_ C_ 0.978038 0.00700752 0.39329 0.02923
C_ C_ 0.000220000000000109 0.955954 0.396937 -0.15533
C_ C_ 0.970471 0.915896 0.40071 -0.15533
C_ C_ 0.915912 0.925503 0.398069 0.02923
C_ C_ 0.894818 0.977574 0.394584 -0.15533
C_ C_ 0.924106 0.0167114 0.389064 0.02923
C_ C_ 0.901711 0.56247 0.386615 0.69207
C_ C_ 0.908558 0.826575 0.38628 0.69661
C_ C_ 0.579786 0.800337 0.0860458 0.18167
C_ C_ 0.533094 0.779745 0.0697565 -0.15533
C_ C_ 0.517728 0.780399 0.0162743 0.02923
C_ C_ 0.54131 0.794329 0.482671 -0.15533
C_ C_ 0.591541 0.82312 0.00537844 0.18167
C_ C_ 0.721392 0.765464 0.13451 0.18167
C_ C_ 0.741623 0.737387 0.174034 -0.15533
C_ C_ 0.751174 0.761385 0.223633 0.02923
C_ C_ 0.73483 0.814587 0.229512 -0.15533
C_ C_ 0.707346 0.838737 0.186123 0.18167
C_ C_ 0.747464 0.863288 0.047732 0.69207
C_ C_ 0.78003 0.868772 0.504645 0.02923
C_ C_ 0.760548 0.874171 0.453408 -0.15533
C_ C_ 0.791701 0.879074 0.415975 -0.15533
C_ C_ 0.843652 0.884189 0.428016 0.02923
C_ C_ 0.864011 0.886386 0.480978 -0.15533
C_ C_ 0.833181 0.877915 0.518861 0.02923
C_ C_ 0.857106 0.882031 0.0729649 0.69207
C_ C_ 0.858718 0.88774 0.331703 0.69661
C_ C_ 0.815294 0.929507 0.187485 0.18167
C_ C_ 0.772827 0.95432 0.207051 -0.15533
C_ C_ 0.778027 0.993974 0.243126 0.02923
C_ C_ 0.819841 0.519632 0.25124 -0.15533
C_ C_ 0.866388 0.992583 0.226531 0.18167
C_ C_ 0.995138 0.85536 0.211473 0.18167
C_ C_ 0.512548 0.809251 0.222521 -0.15533
C_ C_ 0.994797 0.768177 0.238005 0.02923
C_ C_ 0.942941 0.772047 0.220394 -0.15533
C_ C_ 0.917932 0.814213 0.197522 0.18167
C_ C_ 0.986243 0.95238 0.128629 0.69207
C_ C_ 0.518262 0.491541 0.109701 0.02923
C_ C_ 0.499069 0.544058 0.108309 -0.15533
C_ C_ 0.531261 0.582949 0.102319 -0.15533
C_ C_ 0.583045 0.570737 0.101497 0.02923
C_ C_ 0.6015 0.518251 0.0987759 -0.15533
C_ C_ 0.57075 0.480231 0.106638 0.02923
C_ C_ 0.600932 0.929003 0.115489 0.69207
C_ C_ 0.595291 0.666319 0.112375 0.69661
C_ C_ 0.936445 0.681868 0.430585 0.18167
C_ C_ 0.98132 0.698666 0.456022 -0.15533
C_ C_ 0.978377 0.734226 0.496073 0.02923
C_ C_ 0.923717 0.750266 1.0148434 -0.15533
C_ C_ 0.884792 0.729449 0.486872 0.18167
C_ C_ 0.767494 0.70756 0.352717 0.18167
C_ C_ 0.742243 0.728901 0.308674 -0.15533
C_ C_ 0.772063 0.730904 0.266763 0.02923
C_ C_ 0.820841 0.706228 0.269381 -0.15533
C_ C_ 0.841517 0.680459 0.313181 0.18167
C_ C_ 0.769775 0.619457 0.455561 0.69207
C_ C_ 0.721291 0.627637 0.994485 0.02923
C_ C_ 0.738593 0.632996 0.0465493 -0.15533
C_ C_ 0.708097 0.623374 0.0845565 -0.15533
C_ C_ 0.658435 0.607249 0.0721759 0.02923
C_ C_ 0.640832 0.602502 0.018942 -0.15533
C_ C_ 0.672716 0.611187 0.980452 0.02923
C_ C_ 0.654351 0.606745 0.4243 0.69207
C_ C_ 0.648569 0.604518 0.167477 0.69661
C_ C_ 0.880877 0.88258 0.387088 -0.30787
C_ C_ 0.621934 0.611626 0.111634 -0.30787
N_ N_ 0.639059 0.563169 0.313455 -0.32189
N_ N_ 0.550655 0.647856 0.318166 -0.32189
N_ N_ 0.607612 0.822017 0.055913 -0.32189
N_ N_ 0.699345 0.812021 0.141153 -0.32189
N_ N_ 0.861938 0.947481 0.197194 -0.32189
N_ N_ 0.945456 0.852585 0.190886 -0.32189
N_ N_ 0.890801 0.691987 0.448902 -0.32189
N_ N_ 0.815458 0.685512 0.355406 -0.32189
O_ O_ 0.00839854 0.585564 0.399607 -0.63271
O_ O_ 0.547765 0.533356 0.344614 -0.57982
O_ O_ 0.900773 0.58484 0.343725 -0.63271
O_ O_ 0.876954 0.586016 0.423744 -0.57982
O_ O_ 0.749405 0.887935 0.09267 -0.63271
O_ O_ 0.706915 0.837179 0.0350841 -0.57982
O_ O_ 0.854276 0.843909 0.0996379 -0.63271
O_ O_ 0.884234 0.919807 0.0923606 -0.57982
O_ O_ 0.484808 0.918665 0.101067 -0.63271
O_ O_ 0.949483 0.962498 0.159212 -0.57982
O_ O_ 0.588382 0.896122 0.145914 -0.63271
O_ O_ 0.641406 0.91763 0.091148 -0.57982
O_ O_ 0.761303 0.607083 0.405241 -0.63271
O_ O_ 0.804288 0.65204 0.467854 -0.57982
O_ O_ 0.644779 0.650375 0.40168 -0.63271
O_ O_ 0.622645 0.57304 0.409103 -0.57982
F_ F_ 0.933724 0.813862 0.435252 -0.20885
F_ F_ 0.944687 0.82015 0.352553 -0.20885
F_ F_ 0.874731 0.788892 0.375528 -0.20885
F_ F_ 0.827273 0.934216 0.325974 -0.20885
F_ F_ 0.830136 0.848322 0.309446 -0.20885
F_ F_ 0.894931 0.892197 0.298714 -0.20885
F_ F_ 0.566838 0.674106 0.0648927 -0.20885
F_ F_ 0.565783 0.677834 0.149847 -0.20885
F_ F_ 0.629545 0.702295 0.121054 -0.20885
F_ F_ 0.684621 0.56251 0.169852 -0.20885
F_ F_ 0.673278 0.643912 0.185037 -0.20885
F_ F_ 0.61139 0.600469 0.198569 -0.20885
Zn Zn 0.585925 0.587324 0.846555 0.83971
Zn Zn 0.663258 0.841612 0.581196 0.83971
Zn Zn 0.91253 0.918773 0.652178 0.83971
Zn Zn 0.83947 0.654063 0.919441 0.83971
H_ H_ 0.664994 0.63718 0.79429 0.10394
H_ H_ 0.741777 0.604611 0.759695 0.10394
H_ H_ 0.708546 0.938676 0.781904 0.10394
H_ H_ 0.63968 0.490401 0.83975 0.10394
H_ H_ 0.0192049 0.601415 0.761735 0.10394
H_ H_ 0.973926 0.673263 0.715832 0.10394
H_ H_ 0.529943 0.775281 0.821669 0.10394
H_ H_ 0.571358 0.703886 0.871042 0.10394
H_ H_ 0.530046 0.94335 0.872347 0.10394
H_ H_ 0.984428 0.882165 0.895729 0.10394
H_ H_ 0.856754 0.988373 0.909221 0.10394
H_ H_ 0.579625 0.804511 0.628004 0.10394
H_ H_ 0.00146556 0.766065 0.596452 0.10394
H_ H_ 0.538213 0.805101 0.944473 0.10394
H_ H_ 0.608778 0.836766 0.481441 0.10394
H_ H_ 0.721957 0.742917 0.596349 0.10394
H_ H_ 0.755796 0.700836 0.675347 0.10394
H_ H_ 0.699341 0.824975 0.76731 0.10394
H_ H_ 0.669265 0.87223 0.687764 0.10394
H_ H_ 0.718535 0.866479 0.949501 0.10394
H_ H_ 0.770183 0.881658 0.882468 0.10394
H_ H_ 0.894327 0.912343 0.990096 0.10394
H_ H_ 0.811484 0.902667 0.653835 0.10394
H_ H_ 0.740641 0.936105 0.697105 0.10394
H_ H_ 0.83312 0.545284 0.786677 0.10394
H_ H_ 0.904776 1.0105889 0.731093 0.10394
H_ H_ 0.508473 0.865414 0.668016 0.10394
H_ H_ 0.542462 0.784812 0.708247 0.10394
H_ H_ 0.907712 0.755028 0.742496 0.10394
H_ H_ 0.867889 0.831398 0.691181 0.10394
H_ H_ 0.962405 0.55648 0.613091 0.10394
H_ H_ 0.517174 0.606247 0.570156 0.10394
H_ H_ 0.647125 0.5004 0.596715 0.10394
H_ H_ 0.943195 0.650675 0.90075 0.10394
H_ H_ 0.515265 0.696312 0.949782 0.10394
H_ H_ 0.924254 0.783212 0.537828 0.10394
H_ H_ 0.848101 0.731232 1.00729 0.10394
H_ H_ 0.731011 0.692081 0.88469 0.10394
H_ H_ 0.688906 0.732791 0.805579 0.10394
H_ H_ 0.834465 0.728156 0.748275 0.10394
H_ H_ 0.876363 0.703312 0.835362 0.10394
H_ H_ 0.786695 0.623639 0.559845 0.10394
H_ H_ 0.726978 0.625057 0.623199 0.10394
H_ H_ 0.607834 0.602153 0.505383 0.10394
C_ C_ 0.676451 0.595568 0.795977 0.18167
C_ C_ 0.719477 0.577802 0.774472 -0.15533
C_ C_ 0.737093 0.525396 0.77631 0.02923
C_ C_ 0.695925 0.97966 0.777638 -0.15533
C_ C_ 0.662435 0.513445 0.817573 0.18167
C_ C_ 0.517887 0.637047 0.77431 0.18167
C_ C_ -0.003638999999999948 0.681534 0.754272 -0.15533
C_ C_ 0.494112 0.727602 0.761816 0.02923
C_ C_ 0.524575 0.737193 0.807512 -0.15533
C_ C_ 0.546585 0.695254 0.837658 0.18167
C_ C_ 0.506529 0.549672 0.869415 0.69207
C_ C_ 0.973254 0.00747463 0.876795 0.02923
C_ C_ -0.005564000000000013 0.956936 0.881082 -0.15533
C_ C_ 0.96756 0.917718 0.890403 -0.15533
C_ C_ 0.915588 0.928837 0.893834 0.02923
C_ C_ 0.895388 0.979927 0.900125 -0.15533
C_ C_ 0.922286 0.0198695 0.891412 0.02923
C_ C_ 0.895315 0.571402 0.87924 0.69207
C_ C_ 0.902991 0.832821 0.900813 0.69661
C_ C_ 0.572108 0.795086 0.587984 0.18167
C_ C_ 0.527899 0.771702 0.568921 -0.15533
C_ C_ 0.512347 0.772065 0.516643 0.02923
C_ C_ 0.545954 0.805754 0.984909 -0.15533
C_ C_ 0.588346 0.812812 0.503859 0.18167
C_ C_ 0.715428 0.760728 0.633783 0.18167
C_ C_ 0.733156 0.734356 0.67775 -0.15533
C_ C_ 0.735178 0.761137 0.727064 0.02923
C_ C_ 0.705677 0.808328 0.729863 -0.15533
C_ C_ 0.68735 0.832447 0.685401 0.18167
C_ C_ 0.744754 0.865111 0.543223 0.69207
C_ C_ 0.779503 0.877136 1.0116884 0.02923
C_ C_ 0.758065 0.874398 0.959519 -0.15533
C_ C_ 0.786537 0.882169 0.919942 -0.15533
C_ C_ 0.839025 0.894695 0.931481 0.02923
C_ C_ 0.856166 0.901314 0.982462 -0.15533
C_ C_ 0.83 0.886134 0.0218007 0.02923
C_ C_ 0.856748 0.880527 0.571046 0.69207
C_ C_ 0.849594 0.890528 0.835654 0.69661
C_ C_ 0.816563 0.934453 0.680258 0.18167
C_ C_ 0.775855 0.951638 0.70737 -0.15533
C_ C_ 0.779652 -0.006206000000000045 0.741284 0.02923
C_ C_ 0.826567 0.51973 0.755625 -0.15533
C_ C_ 0.868249 0.993824 0.726298 0.18167
C_ C_ 0.990944 0.848947 0.698117 0.18167
C_ C_ 0.502661 0.798335 0.70697 -0.15533
C_ C_ 0.979938 0.777464 0.747943 0.02923
C_ C_ 0.930262 0.782048 0.730014 -0.15533
C_ C_ 0.908731 0.823588 0.700755 0.18167
C_ C_ 0.993131 0.956096 0.627673 0.69207
C_ C_ 0.523809 0.487886 0.612877 0.02923
C_ C_ 0.503956 0.537946 0.601932 -0.15533
C_ C_ 0.53386 0.571464 0.584059 -0.15533
C_ C_ 0.58655 0.563877 0.594359 0.02923
C_ C_ 0.608271 0.511973 0.6029 -0.15533
C_ C_ 0.577768 0.474759 0.610342 0.02923
C_ C_ 0.595118 0.921868 0.608639 0.69207
C_ C_ 0.594185 0.65844 0.610985 0.69661
C_ C_ 0.938418 0.679961 0.93281 0.18167
C_ C_ 0.979578 0.703745 0.955685 -0.15533
C_ C_ 0.972098 0.741496 0.995441 0.02923
C_ C_ 0.928686 0.749769 0.512307 -0.15533
C_ C_ 0.882838 0.72835 0.989349 0.18167
C_ C_ 0.754765 0.700788 0.856915 0.18167
C_ C_ 0.730601 0.722454 0.812302 -0.15533
C_ C_ 0.758953 0.734274 0.772713 0.02923
C_ C_ 0.811943 0.721698 0.778108 -0.15533
C_ C_ 0.835489 0.705316 0.82753 0.18167
C_ C_ 0.759174 0.627226 0.958374 0.69207
C_ C_ 0.731612 0.614416 0.493507 0.02923
C_ C_ 0.749216 0.616618 0.54687 -0.15533
C_ C_ 0.714262 0.619117 0.582048 -0.15533
C_ C_ 0.664237 0.604506 0.567777 0.02923
C_ C_ 0.646547 0.606492 0.516064 -0.15533
C_ C_ 0.678516 0.605613 0.477262 0.02923
C_ C_ 0.646477 0.61317 0.928551 0.69207
C_ C_ 0.647567 0.597331 0.664444 0.69661
C_ C_ 0.878436 0.888097 0.89113 -0.30787
C_ C_ 0.623912 0.605467 0.607578 -0.30787
N_ N_ 0.64571 0.564203 0.811985 -0.32189
N_ N_ 0.545617 0.647865 0.818712 -0.32189
N_ N_ 0.604038 0.808425 0.5554 -0.32189
N_ N_ 0.693192 0.809665 0.638807 -0.32189
N_ N_ 0.863622 0.951223 0.693498 -0.32189
N_ N_ 0.939393 0.856769 0.685651 -0.32189
N_ N_ 0.890845 0.692648 0.950804 -0.32189
N_ N_ 0.807308 0.689628 0.861797 -0.32189
O_ O_ 1.00437678 0.582688 0.905102 -0.63271
O_ O_ 0.544967 0.537509 0.843133 -0.57982
O_ O_ 0.897681 0.597358 0.839401 -0.63271
O_ O_ 0.863119 0.589613 0.913014 -0.57982
O_ O_ 0.74721 0.890835 0.586275 -0.63271
O_ O_ 0.70453 0.839839 0.531233 -0.57982
O_ O_ 0.857502 0.841916 0.601101 -0.63271
O_ O_ 0.88776 0.915781 0.586113 -0.57982
O_ O_ 0.487062 0.912654 0.591064 -0.63271
O_ O_ 0.957868 0.965686 0.65887 -0.57982
O_ O_ 0.584802 0.892961 0.64477 -0.63271
O_ O_ 0.627488 0.904418 0.576175 -0.57982
O_ O_ 0.756154 0.598927 0.915072 -0.63271
O_ O_ 0.791864 0.660395 0.962504 -0.57982
O_ O_ 0.652542 0.651831 0.902257 -0.63271
O_ O_ 0.608587 0.585894 0.912337 -0.57982
F_ F_ 0.939504 0.828003 0.944532 -0.20885
F_ F_ 0.924775 0.813196 0.858192 -0.20885
F_ F_ 0.867787 0.797942 0.90614 -0.20885
F_ F_ 0.815733 0.93491 0.83103 -0.20885
F_ F_ 0.823073 0.848686 0.824636 -0.20885
F_ F_ 0.881891 0.894215 0.797454 -0.20885
F_ F_ 0.56796 0.668069 0.563714 -0.20885
F_ F_ 0.557745 0.665336 0.6473 -0.20885
F_ F_ 0.62904 0.69537 0.62529 -0.20885
F_ F_ 0.684525 0.5556 0.664386 -0.20885
F_ F_ 0.670294 0.636817 0.691259 -0.20885
F_ F_ 0.609507 0.594536 0.697821 -0.20885
_cell_length_a 26.508
_cell_length_b 26.37200000322088
_cell_length_c 26.311999743092066
_cell_angle_alpha 93.74100058972084
_cell_angle_beta 96.04100104955006
_cell_angle_gamma 83.6869992558723
_symmetry_space_group_name_H-M         'P 1'
_symmetry_Int_Tables_number            1
loop_
_symmetry_equiv_pos_as_xyz
   'x, y, z'
                         
loop_
_atom_site_label
_atom_site_type_symbol
_atom_site_fract_x 
_atom_site_fract_y
_atom_site_fract_z
_atom_site_charge
Zn Zn 0.0873585 0.094631 0.352541 0.83971
Zn Zn 0.161172 0.343326 0.0732799 0.83971
Zn Zn 0.411283 0.413599 0.152899 0.83971
Zn Zn 0.338046 0.155513 0.411791 0.83971
H_ H_ 0.160335 0.133058 0.292017 0.10394
H_ H_ 0.235518 0.0963677 0.257057 0.10394
H_ H_ 0.220886 0.445946 0.299051 0.10394
H_ H_ 0.137428 0.991862 0.345077 0.10394
H_ H_ 0.528118 0.0912759 0.238288 0.10394
H_ H_ 0.485603 0.167484 0.200464 0.10394
H_ H_ 0.0204948 0.277657 0.334398 0.10394
H_ H_ 0.0609334 0.20663 0.382795 0.10394
H_ H_ 0.0307356 0.443432 0.341815 0.10394
H_ H_ 0.476702 0.371954 0.367814 0.10394
H_ H_ 0.368027 0.48572 0.429998 0.10394
H_ H_ 0.07849 0.309973 0.128301 0.10394
H_ H_ 0.495084 0.284101 0.0980227 0.10394
H_ H_ 0.0436458 0.277267 0.44376 0.10394
H_ H_ 0.10756 0.326752 0.976507 0.10394
H_ H_ 0.239555 0.256836 0.0844554 0.10394
H_ H_ 0.268523 0.203013 0.155075 0.10394
H_ H_ 0.216699 0.329979 0.258402 0.10394
H_ H_ 0.187198 0.376347 0.183312 0.10394
H_ H_ 0.219468 0.352409 0.448915 0.10394
H_ H_ 0.262155 0.380456 0.384154 0.10394
H_ H_ 0.393698 0.406647 0.491347 0.10394
H_ H_ 0.308841 0.396428 0.158725 0.10394
H_ H_ 0.239307 0.435605 0.211739 0.10394
H_ H_ 0.324488 0.0428408 0.286302 0.10394
H_ H_ 0.406838 0.503455 0.225582 0.10394
H_ H_ 0.000695201 0.394949 0.207206 0.10394
H_ H_ 0.0457233 0.318171 0.252197 0.10394
H_ H_ 0.41315 0.244221 0.220866 0.10394
H_ H_ 0.377309 0.32424 0.185626 0.10394
H_ H_ 0.466371 0.0598141 0.143514 0.10394
H_ H_ 0.00794333 0.118006 0.10089 0.10394
H_ H_ 0.139735 0.00793503 0.0901411 0.10394
H_ H_ 0.440189 0.159642 0.398139 0.10394
H_ H_ 0.0140802 0.195785 0.447638 0.10394
H_ H_ 0.416704 0.298711 0.0187961 0.10394
H_ H_ 0.34296 0.237646 0.499034 0.10394
H_ H_ 0.241477 0.21506 0.384227 0.10394
H_ H_ 0.202163 0.258979 0.304615 0.10394
H_ H_ 0.337474 0.206536 0.23182 0.10394
H_ H_ 0.376994 0.175822 0.314157 0.10394
H_ H_ 0.285759 0.106149 0.0583286 0.10394
H_ H_ 0.226254 0.0957547 0.121035 0.10394
H_ H_ 0.100017 0.100635 0.00941663 0.10394
C_ C_ 0.170525 0.0932427 0.294977 0.18167
C_ C_ 0.213877 0.0716189 0.27479 -0.15533
C_ C_ 0.228413 0.0193355 0.274675 0.02923
C_ C_ 0.207516 0.483867 0.295057 -0.15533
C_ C_ 0.153541 0.0122242 0.317834 0.18167
C_ C_ 0.026262 0.143316 0.270566 0.18167
C_ C_ 0.508438 0.17275 0.233904 -0.15533
C_ C_ 0.00587458 0.233287 0.263622 0.02923
C_ C_ 0.023232 0.239736 0.317153 -0.15533
C_ C_ 0.0468389 0.199754 0.342359 0.18167
C_ C_ 0.010982 0.0493808 0.389144 0.69207
C_ C_ 0.477054 0.498656 0.378806 0.02923
C_ C_ 0.495534 0.447802 0.372043 -0.15533
C_ C_ 0.464509 0.409718 0.379178 -0.15533
C_ C_ 0.413338 0.422192 0.392961 0.02923
C_ C_ 0.400138 0.473047 0.407025 -0.15533
C_ C_ 0.426629 0.511246 0.39105 0.02923
C_ C_ 0.394843 0.0691831 0.384029 0.69207
C_ C_ 0.398862 0.326622 0.390852 0.69661
C_ C_ 0.0663464 0.308958 0.0882417 0.18167
C_ C_ 0.0236119 0.284562 0.0722855 -0.15533
C_ C_ 0.00651185 0.277173 0.0205142 0.02923
C_ C_ 0.0485213 0.291337 0.483436 -0.15533
C_ C_ 0.0820146 0.316408 0.00320507 0.18167
C_ C_ 0.234337 0.270872 0.121912 0.18167
C_ C_ 0.253662 0.241985 0.1639 -0.15533
C_ C_ 0.245408 0.263339 0.213839 0.02923
C_ C_ 0.219751 0.311388 0.219656 -0.15533
C_ C_ 0.198241 0.337057 0.177226 0.18167
C_ C_ 0.242653 0.374896 0.0403597 0.69207
C_ C_ 0.275318 0.371885 0.51035 0.02923
C_ C_ 0.253406 0.37031 0.460437 -0.15533
C_ C_ 0.282022 0.380006 0.420925 -0.15533
C_ C_ 0.335603 0.389093 0.429892 0.02923
C_ C_ 0.354093 0.396283 0.480512 -0.15533
C_ C_ 0.328474 0.37924 0.520232 0.02923
C_ C_ 0.355249 0.385993 0.067758 0.69207
C_ C_ 0.345096 0.38694 0.333757 0.69661
C_ C_ 0.312819 0.430007 0.182082 0.18167
C_ C_ 0.275048 0.453063 0.211938 -0.15533
C_ C_ 0.283959 0.493304 0.248977 0.02923
C_ C_ 0.317715 0.0166252 0.252487 -0.15533
C_ C_ 0.369829 0.487972 0.222433 0.18167
C_ C_ 0.498973 0.34866 0.201381 0.18167
C_ C_ 0.00806718 0.320308 0.234349 -0.15533
C_ C_ 0.489584 0.267138 0.233338 0.02923
C_ C_ 0.43702 0.273069 0.219436 -0.15533
C_ C_ 0.417868 0.315607 0.193246 0.18167
C_ C_ 0.484558 0.453664 0.117199 0.69207
C_ C_ 0.0209223 0.991788 0.119763 0.02923
C_ C_ -0.0004999999999999449 0.0416072 0.117114 -0.15533
C_ C_ 0.029065 0.0792727 0.109538 -0.15533
C_ C_ 0.0802751 0.0679805 0.100908 0.02923
C_ C_ 0.101098 0.0172276 0.0974724 -0.15533
C_ C_ 0.0729035 0.978963 0.108677 0.02923
C_ C_ 0.0997788 0.42579 0.105452 0.69207
C_ C_ 0.0937221 0.168936 0.104751 0.69661
C_ C_ 0.437771 0.179159 0.437464 0.18167
C_ C_ 0.480832 0.194786 0.46721 -0.15533
C_ C_ 0.470545 0.237828 0.501646 0.02923
C_ C_ 0.42442 0.260178 0.00200923 -0.15533
C_ C_ 0.3813 0.224376 0.491622 0.18167
C_ C_ 0.26194 0.217424 0.35157 0.18167
C_ C_ 0.239813 0.237598 0.305201 -0.15533
C_ C_ 0.267387 0.235577 0.260894 0.02923
C_ C_ 0.314133 0.205999 0.26208 -0.15533
C_ C_ 0.338418 0.190129 0.311026 0.18167
C_ C_ 0.267277 0.113128 0.455659 0.69207
C_ C_ 0.226207 0.121211 0.995386 0.02923
C_ C_ 0.245268 0.108206 0.0457621 -0.15533
C_ C_ 0.211671 0.104984 0.0832301 -0.15533
C_ C_ 0.159309 0.102187 0.0702326 0.02923
C_ C_ 0.141956 0.103552 0.0180636 -0.15533
C_ C_ 0.173948 0.115074 0.980784 0.02923
C_ C_ 0.149712 0.117074 0.431004 0.69207
C_ C_ 0.141821 0.107287 0.163487 0.69661
C_ C_ 0.372279 0.382084 0.388444 -0.30787
C_ C_ 0.116811 0.11117 0.108433 -0.30787
N_ N_ 0.13851 0.0622184 0.315526 -0.32189
N_ N_ 0.0500931 0.151819 0.316667 -0.32189
N_ N_ 0.0975222 0.319847 0.0539971 -0.32189
N_ N_ 0.202013 0.314835 0.12945 -0.32189
N_ N_ 0.359404 0.448668 0.188983 -0.32189
N_ N_ 0.448323 0.354175 0.18524 -0.32189
N_ N_ 0.387768 0.195342 0.448529 -0.32189
N_ N_ 0.307481 0.187794 0.350649 -0.32189
O_ O_ 0.499498 0.0878357 0.384724 -0.63271
O_ O_ 0.0450594 0.0439513 0.357408 -0.57982
O_ O_ 0.396262 0.0976049 0.343121 -0.63271
O_ O_ 0.372351 0.0934341 0.422118 -0.57982
O_ O_ 0.241034 0.401905 0.0850118 -0.63271
O_ O_ 0.205674 0.347013 0.0273688 -0.57982
O_ O_ 0.358991 0.344335 0.0917099 -0.63271
O_ O_ 0.384474 0.420761 0.0886782 -0.57982
O_ O_ 0.992552 0.410315 0.0968073 -0.63271
O_ O_ 0.449627 0.463138 0.148883 -0.57982
O_ O_ 0.0958695 0.39992 0.144793 -0.63271
O_ O_ 0.129833 0.409012 0.0709468 -0.57982
O_ O_ 0.264662 0.083388 0.412656 -0.63271
O_ O_ 0.293241 0.154158 0.458904 -0.57982
O_ O_ 0.167154 0.144053 0.39767 -0.63271
O_ O_ 0.104259 0.100561 0.420112 -0.57982
F_ F_ 0.434842 0.32305 0.433514 -0.20885
F_ F_ 0.421667 0.306206 0.346712 -0.20885
F_ F_ 0.364408 0.293142 0.395209 -0.20885
F_ F_ 0.313936 0.432089 0.331303 -0.20885
F_ F_ 0.315614 0.348891 0.317281 -0.20885
F_ F_ 0.382265 0.391814 0.300328 -0.20885
F_ F_ 0.0679695 0.174826 0.0568332 -0.20885
F_ F_ 0.0621998 0.186715 0.143415 -0.20885
F_ F_ 0.134563 0.200165 0.108285 -0.20885
F_ F_ 0.169464 0.0618279 0.168822 -0.20885
F_ F_ 0.174108 0.146192 0.178521 -0.20885
F_ F_ 0.104339 0.11127 0.196895 -0.20885
Zn Zn 0.0855441 0.0874181 0.846072 0.83971
Zn Zn 0.159204 0.345501 0.586019 0.83971
Zn Zn 0.411194 0.412158 0.654504 0.83971
Zn Zn 0.341729 0.150997 0.92163 0.83971
H_ H_ 0.174297 0.133455 0.80915 0.10394
H_ H_ 0.254069 0.0925382 0.776136 0.10394
H_ H_ 0.21714 0.449935 0.793467 0.10394
H_ H_ 0.124767 0.990179 0.822912 0.10394
H_ H_ 0.532254 0.0956364 0.75135 0.10394
H_ H_ 0.487006 0.17095 0.708635 0.10394
H_ H_ 0.0414775 0.271735 0.82566 0.10394
H_ H_ 0.0636357 0.19347 0.877925 0.10394
H_ H_ 0.0256833 0.440616 0.853718 0.10394
H_ H_ 0.493104 0.391277 0.92617 0.10394
H_ H_ 0.358827 0.489692 0.918494 0.10394
H_ H_ 0.0738881 0.314485 0.62977 0.10394
H_ H_ 0.502976 0.259432 0.59954 0.10394
H_ H_ 0.0289501 0.287739 0.944315 0.10394
H_ H_ 0.127764 0.306539 0.485962 0.10394
H_ H_ 0.226514 0.250273 0.603232 0.10394
H_ H_ 0.260813 0.206368 0.680791 0.10394
H_ H_ 0.205247 0.333585 0.770651 0.10394
H_ H_ 0.176433 0.37943 0.694819 0.10394
H_ H_ 0.218081 0.389041 0.938163 0.10394
H_ H_ 0.276182 0.38771 0.875488 0.10394
H_ H_ 0.407258 0.388576 0.989467 0.10394
H_ H_ 0.306687 0.391685 0.66326 0.10394
H_ H_ 0.235081 0.443929 0.698178 0.10394
H_ H_ 0.334906 0.0409626 0.779351 0.10394
H_ H_ 0.403724 0.50041 0.729242 0.10394
H_ H_ 0.0222129 0.386003 0.695012 0.10394
H_ H_ 0.0605284 0.3056 0.737832 0.10394
H_ H_ 0.407859 0.252166 0.748151 0.10394
H_ H_ 0.37113 0.329051 0.691301 0.10394
H_ H_ 0.464193 0.0515618 0.608579 0.10394
H_ H_ 0.0360648 0.12138 0.633596 0.10394
H_ H_ 0.152255 0.00544732 0.593024 0.10394
H_ H_ 0.448051 0.120862 0.956228 0.10394
H_ H_ 0.00726476 0.203595 0.942759 0.10394
H_ H_ 0.413035 0.277712 0.543633 0.10394
H_ H_ 0.345185 0.246436 -0.011131000000000002 0.10394
H_ H_ 0.235597 0.203475 0.899722 0.10394
H_ H_ 0.187544 0.236086 0.822107 0.10394
H_ H_ 0.33096 0.243549 0.762328 0.10394
H_ H_ 0.373008 0.189719 0.830646 0.10394
H_ H_ 0.289157 0.122154 0.552601 0.10394
H_ H_ 0.242874 0.102306 0.615319 0.10394
H_ H_ 0.114276 0.080429 0.511196 0.10394
C_ C_ 0.178611 0.0924378 0.800894 0.18167
C_ C_ 0.224774 0.0706772 0.787145 -0.15533
C_ C_ 0.234169 0.0167816 0.779997 0.02923
C_ C_ 0.211774 0.491771 0.799128 -0.15533
C_ C_ 0.153828 0.0105538 0.81125 0.18167
C_ C_ 0.0279364 0.135476 0.763067 0.18167
C_ C_ 0.505393 0.178333 0.748495 -0.15533
C_ C_ 0.0118866 0.226054 0.761048 0.02923
C_ C_ 0.0348165 0.232161 0.810126 -0.15533
C_ C_ 0.0525702 0.188767 0.837454 0.18167
C_ C_ 0.00749941 0.0479238 0.8691 0.69207
C_ C_ 0.474351 0.510367 0.882577 0.02923
C_ C_ 0.500147 0.461807 0.896464 -0.15533
C_ C_ 0.471983 0.422651 0.90611 -0.15533
C_ C_ 0.417867 0.431803 0.898768 0.02923
C_ C_ 0.396 0.481776 0.901639 -0.15533
C_ C_ 0.421344 0.522657 0.888566 0.02923
C_ C_ 0.393687 0.0706942 0.888207 0.69207
C_ C_ 0.412927 0.337262 0.878633 0.69661
C_ C_ 0.0682262 0.305495 0.590074 0.18167
C_ C_ 0.0225812 0.284182 0.569026 -0.15533
C_ C_ 0.0151467 0.273095 0.51634 0.02923
C_ C_ 0.0373596 0.295497 0.984455 -0.15533
C_ C_ 0.0952871 0.307567 0.507116 0.18167
C_ C_ 0.221741 0.270586 0.639656 0.18167
C_ C_ 0.236879 0.242538 0.683927 -0.15533
C_ C_ 0.228796 0.265178 0.733098 0.02923
C_ C_ 0.211639 0.316313 0.735825 -0.15533
C_ C_ 0.195361 0.342081 0.690606 0.18167
C_ C_ 0.242047 0.362754 0.550387 0.69207
C_ C_ 0.278561 0.384735 0.00178694 0.02923
C_ C_ 0.259107 0.38452 0.950546 -0.15533
C_ C_ 0.292853 0.387933 0.913395 -0.15533
C_ C_ 0.346559 0.389241 0.924001 0.02923
C_ C_ 0.364016 0.392369 0.977002 -0.15533
C_ C_ 0.331871 0.389223 0.0147661 0.02923
C_ C_ 0.358466 0.37787 0.572715 0.69207
C_ C_ 0.359084 0.398974 0.830272 0.69661
C_ C_ 0.312268 0.427079 0.686146 0.18167
C_ C_ 0.272027 0.455533 0.707201 -0.15533
C_ C_ 0.281168 0.499168 0.742561 0.02923
C_ C_ 0.324658 0.0128988 0.75035 -0.15533
C_ C_ 0.366342 0.489421 0.72075 0.18167
C_ C_ 0.493793 0.351455 0.709606 0.18167
C_ C_ 0.0201545 0.311356 0.726965 -0.15533
C_ C_ 0.485627 0.272379 0.745885 0.02923
C_ C_ 0.432512 0.276308 0.729338 -0.15533
C_ C_ 0.4123 0.32304 0.705609 0.18167
C_ C_ 0.491607 0.447575 0.624214 0.69207
C_ C_ 0.0285902 0.993849 0.618649 0.02923
C_ C_ 0.0116512 0.0462268 0.62363 -0.15533
C_ C_ 0.0465125 0.0832594 0.620247 -0.15533
C_ C_ 0.0965983 0.0689356 0.609211 0.02923
C_ C_ 0.112484 0.0160256 0.599965 -0.15533
C_ C_ 0.0791378 0.978874 0.605899 0.02923
C_ C_ 0.099419 0.424564 0.607393 0.69207
C_ C_ 0.113343 0.170866 0.612659 0.69661
C_ C_ 0.442589 0.16168 0.963609 0.18167
C_ C_ 0.483744 0.188419 0.979859 -0.15533
C_ C_ 0.475561 0.238245 0.999661843 0.02923
C_ C_ 0.421597 0.250112 0.515473 -0.15533
C_ C_ 0.384138 0.231392 0.983485 0.18167
C_ C_ 0.254398 0.203542 0.864808 0.18167
C_ C_ 0.227487 0.225774 0.821191 -0.15533
C_ C_ 0.254485 0.238769 0.781412 0.02923
C_ C_ 0.308422 0.226397 0.786513 -0.15533
C_ C_ 0.333314 0.20179 0.829763 0.18167
C_ C_ 0.265052 0.126277 0.958736 0.69207
C_ C_ 0.229879 0.11425 0.492189 0.02923
C_ C_ 0.25094 0.112964 0.542082 -0.15533
C_ C_ 0.223032 0.104353 0.579756 -0.15533
C_ C_ 0.172067 0.0981703 0.570647 0.02923
C_ C_ 0.151486 0.0940972 0.519327 -0.15533
C_ C_ 0.177845 0.106779 0.479443 0.02923
C_ C_ 0.15007 0.116794 0.926306 0.69207
C_ C_ 0.16036 0.112346 0.669662 0.69661
C_ C_ 0.383746 0.389082 0.88483 -0.30787
C_ C_ 0.135135 0.111026 0.613775 -0.30787
N_ N_ 0.142655 0.0615273 0.812228 -0.32189
N_ N_ 0.0488678 0.140815 0.812595 -0.32189
N_ N_ 0.101782 0.315559 0.558499 -0.32189
N_ N_ 0.194348 0.315665 0.643624 -0.32189
N_ N_ 0.359896 0.445742 0.692797 -0.32189
N_ N_ 0.442293 0.357321 0.693969 -0.32189
N_ N_ 0.392695 0.186318 0.958839 -0.32189
N_ N_ 0.306131 0.189756 0.866362 -0.32189
O_ O_ 0.50218 0.0865604 0.899308 -0.63271
O_ O_ 0.0399809 0.0399507 0.835611 -0.57982
O_ O_ 0.390772 0.0973407 0.847907 -0.63271
O_ O_ 0.364856 0.0862331 0.922675 -0.57982
O_ O_ 0.244485 0.386377 0.595065 -0.63271
O_ O_ 0.204265 0.33455 0.539258 -0.57982
O_ O_ 0.363822 0.336924 0.597847 -0.63271
O_ O_ 0.383408 0.41376 0.589713 -0.57982
O_ O_ 0.996197 0.404926 0.604501 -0.63271
O_ O_ 0.454235 0.459549 0.651596 -0.57982
O_ O_ 0.0962991 0.399148 0.647566 -0.63271
O_ O_ 0.135325 0.410171 0.579589 -0.57982
O_ O_ 0.258232 0.105157 0.911213 -0.63271
O_ O_ 0.300034 0.158944 0.96887 -0.57982
O_ O_ 0.154458 0.156655 0.900631 -0.63271
O_ O_ 0.111245 0.0913035 0.911342 -0.57982
F_ F_ 0.445373 0.322143 0.920337 -0.20885
F_ F_ 0.442572 0.333716 0.839495 -0.20885
F_ F_ 0.380308 0.298977 0.875091 -0.20885
F_ F_ 0.324717 0.444117 0.834299 -0.20885
F_ F_ 0.335572 0.357372 0.804779 -0.20885
F_ F_ 0.393108 0.406306 0.794544 -0.20885
F_ F_ 0.0828906 0.181797 0.568071 -0.20885
F_ F_ 0.0829591 0.185814 0.650761 -0.20885
F_ F_ 0.148545 0.206486 0.614629 -0.20885
F_ F_ 0.196194 0.0699192 0.678161 -0.20885
F_ F_ 0.186584 0.154289 0.687092 -0.20885
F_ F_ 0.12603 0.110253 0.703598 -0.20885
Zn Zn 0.0914584 0.581913 0.349162 0.83971
Zn Zn 0.157932 0.847383 0.089785 0.83971
Zn Zn 0.406637 0.920678 0.156612 0.83971
Zn Zn 0.341655 0.648066 0.4182 0.83971
H_ H_ 0.174831 0.629842 0.310686 0.10394
H_ H_ 0.252449 0.595176 0.272954 0.10394
H_ H_ 0.21281 0.952518 0.308034 0.10394
H_ H_ 0.137378 0.476945 0.318879 0.10394
H_ H_ 0.525826 0.599126 0.255939 0.10394
H_ H_ 0.480493 0.674922 0.207986 0.10394
H_ H_ 0.0484066 0.767384 0.333056 0.10394
H_ H_ 0.073762 0.69288 0.384689 0.10394
H_ H_ 0.0407702 0.947296 0.393647 0.10394
H_ H_ 0.469139 0.877478 0.351488 0.10394
H_ H_ 0.35352 0.984647 0.406976 0.10394
H_ H_ 0.0783349 0.803416 0.133874 0.10394
H_ H_ 0.50853 0.769174 0.0975122 0.10394
H_ H_ 0.0429456 0.773226 0.446211 0.10394
H_ H_ 0.12122 0.817807 0.984958 0.10394
H_ H_ 0.225769 0.748403 0.0941736 0.10394
H_ H_ 0.277662 0.704771 0.166933 0.10394
H_ H_ 0.224404 0.826304 0.273772 0.10394
H_ H_ 0.180245 0.870462 0.196227 0.10394
H_ H_ 0.217786 0.84765 0.442617 0.10394
H_ H_ 0.265836 0.869033 0.375293 0.10394
H_ H_ 0.391216 0.901424 0.482092 0.10394
H_ H_ 0.307436 0.894483 0.168596 0.10394
H_ H_ 0.226944 0.942502 0.200192 0.10394
H_ H_ 0.339003 0.547329 0.272523 0.10394
H_ H_ 0.392174 0.0133299 0.231539 0.10394
H_ H_ 0.0119783 0.889992 0.210846 0.10394
H_ H_ 0.0629103 0.806397 0.245947 0.10394
H_ H_ 0.406951 0.747664 0.220182 0.10394
H_ H_ 0.369196 0.827681 0.186635 0.10394
H_ H_ 0.458005 0.555448 0.114073 0.10394
H_ H_ 0.0175742 0.620265 0.0979273 0.10394
H_ H_ 0.149171 0.509663 0.106614 0.10394
H_ H_ 0.446648 0.652029 0.402403 0.10394
H_ H_ 0.0198987 0.684679 0.443429 0.10394
H_ H_ 0.420778 0.779526 0.0537775 0.10394
H_ H_ 0.345546 0.730705 0.502933 0.10394
H_ H_ 0.238873 0.689875 0.380988 0.10394
H_ H_ 0.199141 0.739278 0.308957 0.10394
H_ H_ 0.340385 0.719971 0.243198 0.10394
H_ H_ 0.38363 0.670603 0.324424 0.10394
H_ H_ 0.28996 0.60504 0.0476815 0.10394
H_ H_ 0.235522 0.598739 0.115061 0.10394
H_ H_ 0.115007 0.575607 0.00232886 0.10394
C_ C_ 0.184008 0.587837 0.307026 0.18167
C_ C_ 0.22727 0.568236 0.282161 -0.15533
C_ C_ 0.24151 0.51514 0.279022 0.02923
C_ C_ 0.199336 0.990071 0.299757 -0.15533
C_ C_ 0.160246 0.504866 0.310235 0.18167
C_ C_ 0.0312712 0.633678 0.27316 0.18167
C_ C_ 0.499232 0.678896 0.246058 -0.15533
C_ C_ 0.0193588 0.723155 0.265514 0.02923
C_ C_ 0.0429293 0.729209 0.314684 -0.15533
C_ C_ 0.0571909 0.68769 0.34567 0.18167
C_ C_ 0.0128189 0.543219 0.369121 0.69207
C_ C_ 0.471146 0.00185453 0.372814 0.02923
C_ C_ 0.490414 0.951091 0.370091 -0.15533
C_ C_ 0.45776 0.912123 0.369071 -0.15533
C_ C_ 0.40925 0.923326 0.385038 0.02923
C_ C_ 0.390537 0.975353 0.393259 -0.15533
C_ C_ 0.419422 0.0146875 0.384388 0.02923
C_ C_ 0.399847 0.562662 0.389608 0.69207
C_ C_ 0.392126 0.82477 0.375656 0.69661
C_ C_ 0.0702469 0.800342 0.093038 0.18167
C_ C_ 0.0225997 0.784311 0.0719669 -0.15533
C_ C_ 0.0157273 0.770158 0.0186192 0.02923
C_ C_ 0.056165 0.77596 0.485872 -0.15533
C_ C_ 0.0927979 0.808114 0.00976968 0.18167
C_ C_ 0.227092 0.765906 0.134178 0.18167
C_ C_ 0.253432 0.738882 0.175438 -0.15533
C_ C_ 0.243904 0.757149 0.225782 0.02923
C_ C_ 0.220054 0.806934 0.234143 -0.15533
C_ C_ 0.197868 0.831476 0.191438 0.18167
C_ C_ 0.239818 0.867625 0.0509661 0.69207
C_ C_ 0.274417 0.867122 0.503204 0.02923
C_ C_ 0.254285 0.860508 0.452235 -0.15533
C_ C_ 0.284253 0.870577 0.412959 -0.15533
C_ C_ 0.335601 0.882779 0.423597 0.02923
C_ C_ 0.353128 0.892054 0.473526 -0.15533
C_ C_ 0.323929 0.883324 0.514202 0.02923
C_ C_ 0.352827 0.889368 0.0742965 0.69207
C_ C_ 0.339735 0.890499 0.321943 0.69661
C_ C_ 0.30696 0.933149 0.186617 0.18167
C_ C_ 0.264011 0.957187 0.207913 -0.15533
C_ C_ 0.270422 0.99897481 0.242815 0.02923
C_ C_ 0.333274 0.510047 0.253767 -0.15533
C_ C_ 0.358538 0.995459 0.227521 0.18167
C_ C_ 0.489744 0.850721 0.195349 0.18167
C_ C_ 0.0221505 0.810121 0.233197 -0.15533
C_ C_ 0.480861 0.774099 0.233696 0.02923
C_ C_ 0.429428 0.777937 0.213112 -0.15533
C_ C_ 0.406045 0.823738 0.196815 0.18167
C_ C_ 0.486219 0.95921 0.131871 0.69207
C_ C_ 0.0258114 0.492284 0.109201 0.02923
C_ C_ 0.00544514 0.543833 0.112027 -0.15533
C_ C_ 0.0377498 0.582272 0.109176 -0.15533
C_ C_ 0.0904166 0.570793 0.102328 0.02923
C_ C_ 0.110389 0.51978 0.104177 -0.15533
C_ C_ 0.0772891 0.478598 0.101854 0.02923
C_ C_ 0.0997486 0.927767 0.114735 0.69207
C_ C_ 0.100494 0.664613 0.08469 0.69661
C_ C_ 0.440068 0.681556 0.433176 0.18167
C_ C_ 0.480227 0.702047 0.460518 -0.15533
C_ C_ 0.470144 0.742393 0.496673 0.02923
C_ C_ 0.425663 0.755453 0.0175513 -0.15533
C_ C_ 0.381907 0.725475 0.487249 0.18167
C_ C_ 0.26369 0.699092 0.353987 0.18167
C_ C_ 0.239927 0.727115 0.31108 -0.15533
C_ C_ 0.268914 0.72947 0.269407 0.02923
C_ C_ 0.321014 0.71243 0.274248 -0.15533
C_ C_ 0.344848 0.687476 0.3192 0.18167
C_ C_ 0.267241 0.614135 0.453251 0.69207
C_ C_ 0.229311 0.615958 0.988063 0.02923
C_ C_ 0.249748 0.611096 0.0404061 -0.15533
C_ C_ 0.218594 0.600632 0.0775318 -0.15533
C_ C_ 0.168923 0.592386 0.0650848 0.02923
C_ C_ 0.153169 0.587178 0.0137765 -0.15533
C_ C_ 0.178539 0.607545 0.976683 0.02923
C_ C_ 0.155837 0.600603 0.42382 0.69207
C_ C_ 0.148672 0.619759 0.158193 0.69661
C_ C_ 0.368649 0.882484 0.378578 -0.30787
C_ C_ 0.128534 0.611039 0.101939 -0.30787
N_ N_ 0.150557 0.55681 0.320135 -0.32189
N_ N_ 0.0558725 0.640651 0.320821 -0.32189
N_ N_ 0.101803 0.814521 0.0617814 -0.32189
N_ N_ 0.198142 0.811094 0.143955 -0.32189
N_ N_ 0.353072 0.953176 0.195119 -0.32189
N_ N_ 0.436846 0.860324 0.186797 -0.32189
N_ N_ 0.392488 0.691624 0.447264 -0.32189
N_ N_ 0.314581 0.67867 0.357407 -0.32189
O_ O_ 0.506531 0.581196 0.401976 -0.63271
O_ O_ 0.047728 0.536698 0.336938 -0.57982
O_ O_ 0.400397 0.588835 0.349214 -0.63271
O_ O_ 0.375155 0.583966 0.427617 -0.57982
O_ O_ 0.248253 0.887965 0.0988049 -0.63271
O_ O_ 0.201679 0.841198 0.0408697 -0.57982
O_ O_ 0.352889 0.849519 0.100646 -0.63271
O_ O_ 0.380596 0.926415 0.0916749 -0.57982
O_ O_ 0.997165 0.905089 0.111997 -0.63271
O_ O_ 0.451575 0.967514 0.163616 -0.57982
O_ O_ 0.0955823 0.897745 0.152257 -0.63271
O_ O_ 0.130275 0.91077 0.0818883 -0.57982
O_ O_ 0.263043 0.594631 0.406031 -0.63271
O_ O_ 0.297527 0.649815 0.464881 -0.57982
O_ O_ 0.151975 0.644406 0.405161 -0.63271
O_ O_ 0.118363 0.574403 0.411714 -0.57982
F_ F_ 0.42987 0.812231 0.413948 -0.20885
F_ F_ 0.415786 0.810638 0.331377 -0.20885
F_ F_ 0.353589 0.79074 0.374333 -0.20885
F_ F_ 0.312375 0.934521 0.325769 -0.20885
F_ F_ 0.310371 0.851466 0.305792 -0.20885
F_ F_ 0.376389 0.894178 0.287915 -0.20885
F_ F_ 0.0626386 0.661574 0.0442019 -0.20885
F_ F_ 0.0742535 0.689966 0.12524 -0.20885
F_ F_ 0.133896 0.697703 0.0749858 -0.20885
F_ F_ 0.177836 0.580071 0.180372 -0.20885
F_ F_ 0.17602 0.662081 0.161456 -0.20885
F_ F_ 0.109745 0.628645 0.189637 -0.20885
Zn Zn 0.0908539 0.585827 0.84297 0.83971
Zn Zn 0.158981 0.846035 0.584343 0.83971
Zn Zn 0.403488 0.917704 0.647239 0.83971
Zn Zn 0.342133 0.659852 0.914427 0.83971
H_ H_ 0.159499 0.630378 0.7894 0.10394
H_ H_ 0.241296 0.604204 0.754086 0.10394
H_ H_ 0.201415 0.946487 0.784412 0.10394
H_ H_ 0.144821 0.487079 0.83441 0.10394
H_ H_ 0.512526 0.596628 0.763592 0.10394
H_ H_ 0.471028 0.664491 0.709015 0.10394
H_ H_ 0.0363163 0.775266 0.839503 0.10394
H_ H_ 0.0846301 0.698576 0.882108 0.10394
H_ H_ 0.036403 0.948681 0.878129 0.10394
H_ H_ 0.48211 0.879446 0.890853 0.10394
H_ H_ 0.353144 0.987699 0.906533 0.10394
H_ H_ 0.0821648 0.808228 0.629874 0.10394
H_ H_ 0.504666 0.755027 0.594942 0.10394
H_ H_ 0.0396307 0.785727 0.94723 0.10394
H_ H_ 0.114854 0.823793 0.481974 0.10394
H_ H_ 0.216939 0.752648 0.592174 0.10394
H_ H_ 0.251118 0.70058 0.666026 0.10394
H_ H_ 0.21993 0.831825 0.768667 0.10394
H_ H_ 0.189719 0.88292 0.695404 0.10394
H_ H_ 0.222289 0.849729 0.952334 0.10394
H_ H_ 0.266514 0.870872 0.885711 0.10394
H_ H_ 0.387884 0.918663 0.990668 0.10394
H_ H_ 0.298584 0.902408 0.653267 0.10394
H_ H_ 0.225118 0.952637 0.693044 0.10394
H_ H_ 0.337924 0.547434 0.771539 0.10394
H_ H_ 0.398073 0.003889999999999949 0.727017 0.10394
H_ H_ 0.013665 0.876187 0.685886 0.10394
H_ H_ 0.0473536 0.816086 0.753777 0.10394
H_ H_ 0.394596 0.762009 0.743509 0.10394
H_ H_ 0.358667 0.842434 0.703835 0.10394
H_ H_ 0.466024 0.551017 0.606096 0.10394
H_ H_ 0.0158275 0.615249 0.586628 0.10394
H_ H_ 0.14697 0.507333 0.610081 0.10394
H_ H_ 0.440948 0.676734 0.89428 0.10394
H_ H_ 0.0183864 0.691324 0.946753 0.10394
H_ H_ 0.411717 0.780892 0.542538 0.10394
H_ H_ 0.347533 0.73603 0.0105296 0.10394
H_ H_ 0.246712 0.718754 0.89567 0.10394
H_ H_ 0.199075 0.761456 0.819614 0.10394
H_ H_ 0.322514 0.694431 0.731202 0.10394
H_ H_ 0.373542 0.67438 0.806701 0.10394
H_ H_ 0.287943 0.613441 0.55489 0.10394
H_ H_ 0.230469 0.612628 0.62133 0.10394
H_ H_ 0.115086 0.583626 0.504123 0.10394
C_ C_ 0.175197 0.591907 0.790397 0.18167
C_ C_ 0.221991 0.575077 0.773282 -0.15533
C_ C_ 0.239566 0.523011 0.773263 0.02923
C_ C_ 0.196227 0.987109 0.788647 -0.15533
C_ C_ 0.16678 0.51067 0.817553 0.18167
C_ C_ 0.02515 0.639268 0.778254 0.18167
C_ C_ 0.493763 0.675985 0.743862 -0.15533
C_ C_ 0.00315632 0.729398 0.773715 0.02923
C_ C_ 0.0331771 0.735595 0.82125 -0.15533
C_ C_ 0.06098 0.693505 0.845137 0.18167
C_ C_ 0.00738049 0.545155 0.871326 0.69207
C_ C_ 0.470576 0.00678467 0.878404 0.02923
C_ C_ 0.488762 0.952795 0.871588 -0.15533
C_ C_ 0.460317 0.914775 0.881111 -0.15533
C_ C_ 0.407523 0.927033 0.889919 0.02923
C_ C_ 0.392005 0.977716 0.90163 -0.15533
C_ C_ 0.418159 0.0183625 0.888069 0.02923
C_ C_ 0.395965 0.575998 0.885929 0.69207
C_ C_ 0.394016 0.832681 0.882576 0.69661
C_ C_ 0.0717161 0.800156 0.589627 0.18167
C_ C_ 0.0282232 0.777184 0.57003 -0.15533
C_ C_ 0.0205344 0.76408 0.516864 0.02923
C_ C_ 0.0503616 0.784356 0.987445 -0.15533
C_ C_ 0.0986476 0.800003 0.506609 0.18167
C_ C_ 0.216812 0.769208 0.632967 0.18167
C_ C_ 0.236606 0.739878 0.674413 -0.15533
C_ C_ 0.236178 0.761607 0.723551 0.02923
C_ C_ 0.215508 0.81182 0.7324 -0.15533
C_ C_ 0.203261 0.84249 0.690469 0.18167
C_ C_ 0.236818 0.863675 0.542745 0.69207
C_ C_ 0.276201 0.871535 0.0109257 0.02923
C_ C_ 0.261564 0.856633 0.959899 -0.15533
C_ C_ 0.286132 0.871957 0.921547 -0.15533
C_ C_ 0.333183 0.892119 0.930915 0.02923
C_ C_ 0.349588 0.9077 0.982923 -0.15533
C_ C_ 0.324983 0.890177 0.0229683 0.02923
C_ C_ 0.349687 0.885453 0.566737 0.69207
C_ C_ 0.339558 0.894387 0.833308 0.69661
C_ C_ 0.303195 0.936939 0.679036 0.18167
C_ C_ 0.263054 0.961968 0.705573 -0.15533
C_ C_ 0.275407 0.995281 0.747051 0.02923
C_ C_ 0.329801 0.514934 0.748244 -0.15533
C_ C_ 0.362226 0.989285 0.720254 0.18167
C_ C_ 0.482469 0.842067 0.682382 0.18167
C_ C_ 0.0112936 0.810633 0.730273 -0.15533
C_ C_ 0.470817 0.768381 0.727227 0.02923
C_ C_ 0.419946 0.785796 0.727527 -0.15533
C_ C_ 0.400538 0.829641 0.703674 0.18167
C_ C_ 0.489011 0.950799 0.623705 0.69207
C_ C_ 0.0231919 0.490476 0.612946 0.02923
C_ C_ 1.00371456 0.543143 0.611164 -0.15533
C_ C_ 0.0324201 0.577556 0.59554 -0.15533
C_ C_ 0.0865991 0.56871 0.60521 0.02923
C_ C_ 0.106345 0.517648 0.607308 -0.15533
C_ C_ 0.0750158 0.476223 0.606683 0.02923
C_ C_ 0.0990532 0.925442 0.604559 0.69207
C_ C_ 0.101528 0.665231 0.596149 0.69661
C_ C_ 0.436444 0.691178 0.933324 0.18167
C_ C_ 0.477347 0.712873 0.958494 -0.15533
C_ C_ 0.473916 0.74889 -0.0028409999999999824 0.02923
C_ C_ 0.420659 0.752801 0.512417 -0.15533
C_ C_ 0.383771 0.728158 0.994998 0.18167
C_ C_ 0.26394 0.716417 0.858544 0.18167
C_ C_ 0.236405 0.738238 0.815877 -0.15533
C_ C_ 0.2577 0.73262 0.767935 0.02923
C_ C_ 0.303932 0.701227 0.765739 -0.15533
C_ C_ 0.33497 0.69038 0.810651 0.18167
C_ C_ 0.261076 0.628937 0.947741 0.69207
C_ C_ 0.232457 0.605754 0.490572 0.02923
C_ C_ 0.248973 0.610965 0.542836 -0.15533
C_ C_ 0.216658 0.605826 0.582014 -0.15533
C_ C_ 0.166347 0.597827 0.568473 0.02923
C_ C_ 0.151248 0.589426 0.516877 -0.15533
C_ C_ 0.182914 0.595023 0.476457 0.02923
C_ C_ 0.155612 0.61123 0.923107 0.69207
C_ C_ 0.14831 0.613467 0.665599 0.69661
C_ C_ 0.369497 0.886633 0.886648 -0.30787
C_ C_ 0.124826 0.61007 0.608696 -0.30787
N_ N_ 0.147612 0.559929 0.811534 -0.32189
N_ N_ 0.0548663 0.645899 0.823472 -0.32189
N_ N_ 0.107473 0.807283 0.557686 -0.32189
N_ N_ 0.1997 0.818976 0.641389 -0.32189
N_ N_ 0.351463 0.949565 0.685949 -0.32189
N_ N_ 0.431093 0.858253 0.680723 -0.32189
N_ N_ 0.389229 0.699935 0.949447 -0.32189
N_ N_ 0.312851 0.694175 0.85605 -0.32189
O_ O_ 0.499203 0.596949 0.88648 -0.63271
O_ O_ 0.0446429 0.539476 0.841236 -0.57982
O_ O_ 0.385665 0.59402 0.840664 -0.63271
O_ O_ 0.385949 0.604843 0.926188 -0.57982
O_ O_ 0.231842 0.899572 0.57963 -0.63271
O_ O_ 0.198894 0.834995 0.533807 -0.57982
O_ O_ 0.356887 0.84551 0.59381 -0.63271
O_ O_ 0.369129 0.926832 0.584495 -0.57982
O_ O_ 0.992179 0.913977 0.59914 -0.63271
O_ O_ 0.452859 0.960941 0.65267 -0.57982
O_ O_ 0.106341 0.899876 0.645985 -0.63271
O_ O_ 0.126121 0.906459 0.567138 -0.57982
O_ O_ 0.264966 0.598143 0.905598 -0.63271
O_ O_ 0.299493 0.657297 0.961431 -0.57982
O_ O_ 0.159074 0.652195 0.897185 -0.63271
O_ O_ 0.116629 0.584186 0.908442 -0.57982
F_ F_ 0.430284 0.824832 0.925451 -0.20885
F_ F_ 0.420616 0.816937 0.841045 -0.20885
F_ F_ 0.362147 0.794621 0.886358 -0.20885
F_ F_ 0.299861 0.93339 0.840722 -0.20885
F_ F_ 0.315488 0.850445 0.815329 -0.20885
F_ F_ 0.368334 0.906603 0.792528 -0.20885
F_ F_ 0.0732492 0.667018 0.547456 -0.20885
F_ F_ 0.0686295 0.685671 0.629111 -0.20885
F_ F_ 0.136992 0.701109 0.597534 -0.20885
F_ F_ 0.179941 0.566849 0.674026 -0.20885
F_ F_ 0.17597 0.65666 0.675788 -0.20885
F_ F_ 0.112121 0.613387 0.697596 -0.20885
Zn Zn 0.585065 0.0773467 0.342043 0.83971
Zn Zn 0.661461 0.348856 0.0891428 0.83971
Zn Zn 0.908002 0.421851 0.153658 0.83971
Zn Zn 0.836076 0.155421 0.416613 0.83971
H_ H_ 0.666263 0.128924 0.305351 0.10394
H_ H_ 0.746486 0.0954646 0.265156 0.10394
H_ H_ 0.703774 0.453571 0.284064 0.10394
H_ H_ 0.640579 0.983195 0.333518 0.10394
H_ H_ 0.0268595 0.10439 0.252319 0.10394
H_ H_ 0.994607 0.176434 0.198326 0.10394
H_ H_ 0.540764 0.258459 0.332796 0.10394
H_ H_ 0.552953 0.181162 0.377221 0.10394
H_ H_ 0.529716 0.435892 0.357716 0.10394
H_ H_ 0.981585 0.375811 0.356948 0.10394
H_ H_ 0.866531 0.482097 0.420244 0.10394
H_ H_ 0.576497 0.313483 0.135158 0.10394
H_ H_ 0.99680976 0.278613 0.0987072 0.10394
H_ H_ 0.53596 0.278894 0.446462 0.10394
H_ H_ 0.633533 0.30169 0.991764 0.10394
H_ H_ 0.727518 0.252869 0.0904624 0.10394
H_ H_ 0.770609 0.206797 0.165471 0.10394
H_ H_ 0.704389 0.321003 0.269514 0.10394
H_ H_ 0.683799 0.378292 0.198278 0.10394
H_ H_ 0.72084 0.350698 0.442379 0.10394
H_ H_ 0.768297 0.370833 0.373622 0.10394
H_ H_ 0.899102 0.396261 0.482606 0.10394
H_ H_ 0.802563 0.399694 0.164524 0.10394
H_ H_ 0.725008 0.457967 0.188624 0.10394
H_ H_ 0.832244 0.0476472 0.279323 0.10394
H_ H_ 0.897038 0.510674 0.233044 0.10394
H_ H_ 0.522932 0.379129 0.196916 0.10394
H_ H_ 0.562659 0.298563 0.23287 0.10394
H_ H_ 0.915645 0.240423 0.201937 0.10394
H_ H_ 0.869134 0.32351 0.177091 0.10394
H_ H_ 0.959359 0.0531547 0.120657 0.10394
H_ H_ 0.51138 0.123213 0.113687 0.10394
H_ H_ 0.642683 0.0105734 0.091497 0.10394
H_ H_ 0.935323 0.167159 0.396472 0.10394
H_ H_ 0.517963 0.187803 0.455882 0.10394
H_ H_ 0.903802 0.283257 0.0470223 0.10394
H_ H_ 0.837434 0.254353 0.496109 0.10394
H_ H_ 0.727873 0.198099 0.38665 0.10394
H_ H_ 0.687807 0.226548 0.30161 0.10394
H_ H_ 0.839239 0.234329 0.256277 0.10394
H_ H_ 0.873368 0.181537 0.328249 0.10394
H_ H_ 0.780266 0.131101 0.0516556 0.10394
H_ H_ 0.725451 0.123501 0.117434 0.10394
H_ H_ 0.602517 0.0863102 0.00455929 0.10394
C_ C_ 0.676529 0.0887872 0.29999 0.18167
C_ C_ 0.723837 0.0695912 0.281573 -0.15533
C_ C_ 0.736533 0.0156524 0.276149 0.02923
C_ C_ 0.693792 0.492574 0.288331 -0.15533
C_ C_ 0.660723 0.0061918 0.315394 0.18167
C_ C_ 0.529397 0.129123 0.260227 0.18167
C_ C_ 0.00817834 0.184608 0.238275 -0.15533
C_ C_ 0.510616 0.221232 0.259476 0.02923
C_ C_ 0.529894 0.222795 0.312329 -0.15533
C_ C_ 0.544638 0.178257 0.336393 0.18167
C_ C_ 0.505013 0.0406457 0.361535 0.69207
C_ C_ 0.979085 0.504689 0.373916 0.02923
C_ C_ 0.993707 0.45409 0.357979 -0.15533
C_ C_ 0.964646 0.414044 0.364304 -0.15533
C_ C_ 0.917227 0.423991 0.388228 0.02923
C_ C_ 0.905009 0.474441 0.407458 -0.15533
C_ C_ 0.931691 0.51322 0.39529 0.02923
C_ C_ 0.898702 0.068297 0.38469 0.69207
C_ C_ 0.896122 0.333795 0.367777 0.69661
C_ C_ 0.571335 0.299447 0.0946362 0.18167
C_ C_ 0.525968 0.283521 0.0732334 -0.15533
C_ C_ 0.518399 0.268816 0.0198026 0.02923
C_ C_ 0.546141 0.284014 0.487739 -0.15533
C_ C_ 0.603134 0.296608 0.0119493 0.18167
C_ C_ 0.722156 0.269668 0.132416 0.18167
C_ C_ 0.744145 0.240628 0.173004 -0.15533
C_ C_ 0.734957 0.259865 0.22507 0.02923
C_ C_ 0.708998 0.306873 0.230785 -0.15533
C_ C_ 0.695815 0.338189 0.190547 0.18167
C_ C_ 0.737791 0.377395 0.0447597 0.69207
C_ C_ 0.77731 0.365489 0.500298 0.02923
C_ C_ 0.7585 0.362023 0.450403 -0.15533
C_ C_ 0.785802 0.374978 0.412136 -0.15533
C_ C_ 0.838377 0.382798 0.421719 0.02923
C_ C_ 0.859322 0.387917 0.473216 -0.15533
C_ C_ 0.829807 0.380418 0.513117 0.02923
C_ C_ 0.846968 0.39888 0.0690098 0.69207
C_ C_ 0.842671 0.40544 0.327286 0.69661
C_ C_ 0.807414 0.437913 0.180619 0.18167
C_ C_ 0.76476 0.461677 0.205983 -0.15533
C_ C_ 0.772472 0.501884 0.243077 0.02923
C_ C_ 0.827957 0.011344 0.253951 -0.15533
C_ C_ 0.859312 0.49667 0.222539 0.18167
C_ C_ 0.983934 0.36022 0.203798 0.18167
C_ C_ 0.52073 0.303888 0.225071 -0.15533
C_ C_ 0.982924 0.276009 0.233701 0.02923
C_ C_ 0.934059 0.273183 0.209269 -0.15533
C_ C_ 0.908342 0.319159 0.191346 0.18167
C_ C_ 0.99083 0.454469 0.121825 0.69207
C_ C_ 0.523845 0.996372 0.129495 0.02923
C_ C_ 0.504839 0.0483253 0.130709 -0.15533
C_ C_ 0.530257 0.0847786 0.112989 -0.15533
C_ C_ 0.582598 0.0709652 0.102503 0.02923
C_ C_ 0.60248 0.0199982 0.0974427 -0.15533
C_ C_ 0.573299 0.981272 0.112983 0.02923
C_ C_ 0.597901 0.430308 0.110855 0.69207
C_ C_ 0.594847 0.167578 0.116054 0.69661
C_ C_ 0.932195 0.18996 0.4318 0.18167
C_ C_ 0.974019 0.213218 0.454268 -0.15533
C_ C_ 0.968414 0.249923 0.493613 0.02923
C_ C_ 0.915312 0.253108 0.0161657 -0.15533
C_ C_ 0.876672 0.243018 0.484238 0.18167
C_ C_ 0.749704 0.195795 0.352658 0.18167
C_ C_ 0.728394 0.220967 0.308707 -0.15533
C_ C_ 0.758537 0.234003 0.271211 0.02923
C_ C_ 0.811158 0.224321 0.280768 -0.15533
C_ C_ 0.831882 0.197384 0.32318 0.18167
C_ C_ 0.761719 0.113564 0.447639 0.69207
C_ C_ 0.72369 0.112706 0.990906 0.02923
C_ C_ 0.742503 0.118322 0.0424815 -0.15533
C_ C_ 0.709637 0.115426 0.0791014 -0.15533
C_ C_ 0.65801 0.107109 0.0687398 0.02923
C_ C_ 0.638476 0.0992978 0.0161796 -0.15533
C_ C_ 0.669968 0.104815 0.978307 0.02923
C_ C_ 0.646943 0.109584 0.420314 0.69207
C_ C_ 0.649438 0.103287 0.164795 0.69661
C_ C_ 0.872023 0.387683 0.378596 -0.30787
C_ C_ 0.620501 0.113215 0.111482 -0.30787
N_ N_ 0.644704 0.0556207 0.312294 -0.32189
N_ N_ 0.55085 0.132583 0.308308 -0.32189
N_ N_ 0.606689 0.309386 0.0620605 -0.32189
N_ N_ 0.700499 0.318153 0.143364 -0.32189
N_ N_ 0.853905 0.454129 0.190794 -0.32189
N_ N_ 0.935961 0.359241 0.183091 -0.32189
N_ N_ 0.884515 0.203544 0.447399 -0.32189
N_ N_ 0.801094 0.180703 0.355665 -0.32189
O_ O_ -0.00369128 0.0965958 0.403052 -0.63271
O_ O_ 0.540451 0.0298872 0.333334 -0.57982
O_ O_ 0.894647 0.0898233 0.340189 -0.63271
O_ O_ 0.864645 0.0858255 0.418091 -0.57982
O_ O_ 0.742321 0.402993 0.0882762 -0.63271
O_ O_ 0.702586 0.345372 0.0365668 -0.57982
O_ O_ 0.851998 0.354522 0.0889583 -0.63271
O_ O_ 0.878936 0.43152 0.0890085 -0.57982
O_ O_ 0.491346 0.407268 0.0970792 -0.63271
O_ O_ 0.956979 0.466317 0.154147 -0.57982
O_ O_ 0.594121 0.403817 0.150126 -0.63271
O_ O_ 0.630098 0.414109 0.0790512 -0.57982
O_ O_ 0.75419 0.0975918 0.399434 -0.63271
O_ O_ 0.79484 0.147232 0.461354 -0.57982
O_ O_ 0.648046 0.152861 0.397388 -0.63271
O_ O_ 0.60951 0.0830832 0.406924 -0.57982
F_ F_ 0.937556 0.320961 0.400508 -0.20885
F_ F_ 0.917602 0.325758 0.319621 -0.20885
F_ F_ 0.864959 0.294057 0.367071 -0.20885
F_ F_ 0.808331 0.447739 0.335398 -0.20885
F_ F_ 0.816015 0.367496 0.29963 -0.20885
F_ F_ 0.874434 0.421468 0.295342 -0.20885
F_ F_ 0.55872 0.174207 0.0753304 -0.20885
F_ F_ 0.568702 0.172088 0.158726 -0.20885
F_ F_ 0.627829 0.201977 0.116111 -0.20885
F_ F_ 0.689108 0.0647608 0.166127 -0.20885
F_ F_ 0.661576 0.147667 0.193496 -0.20885
F_ F_ 0.614838 0.0893021 0.198102 -0.20885
Zn Zn 0.588041 0.0797173 0.847751 0.83971
Zn Zn 0.657542 0.341076 0.583361 0.83971
Zn Zn 0.909352 0.417423 0.652827 0.83971
Zn Zn 0.839203 0.15424 0.914097 0.83971
H_ H_ 0.670149 0.123125 0.815642 0.10394
H_ H_ 0.746265 0.0943156 0.770095 0.10394
H_ H_ 0.72666 0.456371 0.809521 0.10394
H_ H_ 0.622206 0.978427 0.800032 0.10394
H_ H_ 0.0294477 0.0956041 0.744988 0.10394
H_ H_ 0.979737 0.173239 0.706191 0.10394
H_ H_ 0.525816 0.263367 0.84775 0.10394
H_ H_ 0.557384 0.183404 0.889676 0.10394
H_ H_ 0.541562 0.456467 0.905563 0.10394
H_ H_ 0.971855 0.376375 0.871094 0.10394
H_ H_ 0.846468 0.491138 0.882861 0.10394
H_ H_ 0.579423 0.304503 0.635261 0.10394
H_ H_ -0.0031799999999999606 0.272623 0.594894 0.10394
H_ H_ 0.553659 0.263387 0.949658 0.10394
H_ H_ 0.62133 0.310816 0.485545 0.10394
H_ H_ 0.71861 0.249879 0.598385 0.10394
H_ H_ 0.762371 0.202675 0.670146 0.10394
H_ H_ 0.716055 0.334891 0.766244 0.10394
H_ H_ 0.679207 0.377634 0.68785 0.10394
H_ H_ 0.715097 0.377813 0.942282 0.10394
H_ H_ 0.764681 0.397967 0.878525 0.10394
H_ H_ 0.894439 0.412739 0.991582 0.10394
H_ H_ 0.805504 0.402205 0.664763 0.10394
H_ H_ 0.735024 0.444382 0.709039 0.10394
H_ H_ 0.836221 0.0429825 0.783737 0.10394
H_ H_ 0.902175 0.507872 0.731685 0.10394
H_ H_ 0.518064 0.381483 0.701497 0.10394
H_ H_ 0.559102 0.307648 0.751356 0.10394
H_ H_ 0.917773 0.246172 0.714197 0.10394
H_ H_ 0.875052 0.327783 0.68402 0.10394
H_ H_ 0.971589 0.0577213 0.625149 0.10394
H_ H_ 0.518392 0.116062 0.596319 0.10394
H_ H_ 0.643779 0.00434127 0.589717 0.10394
H_ H_ 0.938835 0.154843 0.905458 0.10394
H_ H_ 0.523306 0.169008 0.976311 0.10394
H_ H_ 0.914616 0.292097 0.541389 0.10394
H_ H_ 0.83882 0.231594 0.0086474 0.10394
H_ H_ 0.732365 0.193681 0.876308 0.10394
H_ H_ 0.690787 0.231345 0.796943 0.10394
H_ H_ 0.841881 0.240726 0.758417 0.10394
H_ H_ 0.876868 0.192823 0.830582 0.10394
H_ H_ 0.786882 0.10931 0.544956 0.10394
H_ H_ 0.734395 0.0963685 0.612005 0.10394
H_ H_ 0.601297 0.100114 0.503367 0.10394
C_ C_ 0.676286 0.0846566 0.804323 0.18167
C_ C_ 0.72316 0.0675223 0.781913 -0.15533
C_ C_ 0.733755 0.0144525 0.769422 0.02923
C_ C_ 0.707493 0.493871 0.798399 -0.15533
C_ C_ 0.653294 0.000202759 0.801253 0.18167
C_ C_ 0.530374 0.133606 0.773444 0.18167
C_ C_ 0.00294035 0.17707 0.739698 -0.15533
C_ C_ 0.508333 0.226982 0.774174 0.02923
C_ C_ 0.527211 0.230493 0.825443 -0.15533
C_ C_ 0.547729 0.184863 0.849953 0.18167
C_ C_ 0.505156 0.0452961 0.870126 0.69207
C_ C_ 0.971992 0.504877 0.871689 0.02923
C_ C_ 0.985645 0.452623 0.862888 -0.15533
C_ C_ 0.954563 0.415817 0.867009 -0.15533
C_ C_ 0.904998 0.427597 0.882135 0.02923
C_ C_ 0.886641 0.480433 0.881923 -0.15533
C_ C_ 0.919244 0.518934 0.880127 0.02923
C_ C_ 0.895215 0.0717133 0.88808 0.69207
C_ C_ 0.89301 0.330032 0.894597 0.69661
C_ C_ 0.569347 0.297846 0.592812 0.18167
C_ C_ 0.525989 0.274832 0.575235 -0.15533
C_ C_ 0.513719 0.266837 0.521915 0.02923
C_ C_ 0.559039 0.274078 0.989585 -0.15533
C_ C_ 0.593764 0.298023 0.508413 0.18167
C_ C_ 0.722536 0.267616 0.634607 0.18167
C_ C_ 0.743903 0.240601 0.675821 -0.15533
C_ C_ 0.742728 0.264919 0.725314 0.02923
C_ C_ 0.718333 0.313936 0.729414 -0.15533
C_ C_ 0.69376 0.336395 0.68654 0.18167
C_ C_ 0.740488 0.361564 0.540353 0.69207
C_ C_ 0.773961 0.384354 1.00545693 0.02923
C_ C_ 0.753361 0.384444 0.955693 -0.15533
C_ C_ 0.781816 0.393052 0.917454 -0.15533
C_ C_ 0.834383 0.400074 0.927633 0.02923
C_ C_ 0.853686 0.405758 0.979874 -0.15533
C_ C_ 0.824245 0.399177 0.017765 0.02923
C_ C_ 0.850388 0.384088 0.566653 0.69207
C_ C_ 0.840988 0.381614 0.829962 0.69661
C_ C_ 0.810975 0.435492 0.688856 0.18167
C_ C_ 0.770894 0.462008 0.713941 -0.15533
C_ C_ 0.778387 0.503568 0.746702 0.02923
C_ C_ 0.827365 0.0131681 0.752204 -0.15533
C_ C_ 0.866743 0.49247 0.728951 0.18167
C_ C_ 0.998418 0.355415 0.700194 0.18167
C_ C_ 0.518288 0.310121 0.734985 -0.15533
C_ C_ 0.991181 0.271206 0.730534 0.02923
C_ C_ 0.939572 0.277772 0.709646 -0.15533
C_ C_ 0.917824 0.321656 0.688959 0.18167
C_ C_ 0.988292 0.45252 0.620074 0.69207
C_ C_ 0.52429 0.989657 0.618784 0.02923
C_ C_ 0.504768 0.0409798 0.620149 -0.15533
C_ C_ 0.535321 0.0787758 0.607492 -0.15533
C_ C_ 0.586927 0.0661842 0.599222 0.02923
C_ C_ 0.604905 0.014005 0.598245 -0.15533
C_ C_ 0.573964 0.976885 0.607347 0.02923
C_ C_ 0.599715 0.420693 0.612106 0.69207
C_ C_ 0.60367 0.160986 0.605197 0.69661
C_ C_ 0.931435 0.185776 0.933135 0.18167
C_ C_ 0.971222 0.210243 0.958118 -0.15533
C_ C_ 0.964869 0.244985 0.0022400000000000198 0.02923
C_ C_ 0.919514 0.26383 0.510371 -0.15533
C_ C_ 0.876173 0.225234 0.992646 0.18167
C_ C_ 0.75545 0.199504 0.846733 0.18167
C_ C_ 0.73309 0.224238 0.804077 -0.15533
C_ C_ 0.764156 0.238153 0.770695 0.02923
C_ C_ 0.816371 0.227096 0.779875 -0.15533
C_ C_ 0.83671 0.194045 0.818708 0.18167
C_ C_ 0.756903 0.122544 0.951033 0.69207
C_ C_ 0.727264 0.104634 0.483788 0.02923
C_ C_ 0.74705 0.104732 0.534666 -0.15533
C_ C_ 0.715281 0.100775 0.573624 -0.15533
C_ C_ 0.662836 0.0956832 0.563516 0.02923
C_ C_ 0.642527 0.0986394 0.512259 -0.15533
C_ C_ 0.674652 0.101193 0.471793 0.02923
C_ C_ 0.649107 0.105051 0.923987 0.69207
C_ C_ 0.649902 0.102569 0.664038 0.69661
C_ C_ 0.870047 0.386037 0.884908 -0.30787
C_ C_ 0.626048 0.104809 0.607337 -0.30787
N_ N_ 0.644055 0.0509873 0.815854 -0.32189
N_ N_ 0.552573 0.13911 0.82061 -0.32189
N_ N_ 0.601977 0.309787 0.558381 -0.32189
N_ N_ 0.6942 0.312284 0.64114 -0.32189
N_ N_ 0.858016 0.450868 0.694041 -0.32189
N_ N_ 0.947255 0.360032 0.682478 -0.32189
N_ N_ 0.885251 0.192902 0.953172 -0.32189
N_ N_ 0.805526 0.182238 0.852253 -0.32189
O_ O_ 0.00593092 0.0926628 0.896719 -0.63271
O_ O_ 0.545836 0.0309805 0.845722 -0.57982
O_ O_ 0.888984 0.0956423 0.844996 -0.63271
O_ O_ 0.864636 0.0884118 0.921114 -0.57982
O_ O_ 0.752103 0.385026 0.584775 -0.63271
O_ O_ 0.698117 0.339541 0.530789 -0.57982
O_ O_ 0.853577 0.344756 0.59241 -0.63271
O_ O_ 0.877636 0.421465 0.584398 -0.57982
O_ O_ 0.492452 0.402568 0.59795 -0.63271
O_ O_ 0.953054 0.463527 0.651734 -0.57982
O_ O_ 0.592272 0.393496 0.650112 -0.63271
O_ O_ 0.639835 0.404718 0.589241 -0.57982
O_ O_ 0.748205 0.102981 0.904753 -0.63271
O_ O_ 0.792457 0.152986 0.961124 -0.57982
O_ O_ 0.646157 0.148611 0.903321 -0.63271
O_ O_ 0.618061 0.0723183 0.905298 -0.57982
F_ F_ 0.930809 0.332514 0.937589 -0.20885
F_ F_ 0.921798 0.303283 0.856958 -0.20885
F_ F_ 0.856235 0.296385 0.902483 -0.20885
F_ F_ 0.81226 0.426394 0.818245 -0.20885
F_ F_ 0.808838 0.344196 0.828094 -0.20885
F_ F_ 0.872051 0.369912 0.790291 -0.20885
F_ F_ 0.574548 0.174879 0.560441 -0.20885
F_ F_ 0.571134 0.176515 0.640917 -0.20885
F_ F_ 0.639882 0.19301 0.608442 -0.20885
F_ F_ 0.677448 0.0562196 0.673999 -0.20885
F_ F_ 0.680164 0.142027 0.679598 -0.20885
F_ F_ 0.615316 0.106849 0.700183 -0.20885
Zn Zn 0.582309 0.587614 0.351954 0.83971
Zn Zn 0.665571 0.84851 0.0854877 0.83971
Zn Zn 0.909961 0.912187 0.157768 0.83971
Zn Zn 0.840986 0.649467 0.414635 0.83971
H_ H_ 0.662828 0.636281 0.304307 0.10394
H_ H_ 0.744392 0.604403 0.273793 0.10394
H_ H_ 0.722267 0.94672 0.302456 0.10394
H_ H_ 0.626819 0.486538 0.321224 0.10394
H_ H_ 0.0217007 0.596754 0.255532 0.10394
H_ H_ 0.984337 0.669841 0.209384 0.10394
H_ H_ 0.519935 0.774378 0.333545 0.10394
H_ H_ 0.566878 0.701287 0.380142 0.10394
H_ H_ 0.528654 0.940206 0.360891 0.10394
H_ H_ 0.989032 0.878143 0.401954 0.10394
H_ H_ 0.855406 0.983602 0.402808 0.10394
H_ H_ 0.590336 0.799528 0.127341 0.10394
H_ H_ 0.994401 0.780177 0.10104 0.10394
H_ H_ 0.526668 0.7999 0.443071 0.10394
H_ H_ 0.611063 0.842128 0.982438 0.10394
H_ H_ 0.731144 0.75407 0.0956919 0.10394
H_ H_ 0.760537 0.700718 0.164272 0.10394
H_ H_ 0.732559 0.83336 0.266476 0.10394
H_ H_ 0.690164 0.877284 0.1908 0.10394
H_ H_ 0.719864 0.869914 0.442096 0.10394
H_ H_ 0.773516 0.887378 0.377114 0.10394
H_ H_ 0.905325 0.892376 0.493735 0.10394
H_ H_ 0.812939 0.892741 0.170018 0.10394
H_ H_ 0.734026 0.943136 0.192106 0.10394
H_ H_ 0.8275 0.55115 0.278224 0.10394
H_ H_ 0.90234 1.00739229 0.232492 0.10394
H_ H_ 0.516607 0.878345 0.183963 0.10394
H_ H_ 0.554564 0.803772 0.231089 0.10394
H_ H_ 0.920922 0.746053 0.23174 0.10394
H_ H_ 0.878347 0.818975 0.185265 0.10394
H_ H_ 0.966867 0.556027 0.119164 0.10394
H_ H_ 0.513762 0.620751 0.102828 0.10394
H_ H_ 0.640428 0.506978 0.0951432 0.10394
H_ H_ 0.940011 0.65636 0.396438 0.10394
H_ H_ 0.520023 0.684004 0.458486 0.10394
H_ H_ 0.919439 0.773689 0.0483207 0.10394
H_ H_ 0.849854 0.733166 0.505496 0.10394
H_ H_ 0.747081 0.704267 0.386376 0.10394
H_ H_ 0.702279 0.73669 0.304609 0.10394
H_ H_ 0.846038 0.708495 0.240023 0.10394
H_ H_ 0.881382 0.662042 0.312262 0.10394
H_ H_ 0.775815 0.648646 0.057765 0.10394
H_ H_ 0.727333 0.62174 0.12464 0.10394
H_ H_ 0.600742 0.595915 0.00648174 0.10394
C_ C_ 0.67237 0.595999 0.302422 0.18167
C_ C_ 0.719167 0.576862 0.281305 -0.15533
C_ C_ 0.729408 0.52424 0.273416 0.02923
C_ C_ 0.705791 0.984503 0.294864 -0.15533
C_ C_ 0.649666 0.512907 0.307939 0.18167
C_ C_ 0.524102 0.638202 0.272198 0.18167
C_ C_ 0.00995564 0.675014 0.245437 -0.15533
C_ C_ 0.501 0.729158 0.264791 0.02923
C_ C_ 0.52229 0.737167 0.315303 -0.15533
C_ C_ 0.545365 0.695217 0.344237 0.18167
C_ C_ 0.510251 0.540324 0.374566 0.69207
C_ C_ 0.978038 0.00700752 0.39329 0.02923
C_ C_ 0.000220000000000109 0.955954 0.396937 -0.15533
C_ C_ 0.970471 0.915896 0.40071 -0.15533
C_ C_ 0.915912 0.925503 0.398069 0.02923
C_ C_ 0.894818 0.977574 0.394584 -0.15533
C_ C_ 0.924106 0.0167114 0.389064 0.02923
C_ C_ 0.901711 0.56247 0.386615 0.69207
C_ C_ 0.908558 0.826575 0.38628 0.69661
C_ C_ 0.579786 0.800337 0.0860458 0.18167
C_ C_ 0.533094 0.779745 0.0697565 -0.15533
C_ C_ 0.517728 0.780399 0.0162743 0.02923
C_ C_ 0.54131 0.794329 0.482671 -0.15533
C_ C_ 0.591541 0.82312 0.00537844 0.18167
C_ C_ 0.721392 0.765464 0.13451 0.18167
C_ C_ 0.741623 0.737387 0.174034 -0.15533
C_ C_ 0.751174 0.761385 0.223633 0.02923
C_ C_ 0.73483 0.814587 0.229512 -0.15533
C_ C_ 0.707346 0.838737 0.186123 0.18167
C_ C_ 0.747464 0.863288 0.047732 0.69207
C_ C_ 0.78003 0.868772 0.504645 0.02923
C_ C_ 0.760548 0.874171 0.453408 -0.15533
C_ C_ 0.791701 0.879074 0.415975 -0.15533
C_ C_ 0.843652 0.884189 0.428016 0.02923
C_ C_ 0.864011 0.886386 0.480978 -0.15533
C_ C_ 0.833181 0.877915 0.518861 0.02923
C_ C_ 0.857106 0.882031 0.0729649 0.69207
C_ C_ 0.858718 0.88774 0.331703 0.69661
C_ C_ 0.815294 0.929507 0.187485 0.18167
C_ C_ 0.772827 0.95432 0.207051 -0.15533
C_ C_ 0.778027 0.993974 0.243126 0.02923
C_ C_ 0.819841 0.519632 0.25124 -0.15533
C_ C_ 0.866388 0.992583 0.226531 0.18167
C_ C_ 0.995138 0.85536 0.211473 0.18167
C_ C_ 0.512548 0.809251 0.222521 -0.15533
C_ C_ 0.994797 0.768177 0.238005 0.02923
C_ C_ 0.942941 0.772047 0.220394 -0.15533
C_ C_ 0.917932 0.814213 0.197522 0.18167
C_ C_ 0.986243 0.95238 0.128629 0.69207
C_ C_ 0.518262 0.491541 0.109701 0.02923
C_ C_ 0.499069 0.544058 0.108309 -0.15533
C_ C_ 0.531261 0.582949 0.102319 -0.15533
C_ C_ 0.583045 0.570737 0.101497 0.02923
C_ C_ 0.6015 0.518251 0.0987759 -0.15533
C_ C_ 0.57075 0.480231 0.106638 0.02923
C_ C_ 0.600932 0.929003 0.115489 0.69207
C_ C_ 0.595291 0.666319 0.112375 0.69661
C_ C_ 0.936445 0.681868 0.430585 0.18167
C_ C_ 0.98132 0.698666 0.456022 -0.15533
C_ C_ 0.978377 0.734226 0.496073 0.02923
C_ C_ 0.923717 0.750266 1.0148434 -0.15533
C_ C_ 0.884792 0.729449 0.486872 0.18167
C_ C_ 0.767494 0.70756 0.352717 0.18167
C_ C_ 0.742243 0.728901 0.308674 -0.15533
C_ C_ 0.772063 0.730904 0.266763 0.02923
C_ C_ 0.820841 0.706228 0.269381 -0.15533
C_ C_ 0.841517 0.680459 0.313181 0.18167
C_ C_ 0.769775 0.619457 0.455561 0.69207
C_ C_ 0.721291 0.627637 0.994485 0.02923
C_ C_ 0.738593 0.632996 0.0465493 -0.15533
C_ C_ 0.708097 0.623374 0.0845565 -0.15533
C_ C_ 0.658435 0.607249 0.0721759 0.02923
C_ C_ 0.640832 0.602502 0.018942 -0.15533
C_ C_ 0.672716 0.611187 0.980452 0.02923
C_ C_ 0.654351 0.606745 0.4243 0.69207
C_ C_ 0.648569 0.604518 0.167477 0.69661
C_ C_ 0.880877 0.88258 0.387088 -0.30787
C_ C_ 0.621934 0.611626 0.111634 -0.30787
N_ N_ 0.639059 0.563169 0.313455 -0.32189
N_ N_ 0.550655 0.647856 0.318166 -0.32189
N_ N_ 0.607612 0.822017 0.055913 -0.32189
N_ N_ 0.699345 0.812021 0.141153 -0.32189
N_ N_ 0.861938 0.947481 0.197194 -0.32189
N_ N_ 0.945456 0.852585 0.190886 -0.32189
N_ N_ 0.890801 0.691987 0.448902 -0.32189
N_ N_ 0.815458 0.685512 0.355406 -0.32189
O_ O_ 0.00839854 0.585564 0.399607 -0.63271
O_ O_ 0.547765 0.533356 0.344614 -0.57982
O_ O_ 0.900773 0.58484 0.343725 -0.63271
O_ O_ 0.876954 0.586016 0.423744 -0.57982
O_ O_ 0.749405 0.887935 0.09267 -0.63271
O_ O_ 0.706915 0.837179 0.0350841 -0.57982
O_ O_ 0.854276 0.843909 0.0996379 -0.63271
O_ O_ 0.884234 0.919807 0.0923606 -0.57982
O_ O_ 0.484808 0.918665 0.101067 -0.63271
O_ O_ 0.949483 0.962498 0.159212 -0.57982
O_ O_ 0.588382 0.896122 0.145914 -0.63271
O_ O_ 0.641406 0.91763 0.091148 -0.57982
O_ O_ 0.761303 0.607083 0.405241 -0.63271
O_ O_ 0.804288 0.65204 0.467854 -0.57982
O_ O_ 0.644779 0.650375 0.40168 -0.63271
O_ O_ 0.622645 0.57304 0.409103 -0.57982
F_ F_ 0.933724 0.813862 0.435252 -0.20885
F_ F_ 0.944687 0.82015 0.352553 -0.20885
F_ F_ 0.874731 0.788892 0.375528 -0.20885
F_ F_ 0.827273 0.934216 0.325974 -0.20885
F_ F_ 0.830136 0.848322 0.309446 -0.20885
F_ F_ 0.894931 0.892197 0.298714 -0.20885
F_ F_ 0.566838 0.674106 0.0648927 -0.20885
F_ F_ 0.565783 0.677834 0.149847 -0.20885
F_ F_ 0.629545 0.702295 0.121054 -0.20885
F_ F_ 0.684621 0.56251 0.169852 -0.20885
F_ F_ 0.673278 0.643912 0.185037 -0.20885
F_ F_ 0.61139 0.600469 0.198569 -0.20885
Zn Zn 0.585925 0.587324 0.846555 0.83971
Zn Zn 0.663258 0.841612 0.581196 0.83971
Zn Zn 0.91253 0.918773 0.652178 0.83971
Zn Zn 0.83947 0.654063 0.919441 0.83971
H_ H_ 0.664994 0.63718 0.79429 0.10394
H_ H_ 0.741777 0.604611 0.759695 0.10394
H_ H_ 0.708546 0.938676 0.781904 0.10394
H_ H_ 0.63968 0.490401 0.83975 0.10394
H_ H_ 0.0192049 0.601415 0.761735 0.10394
H_ H_ 0.973926 0.673263 0.715832 0.10394
H_ H_ 0.529943 0.775281 0.821669 0.10394
H_ H_ 0.571358 0.703886 0.871042 0.10394
H_ H_ 0.530046 0.94335 0.872347 0.10394
H_ H_ 0.984428 0.882165 0.895729 0.10394
H_ H_ 0.856754 0.988373 0.909221 0.10394
H_ H_ 0.579625 0.804511 0.628004 0.10394
H_ H_ 0.00146556 0.766065 0.596452 0.10394
H_ H_ 0.538213 0.805101 0.944473 0.10394
H_ H_ 0.608778 0.836766 0.481441 0.10394
H_ H_ 0.721957 0.742917 0.596349 0.10394
H_ H_ 0.755796 0.700836 0.675347 0.10394
H_ H_ 0.699341 0.824975 0.76731 0.10394
H_ H_ 0.669265 0.87223 0.687764 0.10394
H_ H_ 0.718535 0.866479 0.949501 0.10394
H_ H_ 0.770183 0.881658 0.882468 0.10394
H_ H_ 0.894327 0.912343 0.990096 0.10394
H_ H_ 0.811484 0.902667 0.653835 0.10394
H_ H_ 0.740641 0.936105 0.697105 0.10394
H_ H_ 0.83312 0.545284 0.786677 0.10394
H_ H_ 0.904776 1.0105889 0.731093 0.10394
H_ H_ 0.508473 0.865414 0.668016 0.10394
H_ H_ 0.542462 0.784812 0.708247 0.10394
H_ H_ 0.907712 0.755028 0.742496 0.10394
H_ H_ 0.867889 0.831398 0.691181 0.10394
H_ H_ 0.962405 0.55648 0.613091 0.10394
H_ H_ 0.517174 0.606247 0.570156 0.10394
H_ H_ 0.647125 0.5004 0.596715 0.10394
H_ H_ 0.943195 0.650675 0.90075 0.10394
H_ H_ 0.515265 0.696312 0.949782 0.10394
H_ H_ 0.924254 0.783212 0.537828 0.10394
H_ H_ 0.848101 0.731232 1.00729 0.10394
H_ H_ 0.731011 0.692081 0.88469 0.10394
H_ H_ 0.688906 0.732791 0.805579 0.10394
H_ H_ 0.834465 0.728156 0.748275 0.10394
H_ H_ 0.876363 0.703312 0.835362 0.10394
H_ H_ 0.786695 0.623639 0.559845 0.10394
H_ H_ 0.726978 0.625057 0.623199 0.10394
H_ H_ 0.607834 0.602153 0.505383 0.10394
C_ C_ 0.676451 0.595568 0.795977 0.18167
C_ C_ 0.719477 0.577802 0.774472 -0.15533
C_ C_ 0.737093 0.525396 0.77631 0.02923
C_ C_ 0.695925 0.97966 0.777638 -0.15533
C_ C_ 0.662435 0.513445 0.817573 0.18167
C_ C_ 0.517887 0.637047 0.77431 0.18167
C_ C_ -0.003638999999999948 0.681534 0.754272 -0.15533
C_ C_ 0.494112 0.727602 0.761816 0.02923
C_ C_ 0.524575 0.737193 0.807512 -0.15533
C_ C_ 0.546585 0.695254 0.837658 0.18167
C_ C_ 0.506529 0.549672 0.869415 0.69207
C_ C_ 0.973254 0.00747463 0.876795 0.02923
C_ C_ -0.005564000000000013 0.956936 0.881082 -0.15533
C_ C_ 0.96756 0.917718 0.890403 -0.15533
C_ C_ 0.915588 0.928837 0.893834 0.02923
C_ C_ 0.895388 0.979927 0.900125 -0.15533
C_ C_ 0.922286 0.0198695 0.891412 0.02923
C_ C_ 0.895315 0.571402 0.87924 0.69207
C_ C_ 0.902991 0.832821 0.900813 0.69661
C_ C_ 0.572108 0.795086 0.587984 0.18167
C_ C_ 0.527899 0.771702 0.568921 -0.15533
C_ C_ 0.512347 0.772065 0.516643 0.02923
C_ C_ 0.545954 0.805754 0.984909 -0.15533
C_ C_ 0.588346 0.812812 0.503859 0.18167
C_ C_ 0.715428 0.760728 0.633783 0.18167
C_ C_ 0.733156 0.734356 0.67775 -0.15533
C_ C_ 0.735178 0.761137 0.727064 0.02923
C_ C_ 0.705677 0.808328 0.729863 -0.15533
C_ C_ 0.68735 0.832447 0.685401 0.18167
C_ C_ 0.744754 0.865111 0.543223 0.69207
C_ C_ 0.779503 0.877136 1.0116884 0.02923
C_ C_ 0.758065 0.874398 0.959519 -0.15533
C_ C_ 0.786537 0.882169 0.919942 -0.15533
C_ C_ 0.839025 0.894695 0.931481 0.02923
C_ C_ 0.856166 0.901314 0.982462 -0.15533
C_ C_ 0.83 0.886134 0.0218007 0.02923
C_ C_ 0.856748 0.880527 0.571046 0.69207
C_ C_ 0.849594 0.890528 0.835654 0.69661
C_ C_ 0.816563 0.934453 0.680258 0.18167
C_ C_ 0.775855 0.951638 0.70737 -0.15533
C_ C_ 0.779652 -0.006206000000000045 0.741284 0.02923
C_ C_ 0.826567 0.51973 0.755625 -0.15533
C_ C_ 0.868249 0.993824 0.726298 0.18167
C_ C_ 0.990944 0.848947 0.698117 0.18167
C_ C_ 0.502661 0.798335 0.70697 -0.15533
C_ C_ 0.979938 0.777464 0.747943 0.02923
C_ C_ 0.930262 0.782048 0.730014 -0.15533
C_ C_ 0.908731 0.823588 0.700755 0.18167
C_ C_ 0.993131 0.956096 0.627673 0.69207
C_ C_ 0.523809 0.487886 0.612877 0.02923
C_ C_ 0.503956 0.537946 0.601932 -0.15533
C_ C_ 0.53386 0.571464 0.584059 -0.15533
C_ C_ 0.58655 0.563877 0.594359 0.02923
C_ C_ 0.608271 0.511973 0.6029 -0.15533
C_ C_ 0.577768 0.474759 0.610342 0.02923
C_ C_ 0.595118 0.921868 0.608639 0.69207
C_ C_ 0.594185 0.65844 0.610985 0.69661
C_ C_ 0.938418 0.679961 0.93281 0.18167
C_ C_ 0.979578 0.703745 0.955685 -0.15533
C_ C_ 0.972098 0.741496 0.995441 0.02923
C_ C_ 0.928686 0.749769 0.512307 -0.15533
C_ C_ 0.882838 0.72835 0.989349 0.18167
C_ C_ 0.754765 0.700788 0.856915 0.18167
C_ C_ 0.730601 0.722454 0.812302 -0.15533
C_ C_ 0.758953 0.734274 0.772713 0.02923
C_ C_ 0.811943 0.721698 0.778108 -0.15533
C_ C_ 0.835489 0.705316 0.82753 0.18167
C_ C_ 0.759174 0.627226 0.958374 0.69207
C_ C_ 0.731612 0.614416 0.493507 0.02923
C_ C_ 0.749216 0.616618 0.54687 -0.15533
C_ C_ 0.714262 0.619117 0.582048 -0.15533
C_ C_ 0.664237 0.604506 0.567777 0.02923
C_ C_ 0.646547 0.606492 0.516064 -0.15533
C_ C_ 0.678516 0.605613 0.477262 0.02923
C_ C_ 0.646477 0.61317 0.928551 0.69207
C_ C_ 0.647567 0.597331 0.664444 0.69661
C_ C_ 0.878436 0.888097 0.89113 -0.30787
C_ C_ 0.623912 0.605467 0.607578 -0.30787
N_ N_ 0.64571 0.564203 0.811985 -0.32189
N_ N_ 0.545617 0.647865 0.818712 -0.32189
N_ N_ 0.604038 0.808425 0.5554 -0.32189
N_ N_ 0.693192 0.809665 0.638807 -0.32189
N_ N_ 0.863622 0.951223 0.693498 -0.32189
N_ N_ 0.939393 0.856769 0.685651 -0.32189
N_ N_ 0.890845 0.692648 0.950804 -0.32189
N_ N_ 0.807308 0.689628 0.861797 -0.32189
O_ O_ 1.00437678 0.582688 0.905102 -0.63271
O_ O_ 0.544967 0.537509 0.843133 -0.57982
O_ O_ 0.897681 0.597358 0.839401 -0.63271
O_ O_ 0.863119 0.589613 0.913014 -0.57982
O_ O_ 0.74721 0.890835 0.586275 -0.63271
O_ O_ 0.70453 0.839839 0.531233 -0.57982
O_ O_ 0.857502 0.841916 0.601101 -0.63271
O_ O_ 0.88776 0.915781 0.586113 -0.57982
O_ O_ 0.487062 0.912654 0.591064 -0.63271
O_ O_ 0.957868 0.965686 0.65887 -0.57982
O_ O_ 0.584802 0.892961 0.64477 -0.63271
O_ O_ 0.627488 0.904418 0.576175 -0.57982
O_ O_ 0.756154 0.598927 0.915072 -0.63271
O_ O_ 0.791864 0.660395 0.962504 -0.57982
O_ O_ 0.652542 0.651831 0.902257 -0.63271
O_ O_ 0.608587 0.585894 0.912337 -0.57982
F_ F_ 0.939504 0.828003 0.944532 -0.20885
F_ F_ 0.924775 0.813196 0.858192 -0.20885
F_ F_ 0.867787 0.797942 0.90614 -0.20885
F_ F_ 0.815733 0.93491 0.83103 -0.20885
F_ F_ 0.823073 0.848686 0.824636 -0.20885
F_ F_ 0.881891 0.894215 0.797454 -0.20885
F_ F_ 0.56796 0.668069 0.563714 -0.20885
F_ F_ 0.557745 0.665336 0.6473 -0.20885
F_ F_ 0.62904 0.69537 0.62529 -0.20885
F_ F_ 0.684525 0.5556 0.664386 -0.20885
F_ F_ 0.670294 0.636817 0.691259 -0.20885
F_ F_ 0.609507 0.594536 0.697821 -0.20885
