_cell_length_a 26.508
_cell_length_b 26.37200000322088
_cell_length_c 26.311999743092066
_cell_angle_alpha 93.74100058972084
_cell_angle_beta 96.04100104955006
_cell_angle_gamma 83.6869992558723
_symmetry_space_group_name_H-M         'P 1'
_symmetry_Int_Tables_number            1
loop_
_symmetry_equiv_pos_as_xyz
   'x, y, z'
                         
loop_
_atom_site_label
_atom_site_type_symbol
_atom_site_fract_x 
_atom_site_fract_y
_atom_site_fract_z
_atom_site_charge
Zn Zn 0.0946683 0.0845298 0.360167 0.83971
Zn Zn 0.15671 0.340587 0.0757189 0.83971
Zn Zn 0.407383 0.413691 0.148748 0.83971
Zn Zn 0.336932 0.161627 0.421658 0.83971
H_ H_ 0.16869 0.136109 0.31361 0.10394
H_ H_ 0.241775 0.106578 0.259397 0.10394
H_ H_ 0.203034 0.440968 0.273994 0.10394
H_ H_ 0.14621 0.988869 0.341468 0.10394
H_ H_ 0.52847 0.0939935 0.260068 0.10394
H_ H_ 0.497294 0.168462 0.203847 0.10394
H_ H_ 0.0245326 0.273223 0.334591 0.10394
H_ H_ 0.0713917 0.204325 0.386255 0.10394
H_ H_ 0.0429108 0.459302 0.419434 0.10394
H_ H_ 0.469416 0.380204 0.36589 0.10394
H_ H_ 0.349543 0.49101 0.399109 0.10394
H_ H_ 0.0735474 0.302223 0.130492 0.10394
H_ H_ 0.488289 0.281628 0.0955219 0.10394
H_ H_ 0.0466367 0.275509 0.449089 0.10394
H_ H_ 0.110012 0.311796 0.977953 0.10394
H_ H_ 0.215345 0.23562 0.0903598 0.10394
H_ H_ 0.248606 0.192234 0.16817 0.10394
H_ H_ 0.201418 0.324062 0.25881 0.10394
H_ H_ 0.180291 0.370348 0.180803 0.10394
H_ H_ 0.208021 0.409949 0.453979 0.10394
H_ H_ 0.260893 0.416808 0.383451 0.10394
H_ H_ 0.395337 0.392798 0.48845 0.10394
H_ H_ 0.302922 0.389987 0.153556 0.10394
H_ H_ 0.226837 0.443969 0.186203 0.10394
H_ H_ 0.33101 0.0504123 0.280149 0.10394
H_ H_ 0.401097 0.499435 0.220219 0.10394
H_ H_ 0.0201762 0.374794 0.190006 0.10394
H_ H_ 0.0558669 0.311611 0.246517 0.10394
H_ H_ 0.415689 0.239388 0.218704 0.10394
H_ H_ 0.374773 0.315521 0.17262 0.10394
H_ H_ 0.46538 0.0562631 0.129191 0.10394
H_ H_ 0.0227393 0.117524 0.132729 0.10394
H_ H_ 0.13638 0.0012099999999999334 0.0751423 0.10394
H_ H_ 0.442856 0.160833 0.413462 0.10394
H_ H_ 0.0237768 0.184024 0.449473 0.10394
H_ H_ 0.411245 0.307957 -0.000387134 0.10394
H_ H_ 0.338654 0.24286 0.511619 0.10394
H_ H_ 0.235107 0.205888 0.388858 0.10394
H_ H_ 0.192279 0.244967 0.310527 0.10394
H_ H_ 0.336448 0.229016 0.246382 0.10394
H_ H_ 0.370728 0.191981 0.32442 0.10394
H_ H_ 0.287367 0.0953588 0.048232 0.10394
H_ H_ 0.236642 0.0855399 0.114688 0.10394
H_ H_ 0.107909 0.104462 0.0032871 0.10394
C_ C_ 0.178151 0.0974958 0.304193 0.18167
C_ C_ 0.221577 0.0801608 0.277708 -0.15533
C_ C_ 0.234351 0.026963 0.271589 0.02923
C_ C_ 0.192742 0.484561 0.275253 -0.15533
C_ C_ 0.163757 0.0125219 0.318445 0.18167
C_ C_ 0.0385241 0.134955 0.280331 0.18167
C_ C_ 0.512083 0.17527 0.244161 -0.15533
C_ C_ 0.00790863 0.223734 0.269432 0.02923
C_ C_ 0.0280457 0.233171 0.318551 -0.15533
C_ C_ 0.0508494 0.191745 0.349707 0.18167
C_ C_ 0.00950672 0.0439437 0.372095 0.69207
C_ C_ 0.471794 0.507909 0.370645 0.02923
C_ C_ 0.487039 0.454562 0.360757 -0.15533
C_ C_ 0.453966 0.418235 0.363419 -0.15533
C_ C_ 0.406397 0.430043 0.383649 0.02923
C_ C_ 0.389994 0.481415 0.391879 -0.15533
C_ C_ 0.422257 0.520332 0.385556 0.02923
C_ C_ 0.390753 0.0765161 0.380782 0.69207
C_ C_ 0.395794 0.333347 0.386233 0.69661
C_ C_ 0.0649158 0.293537 0.0895875 0.18167
C_ C_ 0.0244876 0.26618 0.0721322 -0.15533
C_ C_ 0.0103266 0.260884 0.0192194 0.02923
C_ C_ 0.0558248 0.282799 0.489502 -0.15533
C_ C_ 0.0799646 0.30721 0.00449975 0.18167
C_ C_ 0.220144 0.258803 0.128542 0.18167
C_ C_ 0.239735 0.232143 0.172787 -0.15533
C_ C_ 0.235751 0.256469 0.221295 0.02923
C_ C_ 0.210021 0.305855 0.222996 -0.15533
C_ C_ 0.197027 0.331356 0.17829 0.18167
C_ C_ 0.242263 0.356745 0.0429736 0.69207
C_ C_ 0.271905 0.380116 0.505057 0.02923
C_ C_ 0.248866 0.39645 0.457319 -0.15533
C_ C_ 0.278974 0.400458 0.417361 -0.15533
C_ C_ 0.332123 0.398936 0.424765 0.02923
C_ C_ 0.35478 0.393635 0.476314 -0.15533
C_ C_ 0.325339 0.384711 0.516123 0.02923
C_ C_ 0.348391 0.388132 0.067283 0.69207
C_ C_ 0.342611 0.38848 0.326475 0.69661
C_ C_ 0.307427 0.427935 0.172958 0.18167
C_ C_ 0.266858 0.453574 0.197191 -0.15533
C_ C_ 0.273931 0.492859 0.233186 0.02923
C_ C_ 0.324058 0.0220367 0.248144 -0.15533
C_ C_ 0.36312 0.484043 0.215055 0.18167
C_ C_ 0.492327 0.350842 0.198134 0.18167
C_ C_ 0.0148253 0.31016 0.232603 -0.15533
C_ C_ 0.487023 0.270865 0.235839 0.02923
C_ C_ 0.43872 0.270077 0.212386 -0.15533
C_ C_ 0.414399 0.314557 0.18841 0.18167
C_ C_ 0.48763 0.452365 0.118121 0.69207
C_ C_ 0.0185252 0.989476 0.11429 0.02923
C_ C_ 0.00342822 0.0415598 0.120948 -0.15533
C_ C_ 0.0372243 0.0789402 0.119246 -0.15533
C_ C_ 0.0831577 0.0653624 0.09745 0.02923
C_ C_ 0.0989378 0.0136021 0.0861999 -0.15533
C_ C_ 0.068625 0.975209 0.0991494 0.02923
C_ C_ 0.0984684 0.422924 0.102514 0.69207
C_ C_ 0.105081 0.157366 0.103154 0.69661
C_ C_ 0.43342 0.187287 0.444598 0.18167
C_ C_ 0.472041 0.213318 0.4666 -0.15533
C_ C_ 0.465101 0.251773 0.505391 0.02923
C_ C_ 0.416958 0.270408 -0.011009999999999964 -0.15533
C_ C_ 0.376547 0.234115 0.49894 0.18167
C_ C_ 0.254781 0.203817 0.354374 0.18167
C_ C_ 0.23173 0.2293 0.310939 -0.15533
C_ C_ 0.25911 0.233076 0.269813 0.02923
C_ C_ 0.311622 0.222549 0.277171 -0.15533
C_ C_ 0.333019 0.203939 0.323387 0.18167
C_ C_ 0.268751 0.127342 0.467146 0.69207
C_ C_ 0.229363 0.108041 0.988702 0.02923
C_ C_ 0.248279 0.0976581 0.0393089 -0.15533
C_ C_ 0.218197 0.0910927 0.0778747 -0.15533
C_ C_ 0.165374 0.093813 0.0659607 0.02923
C_ C_ 0.146365 0.101747 0.0146009 -0.15533
C_ C_ 0.177023 0.111409 0.97626 0.02923
C_ C_ 0.15765 0.106462 0.438872 0.69207
C_ C_ 0.154356 0.0973893 0.162337 0.69661
C_ C_ 0.369962 0.390035 0.381346 -0.30787
C_ C_ 0.127982 0.101331 0.106474 -0.30787
N_ N_ 0.148584 0.06244 0.320623 -0.32189
N_ N_ 0.0569021 0.144198 0.328232 -0.32189
N_ N_ 0.0944448 0.307984 0.0564403 -0.32189
N_ N_ 0.195998 0.30619 0.132824 -0.32189
N_ N_ 0.35328 0.445732 0.180126 -0.32189
N_ N_ 0.441445 0.3531 0.178963 -0.32189
N_ N_ 0.385888 0.201562 0.457324 -0.32189
N_ N_ 0.304266 0.18849 0.357611 -0.32189
O_ O_ 0.495572 0.0913869 0.395641 -0.63271
O_ O_ 0.0523492 0.0337137 0.352129 -0.57982
O_ O_ 0.389161 0.101662 0.33762 -0.63271
O_ O_ 0.369727 0.0999474 0.420896 -0.57982
O_ O_ 0.237752 0.389637 0.0818494 -0.63271
O_ O_ 0.206917 0.328393 0.0301627 -0.57982
O_ O_ 0.351451 0.344747 0.0888273 -0.63271
O_ O_ 0.378348 0.422865 0.0871108 -0.57982
O_ O_ 0.992065 0.402103 0.091216 -0.63271
O_ O_ 0.459954 0.452261 0.156864 -0.57982
O_ O_ 0.0969693 0.392142 0.139516 -0.63271
O_ O_ 0.127827 0.406021 0.0664737 -0.57982
O_ O_ 0.268234 0.102792 0.422944 -0.63271
O_ O_ 0.297829 0.16448 0.475617 -0.57982
O_ O_ 0.164825 0.140423 0.407429 -0.63271
O_ O_ 0.119471 0.0812875 0.426212 -0.57982
F_ F_ 0.433603 0.332554 0.427002 -0.20885
F_ F_ 0.420189 0.314977 0.346005 -0.20885
F_ F_ 0.3619 0.297145 0.393393 -0.20885
F_ F_ 0.31495 0.434128 0.320742 -0.20885
F_ F_ 0.308582 0.35284 0.313647 -0.20885
F_ F_ 0.373034 0.386326 0.286356 -0.20885
F_ F_ 0.0710755 0.164995 0.0627279 -0.20885
F_ F_ 0.0865112 0.175225 0.149268 -0.20885
F_ F_ 0.139203 0.191427 0.0958818 -0.20885
F_ F_ 0.183501 0.0528153 0.167791 -0.20885
F_ F_ 0.184441 0.137338 0.17651 -0.20885
F_ F_ 0.11981 0.0992764 0.199569 -0.20885
Zn Zn 0.0943431 0.0789534 0.842474 0.83971
Zn Zn 0.159271 0.351947 0.590599 0.83971
Zn Zn 0.404283 0.415068 0.650423 0.83971
Zn Zn 0.337914 0.154352 0.915521 0.83971
H_ H_ 0.168133 0.128895 0.800111 0.10394
H_ H_ 0.251396 0.0941498 0.766373 0.10394
H_ H_ 0.225862 0.449387 0.801452 0.10394
H_ H_ 0.138815 0.985513 0.832159 0.10394
H_ H_ 0.531348 0.104671 0.743864 0.10394
H_ H_ 0.494373 0.18273 0.702319 0.10394
H_ H_ 0.0407056 0.262818 0.829953 0.10394
H_ H_ 0.0716144 0.184972 0.875748 0.10394
H_ H_ 0.0301527 0.436171 0.852214 0.10394
H_ H_ 0.484118 0.383694 0.886005 0.10394
H_ H_ 0.356842 0.490957 0.913629 0.10394
H_ H_ 0.0767447 0.307334 0.635292 0.10394
H_ H_ 0.496697 0.279349 0.605397 0.10394
H_ H_ 0.027498 0.280467 0.944856 0.10394
H_ H_ 0.117306 0.324706 0.485775 0.10394
H_ H_ 0.220712 0.265479 0.60638 0.10394
H_ H_ 0.252307 0.213094 0.678906 0.10394
H_ H_ 0.211517 0.345865 0.778295 0.10394
H_ H_ 0.186611 0.393082 0.702371 0.10394
H_ H_ 0.221073 0.348129 0.935759 0.10394
H_ H_ 0.277178 0.358301 0.872869 0.10394
H_ H_ 0.384641 0.417672 0.98866 0.10394
H_ H_ 0.3041 0.400422 0.664046 0.10394
H_ H_ 0.234927 0.453227 0.694232 0.10394
H_ H_ 0.347251 0.0388425 0.797194 0.10394
H_ H_ 0.406078 0.510974 0.7277 0.10394
H_ H_ 0.0185383 0.37928 0.697048 0.10394
H_ H_ 0.0648501 0.305102 0.736806 0.10394
H_ H_ 0.411269 0.250869 0.72766 0.10394
H_ H_ 0.36467 0.333017 0.695933 0.10394
H_ H_ 0.46355 0.0606165 0.597912 0.10394
H_ H_ 0.0258056 0.115439 0.640148 0.10394
H_ H_ 0.144915 0.00381136 0.595996 0.10394
H_ H_ 0.437822 0.128009 0.958767 0.10394
H_ H_ 0.0208469 0.185828 0.949944 0.10394
H_ H_ 0.411044 0.287287 0.554048 0.10394
H_ H_ 0.342546 0.269514 -0.049026000000000014 0.10394
H_ H_ 0.236678 0.199307 0.890682 0.10394
H_ H_ 0.188787 0.235441 0.814084 0.10394
H_ H_ 0.331856 0.243998 0.751859 0.10394
H_ H_ 0.37723 0.209858 0.834286 0.10394
H_ H_ 0.294382 0.116378 0.569335 0.10394
H_ H_ 0.240514 0.0917907 0.628393 0.10394
H_ H_ 0.113221 0.0852434 0.515966 0.10394
C_ C_ 0.179809 0.0892329 0.797724 0.18167
C_ C_ 0.226367 0.0705831 0.780262 -0.15533
C_ C_ 0.243768 0.0177257 0.78579 0.02923
C_ C_ 0.211712 0.487474 0.795351 -0.15533
C_ C_ 0.165192 0.00669442 0.816223 0.18167
C_ C_ 0.0284048 0.128799 0.765912 0.18167
C_ C_ 0.507499 0.184459 0.740023 -0.15533
C_ C_ 0.0144654 0.222048 0.758849 0.02923
C_ C_ 0.0383669 0.227376 0.810427 -0.15533
C_ C_ 0.0569854 0.181788 0.834227 0.18167
C_ C_ 0.0121292 0.0393517 0.86283 0.69207
C_ C_ 0.476754 0.511016 0.889394 0.02923
C_ C_ 0.499589 0.460059 0.893045 -0.15533
C_ C_ 0.467324 0.422381 0.891605 -0.15533
C_ C_ 0.414043 0.434101 0.899639 0.02923
C_ C_ 0.396626 0.483159 0.914062 -0.15533
C_ C_ 0.425177 0.523581 0.900492 0.02923
C_ C_ 0.398699 0.0714254 0.881648 0.69207
C_ C_ 0.400435 0.33964 0.870423 0.69661
C_ C_ 0.0709763 0.301483 0.593913 0.18167
C_ C_ 0.0292075 0.275722 0.57359 -0.15533
C_ C_ 0.0189253 0.271702 0.52005 0.02923
C_ C_ 0.0384089 0.282707 0.984221 -0.15533
C_ C_ 0.0926325 0.31215 0.510442 0.18167
C_ C_ 0.217545 0.281905 0.642942 0.18167
C_ C_ 0.232975 0.251711 0.684722 -0.15533
C_ C_ 0.228934 0.273152 0.733575 0.02923
C_ C_ 0.209337 0.32351 0.740757 -0.15533
C_ C_ 0.193876 0.350938 0.69804 0.18167
C_ C_ 0.23633 0.374331 0.546445 0.69207
C_ C_ 0.27558 0.3707 0.00104961 0.02923
C_ C_ 0.258799 0.358195 0.947827 -0.15533
C_ C_ 0.291437 0.365113 0.910356 -0.15533
C_ C_ 0.338049 0.387799 0.924337 0.02923
C_ C_ 0.352742 0.400855 0.977099 -0.15533
C_ C_ 0.324082 0.391456 0.0142414 0.02923
C_ C_ 0.350022 0.386292 0.569947 0.69207
C_ C_ 0.341211 0.41352 0.833679 0.69661
C_ C_ 0.311208 0.435877 0.685046 0.18167
C_ C_ 0.273037 0.462301 0.708334 -0.15533
C_ C_ 0.28208 0.502531 0.745728 0.02923
C_ C_ 0.337295 0.00979017 0.766369 -0.15533
C_ C_ 0.370796 0.493189 0.72531 0.18167
C_ C_ 0.487366 0.357495 0.698574 0.18167
C_ C_ 0.0257265 0.304737 0.718944 -0.15533
C_ C_ 0.483746 0.276736 0.73451 0.02923
C_ C_ 0.431607 0.282064 0.72356 -0.15533
C_ C_ 0.407389 0.325138 0.699006 0.18167
C_ C_ 0.484111 0.452083 0.618559 0.69207
C_ C_ 0.0240826 0.988874 0.624055 0.02923
C_ C_ 0.00542675 0.041105 0.626706 -0.15533
C_ C_ 0.0387589 0.0791027 0.625799 -0.15533
C_ C_ 0.0888513 0.0666555 0.611888 0.02923
C_ C_ 0.10423 0.0151023 0.60172 -0.15533
C_ C_ 0.0752916 0.975067 0.607993 0.02923
C_ C_ 0.0992594 0.430436 0.610494 0.69207
C_ C_ 0.104879 0.163407 0.61262 0.69661
C_ C_ 0.433061 0.169233 0.958698 0.18167
C_ C_ 0.474801 0.193814 0.982916 -0.15533
C_ C_ 0.467848 0.244197 0.997639 0.02923
C_ C_ 0.417492 0.260793 0.525261 -0.15533
C_ C_ 0.377171 0.245586 0.965324 0.18167
C_ C_ 0.256923 0.204465 0.857572 0.18167
C_ C_ 0.229601 0.229864 0.816965 -0.15533
C_ C_ 0.25735 0.248374 0.779139 0.02923
C_ C_ 0.310422 0.234317 0.782273 -0.15533
C_ C_ 0.336575 0.207276 0.82401 0.18167
C_ C_ 0.266258 0.116789 0.951769 0.69207
C_ C_ 0.232227 0.116798 0.505038 0.02923
C_ C_ 0.253327 0.118037 0.557542 -0.15533
C_ C_ 0.22273 0.103535 0.593305 -0.15533
C_ C_ 0.168977 0.0974058 0.580485 0.02923
C_ C_ 0.151384 0.0936818 0.528198 -0.15533
C_ C_ 0.181559 0.106911 0.49175 0.02923
C_ C_ 0.153615 0.113336 0.924561 0.69207
C_ C_ 0.153933 0.105035 0.675242 0.69661
C_ C_ 0.373898 0.394842 0.883537 -0.30787
C_ C_ 0.130097 0.108083 0.620003 -0.30787
N_ N_ 0.149386 0.0550629 0.809115 -0.32189
N_ N_ 0.0536139 0.133897 0.811553 -0.32189
N_ N_ 0.104508 0.315517 0.561993 -0.32189
N_ N_ 0.19547 0.328062 0.650868 -0.32189
N_ N_ 0.359068 0.451268 0.692993 -0.32189
N_ N_ 0.436169 0.361097 0.686066 -0.32189
N_ N_ 0.385484 0.194642 0.95235 -0.32189
N_ N_ 0.309115 0.191269 0.859433 -0.32189
O_ O_ 0.515654 0.0898056 0.899773 -0.63271
O_ O_ 0.0530493 0.030108 0.838477 -0.57982
O_ O_ 0.411025 0.104764 0.850948 -0.63271
O_ O_ 0.3657 0.0895721 0.915028 -0.57982
O_ O_ 0.244784 0.398398 0.589518 -0.63271
O_ O_ 0.19768 0.3456 0.538295 -0.57982
O_ O_ 0.35116 0.348639 0.599404 -0.63271
O_ O_ 0.37093 0.427938 0.588623 -0.57982
O_ O_ 0.996134 0.40934 0.605552 -0.63271
O_ O_ 0.446276 0.463092 0.647262 -0.57982
O_ O_ 0.0993946 0.408352 0.652949 -0.63271
O_ O_ 0.133091 0.412771 0.578026 -0.57982
O_ O_ 0.262573 0.0981419 0.904062 -0.63271
O_ O_ 0.295615 0.1535 0.962989 -0.57982
O_ O_ 0.161677 0.150094 0.898348 -0.63271
O_ O_ 0.119834 0.0818439 0.907382 -0.57982
F_ F_ 0.431406 0.322982 0.911591 -0.20885
F_ F_ 0.43067 0.338683 0.830446 -0.20885
F_ F_ 0.36928 0.302193 0.857624 -0.20885
F_ F_ 0.306683 0.457391 0.839445 -0.20885
F_ F_ 0.315114 0.374981 0.806762 -0.20885
F_ F_ 0.371698 0.422272 0.797357 -0.20885
F_ F_ 0.0704756 0.160924 0.571279 -0.20885
F_ F_ 0.0799573 0.189187 0.65333 -0.20885
F_ F_ 0.137403 0.198398 0.605754 -0.20885
F_ F_ 0.178551 0.0562128 0.681341 -0.20885
F_ F_ 0.186519 0.143117 0.691964 -0.20885
F_ F_ 0.117815 0.108627 0.710073 -0.20885
Zn Zn 0.0909928 0.585095 0.349717 0.83971
Zn Zn 0.162052 0.841388 0.0812503 0.83971
Zn Zn 0.407895 0.922578 0.155991 0.83971
Zn Zn 0.340702 0.654401 0.417091 0.83971
H_ H_ 0.177014 0.629296 0.305876 0.10394
H_ H_ 0.24293 0.597147 0.256801 0.10394
H_ H_ 0.213829 0.950302 0.284661 0.10394
H_ H_ 0.129844 0.482497 0.319137 0.10394
H_ H_ 0.526252 0.596154 0.250662 0.10394
H_ H_ 0.487011 0.660941 0.198593 0.10394
H_ H_ 0.0267237 0.765107 0.335266 0.10394
H_ H_ 0.0742387 0.698232 0.376444 0.10394
H_ H_ 0.0346343 0.944551 0.375264 0.10394
H_ H_ 0.461678 0.882937 0.356642 0.10394
H_ H_ 0.343317 0.99468 0.403192 0.10394
H_ H_ 0.070713 0.801806 0.128398 0.10394
H_ H_ 0.51222 0.761927 0.100697 0.10394
H_ H_ 0.0332078 0.794729 0.446715 0.10394
H_ H_ 0.123582 0.812107 0.985858 0.10394
H_ H_ 0.2103 0.735923 0.0977345 0.10394
H_ H_ 0.255658 0.698892 0.172499 0.10394
H_ H_ 0.209259 0.826377 0.265153 0.10394
H_ H_ 0.169177 0.870742 0.18961 0.10394
H_ H_ 0.207199 0.876551 0.449448 0.10394
H_ H_ 0.256794 0.889865 0.38303 0.10394
H_ H_ 0.392375 0.894865 0.488459 0.10394
H_ H_ 0.305396 0.902323 0.162031 0.10394
H_ H_ 0.230133 0.958871 0.189221 0.10394
H_ H_ 0.332778 0.527655 0.280401 0.10394
H_ H_ 0.401387 0.011794 0.223826 0.10394
H_ H_ 0.0007099999999999884 0.880388 0.196796 0.10394
H_ H_ 0.0446575 0.815337 0.247665 0.10394
H_ H_ 0.398182 0.764143 0.235197 0.10394
H_ H_ 0.36698 0.836631 0.190083 0.10394
H_ H_ 0.466025 0.55518 0.130712 0.10394
H_ H_ 0.00569328 0.612047 0.10029 0.10394
H_ H_ 0.14473 0.509919 0.0917208 0.10394
H_ H_ 0.447998 0.66196 0.396157 0.10394
H_ H_ 0.0182166 0.705201 0.438623 0.10394
H_ H_ 0.415189 0.788204 0.0446502 0.10394
H_ H_ 0.340171 0.747371 0.488614 0.10394
H_ H_ 0.23729 0.697802 0.38824 0.10394
H_ H_ 0.187675 0.741412 0.31193 0.10394
H_ H_ 0.332009 0.721673 0.242935 0.10394
H_ H_ 0.376058 0.685646 0.324469 0.10394
H_ H_ 0.27795 0.637102 0.0634533 0.10394
H_ H_ 0.225729 0.612404 0.124835 0.10394
H_ H_ 0.106379 0.580019 0.00307213 0.10394
C_ C_ 0.180082 0.588761 0.296589 0.18167
C_ C_ 0.221477 0.569859 0.271763 -0.15533
C_ C_ 0.231625 0.51503 0.26406 0.02923
C_ C_ 0.20307 0.992522 0.288353 -0.15533
C_ C_ 0.155046 0.50697 0.305065 0.18167
C_ C_ 0.0246531 0.633359 0.273613 0.18167
C_ C_ 0.494814 0.672268 0.238961 -0.15533
C_ C_ 0.00573934 0.724735 0.266084 0.02923
C_ C_ 0.0329051 0.729851 0.313126 -0.15533
C_ C_ 0.0561118 0.687936 0.340165 0.18167
C_ C_ 0.0144636 0.548488 0.381234 0.69207
C_ C_ 0.466265 0.00672762 0.373286 0.02923
C_ C_ 0.481411 0.95623 0.362723 -0.15533
C_ C_ 0.44662 0.919836 0.363595 -0.15533
C_ C_ 0.399756 0.930302 0.385594 0.02923
C_ C_ 0.383235 0.984071 0.395612 -0.15533
C_ C_ 0.413471 0.0227886 0.384123 0.02923
C_ C_ 0.397909 0.573853 0.387485 0.69207
C_ C_ 0.387208 0.835701 0.380471 0.69661
C_ C_ 0.067117 0.798194 0.0889629 0.18167
C_ C_ 0.0228279 0.77823 0.0663809 -0.15533
C_ C_ 0.0168009 0.767314 0.0129146 0.02923
C_ C_ 0.0497992 0.788819 0.485752 -0.15533
C_ C_ 0.0923102 0.809249 0.00678878 0.18167
C_ C_ 0.212137 0.758069 0.133249 0.18167
C_ C_ 0.237134 0.735607 0.175507 -0.15533
C_ C_ 0.230756 0.757386 0.223553 0.02923
C_ C_ 0.213494 0.808473 0.229489 -0.15533
C_ C_ 0.19187 0.833766 0.184872 0.18167
C_ C_ 0.24555 0.855961 0.0448383 0.69207
C_ C_ 0.269517 0.877095 0.508623 0.02923
C_ C_ 0.248702 0.876376 0.457922 -0.15533
C_ C_ 0.276232 0.884847 0.419434 -0.15533
C_ C_ 0.32749 0.892661 0.428252 0.02923
C_ C_ 0.350107 0.892344 0.479403 -0.15533
C_ C_ 0.319466 0.889513 0.520302 0.02923
C_ C_ 0.352878 0.886894 0.070145 0.69207
C_ C_ 0.332465 0.894921 0.32758 0.69661
C_ C_ 0.30976 0.938289 0.182626 0.18167
C_ C_ 0.26769 0.967228 0.200821 -0.15533
C_ C_ 0.274759 1.00504251 0.239066 0.02923
C_ C_ 0.323498 0.506954 0.244732 -0.15533
C_ C_ 0.364545 0.998941 0.219555 0.18167
C_ C_ 0.488239 0.847381 0.187713 0.18167
C_ C_ 0.00648584 0.8109 0.228643 -0.15533
C_ C_ 0.477924 0.768835 0.226107 0.02923
C_ C_ 0.425648 0.784635 0.220362 -0.15533
C_ C_ 0.406542 0.830605 0.200922 0.18167
C_ C_ 0.48621 0.957192 0.121072 0.69207
C_ C_ 0.0236152 0.485557 0.114853 0.02923
C_ C_ -0.000773514 0.535127 0.110053 -0.15533
C_ C_ 0.0272738 0.575428 0.103541 -0.15533
C_ C_ 0.0800886 0.567647 0.0992216 0.02923
C_ C_ 0.102408 0.517234 0.0959202 -0.15533
C_ C_ 0.0751247 0.476534 0.105674 0.02923
C_ C_ 0.0958265 0.922703 0.107355 0.69207
C_ C_ 0.0865385 0.664923 0.0934009 0.69661
C_ C_ 0.440386 0.680933 0.43345 0.18167
C_ C_ 0.479674 0.707233 0.457835 -0.15533
C_ C_ 0.470237 0.74942 0.492609 0.02923
C_ C_ 0.426046 0.754398 0.0182296 -0.15533
C_ C_ 0.380664 0.731657 0.483592 0.18167
C_ C_ 0.254033 0.699705 0.353232 0.18167
C_ C_ 0.227999 0.725114 0.310612 -0.15533
C_ C_ 0.256882 0.72973 0.2696 0.02923
C_ C_ 0.310963 0.714557 0.273677 -0.15533
C_ C_ 0.335806 0.698867 0.320249 0.18167
C_ C_ 0.265155 0.626186 0.458423 0.69207
C_ C_ 0.224963 0.621042 0.998168 0.02923
C_ C_ 0.239072 0.625237 0.049843 -0.15533
C_ C_ 0.20775 0.613341 0.0846915 -0.15533
C_ C_ 0.157109 0.601678 0.0700892 0.02923
C_ C_ 0.14251 0.592937 0.0168689 -0.15533
C_ C_ 0.175953 0.605231 0.982027 0.02923
C_ C_ 0.150873 0.613549 0.4293 0.69207
C_ C_ 0.135352 0.612656 0.164483 0.69661
C_ C_ 0.36008 0.890642 0.382334 -0.30787
C_ C_ 0.115225 0.610909 0.105984 -0.30787
N_ N_ 0.147104 0.557637 0.312448 -0.32189
N_ N_ 0.0508048 0.641687 0.320886 -0.32189
N_ N_ 0.10103 0.812662 0.0586234 -0.32189
N_ N_ 0.186276 0.805877 0.139708 -0.32189
N_ N_ 0.356788 0.955117 0.192905 -0.32189
N_ N_ 0.438729 0.859801 0.181347 -0.32189
N_ N_ 0.391279 0.692232 0.446429 -0.32189
N_ N_ 0.306947 0.687942 0.357276 -0.32189
O_ O_ 0.506116 0.583431 0.401228 -0.63271
O_ O_ 0.0463954 0.536603 0.346151 -0.57982
O_ O_ 0.395297 0.600285 0.346106 -0.63271
O_ O_ 0.369142 0.588803 0.422821 -0.57982
O_ O_ 0.250552 0.877776 0.0897729 -0.63271
O_ O_ 0.204186 0.83278 0.0297098 -0.57982
O_ O_ 0.357849 0.844479 0.0948608 -0.63271
O_ O_ 0.375669 0.927094 0.0911824 -0.57982
O_ O_ 0.985825 0.907283 0.094601 -0.63271
O_ O_ 0.453006 0.967659 0.154258 -0.57982
O_ O_ 0.0833061 0.891887 0.140252 -0.63271
O_ O_ 0.137365 0.907742 0.0854432 -0.57982
O_ O_ 0.256158 0.610001 0.409947 -0.63271
O_ O_ 0.298901 0.6597 0.467568 -0.57982
O_ O_ 0.154657 0.650445 0.400365 -0.63271
O_ O_ 0.115055 0.582105 0.416024 -0.57982
F_ F_ 0.429222 0.830134 0.415069 -0.20885
F_ F_ 0.402993 0.813778 0.333238 -0.20885
F_ F_ 0.355604 0.796076 0.392549 -0.20885
F_ F_ 0.300945 0.940058 0.322705 -0.20885
F_ F_ 0.301671 0.857393 0.311176 -0.20885
F_ F_ 0.367502 0.896088 0.291264 -0.20885
F_ F_ 0.0528131 0.667248 0.049313 -0.20885
F_ F_ 0.0549577 0.679224 0.13252 -0.20885
F_ F_ 0.122459 0.701732 0.0968413 -0.20885
F_ F_ 0.169201 0.570289 0.174956 -0.20885
F_ F_ 0.158588 0.653632 0.180317 -0.20885
F_ F_ 0.0992397 0.61427 0.19602 -0.20885
Zn Zn 0.0888289 0.578585 0.847515 0.83971
Zn Zn 0.162539 0.844563 0.589968 0.83971
Zn Zn 0.410838 0.920056 0.655483 0.83971
Zn Zn 0.338448 0.655649 0.924607 0.83971
H_ H_ 0.167084 0.630992 0.804498 0.10394
H_ H_ 0.246019 0.596967 0.762231 0.10394
H_ H_ 0.225868 0.945429 0.809191 0.10394
H_ H_ 0.135556 0.479907 0.821904 0.10394
H_ H_ 0.533288 0.600861 0.753694 0.10394
H_ H_ 0.492215 0.672638 0.699175 0.10394
H_ H_ 0.0476525 0.764224 0.835968 0.10394
H_ H_ 0.0728046 0.69047 0.877689 0.10394
H_ H_ 0.0272403 0.938617 0.842314 0.10394
H_ H_ 0.493405 0.883236 0.89335 0.10394
H_ H_ 0.360226 0.988515 0.906737 0.10394
H_ H_ 0.085367 0.797882 0.631381 0.10394
H_ H_ 0.490333 0.788387 0.59115 0.10394
H_ H_ 0.0492321 0.779079 0.942227 0.10394
H_ H_ 0.122001 0.817621 0.485329 0.10394
H_ H_ 0.220088 0.745195 0.60432 0.10394
H_ H_ 0.258874 0.701242 0.678503 0.10394
H_ H_ 0.225222 0.841069 0.770917 0.10394
H_ H_ 0.185385 0.88054 0.693612 0.10394
H_ H_ 0.233176 0.840373 0.944192 0.10394
H_ H_ 0.287009 0.851926 0.879306 0.10394
H_ H_ 0.395512 0.910853 0.991484 0.10394
H_ H_ 0.309768 0.905187 0.66428 0.10394
H_ H_ 0.237471 0.959693 0.693884 0.10394
H_ H_ 0.336988 0.550318 0.779853 0.10394
H_ H_ 0.410677 0.0061249 0.738277 0.10394
H_ H_ 0.0140118 0.891473 0.703338 0.10394
H_ H_ 0.0575886 0.818414 0.756707 0.10394
H_ H_ 0.411119 0.762951 0.750029 0.10394
H_ H_ 0.369252 0.842247 0.7108 0.10394
H_ H_ 0.456905 0.552765 0.623 0.10394
H_ H_ 0.021701 0.624535 0.626006 0.10394
H_ H_ 0.148533 0.506642 0.596225 0.10394
H_ H_ 0.438142 0.671758 0.893832 0.10394
H_ H_ 0.0145257 0.704282 0.926953 0.10394
H_ H_ 0.41291 0.79465 0.530792 0.10394
H_ H_ 0.353056 0.721804 0.0150342 0.10394
H_ H_ 0.224232 0.682984 0.880655 0.10394
H_ H_ 0.188666 0.736897 0.808978 0.10394
H_ H_ 0.336104 0.747534 0.766439 0.10394
H_ H_ 0.371357 0.697227 0.840275 0.10394
H_ H_ 0.282218 0.638707 0.563262 0.10394
H_ H_ 0.23371 0.601577 0.623284 0.10394
H_ H_ 0.102142 0.609063 0.508126 0.10394
C_ C_ 0.179907 0.591196 0.800445 0.18167
C_ C_ 0.224756 0.572269 0.777448 -0.15533
C_ C_ 0.241825 0.521143 0.776931 0.02923
C_ C_ 0.212428 0.986022 0.804967 -0.15533
C_ C_ 0.162493 0.506779 0.810243 0.18167
C_ C_ 0.0369154 0.63377 0.765732 0.18167
C_ C_ 0.513029 0.679338 0.736161 -0.15533
C_ C_ 0.021342 0.725585 0.760521 0.02923
C_ C_ 0.0425374 0.730452 0.81284 -0.15533
C_ C_ 0.0572068 0.684757 0.83911 0.18167
C_ C_ 0.0123056 0.539352 0.870763 0.69207
C_ C_ 0.478975 0.0105518 0.883231 0.02923
C_ C_ 0.504348 0.96188 0.892027 -0.15533
C_ C_ 0.475883 0.921113 0.897868 -0.15533
C_ C_ 0.422281 0.929456 0.898104 0.02923
C_ C_ 0.400023 0.980106 0.897026 -0.15533
C_ C_ 0.428091 0.0207468 0.888155 0.02923
C_ C_ 0.400214 0.576515 0.896258 0.69207
C_ C_ 0.416158 0.834088 0.90018 0.69661
C_ C_ 0.0744852 0.799871 0.591737 0.18167
C_ C_ 0.0304698 0.777622 0.573803 -0.15533
C_ C_ 0.017257 0.773541 0.518885 0.02923
C_ C_ 0.0513668 0.785225 0.982707 -0.15533
C_ C_ 0.096152 0.804827 0.507773 0.18167
C_ C_ 0.222323 0.765962 0.638855 0.18167
C_ C_ 0.244534 0.740909 0.68386 -0.15533
C_ C_ 0.24062 0.764883 0.73266 0.02923
C_ C_ 0.224348 0.818863 0.735341 -0.15533
C_ C_ 0.198622 0.84072 0.691077 0.18167
C_ C_ 0.239752 0.866012 0.549698 0.69207
C_ C_ 0.279607 0.869823 0.00554832 0.02923
C_ C_ 0.262625 0.865184 0.952464 -0.15533
C_ C_ 0.296523 0.869353 0.91471 -0.15533
C_ C_ 0.344643 0.889056 0.929199 0.02923
C_ C_ 0.356979 0.901726 0.980586 -0.15533
C_ C_ 0.325827 0.892127 0.0185115 0.02923
C_ C_ 0.348533 0.887979 0.571194 0.69207
C_ C_ 0.366495 0.885082 0.833874 0.69661
C_ C_ 0.315296 0.941314 0.684489 0.18167
C_ C_ 0.274385 0.964724 0.709765 -0.15533
C_ C_ 0.286139 0.997103 0.754116 0.02923
C_ C_ 0.330889 0.519213 0.752493 -0.15533
C_ C_ 0.375957 0.987585 0.737633 0.18167
C_ C_ 0.492794 0.849813 0.690144 0.18167
C_ C_ 0.0201333 0.817772 0.736392 -0.15533
C_ C_ 0.486619 0.773418 0.733384 0.02923
C_ C_ 0.433572 0.788066 0.731759 -0.15533
C_ C_ 0.411282 0.832788 0.708625 0.18167
C_ C_ 0.490822 0.957097 0.620218 0.69207
C_ C_ 0.0248382 0.495942 0.619784 0.02923
C_ C_ 1.00751976 0.547182 0.629686 -0.15533
C_ C_ 0.0394782 0.584923 0.622157 -0.15533
C_ C_ 0.0918425 0.572554 0.609129 0.02923
C_ C_ 0.107684 0.519878 0.600672 -0.15533
C_ C_ 0.0749828 0.482681 0.605285 0.02923
C_ C_ 0.0999642 0.922034 0.607725 0.69207
C_ C_ 0.110313 0.670308 0.606464 0.69661
C_ C_ 0.438807 0.689448 0.93225 0.18167
C_ C_ 0.480636 0.711958 0.957553 -0.15533
C_ C_ 0.473028 0.747004 -0.0015979999999999883 0.02923
C_ C_ 0.420783 0.760622 0.506681 -0.15533
C_ C_ 0.388732 0.723018 0.997205 0.18167
C_ C_ 0.249603 0.696929 0.854853 0.18167
C_ C_ 0.227896 0.728505 0.813873 -0.15533
C_ C_ 0.25955 0.740933 0.779251 0.02923
C_ C_ 0.311197 0.728597 0.788382 -0.15533
C_ C_ 0.33131 0.699622 0.82941 0.18167
C_ C_ 0.264268 0.623784 0.963297 0.69207
C_ C_ 0.228702 0.618591 0.497297 0.02923
C_ C_ 0.247289 0.619748 0.548982 -0.15533
C_ C_ 0.217744 0.605144 0.585449 -0.15533
C_ C_ 0.166232 0.600759 0.571977 0.02923
C_ C_ 0.145784 0.605399 0.520443 -0.15533
C_ C_ 0.175939 0.614367 0.482417 0.02923
C_ C_ 0.155608 0.602679 0.928288 0.69207
C_ C_ 0.154491 0.61206 0.671036 0.69661
C_ C_ 0.38623 0.886262 0.892556 -0.30787
C_ C_ 0.130433 0.61208 0.614611 -0.30787
N_ N_ 0.147136 0.557567 0.813493 -0.32189
N_ N_ 0.0572904 0.637702 0.816262 -0.32189
N_ N_ 0.108588 0.808643 0.558762 -0.32189
N_ N_ 0.197427 0.815014 0.644993 -0.32189
N_ N_ 0.362854 0.954159 0.699022 -0.32189
N_ N_ 0.442244 0.863839 0.690799 -0.32189
N_ N_ 0.394432 0.696809 0.952758 -0.32189
N_ N_ 0.301369 0.680421 0.859825 -0.32189
O_ O_ 0.504716 0.597826 0.899404 -0.63271
O_ O_ 0.0439799 0.534677 0.835411 -0.57982
O_ O_ 0.396722 0.600831 0.85325 -0.63271
O_ O_ 0.374768 0.596037 0.934589 -0.57982
O_ O_ 0.24226 0.892409 0.595237 -0.63271
O_ O_ 0.203307 0.836311 0.539121 -0.57982
O_ O_ 0.355209 0.845403 0.594132 -0.63271
O_ O_ 0.371326 0.928467 0.592728 -0.57982
O_ O_ 0.992939 0.907227 0.605187 -0.63271
O_ O_ 0.456602 0.968715 0.65216 -0.57982
O_ O_ 0.102545 0.895197 0.650358 -0.63271
O_ O_ 0.131301 0.906298 0.574356 -0.57982
O_ O_ 0.262306 0.597832 0.919187 -0.63271
O_ O_ 0.292744 0.660735 0.970856 -0.57982
O_ O_ 0.153974 0.644925 0.902664 -0.63271
O_ O_ 0.123198 0.570474 0.912845 -0.57982
F_ F_ 0.442637 0.835711 0.944871 -0.20885
F_ F_ 0.449441 0.819358 0.863173 -0.20885
F_ F_ 0.384897 0.796593 0.894476 -0.20885
F_ F_ 0.325724 0.922059 0.828105 -0.20885
F_ F_ 0.348473 0.83978 0.813256 -0.20885
F_ F_ 0.4029 0.892798 0.802905 -0.20885
F_ F_ 0.0677217 0.670543 0.5737 -0.20885
F_ F_ 0.0920065 0.698555 0.649674 -0.20885
F_ F_ 0.139726 0.701015 0.585057 -0.20885
F_ F_ 0.18085 0.565695 0.679397 -0.20885
F_ F_ 0.188716 0.64768 0.683682 -0.20885
F_ F_ 0.119897 0.616856 0.707004 -0.20885
Zn Zn 0.589626 0.0832835 0.35328 0.83971
Zn Zn 0.656224 0.343573 0.088309 0.83971
Zn Zn 0.907999 0.408352 0.155194 0.83971
Zn Zn 0.845184 0.155015 0.419485 0.83971
H_ H_ 0.669386 0.126872 0.307403 0.10394
H_ H_ 0.752818 0.0887019 0.278751 0.10394
H_ H_ 0.706795 0.441026 0.282364 0.10394
H_ H_ 0.625212 0.982267 0.329219 0.10394
H_ H_ 0.0404041 0.0986427 0.265835 0.10394
H_ H_ 0.992964 0.166327 0.210639 0.10394
H_ H_ 0.518822 0.26961 0.338496 0.10394
H_ H_ 0.567484 0.200676 0.38391 0.10394
H_ H_ 0.526548 0.440018 0.34931 0.10394
H_ H_ 0.99174 0.387026 0.420516 0.10394
H_ H_ 0.85876 0.490615 0.410589 0.10394
H_ H_ 0.571976 0.312107 0.135609 0.10394
H_ H_ 1.00197683 0.248022 0.0965855 0.10394
H_ H_ 0.52897 0.294768 0.450733 0.10394
H_ H_ 0.625532 0.306382 0.990433 0.10394
H_ H_ 0.718235 0.249292 0.109574 0.10394
H_ H_ 0.750187 0.206005 0.185733 0.10394
H_ H_ 0.728637 0.346 0.274621 0.10394
H_ H_ 0.67933 0.385256 0.196192 0.10394
H_ H_ 0.730783 0.347381 0.448181 0.10394
H_ H_ 0.788809 0.352064 0.384613 0.10394
H_ H_ 0.904729 0.39808 0.499337 0.10394
H_ H_ 0.804505 0.389921 0.165933 0.10394
H_ H_ 0.733194 0.444261 0.194656 0.10394
H_ H_ 0.832262 0.0251567 0.287171 0.10394
H_ H_ 0.902858 0.495594 0.229367 0.10394
H_ H_ 0.511802 0.384835 0.197582 0.10394
H_ H_ 0.552979 0.315307 0.24549 0.10394
H_ H_ 0.91126 0.240161 0.225035 0.10394
H_ H_ 0.873022 0.322607 0.190019 0.10394
H_ H_ 0.9634 0.0547155 0.128136 0.10394
H_ H_ 0.513941 0.120479 0.0977875 0.10394
H_ H_ 0.641107 0.00636361 0.087311 0.10394
H_ H_ 0.945256 0.165288 0.39353 0.10394
H_ H_ 0.508723 0.203963 0.453564 0.10394
H_ H_ 0.909243 0.273703 0.0402283 0.10394
H_ H_ 0.85599 0.216802 0.511476 0.10394
H_ H_ 0.747099 0.199586 0.397028 0.10394
H_ H_ 0.698574 0.247812 0.326758 0.10394
H_ H_ 0.836908 0.229941 0.251374 0.10394
H_ H_ 0.883487 0.18924 0.324923 0.10394
H_ H_ 0.782473 0.117115 0.0502535 0.10394
H_ H_ 0.725013 0.119088 0.119289 0.10394
H_ H_ 0.599253 0.100595 0.00618325 0.10394
C_ C_ 0.677963 0.0861015 0.302697 0.18167
C_ C_ 0.721809 0.0657213 0.281911 -0.15533
C_ C_ 0.726881 0.0117565 0.269983 0.02923
C_ C_ 0.699485 0.483765 0.288413 -0.15533
C_ C_ 0.649995 0.00478238 0.310476 0.18167
C_ C_ 0.535224 0.1326 0.273132 0.18167
C_ C_ 0.0105442 0.173365 0.250159 -0.15533
C_ C_ 0.506283 0.226174 0.266121 0.02923
C_ C_ 0.527987 0.233714 0.317182 -0.15533
C_ C_ 0.54872 0.192547 0.345382 0.18167
C_ C_ 0.503304 0.0463651 0.37376 0.69207
C_ C_ 0.979262 0.512172 0.396284 0.02923
C_ C_ 1.00192716 0.463641 0.40811 -0.15533
C_ C_ 0.972142 0.422289 0.407389 -0.15533
C_ C_ 0.917886 0.430301 0.400977 0.02923
C_ C_ 0.897831 0.482331 0.404999 -0.15533
C_ C_ 0.926027 0.522547 0.393883 0.02923
C_ C_ 0.898631 0.0712424 0.38446 0.69207
C_ C_ 0.91429 0.330462 0.389949 0.69661
C_ C_ 0.564429 0.303527 0.095761 0.18167
C_ C_ 0.519716 0.282656 0.0733394 -0.15533
C_ C_ 0.513452 0.27099 0.0202466 0.02923
C_ C_ 0.54123 0.29677 0.491228 -0.15533
C_ C_ 0.595779 0.299407 0.0139174 0.18167
C_ C_ 0.709772 0.267193 0.14598 0.18167
C_ C_ 0.731302 0.243198 0.18886 -0.15533
C_ C_ 0.737016 0.270846 0.237711 0.02923
C_ C_ 0.719941 0.323283 0.238357 -0.15533
C_ C_ 0.695001 0.346372 0.192656 0.18167
C_ C_ 0.741517 0.365859 0.0479732 0.69207
C_ C_ 0.783357 0.366766 0.511262 0.02923
C_ C_ 0.766374 0.36446 0.458998 -0.15533
C_ C_ 0.799931 0.367153 0.42253 -0.15533
C_ C_ 0.848305 0.383703 0.434834 0.02923
C_ C_ 0.866523 0.386224 0.487442 -0.15533
C_ C_ 0.835824 0.372506 0.52448 0.02923
C_ C_ 0.852283 0.38056 0.0706288 0.69207
C_ C_ 0.85981 0.390586 0.337642 0.69661
C_ C_ 0.808286 0.426492 0.184394 0.18167
C_ C_ 0.770551 0.45093 0.210862 -0.15533
C_ C_ 0.777162 0.49301 0.244784 0.02923
C_ C_ 0.820677 0.00342164 0.251339 -0.15533
C_ C_ 0.865081 0.484002 0.226189 0.18167
C_ C_ 0.993837 0.347798 0.201172 0.18167
C_ C_ 0.514856 0.31063 0.228125 -0.15533
C_ C_ 0.987211 0.269065 0.239271 0.02923
C_ C_ 0.935496 0.272262 0.221937 -0.15533
C_ C_ 0.912631 0.317445 0.202402 0.18167
C_ C_ 0.991923 0.443338 0.1222 0.69207
C_ C_ 0.522612 0.994669 0.118412 0.02923
C_ C_ 0.502007 0.0442335 0.118197 -0.15533
C_ C_ 0.532759 0.0826363 0.107778 -0.15533
C_ C_ 0.583399 0.0704927 0.0971752 0.02923
C_ C_ 0.602138 0.0179925 0.0943443 -0.15533
C_ C_ 0.574696 0.981518 0.108425 0.02923
C_ C_ 0.592447 0.422375 0.113589 0.69207
C_ C_ 0.601466 0.166987 0.10772 0.69661
C_ C_ 0.941701 0.18142 0.431588 0.18167
C_ C_ 0.985068 0.200522 0.456959 -0.15533
C_ C_ 0.976615 0.239585 0.495228 0.02923
C_ C_ 0.919336 0.245818 0.00550743 -0.15533
C_ C_ 0.890249 0.21711 0.493434 0.18167
C_ C_ 0.765868 0.208348 0.364274 0.18167
C_ C_ 0.739864 0.236382 0.32456 -0.15533
C_ C_ 0.767358 0.248151 0.282043 0.02923
C_ C_ 0.817262 0.224892 0.28094 -0.15533
C_ C_ 0.84377 0.206038 0.324816 0.18167
C_ C_ 0.769005 0.11916 0.457332 0.69207
C_ C_ 0.723353 0.113323 0.988474 0.02923
C_ C_ 0.741975 0.115428 0.0394311 -0.15533
C_ C_ 0.711049 0.111853 0.078103 -0.15533
C_ C_ 0.658552 0.106638 0.0675059 0.02923
C_ C_ 0.641164 0.100178 0.0154797 -0.15533
C_ C_ 0.670834 0.109391 0.975106 0.02923
C_ C_ 0.652384 0.107469 0.427872 0.69207
C_ C_ 0.644613 0.104 0.166194 0.69661
C_ C_ 0.885695 0.383896 0.39261 -0.30787
C_ C_ 0.622314 0.110157 0.110147 -0.30787
N_ N_ 0.64366 0.05527 0.314105 -0.32189
N_ N_ 0.555192 0.143704 0.322338 -0.32189
N_ N_ 0.602908 0.307626 0.0667647 -0.32189
N_ N_ 0.689569 0.317458 0.149001 -0.32189
N_ N_ 0.856395 0.441778 0.194393 -0.32189
N_ N_ 0.943541 0.34798 0.182563 -0.32189
N_ N_ 0.895408 0.190121 0.449736 -0.32189
N_ N_ 0.815215 0.190063 0.362144 -0.32189
O_ O_ -0.001346999999999987 0.0909404 0.39013 -0.63271
O_ O_ 0.542476 0.0377996 0.347782 -0.57982
O_ O_ 0.890011 0.0959583 0.3408 -0.63271
O_ O_ 0.875137 0.0891452 0.425204 -0.57982
O_ O_ 0.74048 0.400489 0.086826 -0.63271
O_ O_ 0.703476 0.337334 0.0416357 -0.57982
O_ O_ 0.852178 0.34077 0.0987872 -0.63271
O_ O_ 0.882177 0.415253 0.0896331 -0.57982
O_ O_ 0.482905 0.419996 0.078231 -0.63271
O_ O_ 0.959461 0.45026 0.157454 -0.57982
O_ O_ 0.596951 0.40143 0.158338 -0.63271
O_ O_ 0.620827 0.40205 0.0773684 -0.57982
O_ O_ 0.759094 0.107888 0.408406 -0.63271
O_ O_ 0.807832 0.148247 0.470434 -0.57982
O_ O_ 0.647911 0.151275 0.403384 -0.63271
O_ O_ 0.621093 0.0739104 0.414371 -0.57982
F_ F_ 0.948978 0.323089 0.433558 -0.20885
F_ F_ 0.943478 0.323014 0.349821 -0.20885
F_ F_ 0.88776 0.286503 0.388391 -0.20885
F_ F_ 0.824432 0.433056 0.336019 -0.20885
F_ F_ 0.833152 0.350592 0.318282 -0.20885
F_ F_ 0.896864 0.396713 0.30431 -0.20885
F_ F_ 0.575007 0.177399 0.0617102 -0.20885
F_ F_ 0.570099 0.185561 0.145711 -0.20885
F_ F_ 0.644684 0.197241 0.116532 -0.20885
F_ F_ 0.670797 0.0545715 0.171463 -0.20885
F_ F_ 0.673752 0.141465 0.182856 -0.20885
F_ F_ 0.611647 0.109851 0.202337 -0.20885
Zn Zn 0.587729 0.086193 0.839703 0.83971
Zn Zn 0.658981 0.350289 0.58203 0.83971
Zn Zn 0.909935 0.418328 0.662971 0.83971
Zn Zn 0.843033 0.140069 0.907352 0.83971
H_ H_ 0.679714 0.125009 0.809443 0.10394
H_ H_ 0.754157 0.087572 0.776703 0.10394
H_ H_ 0.708091 0.453545 0.797554 0.10394
H_ H_ 0.617399 0.98558 0.801193 0.10394
H_ H_ 0.0325312 0.0920244 0.748844 0.10394
H_ H_ 0.997157 0.167848 0.696104 0.10394
H_ H_ 0.520645 0.275952 0.835089 0.10394
H_ H_ 0.551854 0.196023 0.882456 0.10394
H_ H_ 0.539024 0.453343 0.884854 0.10394
H_ H_ 0.978713 0.367406 0.868762 0.10394
H_ H_ 0.856206 0.486705 0.901403 0.10394
H_ H_ 0.583936 0.299977 0.634969 0.10394
H_ H_ 0.00562871 0.263042 0.599752 0.10394
H_ H_ 0.545865 0.276657 0.948817 0.10394
H_ H_ 0.603175 0.338601 0.485998 0.10394
H_ H_ 0.711794 0.254597 0.595706 0.10394
H_ H_ 0.752982 0.206068 0.674802 0.10394
H_ H_ 0.71106 0.332921 0.770723 0.10394
H_ H_ 0.668405 0.379376 0.698068 0.10394
H_ H_ 0.715881 0.369646 0.944795 0.10394
H_ H_ 0.76652 0.383028 0.876355 0.10394
H_ H_ 0.893676 0.407235 0.989524 0.10394
H_ H_ 0.809825 0.39587 0.669546 0.10394
H_ H_ 0.729096 0.446651 0.700265 0.10394
H_ H_ 0.828095 0.0290936 0.786394 0.10394
H_ H_ 0.891853 0.519502 0.719702 0.10394
H_ H_ 0.511247 0.386661 0.691137 0.10394
H_ H_ 0.552911 0.311668 0.73678 0.10394
H_ H_ 0.920404 0.240331 0.712375 0.10394
H_ H_ 0.876725 0.324126 0.693094 0.10394
H_ H_ 0.966227 0.0554077 0.6319 0.10394
H_ H_ 0.520668 0.126577 0.613262 0.10394
H_ H_ 0.646676 0.0129832 0.593881 0.10394
H_ H_ 0.949289 0.152068 0.898112 0.10394
H_ H_ 0.510755 0.171623 0.984924 0.10394
H_ H_ 0.925492 0.264372 0.555512 0.10394
H_ H_ 0.844162 0.226331 -0.007422999999999957 0.10394
H_ H_ 0.741754 0.194688 0.8815 0.10394
H_ H_ 0.699523 0.233499 0.806273 0.10394
H_ H_ 0.843429 0.211086 0.738645 0.10394
H_ H_ 0.881197 0.1792 0.814784 0.10394
H_ H_ 0.788638 0.115853 0.557628 0.10394
H_ H_ 0.733664 0.111056 0.621424 0.10394
H_ H_ 0.613764 0.0798072 0.509162 0.10394
C_ C_ 0.68077 0.0858249 0.79777 0.18167
C_ C_ 0.723027 0.0625486 0.776213 -0.15533
C_ C_ 0.728101 0.01327 0.75584 0.02923
C_ C_ 0.698367 0.494789 0.797759 -0.15533
C_ C_ 0.644766 0.00723845 0.786854 0.18167
C_ C_ 0.532015 0.141878 0.764919 0.18167
C_ C_ 0.00947133 0.172161 0.737592 -0.15533
C_ C_ 0.505077 0.232209 0.764687 0.02923
C_ C_ 0.52635 0.235805 0.815011 -0.15533
C_ C_ 0.545319 0.192947 0.841529 0.18167
C_ C_ 0.510025 0.0505424 0.869611 0.69207
C_ C_ 0.975946 0.500507 0.873364 0.02923
C_ C_ 0.993871 0.448792 0.865543 -0.15533
C_ C_ 0.964519 0.410224 0.8748 -0.15533
C_ C_ 0.913337 0.422936 0.891247 0.02923
C_ C_ 0.89488 0.474786 0.894165 -0.15533
C_ C_ 0.92554 0.512665 0.883044 0.02923
C_ C_ 0.89869 0.060062 0.874176 0.69207
C_ C_ 0.904153 0.325734 0.891764 0.69661
C_ C_ 0.571134 0.299604 0.594441 0.18167
C_ C_ 0.522704 0.286313 0.577402 -0.15533
C_ C_ 0.508104 0.28256 0.525454 0.02923
C_ C_ 0.551219 0.282263 0.989821 -0.15533
C_ C_ 0.581952 0.321745 0.511223 0.18167
C_ C_ 0.711552 0.271167 0.635373 0.18167
C_ C_ 0.740063 0.246895 0.67679 -0.15533
C_ C_ 0.7408 0.267044 0.725395 0.02923
C_ C_ 0.715338 0.316732 0.732362 -0.15533
C_ C_ 0.686336 0.342028 0.691344 0.18167
C_ C_ 0.74569 0.358776 0.549091 0.69207
C_ C_ 0.777684 0.370966 1.00622795 0.02923
C_ C_ 0.756462 0.375348 0.957487 -0.15533
C_ C_ 0.78721 0.379734 0.915865 -0.15533
C_ C_ 0.837315 0.390786 0.925359 0.02923
C_ C_ 0.856193 0.39831 0.977799 -0.15533
C_ C_ 0.829111 0.380397 0.0168419 0.02923
C_ C_ 0.85918 0.37457 0.577345 0.69207
C_ C_ 0.854181 0.37671 0.831222 0.69661
C_ C_ 0.811829 0.431103 0.691281 0.18167
C_ C_ 0.767275 0.458797 0.709731 -0.15533
C_ C_ 0.773152 0.498063 0.747727 0.02923
C_ C_ 0.822041 0.00035644 0.754448 -0.15533
C_ C_ 0.860841 0.498251 0.724192 0.18167
C_ C_ 0.997124 0.351638 0.703559 0.18167
C_ C_ 0.513271 0.31413 0.724546 -0.15533
C_ C_ 0.995377 0.265206 0.727706 0.02923
C_ C_ 0.942688 0.270244 0.71526 -0.15533
C_ C_ 0.918078 0.318005 0.700208 0.18167
C_ C_ 0.989008 0.456251 0.628598 0.69207
C_ C_ 0.52429 0.995274 0.608995 0.02923
C_ C_ 0.502898 0.0474256 0.605675 -0.15533
C_ C_ 0.53487 0.085927 0.606365 -0.15533
C_ C_ 0.586581 0.0738649 0.59822 0.02923
C_ C_ 0.606164 0.0220907 0.594229 -0.15533
C_ C_ 0.57736 0.98124 0.602354 0.02923
C_ C_ 0.597619 0.429748 0.607878 0.69207
C_ C_ 0.602851 0.169447 0.600681 0.69661
C_ C_ 0.942782 0.168922 0.934442 0.18167
C_ C_ 0.980114 0.194118 0.960663 -0.15533
C_ C_ 0.969045 0.232281 -0.001375000000000015 0.02923
C_ C_ 0.929175 0.244634 0.516413 -0.15533
C_ C_ 0.88137 0.216863 0.980227 0.18167
C_ C_ 0.762553 0.195678 0.849323 0.18167
C_ C_ 0.739344 0.224052 0.808678 -0.15533
C_ C_ 0.767521 0.237663 0.770884 0.02923
C_ C_ 0.821239 0.219371 0.7735 -0.15533
C_ C_ 0.842522 0.194712 0.817114 0.18167
C_ C_ 0.759621 0.118373 0.948901 0.69207
C_ C_ 0.729993 0.119124 0.494197 0.02923
C_ C_ 0.746856 0.119136 0.546265 -0.15533
C_ C_ 0.714909 0.113247 0.584964 -0.15533
C_ C_ 0.665922 0.101242 0.571599 0.02923
C_ C_ 0.648746 0.0977387 0.520216 -0.15533
C_ C_ 0.680176 0.103028 0.480675 0.02923
C_ C_ 0.647606 0.108461 0.92187 0.69207
C_ C_ 0.646383 0.108274 0.664655 0.69661
C_ C_ 0.875755 0.380482 0.885653 -0.30787
C_ C_ 0.624342 0.113484 0.608247 -0.30787
N_ N_ 0.64345 0.0576007 0.80448 -0.32189
N_ N_ 0.553948 0.147411 0.813436 -0.32189
N_ N_ 0.598546 0.320853 0.562673 -0.32189
N_ N_ 0.686442 0.318621 0.643 -0.32189
N_ N_ 0.856529 0.452256 0.698024 -0.32189
N_ N_ 0.945724 0.355389 0.68842 -0.32189
N_ N_ 0.892938 0.180209 0.944268 -0.32189
N_ N_ 0.81455 0.182371 0.853928 -0.32189
O_ O_ 0.00612695 0.0778868 0.897817 -0.63271
O_ O_ 0.539732 0.0415703 0.834062 -0.57982
O_ O_ 0.896887 0.0861912 0.833997 -0.63271
O_ O_ 0.875158 0.0805201 0.912638 -0.57982
O_ O_ 0.747921 0.383384 0.594747 -0.63271
O_ O_ 0.702827 0.338718 0.532881 -0.57982
O_ O_ 0.865213 0.335437 0.606762 -0.63271
O_ O_ 0.875495 0.41717 0.599672 -0.57982
O_ O_ 0.490754 0.406899 0.595843 -0.63271
O_ O_ 0.953203 0.465704 0.660921 -0.57982
O_ O_ 0.587209 0.401708 0.643835 -0.63271
O_ O_ 0.636627 0.415756 0.581924 -0.57982
O_ O_ 0.760784 0.0862361 0.909945 -0.63271
O_ O_ 0.79727 0.149267 0.95505 -0.57982
O_ O_ 0.6516 0.148015 0.894454 -0.63271
O_ O_ 0.613333 0.0779008 0.905294 -0.57982
F_ F_ 0.941243 0.323504 0.933693 -0.20885
F_ F_ 0.924573 0.298489 0.848637 -0.20885
F_ F_ 0.867273 0.292805 0.901442 -0.20885
F_ F_ 0.824566 0.420589 0.820293 -0.20885
F_ F_ 0.826241 0.335893 0.815885 -0.20885
F_ F_ 0.888971 0.373018 0.796496 -0.20885
F_ F_ 0.579281 0.177014 0.553638 -0.20885
F_ F_ 0.570822 0.190398 0.638167 -0.20885
F_ F_ 0.643293 0.199716 0.604586 -0.20885
F_ F_ 0.672605 0.062118 0.675207 -0.20885
F_ F_ 0.671348 0.149017 0.687034 -0.20885
F_ F_ 0.609688 0.109891 0.695562 -0.20885
Zn Zn 0.58651 0.586969 0.342097 0.83971
Zn Zn 0.666719 0.849321 0.0836909 0.83971
Zn Zn 0.901519 0.911688 0.148051 0.83971
Zn Zn 0.840339 0.655919 0.415766 0.83971
H_ H_ 0.667336 0.627605 0.297549 0.10394
H_ H_ 0.745724 0.59347 0.263062 0.10394
H_ H_ 0.698769 0.94027 0.27556 0.10394
H_ H_ 0.628268 0.481156 0.324483 0.10394
H_ H_ 0.0226392 0.59477 0.257696 0.10394
H_ H_ 0.974911 0.667581 0.213661 0.10394
H_ H_ 0.531666 0.773298 0.317946 0.10394
H_ H_ 0.56769 0.702632 0.371758 0.10394
H_ H_ 0.521222 0.944403 0.360669 0.10394
H_ H_ 0.982866 0.875731 0.38252 0.10394
H_ H_ 0.853538 0.989421 0.407492 0.10394
H_ H_ 0.58258 0.812516 0.135922 0.10394
H_ H_ 1.0012 0.763767 0.0912731 0.10394
H_ H_ 0.534441 0.796943 0.442275 0.10394
H_ H_ 0.619465 0.832731 0.983323 0.10394
H_ H_ 0.720492 0.744916 0.0989319 0.10394
H_ H_ 0.757852 0.704565 0.180872 0.10394
H_ H_ 0.711608 0.843503 0.265375 0.10394
H_ H_ 0.676545 0.881259 0.189458 0.10394
H_ H_ 0.709241 0.876823 0.439772 0.10394
H_ H_ 0.764622 0.87215 0.369755 0.10394
H_ H_ 0.890647 0.897741 0.482185 0.10394
H_ H_ 0.798247 0.89369 0.154737 0.10394
H_ H_ 0.724153 0.947228 0.181478 0.10394
H_ H_ 0.833525 0.53695 0.281796 0.10394
H_ H_ 0.894762 0.9957391 0.230909 0.10394
H_ H_ 0.513281 0.871029 0.174271 0.10394
H_ H_ 0.551719 0.792446 0.215036 0.10394
H_ H_ 0.906612 0.740674 0.226691 0.10394
H_ H_ 0.864852 0.811585 0.174824 0.10394
H_ H_ 0.957043 0.542731 0.10585 0.10394
H_ H_ 0.514682 0.61931 0.106578 0.10394
H_ H_ 0.64549 0.501687 0.0956467 0.10394
H_ H_ 0.942002 0.674628 0.390323 0.10394
H_ H_ 0.519669 0.696797 0.451966 0.10394
H_ H_ 0.92041 0.76574 0.0434624 0.10394
H_ H_ 0.845774 0.739391 0.499688 0.10394
H_ H_ 0.726183 0.685146 0.37354 0.10394
H_ H_ 0.689355 0.750768 0.312299 0.10394
H_ H_ 0.83393 0.760099 0.26673 0.10394
H_ H_ 0.874973 0.700339 0.330108 0.10394
H_ H_ 0.786576 0.61846 0.0565665 0.10394
H_ H_ 0.731394 0.611541 0.122686 0.10394
H_ H_ 0.607333 0.584532 0.00736863 0.10394
C_ C_ 0.677132 0.587352 0.29873 0.18167
C_ C_ 0.723628 0.567774 0.280248 -0.15533
C_ C_ 0.733504 0.515438 0.273054 0.02923
C_ C_ 0.691818 0.981784 0.2853 -0.15533
C_ C_ 0.655379 0.505613 0.311827 0.18167
C_ C_ 0.52392 0.634093 0.267344 0.18167
C_ C_ 0.00213194 0.674765 0.244283 -0.15533
C_ C_ 0.497084 0.724575 0.258868 0.02923
C_ C_ 0.524417 0.733338 0.307277 -0.15533
C_ C_ 0.546558 0.693033 0.334867 0.18167
C_ C_ 0.508157 0.545533 0.368922 0.69207
C_ C_ 0.97287 0.00568192 0.373036 0.02923
C_ C_ -0.006345999999999963 0.953355 0.374216 -0.15533
C_ C_ 0.963762 0.914289 0.380321 -0.15533
C_ C_ 0.912093 0.927333 0.391762 0.02923
C_ C_ 0.893653 0.979729 0.397506 -0.15533
C_ C_ 0.922163 0.0192812 0.384156 0.02923
C_ C_ 0.896739 0.573493 0.387234 0.69207
C_ C_ 0.894063 0.830051 0.38093 0.69661
C_ C_ 0.574103 0.808198 0.0929993 0.18167
C_ C_ 0.53303 0.779677 0.0747727 -0.15533
C_ C_ 0.516973 0.776473 0.0195362 0.02923
C_ C_ 0.541916 0.801198 0.482599 -0.15533
C_ C_ 0.5931 0.817453 0.00759959 0.18167
C_ C_ 0.723035 0.76825 0.133484 0.18167
C_ C_ 0.741492 0.74451 0.179955 -0.15533
C_ C_ 0.73566 0.770863 0.22833 0.02923
C_ C_ 0.710409 0.819395 0.228645 -0.15533
C_ C_ 0.69715 0.844333 0.185638 0.18167
C_ C_ 0.746589 0.862632 0.0423739 0.69207
C_ C_ 0.77098 0.878842 0.500836 0.02923
C_ C_ 0.749019 0.876714 0.448615 -0.15533
C_ C_ 0.78111 0.877067 0.409421 -0.15533
C_ C_ 0.833197 0.887885 0.421694 0.02923
C_ C_ 0.852087 0.889141 0.473307 -0.15533
C_ C_ 0.823934 0.884361 0.511941 0.02923
C_ C_ 0.86132 0.874832 0.0607747 0.69207
C_ C_ 0.845069 0.893011 0.328307 0.69661
C_ C_ 0.803906 0.929393 0.173512 0.18167
C_ C_ 0.761276 0.954586 0.198024 -0.15533
C_ C_ 0.770839 0.989622 0.240389 0.02923
C_ C_ 0.825288 0.508562 0.252614 -0.15533
C_ C_ 0.858901 0.981633 0.222596 0.18167
C_ C_ 0.978734 0.850122 0.201526 0.18167
C_ C_ 0.511153 0.799774 0.208034 -0.15533
C_ C_ 0.979961 0.770661 0.239772 0.02923
C_ C_ 0.926107 0.774088 0.22464 -0.15533
C_ C_ 0.904535 0.811238 0.186911 0.18167
C_ C_ 0.979258 0.953153 0.117851 0.69207
C_ C_ 0.521159 0.493494 0.11791 0.02923
C_ C_ 0.503632 0.544708 0.121659 -0.15533
C_ C_ 0.533812 0.580897 0.109106 -0.15533
C_ C_ 0.585421 0.56728 0.102114 0.02923
C_ C_ 0.603928 0.515263 0.100341 -0.15533
C_ C_ 0.571026 0.4769 0.108037 0.02923
C_ C_ 0.598409 0.929121 0.112965 0.69207
C_ C_ 0.604797 0.662885 0.102877 0.69661
C_ C_ 0.939778 0.69163 0.428601 0.18167
C_ C_ 0.98319 0.709006 0.457027 -0.15533
C_ C_ 0.97449 0.743184 0.498556 0.02923
C_ C_ 0.924302 0.746336 1.00630311 -0.15533
C_ C_ 0.883781 0.728276 0.489867 0.18167
C_ C_ 0.75186 0.704895 0.353189 0.18167
C_ C_ 0.729389 0.732637 0.311227 -0.15533
C_ C_ 0.75881 0.74889 0.276738 0.02923
C_ C_ 0.811761 0.737323 0.282835 -0.15533
C_ C_ 0.833219 0.707024 0.323216 0.18167
C_ C_ 0.762121 0.624519 0.450747 0.69207
C_ C_ 0.727519 0.618782 0.994102 0.02923
C_ C_ 0.747005 0.615396 0.0447689 -0.15533
C_ C_ 0.715205 0.607593 0.0830165 -0.15533
C_ C_ 0.663348 0.601015 0.0706455 0.02923
C_ C_ 0.646351 0.594018 0.0186762 -0.15533
C_ C_ 0.674665 0.612592 0.981273 0.02923
C_ C_ 0.646388 0.610195 0.420723 0.69207
C_ C_ 0.647922 0.600855 0.16502 0.69661
C_ C_ 0.872133 0.887351 0.381727 -0.30787
C_ C_ 0.624705 0.607322 0.109176 -0.30787
N_ N_ 0.641225 0.556566 0.311101 -0.32189
N_ N_ 0.548875 0.644945 0.314587 -0.32189
N_ N_ 0.607288 0.81654 0.0589191 -0.32189
N_ N_ 0.699838 0.817015 0.139365 -0.32189
N_ N_ 0.850379 0.947325 0.182596 -0.32189
N_ N_ 0.930883 0.850549 0.179763 -0.32189
N_ N_ 0.893287 0.695995 0.447839 -0.32189
N_ N_ 0.804643 0.68941 0.356432 -0.32189
O_ O_ 0.0117924 0.595099 0.399528 -0.63271
O_ O_ 0.544551 0.538662 0.337221 -0.57982
O_ O_ 0.893118 0.597586 0.345983 -0.63271
O_ O_ 0.875622 0.595688 0.426811 -0.57982
O_ O_ 0.744037 0.898213 0.0789435 -0.63271
O_ O_ 0.709101 0.835879 0.0338787 -0.57982
O_ O_ 0.856449 0.836887 0.0869727 -0.63271
O_ O_ 0.876595 0.916677 0.0843744 -0.57982
O_ O_ 0.493388 0.909048 0.103871 -0.63271
O_ O_ 0.943387 0.962078 0.150163 -0.57982
O_ O_ 0.594397 0.904945 0.153938 -0.63271
O_ O_ 0.637724 0.91361 0.0878469 -0.57982
O_ O_ 0.759024 0.60249 0.403001 -0.63271
O_ O_ 0.795719 0.654768 0.462313 -0.57982
O_ O_ 0.647353 0.648205 0.392394 -0.63271
O_ O_ 0.614239 0.575164 0.4043 -0.57982
F_ F_ 0.927021 0.818237 0.421583 -0.20885
F_ F_ 0.921336 0.815992 0.338286 -0.20885
F_ F_ 0.855978 0.798866 0.380043 -0.20885
F_ F_ 0.80909 0.934395 0.326698 -0.20885
F_ F_ 0.817094 0.854464 0.306014 -0.20885
F_ F_ 0.881811 0.900173 0.29671 -0.20885
F_ F_ 0.575114 0.668587 0.0583493 -0.20885
F_ F_ 0.573454 0.678761 0.141626 -0.20885
F_ F_ 0.639536 0.70013 0.105519 -0.20885
F_ F_ 0.675283 0.556155 0.172861 -0.20885
F_ F_ 0.678026 0.637598 0.186207 -0.20885
F_ F_ 0.611492 0.607913 0.198425 -0.20885
Zn Zn 0.586091 0.592925 0.851307 0.83971
Zn Zn 0.658982 0.847121 0.579567 0.83971
Zn Zn 0.911711 0.911475 0.655306 0.83971
Zn Zn 0.841147 0.648085 0.909802 0.83971
H_ H_ 0.658654 0.641519 0.797892 0.10394
H_ H_ 0.740667 0.597998 0.756866 0.10394
H_ H_ 0.687922 0.94555 0.74814 0.10394
H_ H_ 0.651207 0.497806 0.85326 0.10394
H_ H_ 0.0311091 0.595412 0.748441 0.10394
H_ H_ 1.00471465 0.674166 0.698367 0.10394
H_ H_ 0.533545 0.780694 0.823094 0.10394
H_ H_ 0.571169 0.708288 0.876441 0.10394
H_ H_ 0.543248 0.952101 0.88619 0.10394
H_ H_ 0.97977 0.867935 0.861376 0.10394
H_ H_ 0.856942 0.977367 0.88849 0.10394
H_ H_ 0.575002 0.817574 0.622709 0.10394
H_ H_ 0.0148953 0.754687 0.59931 0.10394
H_ H_ 0.533161 0.800415 0.945873 0.10394
H_ H_ 0.608493 0.836036 0.476507 0.10394
H_ H_ 0.718057 0.74221 0.59363 0.10394
H_ H_ 0.753968 0.694391 0.671405 0.10394
H_ H_ 0.711635 0.831278 0.763773 0.10394
H_ H_ 0.678644 0.87721 0.684248 0.10394
H_ H_ 0.72395 0.849405 0.94323 0.10394
H_ H_ 0.766401 0.869674 0.875127 0.10394
H_ H_ 0.900844 0.892556 0.975598 0.10394
H_ H_ 0.80959 0.889629 0.654271 0.10394
H_ H_ 0.734724 0.936526 0.683499 0.10394
H_ H_ 0.823331 0.559219 0.770352 0.10394
H_ H_ 0.903191 0.984844 0.744338 0.10394
H_ H_ 0.517663 0.87657 0.682978 0.10394
H_ H_ 0.55041 0.786207 0.694057 0.10394
H_ H_ 0.92362 0.740255 0.722873 0.10394
H_ H_ 0.880063 0.814189 0.678897 0.10394
H_ H_ 0.969388 0.559275 0.633674 0.10394
H_ H_ 0.509428 0.623368 0.602419 0.10394
H_ H_ 0.639233 0.516892 0.592661 0.10394
H_ H_ 0.943042 0.661058 0.880269 0.10394
H_ H_ 0.513465 0.713522 0.935976 0.10394
H_ H_ 0.919736 0.778323 0.547851 0.10394
H_ H_ 0.847725 0.724707 0.992595 0.10394
H_ H_ 0.741979 0.697607 0.88742 0.10394
H_ H_ 0.69495 0.732981 0.809134 0.10394
H_ H_ 0.838224 0.730135 0.744067 0.10394
H_ H_ 0.876037 0.684715 0.820163 0.10394
H_ H_ 0.7751 0.633679 0.552866 0.10394
H_ H_ 0.721009 0.612918 0.616008 0.10394
H_ H_ 0.59525 0.616628 0.498551 0.10394
C_ C_ 0.672356 0.599768 0.798517 0.18167
C_ C_ 0.717961 0.577786 0.777624 -0.15533
C_ C_ 0.728142 0.524099 0.773059 0.02923
C_ C_ 0.686966 0.985038 0.759788 -0.15533
C_ C_ 0.658617 0.519347 0.82381 0.18167
C_ C_ 0.53243 0.639478 0.768567 0.18167
C_ C_ 0.0177401 0.677 0.736354 -0.15533
C_ C_ 0.510894 0.729217 0.758429 0.02923
C_ C_ 0.534891 0.740239 0.808041 -0.15533
C_ C_ 0.552098 0.698676 0.839108 0.18167
C_ C_ 0.507934 0.551654 0.876236 0.69207
C_ C_ 0.976325 -0.003122999999999987 0.863025 0.02923
C_ C_ -0.005798999999999999 0.944964 0.858766 -0.15533
C_ C_ 0.964905 0.903515 0.867172 -0.15533
C_ C_ 0.913796 0.915426 0.880268 0.02923
C_ C_ 0.898049 0.967638 0.888286 -0.15533
C_ C_ 0.925076 0.00777507 0.876596 0.02923
C_ C_ 0.899067 0.564744 0.87752 0.69207
C_ C_ 0.901029 0.822147 0.878836 0.69661
C_ C_ 0.569481 0.803132 0.582906 0.18167
C_ C_ 0.519663 0.792331 0.565315 -0.15533
C_ C_ 0.510766 0.781369 0.514614 0.02923
C_ C_ 0.546593 0.799096 0.988403 -0.15533
C_ C_ 0.58675 0.817491 0.502306 0.18167
C_ C_ 0.716106 0.761931 0.630535 0.18167
C_ C_ 0.73881 0.73787 0.674727 -0.15533
C_ C_ 0.73905 0.764432 0.722103 0.02923
C_ C_ 0.711933 0.810987 0.725932 -0.15533
C_ C_ 0.69317 0.83688 0.682147 0.18167
C_ C_ 0.738239 0.866062 0.540945 0.69207
C_ C_ 0.782675 0.864039 1.00239538 0.02923
C_ C_ 0.762981 0.857189 0.95266 -0.15533
C_ C_ 0.787944 0.868494 0.912671 -0.15533
C_ C_ 0.838078 0.88472 0.919102 0.02923
C_ C_ 0.860695 0.887296 0.968775 -0.15533
C_ C_ 0.833216 0.878147 0.00994874 0.02923
C_ C_ 0.848557 0.880959 0.566683 0.69207
C_ C_ 0.846137 0.876197 0.820999 0.69661
C_ C_ 0.813414 0.924101 0.679626 0.18167
C_ C_ 0.770441 0.954599 0.692616 -0.15533
C_ C_ 0.774918 -0.00903200000000004 0.73275 0.02923
C_ C_ 0.820207 0.522051 0.752266 -0.15533
C_ C_ 0.864735 0.976633 0.731199 0.18167
C_ C_ 0.993307 0.860362 0.712438 0.18167
C_ C_ 0.513726 0.802729 0.705431 -0.15533
C_ C_ 0.995125 0.772396 0.737642 0.02923
C_ C_ 0.943564 0.772997 0.718667 -0.15533
C_ C_ 0.920416 0.81473 0.692325 0.18167
C_ C_ 0.988288 0.951569 0.630419 0.69207
C_ C_ 0.517248 0.492796 0.60844 0.02923
C_ C_ 0.497186 0.544016 0.611596 -0.15533
C_ C_ 0.526949 0.585018 0.603483 -0.15533
C_ C_ 0.579342 0.574435 0.596628 0.02923
C_ C_ 0.597881 0.523729 0.592739 -0.15533
C_ C_ 0.569767 0.482477 0.603208 0.02923
C_ C_ 0.603884 0.928308 0.609431 0.69207
C_ C_ 0.589231 0.673357 0.605794 0.69661
C_ C_ 0.939592 0.680448 0.920258 0.18167
C_ C_ 0.980109 0.70673 0.944306 -0.15533
C_ C_ 0.97555 0.73672 0.990455 0.02923
C_ C_ 0.924188 0.754663 0.513593 -0.15533
C_ C_ 0.885934 0.718702 0.980467 0.18167
C_ C_ 0.759368 0.704088 0.854955 0.18167
C_ C_ 0.735318 0.729068 0.809601 -0.15533
C_ C_ 0.76337 0.738644 0.769461 0.02923
C_ C_ 0.81367 0.719393 0.771104 -0.15533
C_ C_ 0.835225 0.693361 0.813926 0.18167
C_ C_ 0.761772 0.62202 0.953505 0.69207
C_ C_ 0.721855 0.619117 0.488296 0.02923
C_ C_ 0.736349 0.620376 0.540893 -0.15533
C_ C_ 0.705835 0.613603 0.577583 -0.15533
C_ C_ 0.654019 0.610279 0.564626 0.02923
C_ C_ 0.636358 0.617715 0.512584 -0.15533
C_ C_ 0.670038 0.615044 0.474803 0.02923
C_ C_ 0.652082 0.614553 0.928048 0.69207
C_ C_ 0.640746 0.610495 0.664291 0.69661
C_ C_ 0.8732 0.876351 0.876681 -0.30787
C_ C_ 0.616027 0.617255 0.60709 -0.30787
N_ N_ 0.641841 0.568257 0.818634 -0.32189
N_ N_ 0.555153 0.649801 0.817591 -0.32189
N_ N_ 0.602251 0.815931 0.551826 -0.32189
N_ N_ 0.696926 0.812465 0.634362 -0.32189
N_ N_ 0.857761 0.940845 0.692713 -0.32189
N_ N_ 0.944192 0.858057 0.691185 -0.32189
N_ N_ 0.895243 0.683323 0.941522 -0.32189
N_ N_ 0.80736 0.682727 0.852594 -0.32189
O_ O_ 1.0110533 0.581047 0.902611 -0.63271
O_ O_ 0.544438 0.541865 0.846315 -0.57982
O_ O_ 0.904176 0.592993 0.838168 -0.63271
O_ O_ 0.869832 0.585041 0.911194 -0.57982
O_ O_ 0.740449 0.895403 0.583917 -0.63271
O_ O_ 0.701349 0.837679 0.529473 -0.57982
O_ O_ 0.846527 0.83692 0.588239 -0.63271
O_ O_ 0.882246 0.911798 0.587202 -0.57982
O_ O_ 0.492726 0.912959 0.592598 -0.63271
O_ O_ 0.952107 0.96129 0.659839 -0.57982
O_ O_ 0.596099 0.900548 0.646825 -0.63271
O_ O_ 0.63571 0.90989 0.576343 -0.57982
O_ O_ 0.754079 0.598401 0.907723 -0.63271
O_ O_ 0.797978 0.653108 0.961328 -0.57982
O_ O_ 0.651996 0.656151 0.903961 -0.63271
O_ O_ 0.61924 0.583348 0.912182 -0.57982
F_ F_ 0.936017 0.819596 0.919955 -0.20885
F_ F_ 0.927378 0.799781 0.837053 -0.20885
F_ F_ 0.862255 0.789908 0.882297 -0.20885
F_ F_ 0.808899 0.917547 0.816748 -0.20885
F_ F_ 0.815865 0.836951 0.805431 -0.20885
F_ F_ 0.877425 0.881555 0.783991 -0.20885
F_ F_ 0.555378 0.678567 0.562383 -0.20885
F_ F_ 0.563536 0.693028 0.645317 -0.20885
F_ F_ 0.622837 0.708795 0.599531 -0.20885
F_ F_ 0.671615 0.564472 0.669741 -0.20885
F_ F_ 0.667311 0.651924 0.681649 -0.20885
F_ F_ 0.606675 0.613712 0.700832 -0.20885
_cell_length_a 26.508
_cell_length_b 26.37200000322088
_cell_length_c 26.311999743092066
_cell_angle_alpha 93.74100058972084
_cell_angle_beta 96.04100104955006
_cell_angle_gamma 83.6869992558723
_symmetry_space_group_name_H-M         'P 1'
_symmetry_Int_Tables_number            1
loop_
_symmetry_equiv_pos_as_xyz
   'x, y, z'
                         
loop_
_atom_site_label
_atom_site_type_symbol
_atom_site_fract_x 
_atom_site_fract_y
_atom_site_fract_z
_atom_site_charge
Zn Zn 0.0946683 0.0845298 0.360167 0.83971
Zn Zn 0.15671 0.340587 0.0757189 0.83971
Zn Zn 0.407383 0.413691 0.148748 0.83971
Zn Zn 0.336932 0.161627 0.421658 0.83971
H_ H_ 0.16869 0.136109 0.31361 0.10394
H_ H_ 0.241775 0.106578 0.259397 0.10394
H_ H_ 0.203034 0.440968 0.273994 0.10394
H_ H_ 0.14621 0.988869 0.341468 0.10394
H_ H_ 0.52847 0.0939935 0.260068 0.10394
H_ H_ 0.497294 0.168462 0.203847 0.10394
H_ H_ 0.0245326 0.273223 0.334591 0.10394
H_ H_ 0.0713917 0.204325 0.386255 0.10394
H_ H_ 0.0429108 0.459302 0.419434 0.10394
H_ H_ 0.469416 0.380204 0.36589 0.10394
H_ H_ 0.349543 0.49101 0.399109 0.10394
H_ H_ 0.0735474 0.302223 0.130492 0.10394
H_ H_ 0.488289 0.281628 0.0955219 0.10394
H_ H_ 0.0466367 0.275509 0.449089 0.10394
H_ H_ 0.110012 0.311796 0.977953 0.10394
H_ H_ 0.215345 0.23562 0.0903598 0.10394
H_ H_ 0.248606 0.192234 0.16817 0.10394
H_ H_ 0.201418 0.324062 0.25881 0.10394
H_ H_ 0.180291 0.370348 0.180803 0.10394
H_ H_ 0.208021 0.409949 0.453979 0.10394
H_ H_ 0.260893 0.416808 0.383451 0.10394
H_ H_ 0.395337 0.392798 0.48845 0.10394
H_ H_ 0.302922 0.389987 0.153556 0.10394
H_ H_ 0.226837 0.443969 0.186203 0.10394
H_ H_ 0.33101 0.0504123 0.280149 0.10394
H_ H_ 0.401097 0.499435 0.220219 0.10394
H_ H_ 0.0201762 0.374794 0.190006 0.10394
H_ H_ 0.0558669 0.311611 0.246517 0.10394
H_ H_ 0.415689 0.239388 0.218704 0.10394
H_ H_ 0.374773 0.315521 0.17262 0.10394
H_ H_ 0.46538 0.0562631 0.129191 0.10394
H_ H_ 0.0227393 0.117524 0.132729 0.10394
H_ H_ 0.13638 0.0012099999999999334 0.0751423 0.10394
H_ H_ 0.442856 0.160833 0.413462 0.10394
H_ H_ 0.0237768 0.184024 0.449473 0.10394
H_ H_ 0.411245 0.307957 -0.000387134 0.10394
H_ H_ 0.338654 0.24286 0.511619 0.10394
H_ H_ 0.235107 0.205888 0.388858 0.10394
H_ H_ 0.192279 0.244967 0.310527 0.10394
H_ H_ 0.336448 0.229016 0.246382 0.10394
H_ H_ 0.370728 0.191981 0.32442 0.10394
H_ H_ 0.287367 0.0953588 0.048232 0.10394
H_ H_ 0.236642 0.0855399 0.114688 0.10394
H_ H_ 0.107909 0.104462 0.0032871 0.10394
C_ C_ 0.178151 0.0974958 0.304193 0.18167
C_ C_ 0.221577 0.0801608 0.277708 -0.15533
C_ C_ 0.234351 0.026963 0.271589 0.02923
C_ C_ 0.192742 0.484561 0.275253 -0.15533
C_ C_ 0.163757 0.0125219 0.318445 0.18167
C_ C_ 0.0385241 0.134955 0.280331 0.18167
C_ C_ 0.512083 0.17527 0.244161 -0.15533
C_ C_ 0.00790863 0.223734 0.269432 0.02923
C_ C_ 0.0280457 0.233171 0.318551 -0.15533
C_ C_ 0.0508494 0.191745 0.349707 0.18167
C_ C_ 0.00950672 0.0439437 0.372095 0.69207
C_ C_ 0.471794 0.507909 0.370645 0.02923
C_ C_ 0.487039 0.454562 0.360757 -0.15533
C_ C_ 0.453966 0.418235 0.363419 -0.15533
C_ C_ 0.406397 0.430043 0.383649 0.02923
C_ C_ 0.389994 0.481415 0.391879 -0.15533
C_ C_ 0.422257 0.520332 0.385556 0.02923
C_ C_ 0.390753 0.0765161 0.380782 0.69207
C_ C_ 0.395794 0.333347 0.386233 0.69661
C_ C_ 0.0649158 0.293537 0.0895875 0.18167
C_ C_ 0.0244876 0.26618 0.0721322 -0.15533
C_ C_ 0.0103266 0.260884 0.0192194 0.02923
C_ C_ 0.0558248 0.282799 0.489502 -0.15533
C_ C_ 0.0799646 0.30721 0.00449975 0.18167
C_ C_ 0.220144 0.258803 0.128542 0.18167
C_ C_ 0.239735 0.232143 0.172787 -0.15533
C_ C_ 0.235751 0.256469 0.221295 0.02923
C_ C_ 0.210021 0.305855 0.222996 -0.15533
C_ C_ 0.197027 0.331356 0.17829 0.18167
C_ C_ 0.242263 0.356745 0.0429736 0.69207
C_ C_ 0.271905 0.380116 0.505057 0.02923
C_ C_ 0.248866 0.39645 0.457319 -0.15533
C_ C_ 0.278974 0.400458 0.417361 -0.15533
C_ C_ 0.332123 0.398936 0.424765 0.02923
C_ C_ 0.35478 0.393635 0.476314 -0.15533
C_ C_ 0.325339 0.384711 0.516123 0.02923
C_ C_ 0.348391 0.388132 0.067283 0.69207
C_ C_ 0.342611 0.38848 0.326475 0.69661
C_ C_ 0.307427 0.427935 0.172958 0.18167
C_ C_ 0.266858 0.453574 0.197191 -0.15533
C_ C_ 0.273931 0.492859 0.233186 0.02923
C_ C_ 0.324058 0.0220367 0.248144 -0.15533
C_ C_ 0.36312 0.484043 0.215055 0.18167
C_ C_ 0.492327 0.350842 0.198134 0.18167
C_ C_ 0.0148253 0.31016 0.232603 -0.15533
C_ C_ 0.487023 0.270865 0.235839 0.02923
C_ C_ 0.43872 0.270077 0.212386 -0.15533
C_ C_ 0.414399 0.314557 0.18841 0.18167
C_ C_ 0.48763 0.452365 0.118121 0.69207
C_ C_ 0.0185252 0.989476 0.11429 0.02923
C_ C_ 0.00342822 0.0415598 0.120948 -0.15533
C_ C_ 0.0372243 0.0789402 0.119246 -0.15533
C_ C_ 0.0831577 0.0653624 0.09745 0.02923
C_ C_ 0.0989378 0.0136021 0.0861999 -0.15533
C_ C_ 0.068625 0.975209 0.0991494 0.02923
C_ C_ 0.0984684 0.422924 0.102514 0.69207
C_ C_ 0.105081 0.157366 0.103154 0.69661
C_ C_ 0.43342 0.187287 0.444598 0.18167
C_ C_ 0.472041 0.213318 0.4666 -0.15533
C_ C_ 0.465101 0.251773 0.505391 0.02923
C_ C_ 0.416958 0.270408 -0.011009999999999964 -0.15533
C_ C_ 0.376547 0.234115 0.49894 0.18167
C_ C_ 0.254781 0.203817 0.354374 0.18167
C_ C_ 0.23173 0.2293 0.310939 -0.15533
C_ C_ 0.25911 0.233076 0.269813 0.02923
C_ C_ 0.311622 0.222549 0.277171 -0.15533
C_ C_ 0.333019 0.203939 0.323387 0.18167
C_ C_ 0.268751 0.127342 0.467146 0.69207
C_ C_ 0.229363 0.108041 0.988702 0.02923
C_ C_ 0.248279 0.0976581 0.0393089 -0.15533
C_ C_ 0.218197 0.0910927 0.0778747 -0.15533
C_ C_ 0.165374 0.093813 0.0659607 0.02923
C_ C_ 0.146365 0.101747 0.0146009 -0.15533
C_ C_ 0.177023 0.111409 0.97626 0.02923
C_ C_ 0.15765 0.106462 0.438872 0.69207
C_ C_ 0.154356 0.0973893 0.162337 0.69661
C_ C_ 0.369962 0.390035 0.381346 -0.30787
C_ C_ 0.127982 0.101331 0.106474 -0.30787
N_ N_ 0.148584 0.06244 0.320623 -0.32189
N_ N_ 0.0569021 0.144198 0.328232 -0.32189
N_ N_ 0.0944448 0.307984 0.0564403 -0.32189
N_ N_ 0.195998 0.30619 0.132824 -0.32189
N_ N_ 0.35328 0.445732 0.180126 -0.32189
N_ N_ 0.441445 0.3531 0.178963 -0.32189
N_ N_ 0.385888 0.201562 0.457324 -0.32189
N_ N_ 0.304266 0.18849 0.357611 -0.32189
O_ O_ 0.495572 0.0913869 0.395641 -0.63271
O_ O_ 0.0523492 0.0337137 0.352129 -0.57982
O_ O_ 0.389161 0.101662 0.33762 -0.63271
O_ O_ 0.369727 0.0999474 0.420896 -0.57982
O_ O_ 0.237752 0.389637 0.0818494 -0.63271
O_ O_ 0.206917 0.328393 0.0301627 -0.57982
O_ O_ 0.351451 0.344747 0.0888273 -0.63271
O_ O_ 0.378348 0.422865 0.0871108 -0.57982
O_ O_ 0.992065 0.402103 0.091216 -0.63271
O_ O_ 0.459954 0.452261 0.156864 -0.57982
O_ O_ 0.0969693 0.392142 0.139516 -0.63271
O_ O_ 0.127827 0.406021 0.0664737 -0.57982
O_ O_ 0.268234 0.102792 0.422944 -0.63271
O_ O_ 0.297829 0.16448 0.475617 -0.57982
O_ O_ 0.164825 0.140423 0.407429 -0.63271
O_ O_ 0.119471 0.0812875 0.426212 -0.57982
F_ F_ 0.433603 0.332554 0.427002 -0.20885
F_ F_ 0.420189 0.314977 0.346005 -0.20885
F_ F_ 0.3619 0.297145 0.393393 -0.20885
F_ F_ 0.31495 0.434128 0.320742 -0.20885
F_ F_ 0.308582 0.35284 0.313647 -0.20885
F_ F_ 0.373034 0.386326 0.286356 -0.20885
F_ F_ 0.0710755 0.164995 0.0627279 -0.20885
F_ F_ 0.0865112 0.175225 0.149268 -0.20885
F_ F_ 0.139203 0.191427 0.0958818 -0.20885
F_ F_ 0.183501 0.0528153 0.167791 -0.20885
F_ F_ 0.184441 0.137338 0.17651 -0.20885
F_ F_ 0.11981 0.0992764 0.199569 -0.20885
Zn Zn 0.0943431 0.0789534 0.842474 0.83971
Zn Zn 0.159271 0.351947 0.590599 0.83971
Zn Zn 0.404283 0.415068 0.650423 0.83971
Zn Zn 0.337914 0.154352 0.915521 0.83971
H_ H_ 0.168133 0.128895 0.800111 0.10394
H_ H_ 0.251396 0.0941498 0.766373 0.10394
H_ H_ 0.225862 0.449387 0.801452 0.10394
H_ H_ 0.138815 0.985513 0.832159 0.10394
H_ H_ 0.531348 0.104671 0.743864 0.10394
H_ H_ 0.494373 0.18273 0.702319 0.10394
H_ H_ 0.0407056 0.262818 0.829953 0.10394
H_ H_ 0.0716144 0.184972 0.875748 0.10394
H_ H_ 0.0301527 0.436171 0.852214 0.10394
H_ H_ 0.484118 0.383694 0.886005 0.10394
H_ H_ 0.356842 0.490957 0.913629 0.10394
H_ H_ 0.0767447 0.307334 0.635292 0.10394
H_ H_ 0.496697 0.279349 0.605397 0.10394
H_ H_ 0.027498 0.280467 0.944856 0.10394
H_ H_ 0.117306 0.324706 0.485775 0.10394
H_ H_ 0.220712 0.265479 0.60638 0.10394
H_ H_ 0.252307 0.213094 0.678906 0.10394
H_ H_ 0.211517 0.345865 0.778295 0.10394
H_ H_ 0.186611 0.393082 0.702371 0.10394
H_ H_ 0.221073 0.348129 0.935759 0.10394
H_ H_ 0.277178 0.358301 0.872869 0.10394
H_ H_ 0.384641 0.417672 0.98866 0.10394
H_ H_ 0.3041 0.400422 0.664046 0.10394
H_ H_ 0.234927 0.453227 0.694232 0.10394
H_ H_ 0.347251 0.0388425 0.797194 0.10394
H_ H_ 0.406078 0.510974 0.7277 0.10394
H_ H_ 0.0185383 0.37928 0.697048 0.10394
H_ H_ 0.0648501 0.305102 0.736806 0.10394
H_ H_ 0.411269 0.250869 0.72766 0.10394
H_ H_ 0.36467 0.333017 0.695933 0.10394
H_ H_ 0.46355 0.0606165 0.597912 0.10394
H_ H_ 0.0258056 0.115439 0.640148 0.10394
H_ H_ 0.144915 0.00381136 0.595996 0.10394
H_ H_ 0.437822 0.128009 0.958767 0.10394
H_ H_ 0.0208469 0.185828 0.949944 0.10394
H_ H_ 0.411044 0.287287 0.554048 0.10394
H_ H_ 0.342546 0.269514 -0.049026000000000014 0.10394
H_ H_ 0.236678 0.199307 0.890682 0.10394
H_ H_ 0.188787 0.235441 0.814084 0.10394
H_ H_ 0.331856 0.243998 0.751859 0.10394
H_ H_ 0.37723 0.209858 0.834286 0.10394
H_ H_ 0.294382 0.116378 0.569335 0.10394
H_ H_ 0.240514 0.0917907 0.628393 0.10394
H_ H_ 0.113221 0.0852434 0.515966 0.10394
C_ C_ 0.179809 0.0892329 0.797724 0.18167
C_ C_ 0.226367 0.0705831 0.780262 -0.15533
C_ C_ 0.243768 0.0177257 0.78579 0.02923
C_ C_ 0.211712 0.487474 0.795351 -0.15533
C_ C_ 0.165192 0.00669442 0.816223 0.18167
C_ C_ 0.0284048 0.128799 0.765912 0.18167
C_ C_ 0.507499 0.184459 0.740023 -0.15533
C_ C_ 0.0144654 0.222048 0.758849 0.02923
C_ C_ 0.0383669 0.227376 0.810427 -0.15533
C_ C_ 0.0569854 0.181788 0.834227 0.18167
C_ C_ 0.0121292 0.0393517 0.86283 0.69207
C_ C_ 0.476754 0.511016 0.889394 0.02923
C_ C_ 0.499589 0.460059 0.893045 -0.15533
C_ C_ 0.467324 0.422381 0.891605 -0.15533
C_ C_ 0.414043 0.434101 0.899639 0.02923
C_ C_ 0.396626 0.483159 0.914062 -0.15533
C_ C_ 0.425177 0.523581 0.900492 0.02923
C_ C_ 0.398699 0.0714254 0.881648 0.69207
C_ C_ 0.400435 0.33964 0.870423 0.69661
C_ C_ 0.0709763 0.301483 0.593913 0.18167
C_ C_ 0.0292075 0.275722 0.57359 -0.15533
C_ C_ 0.0189253 0.271702 0.52005 0.02923
C_ C_ 0.0384089 0.282707 0.984221 -0.15533
C_ C_ 0.0926325 0.31215 0.510442 0.18167
C_ C_ 0.217545 0.281905 0.642942 0.18167
C_ C_ 0.232975 0.251711 0.684722 -0.15533
C_ C_ 0.228934 0.273152 0.733575 0.02923
C_ C_ 0.209337 0.32351 0.740757 -0.15533
C_ C_ 0.193876 0.350938 0.69804 0.18167
C_ C_ 0.23633 0.374331 0.546445 0.69207
C_ C_ 0.27558 0.3707 0.00104961 0.02923
C_ C_ 0.258799 0.358195 0.947827 -0.15533
C_ C_ 0.291437 0.365113 0.910356 -0.15533
C_ C_ 0.338049 0.387799 0.924337 0.02923
C_ C_ 0.352742 0.400855 0.977099 -0.15533
C_ C_ 0.324082 0.391456 0.0142414 0.02923
C_ C_ 0.350022 0.386292 0.569947 0.69207
C_ C_ 0.341211 0.41352 0.833679 0.69661
C_ C_ 0.311208 0.435877 0.685046 0.18167
C_ C_ 0.273037 0.462301 0.708334 -0.15533
C_ C_ 0.28208 0.502531 0.745728 0.02923
C_ C_ 0.337295 0.00979017 0.766369 -0.15533
C_ C_ 0.370796 0.493189 0.72531 0.18167
C_ C_ 0.487366 0.357495 0.698574 0.18167
C_ C_ 0.0257265 0.304737 0.718944 -0.15533
C_ C_ 0.483746 0.276736 0.73451 0.02923
C_ C_ 0.431607 0.282064 0.72356 -0.15533
C_ C_ 0.407389 0.325138 0.699006 0.18167
C_ C_ 0.484111 0.452083 0.618559 0.69207
C_ C_ 0.0240826 0.988874 0.624055 0.02923
C_ C_ 0.00542675 0.041105 0.626706 -0.15533
C_ C_ 0.0387589 0.0791027 0.625799 -0.15533
C_ C_ 0.0888513 0.0666555 0.611888 0.02923
C_ C_ 0.10423 0.0151023 0.60172 -0.15533
C_ C_ 0.0752916 0.975067 0.607993 0.02923
C_ C_ 0.0992594 0.430436 0.610494 0.69207
C_ C_ 0.104879 0.163407 0.61262 0.69661
C_ C_ 0.433061 0.169233 0.958698 0.18167
C_ C_ 0.474801 0.193814 0.982916 -0.15533
C_ C_ 0.467848 0.244197 0.997639 0.02923
C_ C_ 0.417492 0.260793 0.525261 -0.15533
C_ C_ 0.377171 0.245586 0.965324 0.18167
C_ C_ 0.256923 0.204465 0.857572 0.18167
C_ C_ 0.229601 0.229864 0.816965 -0.15533
C_ C_ 0.25735 0.248374 0.779139 0.02923
C_ C_ 0.310422 0.234317 0.782273 -0.15533
C_ C_ 0.336575 0.207276 0.82401 0.18167
C_ C_ 0.266258 0.116789 0.951769 0.69207
C_ C_ 0.232227 0.116798 0.505038 0.02923
C_ C_ 0.253327 0.118037 0.557542 -0.15533
C_ C_ 0.22273 0.103535 0.593305 -0.15533
C_ C_ 0.168977 0.0974058 0.580485 0.02923
C_ C_ 0.151384 0.0936818 0.528198 -0.15533
C_ C_ 0.181559 0.106911 0.49175 0.02923
C_ C_ 0.153615 0.113336 0.924561 0.69207
C_ C_ 0.153933 0.105035 0.675242 0.69661
C_ C_ 0.373898 0.394842 0.883537 -0.30787
C_ C_ 0.130097 0.108083 0.620003 -0.30787
N_ N_ 0.149386 0.0550629 0.809115 -0.32189
N_ N_ 0.0536139 0.133897 0.811553 -0.32189
N_ N_ 0.104508 0.315517 0.561993 -0.32189
N_ N_ 0.19547 0.328062 0.650868 -0.32189
N_ N_ 0.359068 0.451268 0.692993 -0.32189
N_ N_ 0.436169 0.361097 0.686066 -0.32189
N_ N_ 0.385484 0.194642 0.95235 -0.32189
N_ N_ 0.309115 0.191269 0.859433 -0.32189
O_ O_ 0.515654 0.0898056 0.899773 -0.63271
O_ O_ 0.0530493 0.030108 0.838477 -0.57982
O_ O_ 0.411025 0.104764 0.850948 -0.63271
O_ O_ 0.3657 0.0895721 0.915028 -0.57982
O_ O_ 0.244784 0.398398 0.589518 -0.63271
O_ O_ 0.19768 0.3456 0.538295 -0.57982
O_ O_ 0.35116 0.348639 0.599404 -0.63271
O_ O_ 0.37093 0.427938 0.588623 -0.57982
O_ O_ 0.996134 0.40934 0.605552 -0.63271
O_ O_ 0.446276 0.463092 0.647262 -0.57982
O_ O_ 0.0993946 0.408352 0.652949 -0.63271
O_ O_ 0.133091 0.412771 0.578026 -0.57982
O_ O_ 0.262573 0.0981419 0.904062 -0.63271
O_ O_ 0.295615 0.1535 0.962989 -0.57982
O_ O_ 0.161677 0.150094 0.898348 -0.63271
O_ O_ 0.119834 0.0818439 0.907382 -0.57982
F_ F_ 0.431406 0.322982 0.911591 -0.20885
F_ F_ 0.43067 0.338683 0.830446 -0.20885
F_ F_ 0.36928 0.302193 0.857624 -0.20885
F_ F_ 0.306683 0.457391 0.839445 -0.20885
F_ F_ 0.315114 0.374981 0.806762 -0.20885
F_ F_ 0.371698 0.422272 0.797357 -0.20885
F_ F_ 0.0704756 0.160924 0.571279 -0.20885
F_ F_ 0.0799573 0.189187 0.65333 -0.20885
F_ F_ 0.137403 0.198398 0.605754 -0.20885
F_ F_ 0.178551 0.0562128 0.681341 -0.20885
F_ F_ 0.186519 0.143117 0.691964 -0.20885
F_ F_ 0.117815 0.108627 0.710073 -0.20885
Zn Zn 0.0909928 0.585095 0.349717 0.83971
Zn Zn 0.162052 0.841388 0.0812503 0.83971
Zn Zn 0.407895 0.922578 0.155991 0.83971
Zn Zn 0.340702 0.654401 0.417091 0.83971
H_ H_ 0.177014 0.629296 0.305876 0.10394
H_ H_ 0.24293 0.597147 0.256801 0.10394
H_ H_ 0.213829 0.950302 0.284661 0.10394
H_ H_ 0.129844 0.482497 0.319137 0.10394
H_ H_ 0.526252 0.596154 0.250662 0.10394
H_ H_ 0.487011 0.660941 0.198593 0.10394
H_ H_ 0.0267237 0.765107 0.335266 0.10394
H_ H_ 0.0742387 0.698232 0.376444 0.10394
H_ H_ 0.0346343 0.944551 0.375264 0.10394
H_ H_ 0.461678 0.882937 0.356642 0.10394
H_ H_ 0.343317 0.99468 0.403192 0.10394
H_ H_ 0.070713 0.801806 0.128398 0.10394
H_ H_ 0.51222 0.761927 0.100697 0.10394
H_ H_ 0.0332078 0.794729 0.446715 0.10394
H_ H_ 0.123582 0.812107 0.985858 0.10394
H_ H_ 0.2103 0.735923 0.0977345 0.10394
H_ H_ 0.255658 0.698892 0.172499 0.10394
H_ H_ 0.209259 0.826377 0.265153 0.10394
H_ H_ 0.169177 0.870742 0.18961 0.10394
H_ H_ 0.207199 0.876551 0.449448 0.10394
H_ H_ 0.256794 0.889865 0.38303 0.10394
H_ H_ 0.392375 0.894865 0.488459 0.10394
H_ H_ 0.305396 0.902323 0.162031 0.10394
H_ H_ 0.230133 0.958871 0.189221 0.10394
H_ H_ 0.332778 0.527655 0.280401 0.10394
H_ H_ 0.401387 0.011794 0.223826 0.10394
H_ H_ 0.0007099999999999884 0.880388 0.196796 0.10394
H_ H_ 0.0446575 0.815337 0.247665 0.10394
H_ H_ 0.398182 0.764143 0.235197 0.10394
H_ H_ 0.36698 0.836631 0.190083 0.10394
H_ H_ 0.466025 0.55518 0.130712 0.10394
H_ H_ 0.00569328 0.612047 0.10029 0.10394
H_ H_ 0.14473 0.509919 0.0917208 0.10394
H_ H_ 0.447998 0.66196 0.396157 0.10394
H_ H_ 0.0182166 0.705201 0.438623 0.10394
H_ H_ 0.415189 0.788204 0.0446502 0.10394
H_ H_ 0.340171 0.747371 0.488614 0.10394
H_ H_ 0.23729 0.697802 0.38824 0.10394
H_ H_ 0.187675 0.741412 0.31193 0.10394
H_ H_ 0.332009 0.721673 0.242935 0.10394
H_ H_ 0.376058 0.685646 0.324469 0.10394
H_ H_ 0.27795 0.637102 0.0634533 0.10394
H_ H_ 0.225729 0.612404 0.124835 0.10394
H_ H_ 0.106379 0.580019 0.00307213 0.10394
C_ C_ 0.180082 0.588761 0.296589 0.18167
C_ C_ 0.221477 0.569859 0.271763 -0.15533
C_ C_ 0.231625 0.51503 0.26406 0.02923
C_ C_ 0.20307 0.992522 0.288353 -0.15533
C_ C_ 0.155046 0.50697 0.305065 0.18167
C_ C_ 0.0246531 0.633359 0.273613 0.18167
C_ C_ 0.494814 0.672268 0.238961 -0.15533
C_ C_ 0.00573934 0.724735 0.266084 0.02923
C_ C_ 0.0329051 0.729851 0.313126 -0.15533
C_ C_ 0.0561118 0.687936 0.340165 0.18167
C_ C_ 0.0144636 0.548488 0.381234 0.69207
C_ C_ 0.466265 0.00672762 0.373286 0.02923
C_ C_ 0.481411 0.95623 0.362723 -0.15533
C_ C_ 0.44662 0.919836 0.363595 -0.15533
C_ C_ 0.399756 0.930302 0.385594 0.02923
C_ C_ 0.383235 0.984071 0.395612 -0.15533
C_ C_ 0.413471 0.0227886 0.384123 0.02923
C_ C_ 0.397909 0.573853 0.387485 0.69207
C_ C_ 0.387208 0.835701 0.380471 0.69661
C_ C_ 0.067117 0.798194 0.0889629 0.18167
C_ C_ 0.0228279 0.77823 0.0663809 -0.15533
C_ C_ 0.0168009 0.767314 0.0129146 0.02923
C_ C_ 0.0497992 0.788819 0.485752 -0.15533
C_ C_ 0.0923102 0.809249 0.00678878 0.18167
C_ C_ 0.212137 0.758069 0.133249 0.18167
C_ C_ 0.237134 0.735607 0.175507 -0.15533
C_ C_ 0.230756 0.757386 0.223553 0.02923
C_ C_ 0.213494 0.808473 0.229489 -0.15533
C_ C_ 0.19187 0.833766 0.184872 0.18167
C_ C_ 0.24555 0.855961 0.0448383 0.69207
C_ C_ 0.269517 0.877095 0.508623 0.02923
C_ C_ 0.248702 0.876376 0.457922 -0.15533
C_ C_ 0.276232 0.884847 0.419434 -0.15533
C_ C_ 0.32749 0.892661 0.428252 0.02923
C_ C_ 0.350107 0.892344 0.479403 -0.15533
C_ C_ 0.319466 0.889513 0.520302 0.02923
C_ C_ 0.352878 0.886894 0.070145 0.69207
C_ C_ 0.332465 0.894921 0.32758 0.69661
C_ C_ 0.30976 0.938289 0.182626 0.18167
C_ C_ 0.26769 0.967228 0.200821 -0.15533
C_ C_ 0.274759 1.00504251 0.239066 0.02923
C_ C_ 0.323498 0.506954 0.244732 -0.15533
C_ C_ 0.364545 0.998941 0.219555 0.18167
C_ C_ 0.488239 0.847381 0.187713 0.18167
C_ C_ 0.00648584 0.8109 0.228643 -0.15533
C_ C_ 0.477924 0.768835 0.226107 0.02923
C_ C_ 0.425648 0.784635 0.220362 -0.15533
C_ C_ 0.406542 0.830605 0.200922 0.18167
C_ C_ 0.48621 0.957192 0.121072 0.69207
C_ C_ 0.0236152 0.485557 0.114853 0.02923
C_ C_ -0.000773514 0.535127 0.110053 -0.15533
C_ C_ 0.0272738 0.575428 0.103541 -0.15533
C_ C_ 0.0800886 0.567647 0.0992216 0.02923
C_ C_ 0.102408 0.517234 0.0959202 -0.15533
C_ C_ 0.0751247 0.476534 0.105674 0.02923
C_ C_ 0.0958265 0.922703 0.107355 0.69207
C_ C_ 0.0865385 0.664923 0.0934009 0.69661
C_ C_ 0.440386 0.680933 0.43345 0.18167
C_ C_ 0.479674 0.707233 0.457835 -0.15533
C_ C_ 0.470237 0.74942 0.492609 0.02923
C_ C_ 0.426046 0.754398 0.0182296 -0.15533
C_ C_ 0.380664 0.731657 0.483592 0.18167
C_ C_ 0.254033 0.699705 0.353232 0.18167
C_ C_ 0.227999 0.725114 0.310612 -0.15533
C_ C_ 0.256882 0.72973 0.2696 0.02923
C_ C_ 0.310963 0.714557 0.273677 -0.15533
C_ C_ 0.335806 0.698867 0.320249 0.18167
C_ C_ 0.265155 0.626186 0.458423 0.69207
C_ C_ 0.224963 0.621042 0.998168 0.02923
C_ C_ 0.239072 0.625237 0.049843 -0.15533
C_ C_ 0.20775 0.613341 0.0846915 -0.15533
C_ C_ 0.157109 0.601678 0.0700892 0.02923
C_ C_ 0.14251 0.592937 0.0168689 -0.15533
C_ C_ 0.175953 0.605231 0.982027 0.02923
C_ C_ 0.150873 0.613549 0.4293 0.69207
C_ C_ 0.135352 0.612656 0.164483 0.69661
C_ C_ 0.36008 0.890642 0.382334 -0.30787
C_ C_ 0.115225 0.610909 0.105984 -0.30787
N_ N_ 0.147104 0.557637 0.312448 -0.32189
N_ N_ 0.0508048 0.641687 0.320886 -0.32189
N_ N_ 0.10103 0.812662 0.0586234 -0.32189
N_ N_ 0.186276 0.805877 0.139708 -0.32189
N_ N_ 0.356788 0.955117 0.192905 -0.32189
N_ N_ 0.438729 0.859801 0.181347 -0.32189
N_ N_ 0.391279 0.692232 0.446429 -0.32189
N_ N_ 0.306947 0.687942 0.357276 -0.32189
O_ O_ 0.506116 0.583431 0.401228 -0.63271
O_ O_ 0.0463954 0.536603 0.346151 -0.57982
O_ O_ 0.395297 0.600285 0.346106 -0.63271
O_ O_ 0.369142 0.588803 0.422821 -0.57982
O_ O_ 0.250552 0.877776 0.0897729 -0.63271
O_ O_ 0.204186 0.83278 0.0297098 -0.57982
O_ O_ 0.357849 0.844479 0.0948608 -0.63271
O_ O_ 0.375669 0.927094 0.0911824 -0.57982
O_ O_ 0.985825 0.907283 0.094601 -0.63271
O_ O_ 0.453006 0.967659 0.154258 -0.57982
O_ O_ 0.0833061 0.891887 0.140252 -0.63271
O_ O_ 0.137365 0.907742 0.0854432 -0.57982
O_ O_ 0.256158 0.610001 0.409947 -0.63271
O_ O_ 0.298901 0.6597 0.467568 -0.57982
O_ O_ 0.154657 0.650445 0.400365 -0.63271
O_ O_ 0.115055 0.582105 0.416024 -0.57982
F_ F_ 0.429222 0.830134 0.415069 -0.20885
F_ F_ 0.402993 0.813778 0.333238 -0.20885
F_ F_ 0.355604 0.796076 0.392549 -0.20885
F_ F_ 0.300945 0.940058 0.322705 -0.20885
F_ F_ 0.301671 0.857393 0.311176 -0.20885
F_ F_ 0.367502 0.896088 0.291264 -0.20885
F_ F_ 0.0528131 0.667248 0.049313 -0.20885
F_ F_ 0.0549577 0.679224 0.13252 -0.20885
F_ F_ 0.122459 0.701732 0.0968413 -0.20885
F_ F_ 0.169201 0.570289 0.174956 -0.20885
F_ F_ 0.158588 0.653632 0.180317 -0.20885
F_ F_ 0.0992397 0.61427 0.19602 -0.20885
Zn Zn 0.0888289 0.578585 0.847515 0.83971
Zn Zn 0.162539 0.844563 0.589968 0.83971
Zn Zn 0.410838 0.920056 0.655483 0.83971
Zn Zn 0.338448 0.655649 0.924607 0.83971
H_ H_ 0.167084 0.630992 0.804498 0.10394
H_ H_ 0.246019 0.596967 0.762231 0.10394
H_ H_ 0.225868 0.945429 0.809191 0.10394
H_ H_ 0.135556 0.479907 0.821904 0.10394
H_ H_ 0.533288 0.600861 0.753694 0.10394
H_ H_ 0.492215 0.672638 0.699175 0.10394
H_ H_ 0.0476525 0.764224 0.835968 0.10394
H_ H_ 0.0728046 0.69047 0.877689 0.10394
H_ H_ 0.0272403 0.938617 0.842314 0.10394
H_ H_ 0.493405 0.883236 0.89335 0.10394
H_ H_ 0.360226 0.988515 0.906737 0.10394
H_ H_ 0.085367 0.797882 0.631381 0.10394
H_ H_ 0.490333 0.788387 0.59115 0.10394
H_ H_ 0.0492321 0.779079 0.942227 0.10394
H_ H_ 0.122001 0.817621 0.485329 0.10394
H_ H_ 0.220088 0.745195 0.60432 0.10394
H_ H_ 0.258874 0.701242 0.678503 0.10394
H_ H_ 0.225222 0.841069 0.770917 0.10394
H_ H_ 0.185385 0.88054 0.693612 0.10394
H_ H_ 0.233176 0.840373 0.944192 0.10394
H_ H_ 0.287009 0.851926 0.879306 0.10394
H_ H_ 0.395512 0.910853 0.991484 0.10394
H_ H_ 0.309768 0.905187 0.66428 0.10394
H_ H_ 0.237471 0.959693 0.693884 0.10394
H_ H_ 0.336988 0.550318 0.779853 0.10394
H_ H_ 0.410677 0.0061249 0.738277 0.10394
H_ H_ 0.0140118 0.891473 0.703338 0.10394
H_ H_ 0.0575886 0.818414 0.756707 0.10394
H_ H_ 0.411119 0.762951 0.750029 0.10394
H_ H_ 0.369252 0.842247 0.7108 0.10394
H_ H_ 0.456905 0.552765 0.623 0.10394
H_ H_ 0.021701 0.624535 0.626006 0.10394
H_ H_ 0.148533 0.506642 0.596225 0.10394
H_ H_ 0.438142 0.671758 0.893832 0.10394
H_ H_ 0.0145257 0.704282 0.926953 0.10394
H_ H_ 0.41291 0.79465 0.530792 0.10394
H_ H_ 0.353056 0.721804 0.0150342 0.10394
H_ H_ 0.224232 0.682984 0.880655 0.10394
H_ H_ 0.188666 0.736897 0.808978 0.10394
H_ H_ 0.336104 0.747534 0.766439 0.10394
H_ H_ 0.371357 0.697227 0.840275 0.10394
H_ H_ 0.282218 0.638707 0.563262 0.10394
H_ H_ 0.23371 0.601577 0.623284 0.10394
H_ H_ 0.102142 0.609063 0.508126 0.10394
C_ C_ 0.179907 0.591196 0.800445 0.18167
C_ C_ 0.224756 0.572269 0.777448 -0.15533
C_ C_ 0.241825 0.521143 0.776931 0.02923
C_ C_ 0.212428 0.986022 0.804967 -0.15533
C_ C_ 0.162493 0.506779 0.810243 0.18167
C_ C_ 0.0369154 0.63377 0.765732 0.18167
C_ C_ 0.513029 0.679338 0.736161 -0.15533
C_ C_ 0.021342 0.725585 0.760521 0.02923
C_ C_ 0.0425374 0.730452 0.81284 -0.15533
C_ C_ 0.0572068 0.684757 0.83911 0.18167
C_ C_ 0.0123056 0.539352 0.870763 0.69207
C_ C_ 0.478975 0.0105518 0.883231 0.02923
C_ C_ 0.504348 0.96188 0.892027 -0.15533
C_ C_ 0.475883 0.921113 0.897868 -0.15533
C_ C_ 0.422281 0.929456 0.898104 0.02923
C_ C_ 0.400023 0.980106 0.897026 -0.15533
C_ C_ 0.428091 0.0207468 0.888155 0.02923
C_ C_ 0.400214 0.576515 0.896258 0.69207
C_ C_ 0.416158 0.834088 0.90018 0.69661
C_ C_ 0.0744852 0.799871 0.591737 0.18167
C_ C_ 0.0304698 0.777622 0.573803 -0.15533
C_ C_ 0.017257 0.773541 0.518885 0.02923
C_ C_ 0.0513668 0.785225 0.982707 -0.15533
C_ C_ 0.096152 0.804827 0.507773 0.18167
C_ C_ 0.222323 0.765962 0.638855 0.18167
C_ C_ 0.244534 0.740909 0.68386 -0.15533
C_ C_ 0.24062 0.764883 0.73266 0.02923
C_ C_ 0.224348 0.818863 0.735341 -0.15533
C_ C_ 0.198622 0.84072 0.691077 0.18167
C_ C_ 0.239752 0.866012 0.549698 0.69207
C_ C_ 0.279607 0.869823 0.00554832 0.02923
C_ C_ 0.262625 0.865184 0.952464 -0.15533
C_ C_ 0.296523 0.869353 0.91471 -0.15533
C_ C_ 0.344643 0.889056 0.929199 0.02923
C_ C_ 0.356979 0.901726 0.980586 -0.15533
C_ C_ 0.325827 0.892127 0.0185115 0.02923
C_ C_ 0.348533 0.887979 0.571194 0.69207
C_ C_ 0.366495 0.885082 0.833874 0.69661
C_ C_ 0.315296 0.941314 0.684489 0.18167
C_ C_ 0.274385 0.964724 0.709765 -0.15533
C_ C_ 0.286139 0.997103 0.754116 0.02923
C_ C_ 0.330889 0.519213 0.752493 -0.15533
C_ C_ 0.375957 0.987585 0.737633 0.18167
C_ C_ 0.492794 0.849813 0.690144 0.18167
C_ C_ 0.0201333 0.817772 0.736392 -0.15533
C_ C_ 0.486619 0.773418 0.733384 0.02923
C_ C_ 0.433572 0.788066 0.731759 -0.15533
C_ C_ 0.411282 0.832788 0.708625 0.18167
C_ C_ 0.490822 0.957097 0.620218 0.69207
C_ C_ 0.0248382 0.495942 0.619784 0.02923
C_ C_ 1.00751976 0.547182 0.629686 -0.15533
C_ C_ 0.0394782 0.584923 0.622157 -0.15533
C_ C_ 0.0918425 0.572554 0.609129 0.02923
C_ C_ 0.107684 0.519878 0.600672 -0.15533
C_ C_ 0.0749828 0.482681 0.605285 0.02923
C_ C_ 0.0999642 0.922034 0.607725 0.69207
C_ C_ 0.110313 0.670308 0.606464 0.69661
C_ C_ 0.438807 0.689448 0.93225 0.18167
C_ C_ 0.480636 0.711958 0.957553 -0.15533
C_ C_ 0.473028 0.747004 -0.0015979999999999883 0.02923
C_ C_ 0.420783 0.760622 0.506681 -0.15533
C_ C_ 0.388732 0.723018 0.997205 0.18167
C_ C_ 0.249603 0.696929 0.854853 0.18167
C_ C_ 0.227896 0.728505 0.813873 -0.15533
C_ C_ 0.25955 0.740933 0.779251 0.02923
C_ C_ 0.311197 0.728597 0.788382 -0.15533
C_ C_ 0.33131 0.699622 0.82941 0.18167
C_ C_ 0.264268 0.623784 0.963297 0.69207
C_ C_ 0.228702 0.618591 0.497297 0.02923
C_ C_ 0.247289 0.619748 0.548982 -0.15533
C_ C_ 0.217744 0.605144 0.585449 -0.15533
C_ C_ 0.166232 0.600759 0.571977 0.02923
C_ C_ 0.145784 0.605399 0.520443 -0.15533
C_ C_ 0.175939 0.614367 0.482417 0.02923
C_ C_ 0.155608 0.602679 0.928288 0.69207
C_ C_ 0.154491 0.61206 0.671036 0.69661
C_ C_ 0.38623 0.886262 0.892556 -0.30787
C_ C_ 0.130433 0.61208 0.614611 -0.30787
N_ N_ 0.147136 0.557567 0.813493 -0.32189
N_ N_ 0.0572904 0.637702 0.816262 -0.32189
N_ N_ 0.108588 0.808643 0.558762 -0.32189
N_ N_ 0.197427 0.815014 0.644993 -0.32189
N_ N_ 0.362854 0.954159 0.699022 -0.32189
N_ N_ 0.442244 0.863839 0.690799 -0.32189
N_ N_ 0.394432 0.696809 0.952758 -0.32189
N_ N_ 0.301369 0.680421 0.859825 -0.32189
O_ O_ 0.504716 0.597826 0.899404 -0.63271
O_ O_ 0.0439799 0.534677 0.835411 -0.57982
O_ O_ 0.396722 0.600831 0.85325 -0.63271
O_ O_ 0.374768 0.596037 0.934589 -0.57982
O_ O_ 0.24226 0.892409 0.595237 -0.63271
O_ O_ 0.203307 0.836311 0.539121 -0.57982
O_ O_ 0.355209 0.845403 0.594132 -0.63271
O_ O_ 0.371326 0.928467 0.592728 -0.57982
O_ O_ 0.992939 0.907227 0.605187 -0.63271
O_ O_ 0.456602 0.968715 0.65216 -0.57982
O_ O_ 0.102545 0.895197 0.650358 -0.63271
O_ O_ 0.131301 0.906298 0.574356 -0.57982
O_ O_ 0.262306 0.597832 0.919187 -0.63271
O_ O_ 0.292744 0.660735 0.970856 -0.57982
O_ O_ 0.153974 0.644925 0.902664 -0.63271
O_ O_ 0.123198 0.570474 0.912845 -0.57982
F_ F_ 0.442637 0.835711 0.944871 -0.20885
F_ F_ 0.449441 0.819358 0.863173 -0.20885
F_ F_ 0.384897 0.796593 0.894476 -0.20885
F_ F_ 0.325724 0.922059 0.828105 -0.20885
F_ F_ 0.348473 0.83978 0.813256 -0.20885
F_ F_ 0.4029 0.892798 0.802905 -0.20885
F_ F_ 0.0677217 0.670543 0.5737 -0.20885
F_ F_ 0.0920065 0.698555 0.649674 -0.20885
F_ F_ 0.139726 0.701015 0.585057 -0.20885
F_ F_ 0.18085 0.565695 0.679397 -0.20885
F_ F_ 0.188716 0.64768 0.683682 -0.20885
F_ F_ 0.119897 0.616856 0.707004 -0.20885
Zn Zn 0.589626 0.0832835 0.35328 0.83971
Zn Zn 0.656224 0.343573 0.088309 0.83971
Zn Zn 0.907999 0.408352 0.155194 0.83971
Zn Zn 0.845184 0.155015 0.419485 0.83971
H_ H_ 0.669386 0.126872 0.307403 0.10394
H_ H_ 0.752818 0.0887019 0.278751 0.10394
H_ H_ 0.706795 0.441026 0.282364 0.10394
H_ H_ 0.625212 0.982267 0.329219 0.10394
H_ H_ 0.0404041 0.0986427 0.265835 0.10394
H_ H_ 0.992964 0.166327 0.210639 0.10394
H_ H_ 0.518822 0.26961 0.338496 0.10394
H_ H_ 0.567484 0.200676 0.38391 0.10394
H_ H_ 0.526548 0.440018 0.34931 0.10394
H_ H_ 0.99174 0.387026 0.420516 0.10394
H_ H_ 0.85876 0.490615 0.410589 0.10394
H_ H_ 0.571976 0.312107 0.135609 0.10394
H_ H_ 1.00197683 0.248022 0.0965855 0.10394
H_ H_ 0.52897 0.294768 0.450733 0.10394
H_ H_ 0.625532 0.306382 0.990433 0.10394
H_ H_ 0.718235 0.249292 0.109574 0.10394
H_ H_ 0.750187 0.206005 0.185733 0.10394
H_ H_ 0.728637 0.346 0.274621 0.10394
H_ H_ 0.67933 0.385256 0.196192 0.10394
H_ H_ 0.730783 0.347381 0.448181 0.10394
H_ H_ 0.788809 0.352064 0.384613 0.10394
H_ H_ 0.904729 0.39808 0.499337 0.10394
H_ H_ 0.804505 0.389921 0.165933 0.10394
H_ H_ 0.733194 0.444261 0.194656 0.10394
H_ H_ 0.832262 0.0251567 0.287171 0.10394
H_ H_ 0.902858 0.495594 0.229367 0.10394
H_ H_ 0.511802 0.384835 0.197582 0.10394
H_ H_ 0.552979 0.315307 0.24549 0.10394
H_ H_ 0.91126 0.240161 0.225035 0.10394
H_ H_ 0.873022 0.322607 0.190019 0.10394
H_ H_ 0.9634 0.0547155 0.128136 0.10394
H_ H_ 0.513941 0.120479 0.0977875 0.10394
H_ H_ 0.641107 0.00636361 0.087311 0.10394
H_ H_ 0.945256 0.165288 0.39353 0.10394
H_ H_ 0.508723 0.203963 0.453564 0.10394
H_ H_ 0.909243 0.273703 0.0402283 0.10394
H_ H_ 0.85599 0.216802 0.511476 0.10394
H_ H_ 0.747099 0.199586 0.397028 0.10394
H_ H_ 0.698574 0.247812 0.326758 0.10394
H_ H_ 0.836908 0.229941 0.251374 0.10394
H_ H_ 0.883487 0.18924 0.324923 0.10394
H_ H_ 0.782473 0.117115 0.0502535 0.10394
H_ H_ 0.725013 0.119088 0.119289 0.10394
H_ H_ 0.599253 0.100595 0.00618325 0.10394
C_ C_ 0.677963 0.0861015 0.302697 0.18167
C_ C_ 0.721809 0.0657213 0.281911 -0.15533
C_ C_ 0.726881 0.0117565 0.269983 0.02923
C_ C_ 0.699485 0.483765 0.288413 -0.15533
C_ C_ 0.649995 0.00478238 0.310476 0.18167
C_ C_ 0.535224 0.1326 0.273132 0.18167
C_ C_ 0.0105442 0.173365 0.250159 -0.15533
C_ C_ 0.506283 0.226174 0.266121 0.02923
C_ C_ 0.527987 0.233714 0.317182 -0.15533
C_ C_ 0.54872 0.192547 0.345382 0.18167
C_ C_ 0.503304 0.0463651 0.37376 0.69207
C_ C_ 0.979262 0.512172 0.396284 0.02923
C_ C_ 1.00192716 0.463641 0.40811 -0.15533
C_ C_ 0.972142 0.422289 0.407389 -0.15533
C_ C_ 0.917886 0.430301 0.400977 0.02923
C_ C_ 0.897831 0.482331 0.404999 -0.15533
C_ C_ 0.926027 0.522547 0.393883 0.02923
C_ C_ 0.898631 0.0712424 0.38446 0.69207
C_ C_ 0.91429 0.330462 0.389949 0.69661
C_ C_ 0.564429 0.303527 0.095761 0.18167
C_ C_ 0.519716 0.282656 0.0733394 -0.15533
C_ C_ 0.513452 0.27099 0.0202466 0.02923
C_ C_ 0.54123 0.29677 0.491228 -0.15533
C_ C_ 0.595779 0.299407 0.0139174 0.18167
C_ C_ 0.709772 0.267193 0.14598 0.18167
C_ C_ 0.731302 0.243198 0.18886 -0.15533
C_ C_ 0.737016 0.270846 0.237711 0.02923
C_ C_ 0.719941 0.323283 0.238357 -0.15533
C_ C_ 0.695001 0.346372 0.192656 0.18167
C_ C_ 0.741517 0.365859 0.0479732 0.69207
C_ C_ 0.783357 0.366766 0.511262 0.02923
C_ C_ 0.766374 0.36446 0.458998 -0.15533
C_ C_ 0.799931 0.367153 0.42253 -0.15533
C_ C_ 0.848305 0.383703 0.434834 0.02923
C_ C_ 0.866523 0.386224 0.487442 -0.15533
C_ C_ 0.835824 0.372506 0.52448 0.02923
C_ C_ 0.852283 0.38056 0.0706288 0.69207
C_ C_ 0.85981 0.390586 0.337642 0.69661
C_ C_ 0.808286 0.426492 0.184394 0.18167
C_ C_ 0.770551 0.45093 0.210862 -0.15533
C_ C_ 0.777162 0.49301 0.244784 0.02923
C_ C_ 0.820677 0.00342164 0.251339 -0.15533
C_ C_ 0.865081 0.484002 0.226189 0.18167
C_ C_ 0.993837 0.347798 0.201172 0.18167
C_ C_ 0.514856 0.31063 0.228125 -0.15533
C_ C_ 0.987211 0.269065 0.239271 0.02923
C_ C_ 0.935496 0.272262 0.221937 -0.15533
C_ C_ 0.912631 0.317445 0.202402 0.18167
C_ C_ 0.991923 0.443338 0.1222 0.69207
C_ C_ 0.522612 0.994669 0.118412 0.02923
C_ C_ 0.502007 0.0442335 0.118197 -0.15533
C_ C_ 0.532759 0.0826363 0.107778 -0.15533
C_ C_ 0.583399 0.0704927 0.0971752 0.02923
C_ C_ 0.602138 0.0179925 0.0943443 -0.15533
C_ C_ 0.574696 0.981518 0.108425 0.02923
C_ C_ 0.592447 0.422375 0.113589 0.69207
C_ C_ 0.601466 0.166987 0.10772 0.69661
C_ C_ 0.941701 0.18142 0.431588 0.18167
C_ C_ 0.985068 0.200522 0.456959 -0.15533
C_ C_ 0.976615 0.239585 0.495228 0.02923
C_ C_ 0.919336 0.245818 0.00550743 -0.15533
C_ C_ 0.890249 0.21711 0.493434 0.18167
C_ C_ 0.765868 0.208348 0.364274 0.18167
C_ C_ 0.739864 0.236382 0.32456 -0.15533
C_ C_ 0.767358 0.248151 0.282043 0.02923
C_ C_ 0.817262 0.224892 0.28094 -0.15533
C_ C_ 0.84377 0.206038 0.324816 0.18167
C_ C_ 0.769005 0.11916 0.457332 0.69207
C_ C_ 0.723353 0.113323 0.988474 0.02923
C_ C_ 0.741975 0.115428 0.0394311 -0.15533
C_ C_ 0.711049 0.111853 0.078103 -0.15533
C_ C_ 0.658552 0.106638 0.0675059 0.02923
C_ C_ 0.641164 0.100178 0.0154797 -0.15533
C_ C_ 0.670834 0.109391 0.975106 0.02923
C_ C_ 0.652384 0.107469 0.427872 0.69207
C_ C_ 0.644613 0.104 0.166194 0.69661
C_ C_ 0.885695 0.383896 0.39261 -0.30787
C_ C_ 0.622314 0.110157 0.110147 -0.30787
N_ N_ 0.64366 0.05527 0.314105 -0.32189
N_ N_ 0.555192 0.143704 0.322338 -0.32189
N_ N_ 0.602908 0.307626 0.0667647 -0.32189
N_ N_ 0.689569 0.317458 0.149001 -0.32189
N_ N_ 0.856395 0.441778 0.194393 -0.32189
N_ N_ 0.943541 0.34798 0.182563 -0.32189
N_ N_ 0.895408 0.190121 0.449736 -0.32189
N_ N_ 0.815215 0.190063 0.362144 -0.32189
O_ O_ -0.001346999999999987 0.0909404 0.39013 -0.63271
O_ O_ 0.542476 0.0377996 0.347782 -0.57982
O_ O_ 0.890011 0.0959583 0.3408 -0.63271
O_ O_ 0.875137 0.0891452 0.425204 -0.57982
O_ O_ 0.74048 0.400489 0.086826 -0.63271
O_ O_ 0.703476 0.337334 0.0416357 -0.57982
O_ O_ 0.852178 0.34077 0.0987872 -0.63271
O_ O_ 0.882177 0.415253 0.0896331 -0.57982
O_ O_ 0.482905 0.419996 0.078231 -0.63271
O_ O_ 0.959461 0.45026 0.157454 -0.57982
O_ O_ 0.596951 0.40143 0.158338 -0.63271
O_ O_ 0.620827 0.40205 0.0773684 -0.57982
O_ O_ 0.759094 0.107888 0.408406 -0.63271
O_ O_ 0.807832 0.148247 0.470434 -0.57982
O_ O_ 0.647911 0.151275 0.403384 -0.63271
O_ O_ 0.621093 0.0739104 0.414371 -0.57982
F_ F_ 0.948978 0.323089 0.433558 -0.20885
F_ F_ 0.943478 0.323014 0.349821 -0.20885
F_ F_ 0.88776 0.286503 0.388391 -0.20885
F_ F_ 0.824432 0.433056 0.336019 -0.20885
F_ F_ 0.833152 0.350592 0.318282 -0.20885
F_ F_ 0.896864 0.396713 0.30431 -0.20885
F_ F_ 0.575007 0.177399 0.0617102 -0.20885
F_ F_ 0.570099 0.185561 0.145711 -0.20885
F_ F_ 0.644684 0.197241 0.116532 -0.20885
F_ F_ 0.670797 0.0545715 0.171463 -0.20885
F_ F_ 0.673752 0.141465 0.182856 -0.20885
F_ F_ 0.611647 0.109851 0.202337 -0.20885
Zn Zn 0.587729 0.086193 0.839703 0.83971
Zn Zn 0.658981 0.350289 0.58203 0.83971
Zn Zn 0.909935 0.418328 0.662971 0.83971
Zn Zn 0.843033 0.140069 0.907352 0.83971
H_ H_ 0.679714 0.125009 0.809443 0.10394
H_ H_ 0.754157 0.087572 0.776703 0.10394
H_ H_ 0.708091 0.453545 0.797554 0.10394
H_ H_ 0.617399 0.98558 0.801193 0.10394
H_ H_ 0.0325312 0.0920244 0.748844 0.10394
H_ H_ 0.997157 0.167848 0.696104 0.10394
H_ H_ 0.520645 0.275952 0.835089 0.10394
H_ H_ 0.551854 0.196023 0.882456 0.10394
H_ H_ 0.539024 0.453343 0.884854 0.10394
H_ H_ 0.978713 0.367406 0.868762 0.10394
H_ H_ 0.856206 0.486705 0.901403 0.10394
H_ H_ 0.583936 0.299977 0.634969 0.10394
H_ H_ 0.00562871 0.263042 0.599752 0.10394
H_ H_ 0.545865 0.276657 0.948817 0.10394
H_ H_ 0.603175 0.338601 0.485998 0.10394
H_ H_ 0.711794 0.254597 0.595706 0.10394
H_ H_ 0.752982 0.206068 0.674802 0.10394
H_ H_ 0.71106 0.332921 0.770723 0.10394
H_ H_ 0.668405 0.379376 0.698068 0.10394
H_ H_ 0.715881 0.369646 0.944795 0.10394
H_ H_ 0.76652 0.383028 0.876355 0.10394
H_ H_ 0.893676 0.407235 0.989524 0.10394
H_ H_ 0.809825 0.39587 0.669546 0.10394
H_ H_ 0.729096 0.446651 0.700265 0.10394
H_ H_ 0.828095 0.0290936 0.786394 0.10394
H_ H_ 0.891853 0.519502 0.719702 0.10394
H_ H_ 0.511247 0.386661 0.691137 0.10394
H_ H_ 0.552911 0.311668 0.73678 0.10394
H_ H_ 0.920404 0.240331 0.712375 0.10394
H_ H_ 0.876725 0.324126 0.693094 0.10394
H_ H_ 0.966227 0.0554077 0.6319 0.10394
H_ H_ 0.520668 0.126577 0.613262 0.10394
H_ H_ 0.646676 0.0129832 0.593881 0.10394
H_ H_ 0.949289 0.152068 0.898112 0.10394
H_ H_ 0.510755 0.171623 0.984924 0.10394
H_ H_ 0.925492 0.264372 0.555512 0.10394
H_ H_ 0.844162 0.226331 -0.007422999999999957 0.10394
H_ H_ 0.741754 0.194688 0.8815 0.10394
H_ H_ 0.699523 0.233499 0.806273 0.10394
H_ H_ 0.843429 0.211086 0.738645 0.10394
H_ H_ 0.881197 0.1792 0.814784 0.10394
H_ H_ 0.788638 0.115853 0.557628 0.10394
H_ H_ 0.733664 0.111056 0.621424 0.10394
H_ H_ 0.613764 0.0798072 0.509162 0.10394
C_ C_ 0.68077 0.0858249 0.79777 0.18167
C_ C_ 0.723027 0.0625486 0.776213 -0.15533
C_ C_ 0.728101 0.01327 0.75584 0.02923
C_ C_ 0.698367 0.494789 0.797759 -0.15533
C_ C_ 0.644766 0.00723845 0.786854 0.18167
C_ C_ 0.532015 0.141878 0.764919 0.18167
C_ C_ 0.00947133 0.172161 0.737592 -0.15533
C_ C_ 0.505077 0.232209 0.764687 0.02923
C_ C_ 0.52635 0.235805 0.815011 -0.15533
C_ C_ 0.545319 0.192947 0.841529 0.18167
C_ C_ 0.510025 0.0505424 0.869611 0.69207
C_ C_ 0.975946 0.500507 0.873364 0.02923
C_ C_ 0.993871 0.448792 0.865543 -0.15533
C_ C_ 0.964519 0.410224 0.8748 -0.15533
C_ C_ 0.913337 0.422936 0.891247 0.02923
C_ C_ 0.89488 0.474786 0.894165 -0.15533
C_ C_ 0.92554 0.512665 0.883044 0.02923
C_ C_ 0.89869 0.060062 0.874176 0.69207
C_ C_ 0.904153 0.325734 0.891764 0.69661
C_ C_ 0.571134 0.299604 0.594441 0.18167
C_ C_ 0.522704 0.286313 0.577402 -0.15533
C_ C_ 0.508104 0.28256 0.525454 0.02923
C_ C_ 0.551219 0.282263 0.989821 -0.15533
C_ C_ 0.581952 0.321745 0.511223 0.18167
C_ C_ 0.711552 0.271167 0.635373 0.18167
C_ C_ 0.740063 0.246895 0.67679 -0.15533
C_ C_ 0.7408 0.267044 0.725395 0.02923
C_ C_ 0.715338 0.316732 0.732362 -0.15533
C_ C_ 0.686336 0.342028 0.691344 0.18167
C_ C_ 0.74569 0.358776 0.549091 0.69207
C_ C_ 0.777684 0.370966 1.00622795 0.02923
C_ C_ 0.756462 0.375348 0.957487 -0.15533
C_ C_ 0.78721 0.379734 0.915865 -0.15533
C_ C_ 0.837315 0.390786 0.925359 0.02923
C_ C_ 0.856193 0.39831 0.977799 -0.15533
C_ C_ 0.829111 0.380397 0.0168419 0.02923
C_ C_ 0.85918 0.37457 0.577345 0.69207
C_ C_ 0.854181 0.37671 0.831222 0.69661
C_ C_ 0.811829 0.431103 0.691281 0.18167
C_ C_ 0.767275 0.458797 0.709731 -0.15533
C_ C_ 0.773152 0.498063 0.747727 0.02923
C_ C_ 0.822041 0.00035644 0.754448 -0.15533
C_ C_ 0.860841 0.498251 0.724192 0.18167
C_ C_ 0.997124 0.351638 0.703559 0.18167
C_ C_ 0.513271 0.31413 0.724546 -0.15533
C_ C_ 0.995377 0.265206 0.727706 0.02923
C_ C_ 0.942688 0.270244 0.71526 -0.15533
C_ C_ 0.918078 0.318005 0.700208 0.18167
C_ C_ 0.989008 0.456251 0.628598 0.69207
C_ C_ 0.52429 0.995274 0.608995 0.02923
C_ C_ 0.502898 0.0474256 0.605675 -0.15533
C_ C_ 0.53487 0.085927 0.606365 -0.15533
C_ C_ 0.586581 0.0738649 0.59822 0.02923
C_ C_ 0.606164 0.0220907 0.594229 -0.15533
C_ C_ 0.57736 0.98124 0.602354 0.02923
C_ C_ 0.597619 0.429748 0.607878 0.69207
C_ C_ 0.602851 0.169447 0.600681 0.69661
C_ C_ 0.942782 0.168922 0.934442 0.18167
C_ C_ 0.980114 0.194118 0.960663 -0.15533
C_ C_ 0.969045 0.232281 -0.001375000000000015 0.02923
C_ C_ 0.929175 0.244634 0.516413 -0.15533
C_ C_ 0.88137 0.216863 0.980227 0.18167
C_ C_ 0.762553 0.195678 0.849323 0.18167
C_ C_ 0.739344 0.224052 0.808678 -0.15533
C_ C_ 0.767521 0.237663 0.770884 0.02923
C_ C_ 0.821239 0.219371 0.7735 -0.15533
C_ C_ 0.842522 0.194712 0.817114 0.18167
C_ C_ 0.759621 0.118373 0.948901 0.69207
C_ C_ 0.729993 0.119124 0.494197 0.02923
C_ C_ 0.746856 0.119136 0.546265 -0.15533
C_ C_ 0.714909 0.113247 0.584964 -0.15533
C_ C_ 0.665922 0.101242 0.571599 0.02923
C_ C_ 0.648746 0.0977387 0.520216 -0.15533
C_ C_ 0.680176 0.103028 0.480675 0.02923
C_ C_ 0.647606 0.108461 0.92187 0.69207
C_ C_ 0.646383 0.108274 0.664655 0.69661
C_ C_ 0.875755 0.380482 0.885653 -0.30787
C_ C_ 0.624342 0.113484 0.608247 -0.30787
N_ N_ 0.64345 0.0576007 0.80448 -0.32189
N_ N_ 0.553948 0.147411 0.813436 -0.32189
N_ N_ 0.598546 0.320853 0.562673 -0.32189
N_ N_ 0.686442 0.318621 0.643 -0.32189
N_ N_ 0.856529 0.452256 0.698024 -0.32189
N_ N_ 0.945724 0.355389 0.68842 -0.32189
N_ N_ 0.892938 0.180209 0.944268 -0.32189
N_ N_ 0.81455 0.182371 0.853928 -0.32189
O_ O_ 0.00612695 0.0778868 0.897817 -0.63271
O_ O_ 0.539732 0.0415703 0.834062 -0.57982
O_ O_ 0.896887 0.0861912 0.833997 -0.63271
O_ O_ 0.875158 0.0805201 0.912638 -0.57982
O_ O_ 0.747921 0.383384 0.594747 -0.63271
O_ O_ 0.702827 0.338718 0.532881 -0.57982
O_ O_ 0.865213 0.335437 0.606762 -0.63271
O_ O_ 0.875495 0.41717 0.599672 -0.57982
O_ O_ 0.490754 0.406899 0.595843 -0.63271
O_ O_ 0.953203 0.465704 0.660921 -0.57982
O_ O_ 0.587209 0.401708 0.643835 -0.63271
O_ O_ 0.636627 0.415756 0.581924 -0.57982
O_ O_ 0.760784 0.0862361 0.909945 -0.63271
O_ O_ 0.79727 0.149267 0.95505 -0.57982
O_ O_ 0.6516 0.148015 0.894454 -0.63271
O_ O_ 0.613333 0.0779008 0.905294 -0.57982
F_ F_ 0.941243 0.323504 0.933693 -0.20885
F_ F_ 0.924573 0.298489 0.848637 -0.20885
F_ F_ 0.867273 0.292805 0.901442 -0.20885
F_ F_ 0.824566 0.420589 0.820293 -0.20885
F_ F_ 0.826241 0.335893 0.815885 -0.20885
F_ F_ 0.888971 0.373018 0.796496 -0.20885
F_ F_ 0.579281 0.177014 0.553638 -0.20885
F_ F_ 0.570822 0.190398 0.638167 -0.20885
F_ F_ 0.643293 0.199716 0.604586 -0.20885
F_ F_ 0.672605 0.062118 0.675207 -0.20885
F_ F_ 0.671348 0.149017 0.687034 -0.20885
F_ F_ 0.609688 0.109891 0.695562 -0.20885
Zn Zn 0.58651 0.586969 0.342097 0.83971
Zn Zn 0.666719 0.849321 0.0836909 0.83971
Zn Zn 0.901519 0.911688 0.148051 0.83971
Zn Zn 0.840339 0.655919 0.415766 0.83971
H_ H_ 0.667336 0.627605 0.297549 0.10394
H_ H_ 0.745724 0.59347 0.263062 0.10394
H_ H_ 0.698769 0.94027 0.27556 0.10394
H_ H_ 0.628268 0.481156 0.324483 0.10394
H_ H_ 0.0226392 0.59477 0.257696 0.10394
H_ H_ 0.974911 0.667581 0.213661 0.10394
H_ H_ 0.531666 0.773298 0.317946 0.10394
H_ H_ 0.56769 0.702632 0.371758 0.10394
H_ H_ 0.521222 0.944403 0.360669 0.10394
H_ H_ 0.982866 0.875731 0.38252 0.10394
H_ H_ 0.853538 0.989421 0.407492 0.10394
H_ H_ 0.58258 0.812516 0.135922 0.10394
H_ H_ 1.0012 0.763767 0.0912731 0.10394
H_ H_ 0.534441 0.796943 0.442275 0.10394
H_ H_ 0.619465 0.832731 0.983323 0.10394
H_ H_ 0.720492 0.744916 0.0989319 0.10394
H_ H_ 0.757852 0.704565 0.180872 0.10394
H_ H_ 0.711608 0.843503 0.265375 0.10394
H_ H_ 0.676545 0.881259 0.189458 0.10394
H_ H_ 0.709241 0.876823 0.439772 0.10394
H_ H_ 0.764622 0.87215 0.369755 0.10394
H_ H_ 0.890647 0.897741 0.482185 0.10394
H_ H_ 0.798247 0.89369 0.154737 0.10394
H_ H_ 0.724153 0.947228 0.181478 0.10394
H_ H_ 0.833525 0.53695 0.281796 0.10394
H_ H_ 0.894762 0.9957391 0.230909 0.10394
H_ H_ 0.513281 0.871029 0.174271 0.10394
H_ H_ 0.551719 0.792446 0.215036 0.10394
H_ H_ 0.906612 0.740674 0.226691 0.10394
H_ H_ 0.864852 0.811585 0.174824 0.10394
H_ H_ 0.957043 0.542731 0.10585 0.10394
H_ H_ 0.514682 0.61931 0.106578 0.10394
H_ H_ 0.64549 0.501687 0.0956467 0.10394
H_ H_ 0.942002 0.674628 0.390323 0.10394
H_ H_ 0.519669 0.696797 0.451966 0.10394
H_ H_ 0.92041 0.76574 0.0434624 0.10394
H_ H_ 0.845774 0.739391 0.499688 0.10394
H_ H_ 0.726183 0.685146 0.37354 0.10394
H_ H_ 0.689355 0.750768 0.312299 0.10394
H_ H_ 0.83393 0.760099 0.26673 0.10394
H_ H_ 0.874973 0.700339 0.330108 0.10394
H_ H_ 0.786576 0.61846 0.0565665 0.10394
H_ H_ 0.731394 0.611541 0.122686 0.10394
H_ H_ 0.607333 0.584532 0.00736863 0.10394
C_ C_ 0.677132 0.587352 0.29873 0.18167
C_ C_ 0.723628 0.567774 0.280248 -0.15533
C_ C_ 0.733504 0.515438 0.273054 0.02923
C_ C_ 0.691818 0.981784 0.2853 -0.15533
C_ C_ 0.655379 0.505613 0.311827 0.18167
C_ C_ 0.52392 0.634093 0.267344 0.18167
C_ C_ 0.00213194 0.674765 0.244283 -0.15533
C_ C_ 0.497084 0.724575 0.258868 0.02923
C_ C_ 0.524417 0.733338 0.307277 -0.15533
C_ C_ 0.546558 0.693033 0.334867 0.18167
C_ C_ 0.508157 0.545533 0.368922 0.69207
C_ C_ 0.97287 0.00568192 0.373036 0.02923
C_ C_ -0.006345999999999963 0.953355 0.374216 -0.15533
C_ C_ 0.963762 0.914289 0.380321 -0.15533
C_ C_ 0.912093 0.927333 0.391762 0.02923
C_ C_ 0.893653 0.979729 0.397506 -0.15533
C_ C_ 0.922163 0.0192812 0.384156 0.02923
C_ C_ 0.896739 0.573493 0.387234 0.69207
C_ C_ 0.894063 0.830051 0.38093 0.69661
C_ C_ 0.574103 0.808198 0.0929993 0.18167
C_ C_ 0.53303 0.779677 0.0747727 -0.15533
C_ C_ 0.516973 0.776473 0.0195362 0.02923
C_ C_ 0.541916 0.801198 0.482599 -0.15533
C_ C_ 0.5931 0.817453 0.00759959 0.18167
C_ C_ 0.723035 0.76825 0.133484 0.18167
C_ C_ 0.741492 0.74451 0.179955 -0.15533
C_ C_ 0.73566 0.770863 0.22833 0.02923
C_ C_ 0.710409 0.819395 0.228645 -0.15533
C_ C_ 0.69715 0.844333 0.185638 0.18167
C_ C_ 0.746589 0.862632 0.0423739 0.69207
C_ C_ 0.77098 0.878842 0.500836 0.02923
C_ C_ 0.749019 0.876714 0.448615 -0.15533
C_ C_ 0.78111 0.877067 0.409421 -0.15533
C_ C_ 0.833197 0.887885 0.421694 0.02923
C_ C_ 0.852087 0.889141 0.473307 -0.15533
C_ C_ 0.823934 0.884361 0.511941 0.02923
C_ C_ 0.86132 0.874832 0.0607747 0.69207
C_ C_ 0.845069 0.893011 0.328307 0.69661
C_ C_ 0.803906 0.929393 0.173512 0.18167
C_ C_ 0.761276 0.954586 0.198024 -0.15533
C_ C_ 0.770839 0.989622 0.240389 0.02923
C_ C_ 0.825288 0.508562 0.252614 -0.15533
C_ C_ 0.858901 0.981633 0.222596 0.18167
C_ C_ 0.978734 0.850122 0.201526 0.18167
C_ C_ 0.511153 0.799774 0.208034 -0.15533
C_ C_ 0.979961 0.770661 0.239772 0.02923
C_ C_ 0.926107 0.774088 0.22464 -0.15533
C_ C_ 0.904535 0.811238 0.186911 0.18167
C_ C_ 0.979258 0.953153 0.117851 0.69207
C_ C_ 0.521159 0.493494 0.11791 0.02923
C_ C_ 0.503632 0.544708 0.121659 -0.15533
C_ C_ 0.533812 0.580897 0.109106 -0.15533
C_ C_ 0.585421 0.56728 0.102114 0.02923
C_ C_ 0.603928 0.515263 0.100341 -0.15533
C_ C_ 0.571026 0.4769 0.108037 0.02923
C_ C_ 0.598409 0.929121 0.112965 0.69207
C_ C_ 0.604797 0.662885 0.102877 0.69661
C_ C_ 0.939778 0.69163 0.428601 0.18167
C_ C_ 0.98319 0.709006 0.457027 -0.15533
C_ C_ 0.97449 0.743184 0.498556 0.02923
C_ C_ 0.924302 0.746336 1.00630311 -0.15533
C_ C_ 0.883781 0.728276 0.489867 0.18167
C_ C_ 0.75186 0.704895 0.353189 0.18167
C_ C_ 0.729389 0.732637 0.311227 -0.15533
C_ C_ 0.75881 0.74889 0.276738 0.02923
C_ C_ 0.811761 0.737323 0.282835 -0.15533
C_ C_ 0.833219 0.707024 0.323216 0.18167
C_ C_ 0.762121 0.624519 0.450747 0.69207
C_ C_ 0.727519 0.618782 0.994102 0.02923
C_ C_ 0.747005 0.615396 0.0447689 -0.15533
C_ C_ 0.715205 0.607593 0.0830165 -0.15533
C_ C_ 0.663348 0.601015 0.0706455 0.02923
C_ C_ 0.646351 0.594018 0.0186762 -0.15533
C_ C_ 0.674665 0.612592 0.981273 0.02923
C_ C_ 0.646388 0.610195 0.420723 0.69207
C_ C_ 0.647922 0.600855 0.16502 0.69661
C_ C_ 0.872133 0.887351 0.381727 -0.30787
C_ C_ 0.624705 0.607322 0.109176 -0.30787
N_ N_ 0.641225 0.556566 0.311101 -0.32189
N_ N_ 0.548875 0.644945 0.314587 -0.32189
N_ N_ 0.607288 0.81654 0.0589191 -0.32189
N_ N_ 0.699838 0.817015 0.139365 -0.32189
N_ N_ 0.850379 0.947325 0.182596 -0.32189
N_ N_ 0.930883 0.850549 0.179763 -0.32189
N_ N_ 0.893287 0.695995 0.447839 -0.32189
N_ N_ 0.804643 0.68941 0.356432 -0.32189
O_ O_ 0.0117924 0.595099 0.399528 -0.63271
O_ O_ 0.544551 0.538662 0.337221 -0.57982
O_ O_ 0.893118 0.597586 0.345983 -0.63271
O_ O_ 0.875622 0.595688 0.426811 -0.57982
O_ O_ 0.744037 0.898213 0.0789435 -0.63271
O_ O_ 0.709101 0.835879 0.0338787 -0.57982
O_ O_ 0.856449 0.836887 0.0869727 -0.63271
O_ O_ 0.876595 0.916677 0.0843744 -0.57982
O_ O_ 0.493388 0.909048 0.103871 -0.63271
O_ O_ 0.943387 0.962078 0.150163 -0.57982
O_ O_ 0.594397 0.904945 0.153938 -0.63271
O_ O_ 0.637724 0.91361 0.0878469 -0.57982
O_ O_ 0.759024 0.60249 0.403001 -0.63271
O_ O_ 0.795719 0.654768 0.462313 -0.57982
O_ O_ 0.647353 0.648205 0.392394 -0.63271
O_ O_ 0.614239 0.575164 0.4043 -0.57982
F_ F_ 0.927021 0.818237 0.421583 -0.20885
F_ F_ 0.921336 0.815992 0.338286 -0.20885
F_ F_ 0.855978 0.798866 0.380043 -0.20885
F_ F_ 0.80909 0.934395 0.326698 -0.20885
F_ F_ 0.817094 0.854464 0.306014 -0.20885
F_ F_ 0.881811 0.900173 0.29671 -0.20885
F_ F_ 0.575114 0.668587 0.0583493 -0.20885
F_ F_ 0.573454 0.678761 0.141626 -0.20885
F_ F_ 0.639536 0.70013 0.105519 -0.20885
F_ F_ 0.675283 0.556155 0.172861 -0.20885
F_ F_ 0.678026 0.637598 0.186207 -0.20885
F_ F_ 0.611492 0.607913 0.198425 -0.20885
Zn Zn 0.586091 0.592925 0.851307 0.83971
Zn Zn 0.658982 0.847121 0.579567 0.83971
Zn Zn 0.911711 0.911475 0.655306 0.83971
Zn Zn 0.841147 0.648085 0.909802 0.83971
H_ H_ 0.658654 0.641519 0.797892 0.10394
H_ H_ 0.740667 0.597998 0.756866 0.10394
H_ H_ 0.687922 0.94555 0.74814 0.10394
H_ H_ 0.651207 0.497806 0.85326 0.10394
H_ H_ 0.0311091 0.595412 0.748441 0.10394
H_ H_ 1.00471465 0.674166 0.698367 0.10394
H_ H_ 0.533545 0.780694 0.823094 0.10394
H_ H_ 0.571169 0.708288 0.876441 0.10394
H_ H_ 0.543248 0.952101 0.88619 0.10394
H_ H_ 0.97977 0.867935 0.861376 0.10394
H_ H_ 0.856942 0.977367 0.88849 0.10394
H_ H_ 0.575002 0.817574 0.622709 0.10394
H_ H_ 0.0148953 0.754687 0.59931 0.10394
H_ H_ 0.533161 0.800415 0.945873 0.10394
H_ H_ 0.608493 0.836036 0.476507 0.10394
H_ H_ 0.718057 0.74221 0.59363 0.10394
H_ H_ 0.753968 0.694391 0.671405 0.10394
H_ H_ 0.711635 0.831278 0.763773 0.10394
H_ H_ 0.678644 0.87721 0.684248 0.10394
H_ H_ 0.72395 0.849405 0.94323 0.10394
H_ H_ 0.766401 0.869674 0.875127 0.10394
H_ H_ 0.900844 0.892556 0.975598 0.10394
H_ H_ 0.80959 0.889629 0.654271 0.10394
H_ H_ 0.734724 0.936526 0.683499 0.10394
H_ H_ 0.823331 0.559219 0.770352 0.10394
H_ H_ 0.903191 0.984844 0.744338 0.10394
H_ H_ 0.517663 0.87657 0.682978 0.10394
H_ H_ 0.55041 0.786207 0.694057 0.10394
H_ H_ 0.92362 0.740255 0.722873 0.10394
H_ H_ 0.880063 0.814189 0.678897 0.10394
H_ H_ 0.969388 0.559275 0.633674 0.10394
H_ H_ 0.509428 0.623368 0.602419 0.10394
H_ H_ 0.639233 0.516892 0.592661 0.10394
H_ H_ 0.943042 0.661058 0.880269 0.10394
H_ H_ 0.513465 0.713522 0.935976 0.10394
H_ H_ 0.919736 0.778323 0.547851 0.10394
H_ H_ 0.847725 0.724707 0.992595 0.10394
H_ H_ 0.741979 0.697607 0.88742 0.10394
H_ H_ 0.69495 0.732981 0.809134 0.10394
H_ H_ 0.838224 0.730135 0.744067 0.10394
H_ H_ 0.876037 0.684715 0.820163 0.10394
H_ H_ 0.7751 0.633679 0.552866 0.10394
H_ H_ 0.721009 0.612918 0.616008 0.10394
H_ H_ 0.59525 0.616628 0.498551 0.10394
C_ C_ 0.672356 0.599768 0.798517 0.18167
C_ C_ 0.717961 0.577786 0.777624 -0.15533
C_ C_ 0.728142 0.524099 0.773059 0.02923
C_ C_ 0.686966 0.985038 0.759788 -0.15533
C_ C_ 0.658617 0.519347 0.82381 0.18167
C_ C_ 0.53243 0.639478 0.768567 0.18167
C_ C_ 0.0177401 0.677 0.736354 -0.15533
C_ C_ 0.510894 0.729217 0.758429 0.02923
C_ C_ 0.534891 0.740239 0.808041 -0.15533
C_ C_ 0.552098 0.698676 0.839108 0.18167
C_ C_ 0.507934 0.551654 0.876236 0.69207
C_ C_ 0.976325 -0.003122999999999987 0.863025 0.02923
C_ C_ -0.005798999999999999 0.944964 0.858766 -0.15533
C_ C_ 0.964905 0.903515 0.867172 -0.15533
C_ C_ 0.913796 0.915426 0.880268 0.02923
C_ C_ 0.898049 0.967638 0.888286 -0.15533
C_ C_ 0.925076 0.00777507 0.876596 0.02923
C_ C_ 0.899067 0.564744 0.87752 0.69207
C_ C_ 0.901029 0.822147 0.878836 0.69661
C_ C_ 0.569481 0.803132 0.582906 0.18167
C_ C_ 0.519663 0.792331 0.565315 -0.15533
C_ C_ 0.510766 0.781369 0.514614 0.02923
C_ C_ 0.546593 0.799096 0.988403 -0.15533
C_ C_ 0.58675 0.817491 0.502306 0.18167
C_ C_ 0.716106 0.761931 0.630535 0.18167
C_ C_ 0.73881 0.73787 0.674727 -0.15533
C_ C_ 0.73905 0.764432 0.722103 0.02923
C_ C_ 0.711933 0.810987 0.725932 -0.15533
C_ C_ 0.69317 0.83688 0.682147 0.18167
C_ C_ 0.738239 0.866062 0.540945 0.69207
C_ C_ 0.782675 0.864039 1.00239538 0.02923
C_ C_ 0.762981 0.857189 0.95266 -0.15533
C_ C_ 0.787944 0.868494 0.912671 -0.15533
C_ C_ 0.838078 0.88472 0.919102 0.02923
C_ C_ 0.860695 0.887296 0.968775 -0.15533
C_ C_ 0.833216 0.878147 0.00994874 0.02923
C_ C_ 0.848557 0.880959 0.566683 0.69207
C_ C_ 0.846137 0.876197 0.820999 0.69661
C_ C_ 0.813414 0.924101 0.679626 0.18167
C_ C_ 0.770441 0.954599 0.692616 -0.15533
C_ C_ 0.774918 -0.00903200000000004 0.73275 0.02923
C_ C_ 0.820207 0.522051 0.752266 -0.15533
C_ C_ 0.864735 0.976633 0.731199 0.18167
C_ C_ 0.993307 0.860362 0.712438 0.18167
C_ C_ 0.513726 0.802729 0.705431 -0.15533
C_ C_ 0.995125 0.772396 0.737642 0.02923
C_ C_ 0.943564 0.772997 0.718667 -0.15533
C_ C_ 0.920416 0.81473 0.692325 0.18167
C_ C_ 0.988288 0.951569 0.630419 0.69207
C_ C_ 0.517248 0.492796 0.60844 0.02923
C_ C_ 0.497186 0.544016 0.611596 -0.15533
C_ C_ 0.526949 0.585018 0.603483 -0.15533
C_ C_ 0.579342 0.574435 0.596628 0.02923
C_ C_ 0.597881 0.523729 0.592739 -0.15533
C_ C_ 0.569767 0.482477 0.603208 0.02923
C_ C_ 0.603884 0.928308 0.609431 0.69207
C_ C_ 0.589231 0.673357 0.605794 0.69661
C_ C_ 0.939592 0.680448 0.920258 0.18167
C_ C_ 0.980109 0.70673 0.944306 -0.15533
C_ C_ 0.97555 0.73672 0.990455 0.02923
C_ C_ 0.924188 0.754663 0.513593 -0.15533
C_ C_ 0.885934 0.718702 0.980467 0.18167
C_ C_ 0.759368 0.704088 0.854955 0.18167
C_ C_ 0.735318 0.729068 0.809601 -0.15533
C_ C_ 0.76337 0.738644 0.769461 0.02923
C_ C_ 0.81367 0.719393 0.771104 -0.15533
C_ C_ 0.835225 0.693361 0.813926 0.18167
C_ C_ 0.761772 0.62202 0.953505 0.69207
C_ C_ 0.721855 0.619117 0.488296 0.02923
C_ C_ 0.736349 0.620376 0.540893 -0.15533
C_ C_ 0.705835 0.613603 0.577583 -0.15533
C_ C_ 0.654019 0.610279 0.564626 0.02923
C_ C_ 0.636358 0.617715 0.512584 -0.15533
C_ C_ 0.670038 0.615044 0.474803 0.02923
C_ C_ 0.652082 0.614553 0.928048 0.69207
C_ C_ 0.640746 0.610495 0.664291 0.69661
C_ C_ 0.8732 0.876351 0.876681 -0.30787
C_ C_ 0.616027 0.617255 0.60709 -0.30787
N_ N_ 0.641841 0.568257 0.818634 -0.32189
N_ N_ 0.555153 0.649801 0.817591 -0.32189
N_ N_ 0.602251 0.815931 0.551826 -0.32189
N_ N_ 0.696926 0.812465 0.634362 -0.32189
N_ N_ 0.857761 0.940845 0.692713 -0.32189
N_ N_ 0.944192 0.858057 0.691185 -0.32189
N_ N_ 0.895243 0.683323 0.941522 -0.32189
N_ N_ 0.80736 0.682727 0.852594 -0.32189
O_ O_ 1.0110533 0.581047 0.902611 -0.63271
O_ O_ 0.544438 0.541865 0.846315 -0.57982
O_ O_ 0.904176 0.592993 0.838168 -0.63271
O_ O_ 0.869832 0.585041 0.911194 -0.57982
O_ O_ 0.740449 0.895403 0.583917 -0.63271
O_ O_ 0.701349 0.837679 0.529473 -0.57982
O_ O_ 0.846527 0.83692 0.588239 -0.63271
O_ O_ 0.882246 0.911798 0.587202 -0.57982
O_ O_ 0.492726 0.912959 0.592598 -0.63271
O_ O_ 0.952107 0.96129 0.659839 -0.57982
O_ O_ 0.596099 0.900548 0.646825 -0.63271
O_ O_ 0.63571 0.90989 0.576343 -0.57982
O_ O_ 0.754079 0.598401 0.907723 -0.63271
O_ O_ 0.797978 0.653108 0.961328 -0.57982
O_ O_ 0.651996 0.656151 0.903961 -0.63271
O_ O_ 0.61924 0.583348 0.912182 -0.57982
F_ F_ 0.936017 0.819596 0.919955 -0.20885
F_ F_ 0.927378 0.799781 0.837053 -0.20885
F_ F_ 0.862255 0.789908 0.882297 -0.20885
F_ F_ 0.808899 0.917547 0.816748 -0.20885
F_ F_ 0.815865 0.836951 0.805431 -0.20885
F_ F_ 0.877425 0.881555 0.783991 -0.20885
F_ F_ 0.555378 0.678567 0.562383 -0.20885
F_ F_ 0.563536 0.693028 0.645317 -0.20885
F_ F_ 0.622837 0.708795 0.599531 -0.20885
F_ F_ 0.671615 0.564472 0.669741 -0.20885
F_ F_ 0.667311 0.651924 0.681649 -0.20885
F_ F_ 0.606675 0.613712 0.700832 -0.20885
