_cell_length_a 26.508
_cell_length_b 26.37200000322088
_cell_length_c 26.311999743092066
_cell_angle_alpha 93.74100058972084
_cell_angle_beta 96.04100104955006
_cell_angle_gamma 83.6869992558723
_symmetry_space_group_name_H-M         'P 1'
_symmetry_Int_Tables_number            1
loop_
_symmetry_equiv_pos_as_xyz
   'x, y, z'
                         
loop_
_atom_site_label
_atom_site_type_symbol
_atom_site_fract_x 
_atom_site_fract_y
_atom_site_fract_z
_atom_site_charge
Zn Zn 0.089604 0.0832538 0.338849 0.83971
Zn Zn 0.164182 0.349238 0.0815461 0.83971
Zn Zn 0.411457 0.4154 0.157197 0.83971
Zn Zn 0.337163 0.151893 0.415324 0.83971
H_ H_ 0.163425 0.12868 0.298512 0.10394
H_ H_ 0.250638 0.10161 0.278685 0.10394
H_ H_ 0.193292 0.450057 0.264152 0.10394
H_ H_ 0.131818 0.980552 0.3079 0.10394
H_ H_ 0.527217 0.0959114 0.255306 0.10394
H_ H_ 0.487575 0.168382 0.205663 0.10394
H_ H_ 0.0312967 0.271739 0.344696 0.10394
H_ H_ 0.0723909 0.19323 0.381768 0.10394
H_ H_ 0.0354247 0.443698 0.397561 0.10394
H_ H_ 0.479169 0.371298 0.383834 0.10394
H_ H_ 0.349346 0.479209 0.397289 0.10394
H_ H_ 0.0758761 0.320668 0.133353 0.10394
H_ H_ 0.507448 0.25978 0.100663 0.10394
H_ H_ 0.0273907 0.284894 0.446826 0.10394
H_ H_ 0.12179 0.320274 0.984328 0.10394
H_ H_ 0.225309 0.252184 0.0987077 0.10394
H_ H_ 0.261836 0.209906 0.176264 0.10394
H_ H_ 0.225024 0.34651 0.270539 0.10394
H_ H_ 0.186855 0.386701 0.187753 0.10394
H_ H_ 0.214475 0.357358 0.436397 0.10394
H_ H_ 0.26709 0.379102 0.370521 0.10394
H_ H_ 0.391131 0.397563 0.484548 0.10394
H_ H_ 0.306729 0.393483 0.166346 0.10394
H_ H_ 0.226777 0.450352 0.188539 0.10394
H_ H_ 0.334033 0.0205278 0.293088 0.10394
H_ H_ 0.399758 0.494748 0.237479 0.10394
H_ H_ 0.0203239 0.386386 0.19205 0.10394
H_ H_ 0.0573339 0.315764 0.246312 0.10394
H_ H_ 0.406781 0.247811 0.240083 0.10394
H_ H_ 0.363609 0.326157 0.194356 0.10394
H_ H_ 0.46448 0.0642667 0.121428 0.10394
H_ H_ 0.0145353 0.118065 0.108584 0.10394
H_ H_ 0.149054 0.00935421 0.101113 0.10394
H_ H_ 0.440286 0.156756 0.400947 0.10394
H_ H_ 0.0125827 0.191957 0.449903 0.10394
H_ H_ 0.415878 0.284369 0.0368003 0.10394
H_ H_ 0.335197 0.232628 0.503948 0.10394
H_ H_ 0.236704 0.21046 0.389239 0.10394
H_ H_ 0.207585 0.265388 0.32256 0.10394
H_ H_ 0.334019 0.214188 0.237247 0.10394
H_ H_ 0.371606 0.170883 0.315667 0.10394
H_ H_ 0.290918 0.118816 0.0501668 0.10394
H_ H_ 0.231238 0.108449 0.112977 0.10394
H_ H_ 0.10958 0.0823928 -0.0009209999999999496 0.10394
C_ C_ 0.175465 0.0911895 0.293427 0.18167
C_ C_ 0.22268 0.0731365 0.278574 -0.15533
C_ C_ 0.233602 0.0218662 0.265441 0.02923
C_ C_ 0.189361 0.488049 0.27528 -0.15533
C_ C_ 0.153396 0.00699651 0.292727 0.18167
C_ C_ 0.0190049 0.14447 0.272877 0.18167
C_ C_ 0.507449 0.174344 0.243914 -0.15533
C_ C_ 0.0118068 0.235912 0.271728 0.02923
C_ C_ 0.0345012 0.236807 0.323627 -0.15533
C_ C_ 0.0558443 0.190825 0.342751 0.18167
C_ C_ 0.00476222 0.0483079 0.364034 0.69207
C_ C_ 0.468931 0.498908 0.364774 0.02923
C_ C_ 0.486485 0.445218 0.361895 -0.15533
C_ C_ 0.457872 0.408693 0.377659 -0.15533
C_ C_ 0.406482 0.420403 0.386399 0.02923
C_ C_ 0.387292 0.472018 0.388035 -0.15533
C_ C_ 0.417241 0.51146 0.37738 0.02923
C_ C_ 0.396412 0.0682412 0.385826 0.69207
C_ C_ 0.397388 0.323989 0.388763 0.69661
C_ C_ 0.0710183 0.309735 0.092491 0.18167
C_ C_ 0.0265481 0.287535 0.0722774 -0.15533
C_ C_ 0.0160148 0.274726 0.0198157 0.02923
C_ C_ 0.0398478 0.290694 0.48796 -0.15533
C_ C_ 0.0961445 0.309154 0.00853238 0.18167
C_ C_ 0.222255 0.272464 0.135482 0.18167
C_ C_ 0.238879 0.245814 0.180307 -0.15533
C_ C_ 0.243711 0.272668 0.228698 0.02923
C_ C_ 0.224453 0.324491 0.232088 -0.15533
C_ C_ 0.200205 0.3475 0.187027 0.18167
C_ C_ 0.244085 0.368465 0.0423342 0.69207
C_ C_ 0.270468 0.372221 0.500731 0.02923
C_ C_ 0.253206 0.366886 0.447951 -0.15533
C_ C_ 0.283625 0.378943 0.410375 -0.15533
C_ C_ 0.333254 0.387775 0.422806 0.02923
C_ C_ 0.352289 0.391094 0.473698 -0.15533
C_ C_ 0.322372 0.383763 0.514358 0.02923
C_ C_ 0.351156 0.387821 0.0709963 0.69207
C_ C_ 0.34666 0.380561 0.323918 0.69661
C_ C_ 0.307523 0.433981 0.176959 0.18167
C_ C_ 0.265336 0.460882 0.198478 -0.15533
C_ C_ 0.27206 0.496205 0.238249 0.02923
C_ C_ 0.325732 0.00847717 0.25431 -0.15533
C_ C_ 0.36222 0.485907 0.226219 0.18167
C_ C_ 0.490611 0.351414 0.204866 0.18167
C_ C_ 0.0170954 0.322178 0.239301 -0.15533
C_ C_ 0.483952 0.270716 0.241302 0.02923
C_ C_ 0.431467 0.27499 0.225754 -0.15533
C_ C_ 0.40689 0.321669 0.20498 0.18167
C_ C_ 0.490539 0.449708 0.135126 0.69207
C_ C_ 0.0233026 0.990932 0.120181 0.02923
C_ C_ 0.00299068 0.0408744 0.112839 -0.15533
C_ C_ 0.0345883 0.0800657 0.104886 -0.15533
C_ C_ 0.0858898 0.0697872 0.101013 0.02923
C_ C_ 0.106767 0.0179493 0.103374 -0.15533
C_ C_ 0.0757848 0.978016 0.113656 0.02923
C_ C_ 0.106114 0.432833 0.107671 0.69207
C_ C_ 0.095185 0.164549 0.0894702 0.69661
C_ C_ 0.43099 0.179068 0.435995 0.18167
C_ C_ 0.473871 0.200203 0.464103 -0.15533
C_ C_ 0.465968 0.238202 0.503918 0.02923
C_ C_ 0.421694 0.25255 0.00777138 -0.15533
C_ C_ 0.374929 0.223866 0.492416 0.18167
C_ C_ 0.259706 0.210349 0.35637 0.18167
C_ C_ 0.241428 0.241478 0.31728 -0.15533
C_ C_ 0.266754 0.243481 0.274527 0.02923
C_ C_ 0.312363 0.211671 0.269739 -0.15533
C_ C_ 0.332812 0.18715 0.31191 0.18167
C_ C_ 0.263388 0.113047 0.451734 0.69207
C_ C_ 0.229529 0.11717 0.987437 0.02923
C_ C_ 0.249228 0.114022 0.037064 -0.15533
C_ C_ 0.215227 0.109159 0.0751138 -0.15533
C_ C_ 0.162388 0.104487 0.0624812 0.02923
C_ C_ 0.14651 0.0961452 0.0111419 -0.15533
C_ C_ 0.17751 0.10556 0.973732 0.02923
C_ C_ 0.151501 0.106675 0.420351 0.69207
C_ C_ 0.144161 0.120555 0.158449 0.69661
C_ C_ 0.371654 0.378422 0.379686 -0.30787
C_ C_ 0.123536 0.112334 0.101296 -0.30787
N_ N_ 0.141789 0.0592215 0.299004 -0.32189
N_ N_ 0.0545761 0.146185 0.31424 -0.32189
N_ N_ 0.104185 0.321823 0.0605029 -0.32189
N_ N_ 0.194194 0.318219 0.142615 -0.32189
N_ N_ 0.354348 0.45033 0.188763 -0.32189
N_ N_ 0.438262 0.355923 0.193492 -0.32189
N_ N_ 0.384135 0.193297 0.450268 -0.32189
N_ N_ 0.30704 0.184177 0.354866 -0.32189
O_ O_ 0.504074 0.0878486 0.398331 -0.63271
O_ O_ 0.0411138 0.035755 0.332929 -0.57982
O_ O_ 0.395667 0.0918912 0.342262 -0.63271
O_ O_ 0.370898 0.0901695 0.423685 -0.57982
O_ O_ 0.247558 0.394498 0.0862404 -0.63271
O_ O_ 0.207937 0.339079 0.031916 -0.57982
O_ O_ 0.350057 0.345479 0.0959172 -0.63271
O_ O_ 0.381221 0.423953 0.090962 -0.57982
O_ O_ 0.998268 0.413695 0.0994089 -0.63271
O_ O_ 0.456241 0.460017 0.167384 -0.57982
O_ O_ 0.107556 0.408179 0.150502 -0.63271
O_ O_ 0.136943 0.414496 0.075781 -0.57982
O_ O_ 0.26064 0.0893754 0.40773 -0.63271
O_ O_ 0.291675 0.150948 0.461409 -0.57982
O_ O_ 0.159624 0.145627 0.393179 -0.63271
O_ O_ 0.116309 0.0774179 0.402847 -0.57982
F_ F_ 0.425468 0.323433 0.435675 -0.20885
F_ F_ 0.431536 0.306988 0.353564 -0.20885
F_ F_ 0.363224 0.28697 0.383775 -0.20885
F_ F_ 0.309918 0.422245 0.317217 -0.20885
F_ F_ 0.324131 0.33801 0.30494 -0.20885
F_ F_ 0.381831 0.389627 0.289396 -0.20885
F_ F_ 0.0675749 0.158351 0.0431098 -0.20885
F_ F_ 0.0607334 0.186409 0.122309 -0.20885
F_ F_ 0.128573 0.201818 0.0804554 -0.20885
F_ F_ 0.176478 0.0789918 0.175862 -0.20885
F_ F_ 0.173507 0.159813 0.172046 -0.20885
F_ F_ 0.103644 0.125336 0.19048 -0.20885
Zn Zn 0.0910054 0.0829593 0.83775 0.83971
Zn Zn 0.153201 0.35305 0.58166 0.83971
Zn Zn 0.410441 0.414569 0.651628 0.83971
Zn Zn 0.337853 0.160852 0.91129 0.83971
H_ H_ 0.164973 0.130128 0.795486 0.10394
H_ H_ 0.240363 0.106966 0.75609 0.10394
H_ H_ 0.212804 0.448396 0.790206 0.10394
H_ H_ 0.154264 0.979553 0.831342 0.10394
H_ H_ 0.515178 0.087173 0.758862 0.10394
H_ H_ 0.473335 0.160614 0.702645 0.10394
H_ H_ 0.0151982 0.260192 0.832547 0.10394
H_ H_ 0.0630718 0.187361 0.870846 0.10394
H_ H_ 0.0397144 0.446511 0.877691 0.10394
H_ H_ 0.488254 0.384082 0.889658 0.10394
H_ H_ 0.354031 0.491466 0.906079 0.10394
H_ H_ 0.0776441 0.306283 0.631791 0.10394
H_ H_ 0.500228 0.258398 0.600072 0.10394
H_ H_ 0.0490261 0.276213 0.944918 0.10394
H_ H_ 0.10362 0.335965 0.481789 0.10394
H_ H_ 0.211012 0.260164 0.593066 0.10394
H_ H_ 0.244015 0.210885 0.668035 0.10394
H_ H_ 0.202634 0.338543 0.768354 0.10394
H_ H_ 0.184396 0.388337 0.69335 0.10394
H_ H_ 0.220604 0.37429 0.94006 0.10394
H_ H_ 0.278956 0.372876 0.875891 0.10394
H_ H_ 0.398861 0.408622 0.989117 0.10394
H_ H_ 0.304566 0.39027 0.666461 0.10394
H_ H_ 0.233481 0.448721 0.687139 0.10394
H_ H_ 0.332632 0.061961 0.763094 0.10394
H_ H_ 0.400132 0.507004 0.716802 0.10394
H_ H_ 0.0148997 0.383515 0.696366 0.10394
H_ H_ 0.0479244 0.310909 0.749782 0.10394
H_ H_ 0.400293 0.251149 0.72143 0.10394
H_ H_ 0.370608 0.330925 0.687141 0.10394
H_ H_ 0.463719 0.0561799 0.614245 0.10394
H_ H_ 0.0165137 0.114941 0.60713 0.10394
H_ H_ 0.137984 0.0005900000000000905 0.584972 0.10394
H_ H_ 0.443771 0.153474 0.895907 0.10394
H_ H_ 0.0265982 0.190743 0.952901 0.10394
H_ H_ 0.409867 0.270718 0.552413 0.10394
H_ H_ 0.341285 0.23714 -0.011600999999999972 0.10394
H_ H_ 0.230131 0.21004 0.886354 0.10394
H_ H_ 0.188702 0.262947 0.817409 0.10394
H_ H_ 0.321934 0.225899 0.737662 0.10394
H_ H_ 0.367821 0.18847 0.815708 0.10394
H_ H_ 0.286566 0.102323 0.55273 0.10394
H_ H_ 0.235772 0.0800819 0.612767 0.10394
H_ H_ 0.104058 0.0867417 0.503143 0.10394
C_ C_ 0.17914 0.0918971 0.795838 0.18167
C_ C_ 0.22492 0.0785165 0.778263 -0.15533
C_ C_ 0.239635 0.0255199 0.767942 0.02923
C_ C_ 0.202494 0.489331 0.789397 -0.15533
C_ C_ 0.173443 0.00744619 0.815364 0.18167
C_ C_ 0.0385087 0.132795 0.750706 0.18167
C_ C_ 0.499295 0.166569 0.738092 -0.15533
C_ C_ 0.00241296 0.221062 0.756636 0.02923
C_ C_ 0.0247592 0.224648 0.809024 -0.15533
C_ C_ 0.0531828 0.184006 0.831429 0.18167
C_ C_ 0.0114286 0.039207 0.862404 0.69207
C_ C_ 0.475001 0.512752 0.88419 0.02923
C_ C_ 0.499929 0.462613 0.893608 -0.15533
C_ C_ 0.470675 0.422713 0.897443 -0.15533
C_ C_ 0.417361 0.432262 0.898155 0.02923
C_ C_ 0.396383 0.483647 0.904119 -0.15533
C_ C_ 0.422815 0.525392 0.892424 0.02923
C_ C_ 0.398016 0.0719315 0.883282 0.69207
C_ C_ 0.407392 0.335193 0.885475 0.69661
C_ C_ 0.0695148 0.298295 0.590013 0.18167
C_ C_ 0.0285172 0.270422 0.571958 -0.15533
C_ C_ 0.0120949 0.268562 0.521231 0.02923
C_ C_ 0.0503305 0.289922 0.986882 -0.15533
C_ C_ 0.0810665 0.318359 0.50697 0.18167
C_ C_ 0.212598 0.278749 0.633889 0.18167
C_ C_ 0.229948 0.249225 0.67552 -0.15533
C_ C_ 0.230231 0.2714 0.724821 0.02923
C_ C_ 0.210566 0.322495 0.731499 -0.15533
C_ C_ 0.189385 0.349263 0.687863 0.18167
C_ C_ 0.23218 0.374214 0.53869 0.69207
C_ C_ 0.277587 0.379127 0.00311697 0.02923
C_ C_ 0.261467 0.375667 0.95104 -0.15533
C_ C_ 0.293434 0.373574 0.913376 -0.15533
C_ C_ 0.340928 0.389951 0.926685 0.02923
C_ C_ 0.359828 0.395642 0.978691 -0.15533
C_ C_ 0.329114 0.391543 0.0171216 0.02923
C_ C_ 0.347201 0.382872 0.570324 0.69207
C_ C_ 0.355773 0.396548 0.832124 0.69661
C_ C_ 0.311064 0.426283 0.685273 0.18167
C_ C_ 0.269387 0.453592 0.706028 -0.15533
C_ C_ 0.275495 0.499857 0.734785 0.02923
C_ C_ 0.32577 0.0265203 0.739354 -0.15533
C_ C_ 0.362274 0.492389 0.712011 0.18167
C_ C_ 0.492942 0.347363 0.698742 0.18167
C_ C_ 0.00845094 0.3118 0.731672 -0.15533
C_ C_ 0.482107 0.264066 0.729625 0.02923
C_ C_ 0.429392 0.273207 0.710387 -0.15533
C_ C_ 0.409566 0.31728 0.687877 0.18167
C_ C_ 0.49495 0.443446 0.622904 0.69207
C_ C_ 0.0171847 0.986498 0.609755 0.02923
C_ C_ -7.999999999996898e-05 0.0391555 0.614148 -0.15533
C_ C_ 0.0330397 0.0759818 0.607379 -0.15533
C_ C_ 0.0844908 0.0623832 0.599341 0.02923
C_ C_ 0.101044 0.0117596 0.596474 -0.15533
C_ C_ 0.0695423 0.974045 0.602118 0.02923
C_ C_ 0.0926063 0.432271 0.610225 0.69207
C_ C_ 0.105959 0.155939 0.59791 0.69661
C_ C_ 0.43709 0.178005 0.930935 0.18167
C_ C_ 0.478112 0.198035 0.95878 -0.15533
C_ C_ 0.471415 0.236216 0.998448 0.02923
C_ C_ 0.415147 0.248324 0.519813 -0.15533
C_ C_ 0.380381 0.228345 0.981001 0.18167
C_ C_ 0.249883 0.212078 0.852636 0.18167
C_ C_ 0.22717 0.242697 0.814526 -0.15533
C_ C_ 0.252126 0.243022 0.769282 0.02923
C_ C_ 0.303748 0.223725 0.7704 -0.15533
C_ C_ 0.327861 0.201881 0.814505 0.18167
C_ C_ 0.262206 0.129345 0.949803 0.69207
C_ C_ 0.227581 0.108009 0.488125 0.02923
C_ C_ 0.247264 0.0985614 0.539819 -0.15533
C_ C_ 0.216856 0.087903 0.575744 -0.15533
C_ C_ 0.163924 0.0860929 0.562147 0.02923
C_ C_ 0.144753 0.0913299 0.511628 -0.15533
C_ C_ 0.176151 0.0996322 0.473461 0.02923
C_ C_ 0.152448 0.11209 0.921409 0.69207
C_ C_ 0.152067 0.0967876 0.658302 0.69661
C_ C_ 0.380337 0.390147 0.887313 -0.30787
C_ C_ 0.126385 0.100492 0.602175 -0.30787
N_ N_ 0.153345 0.0586784 0.814793 -0.32189
N_ N_ 0.0593115 0.137263 0.801266 -0.32189
N_ N_ 0.0958913 0.320195 0.557111 -0.32189
N_ N_ 0.185433 0.324194 0.641339 -0.32189
N_ N_ 0.355831 0.445748 0.687315 -0.32189
N_ N_ 0.44332 0.34992 0.677533 -0.32189
N_ N_ 0.389283 0.199013 0.94102 -0.32189
N_ N_ 0.300079 0.19442 0.854215 -0.32189
O_ O_ 0.508768 0.0887701 0.896697 -0.63271
O_ O_ 0.0501122 0.0302881 0.834594 -0.57982
O_ O_ 0.402416 0.0978143 0.841858 -0.63271
O_ O_ 0.372162 0.0951202 0.919237 -0.57982
O_ O_ 0.236578 0.404593 0.57953 -0.63271
O_ O_ 0.199586 0.339593 0.534903 -0.57982
O_ O_ 0.341064 0.343357 0.596456 -0.63271
O_ O_ 0.381922 0.414141 0.587622 -0.57982
O_ O_ 0.98489 0.415081 0.5953 -0.63271
O_ O_ 0.457616 0.458476 0.651097 -0.57982
O_ O_ 0.0912176 0.40398 0.647699 -0.63271
O_ O_ 0.123624 0.416209 0.574636 -0.57982
O_ O_ 0.258728 0.108267 0.90344 -0.63271
O_ O_ 0.292801 0.164345 0.961679 -0.57982
O_ O_ 0.147079 0.1582 0.903466 -0.63271
O_ O_ 0.119314 0.0801804 0.903754 -0.57982
F_ F_ 0.440305 0.32275 0.927262 -0.20885
F_ F_ 0.44082 0.324456 0.847335 -0.20885
F_ F_ 0.371919 0.302252 0.880952 -0.20885
F_ F_ 0.319651 0.438673 0.833466 -0.20885
F_ F_ 0.327735 0.35851 0.807426 -0.20885
F_ F_ 0.389507 0.407635 0.799135 -0.20885
F_ F_ 0.0681172 0.16252 0.558531 -0.20885
F_ F_ 0.0865745 0.181277 0.640043 -0.20885
F_ F_ 0.143449 0.183165 0.585561 -0.20885
F_ F_ 0.175261 0.0487013 0.669407 -0.20885
F_ F_ 0.186022 0.133719 0.672292 -0.20885
F_ F_ 0.119965 0.102688 0.696438 -0.20885
Zn Zn 0.0870247 0.586578 0.348319 0.83971
Zn Zn 0.161411 0.844251 0.0876115 0.83971
Zn Zn 0.411617 0.924599 0.151891 0.83971
Zn Zn 0.33564 0.650495 0.417889 0.83971
H_ H_ 0.179701 0.628824 0.32736 0.10394
H_ H_ 0.258039 0.589308 0.289136 0.10394
H_ H_ 0.203921 0.947303 0.262857 0.10394
H_ H_ 0.115576 0.485891 0.304602 0.10394
H_ H_ 0.509462 0.605889 0.247754 0.10394
H_ H_ 0.469844 0.683339 0.208928 0.10394
H_ H_ 0.0252413 0.767858 0.334379 0.10394
H_ H_ 0.0712601 0.690014 0.377935 0.10394
H_ H_ 0.0300481 0.94574 0.360755 0.10394
H_ H_ 0.480141 0.872794 0.361594 0.10394
H_ H_ 0.353432 0.983095 0.39914 0.10394
H_ H_ 0.0810418 0.800057 0.13677 0.10394
H_ H_ 0.499479 0.770097 0.0963525 0.10394
H_ H_ 0.0227298 0.802885 0.44563 0.10394
H_ H_ 0.117535 0.818541 0.987512 0.10394
H_ H_ 0.227397 0.752385 0.0956182 0.10394
H_ H_ 0.273849 0.701818 0.167597 0.10394
H_ H_ 0.220379 0.825941 0.270805 0.10394
H_ H_ 0.173931 0.870098 0.199989 0.10394
H_ H_ 0.218375 0.871184 0.44761 0.10394
H_ H_ 0.270442 0.86759 0.377608 0.10394
H_ H_ 0.398153 0.891742 0.486312 0.10394
H_ H_ 0.30388 0.952594 0.116421 0.10394
H_ H_ 0.230671 0.989685 0.16211 0.10394
H_ H_ 0.32918 0.542847 0.277522 0.10394
H_ H_ 0.404443 -0.017093000000000025 0.247157 0.10394
H_ H_ 0.0105011 0.879697 0.191672 0.10394
H_ H_ 0.0475317 0.800555 0.236067 0.10394
H_ H_ 0.412801 0.758479 0.227534 0.10394
H_ H_ 0.375363 0.84227 0.189718 0.10394
H_ H_ 0.459966 0.548373 0.123783 0.10394
H_ H_ 0.0187773 0.622897 0.102264 0.10394
H_ H_ 0.148369 0.51591 0.104275 0.10394
H_ H_ 0.442613 0.639642 0.416242 0.10394
H_ H_ 0.0157648 0.69626 0.453184 0.10394
H_ H_ 0.412799 0.779791 0.0436081 0.10394
H_ H_ 0.3423 0.734973 0.50222 0.10394
H_ H_ 0.232127 0.694647 0.377609 0.10394
H_ H_ 0.197508 0.727766 0.297823 0.10394
H_ H_ 0.347052 0.727933 0.253478 0.10394
H_ H_ 0.381787 0.686285 0.335575 0.10394
H_ H_ 0.2901 0.606055 0.0537084 0.10394
H_ H_ 0.236393 0.607606 0.124078 0.10394
H_ H_ 0.106067 0.598563 0.0156274 0.10394
C_ C_ 0.181162 0.588434 0.312676 0.18167
C_ C_ 0.22608 0.566824 0.289267 -0.15533
C_ C_ 0.229012 0.517012 0.268666 0.02923
C_ C_ 0.196636 0.988297 0.270315 -0.15533
C_ C_ 0.145276 0.509291 0.297904 0.18167
C_ C_ 0.0164567 0.632524 0.273907 0.18167
C_ C_ 0.498264 0.686931 0.242873 -0.15533
C_ C_ -0.00027800000000000047 0.724078 0.266548 0.02923
C_ C_ 0.0279868 0.730964 0.314784 -0.15533
C_ C_ 0.0497152 0.68862 0.340676 0.18167
C_ C_ 0.00854232 0.541183 0.376272 0.69207
C_ C_ 0.474311 0.00384942 0.375104 0.02923
C_ C_ 0.48969 0.952734 0.360401 -0.15533
C_ C_ 0.461441 0.911136 0.36812 -0.15533
C_ C_ 0.410455 0.923049 0.383157 0.02923
C_ C_ 0.39157 0.975185 0.389447 -0.15533
C_ C_ 0.424162 0.0162964 0.389446 0.02923
C_ C_ 0.389694 0.564778 0.375465 0.69207
C_ C_ 0.401546 0.825407 0.380461 0.69661
C_ C_ 0.0720205 0.796564 0.0960657 0.18167
C_ C_ 0.030132 0.771047 0.0760176 -0.15533
C_ C_ 0.0176015 0.765292 0.0244314 0.02923
C_ C_ 0.0371741 0.797007 0.48407 -0.15533
C_ C_ 0.0934969 0.803755 0.0118773 0.18167
C_ C_ 0.226599 0.768482 0.134154 0.18167
C_ C_ 0.253027 0.741402 0.174907 -0.15533
C_ C_ 0.248713 0.761084 0.225423 0.02923
C_ C_ 0.222403 0.807868 0.232895 -0.15533
C_ C_ 0.196629 0.832434 0.192519 0.18167
C_ C_ 0.244973 0.860044 0.0490926 0.69207
C_ C_ 0.276369 0.873478 0.507023 0.02923
C_ C_ 0.256979 0.876199 0.456284 -0.15533
C_ C_ 0.287068 0.872036 0.416445 -0.15533
C_ C_ 0.339836 0.881925 0.426483 0.02923
C_ C_ 0.359562 0.885036 0.476889 -0.15533
C_ C_ 0.328773 0.881081 0.517053 0.02923
C_ C_ 0.360767 0.880777 0.0678645 0.69207
C_ C_ 0.34145 0.891437 0.326475 0.69661
C_ C_ 0.307539 0.961106 0.158112 0.18167
C_ C_ 0.265304 0.979855 0.184279 -0.15533
C_ C_ 0.276025 1.00511695 0.232965 0.02923
C_ C_ 0.322247 0.510935 0.251542 -0.15533
C_ C_ 0.364919 0.984043 0.227195 0.18167
C_ C_ 0.496745 0.864829 0.202213 0.18167
C_ C_ 0.00905903 0.803639 0.224101 -0.15533
C_ C_ 0.487141 0.782254 0.237967 0.02923
C_ C_ 0.435913 0.787829 0.218688 -0.15533
C_ C_ 0.414264 0.832992 0.195713 0.18167
C_ C_ 0.489622 0.963414 0.12731 0.69207
C_ C_ 0.0292438 0.496331 0.114702 0.02923
C_ C_ 0.00704111 0.548093 0.113481 -0.15533
C_ C_ 0.0364658 0.587919 0.113176 -0.15533
C_ C_ 0.0909276 0.577695 0.108212 0.02923
C_ C_ 0.111331 0.525398 0.109825 -0.15533
C_ C_ 0.0801569 0.485258 0.105199 0.02923
C_ C_ 0.100473 0.923303 0.114621 0.69207
C_ C_ 0.106479 0.671489 0.118502 0.69661
C_ C_ 0.435653 0.667514 0.445741 0.18167
C_ C_ 0.477662 0.693485 0.4674 -0.15533
C_ C_ 0.468066 0.73586 0.502864 0.02923
C_ C_ 0.423942 0.750707 0.0134501 -0.15533
C_ C_ 0.381014 0.721177 0.495897 0.18167
C_ C_ 0.256771 0.69751 0.349275 0.18167
C_ C_ 0.236974 0.716763 0.303437 -0.15533
C_ C_ 0.269024 0.72942 0.268424 0.02923
C_ C_ 0.321169 0.714052 0.278624 -0.15533
C_ C_ 0.339868 0.696579 0.328195 0.18167
C_ C_ 0.258853 0.617875 0.455916 0.69207
C_ C_ 0.227741 0.611562 0.991904 0.02923
C_ C_ 0.249724 0.612336 0.0437596 -0.15533
C_ C_ 0.217873 0.61291 0.0844895 -0.15533
C_ C_ 0.16522 0.610736 0.0742796 0.02923
C_ C_ 0.146675 0.603338 0.0228517 -0.15533
C_ C_ 0.174853 0.609909 0.981826 0.02923
C_ C_ 0.146052 0.612722 0.431186 0.69207
C_ C_ 0.157054 0.608918 0.173186 0.69661
C_ C_ 0.374016 0.881464 0.3807 -0.30787
C_ C_ 0.130003 0.616689 0.118904 -0.30787
N_ N_ 0.141325 0.558799 0.314459 -0.32189
N_ N_ 0.0504008 0.640981 0.317335 -0.32189
N_ N_ 0.106052 0.808166 0.0637863 -0.32189
N_ N_ 0.19742 0.811033 0.144857 -0.32189
N_ N_ 0.355911 0.9572 0.182721 -0.32189
N_ N_ 0.443978 0.870194 0.189134 -0.32189
N_ N_ 0.388854 0.682216 0.459926 -0.32189
N_ N_ 0.307355 0.685511 0.359998 -0.32189
O_ O_ 0.504958 0.575897 0.400295 -0.63271
O_ O_ 0.0464975 0.530766 0.349687 -0.57982
O_ O_ 0.397331 0.594357 0.338941 -0.63271
O_ O_ 0.36244 0.58216 0.411998 -0.57982
O_ O_ 0.249012 0.887496 0.0930288 -0.63271
O_ O_ 0.201777 0.841157 0.0367147 -0.57982
O_ O_ 0.355577 0.845674 0.0990127 -0.63271
O_ O_ 0.388156 0.917046 0.0853136 -0.57982
O_ O_ 0.992108 0.908254 0.102456 -0.63271
O_ O_ 0.457095 0.972665 0.160521 -0.57982
O_ O_ 0.0919256 0.89536 0.15102 -0.63271
O_ O_ 0.139647 0.909508 0.088559 -0.57982
O_ O_ 0.256385 0.595218 0.409916 -0.63271
O_ O_ 0.291543 0.649759 0.467441 -0.57982
O_ O_ 0.148552 0.654075 0.406441 -0.63271
O_ O_ 0.112713 0.58273 0.414933 -0.57982
F_ F_ 0.433755 0.821091 0.427368 -0.20885
F_ F_ 0.42985 0.81186 0.337808 -0.20885
F_ F_ 0.370457 0.786894 0.378047 -0.20885
F_ F_ 0.307198 0.930453 0.327089 -0.20885
F_ F_ 0.318591 0.848843 0.308481 -0.20885
F_ F_ 0.37426 0.899901 0.289627 -0.20885
F_ F_ 0.0813328 0.680232 0.0691241 -0.20885
F_ F_ 0.0695105 0.684946 0.151206 -0.20885
F_ F_ 0.141206 0.70844 0.121432 -0.20885
F_ F_ 0.190235 0.565538 0.173228 -0.20885
F_ F_ 0.182835 0.649403 0.193089 -0.20885
F_ F_ 0.120782 0.606912 0.208221 -0.20885
Zn Zn 0.0937761 0.583036 0.845698 0.83971
Zn Zn 0.157727 0.838112 0.577063 0.83971
Zn Zn 0.410564 0.915857 0.654056 0.83971
Zn Zn 0.336881 0.660843 0.91711 0.83971
H_ H_ 0.170185 0.63942 0.805955 0.10394
H_ H_ 0.251664 0.601237 0.768229 0.10394
H_ H_ 0.223445 0.951828 0.781531 0.10394
H_ H_ 0.145882 0.490678 0.838804 0.10394
H_ H_ 0.529977 0.596877 0.747072 0.10394
H_ H_ 0.480341 0.670385 0.706056 0.10394
H_ H_ 0.0411001 0.770543 0.827921 0.10394
H_ H_ 0.0679601 0.693452 0.882361 0.10394
H_ H_ 0.0429758 0.936648 0.875908 0.10394
H_ H_ 0.481305 0.876995 0.878381 0.10394
H_ H_ 0.354802 0.989417 0.906857 0.10394
H_ H_ 0.0856024 0.796206 0.628654 0.10394
H_ H_ 0.497105 0.769954 0.602362 0.10394
H_ H_ 0.0355297 0.788841 0.953802 0.10394
H_ H_ 0.100585 0.834126 0.476919 0.10394
H_ H_ 0.21309 0.744936 0.597492 0.10394
H_ H_ 0.267736 0.707595 0.674022 0.10394
H_ H_ 0.215901 0.831261 0.772519 0.10394
H_ H_ 0.179007 0.87971 0.694444 0.10394
H_ H_ 0.223777 0.852303 0.94278 0.10394
H_ H_ 0.26459 0.885244 0.88309 0.10394
H_ H_ 0.396057 0.90825 0.985143 0.10394
H_ H_ 0.304664 0.902557 0.655118 0.10394
H_ H_ 0.233318 0.957189 0.690615 0.10394
H_ H_ 0.329366 0.550274 0.762136 0.10394
H_ H_ 0.406198 0.00352155 0.729464 0.10394
H_ H_ 0.0148839 0.883605 0.703205 0.10394
H_ H_ 0.0525841 0.808815 0.74751 0.10394
H_ H_ 0.413562 0.751766 0.735431 0.10394
H_ H_ 0.371306 0.826894 0.687527 0.10394
H_ H_ 0.461013 0.534581 0.594137 0.10394
H_ H_ 0.0165326 0.6239 0.632747 0.10394
H_ H_ 0.13616 0.51314 0.593083 0.10394
H_ H_ 0.442899 0.669524 0.886939 0.10394
H_ H_ 0.0150154 0.690738 0.95339 0.10394
H_ H_ 0.4139 0.776524 0.546456 0.10394
H_ H_ 0.347789 0.729438 0.00318843 0.10394
H_ H_ 0.234824 0.706451 0.890135 0.10394
H_ H_ 0.189179 0.74236 0.813342 0.10394
H_ H_ 0.329316 0.713536 0.745023 0.10394
H_ H_ 0.375006 0.693124 0.828712 0.10394
H_ H_ 0.282422 0.603868 0.555518 0.10394
H_ H_ 0.227162 0.614985 0.624355 0.10394
H_ H_ 0.102577 0.595888 0.508896 0.10394
C_ C_ 0.178688 0.59719 0.796681 0.18167
C_ C_ 0.222865 0.57566 0.776702 -0.15533
C_ C_ 0.233496 0.522225 0.768566 0.02923
C_ C_ 0.215179 0.991165 0.791815 -0.15533
C_ C_ 0.161936 0.511287 0.811597 0.18167
C_ C_ 0.0317805 0.63387 0.769752 0.18167
C_ C_ 0.499824 0.678553 0.743303 -0.15533
C_ C_ 0.00753517 0.724759 0.765083 0.02923
C_ C_ 0.0303657 0.731788 0.814539 -0.15533
C_ C_ 0.0514352 0.68815 0.842992 0.18167
C_ C_ 0.0132146 0.5485 0.872923 0.69207
C_ C_ 0.475073 0.00545944 0.876598 0.02923
C_ C_ 0.495681 0.9555 0.875967 -0.15533
C_ C_ 0.464881 0.91659 0.881933 -0.15533
C_ C_ 0.412717 0.927393 0.891725 0.02923
C_ C_ 0.394027 0.980004 0.898583 -0.15533
C_ C_ 0.42422 0.0184518 0.889705 0.02923
C_ C_ 0.394278 0.574807 0.886446 0.69207
C_ C_ 0.389971 0.830324 0.871784 0.69661
C_ C_ 0.0743848 0.792943 0.586903 0.18167
C_ C_ 0.025705 0.778625 0.568998 -0.15533
C_ C_ 0.00780292 0.780065 0.517776 0.02923
C_ C_ 0.0502292 0.781776 0.992506 -0.15533
C_ C_ 0.0864476 0.80764 0.500038 0.18167
C_ C_ 0.218897 0.76688 0.634909 0.18167
C_ C_ 0.24386 0.744057 0.678194 -0.15533
C_ C_ 0.237551 0.764606 0.727432 0.02923
C_ C_ 0.216216 0.814087 0.733794 -0.15533
C_ C_ 0.192351 0.838535 0.689332 0.18167
C_ C_ 0.241744 0.862962 0.545502 0.69207
C_ C_ 0.28167 0.866303 0.00814525 0.02923
C_ C_ 0.261368 0.863691 0.954895 -0.15533
C_ C_ 0.285264 0.88165 0.9184 -0.15533
C_ C_ 0.337805 0.891065 0.92599 0.02923
C_ C_ 0.358085 0.894954 0.977995 -0.15533
C_ C_ 0.331464 0.88217 0.0178096 0.02923
C_ C_ 0.352106 0.881732 0.571052 0.69207
C_ C_ 0.341882 0.900535 0.831215 0.69661
C_ C_ 0.310892 0.937293 0.678671 0.18167
C_ C_ 0.270798 0.967115 0.698905 -0.15533
C_ C_ 0.278425 1.00771057 0.73433 0.02923
C_ C_ 0.32375 0.516211 0.739628 -0.15533
C_ C_ 0.366285 0.996347 0.717889 0.18167
C_ C_ 0.493195 0.856537 0.703616 0.18167
C_ C_ 0.0123024 0.812184 0.73495 -0.15533
C_ C_ 0.489018 0.772422 0.734503 0.02923
C_ C_ 0.435608 0.778729 0.722388 -0.15533
C_ C_ 0.412598 0.822823 0.699275 0.18167
C_ C_ 0.486221 0.955952 0.620175 0.69207
C_ C_ 0.0174645 0.497439 0.619941 0.02923
C_ C_ 1.000257328 0.547894 0.628579 -0.15533
C_ C_ 0.0301029 0.586848 0.620049 -0.15533
C_ C_ 0.0807465 0.574202 0.609468 0.02923
C_ C_ 0.0985148 0.523567 0.603499 -0.15533
C_ C_ 0.068423 0.485352 0.610222 0.02923
C_ C_ 0.0917104 0.919612 0.597959 0.69207
C_ C_ 0.0955069 0.667684 0.610394 0.69661
C_ C_ 0.436435 0.695324 0.920637 0.18167
C_ C_ 0.477133 0.718316 0.946746 -0.15533
C_ C_ 0.472291 0.744337 -0.0044279999999999875 0.02923
C_ C_ 0.421156 0.744618 0.52015 -0.15533
C_ C_ 0.384818 0.722395 0.988605 0.18167
C_ C_ 0.256031 0.712443 0.860091 0.18167
C_ C_ 0.231701 0.731907 0.814999 -0.15533
C_ C_ 0.258979 0.739683 0.773566 0.02923
C_ C_ 0.309895 0.717981 0.776881 -0.15533
C_ C_ 0.334496 0.703975 0.823357 0.18167
C_ C_ 0.259774 0.627195 0.953155 0.69207
C_ C_ 0.225655 0.607441 0.49542 0.02923
C_ C_ 0.243349 0.607502 0.547219 -0.15533
C_ C_ 0.211011 0.614086 0.584336 -0.15533
C_ C_ 0.157367 0.607568 0.573324 0.02923
C_ C_ 0.140707 0.597832 0.520951 -0.15533
C_ C_ 0.171745 0.604963 0.482445 0.02923
C_ C_ 0.149484 0.608975 0.927992 0.69207
C_ C_ 0.144982 0.611546 0.669311 0.69661
C_ C_ 0.373317 0.886407 0.881984 -0.30787
C_ C_ 0.120332 0.611912 0.61487 -0.30787
N_ N_ 0.149314 0.562403 0.811974 -0.32189
N_ N_ 0.0570027 0.643589 0.816762 -0.32189
N_ N_ 0.102648 0.806948 0.55075 -0.32189
N_ N_ 0.193219 0.814627 0.641743 -0.32189
N_ N_ 0.359468 0.953478 0.688571 -0.32189
N_ N_ 0.441099 0.860195 0.690372 -0.32189
N_ N_ 0.391259 0.69703 0.942744 -0.32189
N_ N_ 0.305021 0.694338 0.861198 -0.32189
O_ O_ 0.497436 0.597256 0.885111 -0.63271
O_ O_ 0.0486286 0.537467 0.840432 -0.57982
O_ O_ 0.386631 0.593279 0.841159 -0.63271
O_ O_ 0.370439 0.59838 0.924148 -0.57982
O_ O_ 0.237503 0.894646 0.58528 -0.63271
O_ O_ 0.203347 0.835442 0.532654 -0.57982
O_ O_ 0.345147 0.844303 0.599426 -0.63271
O_ O_ 0.380021 0.917732 0.589174 -0.57982
O_ O_ 0.985615 0.903569 0.597076 -0.63271
O_ O_ 0.452866 0.963294 0.654243 -0.57982
O_ O_ 0.0915322 0.891559 0.637129 -0.63271
O_ O_ 0.127796 0.90235 0.568035 -0.57982
O_ O_ 0.262775 0.601757 0.910109 -0.63271
O_ O_ 0.292642 0.660153 0.96617 -0.57982
O_ O_ 0.153388 0.647506 0.900006 -0.63271
O_ O_ 0.117786 0.576147 0.911142 -0.57982
F_ F_ 0.421686 0.812833 0.916047 -0.20885
F_ F_ 0.413709 0.823127 0.829051 -0.20885
F_ F_ 0.351689 0.79806 0.864322 -0.20885
F_ F_ 0.314945 0.948664 0.829404 -0.20885
F_ F_ 0.303543 0.869202 0.809839 -0.20885
F_ F_ 0.370684 0.901251 0.788573 -0.20885
F_ F_ 0.0616667 0.670964 0.564988 -0.20885
F_ F_ 0.0661593 0.687244 0.647647 -0.20885
F_ F_ 0.133181 0.69911 0.606772 -0.20885
F_ F_ 0.175138 0.565259 0.672713 -0.20885
F_ F_ 0.177662 0.648515 0.68951 -0.20885
F_ F_ 0.10935 0.610451 0.704063 -0.20885
Zn Zn 0.590351 0.0830445 0.352427 0.83971
Zn Zn 0.659849 0.343775 0.0826248 0.83971
Zn Zn 0.91495 0.422427 0.157322 0.83971
Zn Zn 0.836089 0.154195 0.416098 0.83971
H_ H_ 0.663415 0.131275 0.304528 0.10394
H_ H_ 0.746726 0.101506 0.268298 0.10394
H_ H_ 0.712915 0.453759 0.297124 0.10394
H_ H_ 0.628378 0.980087 0.316903 0.10394
H_ H_ 0.00826458 0.10715 0.260421 0.10394
H_ H_ 0.968192 0.190064 0.220337 0.10394
H_ H_ 0.532332 0.268388 0.337111 0.10394
H_ H_ 0.581107 0.194478 0.373426 0.10394
H_ H_ 0.526068 0.436794 0.36406 0.10394
H_ H_ 0.977992 0.382389 0.417859 0.10394
H_ H_ 0.848851 0.488899 0.405226 0.10394
H_ H_ 0.57813 0.308816 0.130044 0.10394
H_ H_ 0.99582 0.287998 0.0954797 0.10394
H_ H_ 0.533071 0.276429 0.448722 0.10394
H_ H_ 0.614642 0.325526 0.978881 0.10394
H_ H_ 0.737123 0.261964 0.0948178 0.10394
H_ H_ 0.768045 0.207382 0.160951 0.10394
H_ H_ 0.7243 0.331566 0.269049 0.10394
H_ H_ 0.680804 0.377384 0.192968 0.10394
H_ H_ 0.713914 0.35891 0.442445 0.10394
H_ H_ 0.769094 0.370313 0.375323 0.10394
H_ H_ 0.887943 0.406995 0.489753 0.10394
H_ H_ 0.813329 0.400788 0.165791 0.10394
H_ H_ 0.73855 0.450334 0.194874 0.10394
H_ H_ 0.832082 0.0468472 0.282309 0.10394
H_ H_ 0.909005 0.506464 0.243285 0.10394
H_ H_ 0.513125 0.381701 0.195977 0.10394
H_ H_ 0.554607 0.307404 0.239852 0.10394
H_ H_ 0.908737 0.27314 0.254598 0.10394
H_ H_ 0.876223 0.337953 0.200416 0.10394
H_ H_ 0.964464 0.0523903 0.119284 0.10394
H_ H_ 0.519916 0.128036 0.101457 0.10394
H_ H_ 0.646849 0.010572 0.0987084 0.10394
H_ H_ 0.937954 0.157418 0.39798 0.10394
H_ H_ 0.511889 0.192402 0.450689 0.10394
H_ H_ 0.91522 0.285992 0.0386473 0.10394
H_ H_ 0.8455 0.222936 0.504901 0.10394
H_ H_ 0.732192 0.188485 0.377669 0.10394
H_ H_ 0.69491 0.227726 0.305969 0.10394
H_ H_ 0.838729 0.21465 0.238939 0.10394
H_ H_ 0.877739 0.182193 0.322712 0.10394
H_ H_ 0.785843 0.134719 0.0567434 0.10394
H_ H_ 0.731935 0.13119 0.121886 0.10394
H_ H_ 0.607804 0.0975684 0.0078523 0.10394
C_ C_ 0.676876 0.0907917 0.302276 0.18167
C_ C_ 0.721892 0.0738688 0.279238 -0.15533
C_ C_ 0.731836 0.0215594 0.266845 0.02923
C_ C_ 0.700869 0.492208 0.292995 -0.15533
C_ C_ 0.653283 0.00742966 0.304491 0.18167
C_ C_ 0.531537 0.132978 0.270463 0.18167
C_ C_ -0.0021060000000000523 0.188633 0.251195 -0.15533
C_ C_ 0.507104 0.226157 0.266534 0.02923
C_ C_ 0.534645 0.23317 0.316354 -0.15533
C_ C_ 0.562508 0.19026 0.336111 0.18167
C_ C_ 0.510464 0.043752 0.372822 0.69207
C_ C_ 0.973754 0.501228 0.386242 0.02923
C_ C_ 0.99456 0.453455 0.397972 -0.15533
C_ C_ 0.962069 0.416444 0.40164 -0.15533
C_ C_ 0.909962 0.424015 0.394521 0.02923
C_ C_ 0.888775 0.476002 0.398151 -0.15533
C_ C_ 0.920367 0.515655 0.392984 0.02923
C_ C_ 0.891747 0.0721927 0.384133 0.69207
C_ C_ 0.900375 0.324258 0.395266 0.69661
C_ C_ 0.569619 0.302394 0.0892527 0.18167
C_ C_ 0.528241 0.275969 0.071562 -0.15533
C_ C_ 0.513661 0.269227 0.017314 0.02923
C_ C_ 0.542227 0.281784 0.489396 -0.15533
C_ C_ 0.591285 0.308145 0.00457045 0.18167
C_ C_ 0.727025 0.273877 0.131532 0.18167
C_ C_ 0.743907 0.243393 0.170677 -0.15533
C_ C_ 0.745519 0.263016 0.221644 0.02923
C_ C_ 0.726126 0.314356 0.231645 -0.15533
C_ C_ 0.699619 0.339031 0.188386 0.18167
C_ C_ 0.742166 0.369008 0.0458711 0.69207
C_ C_ 0.769927 0.377721 0.505553 0.02923
C_ C_ 0.753136 0.369479 0.453365 -0.15533
C_ C_ 0.784886 0.373891 0.415937 -0.15533
C_ C_ 0.83482 0.388079 0.427587 0.02923
C_ C_ 0.849724 0.401781 0.479474 -0.15533
C_ C_ 0.820341 0.392524 0.517117 0.02923
C_ C_ 0.856285 0.388676 0.0749644 0.69207
C_ C_ 0.851694 0.382785 0.327686 0.69661
C_ C_ 0.818012 0.436926 0.187389 0.18167
C_ C_ 0.773997 0.464406 0.206623 -0.15533
C_ C_ 0.779531 0.500587 0.247237 0.02923
C_ C_ 0.824543 0.0202158 0.253466 -0.15533
C_ C_ 0.870464 0.495311 0.234768 0.18167
C_ C_ 0.996109 0.362533 0.208666 0.18167
C_ C_ 0.514236 0.308546 0.227386 -0.15533
C_ C_ 0.987726 0.285921 0.251086 0.02923
C_ C_ 0.935497 0.292532 0.237175 -0.15533
C_ C_ 0.915422 0.332802 0.207598 0.18167
C_ C_ 0.999263 0.456684 0.127717 0.69207
C_ C_ 0.525944 1.000898316 0.124452 0.02923
C_ C_ 0.50629 0.052185 0.117825 -0.15533
C_ C_ 0.536663 0.0889454 0.10675 -0.15533
C_ C_ 0.587513 0.075102 0.100895 0.02923
C_ C_ 0.605942 0.0224672 0.0991694 -0.15533
C_ C_ 0.576422 0.985715 0.115681 0.02923
C_ C_ 0.597479 0.425304 0.112495 0.69207
C_ C_ 0.609844 0.173172 0.114038 0.69661
C_ C_ 0.934275 0.181361 0.432428 0.18167
C_ C_ 0.97635 0.200298 0.46316 -0.15533
C_ C_ 0.970159 0.237654 0.502285 0.02923
C_ C_ 0.925698 0.251671 0.0133518 -0.15533
C_ C_ 0.881289 0.220448 0.491011 0.18167
C_ C_ 0.756542 0.196268 0.350143 0.18167
C_ C_ 0.735022 0.218305 0.304886 -0.15533
C_ C_ 0.765106 0.230272 0.265515 0.02923
C_ C_ 0.815443 0.214841 0.272638 -0.15533
C_ C_ 0.837728 0.191746 0.316423 0.18167
C_ C_ 0.762245 0.124575 0.45772 0.69207
C_ C_ 0.730192 0.118774 0.991356 0.02923
C_ C_ 0.748728 0.121364 0.0439117 -0.15533
C_ C_ 0.716653 0.118928 0.0818625 -0.15533
C_ C_ 0.6659 0.108437 0.0698548 0.02923
C_ C_ 0.648848 0.0980561 0.0187372 -0.15533
C_ C_ 0.680266 0.104315 0.977184 0.02923
C_ C_ 0.653506 0.106704 0.430585 0.69207
C_ C_ 0.651957 0.108006 0.168064 0.69661
C_ C_ 0.874174 0.379975 0.386818 -0.30787
C_ C_ 0.628813 0.116229 0.111197 -0.30787
N_ N_ 0.647961 0.0564975 0.32211 -0.32189
N_ N_ 0.558881 0.142281 0.315208 -0.32189
N_ N_ 0.604581 0.311048 0.0568357 -0.32189
N_ N_ 0.693661 0.315276 0.142255 -0.32189
N_ N_ 0.863382 0.454866 0.19942 -0.32189
N_ N_ 0.945581 0.365272 0.192568 -0.32189
N_ N_ 0.887522 0.192967 0.44651 -0.32189
N_ N_ 0.808102 0.185084 0.354607 -0.32189
O_ O_ 0.00479969 0.0931553 0.391558 -0.63271
O_ O_ 0.546502 0.0360845 0.344315 -0.57982
O_ O_ 0.885359 0.0948906 0.341014 -0.63271
O_ O_ 0.86772 0.0936704 0.421888 -0.57982
O_ O_ 0.747133 0.388938 0.0917633 -0.63271
O_ O_ 0.703421 0.342564 0.0342242 -0.57982
O_ O_ 0.860097 0.348572 0.0998342 -0.63271
O_ O_ 0.883012 0.424965 0.0946602 -0.57982
O_ O_ 0.487023 0.407185 0.106067 -0.63271
O_ O_ 0.96378 0.467664 0.159748 -0.57982
O_ O_ 0.598413 0.401891 0.154653 -0.63271
O_ O_ 0.626374 0.406347 0.0781092 -0.57982
O_ O_ 0.760173 0.0920472 0.417542 -0.63271
O_ O_ 0.792986 0.160103 0.461523 -0.57982
O_ O_ 0.656058 0.143056 0.401821 -0.63271
O_ O_ 0.61962 0.0770652 0.418306 -0.57982
F_ F_ 0.924151 0.321757 0.445124 -0.20885
F_ F_ 0.935513 0.309407 0.361041 -0.20885
F_ F_ 0.868861 0.286028 0.38659 -0.20885
F_ F_ 0.81685 0.424008 0.321793 -0.20885
F_ F_ 0.828539 0.340205 0.310277 -0.20885
F_ F_ 0.888022 0.388345 0.295914 -0.20885
F_ F_ 0.582596 0.18401 0.0667088 -0.20885
F_ F_ 0.572972 0.187823 0.149286 -0.20885
F_ F_ 0.648571 0.204499 0.122337 -0.20885
F_ F_ 0.680998 0.0616918 0.168754 -0.20885
F_ F_ 0.682149 0.143574 0.191421 -0.20885
F_ F_ 0.615692 0.106048 0.201138 -0.20885
Zn Zn 0.590637 0.0859474 0.849278 0.83971
Zn Zn 0.661537 0.335647 0.583328 0.83971
Zn Zn 0.906365 0.415004 0.651375 0.83971
Zn Zn 0.845223 0.149998 0.918218 0.83971
H_ H_ 0.666907 0.132844 0.799868 0.10394
H_ H_ 0.747003 0.10196 0.769595 0.10394
H_ H_ 0.717586 0.4431 0.791854 0.10394
H_ H_ 0.630989 0.98074 0.81499 0.10394
H_ H_ 0.0407929 0.0971315 0.728363 0.10394
H_ H_ 1.0045932 0.180092 0.686941 0.10394
H_ H_ 0.521653 0.263821 0.822897 0.10394
H_ H_ 0.574764 0.195591 0.867228 0.10394
H_ H_ 0.539832 0.454108 0.885531 0.10394
H_ H_ 0.991262 0.381729 0.895991 0.10394
H_ H_ 0.856051 0.484971 0.901739 0.10394
H_ H_ 0.581207 0.292717 0.631844 0.10394
H_ H_ 0.00758541 0.253263 0.599659 0.10394
H_ H_ 0.540072 0.276632 0.943372 0.10394
H_ H_ 0.611457 0.312846 0.479426 0.10394
H_ H_ 0.722207 0.244037 0.599216 0.10394
H_ H_ 0.763062 0.196156 0.671901 0.10394
H_ H_ 0.732757 0.330758 0.770985 0.10394
H_ H_ 0.686985 0.373377 0.695635 0.10394
H_ H_ 0.723179 0.357853 0.946284 0.10394
H_ H_ 0.773434 0.374155 0.876264 0.10394
H_ H_ 0.900881 0.403023 0.991067 0.10394
H_ H_ 0.811952 0.395948 0.662962 0.10394
H_ H_ 0.737281 0.443026 0.701961 0.10394
H_ H_ 0.838388 0.0494453 0.782508 0.10394
H_ H_ 0.907363 0.503273 0.734995 0.10394
H_ H_ 0.512305 0.378192 0.6922 0.10394
H_ H_ 0.55445 0.29908 0.737506 0.10394
H_ H_ 0.912878 0.23751 0.699467 0.10394
H_ H_ 0.870768 0.324069 0.672687 0.10394
H_ H_ 0.960327 0.0510551 0.620158 0.10394
H_ H_ 0.516514 0.121175 0.605845 0.10394
H_ H_ 0.647547 0.00643386 0.597531 0.10394
H_ H_ 0.947238 0.155145 0.904314 0.10394
H_ H_ 0.514547 0.182601 0.951127 0.10394
H_ H_ 0.915662 0.265273 0.557518 0.10394
H_ H_ 0.849865 0.23996 -0.005819000000000019 0.10394
H_ H_ 0.745357 0.179828 0.879726 0.10394
H_ H_ 0.701152 0.228616 0.806655 0.10394
H_ H_ 0.843505 0.217135 0.742337 0.10394
H_ H_ 0.889852 0.194301 0.828441 0.10394
H_ H_ 0.78781 0.120258 0.558538 0.10394
H_ H_ 0.734228 0.123154 0.624578 0.10394
H_ H_ 0.606167 0.0963554 0.514107 0.10394
C_ C_ 0.680487 0.0952501 0.808032 0.18167
C_ C_ 0.727119 0.0766675 0.78989 -0.15533
C_ C_ 0.739775 0.0225281 0.785816 0.02923
C_ C_ 0.710322 0.486859 0.79961 -0.15533
C_ C_ 0.660514 0.00920741 0.819246 0.18167
C_ C_ 0.525114 0.127744 0.766655 0.18167
C_ C_ 0.0130952 0.17806 0.727988 -0.15533
C_ C_ 0.500431 0.218754 0.75694 0.02923
C_ C_ 0.522968 0.226658 0.80822 -0.15533
C_ C_ 0.554887 0.186245 0.829145 0.18167
C_ C_ 0.51031 0.0452356 0.868136 0.69207
C_ C_ 0.979499 0.509359 0.881038 0.02923
C_ C_ 0.998951 0.458152 0.881015 -0.15533
C_ C_ 0.96909 0.419698 0.890523 -0.15533
C_ C_ 0.91536 0.430049 0.895119 0.02923
C_ C_ 0.897619 0.479313 0.903057 -0.15533
C_ C_ 0.927815 0.519871 0.894502 0.02923
C_ C_ 0.904696 0.0653053 0.883593 0.69207
C_ C_ 0.904821 0.334004 0.888242 0.69661
C_ C_ 0.569652 0.291967 0.592411 0.18167
C_ C_ 0.524536 0.27021 0.574068 -0.15533
C_ C_ 0.508396 0.269465 0.524128 0.02923
C_ C_ 0.547215 0.283186 0.983706 -0.15533
C_ C_ 0.587943 0.300638 0.507774 0.18167
C_ C_ 0.721463 0.260647 0.638341 0.18167
C_ C_ 0.745686 0.233655 0.67841 -0.15533
C_ C_ 0.747626 0.259248 0.727961 0.02923
C_ C_ 0.727261 0.309573 0.73354 -0.15533
C_ C_ 0.700398 0.333916 0.691636 0.18167
C_ C_ 0.738897 0.362403 0.543555 0.69207
C_ C_ 0.777809 0.377412 1.00815847 0.02923
C_ C_ 0.760973 0.370412 0.957613 -0.15533
C_ C_ 0.788378 0.380521 0.917355 -0.15533
C_ C_ 0.840929 0.388808 0.927972 0.02923
C_ C_ 0.860588 0.392137 0.981006 -0.15533
C_ C_ 0.832015 0.387423 0.0220212 0.02923
C_ C_ 0.847548 0.385904 0.567769 0.69207
C_ C_ 0.851566 0.39046 0.830441 0.69661
C_ C_ 0.813886 0.429971 0.687751 0.18167
C_ C_ 0.775054 0.452397 0.714747 -0.15533
C_ C_ 0.779585 0.496563 0.745419 0.02923
C_ C_ 0.831662 0.0132037 0.762103 -0.15533
C_ C_ 0.868034 0.49016 0.727464 0.18167
C_ C_ 0.990342 0.352238 0.69982 0.18167
C_ C_ 0.513412 0.303189 0.724987 -0.15533
C_ C_ 0.980903 0.269996 0.731292 0.02923
C_ C_ 0.933587 0.271717 0.704075 -0.15533
C_ C_ 0.910599 0.318215 0.68235 0.18167
C_ C_ 0.984703 0.457159 0.625772 0.69207
C_ C_ 0.521859 0.992904 0.613699 0.02923
C_ C_ 0.503682 0.0436596 0.609431 -0.15533
C_ C_ 0.534814 0.0825071 0.605205 -0.15533
C_ C_ 0.58865 0.0695446 0.606735 0.02923
C_ C_ 0.607095 0.0174163 0.606646 -0.15533
C_ C_ 0.57417 0.97816 0.605524 0.02923
C_ C_ 0.604364 0.415466 0.601442 0.69207
C_ C_ 0.600389 0.164658 0.618146 0.69661
C_ C_ 0.944884 0.17696 0.93918 0.18167
C_ C_ 0.98665 0.197654 0.96526 -0.15533
C_ C_ 0.975489 0.24092 -0.0011849999999999916 0.02923
C_ C_ 0.921974 0.243192 0.520094 -0.15533
C_ C_ 0.886564 0.223674 0.990524 0.18167
C_ C_ 0.767376 0.190312 0.850135 0.18167
C_ C_ 0.743344 0.218494 0.809235 -0.15533
C_ C_ 0.772672 0.23428 0.773834 0.02923
C_ C_ 0.823966 0.216756 0.775389 -0.15533
C_ C_ 0.848699 0.192948 0.82038 0.18167
C_ C_ 0.766356 0.124184 0.95364 0.69207
C_ C_ 0.726699 0.121488 0.497369 0.02923
C_ C_ 0.748606 0.119626 0.548593 -0.15533
C_ C_ 0.718368 0.111367 0.587944 -0.15533
C_ C_ 0.665328 0.110173 0.577179 0.02923
C_ C_ 0.64401 0.105717 0.52411 -0.15533
C_ C_ 0.675332 0.109696 0.485537 0.02923
C_ C_ 0.65338 0.109306 0.926363 0.69207
C_ C_ 0.654322 0.104461 0.673547 0.69661
C_ C_ 0.877565 0.387578 0.886448 -0.30787
C_ C_ 0.627435 0.110515 0.619071 -0.30787
N_ N_ 0.646011 0.0607959 0.816683 -0.32189
N_ N_ 0.556161 0.137957 0.810169 -0.32189
N_ N_ 0.601496 0.303442 0.560131 -0.32189
N_ N_ 0.698812 0.308763 0.644669 -0.32189
N_ N_ 0.861167 0.44703 0.697591 -0.32189
N_ N_ 0.941005 0.353957 0.676363 -0.32189
N_ N_ 0.897377 0.18628 0.954364 -0.32189
N_ N_ 0.819672 0.177862 0.855501 -0.32189
O_ O_ 0.00861405 0.0831038 0.887925 -0.63271
O_ O_ 0.549876 0.0330955 0.842138 -0.57982
O_ O_ 0.902228 0.0915562 0.843771 -0.63271
O_ O_ 0.880275 0.0870434 0.921828 -0.57982
O_ O_ 0.744423 0.384286 0.590621 -0.63271
O_ O_ 0.705882 0.329698 0.532995 -0.57982
O_ O_ 0.852078 0.340138 0.587091 -0.63271
O_ O_ 0.868368 0.422815 0.592972 -0.57982
O_ O_ 0.494787 0.400137 0.599077 -0.63271
O_ O_ 0.949416 0.464979 0.656378 -0.57982
O_ O_ 0.60213 0.387042 0.6398 -0.63271
O_ O_ 0.641488 0.401239 0.572684 -0.57982
O_ O_ 0.769323 0.0934641 0.913579 -0.63271
O_ O_ 0.80252 0.154287 0.965094 -0.57982
O_ O_ 0.65658 0.150479 0.901853 -0.63271
O_ O_ 0.616888 0.0822756 0.912881 -0.57982
F_ F_ 0.940554 0.326004 0.931059 -0.20885
F_ F_ 0.928876 0.319657 0.844683 -0.20885
F_ F_ 0.871667 0.297267 0.887019 -0.20885
F_ F_ 0.815904 0.430415 0.827476 -0.20885
F_ F_ 0.828744 0.346359 0.811905 -0.20885
F_ F_ 0.885739 0.400481 0.796267 -0.20885
F_ F_ 0.575253 0.172113 0.572028 -0.20885
F_ F_ 0.564313 0.179138 0.64967 -0.20885
F_ F_ 0.635008 0.198892 0.622659 -0.20885
F_ F_ 0.684094 0.0570283 0.674794 -0.20885
F_ F_ 0.679413 0.144228 0.695326 -0.20885
F_ F_ 0.615392 0.104895 0.70317 -0.20885
Zn Zn 0.580853 0.584339 0.345746 0.83971
Zn Zn 0.658507 0.849647 0.0860574 0.83971
Zn Zn 0.909795 0.917975 0.158431 0.83971
Zn Zn 0.841067 0.652017 0.419477 0.83971
H_ H_ 0.661671 0.639175 0.304376 0.10394
H_ H_ 0.73967 0.603645 0.262203 0.10394
H_ H_ 0.707887 0.948277 0.276022 0.10394
H_ H_ 0.633348 0.488605 0.329804 0.10394
H_ H_ 0.00950703 0.593184 0.260427 0.10394
H_ H_ 0.978156 0.665652 0.203485 0.10394
H_ H_ 0.538361 0.77429 0.333415 0.10394
H_ H_ 0.556163 0.697629 0.380997 0.10394
H_ H_ 0.526464 0.946145 0.344632 0.10394
H_ H_ 0.981506 0.882224 0.385082 0.10394
H_ H_ 0.858527 0.992002 0.422111 0.10394
H_ H_ 0.577964 0.807772 0.131821 0.10394
H_ H_ 1.00428458 0.759309 0.102666 0.10394
H_ H_ 0.535438 0.778597 0.45135 0.10394
H_ H_ 0.597939 0.85304 0.980899 0.10394
H_ H_ 0.700486 0.74683 0.0957603 0.10394
H_ H_ 0.746905 0.693726 0.167153 0.10394
H_ H_ 0.729851 0.826996 0.26812 0.10394
H_ H_ 0.683215 0.877956 0.192366 0.10394
H_ H_ 0.717754 0.859883 0.442587 0.10394
H_ H_ 0.770246 0.878382 0.379869 0.10394
H_ H_ 0.899034 0.896055 0.488002 0.10394
H_ H_ 0.80972 0.903795 0.159344 0.10394
H_ H_ 0.735607 0.951155 0.19241 0.10394
H_ H_ 0.829846 0.551864 0.283172 0.10394
H_ H_ 0.901184 1.0136631 0.226837 0.10394
H_ H_ 0.521124 0.892392 0.194182 0.10394
H_ H_ 0.555146 0.824588 0.249452 0.10394
H_ H_ 0.897353 0.759813 0.240859 0.10394
H_ H_ 0.862556 0.835776 0.199985 0.10394
H_ H_ 0.966335 0.556689 0.11495 0.10394
H_ H_ 0.507828 0.618352 0.102574 0.10394
H_ H_ 0.636601 0.506821 0.079116 0.10394
H_ H_ 0.948799 0.656742 0.405519 0.10394
H_ H_ 0.516034 0.676669 0.463997 0.10394
H_ H_ 0.917177 0.782309 0.0495243 0.10394
H_ H_ 0.842213 0.7304 0.502937 0.10394
H_ H_ 0.738128 0.690063 0.383166 0.10394
H_ H_ 0.697562 0.742354 0.311533 0.10394
H_ H_ 0.837008 0.709258 0.241615 0.10394
H_ H_ 0.880289 0.679094 0.324062 0.10394
H_ H_ 0.780665 0.627198 0.0628416 0.10394
H_ H_ 0.724089 0.610954 0.122468 0.10394
H_ H_ 0.606156 0.588905 0.00370274 0.10394
C_ C_ 0.672559 0.596585 0.298944 0.18167
C_ C_ 0.7161 0.576986 0.274456 -0.15533
C_ C_ 0.732826 0.523874 0.27435 0.02923
C_ C_ 0.698962 0.988167 0.283481 -0.15533
C_ C_ 0.653243 0.511893 0.308971 0.18167
C_ C_ 0.519493 0.643375 0.267029 0.18167
C_ C_ -0.004626000000000019 0.673672 0.24317 -0.15533
C_ C_ 0.507974 0.7356 0.264461 0.02923
C_ C_ 0.528959 0.738617 0.314917 -0.15533
C_ C_ 0.545413 0.693742 0.340884 0.18167
C_ C_ 0.505049 0.538946 0.364772 0.69207
C_ C_ 0.9689 0.009418 0.371388 0.02923
C_ C_ -0.009522999999999948 0.956695 0.368955 -0.15533
C_ C_ 0.962922 0.920778 0.383999 -0.15533
C_ C_ 0.913468 0.93084 0.399358 0.02923
C_ C_ 0.895327 0.982675 0.408367 -0.15533
C_ C_ 0.919002 0.0226324 0.387796 0.02923
C_ C_ 0.894881 0.567638 0.387518 0.69207
C_ C_ 0.90039 0.833757 0.378407 0.69661
C_ C_ 0.568015 0.805658 0.0886924 0.18167
C_ C_ 0.524942 0.784108 0.0705896 -0.15533
C_ C_ 0.511518 0.778597 0.0168422 0.02923
C_ C_ 0.547731 0.779255 0.492627 -0.15533
C_ C_ 0.583895 0.825843 0.00632365 0.18167
C_ C_ 0.709045 0.764178 0.135974 0.18167
C_ C_ 0.735521 0.73504 0.174884 -0.15533
C_ C_ 0.742047 0.758776 0.224486 0.02923
C_ C_ 0.720472 0.809886 0.231686 -0.15533
C_ C_ 0.698776 0.837567 0.188303 0.18167
C_ C_ 0.744878 0.872057 0.0541362 0.69207
C_ C_ 0.774793 0.874466 0.505799 0.02923
C_ C_ 0.755835 0.871361 0.454953 -0.15533
C_ C_ 0.785532 0.882509 0.417813 -0.15533
C_ C_ 0.837984 0.891039 0.428702 0.02923
C_ C_ 0.859247 0.890354 0.480694 -0.15533
C_ C_ 0.828038 0.879504 0.517556 0.02923
C_ C_ 0.855659 0.884057 0.0794322 0.69207
C_ C_ 0.846961 0.903512 0.333005 0.69661
C_ C_ 0.813805 0.935955 0.186742 0.18167
C_ C_ 0.770399 0.962249 0.204847 -0.15533
C_ C_ 0.77682 1.0018253 0.241083 0.02923
C_ C_ 0.828046 0.517722 0.25887 -0.15533
C_ C_ 0.865573 0.997006 0.227892 0.18167
C_ C_ 0.987436 0.848194 0.197746 0.18167
C_ C_ 0.516646 0.82312 0.232569 -0.15533
C_ C_ 0.976227 0.771537 0.240397 0.02923
C_ C_ 0.923456 0.784888 0.232631 -0.15533
C_ C_ 0.903089 0.82613 0.207166 0.18167
C_ C_ 0.987513 0.953532 0.126733 0.69207
C_ C_ 0.522764 0.489845 0.120114 0.02923
C_ C_ 0.499182 0.539923 0.114038 -0.15533
C_ C_ 0.52615 0.579298 0.101677 -0.15533
C_ C_ 0.580473 0.567698 0.0949056 0.02923
C_ C_ 0.6007 0.515692 0.0931962 -0.15533
C_ C_ 0.57419 0.478341 0.111267 0.02923
C_ C_ 0.603187 0.93269 0.12034 0.69207
C_ C_ 0.588147 0.662748 0.102279 0.69661
C_ C_ 0.93849 0.686319 0.433363 0.18167
C_ C_ 0.977218 0.709789 0.460584 -0.15533
C_ C_ 0.968172 0.746022 0.498524 0.02923
C_ C_ 0.923303 0.750109 1.0203947 -0.15533
C_ C_ 0.878299 0.731219 0.485306 0.18167
C_ C_ 0.760741 0.701655 0.355005 0.18167
C_ C_ 0.736052 0.724311 0.310268 -0.15533
C_ C_ 0.765049 0.731291 0.269468 0.02923
C_ C_ 0.815438 0.710053 0.272773 -0.15533
C_ C_ 0.838299 0.688443 0.317076 0.18167
C_ C_ 0.759684 0.619491 0.450202 0.69207
C_ C_ 0.728397 0.616607 0.995186 0.02923
C_ C_ 0.741647 0.621025 0.049301 -0.15533
C_ C_ 0.70829 0.61594 0.0846814 -0.15533
C_ C_ 0.660023 0.604047 0.0677496 0.02923
C_ C_ 0.643946 0.599463 0.0140599 -0.15533
C_ C_ 0.677698 0.605715 0.977143 0.02923
C_ C_ 0.647718 0.603553 0.420455 0.69207
C_ C_ 0.63572 0.602378 0.163343 0.69661
C_ C_ 0.875297 0.889314 0.385406 -0.30787
C_ C_ 0.617714 0.607422 0.106494 -0.30787
N_ N_ 0.638704 0.563739 0.309924 -0.32189
N_ N_ 0.542939 0.647722 0.316773 -0.32189
N_ N_ 0.601565 0.819663 0.0558505 -0.32189
N_ N_ 0.691084 0.812857 0.143303 -0.32189
N_ N_ 0.859445 0.953141 0.199211 -0.32189
N_ N_ 0.934168 0.85845 0.190772 -0.32189
N_ N_ 0.888926 0.697474 0.445838 -0.32189
N_ N_ 0.810048 0.682582 0.356748 -0.32189
O_ O_ 0.00350626 0.585514 0.400362 -0.63271
O_ O_ 0.544623 0.531753 0.335679 -0.57982
O_ O_ 0.903627 0.592488 0.350085 -0.63271
O_ O_ 0.874445 0.590767 0.427457 -0.57982
O_ O_ 0.742884 0.904365 0.0939279 -0.63271
O_ O_ 0.706096 0.845177 0.0431608 -0.57982
O_ O_ 0.857672 0.845006 0.10692 -0.63271
O_ O_ 0.876882 0.923757 0.0993283 -0.57982
O_ O_ 0.49407 0.918037 0.101236 -0.63271
O_ O_ 0.956757 0.962761 0.163172 -0.57982
O_ O_ 0.595877 0.906221 0.158981 -0.63271
O_ O_ 0.641383 0.91622 0.0924914 -0.57982
O_ O_ 0.757501 0.594414 0.404196 -0.63271
O_ O_ 0.794698 0.651631 0.463946 -0.57982
O_ O_ 0.649678 0.645787 0.397475 -0.63271
O_ O_ 0.607415 0.577259 0.407731 -0.57982
F_ F_ 0.936733 0.823481 0.418041 -0.20885
F_ F_ 0.924554 0.830596 0.3367 -0.20885
F_ F_ 0.86908 0.795098 0.376051 -0.20885
F_ F_ 0.809635 0.943213 0.33866 -0.20885
F_ F_ 0.825576 0.863682 0.306439 -0.20885
F_ F_ 0.879615 0.917544 0.30113 -0.20885
F_ F_ 0.556306 0.66508 0.0558995 -0.20885
F_ F_ 0.559557 0.675226 0.142426 -0.20885
F_ F_ 0.617579 0.701714 0.0998373 -0.20885
F_ F_ 0.667389 0.556863 0.166725 -0.20885
F_ F_ 0.661806 0.639943 0.186345 -0.20885
F_ F_ 0.596255 0.602154 0.193601 -0.20885
Zn Zn 0.590658 0.582798 0.842884 0.83971
Zn Zn 0.657907 0.846551 0.585789 0.83971
Zn Zn 0.906794 0.915287 0.657645 0.83971
Zn Zn 0.83706 0.656155 0.916404 0.83971
H_ H_ 0.663448 0.629592 0.78965 0.10394
H_ H_ 0.73985 0.597773 0.753066 0.10394
H_ H_ 0.716539 0.949927 0.803942 0.10394
H_ H_ 0.640239 0.486062 0.835263 0.10394
H_ H_ 0.0344662 0.596276 0.75112 0.10394
H_ H_ 1.00204167 0.672354 0.70177 0.10394
H_ H_ 0.543081 0.770317 0.828649 0.10394
H_ H_ 0.585752 0.697472 0.8697 0.10394
H_ H_ 0.533087 0.942906 0.862802 0.10394
H_ H_ 0.983567 0.872723 0.869715 0.10394
H_ H_ 0.866604 0.984056 0.918929 0.10394
H_ H_ 0.571516 0.808262 0.636176 0.10394
H_ H_ 0.00574306 0.758749 0.593071 0.10394
H_ H_ 0.526452 0.801533 0.944594 0.10394
H_ H_ 0.614603 0.81668 0.486713 0.10394
H_ H_ 0.718985 0.753717 0.596901 0.10394
H_ H_ 0.744356 0.699664 0.669905 0.10394
H_ H_ 0.724424 0.833751 0.769249 0.10394
H_ H_ 0.682162 0.8795 0.696379 0.10394
H_ H_ 0.718274 0.870434 0.952804 0.10394
H_ H_ 0.774545 0.882019 0.882746 0.10394
H_ H_ 0.904271 0.897978 0.998792 0.10394
H_ H_ 0.802425 0.906702 0.658431 0.10394
H_ H_ 0.732061 0.950077 0.707851 0.10394
H_ H_ 0.833695 0.550875 0.77619 0.10394
H_ H_ 0.90513 1.00202 0.735126 0.10394
H_ H_ 0.512509 0.886009 0.692748 0.10394
H_ H_ 0.557708 0.813057 0.742501 0.10394
H_ H_ 0.914087 0.742574 0.722868 0.10394
H_ H_ 0.870726 0.822333 0.682016 0.10394
H_ H_ 0.959059 0.557509 0.633669 0.10394
H_ H_ 0.510632 0.606584 0.583474 0.10394
H_ H_ 0.645343 0.5042 0.585319 0.10394
H_ H_ 0.941961 0.666153 0.902428 0.10394
H_ H_ 0.515753 0.710382 0.931127 0.10394
H_ H_ 0.90738 0.782952 0.54393 0.10394
H_ H_ 0.846182 0.727464 1.0124678 0.10394
H_ H_ 0.738084 0.702268 0.887643 0.10394
H_ H_ 0.694705 0.720586 0.801531 0.10394
H_ H_ 0.839653 0.729168 0.744171 0.10394
H_ H_ 0.878879 0.683543 0.817019 0.10394
H_ H_ 0.78249 0.607402 0.552808 0.10394
H_ H_ 0.723315 0.597165 0.618958 0.10394
H_ H_ 0.599417 0.588872 0.498173 0.10394
C_ C_ 0.676487 0.589675 0.792748 0.18167
C_ C_ 0.719369 0.571986 0.772276 -0.15533
C_ C_ 0.736067 0.519429 0.772853 0.02923
C_ C_ 0.707379 0.990018 0.803606 -0.15533
C_ C_ 0.664012 0.50865 0.81889 0.18167
C_ C_ 0.527866 0.635231 0.767191 0.18167
C_ C_ 0.0062854 0.676378 0.742437 -0.15533
C_ C_ 0.511557 0.727932 0.761672 0.02923
C_ C_ 0.54169 0.733493 0.8087 -0.15533
C_ C_ 0.561168 0.689938 0.835395 0.18167
C_ C_ 0.505251 0.54998 0.868217 0.69207
C_ C_ 0.978718 -0.000910081 0.875055 0.02923
C_ C_ 0.00197761 0.947966 0.878271 -0.15533
C_ C_ 0.969515 0.909042 0.879174 -0.15533
C_ C_ 0.918441 0.921694 0.893339 0.02923
C_ C_ 0.899704 0.973527 0.898551 -0.15533
C_ C_ 0.928673 0.0117881 0.885161 0.02923
C_ C_ 0.901441 0.572609 0.889031 0.69207
C_ C_ 0.905657 0.8251 0.897093 0.69661
C_ C_ 0.56276 0.802547 0.593937 0.18167
C_ C_ 0.52124 0.777793 0.575425 -0.15533
C_ C_ 0.512455 0.765949 0.524449 0.02923
C_ C_ 0.537744 0.80616 0.986368 -0.15533
C_ C_ 0.587043 0.809298 0.511625 0.18167
C_ C_ 0.713772 0.767412 0.635632 0.18167
C_ C_ 0.734343 0.737882 0.67646 -0.15533
C_ C_ 0.739626 0.762215 0.725764 0.02923
C_ C_ 0.717625 0.813914 0.733674 -0.15533
C_ C_ 0.701042 0.841367 0.690276 0.18167
C_ C_ 0.739316 0.867209 0.545296 0.69207
C_ C_ 0.780141 0.87682 1.014451 0.02923
C_ C_ 0.760296 0.874763 0.962103 -0.15533
C_ C_ 0.792742 0.880142 0.92313 -0.15533
C_ C_ 0.844238 0.889873 0.932999 0.02923
C_ C_ 0.863597 0.892999 0.987178 -0.15533
C_ C_ 0.832725 0.883715 0.025943 0.02923
C_ C_ 0.849874 0.879058 0.571752 0.69207
C_ C_ 0.8545 0.880797 0.835483 0.69661
C_ C_ 0.809627 0.937373 0.687646 0.18167
C_ C_ 0.771134 0.962953 0.714254 -0.15533
C_ C_ 0.782259 -0.000622627 0.75452 0.02923
C_ C_ 0.826993 0.516776 0.75182 -0.15533
C_ C_ 0.869716 0.986315 0.734525 0.18167
C_ C_ 0.988781 0.857441 0.712722 0.18167
C_ C_ 0.517913 0.812929 0.727261 -0.15533
C_ C_ 0.985076 0.770321 0.738462 0.02923
C_ C_ 0.93313 0.775007 0.721229 -0.15533
C_ C_ 0.909517 0.820569 0.700364 0.18167
C_ C_ 0.985133 0.94716 0.622472 0.69207
C_ C_ 0.52557 0.481119 0.606985 0.02923
C_ C_ 0.501097 0.52905 0.596581 -0.15533
C_ C_ 0.53138 0.5687 0.590011 -0.15533
C_ C_ 0.583759 0.561898 0.594694 0.02923
C_ C_ 0.606567 0.511669 0.594698 -0.15533
C_ C_ 0.578908 0.470453 0.60506 0.02923
C_ C_ 0.599865 0.928993 0.612406 0.69207
C_ C_ 0.588949 0.65901 0.596304 0.69661
C_ C_ 0.9374 0.681866 0.939042 0.18167
C_ C_ 0.978066 0.705522 0.963944 -0.15533
C_ C_ 0.972119 0.740659 1.00249723 0.02923
C_ C_ 0.91754 0.758346 0.511709 -0.15533
C_ C_ 0.88347 0.722836 0.997803 0.18167
C_ C_ 0.760933 0.706322 0.855128 0.18167
C_ C_ 0.735791 0.721389 0.811063 -0.15533
C_ C_ 0.763736 0.73263 0.76938 0.02923
C_ C_ 0.816523 0.718371 0.772578 -0.15533
C_ C_ 0.839834 0.69879 0.818252 0.18167
C_ C_ 0.765323 0.626469 0.957505 0.69207
C_ C_ 0.724342 0.607542 0.489252 0.02923
C_ C_ 0.743564 0.60533 0.542661 -0.15533
C_ C_ 0.707884 0.600801 0.578036 -0.15533
C_ C_ 0.654599 0.602868 0.563877 0.02923
C_ C_ 0.637597 0.599108 0.512038 -0.15533
C_ C_ 0.671777 0.60366 0.473647 0.02923
C_ C_ 0.657609 0.604599 0.922233 0.69207
C_ C_ 0.638493 0.602871 0.661428 0.69661
C_ C_ 0.880314 0.880551 0.890214 -0.30787
C_ C_ 0.616735 0.606524 0.604645 -0.30787
N_ N_ 0.647579 0.558275 0.813947 -0.32189
N_ N_ 0.559388 0.642077 0.81206 -0.32189
N_ N_ 0.600282 0.8081 0.562635 -0.32189
N_ N_ 0.697077 0.817647 0.643095 -0.32189
N_ N_ 0.857896 0.951098 0.695707 -0.32189
N_ N_ 0.938569 0.860935 0.69617 -0.32189
N_ N_ 0.89001 0.692963 0.952736 -0.32189
N_ N_ 0.809712 0.687517 0.85536 -0.32189
O_ O_ 1.0137798 0.591097 0.902165 -0.63271
O_ O_ 0.541884 0.537572 0.837256 -0.57982
O_ O_ 0.887758 0.592161 0.842586 -0.63271
O_ O_ 0.876176 0.595054 0.925949 -0.57982
O_ O_ 0.736983 0.90086 0.583262 -0.63271
O_ O_ 0.701054 0.840348 0.533613 -0.57982
O_ O_ 0.85164 0.836763 0.594777 -0.63271
O_ O_ 0.875883 0.914618 0.594151 -0.57982
O_ O_ 0.494302 0.909567 0.598563 -0.63271
O_ O_ 0.958665 0.95357 0.661873 -0.57982
O_ O_ 0.593405 0.90362 0.652675 -0.63271
O_ O_ 0.631584 0.908063 0.578492 -0.57982
O_ O_ 0.771991 0.593942 0.91952 -0.63271
O_ O_ 0.79394 0.663449 0.965018 -0.57982
O_ O_ 0.666656 0.63931 0.893241 -0.63271
O_ O_ 0.621762 0.576228 0.908223 -0.57982
F_ F_ 0.940361 0.822371 0.94209 -0.20885
F_ F_ 0.934666 0.807204 0.860305 -0.20885
F_ F_ 0.870976 0.79174 0.901272 -0.20885
F_ F_ 0.826399 0.92641 0.830107 -0.20885
F_ F_ 0.825377 0.84157 0.815715 -0.20885
F_ F_ 0.892477 0.879318 0.801066 -0.20885
F_ F_ 0.556078 0.664322 0.551197 -0.20885
F_ F_ 0.562439 0.675003 0.639428 -0.20885
F_ F_ 0.621785 0.696124 0.59535 -0.20885
F_ F_ 0.670015 0.558176 0.670863 -0.20885
F_ F_ 0.660967 0.645701 0.681487 -0.20885
F_ F_ 0.597064 0.598334 0.690912 -0.20885
_cell_length_a 26.508
_cell_length_b 26.37200000322088
_cell_length_c 26.311999743092066
_cell_angle_alpha 93.74100058972084
_cell_angle_beta 96.04100104955006
_cell_angle_gamma 83.6869992558723
_symmetry_space_group_name_H-M         'P 1'
_symmetry_Int_Tables_number            1
loop_
_symmetry_equiv_pos_as_xyz
   'x, y, z'
                         
loop_
_atom_site_label
_atom_site_type_symbol
_atom_site_fract_x 
_atom_site_fract_y
_atom_site_fract_z
_atom_site_charge
Zn Zn 0.089604 0.0832538 0.338849 0.83971
Zn Zn 0.164182 0.349238 0.0815461 0.83971
Zn Zn 0.411457 0.4154 0.157197 0.83971
Zn Zn 0.337163 0.151893 0.415324 0.83971
H_ H_ 0.163425 0.12868 0.298512 0.10394
H_ H_ 0.250638 0.10161 0.278685 0.10394
H_ H_ 0.193292 0.450057 0.264152 0.10394
H_ H_ 0.131818 0.980552 0.3079 0.10394
H_ H_ 0.527217 0.0959114 0.255306 0.10394
H_ H_ 0.487575 0.168382 0.205663 0.10394
H_ H_ 0.0312967 0.271739 0.344696 0.10394
H_ H_ 0.0723909 0.19323 0.381768 0.10394
H_ H_ 0.0354247 0.443698 0.397561 0.10394
H_ H_ 0.479169 0.371298 0.383834 0.10394
H_ H_ 0.349346 0.479209 0.397289 0.10394
H_ H_ 0.0758761 0.320668 0.133353 0.10394
H_ H_ 0.507448 0.25978 0.100663 0.10394
H_ H_ 0.0273907 0.284894 0.446826 0.10394
H_ H_ 0.12179 0.320274 0.984328 0.10394
H_ H_ 0.225309 0.252184 0.0987077 0.10394
H_ H_ 0.261836 0.209906 0.176264 0.10394
H_ H_ 0.225024 0.34651 0.270539 0.10394
H_ H_ 0.186855 0.386701 0.187753 0.10394
H_ H_ 0.214475 0.357358 0.436397 0.10394
H_ H_ 0.26709 0.379102 0.370521 0.10394
H_ H_ 0.391131 0.397563 0.484548 0.10394
H_ H_ 0.306729 0.393483 0.166346 0.10394
H_ H_ 0.226777 0.450352 0.188539 0.10394
H_ H_ 0.334033 0.0205278 0.293088 0.10394
H_ H_ 0.399758 0.494748 0.237479 0.10394
H_ H_ 0.0203239 0.386386 0.19205 0.10394
H_ H_ 0.0573339 0.315764 0.246312 0.10394
H_ H_ 0.406781 0.247811 0.240083 0.10394
H_ H_ 0.363609 0.326157 0.194356 0.10394
H_ H_ 0.46448 0.0642667 0.121428 0.10394
H_ H_ 0.0145353 0.118065 0.108584 0.10394
H_ H_ 0.149054 0.00935421 0.101113 0.10394
H_ H_ 0.440286 0.156756 0.400947 0.10394
H_ H_ 0.0125827 0.191957 0.449903 0.10394
H_ H_ 0.415878 0.284369 0.0368003 0.10394
H_ H_ 0.335197 0.232628 0.503948 0.10394
H_ H_ 0.236704 0.21046 0.389239 0.10394
H_ H_ 0.207585 0.265388 0.32256 0.10394
H_ H_ 0.334019 0.214188 0.237247 0.10394
H_ H_ 0.371606 0.170883 0.315667 0.10394
H_ H_ 0.290918 0.118816 0.0501668 0.10394
H_ H_ 0.231238 0.108449 0.112977 0.10394
H_ H_ 0.10958 0.0823928 -0.0009209999999999496 0.10394
C_ C_ 0.175465 0.0911895 0.293427 0.18167
C_ C_ 0.22268 0.0731365 0.278574 -0.15533
C_ C_ 0.233602 0.0218662 0.265441 0.02923
C_ C_ 0.189361 0.488049 0.27528 -0.15533
C_ C_ 0.153396 0.00699651 0.292727 0.18167
C_ C_ 0.0190049 0.14447 0.272877 0.18167
C_ C_ 0.507449 0.174344 0.243914 -0.15533
C_ C_ 0.0118068 0.235912 0.271728 0.02923
C_ C_ 0.0345012 0.236807 0.323627 -0.15533
C_ C_ 0.0558443 0.190825 0.342751 0.18167
C_ C_ 0.00476222 0.0483079 0.364034 0.69207
C_ C_ 0.468931 0.498908 0.364774 0.02923
C_ C_ 0.486485 0.445218 0.361895 -0.15533
C_ C_ 0.457872 0.408693 0.377659 -0.15533
C_ C_ 0.406482 0.420403 0.386399 0.02923
C_ C_ 0.387292 0.472018 0.388035 -0.15533
C_ C_ 0.417241 0.51146 0.37738 0.02923
C_ C_ 0.396412 0.0682412 0.385826 0.69207
C_ C_ 0.397388 0.323989 0.388763 0.69661
C_ C_ 0.0710183 0.309735 0.092491 0.18167
C_ C_ 0.0265481 0.287535 0.0722774 -0.15533
C_ C_ 0.0160148 0.274726 0.0198157 0.02923
C_ C_ 0.0398478 0.290694 0.48796 -0.15533
C_ C_ 0.0961445 0.309154 0.00853238 0.18167
C_ C_ 0.222255 0.272464 0.135482 0.18167
C_ C_ 0.238879 0.245814 0.180307 -0.15533
C_ C_ 0.243711 0.272668 0.228698 0.02923
C_ C_ 0.224453 0.324491 0.232088 -0.15533
C_ C_ 0.200205 0.3475 0.187027 0.18167
C_ C_ 0.244085 0.368465 0.0423342 0.69207
C_ C_ 0.270468 0.372221 0.500731 0.02923
C_ C_ 0.253206 0.366886 0.447951 -0.15533
C_ C_ 0.283625 0.378943 0.410375 -0.15533
C_ C_ 0.333254 0.387775 0.422806 0.02923
C_ C_ 0.352289 0.391094 0.473698 -0.15533
C_ C_ 0.322372 0.383763 0.514358 0.02923
C_ C_ 0.351156 0.387821 0.0709963 0.69207
C_ C_ 0.34666 0.380561 0.323918 0.69661
C_ C_ 0.307523 0.433981 0.176959 0.18167
C_ C_ 0.265336 0.460882 0.198478 -0.15533
C_ C_ 0.27206 0.496205 0.238249 0.02923
C_ C_ 0.325732 0.00847717 0.25431 -0.15533
C_ C_ 0.36222 0.485907 0.226219 0.18167
C_ C_ 0.490611 0.351414 0.204866 0.18167
C_ C_ 0.0170954 0.322178 0.239301 -0.15533
C_ C_ 0.483952 0.270716 0.241302 0.02923
C_ C_ 0.431467 0.27499 0.225754 -0.15533
C_ C_ 0.40689 0.321669 0.20498 0.18167
C_ C_ 0.490539 0.449708 0.135126 0.69207
C_ C_ 0.0233026 0.990932 0.120181 0.02923
C_ C_ 0.00299068 0.0408744 0.112839 -0.15533
C_ C_ 0.0345883 0.0800657 0.104886 -0.15533
C_ C_ 0.0858898 0.0697872 0.101013 0.02923
C_ C_ 0.106767 0.0179493 0.103374 -0.15533
C_ C_ 0.0757848 0.978016 0.113656 0.02923
C_ C_ 0.106114 0.432833 0.107671 0.69207
C_ C_ 0.095185 0.164549 0.0894702 0.69661
C_ C_ 0.43099 0.179068 0.435995 0.18167
C_ C_ 0.473871 0.200203 0.464103 -0.15533
C_ C_ 0.465968 0.238202 0.503918 0.02923
C_ C_ 0.421694 0.25255 0.00777138 -0.15533
C_ C_ 0.374929 0.223866 0.492416 0.18167
C_ C_ 0.259706 0.210349 0.35637 0.18167
C_ C_ 0.241428 0.241478 0.31728 -0.15533
C_ C_ 0.266754 0.243481 0.274527 0.02923
C_ C_ 0.312363 0.211671 0.269739 -0.15533
C_ C_ 0.332812 0.18715 0.31191 0.18167
C_ C_ 0.263388 0.113047 0.451734 0.69207
C_ C_ 0.229529 0.11717 0.987437 0.02923
C_ C_ 0.249228 0.114022 0.037064 -0.15533
C_ C_ 0.215227 0.109159 0.0751138 -0.15533
C_ C_ 0.162388 0.104487 0.0624812 0.02923
C_ C_ 0.14651 0.0961452 0.0111419 -0.15533
C_ C_ 0.17751 0.10556 0.973732 0.02923
C_ C_ 0.151501 0.106675 0.420351 0.69207
C_ C_ 0.144161 0.120555 0.158449 0.69661
C_ C_ 0.371654 0.378422 0.379686 -0.30787
C_ C_ 0.123536 0.112334 0.101296 -0.30787
N_ N_ 0.141789 0.0592215 0.299004 -0.32189
N_ N_ 0.0545761 0.146185 0.31424 -0.32189
N_ N_ 0.104185 0.321823 0.0605029 -0.32189
N_ N_ 0.194194 0.318219 0.142615 -0.32189
N_ N_ 0.354348 0.45033 0.188763 -0.32189
N_ N_ 0.438262 0.355923 0.193492 -0.32189
N_ N_ 0.384135 0.193297 0.450268 -0.32189
N_ N_ 0.30704 0.184177 0.354866 -0.32189
O_ O_ 0.504074 0.0878486 0.398331 -0.63271
O_ O_ 0.0411138 0.035755 0.332929 -0.57982
O_ O_ 0.395667 0.0918912 0.342262 -0.63271
O_ O_ 0.370898 0.0901695 0.423685 -0.57982
O_ O_ 0.247558 0.394498 0.0862404 -0.63271
O_ O_ 0.207937 0.339079 0.031916 -0.57982
O_ O_ 0.350057 0.345479 0.0959172 -0.63271
O_ O_ 0.381221 0.423953 0.090962 -0.57982
O_ O_ 0.998268 0.413695 0.0994089 -0.63271
O_ O_ 0.456241 0.460017 0.167384 -0.57982
O_ O_ 0.107556 0.408179 0.150502 -0.63271
O_ O_ 0.136943 0.414496 0.075781 -0.57982
O_ O_ 0.26064 0.0893754 0.40773 -0.63271
O_ O_ 0.291675 0.150948 0.461409 -0.57982
O_ O_ 0.159624 0.145627 0.393179 -0.63271
O_ O_ 0.116309 0.0774179 0.402847 -0.57982
F_ F_ 0.425468 0.323433 0.435675 -0.20885
F_ F_ 0.431536 0.306988 0.353564 -0.20885
F_ F_ 0.363224 0.28697 0.383775 -0.20885
F_ F_ 0.309918 0.422245 0.317217 -0.20885
F_ F_ 0.324131 0.33801 0.30494 -0.20885
F_ F_ 0.381831 0.389627 0.289396 -0.20885
F_ F_ 0.0675749 0.158351 0.0431098 -0.20885
F_ F_ 0.0607334 0.186409 0.122309 -0.20885
F_ F_ 0.128573 0.201818 0.0804554 -0.20885
F_ F_ 0.176478 0.0789918 0.175862 -0.20885
F_ F_ 0.173507 0.159813 0.172046 -0.20885
F_ F_ 0.103644 0.125336 0.19048 -0.20885
Zn Zn 0.0910054 0.0829593 0.83775 0.83971
Zn Zn 0.153201 0.35305 0.58166 0.83971
Zn Zn 0.410441 0.414569 0.651628 0.83971
Zn Zn 0.337853 0.160852 0.91129 0.83971
H_ H_ 0.164973 0.130128 0.795486 0.10394
H_ H_ 0.240363 0.106966 0.75609 0.10394
H_ H_ 0.212804 0.448396 0.790206 0.10394
H_ H_ 0.154264 0.979553 0.831342 0.10394
H_ H_ 0.515178 0.087173 0.758862 0.10394
H_ H_ 0.473335 0.160614 0.702645 0.10394
H_ H_ 0.0151982 0.260192 0.832547 0.10394
H_ H_ 0.0630718 0.187361 0.870846 0.10394
H_ H_ 0.0397144 0.446511 0.877691 0.10394
H_ H_ 0.488254 0.384082 0.889658 0.10394
H_ H_ 0.354031 0.491466 0.906079 0.10394
H_ H_ 0.0776441 0.306283 0.631791 0.10394
H_ H_ 0.500228 0.258398 0.600072 0.10394
H_ H_ 0.0490261 0.276213 0.944918 0.10394
H_ H_ 0.10362 0.335965 0.481789 0.10394
H_ H_ 0.211012 0.260164 0.593066 0.10394
H_ H_ 0.244015 0.210885 0.668035 0.10394
H_ H_ 0.202634 0.338543 0.768354 0.10394
H_ H_ 0.184396 0.388337 0.69335 0.10394
H_ H_ 0.220604 0.37429 0.94006 0.10394
H_ H_ 0.278956 0.372876 0.875891 0.10394
H_ H_ 0.398861 0.408622 0.989117 0.10394
H_ H_ 0.304566 0.39027 0.666461 0.10394
H_ H_ 0.233481 0.448721 0.687139 0.10394
H_ H_ 0.332632 0.061961 0.763094 0.10394
H_ H_ 0.400132 0.507004 0.716802 0.10394
H_ H_ 0.0148997 0.383515 0.696366 0.10394
H_ H_ 0.0479244 0.310909 0.749782 0.10394
H_ H_ 0.400293 0.251149 0.72143 0.10394
H_ H_ 0.370608 0.330925 0.687141 0.10394
H_ H_ 0.463719 0.0561799 0.614245 0.10394
H_ H_ 0.0165137 0.114941 0.60713 0.10394
H_ H_ 0.137984 0.0005900000000000905 0.584972 0.10394
H_ H_ 0.443771 0.153474 0.895907 0.10394
H_ H_ 0.0265982 0.190743 0.952901 0.10394
H_ H_ 0.409867 0.270718 0.552413 0.10394
H_ H_ 0.341285 0.23714 -0.011600999999999972 0.10394
H_ H_ 0.230131 0.21004 0.886354 0.10394
H_ H_ 0.188702 0.262947 0.817409 0.10394
H_ H_ 0.321934 0.225899 0.737662 0.10394
H_ H_ 0.367821 0.18847 0.815708 0.10394
H_ H_ 0.286566 0.102323 0.55273 0.10394
H_ H_ 0.235772 0.0800819 0.612767 0.10394
H_ H_ 0.104058 0.0867417 0.503143 0.10394
C_ C_ 0.17914 0.0918971 0.795838 0.18167
C_ C_ 0.22492 0.0785165 0.778263 -0.15533
C_ C_ 0.239635 0.0255199 0.767942 0.02923
C_ C_ 0.202494 0.489331 0.789397 -0.15533
C_ C_ 0.173443 0.00744619 0.815364 0.18167
C_ C_ 0.0385087 0.132795 0.750706 0.18167
C_ C_ 0.499295 0.166569 0.738092 -0.15533
C_ C_ 0.00241296 0.221062 0.756636 0.02923
C_ C_ 0.0247592 0.224648 0.809024 -0.15533
C_ C_ 0.0531828 0.184006 0.831429 0.18167
C_ C_ 0.0114286 0.039207 0.862404 0.69207
C_ C_ 0.475001 0.512752 0.88419 0.02923
C_ C_ 0.499929 0.462613 0.893608 -0.15533
C_ C_ 0.470675 0.422713 0.897443 -0.15533
C_ C_ 0.417361 0.432262 0.898155 0.02923
C_ C_ 0.396383 0.483647 0.904119 -0.15533
C_ C_ 0.422815 0.525392 0.892424 0.02923
C_ C_ 0.398016 0.0719315 0.883282 0.69207
C_ C_ 0.407392 0.335193 0.885475 0.69661
C_ C_ 0.0695148 0.298295 0.590013 0.18167
C_ C_ 0.0285172 0.270422 0.571958 -0.15533
C_ C_ 0.0120949 0.268562 0.521231 0.02923
C_ C_ 0.0503305 0.289922 0.986882 -0.15533
C_ C_ 0.0810665 0.318359 0.50697 0.18167
C_ C_ 0.212598 0.278749 0.633889 0.18167
C_ C_ 0.229948 0.249225 0.67552 -0.15533
C_ C_ 0.230231 0.2714 0.724821 0.02923
C_ C_ 0.210566 0.322495 0.731499 -0.15533
C_ C_ 0.189385 0.349263 0.687863 0.18167
C_ C_ 0.23218 0.374214 0.53869 0.69207
C_ C_ 0.277587 0.379127 0.00311697 0.02923
C_ C_ 0.261467 0.375667 0.95104 -0.15533
C_ C_ 0.293434 0.373574 0.913376 -0.15533
C_ C_ 0.340928 0.389951 0.926685 0.02923
C_ C_ 0.359828 0.395642 0.978691 -0.15533
C_ C_ 0.329114 0.391543 0.0171216 0.02923
C_ C_ 0.347201 0.382872 0.570324 0.69207
C_ C_ 0.355773 0.396548 0.832124 0.69661
C_ C_ 0.311064 0.426283 0.685273 0.18167
C_ C_ 0.269387 0.453592 0.706028 -0.15533
C_ C_ 0.275495 0.499857 0.734785 0.02923
C_ C_ 0.32577 0.0265203 0.739354 -0.15533
C_ C_ 0.362274 0.492389 0.712011 0.18167
C_ C_ 0.492942 0.347363 0.698742 0.18167
C_ C_ 0.00845094 0.3118 0.731672 -0.15533
C_ C_ 0.482107 0.264066 0.729625 0.02923
C_ C_ 0.429392 0.273207 0.710387 -0.15533
C_ C_ 0.409566 0.31728 0.687877 0.18167
C_ C_ 0.49495 0.443446 0.622904 0.69207
C_ C_ 0.0171847 0.986498 0.609755 0.02923
C_ C_ -7.999999999996898e-05 0.0391555 0.614148 -0.15533
C_ C_ 0.0330397 0.0759818 0.607379 -0.15533
C_ C_ 0.0844908 0.0623832 0.599341 0.02923
C_ C_ 0.101044 0.0117596 0.596474 -0.15533
C_ C_ 0.0695423 0.974045 0.602118 0.02923
C_ C_ 0.0926063 0.432271 0.610225 0.69207
C_ C_ 0.105959 0.155939 0.59791 0.69661
C_ C_ 0.43709 0.178005 0.930935 0.18167
C_ C_ 0.478112 0.198035 0.95878 -0.15533
C_ C_ 0.471415 0.236216 0.998448 0.02923
C_ C_ 0.415147 0.248324 0.519813 -0.15533
C_ C_ 0.380381 0.228345 0.981001 0.18167
C_ C_ 0.249883 0.212078 0.852636 0.18167
C_ C_ 0.22717 0.242697 0.814526 -0.15533
C_ C_ 0.252126 0.243022 0.769282 0.02923
C_ C_ 0.303748 0.223725 0.7704 -0.15533
C_ C_ 0.327861 0.201881 0.814505 0.18167
C_ C_ 0.262206 0.129345 0.949803 0.69207
C_ C_ 0.227581 0.108009 0.488125 0.02923
C_ C_ 0.247264 0.0985614 0.539819 -0.15533
C_ C_ 0.216856 0.087903 0.575744 -0.15533
C_ C_ 0.163924 0.0860929 0.562147 0.02923
C_ C_ 0.144753 0.0913299 0.511628 -0.15533
C_ C_ 0.176151 0.0996322 0.473461 0.02923
C_ C_ 0.152448 0.11209 0.921409 0.69207
C_ C_ 0.152067 0.0967876 0.658302 0.69661
C_ C_ 0.380337 0.390147 0.887313 -0.30787
C_ C_ 0.126385 0.100492 0.602175 -0.30787
N_ N_ 0.153345 0.0586784 0.814793 -0.32189
N_ N_ 0.0593115 0.137263 0.801266 -0.32189
N_ N_ 0.0958913 0.320195 0.557111 -0.32189
N_ N_ 0.185433 0.324194 0.641339 -0.32189
N_ N_ 0.355831 0.445748 0.687315 -0.32189
N_ N_ 0.44332 0.34992 0.677533 -0.32189
N_ N_ 0.389283 0.199013 0.94102 -0.32189
N_ N_ 0.300079 0.19442 0.854215 -0.32189
O_ O_ 0.508768 0.0887701 0.896697 -0.63271
O_ O_ 0.0501122 0.0302881 0.834594 -0.57982
O_ O_ 0.402416 0.0978143 0.841858 -0.63271
O_ O_ 0.372162 0.0951202 0.919237 -0.57982
O_ O_ 0.236578 0.404593 0.57953 -0.63271
O_ O_ 0.199586 0.339593 0.534903 -0.57982
O_ O_ 0.341064 0.343357 0.596456 -0.63271
O_ O_ 0.381922 0.414141 0.587622 -0.57982
O_ O_ 0.98489 0.415081 0.5953 -0.63271
O_ O_ 0.457616 0.458476 0.651097 -0.57982
O_ O_ 0.0912176 0.40398 0.647699 -0.63271
O_ O_ 0.123624 0.416209 0.574636 -0.57982
O_ O_ 0.258728 0.108267 0.90344 -0.63271
O_ O_ 0.292801 0.164345 0.961679 -0.57982
O_ O_ 0.147079 0.1582 0.903466 -0.63271
O_ O_ 0.119314 0.0801804 0.903754 -0.57982
F_ F_ 0.440305 0.32275 0.927262 -0.20885
F_ F_ 0.44082 0.324456 0.847335 -0.20885
F_ F_ 0.371919 0.302252 0.880952 -0.20885
F_ F_ 0.319651 0.438673 0.833466 -0.20885
F_ F_ 0.327735 0.35851 0.807426 -0.20885
F_ F_ 0.389507 0.407635 0.799135 -0.20885
F_ F_ 0.0681172 0.16252 0.558531 -0.20885
F_ F_ 0.0865745 0.181277 0.640043 -0.20885
F_ F_ 0.143449 0.183165 0.585561 -0.20885
F_ F_ 0.175261 0.0487013 0.669407 -0.20885
F_ F_ 0.186022 0.133719 0.672292 -0.20885
F_ F_ 0.119965 0.102688 0.696438 -0.20885
Zn Zn 0.0870247 0.586578 0.348319 0.83971
Zn Zn 0.161411 0.844251 0.0876115 0.83971
Zn Zn 0.411617 0.924599 0.151891 0.83971
Zn Zn 0.33564 0.650495 0.417889 0.83971
H_ H_ 0.179701 0.628824 0.32736 0.10394
H_ H_ 0.258039 0.589308 0.289136 0.10394
H_ H_ 0.203921 0.947303 0.262857 0.10394
H_ H_ 0.115576 0.485891 0.304602 0.10394
H_ H_ 0.509462 0.605889 0.247754 0.10394
H_ H_ 0.469844 0.683339 0.208928 0.10394
H_ H_ 0.0252413 0.767858 0.334379 0.10394
H_ H_ 0.0712601 0.690014 0.377935 0.10394
H_ H_ 0.0300481 0.94574 0.360755 0.10394
H_ H_ 0.480141 0.872794 0.361594 0.10394
H_ H_ 0.353432 0.983095 0.39914 0.10394
H_ H_ 0.0810418 0.800057 0.13677 0.10394
H_ H_ 0.499479 0.770097 0.0963525 0.10394
H_ H_ 0.0227298 0.802885 0.44563 0.10394
H_ H_ 0.117535 0.818541 0.987512 0.10394
H_ H_ 0.227397 0.752385 0.0956182 0.10394
H_ H_ 0.273849 0.701818 0.167597 0.10394
H_ H_ 0.220379 0.825941 0.270805 0.10394
H_ H_ 0.173931 0.870098 0.199989 0.10394
H_ H_ 0.218375 0.871184 0.44761 0.10394
H_ H_ 0.270442 0.86759 0.377608 0.10394
H_ H_ 0.398153 0.891742 0.486312 0.10394
H_ H_ 0.30388 0.952594 0.116421 0.10394
H_ H_ 0.230671 0.989685 0.16211 0.10394
H_ H_ 0.32918 0.542847 0.277522 0.10394
H_ H_ 0.404443 -0.017093000000000025 0.247157 0.10394
H_ H_ 0.0105011 0.879697 0.191672 0.10394
H_ H_ 0.0475317 0.800555 0.236067 0.10394
H_ H_ 0.412801 0.758479 0.227534 0.10394
H_ H_ 0.375363 0.84227 0.189718 0.10394
H_ H_ 0.459966 0.548373 0.123783 0.10394
H_ H_ 0.0187773 0.622897 0.102264 0.10394
H_ H_ 0.148369 0.51591 0.104275 0.10394
H_ H_ 0.442613 0.639642 0.416242 0.10394
H_ H_ 0.0157648 0.69626 0.453184 0.10394
H_ H_ 0.412799 0.779791 0.0436081 0.10394
H_ H_ 0.3423 0.734973 0.50222 0.10394
H_ H_ 0.232127 0.694647 0.377609 0.10394
H_ H_ 0.197508 0.727766 0.297823 0.10394
H_ H_ 0.347052 0.727933 0.253478 0.10394
H_ H_ 0.381787 0.686285 0.335575 0.10394
H_ H_ 0.2901 0.606055 0.0537084 0.10394
H_ H_ 0.236393 0.607606 0.124078 0.10394
H_ H_ 0.106067 0.598563 0.0156274 0.10394
C_ C_ 0.181162 0.588434 0.312676 0.18167
C_ C_ 0.22608 0.566824 0.289267 -0.15533
C_ C_ 0.229012 0.517012 0.268666 0.02923
C_ C_ 0.196636 0.988297 0.270315 -0.15533
C_ C_ 0.145276 0.509291 0.297904 0.18167
C_ C_ 0.0164567 0.632524 0.273907 0.18167
C_ C_ 0.498264 0.686931 0.242873 -0.15533
C_ C_ -0.00027800000000000047 0.724078 0.266548 0.02923
C_ C_ 0.0279868 0.730964 0.314784 -0.15533
C_ C_ 0.0497152 0.68862 0.340676 0.18167
C_ C_ 0.00854232 0.541183 0.376272 0.69207
C_ C_ 0.474311 0.00384942 0.375104 0.02923
C_ C_ 0.48969 0.952734 0.360401 -0.15533
C_ C_ 0.461441 0.911136 0.36812 -0.15533
C_ C_ 0.410455 0.923049 0.383157 0.02923
C_ C_ 0.39157 0.975185 0.389447 -0.15533
C_ C_ 0.424162 0.0162964 0.389446 0.02923
C_ C_ 0.389694 0.564778 0.375465 0.69207
C_ C_ 0.401546 0.825407 0.380461 0.69661
C_ C_ 0.0720205 0.796564 0.0960657 0.18167
C_ C_ 0.030132 0.771047 0.0760176 -0.15533
C_ C_ 0.0176015 0.765292 0.0244314 0.02923
C_ C_ 0.0371741 0.797007 0.48407 -0.15533
C_ C_ 0.0934969 0.803755 0.0118773 0.18167
C_ C_ 0.226599 0.768482 0.134154 0.18167
C_ C_ 0.253027 0.741402 0.174907 -0.15533
C_ C_ 0.248713 0.761084 0.225423 0.02923
C_ C_ 0.222403 0.807868 0.232895 -0.15533
C_ C_ 0.196629 0.832434 0.192519 0.18167
C_ C_ 0.244973 0.860044 0.0490926 0.69207
C_ C_ 0.276369 0.873478 0.507023 0.02923
C_ C_ 0.256979 0.876199 0.456284 -0.15533
C_ C_ 0.287068 0.872036 0.416445 -0.15533
C_ C_ 0.339836 0.881925 0.426483 0.02923
C_ C_ 0.359562 0.885036 0.476889 -0.15533
C_ C_ 0.328773 0.881081 0.517053 0.02923
C_ C_ 0.360767 0.880777 0.0678645 0.69207
C_ C_ 0.34145 0.891437 0.326475 0.69661
C_ C_ 0.307539 0.961106 0.158112 0.18167
C_ C_ 0.265304 0.979855 0.184279 -0.15533
C_ C_ 0.276025 1.00511695 0.232965 0.02923
C_ C_ 0.322247 0.510935 0.251542 -0.15533
C_ C_ 0.364919 0.984043 0.227195 0.18167
C_ C_ 0.496745 0.864829 0.202213 0.18167
C_ C_ 0.00905903 0.803639 0.224101 -0.15533
C_ C_ 0.487141 0.782254 0.237967 0.02923
C_ C_ 0.435913 0.787829 0.218688 -0.15533
C_ C_ 0.414264 0.832992 0.195713 0.18167
C_ C_ 0.489622 0.963414 0.12731 0.69207
C_ C_ 0.0292438 0.496331 0.114702 0.02923
C_ C_ 0.00704111 0.548093 0.113481 -0.15533
C_ C_ 0.0364658 0.587919 0.113176 -0.15533
C_ C_ 0.0909276 0.577695 0.108212 0.02923
C_ C_ 0.111331 0.525398 0.109825 -0.15533
C_ C_ 0.0801569 0.485258 0.105199 0.02923
C_ C_ 0.100473 0.923303 0.114621 0.69207
C_ C_ 0.106479 0.671489 0.118502 0.69661
C_ C_ 0.435653 0.667514 0.445741 0.18167
C_ C_ 0.477662 0.693485 0.4674 -0.15533
C_ C_ 0.468066 0.73586 0.502864 0.02923
C_ C_ 0.423942 0.750707 0.0134501 -0.15533
C_ C_ 0.381014 0.721177 0.495897 0.18167
C_ C_ 0.256771 0.69751 0.349275 0.18167
C_ C_ 0.236974 0.716763 0.303437 -0.15533
C_ C_ 0.269024 0.72942 0.268424 0.02923
C_ C_ 0.321169 0.714052 0.278624 -0.15533
C_ C_ 0.339868 0.696579 0.328195 0.18167
C_ C_ 0.258853 0.617875 0.455916 0.69207
C_ C_ 0.227741 0.611562 0.991904 0.02923
C_ C_ 0.249724 0.612336 0.0437596 -0.15533
C_ C_ 0.217873 0.61291 0.0844895 -0.15533
C_ C_ 0.16522 0.610736 0.0742796 0.02923
C_ C_ 0.146675 0.603338 0.0228517 -0.15533
C_ C_ 0.174853 0.609909 0.981826 0.02923
C_ C_ 0.146052 0.612722 0.431186 0.69207
C_ C_ 0.157054 0.608918 0.173186 0.69661
C_ C_ 0.374016 0.881464 0.3807 -0.30787
C_ C_ 0.130003 0.616689 0.118904 -0.30787
N_ N_ 0.141325 0.558799 0.314459 -0.32189
N_ N_ 0.0504008 0.640981 0.317335 -0.32189
N_ N_ 0.106052 0.808166 0.0637863 -0.32189
N_ N_ 0.19742 0.811033 0.144857 -0.32189
N_ N_ 0.355911 0.9572 0.182721 -0.32189
N_ N_ 0.443978 0.870194 0.189134 -0.32189
N_ N_ 0.388854 0.682216 0.459926 -0.32189
N_ N_ 0.307355 0.685511 0.359998 -0.32189
O_ O_ 0.504958 0.575897 0.400295 -0.63271
O_ O_ 0.0464975 0.530766 0.349687 -0.57982
O_ O_ 0.397331 0.594357 0.338941 -0.63271
O_ O_ 0.36244 0.58216 0.411998 -0.57982
O_ O_ 0.249012 0.887496 0.0930288 -0.63271
O_ O_ 0.201777 0.841157 0.0367147 -0.57982
O_ O_ 0.355577 0.845674 0.0990127 -0.63271
O_ O_ 0.388156 0.917046 0.0853136 -0.57982
O_ O_ 0.992108 0.908254 0.102456 -0.63271
O_ O_ 0.457095 0.972665 0.160521 -0.57982
O_ O_ 0.0919256 0.89536 0.15102 -0.63271
O_ O_ 0.139647 0.909508 0.088559 -0.57982
O_ O_ 0.256385 0.595218 0.409916 -0.63271
O_ O_ 0.291543 0.649759 0.467441 -0.57982
O_ O_ 0.148552 0.654075 0.406441 -0.63271
O_ O_ 0.112713 0.58273 0.414933 -0.57982
F_ F_ 0.433755 0.821091 0.427368 -0.20885
F_ F_ 0.42985 0.81186 0.337808 -0.20885
F_ F_ 0.370457 0.786894 0.378047 -0.20885
F_ F_ 0.307198 0.930453 0.327089 -0.20885
F_ F_ 0.318591 0.848843 0.308481 -0.20885
F_ F_ 0.37426 0.899901 0.289627 -0.20885
F_ F_ 0.0813328 0.680232 0.0691241 -0.20885
F_ F_ 0.0695105 0.684946 0.151206 -0.20885
F_ F_ 0.141206 0.70844 0.121432 -0.20885
F_ F_ 0.190235 0.565538 0.173228 -0.20885
F_ F_ 0.182835 0.649403 0.193089 -0.20885
F_ F_ 0.120782 0.606912 0.208221 -0.20885
Zn Zn 0.0937761 0.583036 0.845698 0.83971
Zn Zn 0.157727 0.838112 0.577063 0.83971
Zn Zn 0.410564 0.915857 0.654056 0.83971
Zn Zn 0.336881 0.660843 0.91711 0.83971
H_ H_ 0.170185 0.63942 0.805955 0.10394
H_ H_ 0.251664 0.601237 0.768229 0.10394
H_ H_ 0.223445 0.951828 0.781531 0.10394
H_ H_ 0.145882 0.490678 0.838804 0.10394
H_ H_ 0.529977 0.596877 0.747072 0.10394
H_ H_ 0.480341 0.670385 0.706056 0.10394
H_ H_ 0.0411001 0.770543 0.827921 0.10394
H_ H_ 0.0679601 0.693452 0.882361 0.10394
H_ H_ 0.0429758 0.936648 0.875908 0.10394
H_ H_ 0.481305 0.876995 0.878381 0.10394
H_ H_ 0.354802 0.989417 0.906857 0.10394
H_ H_ 0.0856024 0.796206 0.628654 0.10394
H_ H_ 0.497105 0.769954 0.602362 0.10394
H_ H_ 0.0355297 0.788841 0.953802 0.10394
H_ H_ 0.100585 0.834126 0.476919 0.10394
H_ H_ 0.21309 0.744936 0.597492 0.10394
H_ H_ 0.267736 0.707595 0.674022 0.10394
H_ H_ 0.215901 0.831261 0.772519 0.10394
H_ H_ 0.179007 0.87971 0.694444 0.10394
H_ H_ 0.223777 0.852303 0.94278 0.10394
H_ H_ 0.26459 0.885244 0.88309 0.10394
H_ H_ 0.396057 0.90825 0.985143 0.10394
H_ H_ 0.304664 0.902557 0.655118 0.10394
H_ H_ 0.233318 0.957189 0.690615 0.10394
H_ H_ 0.329366 0.550274 0.762136 0.10394
H_ H_ 0.406198 0.00352155 0.729464 0.10394
H_ H_ 0.0148839 0.883605 0.703205 0.10394
H_ H_ 0.0525841 0.808815 0.74751 0.10394
H_ H_ 0.413562 0.751766 0.735431 0.10394
H_ H_ 0.371306 0.826894 0.687527 0.10394
H_ H_ 0.461013 0.534581 0.594137 0.10394
H_ H_ 0.0165326 0.6239 0.632747 0.10394
H_ H_ 0.13616 0.51314 0.593083 0.10394
H_ H_ 0.442899 0.669524 0.886939 0.10394
H_ H_ 0.0150154 0.690738 0.95339 0.10394
H_ H_ 0.4139 0.776524 0.546456 0.10394
H_ H_ 0.347789 0.729438 0.00318843 0.10394
H_ H_ 0.234824 0.706451 0.890135 0.10394
H_ H_ 0.189179 0.74236 0.813342 0.10394
H_ H_ 0.329316 0.713536 0.745023 0.10394
H_ H_ 0.375006 0.693124 0.828712 0.10394
H_ H_ 0.282422 0.603868 0.555518 0.10394
H_ H_ 0.227162 0.614985 0.624355 0.10394
H_ H_ 0.102577 0.595888 0.508896 0.10394
C_ C_ 0.178688 0.59719 0.796681 0.18167
C_ C_ 0.222865 0.57566 0.776702 -0.15533
C_ C_ 0.233496 0.522225 0.768566 0.02923
C_ C_ 0.215179 0.991165 0.791815 -0.15533
C_ C_ 0.161936 0.511287 0.811597 0.18167
C_ C_ 0.0317805 0.63387 0.769752 0.18167
C_ C_ 0.499824 0.678553 0.743303 -0.15533
C_ C_ 0.00753517 0.724759 0.765083 0.02923
C_ C_ 0.0303657 0.731788 0.814539 -0.15533
C_ C_ 0.0514352 0.68815 0.842992 0.18167
C_ C_ 0.0132146 0.5485 0.872923 0.69207
C_ C_ 0.475073 0.00545944 0.876598 0.02923
C_ C_ 0.495681 0.9555 0.875967 -0.15533
C_ C_ 0.464881 0.91659 0.881933 -0.15533
C_ C_ 0.412717 0.927393 0.891725 0.02923
C_ C_ 0.394027 0.980004 0.898583 -0.15533
C_ C_ 0.42422 0.0184518 0.889705 0.02923
C_ C_ 0.394278 0.574807 0.886446 0.69207
C_ C_ 0.389971 0.830324 0.871784 0.69661
C_ C_ 0.0743848 0.792943 0.586903 0.18167
C_ C_ 0.025705 0.778625 0.568998 -0.15533
C_ C_ 0.00780292 0.780065 0.517776 0.02923
C_ C_ 0.0502292 0.781776 0.992506 -0.15533
C_ C_ 0.0864476 0.80764 0.500038 0.18167
C_ C_ 0.218897 0.76688 0.634909 0.18167
C_ C_ 0.24386 0.744057 0.678194 -0.15533
C_ C_ 0.237551 0.764606 0.727432 0.02923
C_ C_ 0.216216 0.814087 0.733794 -0.15533
C_ C_ 0.192351 0.838535 0.689332 0.18167
C_ C_ 0.241744 0.862962 0.545502 0.69207
C_ C_ 0.28167 0.866303 0.00814525 0.02923
C_ C_ 0.261368 0.863691 0.954895 -0.15533
C_ C_ 0.285264 0.88165 0.9184 -0.15533
C_ C_ 0.337805 0.891065 0.92599 0.02923
C_ C_ 0.358085 0.894954 0.977995 -0.15533
C_ C_ 0.331464 0.88217 0.0178096 0.02923
C_ C_ 0.352106 0.881732 0.571052 0.69207
C_ C_ 0.341882 0.900535 0.831215 0.69661
C_ C_ 0.310892 0.937293 0.678671 0.18167
C_ C_ 0.270798 0.967115 0.698905 -0.15533
C_ C_ 0.278425 1.00771057 0.73433 0.02923
C_ C_ 0.32375 0.516211 0.739628 -0.15533
C_ C_ 0.366285 0.996347 0.717889 0.18167
C_ C_ 0.493195 0.856537 0.703616 0.18167
C_ C_ 0.0123024 0.812184 0.73495 -0.15533
C_ C_ 0.489018 0.772422 0.734503 0.02923
C_ C_ 0.435608 0.778729 0.722388 -0.15533
C_ C_ 0.412598 0.822823 0.699275 0.18167
C_ C_ 0.486221 0.955952 0.620175 0.69207
C_ C_ 0.0174645 0.497439 0.619941 0.02923
C_ C_ 1.000257328 0.547894 0.628579 -0.15533
C_ C_ 0.0301029 0.586848 0.620049 -0.15533
C_ C_ 0.0807465 0.574202 0.609468 0.02923
C_ C_ 0.0985148 0.523567 0.603499 -0.15533
C_ C_ 0.068423 0.485352 0.610222 0.02923
C_ C_ 0.0917104 0.919612 0.597959 0.69207
C_ C_ 0.0955069 0.667684 0.610394 0.69661
C_ C_ 0.436435 0.695324 0.920637 0.18167
C_ C_ 0.477133 0.718316 0.946746 -0.15533
C_ C_ 0.472291 0.744337 -0.0044279999999999875 0.02923
C_ C_ 0.421156 0.744618 0.52015 -0.15533
C_ C_ 0.384818 0.722395 0.988605 0.18167
C_ C_ 0.256031 0.712443 0.860091 0.18167
C_ C_ 0.231701 0.731907 0.814999 -0.15533
C_ C_ 0.258979 0.739683 0.773566 0.02923
C_ C_ 0.309895 0.717981 0.776881 -0.15533
C_ C_ 0.334496 0.703975 0.823357 0.18167
C_ C_ 0.259774 0.627195 0.953155 0.69207
C_ C_ 0.225655 0.607441 0.49542 0.02923
C_ C_ 0.243349 0.607502 0.547219 -0.15533
C_ C_ 0.211011 0.614086 0.584336 -0.15533
C_ C_ 0.157367 0.607568 0.573324 0.02923
C_ C_ 0.140707 0.597832 0.520951 -0.15533
C_ C_ 0.171745 0.604963 0.482445 0.02923
C_ C_ 0.149484 0.608975 0.927992 0.69207
C_ C_ 0.144982 0.611546 0.669311 0.69661
C_ C_ 0.373317 0.886407 0.881984 -0.30787
C_ C_ 0.120332 0.611912 0.61487 -0.30787
N_ N_ 0.149314 0.562403 0.811974 -0.32189
N_ N_ 0.0570027 0.643589 0.816762 -0.32189
N_ N_ 0.102648 0.806948 0.55075 -0.32189
N_ N_ 0.193219 0.814627 0.641743 -0.32189
N_ N_ 0.359468 0.953478 0.688571 -0.32189
N_ N_ 0.441099 0.860195 0.690372 -0.32189
N_ N_ 0.391259 0.69703 0.942744 -0.32189
N_ N_ 0.305021 0.694338 0.861198 -0.32189
O_ O_ 0.497436 0.597256 0.885111 -0.63271
O_ O_ 0.0486286 0.537467 0.840432 -0.57982
O_ O_ 0.386631 0.593279 0.841159 -0.63271
O_ O_ 0.370439 0.59838 0.924148 -0.57982
O_ O_ 0.237503 0.894646 0.58528 -0.63271
O_ O_ 0.203347 0.835442 0.532654 -0.57982
O_ O_ 0.345147 0.844303 0.599426 -0.63271
O_ O_ 0.380021 0.917732 0.589174 -0.57982
O_ O_ 0.985615 0.903569 0.597076 -0.63271
O_ O_ 0.452866 0.963294 0.654243 -0.57982
O_ O_ 0.0915322 0.891559 0.637129 -0.63271
O_ O_ 0.127796 0.90235 0.568035 -0.57982
O_ O_ 0.262775 0.601757 0.910109 -0.63271
O_ O_ 0.292642 0.660153 0.96617 -0.57982
O_ O_ 0.153388 0.647506 0.900006 -0.63271
O_ O_ 0.117786 0.576147 0.911142 -0.57982
F_ F_ 0.421686 0.812833 0.916047 -0.20885
F_ F_ 0.413709 0.823127 0.829051 -0.20885
F_ F_ 0.351689 0.79806 0.864322 -0.20885
F_ F_ 0.314945 0.948664 0.829404 -0.20885
F_ F_ 0.303543 0.869202 0.809839 -0.20885
F_ F_ 0.370684 0.901251 0.788573 -0.20885
F_ F_ 0.0616667 0.670964 0.564988 -0.20885
F_ F_ 0.0661593 0.687244 0.647647 -0.20885
F_ F_ 0.133181 0.69911 0.606772 -0.20885
F_ F_ 0.175138 0.565259 0.672713 -0.20885
F_ F_ 0.177662 0.648515 0.68951 -0.20885
F_ F_ 0.10935 0.610451 0.704063 -0.20885
Zn Zn 0.590351 0.0830445 0.352427 0.83971
Zn Zn 0.659849 0.343775 0.0826248 0.83971
Zn Zn 0.91495 0.422427 0.157322 0.83971
Zn Zn 0.836089 0.154195 0.416098 0.83971
H_ H_ 0.663415 0.131275 0.304528 0.10394
H_ H_ 0.746726 0.101506 0.268298 0.10394
H_ H_ 0.712915 0.453759 0.297124 0.10394
H_ H_ 0.628378 0.980087 0.316903 0.10394
H_ H_ 0.00826458 0.10715 0.260421 0.10394
H_ H_ 0.968192 0.190064 0.220337 0.10394
H_ H_ 0.532332 0.268388 0.337111 0.10394
H_ H_ 0.581107 0.194478 0.373426 0.10394
H_ H_ 0.526068 0.436794 0.36406 0.10394
H_ H_ 0.977992 0.382389 0.417859 0.10394
H_ H_ 0.848851 0.488899 0.405226 0.10394
H_ H_ 0.57813 0.308816 0.130044 0.10394
H_ H_ 0.99582 0.287998 0.0954797 0.10394
H_ H_ 0.533071 0.276429 0.448722 0.10394
H_ H_ 0.614642 0.325526 0.978881 0.10394
H_ H_ 0.737123 0.261964 0.0948178 0.10394
H_ H_ 0.768045 0.207382 0.160951 0.10394
H_ H_ 0.7243 0.331566 0.269049 0.10394
H_ H_ 0.680804 0.377384 0.192968 0.10394
H_ H_ 0.713914 0.35891 0.442445 0.10394
H_ H_ 0.769094 0.370313 0.375323 0.10394
H_ H_ 0.887943 0.406995 0.489753 0.10394
H_ H_ 0.813329 0.400788 0.165791 0.10394
H_ H_ 0.73855 0.450334 0.194874 0.10394
H_ H_ 0.832082 0.0468472 0.282309 0.10394
H_ H_ 0.909005 0.506464 0.243285 0.10394
H_ H_ 0.513125 0.381701 0.195977 0.10394
H_ H_ 0.554607 0.307404 0.239852 0.10394
H_ H_ 0.908737 0.27314 0.254598 0.10394
H_ H_ 0.876223 0.337953 0.200416 0.10394
H_ H_ 0.964464 0.0523903 0.119284 0.10394
H_ H_ 0.519916 0.128036 0.101457 0.10394
H_ H_ 0.646849 0.010572 0.0987084 0.10394
H_ H_ 0.937954 0.157418 0.39798 0.10394
H_ H_ 0.511889 0.192402 0.450689 0.10394
H_ H_ 0.91522 0.285992 0.0386473 0.10394
H_ H_ 0.8455 0.222936 0.504901 0.10394
H_ H_ 0.732192 0.188485 0.377669 0.10394
H_ H_ 0.69491 0.227726 0.305969 0.10394
H_ H_ 0.838729 0.21465 0.238939 0.10394
H_ H_ 0.877739 0.182193 0.322712 0.10394
H_ H_ 0.785843 0.134719 0.0567434 0.10394
H_ H_ 0.731935 0.13119 0.121886 0.10394
H_ H_ 0.607804 0.0975684 0.0078523 0.10394
C_ C_ 0.676876 0.0907917 0.302276 0.18167
C_ C_ 0.721892 0.0738688 0.279238 -0.15533
C_ C_ 0.731836 0.0215594 0.266845 0.02923
C_ C_ 0.700869 0.492208 0.292995 -0.15533
C_ C_ 0.653283 0.00742966 0.304491 0.18167
C_ C_ 0.531537 0.132978 0.270463 0.18167
C_ C_ -0.0021060000000000523 0.188633 0.251195 -0.15533
C_ C_ 0.507104 0.226157 0.266534 0.02923
C_ C_ 0.534645 0.23317 0.316354 -0.15533
C_ C_ 0.562508 0.19026 0.336111 0.18167
C_ C_ 0.510464 0.043752 0.372822 0.69207
C_ C_ 0.973754 0.501228 0.386242 0.02923
C_ C_ 0.99456 0.453455 0.397972 -0.15533
C_ C_ 0.962069 0.416444 0.40164 -0.15533
C_ C_ 0.909962 0.424015 0.394521 0.02923
C_ C_ 0.888775 0.476002 0.398151 -0.15533
C_ C_ 0.920367 0.515655 0.392984 0.02923
C_ C_ 0.891747 0.0721927 0.384133 0.69207
C_ C_ 0.900375 0.324258 0.395266 0.69661
C_ C_ 0.569619 0.302394 0.0892527 0.18167
C_ C_ 0.528241 0.275969 0.071562 -0.15533
C_ C_ 0.513661 0.269227 0.017314 0.02923
C_ C_ 0.542227 0.281784 0.489396 -0.15533
C_ C_ 0.591285 0.308145 0.00457045 0.18167
C_ C_ 0.727025 0.273877 0.131532 0.18167
C_ C_ 0.743907 0.243393 0.170677 -0.15533
C_ C_ 0.745519 0.263016 0.221644 0.02923
C_ C_ 0.726126 0.314356 0.231645 -0.15533
C_ C_ 0.699619 0.339031 0.188386 0.18167
C_ C_ 0.742166 0.369008 0.0458711 0.69207
C_ C_ 0.769927 0.377721 0.505553 0.02923
C_ C_ 0.753136 0.369479 0.453365 -0.15533
C_ C_ 0.784886 0.373891 0.415937 -0.15533
C_ C_ 0.83482 0.388079 0.427587 0.02923
C_ C_ 0.849724 0.401781 0.479474 -0.15533
C_ C_ 0.820341 0.392524 0.517117 0.02923
C_ C_ 0.856285 0.388676 0.0749644 0.69207
C_ C_ 0.851694 0.382785 0.327686 0.69661
C_ C_ 0.818012 0.436926 0.187389 0.18167
C_ C_ 0.773997 0.464406 0.206623 -0.15533
C_ C_ 0.779531 0.500587 0.247237 0.02923
C_ C_ 0.824543 0.0202158 0.253466 -0.15533
C_ C_ 0.870464 0.495311 0.234768 0.18167
C_ C_ 0.996109 0.362533 0.208666 0.18167
C_ C_ 0.514236 0.308546 0.227386 -0.15533
C_ C_ 0.987726 0.285921 0.251086 0.02923
C_ C_ 0.935497 0.292532 0.237175 -0.15533
C_ C_ 0.915422 0.332802 0.207598 0.18167
C_ C_ 0.999263 0.456684 0.127717 0.69207
C_ C_ 0.525944 1.000898316 0.124452 0.02923
C_ C_ 0.50629 0.052185 0.117825 -0.15533
C_ C_ 0.536663 0.0889454 0.10675 -0.15533
C_ C_ 0.587513 0.075102 0.100895 0.02923
C_ C_ 0.605942 0.0224672 0.0991694 -0.15533
C_ C_ 0.576422 0.985715 0.115681 0.02923
C_ C_ 0.597479 0.425304 0.112495 0.69207
C_ C_ 0.609844 0.173172 0.114038 0.69661
C_ C_ 0.934275 0.181361 0.432428 0.18167
C_ C_ 0.97635 0.200298 0.46316 -0.15533
C_ C_ 0.970159 0.237654 0.502285 0.02923
C_ C_ 0.925698 0.251671 0.0133518 -0.15533
C_ C_ 0.881289 0.220448 0.491011 0.18167
C_ C_ 0.756542 0.196268 0.350143 0.18167
C_ C_ 0.735022 0.218305 0.304886 -0.15533
C_ C_ 0.765106 0.230272 0.265515 0.02923
C_ C_ 0.815443 0.214841 0.272638 -0.15533
C_ C_ 0.837728 0.191746 0.316423 0.18167
C_ C_ 0.762245 0.124575 0.45772 0.69207
C_ C_ 0.730192 0.118774 0.991356 0.02923
C_ C_ 0.748728 0.121364 0.0439117 -0.15533
C_ C_ 0.716653 0.118928 0.0818625 -0.15533
C_ C_ 0.6659 0.108437 0.0698548 0.02923
C_ C_ 0.648848 0.0980561 0.0187372 -0.15533
C_ C_ 0.680266 0.104315 0.977184 0.02923
C_ C_ 0.653506 0.106704 0.430585 0.69207
C_ C_ 0.651957 0.108006 0.168064 0.69661
C_ C_ 0.874174 0.379975 0.386818 -0.30787
C_ C_ 0.628813 0.116229 0.111197 -0.30787
N_ N_ 0.647961 0.0564975 0.32211 -0.32189
N_ N_ 0.558881 0.142281 0.315208 -0.32189
N_ N_ 0.604581 0.311048 0.0568357 -0.32189
N_ N_ 0.693661 0.315276 0.142255 -0.32189
N_ N_ 0.863382 0.454866 0.19942 -0.32189
N_ N_ 0.945581 0.365272 0.192568 -0.32189
N_ N_ 0.887522 0.192967 0.44651 -0.32189
N_ N_ 0.808102 0.185084 0.354607 -0.32189
O_ O_ 0.00479969 0.0931553 0.391558 -0.63271
O_ O_ 0.546502 0.0360845 0.344315 -0.57982
O_ O_ 0.885359 0.0948906 0.341014 -0.63271
O_ O_ 0.86772 0.0936704 0.421888 -0.57982
O_ O_ 0.747133 0.388938 0.0917633 -0.63271
O_ O_ 0.703421 0.342564 0.0342242 -0.57982
O_ O_ 0.860097 0.348572 0.0998342 -0.63271
O_ O_ 0.883012 0.424965 0.0946602 -0.57982
O_ O_ 0.487023 0.407185 0.106067 -0.63271
O_ O_ 0.96378 0.467664 0.159748 -0.57982
O_ O_ 0.598413 0.401891 0.154653 -0.63271
O_ O_ 0.626374 0.406347 0.0781092 -0.57982
O_ O_ 0.760173 0.0920472 0.417542 -0.63271
O_ O_ 0.792986 0.160103 0.461523 -0.57982
O_ O_ 0.656058 0.143056 0.401821 -0.63271
O_ O_ 0.61962 0.0770652 0.418306 -0.57982
F_ F_ 0.924151 0.321757 0.445124 -0.20885
F_ F_ 0.935513 0.309407 0.361041 -0.20885
F_ F_ 0.868861 0.286028 0.38659 -0.20885
F_ F_ 0.81685 0.424008 0.321793 -0.20885
F_ F_ 0.828539 0.340205 0.310277 -0.20885
F_ F_ 0.888022 0.388345 0.295914 -0.20885
F_ F_ 0.582596 0.18401 0.0667088 -0.20885
F_ F_ 0.572972 0.187823 0.149286 -0.20885
F_ F_ 0.648571 0.204499 0.122337 -0.20885
F_ F_ 0.680998 0.0616918 0.168754 -0.20885
F_ F_ 0.682149 0.143574 0.191421 -0.20885
F_ F_ 0.615692 0.106048 0.201138 -0.20885
Zn Zn 0.590637 0.0859474 0.849278 0.83971
Zn Zn 0.661537 0.335647 0.583328 0.83971
Zn Zn 0.906365 0.415004 0.651375 0.83971
Zn Zn 0.845223 0.149998 0.918218 0.83971
H_ H_ 0.666907 0.132844 0.799868 0.10394
H_ H_ 0.747003 0.10196 0.769595 0.10394
H_ H_ 0.717586 0.4431 0.791854 0.10394
H_ H_ 0.630989 0.98074 0.81499 0.10394
H_ H_ 0.0407929 0.0971315 0.728363 0.10394
H_ H_ 1.0045932 0.180092 0.686941 0.10394
H_ H_ 0.521653 0.263821 0.822897 0.10394
H_ H_ 0.574764 0.195591 0.867228 0.10394
H_ H_ 0.539832 0.454108 0.885531 0.10394
H_ H_ 0.991262 0.381729 0.895991 0.10394
H_ H_ 0.856051 0.484971 0.901739 0.10394
H_ H_ 0.581207 0.292717 0.631844 0.10394
H_ H_ 0.00758541 0.253263 0.599659 0.10394
H_ H_ 0.540072 0.276632 0.943372 0.10394
H_ H_ 0.611457 0.312846 0.479426 0.10394
H_ H_ 0.722207 0.244037 0.599216 0.10394
H_ H_ 0.763062 0.196156 0.671901 0.10394
H_ H_ 0.732757 0.330758 0.770985 0.10394
H_ H_ 0.686985 0.373377 0.695635 0.10394
H_ H_ 0.723179 0.357853 0.946284 0.10394
H_ H_ 0.773434 0.374155 0.876264 0.10394
H_ H_ 0.900881 0.403023 0.991067 0.10394
H_ H_ 0.811952 0.395948 0.662962 0.10394
H_ H_ 0.737281 0.443026 0.701961 0.10394
H_ H_ 0.838388 0.0494453 0.782508 0.10394
H_ H_ 0.907363 0.503273 0.734995 0.10394
H_ H_ 0.512305 0.378192 0.6922 0.10394
H_ H_ 0.55445 0.29908 0.737506 0.10394
H_ H_ 0.912878 0.23751 0.699467 0.10394
H_ H_ 0.870768 0.324069 0.672687 0.10394
H_ H_ 0.960327 0.0510551 0.620158 0.10394
H_ H_ 0.516514 0.121175 0.605845 0.10394
H_ H_ 0.647547 0.00643386 0.597531 0.10394
H_ H_ 0.947238 0.155145 0.904314 0.10394
H_ H_ 0.514547 0.182601 0.951127 0.10394
H_ H_ 0.915662 0.265273 0.557518 0.10394
H_ H_ 0.849865 0.23996 -0.005819000000000019 0.10394
H_ H_ 0.745357 0.179828 0.879726 0.10394
H_ H_ 0.701152 0.228616 0.806655 0.10394
H_ H_ 0.843505 0.217135 0.742337 0.10394
H_ H_ 0.889852 0.194301 0.828441 0.10394
H_ H_ 0.78781 0.120258 0.558538 0.10394
H_ H_ 0.734228 0.123154 0.624578 0.10394
H_ H_ 0.606167 0.0963554 0.514107 0.10394
C_ C_ 0.680487 0.0952501 0.808032 0.18167
C_ C_ 0.727119 0.0766675 0.78989 -0.15533
C_ C_ 0.739775 0.0225281 0.785816 0.02923
C_ C_ 0.710322 0.486859 0.79961 -0.15533
C_ C_ 0.660514 0.00920741 0.819246 0.18167
C_ C_ 0.525114 0.127744 0.766655 0.18167
C_ C_ 0.0130952 0.17806 0.727988 -0.15533
C_ C_ 0.500431 0.218754 0.75694 0.02923
C_ C_ 0.522968 0.226658 0.80822 -0.15533
C_ C_ 0.554887 0.186245 0.829145 0.18167
C_ C_ 0.51031 0.0452356 0.868136 0.69207
C_ C_ 0.979499 0.509359 0.881038 0.02923
C_ C_ 0.998951 0.458152 0.881015 -0.15533
C_ C_ 0.96909 0.419698 0.890523 -0.15533
C_ C_ 0.91536 0.430049 0.895119 0.02923
C_ C_ 0.897619 0.479313 0.903057 -0.15533
C_ C_ 0.927815 0.519871 0.894502 0.02923
C_ C_ 0.904696 0.0653053 0.883593 0.69207
C_ C_ 0.904821 0.334004 0.888242 0.69661
C_ C_ 0.569652 0.291967 0.592411 0.18167
C_ C_ 0.524536 0.27021 0.574068 -0.15533
C_ C_ 0.508396 0.269465 0.524128 0.02923
C_ C_ 0.547215 0.283186 0.983706 -0.15533
C_ C_ 0.587943 0.300638 0.507774 0.18167
C_ C_ 0.721463 0.260647 0.638341 0.18167
C_ C_ 0.745686 0.233655 0.67841 -0.15533
C_ C_ 0.747626 0.259248 0.727961 0.02923
C_ C_ 0.727261 0.309573 0.73354 -0.15533
C_ C_ 0.700398 0.333916 0.691636 0.18167
C_ C_ 0.738897 0.362403 0.543555 0.69207
C_ C_ 0.777809 0.377412 1.00815847 0.02923
C_ C_ 0.760973 0.370412 0.957613 -0.15533
C_ C_ 0.788378 0.380521 0.917355 -0.15533
C_ C_ 0.840929 0.388808 0.927972 0.02923
C_ C_ 0.860588 0.392137 0.981006 -0.15533
C_ C_ 0.832015 0.387423 0.0220212 0.02923
C_ C_ 0.847548 0.385904 0.567769 0.69207
C_ C_ 0.851566 0.39046 0.830441 0.69661
C_ C_ 0.813886 0.429971 0.687751 0.18167
C_ C_ 0.775054 0.452397 0.714747 -0.15533
C_ C_ 0.779585 0.496563 0.745419 0.02923
C_ C_ 0.831662 0.0132037 0.762103 -0.15533
C_ C_ 0.868034 0.49016 0.727464 0.18167
C_ C_ 0.990342 0.352238 0.69982 0.18167
C_ C_ 0.513412 0.303189 0.724987 -0.15533
C_ C_ 0.980903 0.269996 0.731292 0.02923
C_ C_ 0.933587 0.271717 0.704075 -0.15533
C_ C_ 0.910599 0.318215 0.68235 0.18167
C_ C_ 0.984703 0.457159 0.625772 0.69207
C_ C_ 0.521859 0.992904 0.613699 0.02923
C_ C_ 0.503682 0.0436596 0.609431 -0.15533
C_ C_ 0.534814 0.0825071 0.605205 -0.15533
C_ C_ 0.58865 0.0695446 0.606735 0.02923
C_ C_ 0.607095 0.0174163 0.606646 -0.15533
C_ C_ 0.57417 0.97816 0.605524 0.02923
C_ C_ 0.604364 0.415466 0.601442 0.69207
C_ C_ 0.600389 0.164658 0.618146 0.69661
C_ C_ 0.944884 0.17696 0.93918 0.18167
C_ C_ 0.98665 0.197654 0.96526 -0.15533
C_ C_ 0.975489 0.24092 -0.0011849999999999916 0.02923
C_ C_ 0.921974 0.243192 0.520094 -0.15533
C_ C_ 0.886564 0.223674 0.990524 0.18167
C_ C_ 0.767376 0.190312 0.850135 0.18167
C_ C_ 0.743344 0.218494 0.809235 -0.15533
C_ C_ 0.772672 0.23428 0.773834 0.02923
C_ C_ 0.823966 0.216756 0.775389 -0.15533
C_ C_ 0.848699 0.192948 0.82038 0.18167
C_ C_ 0.766356 0.124184 0.95364 0.69207
C_ C_ 0.726699 0.121488 0.497369 0.02923
C_ C_ 0.748606 0.119626 0.548593 -0.15533
C_ C_ 0.718368 0.111367 0.587944 -0.15533
C_ C_ 0.665328 0.110173 0.577179 0.02923
C_ C_ 0.64401 0.105717 0.52411 -0.15533
C_ C_ 0.675332 0.109696 0.485537 0.02923
C_ C_ 0.65338 0.109306 0.926363 0.69207
C_ C_ 0.654322 0.104461 0.673547 0.69661
C_ C_ 0.877565 0.387578 0.886448 -0.30787
C_ C_ 0.627435 0.110515 0.619071 -0.30787
N_ N_ 0.646011 0.0607959 0.816683 -0.32189
N_ N_ 0.556161 0.137957 0.810169 -0.32189
N_ N_ 0.601496 0.303442 0.560131 -0.32189
N_ N_ 0.698812 0.308763 0.644669 -0.32189
N_ N_ 0.861167 0.44703 0.697591 -0.32189
N_ N_ 0.941005 0.353957 0.676363 -0.32189
N_ N_ 0.897377 0.18628 0.954364 -0.32189
N_ N_ 0.819672 0.177862 0.855501 -0.32189
O_ O_ 0.00861405 0.0831038 0.887925 -0.63271
O_ O_ 0.549876 0.0330955 0.842138 -0.57982
O_ O_ 0.902228 0.0915562 0.843771 -0.63271
O_ O_ 0.880275 0.0870434 0.921828 -0.57982
O_ O_ 0.744423 0.384286 0.590621 -0.63271
O_ O_ 0.705882 0.329698 0.532995 -0.57982
O_ O_ 0.852078 0.340138 0.587091 -0.63271
O_ O_ 0.868368 0.422815 0.592972 -0.57982
O_ O_ 0.494787 0.400137 0.599077 -0.63271
O_ O_ 0.949416 0.464979 0.656378 -0.57982
O_ O_ 0.60213 0.387042 0.6398 -0.63271
O_ O_ 0.641488 0.401239 0.572684 -0.57982
O_ O_ 0.769323 0.0934641 0.913579 -0.63271
O_ O_ 0.80252 0.154287 0.965094 -0.57982
O_ O_ 0.65658 0.150479 0.901853 -0.63271
O_ O_ 0.616888 0.0822756 0.912881 -0.57982
F_ F_ 0.940554 0.326004 0.931059 -0.20885
F_ F_ 0.928876 0.319657 0.844683 -0.20885
F_ F_ 0.871667 0.297267 0.887019 -0.20885
F_ F_ 0.815904 0.430415 0.827476 -0.20885
F_ F_ 0.828744 0.346359 0.811905 -0.20885
F_ F_ 0.885739 0.400481 0.796267 -0.20885
F_ F_ 0.575253 0.172113 0.572028 -0.20885
F_ F_ 0.564313 0.179138 0.64967 -0.20885
F_ F_ 0.635008 0.198892 0.622659 -0.20885
F_ F_ 0.684094 0.0570283 0.674794 -0.20885
F_ F_ 0.679413 0.144228 0.695326 -0.20885
F_ F_ 0.615392 0.104895 0.70317 -0.20885
Zn Zn 0.580853 0.584339 0.345746 0.83971
Zn Zn 0.658507 0.849647 0.0860574 0.83971
Zn Zn 0.909795 0.917975 0.158431 0.83971
Zn Zn 0.841067 0.652017 0.419477 0.83971
H_ H_ 0.661671 0.639175 0.304376 0.10394
H_ H_ 0.73967 0.603645 0.262203 0.10394
H_ H_ 0.707887 0.948277 0.276022 0.10394
H_ H_ 0.633348 0.488605 0.329804 0.10394
H_ H_ 0.00950703 0.593184 0.260427 0.10394
H_ H_ 0.978156 0.665652 0.203485 0.10394
H_ H_ 0.538361 0.77429 0.333415 0.10394
H_ H_ 0.556163 0.697629 0.380997 0.10394
H_ H_ 0.526464 0.946145 0.344632 0.10394
H_ H_ 0.981506 0.882224 0.385082 0.10394
H_ H_ 0.858527 0.992002 0.422111 0.10394
H_ H_ 0.577964 0.807772 0.131821 0.10394
H_ H_ 1.00428458 0.759309 0.102666 0.10394
H_ H_ 0.535438 0.778597 0.45135 0.10394
H_ H_ 0.597939 0.85304 0.980899 0.10394
H_ H_ 0.700486 0.74683 0.0957603 0.10394
H_ H_ 0.746905 0.693726 0.167153 0.10394
H_ H_ 0.729851 0.826996 0.26812 0.10394
H_ H_ 0.683215 0.877956 0.192366 0.10394
H_ H_ 0.717754 0.859883 0.442587 0.10394
H_ H_ 0.770246 0.878382 0.379869 0.10394
H_ H_ 0.899034 0.896055 0.488002 0.10394
H_ H_ 0.80972 0.903795 0.159344 0.10394
H_ H_ 0.735607 0.951155 0.19241 0.10394
H_ H_ 0.829846 0.551864 0.283172 0.10394
H_ H_ 0.901184 1.0136631 0.226837 0.10394
H_ H_ 0.521124 0.892392 0.194182 0.10394
H_ H_ 0.555146 0.824588 0.249452 0.10394
H_ H_ 0.897353 0.759813 0.240859 0.10394
H_ H_ 0.862556 0.835776 0.199985 0.10394
H_ H_ 0.966335 0.556689 0.11495 0.10394
H_ H_ 0.507828 0.618352 0.102574 0.10394
H_ H_ 0.636601 0.506821 0.079116 0.10394
H_ H_ 0.948799 0.656742 0.405519 0.10394
H_ H_ 0.516034 0.676669 0.463997 0.10394
H_ H_ 0.917177 0.782309 0.0495243 0.10394
H_ H_ 0.842213 0.7304 0.502937 0.10394
H_ H_ 0.738128 0.690063 0.383166 0.10394
H_ H_ 0.697562 0.742354 0.311533 0.10394
H_ H_ 0.837008 0.709258 0.241615 0.10394
H_ H_ 0.880289 0.679094 0.324062 0.10394
H_ H_ 0.780665 0.627198 0.0628416 0.10394
H_ H_ 0.724089 0.610954 0.122468 0.10394
H_ H_ 0.606156 0.588905 0.00370274 0.10394
C_ C_ 0.672559 0.596585 0.298944 0.18167
C_ C_ 0.7161 0.576986 0.274456 -0.15533
C_ C_ 0.732826 0.523874 0.27435 0.02923
C_ C_ 0.698962 0.988167 0.283481 -0.15533
C_ C_ 0.653243 0.511893 0.308971 0.18167
C_ C_ 0.519493 0.643375 0.267029 0.18167
C_ C_ -0.004626000000000019 0.673672 0.24317 -0.15533
C_ C_ 0.507974 0.7356 0.264461 0.02923
C_ C_ 0.528959 0.738617 0.314917 -0.15533
C_ C_ 0.545413 0.693742 0.340884 0.18167
C_ C_ 0.505049 0.538946 0.364772 0.69207
C_ C_ 0.9689 0.009418 0.371388 0.02923
C_ C_ -0.009522999999999948 0.956695 0.368955 -0.15533
C_ C_ 0.962922 0.920778 0.383999 -0.15533
C_ C_ 0.913468 0.93084 0.399358 0.02923
C_ C_ 0.895327 0.982675 0.408367 -0.15533
C_ C_ 0.919002 0.0226324 0.387796 0.02923
C_ C_ 0.894881 0.567638 0.387518 0.69207
C_ C_ 0.90039 0.833757 0.378407 0.69661
C_ C_ 0.568015 0.805658 0.0886924 0.18167
C_ C_ 0.524942 0.784108 0.0705896 -0.15533
C_ C_ 0.511518 0.778597 0.0168422 0.02923
C_ C_ 0.547731 0.779255 0.492627 -0.15533
C_ C_ 0.583895 0.825843 0.00632365 0.18167
C_ C_ 0.709045 0.764178 0.135974 0.18167
C_ C_ 0.735521 0.73504 0.174884 -0.15533
C_ C_ 0.742047 0.758776 0.224486 0.02923
C_ C_ 0.720472 0.809886 0.231686 -0.15533
C_ C_ 0.698776 0.837567 0.188303 0.18167
C_ C_ 0.744878 0.872057 0.0541362 0.69207
C_ C_ 0.774793 0.874466 0.505799 0.02923
C_ C_ 0.755835 0.871361 0.454953 -0.15533
C_ C_ 0.785532 0.882509 0.417813 -0.15533
C_ C_ 0.837984 0.891039 0.428702 0.02923
C_ C_ 0.859247 0.890354 0.480694 -0.15533
C_ C_ 0.828038 0.879504 0.517556 0.02923
C_ C_ 0.855659 0.884057 0.0794322 0.69207
C_ C_ 0.846961 0.903512 0.333005 0.69661
C_ C_ 0.813805 0.935955 0.186742 0.18167
C_ C_ 0.770399 0.962249 0.204847 -0.15533
C_ C_ 0.77682 1.0018253 0.241083 0.02923
C_ C_ 0.828046 0.517722 0.25887 -0.15533
C_ C_ 0.865573 0.997006 0.227892 0.18167
C_ C_ 0.987436 0.848194 0.197746 0.18167
C_ C_ 0.516646 0.82312 0.232569 -0.15533
C_ C_ 0.976227 0.771537 0.240397 0.02923
C_ C_ 0.923456 0.784888 0.232631 -0.15533
C_ C_ 0.903089 0.82613 0.207166 0.18167
C_ C_ 0.987513 0.953532 0.126733 0.69207
C_ C_ 0.522764 0.489845 0.120114 0.02923
C_ C_ 0.499182 0.539923 0.114038 -0.15533
C_ C_ 0.52615 0.579298 0.101677 -0.15533
C_ C_ 0.580473 0.567698 0.0949056 0.02923
C_ C_ 0.6007 0.515692 0.0931962 -0.15533
C_ C_ 0.57419 0.478341 0.111267 0.02923
C_ C_ 0.603187 0.93269 0.12034 0.69207
C_ C_ 0.588147 0.662748 0.102279 0.69661
C_ C_ 0.93849 0.686319 0.433363 0.18167
C_ C_ 0.977218 0.709789 0.460584 -0.15533
C_ C_ 0.968172 0.746022 0.498524 0.02923
C_ C_ 0.923303 0.750109 1.0203947 -0.15533
C_ C_ 0.878299 0.731219 0.485306 0.18167
C_ C_ 0.760741 0.701655 0.355005 0.18167
C_ C_ 0.736052 0.724311 0.310268 -0.15533
C_ C_ 0.765049 0.731291 0.269468 0.02923
C_ C_ 0.815438 0.710053 0.272773 -0.15533
C_ C_ 0.838299 0.688443 0.317076 0.18167
C_ C_ 0.759684 0.619491 0.450202 0.69207
C_ C_ 0.728397 0.616607 0.995186 0.02923
C_ C_ 0.741647 0.621025 0.049301 -0.15533
C_ C_ 0.70829 0.61594 0.0846814 -0.15533
C_ C_ 0.660023 0.604047 0.0677496 0.02923
C_ C_ 0.643946 0.599463 0.0140599 -0.15533
C_ C_ 0.677698 0.605715 0.977143 0.02923
C_ C_ 0.647718 0.603553 0.420455 0.69207
C_ C_ 0.63572 0.602378 0.163343 0.69661
C_ C_ 0.875297 0.889314 0.385406 -0.30787
C_ C_ 0.617714 0.607422 0.106494 -0.30787
N_ N_ 0.638704 0.563739 0.309924 -0.32189
N_ N_ 0.542939 0.647722 0.316773 -0.32189
N_ N_ 0.601565 0.819663 0.0558505 -0.32189
N_ N_ 0.691084 0.812857 0.143303 -0.32189
N_ N_ 0.859445 0.953141 0.199211 -0.32189
N_ N_ 0.934168 0.85845 0.190772 -0.32189
N_ N_ 0.888926 0.697474 0.445838 -0.32189
N_ N_ 0.810048 0.682582 0.356748 -0.32189
O_ O_ 0.00350626 0.585514 0.400362 -0.63271
O_ O_ 0.544623 0.531753 0.335679 -0.57982
O_ O_ 0.903627 0.592488 0.350085 -0.63271
O_ O_ 0.874445 0.590767 0.427457 -0.57982
O_ O_ 0.742884 0.904365 0.0939279 -0.63271
O_ O_ 0.706096 0.845177 0.0431608 -0.57982
O_ O_ 0.857672 0.845006 0.10692 -0.63271
O_ O_ 0.876882 0.923757 0.0993283 -0.57982
O_ O_ 0.49407 0.918037 0.101236 -0.63271
O_ O_ 0.956757 0.962761 0.163172 -0.57982
O_ O_ 0.595877 0.906221 0.158981 -0.63271
O_ O_ 0.641383 0.91622 0.0924914 -0.57982
O_ O_ 0.757501 0.594414 0.404196 -0.63271
O_ O_ 0.794698 0.651631 0.463946 -0.57982
O_ O_ 0.649678 0.645787 0.397475 -0.63271
O_ O_ 0.607415 0.577259 0.407731 -0.57982
F_ F_ 0.936733 0.823481 0.418041 -0.20885
F_ F_ 0.924554 0.830596 0.3367 -0.20885
F_ F_ 0.86908 0.795098 0.376051 -0.20885
F_ F_ 0.809635 0.943213 0.33866 -0.20885
F_ F_ 0.825576 0.863682 0.306439 -0.20885
F_ F_ 0.879615 0.917544 0.30113 -0.20885
F_ F_ 0.556306 0.66508 0.0558995 -0.20885
F_ F_ 0.559557 0.675226 0.142426 -0.20885
F_ F_ 0.617579 0.701714 0.0998373 -0.20885
F_ F_ 0.667389 0.556863 0.166725 -0.20885
F_ F_ 0.661806 0.639943 0.186345 -0.20885
F_ F_ 0.596255 0.602154 0.193601 -0.20885
Zn Zn 0.590658 0.582798 0.842884 0.83971
Zn Zn 0.657907 0.846551 0.585789 0.83971
Zn Zn 0.906794 0.915287 0.657645 0.83971
Zn Zn 0.83706 0.656155 0.916404 0.83971
H_ H_ 0.663448 0.629592 0.78965 0.10394
H_ H_ 0.73985 0.597773 0.753066 0.10394
H_ H_ 0.716539 0.949927 0.803942 0.10394
H_ H_ 0.640239 0.486062 0.835263 0.10394
H_ H_ 0.0344662 0.596276 0.75112 0.10394
H_ H_ 1.00204167 0.672354 0.70177 0.10394
H_ H_ 0.543081 0.770317 0.828649 0.10394
H_ H_ 0.585752 0.697472 0.8697 0.10394
H_ H_ 0.533087 0.942906 0.862802 0.10394
H_ H_ 0.983567 0.872723 0.869715 0.10394
H_ H_ 0.866604 0.984056 0.918929 0.10394
H_ H_ 0.571516 0.808262 0.636176 0.10394
H_ H_ 0.00574306 0.758749 0.593071 0.10394
H_ H_ 0.526452 0.801533 0.944594 0.10394
H_ H_ 0.614603 0.81668 0.486713 0.10394
H_ H_ 0.718985 0.753717 0.596901 0.10394
H_ H_ 0.744356 0.699664 0.669905 0.10394
H_ H_ 0.724424 0.833751 0.769249 0.10394
H_ H_ 0.682162 0.8795 0.696379 0.10394
H_ H_ 0.718274 0.870434 0.952804 0.10394
H_ H_ 0.774545 0.882019 0.882746 0.10394
H_ H_ 0.904271 0.897978 0.998792 0.10394
H_ H_ 0.802425 0.906702 0.658431 0.10394
H_ H_ 0.732061 0.950077 0.707851 0.10394
H_ H_ 0.833695 0.550875 0.77619 0.10394
H_ H_ 0.90513 1.00202 0.735126 0.10394
H_ H_ 0.512509 0.886009 0.692748 0.10394
H_ H_ 0.557708 0.813057 0.742501 0.10394
H_ H_ 0.914087 0.742574 0.722868 0.10394
H_ H_ 0.870726 0.822333 0.682016 0.10394
H_ H_ 0.959059 0.557509 0.633669 0.10394
H_ H_ 0.510632 0.606584 0.583474 0.10394
H_ H_ 0.645343 0.5042 0.585319 0.10394
H_ H_ 0.941961 0.666153 0.902428 0.10394
H_ H_ 0.515753 0.710382 0.931127 0.10394
H_ H_ 0.90738 0.782952 0.54393 0.10394
H_ H_ 0.846182 0.727464 1.0124678 0.10394
H_ H_ 0.738084 0.702268 0.887643 0.10394
H_ H_ 0.694705 0.720586 0.801531 0.10394
H_ H_ 0.839653 0.729168 0.744171 0.10394
H_ H_ 0.878879 0.683543 0.817019 0.10394
H_ H_ 0.78249 0.607402 0.552808 0.10394
H_ H_ 0.723315 0.597165 0.618958 0.10394
H_ H_ 0.599417 0.588872 0.498173 0.10394
C_ C_ 0.676487 0.589675 0.792748 0.18167
C_ C_ 0.719369 0.571986 0.772276 -0.15533
C_ C_ 0.736067 0.519429 0.772853 0.02923
C_ C_ 0.707379 0.990018 0.803606 -0.15533
C_ C_ 0.664012 0.50865 0.81889 0.18167
C_ C_ 0.527866 0.635231 0.767191 0.18167
C_ C_ 0.0062854 0.676378 0.742437 -0.15533
C_ C_ 0.511557 0.727932 0.761672 0.02923
C_ C_ 0.54169 0.733493 0.8087 -0.15533
C_ C_ 0.561168 0.689938 0.835395 0.18167
C_ C_ 0.505251 0.54998 0.868217 0.69207
C_ C_ 0.978718 -0.000910081 0.875055 0.02923
C_ C_ 0.00197761 0.947966 0.878271 -0.15533
C_ C_ 0.969515 0.909042 0.879174 -0.15533
C_ C_ 0.918441 0.921694 0.893339 0.02923
C_ C_ 0.899704 0.973527 0.898551 -0.15533
C_ C_ 0.928673 0.0117881 0.885161 0.02923
C_ C_ 0.901441 0.572609 0.889031 0.69207
C_ C_ 0.905657 0.8251 0.897093 0.69661
C_ C_ 0.56276 0.802547 0.593937 0.18167
C_ C_ 0.52124 0.777793 0.575425 -0.15533
C_ C_ 0.512455 0.765949 0.524449 0.02923
C_ C_ 0.537744 0.80616 0.986368 -0.15533
C_ C_ 0.587043 0.809298 0.511625 0.18167
C_ C_ 0.713772 0.767412 0.635632 0.18167
C_ C_ 0.734343 0.737882 0.67646 -0.15533
C_ C_ 0.739626 0.762215 0.725764 0.02923
C_ C_ 0.717625 0.813914 0.733674 -0.15533
C_ C_ 0.701042 0.841367 0.690276 0.18167
C_ C_ 0.739316 0.867209 0.545296 0.69207
C_ C_ 0.780141 0.87682 1.014451 0.02923
C_ C_ 0.760296 0.874763 0.962103 -0.15533
C_ C_ 0.792742 0.880142 0.92313 -0.15533
C_ C_ 0.844238 0.889873 0.932999 0.02923
C_ C_ 0.863597 0.892999 0.987178 -0.15533
C_ C_ 0.832725 0.883715 0.025943 0.02923
C_ C_ 0.849874 0.879058 0.571752 0.69207
C_ C_ 0.8545 0.880797 0.835483 0.69661
C_ C_ 0.809627 0.937373 0.687646 0.18167
C_ C_ 0.771134 0.962953 0.714254 -0.15533
C_ C_ 0.782259 -0.000622627 0.75452 0.02923
C_ C_ 0.826993 0.516776 0.75182 -0.15533
C_ C_ 0.869716 0.986315 0.734525 0.18167
C_ C_ 0.988781 0.857441 0.712722 0.18167
C_ C_ 0.517913 0.812929 0.727261 -0.15533
C_ C_ 0.985076 0.770321 0.738462 0.02923
C_ C_ 0.93313 0.775007 0.721229 -0.15533
C_ C_ 0.909517 0.820569 0.700364 0.18167
C_ C_ 0.985133 0.94716 0.622472 0.69207
C_ C_ 0.52557 0.481119 0.606985 0.02923
C_ C_ 0.501097 0.52905 0.596581 -0.15533
C_ C_ 0.53138 0.5687 0.590011 -0.15533
C_ C_ 0.583759 0.561898 0.594694 0.02923
C_ C_ 0.606567 0.511669 0.594698 -0.15533
C_ C_ 0.578908 0.470453 0.60506 0.02923
C_ C_ 0.599865 0.928993 0.612406 0.69207
C_ C_ 0.588949 0.65901 0.596304 0.69661
C_ C_ 0.9374 0.681866 0.939042 0.18167
C_ C_ 0.978066 0.705522 0.963944 -0.15533
C_ C_ 0.972119 0.740659 1.00249723 0.02923
C_ C_ 0.91754 0.758346 0.511709 -0.15533
C_ C_ 0.88347 0.722836 0.997803 0.18167
C_ C_ 0.760933 0.706322 0.855128 0.18167
C_ C_ 0.735791 0.721389 0.811063 -0.15533
C_ C_ 0.763736 0.73263 0.76938 0.02923
C_ C_ 0.816523 0.718371 0.772578 -0.15533
C_ C_ 0.839834 0.69879 0.818252 0.18167
C_ C_ 0.765323 0.626469 0.957505 0.69207
C_ C_ 0.724342 0.607542 0.489252 0.02923
C_ C_ 0.743564 0.60533 0.542661 -0.15533
C_ C_ 0.707884 0.600801 0.578036 -0.15533
C_ C_ 0.654599 0.602868 0.563877 0.02923
C_ C_ 0.637597 0.599108 0.512038 -0.15533
C_ C_ 0.671777 0.60366 0.473647 0.02923
C_ C_ 0.657609 0.604599 0.922233 0.69207
C_ C_ 0.638493 0.602871 0.661428 0.69661
C_ C_ 0.880314 0.880551 0.890214 -0.30787
C_ C_ 0.616735 0.606524 0.604645 -0.30787
N_ N_ 0.647579 0.558275 0.813947 -0.32189
N_ N_ 0.559388 0.642077 0.81206 -0.32189
N_ N_ 0.600282 0.8081 0.562635 -0.32189
N_ N_ 0.697077 0.817647 0.643095 -0.32189
N_ N_ 0.857896 0.951098 0.695707 -0.32189
N_ N_ 0.938569 0.860935 0.69617 -0.32189
N_ N_ 0.89001 0.692963 0.952736 -0.32189
N_ N_ 0.809712 0.687517 0.85536 -0.32189
O_ O_ 1.0137798 0.591097 0.902165 -0.63271
O_ O_ 0.541884 0.537572 0.837256 -0.57982
O_ O_ 0.887758 0.592161 0.842586 -0.63271
O_ O_ 0.876176 0.595054 0.925949 -0.57982
O_ O_ 0.736983 0.90086 0.583262 -0.63271
O_ O_ 0.701054 0.840348 0.533613 -0.57982
O_ O_ 0.85164 0.836763 0.594777 -0.63271
O_ O_ 0.875883 0.914618 0.594151 -0.57982
O_ O_ 0.494302 0.909567 0.598563 -0.63271
O_ O_ 0.958665 0.95357 0.661873 -0.57982
O_ O_ 0.593405 0.90362 0.652675 -0.63271
O_ O_ 0.631584 0.908063 0.578492 -0.57982
O_ O_ 0.771991 0.593942 0.91952 -0.63271
O_ O_ 0.79394 0.663449 0.965018 -0.57982
O_ O_ 0.666656 0.63931 0.893241 -0.63271
O_ O_ 0.621762 0.576228 0.908223 -0.57982
F_ F_ 0.940361 0.822371 0.94209 -0.20885
F_ F_ 0.934666 0.807204 0.860305 -0.20885
F_ F_ 0.870976 0.79174 0.901272 -0.20885
F_ F_ 0.826399 0.92641 0.830107 -0.20885
F_ F_ 0.825377 0.84157 0.815715 -0.20885
F_ F_ 0.892477 0.879318 0.801066 -0.20885
F_ F_ 0.556078 0.664322 0.551197 -0.20885
F_ F_ 0.562439 0.675003 0.639428 -0.20885
F_ F_ 0.621785 0.696124 0.59535 -0.20885
F_ F_ 0.670015 0.558176 0.670863 -0.20885
F_ F_ 0.660967 0.645701 0.681487 -0.20885
F_ F_ 0.597064 0.598334 0.690912 -0.20885
