_cell_length_a 26.508
_cell_length_b 26.37200000322088
_cell_length_c 26.311999743092066
_cell_angle_alpha 93.74100058972084
_cell_angle_beta 96.04100104955006
_cell_angle_gamma 83.6869992558723
_symmetry_space_group_name_H-M         'P 1'
_symmetry_Int_Tables_number            1
loop_
_symmetry_equiv_pos_as_xyz
   'x, y, z'
                         
loop_
_atom_site_label
_atom_site_type_symbol
_atom_site_fract_x 
_atom_site_fract_y
_atom_site_fract_z
_atom_site_charge
Zn Zn 0.0864061 0.0880706 0.352656 0.83971
Zn Zn 0.157361 0.349089 0.0888266 0.83971
Zn Zn 0.412639 0.418234 0.154689 0.83971
Zn Zn 0.337033 0.15813 0.417485 0.83971
H_ H_ 0.165539 0.136312 0.303208 0.10394
H_ H_ 0.248454 0.103208 0.268284 0.10394
H_ H_ 0.197196 0.448798 0.262132 0.10394
H_ H_ 0.140202 0.991121 0.343598 0.10394
H_ H_ 0.528994 0.106333 0.246014 0.10394
H_ H_ 0.486207 0.183173 0.209463 0.10394
H_ H_ 0.0525481 0.272062 0.316634 0.10394
H_ H_ 0.0849604 0.194758 0.368501 0.10394
H_ H_ 0.0375292 0.437876 0.36144 0.10394
H_ H_ 0.476356 0.378939 0.365073 0.10394
H_ H_ 0.36163 0.499448 0.406453 0.10394
H_ H_ 0.0746941 0.312343 0.140117 0.10394
H_ H_ 0.503802 0.256903 0.10842 0.10394
H_ H_ 0.0443203 0.291121 0.4434 0.10394
H_ H_ 0.107216 0.335 0.99062 0.10394
H_ H_ 0.200545 0.254248 0.106337 0.10394
H_ H_ 0.254179 0.207147 0.177075 0.10394
H_ H_ 0.212825 0.341622 0.275567 0.10394
H_ H_ 0.164359 0.382756 0.201332 0.10394
H_ H_ 0.219452 0.386407 0.442747 0.10394
H_ H_ 0.266742 0.396231 0.375014 0.10394
H_ H_ 0.401064 0.415749 0.486823 0.10394
H_ H_ 0.311431 0.403921 0.155276 0.10394
H_ H_ 0.235178 0.453814 0.173473 0.10394
H_ H_ 0.334989 0.0467618 0.287679 0.10394
H_ H_ 0.406023 0.500109 0.241521 0.10394
H_ H_ 0.0142239 0.381897 0.190441 0.10394
H_ H_ 0.055307 0.311045 0.236329 0.10394
H_ H_ 0.408217 0.25596 0.235335 0.10394
H_ H_ 0.368913 0.328011 0.19513 0.10394
H_ H_ 0.464535 0.0487514 0.12218 0.10394
H_ H_ 0.0222203 0.119716 0.118648 0.10394
H_ H_ 0.149003 0.00705378 0.0884801 0.10394
H_ H_ 0.436869 0.170399 0.393433 0.10394
H_ H_ 0.0120139 0.218401 0.42636 0.10394
H_ H_ 0.411931 0.270616 0.0474398 0.10394
H_ H_ 0.344024 0.233552 0.50142 0.10394
H_ H_ 0.228532 0.197785 0.389823 0.10394
H_ H_ 0.184309 0.242151 0.31346 0.10394
H_ H_ 0.32884 0.231125 0.250158 0.10394
H_ H_ 0.371484 0.187331 0.33077 0.10394
H_ H_ 0.28349 0.120622 0.0477684 0.10394
H_ H_ 0.236779 0.104537 0.115076 0.10394
H_ H_ 0.102438 0.0955648 0.00651136 0.10394
C_ C_ 0.177746 0.0988256 0.303504 0.18167
C_ C_ 0.224648 0.0789387 0.28404 -0.15533
C_ C_ 0.23664 0.0270455 0.280394 0.02923
C_ C_ 0.19424 0.490463 0.272671 -0.15533
C_ C_ 0.16544 0.0175024 0.330093 0.18167
C_ C_ 0.0174895 0.135161 0.276433 0.18167
C_ C_ 0.505998 0.187025 0.245917 -0.15533
C_ C_ 0.00663822 0.225509 0.260213 0.02923
C_ C_ 0.0395059 0.232624 0.304916 -0.15533
C_ C_ 0.0649227 0.190477 0.329299 0.18167
C_ C_ 0.00862032 0.0476719 0.368714 0.69207
C_ C_ 0.480509 0.506862 0.368261 0.02923
C_ C_ 0.494982 0.454435 0.358484 -0.15533
C_ C_ 0.462863 0.419647 0.367847 -0.15533
C_ C_ 0.41536 0.432026 0.385962 0.02923
C_ C_ 0.400033 0.48639 0.394109 -0.15533
C_ C_ 0.430658 0.521822 0.380578 0.02923
C_ C_ 0.398202 0.0759107 0.391852 0.69207
C_ C_ 0.396492 0.336388 0.385754 0.69661
C_ C_ 0.0655999 0.305755 0.0982092 0.18167
C_ C_ 0.0211375 0.283111 0.0791035 -0.15533
C_ C_ 0.00872058 0.27876 0.0272831 0.02923
C_ C_ 0.0532825 0.294126 0.483939 -0.15533
C_ C_ 0.0831868 0.320803 0.0135707 0.18167
C_ C_ 0.209087 0.272808 0.142032 0.18167
C_ C_ 0.229105 0.243236 0.183389 -0.15533
C_ C_ 0.230625 0.268981 0.234414 0.02923
C_ C_ 0.207788 0.321086 0.240786 -0.15533
C_ C_ 0.185664 0.345017 0.196811 0.18167
C_ C_ 0.244937 0.360483 0.0486686 0.69207
C_ C_ 0.278633 0.3914 0.506167 0.02923
C_ C_ 0.258098 0.392448 0.454231 -0.15533
C_ C_ 0.286888 0.40131 0.415024 -0.15533
C_ C_ 0.339543 0.406999 0.424939 0.02923
C_ C_ 0.359524 0.41407 0.47642 -0.15533
C_ C_ 0.332623 0.398124 0.516351 0.02923
C_ C_ 0.358294 0.37945 0.0727923 0.69207
C_ C_ 0.346767 0.397248 0.327278 0.69661
C_ C_ 0.313654 0.438785 0.174679 0.18167
C_ C_ 0.270327 0.461701 0.194121 -0.15533
C_ C_ 0.275188 0.500334 0.231351 0.02923
C_ C_ 0.326978 0.0173405 0.259776 -0.15533
C_ C_ 0.367536 0.492515 0.224194 0.18167
C_ C_ 0.491614 0.358258 0.202679 0.18167
C_ C_ 0.0134974 0.3129 0.227774 -0.15533
C_ C_ 0.485429 0.279314 0.245138 0.02923
C_ C_ 0.433448 0.285936 0.231791 -0.15533
C_ C_ 0.412103 0.325547 0.203139 0.18167
C_ C_ 0.48439 0.455709 0.115919 0.69207
C_ C_ 0.0259943 0.992559 0.112828 0.02923
C_ C_ 0.00799934 0.0435223 0.118849 -0.15533
C_ C_ 0.0376748 0.0819423 0.108364 -0.15533
C_ C_ 0.0902024 0.0687945 0.101299 0.02923
C_ C_ 0.109819 0.0158188 0.0953167 -0.15533
C_ C_ 0.0782783 0.979656 0.103939 0.02923
C_ C_ 0.0998104 0.431016 0.108679 0.69207
C_ C_ 0.0986999 0.166983 0.106922 0.69661
C_ C_ 0.43568 0.189312 0.429326 0.18167
C_ C_ 0.478001 0.21127 0.453074 -0.15533
C_ C_ 0.472348 0.244217 0.498837 0.02923
C_ C_ 0.419943 0.242174 0.0150968 -0.15533
C_ C_ 0.382968 0.226949 0.491727 0.18167
C_ C_ 0.25024 0.204788 0.358827 0.18167
C_ C_ 0.226789 0.233599 0.318396 -0.15533
C_ C_ 0.254549 0.242978 0.279115 0.02923
C_ C_ 0.305188 0.226432 0.282707 -0.15533
C_ C_ 0.328282 0.19776 0.323988 0.18167
C_ C_ 0.261928 0.117252 0.457918 0.69207
C_ C_ 0.22672 0.112453 0.985745 0.02923
C_ C_ 0.245739 0.115731 0.038303 -0.15533
C_ C_ 0.21586 0.107842 0.0771351 -0.15533
C_ C_ 0.16261 0.105026 0.0662553 0.02923
C_ C_ 0.141698 0.106655 0.0145282 -0.15533
C_ C_ 0.175301 0.103732 0.974919 0.02923
C_ C_ 0.14953 0.108061 0.433174 0.69207
C_ C_ 0.15046 0.106735 0.16427 0.69661
C_ C_ 0.373843 0.393386 0.382262 -0.30787
C_ C_ 0.125277 0.112334 0.109192 -0.30787
N_ N_ 0.147394 0.0658876 0.320438 -0.32189
N_ N_ 0.055092 0.143334 0.311723 -0.32189
N_ N_ 0.0966612 0.32074 0.064312 -0.32189
N_ N_ 0.188421 0.321124 0.14954 -0.32189
N_ N_ 0.360244 0.455263 0.187299 -0.32189
N_ N_ 0.441666 0.361003 0.188318 -0.32189
N_ N_ 0.388343 0.198835 0.44749 -0.32189
N_ N_ 0.299508 0.186646 0.361157 -0.32189
O_ O_ 0.508125 0.0930335 0.405905 -0.63271
O_ O_ 0.0481576 0.0346222 0.344314 -0.57982
O_ O_ 0.388978 0.0969973 0.347165 -0.63271
O_ O_ 0.368301 0.0927513 0.428096 -0.57982
O_ O_ 0.255411 0.378811 0.0973411 -0.63271
O_ O_ 0.199811 0.342553 0.0380515 -0.57982
O_ O_ 0.363405 0.339726 0.101447 -0.63271
O_ O_ 0.382599 0.418987 0.0886434 -0.57982
O_ O_ 0.989069 0.413702 0.0894723 -0.63271
O_ O_ 0.454122 0.465408 0.154176 -0.57982
O_ O_ 0.0926237 0.403745 0.146885 -0.63271
O_ O_ 0.130386 0.410586 0.0755014 -0.57982
O_ O_ 0.253915 0.0967998 0.411238 -0.63271
O_ O_ 0.29115 0.156507 0.464784 -0.57982
O_ O_ 0.147402 0.150051 0.409007 -0.63271
O_ O_ 0.114568 0.0783996 0.418663 -0.57982
F_ F_ 0.425604 0.324956 0.429558 -0.20885
F_ F_ 0.419835 0.315637 0.34441 -0.20885
F_ F_ 0.356379 0.305913 0.386782 -0.20885
F_ F_ 0.314723 0.442147 0.324756 -0.20885
F_ F_ 0.31634 0.356996 0.314752 -0.20885
F_ F_ 0.37914 0.395989 0.289386 -0.20885
F_ F_ 0.0659215 0.171527 0.0639804 -0.20885
F_ F_ 0.0718162 0.184734 0.148171 -0.20885
F_ F_ 0.133808 0.202015 0.105499 -0.20885
F_ F_ 0.178879 0.0618021 0.17113 -0.20885
F_ F_ 0.180178 0.145442 0.180535 -0.20885
F_ F_ 0.112748 0.109797 0.197361 -0.20885
Zn Zn 0.0823518 0.0792271 0.843682 0.83971
Zn Zn 0.16509 0.348683 0.580886 0.83971
Zn Zn 0.411063 0.423686 0.655866 0.83971
Zn Zn 0.340202 0.147282 0.910866 0.83971
H_ H_ 0.166041 0.128834 0.802179 0.10394
H_ H_ 0.247272 0.0932003 0.771732 0.10394
H_ H_ 0.20824 0.439594 0.777479 0.10394
H_ H_ 0.121559 0.978707 0.801699 0.10394
H_ H_ 0.527664 0.103459 0.750955 0.10394
H_ H_ 0.48099 0.175497 0.70536 0.10394
H_ H_ 0.0300521 0.268192 0.840927 0.10394
H_ H_ 0.0741005 0.185496 0.875224 0.10394
H_ H_ 0.0262996 0.44179 0.855567 0.10394
H_ H_ 0.478152 0.378221 0.888084 0.10394
H_ H_ 0.348069 0.487692 0.901428 0.10394
H_ H_ 0.0896069 0.306386 0.627501 0.10394
H_ H_ 0.49685 0.283522 0.600003 0.10394
H_ H_ 0.0293165 0.303409 0.954379 0.10394
H_ H_ 0.123393 0.324832 0.477119 0.10394
H_ H_ 0.219163 0.250114 0.593419 0.10394
H_ H_ 0.267405 0.203368 0.662114 0.10394
H_ H_ 0.223865 0.331805 0.770444 0.10394
H_ H_ 0.181344 0.376951 0.694595 0.10394
H_ H_ 0.219363 0.356851 0.950205 0.10394
H_ H_ 0.268741 0.367831 0.879301 0.10394
H_ H_ 0.395861 0.399953 0.984572 0.10394
H_ H_ 0.310633 0.397815 0.657582 0.10394
H_ H_ 0.235125 0.436872 0.695387 0.10394
H_ H_ 0.329661 0.0509994 0.776991 0.10394
H_ H_ 0.400413 0.50245 0.73919 0.10394
H_ H_ 0.0119564 0.37859 0.683283 0.10394
H_ H_ 0.0537638 0.301346 0.721204 0.10394
H_ H_ 0.414592 0.249931 0.711008 0.10394
H_ H_ 0.377222 0.322722 0.671613 0.10394
H_ H_ 0.459199 0.0415113 0.603654 0.10394
H_ H_ 0.0130079 0.11527 0.604725 0.10394
H_ H_ 0.146818 0.00350798 0.597063 0.10394
H_ H_ 0.444338 0.154465 0.897932 0.10394
H_ H_ 0.0126209 0.201842 0.960822 0.10394
H_ H_ 0.423672 0.264622 0.557706 0.10394
H_ H_ 0.342558 0.231188 -0.00709123 0.10394
H_ H_ 0.235838 0.187013 0.874228 0.10394
H_ H_ 0.197558 0.23576 0.802142 0.10394
H_ H_ 0.343169 0.212229 0.737527 0.10394
H_ H_ 0.380669 0.173505 0.818375 0.10394
H_ H_ 0.286721 0.105397 0.560611 0.10394
H_ H_ 0.23082 0.0960074 0.625966 0.10394
H_ H_ 0.106243 0.0816038 0.510355 0.10394
C_ C_ 0.173255 0.0889988 0.795083 0.18167
C_ C_ 0.220399 0.0688241 0.778758 -0.15533
C_ C_ 0.234446 0.0173257 0.77453 0.02923
C_ C_ 0.198681 0.480962 0.783993 -0.15533
C_ C_ 0.152472 0.00487336 0.802985 0.18167
C_ C_ 0.0234881 0.138082 0.768039 0.18167
C_ C_ 0.504999 0.182411 0.740936 -0.15533
C_ C_ 0.0023599999999999177 0.228439 0.765788 0.02923
C_ C_ 0.0315112 0.231963 0.817121 -0.15533
C_ C_ 0.0505997 0.185655 0.840011 0.18167
C_ C_ -0.00217323 0.0453316 0.859052 0.69207
C_ C_ 0.470871 0.508761 0.888011 0.02923
C_ C_ 0.492375 0.458292 0.887324 -0.15533
C_ C_ 0.461017 0.418124 0.891107 -0.15533
C_ C_ 0.407592 0.426266 0.889937 0.02923
C_ C_ 0.387697 0.4789 0.897012 -0.15533
C_ C_ 0.417845 0.519556 0.891527 0.02923
C_ C_ 0.397902 0.0625895 0.88904 0.69207
C_ C_ 0.397238 0.327968 0.884211 0.69661
C_ C_ 0.0784391 0.303254 0.586592 0.18167
C_ C_ 0.0336958 0.282495 0.569631 -0.15533
C_ C_ 0.0219278 0.27322 0.51635 0.02923
C_ C_ 0.0400007 0.299765 0.994218 -0.15533
C_ C_ 0.0978642 0.313022 0.503112 0.18167
C_ C_ 0.214976 0.264306 0.631954 0.18167
C_ C_ 0.246235 0.239251 0.671575 -0.15533
C_ C_ 0.243296 0.260901 0.723017 0.02923
C_ C_ 0.220467 0.311293 0.731257 -0.15533
C_ C_ 0.202708 0.338755 0.687045 0.18167
C_ C_ 0.249552 0.378259 0.546038 0.69207
C_ C_ 0.277185 0.370538 0.00937474 0.02923
C_ C_ 0.254825 0.368945 0.958883 -0.15533
C_ C_ 0.284351 0.372432 0.918078 -0.15533
C_ C_ 0.335111 0.383451 0.928256 0.02923
C_ C_ 0.357195 0.389112 0.979237 -0.15533
C_ C_ 0.331489 0.378152 0.0207894 0.02923
C_ C_ 0.362841 0.388403 0.566367 0.69207
C_ C_ 0.342019 0.38639 0.82871 0.69661
C_ C_ 0.313906 0.430532 0.686293 0.18167
C_ C_ 0.271836 0.45268 0.706723 -0.15533
C_ C_ 0.27562 0.495315 0.740241 0.02923
C_ C_ 0.32245 0.0172336 0.752548 -0.15533
C_ C_ 0.362724 0.492281 0.728168 0.18167
C_ C_ 0.491119 0.362346 0.707515 0.18167
C_ C_ 0.0125964 0.304957 0.716079 -0.15533
C_ C_ 0.487538 0.276593 0.734003 0.02923
C_ C_ 0.437905 0.279414 0.708678 -0.15533
C_ C_ 0.417318 0.322415 0.6806 0.18167
C_ C_ 0.490576 0.458748 0.62545 0.69207
C_ C_ 0.0233683 0.988286 0.619107 0.02923
C_ C_ -0.000230299 0.0374896 0.607789 -0.15533
C_ C_ 0.0323532 0.0756186 0.60538 -0.15533
C_ C_ 0.0857223 0.0663911 0.605006 0.02923
C_ C_ 0.107053 0.0139083 0.605932 -0.15533
C_ C_ 0.0759795 0.977241 0.615257 0.02923
C_ C_ 0.100102 0.423515 0.601845 0.69207
C_ C_ 0.0987605 0.164084 0.606775 0.69661
C_ C_ 0.437592 0.17461 0.933258 0.18167
C_ C_ 0.479352 0.193186 0.963629 -0.15533
C_ C_ 0.470085 0.226743 1.00675482 0.02923
C_ C_ 0.423923 0.247543 0.51961 -0.15533
C_ C_ 0.380311 0.218801 0.987431 0.18167
C_ C_ 0.260228 0.191543 0.845518 0.18167
C_ C_ 0.237828 0.222831 0.80513 -0.15533
C_ C_ 0.266906 0.232265 0.766267 0.02923
C_ C_ 0.319867 0.212686 0.770853 -0.15533
C_ C_ 0.341543 0.190117 0.815885 0.18167
C_ C_ 0.263694 0.119499 0.951021 0.69207
C_ C_ 0.227147 0.108209 0.495554 0.02923
C_ C_ 0.245982 0.105326 0.548807 -0.15533
C_ C_ 0.213191 0.103107 0.586903 -0.15533
C_ C_ 0.161814 0.0977934 0.574039 0.02923
C_ C_ 0.144078 0.0942744 0.521267 -0.15533
C_ C_ 0.174723 0.106673 0.484737 0.02923
C_ C_ 0.1493 0.10425 0.923262 0.69207
C_ C_ 0.146283 0.105273 0.667182 0.69661
C_ C_ 0.37063 0.380507 0.882497 -0.30787
C_ C_ 0.120466 0.108924 0.611627 -0.30787
N_ N_ 0.140145 0.0567494 0.809047 -0.32189
N_ N_ 0.048794 0.140851 0.813798 -0.32189
N_ N_ 0.109542 0.319496 0.554697 -0.32189
N_ N_ 0.195856 0.314764 0.641585 -0.32189
N_ N_ 0.358546 0.450418 0.698715 -0.32189
N_ N_ 0.44137 0.366171 0.686254 -0.32189
N_ N_ 0.390236 0.183079 0.948915 -0.32189
N_ N_ 0.31198 0.182252 0.853246 -0.32189
O_ O_ 0.503598 0.0868441 0.889679 -0.63271
O_ O_ 0.0378036 0.0298605 0.836065 -0.57982
O_ O_ 0.401352 0.0870368 0.847968 -0.63271
O_ O_ 0.365555 0.0821563 0.920696 -0.57982
O_ O_ 0.245742 0.409723 0.584983 -0.63271
O_ O_ 0.214194 0.344256 0.537065 -0.57982
O_ O_ 0.362339 0.344586 0.587766 -0.63271
O_ O_ 0.382765 0.424051 0.591993 -0.57982
O_ O_ 0.99076 0.404879 0.59344 -0.63271
O_ O_ 0.457795 0.46865 0.658623 -0.57982
O_ O_ 0.101386 0.401979 0.646566 -0.63271
O_ O_ 0.135391 0.410579 0.571238 -0.57982
O_ O_ 0.259757 0.0994791 0.904628 -0.63271
O_ O_ 0.296509 0.152237 0.962217 -0.57982
O_ O_ 0.156771 0.140417 0.894135 -0.63271
O_ O_ 0.110289 0.0783865 0.909659 -0.57982
F_ F_ 0.430166 0.323888 0.928119 -0.20885
F_ F_ 0.42584 0.306824 0.845632 -0.20885
F_ F_ 0.363479 0.292579 0.888796 -0.20885
F_ F_ 0.308912 0.430351 0.829124 -0.20885
F_ F_ 0.311139 0.34729 0.809519 -0.20885
F_ F_ 0.379404 0.386517 0.794165 -0.20885
F_ F_ 0.0700959 0.173238 0.561921 -0.20885
F_ F_ 0.0663706 0.181364 0.642956 -0.20885
F_ F_ 0.137017 0.19595 0.608435 -0.20885
F_ F_ 0.170224 0.0568617 0.676956 -0.20885
F_ F_ 0.178968 0.143132 0.680205 -0.20885
F_ F_ 0.111661 0.112769 0.704317 -0.20885
Zn Zn 0.0900591 0.585474 0.344057 0.83971
Zn Zn 0.156911 0.844244 0.0868728 0.83971
Zn Zn 0.40804 0.91724 0.160212 0.83971
Zn Zn 0.347653 0.655708 0.416855 0.83971
H_ H_ 0.182487 0.631579 0.31879 0.10394
H_ H_ 0.257142 0.596789 0.277151 0.10394
H_ H_ 0.210389 0.955978 0.300402 0.10394
H_ H_ 0.121453 0.490222 0.305923 0.10394
H_ H_ 0.542128 0.602931 0.24675 0.10394
H_ H_ 0.506689 0.677904 0.204602 0.10394
H_ H_ 0.0264491 0.771635 0.339522 0.10394
H_ H_ 0.0699045 0.692308 0.379972 0.10394
H_ H_ 0.035355 0.94579 0.370888 0.10394
H_ H_ 0.488 0.883166 0.399999 0.10394
H_ H_ 0.352625 0.989202 0.396091 0.10394
H_ H_ 0.0724169 0.812697 0.129951 0.10394
H_ H_ 0.501504 0.75403 0.0948628 0.10394
H_ H_ 0.0235532 0.789101 0.446964 0.10394
H_ H_ 0.117319 0.829353 0.983502 0.10394
H_ H_ 0.204854 0.746772 0.102735 0.10394
H_ H_ 0.256873 0.706419 0.173517 0.10394
H_ H_ 0.220222 0.838143 0.271982 0.10394
H_ H_ 0.194556 0.885415 0.189895 0.10394
H_ H_ 0.223919 0.852449 0.439752 0.10394
H_ H_ 0.276998 0.872403 0.378796 0.10394
H_ H_ 0.391985 0.918172 0.491746 0.10394
H_ H_ 0.305298 0.898022 0.169582 0.10394
H_ H_ 0.234474 0.952975 0.204512 0.10394
H_ H_ 0.330814 0.535587 0.283781 0.10394
H_ H_ 0.402577 0.00706999999999991 0.237282 0.10394
H_ H_ 0.0108269 0.887934 0.201855 0.10394
H_ H_ 0.0621858 0.811327 0.22855 0.10394
H_ H_ 0.415709 0.743747 0.228215 0.10394
H_ H_ 0.376777 0.819356 0.189869 0.10394
H_ H_ 0.465331 0.557241 0.113557 0.10394
H_ H_ 0.018168 0.62145 0.122401 0.10394
H_ H_ 0.141094 0.507532 0.0804896 0.10394
H_ H_ 0.448652 0.672052 0.394987 0.10394
H_ H_ 0.0184261 0.684358 0.461437 0.10394
H_ H_ 0.415491 0.781127 0.0451361 0.10394
H_ H_ 0.346859 0.735015 0.49405 0.10394
H_ H_ 0.242516 0.707454 0.395928 0.10394
H_ H_ 0.195136 0.74388 0.319634 0.10394
H_ H_ 0.335816 0.732546 0.247033 0.10394
H_ H_ 0.38036 0.696062 0.322249 0.10394
H_ H_ 0.287476 0.6111 0.052643 0.10394
H_ H_ 0.234909 0.595166 0.114522 0.10394
H_ H_ 0.0990054 0.601773 0.00508675 0.10394
C_ C_ 0.183267 0.593937 0.300653 0.18167
C_ C_ 0.226503 0.573649 0.278217 -0.15533
C_ C_ 0.230803 0.521275 0.260861 0.02923
C_ C_ 0.206819 0.996573 0.304874 -0.15533
C_ C_ 0.152429 0.512571 0.298474 0.18167
C_ C_ 0.0393762 0.638336 0.265274 0.18167
C_ C_ 0.515628 0.680951 0.244742 -0.15533
C_ C_ 0.0156709 0.730663 0.264981 0.02923
C_ C_ 0.0296088 0.733366 0.31871 -0.15533
C_ C_ 0.0504765 0.689193 0.3431 0.18167
C_ C_ 0.00975773 0.539153 0.362911 0.69207
C_ C_ 0.474224 0.0119638 0.385096 0.02923
C_ C_ 0.498107 0.960968 0.389717 -0.15533
C_ C_ 0.467569 0.921176 0.392549 -0.15533
C_ C_ 0.413342 0.928778 0.393669 0.02923
C_ C_ 0.393338 0.981574 0.392635 -0.15533
C_ C_ 0.422703 0.023632 0.391269 0.02923
C_ C_ 0.405779 0.576067 0.381902 0.69207
C_ C_ 0.405692 0.835412 0.391616 0.69661
C_ C_ 0.0667798 0.801033 0.0890158 0.18167
C_ C_ 0.0231182 0.778595 0.0693399 -0.15533
C_ C_ 0.0137048 0.770092 0.01704 0.02923
C_ C_ 0.0339444 0.795518 0.487715 -0.15533
C_ C_ 0.0906897 0.811237 0.00647463 0.18167
C_ C_ 0.208225 0.765392 0.141278 0.18167
C_ C_ 0.236176 0.741873 0.182293 -0.15533
C_ C_ 0.236838 0.76852 0.230311 0.02923
C_ C_ 0.216757 0.81956 0.234181 -0.15533
C_ C_ 0.19544 0.844751 0.190011 0.18167
C_ C_ 0.241641 0.857189 0.0464488 0.69207
C_ C_ 0.275085 0.879125 0.506197 0.02923
C_ C_ 0.25962 0.869229 0.454098 -0.15533
C_ C_ 0.2895 0.878217 0.417709 -0.15533
C_ C_ 0.338185 0.890684 0.42897 0.02923
C_ C_ 0.355197 0.901956 0.481366 -0.15533
C_ C_ 0.324534 0.895728 0.520217 0.02923
C_ C_ 0.352533 0.879576 0.0772282 0.69207
C_ C_ 0.358474 0.888049 0.331366 0.69661
C_ C_ 0.310718 0.932829 0.19455 0.18167
C_ C_ 0.270657 0.96015 0.215748 -0.15533
C_ C_ 0.279215 1.000512642 0.250977 0.02923
C_ C_ 0.324678 0.518186 0.245597 -0.15533
C_ C_ 0.366589 0.994921 0.230323 0.18167
C_ C_ 0.492913 0.857765 0.211764 0.18167
C_ C_ 0.0191882 0.813358 0.224009 -0.15533
C_ C_ 0.488968 0.774011 0.245844 0.02923
C_ C_ 0.439269 0.776557 0.227162 -0.15533
C_ C_ 0.416604 0.819542 0.201212 0.18167
C_ C_ 0.487635 0.950152 0.127237 0.69207
C_ C_ 0.0241915 0.491269 0.116906 0.02923
C_ C_ 0.0043785 0.543638 0.121869 -0.15533
C_ C_ 0.0359384 0.584236 0.117883 -0.15533
C_ C_ 0.0865968 0.571129 0.102813 0.02923
C_ C_ 0.10137 0.520738 0.0913418 -0.15533
C_ C_ 0.0737927 0.481883 0.103137 0.02923
C_ C_ 0.104989 0.927972 0.108945 0.69207
C_ C_ 0.103762 0.664915 0.10105 0.69661
C_ C_ 0.444941 0.687556 0.433599 0.18167
C_ C_ 0.485112 0.709003 0.459486 -0.15533
C_ C_ 0.475605 0.747206 0.499853 0.02923
C_ C_ 0.422127 0.753835 0.0133297 -0.15533
C_ C_ 0.385722 0.733188 0.48468 0.18167
C_ C_ 0.264655 0.713064 0.362973 0.18167
C_ C_ 0.2378 0.735567 0.320776 -0.15533
C_ C_ 0.262425 0.742121 0.276162 0.02923
C_ C_ 0.313373 0.724514 0.276938 -0.15533
C_ C_ 0.338933 0.702848 0.318496 0.18167
C_ C_ 0.266438 0.623341 0.452881 0.69207
C_ C_ 0.225539 0.613977 0.987938 0.02923
C_ C_ 0.247157 0.607462 0.0389378 -0.15533
C_ C_ 0.215589 0.600231 0.0763558 -0.15533
C_ C_ 0.16285 0.597152 0.0651565 0.02923
C_ C_ 0.141253 0.598939 0.0139508 -0.15533
C_ C_ 0.172742 0.603454 0.97511 0.02923
C_ C_ 0.153249 0.606587 0.423103 0.69207
C_ C_ 0.153407 0.605369 0.164751 0.69661
C_ C_ 0.376008 0.887855 0.387634 -0.30787
C_ C_ 0.127909 0.608983 0.109661 -0.30787
N_ N_ 0.147623 0.56439 0.309998 -0.32189
N_ N_ 0.0601094 0.644904 0.314627 -0.32189
N_ N_ 0.10094 0.81379 0.0579796 -0.32189
N_ N_ 0.187185 0.814996 0.146209 -0.32189
N_ N_ 0.358642 0.951395 0.20207 -0.32189
N_ N_ 0.442872 0.858338 0.192956 -0.32189
N_ N_ 0.396537 0.699408 0.444722 -0.32189
N_ N_ 0.313645 0.691945 0.358291 -0.32189
O_ O_ 0.509426 0.59075 0.382455 -0.63271
O_ O_ 0.0470113 0.532401 0.33335 -0.57982
O_ O_ 0.403445 0.605467 0.341327 -0.63271
O_ O_ 0.383103 0.593533 0.422514 -0.57982
O_ O_ 0.245686 0.882154 0.0912886 -0.63271
O_ O_ 0.200809 0.830253 0.0376134 -0.57982
O_ O_ 0.354848 0.839154 0.104375 -0.63271
O_ O_ 0.380016 0.916081 0.0950358 -0.57982
O_ O_ 0.989358 0.913196 0.0934522 -0.63271
O_ O_ 0.454857 0.962222 0.161476 -0.57982
O_ O_ 0.105149 0.904506 0.149995 -0.63271
O_ O_ 0.133025 0.908675 0.0751229 -0.57982
O_ O_ 0.256352 0.606802 0.40567 -0.63271
O_ O_ 0.300656 0.658357 0.4607 -0.57982
O_ O_ 0.150105 0.647484 0.398051 -0.63271
O_ O_ 0.117613 0.577405 0.408045 -0.57982
F_ F_ 0.433577 0.830095 0.435198 -0.20885
F_ F_ 0.438816 0.817825 0.355483 -0.20885
F_ F_ 0.370176 0.797964 0.38592 -0.20885
F_ F_ 0.325048 0.931669 0.325199 -0.20885
F_ F_ 0.331591 0.849218 0.312306 -0.20885
F_ F_ 0.394923 0.885373 0.295694 -0.20885
F_ F_ 0.0690444 0.668641 0.0597146 -0.20885
F_ F_ 0.0813859 0.683846 0.144679 -0.20885
F_ F_ 0.142002 0.694386 0.0917419 -0.20885
F_ F_ 0.18489 0.558732 0.171139 -0.20885
F_ F_ 0.179239 0.648343 0.181347 -0.20885
F_ F_ 0.118298 0.606235 0.200336 -0.20885
Zn Zn 0.0840698 0.584836 0.842566 0.83971
Zn Zn 0.159112 0.840371 0.580694 0.83971
Zn Zn 0.408095 0.916632 0.656995 0.83971
Zn Zn 0.335207 0.656861 0.911612 0.83971
H_ H_ 0.168636 0.626705 0.808546 0.10394
H_ H_ 0.244506 0.593017 0.765212 0.10394
H_ H_ 0.209572 0.945337 0.786333 0.10394
H_ H_ 0.121281 0.478218 0.803477 0.10394
H_ H_ 0.536216 0.595102 0.743441 0.10394
H_ H_ 0.501754 0.669512 0.696089 0.10394
H_ H_ 0.0305411 0.769788 0.818764 0.10394
H_ H_ 0.0766643 0.70003 0.864991 0.10394
H_ H_ 0.0269098 0.945964 0.864606 0.10394
H_ H_ 0.484374 0.871594 0.8869 0.10394
H_ H_ 0.358373 0.983145 0.909963 0.10394
H_ H_ 0.0911973 0.780439 0.626624 0.10394
H_ H_ 0.506421 0.767614 0.604981 0.10394
H_ H_ 0.0420316 0.782958 0.944741 0.10394
H_ H_ 0.0879451 0.850111 0.483313 0.10394
H_ H_ 0.218885 0.746571 0.594484 0.10394
H_ H_ 0.263586 0.703638 0.666743 0.10394
H_ H_ 0.217379 0.837594 0.767351 0.10394
H_ H_ 0.180494 0.877652 0.692128 0.10394
H_ H_ 0.239527 0.81584 0.948832 0.10394
H_ H_ 0.277305 0.851105 0.883461 0.10394
H_ H_ 0.386974 0.912133 0.992854 0.10394
H_ H_ 0.31066 0.892534 0.669089 0.10394
H_ H_ 0.236769 0.934593 0.71168 0.10394
H_ H_ 0.32358 0.54879 0.778407 0.10394
H_ H_ 0.399263 0.00784148 0.733269 0.10394
H_ H_ 0.00650131 0.880366 0.693984 0.10394
H_ H_ 0.052932 0.79818 0.722888 0.10394
H_ H_ 0.409248 0.739481 0.71459 0.10394
H_ H_ 0.36951 0.824943 0.688366 0.10394
H_ H_ 0.471968 0.563069 0.636025 0.10394
H_ H_ 0.0177565 0.619821 0.603689 0.10394
H_ H_ 0.14161 0.507517 0.583127 0.10394
H_ H_ 0.437875 0.662062 0.898207 0.10394
H_ H_ 0.0133737 0.694635 0.936443 0.10394
H_ H_ 0.418416 0.780911 0.548137 0.10394
H_ H_ 0.345506 0.726928 0.0122303 0.10394
H_ H_ 0.237101 0.712819 0.890776 0.10394
H_ H_ 0.193449 0.746272 0.809526 0.10394
H_ H_ 0.332089 0.707808 0.736692 0.10394
H_ H_ 0.371329 0.676307 0.812993 0.10394
H_ H_ 0.289728 0.630395 0.550521 0.10394
H_ H_ 0.233973 0.611702 0.615532 0.10394
H_ H_ 0.106715 0.594884 0.502786 0.10394
C_ C_ 0.173484 0.586652 0.794942 0.18167
C_ C_ 0.218565 0.567159 0.773247 -0.15533
C_ C_ 0.228625 0.515642 0.764048 0.02923
C_ C_ 0.200602 0.98607 0.789036 -0.15533
C_ C_ 0.150484 0.502267 0.799709 0.18167
C_ C_ 0.0253387 0.632456 0.764772 0.18167
C_ C_ 0.511468 0.674119 0.737206 -0.15533
C_ C_ 0.00687397 0.722759 0.754207 0.02923
C_ C_ 0.0319056 0.731533 0.802925 -0.15533
C_ C_ 0.0531758 0.691188 0.831592 0.18167
C_ C_ 0.0012300000000000644 0.543906 0.859539 0.69207
C_ C_ 0.477447 0.000730574 0.879523 0.02923
C_ C_ 0.496502 0.949143 0.88007 -0.15533
C_ C_ 0.466476 0.91133 0.889809 -0.15533
C_ C_ 0.414469 0.922903 0.90149 0.02923
C_ C_ 0.397836 0.973726 0.908799 -0.15533
C_ C_ 0.426843 0.0113256 0.895871 0.02923
C_ C_ 0.394078 0.571923 0.887706 0.69207
C_ C_ 0.396936 0.828749 0.878668 0.69661
C_ C_ 0.0728249 0.791961 0.58893 0.18167
C_ C_ 0.0268818 0.772837 0.572792 -0.15533
C_ C_ 0.00826116 0.771605 0.521534 0.02923
C_ C_ 0.0453918 0.791095 0.985753 -0.15533
C_ C_ 0.0768283 0.820524 0.506689 0.18167
C_ C_ 0.222692 0.766698 0.632286 0.18167
C_ C_ 0.24834 0.741181 0.673615 -0.15533
C_ C_ 0.237686 0.762571 0.724956 0.02923
C_ C_ 0.220803 0.815227 0.729557 -0.15533
C_ C_ 0.201421 0.839812 0.685577 0.18167
C_ C_ 0.242224 0.869521 0.544998 0.69207
C_ C_ 0.281395 0.856837 0.0107758 0.02923
C_ C_ 0.271838 0.837206 0.960474 -0.15533
C_ C_ 0.29311 0.855786 0.921439 -0.15533
C_ C_ 0.338417 0.87946 0.934479 0.02923
C_ C_ 0.35443 0.89109 0.985867 -0.15533
C_ C_ 0.32794 0.878768 0.0245965 0.02923
C_ C_ 0.347743 0.890918 0.575162 0.69207
C_ C_ 0.344889 0.900023 0.833448 0.69661
C_ C_ 0.312334 0.929517 0.688284 0.18167
C_ C_ 0.272267 0.951644 0.716641 -0.15533
C_ C_ 0.276252 0.996784 0.745405 0.02923
C_ C_ 0.3201 0.519825 0.747585 -0.15533
C_ C_ 0.364361 0.991727 0.726236 0.18167
C_ C_ 0.490656 0.850433 0.707996 0.18167
C_ C_ 0.0116659 0.803554 0.7177 -0.15533
C_ C_ 0.482794 0.768381 0.738479 0.02923
C_ C_ 0.431143 0.771731 0.715376 -0.15533
C_ C_ 0.410344 0.815831 0.692074 0.18167
C_ C_ 0.492003 0.950642 0.628143 0.69207
C_ C_ 0.0220119 0.488111 0.604555 0.02923
C_ C_ 1.00138356 0.541592 0.601284 -0.15533
C_ C_ 0.0319903 0.582447 0.596383 -0.15533
C_ C_ 0.0848659 0.570036 0.595636 0.02923
C_ C_ 0.103782 0.517121 0.593522 -0.15533
C_ C_ 0.0743849 0.47635 0.599513 0.02923
C_ C_ 0.0999367 0.922887 0.615296 0.69207
C_ C_ 0.101251 0.666128 0.599062 0.69661
C_ C_ 0.433816 0.68468 0.933329 0.18167
C_ C_ 0.475919 0.706238 0.958393 -0.15533
C_ C_ 0.471126 0.743067 -0.003522000000000025 0.02923
C_ C_ 0.426179 0.754389 0.51675 -0.15533
C_ C_ 0.380094 0.727489 0.991398 0.18167
C_ C_ 0.257017 0.713288 0.856867 0.18167
C_ C_ 0.230891 0.730498 0.810191 -0.15533
C_ C_ 0.259495 0.734842 0.76967 0.02923
C_ C_ 0.30891 0.712118 0.770103 -0.15533
C_ C_ 0.331101 0.689693 0.813558 0.18167
C_ C_ 0.256763 0.625422 0.947763 0.69207
C_ C_ 0.229348 0.617994 0.488955 0.02923
C_ C_ 0.248998 0.619202 0.539268 -0.15533
C_ C_ 0.217103 0.613068 0.577471 -0.15533
C_ C_ 0.164939 0.605815 0.566242 0.02923
C_ C_ 0.147289 0.599695 0.514827 -0.15533
C_ C_ 0.179039 0.603459 0.475245 0.02923
C_ C_ 0.145935 0.608298 0.923627 0.69207
C_ C_ 0.150367 0.609444 0.66217 0.69661
C_ C_ 0.373484 0.883464 0.888963 -0.30787
C_ C_ 0.124675 0.612114 0.606972 -0.30787
N_ N_ 0.138478 0.555014 0.802469 -0.32189
N_ N_ 0.0511828 0.641298 0.81384 -0.32189
N_ N_ 0.0998699 0.809332 0.55457 -0.32189
N_ N_ 0.196992 0.813589 0.639847 -0.32189
N_ N_ 0.357074 0.949538 0.692426 -0.32189
N_ N_ 0.439019 0.854222 0.688715 -0.32189
N_ N_ 0.385441 0.699178 0.94691 -0.32189
N_ N_ 0.305704 0.691297 0.856251 -0.32189
O_ O_ 0.501051 0.595767 0.893261 -0.63271
O_ O_ 0.043659 0.534202 0.838235 -0.57982
O_ O_ 0.38515 0.594232 0.842404 -0.63271
O_ O_ 0.373673 0.595166 0.927089 -0.57982
O_ O_ 0.248478 0.891871 0.591271 -0.63271
O_ O_ 0.201563 0.845736 0.531865 -0.57982
O_ O_ 0.355425 0.846647 0.595624 -0.63271
O_ O_ 0.376486 0.924141 0.594332 -0.57982
O_ O_ 0.995672 0.902878 0.599082 -0.63271
O_ O_ 0.459779 0.957802 0.661495 -0.57982
O_ O_ 0.0974598 0.895628 0.654154 -0.63271
O_ O_ 0.135934 0.906776 0.586046 -0.57982
O_ O_ 0.254999 0.599876 0.904837 -0.63271
O_ O_ 0.291455 0.656378 0.958781 -0.57982
O_ O_ 0.150262 0.647034 0.897811 -0.63271
O_ O_ 0.115455 0.574762 0.904572 -0.57982
F_ F_ 0.425671 0.819401 0.919717 -0.20885
F_ F_ 0.428882 0.821876 0.83844 -0.20885
F_ F_ 0.364002 0.792296 0.866542 -0.20885
F_ F_ 0.303639 0.936683 0.843666 -0.20885
F_ F_ 0.319523 0.859934 0.807536 -0.20885
F_ F_ 0.374206 0.921516 0.801719 -0.20885
F_ F_ 0.070432 0.671257 0.55454 -0.20885
F_ F_ 0.0717305 0.684458 0.639781 -0.20885
F_ F_ 0.136863 0.69989 0.59565 -0.20885
F_ F_ 0.182431 0.5665 0.663782 -0.20885
F_ F_ 0.177648 0.650366 0.679604 -0.20885
F_ F_ 0.115344 0.604835 0.696434 -0.20885
Zn Zn 0.585201 0.0891896 0.349212 0.83971
Zn Zn 0.656039 0.34373 0.0874812 0.83971
Zn Zn 0.907308 0.417984 0.15072 0.83971
Zn Zn 0.845053 0.15635 0.420148 0.83971
H_ H_ 0.666769 0.130785 0.310432 0.10394
H_ H_ 0.74188 0.098423 0.26697 0.10394
H_ H_ 0.721644 0.44751 0.295539 0.10394
H_ H_ 0.628582 0.981107 0.322881 0.10394
H_ H_ 0.00872698 0.0967781 0.26026 0.10394
H_ H_ 0.979459 0.167845 0.206181 0.10394
H_ H_ 0.534295 0.274896 0.338644 0.10394
H_ H_ 0.57094 0.198184 0.381653 0.10394
H_ H_ 0.5325 0.442731 0.34227 0.10394
H_ H_ 0.984474 0.368843 0.366206 0.10394
H_ H_ 0.857626 0.481283 0.394052 0.10394
H_ H_ 0.581966 0.291877 0.135478 0.10394
H_ H_ 0.996494 0.272617 0.104231 0.10394
H_ H_ 0.548565 0.285407 0.447045 0.10394
H_ H_ 0.601298 0.321172 0.983699 0.10394
H_ H_ 0.705673 0.245457 0.103913 0.10394
H_ H_ 0.733194 0.193286 0.176377 0.10394
H_ H_ 0.72722 0.335892 0.268781 0.10394
H_ H_ 0.687024 0.380075 0.196428 0.10394
H_ H_ 0.719171 0.358578 0.434424 0.10394
H_ H_ 0.77237 0.368753 0.371349 0.10394
H_ H_ 0.896296 0.401847 0.481566 0.10394
H_ H_ 0.801113 0.397406 0.159318 0.10394
H_ H_ 0.728656 0.45671 0.19147 0.10394
H_ H_ 0.825907 0.05465 0.268489 0.10394
H_ H_ 0.907567 0.488465 0.234819 0.10394
H_ H_ 0.513542 0.389084 0.196961 0.10394
H_ H_ 0.555145 0.319723 0.24501 0.10394
H_ H_ 0.910531 0.245114 0.205952 0.10394
H_ H_ 0.872442 0.325898 0.179029 0.10394
H_ H_ 0.96928 0.0527249 0.131564 0.10394
H_ H_ 0.517766 0.113259 0.0974675 0.10394
H_ H_ 0.639167 -9.29213e-05 0.082531 0.10394
H_ H_ 0.944171 0.174073 0.389298 0.10394
H_ H_ 0.516552 0.193365 0.445017 0.10394
H_ H_ 0.907637 0.296096 0.0468129 0.10394
H_ H_ 0.866803 0.213588 0.52298 0.10394
H_ H_ 0.74847 0.22756 0.400899 0.10394
H_ H_ 0.69916 0.259592 0.323817 0.10394
H_ H_ 0.834494 0.212533 0.243521 0.10394
H_ H_ 0.875192 0.175084 0.318237 0.10394
H_ H_ 0.780213 0.131041 0.0531962 0.10394
H_ H_ 0.734642 0.0942386 0.114459 0.10394
H_ H_ 0.605933 0.0856063 0.004129999999999967 0.10394
C_ C_ 0.672501 0.0899797 0.299656 0.18167
C_ C_ 0.717632 0.0718198 0.277093 -0.15533
C_ C_ 0.732809 0.0177421 0.271989 0.02923
C_ C_ 0.711156 0.490735 0.292773 -0.15533
C_ C_ 0.65536 0.00615519 0.314454 0.18167
C_ C_ 0.530015 0.143379 0.268166 0.18167
C_ C_ -0.005276999999999976 0.176518 0.246295 -0.15533
C_ C_ 0.510077 0.234327 0.268883 0.02923
C_ C_ 0.530937 0.237655 0.318081 -0.15533
C_ C_ 0.554955 0.193695 0.341591 0.18167
C_ C_ 0.504964 0.0526844 0.375283 0.69207
C_ C_ 0.975244 0.499691 0.365892 0.02923
C_ C_ 0.996917 0.448492 0.361739 -0.15533
C_ C_ 0.968509 0.407552 0.370002 -0.15533
C_ C_ 0.916711 0.418294 0.381893 0.02923
C_ C_ 0.895301 0.469389 0.382145 -0.15533
C_ C_ 0.924223 0.510885 0.380328 0.02923
C_ C_ 0.898052 0.0699355 0.389357 0.69207
C_ C_ 0.910257 0.318817 0.390112 0.69661
C_ C_ 0.572468 0.286598 0.0967306 0.18167
C_ C_ 0.524446 0.270982 0.079913 -0.15533
C_ C_ 0.512264 0.25912 0.0268591 0.02923
C_ C_ 0.551981 0.289349 0.488382 -0.15533
C_ C_ 0.58072 0.307104 0.0114839 0.18167
C_ C_ 0.705243 0.263789 0.138695 0.18167
C_ C_ 0.726251 0.236095 0.180894 -0.15533
C_ C_ 0.732151 0.259597 0.229695 0.02923
C_ C_ 0.718642 0.313006 0.233868 -0.15533
C_ C_ 0.699696 0.33976 0.191725 0.18167
C_ C_ 0.737203 0.365178 0.0423968 0.69207
C_ C_ 0.770468 0.385758 0.499536 0.02923
C_ C_ 0.754974 0.372704 0.446584 -0.15533
C_ C_ 0.788088 0.37674 0.410663 -0.15533
C_ C_ 0.841313 0.382727 0.422407 0.02923
C_ C_ 0.854973 0.393694 0.473497 -0.15533
C_ C_ 0.823135 0.38933 0.51395 0.02923
C_ C_ 0.846407 0.388198 0.0687036 0.69207
C_ C_ 0.859309 0.372694 0.324908 0.69661
C_ C_ 0.808188 0.434347 0.179744 0.18167
C_ C_ 0.767536 0.461274 0.205517 -0.15533
C_ C_ 0.779488 0.499653 0.239501 0.02923
C_ C_ 0.82181 0.0186354 0.250267 -0.15533
C_ C_ 0.867105 0.485161 0.222842 0.18167
C_ C_ 0.992273 0.353511 0.197918 0.18167
C_ C_ 0.515537 0.316326 0.230833 -0.15533
C_ C_ 0.986427 0.27213 0.230178 0.02923
C_ C_ 0.935089 0.275077 0.20708 -0.15533
C_ C_ 0.912758 0.319686 0.184279 0.18167
C_ C_ 0.992751 0.449196 0.124599 0.69207
C_ C_ 0.523509 0.988218 0.118115 0.02923
C_ C_ 0.502834 0.0382912 0.114215 -0.15533
C_ C_ 0.534441 0.0743449 0.106586 -0.15533
C_ C_ 0.585932 0.0609517 0.0941826 0.02923
C_ C_ 0.59942 0.00879661 0.086629 -0.15533
C_ C_ 0.575207 0.973259 0.107775 0.02923
C_ C_ 0.598759 0.422554 0.112469 0.69207
C_ C_ 0.601185 0.156876 0.102228 0.69661
C_ C_ 0.944675 0.186509 0.42929 0.18167
C_ C_ 0.98586 0.212306 0.450574 -0.15533
C_ C_ 0.980439 0.24363 0.496654 0.02923
C_ C_ 0.914071 0.264013 0.0171723 -0.15533
C_ C_ 0.898898 0.214001 0.50139 0.18167
C_ C_ 0.7642 0.213867 0.364918 0.18167
C_ C_ 0.737821 0.237139 0.322779 -0.15533
C_ C_ 0.761466 0.232787 0.274041 0.02923
C_ C_ 0.813135 0.21303 0.275781 -0.15533
C_ C_ 0.836455 0.188922 0.320061 0.18167
C_ C_ 0.759356 0.134172 0.458235 0.69207
C_ C_ 0.723671 0.119903 0.989197 0.02923
C_ C_ 0.742513 0.119853 0.0404365 -0.15533
C_ C_ 0.713533 0.105114 0.0779569 -0.15533
C_ C_ 0.662854 0.0977126 0.0666302 0.02923
C_ C_ 0.643904 0.094679 0.013543 -0.15533
C_ C_ 0.672778 0.106436 0.976247 0.02923
C_ C_ 0.649785 0.120724 0.427702 0.69207
C_ C_ 0.645715 0.0901674 0.161007 0.69661
C_ C_ 0.880941 0.373393 0.380932 -0.30787
C_ C_ 0.624338 0.0999952 0.105191 -0.30787
N_ N_ 0.641898 0.0582565 0.317522 -0.32189
N_ N_ 0.554216 0.145585 0.317374 -0.32189
N_ N_ 0.600766 0.303957 0.0608074 -0.32189
N_ N_ 0.691125 0.315545 0.145532 -0.32189
N_ N_ 0.856987 0.447177 0.187154 -0.32189
N_ N_ 0.942686 0.359916 0.182915 -0.32189
N_ N_ 0.901859 0.187599 0.453952 -0.32189
N_ N_ 0.813089 0.192201 0.364104 -0.32189
O_ O_ 0.00214144 0.0950103 0.386868 -0.63271
O_ O_ 0.539101 0.0443007 0.343243 -0.57982
O_ O_ 0.897716 0.0940512 0.34599 -0.63271
O_ O_ 0.866691 0.087795 0.422957 -0.57982
O_ O_ 0.734518 0.398283 0.0827339 -0.63271
O_ O_ 0.705744 0.331405 0.0377445 -0.57982
O_ O_ 0.847809 0.347191 0.0943595 -0.63271
O_ O_ 0.872211 0.427089 0.0879412 -0.57982
O_ O_ 0.4945 0.407405 0.0989146 -0.63271
O_ O_ 0.957181 0.459306 0.156682 -0.57982
O_ O_ 0.595699 0.391267 0.150945 -0.63271
O_ O_ 0.627549 0.405164 0.078596 -0.57982
O_ O_ 0.753001 0.111125 0.413231 -0.63271
O_ O_ 0.800681 0.158937 0.468714 -0.57982
O_ O_ 0.653617 0.158522 0.401321 -0.63271
O_ O_ 0.615078 0.0894836 0.411922 -0.57982
F_ F_ 0.939581 0.322261 0.435547 -0.20885
F_ F_ 0.938024 0.298612 0.348836 -0.20885
F_ F_ 0.873796 0.284464 0.390659 -0.20885
F_ F_ 0.820399 0.413285 0.321972 -0.20885
F_ F_ 0.836465 0.32902 0.30704 -0.20885
F_ F_ 0.894805 0.380312 0.290907 -0.20885
F_ F_ 0.57186 0.164664 0.0551806 -0.20885
F_ F_ 0.571468 0.175251 0.140813 -0.20885
F_ F_ 0.636074 0.190818 0.102748 -0.20885
F_ F_ 0.677609 0.046537 0.169098 -0.20885
F_ F_ 0.673293 0.13035 0.180791 -0.20885
F_ F_ 0.606985 0.0909547 0.192307 -0.20885
Zn Zn 0.586795 0.0859912 0.844188 0.83971
Zn Zn 0.658248 0.349873 0.588643 0.83971
Zn Zn 0.906542 0.414504 0.651418 0.83971
Zn Zn 0.84047 0.157313 0.920274 0.83971
H_ H_ 0.660305 0.126203 0.791808 0.10394
H_ H_ 0.74983 0.09457 0.769472 0.10394
H_ H_ 0.708995 0.444124 0.784008 0.10394
H_ H_ 0.637918 0.984516 0.834636 0.10394
H_ H_ 0.0208667 0.0979772 0.747731 0.10394
H_ H_ 0.987925 0.178429 0.702814 0.10394
H_ H_ 0.52216 0.270512 0.840971 0.10394
H_ H_ 0.56157 0.193355 0.881475 0.10394
H_ H_ 0.5321 0.449734 0.884176 0.10394
H_ H_ 0.977996 0.37615 0.875034 0.10394
H_ H_ 0.845676 0.487305 0.894805 0.10394
H_ H_ 0.580922 0.302865 0.632473 0.10394
H_ H_ 0.0101426 0.272094 0.596766 0.10394
H_ H_ 0.530958 0.276442 0.95272 0.10394
H_ H_ 0.619669 0.325457 0.48532 0.10394
H_ H_ 0.710344 0.254806 0.601056 0.10394
H_ H_ 0.746195 0.199966 0.673092 0.10394
H_ H_ 0.725359 0.333745 0.773803 0.10394
H_ H_ 0.676229 0.381284 0.702758 0.10394
H_ H_ 0.709576 0.367597 0.941684 0.10394
H_ H_ 0.762627 0.388811 0.875093 0.10394
H_ H_ 0.891106 0.399865 0.985697 0.10394
H_ H_ 0.799059 0.391429 0.658193 0.10394
H_ H_ 0.725712 0.442058 0.689723 0.10394
H_ H_ 0.828663 0.0474298 0.771103 0.10394
H_ H_ 0.895794 0.502723 0.72547 0.10394
H_ H_ 0.509511 0.395909 0.706071 0.10394
H_ H_ 0.550078 0.320468 0.754488 0.10394
H_ H_ 0.90349 0.253991 0.73702 0.10394
H_ H_ 0.867233 0.326386 0.687581 0.10394
H_ H_ 0.957311 0.0459079 0.603341 0.10394
H_ H_ 0.505872 0.117367 0.596877 0.10394
H_ H_ 0.64236 0.015797 0.587127 0.10394
H_ H_ 0.941723 0.160312 0.915828 0.10394
H_ H_ 0.516416 0.186164 0.95203 0.10394
H_ H_ 0.924318 0.275143 0.552666 0.10394
H_ H_ 0.833178 0.243654 0.0047999999999999154 0.10394
H_ H_ 0.741122 0.204311 0.893773 0.10394
H_ H_ 0.694649 0.247761 0.819066 0.10394
H_ H_ 0.831731 0.224199 0.745405 0.10394
H_ H_ 0.875165 0.179388 0.816256 0.10394
H_ H_ 0.781236 0.13803 0.561201 0.10394
H_ H_ 0.72673 0.12463 0.625029 0.10394
H_ H_ 0.601105 0.105248 0.509137 0.10394
C_ C_ 0.674812 0.088977 0.796996 0.18167
C_ C_ 0.719985 0.0693808 0.775503 -0.15533
C_ C_ 0.73462 0.0170467 0.773051 0.02923
C_ C_ 0.696186 0.48193 0.781555 -0.15533
C_ C_ 0.657859 0.00746731 0.812294 0.18167
C_ C_ 0.523348 0.138921 0.768029 0.18167
C_ C_ 0.0009099999999999664 0.180945 0.740979 -0.15533
C_ C_ 0.508697 0.231039 0.762962 0.02923
C_ C_ 0.527854 0.234739 0.815103 -0.15533
C_ C_ 0.545709 0.191297 0.840959 0.18167
C_ C_ 0.507791 0.0423793 0.864116 0.69207
C_ C_ 0.96692 0.503952 0.869072 0.02923
C_ C_ 0.988948 0.451832 0.870947 -0.15533
C_ C_ 0.959194 0.41497 0.879227 -0.15533
C_ C_ 0.907524 0.425662 0.889169 0.02923
C_ C_ 0.887694 0.477502 0.889735 -0.15533
C_ C_ 0.919276 0.516969 0.884219 0.02923
C_ C_ 0.891896 0.0709771 0.891755 0.69207
C_ C_ 0.895851 0.330788 0.888408 0.69661
C_ C_ 0.572376 0.302021 0.592642 0.18167
C_ C_ 0.525845 0.286386 0.573327 -0.15533
C_ C_ 0.516567 0.273037 0.521091 0.02923
C_ C_ 0.539886 0.280077 0.9935 -0.15533
C_ C_ 0.594514 0.311894 0.509542 0.18167
C_ C_ 0.71672 0.272123 0.63778 0.18167
C_ C_ 0.734287 0.240787 0.67929 -0.15533
C_ C_ 0.735417 0.263097 0.72931 0.02923
C_ C_ 0.718082 0.314921 0.736632 -0.15533
C_ C_ 0.694745 0.342535 0.695539 0.18167
C_ C_ 0.735305 0.383282 0.540035 0.69207
C_ C_ 0.77003 0.374285 1.00366267 0.02923
C_ C_ 0.750554 0.373037 0.951022 -0.15533
C_ C_ 0.780909 0.382993 0.914648 -0.15533
C_ C_ 0.832353 0.39123 0.924398 0.02923
C_ C_ 0.852465 0.396153 0.976865 -0.15533
C_ C_ 0.819991 0.390337 0.0156234 0.02923
C_ C_ 0.847774 0.383144 0.567153 0.69207
C_ C_ 0.847263 0.387781 0.827487 0.69661
C_ C_ 0.803782 0.428283 0.678502 0.18167
C_ C_ 0.763205 0.458215 0.69764 -0.15533
C_ C_ 0.773707 0.495038 0.737644 0.02923
C_ C_ 0.822509 0.0161057 0.744722 -0.15533
C_ C_ 0.860692 0.487325 0.717489 0.18167
C_ C_ 0.987357 0.347639 0.691734 0.18167
C_ C_ 0.513417 0.320319 0.734965 -0.15533
C_ C_ 0.981518 0.274938 0.738873 0.02923
C_ C_ 0.928453 0.282819 0.726641 -0.15533
C_ C_ 0.907057 0.320391 0.693653 0.18167
C_ C_ 0.988637 0.450713 0.616973 0.69207
C_ C_ 0.524267 0.991112 0.615001 0.02923
C_ C_ 0.500047 0.039933 0.607282 -0.15533
C_ C_ 0.528346 0.0813398 0.599489 -0.15533
C_ C_ 0.582079 0.073711 0.599905 0.02923
C_ C_ 0.603439 0.0218991 0.592591 -0.15533
C_ C_ 0.576173 0.980916 0.606186 0.02923
C_ C_ 0.597778 0.429261 0.603282 0.69207
C_ C_ 0.596248 0.171418 0.614098 0.69661
C_ C_ 0.932477 0.193406 0.939674 0.18167
C_ C_ 0.972463 0.21392 0.968487 -0.15533
C_ C_ 0.963442 0.251297 0.00553753 0.02923
C_ C_ 0.936057 0.243407 0.523021 -0.15533
C_ C_ 0.874506 0.232738 0.996881 0.18167
C_ C_ 0.757888 0.203666 0.858269 0.18167
C_ C_ 0.730053 0.226402 0.815988 -0.15533
C_ C_ 0.756349 0.232839 0.773686 0.02923
C_ C_ 0.809342 0.218289 0.776161 -0.15533
C_ C_ 0.833461 0.193295 0.816968 0.18167
C_ C_ 0.761449 0.126915 0.952616 0.69207
C_ C_ 0.723424 0.128079 0.497129 0.02923
C_ C_ 0.739945 0.132508 0.549298 -0.15533
C_ C_ 0.710425 0.122642 0.587247 -0.15533
C_ C_ 0.658976 0.112385 0.573472 0.02923
C_ C_ 0.641196 0.108934 0.520155 -0.15533
C_ C_ 0.672642 0.119568 0.483076 0.02923
C_ C_ 0.645751 0.111912 0.923842 0.69207
C_ C_ 0.647697 0.10453 0.667881 0.69661
C_ C_ 0.870192 0.385463 0.883344 -0.30787
C_ C_ 0.619195 0.115553 0.615536 -0.30787
N_ N_ 0.644396 0.0574635 0.813842 -0.32189
N_ N_ 0.547638 0.145642 0.817059 -0.32189
N_ N_ 0.607007 0.312986 0.55989 -0.32189
N_ N_ 0.69577 0.32149 0.647062 -0.32189
N_ N_ 0.851353 0.444517 0.68669 -0.32189
N_ N_ 0.93627 0.355707 0.68044 -0.32189
N_ N_ 0.885849 0.200217 0.957133 -0.32189
N_ N_ 0.806444 0.183163 0.854789 -0.32189
O_ O_ -0.00744800000000001 0.0926287 0.877305 -0.63271
O_ O_ 0.545158 0.0339608 0.83491 -0.57982
O_ O_ 0.883011 0.0932054 0.848628 -0.63271
O_ O_ 0.87797 0.0971627 0.93358 -0.57982
O_ O_ 0.736906 0.41214 0.582755 -0.63271
O_ O_ 0.700604 0.350172 0.536237 -0.57982
O_ O_ 0.847361 0.340137 0.589192 -0.63271
O_ O_ 0.876206 0.418605 0.587528 -0.57982
O_ O_ 0.499857 0.410319 0.610881 -0.63271
O_ O_ 0.955617 0.460869 0.651562 -0.57982
O_ O_ 0.600313 0.401806 0.644241 -0.63271
O_ O_ 0.629831 0.413422 0.570608 -0.57982
O_ O_ 0.762415 0.101004 0.908594 -0.63271
O_ O_ 0.793251 0.161455 0.966184 -0.57982
O_ O_ 0.647851 0.15108 0.896772 -0.63271
O_ O_ 0.612802 0.0799825 0.909252 -0.57982
F_ F_ 0.927976 0.326333 0.932218 -0.20885
F_ F_ 0.927108 0.313086 0.850792 -0.20885
F_ F_ 0.857646 0.296512 0.885257 -0.20885
F_ F_ 0.817403 0.431209 0.819994 -0.20885
F_ F_ 0.817664 0.350181 0.813151 -0.20885
F_ F_ 0.881188 0.387767 0.793084 -0.20885
F_ F_ 0.562513 0.17684 0.572637 -0.20885
F_ F_ 0.568345 0.180539 0.653527 -0.20885
F_ F_ 0.634815 0.204143 0.617801 -0.20885
F_ F_ 0.684172 0.0641657 0.671563 -0.20885
F_ F_ 0.671638 0.147122 0.686454 -0.20885
F_ F_ 0.609168 0.0996878 0.699147 -0.20885
Zn Zn 0.596738 0.582824 0.343779 0.83971
Zn Zn 0.661403 0.843587 0.0887702 0.83971
Zn Zn 0.912915 0.918232 0.155912 0.83971
Zn Zn 0.847445 0.644994 0.413544 0.83971
H_ H_ 0.670653 0.636126 0.300092 0.10394
H_ H_ 0.757864 0.600848 0.277363 0.10394
H_ H_ 0.706188 0.944407 0.288974 0.10394
H_ H_ 0.648513 0.487943 0.335782 0.10394
H_ H_ 0.0428904 0.599681 0.246087 0.10394
H_ H_ 1.0142247 0.6807 0.198368 0.10394
H_ H_ 0.540253 0.768213 0.339829 0.10394
H_ H_ 0.579539 0.695274 0.384048 0.10394
H_ H_ 0.539357 0.954805 0.397297 0.10394
H_ H_ 0.986392 0.878867 0.374655 0.10394
H_ H_ 0.85714 0.987388 0.40563 0.10394
H_ H_ 0.575377 0.798806 0.134893 0.10394
H_ H_ 0.997264 0.767319 0.0941454 0.10394
H_ H_ 0.525097 0.810562 0.453641 0.10394
H_ H_ 0.607478 0.837732 0.99092 0.10394
H_ H_ 0.728376 0.749072 0.107379 0.10394
H_ H_ 0.757436 0.700263 0.180882 0.10394
H_ H_ 0.69713 0.824 0.275523 0.10394
H_ H_ 0.672249 0.872246 0.200036 0.10394
H_ H_ 0.72468 0.856483 0.440703 0.10394
H_ H_ 0.775856 0.88006 0.376441 0.10394
H_ H_ 0.90224 0.895262 0.486648 0.10394
H_ H_ 0.807798 0.897806 0.164187 0.10394
H_ H_ 0.740205 0.935345 0.207414 0.10394
H_ H_ 0.839831 0.534521 0.286129 0.10394
H_ H_ 0.89651 1.016382 0.223957 0.10394
H_ H_ 0.51257 0.890332 0.208479 0.10394
H_ H_ 0.556636 0.816985 0.257383 0.10394
H_ H_ 0.917308 0.748809 0.235209 0.10394
H_ H_ 0.875501 0.821468 0.186695 0.10394
H_ H_ 0.966123 0.551684 0.131731 0.10394
H_ H_ 0.521485 0.617184 0.101677 0.10394
H_ H_ 0.651518 0.506132 0.107808 0.10394
H_ H_ 0.946423 0.656518 0.400304 0.10394
H_ H_ 0.521632 0.694352 0.447709 0.10394
H_ H_ 0.911921 0.771652 0.0468304 0.10394
H_ H_ 0.840536 0.733867 0.490228 0.10394
H_ H_ 0.739033 0.69217 0.395 0.10394
H_ H_ 0.693743 0.736606 0.318774 0.10394
H_ H_ 0.837104 0.729937 0.252886 0.10394
H_ H_ 0.878748 0.690217 0.328666 0.10394
H_ H_ 0.789394 0.60742 0.0490216 0.10394
H_ H_ 0.735879 0.610104 0.121771 0.10394
H_ H_ 0.605417 0.587473 0.0142766 0.10394
C_ C_ 0.685406 0.595608 0.301345 0.18167
C_ C_ 0.731045 0.576096 0.283863 -0.15533
C_ C_ 0.740012 0.522326 0.270301 0.02923
C_ C_ 0.69624 0.985715 0.288339 -0.15533
C_ C_ 0.671168 0.512339 0.318214 0.18167
C_ C_ 0.543865 0.638707 0.267204 0.18167
C_ C_ 0.0201045 0.682222 0.237748 -0.15533
C_ C_ 0.51594 0.72883 0.27001 0.02923
C_ C_ 0.535524 0.73154 0.319884 -0.15533
C_ C_ 0.565258 0.689686 0.340799 0.18167
C_ C_ 0.518223 0.543823 0.365446 0.69207
C_ C_ 0.974928 0.00702434 0.381783 0.02923
C_ C_ -0.0036960000000000326 0.956384 0.380302 -0.15533
C_ C_ 0.968936 0.916915 0.386292 -0.15533
C_ C_ 0.917572 0.926451 0.393893 0.02923
C_ C_ 0.895985 0.978252 0.399194 -0.15533
C_ C_ 0.922771 0.019129 0.391503 0.02923
C_ C_ 0.897732 0.562486 0.379603 0.69207
C_ C_ 0.907783 0.826465 0.379648 0.69661
C_ C_ 0.566688 0.797577 0.0924253 0.18167
C_ C_ 0.521406 0.776802 0.0725551 -0.15533
C_ C_ 0.511979 0.772614 0.0187351 0.02923
C_ C_ 0.53848 0.808409 0.49522 -0.15533
C_ C_ 0.583196 0.817977 0.011496 0.18167
C_ C_ 0.720228 0.763332 0.142845 0.18167
C_ C_ 0.73776 0.736298 0.184937 -0.15533
C_ C_ 0.73185 0.758326 0.232223 0.02923
C_ C_ 0.707247 0.808164 0.238213 -0.15533
C_ C_ 0.687409 0.832734 0.195035 0.18167
C_ C_ 0.738502 0.86783 0.0523378 0.69207
C_ C_ 0.778629 0.872503 0.502237 0.02923
C_ C_ 0.76136 0.865918 0.450228 -0.15533
C_ C_ 0.791458 0.877435 0.411716 -0.15533
C_ C_ 0.843809 0.885777 0.424311 0.02923
C_ C_ 0.862102 0.888288 0.476904 -0.15533
C_ C_ 0.830258 0.883069 0.516914 0.02923
C_ C_ 0.851488 0.886611 0.0769062 0.69207
C_ C_ 0.856197 0.889964 0.326609 0.69661
C_ C_ 0.816546 0.926576 0.192269 0.18167
C_ C_ 0.775098 0.948496 0.218124 -0.15533
C_ C_ 0.775464 0.99544 0.243212 0.02923
C_ C_ 0.830783 0.508283 0.254494 -0.15533
C_ C_ 0.863493 0.995999 0.223346 0.18167
C_ C_ 0.99331477 0.85295 0.19919 0.18167
C_ C_ 0.516843 0.818489 0.241027 -0.15533
C_ C_ 0.991355 0.7756 0.238632 0.02923
C_ C_ 0.938418 0.778148 0.223875 -0.15533
C_ C_ 0.914153 0.820792 0.199328 0.18167
C_ C_ 0.991195 0.954566 0.121016 0.69207
C_ C_ 0.523539 0.492044 0.115566 0.02923
C_ C_ 0.506959 0.544061 0.116164 -0.15533
C_ C_ 0.540289 0.579181 0.108028 -0.15533
C_ C_ 0.592658 0.568457 0.111981 0.02923
C_ C_ 0.610996 0.515708 0.109585 -0.15533
C_ C_ 0.577187 0.47628 0.112501 0.02923
C_ C_ 0.603 0.922311 0.114589 0.69207
C_ C_ 0.607584 0.661917 0.10713 0.69661
C_ C_ 0.93956 0.678435 0.435024 0.18167
C_ C_ 0.979333 0.700571 0.464807 -0.15533
C_ C_ 0.967449 0.740109 0.501124 0.02923
C_ C_ 0.917711 0.750301 1.00997126 -0.15533
C_ C_ 0.87988 0.727065 0.483409 0.18167
C_ C_ 0.758272 0.692736 0.358387 0.18167
C_ C_ 0.732363 0.718862 0.316189 -0.15533
C_ C_ 0.759603 0.730915 0.276983 0.02923
C_ C_ 0.812522 0.719706 0.282454 -0.15533
C_ C_ 0.837272 0.692308 0.322147 0.18167
C_ C_ 0.768951 0.614747 0.452473 0.69207
C_ C_ 0.724756 0.608693 0.993681 0.02923
C_ C_ 0.749622 0.60399 0.0435511 -0.15533
C_ C_ 0.718509 0.602254 0.0836213 -0.15533
C_ C_ 0.667531 0.597416 0.072088 0.02923
C_ C_ 0.646298 0.590204 0.0227162 -0.15533
C_ C_ 0.674388 0.594592 0.982382 0.02923
C_ C_ 0.658614 0.608012 0.426468 0.69207
C_ C_ 0.655637 0.603674 0.170032 0.69661
C_ C_ 0.882549 0.882063 0.382523 -0.30787
C_ C_ 0.632162 0.606173 0.114992 -0.30787
N_ N_ 0.654557 0.562272 0.31248 -0.32189
N_ N_ 0.565929 0.643688 0.315742 -0.32189
N_ N_ 0.598693 0.815034 0.0631258 -0.32189
N_ N_ 0.692021 0.810817 0.147655 -0.32189
N_ N_ 0.859679 0.950152 0.195851 -0.32189
N_ N_ 0.942977 0.853756 0.18134 -0.32189
N_ N_ 0.891888 0.689619 0.44806 -0.32189
N_ N_ 0.80967 0.679872 0.359122 -0.32189
O_ O_ 0.00666475 0.581756 0.390805 -0.63271
O_ O_ 0.552601 0.534714 0.33296 -0.57982
O_ O_ 0.901288 0.592547 0.344063 -0.63271
O_ O_ 0.870067 0.579232 0.416489 -0.57982
O_ O_ 0.746587 0.888541 0.0990287 -0.63271
O_ O_ 0.699244 0.842641 0.0382604 -0.57982
O_ O_ 0.858389 0.843039 0.099669 -0.63271
O_ O_ 0.878782 0.921696 0.0952416 -0.57982
O_ O_ 0.486836 0.906131 0.101381 -0.63271
O_ O_ 0.963041 0.961011 0.158312 -0.57982
O_ O_ 0.590387 0.895709 0.149798 -0.63271
O_ O_ 0.636903 0.906029 0.0845253 -0.57982
O_ O_ 0.765752 0.589399 0.407726 -0.63271
O_ O_ 0.802448 0.648148 0.460515 -0.57982
O_ O_ 0.661518 0.647737 0.399006 -0.63271
O_ O_ 0.623424 0.579035 0.408463 -0.57982
F_ F_ 0.940026 0.824761 0.422545 -0.20885
F_ F_ 0.936717 0.816676 0.339828 -0.20885
F_ F_ 0.875151 0.788439 0.379885 -0.20885
F_ F_ 0.819225 0.93036 0.324626 -0.20885
F_ F_ 0.834315 0.84923 0.305187 -0.20885
F_ F_ 0.889644 0.898526 0.291751 -0.20885
F_ F_ 0.578388 0.664441 0.0600771 -0.20885
F_ F_ 0.581715 0.684913 0.149356 -0.20885
F_ F_ 0.645055 0.694805 0.104142 -0.20885
F_ F_ 0.690474 0.563331 0.181229 -0.20885
F_ F_ 0.681059 0.644949 0.184485 -0.20885
F_ F_ 0.623666 0.604062 0.207584 -0.20885
Zn Zn 0.584392 0.578751 0.845254 0.83971
Zn Zn 0.664397 0.847812 0.581065 0.83971
Zn Zn 0.906782 0.910834 0.655707 0.83971
Zn Zn 0.837304 0.651554 0.911868 0.83971
H_ H_ 0.662163 0.625796 0.813547 0.10394
H_ H_ 0.750205 0.590649 0.787563 0.10394
H_ H_ 0.710756 0.946272 0.793061 0.10394
H_ H_ 0.628789 0.475437 0.822533 0.10394
H_ H_ 0.0202721 0.592485 0.751572 0.10394
H_ H_ 0.982996 0.66059 0.697633 0.10394
H_ H_ 0.519863 0.761091 0.838791 0.10394
H_ H_ 0.55725 0.684285 0.879709 0.10394
H_ H_ 0.537768 0.940748 0.882124 0.10394
H_ H_ 0.976615 0.880865 0.866002 0.10394
H_ H_ 0.857714 0.988454 0.920261 0.10394
H_ H_ 0.585769 0.808561 0.638164 0.10394
H_ H_ 0.0144245 0.745537 0.597754 0.10394
H_ H_ 0.533572 0.788926 0.948099 0.10394
H_ H_ 0.596585 0.854199 0.488395 0.10394
H_ H_ 0.727481 0.763048 0.593938 0.10394
H_ H_ 0.758635 0.709898 0.668518 0.10394
H_ H_ 0.699136 0.833541 0.771515 0.10394
H_ H_ 0.672934 0.882196 0.696209 0.10394
H_ H_ 0.71211 0.885132 0.95159 0.10394
H_ H_ 0.764046 0.894237 0.883785 0.10394
H_ H_ 0.894387 0.904801 0.995345 0.10394
H_ H_ 0.805732 0.889154 0.666335 0.10394
H_ H_ 0.728166 0.941467 0.701214 0.10394
H_ H_ 0.834272 0.539374 0.777135 0.10394
H_ H_ 0.90323 1.00351 0.727198 0.10394
H_ H_ 0.517484 0.878484 0.702201 0.10394
H_ H_ 0.555087 0.800791 0.738525 0.10394
H_ H_ 0.908504 0.738433 0.720821 0.10394
H_ H_ 0.866151 0.822351 0.70117 0.10394
H_ H_ 0.961085 0.548934 0.603685 0.10394
H_ H_ 0.519541 0.625444 0.608931 0.10394
H_ H_ 0.646728 0.50708 0.586045 0.10394
H_ H_ 0.939024 0.66966 0.887633 0.10394
H_ H_ 0.513947 0.687359 0.951797 0.10394
H_ H_ 0.906135 0.78336 0.541026 0.10394
H_ H_ 0.842323 0.728965 0.999825126 0.10394
H_ H_ 0.727647 0.67187 0.861182 0.10394
H_ H_ 0.691406 0.713137 0.789418 0.10394
H_ H_ 0.832772 0.755404 0.760679 0.10394
H_ H_ 0.874522 0.702074 0.827122 0.10394
H_ H_ 0.796814 0.604181 0.55292 0.10394
H_ H_ 0.735811 0.613036 0.621741 0.10394
H_ H_ 0.609034 0.603488 0.510417 0.10394
C_ C_ 0.670808 0.584833 0.800989 0.18167
C_ C_ 0.719331 0.566908 0.780039 -0.15533
C_ C_ 0.730661 0.513413 0.768839 0.02923
C_ C_ 0.704799 0.98727 0.794842 -0.15533
C_ C_ 0.652114 0.499818 0.804427 0.18167
C_ C_ 0.535721 0.632799 0.76197 0.18167
C_ C_ 0.0046217 0.672367 0.734936 -0.15533
C_ C_ 0.50672 0.722307 0.763286 0.02923
C_ C_ 0.519617 0.724506 0.816488 -0.15533
C_ C_ 0.547496 0.683685 0.840472 0.18167
C_ C_ 0.503719 0.54858 0.872731 0.69207
C_ C_ 0.967334 0.00749961 0.87568 0.02923
C_ C_ -0.011140999999999956 0.956531 0.87548 -0.15533
C_ C_ 0.959758 0.916619 0.880669 -0.15533
C_ C_ 0.909138 0.926219 0.896809 0.02923
C_ C_ 0.891664 0.977242 0.903122 -0.15533
C_ C_ 0.918637 0.0177292 0.892588 0.02923
C_ C_ 0.894913 0.570144 0.881371 0.69207
C_ C_ 0.895005 0.830539 0.899615 0.69661
C_ C_ 0.572547 0.806043 0.595887 0.18167
C_ C_ 0.527698 0.782454 0.577738 -0.15533
C_ C_ 0.51565 0.777328 0.525157 0.02923
C_ C_ 0.545701 0.79103 0.988242 -0.15533
C_ C_ 0.584344 0.826978 0.509849 0.18167
C_ C_ 0.72381 0.777864 0.634501 0.18167
C_ C_ 0.74125 0.749981 0.676009 -0.15533
C_ C_ 0.73618 0.769147 0.724208 0.02923
C_ C_ 0.708671 0.815649 0.732568 -0.15533
C_ C_ 0.690713 0.844348 0.690662 0.18167
C_ C_ 0.739591 0.872486 0.538942 0.69207
C_ C_ 0.771486 0.876983 1.0126199 0.02923
C_ C_ 0.75174 0.884057 0.962448 -0.15533
C_ C_ 0.782035 0.890474 0.923644 -0.15533
C_ C_ 0.834949 0.896613 0.932535 0.02923
C_ C_ 0.856005 0.896013 0.98453 -0.15533
C_ C_ 0.825276 0.887755 0.0237537 0.02923
C_ C_ 0.851892 0.883157 0.570467 0.69207
C_ C_ 0.847595 0.884795 0.833485 0.69661
C_ C_ 0.809693 0.926571 0.688492 0.18167
C_ C_ 0.767261 0.9536 0.709134 -0.15533
C_ C_ 0.775368 -0.004612999999999978 0.743109 0.02923
C_ C_ 0.82122 0.514175 0.74366 -0.15533
C_ C_ 0.86422 0.989395 0.721407 0.18167
C_ C_ 0.986469 0.846521 0.695212 0.18167
C_ C_ 0.513646 0.806684 0.732395 -0.15533
C_ C_ 0.984122 0.763935 0.723411 0.02923
C_ C_ 0.930885 0.768893 0.713345 -0.15533
C_ C_ 0.90735 0.81573 0.698079 0.18167
C_ C_ 0.98744 0.947552 0.62334 0.69207
C_ C_ 0.526432 0.497128 0.619221 0.02923
C_ C_ 0.509676 0.549306 0.622529 -0.15533
C_ C_ 0.536783 0.586104 0.604691 -0.15533
C_ C_ 0.589632 0.575065 0.600463 0.02923
C_ C_ 0.608499 0.520992 0.596901 -0.15533
C_ C_ 0.577455 0.483891 0.606019 0.02923
C_ C_ 0.60341 0.929286 0.61153 0.69207
C_ C_ 0.604381 0.671879 0.599634 0.69661
C_ C_ 0.934013 0.688113 0.922655 0.18167
C_ C_ 0.976454 0.70868 0.949144 -0.15533
C_ C_ 0.968905 0.740354 0.9924 0.02923
C_ C_ 0.917728 0.754575 0.509682 -0.15533
C_ C_ 0.877873 0.726208 0.984588 0.18167
C_ C_ 0.754185 0.691358 0.842653 0.18167
C_ C_ 0.731031 0.717434 0.800187 -0.15533
C_ C_ 0.758649 0.741182 0.768985 0.02923
C_ C_ 0.810967 0.737788 0.783299 -0.15533
C_ C_ 0.833268 0.707364 0.822223 0.18167
C_ C_ 0.756273 0.623319 0.9527 0.69207
C_ C_ 0.734899 0.609084 0.491764 0.02923
C_ C_ 0.75387 0.60621 0.542495 -0.15533
C_ C_ 0.721265 0.60635 0.582466 -0.15533
C_ C_ 0.668995 0.604757 0.570477 0.02923
C_ C_ 0.650464 0.600217 0.51944 -0.15533
C_ C_ 0.680579 0.606605 0.478913 0.02923
C_ C_ 0.644118 0.602182 0.930524 0.69207
C_ C_ 0.650845 0.618471 0.661963 0.69661
C_ C_ 0.872354 0.886796 0.889773 -0.30787
C_ C_ 0.628816 0.616027 0.606737 -0.30787
N_ N_ 0.638365 0.550211 0.809055 -0.32189
N_ N_ 0.552421 0.638302 0.812217 -0.32189
N_ N_ 0.602796 0.822823 0.560473 -0.32189
N_ N_ 0.696931 0.823721 0.643359 -0.32189
N_ N_ 0.856565 0.944139 0.696942 -0.32189
N_ N_ 0.934641 0.852288 0.685818 -0.32189
N_ N_ 0.88665 0.696484 0.941438 -0.32189
N_ N_ 0.806002 0.682103 0.849371 -0.32189
O_ O_ 0.991048 0.588748 0.881945 -0.63271
O_ O_ 0.538902 0.534545 0.841875 -0.57982
O_ O_ 0.885503 0.594082 0.83794 -0.63271
O_ O_ 0.864654 0.585357 0.91543 -0.57982
O_ O_ 0.735476 0.908649 0.576495 -0.63271
O_ O_ 0.711567 0.833636 0.536036 -0.57982
O_ O_ 0.840297 0.846839 0.597556 -0.63271
O_ O_ 0.877677 0.918083 0.591776 -0.57982
O_ O_ 0.492038 0.908216 0.599347 -0.63271
O_ O_ 0.952897 0.95627 0.655912 -0.57982
O_ O_ 0.592903 0.89806 0.647664 -0.63271
O_ O_ 0.6334 0.911419 0.575967 -0.57982
O_ O_ 0.752153 0.597844 0.907643 -0.63271
O_ O_ 0.791697 0.655541 0.960304 -0.57982
O_ O_ 0.644409 0.64576 0.907883 -0.63271
O_ O_ 0.614876 0.567616 0.910007 -0.57982
F_ F_ 0.928504 0.825214 0.940758 -0.20885
F_ F_ 0.918858 0.807216 0.858433 -0.20885
F_ F_ 0.857415 0.801143 0.908863 -0.20885
F_ F_ 0.814354 0.930357 0.823616 -0.20885
F_ F_ 0.820969 0.841789 0.820194 -0.20885
F_ F_ 0.882977 0.88684 0.800077 -0.20885
F_ F_ 0.572052 0.678648 0.553728 -0.20885
F_ F_ 0.578104 0.691742 0.637708 -0.20885
F_ F_ 0.644048 0.70346 0.597108 -0.20885
F_ F_ 0.682038 0.573814 0.67262 -0.20885
F_ F_ 0.68423 0.655188 0.676865 -0.20885
F_ F_ 0.616194 0.621428 0.697677 -0.20885
_cell_length_a 26.508
_cell_length_b 26.37200000322088
_cell_length_c 26.311999743092066
_cell_angle_alpha 93.74100058972084
_cell_angle_beta 96.04100104955006
_cell_angle_gamma 83.6869992558723
_symmetry_space_group_name_H-M         'P 1'
_symmetry_Int_Tables_number            1
loop_
_symmetry_equiv_pos_as_xyz
   'x, y, z'
                         
loop_
_atom_site_label
_atom_site_type_symbol
_atom_site_fract_x 
_atom_site_fract_y
_atom_site_fract_z
_atom_site_charge
Zn Zn 0.0864061 0.0880706 0.352656 0.83971
Zn Zn 0.157361 0.349089 0.0888266 0.83971
Zn Zn 0.412639 0.418234 0.154689 0.83971
Zn Zn 0.337033 0.15813 0.417485 0.83971
H_ H_ 0.165539 0.136312 0.303208 0.10394
H_ H_ 0.248454 0.103208 0.268284 0.10394
H_ H_ 0.197196 0.448798 0.262132 0.10394
H_ H_ 0.140202 0.991121 0.343598 0.10394
H_ H_ 0.528994 0.106333 0.246014 0.10394
H_ H_ 0.486207 0.183173 0.209463 0.10394
H_ H_ 0.0525481 0.272062 0.316634 0.10394
H_ H_ 0.0849604 0.194758 0.368501 0.10394
H_ H_ 0.0375292 0.437876 0.36144 0.10394
H_ H_ 0.476356 0.378939 0.365073 0.10394
H_ H_ 0.36163 0.499448 0.406453 0.10394
H_ H_ 0.0746941 0.312343 0.140117 0.10394
H_ H_ 0.503802 0.256903 0.10842 0.10394
H_ H_ 0.0443203 0.291121 0.4434 0.10394
H_ H_ 0.107216 0.335 0.99062 0.10394
H_ H_ 0.200545 0.254248 0.106337 0.10394
H_ H_ 0.254179 0.207147 0.177075 0.10394
H_ H_ 0.212825 0.341622 0.275567 0.10394
H_ H_ 0.164359 0.382756 0.201332 0.10394
H_ H_ 0.219452 0.386407 0.442747 0.10394
H_ H_ 0.266742 0.396231 0.375014 0.10394
H_ H_ 0.401064 0.415749 0.486823 0.10394
H_ H_ 0.311431 0.403921 0.155276 0.10394
H_ H_ 0.235178 0.453814 0.173473 0.10394
H_ H_ 0.334989 0.0467618 0.287679 0.10394
H_ H_ 0.406023 0.500109 0.241521 0.10394
H_ H_ 0.0142239 0.381897 0.190441 0.10394
H_ H_ 0.055307 0.311045 0.236329 0.10394
H_ H_ 0.408217 0.25596 0.235335 0.10394
H_ H_ 0.368913 0.328011 0.19513 0.10394
H_ H_ 0.464535 0.0487514 0.12218 0.10394
H_ H_ 0.0222203 0.119716 0.118648 0.10394
H_ H_ 0.149003 0.00705378 0.0884801 0.10394
H_ H_ 0.436869 0.170399 0.393433 0.10394
H_ H_ 0.0120139 0.218401 0.42636 0.10394
H_ H_ 0.411931 0.270616 0.0474398 0.10394
H_ H_ 0.344024 0.233552 0.50142 0.10394
H_ H_ 0.228532 0.197785 0.389823 0.10394
H_ H_ 0.184309 0.242151 0.31346 0.10394
H_ H_ 0.32884 0.231125 0.250158 0.10394
H_ H_ 0.371484 0.187331 0.33077 0.10394
H_ H_ 0.28349 0.120622 0.0477684 0.10394
H_ H_ 0.236779 0.104537 0.115076 0.10394
H_ H_ 0.102438 0.0955648 0.00651136 0.10394
C_ C_ 0.177746 0.0988256 0.303504 0.18167
C_ C_ 0.224648 0.0789387 0.28404 -0.15533
C_ C_ 0.23664 0.0270455 0.280394 0.02923
C_ C_ 0.19424 0.490463 0.272671 -0.15533
C_ C_ 0.16544 0.0175024 0.330093 0.18167
C_ C_ 0.0174895 0.135161 0.276433 0.18167
C_ C_ 0.505998 0.187025 0.245917 -0.15533
C_ C_ 0.00663822 0.225509 0.260213 0.02923
C_ C_ 0.0395059 0.232624 0.304916 -0.15533
C_ C_ 0.0649227 0.190477 0.329299 0.18167
C_ C_ 0.00862032 0.0476719 0.368714 0.69207
C_ C_ 0.480509 0.506862 0.368261 0.02923
C_ C_ 0.494982 0.454435 0.358484 -0.15533
C_ C_ 0.462863 0.419647 0.367847 -0.15533
C_ C_ 0.41536 0.432026 0.385962 0.02923
C_ C_ 0.400033 0.48639 0.394109 -0.15533
C_ C_ 0.430658 0.521822 0.380578 0.02923
C_ C_ 0.398202 0.0759107 0.391852 0.69207
C_ C_ 0.396492 0.336388 0.385754 0.69661
C_ C_ 0.0655999 0.305755 0.0982092 0.18167
C_ C_ 0.0211375 0.283111 0.0791035 -0.15533
C_ C_ 0.00872058 0.27876 0.0272831 0.02923
C_ C_ 0.0532825 0.294126 0.483939 -0.15533
C_ C_ 0.0831868 0.320803 0.0135707 0.18167
C_ C_ 0.209087 0.272808 0.142032 0.18167
C_ C_ 0.229105 0.243236 0.183389 -0.15533
C_ C_ 0.230625 0.268981 0.234414 0.02923
C_ C_ 0.207788 0.321086 0.240786 -0.15533
C_ C_ 0.185664 0.345017 0.196811 0.18167
C_ C_ 0.244937 0.360483 0.0486686 0.69207
C_ C_ 0.278633 0.3914 0.506167 0.02923
C_ C_ 0.258098 0.392448 0.454231 -0.15533
C_ C_ 0.286888 0.40131 0.415024 -0.15533
C_ C_ 0.339543 0.406999 0.424939 0.02923
C_ C_ 0.359524 0.41407 0.47642 -0.15533
C_ C_ 0.332623 0.398124 0.516351 0.02923
C_ C_ 0.358294 0.37945 0.0727923 0.69207
C_ C_ 0.346767 0.397248 0.327278 0.69661
C_ C_ 0.313654 0.438785 0.174679 0.18167
C_ C_ 0.270327 0.461701 0.194121 -0.15533
C_ C_ 0.275188 0.500334 0.231351 0.02923
C_ C_ 0.326978 0.0173405 0.259776 -0.15533
C_ C_ 0.367536 0.492515 0.224194 0.18167
C_ C_ 0.491614 0.358258 0.202679 0.18167
C_ C_ 0.0134974 0.3129 0.227774 -0.15533
C_ C_ 0.485429 0.279314 0.245138 0.02923
C_ C_ 0.433448 0.285936 0.231791 -0.15533
C_ C_ 0.412103 0.325547 0.203139 0.18167
C_ C_ 0.48439 0.455709 0.115919 0.69207
C_ C_ 0.0259943 0.992559 0.112828 0.02923
C_ C_ 0.00799934 0.0435223 0.118849 -0.15533
C_ C_ 0.0376748 0.0819423 0.108364 -0.15533
C_ C_ 0.0902024 0.0687945 0.101299 0.02923
C_ C_ 0.109819 0.0158188 0.0953167 -0.15533
C_ C_ 0.0782783 0.979656 0.103939 0.02923
C_ C_ 0.0998104 0.431016 0.108679 0.69207
C_ C_ 0.0986999 0.166983 0.106922 0.69661
C_ C_ 0.43568 0.189312 0.429326 0.18167
C_ C_ 0.478001 0.21127 0.453074 -0.15533
C_ C_ 0.472348 0.244217 0.498837 0.02923
C_ C_ 0.419943 0.242174 0.0150968 -0.15533
C_ C_ 0.382968 0.226949 0.491727 0.18167
C_ C_ 0.25024 0.204788 0.358827 0.18167
C_ C_ 0.226789 0.233599 0.318396 -0.15533
C_ C_ 0.254549 0.242978 0.279115 0.02923
C_ C_ 0.305188 0.226432 0.282707 -0.15533
C_ C_ 0.328282 0.19776 0.323988 0.18167
C_ C_ 0.261928 0.117252 0.457918 0.69207
C_ C_ 0.22672 0.112453 0.985745 0.02923
C_ C_ 0.245739 0.115731 0.038303 -0.15533
C_ C_ 0.21586 0.107842 0.0771351 -0.15533
C_ C_ 0.16261 0.105026 0.0662553 0.02923
C_ C_ 0.141698 0.106655 0.0145282 -0.15533
C_ C_ 0.175301 0.103732 0.974919 0.02923
C_ C_ 0.14953 0.108061 0.433174 0.69207
C_ C_ 0.15046 0.106735 0.16427 0.69661
C_ C_ 0.373843 0.393386 0.382262 -0.30787
C_ C_ 0.125277 0.112334 0.109192 -0.30787
N_ N_ 0.147394 0.0658876 0.320438 -0.32189
N_ N_ 0.055092 0.143334 0.311723 -0.32189
N_ N_ 0.0966612 0.32074 0.064312 -0.32189
N_ N_ 0.188421 0.321124 0.14954 -0.32189
N_ N_ 0.360244 0.455263 0.187299 -0.32189
N_ N_ 0.441666 0.361003 0.188318 -0.32189
N_ N_ 0.388343 0.198835 0.44749 -0.32189
N_ N_ 0.299508 0.186646 0.361157 -0.32189
O_ O_ 0.508125 0.0930335 0.405905 -0.63271
O_ O_ 0.0481576 0.0346222 0.344314 -0.57982
O_ O_ 0.388978 0.0969973 0.347165 -0.63271
O_ O_ 0.368301 0.0927513 0.428096 -0.57982
O_ O_ 0.255411 0.378811 0.0973411 -0.63271
O_ O_ 0.199811 0.342553 0.0380515 -0.57982
O_ O_ 0.363405 0.339726 0.101447 -0.63271
O_ O_ 0.382599 0.418987 0.0886434 -0.57982
O_ O_ 0.989069 0.413702 0.0894723 -0.63271
O_ O_ 0.454122 0.465408 0.154176 -0.57982
O_ O_ 0.0926237 0.403745 0.146885 -0.63271
O_ O_ 0.130386 0.410586 0.0755014 -0.57982
O_ O_ 0.253915 0.0967998 0.411238 -0.63271
O_ O_ 0.29115 0.156507 0.464784 -0.57982
O_ O_ 0.147402 0.150051 0.409007 -0.63271
O_ O_ 0.114568 0.0783996 0.418663 -0.57982
F_ F_ 0.425604 0.324956 0.429558 -0.20885
F_ F_ 0.419835 0.315637 0.34441 -0.20885
F_ F_ 0.356379 0.305913 0.386782 -0.20885
F_ F_ 0.314723 0.442147 0.324756 -0.20885
F_ F_ 0.31634 0.356996 0.314752 -0.20885
F_ F_ 0.37914 0.395989 0.289386 -0.20885
F_ F_ 0.0659215 0.171527 0.0639804 -0.20885
F_ F_ 0.0718162 0.184734 0.148171 -0.20885
F_ F_ 0.133808 0.202015 0.105499 -0.20885
F_ F_ 0.178879 0.0618021 0.17113 -0.20885
F_ F_ 0.180178 0.145442 0.180535 -0.20885
F_ F_ 0.112748 0.109797 0.197361 -0.20885
Zn Zn 0.0823518 0.0792271 0.843682 0.83971
Zn Zn 0.16509 0.348683 0.580886 0.83971
Zn Zn 0.411063 0.423686 0.655866 0.83971
Zn Zn 0.340202 0.147282 0.910866 0.83971
H_ H_ 0.166041 0.128834 0.802179 0.10394
H_ H_ 0.247272 0.0932003 0.771732 0.10394
H_ H_ 0.20824 0.439594 0.777479 0.10394
H_ H_ 0.121559 0.978707 0.801699 0.10394
H_ H_ 0.527664 0.103459 0.750955 0.10394
H_ H_ 0.48099 0.175497 0.70536 0.10394
H_ H_ 0.0300521 0.268192 0.840927 0.10394
H_ H_ 0.0741005 0.185496 0.875224 0.10394
H_ H_ 0.0262996 0.44179 0.855567 0.10394
H_ H_ 0.478152 0.378221 0.888084 0.10394
H_ H_ 0.348069 0.487692 0.901428 0.10394
H_ H_ 0.0896069 0.306386 0.627501 0.10394
H_ H_ 0.49685 0.283522 0.600003 0.10394
H_ H_ 0.0293165 0.303409 0.954379 0.10394
H_ H_ 0.123393 0.324832 0.477119 0.10394
H_ H_ 0.219163 0.250114 0.593419 0.10394
H_ H_ 0.267405 0.203368 0.662114 0.10394
H_ H_ 0.223865 0.331805 0.770444 0.10394
H_ H_ 0.181344 0.376951 0.694595 0.10394
H_ H_ 0.219363 0.356851 0.950205 0.10394
H_ H_ 0.268741 0.367831 0.879301 0.10394
H_ H_ 0.395861 0.399953 0.984572 0.10394
H_ H_ 0.310633 0.397815 0.657582 0.10394
H_ H_ 0.235125 0.436872 0.695387 0.10394
H_ H_ 0.329661 0.0509994 0.776991 0.10394
H_ H_ 0.400413 0.50245 0.73919 0.10394
H_ H_ 0.0119564 0.37859 0.683283 0.10394
H_ H_ 0.0537638 0.301346 0.721204 0.10394
H_ H_ 0.414592 0.249931 0.711008 0.10394
H_ H_ 0.377222 0.322722 0.671613 0.10394
H_ H_ 0.459199 0.0415113 0.603654 0.10394
H_ H_ 0.0130079 0.11527 0.604725 0.10394
H_ H_ 0.146818 0.00350798 0.597063 0.10394
H_ H_ 0.444338 0.154465 0.897932 0.10394
H_ H_ 0.0126209 0.201842 0.960822 0.10394
H_ H_ 0.423672 0.264622 0.557706 0.10394
H_ H_ 0.342558 0.231188 -0.00709123 0.10394
H_ H_ 0.235838 0.187013 0.874228 0.10394
H_ H_ 0.197558 0.23576 0.802142 0.10394
H_ H_ 0.343169 0.212229 0.737527 0.10394
H_ H_ 0.380669 0.173505 0.818375 0.10394
H_ H_ 0.286721 0.105397 0.560611 0.10394
H_ H_ 0.23082 0.0960074 0.625966 0.10394
H_ H_ 0.106243 0.0816038 0.510355 0.10394
C_ C_ 0.173255 0.0889988 0.795083 0.18167
C_ C_ 0.220399 0.0688241 0.778758 -0.15533
C_ C_ 0.234446 0.0173257 0.77453 0.02923
C_ C_ 0.198681 0.480962 0.783993 -0.15533
C_ C_ 0.152472 0.00487336 0.802985 0.18167
C_ C_ 0.0234881 0.138082 0.768039 0.18167
C_ C_ 0.504999 0.182411 0.740936 -0.15533
C_ C_ 0.0023599999999999177 0.228439 0.765788 0.02923
C_ C_ 0.0315112 0.231963 0.817121 -0.15533
C_ C_ 0.0505997 0.185655 0.840011 0.18167
C_ C_ -0.00217323 0.0453316 0.859052 0.69207
C_ C_ 0.470871 0.508761 0.888011 0.02923
C_ C_ 0.492375 0.458292 0.887324 -0.15533
C_ C_ 0.461017 0.418124 0.891107 -0.15533
C_ C_ 0.407592 0.426266 0.889937 0.02923
C_ C_ 0.387697 0.4789 0.897012 -0.15533
C_ C_ 0.417845 0.519556 0.891527 0.02923
C_ C_ 0.397902 0.0625895 0.88904 0.69207
C_ C_ 0.397238 0.327968 0.884211 0.69661
C_ C_ 0.0784391 0.303254 0.586592 0.18167
C_ C_ 0.0336958 0.282495 0.569631 -0.15533
C_ C_ 0.0219278 0.27322 0.51635 0.02923
C_ C_ 0.0400007 0.299765 0.994218 -0.15533
C_ C_ 0.0978642 0.313022 0.503112 0.18167
C_ C_ 0.214976 0.264306 0.631954 0.18167
C_ C_ 0.246235 0.239251 0.671575 -0.15533
C_ C_ 0.243296 0.260901 0.723017 0.02923
C_ C_ 0.220467 0.311293 0.731257 -0.15533
C_ C_ 0.202708 0.338755 0.687045 0.18167
C_ C_ 0.249552 0.378259 0.546038 0.69207
C_ C_ 0.277185 0.370538 0.00937474 0.02923
C_ C_ 0.254825 0.368945 0.958883 -0.15533
C_ C_ 0.284351 0.372432 0.918078 -0.15533
C_ C_ 0.335111 0.383451 0.928256 0.02923
C_ C_ 0.357195 0.389112 0.979237 -0.15533
C_ C_ 0.331489 0.378152 0.0207894 0.02923
C_ C_ 0.362841 0.388403 0.566367 0.69207
C_ C_ 0.342019 0.38639 0.82871 0.69661
C_ C_ 0.313906 0.430532 0.686293 0.18167
C_ C_ 0.271836 0.45268 0.706723 -0.15533
C_ C_ 0.27562 0.495315 0.740241 0.02923
C_ C_ 0.32245 0.0172336 0.752548 -0.15533
C_ C_ 0.362724 0.492281 0.728168 0.18167
C_ C_ 0.491119 0.362346 0.707515 0.18167
C_ C_ 0.0125964 0.304957 0.716079 -0.15533
C_ C_ 0.487538 0.276593 0.734003 0.02923
C_ C_ 0.437905 0.279414 0.708678 -0.15533
C_ C_ 0.417318 0.322415 0.6806 0.18167
C_ C_ 0.490576 0.458748 0.62545 0.69207
C_ C_ 0.0233683 0.988286 0.619107 0.02923
C_ C_ -0.000230299 0.0374896 0.607789 -0.15533
C_ C_ 0.0323532 0.0756186 0.60538 -0.15533
C_ C_ 0.0857223 0.0663911 0.605006 0.02923
C_ C_ 0.107053 0.0139083 0.605932 -0.15533
C_ C_ 0.0759795 0.977241 0.615257 0.02923
C_ C_ 0.100102 0.423515 0.601845 0.69207
C_ C_ 0.0987605 0.164084 0.606775 0.69661
C_ C_ 0.437592 0.17461 0.933258 0.18167
C_ C_ 0.479352 0.193186 0.963629 -0.15533
C_ C_ 0.470085 0.226743 1.00675482 0.02923
C_ C_ 0.423923 0.247543 0.51961 -0.15533
C_ C_ 0.380311 0.218801 0.987431 0.18167
C_ C_ 0.260228 0.191543 0.845518 0.18167
C_ C_ 0.237828 0.222831 0.80513 -0.15533
C_ C_ 0.266906 0.232265 0.766267 0.02923
C_ C_ 0.319867 0.212686 0.770853 -0.15533
C_ C_ 0.341543 0.190117 0.815885 0.18167
C_ C_ 0.263694 0.119499 0.951021 0.69207
C_ C_ 0.227147 0.108209 0.495554 0.02923
C_ C_ 0.245982 0.105326 0.548807 -0.15533
C_ C_ 0.213191 0.103107 0.586903 -0.15533
C_ C_ 0.161814 0.0977934 0.574039 0.02923
C_ C_ 0.144078 0.0942744 0.521267 -0.15533
C_ C_ 0.174723 0.106673 0.484737 0.02923
C_ C_ 0.1493 0.10425 0.923262 0.69207
C_ C_ 0.146283 0.105273 0.667182 0.69661
C_ C_ 0.37063 0.380507 0.882497 -0.30787
C_ C_ 0.120466 0.108924 0.611627 -0.30787
N_ N_ 0.140145 0.0567494 0.809047 -0.32189
N_ N_ 0.048794 0.140851 0.813798 -0.32189
N_ N_ 0.109542 0.319496 0.554697 -0.32189
N_ N_ 0.195856 0.314764 0.641585 -0.32189
N_ N_ 0.358546 0.450418 0.698715 -0.32189
N_ N_ 0.44137 0.366171 0.686254 -0.32189
N_ N_ 0.390236 0.183079 0.948915 -0.32189
N_ N_ 0.31198 0.182252 0.853246 -0.32189
O_ O_ 0.503598 0.0868441 0.889679 -0.63271
O_ O_ 0.0378036 0.0298605 0.836065 -0.57982
O_ O_ 0.401352 0.0870368 0.847968 -0.63271
O_ O_ 0.365555 0.0821563 0.920696 -0.57982
O_ O_ 0.245742 0.409723 0.584983 -0.63271
O_ O_ 0.214194 0.344256 0.537065 -0.57982
O_ O_ 0.362339 0.344586 0.587766 -0.63271
O_ O_ 0.382765 0.424051 0.591993 -0.57982
O_ O_ 0.99076 0.404879 0.59344 -0.63271
O_ O_ 0.457795 0.46865 0.658623 -0.57982
O_ O_ 0.101386 0.401979 0.646566 -0.63271
O_ O_ 0.135391 0.410579 0.571238 -0.57982
O_ O_ 0.259757 0.0994791 0.904628 -0.63271
O_ O_ 0.296509 0.152237 0.962217 -0.57982
O_ O_ 0.156771 0.140417 0.894135 -0.63271
O_ O_ 0.110289 0.0783865 0.909659 -0.57982
F_ F_ 0.430166 0.323888 0.928119 -0.20885
F_ F_ 0.42584 0.306824 0.845632 -0.20885
F_ F_ 0.363479 0.292579 0.888796 -0.20885
F_ F_ 0.308912 0.430351 0.829124 -0.20885
F_ F_ 0.311139 0.34729 0.809519 -0.20885
F_ F_ 0.379404 0.386517 0.794165 -0.20885
F_ F_ 0.0700959 0.173238 0.561921 -0.20885
F_ F_ 0.0663706 0.181364 0.642956 -0.20885
F_ F_ 0.137017 0.19595 0.608435 -0.20885
F_ F_ 0.170224 0.0568617 0.676956 -0.20885
F_ F_ 0.178968 0.143132 0.680205 -0.20885
F_ F_ 0.111661 0.112769 0.704317 -0.20885
Zn Zn 0.0900591 0.585474 0.344057 0.83971
Zn Zn 0.156911 0.844244 0.0868728 0.83971
Zn Zn 0.40804 0.91724 0.160212 0.83971
Zn Zn 0.347653 0.655708 0.416855 0.83971
H_ H_ 0.182487 0.631579 0.31879 0.10394
H_ H_ 0.257142 0.596789 0.277151 0.10394
H_ H_ 0.210389 0.955978 0.300402 0.10394
H_ H_ 0.121453 0.490222 0.305923 0.10394
H_ H_ 0.542128 0.602931 0.24675 0.10394
H_ H_ 0.506689 0.677904 0.204602 0.10394
H_ H_ 0.0264491 0.771635 0.339522 0.10394
H_ H_ 0.0699045 0.692308 0.379972 0.10394
H_ H_ 0.035355 0.94579 0.370888 0.10394
H_ H_ 0.488 0.883166 0.399999 0.10394
H_ H_ 0.352625 0.989202 0.396091 0.10394
H_ H_ 0.0724169 0.812697 0.129951 0.10394
H_ H_ 0.501504 0.75403 0.0948628 0.10394
H_ H_ 0.0235532 0.789101 0.446964 0.10394
H_ H_ 0.117319 0.829353 0.983502 0.10394
H_ H_ 0.204854 0.746772 0.102735 0.10394
H_ H_ 0.256873 0.706419 0.173517 0.10394
H_ H_ 0.220222 0.838143 0.271982 0.10394
H_ H_ 0.194556 0.885415 0.189895 0.10394
H_ H_ 0.223919 0.852449 0.439752 0.10394
H_ H_ 0.276998 0.872403 0.378796 0.10394
H_ H_ 0.391985 0.918172 0.491746 0.10394
H_ H_ 0.305298 0.898022 0.169582 0.10394
H_ H_ 0.234474 0.952975 0.204512 0.10394
H_ H_ 0.330814 0.535587 0.283781 0.10394
H_ H_ 0.402577 0.00706999999999991 0.237282 0.10394
H_ H_ 0.0108269 0.887934 0.201855 0.10394
H_ H_ 0.0621858 0.811327 0.22855 0.10394
H_ H_ 0.415709 0.743747 0.228215 0.10394
H_ H_ 0.376777 0.819356 0.189869 0.10394
H_ H_ 0.465331 0.557241 0.113557 0.10394
H_ H_ 0.018168 0.62145 0.122401 0.10394
H_ H_ 0.141094 0.507532 0.0804896 0.10394
H_ H_ 0.448652 0.672052 0.394987 0.10394
H_ H_ 0.0184261 0.684358 0.461437 0.10394
H_ H_ 0.415491 0.781127 0.0451361 0.10394
H_ H_ 0.346859 0.735015 0.49405 0.10394
H_ H_ 0.242516 0.707454 0.395928 0.10394
H_ H_ 0.195136 0.74388 0.319634 0.10394
H_ H_ 0.335816 0.732546 0.247033 0.10394
H_ H_ 0.38036 0.696062 0.322249 0.10394
H_ H_ 0.287476 0.6111 0.052643 0.10394
H_ H_ 0.234909 0.595166 0.114522 0.10394
H_ H_ 0.0990054 0.601773 0.00508675 0.10394
C_ C_ 0.183267 0.593937 0.300653 0.18167
C_ C_ 0.226503 0.573649 0.278217 -0.15533
C_ C_ 0.230803 0.521275 0.260861 0.02923
C_ C_ 0.206819 0.996573 0.304874 -0.15533
C_ C_ 0.152429 0.512571 0.298474 0.18167
C_ C_ 0.0393762 0.638336 0.265274 0.18167
C_ C_ 0.515628 0.680951 0.244742 -0.15533
C_ C_ 0.0156709 0.730663 0.264981 0.02923
C_ C_ 0.0296088 0.733366 0.31871 -0.15533
C_ C_ 0.0504765 0.689193 0.3431 0.18167
C_ C_ 0.00975773 0.539153 0.362911 0.69207
C_ C_ 0.474224 0.0119638 0.385096 0.02923
C_ C_ 0.498107 0.960968 0.389717 -0.15533
C_ C_ 0.467569 0.921176 0.392549 -0.15533
C_ C_ 0.413342 0.928778 0.393669 0.02923
C_ C_ 0.393338 0.981574 0.392635 -0.15533
C_ C_ 0.422703 0.023632 0.391269 0.02923
C_ C_ 0.405779 0.576067 0.381902 0.69207
C_ C_ 0.405692 0.835412 0.391616 0.69661
C_ C_ 0.0667798 0.801033 0.0890158 0.18167
C_ C_ 0.0231182 0.778595 0.0693399 -0.15533
C_ C_ 0.0137048 0.770092 0.01704 0.02923
C_ C_ 0.0339444 0.795518 0.487715 -0.15533
C_ C_ 0.0906897 0.811237 0.00647463 0.18167
C_ C_ 0.208225 0.765392 0.141278 0.18167
C_ C_ 0.236176 0.741873 0.182293 -0.15533
C_ C_ 0.236838 0.76852 0.230311 0.02923
C_ C_ 0.216757 0.81956 0.234181 -0.15533
C_ C_ 0.19544 0.844751 0.190011 0.18167
C_ C_ 0.241641 0.857189 0.0464488 0.69207
C_ C_ 0.275085 0.879125 0.506197 0.02923
C_ C_ 0.25962 0.869229 0.454098 -0.15533
C_ C_ 0.2895 0.878217 0.417709 -0.15533
C_ C_ 0.338185 0.890684 0.42897 0.02923
C_ C_ 0.355197 0.901956 0.481366 -0.15533
C_ C_ 0.324534 0.895728 0.520217 0.02923
C_ C_ 0.352533 0.879576 0.0772282 0.69207
C_ C_ 0.358474 0.888049 0.331366 0.69661
C_ C_ 0.310718 0.932829 0.19455 0.18167
C_ C_ 0.270657 0.96015 0.215748 -0.15533
C_ C_ 0.279215 1.000512642 0.250977 0.02923
C_ C_ 0.324678 0.518186 0.245597 -0.15533
C_ C_ 0.366589 0.994921 0.230323 0.18167
C_ C_ 0.492913 0.857765 0.211764 0.18167
C_ C_ 0.0191882 0.813358 0.224009 -0.15533
C_ C_ 0.488968 0.774011 0.245844 0.02923
C_ C_ 0.439269 0.776557 0.227162 -0.15533
C_ C_ 0.416604 0.819542 0.201212 0.18167
C_ C_ 0.487635 0.950152 0.127237 0.69207
C_ C_ 0.0241915 0.491269 0.116906 0.02923
C_ C_ 0.0043785 0.543638 0.121869 -0.15533
C_ C_ 0.0359384 0.584236 0.117883 -0.15533
C_ C_ 0.0865968 0.571129 0.102813 0.02923
C_ C_ 0.10137 0.520738 0.0913418 -0.15533
C_ C_ 0.0737927 0.481883 0.103137 0.02923
C_ C_ 0.104989 0.927972 0.108945 0.69207
C_ C_ 0.103762 0.664915 0.10105 0.69661
C_ C_ 0.444941 0.687556 0.433599 0.18167
C_ C_ 0.485112 0.709003 0.459486 -0.15533
C_ C_ 0.475605 0.747206 0.499853 0.02923
C_ C_ 0.422127 0.753835 0.0133297 -0.15533
C_ C_ 0.385722 0.733188 0.48468 0.18167
C_ C_ 0.264655 0.713064 0.362973 0.18167
C_ C_ 0.2378 0.735567 0.320776 -0.15533
C_ C_ 0.262425 0.742121 0.276162 0.02923
C_ C_ 0.313373 0.724514 0.276938 -0.15533
C_ C_ 0.338933 0.702848 0.318496 0.18167
C_ C_ 0.266438 0.623341 0.452881 0.69207
C_ C_ 0.225539 0.613977 0.987938 0.02923
C_ C_ 0.247157 0.607462 0.0389378 -0.15533
C_ C_ 0.215589 0.600231 0.0763558 -0.15533
C_ C_ 0.16285 0.597152 0.0651565 0.02923
C_ C_ 0.141253 0.598939 0.0139508 -0.15533
C_ C_ 0.172742 0.603454 0.97511 0.02923
C_ C_ 0.153249 0.606587 0.423103 0.69207
C_ C_ 0.153407 0.605369 0.164751 0.69661
C_ C_ 0.376008 0.887855 0.387634 -0.30787
C_ C_ 0.127909 0.608983 0.109661 -0.30787
N_ N_ 0.147623 0.56439 0.309998 -0.32189
N_ N_ 0.0601094 0.644904 0.314627 -0.32189
N_ N_ 0.10094 0.81379 0.0579796 -0.32189
N_ N_ 0.187185 0.814996 0.146209 -0.32189
N_ N_ 0.358642 0.951395 0.20207 -0.32189
N_ N_ 0.442872 0.858338 0.192956 -0.32189
N_ N_ 0.396537 0.699408 0.444722 -0.32189
N_ N_ 0.313645 0.691945 0.358291 -0.32189
O_ O_ 0.509426 0.59075 0.382455 -0.63271
O_ O_ 0.0470113 0.532401 0.33335 -0.57982
O_ O_ 0.403445 0.605467 0.341327 -0.63271
O_ O_ 0.383103 0.593533 0.422514 -0.57982
O_ O_ 0.245686 0.882154 0.0912886 -0.63271
O_ O_ 0.200809 0.830253 0.0376134 -0.57982
O_ O_ 0.354848 0.839154 0.104375 -0.63271
O_ O_ 0.380016 0.916081 0.0950358 -0.57982
O_ O_ 0.989358 0.913196 0.0934522 -0.63271
O_ O_ 0.454857 0.962222 0.161476 -0.57982
O_ O_ 0.105149 0.904506 0.149995 -0.63271
O_ O_ 0.133025 0.908675 0.0751229 -0.57982
O_ O_ 0.256352 0.606802 0.40567 -0.63271
O_ O_ 0.300656 0.658357 0.4607 -0.57982
O_ O_ 0.150105 0.647484 0.398051 -0.63271
O_ O_ 0.117613 0.577405 0.408045 -0.57982
F_ F_ 0.433577 0.830095 0.435198 -0.20885
F_ F_ 0.438816 0.817825 0.355483 -0.20885
F_ F_ 0.370176 0.797964 0.38592 -0.20885
F_ F_ 0.325048 0.931669 0.325199 -0.20885
F_ F_ 0.331591 0.849218 0.312306 -0.20885
F_ F_ 0.394923 0.885373 0.295694 -0.20885
F_ F_ 0.0690444 0.668641 0.0597146 -0.20885
F_ F_ 0.0813859 0.683846 0.144679 -0.20885
F_ F_ 0.142002 0.694386 0.0917419 -0.20885
F_ F_ 0.18489 0.558732 0.171139 -0.20885
F_ F_ 0.179239 0.648343 0.181347 -0.20885
F_ F_ 0.118298 0.606235 0.200336 -0.20885
Zn Zn 0.0840698 0.584836 0.842566 0.83971
Zn Zn 0.159112 0.840371 0.580694 0.83971
Zn Zn 0.408095 0.916632 0.656995 0.83971
Zn Zn 0.335207 0.656861 0.911612 0.83971
H_ H_ 0.168636 0.626705 0.808546 0.10394
H_ H_ 0.244506 0.593017 0.765212 0.10394
H_ H_ 0.209572 0.945337 0.786333 0.10394
H_ H_ 0.121281 0.478218 0.803477 0.10394
H_ H_ 0.536216 0.595102 0.743441 0.10394
H_ H_ 0.501754 0.669512 0.696089 0.10394
H_ H_ 0.0305411 0.769788 0.818764 0.10394
H_ H_ 0.0766643 0.70003 0.864991 0.10394
H_ H_ 0.0269098 0.945964 0.864606 0.10394
H_ H_ 0.484374 0.871594 0.8869 0.10394
H_ H_ 0.358373 0.983145 0.909963 0.10394
H_ H_ 0.0911973 0.780439 0.626624 0.10394
H_ H_ 0.506421 0.767614 0.604981 0.10394
H_ H_ 0.0420316 0.782958 0.944741 0.10394
H_ H_ 0.0879451 0.850111 0.483313 0.10394
H_ H_ 0.218885 0.746571 0.594484 0.10394
H_ H_ 0.263586 0.703638 0.666743 0.10394
H_ H_ 0.217379 0.837594 0.767351 0.10394
H_ H_ 0.180494 0.877652 0.692128 0.10394
H_ H_ 0.239527 0.81584 0.948832 0.10394
H_ H_ 0.277305 0.851105 0.883461 0.10394
H_ H_ 0.386974 0.912133 0.992854 0.10394
H_ H_ 0.31066 0.892534 0.669089 0.10394
H_ H_ 0.236769 0.934593 0.71168 0.10394
H_ H_ 0.32358 0.54879 0.778407 0.10394
H_ H_ 0.399263 0.00784148 0.733269 0.10394
H_ H_ 0.00650131 0.880366 0.693984 0.10394
H_ H_ 0.052932 0.79818 0.722888 0.10394
H_ H_ 0.409248 0.739481 0.71459 0.10394
H_ H_ 0.36951 0.824943 0.688366 0.10394
H_ H_ 0.471968 0.563069 0.636025 0.10394
H_ H_ 0.0177565 0.619821 0.603689 0.10394
H_ H_ 0.14161 0.507517 0.583127 0.10394
H_ H_ 0.437875 0.662062 0.898207 0.10394
H_ H_ 0.0133737 0.694635 0.936443 0.10394
H_ H_ 0.418416 0.780911 0.548137 0.10394
H_ H_ 0.345506 0.726928 0.0122303 0.10394
H_ H_ 0.237101 0.712819 0.890776 0.10394
H_ H_ 0.193449 0.746272 0.809526 0.10394
H_ H_ 0.332089 0.707808 0.736692 0.10394
H_ H_ 0.371329 0.676307 0.812993 0.10394
H_ H_ 0.289728 0.630395 0.550521 0.10394
H_ H_ 0.233973 0.611702 0.615532 0.10394
H_ H_ 0.106715 0.594884 0.502786 0.10394
C_ C_ 0.173484 0.586652 0.794942 0.18167
C_ C_ 0.218565 0.567159 0.773247 -0.15533
C_ C_ 0.228625 0.515642 0.764048 0.02923
C_ C_ 0.200602 0.98607 0.789036 -0.15533
C_ C_ 0.150484 0.502267 0.799709 0.18167
C_ C_ 0.0253387 0.632456 0.764772 0.18167
C_ C_ 0.511468 0.674119 0.737206 -0.15533
C_ C_ 0.00687397 0.722759 0.754207 0.02923
C_ C_ 0.0319056 0.731533 0.802925 -0.15533
C_ C_ 0.0531758 0.691188 0.831592 0.18167
C_ C_ 0.0012300000000000644 0.543906 0.859539 0.69207
C_ C_ 0.477447 0.000730574 0.879523 0.02923
C_ C_ 0.496502 0.949143 0.88007 -0.15533
C_ C_ 0.466476 0.91133 0.889809 -0.15533
C_ C_ 0.414469 0.922903 0.90149 0.02923
C_ C_ 0.397836 0.973726 0.908799 -0.15533
C_ C_ 0.426843 0.0113256 0.895871 0.02923
C_ C_ 0.394078 0.571923 0.887706 0.69207
C_ C_ 0.396936 0.828749 0.878668 0.69661
C_ C_ 0.0728249 0.791961 0.58893 0.18167
C_ C_ 0.0268818 0.772837 0.572792 -0.15533
C_ C_ 0.00826116 0.771605 0.521534 0.02923
C_ C_ 0.0453918 0.791095 0.985753 -0.15533
C_ C_ 0.0768283 0.820524 0.506689 0.18167
C_ C_ 0.222692 0.766698 0.632286 0.18167
C_ C_ 0.24834 0.741181 0.673615 -0.15533
C_ C_ 0.237686 0.762571 0.724956 0.02923
C_ C_ 0.220803 0.815227 0.729557 -0.15533
C_ C_ 0.201421 0.839812 0.685577 0.18167
C_ C_ 0.242224 0.869521 0.544998 0.69207
C_ C_ 0.281395 0.856837 0.0107758 0.02923
C_ C_ 0.271838 0.837206 0.960474 -0.15533
C_ C_ 0.29311 0.855786 0.921439 -0.15533
C_ C_ 0.338417 0.87946 0.934479 0.02923
C_ C_ 0.35443 0.89109 0.985867 -0.15533
C_ C_ 0.32794 0.878768 0.0245965 0.02923
C_ C_ 0.347743 0.890918 0.575162 0.69207
C_ C_ 0.344889 0.900023 0.833448 0.69661
C_ C_ 0.312334 0.929517 0.688284 0.18167
C_ C_ 0.272267 0.951644 0.716641 -0.15533
C_ C_ 0.276252 0.996784 0.745405 0.02923
C_ C_ 0.3201 0.519825 0.747585 -0.15533
C_ C_ 0.364361 0.991727 0.726236 0.18167
C_ C_ 0.490656 0.850433 0.707996 0.18167
C_ C_ 0.0116659 0.803554 0.7177 -0.15533
C_ C_ 0.482794 0.768381 0.738479 0.02923
C_ C_ 0.431143 0.771731 0.715376 -0.15533
C_ C_ 0.410344 0.815831 0.692074 0.18167
C_ C_ 0.492003 0.950642 0.628143 0.69207
C_ C_ 0.0220119 0.488111 0.604555 0.02923
C_ C_ 1.00138356 0.541592 0.601284 -0.15533
C_ C_ 0.0319903 0.582447 0.596383 -0.15533
C_ C_ 0.0848659 0.570036 0.595636 0.02923
C_ C_ 0.103782 0.517121 0.593522 -0.15533
C_ C_ 0.0743849 0.47635 0.599513 0.02923
C_ C_ 0.0999367 0.922887 0.615296 0.69207
C_ C_ 0.101251 0.666128 0.599062 0.69661
C_ C_ 0.433816 0.68468 0.933329 0.18167
C_ C_ 0.475919 0.706238 0.958393 -0.15533
C_ C_ 0.471126 0.743067 -0.003522000000000025 0.02923
C_ C_ 0.426179 0.754389 0.51675 -0.15533
C_ C_ 0.380094 0.727489 0.991398 0.18167
C_ C_ 0.257017 0.713288 0.856867 0.18167
C_ C_ 0.230891 0.730498 0.810191 -0.15533
C_ C_ 0.259495 0.734842 0.76967 0.02923
C_ C_ 0.30891 0.712118 0.770103 -0.15533
C_ C_ 0.331101 0.689693 0.813558 0.18167
C_ C_ 0.256763 0.625422 0.947763 0.69207
C_ C_ 0.229348 0.617994 0.488955 0.02923
C_ C_ 0.248998 0.619202 0.539268 -0.15533
C_ C_ 0.217103 0.613068 0.577471 -0.15533
C_ C_ 0.164939 0.605815 0.566242 0.02923
C_ C_ 0.147289 0.599695 0.514827 -0.15533
C_ C_ 0.179039 0.603459 0.475245 0.02923
C_ C_ 0.145935 0.608298 0.923627 0.69207
C_ C_ 0.150367 0.609444 0.66217 0.69661
C_ C_ 0.373484 0.883464 0.888963 -0.30787
C_ C_ 0.124675 0.612114 0.606972 -0.30787
N_ N_ 0.138478 0.555014 0.802469 -0.32189
N_ N_ 0.0511828 0.641298 0.81384 -0.32189
N_ N_ 0.0998699 0.809332 0.55457 -0.32189
N_ N_ 0.196992 0.813589 0.639847 -0.32189
N_ N_ 0.357074 0.949538 0.692426 -0.32189
N_ N_ 0.439019 0.854222 0.688715 -0.32189
N_ N_ 0.385441 0.699178 0.94691 -0.32189
N_ N_ 0.305704 0.691297 0.856251 -0.32189
O_ O_ 0.501051 0.595767 0.893261 -0.63271
O_ O_ 0.043659 0.534202 0.838235 -0.57982
O_ O_ 0.38515 0.594232 0.842404 -0.63271
O_ O_ 0.373673 0.595166 0.927089 -0.57982
O_ O_ 0.248478 0.891871 0.591271 -0.63271
O_ O_ 0.201563 0.845736 0.531865 -0.57982
O_ O_ 0.355425 0.846647 0.595624 -0.63271
O_ O_ 0.376486 0.924141 0.594332 -0.57982
O_ O_ 0.995672 0.902878 0.599082 -0.63271
O_ O_ 0.459779 0.957802 0.661495 -0.57982
O_ O_ 0.0974598 0.895628 0.654154 -0.63271
O_ O_ 0.135934 0.906776 0.586046 -0.57982
O_ O_ 0.254999 0.599876 0.904837 -0.63271
O_ O_ 0.291455 0.656378 0.958781 -0.57982
O_ O_ 0.150262 0.647034 0.897811 -0.63271
O_ O_ 0.115455 0.574762 0.904572 -0.57982
F_ F_ 0.425671 0.819401 0.919717 -0.20885
F_ F_ 0.428882 0.821876 0.83844 -0.20885
F_ F_ 0.364002 0.792296 0.866542 -0.20885
F_ F_ 0.303639 0.936683 0.843666 -0.20885
F_ F_ 0.319523 0.859934 0.807536 -0.20885
F_ F_ 0.374206 0.921516 0.801719 -0.20885
F_ F_ 0.070432 0.671257 0.55454 -0.20885
F_ F_ 0.0717305 0.684458 0.639781 -0.20885
F_ F_ 0.136863 0.69989 0.59565 -0.20885
F_ F_ 0.182431 0.5665 0.663782 -0.20885
F_ F_ 0.177648 0.650366 0.679604 -0.20885
F_ F_ 0.115344 0.604835 0.696434 -0.20885
Zn Zn 0.585201 0.0891896 0.349212 0.83971
Zn Zn 0.656039 0.34373 0.0874812 0.83971
Zn Zn 0.907308 0.417984 0.15072 0.83971
Zn Zn 0.845053 0.15635 0.420148 0.83971
H_ H_ 0.666769 0.130785 0.310432 0.10394
H_ H_ 0.74188 0.098423 0.26697 0.10394
H_ H_ 0.721644 0.44751 0.295539 0.10394
H_ H_ 0.628582 0.981107 0.322881 0.10394
H_ H_ 0.00872698 0.0967781 0.26026 0.10394
H_ H_ 0.979459 0.167845 0.206181 0.10394
H_ H_ 0.534295 0.274896 0.338644 0.10394
H_ H_ 0.57094 0.198184 0.381653 0.10394
H_ H_ 0.5325 0.442731 0.34227 0.10394
H_ H_ 0.984474 0.368843 0.366206 0.10394
H_ H_ 0.857626 0.481283 0.394052 0.10394
H_ H_ 0.581966 0.291877 0.135478 0.10394
H_ H_ 0.996494 0.272617 0.104231 0.10394
H_ H_ 0.548565 0.285407 0.447045 0.10394
H_ H_ 0.601298 0.321172 0.983699 0.10394
H_ H_ 0.705673 0.245457 0.103913 0.10394
H_ H_ 0.733194 0.193286 0.176377 0.10394
H_ H_ 0.72722 0.335892 0.268781 0.10394
H_ H_ 0.687024 0.380075 0.196428 0.10394
H_ H_ 0.719171 0.358578 0.434424 0.10394
H_ H_ 0.77237 0.368753 0.371349 0.10394
H_ H_ 0.896296 0.401847 0.481566 0.10394
H_ H_ 0.801113 0.397406 0.159318 0.10394
H_ H_ 0.728656 0.45671 0.19147 0.10394
H_ H_ 0.825907 0.05465 0.268489 0.10394
H_ H_ 0.907567 0.488465 0.234819 0.10394
H_ H_ 0.513542 0.389084 0.196961 0.10394
H_ H_ 0.555145 0.319723 0.24501 0.10394
H_ H_ 0.910531 0.245114 0.205952 0.10394
H_ H_ 0.872442 0.325898 0.179029 0.10394
H_ H_ 0.96928 0.0527249 0.131564 0.10394
H_ H_ 0.517766 0.113259 0.0974675 0.10394
H_ H_ 0.639167 -9.29213e-05 0.082531 0.10394
H_ H_ 0.944171 0.174073 0.389298 0.10394
H_ H_ 0.516552 0.193365 0.445017 0.10394
H_ H_ 0.907637 0.296096 0.0468129 0.10394
H_ H_ 0.866803 0.213588 0.52298 0.10394
H_ H_ 0.74847 0.22756 0.400899 0.10394
H_ H_ 0.69916 0.259592 0.323817 0.10394
H_ H_ 0.834494 0.212533 0.243521 0.10394
H_ H_ 0.875192 0.175084 0.318237 0.10394
H_ H_ 0.780213 0.131041 0.0531962 0.10394
H_ H_ 0.734642 0.0942386 0.114459 0.10394
H_ H_ 0.605933 0.0856063 0.004129999999999967 0.10394
C_ C_ 0.672501 0.0899797 0.299656 0.18167
C_ C_ 0.717632 0.0718198 0.277093 -0.15533
C_ C_ 0.732809 0.0177421 0.271989 0.02923
C_ C_ 0.711156 0.490735 0.292773 -0.15533
C_ C_ 0.65536 0.00615519 0.314454 0.18167
C_ C_ 0.530015 0.143379 0.268166 0.18167
C_ C_ -0.005276999999999976 0.176518 0.246295 -0.15533
C_ C_ 0.510077 0.234327 0.268883 0.02923
C_ C_ 0.530937 0.237655 0.318081 -0.15533
C_ C_ 0.554955 0.193695 0.341591 0.18167
C_ C_ 0.504964 0.0526844 0.375283 0.69207
C_ C_ 0.975244 0.499691 0.365892 0.02923
C_ C_ 0.996917 0.448492 0.361739 -0.15533
C_ C_ 0.968509 0.407552 0.370002 -0.15533
C_ C_ 0.916711 0.418294 0.381893 0.02923
C_ C_ 0.895301 0.469389 0.382145 -0.15533
C_ C_ 0.924223 0.510885 0.380328 0.02923
C_ C_ 0.898052 0.0699355 0.389357 0.69207
C_ C_ 0.910257 0.318817 0.390112 0.69661
C_ C_ 0.572468 0.286598 0.0967306 0.18167
C_ C_ 0.524446 0.270982 0.079913 -0.15533
C_ C_ 0.512264 0.25912 0.0268591 0.02923
C_ C_ 0.551981 0.289349 0.488382 -0.15533
C_ C_ 0.58072 0.307104 0.0114839 0.18167
C_ C_ 0.705243 0.263789 0.138695 0.18167
C_ C_ 0.726251 0.236095 0.180894 -0.15533
C_ C_ 0.732151 0.259597 0.229695 0.02923
C_ C_ 0.718642 0.313006 0.233868 -0.15533
C_ C_ 0.699696 0.33976 0.191725 0.18167
C_ C_ 0.737203 0.365178 0.0423968 0.69207
C_ C_ 0.770468 0.385758 0.499536 0.02923
C_ C_ 0.754974 0.372704 0.446584 -0.15533
C_ C_ 0.788088 0.37674 0.410663 -0.15533
C_ C_ 0.841313 0.382727 0.422407 0.02923
C_ C_ 0.854973 0.393694 0.473497 -0.15533
C_ C_ 0.823135 0.38933 0.51395 0.02923
C_ C_ 0.846407 0.388198 0.0687036 0.69207
C_ C_ 0.859309 0.372694 0.324908 0.69661
C_ C_ 0.808188 0.434347 0.179744 0.18167
C_ C_ 0.767536 0.461274 0.205517 -0.15533
C_ C_ 0.779488 0.499653 0.239501 0.02923
C_ C_ 0.82181 0.0186354 0.250267 -0.15533
C_ C_ 0.867105 0.485161 0.222842 0.18167
C_ C_ 0.992273 0.353511 0.197918 0.18167
C_ C_ 0.515537 0.316326 0.230833 -0.15533
C_ C_ 0.986427 0.27213 0.230178 0.02923
C_ C_ 0.935089 0.275077 0.20708 -0.15533
C_ C_ 0.912758 0.319686 0.184279 0.18167
C_ C_ 0.992751 0.449196 0.124599 0.69207
C_ C_ 0.523509 0.988218 0.118115 0.02923
C_ C_ 0.502834 0.0382912 0.114215 -0.15533
C_ C_ 0.534441 0.0743449 0.106586 -0.15533
C_ C_ 0.585932 0.0609517 0.0941826 0.02923
C_ C_ 0.59942 0.00879661 0.086629 -0.15533
C_ C_ 0.575207 0.973259 0.107775 0.02923
C_ C_ 0.598759 0.422554 0.112469 0.69207
C_ C_ 0.601185 0.156876 0.102228 0.69661
C_ C_ 0.944675 0.186509 0.42929 0.18167
C_ C_ 0.98586 0.212306 0.450574 -0.15533
C_ C_ 0.980439 0.24363 0.496654 0.02923
C_ C_ 0.914071 0.264013 0.0171723 -0.15533
C_ C_ 0.898898 0.214001 0.50139 0.18167
C_ C_ 0.7642 0.213867 0.364918 0.18167
C_ C_ 0.737821 0.237139 0.322779 -0.15533
C_ C_ 0.761466 0.232787 0.274041 0.02923
C_ C_ 0.813135 0.21303 0.275781 -0.15533
C_ C_ 0.836455 0.188922 0.320061 0.18167
C_ C_ 0.759356 0.134172 0.458235 0.69207
C_ C_ 0.723671 0.119903 0.989197 0.02923
C_ C_ 0.742513 0.119853 0.0404365 -0.15533
C_ C_ 0.713533 0.105114 0.0779569 -0.15533
C_ C_ 0.662854 0.0977126 0.0666302 0.02923
C_ C_ 0.643904 0.094679 0.013543 -0.15533
C_ C_ 0.672778 0.106436 0.976247 0.02923
C_ C_ 0.649785 0.120724 0.427702 0.69207
C_ C_ 0.645715 0.0901674 0.161007 0.69661
C_ C_ 0.880941 0.373393 0.380932 -0.30787
C_ C_ 0.624338 0.0999952 0.105191 -0.30787
N_ N_ 0.641898 0.0582565 0.317522 -0.32189
N_ N_ 0.554216 0.145585 0.317374 -0.32189
N_ N_ 0.600766 0.303957 0.0608074 -0.32189
N_ N_ 0.691125 0.315545 0.145532 -0.32189
N_ N_ 0.856987 0.447177 0.187154 -0.32189
N_ N_ 0.942686 0.359916 0.182915 -0.32189
N_ N_ 0.901859 0.187599 0.453952 -0.32189
N_ N_ 0.813089 0.192201 0.364104 -0.32189
O_ O_ 0.00214144 0.0950103 0.386868 -0.63271
O_ O_ 0.539101 0.0443007 0.343243 -0.57982
O_ O_ 0.897716 0.0940512 0.34599 -0.63271
O_ O_ 0.866691 0.087795 0.422957 -0.57982
O_ O_ 0.734518 0.398283 0.0827339 -0.63271
O_ O_ 0.705744 0.331405 0.0377445 -0.57982
O_ O_ 0.847809 0.347191 0.0943595 -0.63271
O_ O_ 0.872211 0.427089 0.0879412 -0.57982
O_ O_ 0.4945 0.407405 0.0989146 -0.63271
O_ O_ 0.957181 0.459306 0.156682 -0.57982
O_ O_ 0.595699 0.391267 0.150945 -0.63271
O_ O_ 0.627549 0.405164 0.078596 -0.57982
O_ O_ 0.753001 0.111125 0.413231 -0.63271
O_ O_ 0.800681 0.158937 0.468714 -0.57982
O_ O_ 0.653617 0.158522 0.401321 -0.63271
O_ O_ 0.615078 0.0894836 0.411922 -0.57982
F_ F_ 0.939581 0.322261 0.435547 -0.20885
F_ F_ 0.938024 0.298612 0.348836 -0.20885
F_ F_ 0.873796 0.284464 0.390659 -0.20885
F_ F_ 0.820399 0.413285 0.321972 -0.20885
F_ F_ 0.836465 0.32902 0.30704 -0.20885
F_ F_ 0.894805 0.380312 0.290907 -0.20885
F_ F_ 0.57186 0.164664 0.0551806 -0.20885
F_ F_ 0.571468 0.175251 0.140813 -0.20885
F_ F_ 0.636074 0.190818 0.102748 -0.20885
F_ F_ 0.677609 0.046537 0.169098 -0.20885
F_ F_ 0.673293 0.13035 0.180791 -0.20885
F_ F_ 0.606985 0.0909547 0.192307 -0.20885
Zn Zn 0.586795 0.0859912 0.844188 0.83971
Zn Zn 0.658248 0.349873 0.588643 0.83971
Zn Zn 0.906542 0.414504 0.651418 0.83971
Zn Zn 0.84047 0.157313 0.920274 0.83971
H_ H_ 0.660305 0.126203 0.791808 0.10394
H_ H_ 0.74983 0.09457 0.769472 0.10394
H_ H_ 0.708995 0.444124 0.784008 0.10394
H_ H_ 0.637918 0.984516 0.834636 0.10394
H_ H_ 0.0208667 0.0979772 0.747731 0.10394
H_ H_ 0.987925 0.178429 0.702814 0.10394
H_ H_ 0.52216 0.270512 0.840971 0.10394
H_ H_ 0.56157 0.193355 0.881475 0.10394
H_ H_ 0.5321 0.449734 0.884176 0.10394
H_ H_ 0.977996 0.37615 0.875034 0.10394
H_ H_ 0.845676 0.487305 0.894805 0.10394
H_ H_ 0.580922 0.302865 0.632473 0.10394
H_ H_ 0.0101426 0.272094 0.596766 0.10394
H_ H_ 0.530958 0.276442 0.95272 0.10394
H_ H_ 0.619669 0.325457 0.48532 0.10394
H_ H_ 0.710344 0.254806 0.601056 0.10394
H_ H_ 0.746195 0.199966 0.673092 0.10394
H_ H_ 0.725359 0.333745 0.773803 0.10394
H_ H_ 0.676229 0.381284 0.702758 0.10394
H_ H_ 0.709576 0.367597 0.941684 0.10394
H_ H_ 0.762627 0.388811 0.875093 0.10394
H_ H_ 0.891106 0.399865 0.985697 0.10394
H_ H_ 0.799059 0.391429 0.658193 0.10394
H_ H_ 0.725712 0.442058 0.689723 0.10394
H_ H_ 0.828663 0.0474298 0.771103 0.10394
H_ H_ 0.895794 0.502723 0.72547 0.10394
H_ H_ 0.509511 0.395909 0.706071 0.10394
H_ H_ 0.550078 0.320468 0.754488 0.10394
H_ H_ 0.90349 0.253991 0.73702 0.10394
H_ H_ 0.867233 0.326386 0.687581 0.10394
H_ H_ 0.957311 0.0459079 0.603341 0.10394
H_ H_ 0.505872 0.117367 0.596877 0.10394
H_ H_ 0.64236 0.015797 0.587127 0.10394
H_ H_ 0.941723 0.160312 0.915828 0.10394
H_ H_ 0.516416 0.186164 0.95203 0.10394
H_ H_ 0.924318 0.275143 0.552666 0.10394
H_ H_ 0.833178 0.243654 0.0047999999999999154 0.10394
H_ H_ 0.741122 0.204311 0.893773 0.10394
H_ H_ 0.694649 0.247761 0.819066 0.10394
H_ H_ 0.831731 0.224199 0.745405 0.10394
H_ H_ 0.875165 0.179388 0.816256 0.10394
H_ H_ 0.781236 0.13803 0.561201 0.10394
H_ H_ 0.72673 0.12463 0.625029 0.10394
H_ H_ 0.601105 0.105248 0.509137 0.10394
C_ C_ 0.674812 0.088977 0.796996 0.18167
C_ C_ 0.719985 0.0693808 0.775503 -0.15533
C_ C_ 0.73462 0.0170467 0.773051 0.02923
C_ C_ 0.696186 0.48193 0.781555 -0.15533
C_ C_ 0.657859 0.00746731 0.812294 0.18167
C_ C_ 0.523348 0.138921 0.768029 0.18167
C_ C_ 0.0009099999999999664 0.180945 0.740979 -0.15533
C_ C_ 0.508697 0.231039 0.762962 0.02923
C_ C_ 0.527854 0.234739 0.815103 -0.15533
C_ C_ 0.545709 0.191297 0.840959 0.18167
C_ C_ 0.507791 0.0423793 0.864116 0.69207
C_ C_ 0.96692 0.503952 0.869072 0.02923
C_ C_ 0.988948 0.451832 0.870947 -0.15533
C_ C_ 0.959194 0.41497 0.879227 -0.15533
C_ C_ 0.907524 0.425662 0.889169 0.02923
C_ C_ 0.887694 0.477502 0.889735 -0.15533
C_ C_ 0.919276 0.516969 0.884219 0.02923
C_ C_ 0.891896 0.0709771 0.891755 0.69207
C_ C_ 0.895851 0.330788 0.888408 0.69661
C_ C_ 0.572376 0.302021 0.592642 0.18167
C_ C_ 0.525845 0.286386 0.573327 -0.15533
C_ C_ 0.516567 0.273037 0.521091 0.02923
C_ C_ 0.539886 0.280077 0.9935 -0.15533
C_ C_ 0.594514 0.311894 0.509542 0.18167
C_ C_ 0.71672 0.272123 0.63778 0.18167
C_ C_ 0.734287 0.240787 0.67929 -0.15533
C_ C_ 0.735417 0.263097 0.72931 0.02923
C_ C_ 0.718082 0.314921 0.736632 -0.15533
C_ C_ 0.694745 0.342535 0.695539 0.18167
C_ C_ 0.735305 0.383282 0.540035 0.69207
C_ C_ 0.77003 0.374285 1.00366267 0.02923
C_ C_ 0.750554 0.373037 0.951022 -0.15533
C_ C_ 0.780909 0.382993 0.914648 -0.15533
C_ C_ 0.832353 0.39123 0.924398 0.02923
C_ C_ 0.852465 0.396153 0.976865 -0.15533
C_ C_ 0.819991 0.390337 0.0156234 0.02923
C_ C_ 0.847774 0.383144 0.567153 0.69207
C_ C_ 0.847263 0.387781 0.827487 0.69661
C_ C_ 0.803782 0.428283 0.678502 0.18167
C_ C_ 0.763205 0.458215 0.69764 -0.15533
C_ C_ 0.773707 0.495038 0.737644 0.02923
C_ C_ 0.822509 0.0161057 0.744722 -0.15533
C_ C_ 0.860692 0.487325 0.717489 0.18167
C_ C_ 0.987357 0.347639 0.691734 0.18167
C_ C_ 0.513417 0.320319 0.734965 -0.15533
C_ C_ 0.981518 0.274938 0.738873 0.02923
C_ C_ 0.928453 0.282819 0.726641 -0.15533
C_ C_ 0.907057 0.320391 0.693653 0.18167
C_ C_ 0.988637 0.450713 0.616973 0.69207
C_ C_ 0.524267 0.991112 0.615001 0.02923
C_ C_ 0.500047 0.039933 0.607282 -0.15533
C_ C_ 0.528346 0.0813398 0.599489 -0.15533
C_ C_ 0.582079 0.073711 0.599905 0.02923
C_ C_ 0.603439 0.0218991 0.592591 -0.15533
C_ C_ 0.576173 0.980916 0.606186 0.02923
C_ C_ 0.597778 0.429261 0.603282 0.69207
C_ C_ 0.596248 0.171418 0.614098 0.69661
C_ C_ 0.932477 0.193406 0.939674 0.18167
C_ C_ 0.972463 0.21392 0.968487 -0.15533
C_ C_ 0.963442 0.251297 0.00553753 0.02923
C_ C_ 0.936057 0.243407 0.523021 -0.15533
C_ C_ 0.874506 0.232738 0.996881 0.18167
C_ C_ 0.757888 0.203666 0.858269 0.18167
C_ C_ 0.730053 0.226402 0.815988 -0.15533
C_ C_ 0.756349 0.232839 0.773686 0.02923
C_ C_ 0.809342 0.218289 0.776161 -0.15533
C_ C_ 0.833461 0.193295 0.816968 0.18167
C_ C_ 0.761449 0.126915 0.952616 0.69207
C_ C_ 0.723424 0.128079 0.497129 0.02923
C_ C_ 0.739945 0.132508 0.549298 -0.15533
C_ C_ 0.710425 0.122642 0.587247 -0.15533
C_ C_ 0.658976 0.112385 0.573472 0.02923
C_ C_ 0.641196 0.108934 0.520155 -0.15533
C_ C_ 0.672642 0.119568 0.483076 0.02923
C_ C_ 0.645751 0.111912 0.923842 0.69207
C_ C_ 0.647697 0.10453 0.667881 0.69661
C_ C_ 0.870192 0.385463 0.883344 -0.30787
C_ C_ 0.619195 0.115553 0.615536 -0.30787
N_ N_ 0.644396 0.0574635 0.813842 -0.32189
N_ N_ 0.547638 0.145642 0.817059 -0.32189
N_ N_ 0.607007 0.312986 0.55989 -0.32189
N_ N_ 0.69577 0.32149 0.647062 -0.32189
N_ N_ 0.851353 0.444517 0.68669 -0.32189
N_ N_ 0.93627 0.355707 0.68044 -0.32189
N_ N_ 0.885849 0.200217 0.957133 -0.32189
N_ N_ 0.806444 0.183163 0.854789 -0.32189
O_ O_ -0.00744800000000001 0.0926287 0.877305 -0.63271
O_ O_ 0.545158 0.0339608 0.83491 -0.57982
O_ O_ 0.883011 0.0932054 0.848628 -0.63271
O_ O_ 0.87797 0.0971627 0.93358 -0.57982
O_ O_ 0.736906 0.41214 0.582755 -0.63271
O_ O_ 0.700604 0.350172 0.536237 -0.57982
O_ O_ 0.847361 0.340137 0.589192 -0.63271
O_ O_ 0.876206 0.418605 0.587528 -0.57982
O_ O_ 0.499857 0.410319 0.610881 -0.63271
O_ O_ 0.955617 0.460869 0.651562 -0.57982
O_ O_ 0.600313 0.401806 0.644241 -0.63271
O_ O_ 0.629831 0.413422 0.570608 -0.57982
O_ O_ 0.762415 0.101004 0.908594 -0.63271
O_ O_ 0.793251 0.161455 0.966184 -0.57982
O_ O_ 0.647851 0.15108 0.896772 -0.63271
O_ O_ 0.612802 0.0799825 0.909252 -0.57982
F_ F_ 0.927976 0.326333 0.932218 -0.20885
F_ F_ 0.927108 0.313086 0.850792 -0.20885
F_ F_ 0.857646 0.296512 0.885257 -0.20885
F_ F_ 0.817403 0.431209 0.819994 -0.20885
F_ F_ 0.817664 0.350181 0.813151 -0.20885
F_ F_ 0.881188 0.387767 0.793084 -0.20885
F_ F_ 0.562513 0.17684 0.572637 -0.20885
F_ F_ 0.568345 0.180539 0.653527 -0.20885
F_ F_ 0.634815 0.204143 0.617801 -0.20885
F_ F_ 0.684172 0.0641657 0.671563 -0.20885
F_ F_ 0.671638 0.147122 0.686454 -0.20885
F_ F_ 0.609168 0.0996878 0.699147 -0.20885
Zn Zn 0.596738 0.582824 0.343779 0.83971
Zn Zn 0.661403 0.843587 0.0887702 0.83971
Zn Zn 0.912915 0.918232 0.155912 0.83971
Zn Zn 0.847445 0.644994 0.413544 0.83971
H_ H_ 0.670653 0.636126 0.300092 0.10394
H_ H_ 0.757864 0.600848 0.277363 0.10394
H_ H_ 0.706188 0.944407 0.288974 0.10394
H_ H_ 0.648513 0.487943 0.335782 0.10394
H_ H_ 0.0428904 0.599681 0.246087 0.10394
H_ H_ 1.0142247 0.6807 0.198368 0.10394
H_ H_ 0.540253 0.768213 0.339829 0.10394
H_ H_ 0.579539 0.695274 0.384048 0.10394
H_ H_ 0.539357 0.954805 0.397297 0.10394
H_ H_ 0.986392 0.878867 0.374655 0.10394
H_ H_ 0.85714 0.987388 0.40563 0.10394
H_ H_ 0.575377 0.798806 0.134893 0.10394
H_ H_ 0.997264 0.767319 0.0941454 0.10394
H_ H_ 0.525097 0.810562 0.453641 0.10394
H_ H_ 0.607478 0.837732 0.99092 0.10394
H_ H_ 0.728376 0.749072 0.107379 0.10394
H_ H_ 0.757436 0.700263 0.180882 0.10394
H_ H_ 0.69713 0.824 0.275523 0.10394
H_ H_ 0.672249 0.872246 0.200036 0.10394
H_ H_ 0.72468 0.856483 0.440703 0.10394
H_ H_ 0.775856 0.88006 0.376441 0.10394
H_ H_ 0.90224 0.895262 0.486648 0.10394
H_ H_ 0.807798 0.897806 0.164187 0.10394
H_ H_ 0.740205 0.935345 0.207414 0.10394
H_ H_ 0.839831 0.534521 0.286129 0.10394
H_ H_ 0.89651 1.016382 0.223957 0.10394
H_ H_ 0.51257 0.890332 0.208479 0.10394
H_ H_ 0.556636 0.816985 0.257383 0.10394
H_ H_ 0.917308 0.748809 0.235209 0.10394
H_ H_ 0.875501 0.821468 0.186695 0.10394
H_ H_ 0.966123 0.551684 0.131731 0.10394
H_ H_ 0.521485 0.617184 0.101677 0.10394
H_ H_ 0.651518 0.506132 0.107808 0.10394
H_ H_ 0.946423 0.656518 0.400304 0.10394
H_ H_ 0.521632 0.694352 0.447709 0.10394
H_ H_ 0.911921 0.771652 0.0468304 0.10394
H_ H_ 0.840536 0.733867 0.490228 0.10394
H_ H_ 0.739033 0.69217 0.395 0.10394
H_ H_ 0.693743 0.736606 0.318774 0.10394
H_ H_ 0.837104 0.729937 0.252886 0.10394
H_ H_ 0.878748 0.690217 0.328666 0.10394
H_ H_ 0.789394 0.60742 0.0490216 0.10394
H_ H_ 0.735879 0.610104 0.121771 0.10394
H_ H_ 0.605417 0.587473 0.0142766 0.10394
C_ C_ 0.685406 0.595608 0.301345 0.18167
C_ C_ 0.731045 0.576096 0.283863 -0.15533
C_ C_ 0.740012 0.522326 0.270301 0.02923
C_ C_ 0.69624 0.985715 0.288339 -0.15533
C_ C_ 0.671168 0.512339 0.318214 0.18167
C_ C_ 0.543865 0.638707 0.267204 0.18167
C_ C_ 0.0201045 0.682222 0.237748 -0.15533
C_ C_ 0.51594 0.72883 0.27001 0.02923
C_ C_ 0.535524 0.73154 0.319884 -0.15533
C_ C_ 0.565258 0.689686 0.340799 0.18167
C_ C_ 0.518223 0.543823 0.365446 0.69207
C_ C_ 0.974928 0.00702434 0.381783 0.02923
C_ C_ -0.0036960000000000326 0.956384 0.380302 -0.15533
C_ C_ 0.968936 0.916915 0.386292 -0.15533
C_ C_ 0.917572 0.926451 0.393893 0.02923
C_ C_ 0.895985 0.978252 0.399194 -0.15533
C_ C_ 0.922771 0.019129 0.391503 0.02923
C_ C_ 0.897732 0.562486 0.379603 0.69207
C_ C_ 0.907783 0.826465 0.379648 0.69661
C_ C_ 0.566688 0.797577 0.0924253 0.18167
C_ C_ 0.521406 0.776802 0.0725551 -0.15533
C_ C_ 0.511979 0.772614 0.0187351 0.02923
C_ C_ 0.53848 0.808409 0.49522 -0.15533
C_ C_ 0.583196 0.817977 0.011496 0.18167
C_ C_ 0.720228 0.763332 0.142845 0.18167
C_ C_ 0.73776 0.736298 0.184937 -0.15533
C_ C_ 0.73185 0.758326 0.232223 0.02923
C_ C_ 0.707247 0.808164 0.238213 -0.15533
C_ C_ 0.687409 0.832734 0.195035 0.18167
C_ C_ 0.738502 0.86783 0.0523378 0.69207
C_ C_ 0.778629 0.872503 0.502237 0.02923
C_ C_ 0.76136 0.865918 0.450228 -0.15533
C_ C_ 0.791458 0.877435 0.411716 -0.15533
C_ C_ 0.843809 0.885777 0.424311 0.02923
C_ C_ 0.862102 0.888288 0.476904 -0.15533
C_ C_ 0.830258 0.883069 0.516914 0.02923
C_ C_ 0.851488 0.886611 0.0769062 0.69207
C_ C_ 0.856197 0.889964 0.326609 0.69661
C_ C_ 0.816546 0.926576 0.192269 0.18167
C_ C_ 0.775098 0.948496 0.218124 -0.15533
C_ C_ 0.775464 0.99544 0.243212 0.02923
C_ C_ 0.830783 0.508283 0.254494 -0.15533
C_ C_ 0.863493 0.995999 0.223346 0.18167
C_ C_ 0.99331477 0.85295 0.19919 0.18167
C_ C_ 0.516843 0.818489 0.241027 -0.15533
C_ C_ 0.991355 0.7756 0.238632 0.02923
C_ C_ 0.938418 0.778148 0.223875 -0.15533
C_ C_ 0.914153 0.820792 0.199328 0.18167
C_ C_ 0.991195 0.954566 0.121016 0.69207
C_ C_ 0.523539 0.492044 0.115566 0.02923
C_ C_ 0.506959 0.544061 0.116164 -0.15533
C_ C_ 0.540289 0.579181 0.108028 -0.15533
C_ C_ 0.592658 0.568457 0.111981 0.02923
C_ C_ 0.610996 0.515708 0.109585 -0.15533
C_ C_ 0.577187 0.47628 0.112501 0.02923
C_ C_ 0.603 0.922311 0.114589 0.69207
C_ C_ 0.607584 0.661917 0.10713 0.69661
C_ C_ 0.93956 0.678435 0.435024 0.18167
C_ C_ 0.979333 0.700571 0.464807 -0.15533
C_ C_ 0.967449 0.740109 0.501124 0.02923
C_ C_ 0.917711 0.750301 1.00997126 -0.15533
C_ C_ 0.87988 0.727065 0.483409 0.18167
C_ C_ 0.758272 0.692736 0.358387 0.18167
C_ C_ 0.732363 0.718862 0.316189 -0.15533
C_ C_ 0.759603 0.730915 0.276983 0.02923
C_ C_ 0.812522 0.719706 0.282454 -0.15533
C_ C_ 0.837272 0.692308 0.322147 0.18167
C_ C_ 0.768951 0.614747 0.452473 0.69207
C_ C_ 0.724756 0.608693 0.993681 0.02923
C_ C_ 0.749622 0.60399 0.0435511 -0.15533
C_ C_ 0.718509 0.602254 0.0836213 -0.15533
C_ C_ 0.667531 0.597416 0.072088 0.02923
C_ C_ 0.646298 0.590204 0.0227162 -0.15533
C_ C_ 0.674388 0.594592 0.982382 0.02923
C_ C_ 0.658614 0.608012 0.426468 0.69207
C_ C_ 0.655637 0.603674 0.170032 0.69661
C_ C_ 0.882549 0.882063 0.382523 -0.30787
C_ C_ 0.632162 0.606173 0.114992 -0.30787
N_ N_ 0.654557 0.562272 0.31248 -0.32189
N_ N_ 0.565929 0.643688 0.315742 -0.32189
N_ N_ 0.598693 0.815034 0.0631258 -0.32189
N_ N_ 0.692021 0.810817 0.147655 -0.32189
N_ N_ 0.859679 0.950152 0.195851 -0.32189
N_ N_ 0.942977 0.853756 0.18134 -0.32189
N_ N_ 0.891888 0.689619 0.44806 -0.32189
N_ N_ 0.80967 0.679872 0.359122 -0.32189
O_ O_ 0.00666475 0.581756 0.390805 -0.63271
O_ O_ 0.552601 0.534714 0.33296 -0.57982
O_ O_ 0.901288 0.592547 0.344063 -0.63271
O_ O_ 0.870067 0.579232 0.416489 -0.57982
O_ O_ 0.746587 0.888541 0.0990287 -0.63271
O_ O_ 0.699244 0.842641 0.0382604 -0.57982
O_ O_ 0.858389 0.843039 0.099669 -0.63271
O_ O_ 0.878782 0.921696 0.0952416 -0.57982
O_ O_ 0.486836 0.906131 0.101381 -0.63271
O_ O_ 0.963041 0.961011 0.158312 -0.57982
O_ O_ 0.590387 0.895709 0.149798 -0.63271
O_ O_ 0.636903 0.906029 0.0845253 -0.57982
O_ O_ 0.765752 0.589399 0.407726 -0.63271
O_ O_ 0.802448 0.648148 0.460515 -0.57982
O_ O_ 0.661518 0.647737 0.399006 -0.63271
O_ O_ 0.623424 0.579035 0.408463 -0.57982
F_ F_ 0.940026 0.824761 0.422545 -0.20885
F_ F_ 0.936717 0.816676 0.339828 -0.20885
F_ F_ 0.875151 0.788439 0.379885 -0.20885
F_ F_ 0.819225 0.93036 0.324626 -0.20885
F_ F_ 0.834315 0.84923 0.305187 -0.20885
F_ F_ 0.889644 0.898526 0.291751 -0.20885
F_ F_ 0.578388 0.664441 0.0600771 -0.20885
F_ F_ 0.581715 0.684913 0.149356 -0.20885
F_ F_ 0.645055 0.694805 0.104142 -0.20885
F_ F_ 0.690474 0.563331 0.181229 -0.20885
F_ F_ 0.681059 0.644949 0.184485 -0.20885
F_ F_ 0.623666 0.604062 0.207584 -0.20885
Zn Zn 0.584392 0.578751 0.845254 0.83971
Zn Zn 0.664397 0.847812 0.581065 0.83971
Zn Zn 0.906782 0.910834 0.655707 0.83971
Zn Zn 0.837304 0.651554 0.911868 0.83971
H_ H_ 0.662163 0.625796 0.813547 0.10394
H_ H_ 0.750205 0.590649 0.787563 0.10394
H_ H_ 0.710756 0.946272 0.793061 0.10394
H_ H_ 0.628789 0.475437 0.822533 0.10394
H_ H_ 0.0202721 0.592485 0.751572 0.10394
H_ H_ 0.982996 0.66059 0.697633 0.10394
H_ H_ 0.519863 0.761091 0.838791 0.10394
H_ H_ 0.55725 0.684285 0.879709 0.10394
H_ H_ 0.537768 0.940748 0.882124 0.10394
H_ H_ 0.976615 0.880865 0.866002 0.10394
H_ H_ 0.857714 0.988454 0.920261 0.10394
H_ H_ 0.585769 0.808561 0.638164 0.10394
H_ H_ 0.0144245 0.745537 0.597754 0.10394
H_ H_ 0.533572 0.788926 0.948099 0.10394
H_ H_ 0.596585 0.854199 0.488395 0.10394
H_ H_ 0.727481 0.763048 0.593938 0.10394
H_ H_ 0.758635 0.709898 0.668518 0.10394
H_ H_ 0.699136 0.833541 0.771515 0.10394
H_ H_ 0.672934 0.882196 0.696209 0.10394
H_ H_ 0.71211 0.885132 0.95159 0.10394
H_ H_ 0.764046 0.894237 0.883785 0.10394
H_ H_ 0.894387 0.904801 0.995345 0.10394
H_ H_ 0.805732 0.889154 0.666335 0.10394
H_ H_ 0.728166 0.941467 0.701214 0.10394
H_ H_ 0.834272 0.539374 0.777135 0.10394
H_ H_ 0.90323 1.00351 0.727198 0.10394
H_ H_ 0.517484 0.878484 0.702201 0.10394
H_ H_ 0.555087 0.800791 0.738525 0.10394
H_ H_ 0.908504 0.738433 0.720821 0.10394
H_ H_ 0.866151 0.822351 0.70117 0.10394
H_ H_ 0.961085 0.548934 0.603685 0.10394
H_ H_ 0.519541 0.625444 0.608931 0.10394
H_ H_ 0.646728 0.50708 0.586045 0.10394
H_ H_ 0.939024 0.66966 0.887633 0.10394
H_ H_ 0.513947 0.687359 0.951797 0.10394
H_ H_ 0.906135 0.78336 0.541026 0.10394
H_ H_ 0.842323 0.728965 0.999825126 0.10394
H_ H_ 0.727647 0.67187 0.861182 0.10394
H_ H_ 0.691406 0.713137 0.789418 0.10394
H_ H_ 0.832772 0.755404 0.760679 0.10394
H_ H_ 0.874522 0.702074 0.827122 0.10394
H_ H_ 0.796814 0.604181 0.55292 0.10394
H_ H_ 0.735811 0.613036 0.621741 0.10394
H_ H_ 0.609034 0.603488 0.510417 0.10394
C_ C_ 0.670808 0.584833 0.800989 0.18167
C_ C_ 0.719331 0.566908 0.780039 -0.15533
C_ C_ 0.730661 0.513413 0.768839 0.02923
C_ C_ 0.704799 0.98727 0.794842 -0.15533
C_ C_ 0.652114 0.499818 0.804427 0.18167
C_ C_ 0.535721 0.632799 0.76197 0.18167
C_ C_ 0.0046217 0.672367 0.734936 -0.15533
C_ C_ 0.50672 0.722307 0.763286 0.02923
C_ C_ 0.519617 0.724506 0.816488 -0.15533
C_ C_ 0.547496 0.683685 0.840472 0.18167
C_ C_ 0.503719 0.54858 0.872731 0.69207
C_ C_ 0.967334 0.00749961 0.87568 0.02923
C_ C_ -0.011140999999999956 0.956531 0.87548 -0.15533
C_ C_ 0.959758 0.916619 0.880669 -0.15533
C_ C_ 0.909138 0.926219 0.896809 0.02923
C_ C_ 0.891664 0.977242 0.903122 -0.15533
C_ C_ 0.918637 0.0177292 0.892588 0.02923
C_ C_ 0.894913 0.570144 0.881371 0.69207
C_ C_ 0.895005 0.830539 0.899615 0.69661
C_ C_ 0.572547 0.806043 0.595887 0.18167
C_ C_ 0.527698 0.782454 0.577738 -0.15533
C_ C_ 0.51565 0.777328 0.525157 0.02923
C_ C_ 0.545701 0.79103 0.988242 -0.15533
C_ C_ 0.584344 0.826978 0.509849 0.18167
C_ C_ 0.72381 0.777864 0.634501 0.18167
C_ C_ 0.74125 0.749981 0.676009 -0.15533
C_ C_ 0.73618 0.769147 0.724208 0.02923
C_ C_ 0.708671 0.815649 0.732568 -0.15533
C_ C_ 0.690713 0.844348 0.690662 0.18167
C_ C_ 0.739591 0.872486 0.538942 0.69207
C_ C_ 0.771486 0.876983 1.0126199 0.02923
C_ C_ 0.75174 0.884057 0.962448 -0.15533
C_ C_ 0.782035 0.890474 0.923644 -0.15533
C_ C_ 0.834949 0.896613 0.932535 0.02923
C_ C_ 0.856005 0.896013 0.98453 -0.15533
C_ C_ 0.825276 0.887755 0.0237537 0.02923
C_ C_ 0.851892 0.883157 0.570467 0.69207
C_ C_ 0.847595 0.884795 0.833485 0.69661
C_ C_ 0.809693 0.926571 0.688492 0.18167
C_ C_ 0.767261 0.9536 0.709134 -0.15533
C_ C_ 0.775368 -0.004612999999999978 0.743109 0.02923
C_ C_ 0.82122 0.514175 0.74366 -0.15533
C_ C_ 0.86422 0.989395 0.721407 0.18167
C_ C_ 0.986469 0.846521 0.695212 0.18167
C_ C_ 0.513646 0.806684 0.732395 -0.15533
C_ C_ 0.984122 0.763935 0.723411 0.02923
C_ C_ 0.930885 0.768893 0.713345 -0.15533
C_ C_ 0.90735 0.81573 0.698079 0.18167
C_ C_ 0.98744 0.947552 0.62334 0.69207
C_ C_ 0.526432 0.497128 0.619221 0.02923
C_ C_ 0.509676 0.549306 0.622529 -0.15533
C_ C_ 0.536783 0.586104 0.604691 -0.15533
C_ C_ 0.589632 0.575065 0.600463 0.02923
C_ C_ 0.608499 0.520992 0.596901 -0.15533
C_ C_ 0.577455 0.483891 0.606019 0.02923
C_ C_ 0.60341 0.929286 0.61153 0.69207
C_ C_ 0.604381 0.671879 0.599634 0.69661
C_ C_ 0.934013 0.688113 0.922655 0.18167
C_ C_ 0.976454 0.70868 0.949144 -0.15533
C_ C_ 0.968905 0.740354 0.9924 0.02923
C_ C_ 0.917728 0.754575 0.509682 -0.15533
C_ C_ 0.877873 0.726208 0.984588 0.18167
C_ C_ 0.754185 0.691358 0.842653 0.18167
C_ C_ 0.731031 0.717434 0.800187 -0.15533
C_ C_ 0.758649 0.741182 0.768985 0.02923
C_ C_ 0.810967 0.737788 0.783299 -0.15533
C_ C_ 0.833268 0.707364 0.822223 0.18167
C_ C_ 0.756273 0.623319 0.9527 0.69207
C_ C_ 0.734899 0.609084 0.491764 0.02923
C_ C_ 0.75387 0.60621 0.542495 -0.15533
C_ C_ 0.721265 0.60635 0.582466 -0.15533
C_ C_ 0.668995 0.604757 0.570477 0.02923
C_ C_ 0.650464 0.600217 0.51944 -0.15533
C_ C_ 0.680579 0.606605 0.478913 0.02923
C_ C_ 0.644118 0.602182 0.930524 0.69207
C_ C_ 0.650845 0.618471 0.661963 0.69661
C_ C_ 0.872354 0.886796 0.889773 -0.30787
C_ C_ 0.628816 0.616027 0.606737 -0.30787
N_ N_ 0.638365 0.550211 0.809055 -0.32189
N_ N_ 0.552421 0.638302 0.812217 -0.32189
N_ N_ 0.602796 0.822823 0.560473 -0.32189
N_ N_ 0.696931 0.823721 0.643359 -0.32189
N_ N_ 0.856565 0.944139 0.696942 -0.32189
N_ N_ 0.934641 0.852288 0.685818 -0.32189
N_ N_ 0.88665 0.696484 0.941438 -0.32189
N_ N_ 0.806002 0.682103 0.849371 -0.32189
O_ O_ 0.991048 0.588748 0.881945 -0.63271
O_ O_ 0.538902 0.534545 0.841875 -0.57982
O_ O_ 0.885503 0.594082 0.83794 -0.63271
O_ O_ 0.864654 0.585357 0.91543 -0.57982
O_ O_ 0.735476 0.908649 0.576495 -0.63271
O_ O_ 0.711567 0.833636 0.536036 -0.57982
O_ O_ 0.840297 0.846839 0.597556 -0.63271
O_ O_ 0.877677 0.918083 0.591776 -0.57982
O_ O_ 0.492038 0.908216 0.599347 -0.63271
O_ O_ 0.952897 0.95627 0.655912 -0.57982
O_ O_ 0.592903 0.89806 0.647664 -0.63271
O_ O_ 0.6334 0.911419 0.575967 -0.57982
O_ O_ 0.752153 0.597844 0.907643 -0.63271
O_ O_ 0.791697 0.655541 0.960304 -0.57982
O_ O_ 0.644409 0.64576 0.907883 -0.63271
O_ O_ 0.614876 0.567616 0.910007 -0.57982
F_ F_ 0.928504 0.825214 0.940758 -0.20885
F_ F_ 0.918858 0.807216 0.858433 -0.20885
F_ F_ 0.857415 0.801143 0.908863 -0.20885
F_ F_ 0.814354 0.930357 0.823616 -0.20885
F_ F_ 0.820969 0.841789 0.820194 -0.20885
F_ F_ 0.882977 0.88684 0.800077 -0.20885
F_ F_ 0.572052 0.678648 0.553728 -0.20885
F_ F_ 0.578104 0.691742 0.637708 -0.20885
F_ F_ 0.644048 0.70346 0.597108 -0.20885
F_ F_ 0.682038 0.573814 0.67262 -0.20885
F_ F_ 0.68423 0.655188 0.676865 -0.20885
F_ F_ 0.616194 0.621428 0.697677 -0.20885
