_cell_length_a 27.1013
_cell_length_b 9.27321
_cell_length_c 16.9792
_cell_angle_alpha 90.0
_cell_angle_beta 99.1565
_cell_angle_gamma 90.0
_symmetry_space_group_name_H-M         'P 1'
_symmetry_Int_Tables_number            1
loop_
_symmetry_equiv_pos_as_xyz
   'x, y, z'
                         
loop_
_atom_site_label
_atom_site_type_symbol
_atom_site_fract_x 
_atom_site_fract_y
_atom_site_fract_z
_atom_site_charge
Zn1 Zn1 -0.17 0.797 -0.34 0.0
Zn2 Zn2 -0.17 0.393 -0.54 0.0
O1 O1 -0.23 0.657 -0.3 0.0
O1W O1W -0.12 0.942 -0.38 0.0
H1WA H1WA -0.12 1.02 -0.36 0.0
H1WB H1WB -0.15 0.911 -0.39 0.0
O2 O2 -0.17 0.633 -0.42 0.0
O3 O3 -0.2 0.414 -0.45 0.0
O4 O4 -0.3 0.283 -0.4 0.0
O5 O5 -0.36 0.411 -0.46 0.0
O6 O6 -0.31 0.433 -0.25 0.0
O7 O7 -0.36 0.623 -0.22 0.0
O8 O8 -0.31 0.944 -0.37 0.0
O9 O9 -0.24 0.894 -0.39 0.0
N1 N1 -0.11 0.695 -0.26 0.0
N2 N2 0.1 0.438 -0.0 0.0
C1 C1 -0.24 0.532 -0.35 0.0
H1A H1A -0.23 0.444 -0.32 0.0
C2 C2 -0.29 0.542 -0.39 0.0
H2A H2A -0.29 0.599 -0.44 0.0
C3 C3 -0.32 0.636 -0.33 0.0
H3A H3A -0.34 0.688 -0.36 0.0
C4 C4 -0.27 0.74 -0.31 0.0
H4A H4A -0.28 0.773 -0.25 0.0
C5 C5 -0.2 0.529 -0.41 0.0
C6 C6 -0.32 0.401 -0.42 0.0
C7 C7 -0.33 0.556 -0.26 0.0
C8 C8 -0.27 0.871 -0.36 0.0
C9 C9 -0.1 0.556 -0.24 0.0
H9A H9A -0.13 0.493 -0.27 0.0
C10 C10 -0.06 0.5 -0.19 0.0
H10A H10A -0.06 0.401 -0.18 0.0
C11 C11 -0.02 0.59 -0.15 0.0
C12 C12 -0.03 0.736 -0.17 0.0
H12A H12A -0.01 0.802 -0.15 0.0
C13 C13 -0.07 0.783 -0.22 0.0
H13A H13A -0.07 0.881 -0.24 0.0
C14 C14 0.073 0.35 -0.05 0.0
H14A H14A 0.083 0.255 -0.06 0.0
C15 C15 0.031 0.394 -0.1 0.0
H15A H15A 0.013 0.33 -0.14 0.0
C16 C16 0.014 0.536 -0.1 0.0
C17 C17 0.041 0.626 -0.04 0.0
H17A H17A 0.031 0.721 -0.04 0.0
C18 C18 0.084 0.574 -0.0 0.0
H18A H18A 0.101 0.636 0.036 0.0
O2W O2W -0.03 0.131 -0.2 0.0
H2WA H2WA -0.06 0.097 -0.23 0.0
H2WB H2WB -0.01 0.073 -0.2 0.0
O3W O3W -0.04 0.05 -0.04 0.0
H3WA H3WA -0.05 -0.02 -0.04 0.0
H3WB H3WB -0.03 0.048 -0.09 0.0
Zn1 Zn1 0.17 0.797 0.8400000000000001 0.0
Zn2 Zn2 0.17 0.393 1.04 0.0
O1 O1 0.23 0.657 0.8 0.0
O1W O1W 0.12 0.942 0.88 0.0
H1WA H1WA 0.12 1.02 0.86 0.0
H1WB H1WB 0.15 0.911 0.89 0.0
O2 O2 0.17 0.633 0.9199999999999999 0.0
O3 O3 0.2 0.414 0.95 0.0
O4 O4 0.3 0.283 0.9 0.0
O5 O5 0.36 0.411 0.96 0.0
O6 O6 0.31 0.433 0.75 0.0
O7 O7 0.36 0.623 0.72 0.0
O8 O8 0.31 0.944 0.87 0.0
O9 O9 0.24 0.894 0.89 0.0
N1 N1 0.11 0.695 0.76 0.0
N2 N2 -0.1 0.438 0.5 0.0
C1 C1 0.24 0.532 0.85 0.0
H1A H1A 0.23 0.444 0.8200000000000001 0.0
C2 C2 0.29 0.542 0.89 0.0
H2A H2A 0.29 0.599 0.94 0.0
C3 C3 0.32 0.636 0.8300000000000001 0.0
H3A H3A 0.34 0.688 0.86 0.0
C4 C4 0.27 0.74 0.81 0.0
H4A H4A 0.28 0.773 0.75 0.0
C5 C5 0.2 0.529 0.9099999999999999 0.0
C6 C6 0.32 0.401 0.9199999999999999 0.0
C7 C7 0.33 0.556 0.76 0.0
C8 C8 0.27 0.871 0.86 0.0
C9 C9 0.1 0.556 0.74 0.0
H9A H9A 0.13 0.493 0.77 0.0
C10 C10 0.06 0.5 0.69 0.0
H10A H10A 0.06 0.401 0.6799999999999999 0.0
C11 C11 0.02 0.59 0.65 0.0
C12 C12 0.03 0.736 0.67 0.0
H12A H12A 0.01 0.802 0.65 0.0
C13 C13 0.07 0.783 0.72 0.0
H13A H13A 0.07 0.881 0.74 0.0
C14 C14 -0.073 0.35 0.55 0.0
H14A H14A -0.083 0.255 0.56 0.0
C15 C15 -0.031 0.394 0.6 0.0
H15A H15A -0.013 0.33 0.64 0.0
C16 C16 -0.014 0.536 0.6 0.0
C17 C17 -0.041 0.626 0.54 0.0
H17A H17A -0.031 0.721 0.54 0.0
C18 C18 -0.084 0.574 0.5 0.0
H18A H18A -0.101 0.636 0.464 0.0
O2W O2W 0.03 0.131 0.7 0.0
H2WA H2WA 0.06 0.097 0.73 0.0
H2WB H2WB 0.01 0.073 0.7 0.0
O3W O3W 0.04 0.05 0.54 0.0
H3WA H3WA 0.05 -0.02 0.54 0.0
H3WB H3WB 0.03 0.048 0.59 0.0
Zn1 Zn1 0.32999999999999996 1.2970000000000002 -0.34 0.0
Zn2 Zn2 0.32999999999999996 0.893 -0.54 0.0
O1 O1 0.27 1.157 -0.3 0.0
O1W O1W 0.38 1.442 -0.38 0.0
H1WA H1WA 0.38 1.52 -0.36 0.0
H1WB H1WB 0.35 1.411 -0.39 0.0
O2 O2 0.32999999999999996 1.133 -0.42 0.0
O3 O3 0.3 0.9139999999999999 -0.45 0.0
O4 O4 0.2 0.7829999999999999 -0.4 0.0
O5 O5 0.14 0.911 -0.46 0.0
O6 O6 0.19 0.933 -0.25 0.0
O7 O7 0.14 1.123 -0.22 0.0
O8 O8 0.19 1.444 -0.37 0.0
O9 O9 0.26 1.3940000000000001 -0.39 0.0
N1 N1 0.39 1.1949999999999998 -0.26 0.0
N2 N2 0.6 0.938 -0.0 0.0
C1 C1 0.26 1.032 -0.35 0.0
H1A H1A 0.27 0.944 -0.32 0.0
C2 C2 0.21000000000000002 1.042 -0.39 0.0
H2A H2A 0.21000000000000002 1.099 -0.44 0.0
C3 C3 0.18 1.1360000000000001 -0.33 0.0
H3A H3A 0.15999999999999998 1.188 -0.36 0.0
C4 C4 0.22999999999999998 1.24 -0.31 0.0
H4A H4A 0.21999999999999997 1.2730000000000001 -0.25 0.0
C5 C5 0.3 1.029 -0.41 0.0
C6 C6 0.18 0.901 -0.42 0.0
C7 C7 0.16999999999999998 1.056 -0.26 0.0
C8 C8 0.22999999999999998 1.371 -0.36 0.0
C9 C9 0.4 1.056 -0.24 0.0
H9A H9A 0.37 0.993 -0.27 0.0
C10 C10 0.44 1.0 -0.19 0.0
H10A H10A 0.44 0.901 -0.18 0.0
C11 C11 0.48 1.0899999999999999 -0.15 0.0
C12 C12 0.47 1.236 -0.17 0.0
H12A H12A 0.49 1.302 -0.15 0.0
C13 C13 0.43 1.283 -0.22 0.0
H13A H13A 0.43 1.381 -0.24 0.0
C14 C14 0.573 0.85 -0.05 0.0
H14A H14A 0.583 0.755 -0.06 0.0
C15 C15 0.531 0.894 -0.1 0.0
H15A H15A 0.513 0.8300000000000001 -0.14 0.0
C16 C16 0.514 1.036 -0.1 0.0
C17 C17 0.541 1.126 -0.04 0.0
H17A H17A 0.531 1.221 -0.04 0.0
C18 C18 0.584 1.0739999999999998 -0.0 0.0
H18A H18A 0.601 1.1360000000000001 0.036 0.0
O2W O2W 0.47 0.631 -0.2 0.0
H2WA H2WA 0.44 0.597 -0.23 0.0
H2WB H2WB 0.49 0.573 -0.2 0.0
O3W O3W 0.46 0.55 -0.04 0.0
H3WA H3WA 0.45 0.48 -0.04 0.0
H3WB H3WB 0.47 0.548 -0.09 0.0
Zn1 Zn1 0.67 1.2970000000000002 0.8400000000000001 0.0
Zn2 Zn2 0.67 0.893 1.04 0.0
O1 O1 0.73 1.157 0.8 0.0
O1W O1W 0.62 1.442 0.88 0.0
H1WA H1WA 0.62 1.52 0.86 0.0
H1WB H1WB 0.65 1.411 0.89 0.0
O2 O2 0.67 1.133 0.9199999999999999 0.0
O3 O3 0.7 0.9139999999999999 0.95 0.0
O4 O4 0.8 0.7829999999999999 0.9 0.0
O5 O5 0.86 0.911 0.96 0.0
O6 O6 0.81 0.933 0.75 0.0
O7 O7 0.86 1.123 0.72 0.0
O8 O8 0.81 1.444 0.87 0.0
O9 O9 0.74 1.3940000000000001 0.89 0.0
N1 N1 0.61 1.1949999999999998 0.76 0.0
N2 N2 0.4 0.938 0.5 0.0
C1 C1 0.74 1.032 0.85 0.0
H1A H1A 0.73 0.944 0.8200000000000001 0.0
C2 C2 0.79 1.042 0.89 0.0
H2A H2A 0.79 1.099 0.94 0.0
C3 C3 0.8200000000000001 1.1360000000000001 0.8300000000000001 0.0
H3A H3A 0.8400000000000001 1.188 0.86 0.0
C4 C4 0.77 1.24 0.81 0.0
H4A H4A 0.78 1.2730000000000001 0.75 0.0
C5 C5 0.7 1.029 0.9099999999999999 0.0
C6 C6 0.8200000000000001 0.901 0.9199999999999999 0.0
C7 C7 0.8300000000000001 1.056 0.76 0.0
C8 C8 0.77 1.371 0.86 0.0
C9 C9 0.6 1.056 0.74 0.0
H9A H9A 0.63 0.993 0.77 0.0
C10 C10 0.56 1.0 0.69 0.0
H10A H10A 0.56 0.901 0.6799999999999999 0.0
C11 C11 0.52 1.0899999999999999 0.65 0.0
C12 C12 0.53 1.236 0.67 0.0
H12A H12A 0.51 1.302 0.65 0.0
C13 C13 0.5700000000000001 1.283 0.72 0.0
H13A H13A 0.5700000000000001 1.381 0.74 0.0
C14 C14 0.427 0.85 0.55 0.0
H14A H14A 0.417 0.755 0.56 0.0
C15 C15 0.469 0.894 0.6 0.0
H15A H15A 0.487 0.8300000000000001 0.64 0.0
C16 C16 0.486 1.036 0.6 0.0
C17 C17 0.459 1.126 0.54 0.0
H17A H17A 0.469 1.221 0.54 0.0
C18 C18 0.416 1.0739999999999998 0.5 0.0
H18A H18A 0.399 1.1360000000000001 0.464 0.0
O2W O2W 0.53 0.631 0.7 0.0
H2WA H2WA 0.56 0.597 0.73 0.0
H2WB H2WB 0.51 0.573 0.7 0.0
O3W O3W 0.54 0.55 0.54 0.0
H3WA H3WA 0.55 0.48 0.54 0.0
H3WB H3WB 0.53 0.548 0.59 0.0
Zn1 Zn1 0.17 -0.797 0.34 0.0
Zn2 Zn2 0.17 -0.393 0.54 0.0
O1 O1 0.23 -0.657 0.3 0.0
O1W O1W 0.12 -0.942 0.38 0.0
H1WA H1WA 0.12 -1.02 0.36 0.0
H1WB H1WB 0.15 -0.911 0.39 0.0
O2 O2 0.17 -0.633 0.42 0.0
O3 O3 0.2 -0.414 0.45 0.0
O4 O4 0.3 -0.283 0.4 0.0
O5 O5 0.36 -0.411 0.46 0.0
O6 O6 0.31 -0.433 0.25 0.0
O7 O7 0.36 -0.623 0.22 0.0
O8 O8 0.31 -0.944 0.37 0.0
O9 O9 0.24 -0.894 0.39 0.0
N1 N1 0.11 -0.695 0.26 0.0
N2 N2 -0.1 -0.438 0.0 0.0
C1 C1 0.24 -0.532 0.35 0.0
H1A H1A 0.23 -0.444 0.32 0.0
C2 C2 0.29 -0.542 0.39 0.0
H2A H2A 0.29 -0.599 0.44 0.0
C3 C3 0.32 -0.636 0.33 0.0
H3A H3A 0.34 -0.688 0.36 0.0
C4 C4 0.27 -0.74 0.31 0.0
H4A H4A 0.28 -0.773 0.25 0.0
C5 C5 0.2 -0.529 0.41 0.0
C6 C6 0.32 -0.401 0.42 0.0
C7 C7 0.33 -0.556 0.26 0.0
C8 C8 0.27 -0.871 0.36 0.0
C9 C9 0.1 -0.556 0.24 0.0
H9A H9A 0.13 -0.493 0.27 0.0
C10 C10 0.06 -0.5 0.19 0.0
H10A H10A 0.06 -0.401 0.18 0.0
C11 C11 0.02 -0.59 0.15 0.0
C12 C12 0.03 -0.736 0.17 0.0
H12A H12A 0.01 -0.802 0.15 0.0
C13 C13 0.07 -0.783 0.22 0.0
H13A H13A 0.07 -0.881 0.24 0.0
C14 C14 -0.073 -0.35 0.05 0.0
H14A H14A -0.083 -0.255 0.06 0.0
C15 C15 -0.031 -0.394 0.1 0.0
H15A H15A -0.013 -0.33 0.14 0.0
C16 C16 -0.014 -0.536 0.1 0.0
C17 C17 -0.041 -0.626 0.04 0.0
H17A H17A -0.031 -0.721 0.04 0.0
C18 C18 -0.084 -0.574 0.0 0.0
H18A H18A -0.101 -0.636 -0.036 0.0
O2W O2W 0.03 -0.131 0.2 0.0
H2WA H2WA 0.06 -0.097 0.23 0.0
H2WB H2WB 0.01 -0.073 0.2 0.0
O3W O3W 0.04 -0.05 0.04 0.0
H3WA H3WA 0.05 0.02 0.04 0.0
H3WB H3WB 0.03 -0.048 0.09 0.0
Zn1 Zn1 -0.17 -0.797 -0.8400000000000001 0.0
Zn2 Zn2 -0.17 -0.393 -1.04 0.0
O1 O1 -0.23 -0.657 -0.8 0.0
O1W O1W -0.12 -0.942 -0.88 0.0
H1WA H1WA -0.12 -1.02 -0.86 0.0
H1WB H1WB -0.15 -0.911 -0.89 0.0
O2 O2 -0.17 -0.633 -0.9199999999999999 0.0
O3 O3 -0.2 -0.414 -0.95 0.0
O4 O4 -0.3 -0.283 -0.9 0.0
O5 O5 -0.36 -0.411 -0.96 0.0
O6 O6 -0.31 -0.433 -0.75 0.0
O7 O7 -0.36 -0.623 -0.72 0.0
O8 O8 -0.31 -0.944 -0.87 0.0
O9 O9 -0.24 -0.894 -0.89 0.0
N1 N1 -0.11 -0.695 -0.76 0.0
N2 N2 0.1 -0.438 -0.5 0.0
C1 C1 -0.24 -0.532 -0.85 0.0
H1A H1A -0.23 -0.444 -0.8200000000000001 0.0
C2 C2 -0.29 -0.542 -0.89 0.0
H2A H2A -0.29 -0.599 -0.94 0.0
C3 C3 -0.32 -0.636 -0.8300000000000001 0.0
H3A H3A -0.34 -0.688 -0.86 0.0
C4 C4 -0.27 -0.74 -0.81 0.0
H4A H4A -0.28 -0.773 -0.75 0.0
C5 C5 -0.2 -0.529 -0.9099999999999999 0.0
C6 C6 -0.32 -0.401 -0.9199999999999999 0.0
C7 C7 -0.33 -0.556 -0.76 0.0
C8 C8 -0.27 -0.871 -0.86 0.0
C9 C9 -0.1 -0.556 -0.74 0.0
H9A H9A -0.13 -0.493 -0.77 0.0
C10 C10 -0.06 -0.5 -0.69 0.0
H10A H10A -0.06 -0.401 -0.6799999999999999 0.0
C11 C11 -0.02 -0.59 -0.65 0.0
C12 C12 -0.03 -0.736 -0.67 0.0
H12A H12A -0.01 -0.802 -0.65 0.0
C13 C13 -0.07 -0.783 -0.72 0.0
H13A H13A -0.07 -0.881 -0.74 0.0
C14 C14 0.073 -0.35 -0.55 0.0
H14A H14A 0.083 -0.255 -0.56 0.0
C15 C15 0.031 -0.394 -0.6 0.0
H15A H15A 0.013 -0.33 -0.64 0.0
C16 C16 0.014 -0.536 -0.6 0.0
C17 C17 0.041 -0.626 -0.54 0.0
H17A H17A 0.031 -0.721 -0.54 0.0
C18 C18 0.084 -0.574 -0.5 0.0
H18A H18A 0.101 -0.636 -0.464 0.0
O2W O2W -0.03 -0.131 -0.7 0.0
H2WA H2WA -0.06 -0.097 -0.73 0.0
H2WB H2WB -0.01 -0.073 -0.7 0.0
O3W O3W -0.04 -0.05 -0.54 0.0
H3WA H3WA -0.05 0.02 -0.54 0.0
H3WB H3WB -0.03 -0.048 -0.59 0.0
Zn1 Zn1 0.67 -0.29700000000000004 0.34 0.0
Zn2 Zn2 0.67 0.10699999999999998 0.54 0.0
O1 O1 0.73 -0.15700000000000003 0.3 0.0
O1W O1W 0.62 -0.44199999999999995 0.38 0.0
H1WA H1WA 0.62 -0.52 0.36 0.0
H1WB H1WB 0.65 -0.41100000000000003 0.39 0.0
O2 O2 0.67 -0.133 0.42 0.0
O3 O3 0.7 0.08600000000000002 0.45 0.0
O4 O4 0.8 0.21700000000000003 0.4 0.0
O5 O5 0.86 0.08900000000000002 0.46 0.0
O6 O6 0.81 0.067 0.25 0.0
O7 O7 0.86 -0.123 0.22 0.0
O8 O8 0.81 -0.44399999999999995 0.37 0.0
O9 O9 0.74 -0.394 0.39 0.0
N1 N1 0.61 -0.19499999999999995 0.26 0.0
N2 N2 0.4 0.062 0.0 0.0
C1 C1 0.74 -0.03200000000000003 0.35 0.0
H1A H1A 0.73 0.055999999999999994 0.32 0.0
C2 C2 0.79 -0.04200000000000004 0.39 0.0
H2A H2A 0.79 -0.09899999999999998 0.44 0.0
C3 C3 0.8200000000000001 -0.136 0.33 0.0
H3A H3A 0.8400000000000001 -0.18799999999999994 0.36 0.0
C4 C4 0.77 -0.24 0.31 0.0
H4A H4A 0.78 -0.273 0.25 0.0
C5 C5 0.7 -0.029000000000000026 0.41 0.0
C6 C6 0.8200000000000001 0.09899999999999998 0.42 0.0
C7 C7 0.8300000000000001 -0.05600000000000005 0.26 0.0
C8 C8 0.77 -0.371 0.36 0.0
C9 C9 0.6 -0.05600000000000005 0.24 0.0
H9A H9A 0.63 0.007000000000000006 0.27 0.0
C10 C10 0.56 0.0 0.19 0.0
H10A H10A 0.56 0.09899999999999998 0.18 0.0
C11 C11 0.52 -0.08999999999999997 0.15 0.0
C12 C12 0.53 -0.236 0.17 0.0
H12A H12A 0.51 -0.30200000000000005 0.15 0.0
C13 C13 0.5700000000000001 -0.28300000000000003 0.22 0.0
H13A H13A 0.5700000000000001 -0.381 0.24 0.0
C14 C14 0.427 0.15000000000000002 0.05 0.0
H14A H14A 0.417 0.245 0.06 0.0
C15 C15 0.469 0.10599999999999998 0.1 0.0
H15A H15A 0.487 0.16999999999999998 0.14 0.0
C16 C16 0.486 -0.03600000000000003 0.1 0.0
C17 C17 0.459 -0.126 0.04 0.0
H17A H17A 0.469 -0.22099999999999997 0.04 0.0
C18 C18 0.416 -0.07399999999999995 0.0 0.0
H18A H18A 0.399 -0.136 -0.036 0.0
O2W O2W 0.53 0.369 0.2 0.0
H2WA H2WA 0.56 0.403 0.23 0.0
H2WB H2WB 0.51 0.427 0.2 0.0
O3W O3W 0.54 0.45 0.04 0.0
H3WA H3WA 0.55 0.52 0.04 0.0
H3WB H3WB 0.53 0.452 0.09 0.0
Zn1 Zn1 0.32999999999999996 -0.29700000000000004 -0.8400000000000001 0.0
Zn2 Zn2 0.32999999999999996 0.10699999999999998 -1.04 0.0
O1 O1 0.27 -0.15700000000000003 -0.8 0.0
O1W O1W 0.38 -0.44199999999999995 -0.88 0.0
H1WA H1WA 0.38 -0.52 -0.86 0.0
H1WB H1WB 0.35 -0.41100000000000003 -0.89 0.0
O2 O2 0.32999999999999996 -0.133 -0.9199999999999999 0.0
O3 O3 0.3 0.08600000000000002 -0.95 0.0
O4 O4 0.2 0.21700000000000003 -0.9 0.0
O5 O5 0.14 0.08900000000000002 -0.96 0.0
O6 O6 0.19 0.067 -0.75 0.0
O7 O7 0.14 -0.123 -0.72 0.0
O8 O8 0.19 -0.44399999999999995 -0.87 0.0
O9 O9 0.26 -0.394 -0.89 0.0
N1 N1 0.39 -0.19499999999999995 -0.76 0.0
N2 N2 0.6 0.062 -0.5 0.0
C1 C1 0.26 -0.03200000000000003 -0.85 0.0
H1A H1A 0.27 0.055999999999999994 -0.8200000000000001 0.0
C2 C2 0.21000000000000002 -0.04200000000000004 -0.89 0.0
H2A H2A 0.21000000000000002 -0.09899999999999998 -0.94 0.0
C3 C3 0.18 -0.136 -0.8300000000000001 0.0
H3A H3A 0.15999999999999998 -0.18799999999999994 -0.86 0.0
C4 C4 0.22999999999999998 -0.24 -0.81 0.0
H4A H4A 0.21999999999999997 -0.273 -0.75 0.0
C5 C5 0.3 -0.029000000000000026 -0.9099999999999999 0.0
C6 C6 0.18 0.09899999999999998 -0.9199999999999999 0.0
C7 C7 0.16999999999999998 -0.05600000000000005 -0.76 0.0
C8 C8 0.22999999999999998 -0.371 -0.86 0.0
C9 C9 0.4 -0.05600000000000005 -0.74 0.0
H9A H9A 0.37 0.007000000000000006 -0.77 0.0
C10 C10 0.44 0.0 -0.69 0.0
H10A H10A 0.44 0.09899999999999998 -0.6799999999999999 0.0
C11 C11 0.48 -0.08999999999999997 -0.65 0.0
C12 C12 0.47 -0.236 -0.67 0.0
H12A H12A 0.49 -0.30200000000000005 -0.65 0.0
C13 C13 0.43 -0.28300000000000003 -0.72 0.0
H13A H13A 0.43 -0.381 -0.74 0.0
C14 C14 0.573 0.15000000000000002 -0.55 0.0
H14A H14A 0.583 0.245 -0.56 0.0
C15 C15 0.531 0.10599999999999998 -0.6 0.0
H15A H15A 0.513 0.16999999999999998 -0.64 0.0
C16 C16 0.514 -0.03600000000000003 -0.6 0.0
C17 C17 0.541 -0.126 -0.54 0.0
H17A H17A 0.531 -0.22099999999999997 -0.54 0.0
C18 C18 0.584 -0.07399999999999995 -0.5 0.0
H18A H18A 0.601 -0.136 -0.464 0.0
O2W O2W 0.47 0.369 -0.7 0.0
H2WA H2WA 0.44 0.403 -0.73 0.0
H2WB H2WB 0.49 0.427 -0.7 0.0
O3W O3W 0.46 0.45 -0.54 0.0
H3WA H3WA 0.45 0.52 -0.54 0.0
H3WB H3WB 0.47 0.452 -0.59 0.0
_cell_length_a 27.1013
_cell_length_b 9.27321
_cell_length_c 16.9792
_cell_angle_alpha 90.0
_cell_angle_beta 99.1565
_cell_angle_gamma 90.0
_symmetry_space_group_name_H-M         'P 1'
_symmetry_Int_Tables_number            1
loop_
_symmetry_equiv_pos_as_xyz
   'x, y, z'
                         
loop_
_atom_site_label
_atom_site_type_symbol
_atom_site_fract_x 
_atom_site_fract_y
_atom_site_fract_z
_atom_site_charge
Zn1 Zn1 -0.17 0.797 -0.34 0.0
Zn2 Zn2 -0.17 0.393 -0.54 0.0
O1 O1 -0.23 0.657 -0.3 0.0
O1W O1W -0.12 0.942 -0.38 0.0
H1WA H1WA -0.12 1.02 -0.36 0.0
H1WB H1WB -0.15 0.911 -0.39 0.0
O2 O2 -0.17 0.633 -0.42 0.0
O3 O3 -0.2 0.414 -0.45 0.0
O4 O4 -0.3 0.283 -0.4 0.0
O5 O5 -0.36 0.411 -0.46 0.0
O6 O6 -0.31 0.433 -0.25 0.0
O7 O7 -0.36 0.623 -0.22 0.0
O8 O8 -0.31 0.944 -0.37 0.0
O9 O9 -0.24 0.894 -0.39 0.0
N1 N1 -0.11 0.695 -0.26 0.0
N2 N2 0.1 0.438 -0.0 0.0
C1 C1 -0.24 0.532 -0.35 0.0
H1A H1A -0.23 0.444 -0.32 0.0
C2 C2 -0.29 0.542 -0.39 0.0
H2A H2A -0.29 0.599 -0.44 0.0
C3 C3 -0.32 0.636 -0.33 0.0
H3A H3A -0.34 0.688 -0.36 0.0
C4 C4 -0.27 0.74 -0.31 0.0
H4A H4A -0.28 0.773 -0.25 0.0
C5 C5 -0.2 0.529 -0.41 0.0
C6 C6 -0.32 0.401 -0.42 0.0
C7 C7 -0.33 0.556 -0.26 0.0
C8 C8 -0.27 0.871 -0.36 0.0
C9 C9 -0.1 0.556 -0.24 0.0
H9A H9A -0.13 0.493 -0.27 0.0
C10 C10 -0.06 0.5 -0.19 0.0
H10A H10A -0.06 0.401 -0.18 0.0
C11 C11 -0.02 0.59 -0.15 0.0
C12 C12 -0.03 0.736 -0.17 0.0
H12A H12A -0.01 0.802 -0.15 0.0
C13 C13 -0.07 0.783 -0.22 0.0
H13A H13A -0.07 0.881 -0.24 0.0
C14 C14 0.073 0.35 -0.05 0.0
H14A H14A 0.083 0.255 -0.06 0.0
C15 C15 0.031 0.394 -0.1 0.0
H15A H15A 0.013 0.33 -0.14 0.0
C16 C16 0.014 0.536 -0.1 0.0
C17 C17 0.041 0.626 -0.04 0.0
H17A H17A 0.031 0.721 -0.04 0.0
C18 C18 0.084 0.574 -0.0 0.0
H18A H18A 0.101 0.636 0.036 0.0
O2W O2W -0.03 0.131 -0.2 0.0
H2WA H2WA -0.06 0.097 -0.23 0.0
H2WB H2WB -0.01 0.073 -0.2 0.0
O3W O3W -0.04 0.05 -0.04 0.0
H3WA H3WA -0.05 -0.02 -0.04 0.0
H3WB H3WB -0.03 0.048 -0.09 0.0
Zn1 Zn1 0.17 0.797 0.8400000000000001 0.0
Zn2 Zn2 0.17 0.393 1.04 0.0
O1 O1 0.23 0.657 0.8 0.0
O1W O1W 0.12 0.942 0.88 0.0
H1WA H1WA 0.12 1.02 0.86 0.0
H1WB H1WB 0.15 0.911 0.89 0.0
O2 O2 0.17 0.633 0.9199999999999999 0.0
O3 O3 0.2 0.414 0.95 0.0
O4 O4 0.3 0.283 0.9 0.0
O5 O5 0.36 0.411 0.96 0.0
O6 O6 0.31 0.433 0.75 0.0
O7 O7 0.36 0.623 0.72 0.0
O8 O8 0.31 0.944 0.87 0.0
O9 O9 0.24 0.894 0.89 0.0
N1 N1 0.11 0.695 0.76 0.0
N2 N2 -0.1 0.438 0.5 0.0
C1 C1 0.24 0.532 0.85 0.0
H1A H1A 0.23 0.444 0.8200000000000001 0.0
C2 C2 0.29 0.542 0.89 0.0
H2A H2A 0.29 0.599 0.94 0.0
C3 C3 0.32 0.636 0.8300000000000001 0.0
H3A H3A 0.34 0.688 0.86 0.0
C4 C4 0.27 0.74 0.81 0.0
H4A H4A 0.28 0.773 0.75 0.0
C5 C5 0.2 0.529 0.9099999999999999 0.0
C6 C6 0.32 0.401 0.9199999999999999 0.0
C7 C7 0.33 0.556 0.76 0.0
C8 C8 0.27 0.871 0.86 0.0
C9 C9 0.1 0.556 0.74 0.0
H9A H9A 0.13 0.493 0.77 0.0
C10 C10 0.06 0.5 0.69 0.0
H10A H10A 0.06 0.401 0.6799999999999999 0.0
C11 C11 0.02 0.59 0.65 0.0
C12 C12 0.03 0.736 0.67 0.0
H12A H12A 0.01 0.802 0.65 0.0
C13 C13 0.07 0.783 0.72 0.0
H13A H13A 0.07 0.881 0.74 0.0
C14 C14 -0.073 0.35 0.55 0.0
H14A H14A -0.083 0.255 0.56 0.0
C15 C15 -0.031 0.394 0.6 0.0
H15A H15A -0.013 0.33 0.64 0.0
C16 C16 -0.014 0.536 0.6 0.0
C17 C17 -0.041 0.626 0.54 0.0
H17A H17A -0.031 0.721 0.54 0.0
C18 C18 -0.084 0.574 0.5 0.0
H18A H18A -0.101 0.636 0.464 0.0
O2W O2W 0.03 0.131 0.7 0.0
H2WA H2WA 0.06 0.097 0.73 0.0
H2WB H2WB 0.01 0.073 0.7 0.0
O3W O3W 0.04 0.05 0.54 0.0
H3WA H3WA 0.05 -0.02 0.54 0.0
H3WB H3WB 0.03 0.048 0.59 0.0
Zn1 Zn1 0.32999999999999996 1.2970000000000002 -0.34 0.0
Zn2 Zn2 0.32999999999999996 0.893 -0.54 0.0
O1 O1 0.27 1.157 -0.3 0.0
O1W O1W 0.38 1.442 -0.38 0.0
H1WA H1WA 0.38 1.52 -0.36 0.0
H1WB H1WB 0.35 1.411 -0.39 0.0
O2 O2 0.32999999999999996 1.133 -0.42 0.0
O3 O3 0.3 0.9139999999999999 -0.45 0.0
O4 O4 0.2 0.7829999999999999 -0.4 0.0
O5 O5 0.14 0.911 -0.46 0.0
O6 O6 0.19 0.933 -0.25 0.0
O7 O7 0.14 1.123 -0.22 0.0
O8 O8 0.19 1.444 -0.37 0.0
O9 O9 0.26 1.3940000000000001 -0.39 0.0
N1 N1 0.39 1.1949999999999998 -0.26 0.0
N2 N2 0.6 0.938 -0.0 0.0
C1 C1 0.26 1.032 -0.35 0.0
H1A H1A 0.27 0.944 -0.32 0.0
C2 C2 0.21000000000000002 1.042 -0.39 0.0
H2A H2A 0.21000000000000002 1.099 -0.44 0.0
C3 C3 0.18 1.1360000000000001 -0.33 0.0
H3A H3A 0.15999999999999998 1.188 -0.36 0.0
C4 C4 0.22999999999999998 1.24 -0.31 0.0
H4A H4A 0.21999999999999997 1.2730000000000001 -0.25 0.0
C5 C5 0.3 1.029 -0.41 0.0
C6 C6 0.18 0.901 -0.42 0.0
C7 C7 0.16999999999999998 1.056 -0.26 0.0
C8 C8 0.22999999999999998 1.371 -0.36 0.0
C9 C9 0.4 1.056 -0.24 0.0
H9A H9A 0.37 0.993 -0.27 0.0
C10 C10 0.44 1.0 -0.19 0.0
H10A H10A 0.44 0.901 -0.18 0.0
C11 C11 0.48 1.0899999999999999 -0.15 0.0
C12 C12 0.47 1.236 -0.17 0.0
H12A H12A 0.49 1.302 -0.15 0.0
C13 C13 0.43 1.283 -0.22 0.0
H13A H13A 0.43 1.381 -0.24 0.0
C14 C14 0.573 0.85 -0.05 0.0
H14A H14A 0.583 0.755 -0.06 0.0
C15 C15 0.531 0.894 -0.1 0.0
H15A H15A 0.513 0.8300000000000001 -0.14 0.0
C16 C16 0.514 1.036 -0.1 0.0
C17 C17 0.541 1.126 -0.04 0.0
H17A H17A 0.531 1.221 -0.04 0.0
C18 C18 0.584 1.0739999999999998 -0.0 0.0
H18A H18A 0.601 1.1360000000000001 0.036 0.0
O2W O2W 0.47 0.631 -0.2 0.0
H2WA H2WA 0.44 0.597 -0.23 0.0
H2WB H2WB 0.49 0.573 -0.2 0.0
O3W O3W 0.46 0.55 -0.04 0.0
H3WA H3WA 0.45 0.48 -0.04 0.0
H3WB H3WB 0.47 0.548 -0.09 0.0
Zn1 Zn1 0.67 1.2970000000000002 0.8400000000000001 0.0
Zn2 Zn2 0.67 0.893 1.04 0.0
O1 O1 0.73 1.157 0.8 0.0
O1W O1W 0.62 1.442 0.88 0.0
H1WA H1WA 0.62 1.52 0.86 0.0
H1WB H1WB 0.65 1.411 0.89 0.0
O2 O2 0.67 1.133 0.9199999999999999 0.0
O3 O3 0.7 0.9139999999999999 0.95 0.0
O4 O4 0.8 0.7829999999999999 0.9 0.0
O5 O5 0.86 0.911 0.96 0.0
O6 O6 0.81 0.933 0.75 0.0
O7 O7 0.86 1.123 0.72 0.0
O8 O8 0.81 1.444 0.87 0.0
O9 O9 0.74 1.3940000000000001 0.89 0.0
N1 N1 0.61 1.1949999999999998 0.76 0.0
N2 N2 0.4 0.938 0.5 0.0
C1 C1 0.74 1.032 0.85 0.0
H1A H1A 0.73 0.944 0.8200000000000001 0.0
C2 C2 0.79 1.042 0.89 0.0
H2A H2A 0.79 1.099 0.94 0.0
C3 C3 0.8200000000000001 1.1360000000000001 0.8300000000000001 0.0
H3A H3A 0.8400000000000001 1.188 0.86 0.0
C4 C4 0.77 1.24 0.81 0.0
H4A H4A 0.78 1.2730000000000001 0.75 0.0
C5 C5 0.7 1.029 0.9099999999999999 0.0
C6 C6 0.8200000000000001 0.901 0.9199999999999999 0.0
C7 C7 0.8300000000000001 1.056 0.76 0.0
C8 C8 0.77 1.371 0.86 0.0
C9 C9 0.6 1.056 0.74 0.0
H9A H9A 0.63 0.993 0.77 0.0
C10 C10 0.56 1.0 0.69 0.0
H10A H10A 0.56 0.901 0.6799999999999999 0.0
C11 C11 0.52 1.0899999999999999 0.65 0.0
C12 C12 0.53 1.236 0.67 0.0
H12A H12A 0.51 1.302 0.65 0.0
C13 C13 0.5700000000000001 1.283 0.72 0.0
H13A H13A 0.5700000000000001 1.381 0.74 0.0
C14 C14 0.427 0.85 0.55 0.0
H14A H14A 0.417 0.755 0.56 0.0
C15 C15 0.469 0.894 0.6 0.0
H15A H15A 0.487 0.8300000000000001 0.64 0.0
C16 C16 0.486 1.036 0.6 0.0
C17 C17 0.459 1.126 0.54 0.0
H17A H17A 0.469 1.221 0.54 0.0
C18 C18 0.416 1.0739999999999998 0.5 0.0
H18A H18A 0.399 1.1360000000000001 0.464 0.0
O2W O2W 0.53 0.631 0.7 0.0
H2WA H2WA 0.56 0.597 0.73 0.0
H2WB H2WB 0.51 0.573 0.7 0.0
O3W O3W 0.54 0.55 0.54 0.0
H3WA H3WA 0.55 0.48 0.54 0.0
H3WB H3WB 0.53 0.548 0.59 0.0
Zn1 Zn1 0.17 -0.797 0.34 0.0
Zn2 Zn2 0.17 -0.393 0.54 0.0
O1 O1 0.23 -0.657 0.3 0.0
O1W O1W 0.12 -0.942 0.38 0.0
H1WA H1WA 0.12 -1.02 0.36 0.0
H1WB H1WB 0.15 -0.911 0.39 0.0
O2 O2 0.17 -0.633 0.42 0.0
O3 O3 0.2 -0.414 0.45 0.0
O4 O4 0.3 -0.283 0.4 0.0
O5 O5 0.36 -0.411 0.46 0.0
O6 O6 0.31 -0.433 0.25 0.0
O7 O7 0.36 -0.623 0.22 0.0
O8 O8 0.31 -0.944 0.37 0.0
O9 O9 0.24 -0.894 0.39 0.0
N1 N1 0.11 -0.695 0.26 0.0
N2 N2 -0.1 -0.438 0.0 0.0
C1 C1 0.24 -0.532 0.35 0.0
H1A H1A 0.23 -0.444 0.32 0.0
C2 C2 0.29 -0.542 0.39 0.0
H2A H2A 0.29 -0.599 0.44 0.0
C3 C3 0.32 -0.636 0.33 0.0
H3A H3A 0.34 -0.688 0.36 0.0
C4 C4 0.27 -0.74 0.31 0.0
H4A H4A 0.28 -0.773 0.25 0.0
C5 C5 0.2 -0.529 0.41 0.0
C6 C6 0.32 -0.401 0.42 0.0
C7 C7 0.33 -0.556 0.26 0.0
C8 C8 0.27 -0.871 0.36 0.0
C9 C9 0.1 -0.556 0.24 0.0
H9A H9A 0.13 -0.493 0.27 0.0
C10 C10 0.06 -0.5 0.19 0.0
H10A H10A 0.06 -0.401 0.18 0.0
C11 C11 0.02 -0.59 0.15 0.0
C12 C12 0.03 -0.736 0.17 0.0
H12A H12A 0.01 -0.802 0.15 0.0
C13 C13 0.07 -0.783 0.22 0.0
H13A H13A 0.07 -0.881 0.24 0.0
C14 C14 -0.073 -0.35 0.05 0.0
H14A H14A -0.083 -0.255 0.06 0.0
C15 C15 -0.031 -0.394 0.1 0.0
H15A H15A -0.013 -0.33 0.14 0.0
C16 C16 -0.014 -0.536 0.1 0.0
C17 C17 -0.041 -0.626 0.04 0.0
H17A H17A -0.031 -0.721 0.04 0.0
C18 C18 -0.084 -0.574 0.0 0.0
H18A H18A -0.101 -0.636 -0.036 0.0
O2W O2W 0.03 -0.131 0.2 0.0
H2WA H2WA 0.06 -0.097 0.23 0.0
H2WB H2WB 0.01 -0.073 0.2 0.0
O3W O3W 0.04 -0.05 0.04 0.0
H3WA H3WA 0.05 0.02 0.04 0.0
H3WB H3WB 0.03 -0.048 0.09 0.0
Zn1 Zn1 -0.17 -0.797 -0.8400000000000001 0.0
Zn2 Zn2 -0.17 -0.393 -1.04 0.0
O1 O1 -0.23 -0.657 -0.8 0.0
O1W O1W -0.12 -0.942 -0.88 0.0
H1WA H1WA -0.12 -1.02 -0.86 0.0
H1WB H1WB -0.15 -0.911 -0.89 0.0
O2 O2 -0.17 -0.633 -0.9199999999999999 0.0
O3 O3 -0.2 -0.414 -0.95 0.0
O4 O4 -0.3 -0.283 -0.9 0.0
O5 O5 -0.36 -0.411 -0.96 0.0
O6 O6 -0.31 -0.433 -0.75 0.0
O7 O7 -0.36 -0.623 -0.72 0.0
O8 O8 -0.31 -0.944 -0.87 0.0
O9 O9 -0.24 -0.894 -0.89 0.0
N1 N1 -0.11 -0.695 -0.76 0.0
N2 N2 0.1 -0.438 -0.5 0.0
C1 C1 -0.24 -0.532 -0.85 0.0
H1A H1A -0.23 -0.444 -0.8200000000000001 0.0
C2 C2 -0.29 -0.542 -0.89 0.0
H2A H2A -0.29 -0.599 -0.94 0.0
C3 C3 -0.32 -0.636 -0.8300000000000001 0.0
H3A H3A -0.34 -0.688 -0.86 0.0
C4 C4 -0.27 -0.74 -0.81 0.0
H4A H4A -0.28 -0.773 -0.75 0.0
C5 C5 -0.2 -0.529 -0.9099999999999999 0.0
C6 C6 -0.32 -0.401 -0.9199999999999999 0.0
C7 C7 -0.33 -0.556 -0.76 0.0
C8 C8 -0.27 -0.871 -0.86 0.0
C9 C9 -0.1 -0.556 -0.74 0.0
H9A H9A -0.13 -0.493 -0.77 0.0
C10 C10 -0.06 -0.5 -0.69 0.0
H10A H10A -0.06 -0.401 -0.6799999999999999 0.0
C11 C11 -0.02 -0.59 -0.65 0.0
C12 C12 -0.03 -0.736 -0.67 0.0
H12A H12A -0.01 -0.802 -0.65 0.0
C13 C13 -0.07 -0.783 -0.72 0.0
H13A H13A -0.07 -0.881 -0.74 0.0
C14 C14 0.073 -0.35 -0.55 0.0
H14A H14A 0.083 -0.255 -0.56 0.0
C15 C15 0.031 -0.394 -0.6 0.0
H15A H15A 0.013 -0.33 -0.64 0.0
C16 C16 0.014 -0.536 -0.6 0.0
C17 C17 0.041 -0.626 -0.54 0.0
H17A H17A 0.031 -0.721 -0.54 0.0
C18 C18 0.084 -0.574 -0.5 0.0
H18A H18A 0.101 -0.636 -0.464 0.0
O2W O2W -0.03 -0.131 -0.7 0.0
H2WA H2WA -0.06 -0.097 -0.73 0.0
H2WB H2WB -0.01 -0.073 -0.7 0.0
O3W O3W -0.04 -0.05 -0.54 0.0
H3WA H3WA -0.05 0.02 -0.54 0.0
H3WB H3WB -0.03 -0.048 -0.59 0.0
Zn1 Zn1 0.67 -0.29700000000000004 0.34 0.0
Zn2 Zn2 0.67 0.10699999999999998 0.54 0.0
O1 O1 0.73 -0.15700000000000003 0.3 0.0
O1W O1W 0.62 -0.44199999999999995 0.38 0.0
H1WA H1WA 0.62 -0.52 0.36 0.0
H1WB H1WB 0.65 -0.41100000000000003 0.39 0.0
O2 O2 0.67 -0.133 0.42 0.0
O3 O3 0.7 0.08600000000000002 0.45 0.0
O4 O4 0.8 0.21700000000000003 0.4 0.0
O5 O5 0.86 0.08900000000000002 0.46 0.0
O6 O6 0.81 0.067 0.25 0.0
O7 O7 0.86 -0.123 0.22 0.0
O8 O8 0.81 -0.44399999999999995 0.37 0.0
O9 O9 0.74 -0.394 0.39 0.0
N1 N1 0.61 -0.19499999999999995 0.26 0.0
N2 N2 0.4 0.062 0.0 0.0
C1 C1 0.74 -0.03200000000000003 0.35 0.0
H1A H1A 0.73 0.055999999999999994 0.32 0.0
C2 C2 0.79 -0.04200000000000004 0.39 0.0
H2A H2A 0.79 -0.09899999999999998 0.44 0.0
C3 C3 0.8200000000000001 -0.136 0.33 0.0
H3A H3A 0.8400000000000001 -0.18799999999999994 0.36 0.0
C4 C4 0.77 -0.24 0.31 0.0
H4A H4A 0.78 -0.273 0.25 0.0
C5 C5 0.7 -0.029000000000000026 0.41 0.0
C6 C6 0.8200000000000001 0.09899999999999998 0.42 0.0
C7 C7 0.8300000000000001 -0.05600000000000005 0.26 0.0
C8 C8 0.77 -0.371 0.36 0.0
C9 C9 0.6 -0.05600000000000005 0.24 0.0
H9A H9A 0.63 0.007000000000000006 0.27 0.0
C10 C10 0.56 0.0 0.19 0.0
H10A H10A 0.56 0.09899999999999998 0.18 0.0
C11 C11 0.52 -0.08999999999999997 0.15 0.0
C12 C12 0.53 -0.236 0.17 0.0
H12A H12A 0.51 -0.30200000000000005 0.15 0.0
C13 C13 0.5700000000000001 -0.28300000000000003 0.22 0.0
H13A H13A 0.5700000000000001 -0.381 0.24 0.0
C14 C14 0.427 0.15000000000000002 0.05 0.0
H14A H14A 0.417 0.245 0.06 0.0
C15 C15 0.469 0.10599999999999998 0.1 0.0
H15A H15A 0.487 0.16999999999999998 0.14 0.0
C16 C16 0.486 -0.03600000000000003 0.1 0.0
C17 C17 0.459 -0.126 0.04 0.0
H17A H17A 0.469 -0.22099999999999997 0.04 0.0
C18 C18 0.416 -0.07399999999999995 0.0 0.0
H18A H18A 0.399 -0.136 -0.036 0.0
O2W O2W 0.53 0.369 0.2 0.0
H2WA H2WA 0.56 0.403 0.23 0.0
H2WB H2WB 0.51 0.427 0.2 0.0
O3W O3W 0.54 0.45 0.04 0.0
H3WA H3WA 0.55 0.52 0.04 0.0
H3WB H3WB 0.53 0.452 0.09 0.0
Zn1 Zn1 0.32999999999999996 -0.29700000000000004 -0.8400000000000001 0.0
Zn2 Zn2 0.32999999999999996 0.10699999999999998 -1.04 0.0
O1 O1 0.27 -0.15700000000000003 -0.8 0.0
O1W O1W 0.38 -0.44199999999999995 -0.88 0.0
H1WA H1WA 0.38 -0.52 -0.86 0.0
H1WB H1WB 0.35 -0.41100000000000003 -0.89 0.0
O2 O2 0.32999999999999996 -0.133 -0.9199999999999999 0.0
O3 O3 0.3 0.08600000000000002 -0.95 0.0
O4 O4 0.2 0.21700000000000003 -0.9 0.0
O5 O5 0.14 0.08900000000000002 -0.96 0.0
O6 O6 0.19 0.067 -0.75 0.0
O7 O7 0.14 -0.123 -0.72 0.0
O8 O8 0.19 -0.44399999999999995 -0.87 0.0
O9 O9 0.26 -0.394 -0.89 0.0
N1 N1 0.39 -0.19499999999999995 -0.76 0.0
N2 N2 0.6 0.062 -0.5 0.0
C1 C1 0.26 -0.03200000000000003 -0.85 0.0
H1A H1A 0.27 0.055999999999999994 -0.8200000000000001 0.0
C2 C2 0.21000000000000002 -0.04200000000000004 -0.89 0.0
H2A H2A 0.21000000000000002 -0.09899999999999998 -0.94 0.0
C3 C3 0.18 -0.136 -0.8300000000000001 0.0
H3A H3A 0.15999999999999998 -0.18799999999999994 -0.86 0.0
C4 C4 0.22999999999999998 -0.24 -0.81 0.0
H4A H4A 0.21999999999999997 -0.273 -0.75 0.0
C5 C5 0.3 -0.029000000000000026 -0.9099999999999999 0.0
C6 C6 0.18 0.09899999999999998 -0.9199999999999999 0.0
C7 C7 0.16999999999999998 -0.05600000000000005 -0.76 0.0
C8 C8 0.22999999999999998 -0.371 -0.86 0.0
C9 C9 0.4 -0.05600000000000005 -0.74 0.0
H9A H9A 0.37 0.007000000000000006 -0.77 0.0
C10 C10 0.44 0.0 -0.69 0.0
H10A H10A 0.44 0.09899999999999998 -0.6799999999999999 0.0
C11 C11 0.48 -0.08999999999999997 -0.65 0.0
C12 C12 0.47 -0.236 -0.67 0.0
H12A H12A 0.49 -0.30200000000000005 -0.65 0.0
C13 C13 0.43 -0.28300000000000003 -0.72 0.0
H13A H13A 0.43 -0.381 -0.74 0.0
C14 C14 0.573 0.15000000000000002 -0.55 0.0
H14A H14A 0.583 0.245 -0.56 0.0
C15 C15 0.531 0.10599999999999998 -0.6 0.0
H15A H15A 0.513 0.16999999999999998 -0.64 0.0
C16 C16 0.514 -0.03600000000000003 -0.6 0.0
C17 C17 0.541 -0.126 -0.54 0.0
H17A H17A 0.531 -0.22099999999999997 -0.54 0.0
C18 C18 0.584 -0.07399999999999995 -0.5 0.0
H18A H18A 0.601 -0.136 -0.464 0.0
O2W O2W 0.47 0.369 -0.7 0.0
H2WA H2WA 0.44 0.403 -0.73 0.0
H2WB H2WB 0.49 0.427 -0.7 0.0
O3W O3W 0.46 0.45 -0.54 0.0
H3WA H3WA 0.45 0.52 -0.54 0.0
H3WB H3WB 0.47 0.452 -0.59 0.0
_cell_length_a 27.1013
_cell_length_b 9.27321
_cell_length_c 16.9792
_cell_angle_alpha 90.0
_cell_angle_beta 99.1565
_cell_angle_gamma 90.0
_symmetry_space_group_name_H-M         'P 1'
_symmetry_Int_Tables_number            1
loop_
_symmetry_equiv_pos_as_xyz
   'x, y, z'
                         
loop_
_atom_site_label
_atom_site_type_symbol
_atom_site_fract_x 
_atom_site_fract_y
_atom_site_fract_z
_atom_site_charge
Zn1 Zn1 -0.17 0.797 -0.34 0.0
Zn2 Zn2 -0.17 0.393 -0.54 0.0
O1 O1 -0.23 0.657 -0.3 0.0
O2 O2 -0.17 0.633 -0.42 0.0
O3 O3 -0.2 0.414 -0.45 0.0
O4 O4 -0.3 0.283 -0.4 0.0
O5 O5 -0.36 0.411 -0.46 0.0
O6 O6 -0.31 0.433 -0.25 0.0
O7 O7 -0.36 0.623 -0.22 0.0
O8 O8 -0.31 0.944 -0.37 0.0
O9 O9 -0.24 0.894 -0.39 0.0
N1 N1 -0.11 0.695 -0.26 0.0
N2 N2 0.1 0.438 -0.0 0.0
C1 C1 -0.24 0.532 -0.35 0.0
H1A H1A -0.23 0.444 -0.32 0.0
C2 C2 -0.29 0.542 -0.39 0.0
H2A H2A -0.29 0.599 -0.44 0.0
C3 C3 -0.32 0.636 -0.33 0.0
H3A H3A -0.34 0.688 -0.36 0.0
C4 C4 -0.27 0.74 -0.31 0.0
H4A H4A -0.28 0.773 -0.25 0.0
C5 C5 -0.2 0.529 -0.41 0.0
C6 C6 -0.32 0.401 -0.42 0.0
C7 C7 -0.33 0.556 -0.26 0.0
C8 C8 -0.27 0.871 -0.36 0.0
C9 C9 -0.1 0.556 -0.24 0.0
H9A H9A -0.13 0.493 -0.27 0.0
C10 C10 -0.06 0.5 -0.19 0.0
H10A H10A -0.06 0.401 -0.18 0.0
C11 C11 -0.02 0.59 -0.15 0.0
C12 C12 -0.03 0.736 -0.17 0.0
H12A H12A -0.01 0.802 -0.15 0.0
C13 C13 -0.07 0.783 -0.22 0.0
H13A H13A -0.07 0.881 -0.24 0.0
C14 C14 0.073 0.35 -0.05 0.0
H14A H14A 0.083 0.255 -0.06 0.0
C15 C15 0.031 0.394 -0.1 0.0
H15A H15A 0.013 0.33 -0.14 0.0
C16 C16 0.014 0.536 -0.1 0.0
C17 C17 0.041 0.626 -0.04 0.0
H17A H17A 0.031 0.721 -0.04 0.0
C18 C18 0.084 0.574 -0.0 0.0
H18A H18A 0.101 0.636 0.036 0.0
Zn1 Zn1 0.17 0.797 0.8400000000000001 0.0
Zn2 Zn2 0.17 0.393 1.04 0.0
O1 O1 0.23 0.657 0.8 0.0
O2 O2 0.17 0.633 0.9199999999999999 0.0
O3 O3 0.2 0.414 0.95 0.0
O4 O4 0.3 0.283 0.9 0.0
O5 O5 0.36 0.411 0.96 0.0
O6 O6 0.31 0.433 0.75 0.0
O7 O7 0.36 0.623 0.72 0.0
O8 O8 0.31 0.944 0.87 0.0
O9 O9 0.24 0.894 0.89 0.0
N1 N1 0.11 0.695 0.76 0.0
N2 N2 -0.1 0.438 0.5 0.0
C1 C1 0.24 0.532 0.85 0.0
H1A H1A 0.23 0.444 0.8200000000000001 0.0
C2 C2 0.29 0.542 0.89 0.0
H2A H2A 0.29 0.599 0.94 0.0
C3 C3 0.32 0.636 0.8300000000000001 0.0
H3A H3A 0.34 0.688 0.86 0.0
C4 C4 0.27 0.74 0.81 0.0
H4A H4A 0.28 0.773 0.75 0.0
C5 C5 0.2 0.529 0.9099999999999999 0.0
C6 C6 0.32 0.401 0.9199999999999999 0.0
C7 C7 0.33 0.556 0.76 0.0
C8 C8 0.27 0.871 0.86 0.0
C9 C9 0.1 0.556 0.74 0.0
H9A H9A 0.13 0.493 0.77 0.0
C10 C10 0.06 0.5 0.69 0.0
H10A H10A 0.06 0.401 0.6799999999999999 0.0
C11 C11 0.02 0.59 0.65 0.0
C12 C12 0.03 0.736 0.67 0.0
H12A H12A 0.01 0.802 0.65 0.0
C13 C13 0.07 0.783 0.72 0.0
H13A H13A 0.07 0.881 0.74 0.0
C14 C14 -0.073 0.35 0.55 0.0
H14A H14A -0.083 0.255 0.56 0.0
C15 C15 -0.031 0.394 0.6 0.0
H15A H15A -0.013 0.33 0.64 0.0
C16 C16 -0.014 0.536 0.6 0.0
C17 C17 -0.041 0.626 0.54 0.0
H17A H17A -0.031 0.721 0.54 0.0
C18 C18 -0.084 0.574 0.5 0.0
H18A H18A -0.101 0.636 0.464 0.0
Zn1 Zn1 0.32999999999999996 1.2970000000000002 -0.34 0.0
Zn2 Zn2 0.32999999999999996 0.893 -0.54 0.0
O1 O1 0.27 1.157 -0.3 0.0
O2 O2 0.32999999999999996 1.133 -0.42 0.0
O3 O3 0.3 0.9139999999999999 -0.45 0.0
O4 O4 0.2 0.7829999999999999 -0.4 0.0
O5 O5 0.14 0.911 -0.46 0.0
O6 O6 0.19 0.933 -0.25 0.0
O7 O7 0.14 1.123 -0.22 0.0
O8 O8 0.19 1.444 -0.37 0.0
O9 O9 0.26 1.3940000000000001 -0.39 0.0
N1 N1 0.39 1.1949999999999998 -0.26 0.0
N2 N2 0.6 0.938 -0.0 0.0
C1 C1 0.26 1.032 -0.35 0.0
H1A H1A 0.27 0.944 -0.32 0.0
C2 C2 0.21000000000000002 1.042 -0.39 0.0
H2A H2A 0.21000000000000002 1.099 -0.44 0.0
C3 C3 0.18 1.1360000000000001 -0.33 0.0
H3A H3A 0.15999999999999998 1.188 -0.36 0.0
C4 C4 0.22999999999999998 1.24 -0.31 0.0
H4A H4A 0.21999999999999997 1.2730000000000001 -0.25 0.0
C5 C5 0.3 1.029 -0.41 0.0
C6 C6 0.18 0.901 -0.42 0.0
C7 C7 0.16999999999999998 1.056 -0.26 0.0
C8 C8 0.22999999999999998 1.371 -0.36 0.0
C9 C9 0.4 1.056 -0.24 0.0
H9A H9A 0.37 0.993 -0.27 0.0
C10 C10 0.44 1.0 -0.19 0.0
H10A H10A 0.44 0.901 -0.18 0.0
C11 C11 0.48 1.0899999999999999 -0.15 0.0
C12 C12 0.47 1.236 -0.17 0.0
H12A H12A 0.49 1.302 -0.15 0.0
C13 C13 0.43 1.283 -0.22 0.0
H13A H13A 0.43 1.381 -0.24 0.0
C14 C14 0.573 0.85 -0.05 0.0
H14A H14A 0.583 0.755 -0.06 0.0
C15 C15 0.531 0.894 -0.1 0.0
H15A H15A 0.513 0.8300000000000001 -0.14 0.0
C16 C16 0.514 1.036 -0.1 0.0
C17 C17 0.541 1.126 -0.04 0.0
H17A H17A 0.531 1.221 -0.04 0.0
C18 C18 0.584 1.0739999999999998 -0.0 0.0
H18A H18A 0.601 1.1360000000000001 0.036 0.0
Zn1 Zn1 0.67 1.2970000000000002 0.8400000000000001 0.0
Zn2 Zn2 0.67 0.893 1.04 0.0
O1 O1 0.73 1.157 0.8 0.0
O2 O2 0.67 1.133 0.9199999999999999 0.0
O3 O3 0.7 0.9139999999999999 0.95 0.0
O4 O4 0.8 0.7829999999999999 0.9 0.0
O5 O5 0.86 0.911 0.96 0.0
O6 O6 0.81 0.933 0.75 0.0
O7 O7 0.86 1.123 0.72 0.0
O8 O8 0.81 1.444 0.87 0.0
O9 O9 0.74 1.3940000000000001 0.89 0.0
N1 N1 0.61 1.1949999999999998 0.76 0.0
N2 N2 0.4 0.938 0.5 0.0
C1 C1 0.74 1.032 0.85 0.0
H1A H1A 0.73 0.944 0.8200000000000001 0.0
C2 C2 0.79 1.042 0.89 0.0
H2A H2A 0.79 1.099 0.94 0.0
C3 C3 0.8200000000000001 1.1360000000000001 0.8300000000000001 0.0
H3A H3A 0.8400000000000001 1.188 0.86 0.0
C4 C4 0.77 1.24 0.81 0.0
H4A H4A 0.78 1.2730000000000001 0.75 0.0
C5 C5 0.7 1.029 0.9099999999999999 0.0
C6 C6 0.8200000000000001 0.901 0.9199999999999999 0.0
C7 C7 0.8300000000000001 1.056 0.76 0.0
C8 C8 0.77 1.371 0.86 0.0
C9 C9 0.6 1.056 0.74 0.0
H9A H9A 0.63 0.993 0.77 0.0
C10 C10 0.56 1.0 0.69 0.0
H10A H10A 0.56 0.901 0.6799999999999999 0.0
C11 C11 0.52 1.0899999999999999 0.65 0.0
C12 C12 0.53 1.236 0.67 0.0
H12A H12A 0.51 1.302 0.65 0.0
C13 C13 0.5700000000000001 1.283 0.72 0.0
H13A H13A 0.5700000000000001 1.381 0.74 0.0
C14 C14 0.427 0.85 0.55 0.0
H14A H14A 0.417 0.755 0.56 0.0
C15 C15 0.469 0.894 0.6 0.0
H15A H15A 0.487 0.8300000000000001 0.64 0.0
C16 C16 0.486 1.036 0.6 0.0
C17 C17 0.459 1.126 0.54 0.0
H17A H17A 0.469 1.221 0.54 0.0
C18 C18 0.416 1.0739999999999998 0.5 0.0
H18A H18A 0.399 1.1360000000000001 0.464 0.0
Zn1 Zn1 0.17 -0.797 0.34 0.0
Zn2 Zn2 0.17 -0.393 0.54 0.0
O1 O1 0.23 -0.657 0.3 0.0
O2 O2 0.17 -0.633 0.42 0.0
O3 O3 0.2 -0.414 0.45 0.0
O4 O4 0.3 -0.283 0.4 0.0
O5 O5 0.36 -0.411 0.46 0.0
O6 O6 0.31 -0.433 0.25 0.0
O7 O7 0.36 -0.623 0.22 0.0
O8 O8 0.31 -0.944 0.37 0.0
O9 O9 0.24 -0.894 0.39 0.0
N1 N1 0.11 -0.695 0.26 0.0
N2 N2 -0.1 -0.438 0.0 0.0
C1 C1 0.24 -0.532 0.35 0.0
H1A H1A 0.23 -0.444 0.32 0.0
C2 C2 0.29 -0.542 0.39 0.0
H2A H2A 0.29 -0.599 0.44 0.0
C3 C3 0.32 -0.636 0.33 0.0
H3A H3A 0.34 -0.688 0.36 0.0
C4 C4 0.27 -0.74 0.31 0.0
H4A H4A 0.28 -0.773 0.25 0.0
C5 C5 0.2 -0.529 0.41 0.0
C6 C6 0.32 -0.401 0.42 0.0
C7 C7 0.33 -0.556 0.26 0.0
C8 C8 0.27 -0.871 0.36 0.0
C9 C9 0.1 -0.556 0.24 0.0
H9A H9A 0.13 -0.493 0.27 0.0
C10 C10 0.06 -0.5 0.19 0.0
H10A H10A 0.06 -0.401 0.18 0.0
C11 C11 0.02 -0.59 0.15 0.0
C12 C12 0.03 -0.736 0.17 0.0
H12A H12A 0.01 -0.802 0.15 0.0
C13 C13 0.07 -0.783 0.22 0.0
H13A H13A 0.07 -0.881 0.24 0.0
C14 C14 -0.073 -0.35 0.05 0.0
H14A H14A -0.083 -0.255 0.06 0.0
C15 C15 -0.031 -0.394 0.1 0.0
H15A H15A -0.013 -0.33 0.14 0.0
C16 C16 -0.014 -0.536 0.1 0.0
C17 C17 -0.041 -0.626 0.04 0.0
H17A H17A -0.031 -0.721 0.04 0.0
C18 C18 -0.084 -0.574 0.0 0.0
H18A H18A -0.101 -0.636 -0.036 0.0
Zn1 Zn1 -0.17 -0.797 -0.8400000000000001 0.0
Zn2 Zn2 -0.17 -0.393 -1.04 0.0
O1 O1 -0.23 -0.657 -0.8 0.0
O2 O2 -0.17 -0.633 -0.9199999999999999 0.0
O3 O3 -0.2 -0.414 -0.95 0.0
O4 O4 -0.3 -0.283 -0.9 0.0
O5 O5 -0.36 -0.411 -0.96 0.0
O6 O6 -0.31 -0.433 -0.75 0.0
O7 O7 -0.36 -0.623 -0.72 0.0
O8 O8 -0.31 -0.944 -0.87 0.0
O9 O9 -0.24 -0.894 -0.89 0.0
N1 N1 -0.11 -0.695 -0.76 0.0
N2 N2 0.1 -0.438 -0.5 0.0
C1 C1 -0.24 -0.532 -0.85 0.0
H1A H1A -0.23 -0.444 -0.8200000000000001 0.0
C2 C2 -0.29 -0.542 -0.89 0.0
H2A H2A -0.29 -0.599 -0.94 0.0
C3 C3 -0.32 -0.636 -0.8300000000000001 0.0
H3A H3A -0.34 -0.688 -0.86 0.0
C4 C4 -0.27 -0.74 -0.81 0.0
H4A H4A -0.28 -0.773 -0.75 0.0
C5 C5 -0.2 -0.529 -0.9099999999999999 0.0
C6 C6 -0.32 -0.401 -0.9199999999999999 0.0
C7 C7 -0.33 -0.556 -0.76 0.0
C8 C8 -0.27 -0.871 -0.86 0.0
C9 C9 -0.1 -0.556 -0.74 0.0
H9A H9A -0.13 -0.493 -0.77 0.0
C10 C10 -0.06 -0.5 -0.69 0.0
H10A H10A -0.06 -0.401 -0.6799999999999999 0.0
C11 C11 -0.02 -0.59 -0.65 0.0
C12 C12 -0.03 -0.736 -0.67 0.0
H12A H12A -0.01 -0.802 -0.65 0.0
C13 C13 -0.07 -0.783 -0.72 0.0
H13A H13A -0.07 -0.881 -0.74 0.0
C14 C14 0.073 -0.35 -0.55 0.0
H14A H14A 0.083 -0.255 -0.56 0.0
C15 C15 0.031 -0.394 -0.6 0.0
H15A H15A 0.013 -0.33 -0.64 0.0
C16 C16 0.014 -0.536 -0.6 0.0
C17 C17 0.041 -0.626 -0.54 0.0
H17A H17A 0.031 -0.721 -0.54 0.0
C18 C18 0.084 -0.574 -0.5 0.0
H18A H18A 0.101 -0.636 -0.464 0.0
Zn1 Zn1 0.67 -0.29700000000000004 0.34 0.0
Zn2 Zn2 0.67 0.10699999999999998 0.54 0.0
O1 O1 0.73 -0.15700000000000003 0.3 0.0
O2 O2 0.67 -0.133 0.42 0.0
O3 O3 0.7 0.08600000000000002 0.45 0.0
O4 O4 0.8 0.21700000000000003 0.4 0.0
O5 O5 0.86 0.08900000000000002 0.46 0.0
O6 O6 0.81 0.067 0.25 0.0
O7 O7 0.86 -0.123 0.22 0.0
O8 O8 0.81 -0.44399999999999995 0.37 0.0
O9 O9 0.74 -0.394 0.39 0.0
N1 N1 0.61 -0.19499999999999995 0.26 0.0
N2 N2 0.4 0.062 0.0 0.0
C1 C1 0.74 -0.03200000000000003 0.35 0.0
H1A H1A 0.73 0.055999999999999994 0.32 0.0
C2 C2 0.79 -0.04200000000000004 0.39 0.0
H2A H2A 0.79 -0.09899999999999998 0.44 0.0
C3 C3 0.8200000000000001 -0.136 0.33 0.0
H3A H3A 0.8400000000000001 -0.18799999999999994 0.36 0.0
C4 C4 0.77 -0.24 0.31 0.0
H4A H4A 0.78 -0.273 0.25 0.0
C5 C5 0.7 -0.029000000000000026 0.41 0.0
C6 C6 0.8200000000000001 0.09899999999999998 0.42 0.0
C7 C7 0.8300000000000001 -0.05600000000000005 0.26 0.0
C8 C8 0.77 -0.371 0.36 0.0
C9 C9 0.6 -0.05600000000000005 0.24 0.0
H9A H9A 0.63 0.007000000000000006 0.27 0.0
C10 C10 0.56 0.0 0.19 0.0
H10A H10A 0.56 0.09899999999999998 0.18 0.0
C11 C11 0.52 -0.08999999999999997 0.15 0.0
C12 C12 0.53 -0.236 0.17 0.0
H12A H12A 0.51 -0.30200000000000005 0.15 0.0
C13 C13 0.5700000000000001 -0.28300000000000003 0.22 0.0
H13A H13A 0.5700000000000001 -0.381 0.24 0.0
C14 C14 0.427 0.15000000000000002 0.05 0.0
H14A H14A 0.417 0.245 0.06 0.0
C15 C15 0.469 0.10599999999999998 0.1 0.0
H15A H15A 0.487 0.16999999999999998 0.14 0.0
C16 C16 0.486 -0.03600000000000003 0.1 0.0
C17 C17 0.459 -0.126 0.04 0.0
H17A H17A 0.469 -0.22099999999999997 0.04 0.0
C18 C18 0.416 -0.07399999999999995 0.0 0.0
H18A H18A 0.399 -0.136 -0.036 0.0
Zn1 Zn1 0.32999999999999996 -0.29700000000000004 -0.8400000000000001 0.0
Zn2 Zn2 0.32999999999999996 0.10699999999999998 -1.04 0.0
O1 O1 0.27 -0.15700000000000003 -0.8 0.0
O2 O2 0.32999999999999996 -0.133 -0.9199999999999999 0.0
O3 O3 0.3 0.08600000000000002 -0.95 0.0
O4 O4 0.2 0.21700000000000003 -0.9 0.0
O5 O5 0.14 0.08900000000000002 -0.96 0.0
O6 O6 0.19 0.067 -0.75 0.0
O7 O7 0.14 -0.123 -0.72 0.0
O8 O8 0.19 -0.44399999999999995 -0.87 0.0
O9 O9 0.26 -0.394 -0.89 0.0
N1 N1 0.39 -0.19499999999999995 -0.76 0.0
N2 N2 0.6 0.062 -0.5 0.0
C1 C1 0.26 -0.03200000000000003 -0.85 0.0
H1A H1A 0.27 0.055999999999999994 -0.8200000000000001 0.0
C2 C2 0.21000000000000002 -0.04200000000000004 -0.89 0.0
H2A H2A 0.21000000000000002 -0.09899999999999998 -0.94 0.0
C3 C3 0.18 -0.136 -0.8300000000000001 0.0
H3A H3A 0.15999999999999998 -0.18799999999999994 -0.86 0.0
C4 C4 0.22999999999999998 -0.24 -0.81 0.0
H4A H4A 0.21999999999999997 -0.273 -0.75 0.0
C5 C5 0.3 -0.029000000000000026 -0.9099999999999999 0.0
C6 C6 0.18 0.09899999999999998 -0.9199999999999999 0.0
C7 C7 0.16999999999999998 -0.05600000000000005 -0.76 0.0
C8 C8 0.22999999999999998 -0.371 -0.86 0.0
C9 C9 0.4 -0.05600000000000005 -0.74 0.0
H9A H9A 0.37 0.007000000000000006 -0.77 0.0
C10 C10 0.44 0.0 -0.69 0.0
H10A H10A 0.44 0.09899999999999998 -0.6799999999999999 0.0
C11 C11 0.48 -0.08999999999999997 -0.65 0.0
C12 C12 0.47 -0.236 -0.67 0.0
H12A H12A 0.49 -0.30200000000000005 -0.65 0.0
C13 C13 0.43 -0.28300000000000003 -0.72 0.0
H13A H13A 0.43 -0.381 -0.74 0.0
C14 C14 0.573 0.15000000000000002 -0.55 0.0
H14A H14A 0.583 0.245 -0.56 0.0
C15 C15 0.531 0.10599999999999998 -0.6 0.0
H15A H15A 0.513 0.16999999999999998 -0.64 0.0
C16 C16 0.514 -0.03600000000000003 -0.6 0.0
C17 C17 0.541 -0.126 -0.54 0.0
H17A H17A 0.531 -0.22099999999999997 -0.54 0.0
C18 C18 0.584 -0.07399999999999995 -0.5 0.0
H18A H18A 0.601 -0.136 -0.464 0.0
