_cell_length_a 23.68994
_cell_length_b 23.68994
_cell_length_c 30.80587
_cell_angle_alpha 90.0
_cell_angle_beta 90.0
_cell_angle_gamma 120.0
_symmetry_space_group_name_H-M         'P 1'
_symmetry_Int_Tables_number            1
loop_
_symmetry_equiv_pos_as_xyz
   'x, y, z'
                         
loop_
_atom_site_label
_atom_site_type_symbol
_atom_site_fract_x 
_atom_site_fract_y
_atom_site_fract_z
_atom_site_charge
Zn1 Zn1 -0.006502167708431365 -0.0034462846917098205 0.25487761477108434 0.0
Zn2 Zn2 -0.04216946403752822 -0.09289395524209519 0.15572060228391174 0.0
O1F O1F -0.09015813924544577 -0.08303692343377209 0.2370394374484303 0.0
O2F O2F -0.08276536668444065 -0.15357185704656084 0.20091321574436524 0.0
O3F O3F -0.20366930730189442 -0.37895342309802243 0.2771788422843641 0.0
O4F O4F -0.22012376319660465 -0.5532995283028309 0.4401602668086232 0.0
O5F O5F -0.30544735918367777 -0.552686138774036 0.4722311199030099 0.0
O6F O6F -0.11529610142694356 -0.3579052919717716 0.3578996809346331 0.0
C1F C1F -0.08825185388649952 -0.13859874772680186 0.24093870752469826 0.0
C2F C2F -0.11064945922150338 -0.19739742567430496 0.26374790213245813 0.0
C3F C3F -0.1456054637833654 -0.26841656449942447 0.2506395596153532 0.0
H3F H3F -0.13506108987848506 -0.26333331127583365 0.23283393097403882 0.0
C4F C4F -0.17106725917875928 -0.31767794459764703 0.30156749194122484 0.0
C5F C5F -0.14810925999790858 -0.32853970057208987 0.3409404813135458 0.0
C6F C6F -0.12117096024972551 -0.24739922808244685 0.3329507040621871 0.0
H6F H6F -0.11404652900049314 -0.24612177315960523 0.3598528127252836 0.0
C7F C7F -0.11670972534396372 -0.17792101339169633 0.3118077274833867 0.0
H7F H7F -0.10184588393812552 -0.13640813674135108 0.34427235154994507 0.0
C8F C8F -0.18525247368503991 -0.3694260475158297 0.2217440128008194 0.0
H8F1 H8F1 -0.20555068874054105 -0.46555464754687825 0.21902571507576005 0.0
H8F2 H8F2 -0.15644131485763385 -0.3531229291966553 0.21724266950981216 0.0
H8F3 H8F3 -0.24764061593111406 -0.38201851726147035 0.23470440629640638 0.0
C9F C9F -0.2773210331520596 -0.5150728513355822 0.45808252160652024 0.0
C10F C10F -0.22320651335722297 -0.48083050184426557 0.40329585831662196 0.0
C11F C11F -0.18277536064818078 -0.47051405229800347 0.4207608689279296 0.0
H11F H11F -0.1430696033616638 -0.4375025643635461 0.419101789028094 0.0
C12F C12F -0.12430132140273853 -0.3679481799297674 0.3862060195253531 0.0
C13F C13F -0.19612686047743705 -0.38459705843038444 0.3538576583297594 0.0
C14F C14F -0.24927920989579316 -0.40340126436198515 0.36411105577305286 0.0
H14F H14F -0.27410691556397815 -0.4077807854653303 0.3639178103421826 0.0
C15F C15F -0.26352783356133713 -0.43966191466306204 0.40843668368724306 0.0
H15F H15F -0.3258819891237234 -0.4737176909235492 0.3889018082122192 0.0
C16F C16F -0.030259823032915092 -0.3356908993593191 0.41357515292568214 0.0
H16D H16D 0.0013379572065719209 -0.3207842528934665 0.3878113819834451 0.0
H16E H16E -0.02155005915983215 -0.40067217129598676 0.3855307312918207 0.0
H16F H16F -0.05844528195713443 -0.31337095936897663 0.43149473859349724 0.0
O7 O7 -0.0012638152262307812 0.006174051767737026 0.18649578339121256 0.0
O8 O8 -0.03327204437225495 -0.023000469251117976 0.32484807581247754 0.0
Zn2 Zn2 0.07803305346068094 0.040384512688384736 0.15563890034466593 0.0
O1F O1F 0.07956096759347736 0.02310975642617647 0.26843885021924363 0.0
O2F O2F 0.15704072434653044 0.07242815347934561 0.21088090199579693 0.0
O3F O3F 0.39646985955650044 0.20532807538099884 0.2698681541374754 0.0
O4F O4F 0.5483706908488749 0.33994690610249334 0.47267943091021075 0.0
O5F O5F 0.5180882876223726 0.2335491234542717 0.4598228793146601 0.0
O6F O6F 0.3364640638395444 0.29135082625580855 0.3555925379168906 0.0
C1F C1F 0.15393780474178556 0.056832267126647754 0.24332810377739958 0.0
C2F C2F 0.20724341053294162 0.08941437594186463 0.27583796743180783 0.0
C3F C3F 0.25570331654651085 0.13450039614708362 0.2668850672816082 0.0
H3F H3F 0.268078882313731 0.16070135252326423 0.2303981856570012 0.0
C4F C4F 0.3252774974308605 0.1555854271749773 0.2924490444728415 0.0
C5F C5F 0.31828381846228027 0.14442252667220437 0.3476318609412812 0.0
C6F C6F 0.26438571139297523 0.1325488529589568 0.33692306227755237 0.0
H6F H6F 0.2279268672542294 0.11259650790196334 0.3647739744467927 0.0
C7F C7F 0.17969721383718293 0.08224703268735528 0.29689303663414746 0.0
H7F H7F 0.15381954167167852 0.05880226909944198 0.31287675129307985 0.0
C8F C8F 0.4164641371837099 0.20508970193973666 0.22054145014214996 0.0
H8F1 H8F1 0.44752300952631013 0.23040307842501193 0.21815974900326282 0.0
H8F2 H8F2 0.36113153039701756 0.21232033355612356 0.2023597515942348 0.0
H8F3 H8F3 0.3965901748960605 0.15804454516193084 0.2315406741433313 0.0
C9F C9F 0.5240318393514792 0.2585782731605887 0.4469782856481464 0.0
C10F C10F 0.4581709878476956 0.2281764532642327 0.4132841671914908 0.0
C11F C11F 0.4195682174637667 0.2568261116351502 0.40609117115099935 0.0
H11F H11F 0.4429208656733394 0.31996409092927397 0.41364572535833527 0.0
C12F C12F 0.39616867837482256 0.24990706702988547 0.3736486230710243 0.0
C13F C13F 0.36316062393807264 0.18453571979589417 0.35310342879978357 0.0
C14F C14F 0.39665024376449576 0.16184309373244116 0.34787180135198453 0.0
H14F H14F 0.3783470128357942 0.09493869789151516 0.3387535318997288 0.0
C15F C15F 0.4554780852951041 0.1668395770131162 0.3816767713066963 0.0
H15F H15F 0.46559237195876463 0.13341955654785875 0.4078276027798394 0.0
C16F C16F 0.3873597069942574 0.33732549178273646 0.39227555531929825 0.0
H16D H16D 0.34180512401226487 0.3522502347467145 0.39610476462742417 0.0
H16E H16E 0.40901075079795496 0.3639315596498083 0.4031706229217419 0.0
H16F H16F 0.3605004365051954 0.3197500270018452 0.4342427641463768 0.0
Zn2 Zn2 -0.05412155885506919 0.040880288878320764 0.1558652388925529 0.0
O1F O1F -0.028994272172544754 0.05738667263581862 0.2518191186319255 0.0
O2F O2F -0.05947050749101645 0.08497886168074363 0.20422428881238672 0.0
O3F O3F -0.2088794816750344 0.18566728483539913 0.28283505239965945 0.0
O4F O4F -0.3238057525873266 0.22665987811024574 0.4616880800121096 0.0
O5F O5F -0.21480020743023504 0.3144664581422074 0.47277652854046 0.0
O6F O6F -0.2645989247246759 0.1005837797979239 0.3758728106685634 0.0
C1F C1F -0.06498679182372519 0.0958226673202101 0.25671872855108274 0.0
C2F C2F -0.09831548440927611 0.11430141657294411 0.27337799622832926 0.0
C3F C3F -0.12935093169254974 0.12197925202346024 0.2607464636087204 0.0
H3F H3F -0.13718491088100648 0.11562288306543772 0.22806199844088262 0.0
C4F C4F -0.1448939040975045 0.16252480826390173 0.27177503951505005 0.0
C5F C5F -0.1520185458539482 0.15212214884075412 0.3224669427944989 0.0
C6F C6F -0.07484558420227404 0.13591054126136407 0.35650135422699736 0.0
H6F H6F -0.10330484922598203 0.10976997666480884 0.37152577145866034 0.0
C7F C7F -0.12229099004285127 0.13441254891233137 0.30376108589842843 0.0
H7F H7F -0.04827874302348009 0.11307394088816777 0.3438602135229268 0.0
C8F C8F -0.1945905845574827 0.21312944799364658 0.21890965045986585 0.0
H8F1 H8F1 -0.24509724456861015 0.19446023550782127 0.2242379200861488 0.0
H8F2 H8F2 -0.19338122723734472 0.16272351381996497 0.1867039379692724 0.0
H8F3 H8F3 -0.17601782428012086 0.23376993600866916 0.19387329431792605 0.0
C9F C9F -0.2640284888458266 0.24965037061221657 0.4500893514045054 0.0
C10F C10F -0.23019158809616264 0.2529839057010897 0.4083525029304321 0.0
C11F C11F -0.2652626030750182 0.1565766404840204 0.39956716378999635 0.0
H11F H11F -0.29352984557248923 0.14208536920711062 0.41322947590006753 0.0
C12F C12F -0.2696565485447504 0.1506527500192968 0.37524036241842523 0.0
C13F C13F -0.16997924552651159 0.19247728344069848 0.34977818376911934 0.0
C14F C14F -0.15473493832898655 0.2708933280966994 0.35161464431151634 0.0
H14F H14F -0.12093998123636746 0.2963723831214498 0.32955527956592073 0.0
C15F C15F -0.15566507705700527 0.29080234913260566 0.3962265557653259 0.0
H15F H15F -0.15615764749019367 0.30775309646967425 0.39781856310125874 0.0
C16F C16F -0.35027617039584474 0.024154110031260487 0.3891350123751569 0.0
H16D H16D -0.3507958083730596 0.016867019476130667 0.36255158493232487 0.0
H16E H16E -0.389889327058315 0.05986317347283688 0.39789510319426236 0.0
H16F H16F -0.2778928774323697 0.06353213099283372 0.42611351042364953 0.0
Zn1 Zn1 0.6583980861146796 0.33545072636580936 0.5742304709447421 0.0
Zn2 Zn2 0.6228294915031003 0.24833597917851755 0.49241125040425254 0.0
O1F O1F 0.5905074864643313 0.25107644304643173 0.5929419884494178 0.0
O2F O2F 0.588967116040285 0.1776993418517877 0.5282317457783385 0.0
O3F O3F 0.48190230458805045 -0.036635218843339985 0.6038166450627858 0.0
O4F O4F 0.43277134450365795 -0.21105607042281474 0.7855634825952884 0.0
O5F O5F 0.34443885359845694 -0.19952572423836618 0.7980339503966584 0.0
O6F O6F 0.5835444910099552 -0.024043309424148354 0.7183465548834861 0.0
C1F C1F 0.5761997990689255 0.18018047125117723 0.5845555533019573 0.0
C2F C2F 0.5688002120036336 0.11818755594438195 0.60343401221721 0.0
C3F C3F 0.5309519808051778 0.0773341625288452 0.5892764390840065 0.0
H3F H3F 0.5140806553491909 0.047817911073199285 0.5774515128230113 0.0
C4F C4F 0.49868387499959127 0.012928596015057085 0.6185384093301569 0.0
C5F C5F 0.49763487642164506 0.02055778844909331 0.6657283004835299 0.0
C6F C6F 0.5337671151607244 0.0982354664153035 0.698302562186279 0.0
H6F H6F 0.5241319457380569 0.07301414515947705 0.7215949358437269 0.0
C7F C7F 0.546470136996014 0.14163239800308675 0.6569728030465041 0.0
H7F H7F 0.5766949646639639 0.20952212811452134 0.6583465058745425 0.0
C8F C8F 0.49461203378024055 -0.06060167856249946 0.5607053764545611 0.0
H8F1 H8F1 0.46536970716279674 -0.12676588519344387 0.547538685847846 0.0
H8F2 H8F2 0.5262826175420798 -0.03144421552383553 0.5629889711359275 0.0
H8F3 H8F3 0.4371755624666667 -0.041434928035535286 0.53481768382392 0.0
C9F C9F 0.41817964171976474 -0.20159611378379844 0.7705045765402441 0.0
C10F C10F 0.4384862634515561 -0.13455453706692663 0.7430084422740953 0.0
C11F C11F 0.5011791100443248 -0.10089640444528988 0.7538444733683167 0.0
H11F H11F 0.5399303995281935 -0.09768957630913715 0.7443727778964755 0.0
C12F C12F 0.5119106709865082 -0.030956044930998374 0.7158636540278802 0.0
C13F C13F 0.47561992033268424 -0.016788187911081557 0.684266707450242 0.0
C14F C14F 0.42276871851782427 -0.06672987188444952 0.6983428768834344 0.0
H14F H14F 0.38584302143664095 -0.08271830128762606 0.6905676010215399 0.0
C15F C15F 0.39696654498283857 -0.11086979322670672 0.7350364038990932 0.0
H15F H15F 0.3101917769046728 -0.1461990772458643 0.7416363317742581 0.0
C16F C16F 0.6517788045475283 -0.04479633494626015 0.7276555497103793 0.0
H16D H16D 0.6587854544404833 -0.0033287673527283377 0.6991938592576312 0.0
H16E H16E 0.6176636228145654 -0.07274738492856653 0.733266176290422 0.0
H16F H16F 0.6362966488305576 -0.027307446837910285 0.7582541454660723 0.0
O7 O7 0.6680227811576006 0.3379833231662608 0.5159046749896494 0.0
O8 O8 0.6530598376066888 0.33625258980967065 0.6521111672648254 0.0
Zn2 Zn2 0.7478622855312433 0.3717526290691378 0.48416520902676297 0.0
O1F O1F 0.7446405623263338 0.3816304574701611 0.5824607242256431 0.0
O2F O2F 0.8258051397202353 0.4014044895454946 0.5496272731051303 0.0
O3F O3F 1.031608852385616 0.5371682582267214 0.6074894788769316 0.0
O4F O4F 1.2021006515007946 0.6642733533049483 0.7907662039391863 0.0
O5F O5F 1.209574879163582 0.5482490848399141 0.7908807905219656 0.0
O6F O6F 0.9848532185675274 0.6062721009916894 0.7037169770048389 0.0
C1F C1F 0.7985187718043595 0.39494812894718795 0.5811923736907746 0.0
C2F C2F 0.8647094696747653 0.4427440792921735 0.6104459153500854 0.0
C3F C3F 0.9196620743645383 0.46515812813021745 0.582564127995188 0.0
H3F H3F 0.9265040685378543 0.466980753891797 0.5551253160402464 0.0
C4F C4F 0.9932538755526088 0.49825230730127107 0.6214796426559802 0.0
C5F C5F 0.9724909033476861 0.5089340947710647 0.6587511316810146 0.0
C6F C6F 0.9131311827678421 0.45115640043700894 0.691405696718139 0.0
H6F H6F 0.9057228406727704 0.43708453190695806 0.6970720868572623 0.0
C7F C7F 0.8892213741672562 0.39323842002417975 0.63478351948644 0.0
H7F H7F 0.8304704433067485 0.3907277042320696 0.6505962619764941 0.0
C8F C8F 1.0612834629069887 0.5271250907694709 0.5672531375032098 0.0
H8F1 H8F1 1.1204576049900885 0.6163874083221187 0.5421210848227547 0.0
H8F2 H8F2 0.9923024106267838 0.5471475702626674 0.5405074614059544 0.0
H8F3 H8F3 1.0694345232429623 0.504076529640487 0.5590736638182482 0.0
C9F C9F 1.206293375026819 0.598459407957698 0.7792162212515641 0.0
C10F C10F 1.1210869122092249 0.5643858744191038 0.7441645501799911 0.0
C11F C11F 1.0974376754196253 0.6303791114466425 0.7234110399897338 0.0
H11F H11F 1.1013543951145877 0.6443198121056468 0.7665853680606068 0.0
C12F C12F 1.0414225954029344 0.5801399018392034 0.7059658094403992 0.0
C13F C13F 1.0206281477133918 0.5342483182845296 0.6988190081178528 0.0
C14F C14F 1.050381439099992 0.49605795096399824 0.7067626366814649 0.0
H14F H14F 1.0394908461129861 0.4313057954682123 0.697483259146111 0.0
C15F C15F 1.1323027046623313 0.49675287494322895 0.7319934043578711 0.0
H15F H15F 1.1337760831236185 0.5118221374591112 0.7478676488055839 0.0
C16F C16F 1.0291549502803552 0.6688580305340281 0.7260891329057424 0.0
H16D H16D 1.001915890493485 0.6631915909517994 0.7006456060992273 0.0
H16E H16E 1.0878412736173566 0.6870042290994808 0.7339571539219171 0.0
H16F H16F 0.9996248313801328 0.6543285772928649 0.7778845833013169 0.0
Zn2 Zn2 0.6252774846586048 0.3820418786052218 0.4945440367822557 0.0
O1F O1F 0.6400291490216812 0.4014527270972443 0.5837793365708954 0.0
O2F O2F 0.5888455986614992 0.4280657155580573 0.5299876473343504 0.0
O3F O3F 0.4653455447310857 0.5081827170383963 0.6108146872777686 0.0
O4F O4F 0.33912141184453565 0.5580972427316662 0.7979380034973073 0.0
O5F O5F 0.43044113401224526 0.6599684667668955 0.7887477242847337 0.0
O6F O6F 0.3772551599188869 0.379697752041971 0.7113609543937608 0.0
C1F C1F 0.6195961109298194 0.42391784240215485 0.5614242360305393 0.0
C2F C2F 0.5806858078232633 0.46096140688475035 0.5944597771612783 0.0
C3F C3F 0.5468561264676401 0.4713697848189171 0.5990533670171229 0.0
H3F H3F 0.5133151656753864 0.44190254916144034 0.5668646050309233 0.0
C4F C4F 0.5132967764946084 0.4945937987259729 0.6260228805262181 0.0
C5F C5F 0.5264036764773703 0.5171084924140338 0.6571775997093994 0.0
C6F C6F 0.5532886428245509 0.47995074298684526 0.655872941439323 0.0
H6F H6F 0.5315326515290864 0.482920271357966 0.6987342792048135 0.0
C7F C7F 0.5625100447770184 0.42335069727162733 0.6382287495607035 0.0
H7F H7F 0.6190406246732295 0.4316259797650666 0.65240002260894 0.0
C8F C8F 0.4769182811372005 0.534314715603268 0.5358966663019163 0.0
H8F1 H8F1 0.4088659891489146 0.5614475613968245 0.5412413658293294 0.0
H8F2 H8F2 0.4867419974733649 0.4884608321980827 0.5318128840189327 0.0
H8F3 H8F3 0.4561867856232206 0.5930725904312226 0.5658074820236831 0.0
C9F C9F 0.390111013122691 0.5852283749677166 0.7652781509029053 0.0
C10F C10F 0.4399948800937765 0.572400439983702 0.7525072247629395 0.0
C11F C11F 0.4104425567824951 0.4853242353837614 0.7385017375525326 0.0
H11F H11F 0.36853614177839006 0.4782019371930044 0.7703800637906906 0.0
C12F C12F 0.43243218730222543 0.48459835223939296 0.7291769727100184 0.0
C13F C13F 0.4874939706460369 0.53699508688253 0.7005210801723742 0.0
C14F C14F 0.5078955637137004 0.5853310556122594 0.7074542407951219 0.0
H14F H14F 0.5506030768801609 0.6182649280421978 0.6864591683631776 0.0
C15F C15F 0.5067761224763272 0.6093119043741124 0.7254090880464867 0.0
H15F H15F 0.5226635209823929 0.6291956942007273 0.7391313809840219 0.0
C16F C16F 0.3605128029148176 0.3762479478822562 0.7409463894722705 0.0
H16D H16D 0.32205199288949854 0.30309634331042024 0.6977831707412772 0.0
H16E H16E 0.2883053868233958 0.38345218855938107 0.7292418784055528 0.0
H16F H16F 0.32441225704897114 0.38208769209753995 0.7672718702488642 0.0
Zn1 Zn1 0.32788065211949396 0.6684705519818025 0.9184888824276285 0.0
Zn2 Zn2 0.2856528701909128 0.5789322359597151 0.8206460364051822 0.0
O1F O1F 0.28686893880862746 0.5989461419275991 0.9146113295285625 0.0
O2F O2F 0.22772105803794032 0.5152426013662654 0.864818416514802 0.0
O3F O3F 0.1517406458731005 0.2683997582348199 0.9445467201325358 0.0
O4F O4F 0.11756015109337144 0.10753890436632112 1.1310644651903528 0.0
O5F O5F 0.019230357390421164 0.13822025540041297 1.1267086457285986 0.0
O6F O6F 0.26945553723747906 0.3391143845649636 1.0518324300465034 0.0
C1F C1F 0.24427511245537348 0.5210837388042971 0.9003305551994681 0.0
C2F C2F 0.22175178023458497 0.4462049774019897 0.9308622968347529 0.0
C3F C3F 0.2067597898051898 0.39816971563953035 0.9221848176227493 0.0
H3F H3F 0.20040659122872737 0.3898170743456208 0.8853808903665115 0.0
C4F C4F 0.18198313965252044 0.3520283614976656 0.9533308325302666 0.0
C5F C5F 0.16952202232587782 0.369229288520976 1.0000195452522003 0.0
C6F C6F 0.20448353775475034 0.4116633626675288 1.0054405389900047 0.0
H6F H6F 0.20785440512693423 0.4321786798959036 1.0344554853018517 0.0
C7F C7F 0.20513371580696116 0.4565389497161788 0.9870697934618076 0.0
H7F H7F 0.23507354864217897 0.5018941715317082 0.9710170182481053 0.0
C8F C8F 0.1347433811134648 0.28207189025402424 0.899931242438312 0.0
H8F1 H8F1 0.1638982422226231 0.26916033854722804 0.8690885382656152 0.0
H8F2 H8F2 0.16765562940294407 0.28065438649978725 0.8881230492391228 0.0
H8F3 H8F3 0.10237658945263514 0.2734605643666216 0.8680535145275161 0.0
C9F C9F 0.06835496490323625 0.14057917730465402 1.122602309802756 0.0
C10F C10F 0.09489317478973376 0.20337052102729997 1.078557109893531 0.0
C11F C11F 0.15427583108815385 0.2351361028644988 1.090449165238806 0.0
H11F H11F 0.18872372681389737 0.23998267599463255 1.089858946798811 0.0
C12F C12F 0.1759320016369181 0.2805052682967321 1.0398446178205127 0.0
C13F C13F 0.1412939252465004 0.3075465776221679 1.0400417023916966 0.0
C14F C14F 0.06482991704519397 0.277940868535033 1.0333872434386302 0.0
H14F H14F 0.07536281528190414 0.2655406149595791 1.0114258559718097 0.0
C15F C15F 0.06964638078541659 0.22264715923550077 1.0581725206275185 0.0
H15F H15F -0.002531657624250075 0.20774753099919208 1.0590731033648 0.0
C16F C16F 0.3150394408327964 0.3094513504443344 1.0562273408063239 0.0
H16D H16D 0.35044233610848485 0.35920046535422506 1.0779208060562755 0.0
H16E H16E 0.29845725533284784 0.2734136686488921 1.0701761312147846 0.0
H16F H16F 0.28202277711331347 0.2840859816685784 1.0897031413932214 0.0
O7 O7 0.32850353626624923 0.6655004019609456 0.8426014173177302 0.0
O8 O8 0.3378083982795118 0.6783437894615845 0.9989024627356413 0.0
Zn2 Zn2 0.41714419152224264 0.7032613771925953 0.8200551628864903 0.0
O1F O1F 0.4174892279135662 0.7058216431765821 0.9131169946981359 0.0
O2F O2F 0.4903069850251513 0.7355353643619846 0.8691717033105417 0.0
O3F O3F 0.7110792968146504 0.8696769821988626 0.9177901524027126 0.0
O4F O4F 0.8718379215233614 1.0083657263250787 1.1258449504445467 0.0
O5F O5F 0.882217063818869 0.9241519361531424 1.1230322011726213 0.0
O6F O6F 0.6762589740961449 0.9398554830809425 1.0078337835445952 0.0
C1F C1F 0.4959926952223249 0.7323206049155098 0.9041691842951044 0.0
C2F C2F 0.5370269770683759 0.7627684918565463 0.9277249860292373 0.0
C3F C3F 0.6167330100638438 0.7974021579432378 0.907259123392385 0.0
H3F H3F 0.6146708858852828 0.8015283951207515 0.8936804125640858 0.0
C4F C4F 0.6400526576045791 0.8434784418346856 0.9421315764319783 0.0
C5F C5F 0.656594513677994 0.8395748172289951 0.9925500039379503 0.0
C6F C6F 0.5628865657189404 0.7900569219572852 1.0036787318516436 0.0
H6F H6F 0.5564912573016532 0.7478047016293831 1.0594990170462804 0.0
C7F C7F 0.5298189211523394 0.7631003109807349 0.9795879704592257 0.0
H7F H7F 0.46941673522570715 0.7745240462552847 1.0080506048189575 0.0
C8F C8F 0.7273768661802413 0.8525964173002074 0.8797681088225041 0.0
H8F1 H8F1 0.7984214553234967 0.9316113552294933 0.8761770836481578 0.0
H8F2 H8F2 0.6684727715871688 0.8731367128666264 0.8868540097207659 0.0
H8F3 H8F3 0.7590305815674588 0.8279586882161543 0.8878728890340147 0.0
C9F C9F 0.8577097237049277 0.933019767865594 1.0961377172227793 0.0
C10F C10F 0.7904429907354564 0.9082039587343883 1.0764058963697558 0.0
C11F C11F 0.7761218704276265 0.9198518165499197 1.0695493802956908 0.0
H11F H11F 0.7849188114690245 0.9601191095389662 1.094943792005562 0.0
C12F C12F 0.7252262291329885 0.9026788179213697 1.064349761940194 0.0
C13F C13F 0.6961706835209286 0.8542420842626915 1.0229180585117486 0.0
C14F C14F 0.7390226686724033 0.8182797118048403 1.0259459363268957 0.0
H14F H14F 0.722449031654959 0.7869948286975685 1.027535168164417 0.0
C15F C15F 0.787700056311431 0.8504265202038579 1.0643286878910858 0.0
H15F H15F 0.8298323977364354 0.8065972652899615 1.0842983074027184 0.0
C16F C16F 0.7068270559969002 1.0097386169875133 1.0489096370961046 0.0
H16D H16D 0.6632809028406541 1.0295418015814504 1.0382440279768232 0.0
H16E H16E 0.7173878384703681 1.0552464106175274 1.063262048616175 0.0
H16F H16F 0.6556132556430684 1.0099778896734386 1.1017218169554974 0.0
Zn2 Zn2 0.27961419573095525 0.7198984469231305 0.8238859573784748 0.0
O1F O1F 0.32715876496253893 0.7551587469857246 0.9212720230192937 0.0
O2F O2F 0.25739032890809244 0.7460346472376813 0.8643745988080602 0.0
O3F O3F 0.14483092992598753 0.8488804555634678 0.9490780515488342 0.0
O4F O4F 0.01433219119289768 0.9009498016124129 1.1155566876177598 0.0
O5F O5F 0.11790251214770921 0.9943893091027528 1.1431165800652436 0.0
O6F O6F 0.06790702248396856 0.7447349631647661 1.0337404501409926 0.0
C1F C1F 0.2715299935250736 0.7607270823874713 0.890333373605123 0.0
C2F C2F 0.23797232874538338 0.7450420228312978 0.9378551203272694 0.0
C3F C3F 0.20582589148805863 0.7873271412574402 0.9097486807154819 0.0
H3F H3F 0.19610139931491286 0.8168158410904593 0.8935758872601113 0.0
C4F C4F 0.16621174822062287 0.8376522384247036 0.9541558350879884 0.0
C5F C5F 0.17658582527241937 0.8389559011718419 0.9840102469244336 0.0
C6F C6F 0.24171408720773602 0.7802305616093651 1.001344824050066 0.0
H6F H6F 0.20120280962224796 0.7759460168462567 1.0527819175898765 0.0
C7F C7F 0.26817523884569905 0.7900128663531544 0.976501612970966 0.0
H7F H7F 0.296420012571846 0.7645189636347146 0.972143255435637 0.0
C8F C8F 0.15782197171097684 0.8572541872215774 0.8819695348823449 0.0
H8F1 H8F1 0.07116605313739259 0.8895761133038425 0.8707309385029344 0.0
H8F2 H8F2 0.11467317213132033 0.8301628306465504 0.8431419302857132 0.0
H8F3 H8F3 0.18910858766836644 0.9023056774100305 0.8708323784317477 0.0
C9F C9F 0.06213705991903001 0.9291142433134615 1.1167340438693039 0.0
C10F C10F 0.10704970607325999 0.9068225890426198 1.0791498342780361 0.0
C11F C11F 0.08616081937399098 0.8389229038247932 1.0753571741529453 0.0
H11F H11F 0.038004547102872537 0.8120202379306227 1.0946951699093166 0.0
C12F C12F 0.08906590457366449 0.8107247231611238 1.0508498289388863 0.0
C13F C13F 0.16906619892067917 0.8410169855414288 1.018008504182353 0.0
C14F C14F 0.20066269902739028 0.9012761267194145 1.046519447445917 0.0
H14F H14F 0.22624122145888195 0.9642715556666027 1.0071102457806442 0.0
C15F C15F 0.16146441398362246 0.9458894194643659 1.0523512265371426 0.0
H15F H15F 0.17643477592855306 0.9989580927276871 1.0821687466439092 0.0
C16F C16F 0.008045789833562392 0.6875576208700777 1.0315701696444697 0.0
H16D H16D 0.0034508418441014533 0.6597135345306934 1.0429422822605305 0.0
H16E H16E -0.0354726284589941 0.7271830701174622 1.089647565343326 0.0
H16F H16F 0.029353313568339603 0.7106591518410226 1.10557593930995 0.0
Zn1 Zn1 0.010340032843939516 0.0016981627717495822 -0.24672724931358292 0.0
Zn2 Zn2 0.03252487374671744 0.09480572510580822 -0.1666626584708275 0.0
O1F O1F 0.09597994709427934 0.07298696911385884 -0.24724876315647137 0.0
O2F O2F 0.08560621353614266 0.162012160009226 -0.21042435191055797 0.0
O3F O3F 0.19442286725026864 0.37738540958653716 -0.26246266715151123 0.0
O4F O4F 0.20692295580092349 0.5432696158998342 -0.46482760710261933 0.0
O5F O5F 0.30629906808367996 0.5437751249908545 -0.4688375980954471 0.0
O6F O6F 0.0667723759629423 0.3564455241278293 -0.3581089484366568 0.0
C1F C1F 0.07876777000856047 0.1362396144620334 -0.23894665832035347 0.0
C2F C2F 0.10610393055001674 0.2331283999592507 -0.28651430796230853 0.0
C3F C3F 0.14221384888772767 0.2671880759500663 -0.2497216843532561 0.0
H3F H3F 0.11162374676016101 0.26300625506376196 -0.2281123310291474 0.0
C4F C4F 0.19019003402986728 0.3272548391781787 -0.2814463977661661 0.0
C5F C5F 0.16744180709593148 0.310609148366506 -0.340971808982759 0.0
C6F C6F 0.1484001526204701 0.22198973218455378 -0.3345209534988819 0.0
H6F H6F 0.1624855128474928 0.23342216867452073 -0.39760240337404334 0.0
C7F C7F 0.10297481389894057 0.18440728376408258 -0.3037848565587653 0.0
H7F H7F 0.12392036393069472 0.12065470017473046 -0.3241527342261914 0.0
C8F C8F 0.21709972006326467 0.39000702973832574 -0.22452783841308296 0.0
H8F1 H8F1 0.23494715895368296 0.43202265501636145 -0.2318305505568332 0.0
H8F2 H8F2 0.14986503681461005 0.37028954175361706 -0.20740896460657612 0.0
H8F3 H8F3 0.22800115421749853 0.370405476340821 -0.23363215137936924 0.0
C9F C9F 0.26443482014285336 0.514648740238136 -0.4556025876971167 0.0
C10F C10F 0.24404204497449247 0.46738262753018694 -0.42503099132205296 0.0
C11F C11F 0.16096204867677402 0.42705625698079824 -0.40825602846613807 0.0
H11F H11F 0.13752192137680036 0.46590320274361996 -0.42651790325129685 0.0
C12F C12F 0.14681140758907335 0.3834651499303973 -0.3805963607726107 0.0
C13F C13F 0.20003356954258195 0.35784714818804786 -0.35009809136839404 0.0
C14F C14F 0.25307624971515236 0.3985049376144424 -0.37593352684710957 0.0
H14F H14F 0.2857712216829427 0.4087306120270862 -0.3756396583112436 0.0
C15F C15F 0.259710597041637 0.45002455945102166 -0.39973087649233524 0.0
H15F H15F 0.34148637599223325 0.4446195500390041 -0.3900245629187201 0.0
C16F C16F 0.0255355417877177 0.3646739323753682 -0.3867858922909239 0.0
H16D H16D -0.013305946684143376 0.3491542077301493 -0.41340742040398654 0.0
H16E H16E 0.005953983022633669 0.383090553142805 -0.3874567493208783 0.0
H16F H16F 0.0456136526455147 0.34693338442759913 -0.44074408677414245 0.0
O7 O7 0.015206654117509617 -0.002548796635809245 -0.18555990725917335 0.0
O8 O8 -0.02906597434214681 -0.017414456182224387 -0.30158727531002816 0.0
Zn2 Zn2 -0.08167385593976231 -0.04370860532235752 -0.14916768959096083 0.0
O1F O1F -0.104858480671977 -0.032656834286973246 -0.26349439994045776 0.0
O2F O2F -0.1659991615793585 -0.08253636341422471 -0.20176463819664958 0.0
O3F O3F -0.391098183128332 -0.21021170670168143 -0.2710903645127643 0.0
O4F O4F -0.5509645681595668 -0.3299850392394594 -0.45850358733893426 0.0
O5F O5F -0.5541696873220626 -0.2537422840156393 -0.4505595691896511 0.0
O6F O6F -0.34796931230645783 -0.27414971103433794 -0.37477852741362816 0.0
C1F C1F -0.16809348211865693 -0.060866899479806655 -0.234182970153224 0.0
C2F C2F -0.20807649164256745 -0.07684706693863425 -0.2628200357144472 0.0
C3F C3F -0.25710377004539436 -0.11914302830416429 -0.2570223917186358 0.0
H3F H3F -0.289243316432885 -0.14698150523990233 -0.2181932421538341 0.0
C4F C4F -0.33140534394990984 -0.15599888301776665 -0.28350603760264237 0.0
C5F C5F -0.3131311260462378 -0.13928367139352435 -0.3238644490429947 0.0
C6F C6F -0.25202493527621284 -0.12270593156385023 -0.3455139539752416 0.0
H6F H6F -0.2205928573829739 -0.13133360978881806 -0.3742554940424397 0.0
C7F C7F -0.19708982403540334 -0.05839729737525452 -0.31675256865631896 0.0
H7F H7F -0.15136994183732463 -0.04245254402888509 -0.31953244308263257 0.0
C8F C8F -0.3755566631393604 -0.18092665915472078 -0.2126742049916078 0.0
H8F1 H8F1 -0.44617251622072257 -0.25848090337399077 -0.20536113680563214 0.0
H8F2 H8F2 -0.3572722305407488 -0.17257860046618353 -0.19846582707619487 0.0
H8F3 H8F3 -0.3893882073336486 -0.14584961361745907 -0.2183769108068816 0.0
C9F C9F -0.5237223433623991 -0.27902602012829014 -0.45197315028139473 0.0
C10F C10F -0.47121089523961435 -0.23202489476323526 -0.41142291321954916 0.0
C11F C11F -0.4443657562613362 -0.29051478867360764 -0.42622893883458096 0.0
H11F H11F -0.45002907250733476 -0.2928011363107052 -0.41308476334220984 0.0
C12F C12F -0.3631917721418333 -0.24337129079028272 -0.38057188458349395 0.0
C13F C13F -0.3786483603453836 -0.1760383282916345 -0.36320971216744025 0.0
C14F C14F -0.40581228415652426 -0.15332476368368095 -0.39210642483988983 0.0
H14F H14F -0.40369935425541703 -0.10495567200078923 -0.358391772203875 0.0
C15F C15F -0.4413414614708594 -0.1884701149522666 -0.41070810226655496 0.0
H15F H15F -0.47624538911010367 -0.1670293237122492 -0.43292717523269403 0.0
C16F C16F -0.36978342200693776 -0.32790153708946795 -0.37717361015115003 0.0
H16D H16D -0.3517574947318735 -0.33697028027998605 -0.3848313505310857 0.0
H16E H16E -0.39331557524122757 -0.3521941451505953 -0.401413481148611 0.0
H16F H16F -0.40190043985809903 -0.3558959073966718 -0.42183617884200797 0.0
Zn2 Zn2 0.050753852948582936 -0.0405258834771969 -0.14933867935123546 0.0
O1F O1F 0.030321925996372474 -0.06324110570116526 -0.2410388118945926 0.0
O2F O2F 0.0687946686861864 -0.07469966252852674 -0.19094579413852888 0.0
O3F O3F 0.19476481862397685 -0.18245813009313414 -0.27662769578735613 0.0
O4F O4F 0.32523594711517567 -0.23047970583473867 -0.4699433822108138 0.0
O5F O5F 0.22534053915258026 -0.31158894266378473 -0.47072532504399917 0.0
O6F O6F 0.26732574081927746 -0.09795457327004403 -0.37395198459661616 0.0
C1F C1F 0.08254437150678219 -0.08471470051620053 -0.23673130544273782 0.0
C2F C2F 0.09086168873912293 -0.12120992292191712 -0.25996664577644585 0.0
C3F C3F 0.14993227764348385 -0.12284571227292222 -0.25449718902542157 0.0
H3F H3F 0.1395660197411254 -0.14488327849956872 -0.2282717976152083 0.0
C4F C4F 0.15965934526158043 -0.15578872870482408 -0.26846370633085936 0.0
C5F C5F 0.1503012271060056 -0.14402464422642403 -0.31463861060583226 0.0
C6F C6F 0.1040923547503852 -0.15147191612318858 -0.3268700581628858 0.0
H6F H6F 0.09307035525343803 -0.14708311610228209 -0.3868167569612839 0.0
C7F C7F 0.09400185733291908 -0.11622883159106417 -0.30777118155486727 0.0
H7F H7F 0.0437889069716667 -0.08308651561297323 -0.31585758715236856 0.0
C8F C8F 0.19911004342344643 -0.1864501114085028 -0.22117109125747952 0.0
H8F1 H8F1 0.2147280833092356 -0.2056525486905426 -0.22459133497179554 0.0
H8F2 H8F2 0.1958459683628393 -0.15783569001255973 -0.20290669458964786 0.0
H8F3 H8F3 0.17814828164560953 -0.22755846876724478 -0.20843930285846565 0.0
C9F C9F 0.2573339627512753 -0.2604564563039709 -0.4426214224820257 0.0
C10F C10F 0.2305191088095115 -0.25065850824900227 -0.41104349330364576 0.0
C11F C11F 0.2672471967582637 -0.16820997643657273 -0.40445794248278955 0.0
H11F H11F 0.3124132221455727 -0.13113307770715665 -0.4142221218122321 0.0
C12F C12F 0.21688520380842694 -0.1505301835379707 -0.36636071346761684 0.0
C13F C13F 0.1887699961455782 -0.18913765414654585 -0.36795188459546396 0.0
C14F C14F 0.12934813616219742 -0.22902734030918268 -0.3827882940511826 0.0
H14F H14F 0.13433181790892657 -0.2832538559516275 -0.3571838734768351 0.0
C15F C15F 0.1693486955924919 -0.2746803768686809 -0.4180502539642672 0.0
H15F H15F 0.14630230106635744 -0.31873020888422493 -0.402232222841884 0.0
C16F C16F 0.330171000116692 -0.05232345554111115 -0.3839975651875061 0.0
H16D H16D 0.35918231750388524 0.011046625607411325 -0.38047861715524944 0.0
H16E H16E 0.3813615644134612 -0.01226948727811989 -0.39113654653312563 0.0
H16F H16F 0.3273723759284288 -0.03877964462529166 -0.4032548410150504 0.0
Zn1 Zn1 0.663110309823793 0.34280304835207775 0.08551193109971529 0.0
Zn2 Zn2 0.7038407905418292 0.40954087601259875 0.17303970814964742 0.0
O1F O1F 0.7690855005924917 0.42441079723858943 0.07987257718591126 0.0
O2F O2F 0.7436322041756592 0.47849524027657975 0.14795057504000172 0.0
O3F O3F 0.8463999401165023 0.731438255187394 0.054173585230895924 0.0
O4F O4F 0.8949073501088005 0.872742048790595 -0.12543238928420067 0.0
O5F O5F 0.9807041802996878 0.8628718727024309 -0.11388170945653402 0.0
O6F O6F 0.7527588085381764 0.691999989833772 -0.03349538176224085 0.0
C1F C1F 0.7568922621636178 0.470915834233416 0.0854043557438273 0.0
C2F C2F 0.786484363097792 0.5427684648771992 0.0628906987166615 0.0
C3F C3F 0.7901362216012815 0.5976219056320526 0.07670572717521391 0.0
H3F H3F 0.7971933436310515 0.6126870571535272 0.1147112509993852 0.0
C4F C4F 0.8020162373616407 0.6522675004619616 0.04946327141241901 0.0
C5F C5F 0.8314058555788795 0.6389276423650317 -0.00527592993020356 0.0
C6F C6F 0.7955926039700819 0.5764481117903217 -0.021781897902459282 0.0
H6F H6F 0.8320992990584852 0.5703044396462136 -0.056281778542468505 0.0
C7F C7F 0.7873164037989673 0.5281729472480569 0.04137522349985388 0.0
H7F H7F 0.736484481264115 0.4988564246554799 0.006932278114121829 0.0
C8F C8F 0.8567896702868469 0.7368385799872821 0.09462410682956941 0.0
H8F1 H8F1 0.8823606929529464 0.74081553147125 0.13527487885581796 0.0
H8F2 H8F2 0.8369957940999433 0.6993108852115487 0.13103129486537743 0.0
H8F3 H8F3 0.9139431931113996 0.7135858873673865 0.1400015500775057 0.0
C9F C9F 0.9320329023073962 0.8625620895260669 -0.11577589247462275 0.0
C10F C10F 0.9169427893345485 0.8083714760769218 -0.08036764658174798 0.0
C11F C11F 0.8432517628331192 0.7749764125460835 -0.06586771676947178 0.0
H11F H11F 0.7905366562275441 0.7639308979262507 -0.08632602625975855 0.0
C12F C12F 0.8063401082902198 0.6996533255351982 -0.03783617071103501 0.0
C13F C13F 0.872315576811261 0.7235959637747515 -0.033478758547405243 0.0
C14F C14F 0.9111036454454235 0.739539378263516 -0.031476954236363035 0.0
H14F H14F 0.9615409069000855 0.7153922425270552 -0.0060726621886556635 0.0
C15F C15F 0.9593470184987554 0.7751771200205465 -0.05606884347801938 0.0
H15F H15F 1.0141719618924225 0.8152519750722739 -0.058204333673036686 0.0
C16F C16F 0.6790513673447354 0.713553024823473 -0.06934965674002164 0.0
H16D H16D 0.6742186867478269 0.6624061114450898 -0.08981987700625879 0.0
H16E H16E 0.7172681825148931 0.7524018224737372 -0.06510211159412614 0.0
H16F H16F 0.6870075669789405 0.694715523669602 -0.08201555600233526 0.0
O7 O7 0.671612357997865 0.3229955347358414 0.14348908259427634 0.0
O8 O8 0.6754742142921453 0.34462602947899884 0.019704753647911213 0.0
Zn2 Zn2 0.576471001194784 0.280258880928142 0.17972578675382447 0.0
O1F O1F 0.5502670146714803 0.3169940146533204 0.07669272206410681 0.0
O2F O2F 0.5070864845201896 0.24415271821062784 0.12814961237049485 0.0
O3F O3F 0.2892570456281565 0.12138567794953002 0.07413674819850444 0.0
O4F O4F 0.11260308914020939 0.004795623445350389 -0.1251224268717849 0.0
O5F O5F 0.1343505330213298 0.09542769778422319 -0.11774036306375749 0.0
O6F O6F 0.30758612422063186 0.04639687856667754 -0.038444666128553545 0.0
C1F C1F 0.5142129428204245 0.27580861981259 0.0898318476644269 0.0
C2F C2F 0.4705572556652219 0.2500668273404398 0.06035025959361373 0.0
C3F C3F 0.3973608629971276 0.18827937467161537 0.08805363660044398 0.0
H3F H3F 0.3896861033073612 0.2000519107054732 0.1082024191954634 0.0
C4F C4F 0.3472756256659375 0.1655028340362787 0.05185166476742717 0.0
C5F C5F 0.35763722862320363 0.1841704030068821 0.001506160439938023 0.0
C6F C6F 0.42221410803633896 0.20593564787085375 0.004216080763528441 0.0
H6F H6F 0.41229092840090253 0.21986356692968215 -0.052754229732896854 0.0
C7F C7F 0.43754962050665736 0.2643749684673586 0.010519905591457414 0.0
H7F H7F 0.5153840386649583 0.2755141444495838 0.009734497208615158 0.0
C8F C8F 0.2827250260777351 0.15755343542998826 0.1088247659047511 0.0
H8F1 H8F1 0.23110019907129675 0.10884914479011551 0.08919782947809521 0.0
H8F2 H8F2 0.3405561069132574 0.10746504505841406 0.09933972854501483 0.0
H8F3 H8F3 0.2962866881960866 0.1813774093773689 0.12914747700042092 0.0
C9F C9F 0.14809632598510877 0.06713260311743627 -0.11077403976340616 0.0
C10F C10F 0.1923214041435482 0.0874838304020412 -0.07566980637597359 0.0
C11F C11F 0.2519622455892132 0.060891118250435444 -0.09963613142803891 0.0
H11F H11F 0.21064834379863578 0.03025756721014025 -0.08344412284114985 0.0
C12F C12F 0.2728933642220419 0.07750137223408118 -0.051460854705975445 0.0
C13F C13F 0.2916841751696087 0.1496646632911161 -0.03497490102859765 0.0
C14F C14F 0.27315159518033216 0.17489044420379893 -0.03962890010981874 0.0
H14F H14F 0.28849966271944943 0.21728185798282168 -0.03338528208247314 0.0
C15F C15F 0.23514035100421354 0.1367909619549666 -0.0650550783631995 0.0
H15F H15F 0.18263783896305477 0.16037995149168902 -0.07043503560740147 0.0
C16F C16F 0.3134450512727145 0.020702835055848346 -0.06927034646979163 0.0
H16D H16D 0.3207372098301424 0.009455939215842823 -0.036640149795207064 0.0
H16E H16E 0.27506697646309103 -0.01700990494611658 -0.06643762000730112 0.0
H16F H16F 0.3264916709090752 -0.00042948263436301884 -0.09901986183253475 0.0
Zn2 Zn2 0.7156634951711188 0.281742876579214 0.17424330320658568 0.0
O1F O1F 0.6674837480618921 0.279344511139921 0.06274806682307926 0.0
O2F O2F 0.7491287849352984 0.2421681438094046 0.13450507920018476 0.0
O3F O3F 0.880740743680265 0.15553015263647102 0.05193834828716651 0.0
O4F O4F 0.9998834344797249 0.10741407397427968 -0.1168168116499508 0.0
O5F O5F 0.8870719395168026 0.023080953555353993 -0.15154997016464028 0.0
O6F O6F 0.939352006632908 0.23727273419738243 -0.03523922881857493 0.0
C1F C1F 0.7187344628200291 0.2446969837289609 0.09309877787130322 0.0
C2F C2F 0.7672682423667941 0.22698072634748614 0.06065091221069934 0.0
C3F C3F 0.7980976910715329 0.20046708995694898 0.08057317266301876 0.0
H3F H3F 0.8076310706193554 0.21031241940970644 0.10298379174759671 0.0
C4F C4F 0.8383744257305484 0.16025836545260252 0.03655894026823665 0.0
C5F C5F 0.825421172768867 0.18489030136568427 -0.0034040663264897943 0.0
C6F C6F 0.7713124044956297 0.19222778281844716 -0.0028908146804300337 0.0
H6F H6F 0.7806046361750909 0.20637954263737235 -0.014673237723488556 0.0
C7F C7F 0.7590509666188473 0.22128201687622473 0.019905102072548364 0.0
H7F H7F 0.7235164024989407 0.2629105941769266 -0.0007377119786729364 0.0
C8F C8F 0.8354685394254261 0.15533121523115062 0.10269841104425215 0.0
H8F1 H8F1 0.8871495123377451 0.13460118457902429 0.13590233330753687 0.0
H8F2 H8F2 0.8931767959466723 0.2054122987758831 0.11117665565501801 0.0
H8F3 H8F3 0.83686645756428 0.07771141024898534 0.12961106586716484 0.0
C9F C9F 0.919562403268237 0.0614931925853143 -0.11612906702194568 0.0
C10F C10F 0.8931671023488501 0.10197028340343052 -0.09184799738837772 0.0
C11F C11F 0.9188015555418467 0.16638379339086554 -0.08730691061599748 0.0
H11F H11F 0.9738212250821303 0.1897451656915467 -0.08228516418842961 0.0
C12F C12F 0.905466503407284 0.17814375729199683 -0.04856095352509275 0.0
C13F C13F 0.83425276730057 0.15626312008376067 -0.016964347098564488 0.0
C14F C14F 0.8316454825117918 0.0766767895680917 -0.03321327255127027 0.0
H14F H14F 0.7842988593529651 0.06913181372676777 -0.019561616016628782 0.0
C15F C15F 0.8575172201661453 0.03527624444431034 -0.05472190151521119 0.0
H15F H15F 0.8159301831092007 0.015243351362861961 -0.062348201927745275 0.0
C16F C16F 0.9894567994759275 0.2955566203756063 -0.042775722861793 0.0
H16D H16D 1.0001623227032892 0.3340742965779089 -0.014762193800924146 0.0
H16E H16E 0.9921369505680608 0.30263460478983667 -0.07778600979504882 0.0
H16F H16F 0.9823167297563267 0.27830924658635603 -0.08952892397576266 0.0
Zn1 Zn1 0.3324929534581579 0.6618719933668344 0.41387629169302476 0.0
Zn2 Zn2 0.3709143268998157 0.7536257148401045 0.5183882129832559 0.0
O1F O1F 0.38668756903950513 0.7776733400836474 0.41473402733028636 0.0
O2F O2F 0.4145022654107571 0.8271218059713732 0.4635227245869682 0.0
O3F O3F 0.4999222797636655 1.0582333396030918 0.39525367398036987 0.0
O4F O4F 0.5649697961295922 1.2130618573333165 0.21007911132983184 0.0
O5F O5F 0.6394137078723611 1.2078114781121259 0.2110669400267654 0.0
O6F O6F 0.411760560936928 1.0138930345994315 0.2973696059378437 0.0
C1F C1F 0.4208325314818921 0.810585357234714 0.426859088590888 0.0
C2F C2F 0.4460955412816531 0.8704156714227239 0.38535019597555525 0.0
C3F C3F 0.4748437906855621 0.9326522162228077 0.4282423035714509 0.0
H3F H3F 0.46857737912153463 0.9405733091311116 0.43975234712372674 0.0
C4F C4F 0.48911711312570233 0.98276869265609 0.3804327741913644 0.0
C5F C5F 0.5061892623680292 0.9674710648315177 0.3253489194086614 0.0
C6F C6F 0.4760853457888785 0.9123636481223103 0.2966999573246297 0.0
H6F H6F 0.48271704299417356 0.9272684579308044 0.2821158844413331 0.0
C7F C7F 0.45371971222627133 0.8593007720581782 0.3525172989865677 0.0
H7F H7F 0.4326864633564934 0.7882386773442085 0.37091197202388343 0.0
C8F C8F 0.5301703382079461 1.069227571962534 0.44458214427749926 0.0
H8F1 H8F1 0.5176003246964888 1.1293666957969466 0.43781401757516025 0.0
H8F2 H8F2 0.4747008976365118 1.0552069654642449 0.4496637077105805 0.0
H8F3 H8F3 0.5936027266644454 1.0327483589051463 0.44667093590523077 0.0
C9F C9F 0.5911589155038387 1.1994647328784127 0.22437619338546028 0.0
C10F C10F 0.5709358605431728 1.1356363898233586 0.2545058729286779 0.0
C11F C11F 0.5231099985612437 1.0932397367982531 0.2622783706632025 0.0
H11F H11F 0.43642922071822876 1.128178204510626 0.23028359263531267 0.0
C12F C12F 0.47440854143003125 1.0237053843524981 0.2788611949478126 0.0
C13F C13F 0.5526760563191524 1.0479614098604602 0.3179166364682183 0.0
C14F C14F 0.5830585560412143 1.0761306213514517 0.2996784075301284 0.0
H14F H14F 0.6141546221350473 1.04083581055571 0.3232404968227896 0.0
C15F C15F 0.6042685925499057 1.1083923572731986 0.26027131846390883 0.0
H15F H15F 0.6682203218493679 1.1310918024876158 0.26674850215250817 0.0
C16F C16F 0.36534983857925585 1.0218196952386653 0.23925716918424483 0.0
H16D H16D 0.32304896977695996 0.9989113318504503 0.2864928624914596 0.0
H16E H16E 0.40123765712322024 1.1139808721930502 0.271782390417874 0.0
H16F H16F 0.3889112175855712 1.0364751612826666 0.25313427787525306 0.0
O7 O7 0.3262337368303673 0.6620103434292927 0.49095064701269714 0.0
O8 O8 0.33547442479378736 0.6713870016463842 0.32382117740657335 0.0
Zn2 Zn2 0.24070439839095825 0.6246542082543853 0.5031338109417527 0.0
O1F O1F 0.23884440898666937 0.6080117722643553 0.40989684660875864 0.0
O2F O2F 0.1610879801935608 0.6124224257414843 0.4652518793850397 0.0
O3F O3F -0.06928679721873521 0.45799700885331635 0.39760216817707744 0.0
O4F O4F -0.21943128162434758 0.3334505143377163 0.21464302966005674 0.0
O5F O5F -0.19872486256516161 0.4402466093353222 0.20311604167943706 0.0
O6F O6F -0.02000838755498538 0.3943891368444748 0.3029528332138627 0.0
C1F C1F 0.1826314576068854 0.6035052208082874 0.41005761418556325 0.0
C2F C2F 0.12357397885319567 0.5602393909693824 0.41048618915532986 0.0
C3F C3F 0.05343509189804252 0.5274425268016385 0.4096860772146401 0.0
H3F H3F 0.06051084274328022 0.5231419770650287 0.43839270989443585 0.0
C4F C4F -0.005974011512928562 0.5069647274800969 0.37695654085112545 0.0
C5F C5F 0.02349065184793969 0.5088730293643857 0.33652689383975626 0.0
C6F C6F 0.09585728056938561 0.5564541276315026 0.3124205841015189 0.0
H6F H6F 0.054577864975039435 0.5555399880725768 0.2963053684546836 0.0
C7F C7F 0.11931947043400443 0.5942295267100154 0.36138778318333176 0.0
H7F H7F 0.1754370936803391 0.6048011167065026 0.3192449101423542 0.0
C8F C8F -0.07290682171215793 0.4700947410967908 0.42910820574832037 0.0
H8F1 H8F1 -0.10845254731691742 0.43054102325392885 0.45080463937769055 0.0
H8F2 H8F2 -0.020838453661560067 0.4613218466797087 0.4844078920695577 0.0
H8F3 H8F3 -0.031303010463111985 0.5378281043313 0.44086026900772296 0.0
C9F C9F -0.20485149427939467 0.3894648541772297 0.21498061903442295 0.0
C10F C10F -0.1329292142162749 0.44536605482603564 0.25797925246844694 0.0
C11F C11F -0.10619219634966823 0.4084870626625551 0.2630136997153083 0.0
H11F H11F -0.08780293379695053 0.3771032185426987 0.24492099510305512 0.0
C12F C12F -0.04875055301380411 0.42308708263173633 0.28573824709162904 0.0
C13F C13F -0.043967265107778916 0.475741343591719 0.3012860485004418 0.0
C14F C14F -0.05453892714569347 0.5073773153939976 0.3035358771623242 0.0
H14F H14F -0.05513788683698356 0.5666400273950921 0.2972439219815726 0.0
C15F C15F -0.11218019844905769 0.49492247319222804 0.2604534740532107 0.0
H15F H15F -0.13636880099906876 0.4851682346346488 0.28008931951426796 0.0
C16F C16F 0.0005676812062144904 0.32964014847997536 0.27871350476469664 0.0
H16D H16D 0.013135848005353865 0.30264021608180275 0.29680915678470404 0.0
H16E H16E -0.0972812603397991 0.31026917567552 0.2699026249175276 0.0
H16F H16F -0.06175820264492381 0.35288700526505956 0.24654284192569606 0.0
Zn2 Zn2 0.3855486705418908 0.6175259749853079 0.5027316055169055 0.0
O1F O1F 0.3645055804821691 0.6129570053307045 0.42625795008405143 0.0
O2F O2F 0.40647417341757264 0.5933599620416086 0.4575564418975205 0.0
O3F O3F 0.5431501349214413 0.4917627057174416 0.38584964890399426 0.0
O4F O4F 0.6663200310352011 0.45843122015444115 0.20053633398210297 0.0
O5F O5F 0.5575154406719053 0.3712976110262288 0.2083076820190694 0.0
O6F O6F 0.5914918140039613 0.5683826064799435 0.29114316977595656 0.0
C1F C1F 0.39494018060854313 0.6019997248201951 0.4238116267609124 0.0
C2F C2F 0.40568257764530463 0.5825743033218028 0.39601147598913516 0.0
C3F C3F 0.4692982602827922 0.5545741089939714 0.4198042699794895 0.0
H3F H3F 0.48303878532819183 0.527410885081096 0.4385651904848347 0.0
C4F C4F 0.4982774222544998 0.49711988617248176 0.397465756251129 0.0
C5F C5F 0.47546064214662664 0.48567234514608026 0.34110448933076853 0.0
C6F C6F 0.448966644220511 0.5439639594210292 0.3354573327362569 0.0
H6F H6F 0.43027326089937606 0.5415802888795361 0.2992335291997099 0.0
C7F C7F 0.4177680837455568 0.5572454027931103 0.33669843032998586 0.0
H7F H7F 0.3612753138740946 0.5774389503495825 0.3440977748801786 0.0
C8F C8F 0.5431285130723831 0.46400613286005565 0.4360878541330336 0.0
H8F1 H8F1 0.5661605640060113 0.4812068464688924 0.4644925954500309 0.0
H8F2 H8F2 0.5542746835616975 0.49431347406972126 0.4802763111621666 0.0
H8F3 H8F3 0.4689357369790276 0.45997567361579556 0.4682450241554746 0.0
C9F C9F 0.575635985352634 0.39672681661568066 0.21376973800271315 0.0
C10F C10F 0.5607427900419937 0.42994170642001966 0.2439268037996376 0.0
C11F C11F 0.5937664379639322 0.48929353875746595 0.25737885724793014 0.0
H11F H11F 0.645102150724264 0.5235626420198349 0.23704024072009014 0.0
C12F C12F 0.5651174822495261 0.522851518252669 0.2947369204719705 0.0
C13F C13F 0.5285547537351172 0.4659839592268029 0.29439668835121796 0.0
C14F C14F 0.4920296718819649 0.4161658951339374 0.29289125743305144 0.0
H14F H14F 0.46927343066475946 0.40969054644625424 0.31167322670132364 0.0
C15F C15F 0.516589519692785 0.36333229441557624 0.27730106928556114 0.0
H15F H15F 0.4814951728076845 0.325143047932132 0.25165254532356 0.0
C16F C16F 0.6337325717025547 0.6338747675090066 0.2869458693835245 0.0
H16D H16D 0.703978148423429 0.7205465813139449 0.28975150973745184 0.0
H16E H16E 0.6795968427255912 0.6522665849192884 0.28853496151058167 0.0
H16F H16F 0.6126838050766863 0.6518702375490845 0.23315414962691292 0.0
