_cell_length_a 23.68994
_cell_length_b 23.68994
_cell_length_c 30.80587
_cell_angle_alpha 90.0
_cell_angle_beta 90.0
_cell_angle_gamma 120.0
_symmetry_space_group_name_H-M         'P 1'
_symmetry_Int_Tables_number            1
loop_
_symmetry_equiv_pos_as_xyz
   'x, y, z'
                         
loop_
_atom_site_label
_atom_site_type_symbol
_atom_site_fract_x 
_atom_site_fract_y
_atom_site_fract_z
_atom_site_charge
Zn1 Zn1 0.0 0.0 0.24653116 0.0
Zn2 Zn2 -0.04349513 -0.08701513 0.1592418 0.0
O1F O1F -0.06666 -0.09194 0.25603 0.0
O2F O2F -0.083017 -0.15697 0.20204 0.0
O3F O3F -0.18301 -0.38207 0.27008 0.0
O4F O4F -0.22237 -0.54814 0.45723 0.0
O5F O5F -0.31304 -0.54176 0.46194 0.0
O6F O6F -0.07973 -0.34843 0.36942 0.0
C1F C1F -0.08435 -0.14625 0.24144 0.0
C2F C2F -0.11076 -0.20365 0.27154 0.0
C3F C3F -0.13407 -0.26576 0.25514 0.0
H3F H3F -0.1333 -0.272 0.2247 0.0
C4F C4F -0.15846 -0.31845 0.28284 0.0
C5F C5F -0.15956 -0.30905 0.32733 0.0
C6F C6F -0.13577 -0.24726 0.34294 0.0
H6F H6F -0.1354 -0.2404 0.3733 0.0
C7F C7F -0.11208 -0.19466 0.31514 0.0
H7F H7F -0.0966 -0.152 0.3264 0.0
C8F C8F -0.1965 -0.3942 0.22401 0.0
H8F1 H8F1 -0.2077 -0.4396 0.2176 0.0
H8F2 H8F2 -0.1566 -0.3648 0.2075 0.0
H8F3 H8F3 -0.2317 -0.3874 0.2156 0.0
C9F C9F -0.25796 -0.52455 0.44714 0.0
C10F C10F -0.23326 -0.46855 0.41634 0.0
C11F C11F -0.16816 -0.43345 0.40754 0.0
H11F H11F -0.1391 -0.4445 0.4213 0.0
C12F C12F -0.14386 -0.38174 0.37843 0.0
C13F C13F -0.18555 -0.36545 0.35813 0.0
C14F C14F -0.25076 -0.39895 0.36834 0.0
H14F H14F -0.2793 -0.3864 0.3555 0.0
C15F C15F -0.27496 -0.45046 0.39714 0.0
H15F H15F -0.3201 -0.4735 0.4039 0.0
C16F C16F -0.03555 -0.36377 0.39305 0.0
H16D H16D 0.009 -0.3363 0.3823 0.0
H16E H16E -0.0489 -0.4097 0.3886 0.0
H16F H16F -0.0371 -0.3555 0.4241 0.0
O7 O7 0.0 0.0 0.181908 0.0
O8 O8 0.0 0.0 0.31712 0.0
_cell_length_a 23.68994
_cell_length_b 23.68994
_cell_length_c 30.80587
_cell_angle_alpha 90.0
_cell_angle_beta 90.0
_cell_angle_gamma 120.0
_symmetry_space_group_name_H-M         'P 1'
_symmetry_Int_Tables_number            1
loop_
_symmetry_equiv_pos_as_xyz
   'x, y, z'
                         
loop_
_atom_site_label
_atom_site_type_symbol
_atom_site_fract_x 
_atom_site_fract_y
_atom_site_fract_z
_atom_site_charge
Zn1 Zn1 0.0 0.0 0.24653116 0.0
Zn2 Zn2 -0.04349513 -0.08701513 0.1592418 0.0
O1F O1F -0.06666 -0.09194 0.25603 0.0
O2F O2F -0.083017 -0.15697 0.20204 0.0
O3F O3F -0.18301 -0.38207 0.27008 0.0
O4F O4F -0.22237 -0.54814 0.45723 0.0
O5F O5F -0.31304 -0.54176 0.46194 0.0
O6F O6F -0.07973 -0.34843 0.36942 0.0
C1F C1F -0.08435 -0.14625 0.24144 0.0
C2F C2F -0.11076 -0.20365 0.27154 0.0
C3F C3F -0.13407 -0.26576 0.25514 0.0
H3F H3F -0.1333 -0.272 0.2247 0.0
C4F C4F -0.15846 -0.31845 0.28284 0.0
C5F C5F -0.15956 -0.30905 0.32733 0.0
C6F C6F -0.13577 -0.24726 0.34294 0.0
H6F H6F -0.1354 -0.2404 0.3733 0.0
C7F C7F -0.11208 -0.19466 0.31514 0.0
H7F H7F -0.0966 -0.152 0.3264 0.0
C8F C8F -0.1965 -0.3942 0.22401 0.0
H8F1 H8F1 -0.2077 -0.4396 0.2176 0.0
H8F2 H8F2 -0.1566 -0.3648 0.2075 0.0
H8F3 H8F3 -0.2317 -0.3874 0.2156 0.0
C9F C9F -0.25796 -0.52455 0.44714 0.0
C10F C10F -0.23326 -0.46855 0.41634 0.0
C11F C11F -0.16816 -0.43345 0.40754 0.0
H11F H11F -0.1391 -0.4445 0.4213 0.0
C12F C12F -0.14386 -0.38174 0.37843 0.0
C13F C13F -0.18555 -0.36545 0.35813 0.0
C14F C14F -0.25076 -0.39895 0.36834 0.0
H14F H14F -0.2793 -0.3864 0.3555 0.0
C15F C15F -0.27496 -0.45046 0.39714 0.0
H15F H15F -0.3201 -0.4735 0.4039 0.0
C16F C16F -0.03555 -0.36377 0.39305 0.0
H16D H16D 0.009 -0.3363 0.3823 0.0
H16E H16E -0.0489 -0.4097 0.3886 0.0
H16F H16F -0.0371 -0.3555 0.4241 0.0
O7 O7 0.0 0.0 0.181908 0.0
O8 O8 0.0 0.0 0.31712 0.0
_cell_length_a 23.68994
_cell_length_b 23.68994
_cell_length_c 30.80587
_cell_angle_alpha 90.0
_cell_angle_beta 90.0
_cell_angle_gamma 120.0
_symmetry_space_group_name_H-M         'P 1'
_symmetry_Int_Tables_number            1
loop_
_symmetry_equiv_pos_as_xyz
   'x, y, z'
                         
loop_
_atom_site_label
_atom_site_type_symbol
_atom_site_fract_x 
_atom_site_fract_y
_atom_site_fract_z
_atom_site_charge
Zn1 Zn1 0.0 0.0 0.24653116 0.0
Zn2 Zn2 -0.04349513 -0.08701513 0.1592418 0.0
O1F O1F -0.06666 -0.09194 0.25603 0.0
O2F O2F -0.083017 -0.15697 0.20204 0.0
O3F O3F -0.18301 -0.38207 0.27008 0.0
O4F O4F -0.22237 -0.54814 0.45723 0.0
O5F O5F -0.31304 -0.54176 0.46194 0.0
O6F O6F -0.07973 -0.34843 0.36942 0.0
C1F C1F -0.08435 -0.14625 0.24144 0.0
C2F C2F -0.11076 -0.20365 0.27154 0.0
C3F C3F -0.13407 -0.26576 0.25514 0.0
H3F H3F -0.1333 -0.272 0.2247 0.0
C4F C4F -0.15846 -0.31845 0.28284 0.0
C5F C5F -0.15956 -0.30905 0.32733 0.0
C6F C6F -0.13577 -0.24726 0.34294 0.0
H6F H6F -0.1354 -0.2404 0.3733 0.0
C7F C7F -0.11208 -0.19466 0.31514 0.0
H7F H7F -0.0966 -0.152 0.3264 0.0
C8F C8F -0.1965 -0.3942 0.22401 0.0
H8F1 H8F1 -0.2077 -0.4396 0.2176 0.0
H8F2 H8F2 -0.1566 -0.3648 0.2075 0.0
H8F3 H8F3 -0.2317 -0.3874 0.2156 0.0
C9F C9F -0.25796 -0.52455 0.44714 0.0
C10F C10F -0.23326 -0.46855 0.41634 0.0
C11F C11F -0.16816 -0.43345 0.40754 0.0
H11F H11F -0.1391 -0.4445 0.4213 0.0
C12F C12F -0.14386 -0.38174 0.37843 0.0
C13F C13F -0.18555 -0.36545 0.35813 0.0
C14F C14F -0.25076 -0.39895 0.36834 0.0
H14F H14F -0.2793 -0.3864 0.3555 0.0
C15F C15F -0.27496 -0.45046 0.39714 0.0
H15F H15F -0.3201 -0.4735 0.4039 0.0
C16F C16F -0.03555 -0.36377 0.39305 0.0
H16D H16D 0.009 -0.3363 0.3823 0.0
H16E H16E -0.0489 -0.4097 0.3886 0.0
H16F H16F -0.0371 -0.3555 0.4241 0.0
O7 O7 0.0 0.0 0.181908 0.0
O8 O8 0.0 0.0 0.31712 0.0
_cell_length_a 23.68994
_cell_length_b 23.68994
_cell_length_c 30.80587
_cell_angle_alpha 90.0
_cell_angle_beta 90.0
_cell_angle_gamma 120.0
_symmetry_space_group_name_H-M         'P 1'
_symmetry_Int_Tables_number            1
loop_
_symmetry_equiv_pos_as_xyz
   'x, y, z'
                         
loop_
_atom_site_label
_atom_site_type_symbol
_atom_site_fract_x 
_atom_site_fract_y
_atom_site_fract_z
_atom_site_charge
Zn1 Zn1 0.0 0.0 0.24653116 0.0
Zn2 Zn2 -0.04349513 -0.08701513 0.1592418 0.0
O1F O1F -0.06666 -0.09194 0.25603 0.0
O2F O2F -0.083017 -0.15697 0.20204 0.0
O3F O3F -0.18301 -0.38207 0.27008 0.0
O4F O4F -0.22237 -0.54814 0.45723 0.0
O5F O5F -0.31304 -0.54176 0.46194 0.0
O6F O6F -0.07973 -0.34843 0.36942 0.0
C1F C1F -0.08435 -0.14625 0.24144 0.0
C2F C2F -0.11076 -0.20365 0.27154 0.0
C3F C3F -0.13407 -0.26576 0.25514 0.0
H3F H3F -0.1333 -0.272 0.2247 0.0
C4F C4F -0.15846 -0.31845 0.28284 0.0
C5F C5F -0.15956 -0.30905 0.32733 0.0
C6F C6F -0.13577 -0.24726 0.34294 0.0
H6F H6F -0.1354 -0.2404 0.3733 0.0
C7F C7F -0.11208 -0.19466 0.31514 0.0
H7F H7F -0.0966 -0.152 0.3264 0.0
C8F C8F -0.1965 -0.3942 0.22401 0.0
H8F1 H8F1 -0.2077 -0.4396 0.2176 0.0
H8F2 H8F2 -0.1566 -0.3648 0.2075 0.0
H8F3 H8F3 -0.2317 -0.3874 0.2156 0.0
C9F C9F -0.25796 -0.52455 0.44714 0.0
C10F C10F -0.23326 -0.46855 0.41634 0.0
C11F C11F -0.16816 -0.43345 0.40754 0.0
H11F H11F -0.1391 -0.4445 0.4213 0.0
C12F C12F -0.14386 -0.38174 0.37843 0.0
C13F C13F -0.18555 -0.36545 0.35813 0.0
C14F C14F -0.25076 -0.39895 0.36834 0.0
H14F H14F -0.2793 -0.3864 0.3555 0.0
C15F C15F -0.27496 -0.45046 0.39714 0.0
H15F H15F -0.3201 -0.4735 0.4039 0.0
C16F C16F -0.03555 -0.36377 0.39305 0.0
H16D H16D 0.009 -0.3363 0.3823 0.0
H16E H16E -0.0489 -0.4097 0.3886 0.0
H16F H16F -0.0371 -0.3555 0.4241 0.0
O7 O7 0.0 0.0 0.181908 0.0
O8 O8 0.0 0.0 0.31712 0.0
_cell_length_a 23.68994
_cell_length_b 23.68994
_cell_length_c 30.80587
_cell_angle_alpha 90.0
_cell_angle_beta 90.0
_cell_angle_gamma 120.0
_symmetry_space_group_name_H-M         'P 1'
_symmetry_Int_Tables_number            1
loop_
_symmetry_equiv_pos_as_xyz
   'x, y, z'
                         
loop_
_atom_site_label
_atom_site_type_symbol
_atom_site_fract_x 
_atom_site_fract_y
_atom_site_fract_z
_atom_site_charge
Zn1 Zn1 0.0 0.0 0.24653116 0.0
Zn2 Zn2 -0.04349513 -0.08701513 0.1592418 0.0
O1F O1F -0.06666 -0.09194 0.25603 0.0
O2F O2F -0.083017 -0.15697 0.20204 0.0
O3F O3F -0.18301 -0.38207 0.27008 0.0
O4F O4F -0.22237 -0.54814 0.45723 0.0
O5F O5F -0.31304 -0.54176 0.46194 0.0
O6F O6F -0.07973 -0.34843 0.36942 0.0
C1F C1F -0.08435 -0.14625 0.24144 0.0
C2F C2F -0.11076 -0.20365 0.27154 0.0
C3F C3F -0.13407 -0.26576 0.25514 0.0
H3F H3F -0.1333 -0.272 0.2247 0.0
C4F C4F -0.15846 -0.31845 0.28284 0.0
C5F C5F -0.15956 -0.30905 0.32733 0.0
C6F C6F -0.13577 -0.24726 0.34294 0.0
H6F H6F -0.1354 -0.2404 0.3733 0.0
C7F C7F -0.11208 -0.19466 0.31514 0.0
H7F H7F -0.0966 -0.152 0.3264 0.0
C8F C8F -0.1965 -0.3942 0.22401 0.0
H8F1 H8F1 -0.2077 -0.4396 0.2176 0.0
H8F2 H8F2 -0.1566 -0.3648 0.2075 0.0
H8F3 H8F3 -0.2317 -0.3874 0.2156 0.0
C9F C9F -0.25796 -0.52455 0.44714 0.0
C10F C10F -0.23326 -0.46855 0.41634 0.0
C11F C11F -0.16816 -0.43345 0.40754 0.0
H11F H11F -0.1391 -0.4445 0.4213 0.0
C12F C12F -0.14386 -0.38174 0.37843 0.0
C13F C13F -0.18555 -0.36545 0.35813 0.0
C14F C14F -0.25076 -0.39895 0.36834 0.0
H14F H14F -0.2793 -0.3864 0.3555 0.0
C15F C15F -0.27496 -0.45046 0.39714 0.0
H15F H15F -0.3201 -0.4735 0.4039 0.0
C16F C16F -0.03555 -0.36377 0.39305 0.0
H16D H16D 0.009 -0.3363 0.3823 0.0
H16E H16E -0.0489 -0.4097 0.3886 0.0
H16F H16F -0.0371 -0.3555 0.4241 0.0
O7 O7 0.0 0.0 0.181908 0.0
O8 O8 0.0 0.0 0.31712 0.0
_cell_length_a 23.68994
_cell_length_b 23.68994
_cell_length_c 30.80587
_cell_angle_alpha 90.0
_cell_angle_beta 90.0
_cell_angle_gamma 120.0
_symmetry_space_group_name_H-M         'P 1'
_symmetry_Int_Tables_number            1
loop_
_symmetry_equiv_pos_as_xyz
   'x, y, z'
                         
loop_
_atom_site_label
_atom_site_type_symbol
_atom_site_fract_x 
_atom_site_fract_y
_atom_site_fract_z
_atom_site_charge
Zn1 Zn1 0.0 0.0 0.24653116 0.0
Zn2 Zn2 -0.04349513 -0.08701513 0.1592418 0.0
O1F O1F -0.06666 -0.09194 0.25603 0.0
O2F O2F -0.083017 -0.15697 0.20204 0.0
O3F O3F -0.18301 -0.38207 0.27008 0.0
O4F O4F -0.22237 -0.54814 0.45723 0.0
O5F O5F -0.31304 -0.54176 0.46194 0.0
O6F O6F -0.07973 -0.34843 0.36942 0.0
C1F C1F -0.08435 -0.14625 0.24144 0.0
C2F C2F -0.11076 -0.20365 0.27154 0.0
C3F C3F -0.13407 -0.26576 0.25514 0.0
H3F H3F -0.1333 -0.272 0.2247 0.0
C4F C4F -0.15846 -0.31845 0.28284 0.0
C5F C5F -0.15956 -0.30905 0.32733 0.0
C6F C6F -0.13577 -0.24726 0.34294 0.0
H6F H6F -0.1354 -0.2404 0.3733 0.0
C7F C7F -0.11208 -0.19466 0.31514 0.0
H7F H7F -0.0966 -0.152 0.3264 0.0
C8F C8F -0.1965 -0.3942 0.22401 0.0
H8F1 H8F1 -0.2077 -0.4396 0.2176 0.0
H8F2 H8F2 -0.1566 -0.3648 0.2075 0.0
H8F3 H8F3 -0.2317 -0.3874 0.2156 0.0
C9F C9F -0.25796 -0.52455 0.44714 0.0
C10F C10F -0.23326 -0.46855 0.41634 0.0
C11F C11F -0.16816 -0.43345 0.40754 0.0
H11F H11F -0.1391 -0.4445 0.4213 0.0
C12F C12F -0.14386 -0.38174 0.37843 0.0
C13F C13F -0.18555 -0.36545 0.35813 0.0
C14F C14F -0.25076 -0.39895 0.36834 0.0
H14F H14F -0.2793 -0.3864 0.3555 0.0
C15F C15F -0.27496 -0.45046 0.39714 0.0
H15F H15F -0.3201 -0.4735 0.4039 0.0
C16F C16F -0.03555 -0.36377 0.39305 0.0
H16D H16D 0.009 -0.3363 0.3823 0.0
H16E H16E -0.0489 -0.4097 0.3886 0.0
H16F H16F -0.0371 -0.3555 0.4241 0.0
O7 O7 0.0 0.0 0.181908 0.0
O8 O8 0.0 0.0 0.31712 0.0
_cell_length_a 23.68994
_cell_length_b 23.68994
_cell_length_c 30.80587
_cell_angle_alpha 90.0
_cell_angle_beta 90.0
_cell_angle_gamma 120.0
_symmetry_space_group_name_H-M         'P 1'
_symmetry_Int_Tables_number            1
loop_
_symmetry_equiv_pos_as_xyz
   'x, y, z'
                         
loop_
_atom_site_label
_atom_site_type_symbol
_atom_site_fract_x 
_atom_site_fract_y
_atom_site_fract_z
_atom_site_charge
Zn1 Zn1 0.0 0.0 0.24653116 0.0
Zn2 Zn2 -0.04349513 -0.08701513 0.1592418 0.0
O1F O1F -0.06666 -0.09194 0.25603 0.0
O2F O2F -0.083017 -0.15697 0.20204 0.0
O3F O3F -0.18301 -0.38207 0.27008 0.0
O4F O4F -0.22237 -0.54814 0.45723 0.0
O5F O5F -0.31304 -0.54176 0.46194 0.0
O6F O6F -0.07973 -0.34843 0.36942 0.0
C1F C1F -0.08435 -0.14625 0.24144 0.0
C2F C2F -0.11076 -0.20365 0.27154 0.0
C3F C3F -0.13407 -0.26576 0.25514 0.0
H3F H3F -0.1333 -0.272 0.2247 0.0
C4F C4F -0.15846 -0.31845 0.28284 0.0
C5F C5F -0.15956 -0.30905 0.32733 0.0
C6F C6F -0.13577 -0.24726 0.34294 0.0
H6F H6F -0.1354 -0.2404 0.3733 0.0
C7F C7F -0.11208 -0.19466 0.31514 0.0
H7F H7F -0.0966 -0.152 0.3264 0.0
C8F C8F -0.1965 -0.3942 0.22401 0.0
H8F1 H8F1 -0.2077 -0.4396 0.2176 0.0
H8F2 H8F2 -0.1566 -0.3648 0.2075 0.0
H8F3 H8F3 -0.2317 -0.3874 0.2156 0.0
C9F C9F -0.25796 -0.52455 0.44714 0.0
C10F C10F -0.23326 -0.46855 0.41634 0.0
C11F C11F -0.16816 -0.43345 0.40754 0.0
H11F H11F -0.1391 -0.4445 0.4213 0.0
C12F C12F -0.14386 -0.38174 0.37843 0.0
C13F C13F -0.18555 -0.36545 0.35813 0.0
C14F C14F -0.25076 -0.39895 0.36834 0.0
H14F H14F -0.2793 -0.3864 0.3555 0.0
C15F C15F -0.27496 -0.45046 0.39714 0.0
H15F H15F -0.3201 -0.4735 0.4039 0.0
C16F C16F -0.03555 -0.36377 0.39305 0.0
H16D H16D 0.009 -0.3363 0.3823 0.0
H16E H16E -0.0489 -0.4097 0.3886 0.0
H16F H16F -0.0371 -0.3555 0.4241 0.0
O7 O7 0.0 0.0 0.181908 0.0
O8 O8 0.0 0.0 0.31712 0.0
_cell_length_a 23.68994
_cell_length_b 23.68994
_cell_length_c 30.80587
_cell_angle_alpha 90.0
_cell_angle_beta 90.0
_cell_angle_gamma 120.0
_symmetry_space_group_name_H-M         'P 1'
_symmetry_Int_Tables_number            1
loop_
_symmetry_equiv_pos_as_xyz
   'x, y, z'
                         
loop_
_atom_site_label
_atom_site_type_symbol
_atom_site_fract_x 
_atom_site_fract_y
_atom_site_fract_z
_atom_site_charge
Zn1 Zn1 0.0 0.0 0.24653116 0.0
Zn2 Zn2 -0.04349513 -0.08701513 0.1592418 0.0
O1F O1F -0.06666 -0.09194 0.25603 0.0
O2F O2F -0.083017 -0.15697 0.20204 0.0
O3F O3F -0.18301 -0.38207 0.27008 0.0
O4F O4F -0.22237 -0.54814 0.45723 0.0
O5F O5F -0.31304 -0.54176 0.46194 0.0
O6F O6F -0.07973 -0.34843 0.36942 0.0
C1F C1F -0.08435 -0.14625 0.24144 0.0
C2F C2F -0.11076 -0.20365 0.27154 0.0
C3F C3F -0.13407 -0.26576 0.25514 0.0
H3F H3F -0.1333 -0.272 0.2247 0.0
C4F C4F -0.15846 -0.31845 0.28284 0.0
C5F C5F -0.15956 -0.30905 0.32733 0.0
C6F C6F -0.13577 -0.24726 0.34294 0.0
H6F H6F -0.1354 -0.2404 0.3733 0.0
C7F C7F -0.11208 -0.19466 0.31514 0.0
H7F H7F -0.0966 -0.152 0.3264 0.0
C8F C8F -0.1965 -0.3942 0.22401 0.0
H8F1 H8F1 -0.2077 -0.4396 0.2176 0.0
H8F2 H8F2 -0.1566 -0.3648 0.2075 0.0
H8F3 H8F3 -0.2317 -0.3874 0.2156 0.0
C9F C9F -0.25796 -0.52455 0.44714 0.0
C10F C10F -0.23326 -0.46855 0.41634 0.0
C11F C11F -0.16816 -0.43345 0.40754 0.0
H11F H11F -0.1391 -0.4445 0.4213 0.0
C12F C12F -0.14386 -0.38174 0.37843 0.0
C13F C13F -0.18555 -0.36545 0.35813 0.0
C14F C14F -0.25076 -0.39895 0.36834 0.0
H14F H14F -0.2793 -0.3864 0.3555 0.0
C15F C15F -0.27496 -0.45046 0.39714 0.0
H15F H15F -0.3201 -0.4735 0.4039 0.0
C16F C16F -0.03555 -0.36377 0.39305 0.0
H16D H16D 0.009 -0.3363 0.3823 0.0
H16E H16E -0.0489 -0.4097 0.3886 0.0
H16F H16F -0.0371 -0.3555 0.4241 0.0
O7 O7 0.0 0.0 0.181908 0.0
O8 O8 0.0 0.0 0.31712 0.0
_cell_length_a 23.68994
_cell_length_b 23.68994
_cell_length_c 30.80587
_cell_angle_alpha 90.0
_cell_angle_beta 90.0
_cell_angle_gamma 120.0
_symmetry_space_group_name_H-M         'P 1'
_symmetry_Int_Tables_number            1
loop_
_symmetry_equiv_pos_as_xyz
   'x, y, z'
                         
loop_
_atom_site_label
_atom_site_type_symbol
_atom_site_fract_x 
_atom_site_fract_y
_atom_site_fract_z
_atom_site_charge
Zn1 Zn1 0.0 0.0 0.24653116 0.0
Zn2 Zn2 -0.04349513 -0.08701513 0.1592418 0.0
O1F O1F -0.06666 -0.09194 0.25603 0.0
O2F O2F -0.083017 -0.15697 0.20204 0.0
O3F O3F -0.18301 -0.38207 0.27008 0.0
O4F O4F -0.22237 -0.54814 0.45723 0.0
O5F O5F -0.31304 -0.54176 0.46194 0.0
O6F O6F -0.07973 -0.34843 0.36942 0.0
C1F C1F -0.08435 -0.14625 0.24144 0.0
C2F C2F -0.11076 -0.20365 0.27154 0.0
C3F C3F -0.13407 -0.26576 0.25514 0.0
H3F H3F -0.1333 -0.272 0.2247 0.0
C4F C4F -0.15846 -0.31845 0.28284 0.0
C5F C5F -0.15956 -0.30905 0.32733 0.0
C6F C6F -0.13577 -0.24726 0.34294 0.0
H6F H6F -0.1354 -0.2404 0.3733 0.0
C7F C7F -0.11208 -0.19466 0.31514 0.0
H7F H7F -0.0966 -0.152 0.3264 0.0
C8F C8F -0.1965 -0.3942 0.22401 0.0
H8F1 H8F1 -0.2077 -0.4396 0.2176 0.0
H8F2 H8F2 -0.1566 -0.3648 0.2075 0.0
H8F3 H8F3 -0.2317 -0.3874 0.2156 0.0
C9F C9F -0.25796 -0.52455 0.44714 0.0
C10F C10F -0.23326 -0.46855 0.41634 0.0
C11F C11F -0.16816 -0.43345 0.40754 0.0
H11F H11F -0.1391 -0.4445 0.4213 0.0
C12F C12F -0.14386 -0.38174 0.37843 0.0
C13F C13F -0.18555 -0.36545 0.35813 0.0
C14F C14F -0.25076 -0.39895 0.36834 0.0
H14F H14F -0.2793 -0.3864 0.3555 0.0
C15F C15F -0.27496 -0.45046 0.39714 0.0
H15F H15F -0.3201 -0.4735 0.4039 0.0
C16F C16F -0.03555 -0.36377 0.39305 0.0
H16D H16D 0.009 -0.3363 0.3823 0.0
H16E H16E -0.0489 -0.4097 0.3886 0.0
H16F H16F -0.0371 -0.3555 0.4241 0.0
O7 O7 0.0 0.0 0.181908 0.0
O8 O8 0.0 0.0 0.31712 0.0
_cell_length_a 23.68994
_cell_length_b 23.68994
_cell_length_c 30.80587
_cell_angle_alpha 90.0
_cell_angle_beta 90.0
_cell_angle_gamma 120.0
_symmetry_space_group_name_H-M         'P 1'
_symmetry_Int_Tables_number            1
loop_
_symmetry_equiv_pos_as_xyz
   'x, y, z'
                         
loop_
_atom_site_label
_atom_site_type_symbol
_atom_site_fract_x 
_atom_site_fract_y
_atom_site_fract_z
_atom_site_charge
Zn1 Zn1 0.0 0.0 0.24653116 0.0
Zn2 Zn2 -0.04349513 -0.08701513 0.1592418 0.0
O1F O1F -0.06666 -0.09194 0.25603 0.0
O2F O2F -0.083017 -0.15697 0.20204 0.0
O3F O3F -0.18301 -0.38207 0.27008 0.0
O4F O4F -0.22237 -0.54814 0.45723 0.0
O5F O5F -0.31304 -0.54176 0.46194 0.0
O6F O6F -0.07973 -0.34843 0.36942 0.0
C1F C1F -0.08435 -0.14625 0.24144 0.0
C2F C2F -0.11076 -0.20365 0.27154 0.0
C3F C3F -0.13407 -0.26576 0.25514 0.0
H3F H3F -0.1333 -0.272 0.2247 0.0
C4F C4F -0.15846 -0.31845 0.28284 0.0
C5F C5F -0.15956 -0.30905 0.32733 0.0
C6F C6F -0.13577 -0.24726 0.34294 0.0
H6F H6F -0.1354 -0.2404 0.3733 0.0
C7F C7F -0.11208 -0.19466 0.31514 0.0
H7F H7F -0.0966 -0.152 0.3264 0.0
C8F C8F -0.1965 -0.3942 0.22401 0.0
H8F1 H8F1 -0.2077 -0.4396 0.2176 0.0
H8F2 H8F2 -0.1566 -0.3648 0.2075 0.0
H8F3 H8F3 -0.2317 -0.3874 0.2156 0.0
C9F C9F -0.25796 -0.52455 0.44714 0.0
C10F C10F -0.23326 -0.46855 0.41634 0.0
C11F C11F -0.16816 -0.43345 0.40754 0.0
H11F H11F -0.1391 -0.4445 0.4213 0.0
C12F C12F -0.14386 -0.38174 0.37843 0.0
C13F C13F -0.18555 -0.36545 0.35813 0.0
C14F C14F -0.25076 -0.39895 0.36834 0.0
H14F H14F -0.2793 -0.3864 0.3555 0.0
C15F C15F -0.27496 -0.45046 0.39714 0.0
H15F H15F -0.3201 -0.4735 0.4039 0.0
C16F C16F -0.03555 -0.36377 0.39305 0.0
H16D H16D 0.009 -0.3363 0.3823 0.0
H16E H16E -0.0489 -0.4097 0.3886 0.0
H16F H16F -0.0371 -0.3555 0.4241 0.0
O7 O7 0.0 0.0 0.181908 0.0
O8 O8 0.0 0.0 0.31712 0.0
_cell_length_a 23.68994
_cell_length_b 23.68994
_cell_length_c 30.80587
_cell_angle_alpha 90.0
_cell_angle_beta 90.0
_cell_angle_gamma 120.0
_symmetry_space_group_name_H-M         'P 1'
_symmetry_Int_Tables_number            1
loop_
_symmetry_equiv_pos_as_xyz
   'x, y, z'
                         
loop_
_atom_site_label
_atom_site_type_symbol
_atom_site_fract_x 
_atom_site_fract_y
_atom_site_fract_z
_atom_site_charge
Zn1 Zn1 0.0 0.0 0.24653116 0.0
Zn2 Zn2 -0.04349513 -0.08701513 0.1592418 0.0
O1F O1F -0.06666 -0.09194 0.25603 0.0
O2F O2F -0.083017 -0.15697 0.20204 0.0
O3F O3F -0.18301 -0.38207 0.27008 0.0
O4F O4F -0.22237 -0.54814 0.45723 0.0
O5F O5F -0.31304 -0.54176 0.46194 0.0
O6F O6F -0.07973 -0.34843 0.36942 0.0
C1F C1F -0.08435 -0.14625 0.24144 0.0
C2F C2F -0.11076 -0.20365 0.27154 0.0
C3F C3F -0.13407 -0.26576 0.25514 0.0
H3F H3F -0.1333 -0.272 0.2247 0.0
C4F C4F -0.15846 -0.31845 0.28284 0.0
C5F C5F -0.15956 -0.30905 0.32733 0.0
C6F C6F -0.13577 -0.24726 0.34294 0.0
H6F H6F -0.1354 -0.2404 0.3733 0.0
C7F C7F -0.11208 -0.19466 0.31514 0.0
H7F H7F -0.0966 -0.152 0.3264 0.0
C8F C8F -0.1965 -0.3942 0.22401 0.0
H8F1 H8F1 -0.2077 -0.4396 0.2176 0.0
H8F2 H8F2 -0.1566 -0.3648 0.2075 0.0
H8F3 H8F3 -0.2317 -0.3874 0.2156 0.0
C9F C9F -0.25796 -0.52455 0.44714 0.0
C10F C10F -0.23326 -0.46855 0.41634 0.0
C11F C11F -0.16816 -0.43345 0.40754 0.0
H11F H11F -0.1391 -0.4445 0.4213 0.0
C12F C12F -0.14386 -0.38174 0.37843 0.0
C13F C13F -0.18555 -0.36545 0.35813 0.0
C14F C14F -0.25076 -0.39895 0.36834 0.0
H14F H14F -0.2793 -0.3864 0.3555 0.0
C15F C15F -0.27496 -0.45046 0.39714 0.0
H15F H15F -0.3201 -0.4735 0.4039 0.0
C16F C16F -0.03555 -0.36377 0.39305 0.0
H16D H16D 0.009 -0.3363 0.3823 0.0
H16E H16E -0.0489 -0.4097 0.3886 0.0
H16F H16F -0.0371 -0.3555 0.4241 0.0
O7 O7 0.0 0.0 0.181908 0.0
O8 O8 0.0 0.0 0.31712 0.0
_cell_length_a 23.68994
_cell_length_b 23.68994
_cell_length_c 30.80587
_cell_angle_alpha 90.0
_cell_angle_beta 90.0
_cell_angle_gamma 120.0
_symmetry_space_group_name_H-M         'P 1'
_symmetry_Int_Tables_number            1
loop_
_symmetry_equiv_pos_as_xyz
   'x, y, z'
                         
loop_
_atom_site_label
_atom_site_type_symbol
_atom_site_fract_x 
_atom_site_fract_y
_atom_site_fract_z
_atom_site_charge
Zn1 Zn1 0.0 0.0 0.24653116 0.0
Zn2 Zn2 -0.04349513 -0.08701513 0.1592418 0.0
O1F O1F -0.06666 -0.09194 0.25603 0.0
O2F O2F -0.083017 -0.15697 0.20204 0.0
O3F O3F -0.18301 -0.38207 0.27008 0.0
O4F O4F -0.22237 -0.54814 0.45723 0.0
O5F O5F -0.31304 -0.54176 0.46194 0.0
O6F O6F -0.07973 -0.34843 0.36942 0.0
C1F C1F -0.08435 -0.14625 0.24144 0.0
C2F C2F -0.11076 -0.20365 0.27154 0.0
C3F C3F -0.13407 -0.26576 0.25514 0.0
H3F H3F -0.1333 -0.272 0.2247 0.0
C4F C4F -0.15846 -0.31845 0.28284 0.0
C5F C5F -0.15956 -0.30905 0.32733 0.0
C6F C6F -0.13577 -0.24726 0.34294 0.0
H6F H6F -0.1354 -0.2404 0.3733 0.0
C7F C7F -0.11208 -0.19466 0.31514 0.0
H7F H7F -0.0966 -0.152 0.3264 0.0
C8F C8F -0.1965 -0.3942 0.22401 0.0
H8F1 H8F1 -0.2077 -0.4396 0.2176 0.0
H8F2 H8F2 -0.1566 -0.3648 0.2075 0.0
H8F3 H8F3 -0.2317 -0.3874 0.2156 0.0
C9F C9F -0.25796 -0.52455 0.44714 0.0
C10F C10F -0.23326 -0.46855 0.41634 0.0
C11F C11F -0.16816 -0.43345 0.40754 0.0
H11F H11F -0.1391 -0.4445 0.4213 0.0
C12F C12F -0.14386 -0.38174 0.37843 0.0
C13F C13F -0.18555 -0.36545 0.35813 0.0
C14F C14F -0.25076 -0.39895 0.36834 0.0
H14F H14F -0.2793 -0.3864 0.3555 0.0
C15F C15F -0.27496 -0.45046 0.39714 0.0
H15F H15F -0.3201 -0.4735 0.4039 0.0
C16F C16F -0.03555 -0.36377 0.39305 0.0
H16D H16D 0.009 -0.3363 0.3823 0.0
H16E H16E -0.0489 -0.4097 0.3886 0.0
H16F H16F -0.0371 -0.3555 0.4241 0.0
O7 O7 0.0 0.0 0.181908 0.0
O8 O8 0.0 0.0 0.31712 0.0
_cell_length_a 23.68994
_cell_length_b 23.68994
_cell_length_c 30.80587
_cell_angle_alpha 90.0
_cell_angle_beta 90.0
_cell_angle_gamma 120.0
_symmetry_space_group_name_H-M         'P 1'
_symmetry_Int_Tables_number            1
loop_
_symmetry_equiv_pos_as_xyz
   'x, y, z'
                         
loop_
_atom_site_label
_atom_site_type_symbol
_atom_site_fract_x 
_atom_site_fract_y
_atom_site_fract_z
_atom_site_charge
Zn1 Zn1 0.0 0.0 0.24653116 0.0
Zn2 Zn2 -0.04349513 -0.08701513 0.1592418 0.0
O1F O1F -0.06666 -0.09194 0.25603 0.0
O2F O2F -0.083017 -0.15697 0.20204 0.0
O3F O3F -0.18301 -0.38207 0.27008 0.0
O4F O4F -0.22237 -0.54814 0.45723 0.0
O5F O5F -0.31304 -0.54176 0.46194 0.0
O6F O6F -0.07973 -0.34843 0.36942 0.0
C1F C1F -0.08435 -0.14625 0.24144 0.0
C2F C2F -0.11076 -0.20365 0.27154 0.0
C3F C3F -0.13407 -0.26576 0.25514 0.0
H3F H3F -0.1333 -0.272 0.2247 0.0
C4F C4F -0.15846 -0.31845 0.28284 0.0
C5F C5F -0.15956 -0.30905 0.32733 0.0
C6F C6F -0.13577 -0.24726 0.34294 0.0
H6F H6F -0.1354 -0.2404 0.3733 0.0
C7F C7F -0.11208 -0.19466 0.31514 0.0
H7F H7F -0.0966 -0.152 0.3264 0.0
C8F C8F -0.1965 -0.3942 0.22401 0.0
H8F1 H8F1 -0.2077 -0.4396 0.2176 0.0
H8F2 H8F2 -0.1566 -0.3648 0.2075 0.0
H8F3 H8F3 -0.2317 -0.3874 0.2156 0.0
C9F C9F -0.25796 -0.52455 0.44714 0.0
C10F C10F -0.23326 -0.46855 0.41634 0.0
C11F C11F -0.16816 -0.43345 0.40754 0.0
H11F H11F -0.1391 -0.4445 0.4213 0.0
C12F C12F -0.14386 -0.38174 0.37843 0.0
C13F C13F -0.18555 -0.36545 0.35813 0.0
C14F C14F -0.25076 -0.39895 0.36834 0.0
H14F H14F -0.2793 -0.3864 0.3555 0.0
C15F C15F -0.27496 -0.45046 0.39714 0.0
H15F H15F -0.3201 -0.4735 0.4039 0.0
C16F C16F -0.03555 -0.36377 0.39305 0.0
H16D H16D 0.009 -0.3363 0.3823 0.0
H16E H16E -0.0489 -0.4097 0.3886 0.0
H16F H16F -0.0371 -0.3555 0.4241 0.0
O7 O7 0.0 0.0 0.181908 0.0
O8 O8 0.0 0.0 0.31712 0.0
_cell_length_a 23.68994
_cell_length_b 23.68994
_cell_length_c 30.80587
_cell_angle_alpha 90.0
_cell_angle_beta 90.0
_cell_angle_gamma 120.0
_symmetry_space_group_name_H-M         'P 1'
_symmetry_Int_Tables_number            1
loop_
_symmetry_equiv_pos_as_xyz
   'x, y, z'
                         
loop_
_atom_site_label
_atom_site_type_symbol
_atom_site_fract_x 
_atom_site_fract_y
_atom_site_fract_z
_atom_site_charge
Zn1 Zn1 0.0 0.0 0.24653116 0.0
Zn2 Zn2 -0.04349513 -0.08701513 0.1592418 0.0
O1F O1F -0.06666 -0.09194 0.25603 0.0
O2F O2F -0.083017 -0.15697 0.20204 0.0
O3F O3F -0.18301 -0.38207 0.27008 0.0
O4F O4F -0.22237 -0.54814 0.45723 0.0
O5F O5F -0.31304 -0.54176 0.46194 0.0
O6F O6F -0.07973 -0.34843 0.36942 0.0
C1F C1F -0.08435 -0.14625 0.24144 0.0
C2F C2F -0.11076 -0.20365 0.27154 0.0
C3F C3F -0.13407 -0.26576 0.25514 0.0
H3F H3F -0.1333 -0.272 0.2247 0.0
C4F C4F -0.15846 -0.31845 0.28284 0.0
C5F C5F -0.15956 -0.30905 0.32733 0.0
C6F C6F -0.13577 -0.24726 0.34294 0.0
H6F H6F -0.1354 -0.2404 0.3733 0.0
C7F C7F -0.11208 -0.19466 0.31514 0.0
H7F H7F -0.0966 -0.152 0.3264 0.0
C8F C8F -0.1965 -0.3942 0.22401 0.0
H8F1 H8F1 -0.2077 -0.4396 0.2176 0.0
H8F2 H8F2 -0.1566 -0.3648 0.2075 0.0
H8F3 H8F3 -0.2317 -0.3874 0.2156 0.0
C9F C9F -0.25796 -0.52455 0.44714 0.0
C10F C10F -0.23326 -0.46855 0.41634 0.0
C11F C11F -0.16816 -0.43345 0.40754 0.0
H11F H11F -0.1391 -0.4445 0.4213 0.0
C12F C12F -0.14386 -0.38174 0.37843 0.0
C13F C13F -0.18555 -0.36545 0.35813 0.0
C14F C14F -0.25076 -0.39895 0.36834 0.0
H14F H14F -0.2793 -0.3864 0.3555 0.0
C15F C15F -0.27496 -0.45046 0.39714 0.0
H15F H15F -0.3201 -0.4735 0.4039 0.0
C16F C16F -0.03555 -0.36377 0.39305 0.0
H16D H16D 0.009 -0.3363 0.3823 0.0
H16E H16E -0.0489 -0.4097 0.3886 0.0
H16F H16F -0.0371 -0.3555 0.4241 0.0
O7 O7 0.0 0.0 0.181908 0.0
O8 O8 0.0 0.0 0.31712 0.0
_cell_length_a 23.68994
_cell_length_b 23.68994
_cell_length_c 30.80587
_cell_angle_alpha 90.0
_cell_angle_beta 90.0
_cell_angle_gamma 120.0
_symmetry_space_group_name_H-M         'P 1'
_symmetry_Int_Tables_number            1
loop_
_symmetry_equiv_pos_as_xyz
   'x, y, z'
                         
loop_
_atom_site_label
_atom_site_type_symbol
_atom_site_fract_x 
_atom_site_fract_y
_atom_site_fract_z
_atom_site_charge
Zn1 Zn1 0.0 0.0 0.24653116 0.0
Zn2 Zn2 -0.04349513 -0.08701513 0.1592418 0.0
O1F O1F -0.06666 -0.09194 0.25603 0.0
O2F O2F -0.083017 -0.15697 0.20204 0.0
O3F O3F -0.18301 -0.38207 0.27008 0.0
O4F O4F -0.22237 -0.54814 0.45723 0.0
O5F O5F -0.31304 -0.54176 0.46194 0.0
O6F O6F -0.07973 -0.34843 0.36942 0.0
C1F C1F -0.08435 -0.14625 0.24144 0.0
C2F C2F -0.11076 -0.20365 0.27154 0.0
C3F C3F -0.13407 -0.26576 0.25514 0.0
H3F H3F -0.1333 -0.272 0.2247 0.0
C4F C4F -0.15846 -0.31845 0.28284 0.0
C5F C5F -0.15956 -0.30905 0.32733 0.0
C6F C6F -0.13577 -0.24726 0.34294 0.0
H6F H6F -0.1354 -0.2404 0.3733 0.0
C7F C7F -0.11208 -0.19466 0.31514 0.0
H7F H7F -0.0966 -0.152 0.3264 0.0
C8F C8F -0.1965 -0.3942 0.22401 0.0
H8F1 H8F1 -0.2077 -0.4396 0.2176 0.0
H8F2 H8F2 -0.1566 -0.3648 0.2075 0.0
H8F3 H8F3 -0.2317 -0.3874 0.2156 0.0
C9F C9F -0.25796 -0.52455 0.44714 0.0
C10F C10F -0.23326 -0.46855 0.41634 0.0
C11F C11F -0.16816 -0.43345 0.40754 0.0
H11F H11F -0.1391 -0.4445 0.4213 0.0
C12F C12F -0.14386 -0.38174 0.37843 0.0
C13F C13F -0.18555 -0.36545 0.35813 0.0
C14F C14F -0.25076 -0.39895 0.36834 0.0
H14F H14F -0.2793 -0.3864 0.3555 0.0
C15F C15F -0.27496 -0.45046 0.39714 0.0
H15F H15F -0.3201 -0.4735 0.4039 0.0
C16F C16F -0.03555 -0.36377 0.39305 0.0
H16D H16D 0.009 -0.3363 0.3823 0.0
H16E H16E -0.0489 -0.4097 0.3886 0.0
H16F H16F -0.0371 -0.3555 0.4241 0.0
O7 O7 0.0 0.0 0.181908 0.0
O8 O8 0.0 0.0 0.31712 0.0
_cell_length_a 23.68994
_cell_length_b 23.68994
_cell_length_c 30.80587
_cell_angle_alpha 90.0
_cell_angle_beta 90.0
_cell_angle_gamma 120.0
_symmetry_space_group_name_H-M         'P 1'
_symmetry_Int_Tables_number            1
loop_
_symmetry_equiv_pos_as_xyz
   'x, y, z'
                         
loop_
_atom_site_label
_atom_site_type_symbol
_atom_site_fract_x 
_atom_site_fract_y
_atom_site_fract_z
_atom_site_charge
Zn1 Zn1 0.0 0.0 0.24653116 0.0
Zn2 Zn2 -0.04349513 -0.08701513 0.1592418 0.0
O1F O1F -0.06666 -0.09194 0.25603 0.0
O2F O2F -0.083017 -0.15697 0.20204 0.0
O3F O3F -0.18301 -0.38207 0.27008 0.0
O4F O4F -0.22237 -0.54814 0.45723 0.0
O5F O5F -0.31304 -0.54176 0.46194 0.0
O6F O6F -0.07973 -0.34843 0.36942 0.0
C1F C1F -0.08435 -0.14625 0.24144 0.0
C2F C2F -0.11076 -0.20365 0.27154 0.0
C3F C3F -0.13407 -0.26576 0.25514 0.0
H3F H3F -0.1333 -0.272 0.2247 0.0
C4F C4F -0.15846 -0.31845 0.28284 0.0
C5F C5F -0.15956 -0.30905 0.32733 0.0
C6F C6F -0.13577 -0.24726 0.34294 0.0
H6F H6F -0.1354 -0.2404 0.3733 0.0
C7F C7F -0.11208 -0.19466 0.31514 0.0
H7F H7F -0.0966 -0.152 0.3264 0.0
C8F C8F -0.1965 -0.3942 0.22401 0.0
H8F1 H8F1 -0.2077 -0.4396 0.2176 0.0
H8F2 H8F2 -0.1566 -0.3648 0.2075 0.0
H8F3 H8F3 -0.2317 -0.3874 0.2156 0.0
C9F C9F -0.25796 -0.52455 0.44714 0.0
C10F C10F -0.23326 -0.46855 0.41634 0.0
C11F C11F -0.16816 -0.43345 0.40754 0.0
H11F H11F -0.1391 -0.4445 0.4213 0.0
C12F C12F -0.14386 -0.38174 0.37843 0.0
C13F C13F -0.18555 -0.36545 0.35813 0.0
C14F C14F -0.25076 -0.39895 0.36834 0.0
H14F H14F -0.2793 -0.3864 0.3555 0.0
C15F C15F -0.27496 -0.45046 0.39714 0.0
H15F H15F -0.3201 -0.4735 0.4039 0.0
C16F C16F -0.03555 -0.36377 0.39305 0.0
H16D H16D 0.009 -0.3363 0.3823 0.0
H16E H16E -0.0489 -0.4097 0.3886 0.0
H16F H16F -0.0371 -0.3555 0.4241 0.0
O7 O7 0.0 0.0 0.181908 0.0
O8 O8 0.0 0.0 0.31712 0.0
_cell_length_a 23.68994
_cell_length_b 23.68994
_cell_length_c 30.80587
_cell_angle_alpha 90.0
_cell_angle_beta 90.0
_cell_angle_gamma 120.0
_symmetry_space_group_name_H-M         'P 1'
_symmetry_Int_Tables_number            1
loop_
_symmetry_equiv_pos_as_xyz
   'x, y, z'
                         
loop_
_atom_site_label
_atom_site_type_symbol
_atom_site_fract_x 
_atom_site_fract_y
_atom_site_fract_z
_atom_site_charge
Zn1 Zn1 0.0 0.0 0.24653116 0.0
Zn2 Zn2 -0.04349513 -0.08701513 0.1592418 0.0
O1F O1F -0.06666 -0.09194 0.25603 0.0
O2F O2F -0.083017 -0.15697 0.20204 0.0
O3F O3F -0.18301 -0.38207 0.27008 0.0
O4F O4F -0.22237 -0.54814 0.45723 0.0
O5F O5F -0.31304 -0.54176 0.46194 0.0
O6F O6F -0.07973 -0.34843 0.36942 0.0
C1F C1F -0.08435 -0.14625 0.24144 0.0
C2F C2F -0.11076 -0.20365 0.27154 0.0
C3F C3F -0.13407 -0.26576 0.25514 0.0
H3F H3F -0.1333 -0.272 0.2247 0.0
C4F C4F -0.15846 -0.31845 0.28284 0.0
C5F C5F -0.15956 -0.30905 0.32733 0.0
C6F C6F -0.13577 -0.24726 0.34294 0.0
H6F H6F -0.1354 -0.2404 0.3733 0.0
C7F C7F -0.11208 -0.19466 0.31514 0.0
H7F H7F -0.0966 -0.152 0.3264 0.0
C8F C8F -0.1965 -0.3942 0.22401 0.0
H8F1 H8F1 -0.2077 -0.4396 0.2176 0.0
H8F2 H8F2 -0.1566 -0.3648 0.2075 0.0
H8F3 H8F3 -0.2317 -0.3874 0.2156 0.0
C9F C9F -0.25796 -0.52455 0.44714 0.0
C10F C10F -0.23326 -0.46855 0.41634 0.0
C11F C11F -0.16816 -0.43345 0.40754 0.0
H11F H11F -0.1391 -0.4445 0.4213 0.0
C12F C12F -0.14386 -0.38174 0.37843 0.0
C13F C13F -0.18555 -0.36545 0.35813 0.0
C14F C14F -0.25076 -0.39895 0.36834 0.0
H14F H14F -0.2793 -0.3864 0.3555 0.0
C15F C15F -0.27496 -0.45046 0.39714 0.0
H15F H15F -0.3201 -0.4735 0.4039 0.0
C16F C16F -0.03555 -0.36377 0.39305 0.0
H16D H16D 0.009 -0.3363 0.3823 0.0
H16E H16E -0.0489 -0.4097 0.3886 0.0
H16F H16F -0.0371 -0.3555 0.4241 0.0
O7 O7 0.0 0.0 0.181908 0.0
O8 O8 0.0 0.0 0.31712 0.0
_cell_length_a 23.68994
_cell_length_b 23.68994
_cell_length_c 30.80587
_cell_angle_alpha 90.0
_cell_angle_beta 90.0
_cell_angle_gamma 120.0
_symmetry_space_group_name_H-M         'P 1'
_symmetry_Int_Tables_number            1
loop_
_symmetry_equiv_pos_as_xyz
   'x, y, z'
                         
loop_
_atom_site_label
_atom_site_type_symbol
_atom_site_fract_x 
_atom_site_fract_y
_atom_site_fract_z
_atom_site_charge
Zn1 Zn1 0.0 0.0 0.24653116 0.0
Zn2 Zn2 -0.04349513 -0.08701513 0.1592418 0.0
O1F O1F -0.06666 -0.09194 0.25603 0.0
O2F O2F -0.083017 -0.15697 0.20204 0.0
O3F O3F -0.18301 -0.38207 0.27008 0.0
O4F O4F -0.22237 -0.54814 0.45723 0.0
O5F O5F -0.31304 -0.54176 0.46194 0.0
O6F O6F -0.07973 -0.34843 0.36942 0.0
C1F C1F -0.08435 -0.14625 0.24144 0.0
C2F C2F -0.11076 -0.20365 0.27154 0.0
C3F C3F -0.13407 -0.26576 0.25514 0.0
H3F H3F -0.1333 -0.272 0.2247 0.0
C4F C4F -0.15846 -0.31845 0.28284 0.0
C5F C5F -0.15956 -0.30905 0.32733 0.0
C6F C6F -0.13577 -0.24726 0.34294 0.0
H6F H6F -0.1354 -0.2404 0.3733 0.0
C7F C7F -0.11208 -0.19466 0.31514 0.0
H7F H7F -0.0966 -0.152 0.3264 0.0
C8F C8F -0.1965 -0.3942 0.22401 0.0
H8F1 H8F1 -0.2077 -0.4396 0.2176 0.0
H8F2 H8F2 -0.1566 -0.3648 0.2075 0.0
H8F3 H8F3 -0.2317 -0.3874 0.2156 0.0
C9F C9F -0.25796 -0.52455 0.44714 0.0
C10F C10F -0.23326 -0.46855 0.41634 0.0
C11F C11F -0.16816 -0.43345 0.40754 0.0
H11F H11F -0.1391 -0.4445 0.4213 0.0
C12F C12F -0.14386 -0.38174 0.37843 0.0
C13F C13F -0.18555 -0.36545 0.35813 0.0
C14F C14F -0.25076 -0.39895 0.36834 0.0
H14F H14F -0.2793 -0.3864 0.3555 0.0
C15F C15F -0.27496 -0.45046 0.39714 0.0
H15F H15F -0.3201 -0.4735 0.4039 0.0
C16F C16F -0.03555 -0.36377 0.39305 0.0
H16D H16D 0.009 -0.3363 0.3823 0.0
H16E H16E -0.0489 -0.4097 0.3886 0.0
H16F H16F -0.0371 -0.3555 0.4241 0.0
O7 O7 0.0 0.0 0.181908 0.0
O8 O8 0.0 0.0 0.31712 0.0
_cell_length_a 23.68994
_cell_length_b 23.68994
_cell_length_c 30.80587
_cell_angle_alpha 90.0
_cell_angle_beta 90.0
_cell_angle_gamma 120.0
_symmetry_space_group_name_H-M         'P 1'
_symmetry_Int_Tables_number            1
loop_
_symmetry_equiv_pos_as_xyz
   'x, y, z'
                         
loop_
_atom_site_label
_atom_site_type_symbol
_atom_site_fract_x 
_atom_site_fract_y
_atom_site_fract_z
_atom_site_charge
Zn1 Zn1 0.0 0.0 0.24653116 0.0
Zn2 Zn2 -0.04349513 -0.08701513 0.1592418 0.0
O1F O1F -0.06666 -0.09194 0.25603 0.0
O2F O2F -0.083017 -0.15697 0.20204 0.0
O3F O3F -0.18301 -0.38207 0.27008 0.0
O4F O4F -0.22237 -0.54814 0.45723 0.0
O5F O5F -0.31304 -0.54176 0.46194 0.0
O6F O6F -0.07973 -0.34843 0.36942 0.0
C1F C1F -0.08435 -0.14625 0.24144 0.0
C2F C2F -0.11076 -0.20365 0.27154 0.0
C3F C3F -0.13407 -0.26576 0.25514 0.0
H3F H3F -0.1333 -0.272 0.2247 0.0
C4F C4F -0.15846 -0.31845 0.28284 0.0
C5F C5F -0.15956 -0.30905 0.32733 0.0
C6F C6F -0.13577 -0.24726 0.34294 0.0
H6F H6F -0.1354 -0.2404 0.3733 0.0
C7F C7F -0.11208 -0.19466 0.31514 0.0
H7F H7F -0.0966 -0.152 0.3264 0.0
C8F C8F -0.1965 -0.3942 0.22401 0.0
H8F1 H8F1 -0.2077 -0.4396 0.2176 0.0
H8F2 H8F2 -0.1566 -0.3648 0.2075 0.0
H8F3 H8F3 -0.2317 -0.3874 0.2156 0.0
C9F C9F -0.25796 -0.52455 0.44714 0.0
C10F C10F -0.23326 -0.46855 0.41634 0.0
C11F C11F -0.16816 -0.43345 0.40754 0.0
H11F H11F -0.1391 -0.4445 0.4213 0.0
C12F C12F -0.14386 -0.38174 0.37843 0.0
C13F C13F -0.18555 -0.36545 0.35813 0.0
C14F C14F -0.25076 -0.39895 0.36834 0.0
H14F H14F -0.2793 -0.3864 0.3555 0.0
C15F C15F -0.27496 -0.45046 0.39714 0.0
H15F H15F -0.3201 -0.4735 0.4039 0.0
C16F C16F -0.03555 -0.36377 0.39305 0.0
H16D H16D 0.009 -0.3363 0.3823 0.0
H16E H16E -0.0489 -0.4097 0.3886 0.0
H16F H16F -0.0371 -0.3555 0.4241 0.0
O7 O7 0.0 0.0 0.181908 0.0
O8 O8 0.0 0.0 0.31712 0.0
_cell_length_a 23.68994
_cell_length_b 23.68994
_cell_length_c 30.80587
_cell_angle_alpha 90.0
_cell_angle_beta 90.0
_cell_angle_gamma 120.0
_symmetry_space_group_name_H-M         'P 1'
_symmetry_Int_Tables_number            1
loop_
_symmetry_equiv_pos_as_xyz
   'x, y, z'
                         
loop_
_atom_site_label
_atom_site_type_symbol
_atom_site_fract_x 
_atom_site_fract_y
_atom_site_fract_z
_atom_site_charge
Zn1 Zn1 0.0 0.0 0.24653116 0.0
Zn2 Zn2 -0.04349513 -0.08701513 0.1592418 0.0
O1F O1F -0.06666 -0.09194 0.25603 0.0
O2F O2F -0.083017 -0.15697 0.20204 0.0
O3F O3F -0.18301 -0.38207 0.27008 0.0
O4F O4F -0.22237 -0.54814 0.45723 0.0
O5F O5F -0.31304 -0.54176 0.46194 0.0
O6F O6F -0.07973 -0.34843 0.36942 0.0
C1F C1F -0.08435 -0.14625 0.24144 0.0
C2F C2F -0.11076 -0.20365 0.27154 0.0
C3F C3F -0.13407 -0.26576 0.25514 0.0
H3F H3F -0.1333 -0.272 0.2247 0.0
C4F C4F -0.15846 -0.31845 0.28284 0.0
C5F C5F -0.15956 -0.30905 0.32733 0.0
C6F C6F -0.13577 -0.24726 0.34294 0.0
H6F H6F -0.1354 -0.2404 0.3733 0.0
C7F C7F -0.11208 -0.19466 0.31514 0.0
H7F H7F -0.0966 -0.152 0.3264 0.0
C8F C8F -0.1965 -0.3942 0.22401 0.0
H8F1 H8F1 -0.2077 -0.4396 0.2176 0.0
H8F2 H8F2 -0.1566 -0.3648 0.2075 0.0
H8F3 H8F3 -0.2317 -0.3874 0.2156 0.0
C9F C9F -0.25796 -0.52455 0.44714 0.0
C10F C10F -0.23326 -0.46855 0.41634 0.0
C11F C11F -0.16816 -0.43345 0.40754 0.0
H11F H11F -0.1391 -0.4445 0.4213 0.0
C12F C12F -0.14386 -0.38174 0.37843 0.0
C13F C13F -0.18555 -0.36545 0.35813 0.0
C14F C14F -0.25076 -0.39895 0.36834 0.0
H14F H14F -0.2793 -0.3864 0.3555 0.0
C15F C15F -0.27496 -0.45046 0.39714 0.0
H15F H15F -0.3201 -0.4735 0.4039 0.0
C16F C16F -0.03555 -0.36377 0.39305 0.0
H16D H16D 0.009 -0.3363 0.3823 0.0
H16E H16E -0.0489 -0.4097 0.3886 0.0
H16F H16F -0.0371 -0.3555 0.4241 0.0
O7 O7 0.0 0.0 0.181908 0.0
O8 O8 0.0 0.0 0.31712 0.0
_cell_length_a 23.68994
_cell_length_b 23.68994
_cell_length_c 30.80587
_cell_angle_alpha 90.0
_cell_angle_beta 90.0
_cell_angle_gamma 120.0
_symmetry_space_group_name_H-M         'P 1'
_symmetry_Int_Tables_number            1
loop_
_symmetry_equiv_pos_as_xyz
   'x, y, z'
                         
loop_
_atom_site_label
_atom_site_type_symbol
_atom_site_fract_x 
_atom_site_fract_y
_atom_site_fract_z
_atom_site_charge
Zn1 Zn1 0.0 0.0 0.24653116 0.0
Zn2 Zn2 -0.04349513 -0.08701513 0.1592418 0.0
O1F O1F -0.06666 -0.09194 0.25603 0.0
O2F O2F -0.083017 -0.15697 0.20204 0.0
O3F O3F -0.18301 -0.38207 0.27008 0.0
O4F O4F -0.22237 -0.54814 0.45723 0.0
O5F O5F -0.31304 -0.54176 0.46194 0.0
O6F O6F -0.07973 -0.34843 0.36942 0.0
C1F C1F -0.08435 -0.14625 0.24144 0.0
C2F C2F -0.11076 -0.20365 0.27154 0.0
C3F C3F -0.13407 -0.26576 0.25514 0.0
H3F H3F -0.1333 -0.272 0.2247 0.0
C4F C4F -0.15846 -0.31845 0.28284 0.0
C5F C5F -0.15956 -0.30905 0.32733 0.0
C6F C6F -0.13577 -0.24726 0.34294 0.0
H6F H6F -0.1354 -0.2404 0.3733 0.0
C7F C7F -0.11208 -0.19466 0.31514 0.0
H7F H7F -0.0966 -0.152 0.3264 0.0
C8F C8F -0.1965 -0.3942 0.22401 0.0
H8F1 H8F1 -0.2077 -0.4396 0.2176 0.0
H8F2 H8F2 -0.1566 -0.3648 0.2075 0.0
H8F3 H8F3 -0.2317 -0.3874 0.2156 0.0
C9F C9F -0.25796 -0.52455 0.44714 0.0
C10F C10F -0.23326 -0.46855 0.41634 0.0
C11F C11F -0.16816 -0.43345 0.40754 0.0
H11F H11F -0.1391 -0.4445 0.4213 0.0
C12F C12F -0.14386 -0.38174 0.37843 0.0
C13F C13F -0.18555 -0.36545 0.35813 0.0
C14F C14F -0.25076 -0.39895 0.36834 0.0
H14F H14F -0.2793 -0.3864 0.3555 0.0
C15F C15F -0.27496 -0.45046 0.39714 0.0
H15F H15F -0.3201 -0.4735 0.4039 0.0
C16F C16F -0.03555 -0.36377 0.39305 0.0
H16D H16D 0.009 -0.3363 0.3823 0.0
H16E H16E -0.0489 -0.4097 0.3886 0.0
H16F H16F -0.0371 -0.3555 0.4241 0.0
O7 O7 0.0 0.0 0.181908 0.0
O8 O8 0.0 0.0 0.31712 0.0
_cell_length_a 23.68994
_cell_length_b 23.68994
_cell_length_c 30.80587
_cell_angle_alpha 90.0
_cell_angle_beta 90.0
_cell_angle_gamma 120.0
_symmetry_space_group_name_H-M         'P 1'
_symmetry_Int_Tables_number            1
loop_
_symmetry_equiv_pos_as_xyz
   'x, y, z'
                         
loop_
_atom_site_label
_atom_site_type_symbol
_atom_site_fract_x 
_atom_site_fract_y
_atom_site_fract_z
_atom_site_charge
Zn1 Zn1 0.0 0.0 0.24653116 0.0
Zn2 Zn2 -0.04349513 -0.08701513 0.1592418 0.0
O1F O1F -0.06666 -0.09194 0.25603 0.0
O2F O2F -0.083017 -0.15697 0.20204 0.0
O3F O3F -0.18301 -0.38207 0.27008 0.0
O4F O4F -0.22237 -0.54814 0.45723 0.0
O5F O5F -0.31304 -0.54176 0.46194 0.0
O6F O6F -0.07973 -0.34843 0.36942 0.0
C1F C1F -0.08435 -0.14625 0.24144 0.0
C2F C2F -0.11076 -0.20365 0.27154 0.0
C3F C3F -0.13407 -0.26576 0.25514 0.0
H3F H3F -0.1333 -0.272 0.2247 0.0
C4F C4F -0.15846 -0.31845 0.28284 0.0
C5F C5F -0.15956 -0.30905 0.32733 0.0
C6F C6F -0.13577 -0.24726 0.34294 0.0
H6F H6F -0.1354 -0.2404 0.3733 0.0
C7F C7F -0.11208 -0.19466 0.31514 0.0
H7F H7F -0.0966 -0.152 0.3264 0.0
C8F C8F -0.1965 -0.3942 0.22401 0.0
H8F1 H8F1 -0.2077 -0.4396 0.2176 0.0
H8F2 H8F2 -0.1566 -0.3648 0.2075 0.0
H8F3 H8F3 -0.2317 -0.3874 0.2156 0.0
C9F C9F -0.25796 -0.52455 0.44714 0.0
C10F C10F -0.23326 -0.46855 0.41634 0.0
C11F C11F -0.16816 -0.43345 0.40754 0.0
H11F H11F -0.1391 -0.4445 0.4213 0.0
C12F C12F -0.14386 -0.38174 0.37843 0.0
C13F C13F -0.18555 -0.36545 0.35813 0.0
C14F C14F -0.25076 -0.39895 0.36834 0.0
H14F H14F -0.2793 -0.3864 0.3555 0.0
C15F C15F -0.27496 -0.45046 0.39714 0.0
H15F H15F -0.3201 -0.4735 0.4039 0.0
C16F C16F -0.03555 -0.36377 0.39305 0.0
H16D H16D 0.009 -0.3363 0.3823 0.0
H16E H16E -0.0489 -0.4097 0.3886 0.0
H16F H16F -0.0371 -0.3555 0.4241 0.0
O7 O7 0.0 0.0 0.181908 0.0
O8 O8 0.0 0.0 0.31712 0.0
_cell_length_a 23.68994
_cell_length_b 23.68994
_cell_length_c 30.80587
_cell_angle_alpha 90.0
_cell_angle_beta 90.0
_cell_angle_gamma 120.0
_symmetry_space_group_name_H-M         'P 1'
_symmetry_Int_Tables_number            1
loop_
_symmetry_equiv_pos_as_xyz
   'x, y, z'
                         
loop_
_atom_site_label
_atom_site_type_symbol
_atom_site_fract_x 
_atom_site_fract_y
_atom_site_fract_z
_atom_site_charge
Zn1 Zn1 0.0 0.0 0.24653116 0.0
Zn2 Zn2 -0.04349513 -0.08701513 0.1592418 0.0
O1F O1F -0.06666 -0.09194 0.25603 0.0
O2F O2F -0.083017 -0.15697 0.20204 0.0
O3F O3F -0.18301 -0.38207 0.27008 0.0
O4F O4F -0.22237 -0.54814 0.45723 0.0
O5F O5F -0.31304 -0.54176 0.46194 0.0
O6F O6F -0.07973 -0.34843 0.36942 0.0
C1F C1F -0.08435 -0.14625 0.24144 0.0
C2F C2F -0.11076 -0.20365 0.27154 0.0
C3F C3F -0.13407 -0.26576 0.25514 0.0
H3F H3F -0.1333 -0.272 0.2247 0.0
C4F C4F -0.15846 -0.31845 0.28284 0.0
C5F C5F -0.15956 -0.30905 0.32733 0.0
C6F C6F -0.13577 -0.24726 0.34294 0.0
H6F H6F -0.1354 -0.2404 0.3733 0.0
C7F C7F -0.11208 -0.19466 0.31514 0.0
H7F H7F -0.0966 -0.152 0.3264 0.0
C8F C8F -0.1965 -0.3942 0.22401 0.0
H8F1 H8F1 -0.2077 -0.4396 0.2176 0.0
H8F2 H8F2 -0.1566 -0.3648 0.2075 0.0
H8F3 H8F3 -0.2317 -0.3874 0.2156 0.0
C9F C9F -0.25796 -0.52455 0.44714 0.0
C10F C10F -0.23326 -0.46855 0.41634 0.0
C11F C11F -0.16816 -0.43345 0.40754 0.0
H11F H11F -0.1391 -0.4445 0.4213 0.0
C12F C12F -0.14386 -0.38174 0.37843 0.0
C13F C13F -0.18555 -0.36545 0.35813 0.0
C14F C14F -0.25076 -0.39895 0.36834 0.0
H14F H14F -0.2793 -0.3864 0.3555 0.0
C15F C15F -0.27496 -0.45046 0.39714 0.0
H15F H15F -0.3201 -0.4735 0.4039 0.0
C16F C16F -0.03555 -0.36377 0.39305 0.0
H16D H16D 0.009 -0.3363 0.3823 0.0
H16E H16E -0.0489 -0.4097 0.3886 0.0
H16F H16F -0.0371 -0.3555 0.4241 0.0
O7 O7 0.0 0.0 0.181908 0.0
O8 O8 0.0 0.0 0.31712 0.0
_cell_length_a 23.68994
_cell_length_b 23.68994
_cell_length_c 30.80587
_cell_angle_alpha 90.0
_cell_angle_beta 90.0
_cell_angle_gamma 120.0
_symmetry_space_group_name_H-M         'P 1'
_symmetry_Int_Tables_number            1
loop_
_symmetry_equiv_pos_as_xyz
   'x, y, z'
                         
loop_
_atom_site_label
_atom_site_type_symbol
_atom_site_fract_x 
_atom_site_fract_y
_atom_site_fract_z
_atom_site_charge
Zn1 Zn1 0.0 0.0 0.24653116 0.0
Zn2 Zn2 -0.04349513 -0.08701513 0.1592418 0.0
O1F O1F -0.06666 -0.09194 0.25603 0.0
O2F O2F -0.083017 -0.15697 0.20204 0.0
O3F O3F -0.18301 -0.38207 0.27008 0.0
O4F O4F -0.22237 -0.54814 0.45723 0.0
O5F O5F -0.31304 -0.54176 0.46194 0.0
O6F O6F -0.07973 -0.34843 0.36942 0.0
C1F C1F -0.08435 -0.14625 0.24144 0.0
C2F C2F -0.11076 -0.20365 0.27154 0.0
C3F C3F -0.13407 -0.26576 0.25514 0.0
H3F H3F -0.1333 -0.272 0.2247 0.0
C4F C4F -0.15846 -0.31845 0.28284 0.0
C5F C5F -0.15956 -0.30905 0.32733 0.0
C6F C6F -0.13577 -0.24726 0.34294 0.0
H6F H6F -0.1354 -0.2404 0.3733 0.0
C7F C7F -0.11208 -0.19466 0.31514 0.0
H7F H7F -0.0966 -0.152 0.3264 0.0
C8F C8F -0.1965 -0.3942 0.22401 0.0
H8F1 H8F1 -0.2077 -0.4396 0.2176 0.0
H8F2 H8F2 -0.1566 -0.3648 0.2075 0.0
H8F3 H8F3 -0.2317 -0.3874 0.2156 0.0
C9F C9F -0.25796 -0.52455 0.44714 0.0
C10F C10F -0.23326 -0.46855 0.41634 0.0
C11F C11F -0.16816 -0.43345 0.40754 0.0
H11F H11F -0.1391 -0.4445 0.4213 0.0
C12F C12F -0.14386 -0.38174 0.37843 0.0
C13F C13F -0.18555 -0.36545 0.35813 0.0
C14F C14F -0.25076 -0.39895 0.36834 0.0
H14F H14F -0.2793 -0.3864 0.3555 0.0
C15F C15F -0.27496 -0.45046 0.39714 0.0
H15F H15F -0.3201 -0.4735 0.4039 0.0
C16F C16F -0.03555 -0.36377 0.39305 0.0
H16D H16D 0.009 -0.3363 0.3823 0.0
H16E H16E -0.0489 -0.4097 0.3886 0.0
H16F H16F -0.0371 -0.3555 0.4241 0.0
O7 O7 0.0 0.0 0.181908 0.0
O8 O8 0.0 0.0 0.31712 0.0
_cell_length_a 23.68994
_cell_length_b 23.68994
_cell_length_c 30.80587
_cell_angle_alpha 90.0
_cell_angle_beta 90.0
_cell_angle_gamma 120.0
_symmetry_space_group_name_H-M         'P 1'
_symmetry_Int_Tables_number            1
loop_
_symmetry_equiv_pos_as_xyz
   'x, y, z'
                         
loop_
_atom_site_label
_atom_site_type_symbol
_atom_site_fract_x 
_atom_site_fract_y
_atom_site_fract_z
_atom_site_charge
Zn1 Zn1 0.0 0.0 0.24653116 0.0
Zn2 Zn2 -0.04349513 -0.08701513 0.1592418 0.0
O1F O1F -0.06666 -0.09194 0.25603 0.0
O2F O2F -0.083017 -0.15697 0.20204 0.0
O3F O3F -0.18301 -0.38207 0.27008 0.0
O4F O4F -0.22237 -0.54814 0.45723 0.0
O5F O5F -0.31304 -0.54176 0.46194 0.0
O6F O6F -0.07973 -0.34843 0.36942 0.0
C1F C1F -0.08435 -0.14625 0.24144 0.0
C2F C2F -0.11076 -0.20365 0.27154 0.0
C3F C3F -0.13407 -0.26576 0.25514 0.0
H3F H3F -0.1333 -0.272 0.2247 0.0
C4F C4F -0.15846 -0.31845 0.28284 0.0
C5F C5F -0.15956 -0.30905 0.32733 0.0
C6F C6F -0.13577 -0.24726 0.34294 0.0
H6F H6F -0.1354 -0.2404 0.3733 0.0
C7F C7F -0.11208 -0.19466 0.31514 0.0
H7F H7F -0.0966 -0.152 0.3264 0.0
C8F C8F -0.1965 -0.3942 0.22401 0.0
H8F1 H8F1 -0.2077 -0.4396 0.2176 0.0
H8F2 H8F2 -0.1566 -0.3648 0.2075 0.0
H8F3 H8F3 -0.2317 -0.3874 0.2156 0.0
C9F C9F -0.25796 -0.52455 0.44714 0.0
C10F C10F -0.23326 -0.46855 0.41634 0.0
C11F C11F -0.16816 -0.43345 0.40754 0.0
H11F H11F -0.1391 -0.4445 0.4213 0.0
C12F C12F -0.14386 -0.38174 0.37843 0.0
C13F C13F -0.18555 -0.36545 0.35813 0.0
C14F C14F -0.25076 -0.39895 0.36834 0.0
H14F H14F -0.2793 -0.3864 0.3555 0.0
C15F C15F -0.27496 -0.45046 0.39714 0.0
H15F H15F -0.3201 -0.4735 0.4039 0.0
C16F C16F -0.03555 -0.36377 0.39305 0.0
H16D H16D 0.009 -0.3363 0.3823 0.0
H16E H16E -0.0489 -0.4097 0.3886 0.0
H16F H16F -0.0371 -0.3555 0.4241 0.0
O7 O7 0.0 0.0 0.181908 0.0
O8 O8 0.0 0.0 0.31712 0.0
_cell_length_a 23.68994
_cell_length_b 23.68994
_cell_length_c 30.80587
_cell_angle_alpha 90.0
_cell_angle_beta 90.0
_cell_angle_gamma 120.0
_symmetry_space_group_name_H-M         'P 1'
_symmetry_Int_Tables_number            1
loop_
_symmetry_equiv_pos_as_xyz
   'x, y, z'
                         
loop_
_atom_site_label
_atom_site_type_symbol
_atom_site_fract_x 
_atom_site_fract_y
_atom_site_fract_z
_atom_site_charge
Zn1 Zn1 0.0 0.0 0.24653116 0.0
Zn2 Zn2 -0.04349513 -0.08701513 0.1592418 0.0
O1F O1F -0.06666 -0.09194 0.25603 0.0
O2F O2F -0.083017 -0.15697 0.20204 0.0
O3F O3F -0.18301 -0.38207 0.27008 0.0
O4F O4F -0.22237 -0.54814 0.45723 0.0
O5F O5F -0.31304 -0.54176 0.46194 0.0
O6F O6F -0.07973 -0.34843 0.36942 0.0
C1F C1F -0.08435 -0.14625 0.24144 0.0
C2F C2F -0.11076 -0.20365 0.27154 0.0
C3F C3F -0.13407 -0.26576 0.25514 0.0
H3F H3F -0.1333 -0.272 0.2247 0.0
C4F C4F -0.15846 -0.31845 0.28284 0.0
C5F C5F -0.15956 -0.30905 0.32733 0.0
C6F C6F -0.13577 -0.24726 0.34294 0.0
H6F H6F -0.1354 -0.2404 0.3733 0.0
C7F C7F -0.11208 -0.19466 0.31514 0.0
H7F H7F -0.0966 -0.152 0.3264 0.0
C8F C8F -0.1965 -0.3942 0.22401 0.0
H8F1 H8F1 -0.2077 -0.4396 0.2176 0.0
H8F2 H8F2 -0.1566 -0.3648 0.2075 0.0
H8F3 H8F3 -0.2317 -0.3874 0.2156 0.0
C9F C9F -0.25796 -0.52455 0.44714 0.0
C10F C10F -0.23326 -0.46855 0.41634 0.0
C11F C11F -0.16816 -0.43345 0.40754 0.0
H11F H11F -0.1391 -0.4445 0.4213 0.0
C12F C12F -0.14386 -0.38174 0.37843 0.0
C13F C13F -0.18555 -0.36545 0.35813 0.0
C14F C14F -0.25076 -0.39895 0.36834 0.0
H14F H14F -0.2793 -0.3864 0.3555 0.0
C15F C15F -0.27496 -0.45046 0.39714 0.0
H15F H15F -0.3201 -0.4735 0.4039 0.0
C16F C16F -0.03555 -0.36377 0.39305 0.0
H16D H16D 0.009 -0.3363 0.3823 0.0
H16E H16E -0.0489 -0.4097 0.3886 0.0
H16F H16F -0.0371 -0.3555 0.4241 0.0
O7 O7 0.0 0.0 0.181908 0.0
O8 O8 0.0 0.0 0.31712 0.0
_cell_length_a 23.68994
_cell_length_b 23.68994
_cell_length_c 30.80587
_cell_angle_alpha 90.0
_cell_angle_beta 90.0
_cell_angle_gamma 120.0
_symmetry_space_group_name_H-M         'P 1'
_symmetry_Int_Tables_number            1
loop_
_symmetry_equiv_pos_as_xyz
   'x, y, z'
                         
loop_
_atom_site_label
_atom_site_type_symbol
_atom_site_fract_x 
_atom_site_fract_y
_atom_site_fract_z
_atom_site_charge
Zn1 Zn1 0.0 0.0 0.24653116 0.0
Zn2 Zn2 -0.04349513 -0.08701513 0.1592418 0.0
O1F O1F -0.06666 -0.09194 0.25603 0.0
O2F O2F -0.083017 -0.15697 0.20204 0.0
O3F O3F -0.18301 -0.38207 0.27008 0.0
O4F O4F -0.22237 -0.54814 0.45723 0.0
O5F O5F -0.31304 -0.54176 0.46194 0.0
O6F O6F -0.07973 -0.34843 0.36942 0.0
C1F C1F -0.08435 -0.14625 0.24144 0.0
C2F C2F -0.11076 -0.20365 0.27154 0.0
C3F C3F -0.13407 -0.26576 0.25514 0.0
H3F H3F -0.1333 -0.272 0.2247 0.0
C4F C4F -0.15846 -0.31845 0.28284 0.0
C5F C5F -0.15956 -0.30905 0.32733 0.0
C6F C6F -0.13577 -0.24726 0.34294 0.0
H6F H6F -0.1354 -0.2404 0.3733 0.0
C7F C7F -0.11208 -0.19466 0.31514 0.0
H7F H7F -0.0966 -0.152 0.3264 0.0
C8F C8F -0.1965 -0.3942 0.22401 0.0
H8F1 H8F1 -0.2077 -0.4396 0.2176 0.0
H8F2 H8F2 -0.1566 -0.3648 0.2075 0.0
H8F3 H8F3 -0.2317 -0.3874 0.2156 0.0
C9F C9F -0.25796 -0.52455 0.44714 0.0
C10F C10F -0.23326 -0.46855 0.41634 0.0
C11F C11F -0.16816 -0.43345 0.40754 0.0
H11F H11F -0.1391 -0.4445 0.4213 0.0
C12F C12F -0.14386 -0.38174 0.37843 0.0
C13F C13F -0.18555 -0.36545 0.35813 0.0
C14F C14F -0.25076 -0.39895 0.36834 0.0
H14F H14F -0.2793 -0.3864 0.3555 0.0
C15F C15F -0.27496 -0.45046 0.39714 0.0
H15F H15F -0.3201 -0.4735 0.4039 0.0
C16F C16F -0.03555 -0.36377 0.39305 0.0
H16D H16D 0.009 -0.3363 0.3823 0.0
H16E H16E -0.0489 -0.4097 0.3886 0.0
H16F H16F -0.0371 -0.3555 0.4241 0.0
O7 O7 0.0 0.0 0.181908 0.0
O8 O8 0.0 0.0 0.31712 0.0
_cell_length_a 23.68994
_cell_length_b 23.68994
_cell_length_c 30.80587
_cell_angle_alpha 90.0
_cell_angle_beta 90.0
_cell_angle_gamma 120.0
_symmetry_space_group_name_H-M         'P 1'
_symmetry_Int_Tables_number            1
loop_
_symmetry_equiv_pos_as_xyz
   'x, y, z'
                         
loop_
_atom_site_label
_atom_site_type_symbol
_atom_site_fract_x 
_atom_site_fract_y
_atom_site_fract_z
_atom_site_charge
Zn1 Zn1 0.0 0.0 0.24653116 0.0
Zn2 Zn2 -0.04349513 -0.08701513 0.1592418 0.0
O1F O1F -0.06666 -0.09194 0.25603 0.0
O2F O2F -0.083017 -0.15697 0.20204 0.0
O3F O3F -0.18301 -0.38207 0.27008 0.0
O4F O4F -0.22237 -0.54814 0.45723 0.0
O5F O5F -0.31304 -0.54176 0.46194 0.0
O6F O6F -0.07973 -0.34843 0.36942 0.0
C1F C1F -0.08435 -0.14625 0.24144 0.0
C2F C2F -0.11076 -0.20365 0.27154 0.0
C3F C3F -0.13407 -0.26576 0.25514 0.0
H3F H3F -0.1333 -0.272 0.2247 0.0
C4F C4F -0.15846 -0.31845 0.28284 0.0
C5F C5F -0.15956 -0.30905 0.32733 0.0
C6F C6F -0.13577 -0.24726 0.34294 0.0
H6F H6F -0.1354 -0.2404 0.3733 0.0
C7F C7F -0.11208 -0.19466 0.31514 0.0
H7F H7F -0.0966 -0.152 0.3264 0.0
C8F C8F -0.1965 -0.3942 0.22401 0.0
H8F1 H8F1 -0.2077 -0.4396 0.2176 0.0
H8F2 H8F2 -0.1566 -0.3648 0.2075 0.0
H8F3 H8F3 -0.2317 -0.3874 0.2156 0.0
C9F C9F -0.25796 -0.52455 0.44714 0.0
C10F C10F -0.23326 -0.46855 0.41634 0.0
C11F C11F -0.16816 -0.43345 0.40754 0.0
H11F H11F -0.1391 -0.4445 0.4213 0.0
C12F C12F -0.14386 -0.38174 0.37843 0.0
C13F C13F -0.18555 -0.36545 0.35813 0.0
C14F C14F -0.25076 -0.39895 0.36834 0.0
H14F H14F -0.2793 -0.3864 0.3555 0.0
C15F C15F -0.27496 -0.45046 0.39714 0.0
H15F H15F -0.3201 -0.4735 0.4039 0.0
C16F C16F -0.03555 -0.36377 0.39305 0.0
H16D H16D 0.009 -0.3363 0.3823 0.0
H16E H16E -0.0489 -0.4097 0.3886 0.0
H16F H16F -0.0371 -0.3555 0.4241 0.0
O7 O7 0.0 0.0 0.181908 0.0
O8 O8 0.0 0.0 0.31712 0.0
_cell_length_a 23.68994
_cell_length_b 23.68994
_cell_length_c 30.80587
_cell_angle_alpha 90.0
_cell_angle_beta 90.0
_cell_angle_gamma 120.0
_symmetry_space_group_name_H-M         'P 1'
_symmetry_Int_Tables_number            1
loop_
_symmetry_equiv_pos_as_xyz
   'x, y, z'
                         
loop_
_atom_site_label
_atom_site_type_symbol
_atom_site_fract_x 
_atom_site_fract_y
_atom_site_fract_z
_atom_site_charge
Zn1 Zn1 0.0 0.0 0.24653116 0.0
Zn2 Zn2 -0.04349513 -0.08701513 0.1592418 0.0
O1F O1F -0.06666 -0.09194 0.25603 0.0
O2F O2F -0.083017 -0.15697 0.20204 0.0
O3F O3F -0.18301 -0.38207 0.27008 0.0
O4F O4F -0.22237 -0.54814 0.45723 0.0
O5F O5F -0.31304 -0.54176 0.46194 0.0
O6F O6F -0.07973 -0.34843 0.36942 0.0
C1F C1F -0.08435 -0.14625 0.24144 0.0
C2F C2F -0.11076 -0.20365 0.27154 0.0
C3F C3F -0.13407 -0.26576 0.25514 0.0
H3F H3F -0.1333 -0.272 0.2247 0.0
C4F C4F -0.15846 -0.31845 0.28284 0.0
C5F C5F -0.15956 -0.30905 0.32733 0.0
C6F C6F -0.13577 -0.24726 0.34294 0.0
H6F H6F -0.1354 -0.2404 0.3733 0.0
C7F C7F -0.11208 -0.19466 0.31514 0.0
H7F H7F -0.0966 -0.152 0.3264 0.0
C8F C8F -0.1965 -0.3942 0.22401 0.0
H8F1 H8F1 -0.2077 -0.4396 0.2176 0.0
H8F2 H8F2 -0.1566 -0.3648 0.2075 0.0
H8F3 H8F3 -0.2317 -0.3874 0.2156 0.0
C9F C9F -0.25796 -0.52455 0.44714 0.0
C10F C10F -0.23326 -0.46855 0.41634 0.0
C11F C11F -0.16816 -0.43345 0.40754 0.0
H11F H11F -0.1391 -0.4445 0.4213 0.0
C12F C12F -0.14386 -0.38174 0.37843 0.0
C13F C13F -0.18555 -0.36545 0.35813 0.0
C14F C14F -0.25076 -0.39895 0.36834 0.0
H14F H14F -0.2793 -0.3864 0.3555 0.0
C15F C15F -0.27496 -0.45046 0.39714 0.0
H15F H15F -0.3201 -0.4735 0.4039 0.0
C16F C16F -0.03555 -0.36377 0.39305 0.0
H16D H16D 0.009 -0.3363 0.3823 0.0
H16E H16E -0.0489 -0.4097 0.3886 0.0
H16F H16F -0.0371 -0.3555 0.4241 0.0
O7 O7 0.0 0.0 0.181908 0.0
O8 O8 0.0 0.0 0.31712 0.0
_cell_length_a 23.68994
_cell_length_b 23.68994
_cell_length_c 30.80587
_cell_angle_alpha 90.0
_cell_angle_beta 90.0
_cell_angle_gamma 120.0
_symmetry_space_group_name_H-M         'P 1'
_symmetry_Int_Tables_number            1
loop_
_symmetry_equiv_pos_as_xyz
   'x, y, z'
                         
loop_
_atom_site_label
_atom_site_type_symbol
_atom_site_fract_x 
_atom_site_fract_y
_atom_site_fract_z
_atom_site_charge
Zn1 Zn1 0.0 0.0 0.24653116 0.0
Zn2 Zn2 -0.04349513 -0.08701513 0.1592418 0.0
O1F O1F -0.06666 -0.09194 0.25603 0.0
O2F O2F -0.083017 -0.15697 0.20204 0.0
O3F O3F -0.18301 -0.38207 0.27008 0.0
O4F O4F -0.22237 -0.54814 0.45723 0.0
O5F O5F -0.31304 -0.54176 0.46194 0.0
O6F O6F -0.07973 -0.34843 0.36942 0.0
C1F C1F -0.08435 -0.14625 0.24144 0.0
C2F C2F -0.11076 -0.20365 0.27154 0.0
C3F C3F -0.13407 -0.26576 0.25514 0.0
H3F H3F -0.1333 -0.272 0.2247 0.0
C4F C4F -0.15846 -0.31845 0.28284 0.0
C5F C5F -0.15956 -0.30905 0.32733 0.0
C6F C6F -0.13577 -0.24726 0.34294 0.0
H6F H6F -0.1354 -0.2404 0.3733 0.0
C7F C7F -0.11208 -0.19466 0.31514 0.0
H7F H7F -0.0966 -0.152 0.3264 0.0
C8F C8F -0.1965 -0.3942 0.22401 0.0
H8F1 H8F1 -0.2077 -0.4396 0.2176 0.0
H8F2 H8F2 -0.1566 -0.3648 0.2075 0.0
H8F3 H8F3 -0.2317 -0.3874 0.2156 0.0
C9F C9F -0.25796 -0.52455 0.44714 0.0
C10F C10F -0.23326 -0.46855 0.41634 0.0
C11F C11F -0.16816 -0.43345 0.40754 0.0
H11F H11F -0.1391 -0.4445 0.4213 0.0
C12F C12F -0.14386 -0.38174 0.37843 0.0
C13F C13F -0.18555 -0.36545 0.35813 0.0
C14F C14F -0.25076 -0.39895 0.36834 0.0
H14F H14F -0.2793 -0.3864 0.3555 0.0
C15F C15F -0.27496 -0.45046 0.39714 0.0
H15F H15F -0.3201 -0.4735 0.4039 0.0
C16F C16F -0.03555 -0.36377 0.39305 0.0
H16D H16D 0.009 -0.3363 0.3823 0.0
H16E H16E -0.0489 -0.4097 0.3886 0.0
H16F H16F -0.0371 -0.3555 0.4241 0.0
O7 O7 0.0 0.0 0.181908 0.0
O8 O8 0.0 0.0 0.31712 0.0
_cell_length_a 23.68994
_cell_length_b 23.68994
_cell_length_c 30.80587
_cell_angle_alpha 90.0
_cell_angle_beta 90.0
_cell_angle_gamma 120.0
_symmetry_space_group_name_H-M         'P 1'
_symmetry_Int_Tables_number            1
loop_
_symmetry_equiv_pos_as_xyz
   'x, y, z'
                         
loop_
_atom_site_label
_atom_site_type_symbol
_atom_site_fract_x 
_atom_site_fract_y
_atom_site_fract_z
_atom_site_charge
Zn1 Zn1 0.0 0.0 0.24653116 0.0
Zn2 Zn2 -0.04349513 -0.08701513 0.1592418 0.0
O1F O1F -0.06666 -0.09194 0.25603 0.0
O2F O2F -0.083017 -0.15697 0.20204 0.0
O3F O3F -0.18301 -0.38207 0.27008 0.0
O4F O4F -0.22237 -0.54814 0.45723 0.0
O5F O5F -0.31304 -0.54176 0.46194 0.0
O6F O6F -0.07973 -0.34843 0.36942 0.0
C1F C1F -0.08435 -0.14625 0.24144 0.0
C2F C2F -0.11076 -0.20365 0.27154 0.0
C3F C3F -0.13407 -0.26576 0.25514 0.0
H3F H3F -0.1333 -0.272 0.2247 0.0
C4F C4F -0.15846 -0.31845 0.28284 0.0
C5F C5F -0.15956 -0.30905 0.32733 0.0
C6F C6F -0.13577 -0.24726 0.34294 0.0
H6F H6F -0.1354 -0.2404 0.3733 0.0
C7F C7F -0.11208 -0.19466 0.31514 0.0
H7F H7F -0.0966 -0.152 0.3264 0.0
C8F C8F -0.1965 -0.3942 0.22401 0.0
H8F1 H8F1 -0.2077 -0.4396 0.2176 0.0
H8F2 H8F2 -0.1566 -0.3648 0.2075 0.0
H8F3 H8F3 -0.2317 -0.3874 0.2156 0.0
C9F C9F -0.25796 -0.52455 0.44714 0.0
C10F C10F -0.23326 -0.46855 0.41634 0.0
C11F C11F -0.16816 -0.43345 0.40754 0.0
H11F H11F -0.1391 -0.4445 0.4213 0.0
C12F C12F -0.14386 -0.38174 0.37843 0.0
C13F C13F -0.18555 -0.36545 0.35813 0.0
C14F C14F -0.25076 -0.39895 0.36834 0.0
H14F H14F -0.2793 -0.3864 0.3555 0.0
C15F C15F -0.27496 -0.45046 0.39714 0.0
H15F H15F -0.3201 -0.4735 0.4039 0.0
C16F C16F -0.03555 -0.36377 0.39305 0.0
H16D H16D 0.009 -0.3363 0.3823 0.0
H16E H16E -0.0489 -0.4097 0.3886 0.0
H16F H16F -0.0371 -0.3555 0.4241 0.0
O7 O7 0.0 0.0 0.181908 0.0
O8 O8 0.0 0.0 0.31712 0.0
_cell_length_a 23.68994
_cell_length_b 23.68994
_cell_length_c 30.80587
_cell_angle_alpha 90.0
_cell_angle_beta 90.0
_cell_angle_gamma 120.0
_symmetry_space_group_name_H-M         'P 1'
_symmetry_Int_Tables_number            1
loop_
_symmetry_equiv_pos_as_xyz
   'x, y, z'
                         
loop_
_atom_site_label
_atom_site_type_symbol
_atom_site_fract_x 
_atom_site_fract_y
_atom_site_fract_z
_atom_site_charge
Zn1 Zn1 0.0 0.0 0.24653116 0.0
Zn2 Zn2 -0.04349513 -0.08701513 0.1592418 0.0
O1F O1F -0.06666 -0.09194 0.25603 0.0
O2F O2F -0.083017 -0.15697 0.20204 0.0
O3F O3F -0.18301 -0.38207 0.27008 0.0
O4F O4F -0.22237 -0.54814 0.45723 0.0
O5F O5F -0.31304 -0.54176 0.46194 0.0
O6F O6F -0.07973 -0.34843 0.36942 0.0
C1F C1F -0.08435 -0.14625 0.24144 0.0
C2F C2F -0.11076 -0.20365 0.27154 0.0
C3F C3F -0.13407 -0.26576 0.25514 0.0
H3F H3F -0.1333 -0.272 0.2247 0.0
C4F C4F -0.15846 -0.31845 0.28284 0.0
C5F C5F -0.15956 -0.30905 0.32733 0.0
C6F C6F -0.13577 -0.24726 0.34294 0.0
H6F H6F -0.1354 -0.2404 0.3733 0.0
C7F C7F -0.11208 -0.19466 0.31514 0.0
H7F H7F -0.0966 -0.152 0.3264 0.0
C8F C8F -0.1965 -0.3942 0.22401 0.0
H8F1 H8F1 -0.2077 -0.4396 0.2176 0.0
H8F2 H8F2 -0.1566 -0.3648 0.2075 0.0
H8F3 H8F3 -0.2317 -0.3874 0.2156 0.0
C9F C9F -0.25796 -0.52455 0.44714 0.0
C10F C10F -0.23326 -0.46855 0.41634 0.0
C11F C11F -0.16816 -0.43345 0.40754 0.0
H11F H11F -0.1391 -0.4445 0.4213 0.0
C12F C12F -0.14386 -0.38174 0.37843 0.0
C13F C13F -0.18555 -0.36545 0.35813 0.0
C14F C14F -0.25076 -0.39895 0.36834 0.0
H14F H14F -0.2793 -0.3864 0.3555 0.0
C15F C15F -0.27496 -0.45046 0.39714 0.0
H15F H15F -0.3201 -0.4735 0.4039 0.0
C16F C16F -0.03555 -0.36377 0.39305 0.0
H16D H16D 0.009 -0.3363 0.3823 0.0
H16E H16E -0.0489 -0.4097 0.3886 0.0
H16F H16F -0.0371 -0.3555 0.4241 0.0
O7 O7 0.0 0.0 0.181908 0.0
O8 O8 0.0 0.0 0.31712 0.0
_cell_length_a 23.68994
_cell_length_b 23.68994
_cell_length_c 30.80587
_cell_angle_alpha 90.0
_cell_angle_beta 90.0
_cell_angle_gamma 120.0
_symmetry_space_group_name_H-M         'P 1'
_symmetry_Int_Tables_number            1
loop_
_symmetry_equiv_pos_as_xyz
   'x, y, z'
                         
loop_
_atom_site_label
_atom_site_type_symbol
_atom_site_fract_x 
_atom_site_fract_y
_atom_site_fract_z
_atom_site_charge
Zn1 Zn1 0.0 0.0 0.24653116 0.0
Zn2 Zn2 -0.04349513 -0.08701513 0.1592418 0.0
O1F O1F -0.06666 -0.09194 0.25603 0.0
O2F O2F -0.083017 -0.15697 0.20204 0.0
O3F O3F -0.18301 -0.38207 0.27008 0.0
O4F O4F -0.22237 -0.54814 0.45723 0.0
O5F O5F -0.31304 -0.54176 0.46194 0.0
O6F O6F -0.07973 -0.34843 0.36942 0.0
C1F C1F -0.08435 -0.14625 0.24144 0.0
C2F C2F -0.11076 -0.20365 0.27154 0.0
C3F C3F -0.13407 -0.26576 0.25514 0.0
H3F H3F -0.1333 -0.272 0.2247 0.0
C4F C4F -0.15846 -0.31845 0.28284 0.0
C5F C5F -0.15956 -0.30905 0.32733 0.0
C6F C6F -0.13577 -0.24726 0.34294 0.0
H6F H6F -0.1354 -0.2404 0.3733 0.0
C7F C7F -0.11208 -0.19466 0.31514 0.0
H7F H7F -0.0966 -0.152 0.3264 0.0
C8F C8F -0.1965 -0.3942 0.22401 0.0
H8F1 H8F1 -0.2077 -0.4396 0.2176 0.0
H8F2 H8F2 -0.1566 -0.3648 0.2075 0.0
H8F3 H8F3 -0.2317 -0.3874 0.2156 0.0
C9F C9F -0.25796 -0.52455 0.44714 0.0
C10F C10F -0.23326 -0.46855 0.41634 0.0
C11F C11F -0.16816 -0.43345 0.40754 0.0
H11F H11F -0.1391 -0.4445 0.4213 0.0
C12F C12F -0.14386 -0.38174 0.37843 0.0
C13F C13F -0.18555 -0.36545 0.35813 0.0
C14F C14F -0.25076 -0.39895 0.36834 0.0
H14F H14F -0.2793 -0.3864 0.3555 0.0
C15F C15F -0.27496 -0.45046 0.39714 0.0
H15F H15F -0.3201 -0.4735 0.4039 0.0
C16F C16F -0.03555 -0.36377 0.39305 0.0
H16D H16D 0.009 -0.3363 0.3823 0.0
H16E H16E -0.0489 -0.4097 0.3886 0.0
H16F H16F -0.0371 -0.3555 0.4241 0.0
O7 O7 0.0 0.0 0.181908 0.0
O8 O8 0.0 0.0 0.31712 0.0
_cell_length_a 23.68994
_cell_length_b 23.68994
_cell_length_c 30.80587
_cell_angle_alpha 90.0
_cell_angle_beta 90.0
_cell_angle_gamma 120.0
_symmetry_space_group_name_H-M         'P 1'
_symmetry_Int_Tables_number            1
loop_
_symmetry_equiv_pos_as_xyz
   'x, y, z'
                         
loop_
_atom_site_label
_atom_site_type_symbol
_atom_site_fract_x 
_atom_site_fract_y
_atom_site_fract_z
_atom_site_charge
Zn1 Zn1 0.0 0.0 0.24653116 0.0
Zn2 Zn2 -0.04349513 -0.08701513 0.1592418 0.0
O1F O1F -0.06666 -0.09194 0.25603 0.0
O2F O2F -0.083017 -0.15697 0.20204 0.0
O3F O3F -0.18301 -0.38207 0.27008 0.0
O4F O4F -0.22237 -0.54814 0.45723 0.0
O5F O5F -0.31304 -0.54176 0.46194 0.0
O6F O6F -0.07973 -0.34843 0.36942 0.0
C1F C1F -0.08435 -0.14625 0.24144 0.0
C2F C2F -0.11076 -0.20365 0.27154 0.0
C3F C3F -0.13407 -0.26576 0.25514 0.0
H3F H3F -0.1333 -0.272 0.2247 0.0
C4F C4F -0.15846 -0.31845 0.28284 0.0
C5F C5F -0.15956 -0.30905 0.32733 0.0
C6F C6F -0.13577 -0.24726 0.34294 0.0
H6F H6F -0.1354 -0.2404 0.3733 0.0
C7F C7F -0.11208 -0.19466 0.31514 0.0
H7F H7F -0.0966 -0.152 0.3264 0.0
C8F C8F -0.1965 -0.3942 0.22401 0.0
H8F1 H8F1 -0.2077 -0.4396 0.2176 0.0
H8F2 H8F2 -0.1566 -0.3648 0.2075 0.0
H8F3 H8F3 -0.2317 -0.3874 0.2156 0.0
C9F C9F -0.25796 -0.52455 0.44714 0.0
C10F C10F -0.23326 -0.46855 0.41634 0.0
C11F C11F -0.16816 -0.43345 0.40754 0.0
H11F H11F -0.1391 -0.4445 0.4213 0.0
C12F C12F -0.14386 -0.38174 0.37843 0.0
C13F C13F -0.18555 -0.36545 0.35813 0.0
C14F C14F -0.25076 -0.39895 0.36834 0.0
H14F H14F -0.2793 -0.3864 0.3555 0.0
C15F C15F -0.27496 -0.45046 0.39714 0.0
H15F H15F -0.3201 -0.4735 0.4039 0.0
C16F C16F -0.03555 -0.36377 0.39305 0.0
H16D H16D 0.009 -0.3363 0.3823 0.0
H16E H16E -0.0489 -0.4097 0.3886 0.0
H16F H16F -0.0371 -0.3555 0.4241 0.0
O7 O7 0.0 0.0 0.181908 0.0
O8 O8 0.0 0.0 0.31712 0.0
_cell_length_a 23.68994
_cell_length_b 23.68994
_cell_length_c 30.80587
_cell_angle_alpha 90.0
_cell_angle_beta 90.0
_cell_angle_gamma 120.0
_symmetry_space_group_name_H-M         'P 1'
_symmetry_Int_Tables_number            1
loop_
_symmetry_equiv_pos_as_xyz
   'x, y, z'
                         
loop_
_atom_site_label
_atom_site_type_symbol
_atom_site_fract_x 
_atom_site_fract_y
_atom_site_fract_z
_atom_site_charge
Zn1 Zn1 0.0 0.0 0.24653116 0.0
Zn2 Zn2 -0.04349513 -0.08701513 0.1592418 0.0
O1F O1F -0.06666 -0.09194 0.25603 0.0
O2F O2F -0.083017 -0.15697 0.20204 0.0
O3F O3F -0.18301 -0.38207 0.27008 0.0
O4F O4F -0.22237 -0.54814 0.45723 0.0
O5F O5F -0.31304 -0.54176 0.46194 0.0
O6F O6F -0.07973 -0.34843 0.36942 0.0
C1F C1F -0.08435 -0.14625 0.24144 0.0
C2F C2F -0.11076 -0.20365 0.27154 0.0
C3F C3F -0.13407 -0.26576 0.25514 0.0
H3F H3F -0.1333 -0.272 0.2247 0.0
C4F C4F -0.15846 -0.31845 0.28284 0.0
C5F C5F -0.15956 -0.30905 0.32733 0.0
C6F C6F -0.13577 -0.24726 0.34294 0.0
H6F H6F -0.1354 -0.2404 0.3733 0.0
C7F C7F -0.11208 -0.19466 0.31514 0.0
H7F H7F -0.0966 -0.152 0.3264 0.0
C8F C8F -0.1965 -0.3942 0.22401 0.0
H8F1 H8F1 -0.2077 -0.4396 0.2176 0.0
H8F2 H8F2 -0.1566 -0.3648 0.2075 0.0
H8F3 H8F3 -0.2317 -0.3874 0.2156 0.0
C9F C9F -0.25796 -0.52455 0.44714 0.0
C10F C10F -0.23326 -0.46855 0.41634 0.0
C11F C11F -0.16816 -0.43345 0.40754 0.0
H11F H11F -0.1391 -0.4445 0.4213 0.0
C12F C12F -0.14386 -0.38174 0.37843 0.0
C13F C13F -0.18555 -0.36545 0.35813 0.0
C14F C14F -0.25076 -0.39895 0.36834 0.0
H14F H14F -0.2793 -0.3864 0.3555 0.0
C15F C15F -0.27496 -0.45046 0.39714 0.0
H15F H15F -0.3201 -0.4735 0.4039 0.0
C16F C16F -0.03555 -0.36377 0.39305 0.0
H16D H16D 0.009 -0.3363 0.3823 0.0
H16E H16E -0.0489 -0.4097 0.3886 0.0
H16F H16F -0.0371 -0.3555 0.4241 0.0
O7 O7 0.0 0.0 0.181908 0.0
O8 O8 0.0 0.0 0.31712 0.0
_cell_length_a 23.68994
_cell_length_b 23.68994
_cell_length_c 30.80587
_cell_angle_alpha 90.0
_cell_angle_beta 90.0
_cell_angle_gamma 120.0
_symmetry_space_group_name_H-M         'P 1'
_symmetry_Int_Tables_number            1
loop_
_symmetry_equiv_pos_as_xyz
   'x, y, z'
                         
loop_
_atom_site_label
_atom_site_type_symbol
_atom_site_fract_x 
_atom_site_fract_y
_atom_site_fract_z
_atom_site_charge
Zn1 Zn1 0.0 0.0 0.24653116 0.0
Zn2 Zn2 -0.04349513 -0.08701513 0.1592418 0.0
O1F O1F -0.06666 -0.09194 0.25603 0.0
O2F O2F -0.083017 -0.15697 0.20204 0.0
O3F O3F -0.18301 -0.38207 0.27008 0.0
O4F O4F -0.22237 -0.54814 0.45723 0.0
O5F O5F -0.31304 -0.54176 0.46194 0.0
O6F O6F -0.07973 -0.34843 0.36942 0.0
C1F C1F -0.08435 -0.14625 0.24144 0.0
C2F C2F -0.11076 -0.20365 0.27154 0.0
C3F C3F -0.13407 -0.26576 0.25514 0.0
H3F H3F -0.1333 -0.272 0.2247 0.0
C4F C4F -0.15846 -0.31845 0.28284 0.0
C5F C5F -0.15956 -0.30905 0.32733 0.0
C6F C6F -0.13577 -0.24726 0.34294 0.0
H6F H6F -0.1354 -0.2404 0.3733 0.0
C7F C7F -0.11208 -0.19466 0.31514 0.0
H7F H7F -0.0966 -0.152 0.3264 0.0
C8F C8F -0.1965 -0.3942 0.22401 0.0
H8F1 H8F1 -0.2077 -0.4396 0.2176 0.0
H8F2 H8F2 -0.1566 -0.3648 0.2075 0.0
H8F3 H8F3 -0.2317 -0.3874 0.2156 0.0
C9F C9F -0.25796 -0.52455 0.44714 0.0
C10F C10F -0.23326 -0.46855 0.41634 0.0
C11F C11F -0.16816 -0.43345 0.40754 0.0
H11F H11F -0.1391 -0.4445 0.4213 0.0
C12F C12F -0.14386 -0.38174 0.37843 0.0
C13F C13F -0.18555 -0.36545 0.35813 0.0
C14F C14F -0.25076 -0.39895 0.36834 0.0
H14F H14F -0.2793 -0.3864 0.3555 0.0
C15F C15F -0.27496 -0.45046 0.39714 0.0
H15F H15F -0.3201 -0.4735 0.4039 0.0
C16F C16F -0.03555 -0.36377 0.39305 0.0
H16D H16D 0.009 -0.3363 0.3823 0.0
H16E H16E -0.0489 -0.4097 0.3886 0.0
H16F H16F -0.0371 -0.3555 0.4241 0.0
O7 O7 0.0 0.0 0.181908 0.0
O8 O8 0.0 0.0 0.31712 0.0
_cell_length_a 23.68994
_cell_length_b 23.68994
_cell_length_c 30.80587
_cell_angle_alpha 90.0
_cell_angle_beta 90.0
_cell_angle_gamma 120.0
_symmetry_space_group_name_H-M         'P 1'
_symmetry_Int_Tables_number            1
loop_
_symmetry_equiv_pos_as_xyz
   'x, y, z'
                         
loop_
_atom_site_label
_atom_site_type_symbol
_atom_site_fract_x 
_atom_site_fract_y
_atom_site_fract_z
_atom_site_charge
Zn1 Zn1 0.0 0.0 0.24653116 0.0
Zn2 Zn2 -0.04349513 -0.08701513 0.1592418 0.0
O1F O1F -0.06666 -0.09194 0.25603 0.0
O2F O2F -0.083017 -0.15697 0.20204 0.0
O3F O3F -0.18301 -0.38207 0.27008 0.0
O4F O4F -0.22237 -0.54814 0.45723 0.0
O5F O5F -0.31304 -0.54176 0.46194 0.0
O6F O6F -0.07973 -0.34843 0.36942 0.0
C1F C1F -0.08435 -0.14625 0.24144 0.0
C2F C2F -0.11076 -0.20365 0.27154 0.0
C3F C3F -0.13407 -0.26576 0.25514 0.0
H3F H3F -0.1333 -0.272 0.2247 0.0
C4F C4F -0.15846 -0.31845 0.28284 0.0
C5F C5F -0.15956 -0.30905 0.32733 0.0
C6F C6F -0.13577 -0.24726 0.34294 0.0
H6F H6F -0.1354 -0.2404 0.3733 0.0
C7F C7F -0.11208 -0.19466 0.31514 0.0
H7F H7F -0.0966 -0.152 0.3264 0.0
C8F C8F -0.1965 -0.3942 0.22401 0.0
H8F1 H8F1 -0.2077 -0.4396 0.2176 0.0
H8F2 H8F2 -0.1566 -0.3648 0.2075 0.0
H8F3 H8F3 -0.2317 -0.3874 0.2156 0.0
C9F C9F -0.25796 -0.52455 0.44714 0.0
C10F C10F -0.23326 -0.46855 0.41634 0.0
C11F C11F -0.16816 -0.43345 0.40754 0.0
H11F H11F -0.1391 -0.4445 0.4213 0.0
C12F C12F -0.14386 -0.38174 0.37843 0.0
C13F C13F -0.18555 -0.36545 0.35813 0.0
C14F C14F -0.25076 -0.39895 0.36834 0.0
H14F H14F -0.2793 -0.3864 0.3555 0.0
C15F C15F -0.27496 -0.45046 0.39714 0.0
H15F H15F -0.3201 -0.4735 0.4039 0.0
C16F C16F -0.03555 -0.36377 0.39305 0.0
H16D H16D 0.009 -0.3363 0.3823 0.0
H16E H16E -0.0489 -0.4097 0.3886 0.0
H16F H16F -0.0371 -0.3555 0.4241 0.0
O7 O7 0.0 0.0 0.181908 0.0
O8 O8 0.0 0.0 0.31712 0.0
_cell_length_a 23.68994
_cell_length_b 23.68994
_cell_length_c 30.80587
_cell_angle_alpha 90.0
_cell_angle_beta 90.0
_cell_angle_gamma 120.0
_symmetry_space_group_name_H-M         'P 1'
_symmetry_Int_Tables_number            1
loop_
_symmetry_equiv_pos_as_xyz
   'x, y, z'
                         
loop_
_atom_site_label
_atom_site_type_symbol
_atom_site_fract_x 
_atom_site_fract_y
_atom_site_fract_z
_atom_site_charge
Zn1 Zn1 0.0 0.0 0.24653116 0.0
Zn2 Zn2 -0.04349513 -0.08701513 0.1592418 0.0
O1F O1F -0.06666 -0.09194 0.25603 0.0
O2F O2F -0.083017 -0.15697 0.20204 0.0
O3F O3F -0.18301 -0.38207 0.27008 0.0
O4F O4F -0.22237 -0.54814 0.45723 0.0
O5F O5F -0.31304 -0.54176 0.46194 0.0
O6F O6F -0.07973 -0.34843 0.36942 0.0
C1F C1F -0.08435 -0.14625 0.24144 0.0
C2F C2F -0.11076 -0.20365 0.27154 0.0
C3F C3F -0.13407 -0.26576 0.25514 0.0
H3F H3F -0.1333 -0.272 0.2247 0.0
C4F C4F -0.15846 -0.31845 0.28284 0.0
C5F C5F -0.15956 -0.30905 0.32733 0.0
C6F C6F -0.13577 -0.24726 0.34294 0.0
H6F H6F -0.1354 -0.2404 0.3733 0.0
C7F C7F -0.11208 -0.19466 0.31514 0.0
H7F H7F -0.0966 -0.152 0.3264 0.0
C8F C8F -0.1965 -0.3942 0.22401 0.0
H8F1 H8F1 -0.2077 -0.4396 0.2176 0.0
H8F2 H8F2 -0.1566 -0.3648 0.2075 0.0
H8F3 H8F3 -0.2317 -0.3874 0.2156 0.0
C9F C9F -0.25796 -0.52455 0.44714 0.0
C10F C10F -0.23326 -0.46855 0.41634 0.0
C11F C11F -0.16816 -0.43345 0.40754 0.0
H11F H11F -0.1391 -0.4445 0.4213 0.0
C12F C12F -0.14386 -0.38174 0.37843 0.0
C13F C13F -0.18555 -0.36545 0.35813 0.0
C14F C14F -0.25076 -0.39895 0.36834 0.0
H14F H14F -0.2793 -0.3864 0.3555 0.0
C15F C15F -0.27496 -0.45046 0.39714 0.0
H15F H15F -0.3201 -0.4735 0.4039 0.0
C16F C16F -0.03555 -0.36377 0.39305 0.0
H16D H16D 0.009 -0.3363 0.3823 0.0
H16E H16E -0.0489 -0.4097 0.3886 0.0
H16F H16F -0.0371 -0.3555 0.4241 0.0
O7 O7 0.0 0.0 0.181908 0.0
O8 O8 0.0 0.0 0.31712 0.0
_cell_length_a 23.68994
_cell_length_b 23.68994
_cell_length_c 30.80587
_cell_angle_alpha 90.0
_cell_angle_beta 90.0
_cell_angle_gamma 120.0
_symmetry_space_group_name_H-M         'P 1'
_symmetry_Int_Tables_number            1
loop_
_symmetry_equiv_pos_as_xyz
   'x, y, z'
                         
loop_
_atom_site_label
_atom_site_type_symbol
_atom_site_fract_x 
_atom_site_fract_y
_atom_site_fract_z
_atom_site_charge
Zn1 Zn1 0.0 0.0 0.24653116 0.0
Zn2 Zn2 -0.04349513 -0.08701513 0.1592418 0.0
O1F O1F -0.06666 -0.09194 0.25603 0.0
O2F O2F -0.083017 -0.15697 0.20204 0.0
O3F O3F -0.18301 -0.38207 0.27008 0.0
O4F O4F -0.22237 -0.54814 0.45723 0.0
O5F O5F -0.31304 -0.54176 0.46194 0.0
O6F O6F -0.07973 -0.34843 0.36942 0.0
C1F C1F -0.08435 -0.14625 0.24144 0.0
C2F C2F -0.11076 -0.20365 0.27154 0.0
C3F C3F -0.13407 -0.26576 0.25514 0.0
H3F H3F -0.1333 -0.272 0.2247 0.0
C4F C4F -0.15846 -0.31845 0.28284 0.0
C5F C5F -0.15956 -0.30905 0.32733 0.0
C6F C6F -0.13577 -0.24726 0.34294 0.0
H6F H6F -0.1354 -0.2404 0.3733 0.0
C7F C7F -0.11208 -0.19466 0.31514 0.0
H7F H7F -0.0966 -0.152 0.3264 0.0
C8F C8F -0.1965 -0.3942 0.22401 0.0
H8F1 H8F1 -0.2077 -0.4396 0.2176 0.0
H8F2 H8F2 -0.1566 -0.3648 0.2075 0.0
H8F3 H8F3 -0.2317 -0.3874 0.2156 0.0
C9F C9F -0.25796 -0.52455 0.44714 0.0
C10F C10F -0.23326 -0.46855 0.41634 0.0
C11F C11F -0.16816 -0.43345 0.40754 0.0
H11F H11F -0.1391 -0.4445 0.4213 0.0
C12F C12F -0.14386 -0.38174 0.37843 0.0
C13F C13F -0.18555 -0.36545 0.35813 0.0
C14F C14F -0.25076 -0.39895 0.36834 0.0
H14F H14F -0.2793 -0.3864 0.3555 0.0
C15F C15F -0.27496 -0.45046 0.39714 0.0
H15F H15F -0.3201 -0.4735 0.4039 0.0
C16F C16F -0.03555 -0.36377 0.39305 0.0
H16D H16D 0.009 -0.3363 0.3823 0.0
H16E H16E -0.0489 -0.4097 0.3886 0.0
H16F H16F -0.0371 -0.3555 0.4241 0.0
O7 O7 0.0 0.0 0.181908 0.0
O8 O8 0.0 0.0 0.31712 0.0
_cell_length_a 23.68994
_cell_length_b 23.68994
_cell_length_c 30.80587
_cell_angle_alpha 90.0
_cell_angle_beta 90.0
_cell_angle_gamma 120.0
_symmetry_space_group_name_H-M         'P 1'
_symmetry_Int_Tables_number            1
loop_
_symmetry_equiv_pos_as_xyz
   'x, y, z'
                         
loop_
_atom_site_label
_atom_site_type_symbol
_atom_site_fract_x 
_atom_site_fract_y
_atom_site_fract_z
_atom_site_charge
Zn1 Zn1 0.0 0.0 0.24653116 0.0
Zn2 Zn2 -0.04349513 -0.08701513 0.1592418 0.0
O1F O1F -0.06666 -0.09194 0.25603 0.0
O2F O2F -0.083017 -0.15697 0.20204 0.0
O3F O3F -0.18301 -0.38207 0.27008 0.0
O4F O4F -0.22237 -0.54814 0.45723 0.0
O5F O5F -0.31304 -0.54176 0.46194 0.0
O6F O6F -0.07973 -0.34843 0.36942 0.0
C1F C1F -0.08435 -0.14625 0.24144 0.0
C2F C2F -0.11076 -0.20365 0.27154 0.0
C3F C3F -0.13407 -0.26576 0.25514 0.0
H3F H3F -0.1333 -0.272 0.2247 0.0
C4F C4F -0.15846 -0.31845 0.28284 0.0
C5F C5F -0.15956 -0.30905 0.32733 0.0
C6F C6F -0.13577 -0.24726 0.34294 0.0
H6F H6F -0.1354 -0.2404 0.3733 0.0
C7F C7F -0.11208 -0.19466 0.31514 0.0
H7F H7F -0.0966 -0.152 0.3264 0.0
C8F C8F -0.1965 -0.3942 0.22401 0.0
H8F1 H8F1 -0.2077 -0.4396 0.2176 0.0
H8F2 H8F2 -0.1566 -0.3648 0.2075 0.0
H8F3 H8F3 -0.2317 -0.3874 0.2156 0.0
C9F C9F -0.25796 -0.52455 0.44714 0.0
C10F C10F -0.23326 -0.46855 0.41634 0.0
C11F C11F -0.16816 -0.43345 0.40754 0.0
H11F H11F -0.1391 -0.4445 0.4213 0.0
C12F C12F -0.14386 -0.38174 0.37843 0.0
C13F C13F -0.18555 -0.36545 0.35813 0.0
C14F C14F -0.25076 -0.39895 0.36834 0.0
H14F H14F -0.2793 -0.3864 0.3555 0.0
C15F C15F -0.27496 -0.45046 0.39714 0.0
H15F H15F -0.3201 -0.4735 0.4039 0.0
C16F C16F -0.03555 -0.36377 0.39305 0.0
H16D H16D 0.009 -0.3363 0.3823 0.0
H16E H16E -0.0489 -0.4097 0.3886 0.0
H16F H16F -0.0371 -0.3555 0.4241 0.0
O7 O7 0.0 0.0 0.181908 0.0
O8 O8 0.0 0.0 0.31712 0.0
_cell_length_a 23.68994
_cell_length_b 23.68994
_cell_length_c 30.80587
_cell_angle_alpha 90.0
_cell_angle_beta 90.0
_cell_angle_gamma 120.0
_symmetry_space_group_name_H-M         'P 1'
_symmetry_Int_Tables_number            1
loop_
_symmetry_equiv_pos_as_xyz
   'x, y, z'
                         
loop_
_atom_site_label
_atom_site_type_symbol
_atom_site_fract_x 
_atom_site_fract_y
_atom_site_fract_z
_atom_site_charge
Zn1 Zn1 0.0 0.0 0.24653116 0.0
Zn2 Zn2 -0.04349513 -0.08701513 0.1592418 0.0
O1F O1F -0.06666 -0.09194 0.25603 0.0
O2F O2F -0.083017 -0.15697 0.20204 0.0
O3F O3F -0.18301 -0.38207 0.27008 0.0
O4F O4F -0.22237 -0.54814 0.45723 0.0
O5F O5F -0.31304 -0.54176 0.46194 0.0
O6F O6F -0.07973 -0.34843 0.36942 0.0
C1F C1F -0.08435 -0.14625 0.24144 0.0
C2F C2F -0.11076 -0.20365 0.27154 0.0
C3F C3F -0.13407 -0.26576 0.25514 0.0
H3F H3F -0.1333 -0.272 0.2247 0.0
C4F C4F -0.15846 -0.31845 0.28284 0.0
C5F C5F -0.15956 -0.30905 0.32733 0.0
C6F C6F -0.13577 -0.24726 0.34294 0.0
H6F H6F -0.1354 -0.2404 0.3733 0.0
C7F C7F -0.11208 -0.19466 0.31514 0.0
H7F H7F -0.0966 -0.152 0.3264 0.0
C8F C8F -0.1965 -0.3942 0.22401 0.0
H8F1 H8F1 -0.2077 -0.4396 0.2176 0.0
H8F2 H8F2 -0.1566 -0.3648 0.2075 0.0
H8F3 H8F3 -0.2317 -0.3874 0.2156 0.0
C9F C9F -0.25796 -0.52455 0.44714 0.0
C10F C10F -0.23326 -0.46855 0.41634 0.0
C11F C11F -0.16816 -0.43345 0.40754 0.0
H11F H11F -0.1391 -0.4445 0.4213 0.0
C12F C12F -0.14386 -0.38174 0.37843 0.0
C13F C13F -0.18555 -0.36545 0.35813 0.0
C14F C14F -0.25076 -0.39895 0.36834 0.0
H14F H14F -0.2793 -0.3864 0.3555 0.0
C15F C15F -0.27496 -0.45046 0.39714 0.0
H15F H15F -0.3201 -0.4735 0.4039 0.0
C16F C16F -0.03555 -0.36377 0.39305 0.0
H16D H16D 0.009 -0.3363 0.3823 0.0
H16E H16E -0.0489 -0.4097 0.3886 0.0
H16F H16F -0.0371 -0.3555 0.4241 0.0
O7 O7 0.0 0.0 0.181908 0.0
O8 O8 0.0 0.0 0.31712 0.0
_cell_length_a 23.68994
_cell_length_b 23.68994
_cell_length_c 30.80587
_cell_angle_alpha 90.0
_cell_angle_beta 90.0
_cell_angle_gamma 120.0
_symmetry_space_group_name_H-M         'P 1'
_symmetry_Int_Tables_number            1
loop_
_symmetry_equiv_pos_as_xyz
   'x, y, z'
                         
loop_
_atom_site_label
_atom_site_type_symbol
_atom_site_fract_x 
_atom_site_fract_y
_atom_site_fract_z
_atom_site_charge
Zn1 Zn1 0.0 0.0 0.24653116 0.0
Zn2 Zn2 -0.04349513 -0.08701513 0.1592418 0.0
O1F O1F -0.06666 -0.09194 0.25603 0.0
O2F O2F -0.083017 -0.15697 0.20204 0.0
O3F O3F -0.18301 -0.38207 0.27008 0.0
O4F O4F -0.22237 -0.54814 0.45723 0.0
O5F O5F -0.31304 -0.54176 0.46194 0.0
O6F O6F -0.07973 -0.34843 0.36942 0.0
C1F C1F -0.08435 -0.14625 0.24144 0.0
C2F C2F -0.11076 -0.20365 0.27154 0.0
C3F C3F -0.13407 -0.26576 0.25514 0.0
H3F H3F -0.1333 -0.272 0.2247 0.0
C4F C4F -0.15846 -0.31845 0.28284 0.0
C5F C5F -0.15956 -0.30905 0.32733 0.0
C6F C6F -0.13577 -0.24726 0.34294 0.0
H6F H6F -0.1354 -0.2404 0.3733 0.0
C7F C7F -0.11208 -0.19466 0.31514 0.0
H7F H7F -0.0966 -0.152 0.3264 0.0
C8F C8F -0.1965 -0.3942 0.22401 0.0
H8F1 H8F1 -0.2077 -0.4396 0.2176 0.0
H8F2 H8F2 -0.1566 -0.3648 0.2075 0.0
H8F3 H8F3 -0.2317 -0.3874 0.2156 0.0
C9F C9F -0.25796 -0.52455 0.44714 0.0
C10F C10F -0.23326 -0.46855 0.41634 0.0
C11F C11F -0.16816 -0.43345 0.40754 0.0
H11F H11F -0.1391 -0.4445 0.4213 0.0
C12F C12F -0.14386 -0.38174 0.37843 0.0
C13F C13F -0.18555 -0.36545 0.35813 0.0
C14F C14F -0.25076 -0.39895 0.36834 0.0
H14F H14F -0.2793 -0.3864 0.3555 0.0
C15F C15F -0.27496 -0.45046 0.39714 0.0
H15F H15F -0.3201 -0.4735 0.4039 0.0
C16F C16F -0.03555 -0.36377 0.39305 0.0
H16D H16D 0.009 -0.3363 0.3823 0.0
H16E H16E -0.0489 -0.4097 0.3886 0.0
H16F H16F -0.0371 -0.3555 0.4241 0.0
O7 O7 0.0 0.0 0.181908 0.0
O8 O8 0.0 0.0 0.31712 0.0
_cell_length_a 23.68994
_cell_length_b 23.68994
_cell_length_c 30.80587
_cell_angle_alpha 90.0
_cell_angle_beta 90.0
_cell_angle_gamma 120.0
_symmetry_space_group_name_H-M         'P 1'
_symmetry_Int_Tables_number            1
loop_
_symmetry_equiv_pos_as_xyz
   'x, y, z'
                         
loop_
_atom_site_label
_atom_site_type_symbol
_atom_site_fract_x 
_atom_site_fract_y
_atom_site_fract_z
_atom_site_charge
Zn1 Zn1 0.0 0.0 0.24653116 0.0
Zn2 Zn2 -0.04349513 -0.08701513 0.1592418 0.0
O1F O1F -0.06666 -0.09194 0.25603 0.0
O2F O2F -0.083017 -0.15697 0.20204 0.0
O3F O3F -0.18301 -0.38207 0.27008 0.0
O4F O4F -0.22237 -0.54814 0.45723 0.0
O5F O5F -0.31304 -0.54176 0.46194 0.0
O6F O6F -0.07973 -0.34843 0.36942 0.0
C1F C1F -0.08435 -0.14625 0.24144 0.0
C2F C2F -0.11076 -0.20365 0.27154 0.0
C3F C3F -0.13407 -0.26576 0.25514 0.0
H3F H3F -0.1333 -0.272 0.2247 0.0
C4F C4F -0.15846 -0.31845 0.28284 0.0
C5F C5F -0.15956 -0.30905 0.32733 0.0
C6F C6F -0.13577 -0.24726 0.34294 0.0
H6F H6F -0.1354 -0.2404 0.3733 0.0
C7F C7F -0.11208 -0.19466 0.31514 0.0
H7F H7F -0.0966 -0.152 0.3264 0.0
C8F C8F -0.1965 -0.3942 0.22401 0.0
H8F1 H8F1 -0.2077 -0.4396 0.2176 0.0
H8F2 H8F2 -0.1566 -0.3648 0.2075 0.0
H8F3 H8F3 -0.2317 -0.3874 0.2156 0.0
C9F C9F -0.25796 -0.52455 0.44714 0.0
C10F C10F -0.23326 -0.46855 0.41634 0.0
C11F C11F -0.16816 -0.43345 0.40754 0.0
H11F H11F -0.1391 -0.4445 0.4213 0.0
C12F C12F -0.14386 -0.38174 0.37843 0.0
C13F C13F -0.18555 -0.36545 0.35813 0.0
C14F C14F -0.25076 -0.39895 0.36834 0.0
H14F H14F -0.2793 -0.3864 0.3555 0.0
C15F C15F -0.27496 -0.45046 0.39714 0.0
H15F H15F -0.3201 -0.4735 0.4039 0.0
C16F C16F -0.03555 -0.36377 0.39305 0.0
H16D H16D 0.009 -0.3363 0.3823 0.0
H16E H16E -0.0489 -0.4097 0.3886 0.0
H16F H16F -0.0371 -0.3555 0.4241 0.0
O7 O7 0.0 0.0 0.181908 0.0
O8 O8 0.0 0.0 0.31712 0.0
_cell_length_a 23.68994
_cell_length_b 23.68994
_cell_length_c 30.80587
_cell_angle_alpha 90.0
_cell_angle_beta 90.0
_cell_angle_gamma 120.0
_symmetry_space_group_name_H-M         'P 1'
_symmetry_Int_Tables_number            1
loop_
_symmetry_equiv_pos_as_xyz
   'x, y, z'
                         
loop_
_atom_site_label
_atom_site_type_symbol
_atom_site_fract_x 
_atom_site_fract_y
_atom_site_fract_z
_atom_site_charge
Zn1 Zn1 0.0 0.0 0.24653116 0.0
Zn2 Zn2 -0.04349513 -0.08701513 0.1592418 0.0
O1F O1F -0.06666 -0.09194 0.25603 0.0
O2F O2F -0.083017 -0.15697 0.20204 0.0
O3F O3F -0.18301 -0.38207 0.27008 0.0
O4F O4F -0.22237 -0.54814 0.45723 0.0
O5F O5F -0.31304 -0.54176 0.46194 0.0
O6F O6F -0.07973 -0.34843 0.36942 0.0
C1F C1F -0.08435 -0.14625 0.24144 0.0
C2F C2F -0.11076 -0.20365 0.27154 0.0
C3F C3F -0.13407 -0.26576 0.25514 0.0
H3F H3F -0.1333 -0.272 0.2247 0.0
C4F C4F -0.15846 -0.31845 0.28284 0.0
C5F C5F -0.15956 -0.30905 0.32733 0.0
C6F C6F -0.13577 -0.24726 0.34294 0.0
H6F H6F -0.1354 -0.2404 0.3733 0.0
C7F C7F -0.11208 -0.19466 0.31514 0.0
H7F H7F -0.0966 -0.152 0.3264 0.0
C8F C8F -0.1965 -0.3942 0.22401 0.0
H8F1 H8F1 -0.2077 -0.4396 0.2176 0.0
H8F2 H8F2 -0.1566 -0.3648 0.2075 0.0
H8F3 H8F3 -0.2317 -0.3874 0.2156 0.0
C9F C9F -0.25796 -0.52455 0.44714 0.0
C10F C10F -0.23326 -0.46855 0.41634 0.0
C11F C11F -0.16816 -0.43345 0.40754 0.0
H11F H11F -0.1391 -0.4445 0.4213 0.0
C12F C12F -0.14386 -0.38174 0.37843 0.0
C13F C13F -0.18555 -0.36545 0.35813 0.0
C14F C14F -0.25076 -0.39895 0.36834 0.0
H14F H14F -0.2793 -0.3864 0.3555 0.0
C15F C15F -0.27496 -0.45046 0.39714 0.0
H15F H15F -0.3201 -0.4735 0.4039 0.0
C16F C16F -0.03555 -0.36377 0.39305 0.0
H16D H16D 0.009 -0.3363 0.3823 0.0
H16E H16E -0.0489 -0.4097 0.3886 0.0
H16F H16F -0.0371 -0.3555 0.4241 0.0
O7 O7 0.0 0.0 0.181908 0.0
O8 O8 0.0 0.0 0.31712 0.0
_cell_length_a 23.68994
_cell_length_b 23.68994
_cell_length_c 30.80587
_cell_angle_alpha 90.0
_cell_angle_beta 90.0
_cell_angle_gamma 120.0
_symmetry_space_group_name_H-M         'P 1'
_symmetry_Int_Tables_number            1
loop_
_symmetry_equiv_pos_as_xyz
   'x, y, z'
                         
loop_
_atom_site_label
_atom_site_type_symbol
_atom_site_fract_x 
_atom_site_fract_y
_atom_site_fract_z
_atom_site_charge
Zn1 Zn1 0.0 0.0 0.24653116 0.0
Zn2 Zn2 -0.04349513 -0.08701513 0.1592418 0.0
O1F O1F -0.06666 -0.09194 0.25603 0.0
O2F O2F -0.083017 -0.15697 0.20204 0.0
O3F O3F -0.18301 -0.38207 0.27008 0.0
O4F O4F -0.22237 -0.54814 0.45723 0.0
O5F O5F -0.31304 -0.54176 0.46194 0.0
O6F O6F -0.07973 -0.34843 0.36942 0.0
C1F C1F -0.08435 -0.14625 0.24144 0.0
C2F C2F -0.11076 -0.20365 0.27154 0.0
C3F C3F -0.13407 -0.26576 0.25514 0.0
H3F H3F -0.1333 -0.272 0.2247 0.0
C4F C4F -0.15846 -0.31845 0.28284 0.0
C5F C5F -0.15956 -0.30905 0.32733 0.0
C6F C6F -0.13577 -0.24726 0.34294 0.0
H6F H6F -0.1354 -0.2404 0.3733 0.0
C7F C7F -0.11208 -0.19466 0.31514 0.0
H7F H7F -0.0966 -0.152 0.3264 0.0
C8F C8F -0.1965 -0.3942 0.22401 0.0
H8F1 H8F1 -0.2077 -0.4396 0.2176 0.0
H8F2 H8F2 -0.1566 -0.3648 0.2075 0.0
H8F3 H8F3 -0.2317 -0.3874 0.2156 0.0
C9F C9F -0.25796 -0.52455 0.44714 0.0
C10F C10F -0.23326 -0.46855 0.41634 0.0
C11F C11F -0.16816 -0.43345 0.40754 0.0
H11F H11F -0.1391 -0.4445 0.4213 0.0
C12F C12F -0.14386 -0.38174 0.37843 0.0
C13F C13F -0.18555 -0.36545 0.35813 0.0
C14F C14F -0.25076 -0.39895 0.36834 0.0
H14F H14F -0.2793 -0.3864 0.3555 0.0
C15F C15F -0.27496 -0.45046 0.39714 0.0
H15F H15F -0.3201 -0.4735 0.4039 0.0
C16F C16F -0.03555 -0.36377 0.39305 0.0
H16D H16D 0.009 -0.3363 0.3823 0.0
H16E H16E -0.0489 -0.4097 0.3886 0.0
H16F H16F -0.0371 -0.3555 0.4241 0.0
O7 O7 0.0 0.0 0.181908 0.0
O8 O8 0.0 0.0 0.31712 0.0
_cell_length_a 23.68994
_cell_length_b 23.68994
_cell_length_c 30.80587
_cell_angle_alpha 90.0
_cell_angle_beta 90.0
_cell_angle_gamma 120.0
_symmetry_space_group_name_H-M         'P 1'
_symmetry_Int_Tables_number            1
loop_
_symmetry_equiv_pos_as_xyz
   'x, y, z'
                         
loop_
_atom_site_label
_atom_site_type_symbol
_atom_site_fract_x 
_atom_site_fract_y
_atom_site_fract_z
_atom_site_charge
Zn1 Zn1 0.0 0.0 0.24653116 0.0
Zn2 Zn2 -0.04349513 -0.08701513 0.1592418 0.0
O1F O1F -0.06666 -0.09194 0.25603 0.0
O2F O2F -0.083017 -0.15697 0.20204 0.0
O3F O3F -0.18301 -0.38207 0.27008 0.0
O4F O4F -0.22237 -0.54814 0.45723 0.0
O5F O5F -0.31304 -0.54176 0.46194 0.0
O6F O6F -0.07973 -0.34843 0.36942 0.0
C1F C1F -0.08435 -0.14625 0.24144 0.0
C2F C2F -0.11076 -0.20365 0.27154 0.0
C3F C3F -0.13407 -0.26576 0.25514 0.0
H3F H3F -0.1333 -0.272 0.2247 0.0
C4F C4F -0.15846 -0.31845 0.28284 0.0
C5F C5F -0.15956 -0.30905 0.32733 0.0
C6F C6F -0.13577 -0.24726 0.34294 0.0
H6F H6F -0.1354 -0.2404 0.3733 0.0
C7F C7F -0.11208 -0.19466 0.31514 0.0
H7F H7F -0.0966 -0.152 0.3264 0.0
C8F C8F -0.1965 -0.3942 0.22401 0.0
H8F1 H8F1 -0.2077 -0.4396 0.2176 0.0
H8F2 H8F2 -0.1566 -0.3648 0.2075 0.0
H8F3 H8F3 -0.2317 -0.3874 0.2156 0.0
C9F C9F -0.25796 -0.52455 0.44714 0.0
C10F C10F -0.23326 -0.46855 0.41634 0.0
C11F C11F -0.16816 -0.43345 0.40754 0.0
H11F H11F -0.1391 -0.4445 0.4213 0.0
C12F C12F -0.14386 -0.38174 0.37843 0.0
C13F C13F -0.18555 -0.36545 0.35813 0.0
C14F C14F -0.25076 -0.39895 0.36834 0.0
H14F H14F -0.2793 -0.3864 0.3555 0.0
C15F C15F -0.27496 -0.45046 0.39714 0.0
H15F H15F -0.3201 -0.4735 0.4039 0.0
C16F C16F -0.03555 -0.36377 0.39305 0.0
H16D H16D 0.009 -0.3363 0.3823 0.0
H16E H16E -0.0489 -0.4097 0.3886 0.0
H16F H16F -0.0371 -0.3555 0.4241 0.0
O7 O7 0.0 0.0 0.181908 0.0
O8 O8 0.0 0.0 0.31712 0.0
_cell_length_a 23.68994
_cell_length_b 23.68994
_cell_length_c 30.80587
_cell_angle_alpha 90.0
_cell_angle_beta 90.0
_cell_angle_gamma 120.0
_symmetry_space_group_name_H-M         'P 1'
_symmetry_Int_Tables_number            1
loop_
_symmetry_equiv_pos_as_xyz
   'x, y, z'
                         
loop_
_atom_site_label
_atom_site_type_symbol
_atom_site_fract_x 
_atom_site_fract_y
_atom_site_fract_z
_atom_site_charge
Zn1 Zn1 0.0 0.0 0.24653116 0.0
Zn2 Zn2 -0.04349513 -0.08701513 0.1592418 0.0
O1F O1F -0.06666 -0.09194 0.25603 0.0
O2F O2F -0.083017 -0.15697 0.20204 0.0
O3F O3F -0.18301 -0.38207 0.27008 0.0
O4F O4F -0.22237 -0.54814 0.45723 0.0
O5F O5F -0.31304 -0.54176 0.46194 0.0
O6F O6F -0.07973 -0.34843 0.36942 0.0
C1F C1F -0.08435 -0.14625 0.24144 0.0
C2F C2F -0.11076 -0.20365 0.27154 0.0
C3F C3F -0.13407 -0.26576 0.25514 0.0
H3F H3F -0.1333 -0.272 0.2247 0.0
C4F C4F -0.15846 -0.31845 0.28284 0.0
C5F C5F -0.15956 -0.30905 0.32733 0.0
C6F C6F -0.13577 -0.24726 0.34294 0.0
H6F H6F -0.1354 -0.2404 0.3733 0.0
C7F C7F -0.11208 -0.19466 0.31514 0.0
H7F H7F -0.0966 -0.152 0.3264 0.0
C8F C8F -0.1965 -0.3942 0.22401 0.0
H8F1 H8F1 -0.2077 -0.4396 0.2176 0.0
H8F2 H8F2 -0.1566 -0.3648 0.2075 0.0
H8F3 H8F3 -0.2317 -0.3874 0.2156 0.0
C9F C9F -0.25796 -0.52455 0.44714 0.0
C10F C10F -0.23326 -0.46855 0.41634 0.0
C11F C11F -0.16816 -0.43345 0.40754 0.0
H11F H11F -0.1391 -0.4445 0.4213 0.0
C12F C12F -0.14386 -0.38174 0.37843 0.0
C13F C13F -0.18555 -0.36545 0.35813 0.0
C14F C14F -0.25076 -0.39895 0.36834 0.0
H14F H14F -0.2793 -0.3864 0.3555 0.0
C15F C15F -0.27496 -0.45046 0.39714 0.0
H15F H15F -0.3201 -0.4735 0.4039 0.0
C16F C16F -0.03555 -0.36377 0.39305 0.0
H16D H16D 0.009 -0.3363 0.3823 0.0
H16E H16E -0.0489 -0.4097 0.3886 0.0
H16F H16F -0.0371 -0.3555 0.4241 0.0
O7 O7 0.0 0.0 0.181908 0.0
O8 O8 0.0 0.0 0.31712 0.0
_cell_length_a 23.68994
_cell_length_b 23.68994
_cell_length_c 30.80587
_cell_angle_alpha 90.0
_cell_angle_beta 90.0
_cell_angle_gamma 120.0
_symmetry_space_group_name_H-M         'P 1'
_symmetry_Int_Tables_number            1
loop_
_symmetry_equiv_pos_as_xyz
   'x, y, z'
                         
loop_
_atom_site_label
_atom_site_type_symbol
_atom_site_fract_x 
_atom_site_fract_y
_atom_site_fract_z
_atom_site_charge
Zn1 Zn1 0.0 0.0 0.24653116 0.0
Zn2 Zn2 -0.04349513 -0.08701513 0.1592418 0.0
O1F O1F -0.06666 -0.09194 0.25603 0.0
O2F O2F -0.083017 -0.15697 0.20204 0.0
O3F O3F -0.18301 -0.38207 0.27008 0.0
O4F O4F -0.22237 -0.54814 0.45723 0.0
O5F O5F -0.31304 -0.54176 0.46194 0.0
O6F O6F -0.07973 -0.34843 0.36942 0.0
C1F C1F -0.08435 -0.14625 0.24144 0.0
C2F C2F -0.11076 -0.20365 0.27154 0.0
C3F C3F -0.13407 -0.26576 0.25514 0.0
H3F H3F -0.1333 -0.272 0.2247 0.0
C4F C4F -0.15846 -0.31845 0.28284 0.0
C5F C5F -0.15956 -0.30905 0.32733 0.0
C6F C6F -0.13577 -0.24726 0.34294 0.0
H6F H6F -0.1354 -0.2404 0.3733 0.0
C7F C7F -0.11208 -0.19466 0.31514 0.0
H7F H7F -0.0966 -0.152 0.3264 0.0
C8F C8F -0.1965 -0.3942 0.22401 0.0
H8F1 H8F1 -0.2077 -0.4396 0.2176 0.0
H8F2 H8F2 -0.1566 -0.3648 0.2075 0.0
H8F3 H8F3 -0.2317 -0.3874 0.2156 0.0
C9F C9F -0.25796 -0.52455 0.44714 0.0
C10F C10F -0.23326 -0.46855 0.41634 0.0
C11F C11F -0.16816 -0.43345 0.40754 0.0
H11F H11F -0.1391 -0.4445 0.4213 0.0
C12F C12F -0.14386 -0.38174 0.37843 0.0
C13F C13F -0.18555 -0.36545 0.35813 0.0
C14F C14F -0.25076 -0.39895 0.36834 0.0
H14F H14F -0.2793 -0.3864 0.3555 0.0
C15F C15F -0.27496 -0.45046 0.39714 0.0
H15F H15F -0.3201 -0.4735 0.4039 0.0
C16F C16F -0.03555 -0.36377 0.39305 0.0
H16D H16D 0.009 -0.3363 0.3823 0.0
H16E H16E -0.0489 -0.4097 0.3886 0.0
H16F H16F -0.0371 -0.3555 0.4241 0.0
O7 O7 0.0 0.0 0.181908 0.0
O8 O8 0.0 0.0 0.31712 0.0
_cell_length_a 23.68994
_cell_length_b 23.68994
_cell_length_c 30.80587
_cell_angle_alpha 90.0
_cell_angle_beta 90.0
_cell_angle_gamma 120.0
_symmetry_space_group_name_H-M         'P 1'
_symmetry_Int_Tables_number            1
loop_
_symmetry_equiv_pos_as_xyz
   'x, y, z'
                         
loop_
_atom_site_label
_atom_site_type_symbol
_atom_site_fract_x 
_atom_site_fract_y
_atom_site_fract_z
_atom_site_charge
Zn1 Zn1 0.0 0.0 0.24653116 0.0
Zn2 Zn2 -0.04349513 -0.08701513 0.1592418 0.0
O1F O1F -0.06666 -0.09194 0.25603 0.0
O2F O2F -0.083017 -0.15697 0.20204 0.0
O3F O3F -0.18301 -0.38207 0.27008 0.0
O4F O4F -0.22237 -0.54814 0.45723 0.0
O5F O5F -0.31304 -0.54176 0.46194 0.0
O6F O6F -0.07973 -0.34843 0.36942 0.0
C1F C1F -0.08435 -0.14625 0.24144 0.0
C2F C2F -0.11076 -0.20365 0.27154 0.0
C3F C3F -0.13407 -0.26576 0.25514 0.0
H3F H3F -0.1333 -0.272 0.2247 0.0
C4F C4F -0.15846 -0.31845 0.28284 0.0
C5F C5F -0.15956 -0.30905 0.32733 0.0
C6F C6F -0.13577 -0.24726 0.34294 0.0
H6F H6F -0.1354 -0.2404 0.3733 0.0
C7F C7F -0.11208 -0.19466 0.31514 0.0
H7F H7F -0.0966 -0.152 0.3264 0.0
C8F C8F -0.1965 -0.3942 0.22401 0.0
H8F1 H8F1 -0.2077 -0.4396 0.2176 0.0
H8F2 H8F2 -0.1566 -0.3648 0.2075 0.0
H8F3 H8F3 -0.2317 -0.3874 0.2156 0.0
C9F C9F -0.25796 -0.52455 0.44714 0.0
C10F C10F -0.23326 -0.46855 0.41634 0.0
C11F C11F -0.16816 -0.43345 0.40754 0.0
H11F H11F -0.1391 -0.4445 0.4213 0.0
C12F C12F -0.14386 -0.38174 0.37843 0.0
C13F C13F -0.18555 -0.36545 0.35813 0.0
C14F C14F -0.25076 -0.39895 0.36834 0.0
H14F H14F -0.2793 -0.3864 0.3555 0.0
C15F C15F -0.27496 -0.45046 0.39714 0.0
H15F H15F -0.3201 -0.4735 0.4039 0.0
C16F C16F -0.03555 -0.36377 0.39305 0.0
H16D H16D 0.009 -0.3363 0.3823 0.0
H16E H16E -0.0489 -0.4097 0.3886 0.0
H16F H16F -0.0371 -0.3555 0.4241 0.0
O7 O7 0.0 0.0 0.181908 0.0
O8 O8 0.0 0.0 0.31712 0.0
_cell_length_a 23.68994
_cell_length_b 23.68994
_cell_length_c 30.80587
_cell_angle_alpha 90.0
_cell_angle_beta 90.0
_cell_angle_gamma 120.0
_symmetry_space_group_name_H-M         'P 1'
_symmetry_Int_Tables_number            1
loop_
_symmetry_equiv_pos_as_xyz
   'x, y, z'
                         
loop_
_atom_site_label
_atom_site_type_symbol
_atom_site_fract_x 
_atom_site_fract_y
_atom_site_fract_z
_atom_site_charge
Zn1 Zn1 0.0 0.0 0.24653116 0.0
Zn2 Zn2 -0.04349513 -0.08701513 0.1592418 0.0
O1F O1F -0.06666 -0.09194 0.25603 0.0
O2F O2F -0.083017 -0.15697 0.20204 0.0
O3F O3F -0.18301 -0.38207 0.27008 0.0
O4F O4F -0.22237 -0.54814 0.45723 0.0
O5F O5F -0.31304 -0.54176 0.46194 0.0
O6F O6F -0.07973 -0.34843 0.36942 0.0
C1F C1F -0.08435 -0.14625 0.24144 0.0
C2F C2F -0.11076 -0.20365 0.27154 0.0
C3F C3F -0.13407 -0.26576 0.25514 0.0
H3F H3F -0.1333 -0.272 0.2247 0.0
C4F C4F -0.15846 -0.31845 0.28284 0.0
C5F C5F -0.15956 -0.30905 0.32733 0.0
C6F C6F -0.13577 -0.24726 0.34294 0.0
H6F H6F -0.1354 -0.2404 0.3733 0.0
C7F C7F -0.11208 -0.19466 0.31514 0.0
H7F H7F -0.0966 -0.152 0.3264 0.0
C8F C8F -0.1965 -0.3942 0.22401 0.0
H8F1 H8F1 -0.2077 -0.4396 0.2176 0.0
H8F2 H8F2 -0.1566 -0.3648 0.2075 0.0
H8F3 H8F3 -0.2317 -0.3874 0.2156 0.0
C9F C9F -0.25796 -0.52455 0.44714 0.0
C10F C10F -0.23326 -0.46855 0.41634 0.0
C11F C11F -0.16816 -0.43345 0.40754 0.0
H11F H11F -0.1391 -0.4445 0.4213 0.0
C12F C12F -0.14386 -0.38174 0.37843 0.0
C13F C13F -0.18555 -0.36545 0.35813 0.0
C14F C14F -0.25076 -0.39895 0.36834 0.0
H14F H14F -0.2793 -0.3864 0.3555 0.0
C15F C15F -0.27496 -0.45046 0.39714 0.0
H15F H15F -0.3201 -0.4735 0.4039 0.0
C16F C16F -0.03555 -0.36377 0.39305 0.0
H16D H16D 0.009 -0.3363 0.3823 0.0
H16E H16E -0.0489 -0.4097 0.3886 0.0
H16F H16F -0.0371 -0.3555 0.4241 0.0
O7 O7 0.0 0.0 0.181908 0.0
O8 O8 0.0 0.0 0.31712 0.0
_cell_length_a 23.68994
_cell_length_b 23.68994
_cell_length_c 30.80587
_cell_angle_alpha 90.0
_cell_angle_beta 90.0
_cell_angle_gamma 120.0
_symmetry_space_group_name_H-M         'P 1'
_symmetry_Int_Tables_number            1
loop_
_symmetry_equiv_pos_as_xyz
   'x, y, z'
                         
loop_
_atom_site_label
_atom_site_type_symbol
_atom_site_fract_x 
_atom_site_fract_y
_atom_site_fract_z
_atom_site_charge
Zn1 Zn1 0.0 0.0 0.24653116 0.0
Zn2 Zn2 -0.04349513 -0.08701513 0.1592418 0.0
O1F O1F -0.06666 -0.09194 0.25603 0.0
O2F O2F -0.083017 -0.15697 0.20204 0.0
O3F O3F -0.18301 -0.38207 0.27008 0.0
O4F O4F -0.22237 -0.54814 0.45723 0.0
O5F O5F -0.31304 -0.54176 0.46194 0.0
O6F O6F -0.07973 -0.34843 0.36942 0.0
C1F C1F -0.08435 -0.14625 0.24144 0.0
C2F C2F -0.11076 -0.20365 0.27154 0.0
C3F C3F -0.13407 -0.26576 0.25514 0.0
H3F H3F -0.1333 -0.272 0.2247 0.0
C4F C4F -0.15846 -0.31845 0.28284 0.0
C5F C5F -0.15956 -0.30905 0.32733 0.0
C6F C6F -0.13577 -0.24726 0.34294 0.0
H6F H6F -0.1354 -0.2404 0.3733 0.0
C7F C7F -0.11208 -0.19466 0.31514 0.0
H7F H7F -0.0966 -0.152 0.3264 0.0
C8F C8F -0.1965 -0.3942 0.22401 0.0
H8F1 H8F1 -0.2077 -0.4396 0.2176 0.0
H8F2 H8F2 -0.1566 -0.3648 0.2075 0.0
H8F3 H8F3 -0.2317 -0.3874 0.2156 0.0
C9F C9F -0.25796 -0.52455 0.44714 0.0
C10F C10F -0.23326 -0.46855 0.41634 0.0
C11F C11F -0.16816 -0.43345 0.40754 0.0
H11F H11F -0.1391 -0.4445 0.4213 0.0
C12F C12F -0.14386 -0.38174 0.37843 0.0
C13F C13F -0.18555 -0.36545 0.35813 0.0
C14F C14F -0.25076 -0.39895 0.36834 0.0
H14F H14F -0.2793 -0.3864 0.3555 0.0
C15F C15F -0.27496 -0.45046 0.39714 0.0
H15F H15F -0.3201 -0.4735 0.4039 0.0
C16F C16F -0.03555 -0.36377 0.39305 0.0
H16D H16D 0.009 -0.3363 0.3823 0.0
H16E H16E -0.0489 -0.4097 0.3886 0.0
H16F H16F -0.0371 -0.3555 0.4241 0.0
O7 O7 0.0 0.0 0.181908 0.0
O8 O8 0.0 0.0 0.31712 0.0
_cell_length_a 23.68994
_cell_length_b 23.68994
_cell_length_c 30.80587
_cell_angle_alpha 90.0
_cell_angle_beta 90.0
_cell_angle_gamma 120.0
_symmetry_space_group_name_H-M         'P 1'
_symmetry_Int_Tables_number            1
loop_
_symmetry_equiv_pos_as_xyz
   'x, y, z'
                         
loop_
_atom_site_label
_atom_site_type_symbol
_atom_site_fract_x 
_atom_site_fract_y
_atom_site_fract_z
_atom_site_charge
Zn1 Zn1 0.0 0.0 0.24653116 0.0
Zn2 Zn2 -0.04349513 -0.08701513 0.1592418 0.0
O1F O1F -0.06666 -0.09194 0.25603 0.0
O2F O2F -0.083017 -0.15697 0.20204 0.0
O3F O3F -0.18301 -0.38207 0.27008 0.0
O4F O4F -0.22237 -0.54814 0.45723 0.0
O5F O5F -0.31304 -0.54176 0.46194 0.0
O6F O6F -0.07973 -0.34843 0.36942 0.0
C1F C1F -0.08435 -0.14625 0.24144 0.0
C2F C2F -0.11076 -0.20365 0.27154 0.0
C3F C3F -0.13407 -0.26576 0.25514 0.0
H3F H3F -0.1333 -0.272 0.2247 0.0
C4F C4F -0.15846 -0.31845 0.28284 0.0
C5F C5F -0.15956 -0.30905 0.32733 0.0
C6F C6F -0.13577 -0.24726 0.34294 0.0
H6F H6F -0.1354 -0.2404 0.3733 0.0
C7F C7F -0.11208 -0.19466 0.31514 0.0
H7F H7F -0.0966 -0.152 0.3264 0.0
C8F C8F -0.1965 -0.3942 0.22401 0.0
H8F1 H8F1 -0.2077 -0.4396 0.2176 0.0
H8F2 H8F2 -0.1566 -0.3648 0.2075 0.0
H8F3 H8F3 -0.2317 -0.3874 0.2156 0.0
C9F C9F -0.25796 -0.52455 0.44714 0.0
C10F C10F -0.23326 -0.46855 0.41634 0.0
C11F C11F -0.16816 -0.43345 0.40754 0.0
H11F H11F -0.1391 -0.4445 0.4213 0.0
C12F C12F -0.14386 -0.38174 0.37843 0.0
C13F C13F -0.18555 -0.36545 0.35813 0.0
C14F C14F -0.25076 -0.39895 0.36834 0.0
H14F H14F -0.2793 -0.3864 0.3555 0.0
C15F C15F -0.27496 -0.45046 0.39714 0.0
H15F H15F -0.3201 -0.4735 0.4039 0.0
C16F C16F -0.03555 -0.36377 0.39305 0.0
H16D H16D 0.009 -0.3363 0.3823 0.0
H16E H16E -0.0489 -0.4097 0.3886 0.0
H16F H16F -0.0371 -0.3555 0.4241 0.0
O7 O7 0.0 0.0 0.181908 0.0
O8 O8 0.0 0.0 0.31712 0.0
_cell_length_a 23.68994
_cell_length_b 23.68994
_cell_length_c 30.80587
_cell_angle_alpha 90.0
_cell_angle_beta 90.0
_cell_angle_gamma 120.0
_symmetry_space_group_name_H-M         'P 1'
_symmetry_Int_Tables_number            1
loop_
_symmetry_equiv_pos_as_xyz
   'x, y, z'
                         
loop_
_atom_site_label
_atom_site_type_symbol
_atom_site_fract_x 
_atom_site_fract_y
_atom_site_fract_z
_atom_site_charge
Zn1 Zn1 0.0 0.0 0.24653116 0.0
Zn2 Zn2 -0.04349513 -0.08701513 0.1592418 0.0
O1F O1F -0.06666 -0.09194 0.25603 0.0
O2F O2F -0.083017 -0.15697 0.20204 0.0
O3F O3F -0.18301 -0.38207 0.27008 0.0
O4F O4F -0.22237 -0.54814 0.45723 0.0
O5F O5F -0.31304 -0.54176 0.46194 0.0
O6F O6F -0.07973 -0.34843 0.36942 0.0
C1F C1F -0.08435 -0.14625 0.24144 0.0
C2F C2F -0.11076 -0.20365 0.27154 0.0
C3F C3F -0.13407 -0.26576 0.25514 0.0
H3F H3F -0.1333 -0.272 0.2247 0.0
C4F C4F -0.15846 -0.31845 0.28284 0.0
C5F C5F -0.15956 -0.30905 0.32733 0.0
C6F C6F -0.13577 -0.24726 0.34294 0.0
H6F H6F -0.1354 -0.2404 0.3733 0.0
C7F C7F -0.11208 -0.19466 0.31514 0.0
H7F H7F -0.0966 -0.152 0.3264 0.0
C8F C8F -0.1965 -0.3942 0.22401 0.0
H8F1 H8F1 -0.2077 -0.4396 0.2176 0.0
H8F2 H8F2 -0.1566 -0.3648 0.2075 0.0
H8F3 H8F3 -0.2317 -0.3874 0.2156 0.0
C9F C9F -0.25796 -0.52455 0.44714 0.0
C10F C10F -0.23326 -0.46855 0.41634 0.0
C11F C11F -0.16816 -0.43345 0.40754 0.0
H11F H11F -0.1391 -0.4445 0.4213 0.0
C12F C12F -0.14386 -0.38174 0.37843 0.0
C13F C13F -0.18555 -0.36545 0.35813 0.0
C14F C14F -0.25076 -0.39895 0.36834 0.0
H14F H14F -0.2793 -0.3864 0.3555 0.0
C15F C15F -0.27496 -0.45046 0.39714 0.0
H15F H15F -0.3201 -0.4735 0.4039 0.0
C16F C16F -0.03555 -0.36377 0.39305 0.0
H16D H16D 0.009 -0.3363 0.3823 0.0
H16E H16E -0.0489 -0.4097 0.3886 0.0
H16F H16F -0.0371 -0.3555 0.4241 0.0
O7 O7 0.0 0.0 0.181908 0.0
O8 O8 0.0 0.0 0.31712 0.0
_cell_length_a 23.68994
_cell_length_b 23.68994
_cell_length_c 30.80587
_cell_angle_alpha 90.0
_cell_angle_beta 90.0
_cell_angle_gamma 120.0
_symmetry_space_group_name_H-M         'P 1'
_symmetry_Int_Tables_number            1
loop_
_symmetry_equiv_pos_as_xyz
   'x, y, z'
                         
loop_
_atom_site_label
_atom_site_type_symbol
_atom_site_fract_x 
_atom_site_fract_y
_atom_site_fract_z
_atom_site_charge
Zn1 Zn1 0.0 0.0 0.24653116 0.0
Zn2 Zn2 -0.04349513 -0.08701513 0.1592418 0.0
O1F O1F -0.06666 -0.09194 0.25603 0.0
O2F O2F -0.083017 -0.15697 0.20204 0.0
O3F O3F -0.18301 -0.38207 0.27008 0.0
O4F O4F -0.22237 -0.54814 0.45723 0.0
O5F O5F -0.31304 -0.54176 0.46194 0.0
O6F O6F -0.07973 -0.34843 0.36942 0.0
C1F C1F -0.08435 -0.14625 0.24144 0.0
C2F C2F -0.11076 -0.20365 0.27154 0.0
C3F C3F -0.13407 -0.26576 0.25514 0.0
H3F H3F -0.1333 -0.272 0.2247 0.0
C4F C4F -0.15846 -0.31845 0.28284 0.0
C5F C5F -0.15956 -0.30905 0.32733 0.0
C6F C6F -0.13577 -0.24726 0.34294 0.0
H6F H6F -0.1354 -0.2404 0.3733 0.0
C7F C7F -0.11208 -0.19466 0.31514 0.0
H7F H7F -0.0966 -0.152 0.3264 0.0
C8F C8F -0.1965 -0.3942 0.22401 0.0
H8F1 H8F1 -0.2077 -0.4396 0.2176 0.0
H8F2 H8F2 -0.1566 -0.3648 0.2075 0.0
H8F3 H8F3 -0.2317 -0.3874 0.2156 0.0
C9F C9F -0.25796 -0.52455 0.44714 0.0
C10F C10F -0.23326 -0.46855 0.41634 0.0
C11F C11F -0.16816 -0.43345 0.40754 0.0
H11F H11F -0.1391 -0.4445 0.4213 0.0
C12F C12F -0.14386 -0.38174 0.37843 0.0
C13F C13F -0.18555 -0.36545 0.35813 0.0
C14F C14F -0.25076 -0.39895 0.36834 0.0
H14F H14F -0.2793 -0.3864 0.3555 0.0
C15F C15F -0.27496 -0.45046 0.39714 0.0
H15F H15F -0.3201 -0.4735 0.4039 0.0
C16F C16F -0.03555 -0.36377 0.39305 0.0
H16D H16D 0.009 -0.3363 0.3823 0.0
H16E H16E -0.0489 -0.4097 0.3886 0.0
H16F H16F -0.0371 -0.3555 0.4241 0.0
O7 O7 0.0 0.0 0.181908 0.0
O8 O8 0.0 0.0 0.31712 0.0
_cell_length_a 23.68994
_cell_length_b 23.68994
_cell_length_c 30.80587
_cell_angle_alpha 90.0
_cell_angle_beta 90.0
_cell_angle_gamma 120.0
_symmetry_space_group_name_H-M         'P 1'
_symmetry_Int_Tables_number            1
loop_
_symmetry_equiv_pos_as_xyz
   'x, y, z'
                         
loop_
_atom_site_label
_atom_site_type_symbol
_atom_site_fract_x 
_atom_site_fract_y
_atom_site_fract_z
_atom_site_charge
Zn1 Zn1 0.0 0.0 0.24653116 0.0
Zn2 Zn2 -0.04349513 -0.08701513 0.1592418 0.0
O1F O1F -0.06666 -0.09194 0.25603 0.0
O2F O2F -0.083017 -0.15697 0.20204 0.0
O3F O3F -0.18301 -0.38207 0.27008 0.0
O4F O4F -0.22237 -0.54814 0.45723 0.0
O5F O5F -0.31304 -0.54176 0.46194 0.0
O6F O6F -0.07973 -0.34843 0.36942 0.0
C1F C1F -0.08435 -0.14625 0.24144 0.0
C2F C2F -0.11076 -0.20365 0.27154 0.0
C3F C3F -0.13407 -0.26576 0.25514 0.0
H3F H3F -0.1333 -0.272 0.2247 0.0
C4F C4F -0.15846 -0.31845 0.28284 0.0
C5F C5F -0.15956 -0.30905 0.32733 0.0
C6F C6F -0.13577 -0.24726 0.34294 0.0
H6F H6F -0.1354 -0.2404 0.3733 0.0
C7F C7F -0.11208 -0.19466 0.31514 0.0
H7F H7F -0.0966 -0.152 0.3264 0.0
C8F C8F -0.1965 -0.3942 0.22401 0.0
H8F1 H8F1 -0.2077 -0.4396 0.2176 0.0
H8F2 H8F2 -0.1566 -0.3648 0.2075 0.0
H8F3 H8F3 -0.2317 -0.3874 0.2156 0.0
C9F C9F -0.25796 -0.52455 0.44714 0.0
C10F C10F -0.23326 -0.46855 0.41634 0.0
C11F C11F -0.16816 -0.43345 0.40754 0.0
H11F H11F -0.1391 -0.4445 0.4213 0.0
C12F C12F -0.14386 -0.38174 0.37843 0.0
C13F C13F -0.18555 -0.36545 0.35813 0.0
C14F C14F -0.25076 -0.39895 0.36834 0.0
H14F H14F -0.2793 -0.3864 0.3555 0.0
C15F C15F -0.27496 -0.45046 0.39714 0.0
H15F H15F -0.3201 -0.4735 0.4039 0.0
C16F C16F -0.03555 -0.36377 0.39305 0.0
H16D H16D 0.009 -0.3363 0.3823 0.0
H16E H16E -0.0489 -0.4097 0.3886 0.0
H16F H16F -0.0371 -0.3555 0.4241 0.0
O7 O7 0.0 0.0 0.181908 0.0
O8 O8 0.0 0.0 0.31712 0.0
_cell_length_a 23.68994
_cell_length_b 23.68994
_cell_length_c 30.80587
_cell_angle_alpha 90.0
_cell_angle_beta 90.0
_cell_angle_gamma 120.0
_symmetry_space_group_name_H-M         'P 1'
_symmetry_Int_Tables_number            1
loop_
_symmetry_equiv_pos_as_xyz
   'x, y, z'
                         
loop_
_atom_site_label
_atom_site_type_symbol
_atom_site_fract_x 
_atom_site_fract_y
_atom_site_fract_z
_atom_site_charge
Zn1 Zn1 0.0 0.0 0.24653116 0.0
Zn2 Zn2 -0.04349513 -0.08701513 0.1592418 0.0
O1F O1F -0.06666 -0.09194 0.25603 0.0
O2F O2F -0.083017 -0.15697 0.20204 0.0
O3F O3F -0.18301 -0.38207 0.27008 0.0
O4F O4F -0.22237 -0.54814 0.45723 0.0
O5F O5F -0.31304 -0.54176 0.46194 0.0
O6F O6F -0.07973 -0.34843 0.36942 0.0
C1F C1F -0.08435 -0.14625 0.24144 0.0
C2F C2F -0.11076 -0.20365 0.27154 0.0
C3F C3F -0.13407 -0.26576 0.25514 0.0
H3F H3F -0.1333 -0.272 0.2247 0.0
C4F C4F -0.15846 -0.31845 0.28284 0.0
C5F C5F -0.15956 -0.30905 0.32733 0.0
C6F C6F -0.13577 -0.24726 0.34294 0.0
H6F H6F -0.1354 -0.2404 0.3733 0.0
C7F C7F -0.11208 -0.19466 0.31514 0.0
H7F H7F -0.0966 -0.152 0.3264 0.0
C8F C8F -0.1965 -0.3942 0.22401 0.0
H8F1 H8F1 -0.2077 -0.4396 0.2176 0.0
H8F2 H8F2 -0.1566 -0.3648 0.2075 0.0
H8F3 H8F3 -0.2317 -0.3874 0.2156 0.0
C9F C9F -0.25796 -0.52455 0.44714 0.0
C10F C10F -0.23326 -0.46855 0.41634 0.0
C11F C11F -0.16816 -0.43345 0.40754 0.0
H11F H11F -0.1391 -0.4445 0.4213 0.0
C12F C12F -0.14386 -0.38174 0.37843 0.0
C13F C13F -0.18555 -0.36545 0.35813 0.0
C14F C14F -0.25076 -0.39895 0.36834 0.0
H14F H14F -0.2793 -0.3864 0.3555 0.0
C15F C15F -0.27496 -0.45046 0.39714 0.0
H15F H15F -0.3201 -0.4735 0.4039 0.0
C16F C16F -0.03555 -0.36377 0.39305 0.0
H16D H16D 0.009 -0.3363 0.3823 0.0
H16E H16E -0.0489 -0.4097 0.3886 0.0
H16F H16F -0.0371 -0.3555 0.4241 0.0
O7 O7 0.0 0.0 0.181908 0.0
O8 O8 0.0 0.0 0.31712 0.0
_cell_length_a 23.68994
_cell_length_b 23.68994
_cell_length_c 30.80587
_cell_angle_alpha 90.0
_cell_angle_beta 90.0
_cell_angle_gamma 120.0
_symmetry_space_group_name_H-M         'P 1'
_symmetry_Int_Tables_number            1
loop_
_symmetry_equiv_pos_as_xyz
   'x, y, z'
                         
loop_
_atom_site_label
_atom_site_type_symbol
_atom_site_fract_x 
_atom_site_fract_y
_atom_site_fract_z
_atom_site_charge
Zn1 Zn1 0.0 0.0 0.24653116 0.0
Zn2 Zn2 -0.04349513 -0.08701513 0.1592418 0.0
O1F O1F -0.06666 -0.09194 0.25603 0.0
O2F O2F -0.083017 -0.15697 0.20204 0.0
O3F O3F -0.18301 -0.38207 0.27008 0.0
O4F O4F -0.22237 -0.54814 0.45723 0.0
O5F O5F -0.31304 -0.54176 0.46194 0.0
O6F O6F -0.07973 -0.34843 0.36942 0.0
C1F C1F -0.08435 -0.14625 0.24144 0.0
C2F C2F -0.11076 -0.20365 0.27154 0.0
C3F C3F -0.13407 -0.26576 0.25514 0.0
H3F H3F -0.1333 -0.272 0.2247 0.0
C4F C4F -0.15846 -0.31845 0.28284 0.0
C5F C5F -0.15956 -0.30905 0.32733 0.0
C6F C6F -0.13577 -0.24726 0.34294 0.0
H6F H6F -0.1354 -0.2404 0.3733 0.0
C7F C7F -0.11208 -0.19466 0.31514 0.0
H7F H7F -0.0966 -0.152 0.3264 0.0
C8F C8F -0.1965 -0.3942 0.22401 0.0
H8F1 H8F1 -0.2077 -0.4396 0.2176 0.0
H8F2 H8F2 -0.1566 -0.3648 0.2075 0.0
H8F3 H8F3 -0.2317 -0.3874 0.2156 0.0
C9F C9F -0.25796 -0.52455 0.44714 0.0
C10F C10F -0.23326 -0.46855 0.41634 0.0
C11F C11F -0.16816 -0.43345 0.40754 0.0
H11F H11F -0.1391 -0.4445 0.4213 0.0
C12F C12F -0.14386 -0.38174 0.37843 0.0
C13F C13F -0.18555 -0.36545 0.35813 0.0
C14F C14F -0.25076 -0.39895 0.36834 0.0
H14F H14F -0.2793 -0.3864 0.3555 0.0
C15F C15F -0.27496 -0.45046 0.39714 0.0
H15F H15F -0.3201 -0.4735 0.4039 0.0
C16F C16F -0.03555 -0.36377 0.39305 0.0
H16D H16D 0.009 -0.3363 0.3823 0.0
H16E H16E -0.0489 -0.4097 0.3886 0.0
H16F H16F -0.0371 -0.3555 0.4241 0.0
O7 O7 0.0 0.0 0.181908 0.0
O8 O8 0.0 0.0 0.31712 0.0
_cell_length_a 23.68994
_cell_length_b 23.68994
_cell_length_c 30.80587
_cell_angle_alpha 90.0
_cell_angle_beta 90.0
_cell_angle_gamma 120.0
_symmetry_space_group_name_H-M         'P 1'
_symmetry_Int_Tables_number            1
loop_
_symmetry_equiv_pos_as_xyz
   'x, y, z'
                         
loop_
_atom_site_label
_atom_site_type_symbol
_atom_site_fract_x 
_atom_site_fract_y
_atom_site_fract_z
_atom_site_charge
Zn1 Zn1 0.0 0.0 0.24653116 0.0
Zn2 Zn2 -0.04349513 -0.08701513 0.1592418 0.0
O1F O1F -0.06666 -0.09194 0.25603 0.0
O2F O2F -0.083017 -0.15697 0.20204 0.0
O3F O3F -0.18301 -0.38207 0.27008 0.0
O4F O4F -0.22237 -0.54814 0.45723 0.0
O5F O5F -0.31304 -0.54176 0.46194 0.0
O6F O6F -0.07973 -0.34843 0.36942 0.0
C1F C1F -0.08435 -0.14625 0.24144 0.0
C2F C2F -0.11076 -0.20365 0.27154 0.0
C3F C3F -0.13407 -0.26576 0.25514 0.0
H3F H3F -0.1333 -0.272 0.2247 0.0
C4F C4F -0.15846 -0.31845 0.28284 0.0
C5F C5F -0.15956 -0.30905 0.32733 0.0
C6F C6F -0.13577 -0.24726 0.34294 0.0
H6F H6F -0.1354 -0.2404 0.3733 0.0
C7F C7F -0.11208 -0.19466 0.31514 0.0
H7F H7F -0.0966 -0.152 0.3264 0.0
C8F C8F -0.1965 -0.3942 0.22401 0.0
H8F1 H8F1 -0.2077 -0.4396 0.2176 0.0
H8F2 H8F2 -0.1566 -0.3648 0.2075 0.0
H8F3 H8F3 -0.2317 -0.3874 0.2156 0.0
C9F C9F -0.25796 -0.52455 0.44714 0.0
C10F C10F -0.23326 -0.46855 0.41634 0.0
C11F C11F -0.16816 -0.43345 0.40754 0.0
H11F H11F -0.1391 -0.4445 0.4213 0.0
C12F C12F -0.14386 -0.38174 0.37843 0.0
C13F C13F -0.18555 -0.36545 0.35813 0.0
C14F C14F -0.25076 -0.39895 0.36834 0.0
H14F H14F -0.2793 -0.3864 0.3555 0.0
C15F C15F -0.27496 -0.45046 0.39714 0.0
H15F H15F -0.3201 -0.4735 0.4039 0.0
C16F C16F -0.03555 -0.36377 0.39305 0.0
H16D H16D 0.009 -0.3363 0.3823 0.0
H16E H16E -0.0489 -0.4097 0.3886 0.0
H16F H16F -0.0371 -0.3555 0.4241 0.0
O7 O7 0.0 0.0 0.181908 0.0
O8 O8 0.0 0.0 0.31712 0.0
_cell_length_a 23.68994
_cell_length_b 23.68994
_cell_length_c 30.80587
_cell_angle_alpha 90.0
_cell_angle_beta 90.0
_cell_angle_gamma 120.0
_symmetry_space_group_name_H-M         'P 1'
_symmetry_Int_Tables_number            1
loop_
_symmetry_equiv_pos_as_xyz
   'x, y, z'
                         
loop_
_atom_site_label
_atom_site_type_symbol
_atom_site_fract_x 
_atom_site_fract_y
_atom_site_fract_z
_atom_site_charge
Zn1 Zn1 0.0 0.0 0.24653116 0.0
Zn2 Zn2 -0.04349513 -0.08701513 0.1592418 0.0
O1F O1F -0.06666 -0.09194 0.25603 0.0
O2F O2F -0.083017 -0.15697 0.20204 0.0
O3F O3F -0.18301 -0.38207 0.27008 0.0
O4F O4F -0.22237 -0.54814 0.45723 0.0
O5F O5F -0.31304 -0.54176 0.46194 0.0
O6F O6F -0.07973 -0.34843 0.36942 0.0
C1F C1F -0.08435 -0.14625 0.24144 0.0
C2F C2F -0.11076 -0.20365 0.27154 0.0
C3F C3F -0.13407 -0.26576 0.25514 0.0
H3F H3F -0.1333 -0.272 0.2247 0.0
C4F C4F -0.15846 -0.31845 0.28284 0.0
C5F C5F -0.15956 -0.30905 0.32733 0.0
C6F C6F -0.13577 -0.24726 0.34294 0.0
H6F H6F -0.1354 -0.2404 0.3733 0.0
C7F C7F -0.11208 -0.19466 0.31514 0.0
H7F H7F -0.0966 -0.152 0.3264 0.0
C8F C8F -0.1965 -0.3942 0.22401 0.0
H8F1 H8F1 -0.2077 -0.4396 0.2176 0.0
H8F2 H8F2 -0.1566 -0.3648 0.2075 0.0
H8F3 H8F3 -0.2317 -0.3874 0.2156 0.0
C9F C9F -0.25796 -0.52455 0.44714 0.0
C10F C10F -0.23326 -0.46855 0.41634 0.0
C11F C11F -0.16816 -0.43345 0.40754 0.0
H11F H11F -0.1391 -0.4445 0.4213 0.0
C12F C12F -0.14386 -0.38174 0.37843 0.0
C13F C13F -0.18555 -0.36545 0.35813 0.0
C14F C14F -0.25076 -0.39895 0.36834 0.0
H14F H14F -0.2793 -0.3864 0.3555 0.0
C15F C15F -0.27496 -0.45046 0.39714 0.0
H15F H15F -0.3201 -0.4735 0.4039 0.0
C16F C16F -0.03555 -0.36377 0.39305 0.0
H16D H16D 0.009 -0.3363 0.3823 0.0
H16E H16E -0.0489 -0.4097 0.3886 0.0
H16F H16F -0.0371 -0.3555 0.4241 0.0
O7 O7 0.0 0.0 0.181908 0.0
O8 O8 0.0 0.0 0.31712 0.0
_cell_length_a 23.68994
_cell_length_b 23.68994
_cell_length_c 30.80587
_cell_angle_alpha 90.0
_cell_angle_beta 90.0
_cell_angle_gamma 120.0
_symmetry_space_group_name_H-M         'P 1'
_symmetry_Int_Tables_number            1
loop_
_symmetry_equiv_pos_as_xyz
   'x, y, z'
                         
loop_
_atom_site_label
_atom_site_type_symbol
_atom_site_fract_x 
_atom_site_fract_y
_atom_site_fract_z
_atom_site_charge
Zn1 Zn1 0.0 0.0 0.24653116 0.0
Zn2 Zn2 -0.04349513 -0.08701513 0.1592418 0.0
O1F O1F -0.06666 -0.09194 0.25603 0.0
O2F O2F -0.083017 -0.15697 0.20204 0.0
O3F O3F -0.18301 -0.38207 0.27008 0.0
O4F O4F -0.22237 -0.54814 0.45723 0.0
O5F O5F -0.31304 -0.54176 0.46194 0.0
O6F O6F -0.07973 -0.34843 0.36942 0.0
C1F C1F -0.08435 -0.14625 0.24144 0.0
C2F C2F -0.11076 -0.20365 0.27154 0.0
C3F C3F -0.13407 -0.26576 0.25514 0.0
H3F H3F -0.1333 -0.272 0.2247 0.0
C4F C4F -0.15846 -0.31845 0.28284 0.0
C5F C5F -0.15956 -0.30905 0.32733 0.0
C6F C6F -0.13577 -0.24726 0.34294 0.0
H6F H6F -0.1354 -0.2404 0.3733 0.0
C7F C7F -0.11208 -0.19466 0.31514 0.0
H7F H7F -0.0966 -0.152 0.3264 0.0
C8F C8F -0.1965 -0.3942 0.22401 0.0
H8F1 H8F1 -0.2077 -0.4396 0.2176 0.0
H8F2 H8F2 -0.1566 -0.3648 0.2075 0.0
H8F3 H8F3 -0.2317 -0.3874 0.2156 0.0
C9F C9F -0.25796 -0.52455 0.44714 0.0
C10F C10F -0.23326 -0.46855 0.41634 0.0
C11F C11F -0.16816 -0.43345 0.40754 0.0
H11F H11F -0.1391 -0.4445 0.4213 0.0
C12F C12F -0.14386 -0.38174 0.37843 0.0
C13F C13F -0.18555 -0.36545 0.35813 0.0
C14F C14F -0.25076 -0.39895 0.36834 0.0
H14F H14F -0.2793 -0.3864 0.3555 0.0
C15F C15F -0.27496 -0.45046 0.39714 0.0
H15F H15F -0.3201 -0.4735 0.4039 0.0
C16F C16F -0.03555 -0.36377 0.39305 0.0
H16D H16D 0.009 -0.3363 0.3823 0.0
H16E H16E -0.0489 -0.4097 0.3886 0.0
H16F H16F -0.0371 -0.3555 0.4241 0.0
O7 O7 0.0 0.0 0.181908 0.0
O8 O8 0.0 0.0 0.31712 0.0
_cell_length_a 23.68994
_cell_length_b 23.68994
_cell_length_c 30.80587
_cell_angle_alpha 90.0
_cell_angle_beta 90.0
_cell_angle_gamma 120.0
_symmetry_space_group_name_H-M         'P 1'
_symmetry_Int_Tables_number            1
loop_
_symmetry_equiv_pos_as_xyz
   'x, y, z'
                         
loop_
_atom_site_label
_atom_site_type_symbol
_atom_site_fract_x 
_atom_site_fract_y
_atom_site_fract_z
_atom_site_charge
Zn1 Zn1 0.0 0.0 0.24653116 0.0
Zn2 Zn2 -0.04349513 -0.08701513 0.1592418 0.0
O1F O1F -0.06666 -0.09194 0.25603 0.0
O2F O2F -0.083017 -0.15697 0.20204 0.0
O3F O3F -0.18301 -0.38207 0.27008 0.0
O4F O4F -0.22237 -0.54814 0.45723 0.0
O5F O5F -0.31304 -0.54176 0.46194 0.0
O6F O6F -0.07973 -0.34843 0.36942 0.0
C1F C1F -0.08435 -0.14625 0.24144 0.0
C2F C2F -0.11076 -0.20365 0.27154 0.0
C3F C3F -0.13407 -0.26576 0.25514 0.0
H3F H3F -0.1333 -0.272 0.2247 0.0
C4F C4F -0.15846 -0.31845 0.28284 0.0
C5F C5F -0.15956 -0.30905 0.32733 0.0
C6F C6F -0.13577 -0.24726 0.34294 0.0
H6F H6F -0.1354 -0.2404 0.3733 0.0
C7F C7F -0.11208 -0.19466 0.31514 0.0
H7F H7F -0.0966 -0.152 0.3264 0.0
C8F C8F -0.1965 -0.3942 0.22401 0.0
H8F1 H8F1 -0.2077 -0.4396 0.2176 0.0
H8F2 H8F2 -0.1566 -0.3648 0.2075 0.0
H8F3 H8F3 -0.2317 -0.3874 0.2156 0.0
C9F C9F -0.25796 -0.52455 0.44714 0.0
C10F C10F -0.23326 -0.46855 0.41634 0.0
C11F C11F -0.16816 -0.43345 0.40754 0.0
H11F H11F -0.1391 -0.4445 0.4213 0.0
C12F C12F -0.14386 -0.38174 0.37843 0.0
C13F C13F -0.18555 -0.36545 0.35813 0.0
C14F C14F -0.25076 -0.39895 0.36834 0.0
H14F H14F -0.2793 -0.3864 0.3555 0.0
C15F C15F -0.27496 -0.45046 0.39714 0.0
H15F H15F -0.3201 -0.4735 0.4039 0.0
C16F C16F -0.03555 -0.36377 0.39305 0.0
H16D H16D 0.009 -0.3363 0.3823 0.0
H16E H16E -0.0489 -0.4097 0.3886 0.0
H16F H16F -0.0371 -0.3555 0.4241 0.0
O7 O7 0.0 0.0 0.181908 0.0
O8 O8 0.0 0.0 0.31712 0.0
_cell_length_a 23.68994
_cell_length_b 23.68994
_cell_length_c 30.80587
_cell_angle_alpha 90.0
_cell_angle_beta 90.0
_cell_angle_gamma 120.0
_symmetry_space_group_name_H-M         'P 1'
_symmetry_Int_Tables_number            1
loop_
_symmetry_equiv_pos_as_xyz
   'x, y, z'
                         
loop_
_atom_site_label
_atom_site_type_symbol
_atom_site_fract_x 
_atom_site_fract_y
_atom_site_fract_z
_atom_site_charge
Zn1 Zn1 0.0 0.0 0.24653116 0.0
Zn2 Zn2 -0.04349513 -0.08701513 0.1592418 0.0
O1F O1F -0.06666 -0.09194 0.25603 0.0
O2F O2F -0.083017 -0.15697 0.20204 0.0
O3F O3F -0.18301 -0.38207 0.27008 0.0
O4F O4F -0.22237 -0.54814 0.45723 0.0
O5F O5F -0.31304 -0.54176 0.46194 0.0
O6F O6F -0.07973 -0.34843 0.36942 0.0
C1F C1F -0.08435 -0.14625 0.24144 0.0
C2F C2F -0.11076 -0.20365 0.27154 0.0
C3F C3F -0.13407 -0.26576 0.25514 0.0
H3F H3F -0.1333 -0.272 0.2247 0.0
C4F C4F -0.15846 -0.31845 0.28284 0.0
C5F C5F -0.15956 -0.30905 0.32733 0.0
C6F C6F -0.13577 -0.24726 0.34294 0.0
H6F H6F -0.1354 -0.2404 0.3733 0.0
C7F C7F -0.11208 -0.19466 0.31514 0.0
H7F H7F -0.0966 -0.152 0.3264 0.0
C8F C8F -0.1965 -0.3942 0.22401 0.0
H8F1 H8F1 -0.2077 -0.4396 0.2176 0.0
H8F2 H8F2 -0.1566 -0.3648 0.2075 0.0
H8F3 H8F3 -0.2317 -0.3874 0.2156 0.0
C9F C9F -0.25796 -0.52455 0.44714 0.0
C10F C10F -0.23326 -0.46855 0.41634 0.0
C11F C11F -0.16816 -0.43345 0.40754 0.0
H11F H11F -0.1391 -0.4445 0.4213 0.0
C12F C12F -0.14386 -0.38174 0.37843 0.0
C13F C13F -0.18555 -0.36545 0.35813 0.0
C14F C14F -0.25076 -0.39895 0.36834 0.0
H14F H14F -0.2793 -0.3864 0.3555 0.0
C15F C15F -0.27496 -0.45046 0.39714 0.0
H15F H15F -0.3201 -0.4735 0.4039 0.0
C16F C16F -0.03555 -0.36377 0.39305 0.0
H16D H16D 0.009 -0.3363 0.3823 0.0
H16E H16E -0.0489 -0.4097 0.3886 0.0
H16F H16F -0.0371 -0.3555 0.4241 0.0
O7 O7 0.0 0.0 0.181908 0.0
O8 O8 0.0 0.0 0.31712 0.0
_cell_length_a 23.68994
_cell_length_b 23.68994
_cell_length_c 30.80587
_cell_angle_alpha 90.0
_cell_angle_beta 90.0
_cell_angle_gamma 120.0
_symmetry_space_group_name_H-M         'P 1'
_symmetry_Int_Tables_number            1
loop_
_symmetry_equiv_pos_as_xyz
   'x, y, z'
                         
loop_
_atom_site_label
_atom_site_type_symbol
_atom_site_fract_x 
_atom_site_fract_y
_atom_site_fract_z
_atom_site_charge
Zn1 Zn1 0.0 0.0 0.24653116 0.0
Zn2 Zn2 -0.04349513 -0.08701513 0.1592418 0.0
O1F O1F -0.06666 -0.09194 0.25603 0.0
O2F O2F -0.083017 -0.15697 0.20204 0.0
O3F O3F -0.18301 -0.38207 0.27008 0.0
O4F O4F -0.22237 -0.54814 0.45723 0.0
O5F O5F -0.31304 -0.54176 0.46194 0.0
O6F O6F -0.07973 -0.34843 0.36942 0.0
C1F C1F -0.08435 -0.14625 0.24144 0.0
C2F C2F -0.11076 -0.20365 0.27154 0.0
C3F C3F -0.13407 -0.26576 0.25514 0.0
H3F H3F -0.1333 -0.272 0.2247 0.0
C4F C4F -0.15846 -0.31845 0.28284 0.0
C5F C5F -0.15956 -0.30905 0.32733 0.0
C6F C6F -0.13577 -0.24726 0.34294 0.0
H6F H6F -0.1354 -0.2404 0.3733 0.0
C7F C7F -0.11208 -0.19466 0.31514 0.0
H7F H7F -0.0966 -0.152 0.3264 0.0
C8F C8F -0.1965 -0.3942 0.22401 0.0
H8F1 H8F1 -0.2077 -0.4396 0.2176 0.0
H8F2 H8F2 -0.1566 -0.3648 0.2075 0.0
H8F3 H8F3 -0.2317 -0.3874 0.2156 0.0
C9F C9F -0.25796 -0.52455 0.44714 0.0
C10F C10F -0.23326 -0.46855 0.41634 0.0
C11F C11F -0.16816 -0.43345 0.40754 0.0
H11F H11F -0.1391 -0.4445 0.4213 0.0
C12F C12F -0.14386 -0.38174 0.37843 0.0
C13F C13F -0.18555 -0.36545 0.35813 0.0
C14F C14F -0.25076 -0.39895 0.36834 0.0
H14F H14F -0.2793 -0.3864 0.3555 0.0
C15F C15F -0.27496 -0.45046 0.39714 0.0
H15F H15F -0.3201 -0.4735 0.4039 0.0
C16F C16F -0.03555 -0.36377 0.39305 0.0
H16D H16D 0.009 -0.3363 0.3823 0.0
H16E H16E -0.0489 -0.4097 0.3886 0.0
H16F H16F -0.0371 -0.3555 0.4241 0.0
O7 O7 0.0 0.0 0.181908 0.0
O8 O8 0.0 0.0 0.31712 0.0
_cell_length_a 23.68994
_cell_length_b 23.68994
_cell_length_c 30.80587
_cell_angle_alpha 90.0
_cell_angle_beta 90.0
_cell_angle_gamma 120.0
_symmetry_space_group_name_H-M         'P 1'
_symmetry_Int_Tables_number            1
loop_
_symmetry_equiv_pos_as_xyz
   'x, y, z'
                         
loop_
_atom_site_label
_atom_site_type_symbol
_atom_site_fract_x 
_atom_site_fract_y
_atom_site_fract_z
_atom_site_charge
Zn1 Zn1 0.0 0.0 0.24653116 0.0
Zn2 Zn2 -0.04349513 -0.08701513 0.1592418 0.0
O1F O1F -0.06666 -0.09194 0.25603 0.0
O2F O2F -0.083017 -0.15697 0.20204 0.0
O3F O3F -0.18301 -0.38207 0.27008 0.0
O4F O4F -0.22237 -0.54814 0.45723 0.0
O5F O5F -0.31304 -0.54176 0.46194 0.0
O6F O6F -0.07973 -0.34843 0.36942 0.0
C1F C1F -0.08435 -0.14625 0.24144 0.0
C2F C2F -0.11076 -0.20365 0.27154 0.0
C3F C3F -0.13407 -0.26576 0.25514 0.0
H3F H3F -0.1333 -0.272 0.2247 0.0
C4F C4F -0.15846 -0.31845 0.28284 0.0
C5F C5F -0.15956 -0.30905 0.32733 0.0
C6F C6F -0.13577 -0.24726 0.34294 0.0
H6F H6F -0.1354 -0.2404 0.3733 0.0
C7F C7F -0.11208 -0.19466 0.31514 0.0
H7F H7F -0.0966 -0.152 0.3264 0.0
C8F C8F -0.1965 -0.3942 0.22401 0.0
H8F1 H8F1 -0.2077 -0.4396 0.2176 0.0
H8F2 H8F2 -0.1566 -0.3648 0.2075 0.0
H8F3 H8F3 -0.2317 -0.3874 0.2156 0.0
C9F C9F -0.25796 -0.52455 0.44714 0.0
C10F C10F -0.23326 -0.46855 0.41634 0.0
C11F C11F -0.16816 -0.43345 0.40754 0.0
H11F H11F -0.1391 -0.4445 0.4213 0.0
C12F C12F -0.14386 -0.38174 0.37843 0.0
C13F C13F -0.18555 -0.36545 0.35813 0.0
C14F C14F -0.25076 -0.39895 0.36834 0.0
H14F H14F -0.2793 -0.3864 0.3555 0.0
C15F C15F -0.27496 -0.45046 0.39714 0.0
H15F H15F -0.3201 -0.4735 0.4039 0.0
C16F C16F -0.03555 -0.36377 0.39305 0.0
H16D H16D 0.009 -0.3363 0.3823 0.0
H16E H16E -0.0489 -0.4097 0.3886 0.0
H16F H16F -0.0371 -0.3555 0.4241 0.0
O7 O7 0.0 0.0 0.181908 0.0
O8 O8 0.0 0.0 0.31712 0.0
_cell_length_a 23.68994
_cell_length_b 23.68994
_cell_length_c 30.80587
_cell_angle_alpha 90.0
_cell_angle_beta 90.0
_cell_angle_gamma 120.0
_symmetry_space_group_name_H-M         'P 1'
_symmetry_Int_Tables_number            1
loop_
_symmetry_equiv_pos_as_xyz
   'x, y, z'
                         
loop_
_atom_site_label
_atom_site_type_symbol
_atom_site_fract_x 
_atom_site_fract_y
_atom_site_fract_z
_atom_site_charge
Zn1 Zn1 0.0 0.0 0.24653116 0.0
Zn2 Zn2 -0.04349513 -0.08701513 0.1592418 0.0
O1F O1F -0.06666 -0.09194 0.25603 0.0
O2F O2F -0.083017 -0.15697 0.20204 0.0
O3F O3F -0.18301 -0.38207 0.27008 0.0
O4F O4F -0.22237 -0.54814 0.45723 0.0
O5F O5F -0.31304 -0.54176 0.46194 0.0
O6F O6F -0.07973 -0.34843 0.36942 0.0
C1F C1F -0.08435 -0.14625 0.24144 0.0
C2F C2F -0.11076 -0.20365 0.27154 0.0
C3F C3F -0.13407 -0.26576 0.25514 0.0
H3F H3F -0.1333 -0.272 0.2247 0.0
C4F C4F -0.15846 -0.31845 0.28284 0.0
C5F C5F -0.15956 -0.30905 0.32733 0.0
C6F C6F -0.13577 -0.24726 0.34294 0.0
H6F H6F -0.1354 -0.2404 0.3733 0.0
C7F C7F -0.11208 -0.19466 0.31514 0.0
H7F H7F -0.0966 -0.152 0.3264 0.0
C8F C8F -0.1965 -0.3942 0.22401 0.0
H8F1 H8F1 -0.2077 -0.4396 0.2176 0.0
H8F2 H8F2 -0.1566 -0.3648 0.2075 0.0
H8F3 H8F3 -0.2317 -0.3874 0.2156 0.0
C9F C9F -0.25796 -0.52455 0.44714 0.0
C10F C10F -0.23326 -0.46855 0.41634 0.0
C11F C11F -0.16816 -0.43345 0.40754 0.0
H11F H11F -0.1391 -0.4445 0.4213 0.0
C12F C12F -0.14386 -0.38174 0.37843 0.0
C13F C13F -0.18555 -0.36545 0.35813 0.0
C14F C14F -0.25076 -0.39895 0.36834 0.0
H14F H14F -0.2793 -0.3864 0.3555 0.0
C15F C15F -0.27496 -0.45046 0.39714 0.0
H15F H15F -0.3201 -0.4735 0.4039 0.0
C16F C16F -0.03555 -0.36377 0.39305 0.0
H16D H16D 0.009 -0.3363 0.3823 0.0
H16E H16E -0.0489 -0.4097 0.3886 0.0
H16F H16F -0.0371 -0.3555 0.4241 0.0
O7 O7 0.0 0.0 0.181908 0.0
O8 O8 0.0 0.0 0.31712 0.0
_cell_length_a 23.68994
_cell_length_b 23.68994
_cell_length_c 30.80587
_cell_angle_alpha 90.0
_cell_angle_beta 90.0
_cell_angle_gamma 120.0
_symmetry_space_group_name_H-M         'P 1'
_symmetry_Int_Tables_number            1
loop_
_symmetry_equiv_pos_as_xyz
   'x, y, z'
                         
loop_
_atom_site_label
_atom_site_type_symbol
_atom_site_fract_x 
_atom_site_fract_y
_atom_site_fract_z
_atom_site_charge
Zn1 Zn1 0.0 0.0 0.24653116 0.0
Zn2 Zn2 -0.04349513 -0.08701513 0.1592418 0.0
O1F O1F -0.06666 -0.09194 0.25603 0.0
O2F O2F -0.083017 -0.15697 0.20204 0.0
O3F O3F -0.18301 -0.38207 0.27008 0.0
O4F O4F -0.22237 -0.54814 0.45723 0.0
O5F O5F -0.31304 -0.54176 0.46194 0.0
O6F O6F -0.07973 -0.34843 0.36942 0.0
C1F C1F -0.08435 -0.14625 0.24144 0.0
C2F C2F -0.11076 -0.20365 0.27154 0.0
C3F C3F -0.13407 -0.26576 0.25514 0.0
H3F H3F -0.1333 -0.272 0.2247 0.0
C4F C4F -0.15846 -0.31845 0.28284 0.0
C5F C5F -0.15956 -0.30905 0.32733 0.0
C6F C6F -0.13577 -0.24726 0.34294 0.0
H6F H6F -0.1354 -0.2404 0.3733 0.0
C7F C7F -0.11208 -0.19466 0.31514 0.0
H7F H7F -0.0966 -0.152 0.3264 0.0
C8F C8F -0.1965 -0.3942 0.22401 0.0
H8F1 H8F1 -0.2077 -0.4396 0.2176 0.0
H8F2 H8F2 -0.1566 -0.3648 0.2075 0.0
H8F3 H8F3 -0.2317 -0.3874 0.2156 0.0
C9F C9F -0.25796 -0.52455 0.44714 0.0
C10F C10F -0.23326 -0.46855 0.41634 0.0
C11F C11F -0.16816 -0.43345 0.40754 0.0
H11F H11F -0.1391 -0.4445 0.4213 0.0
C12F C12F -0.14386 -0.38174 0.37843 0.0
C13F C13F -0.18555 -0.36545 0.35813 0.0
C14F C14F -0.25076 -0.39895 0.36834 0.0
H14F H14F -0.2793 -0.3864 0.3555 0.0
C15F C15F -0.27496 -0.45046 0.39714 0.0
H15F H15F -0.3201 -0.4735 0.4039 0.0
C16F C16F -0.03555 -0.36377 0.39305 0.0
H16D H16D 0.009 -0.3363 0.3823 0.0
H16E H16E -0.0489 -0.4097 0.3886 0.0
H16F H16F -0.0371 -0.3555 0.4241 0.0
O7 O7 0.0 0.0 0.181908 0.0
O8 O8 0.0 0.0 0.31712 0.0
_cell_length_a 23.68994
_cell_length_b 23.68994
_cell_length_c 30.80587
_cell_angle_alpha 90.0
_cell_angle_beta 90.0
_cell_angle_gamma 120.0
_symmetry_space_group_name_H-M         'P 1'
_symmetry_Int_Tables_number            1
loop_
_symmetry_equiv_pos_as_xyz
   'x, y, z'
                         
loop_
_atom_site_label
_atom_site_type_symbol
_atom_site_fract_x 
_atom_site_fract_y
_atom_site_fract_z
_atom_site_charge
Zn1 Zn1 0.0 0.0 0.24653116 0.0
Zn2 Zn2 -0.04349513 -0.08701513 0.1592418 0.0
O1F O1F -0.06666 -0.09194 0.25603 0.0
O2F O2F -0.083017 -0.15697 0.20204 0.0
O3F O3F -0.18301 -0.38207 0.27008 0.0
O4F O4F -0.22237 -0.54814 0.45723 0.0
O5F O5F -0.31304 -0.54176 0.46194 0.0
O6F O6F -0.07973 -0.34843 0.36942 0.0
C1F C1F -0.08435 -0.14625 0.24144 0.0
C2F C2F -0.11076 -0.20365 0.27154 0.0
C3F C3F -0.13407 -0.26576 0.25514 0.0
H3F H3F -0.1333 -0.272 0.2247 0.0
C4F C4F -0.15846 -0.31845 0.28284 0.0
C5F C5F -0.15956 -0.30905 0.32733 0.0
C6F C6F -0.13577 -0.24726 0.34294 0.0
H6F H6F -0.1354 -0.2404 0.3733 0.0
C7F C7F -0.11208 -0.19466 0.31514 0.0
H7F H7F -0.0966 -0.152 0.3264 0.0
C8F C8F -0.1965 -0.3942 0.22401 0.0
H8F1 H8F1 -0.2077 -0.4396 0.2176 0.0
H8F2 H8F2 -0.1566 -0.3648 0.2075 0.0
H8F3 H8F3 -0.2317 -0.3874 0.2156 0.0
C9F C9F -0.25796 -0.52455 0.44714 0.0
C10F C10F -0.23326 -0.46855 0.41634 0.0
C11F C11F -0.16816 -0.43345 0.40754 0.0
H11F H11F -0.1391 -0.4445 0.4213 0.0
C12F C12F -0.14386 -0.38174 0.37843 0.0
C13F C13F -0.18555 -0.36545 0.35813 0.0
C14F C14F -0.25076 -0.39895 0.36834 0.0
H14F H14F -0.2793 -0.3864 0.3555 0.0
C15F C15F -0.27496 -0.45046 0.39714 0.0
H15F H15F -0.3201 -0.4735 0.4039 0.0
C16F C16F -0.03555 -0.36377 0.39305 0.0
H16D H16D 0.009 -0.3363 0.3823 0.0
H16E H16E -0.0489 -0.4097 0.3886 0.0
H16F H16F -0.0371 -0.3555 0.4241 0.0
O7 O7 0.0 0.0 0.181908 0.0
O8 O8 0.0 0.0 0.31712 0.0
_cell_length_a 23.68994
_cell_length_b 23.68994
_cell_length_c 30.80587
_cell_angle_alpha 90.0
_cell_angle_beta 90.0
_cell_angle_gamma 120.0
_symmetry_space_group_name_H-M         'P 1'
_symmetry_Int_Tables_number            1
loop_
_symmetry_equiv_pos_as_xyz
   'x, y, z'
                         
loop_
_atom_site_label
_atom_site_type_symbol
_atom_site_fract_x 
_atom_site_fract_y
_atom_site_fract_z
_atom_site_charge
Zn1 Zn1 0.0 0.0 0.24653116 0.0
Zn2 Zn2 -0.04349513 -0.08701513 0.1592418 0.0
O1F O1F -0.06666 -0.09194 0.25603 0.0
O2F O2F -0.083017 -0.15697 0.20204 0.0
O3F O3F -0.18301 -0.38207 0.27008 0.0
O4F O4F -0.22237 -0.54814 0.45723 0.0
O5F O5F -0.31304 -0.54176 0.46194 0.0
O6F O6F -0.07973 -0.34843 0.36942 0.0
C1F C1F -0.08435 -0.14625 0.24144 0.0
C2F C2F -0.11076 -0.20365 0.27154 0.0
C3F C3F -0.13407 -0.26576 0.25514 0.0
H3F H3F -0.1333 -0.272 0.2247 0.0
C4F C4F -0.15846 -0.31845 0.28284 0.0
C5F C5F -0.15956 -0.30905 0.32733 0.0
C6F C6F -0.13577 -0.24726 0.34294 0.0
H6F H6F -0.1354 -0.2404 0.3733 0.0
C7F C7F -0.11208 -0.19466 0.31514 0.0
H7F H7F -0.0966 -0.152 0.3264 0.0
C8F C8F -0.1965 -0.3942 0.22401 0.0
H8F1 H8F1 -0.2077 -0.4396 0.2176 0.0
H8F2 H8F2 -0.1566 -0.3648 0.2075 0.0
H8F3 H8F3 -0.2317 -0.3874 0.2156 0.0
C9F C9F -0.25796 -0.52455 0.44714 0.0
C10F C10F -0.23326 -0.46855 0.41634 0.0
C11F C11F -0.16816 -0.43345 0.40754 0.0
H11F H11F -0.1391 -0.4445 0.4213 0.0
C12F C12F -0.14386 -0.38174 0.37843 0.0
C13F C13F -0.18555 -0.36545 0.35813 0.0
C14F C14F -0.25076 -0.39895 0.36834 0.0
H14F H14F -0.2793 -0.3864 0.3555 0.0
C15F C15F -0.27496 -0.45046 0.39714 0.0
H15F H15F -0.3201 -0.4735 0.4039 0.0
C16F C16F -0.03555 -0.36377 0.39305 0.0
H16D H16D 0.009 -0.3363 0.3823 0.0
H16E H16E -0.0489 -0.4097 0.3886 0.0
H16F H16F -0.0371 -0.3555 0.4241 0.0
O7 O7 0.0 0.0 0.181908 0.0
O8 O8 0.0 0.0 0.31712 0.0
_cell_length_a 23.68994
_cell_length_b 23.68994
_cell_length_c 30.80587
_cell_angle_alpha 90.0
_cell_angle_beta 90.0
_cell_angle_gamma 120.0
_symmetry_space_group_name_H-M         'P 1'
_symmetry_Int_Tables_number            1
loop_
_symmetry_equiv_pos_as_xyz
   'x, y, z'
                         
loop_
_atom_site_label
_atom_site_type_symbol
_atom_site_fract_x 
_atom_site_fract_y
_atom_site_fract_z
_atom_site_charge
Zn1 Zn1 0.0 0.0 0.24653116 0.0
Zn2 Zn2 -0.04349513 -0.08701513 0.1592418 0.0
O1F O1F -0.06666 -0.09194 0.25603 0.0
O2F O2F -0.083017 -0.15697 0.20204 0.0
O3F O3F -0.18301 -0.38207 0.27008 0.0
O4F O4F -0.22237 -0.54814 0.45723 0.0
O5F O5F -0.31304 -0.54176 0.46194 0.0
O6F O6F -0.07973 -0.34843 0.36942 0.0
C1F C1F -0.08435 -0.14625 0.24144 0.0
C2F C2F -0.11076 -0.20365 0.27154 0.0
C3F C3F -0.13407 -0.26576 0.25514 0.0
H3F H3F -0.1333 -0.272 0.2247 0.0
C4F C4F -0.15846 -0.31845 0.28284 0.0
C5F C5F -0.15956 -0.30905 0.32733 0.0
C6F C6F -0.13577 -0.24726 0.34294 0.0
H6F H6F -0.1354 -0.2404 0.3733 0.0
C7F C7F -0.11208 -0.19466 0.31514 0.0
H7F H7F -0.0966 -0.152 0.3264 0.0
C8F C8F -0.1965 -0.3942 0.22401 0.0
H8F1 H8F1 -0.2077 -0.4396 0.2176 0.0
H8F2 H8F2 -0.1566 -0.3648 0.2075 0.0
H8F3 H8F3 -0.2317 -0.3874 0.2156 0.0
C9F C9F -0.25796 -0.52455 0.44714 0.0
C10F C10F -0.23326 -0.46855 0.41634 0.0
C11F C11F -0.16816 -0.43345 0.40754 0.0
H11F H11F -0.1391 -0.4445 0.4213 0.0
C12F C12F -0.14386 -0.38174 0.37843 0.0
C13F C13F -0.18555 -0.36545 0.35813 0.0
C14F C14F -0.25076 -0.39895 0.36834 0.0
H14F H14F -0.2793 -0.3864 0.3555 0.0
C15F C15F -0.27496 -0.45046 0.39714 0.0
H15F H15F -0.3201 -0.4735 0.4039 0.0
C16F C16F -0.03555 -0.36377 0.39305 0.0
H16D H16D 0.009 -0.3363 0.3823 0.0
H16E H16E -0.0489 -0.4097 0.3886 0.0
H16F H16F -0.0371 -0.3555 0.4241 0.0
O7 O7 0.0 0.0 0.181908 0.0
O8 O8 0.0 0.0 0.31712 0.0
_cell_length_a 23.68994
_cell_length_b 23.68994
_cell_length_c 30.80587
_cell_angle_alpha 90.0
_cell_angle_beta 90.0
_cell_angle_gamma 120.0
_symmetry_space_group_name_H-M         'P 1'
_symmetry_Int_Tables_number            1
loop_
_symmetry_equiv_pos_as_xyz
   'x, y, z'
                         
loop_
_atom_site_label
_atom_site_type_symbol
_atom_site_fract_x 
_atom_site_fract_y
_atom_site_fract_z
_atom_site_charge
Zn1 Zn1 0.0 0.0 0.24653116 0.0
Zn2 Zn2 -0.04349513 -0.08701513 0.1592418 0.0
O1F O1F -0.06666 -0.09194 0.25603 0.0
O2F O2F -0.083017 -0.15697 0.20204 0.0
O3F O3F -0.18301 -0.38207 0.27008 0.0
O4F O4F -0.22237 -0.54814 0.45723 0.0
O5F O5F -0.31304 -0.54176 0.46194 0.0
O6F O6F -0.07973 -0.34843 0.36942 0.0
C1F C1F -0.08435 -0.14625 0.24144 0.0
C2F C2F -0.11076 -0.20365 0.27154 0.0
C3F C3F -0.13407 -0.26576 0.25514 0.0
H3F H3F -0.1333 -0.272 0.2247 0.0
C4F C4F -0.15846 -0.31845 0.28284 0.0
C5F C5F -0.15956 -0.30905 0.32733 0.0
C6F C6F -0.13577 -0.24726 0.34294 0.0
H6F H6F -0.1354 -0.2404 0.3733 0.0
C7F C7F -0.11208 -0.19466 0.31514 0.0
H7F H7F -0.0966 -0.152 0.3264 0.0
C8F C8F -0.1965 -0.3942 0.22401 0.0
H8F1 H8F1 -0.2077 -0.4396 0.2176 0.0
H8F2 H8F2 -0.1566 -0.3648 0.2075 0.0
H8F3 H8F3 -0.2317 -0.3874 0.2156 0.0
C9F C9F -0.25796 -0.52455 0.44714 0.0
C10F C10F -0.23326 -0.46855 0.41634 0.0
C11F C11F -0.16816 -0.43345 0.40754 0.0
H11F H11F -0.1391 -0.4445 0.4213 0.0
C12F C12F -0.14386 -0.38174 0.37843 0.0
C13F C13F -0.18555 -0.36545 0.35813 0.0
C14F C14F -0.25076 -0.39895 0.36834 0.0
H14F H14F -0.2793 -0.3864 0.3555 0.0
C15F C15F -0.27496 -0.45046 0.39714 0.0
H15F H15F -0.3201 -0.4735 0.4039 0.0
C16F C16F -0.03555 -0.36377 0.39305 0.0
H16D H16D 0.009 -0.3363 0.3823 0.0
H16E H16E -0.0489 -0.4097 0.3886 0.0
H16F H16F -0.0371 -0.3555 0.4241 0.0
O7 O7 0.0 0.0 0.181908 0.0
O8 O8 0.0 0.0 0.31712 0.0
_cell_length_a 23.68994
_cell_length_b 23.68994
_cell_length_c 30.80587
_cell_angle_alpha 90.0
_cell_angle_beta 90.0
_cell_angle_gamma 120.0
_symmetry_space_group_name_H-M         'P 1'
_symmetry_Int_Tables_number            1
loop_
_symmetry_equiv_pos_as_xyz
   'x, y, z'
                         
loop_
_atom_site_label
_atom_site_type_symbol
_atom_site_fract_x 
_atom_site_fract_y
_atom_site_fract_z
_atom_site_charge
Zn1 Zn1 0.0 0.0 0.24653116 0.0
Zn2 Zn2 -0.04349513 -0.08701513 0.1592418 0.0
O1F O1F -0.06666 -0.09194 0.25603 0.0
O2F O2F -0.083017 -0.15697 0.20204 0.0
O3F O3F -0.18301 -0.38207 0.27008 0.0
O4F O4F -0.22237 -0.54814 0.45723 0.0
O5F O5F -0.31304 -0.54176 0.46194 0.0
O6F O6F -0.07973 -0.34843 0.36942 0.0
C1F C1F -0.08435 -0.14625 0.24144 0.0
C2F C2F -0.11076 -0.20365 0.27154 0.0
C3F C3F -0.13407 -0.26576 0.25514 0.0
H3F H3F -0.1333 -0.272 0.2247 0.0
C4F C4F -0.15846 -0.31845 0.28284 0.0
C5F C5F -0.15956 -0.30905 0.32733 0.0
C6F C6F -0.13577 -0.24726 0.34294 0.0
H6F H6F -0.1354 -0.2404 0.3733 0.0
C7F C7F -0.11208 -0.19466 0.31514 0.0
H7F H7F -0.0966 -0.152 0.3264 0.0
C8F C8F -0.1965 -0.3942 0.22401 0.0
H8F1 H8F1 -0.2077 -0.4396 0.2176 0.0
H8F2 H8F2 -0.1566 -0.3648 0.2075 0.0
H8F3 H8F3 -0.2317 -0.3874 0.2156 0.0
C9F C9F -0.25796 -0.52455 0.44714 0.0
C10F C10F -0.23326 -0.46855 0.41634 0.0
C11F C11F -0.16816 -0.43345 0.40754 0.0
H11F H11F -0.1391 -0.4445 0.4213 0.0
C12F C12F -0.14386 -0.38174 0.37843 0.0
C13F C13F -0.18555 -0.36545 0.35813 0.0
C14F C14F -0.25076 -0.39895 0.36834 0.0
H14F H14F -0.2793 -0.3864 0.3555 0.0
C15F C15F -0.27496 -0.45046 0.39714 0.0
H15F H15F -0.3201 -0.4735 0.4039 0.0
C16F C16F -0.03555 -0.36377 0.39305 0.0
H16D H16D 0.009 -0.3363 0.3823 0.0
H16E H16E -0.0489 -0.4097 0.3886 0.0
H16F H16F -0.0371 -0.3555 0.4241 0.0
O7 O7 0.0 0.0 0.181908 0.0
O8 O8 0.0 0.0 0.31712 0.0
_cell_length_a 23.68994
_cell_length_b 23.68994
_cell_length_c 30.80587
_cell_angle_alpha 90.0
_cell_angle_beta 90.0
_cell_angle_gamma 120.0
_symmetry_space_group_name_H-M         'P 1'
_symmetry_Int_Tables_number            1
loop_
_symmetry_equiv_pos_as_xyz
   'x, y, z'
                         
loop_
_atom_site_label
_atom_site_type_symbol
_atom_site_fract_x 
_atom_site_fract_y
_atom_site_fract_z
_atom_site_charge
Zn1 Zn1 0.0 0.0 0.24653116 0.0
Zn2 Zn2 -0.04349513 -0.08701513 0.1592418 0.0
O1F O1F -0.06666 -0.09194 0.25603 0.0
O2F O2F -0.083017 -0.15697 0.20204 0.0
O3F O3F -0.18301 -0.38207 0.27008 0.0
O4F O4F -0.22237 -0.54814 0.45723 0.0
O5F O5F -0.31304 -0.54176 0.46194 0.0
O6F O6F -0.07973 -0.34843 0.36942 0.0
C1F C1F -0.08435 -0.14625 0.24144 0.0
C2F C2F -0.11076 -0.20365 0.27154 0.0
C3F C3F -0.13407 -0.26576 0.25514 0.0
H3F H3F -0.1333 -0.272 0.2247 0.0
C4F C4F -0.15846 -0.31845 0.28284 0.0
C5F C5F -0.15956 -0.30905 0.32733 0.0
C6F C6F -0.13577 -0.24726 0.34294 0.0
H6F H6F -0.1354 -0.2404 0.3733 0.0
C7F C7F -0.11208 -0.19466 0.31514 0.0
H7F H7F -0.0966 -0.152 0.3264 0.0
C8F C8F -0.1965 -0.3942 0.22401 0.0
H8F1 H8F1 -0.2077 -0.4396 0.2176 0.0
H8F2 H8F2 -0.1566 -0.3648 0.2075 0.0
H8F3 H8F3 -0.2317 -0.3874 0.2156 0.0
C9F C9F -0.25796 -0.52455 0.44714 0.0
C10F C10F -0.23326 -0.46855 0.41634 0.0
C11F C11F -0.16816 -0.43345 0.40754 0.0
H11F H11F -0.1391 -0.4445 0.4213 0.0
C12F C12F -0.14386 -0.38174 0.37843 0.0
C13F C13F -0.18555 -0.36545 0.35813 0.0
C14F C14F -0.25076 -0.39895 0.36834 0.0
H14F H14F -0.2793 -0.3864 0.3555 0.0
C15F C15F -0.27496 -0.45046 0.39714 0.0
H15F H15F -0.3201 -0.4735 0.4039 0.0
C16F C16F -0.03555 -0.36377 0.39305 0.0
H16D H16D 0.009 -0.3363 0.3823 0.0
H16E H16E -0.0489 -0.4097 0.3886 0.0
H16F H16F -0.0371 -0.3555 0.4241 0.0
O7 O7 0.0 0.0 0.181908 0.0
O8 O8 0.0 0.0 0.31712 0.0
_cell_length_a 23.68994
_cell_length_b 23.68994
_cell_length_c 30.80587
_cell_angle_alpha 90.0
_cell_angle_beta 90.0
_cell_angle_gamma 120.0
_symmetry_space_group_name_H-M         'P 1'
_symmetry_Int_Tables_number            1
loop_
_symmetry_equiv_pos_as_xyz
   'x, y, z'
                         
loop_
_atom_site_label
_atom_site_type_symbol
_atom_site_fract_x 
_atom_site_fract_y
_atom_site_fract_z
_atom_site_charge
Zn1 Zn1 0.0 0.0 0.24653116 0.0
Zn2 Zn2 -0.04349513 -0.08701513 0.1592418 0.0
O1F O1F -0.06666 -0.09194 0.25603 0.0
O2F O2F -0.083017 -0.15697 0.20204 0.0
O3F O3F -0.18301 -0.38207 0.27008 0.0
O4F O4F -0.22237 -0.54814 0.45723 0.0
O5F O5F -0.31304 -0.54176 0.46194 0.0
O6F O6F -0.07973 -0.34843 0.36942 0.0
C1F C1F -0.08435 -0.14625 0.24144 0.0
C2F C2F -0.11076 -0.20365 0.27154 0.0
C3F C3F -0.13407 -0.26576 0.25514 0.0
H3F H3F -0.1333 -0.272 0.2247 0.0
C4F C4F -0.15846 -0.31845 0.28284 0.0
C5F C5F -0.15956 -0.30905 0.32733 0.0
C6F C6F -0.13577 -0.24726 0.34294 0.0
H6F H6F -0.1354 -0.2404 0.3733 0.0
C7F C7F -0.11208 -0.19466 0.31514 0.0
H7F H7F -0.0966 -0.152 0.3264 0.0
C8F C8F -0.1965 -0.3942 0.22401 0.0
H8F1 H8F1 -0.2077 -0.4396 0.2176 0.0
H8F2 H8F2 -0.1566 -0.3648 0.2075 0.0
H8F3 H8F3 -0.2317 -0.3874 0.2156 0.0
C9F C9F -0.25796 -0.52455 0.44714 0.0
C10F C10F -0.23326 -0.46855 0.41634 0.0
C11F C11F -0.16816 -0.43345 0.40754 0.0
H11F H11F -0.1391 -0.4445 0.4213 0.0
C12F C12F -0.14386 -0.38174 0.37843 0.0
C13F C13F -0.18555 -0.36545 0.35813 0.0
C14F C14F -0.25076 -0.39895 0.36834 0.0
H14F H14F -0.2793 -0.3864 0.3555 0.0
C15F C15F -0.27496 -0.45046 0.39714 0.0
H15F H15F -0.3201 -0.4735 0.4039 0.0
C16F C16F -0.03555 -0.36377 0.39305 0.0
H16D H16D 0.009 -0.3363 0.3823 0.0
H16E H16E -0.0489 -0.4097 0.3886 0.0
H16F H16F -0.0371 -0.3555 0.4241 0.0
O7 O7 0.0 0.0 0.181908 0.0
O8 O8 0.0 0.0 0.31712 0.0
_cell_length_a 23.68994
_cell_length_b 23.68994
_cell_length_c 30.80587
_cell_angle_alpha 90.0
_cell_angle_beta 90.0
_cell_angle_gamma 120.0
_symmetry_space_group_name_H-M         'P 1'
_symmetry_Int_Tables_number            1
loop_
_symmetry_equiv_pos_as_xyz
   'x, y, z'
                         
loop_
_atom_site_label
_atom_site_type_symbol
_atom_site_fract_x 
_atom_site_fract_y
_atom_site_fract_z
_atom_site_charge
Zn1 Zn1 0.0 0.0 0.24653116 0.0
Zn2 Zn2 -0.04349513 -0.08701513 0.1592418 0.0
O1F O1F -0.06666 -0.09194 0.25603 0.0
O2F O2F -0.083017 -0.15697 0.20204 0.0
O3F O3F -0.18301 -0.38207 0.27008 0.0
O4F O4F -0.22237 -0.54814 0.45723 0.0
O5F O5F -0.31304 -0.54176 0.46194 0.0
O6F O6F -0.07973 -0.34843 0.36942 0.0
C1F C1F -0.08435 -0.14625 0.24144 0.0
C2F C2F -0.11076 -0.20365 0.27154 0.0
C3F C3F -0.13407 -0.26576 0.25514 0.0
H3F H3F -0.1333 -0.272 0.2247 0.0
C4F C4F -0.15846 -0.31845 0.28284 0.0
C5F C5F -0.15956 -0.30905 0.32733 0.0
C6F C6F -0.13577 -0.24726 0.34294 0.0
H6F H6F -0.1354 -0.2404 0.3733 0.0
C7F C7F -0.11208 -0.19466 0.31514 0.0
H7F H7F -0.0966 -0.152 0.3264 0.0
C8F C8F -0.1965 -0.3942 0.22401 0.0
H8F1 H8F1 -0.2077 -0.4396 0.2176 0.0
H8F2 H8F2 -0.1566 -0.3648 0.2075 0.0
H8F3 H8F3 -0.2317 -0.3874 0.2156 0.0
C9F C9F -0.25796 -0.52455 0.44714 0.0
C10F C10F -0.23326 -0.46855 0.41634 0.0
C11F C11F -0.16816 -0.43345 0.40754 0.0
H11F H11F -0.1391 -0.4445 0.4213 0.0
C12F C12F -0.14386 -0.38174 0.37843 0.0
C13F C13F -0.18555 -0.36545 0.35813 0.0
C14F C14F -0.25076 -0.39895 0.36834 0.0
H14F H14F -0.2793 -0.3864 0.3555 0.0
C15F C15F -0.27496 -0.45046 0.39714 0.0
H15F H15F -0.3201 -0.4735 0.4039 0.0
C16F C16F -0.03555 -0.36377 0.39305 0.0
H16D H16D 0.009 -0.3363 0.3823 0.0
H16E H16E -0.0489 -0.4097 0.3886 0.0
H16F H16F -0.0371 -0.3555 0.4241 0.0
O7 O7 0.0 0.0 0.181908 0.0
O8 O8 0.0 0.0 0.31712 0.0
_cell_length_a 23.68994
_cell_length_b 23.68994
_cell_length_c 30.80587
_cell_angle_alpha 90.0
_cell_angle_beta 90.0
_cell_angle_gamma 120.0
_symmetry_space_group_name_H-M         'P 1'
_symmetry_Int_Tables_number            1
loop_
_symmetry_equiv_pos_as_xyz
   'x, y, z'
                         
loop_
_atom_site_label
_atom_site_type_symbol
_atom_site_fract_x 
_atom_site_fract_y
_atom_site_fract_z
_atom_site_charge
Zn1 Zn1 0.0 0.0 0.24653116 0.0
Zn2 Zn2 -0.04349513 -0.08701513 0.1592418 0.0
O1F O1F -0.06666 -0.09194 0.25603 0.0
O2F O2F -0.083017 -0.15697 0.20204 0.0
O3F O3F -0.18301 -0.38207 0.27008 0.0
O4F O4F -0.22237 -0.54814 0.45723 0.0
O5F O5F -0.31304 -0.54176 0.46194 0.0
O6F O6F -0.07973 -0.34843 0.36942 0.0
C1F C1F -0.08435 -0.14625 0.24144 0.0
C2F C2F -0.11076 -0.20365 0.27154 0.0
C3F C3F -0.13407 -0.26576 0.25514 0.0
H3F H3F -0.1333 -0.272 0.2247 0.0
C4F C4F -0.15846 -0.31845 0.28284 0.0
C5F C5F -0.15956 -0.30905 0.32733 0.0
C6F C6F -0.13577 -0.24726 0.34294 0.0
H6F H6F -0.1354 -0.2404 0.3733 0.0
C7F C7F -0.11208 -0.19466 0.31514 0.0
H7F H7F -0.0966 -0.152 0.3264 0.0
C8F C8F -0.1965 -0.3942 0.22401 0.0
H8F1 H8F1 -0.2077 -0.4396 0.2176 0.0
H8F2 H8F2 -0.1566 -0.3648 0.2075 0.0
H8F3 H8F3 -0.2317 -0.3874 0.2156 0.0
C9F C9F -0.25796 -0.52455 0.44714 0.0
C10F C10F -0.23326 -0.46855 0.41634 0.0
C11F C11F -0.16816 -0.43345 0.40754 0.0
H11F H11F -0.1391 -0.4445 0.4213 0.0
C12F C12F -0.14386 -0.38174 0.37843 0.0
C13F C13F -0.18555 -0.36545 0.35813 0.0
C14F C14F -0.25076 -0.39895 0.36834 0.0
H14F H14F -0.2793 -0.3864 0.3555 0.0
C15F C15F -0.27496 -0.45046 0.39714 0.0
H15F H15F -0.3201 -0.4735 0.4039 0.0
C16F C16F -0.03555 -0.36377 0.39305 0.0
H16D H16D 0.009 -0.3363 0.3823 0.0
H16E H16E -0.0489 -0.4097 0.3886 0.0
H16F H16F -0.0371 -0.3555 0.4241 0.0
O7 O7 0.0 0.0 0.181908 0.0
O8 O8 0.0 0.0 0.31712 0.0
_cell_length_a 23.68994
_cell_length_b 23.68994
_cell_length_c 30.80587
_cell_angle_alpha 90.0
_cell_angle_beta 90.0
_cell_angle_gamma 120.0
_symmetry_space_group_name_H-M         'P 1'
_symmetry_Int_Tables_number            1
loop_
_symmetry_equiv_pos_as_xyz
   'x, y, z'
                         
loop_
_atom_site_label
_atom_site_type_symbol
_atom_site_fract_x 
_atom_site_fract_y
_atom_site_fract_z
_atom_site_charge
Zn1 Zn1 0.0 0.0 0.24653116 0.0
Zn2 Zn2 -0.04349513 -0.08701513 0.1592418 0.0
O1F O1F -0.06666 -0.09194 0.25603 0.0
O2F O2F -0.083017 -0.15697 0.20204 0.0
O3F O3F -0.18301 -0.38207 0.27008 0.0
O4F O4F -0.22237 -0.54814 0.45723 0.0
O5F O5F -0.31304 -0.54176 0.46194 0.0
O6F O6F -0.07973 -0.34843 0.36942 0.0
C1F C1F -0.08435 -0.14625 0.24144 0.0
C2F C2F -0.11076 -0.20365 0.27154 0.0
C3F C3F -0.13407 -0.26576 0.25514 0.0
H3F H3F -0.1333 -0.272 0.2247 0.0
C4F C4F -0.15846 -0.31845 0.28284 0.0
C5F C5F -0.15956 -0.30905 0.32733 0.0
C6F C6F -0.13577 -0.24726 0.34294 0.0
H6F H6F -0.1354 -0.2404 0.3733 0.0
C7F C7F -0.11208 -0.19466 0.31514 0.0
H7F H7F -0.0966 -0.152 0.3264 0.0
C8F C8F -0.1965 -0.3942 0.22401 0.0
H8F1 H8F1 -0.2077 -0.4396 0.2176 0.0
H8F2 H8F2 -0.1566 -0.3648 0.2075 0.0
H8F3 H8F3 -0.2317 -0.3874 0.2156 0.0
C9F C9F -0.25796 -0.52455 0.44714 0.0
C10F C10F -0.23326 -0.46855 0.41634 0.0
C11F C11F -0.16816 -0.43345 0.40754 0.0
H11F H11F -0.1391 -0.4445 0.4213 0.0
C12F C12F -0.14386 -0.38174 0.37843 0.0
C13F C13F -0.18555 -0.36545 0.35813 0.0
C14F C14F -0.25076 -0.39895 0.36834 0.0
H14F H14F -0.2793 -0.3864 0.3555 0.0
C15F C15F -0.27496 -0.45046 0.39714 0.0
H15F H15F -0.3201 -0.4735 0.4039 0.0
C16F C16F -0.03555 -0.36377 0.39305 0.0
H16D H16D 0.009 -0.3363 0.3823 0.0
H16E H16E -0.0489 -0.4097 0.3886 0.0
H16F H16F -0.0371 -0.3555 0.4241 0.0
O7 O7 0.0 0.0 0.181908 0.0
O8 O8 0.0 0.0 0.31712 0.0
_cell_length_a 23.68994
_cell_length_b 23.68994
_cell_length_c 30.80587
_cell_angle_alpha 90.0
_cell_angle_beta 90.0
_cell_angle_gamma 120.0
_symmetry_space_group_name_H-M         'P 1'
_symmetry_Int_Tables_number            1
loop_
_symmetry_equiv_pos_as_xyz
   'x, y, z'
                         
loop_
_atom_site_label
_atom_site_type_symbol
_atom_site_fract_x 
_atom_site_fract_y
_atom_site_fract_z
_atom_site_charge
Zn1 Zn1 0.0 0.0 0.24653116 0.0
Zn2 Zn2 -0.04349513 -0.08701513 0.1592418 0.0
O1F O1F -0.06666 -0.09194 0.25603 0.0
O2F O2F -0.083017 -0.15697 0.20204 0.0
O3F O3F -0.18301 -0.38207 0.27008 0.0
O4F O4F -0.22237 -0.54814 0.45723 0.0
O5F O5F -0.31304 -0.54176 0.46194 0.0
O6F O6F -0.07973 -0.34843 0.36942 0.0
C1F C1F -0.08435 -0.14625 0.24144 0.0
C2F C2F -0.11076 -0.20365 0.27154 0.0
C3F C3F -0.13407 -0.26576 0.25514 0.0
H3F H3F -0.1333 -0.272 0.2247 0.0
C4F C4F -0.15846 -0.31845 0.28284 0.0
C5F C5F -0.15956 -0.30905 0.32733 0.0
C6F C6F -0.13577 -0.24726 0.34294 0.0
H6F H6F -0.1354 -0.2404 0.3733 0.0
C7F C7F -0.11208 -0.19466 0.31514 0.0
H7F H7F -0.0966 -0.152 0.3264 0.0
C8F C8F -0.1965 -0.3942 0.22401 0.0
H8F1 H8F1 -0.2077 -0.4396 0.2176 0.0
H8F2 H8F2 -0.1566 -0.3648 0.2075 0.0
H8F3 H8F3 -0.2317 -0.3874 0.2156 0.0
C9F C9F -0.25796 -0.52455 0.44714 0.0
C10F C10F -0.23326 -0.46855 0.41634 0.0
C11F C11F -0.16816 -0.43345 0.40754 0.0
H11F H11F -0.1391 -0.4445 0.4213 0.0
C12F C12F -0.14386 -0.38174 0.37843 0.0
C13F C13F -0.18555 -0.36545 0.35813 0.0
C14F C14F -0.25076 -0.39895 0.36834 0.0
H14F H14F -0.2793 -0.3864 0.3555 0.0
C15F C15F -0.27496 -0.45046 0.39714 0.0
H15F H15F -0.3201 -0.4735 0.4039 0.0
C16F C16F -0.03555 -0.36377 0.39305 0.0
H16D H16D 0.009 -0.3363 0.3823 0.0
H16E H16E -0.0489 -0.4097 0.3886 0.0
H16F H16F -0.0371 -0.3555 0.4241 0.0
O7 O7 0.0 0.0 0.181908 0.0
O8 O8 0.0 0.0 0.31712 0.0
_cell_length_a 23.68994
_cell_length_b 23.68994
_cell_length_c 30.80587
_cell_angle_alpha 90.0
_cell_angle_beta 90.0
_cell_angle_gamma 120.0
_symmetry_space_group_name_H-M         'P 1'
_symmetry_Int_Tables_number            1
loop_
_symmetry_equiv_pos_as_xyz
   'x, y, z'
                         
loop_
_atom_site_label
_atom_site_type_symbol
_atom_site_fract_x 
_atom_site_fract_y
_atom_site_fract_z
_atom_site_charge
Zn1 Zn1 0.0 0.0 0.24653116 0.0
Zn2 Zn2 -0.04349513 -0.08701513 0.1592418 0.0
O1F O1F -0.06666 -0.09194 0.25603 0.0
O2F O2F -0.083017 -0.15697 0.20204 0.0
O3F O3F -0.18301 -0.38207 0.27008 0.0
O4F O4F -0.22237 -0.54814 0.45723 0.0
O5F O5F -0.31304 -0.54176 0.46194 0.0
O6F O6F -0.07973 -0.34843 0.36942 0.0
C1F C1F -0.08435 -0.14625 0.24144 0.0
C2F C2F -0.11076 -0.20365 0.27154 0.0
C3F C3F -0.13407 -0.26576 0.25514 0.0
H3F H3F -0.1333 -0.272 0.2247 0.0
C4F C4F -0.15846 -0.31845 0.28284 0.0
C5F C5F -0.15956 -0.30905 0.32733 0.0
C6F C6F -0.13577 -0.24726 0.34294 0.0
H6F H6F -0.1354 -0.2404 0.3733 0.0
C7F C7F -0.11208 -0.19466 0.31514 0.0
H7F H7F -0.0966 -0.152 0.3264 0.0
C8F C8F -0.1965 -0.3942 0.22401 0.0
H8F1 H8F1 -0.2077 -0.4396 0.2176 0.0
H8F2 H8F2 -0.1566 -0.3648 0.2075 0.0
H8F3 H8F3 -0.2317 -0.3874 0.2156 0.0
C9F C9F -0.25796 -0.52455 0.44714 0.0
C10F C10F -0.23326 -0.46855 0.41634 0.0
C11F C11F -0.16816 -0.43345 0.40754 0.0
H11F H11F -0.1391 -0.4445 0.4213 0.0
C12F C12F -0.14386 -0.38174 0.37843 0.0
C13F C13F -0.18555 -0.36545 0.35813 0.0
C14F C14F -0.25076 -0.39895 0.36834 0.0
H14F H14F -0.2793 -0.3864 0.3555 0.0
C15F C15F -0.27496 -0.45046 0.39714 0.0
H15F H15F -0.3201 -0.4735 0.4039 0.0
C16F C16F -0.03555 -0.36377 0.39305 0.0
H16D H16D 0.009 -0.3363 0.3823 0.0
H16E H16E -0.0489 -0.4097 0.3886 0.0
H16F H16F -0.0371 -0.3555 0.4241 0.0
O7 O7 0.0 0.0 0.181908 0.0
O8 O8 0.0 0.0 0.31712 0.0
_cell_length_a 23.68994
_cell_length_b 23.68994
_cell_length_c 30.80587
_cell_angle_alpha 90.0
_cell_angle_beta 90.0
_cell_angle_gamma 120.0
_symmetry_space_group_name_H-M         'P 1'
_symmetry_Int_Tables_number            1
loop_
_symmetry_equiv_pos_as_xyz
   'x, y, z'
                         
loop_
_atom_site_label
_atom_site_type_symbol
_atom_site_fract_x 
_atom_site_fract_y
_atom_site_fract_z
_atom_site_charge
Zn1 Zn1 0.0 0.0 0.24653116 0.0
Zn2 Zn2 -0.04349513 -0.08701513 0.1592418 0.0
O1F O1F -0.06666 -0.09194 0.25603 0.0
O2F O2F -0.083017 -0.15697 0.20204 0.0
O3F O3F -0.18301 -0.38207 0.27008 0.0
O4F O4F -0.22237 -0.54814 0.45723 0.0
O5F O5F -0.31304 -0.54176 0.46194 0.0
O6F O6F -0.07973 -0.34843 0.36942 0.0
C1F C1F -0.08435 -0.14625 0.24144 0.0
C2F C2F -0.11076 -0.20365 0.27154 0.0
C3F C3F -0.13407 -0.26576 0.25514 0.0
H3F H3F -0.1333 -0.272 0.2247 0.0
C4F C4F -0.15846 -0.31845 0.28284 0.0
C5F C5F -0.15956 -0.30905 0.32733 0.0
C6F C6F -0.13577 -0.24726 0.34294 0.0
H6F H6F -0.1354 -0.2404 0.3733 0.0
C7F C7F -0.11208 -0.19466 0.31514 0.0
H7F H7F -0.0966 -0.152 0.3264 0.0
C8F C8F -0.1965 -0.3942 0.22401 0.0
H8F1 H8F1 -0.2077 -0.4396 0.2176 0.0
H8F2 H8F2 -0.1566 -0.3648 0.2075 0.0
H8F3 H8F3 -0.2317 -0.3874 0.2156 0.0
C9F C9F -0.25796 -0.52455 0.44714 0.0
C10F C10F -0.23326 -0.46855 0.41634 0.0
C11F C11F -0.16816 -0.43345 0.40754 0.0
H11F H11F -0.1391 -0.4445 0.4213 0.0
C12F C12F -0.14386 -0.38174 0.37843 0.0
C13F C13F -0.18555 -0.36545 0.35813 0.0
C14F C14F -0.25076 -0.39895 0.36834 0.0
H14F H14F -0.2793 -0.3864 0.3555 0.0
C15F C15F -0.27496 -0.45046 0.39714 0.0
H15F H15F -0.3201 -0.4735 0.4039 0.0
C16F C16F -0.03555 -0.36377 0.39305 0.0
H16D H16D 0.009 -0.3363 0.3823 0.0
H16E H16E -0.0489 -0.4097 0.3886 0.0
H16F H16F -0.0371 -0.3555 0.4241 0.0
O7 O7 0.0 0.0 0.181908 0.0
O8 O8 0.0 0.0 0.31712 0.0
_cell_length_a 23.68994
_cell_length_b 23.68994
_cell_length_c 30.80587
_cell_angle_alpha 90.0
_cell_angle_beta 90.0
_cell_angle_gamma 120.0
_symmetry_space_group_name_H-M         'P 1'
_symmetry_Int_Tables_number            1
loop_
_symmetry_equiv_pos_as_xyz
   'x, y, z'
                         
loop_
_atom_site_label
_atom_site_type_symbol
_atom_site_fract_x 
_atom_site_fract_y
_atom_site_fract_z
_atom_site_charge
Zn1 Zn1 0.0 0.0 0.24653116 0.0
Zn2 Zn2 -0.04349513 -0.08701513 0.1592418 0.0
O1F O1F -0.06666 -0.09194 0.25603 0.0
O2F O2F -0.083017 -0.15697 0.20204 0.0
O3F O3F -0.18301 -0.38207 0.27008 0.0
O4F O4F -0.22237 -0.54814 0.45723 0.0
O5F O5F -0.31304 -0.54176 0.46194 0.0
O6F O6F -0.07973 -0.34843 0.36942 0.0
C1F C1F -0.08435 -0.14625 0.24144 0.0
C2F C2F -0.11076 -0.20365 0.27154 0.0
C3F C3F -0.13407 -0.26576 0.25514 0.0
H3F H3F -0.1333 -0.272 0.2247 0.0
C4F C4F -0.15846 -0.31845 0.28284 0.0
C5F C5F -0.15956 -0.30905 0.32733 0.0
C6F C6F -0.13577 -0.24726 0.34294 0.0
H6F H6F -0.1354 -0.2404 0.3733 0.0
C7F C7F -0.11208 -0.19466 0.31514 0.0
H7F H7F -0.0966 -0.152 0.3264 0.0
C8F C8F -0.1965 -0.3942 0.22401 0.0
H8F1 H8F1 -0.2077 -0.4396 0.2176 0.0
H8F2 H8F2 -0.1566 -0.3648 0.2075 0.0
H8F3 H8F3 -0.2317 -0.3874 0.2156 0.0
C9F C9F -0.25796 -0.52455 0.44714 0.0
C10F C10F -0.23326 -0.46855 0.41634 0.0
C11F C11F -0.16816 -0.43345 0.40754 0.0
H11F H11F -0.1391 -0.4445 0.4213 0.0
C12F C12F -0.14386 -0.38174 0.37843 0.0
C13F C13F -0.18555 -0.36545 0.35813 0.0
C14F C14F -0.25076 -0.39895 0.36834 0.0
H14F H14F -0.2793 -0.3864 0.3555 0.0
C15F C15F -0.27496 -0.45046 0.39714 0.0
H15F H15F -0.3201 -0.4735 0.4039 0.0
C16F C16F -0.03555 -0.36377 0.39305 0.0
H16D H16D 0.009 -0.3363 0.3823 0.0
H16E H16E -0.0489 -0.4097 0.3886 0.0
H16F H16F -0.0371 -0.3555 0.4241 0.0
O7 O7 0.0 0.0 0.181908 0.0
O8 O8 0.0 0.0 0.31712 0.0
_cell_length_a 23.68994
_cell_length_b 23.68994
_cell_length_c 30.80587
_cell_angle_alpha 90.0
_cell_angle_beta 90.0
_cell_angle_gamma 120.0
_symmetry_space_group_name_H-M         'P 1'
_symmetry_Int_Tables_number            1
loop_
_symmetry_equiv_pos_as_xyz
   'x, y, z'
                         
loop_
_atom_site_label
_atom_site_type_symbol
_atom_site_fract_x 
_atom_site_fract_y
_atom_site_fract_z
_atom_site_charge
Zn1 Zn1 0.0 0.0 0.24653116 0.0
Zn2 Zn2 -0.04349513 -0.08701513 0.1592418 0.0
O1F O1F -0.06666 -0.09194 0.25603 0.0
O2F O2F -0.083017 -0.15697 0.20204 0.0
O3F O3F -0.18301 -0.38207 0.27008 0.0
O4F O4F -0.22237 -0.54814 0.45723 0.0
O5F O5F -0.31304 -0.54176 0.46194 0.0
O6F O6F -0.07973 -0.34843 0.36942 0.0
C1F C1F -0.08435 -0.14625 0.24144 0.0
C2F C2F -0.11076 -0.20365 0.27154 0.0
C3F C3F -0.13407 -0.26576 0.25514 0.0
H3F H3F -0.1333 -0.272 0.2247 0.0
C4F C4F -0.15846 -0.31845 0.28284 0.0
C5F C5F -0.15956 -0.30905 0.32733 0.0
C6F C6F -0.13577 -0.24726 0.34294 0.0
H6F H6F -0.1354 -0.2404 0.3733 0.0
C7F C7F -0.11208 -0.19466 0.31514 0.0
H7F H7F -0.0966 -0.152 0.3264 0.0
C8F C8F -0.1965 -0.3942 0.22401 0.0
H8F1 H8F1 -0.2077 -0.4396 0.2176 0.0
H8F2 H8F2 -0.1566 -0.3648 0.2075 0.0
H8F3 H8F3 -0.2317 -0.3874 0.2156 0.0
C9F C9F -0.25796 -0.52455 0.44714 0.0
C10F C10F -0.23326 -0.46855 0.41634 0.0
C11F C11F -0.16816 -0.43345 0.40754 0.0
H11F H11F -0.1391 -0.4445 0.4213 0.0
C12F C12F -0.14386 -0.38174 0.37843 0.0
C13F C13F -0.18555 -0.36545 0.35813 0.0
C14F C14F -0.25076 -0.39895 0.36834 0.0
H14F H14F -0.2793 -0.3864 0.3555 0.0
C15F C15F -0.27496 -0.45046 0.39714 0.0
H15F H15F -0.3201 -0.4735 0.4039 0.0
C16F C16F -0.03555 -0.36377 0.39305 0.0
H16D H16D 0.009 -0.3363 0.3823 0.0
H16E H16E -0.0489 -0.4097 0.3886 0.0
H16F H16F -0.0371 -0.3555 0.4241 0.0
O7 O7 0.0 0.0 0.181908 0.0
O8 O8 0.0 0.0 0.31712 0.0
_cell_length_a 23.68994
_cell_length_b 23.68994
_cell_length_c 30.80587
_cell_angle_alpha 90.0
_cell_angle_beta 90.0
_cell_angle_gamma 120.0
_symmetry_space_group_name_H-M         'P 1'
_symmetry_Int_Tables_number            1
loop_
_symmetry_equiv_pos_as_xyz
   'x, y, z'
                         
loop_
_atom_site_label
_atom_site_type_symbol
_atom_site_fract_x 
_atom_site_fract_y
_atom_site_fract_z
_atom_site_charge
Zn1 Zn1 0.0 0.0 0.24653116 0.0
Zn2 Zn2 -0.04349513 -0.08701513 0.1592418 0.0
O1F O1F -0.06666 -0.09194 0.25603 0.0
O2F O2F -0.083017 -0.15697 0.20204 0.0
O3F O3F -0.18301 -0.38207 0.27008 0.0
O4F O4F -0.22237 -0.54814 0.45723 0.0
O5F O5F -0.31304 -0.54176 0.46194 0.0
O6F O6F -0.07973 -0.34843 0.36942 0.0
C1F C1F -0.08435 -0.14625 0.24144 0.0
C2F C2F -0.11076 -0.20365 0.27154 0.0
C3F C3F -0.13407 -0.26576 0.25514 0.0
H3F H3F -0.1333 -0.272 0.2247 0.0
C4F C4F -0.15846 -0.31845 0.28284 0.0
C5F C5F -0.15956 -0.30905 0.32733 0.0
C6F C6F -0.13577 -0.24726 0.34294 0.0
H6F H6F -0.1354 -0.2404 0.3733 0.0
C7F C7F -0.11208 -0.19466 0.31514 0.0
H7F H7F -0.0966 -0.152 0.3264 0.0
C8F C8F -0.1965 -0.3942 0.22401 0.0
H8F1 H8F1 -0.2077 -0.4396 0.2176 0.0
H8F2 H8F2 -0.1566 -0.3648 0.2075 0.0
H8F3 H8F3 -0.2317 -0.3874 0.2156 0.0
C9F C9F -0.25796 -0.52455 0.44714 0.0
C10F C10F -0.23326 -0.46855 0.41634 0.0
C11F C11F -0.16816 -0.43345 0.40754 0.0
H11F H11F -0.1391 -0.4445 0.4213 0.0
C12F C12F -0.14386 -0.38174 0.37843 0.0
C13F C13F -0.18555 -0.36545 0.35813 0.0
C14F C14F -0.25076 -0.39895 0.36834 0.0
H14F H14F -0.2793 -0.3864 0.3555 0.0
C15F C15F -0.27496 -0.45046 0.39714 0.0
H15F H15F -0.3201 -0.4735 0.4039 0.0
C16F C16F -0.03555 -0.36377 0.39305 0.0
H16D H16D 0.009 -0.3363 0.3823 0.0
H16E H16E -0.0489 -0.4097 0.3886 0.0
H16F H16F -0.0371 -0.3555 0.4241 0.0
O7 O7 0.0 0.0 0.181908 0.0
O8 O8 0.0 0.0 0.31712 0.0
_cell_length_a 23.68994
_cell_length_b 23.68994
_cell_length_c 30.80587
_cell_angle_alpha 90.0
_cell_angle_beta 90.0
_cell_angle_gamma 120.0
_symmetry_space_group_name_H-M         'P 1'
_symmetry_Int_Tables_number            1
loop_
_symmetry_equiv_pos_as_xyz
   'x, y, z'
                         
loop_
_atom_site_label
_atom_site_type_symbol
_atom_site_fract_x 
_atom_site_fract_y
_atom_site_fract_z
_atom_site_charge
Zn1 Zn1 0.0 0.0 0.24653116 0.0
Zn2 Zn2 -0.04349513 -0.08701513 0.1592418 0.0
O1F O1F -0.06666 -0.09194 0.25603 0.0
O2F O2F -0.083017 -0.15697 0.20204 0.0
O3F O3F -0.18301 -0.38207 0.27008 0.0
O4F O4F -0.22237 -0.54814 0.45723 0.0
O5F O5F -0.31304 -0.54176 0.46194 0.0
O6F O6F -0.07973 -0.34843 0.36942 0.0
C1F C1F -0.08435 -0.14625 0.24144 0.0
C2F C2F -0.11076 -0.20365 0.27154 0.0
C3F C3F -0.13407 -0.26576 0.25514 0.0
H3F H3F -0.1333 -0.272 0.2247 0.0
C4F C4F -0.15846 -0.31845 0.28284 0.0
C5F C5F -0.15956 -0.30905 0.32733 0.0
C6F C6F -0.13577 -0.24726 0.34294 0.0
H6F H6F -0.1354 -0.2404 0.3733 0.0
C7F C7F -0.11208 -0.19466 0.31514 0.0
H7F H7F -0.0966 -0.152 0.3264 0.0
C8F C8F -0.1965 -0.3942 0.22401 0.0
H8F1 H8F1 -0.2077 -0.4396 0.2176 0.0
H8F2 H8F2 -0.1566 -0.3648 0.2075 0.0
H8F3 H8F3 -0.2317 -0.3874 0.2156 0.0
C9F C9F -0.25796 -0.52455 0.44714 0.0
C10F C10F -0.23326 -0.46855 0.41634 0.0
C11F C11F -0.16816 -0.43345 0.40754 0.0
H11F H11F -0.1391 -0.4445 0.4213 0.0
C12F C12F -0.14386 -0.38174 0.37843 0.0
C13F C13F -0.18555 -0.36545 0.35813 0.0
C14F C14F -0.25076 -0.39895 0.36834 0.0
H14F H14F -0.2793 -0.3864 0.3555 0.0
C15F C15F -0.27496 -0.45046 0.39714 0.0
H15F H15F -0.3201 -0.4735 0.4039 0.0
C16F C16F -0.03555 -0.36377 0.39305 0.0
H16D H16D 0.009 -0.3363 0.3823 0.0
H16E H16E -0.0489 -0.4097 0.3886 0.0
H16F H16F -0.0371 -0.3555 0.4241 0.0
O7 O7 0.0 0.0 0.181908 0.0
O8 O8 0.0 0.0 0.31712 0.0
_cell_length_a 23.68994
_cell_length_b 23.68994
_cell_length_c 30.80587
_cell_angle_alpha 90.0
_cell_angle_beta 90.0
_cell_angle_gamma 120.0
_symmetry_space_group_name_H-M         'P 1'
_symmetry_Int_Tables_number            1
loop_
_symmetry_equiv_pos_as_xyz
   'x, y, z'
                         
loop_
_atom_site_label
_atom_site_type_symbol
_atom_site_fract_x 
_atom_site_fract_y
_atom_site_fract_z
_atom_site_charge
Zn1 Zn1 0.0 0.0 0.24653116 0.0
Zn2 Zn2 -0.04349513 -0.08701513 0.1592418 0.0
O1F O1F -0.06666 -0.09194 0.25603 0.0
O2F O2F -0.083017 -0.15697 0.20204 0.0
O3F O3F -0.18301 -0.38207 0.27008 0.0
O4F O4F -0.22237 -0.54814 0.45723 0.0
O5F O5F -0.31304 -0.54176 0.46194 0.0
O6F O6F -0.07973 -0.34843 0.36942 0.0
C1F C1F -0.08435 -0.14625 0.24144 0.0
C2F C2F -0.11076 -0.20365 0.27154 0.0
C3F C3F -0.13407 -0.26576 0.25514 0.0
H3F H3F -0.1333 -0.272 0.2247 0.0
C4F C4F -0.15846 -0.31845 0.28284 0.0
C5F C5F -0.15956 -0.30905 0.32733 0.0
C6F C6F -0.13577 -0.24726 0.34294 0.0
H6F H6F -0.1354 -0.2404 0.3733 0.0
C7F C7F -0.11208 -0.19466 0.31514 0.0
H7F H7F -0.0966 -0.152 0.3264 0.0
C8F C8F -0.1965 -0.3942 0.22401 0.0
H8F1 H8F1 -0.2077 -0.4396 0.2176 0.0
H8F2 H8F2 -0.1566 -0.3648 0.2075 0.0
H8F3 H8F3 -0.2317 -0.3874 0.2156 0.0
C9F C9F -0.25796 -0.52455 0.44714 0.0
C10F C10F -0.23326 -0.46855 0.41634 0.0
C11F C11F -0.16816 -0.43345 0.40754 0.0
H11F H11F -0.1391 -0.4445 0.4213 0.0
C12F C12F -0.14386 -0.38174 0.37843 0.0
C13F C13F -0.18555 -0.36545 0.35813 0.0
C14F C14F -0.25076 -0.39895 0.36834 0.0
H14F H14F -0.2793 -0.3864 0.3555 0.0
C15F C15F -0.27496 -0.45046 0.39714 0.0
H15F H15F -0.3201 -0.4735 0.4039 0.0
C16F C16F -0.03555 -0.36377 0.39305 0.0
H16D H16D 0.009 -0.3363 0.3823 0.0
H16E H16E -0.0489 -0.4097 0.3886 0.0
H16F H16F -0.0371 -0.3555 0.4241 0.0
O7 O7 0.0 0.0 0.181908 0.0
O8 O8 0.0 0.0 0.31712 0.0
_cell_length_a 23.68994
_cell_length_b 23.68994
_cell_length_c 30.80587
_cell_angle_alpha 90.0
_cell_angle_beta 90.0
_cell_angle_gamma 120.0
_symmetry_space_group_name_H-M         'P 1'
_symmetry_Int_Tables_number            1
loop_
_symmetry_equiv_pos_as_xyz
   'x, y, z'
                         
loop_
_atom_site_label
_atom_site_type_symbol
_atom_site_fract_x 
_atom_site_fract_y
_atom_site_fract_z
_atom_site_charge
Zn1 Zn1 0.0 0.0 0.24653116 0.0
Zn2 Zn2 -0.04349513 -0.08701513 0.1592418 0.0
O1F O1F -0.06666 -0.09194 0.25603 0.0
O2F O2F -0.083017 -0.15697 0.20204 0.0
O3F O3F -0.18301 -0.38207 0.27008 0.0
O4F O4F -0.22237 -0.54814 0.45723 0.0
O5F O5F -0.31304 -0.54176 0.46194 0.0
O6F O6F -0.07973 -0.34843 0.36942 0.0
C1F C1F -0.08435 -0.14625 0.24144 0.0
C2F C2F -0.11076 -0.20365 0.27154 0.0
C3F C3F -0.13407 -0.26576 0.25514 0.0
H3F H3F -0.1333 -0.272 0.2247 0.0
C4F C4F -0.15846 -0.31845 0.28284 0.0
C5F C5F -0.15956 -0.30905 0.32733 0.0
C6F C6F -0.13577 -0.24726 0.34294 0.0
H6F H6F -0.1354 -0.2404 0.3733 0.0
C7F C7F -0.11208 -0.19466 0.31514 0.0
H7F H7F -0.0966 -0.152 0.3264 0.0
C8F C8F -0.1965 -0.3942 0.22401 0.0
H8F1 H8F1 -0.2077 -0.4396 0.2176 0.0
H8F2 H8F2 -0.1566 -0.3648 0.2075 0.0
H8F3 H8F3 -0.2317 -0.3874 0.2156 0.0
C9F C9F -0.25796 -0.52455 0.44714 0.0
C10F C10F -0.23326 -0.46855 0.41634 0.0
C11F C11F -0.16816 -0.43345 0.40754 0.0
H11F H11F -0.1391 -0.4445 0.4213 0.0
C12F C12F -0.14386 -0.38174 0.37843 0.0
C13F C13F -0.18555 -0.36545 0.35813 0.0
C14F C14F -0.25076 -0.39895 0.36834 0.0
H14F H14F -0.2793 -0.3864 0.3555 0.0
C15F C15F -0.27496 -0.45046 0.39714 0.0
H15F H15F -0.3201 -0.4735 0.4039 0.0
C16F C16F -0.03555 -0.36377 0.39305 0.0
H16D H16D 0.009 -0.3363 0.3823 0.0
H16E H16E -0.0489 -0.4097 0.3886 0.0
H16F H16F -0.0371 -0.3555 0.4241 0.0
O7 O7 0.0 0.0 0.181908 0.0
O8 O8 0.0 0.0 0.31712 0.0
_cell_length_a 23.68994
_cell_length_b 23.68994
_cell_length_c 30.80587
_cell_angle_alpha 90.0
_cell_angle_beta 90.0
_cell_angle_gamma 120.0
_symmetry_space_group_name_H-M         'P 1'
_symmetry_Int_Tables_number            1
loop_
_symmetry_equiv_pos_as_xyz
   'x, y, z'
                         
loop_
_atom_site_label
_atom_site_type_symbol
_atom_site_fract_x 
_atom_site_fract_y
_atom_site_fract_z
_atom_site_charge
Zn1 Zn1 0.0 0.0 0.24653116 0.0
Zn2 Zn2 -0.04349513 -0.08701513 0.1592418 0.0
O1F O1F -0.06666 -0.09194 0.25603 0.0
O2F O2F -0.083017 -0.15697 0.20204 0.0
O3F O3F -0.18301 -0.38207 0.27008 0.0
O4F O4F -0.22237 -0.54814 0.45723 0.0
O5F O5F -0.31304 -0.54176 0.46194 0.0
O6F O6F -0.07973 -0.34843 0.36942 0.0
C1F C1F -0.08435 -0.14625 0.24144 0.0
C2F C2F -0.11076 -0.20365 0.27154 0.0
C3F C3F -0.13407 -0.26576 0.25514 0.0
H3F H3F -0.1333 -0.272 0.2247 0.0
C4F C4F -0.15846 -0.31845 0.28284 0.0
C5F C5F -0.15956 -0.30905 0.32733 0.0
C6F C6F -0.13577 -0.24726 0.34294 0.0
H6F H6F -0.1354 -0.2404 0.3733 0.0
C7F C7F -0.11208 -0.19466 0.31514 0.0
H7F H7F -0.0966 -0.152 0.3264 0.0
C8F C8F -0.1965 -0.3942 0.22401 0.0
H8F1 H8F1 -0.2077 -0.4396 0.2176 0.0
H8F2 H8F2 -0.1566 -0.3648 0.2075 0.0
H8F3 H8F3 -0.2317 -0.3874 0.2156 0.0
C9F C9F -0.25796 -0.52455 0.44714 0.0
C10F C10F -0.23326 -0.46855 0.41634 0.0
C11F C11F -0.16816 -0.43345 0.40754 0.0
H11F H11F -0.1391 -0.4445 0.4213 0.0
C12F C12F -0.14386 -0.38174 0.37843 0.0
C13F C13F -0.18555 -0.36545 0.35813 0.0
C14F C14F -0.25076 -0.39895 0.36834 0.0
H14F H14F -0.2793 -0.3864 0.3555 0.0
C15F C15F -0.27496 -0.45046 0.39714 0.0
H15F H15F -0.3201 -0.4735 0.4039 0.0
C16F C16F -0.03555 -0.36377 0.39305 0.0
H16D H16D 0.009 -0.3363 0.3823 0.0
H16E H16E -0.0489 -0.4097 0.3886 0.0
H16F H16F -0.0371 -0.3555 0.4241 0.0
O7 O7 0.0 0.0 0.181908 0.0
O8 O8 0.0 0.0 0.31712 0.0
_cell_length_a 23.68994
_cell_length_b 23.68994
_cell_length_c 30.80587
_cell_angle_alpha 90.0
_cell_angle_beta 90.0
_cell_angle_gamma 120.0
_symmetry_space_group_name_H-M         'P 1'
_symmetry_Int_Tables_number            1
loop_
_symmetry_equiv_pos_as_xyz
   'x, y, z'
                         
loop_
_atom_site_label
_atom_site_type_symbol
_atom_site_fract_x 
_atom_site_fract_y
_atom_site_fract_z
_atom_site_charge
Zn1 Zn1 0.0 0.0 0.24653116 0.0
Zn2 Zn2 -0.04349513 -0.08701513 0.1592418 0.0
O1F O1F -0.06666 -0.09194 0.25603 0.0
O2F O2F -0.083017 -0.15697 0.20204 0.0
O3F O3F -0.18301 -0.38207 0.27008 0.0
O4F O4F -0.22237 -0.54814 0.45723 0.0
O5F O5F -0.31304 -0.54176 0.46194 0.0
O6F O6F -0.07973 -0.34843 0.36942 0.0
C1F C1F -0.08435 -0.14625 0.24144 0.0
C2F C2F -0.11076 -0.20365 0.27154 0.0
C3F C3F -0.13407 -0.26576 0.25514 0.0
H3F H3F -0.1333 -0.272 0.2247 0.0
C4F C4F -0.15846 -0.31845 0.28284 0.0
C5F C5F -0.15956 -0.30905 0.32733 0.0
C6F C6F -0.13577 -0.24726 0.34294 0.0
H6F H6F -0.1354 -0.2404 0.3733 0.0
C7F C7F -0.11208 -0.19466 0.31514 0.0
H7F H7F -0.0966 -0.152 0.3264 0.0
C8F C8F -0.1965 -0.3942 0.22401 0.0
H8F1 H8F1 -0.2077 -0.4396 0.2176 0.0
H8F2 H8F2 -0.1566 -0.3648 0.2075 0.0
H8F3 H8F3 -0.2317 -0.3874 0.2156 0.0
C9F C9F -0.25796 -0.52455 0.44714 0.0
C10F C10F -0.23326 -0.46855 0.41634 0.0
C11F C11F -0.16816 -0.43345 0.40754 0.0
H11F H11F -0.1391 -0.4445 0.4213 0.0
C12F C12F -0.14386 -0.38174 0.37843 0.0
C13F C13F -0.18555 -0.36545 0.35813 0.0
C14F C14F -0.25076 -0.39895 0.36834 0.0
H14F H14F -0.2793 -0.3864 0.3555 0.0
C15F C15F -0.27496 -0.45046 0.39714 0.0
H15F H15F -0.3201 -0.4735 0.4039 0.0
C16F C16F -0.03555 -0.36377 0.39305 0.0
H16D H16D 0.009 -0.3363 0.3823 0.0
H16E H16E -0.0489 -0.4097 0.3886 0.0
H16F H16F -0.0371 -0.3555 0.4241 0.0
O7 O7 0.0 0.0 0.181908 0.0
O8 O8 0.0 0.0 0.31712 0.0
_cell_length_a 23.68994
_cell_length_b 23.68994
_cell_length_c 30.80587
_cell_angle_alpha 90.0
_cell_angle_beta 90.0
_cell_angle_gamma 120.0
_symmetry_space_group_name_H-M         'P 1'
_symmetry_Int_Tables_number            1
loop_
_symmetry_equiv_pos_as_xyz
   'x, y, z'
                         
loop_
_atom_site_label
_atom_site_type_symbol
_atom_site_fract_x 
_atom_site_fract_y
_atom_site_fract_z
_atom_site_charge
Zn1 Zn1 0.0 0.0 0.24653116 0.0
Zn2 Zn2 -0.04349513 -0.08701513 0.1592418 0.0
O1F O1F -0.06666 -0.09194 0.25603 0.0
O2F O2F -0.083017 -0.15697 0.20204 0.0
O3F O3F -0.18301 -0.38207 0.27008 0.0
O4F O4F -0.22237 -0.54814 0.45723 0.0
O5F O5F -0.31304 -0.54176 0.46194 0.0
O6F O6F -0.07973 -0.34843 0.36942 0.0
C1F C1F -0.08435 -0.14625 0.24144 0.0
C2F C2F -0.11076 -0.20365 0.27154 0.0
C3F C3F -0.13407 -0.26576 0.25514 0.0
H3F H3F -0.1333 -0.272 0.2247 0.0
C4F C4F -0.15846 -0.31845 0.28284 0.0
C5F C5F -0.15956 -0.30905 0.32733 0.0
C6F C6F -0.13577 -0.24726 0.34294 0.0
H6F H6F -0.1354 -0.2404 0.3733 0.0
C7F C7F -0.11208 -0.19466 0.31514 0.0
H7F H7F -0.0966 -0.152 0.3264 0.0
C8F C8F -0.1965 -0.3942 0.22401 0.0
H8F1 H8F1 -0.2077 -0.4396 0.2176 0.0
H8F2 H8F2 -0.1566 -0.3648 0.2075 0.0
H8F3 H8F3 -0.2317 -0.3874 0.2156 0.0
C9F C9F -0.25796 -0.52455 0.44714 0.0
C10F C10F -0.23326 -0.46855 0.41634 0.0
C11F C11F -0.16816 -0.43345 0.40754 0.0
H11F H11F -0.1391 -0.4445 0.4213 0.0
C12F C12F -0.14386 -0.38174 0.37843 0.0
C13F C13F -0.18555 -0.36545 0.35813 0.0
C14F C14F -0.25076 -0.39895 0.36834 0.0
H14F H14F -0.2793 -0.3864 0.3555 0.0
C15F C15F -0.27496 -0.45046 0.39714 0.0
H15F H15F -0.3201 -0.4735 0.4039 0.0
C16F C16F -0.03555 -0.36377 0.39305 0.0
H16D H16D 0.009 -0.3363 0.3823 0.0
H16E H16E -0.0489 -0.4097 0.3886 0.0
H16F H16F -0.0371 -0.3555 0.4241 0.0
O7 O7 0.0 0.0 0.181908 0.0
O8 O8 0.0 0.0 0.31712 0.0
_cell_length_a 23.68994
_cell_length_b 23.68994
_cell_length_c 30.80587
_cell_angle_alpha 90.0
_cell_angle_beta 90.0
_cell_angle_gamma 120.0
_symmetry_space_group_name_H-M         'P 1'
_symmetry_Int_Tables_number            1
loop_
_symmetry_equiv_pos_as_xyz
   'x, y, z'
                         
loop_
_atom_site_label
_atom_site_type_symbol
_atom_site_fract_x 
_atom_site_fract_y
_atom_site_fract_z
_atom_site_charge
Zn1 Zn1 0.0 0.0 0.24653116 0.0
Zn2 Zn2 -0.04349513 -0.08701513 0.1592418 0.0
O1F O1F -0.06666 -0.09194 0.25603 0.0
O2F O2F -0.083017 -0.15697 0.20204 0.0
O3F O3F -0.18301 -0.38207 0.27008 0.0
O4F O4F -0.22237 -0.54814 0.45723 0.0
O5F O5F -0.31304 -0.54176 0.46194 0.0
O6F O6F -0.07973 -0.34843 0.36942 0.0
C1F C1F -0.08435 -0.14625 0.24144 0.0
C2F C2F -0.11076 -0.20365 0.27154 0.0
C3F C3F -0.13407 -0.26576 0.25514 0.0
H3F H3F -0.1333 -0.272 0.2247 0.0
C4F C4F -0.15846 -0.31845 0.28284 0.0
C5F C5F -0.15956 -0.30905 0.32733 0.0
C6F C6F -0.13577 -0.24726 0.34294 0.0
H6F H6F -0.1354 -0.2404 0.3733 0.0
C7F C7F -0.11208 -0.19466 0.31514 0.0
H7F H7F -0.0966 -0.152 0.3264 0.0
C8F C8F -0.1965 -0.3942 0.22401 0.0
H8F1 H8F1 -0.2077 -0.4396 0.2176 0.0
H8F2 H8F2 -0.1566 -0.3648 0.2075 0.0
H8F3 H8F3 -0.2317 -0.3874 0.2156 0.0
C9F C9F -0.25796 -0.52455 0.44714 0.0
C10F C10F -0.23326 -0.46855 0.41634 0.0
C11F C11F -0.16816 -0.43345 0.40754 0.0
H11F H11F -0.1391 -0.4445 0.4213 0.0
C12F C12F -0.14386 -0.38174 0.37843 0.0
C13F C13F -0.18555 -0.36545 0.35813 0.0
C14F C14F -0.25076 -0.39895 0.36834 0.0
H14F H14F -0.2793 -0.3864 0.3555 0.0
C15F C15F -0.27496 -0.45046 0.39714 0.0
H15F H15F -0.3201 -0.4735 0.4039 0.0
C16F C16F -0.03555 -0.36377 0.39305 0.0
H16D H16D 0.009 -0.3363 0.3823 0.0
H16E H16E -0.0489 -0.4097 0.3886 0.0
H16F H16F -0.0371 -0.3555 0.4241 0.0
O7 O7 0.0 0.0 0.181908 0.0
O8 O8 0.0 0.0 0.31712 0.0
_cell_length_a 23.68994
_cell_length_b 23.68994
_cell_length_c 30.80587
_cell_angle_alpha 90.0
_cell_angle_beta 90.0
_cell_angle_gamma 120.0
_symmetry_space_group_name_H-M         'P 1'
_symmetry_Int_Tables_number            1
loop_
_symmetry_equiv_pos_as_xyz
   'x, y, z'
                         
loop_
_atom_site_label
_atom_site_type_symbol
_atom_site_fract_x 
_atom_site_fract_y
_atom_site_fract_z
_atom_site_charge
Zn1 Zn1 0.0 0.0 0.24653116 0.0
Zn2 Zn2 -0.04349513 -0.08701513 0.1592418 0.0
O1F O1F -0.06666 -0.09194 0.25603 0.0
O2F O2F -0.083017 -0.15697 0.20204 0.0
O3F O3F -0.18301 -0.38207 0.27008 0.0
O4F O4F -0.22237 -0.54814 0.45723 0.0
O5F O5F -0.31304 -0.54176 0.46194 0.0
O6F O6F -0.07973 -0.34843 0.36942 0.0
C1F C1F -0.08435 -0.14625 0.24144 0.0
C2F C2F -0.11076 -0.20365 0.27154 0.0
C3F C3F -0.13407 -0.26576 0.25514 0.0
H3F H3F -0.1333 -0.272 0.2247 0.0
C4F C4F -0.15846 -0.31845 0.28284 0.0
C5F C5F -0.15956 -0.30905 0.32733 0.0
C6F C6F -0.13577 -0.24726 0.34294 0.0
H6F H6F -0.1354 -0.2404 0.3733 0.0
C7F C7F -0.11208 -0.19466 0.31514 0.0
H7F H7F -0.0966 -0.152 0.3264 0.0
C8F C8F -0.1965 -0.3942 0.22401 0.0
H8F1 H8F1 -0.2077 -0.4396 0.2176 0.0
H8F2 H8F2 -0.1566 -0.3648 0.2075 0.0
H8F3 H8F3 -0.2317 -0.3874 0.2156 0.0
C9F C9F -0.25796 -0.52455 0.44714 0.0
C10F C10F -0.23326 -0.46855 0.41634 0.0
C11F C11F -0.16816 -0.43345 0.40754 0.0
H11F H11F -0.1391 -0.4445 0.4213 0.0
C12F C12F -0.14386 -0.38174 0.37843 0.0
C13F C13F -0.18555 -0.36545 0.35813 0.0
C14F C14F -0.25076 -0.39895 0.36834 0.0
H14F H14F -0.2793 -0.3864 0.3555 0.0
C15F C15F -0.27496 -0.45046 0.39714 0.0
H15F H15F -0.3201 -0.4735 0.4039 0.0
C16F C16F -0.03555 -0.36377 0.39305 0.0
H16D H16D 0.009 -0.3363 0.3823 0.0
H16E H16E -0.0489 -0.4097 0.3886 0.0
H16F H16F -0.0371 -0.3555 0.4241 0.0
O7 O7 0.0 0.0 0.181908 0.0
O8 O8 0.0 0.0 0.31712 0.0
