_cell_length_a 26.376
_cell_length_b 26.400000238300095
_cell_length_c 46.67800035477134
_cell_angle_alpha 90.00700052986613
_cell_angle_beta 89.99899961309502
_cell_angle_gamma 90.45000003183146
_symmetry_space_group_name_H-M         'P 1'
_symmetry_Int_Tables_number            1
loop_
_symmetry_equiv_pos_as_xyz
   'x, y, z'
                         
loop_
_atom_site_label
_atom_site_type_symbol
_atom_site_fract_x 
_atom_site_fract_y
_atom_site_fract_z
_atom_site_charge
Zn Zn 0.130762 0.180047 0.382785 0.90689
Zn Zn 0.144531 0.175121 0.428798 0.90689
Zn Zn 0.379604 0.321175 0.136843 0.90689
Zn Zn 0.370852 0.321735 0.183961 0.90689
H_ H_ 0.310427 0.182714 0.445639 0.11455
H_ H_ 0.377357 0.17704 0.34548 0.11455
H_ H_ 0.284788 0.18032 0.354188 0.11455
H_ H_ 0.396442 0.164255 0.46405 0.11455
H_ H_ 0.489368 0.176703 0.456751 0.11455
H_ H_ 0.467491 0.183791 0.365652 0.11455
H_ H_ 0.11419 0.0101067 0.440289 0.11455
H_ H_ 0.16141 0.432438 0.345112 0.11455
H_ H_ 0.181244 0.0239757 0.357468 0.11455
H_ H_ 0.12407 0.425878 0.461057 0.11455
H_ H_ 0.118352 0.33252 0.4562 0.11455
H_ H_ 0.151419 0.346076 0.366022 0.11455
H_ H_ 0.0830137 0.102717 0.469052 0.11455
H_ H_ 0.062285 0.0876512 0.0174025 0.11455
H_ H_ 0.113007 0.127348 0.0565808 0.11455
H_ H_ 0.191901 0.251697 0.476166 0.11455
H_ H_ 0.223195 0.304764 0.0124045 0.11455
H_ H_ 0.212664 0.275536 0.0614583 0.11455
H_ H_ 0.0122988 0.207542 0.122465 0.11455
H_ H_ 0.00180541 0.19563 0.174541 0.11455
H_ H_ 0.26372 0.159555 0.134432 0.11455
H_ H_ 0.256465 0.154963 0.187787 0.11455
H_ H_ 0.0909882 0.0830646 0.250555 0.11455
H_ H_ 0.0626057 0.0612849 0.296965 0.11455
H_ H_ 0.0899835 0.111839 0.339881 0.11455
H_ H_ 0.174589 0.248434 0.261103 0.11455
H_ H_ 0.19151 0.299335 0.304615 0.11455
H_ H_ 0.178899 0.262895 0.349874 0.11455
H_ H_ 0.200724 0.322183 0.201137 0.11455
H_ H_ 0.132219 0.335258 0.101176 0.11455
H_ H_ 0.220502 0.315545 0.108023 0.11455
H_ H_ 0.112319 0.321723 0.218452 0.11455
H_ H_ 0.0245361 0.319093 0.209822 0.11455
H_ H_ 0.0496574 0.334432 0.120781 0.11455
H_ H_ 0.367036 0.489284 0.196792 0.11455
H_ H_ 0.401719 0.0736605 0.102164 0.11455
H_ H_ 0.366107 0.47787 0.103959 0.11455
H_ H_ 0.377004 0.0666761 0.220081 0.11455
H_ H_ 0.376967 0.155372 0.218937 0.11455
H_ H_ 0.399108 0.156873 0.128388 0.11455
H_ H_ 0.429688 0.392088 0.221377 0.11455
H_ H_ 0.421823 0.430489 0.27196 0.11455
H_ H_ 0.402549 0.379579 0.309625 0.11455
H_ H_ 0.302156 0.273053 0.228076 0.11455
H_ H_ 0.284867 0.202713 0.26486 0.11455
H_ H_ 0.320011 0.212211 0.313352 0.11455
H_ H_ 0.490844 0.299093 0.375036 0.11455
H_ H_ 0.504511 0.302339 0.428155 0.11455
H_ H_ 0.244146 0.34903 0.392127 0.11455
H_ H_ 0.254955 0.354171 0.444159 0.11455
H_ H_ 0.443591 0.400847 0.503807 0.11455
H_ H_ 0.46282 0.439072 0.0526188 0.11455
H_ H_ 0.430193 0.389262 0.0913987 0.11455
H_ H_ 0.334551 0.268367 0.0125203 0.11455
H_ H_ 0.310818 0.21375 0.0531974 0.11455
H_ H_ 0.326595 0.246811 0.101058 0.11455
C_ C_ 0.234616 0.183884 0.408746 0.68181
C_ C_ 0.290684 0.184112 0.401578 -0.05681
C_ C_ 0.324421 0.177333 0.424691 -0.08735
C_ C_ 0.376726 0.180333 0.420251 -0.05681
C_ C_ 0.396706 0.178809 0.391956 -0.05681
C_ C_ 0.363221 0.177276 0.36873 -0.08735
C_ C_ 0.310175 0.180305 0.372936 -0.08735
C_ C_ 0.409495 0.177526 0.443754 -0.08735
C_ C_ 0.461235 0.176483 0.439265 -0.08735
C_ C_ 0.481298 0.172926 0.411145 -0.05681
C_ C_ 0.448773 0.176406 0.387824 -0.08735
C_ C_ 0.131315 0.273861 0.410311 0.68181
C_ C_ 0.146798 0.0786306 0.401377 0.68181
C_ C_ 0.149384 0.0231289 0.399173 -0.05681
C_ C_ 0.13288 0.494115 0.418579 -0.08735
C_ C_ 0.135622 0.439045 0.416477 -0.05681
C_ C_ 0.146568 0.415845 0.389309 -0.05681
C_ C_ 0.153206 0.448523 0.366222 -0.08735
C_ C_ 0.152792 0.502366 0.367775 -0.08735
C_ C_ 0.127401 0.406224 0.440057 -0.08735
C_ C_ 0.125718 0.353795 0.437251 -0.08735
C_ C_ 0.137683 0.330513 0.410978 -0.05681
C_ C_ 0.146454 0.3631 0.386665 -0.08735
C_ C_ 0.0404162 0.168384 0.406665 0.68181
C_ C_ 0.104332 0.122395 0.485125 0.1947
C_ C_ 0.0861607 0.11877 0.013206 -0.08735
C_ C_ 0.110841 0.144704 0.0357763 -0.08735
C_ C_ 0.138605 0.189255 0.0291204 -0.05681
C_ C_ 0.144964 0.204377 0.999203 0.18498
C_ C_ 0.180613 0.238057 0.497886 -0.08735
C_ C_ 0.197627 0.273314 0.0167284 -0.08735
C_ C_ 0.189359 0.259285 0.0452425 -0.08735
C_ C_ 0.158685 0.217179 0.0526668 0.18498
C_ C_ 0.190802 0.18988 0.0986031 0.44287
C_ C_ 0.102593 0.209376 0.0944655 0.44287
C_ C_ 0.0958024 0.198382 0.123756 -0.05681
C_ C_ 0.0460513 0.202157 0.1367 -0.08735
C_ C_ 0.0397401 0.1941 0.166424 -0.08735
C_ C_ 0.0836678 0.185401 0.184497 -0.05681
C_ C_ 0.132507 0.183148 0.171175 -0.05681
C_ C_ 0.137286 0.187823 0.141445 -0.05681
C_ C_ 0.184933 0.181831 0.12904 -0.05681
C_ C_ 0.228206 0.171571 0.14585 -0.08735
C_ C_ 0.223154 0.167028 0.175752 -0.08735
C_ C_ 0.175813 0.175399 0.189359 -0.05681
C_ C_ 0.168748 0.170347 0.219614 0.44287
C_ C_ 0.0800423 0.178103 0.214435 0.44287
C_ C_ 0.115555 0.157499 0.260917 0.18498
C_ C_ 0.0942543 0.111025 0.266296 -0.08735
C_ C_ 0.0814745 0.0972411 0.294015 -0.08735
C_ C_ 0.0950147 0.125878 0.317734 -0.08735
C_ C_ 0.122021 0.171779 0.313193 0.18498
C_ C_ 0.131859 0.189466 0.284535 -0.05681
C_ C_ 0.158031 0.235071 0.280876 -0.08735
C_ C_ 0.173733 0.262282 0.305075 -0.08735
C_ C_ 0.166642 0.242578 0.332243 0.1947
C_ C_ 0.275379 0.312089 0.15784 0.68181
C_ C_ 0.219087 0.312715 0.154827 -0.05681
C_ C_ 0.185695 0.316475 0.178867 -0.08735
C_ C_ 0.134086 0.316889 0.173839 -0.05681
C_ C_ 0.114366 0.321521 0.146351 -0.05681
C_ C_ 0.146863 0.319663 0.122927 -0.08735
C_ C_ 0.198438 0.314897 0.12637 -0.08735
C_ C_ 0.100224 0.323947 0.196502 -0.08735
C_ C_ 0.0472125 0.325134 0.190909 -0.08735
C_ C_ 0.0267925 0.321557 0.163742 -0.05681
C_ C_ 0.062398 0.326107 0.142262 -0.08735
C_ C_ 0.388526 0.221327 0.171126 0.68181
C_ C_ 0.372796 0.417955 0.152562 0.68181
C_ C_ 0.371208 0.475754 0.150945 -0.05681
C_ C_ 0.375359 0.00630241 0.174613 -0.08735
C_ C_ 0.380969 0.0592298 0.173957 -0.05681
C_ C_ 0.389919 0.0844437 0.148096 -0.05681
C_ C_ 0.39213 0.0555286 0.122564 -0.08735
C_ C_ 0.372418 0.499675 0.123803 -0.08735
C_ C_ 0.375786 0.0861633 0.199197 -0.08735
C_ C_ 0.379143 0.139104 0.198905 -0.08735
C_ C_ 0.384016 0.165726 0.172049 -0.05681
C_ C_ 0.395058 0.137946 0.148257 -0.08735
C_ C_ 0.470925 0.324846 0.161216 0.68181
C_ C_ 0.412054 0.373811 0.239811 0.1947
C_ C_ 0.415365 0.391201 0.266715 -0.08735
C_ C_ 0.396078 0.364083 0.289943 -0.08735
C_ C_ 0.363856 0.323591 0.284895 -0.05681
C_ C_ 0.353029 0.312394 0.255596 0.18498
C_ C_ 0.314872 0.275792 0.248859 -0.08735
C_ C_ 0.305616 0.238075 0.269746 -0.08735
C_ C_ 0.320065 0.246343 0.298335 -0.08735
C_ C_ 0.346938 0.289129 0.306423 0.18498
C_ C_ 0.316884 0.320482 0.352593 0.44287
C_ C_ 0.402638 0.295047 0.348649 0.44287
C_ C_ 0.410862 0.306892 0.377783 -0.05681
C_ C_ 0.461049 0.306735 0.389308 -0.08735
C_ C_ 0.466897 0.303791 0.419696 -0.08735
C_ C_ 0.423845 0.304945 0.437577 -0.05681
C_ C_ 0.373906 0.312676 0.425014 -0.05681
C_ C_ 0.368567 0.315723 0.395552 -0.05681
C_ C_ 0.322204 0.325357 0.383075 -0.05681
C_ C_ 0.280722 0.334819 0.400991 -0.08735
C_ C_ 0.286205 0.335559 0.431159 -0.08735
C_ C_ 0.333546 0.321888 0.443304 -0.05681
C_ C_ 0.34188 0.325871 0.473714 0.44287
C_ C_ 0.428894 0.310239 0.467825 0.44287
C_ C_ 0.398047 0.35302 0.0137766 0.18498
C_ C_ 0.424568 0.398192 0.0209601 -0.08735
C_ C_ 0.437367 0.408695 0.04835 -0.08735
C_ C_ 0.41977 0.377877 0.0703624 -0.08735
C_ C_ 0.392288 0.335054 0.0662386 0.18498
C_ C_ 0.378898 0.323152 0.0373646 -0.05681
C_ C_ 0.351652 0.276367 0.0332853 -0.08735
C_ C_ 0.333029 0.249724 0.0562886 -0.08735
C_ C_ 0.349381 0.262443 0.0831125 0.1947
N_ N_ 0.136334 0.162433 0.479644 -0.29468
N_ N_ 0.149331 0.202719 0.0825596 -0.17154
N_ N_ 0.122085 0.173596 0.231214 -0.17154
N_ N_ 0.141666 0.198268 0.336238 -0.29468
N_ N_ 0.375071 0.339555 0.234044 -0.29468
N_ N_ 0.355099 0.302817 0.336263 -0.17154
N_ N_ 0.38842 0.321938 0.485617 -0.17154
N_ N_ 0.38016 0.303766 0.0883867 -0.29468
O_ O_ 0.217482 0.180118 0.434175 -0.58347
O_ O_ 0.203402 0.189259 0.387348 -0.58347
O_ O_ 0.142523 0.248179 0.431792 -0.58347
O_ O_ 0.114604 0.254402 0.387901 -0.58347
O_ O_ 0.147062 0.0986901 0.426392 -0.58347
O_ O_ 0.148008 0.104502 0.378692 -0.58347
O_ O_ 0.070241 0.170536 0.427883 -0.58347
O_ O_ 0.0564649 0.171041 0.38081 -0.58347
O_ O_ 0.0654596 0.227107 0.078089 -0.46727
O_ O_ 0.236112 0.190062 0.0874329 -0.46727
O_ O_ 0.0346657 0.172618 0.224929 -0.46727
O_ O_ 0.206565 0.155408 0.236419 -0.46727
O_ O_ 0.294558 0.318142 0.181982 -0.58347
O_ O_ 0.304648 0.313185 0.13567 -0.58347
O_ O_ 0.372718 0.249143 0.192484 -0.58347
O_ O_ 0.390225 0.244255 0.147734 -0.58347
O_ O_ 0.365855 0.396048 0.17661 -0.58347
O_ O_ 0.366783 0.392855 0.130491 -0.58347
O_ O_ 0.443202 0.32457 0.18331 -0.58347
O_ O_ 0.453878 0.331014 0.136799 -0.58347
O_ O_ 0.439474 0.276493 0.333018 -0.46727
O_ O_ 0.27359 0.33135 0.34021 -0.46727
O_ O_ 0.475184 0.308385 0.478617 -0.46727
O_ O_ 0.301458 0.336117 0.490409 -0.46727
Zn Zn 0.127808 0.18253 0.884277 0.90689
Zn Zn 0.141789 0.181075 0.931869 0.90689
Zn Zn 0.372296 0.314744 0.637128 0.90689
Zn Zn 0.356149 0.319421 0.685024 0.90689
H_ H_ 0.308301 0.206458 0.944249 0.11455
H_ H_ 0.378587 0.178684 0.849292 0.11455
H_ H_ 0.286861 0.170791 0.857 0.11455
H_ H_ 0.397807 0.195302 0.965689 0.11455
H_ H_ 0.488726 0.18022 0.958603 0.11455
H_ H_ 0.466114 0.166787 0.868737 0.11455
H_ H_ 0.114915 0.0189029 0.94195 0.11455
H_ H_ 0.119643 0.430882 0.843294 0.11455
H_ H_ 0.165424 0.0245005 0.852988 0.11455
H_ H_ 0.140165 0.432006 0.962421 0.11455
H_ H_ 0.138631 0.340324 0.957526 0.11455
H_ H_ 0.131114 0.351726 0.867915 0.11455
H_ H_ 0.0822397 0.10781 0.967439 0.11455
H_ H_ 0.0670553 0.077094 0.517474 0.11455
H_ H_ 0.101253 0.123371 0.557613 0.11455
H_ H_ 0.181498 0.26198 0.972203 0.11455
H_ H_ 0.203735 0.310667 0.517168 0.11455
H_ H_ 0.175986 0.285807 0.563786 0.11455
H_ H_ 0.0123063 0.210503 0.627312 0.11455
H_ H_ 0.00413072 0.207832 0.679233 0.11455
H_ H_ 0.260515 0.178652 0.638269 0.11455
H_ H_ 0.254601 0.159231 0.688373 0.11455
H_ H_ 0.0675437 0.0911204 0.75231 0.11455
H_ H_ 0.0526197 0.0657875 0.803186 0.11455
H_ H_ 0.0786311 0.119546 0.842411 0.11455
H_ H_ 0.179603 0.235411 0.759555 0.11455
H_ H_ 0.208691 0.281093 0.799821 0.11455
H_ H_ 0.170781 0.270647 0.848673 0.11455
H_ H_ 0.190772 0.309303 0.699864 0.11455
H_ H_ 0.12014 0.310238 0.601113 0.11455
H_ H_ 0.214706 0.318203 0.608534 0.11455
H_ H_ 0.107769 0.341899 0.717902 0.11455
H_ H_ 0.0130211 0.337188 0.710935 0.11455
H_ H_ 0.0355849 0.308777 0.621686 0.11455
H_ H_ 0.34943 0.486491 0.698077 0.11455
H_ H_ 0.335888 0.0668607 0.603158 0.11455
H_ H_ 0.412252 0.471138 0.615167 0.11455
H_ H_ 0.391414 0.0684486 0.715605 0.11455
H_ H_ 0.382947 0.159903 0.712341 0.11455
H_ H_ 0.364527 0.149873 0.622373 0.11455
H_ H_ 0.424463 0.389962 0.715703 0.11455
H_ H_ 0.43792 0.423749 0.765225 0.11455
H_ H_ 0.395941 0.381701 0.805666 0.11455
H_ H_ 0.299897 0.25817 0.728132 0.11455
H_ H_ 0.269537 0.210008 0.767547 0.11455
H_ H_ 0.298931 0.230392 0.817842 0.11455
H_ H_ 0.486551 0.285259 0.873157 0.11455
H_ H_ 0.503265 0.305945 0.926753 0.11455
H_ H_ 0.238721 0.343104 0.892631 0.11455
H_ H_ 0.253683 0.370446 0.940896 0.11455
H_ H_ 0.435488 0.423421 0.00314175 0.11455
H_ H_ 0.457382 0.429555 0.554586 0.11455
H_ H_ 0.427121 0.381973 0.593821 0.11455
H_ H_ 0.333213 0.245442 0.515672 0.11455
H_ H_ 0.298552 0.207691 0.554493 0.11455
H_ H_ 0.311806 0.240021 0.604493 0.11455
C_ C_ 0.234052 0.187463 0.907814 0.68181
C_ C_ 0.291427 0.195686 0.901399 -0.05681
C_ C_ 0.325649 0.197937 0.924298 -0.08735
C_ C_ 0.376858 0.191136 0.921022 -0.05681
C_ C_ 0.395336 0.182312 0.892989 -0.05681
C_ C_ 0.36263 0.181687 0.869829 -0.08735
C_ C_ 0.310484 0.184333 0.873642 -0.08735
C_ C_ 0.409267 0.185062 0.944502 -0.08735
C_ C_ 0.461863 0.176287 0.941011 -0.08735
C_ C_ 0.480492 0.174612 0.913268 -0.05681
C_ C_ 0.447768 0.174082 0.889495 -0.08735
C_ C_ 0.120828 0.280552 0.911036 0.68181
C_ C_ 0.142508 0.0842506 0.899313 0.68181
C_ C_ 0.14274 0.0284522 0.898567 -0.05681
C_ C_ 0.125719 0.497249 0.91791 -0.08735
C_ C_ 0.12679 0.445041 0.916667 -0.05681
C_ C_ 0.122414 0.421047 0.889655 -0.05681
C_ C_ 0.117809 0.449425 0.864622 -0.08735
C_ C_ 0.121828 0.501989 0.865611 -0.08735
C_ C_ 0.136641 0.414288 0.940851 -0.08735
C_ C_ 0.13057 0.362823 0.938767 -0.08735
C_ C_ 0.122702 0.337361 0.911844 -0.05681
C_ C_ 0.124669 0.367532 0.887839 -0.08735
C_ C_ 0.0357143 0.17201 0.905974 0.68181
C_ C_ 0.094841 0.131312 0.985024 0.1947
C_ C_ 0.0922116 0.108468 0.512984 -0.08735
C_ C_ 0.115847 0.132086 0.536156 -0.08735
C_ C_ 0.142469 0.176438 0.52989 -0.05681
C_ C_ 0.155811 0.190025 0.502062 0.18498
C_ C_ 0.174391 0.246196 0.99356 -0.08735
C_ C_ 0.184504 0.273715 0.52 -0.08735
C_ C_ 0.171662 0.259739 0.547903 -0.08735
C_ C_ 0.151839 0.210845 0.55368 0.18498
C_ C_ 0.18388 0.182859 0.600208 0.44287
C_ C_ 0.0975505 0.207394 0.597236 0.44287
C_ C_ 0.089994 0.197396 0.627079 -0.05681
C_ C_ 0.0448147 0.201515 0.640246 -0.08735
C_ C_ 0.0411627 0.202525 0.670065 -0.08735
C_ C_ 0.0820618 0.186292 0.686207 -0.05681
C_ C_ 0.125266 0.169656 0.673114 -0.05681
C_ C_ 0.129496 0.176414 0.642509 -0.05681
C_ C_ 0.178304 0.172843 0.629346 -0.05681
C_ C_ 0.221486 0.169071 0.64685 -0.08735
C_ C_ 0.216341 0.162872 0.675223 -0.08735
C_ C_ 0.168964 0.164779 0.688956 -0.05681
C_ C_ 0.164497 0.155227 0.719365 0.44287
C_ C_ 0.0805338 0.189661 0.715958 0.44287
C_ C_ 0.114936 0.155698 0.762843 0.18498
C_ C_ 0.0866402 0.111962 0.769575 -0.08735
C_ C_ 0.0731246 0.099811 0.798136 -0.08735
C_ C_ 0.0907372 0.127989 0.820886 -0.08735
C_ C_ 0.118708 0.172333 0.814985 0.18498
C_ C_ 0.12962 0.186917 0.785419 -0.05681
C_ C_ 0.163763 0.226125 0.77989 -0.08735
C_ C_ 0.176379 0.257553 0.803365 -0.08735
C_ C_ 0.159211 0.24582 0.830776 0.1947
C_ C_ 0.265369 0.30915 0.660775 0.68181
C_ C_ 0.20948 0.312768 0.655404 -0.05681
C_ C_ 0.17521 0.317406 0.6789 -0.08735
C_ C_ 0.124304 0.323311 0.673698 -0.05681
C_ C_ 0.103064 0.316134 0.645626 -0.05681
C_ C_ 0.135643 0.31451 0.622033 -0.08735
C_ C_ 0.188301 0.312541 0.626616 -0.08735
C_ C_ 0.091205 0.330449 0.69702 -0.08735
C_ C_ 0.0381986 0.33126 0.692546 -0.08735
C_ C_ 0.0175662 0.324223 0.665054 -0.05681
C_ C_ 0.0506879 0.318122 0.641578 -0.08735
C_ C_ 0.373088 0.218775 0.666398 0.68181
C_ C_ 0.365236 0.416543 0.65482 0.68181
C_ C_ 0.374565 0.471743 0.654842 -0.05681
C_ C_ 0.372969 0.00313603 0.674791 -0.08735
C_ C_ 0.384137 0.0552045 0.671172 -0.05681
C_ C_ 0.368741 0.0803345 0.64475 -0.05681
C_ C_ 0.351518 0.050168 0.622041 -0.08735
C_ C_ 0.396218 0.495329 0.630122 -0.08735
C_ C_ 0.387428 0.0854842 0.694621 -0.08735
C_ C_ 0.37881 0.13682 0.6937 -0.08735
C_ C_ 0.372815 0.163051 0.667518 -0.05681
C_ C_ 0.364359 0.134503 0.643078 -0.08735
C_ C_ 0.462316 0.323655 0.658027 0.68181
C_ C_ 0.405866 0.37171 0.733937 0.1947
C_ C_ 0.413816 0.390562 0.762032 -0.08735
C_ C_ 0.393003 0.365633 0.784845 -0.08735
C_ C_ 0.359495 0.325584 0.7821 -0.05681
C_ C_ 0.350578 0.306232 0.753749 0.18498
C_ C_ 0.316224 0.26658 0.748666 -0.08735
C_ C_ 0.297078 0.239943 0.772057 -0.08735
C_ C_ 0.312903 0.253043 0.800038 -0.08735
C_ C_ 0.342593 0.297796 0.805647 0.18498
C_ C_ 0.311736 0.328284 0.852673 0.44287
C_ C_ 0.395039 0.29652 0.846524 0.44287
C_ C_ 0.405164 0.307011 0.875612 -0.05681
C_ C_ 0.453988 0.301113 0.887665 -0.08735
C_ C_ 0.463995 0.309106 0.917939 -0.08735
C_ C_ 0.42241 0.322523 0.935757 -0.05681
C_ C_ 0.374002 0.331172 0.924281 -0.05681
C_ C_ 0.364476 0.322476 0.894086 -0.05681
C_ C_ 0.316868 0.331831 0.88197 -0.05681
C_ C_ 0.276823 0.339062 0.900777 -0.08735
C_ C_ 0.285295 0.35133 0.929698 -0.08735
C_ C_ 0.334733 0.343827 0.942122 -0.05681
C_ C_ 0.342614 0.348624 0.971694 0.44287
C_ C_ 0.42837 0.329079 0.965594 0.44287
C_ C_ 0.395166 0.336896 0.515378 0.18498
C_ C_ 0.423269 0.381448 0.520835 -0.08735
C_ C_ 0.433366 0.396147 0.54928 -0.08735
C_ C_ 0.415774 0.368527 0.572956 -0.08735
C_ C_ 0.384981 0.326065 0.568549 0.18498
C_ C_ 0.375041 0.309606 0.539337 -0.05681
C_ C_ 0.345608 0.264015 0.535491 -0.08735
C_ C_ 0.327044 0.236567 0.558453 -0.08735
C_ C_ 0.332731 0.257855 0.586265 0.1947
N_ N_ 0.125645 0.171992 0.977813 -0.29468
N_ N_ 0.142377 0.196131 0.583812 -0.17154
N_ N_ 0.119813 0.169073 0.732136 -0.17154
N_ N_ 0.140233 0.199115 0.836653 -0.29468
N_ N_ 0.370719 0.332051 0.730566 -0.29468
N_ N_ 0.350464 0.311772 0.835036 -0.17154
N_ N_ 0.388863 0.339329 0.983379 -0.17154
N_ N_ 0.36056 0.300299 0.590528 -0.29468
O_ O_ 0.217801 0.180259 0.933347 -0.58347
O_ O_ 0.202231 0.199485 0.888227 -0.58347
O_ O_ 0.143011 0.257558 0.930754 -0.58347
O_ O_ 0.10531 0.25777 0.889323 -0.58347
O_ O_ 0.135961 0.107424 0.922707 -0.58347
O_ O_ 0.146214 0.109276 0.875628 -0.58347
O_ O_ 0.066353 0.17902 0.927128 -0.58347
O_ O_ 0.0529411 0.168775 0.880803 -0.58347
O_ O_ 0.0612948 0.226352 0.581495 -0.46727
O_ O_ 0.229066 0.187238 0.588813 -0.46727
O_ O_ 0.0446501 0.214488 0.728302 -0.46727
O_ O_ 0.197779 0.127284 0.73344 -0.46727
O_ O_ 0.281762 0.30998 0.686566 -0.58347
O_ O_ 0.296538 0.313565 0.640518 -0.58347
O_ O_ 0.360871 0.24555 0.688109 -0.58347
O_ O_ 0.377182 0.239495 0.642887 -0.58347
O_ O_ 0.357899 0.396806 0.679141 -0.58347
O_ O_ 0.364047 0.389277 0.632743 -0.58347
O_ O_ 0.434262 0.327236 0.679068 -0.58347
O_ O_ 0.445873 0.313967 0.634458 -0.58347
O_ O_ 0.431119 0.277802 0.829402 -0.46727
O_ O_ 0.268754 0.342867 0.840628 -0.46727
O_ O_ 0.472885 0.3216 0.977217 -0.46727
O_ O_ 0.311627 0.376203 0.987261 -0.46727
Zn Zn 0.129764 0.679008 0.381206 0.90689
Zn Zn 0.139815 0.677184 0.428408 0.90689
Zn Zn 0.384873 0.820685 0.130257 0.90689
Zn Zn 0.37741 0.825096 0.17816 0.90689
H_ H_ 0.30637 0.69856 0.443599 0.11455
H_ H_ 0.367223 0.666115 0.343939 0.11455
H_ H_ 0.280505 0.672453 0.351521 0.11455
H_ H_ 0.388803 0.708007 0.459107 0.11455
H_ H_ 0.483786 0.708292 0.449364 0.11455
H_ H_ 0.458348 0.666412 0.362571 0.11455
H_ H_ 0.123604 0.513797 0.438001 0.11455
H_ H_ 0.179907 0.928138 0.352876 0.11455
H_ H_ 0.159781 0.521213 0.348436 0.11455
H_ H_ 0.0852482 0.923338 0.459835 0.11455
H_ H_ 0.0917311 0.828805 0.455225 0.11455
H_ H_ 0.143799 0.846497 0.369534 0.11455
H_ H_ 0.0984686 0.59306 0.462258 0.11455
H_ H_ 0.0731052 0.567794 0.0162704 0.11455
H_ H_ 0.115183 0.614229 0.0556346 0.11455
H_ H_ 0.184829 0.747834 0.475375 0.11455
H_ H_ 0.226162 0.793141 0.0104702 0.11455
H_ H_ 0.212753 0.767511 0.0593171 0.11455
H_ H_ 0.0220603 0.70332 0.123295 0.11455
H_ H_ 0.0126608 0.696853 0.173269 0.11455
H_ H_ 0.270714 0.66252 0.138376 0.11455
H_ H_ 0.258914 0.643463 0.186779 0.11455
H_ H_ 0.0551227 0.60116 0.250066 0.11455
H_ H_ 0.0414033 0.575192 0.300036 0.11455
H_ H_ 0.0754662 0.62344 0.339415 0.11455
H_ H_ 0.173323 0.742676 0.257201 0.11455
H_ H_ 0.204658 0.78864 0.298752 0.11455
H_ H_ 0.190619 0.754939 0.348882 0.11455
H_ H_ 0.206943 0.793472 0.194082 0.11455
H_ H_ 0.140425 0.835172 0.0952874 0.11455
H_ H_ 0.228471 0.823797 0.100904 0.11455
H_ H_ 0.117513 0.798164 0.210547 0.11455
H_ H_ 0.0264051 0.810012 0.202721 0.11455
H_ H_ 0.0556978 0.824755 0.111861 0.11455
H_ H_ 0.368589 0.988908 0.196026 0.11455
H_ H_ 0.371265 0.566834 0.100838 0.11455
H_ H_ 0.383427 0.979771 0.10426 0.11455
H_ H_ 0.384212 0.577716 0.219099 0.11455
H_ H_ 0.38578 0.668495 0.211755 0.11455
H_ H_ 0.376018 0.651486 0.121586 0.11455
H_ H_ 0.409912 0.913587 0.212702 0.11455
H_ H_ 0.437611 0.937327 0.261987 0.11455
H_ H_ 0.411981 0.883714 0.303304 0.11455
H_ H_ 0.325458 0.757914 0.221151 0.11455
H_ H_ 0.28873 0.713444 0.260871 0.11455
H_ H_ 0.303233 0.735188 0.30869 0.11455
H_ H_ 0.49525 0.819702 0.373865 0.11455
H_ H_ 0.501282 0.808745 0.427926 0.11455
H_ H_ 0.246051 0.850447 0.381857 0.11455
H_ H_ 0.245885 0.843944 0.433706 0.11455
H_ H_ 0.411173 0.920693 0.500856 0.11455
H_ H_ 0.489625 0.917982 0.0472631 0.11455
H_ H_ 0.453441 0.869463 0.0852189 0.11455
H_ H_ 0.356666 0.755021 0.00338589 0.11455
H_ H_ 0.3106 0.716664 0.0449537 0.11455
H_ H_ 0.329478 0.74346 0.0927618 0.11455
C_ C_ 0.230479 0.690759 0.403957 0.68181
C_ C_ 0.284855 0.684872 0.398604 -0.05681
C_ C_ 0.319825 0.692205 0.421505 -0.08735
C_ C_ 0.37142 0.689278 0.415983 -0.05681
C_ C_ 0.390844 0.679823 0.388445 -0.05681
C_ C_ 0.355602 0.666773 0.366496 -0.08735
C_ C_ 0.304223 0.675904 0.370572 -0.08735
C_ C_ 0.405821 0.699265 0.437513 -0.08735
C_ C_ 0.45781 0.692848 0.433361 -0.08735
C_ C_ 0.476059 0.676165 0.406829 -0.05681
C_ C_ 0.443167 0.669305 0.383833 -0.08735
C_ C_ 0.118889 0.775927 0.41053 0.68181
C_ C_ 0.148577 0.581833 0.397439 0.68181
C_ C_ 0.145924 0.525353 0.39453 -0.05681
C_ C_ 0.128228 0.99104 0.421662 -0.08735
C_ C_ 0.124031 0.938435 0.418766 -0.05681
C_ C_ 0.146259 0.916827 0.394134 -0.05681
C_ C_ 0.167453 0.946551 0.372686 -0.08735
C_ C_ 0.172479 0.999863 0.375242 -0.08735
C_ C_ 0.102337 0.90812 0.440606 -0.08735
C_ C_ 0.103764 0.854759 0.43799 -0.08735
C_ C_ 0.116967 0.833195 0.410994 -0.05681
C_ C_ 0.138604 0.863905 0.390363 -0.08735
C_ C_ 0.0336809 0.669979 0.406751 0.68181
C_ C_ 0.106068 0.620608 0.479426 0.1947
C_ C_ 0.0956221 0.601952 0.0106573 -0.08735
C_ C_ 0.121294 0.625276 0.033902 -0.08735
C_ C_ 0.149603 0.67005 0.0281461 -0.05681
C_ C_ 0.155352 0.686853 0.998485 0.18498
C_ C_ 0.167315 0.741631 0.495217 -0.08735
C_ C_ 0.209557 0.756381 0.0148953 -0.08735
C_ C_ 0.200942 0.741577 0.0435333 -0.08735
C_ C_ 0.168852 0.701257 0.0510396 0.18498
C_ C_ 0.200925 0.678422 0.0981198 0.44287
C_ C_ 0.11485 0.700343 0.0929895 0.44287
C_ C_ 0.104558 0.691613 0.122602 -0.05681
C_ C_ 0.0550168 0.697114 0.135091 -0.08735
C_ C_ 0.0481744 0.687829 0.163064 -0.08735
C_ C_ 0.0872858 0.678993 0.182044 -0.05681
C_ C_ 0.137783 0.672279 0.169752 -0.05681
C_ C_ 0.145372 0.677059 0.139697 -0.05681
C_ C_ 0.193392 0.671753 0.12756 -0.05681
C_ C_ 0.232389 0.662162 0.145823 -0.08735
C_ C_ 0.225508 0.654332 0.175377 -0.08735
C_ C_ 0.178345 0.660641 0.187782 -0.05681
C_ C_ 0.169835 0.657378 0.217271 0.44287
C_ C_ 0.0819641 0.68174 0.212459 0.44287
C_ C_ 0.113089 0.658866 0.26047 0.18498
C_ C_ 0.0806863 0.617909 0.267033 -0.08735
C_ C_ 0.0677977 0.605708 0.296109 -0.08735
C_ C_ 0.0903048 0.631821 0.318168 -0.08735
C_ C_ 0.117478 0.67498 0.312964 0.18498
C_ C_ 0.134399 0.686769 0.284387 -0.05681
C_ C_ 0.165975 0.728813 0.279663 -0.08735
C_ C_ 0.190863 0.752311 0.302146 -0.08735
C_ C_ 0.173595 0.738023 0.331068 0.1947
C_ C_ 0.28156 0.812745 0.15274 0.68181
C_ C_ 0.22523 0.806706 0.147898 -0.05681
C_ C_ 0.19298 0.79518 0.171222 -0.08735
C_ C_ 0.139154 0.799324 0.166285 -0.05681
C_ C_ 0.120803 0.812294 0.138654 -0.05681
C_ C_ 0.154072 0.819043 0.115068 -0.08735
C_ C_ 0.204215 0.813398 0.119649 -0.08735
C_ C_ 0.10385 0.802118 0.190153 -0.08735
C_ C_ 0.052663 0.814353 0.185253 -0.08735
C_ C_ 0.03408 0.821963 0.156956 -0.05681
C_ C_ 0.0685016 0.819832 0.133264 -0.08735
C_ C_ 0.382968 0.723729 0.162261 0.68181
C_ C_ 0.368017 0.920792 0.148095 0.68181
C_ C_ 0.37486 0.977018 0.148864 -0.05681
C_ C_ 0.370996 0.506712 0.176435 -0.08735
C_ C_ 0.370711 0.56038 0.173125 -0.05681
C_ C_ 0.373538 0.581165 0.146119 -0.05681
C_ C_ 0.372968 0.550863 0.121947 -0.08735
C_ C_ 0.382968 0.0034385 0.123174 -0.08735
C_ C_ 0.382487 0.591869 0.197167 -0.08735
C_ C_ 0.381116 0.643962 0.192514 -0.08735
C_ C_ 0.379344 0.666683 0.165878 -0.05681
C_ C_ 0.375348 0.634966 0.142245 -0.08735
C_ C_ 0.478194 0.831171 0.155891 0.68181
C_ C_ 0.408676 0.885621 0.229228 0.1947
C_ C_ 0.422567 0.900082 0.257154 -0.08735
C_ C_ 0.402586 0.873137 0.280946 -0.08735
C_ C_ 0.372701 0.831069 0.277076 -0.05681
C_ C_ 0.363286 0.8144 0.247965 0.18498
C_ C_ 0.335924 0.768804 0.242995 -0.08735
C_ C_ 0.31623 0.740499 0.265315 -0.08735
C_ C_ 0.323332 0.757298 0.29258 -0.08735
C_ C_ 0.353105 0.80026 0.30046 0.18498
C_ C_ 0.31932 0.824967 0.346623 0.44287
C_ C_ 0.40783 0.80656 0.342988 0.44287
C_ C_ 0.411211 0.812657 0.373347 -0.05681
C_ C_ 0.460817 0.814271 0.387092 -0.08735
C_ C_ 0.46355 0.814832 0.416886 -0.08735
C_ C_ 0.419234 0.821569 0.433779 -0.05681
C_ C_ 0.371811 0.825818 0.420414 -0.05681
C_ C_ 0.367641 0.817659 0.390288 -0.05681
C_ C_ 0.320036 0.821029 0.376478 -0.05681
C_ C_ 0.278056 0.833936 0.392591 -0.08735
C_ C_ 0.28055 0.834701 0.421809 -0.08735
C_ C_ 0.326368 0.833144 0.43684 -0.05681
C_ C_ 0.331294 0.837827 0.466637 0.44287
C_ C_ 0.420485 0.822323 0.463716 0.44287
C_ C_ 0.406513 0.845771 0.00758661 0.18498
C_ C_ 0.443165 0.882737 0.0143322 -0.08735
C_ C_ 0.459404 0.89305 0.0423219 -0.08735
C_ C_ 0.43697 0.866037 0.0649158 -0.08735
C_ C_ 0.402079 0.827979 0.059168 0.18498
C_ C_ 0.391395 0.812105 0.0295914 -0.05681
C_ C_ 0.362399 0.76886 0.0246141 -0.08735
C_ C_ 0.34294 0.742906 0.0474717 -0.08735
C_ C_ 0.352857 0.759485 0.0755407 0.1947
N_ N_ 0.129483 0.664964 0.475701 -0.29468
N_ N_ 0.161431 0.690755 0.0814507 -0.17154
N_ N_ 0.122194 0.668944 0.2292 -0.17154
N_ N_ 0.14125 0.696907 0.33522 -0.29468
N_ N_ 0.380137 0.843121 0.224591 -0.29468
N_ N_ 0.360142 0.812516 0.330701 -0.17154
N_ N_ 0.379036 0.831671 0.479598 -0.17154
N_ N_ 0.379553 0.803275 0.0812556 -0.29468
O_ O_ 0.213891 0.691934 0.429019 -0.58347
O_ O_ 0.201894 0.684188 0.382476 -0.58347
O_ O_ 0.119561 0.750688 0.434609 -0.58347
O_ O_ 0.127974 0.751507 0.386812 -0.58347
O_ O_ 0.158487 0.602562 0.42098 -0.58347
O_ O_ 0.136061 0.607328 0.375429 -0.58347
O_ O_ 0.0638108 0.663356 0.427657 -0.58347
O_ O_ 0.0533661 0.675489 0.382261 -0.58347
O_ O_ 0.0773894 0.71771 0.0766613 -0.46727
O_ O_ 0.247647 0.672692 0.0865224 -0.46727
O_ O_ 0.0357283 0.687361 0.224007 -0.46727
O_ O_ 0.209471 0.66065 0.235557 -0.46727
O_ O_ 0.300494 0.811193 0.177363 -0.58347
O_ O_ 0.310126 0.81727 0.131253 -0.58347
O_ O_ 0.39127 0.751435 0.184148 -0.58347
O_ O_ 0.384195 0.742048 0.137153 -0.58347
O_ O_ 0.353221 0.898701 0.169653 -0.58347
O_ O_ 0.385391 0.894806 0.126541 -0.58347
O_ O_ 0.450074 0.840975 0.176677 -0.58347
O_ O_ 0.459993 0.823286 0.130461 -0.58347
O_ O_ 0.448295 0.795145 0.326169 -0.46727
O_ O_ 0.276558 0.834116 0.333689 -0.46727
O_ O_ 0.463161 0.822326 0.475849 -0.46727
O_ O_ 0.292848 0.850582 0.482915 -0.46727
Zn Zn 0.110171 0.68729 0.880947 0.90689
Zn Zn 0.12394 0.677521 0.930619 0.90689
Zn Zn 0.35563 0.814339 0.633509 0.90689
Zn Zn 0.345521 0.820658 0.680659 0.90689
H_ H_ 0.288215 0.701238 0.939603 0.11455
H_ H_ 0.356025 0.67943 0.842866 0.11455
H_ H_ 0.264849 0.662856 0.853787 0.11455
H_ H_ 0.374791 0.688587 0.960599 0.11455
H_ H_ 0.467052 0.689326 0.953784 0.11455
H_ H_ 0.444031 0.691434 0.861633 0.11455
H_ H_ 0.131049 0.51429 0.939056 0.11455
H_ H_ 0.151667 0.928627 0.850337 0.11455
H_ H_ 0.120231 0.523978 0.846607 0.11455
H_ H_ 0.104667 0.937017 0.964763 0.11455
H_ H_ 0.101607 0.839871 0.962552 0.11455
H_ H_ 0.143739 0.851717 0.874123 0.11455
H_ H_ 0.0817817 0.602188 0.964193 0.11455
H_ H_ 0.0747869 0.567163 0.509851 0.11455
H_ H_ 0.0933981 0.622699 0.552595 0.11455
H_ H_ 0.193583 0.733123 0.969708 0.11455
H_ H_ 0.201374 0.80501 0.517408 0.11455
H_ H_ 0.17539 0.784385 0.563534 0.11455
H_ H_ 0.991175 0.691986 0.618947 0.11455
H_ H_ 0.980201 0.694487 0.672096 0.11455
H_ H_ 0.243354 0.68772 0.637771 0.11455
H_ H_ 0.228812 0.672624 0.688845 0.11455
H_ H_ 0.049988 0.585478 0.750385 0.11455
H_ H_ 0.0228708 0.567079 0.799006 0.11455
H_ H_ 0.0491287 0.626611 0.838736 0.11455
H_ H_ 0.146489 0.740727 0.755189 0.11455
H_ H_ 0.167836 0.796959 0.794272 0.11455
H_ H_ 0.156235 0.768062 0.84751 0.11455
H_ H_ 0.182522 0.80499 0.69392 0.11455
H_ H_ 0.117478 0.823045 0.594096 0.11455
H_ H_ 0.201493 0.809781 0.60459 0.11455
H_ H_ 0.0924194 0.803746 0.71285 0.11455
H_ H_ 0.00622898 0.794081 0.704651 0.11455
H_ H_ 0.0253354 0.819791 0.614728 0.11455
H_ H_ 0.386239 0.980715 0.692835 0.11455
H_ H_ 0.413076 0.564984 0.606689 0.11455
H_ H_ 0.321827 0.978297 0.609347 0.11455
H_ H_ 0.327328 0.568741 0.715442 0.11455
H_ H_ 0.324294 0.662646 0.708906 0.11455
H_ H_ 0.393385 0.646925 0.624906 0.11455
H_ H_ 0.407637 0.889453 0.71647 0.11455
H_ H_ 0.422521 0.915472 0.767903 0.11455
H_ H_ 0.369757 0.875405 0.806278 0.11455
H_ H_ 0.264225 0.777742 0.722756 0.11455
H_ H_ 0.232873 0.723193 0.761425 0.11455
H_ H_ 0.265376 0.72988 0.809563 0.11455
H_ H_ 0.475182 0.812634 0.86148 0.11455
H_ H_ 0.50001 0.817582 0.912795 0.11455
H_ H_ 0.228319 0.830364 0.896245 0.11455
H_ H_ 0.249979 0.850382 0.942641 0.11455
H_ H_ 0.452304 0.91038 0.999344 0.11455
H_ H_ 0.442073 0.937529 0.552022 0.11455
H_ H_ 0.421265 0.875334 0.587827 0.11455
H_ H_ 0.336601 0.753412 0.506702 0.11455
H_ H_ 0.310177 0.700022 0.54773 0.11455
H_ H_ 0.317447 0.735292 0.598343 0.11455
C_ C_ 0.212921 0.681131 0.899417 0.68181
C_ C_ 0.268933 0.685705 0.895286 -0.05681
C_ C_ 0.303155 0.686691 0.919987 -0.08735
C_ C_ 0.354692 0.685007 0.916047 -0.05681
C_ C_ 0.374336 0.690906 0.887349 -0.05681
C_ C_ 0.340977 0.684675 0.863964 -0.08735
C_ C_ 0.289813 0.674325 0.869603 -0.08735
C_ C_ 0.387777 0.689246 0.938774 -0.08735
C_ C_ 0.441628 0.692679 0.934705 -0.08735
C_ C_ 0.461872 0.693343 0.906335 -0.05681
C_ C_ 0.42688 0.692405 0.88249 -0.08735
C_ C_ 0.11638 0.781072 0.914735 0.68181
C_ C_ 0.119167 0.583578 0.895957 0.68181
C_ C_ 0.121454 0.52708 0.892865 -0.05681
C_ C_ 0.129784 0.999375 0.922928 -0.08735
C_ C_ 0.123168 0.945996 0.92052 -0.05681
C_ C_ 0.129581 0.922172 0.894522 -0.05681
C_ C_ 0.145983 0.948743 0.870666 -0.08735
C_ C_ 0.153221 0.00122416 0.87308 -0.08735
C_ C_ 0.112459 0.917817 0.945299 -0.08735
C_ C_ 0.110434 0.863609 0.943898 -0.08735
C_ C_ 0.116383 0.839233 0.917537 -0.05681
C_ C_ 0.131572 0.869086 0.893943 -0.08735
C_ C_ 0.0151788 0.67852 0.910292 0.68181
C_ C_ 0.100706 0.621006 0.982772 0.1947
C_ C_ 0.0931961 0.603911 0.507647 -0.08735
C_ C_ 0.102453 0.636163 0.531391 -0.08735
C_ C_ 0.125999 0.682952 0.527796 -0.05681
C_ C_ 0.138662 0.697157 0.499381 0.18498
C_ C_ 0.184211 0.72765 0.992206 -0.08735
C_ C_ 0.180868 0.771978 0.519292 -0.08735
C_ C_ 0.162591 0.761144 0.546484 -0.08735
C_ C_ 0.135504 0.71521 0.551449 0.18498
C_ C_ 0.166783 0.685626 0.59826 0.44287
C_ C_ 0.0788372 0.701781 0.592431 0.44287
C_ C_ 0.0711673 0.690021 0.622653 -0.05681
C_ C_ 0.0229811 0.692786 0.633833 -0.08735
C_ C_ 0.0165067 0.685532 0.663587 -0.08735
C_ C_ 0.0590978 0.681553 0.681554 -0.05681
C_ C_ 0.107473 0.677703 0.669397 -0.05681
C_ C_ 0.113747 0.683971 0.639916 -0.05681
C_ C_ 0.161707 0.679218 0.628285 -0.05681
C_ C_ 0.203329 0.678812 0.646937 -0.08735
C_ C_ 0.198371 0.671237 0.675572 -0.08735
C_ C_ 0.149056 0.669049 0.687257 -0.05681
C_ C_ 0.141512 0.663331 0.717316 0.44287
C_ C_ 0.0548658 0.679947 0.711443 0.44287
C_ C_ 0.0872512 0.656747 0.759127 0.18498
C_ C_ 0.0652996 0.608994 0.766967 -0.08735
C_ C_ 0.0459978 0.601033 0.79395 -0.08735
C_ C_ 0.060171 0.633998 0.816944 -0.08735
C_ C_ 0.0905751 0.676562 0.811079 0.18498
C_ C_ 0.100946 0.689183 0.781205 -0.05681
C_ C_ 0.12965 0.734967 0.776118 -0.08735
C_ C_ 0.150742 0.761102 0.799379 -0.08735
C_ C_ 0.141392 0.744561 0.827862 0.1947
C_ C_ 0.253344 0.813114 0.654542 0.68181
C_ C_ 0.198397 0.812279 0.649387 -0.05681
C_ C_ 0.167335 0.810868 0.67262 -0.08735
C_ C_ 0.116381 0.810769 0.668301 -0.05681
C_ C_ 0.0964282 0.815699 0.639252 -0.05681
C_ C_ 0.129922 0.823248 0.616572 -0.08735
C_ C_ 0.180086 0.818459 0.622002 -0.08735
C_ C_ 0.0810143 0.806507 0.691645 -0.08735
C_ C_ 0.0300294 0.805653 0.687196 -0.08735
C_ C_ 0.00915978 0.809585 0.660099 -0.05681
C_ C_ 0.0406901 0.81615 0.635927 -0.08735
C_ C_ 0.359985 0.717317 0.664748 0.68181
C_ C_ 0.352324 0.917246 0.652657 0.68181
C_ C_ 0.353281 0.97312 0.651261 -0.05681
C_ C_ 0.36253 0.502826 0.678222 -0.08735
C_ C_ 0.367611 0.555867 0.676264 -0.05681
C_ C_ 0.378468 0.577723 0.648902 -0.05681
C_ C_ 0.399959 0.548315 0.627551 -0.08735
C_ C_ 0.339272 0.999785 0.626434 -0.08735
C_ C_ 0.346372 0.585721 0.697095 -0.08735
C_ C_ 0.342655 0.638841 0.693427 -0.08735
C_ C_ 0.357962 0.660802 0.667103 -0.05681
C_ C_ 0.377364 0.629743 0.645084 -0.08735
C_ C_ 0.451132 0.818267 0.659722 0.68181
C_ C_ 0.384736 0.871425 0.733478 0.1947
C_ C_ 0.389692 0.889271 0.761996 -0.08735
C_ C_ 0.367153 0.861866 0.783513 -0.08735
C_ C_ 0.340442 0.817906 0.777318 -0.05681
C_ C_ 0.328729 0.805603 0.748002 0.18498
C_ C_ 0.287359 0.772582 0.741598 -0.08735
C_ C_ 0.267613 0.743415 0.763772 -0.08735
C_ C_ 0.286531 0.748114 0.792674 -0.08735
C_ C_ 0.320375 0.789028 0.800651 0.18498
C_ C_ 0.297042 0.81422 0.848286 0.44287
C_ C_ 0.384345 0.796677 0.839817 0.44287
C_ C_ 0.397677 0.812626 0.867925 -0.05681
C_ C_ 0.448213 0.817043 0.876689 -0.08735
C_ C_ 0.459728 0.818398 0.906368 -0.08735
C_ C_ 0.420505 0.82055 0.927487 -0.05681
C_ C_ 0.370145 0.824567 0.918024 -0.05681
C_ C_ 0.358448 0.81573 0.888538 -0.05681
C_ C_ 0.307417 0.820127 0.878767 -0.05681
C_ C_ 0.268881 0.833769 0.89941 -0.08735
C_ C_ 0.281581 0.837259 0.929379 -0.08735
C_ C_ 0.332833 0.835138 0.938608 -0.05681
C_ C_ 0.345239 0.840525 0.96764 0.44287
C_ C_ 0.431798 0.82448 0.957697 0.44287
C_ C_ 0.385599 0.845273 0.5102 0.18498
C_ C_ 0.405158 0.893661 0.517721 -0.08735
C_ C_ 0.421458 0.901794 0.546244 -0.08735
C_ C_ 0.409327 0.866081 0.567232 -0.08735
C_ C_ 0.376729 0.827718 0.561352 0.18498
C_ C_ 0.367716 0.811964 0.533081 -0.05681
C_ C_ 0.342364 0.7661 0.52837 -0.08735
C_ C_ 0.32279 0.739133 0.550642 -0.08735
C_ C_ 0.331663 0.757438 0.579292 0.1947
N_ N_ 0.13117 0.661079 0.976308 -0.29468
N_ N_ 0.126525 0.69844 0.581136 -0.17154
N_ N_ 0.094296 0.667792 0.728792 -0.17154
N_ N_ 0.110434 0.703333 0.833465 -0.29468
N_ N_ 0.348067 0.83651 0.726919 -0.29468
N_ N_ 0.33356 0.798543 0.830455 -0.17154
N_ N_ 0.39462 0.835445 0.977273 -0.17154
N_ N_ 0.356971 0.80118 0.584123 -0.29468
O_ O_ 0.195994 0.681817 0.925078 -0.58347
O_ O_ 0.185546 0.692185 0.878258 -0.58347
O_ O_ 0.125312 0.754954 0.937145 -0.58347
O_ O_ 0.113694 0.760974 0.890762 -0.58347
O_ O_ 0.117093 0.605274 0.920109 -0.58347
O_ O_ 0.12033 0.610488 0.873981 -0.58347
O_ O_ 0.0444913 0.673097 0.931571 -0.58347
O_ O_ 0.0366455 0.684394 0.886521 -0.58347
O_ O_ 0.0394976 0.705168 0.574377 -0.46727
O_ O_ 0.21207 0.681398 0.585898 -0.46727
O_ O_ 0.0101506 0.681797 0.723719 -0.46727
O_ O_ 0.17909 0.658271 0.735357 -0.46727
O_ O_ 0.271624 0.829515 0.67851 -0.58347
O_ O_ 0.282616 0.800345 0.634371 -0.58347
O_ O_ 0.338996 0.74326 0.684486 -0.58347
O_ O_ 0.367403 0.738457 0.64035 -0.58347
O_ O_ 0.355383 0.896285 0.676932 -0.58347
O_ O_ 0.34594 0.889557 0.630232 -0.58347
O_ O_ 0.420717 0.81241 0.680796 -0.58347
O_ O_ 0.431833 0.825568 0.635737 -0.58347
O_ O_ 0.41898 0.783656 0.821939 -0.46727
O_ O_ 0.251601 0.823712 0.838375 -0.46727
O_ O_ 0.476361 0.814142 0.966524 -0.46727
O_ O_ 0.308961 0.85132 0.986817 -0.46727
Zn Zn 0.633267 0.179026 0.380551 0.90689
Zn Zn 0.640824 0.17315 0.427602 0.90689
Zn Zn 0.877377 0.310922 0.134044 0.90689
Zn Zn 0.866417 0.319966 0.182017 0.90689
H_ H_ 0.806582 0.201331 0.436789 0.11455
H_ H_ 0.880535 0.138198 0.34678 0.11455
H_ H_ 0.789149 0.157255 0.352359 0.11455
H_ H_ 0.892004 0.192707 0.461171 0.11455
H_ H_ 0.985308 0.203644 0.453244 0.11455
H_ H_ 0.968195 0.141002 0.368605 0.11455
H_ H_ 0.632322 0.00585134 0.441194 0.11455
H_ H_ 0.668884 0.427095 0.345174 0.11455
H_ H_ 0.60288 0.0190675 0.352214 0.11455
H_ H_ 0.647722 0.426498 0.462675 0.11455
H_ H_ 0.630163 0.33572 0.459186 0.11455
H_ H_ 0.641501 0.347376 0.36715 0.11455
H_ H_ 0.587725 0.0947115 0.464244 0.11455
H_ H_ 0.589378 0.075371 0.0131827 0.11455
H_ H_ 0.630895 0.120173 0.0522003 0.11455
H_ H_ 0.705413 0.227001 0.472226 0.11455
H_ H_ 0.732646 0.303209 0.00827006 0.11455
H_ H_ 0.708104 0.286419 0.0589953 0.11455
H_ H_ 0.511823 0.204348 0.121983 0.11455
H_ H_ 0.502723 0.20457 0.171453 0.11455
H_ H_ 0.764883 0.185456 0.138671 0.11455
H_ H_ 0.756013 0.186377 0.188871 0.11455
H_ H_ 0.568211 0.0886795 0.247762 0.11455
H_ H_ 0.538593 0.0704956 0.296018 0.11455
H_ H_ 0.572782 0.117925 0.336886 0.11455
H_ H_ 0.65891 0.250161 0.257492 0.11455
H_ H_ 0.696805 0.287913 0.298242 0.11455
H_ H_ 0.691157 0.25133 0.345458 0.11455
H_ H_ 0.701947 0.307821 0.198531 0.11455
H_ H_ 0.632232 0.342436 0.102673 0.11455
H_ H_ 0.724694 0.33576 0.108333 0.11455
H_ H_ 0.615086 0.297999 0.216552 0.11455
H_ H_ 0.521877 0.304728 0.210799 0.11455
H_ H_ 0.546604 0.342236 0.12058 0.11455
H_ H_ 0.840686 0.490754 0.184301 0.11455
H_ H_ 0.866703 0.0647488 0.101084 0.11455
H_ H_ 0.900838 0.469361 0.101877 0.11455
H_ H_ 0.8904 0.0673057 0.21936 0.11455
H_ H_ 0.884098 0.160811 0.215493 0.11455
H_ H_ 0.861171 0.148791 0.124823 0.11455
H_ H_ 0.919102 0.39758 0.215874 0.11455
H_ H_ 0.926717 0.429528 0.264292 0.11455
H_ H_ 0.900804 0.377963 0.304781 0.11455
H_ H_ 0.795278 0.267091 0.224868 0.11455
H_ H_ 0.764696 0.215462 0.265231 0.11455
H_ H_ 0.802392 0.221324 0.3125 0.11455
H_ H_ 0.991354 0.269276 0.376228 0.11455
H_ H_ 0.00214904 0.289419 0.427041 0.11455
H_ H_ 0.74743 0.324707 0.386294 0.11455
H_ H_ 0.755318 0.330144 0.438905 0.11455
H_ H_ 0.933207 0.407346 0.498787 0.11455
H_ H_ 0.991305 0.408252 0.0496869 0.11455
H_ H_ 0.946549 0.369156 0.0896068 0.11455
H_ H_ 0.841131 0.255572 0.00950737 0.11455
H_ H_ 0.803915 0.212654 0.051817 0.11455
H_ H_ 0.822833 0.246939 0.0992772 0.11455
C_ C_ 0.734775 0.177638 0.399183 0.68181
C_ C_ 0.791193 0.17852 0.3956 -0.05681
C_ C_ 0.823075 0.187245 0.417996 -0.08735
C_ C_ 0.877849 0.179126 0.415762 -0.05681
C_ C_ 0.89927 0.164242 0.388589 -0.05681
C_ C_ 0.866578 0.15848 0.365538 -0.08735
C_ C_ 0.8134 0.165035 0.368666 -0.08735
C_ C_ 0.908521 0.188846 0.439926 -0.08735
C_ C_ 0.961464 0.184307 0.43669 -0.08735
C_ C_ 0.983143 0.16904 0.410652 -0.05681
C_ C_ 0.952016 0.154265 0.387732 -0.08735
C_ C_ 0.639297 0.277877 0.410724 0.68181
C_ C_ 0.631937 0.0782136 0.397906 0.68181
C_ C_ 0.62793 0.0197897 0.395077 -0.05681
C_ C_ 0.64871 0.491888 0.419092 -0.08735
C_ C_ 0.647672 0.438626 0.416858 -0.05681
C_ C_ 0.650886 0.417054 0.389248 -0.05681
C_ C_ 0.656933 0.446529 0.364466 -0.08735
C_ C_ 0.662243 0.499683 0.367219 -0.08735
C_ C_ 0.644257 0.410413 0.442117 -0.08735
C_ C_ 0.640362 0.358905 0.439371 -0.08735
C_ C_ 0.639935 0.333549 0.412486 -0.05681
C_ C_ 0.644904 0.363591 0.387738 -0.08735
C_ C_ 0.537379 0.177183 0.40702 0.68181
C_ C_ 0.601529 0.117679 0.481815 0.1947
C_ C_ 0.604124 0.112454 0.0101395 -0.08735
C_ C_ 0.631887 0.135038 0.0312536 -0.08735
C_ C_ 0.650819 0.184389 0.0273152 -0.05681
C_ C_ 0.658053 0.1994 0.998416 0.18498
C_ C_ 0.685916 0.226725 0.492524 -0.08735
C_ C_ 0.704365 0.273359 0.0137989 -0.08735
C_ C_ 0.690716 0.264245 0.0419743 -0.08735
C_ C_ 0.663797 0.219228 0.0505586 0.18498
C_ C_ 0.692536 0.198758 0.0977224 0.44287
C_ C_ 0.604772 0.21302 0.0930313 0.44287
C_ C_ 0.59537 0.204145 0.123503 -0.05681
C_ C_ 0.545189 0.196722 0.13431 -0.08735
C_ C_ 0.538169 0.194217 0.163317 -0.08735
C_ C_ 0.580321 0.188295 0.181587 -0.05681
C_ C_ 0.629754 0.18851 0.170599 -0.05681
C_ C_ 0.63693 0.199104 0.140128 -0.05681
C_ C_ 0.68589 0.195214 0.127698 -0.05681
C_ C_ 0.727346 0.183457 0.146701 -0.08735
C_ C_ 0.721541 0.185389 0.175825 -0.08735
C_ C_ 0.670881 0.186523 0.188336 -0.05681
C_ C_ 0.664497 0.175197 0.217749 0.44287
C_ C_ 0.575538 0.182988 0.21196 0.44287
C_ C_ 0.604884 0.159235 0.258819 0.18498
C_ C_ 0.581701 0.112256 0.265317 -0.08735
C_ C_ 0.560544 0.103684 0.292084 -0.08735
C_ C_ 0.576983 0.132679 0.315151 -0.08735
C_ C_ 0.611202 0.173441 0.310628 0.18498
C_ C_ 0.622614 0.189947 0.282083 -0.05681
C_ C_ 0.653391 0.232429 0.278505 -0.08735
C_ C_ 0.675543 0.255553 0.301414 -0.08735
C_ C_ 0.667264 0.23794 0.328511 0.1947
C_ C_ 0.77244 0.314353 0.158413 0.68181
C_ C_ 0.719791 0.319817 0.154593 -0.05681
C_ C_ 0.686571 0.314014 0.178002 -0.08735
C_ C_ 0.632508 0.318589 0.17354 -0.05681
C_ C_ 0.613833 0.32776 0.146789 -0.05681
C_ C_ 0.649098 0.337878 0.124181 -0.08735
C_ C_ 0.699795 0.327138 0.126824 -0.08735
C_ C_ 0.600671 0.313765 0.196868 -0.08735
C_ C_ 0.546982 0.315695 0.192459 -0.08735
C_ C_ 0.527274 0.322796 0.164305 -0.05681
C_ C_ 0.561361 0.333275 0.141787 -0.08735
C_ C_ 0.87485 0.215556 0.165378 0.68181
C_ C_ 0.861914 0.417071 0.148826 0.68181
C_ C_ 0.871918 0.473585 0.144718 -0.05681
C_ C_ 0.862082 0.00192396 0.175817 -0.08735
C_ C_ 0.870348 0.0548569 0.174273 -0.05681
C_ C_ 0.863384 0.0784653 0.147519 -0.05681
C_ C_ 0.863917 0.0487677 0.122148 -0.08735
C_ C_ 0.892958 0.493484 0.119271 -0.08735
C_ C_ 0.881032 0.0844833 0.198524 -0.08735
C_ C_ 0.883948 0.136815 0.195905 -0.08735
C_ C_ 0.877657 0.161146 0.169191 -0.05681
C_ C_ 0.86505 0.131923 0.145202 -0.08735
C_ C_ 0.9702 0.324118 0.158623 0.68181
C_ C_ 0.905618 0.37393 0.233534 0.1947
C_ C_ 0.909989 0.392938 0.261141 -0.08735
C_ C_ 0.899249 0.360892 0.283859 -0.08735
C_ C_ 0.86909 0.317524 0.279168 -0.05681
C_ C_ 0.852642 0.306471 0.250817 0.18498
C_ C_ 0.811309 0.273425 0.246456 -0.08735
C_ C_ 0.793795 0.243104 0.268505 -0.08735
C_ C_ 0.812995 0.249179 0.295899 -0.08735
C_ C_ 0.849758 0.285824 0.30265 0.18498
C_ C_ 0.821921 0.313703 0.34792 0.44287
C_ C_ 0.905868 0.287875 0.34312 0.44287
C_ C_ 0.915351 0.297462 0.373315 -0.05681
C_ C_ 0.962507 0.291103 0.386858 -0.08735
C_ C_ 0.970156 0.305438 0.415911 -0.08735
C_ C_ 0.927962 0.314206 0.434131 -0.05681
C_ C_ 0.878908 0.312682 0.421551 -0.05681
C_ C_ 0.874106 0.309886 0.390491 -0.05681
C_ C_ 0.826384 0.317864 0.37871 -0.05681
C_ C_ 0.784018 0.323136 0.396484 -0.08735
C_ C_ 0.788733 0.32337 0.426081 -0.08735
C_ C_ 0.836767 0.320999 0.438985 -0.05681
C_ C_ 0.843522 0.334835 0.46767 0.44287
C_ C_ 0.930423 0.316103 0.463536 0.44287
C_ C_ 0.915934 0.327405 0.0109859 0.18498
C_ C_ 0.952042 0.365185 0.0172481 -0.08735
C_ C_ 0.963057 0.380946 0.0449212 -0.08735
C_ C_ 0.939095 0.356482 0.0681209 -0.08735
C_ C_ 0.901655 0.321101 0.0626195 0.18498
C_ C_ 0.887307 0.307817 0.0344679 -0.05681
C_ C_ 0.850231 0.270633 0.0302223 -0.08735
C_ C_ 0.830904 0.244981 0.0537057 -0.08735
C_ C_ 0.841999 0.263391 0.0809598 0.1947
N_ N_ 0.631812 0.158565 0.476316 -0.29468
N_ N_ 0.652303 0.210019 0.0810771 -0.17154
N_ N_ 0.616913 0.171449 0.2287 -0.17154
N_ N_ 0.634782 0.197979 0.333178 -0.29468
N_ N_ 0.873959 0.332559 0.228509 -0.29468
N_ N_ 0.859622 0.298572 0.331776 -0.17154
N_ N_ 0.888397 0.324673 0.479955 -0.17154
N_ N_ 0.874229 0.302059 0.0847713 -0.29468
O_ O_ 0.714975 0.17226 0.424555 -0.58347
O_ O_ 0.704602 0.180376 0.37795 -0.58347
O_ O_ 0.64901 0.249977 0.432267 -0.58347
O_ O_ 0.62826 0.255909 0.386682 -0.58347
O_ O_ 0.643063 0.0989828 0.421338 -0.58347
O_ O_ 0.633302 0.104634 0.375863 -0.58347
O_ O_ 0.567053 0.170624 0.42767 -0.58347
O_ O_ 0.55651 0.178843 0.381284 -0.58347
O_ O_ 0.567484 0.225791 0.0763293 -0.46727
O_ O_ 0.736983 0.184472 0.0879288 -0.46727
O_ O_ 0.532098 0.196448 0.223217 -0.46727
O_ O_ 0.702903 0.157731 0.23266 -0.46727
O_ O_ 0.790802 0.32151 0.182872 -0.58347
O_ O_ 0.801186 0.302539 0.137796 -0.58347
O_ O_ 0.872824 0.243177 0.186994 -0.58347
O_ O_ 0.883076 0.235237 0.139826 -0.58347
O_ O_ 0.863903 0.396995 0.173307 -0.58347
O_ O_ 0.866956 0.387803 0.127255 -0.58347
O_ O_ 0.941116 0.325385 0.180276 -0.58347
O_ O_ 0.953084 0.320859 0.133676 -0.58347
O_ O_ 0.93796 0.260008 0.328563 -0.46727
O_ O_ 0.782113 0.33499 0.334349 -0.46727
O_ O_ 0.972557 0.300445 0.475476 -0.46727
O_ O_ 0.806071 0.342738 0.484167 -0.46727
Zn Zn 0.629687 0.194343 0.880285 0.90689
Zn Zn 0.641366 0.186484 0.92823 0.90689
Zn Zn 0.870945 0.310371 0.633337 0.90689
Zn Zn 0.857631 0.32059 0.682278 0.90689
H_ H_ 0.809753 0.200696 0.94532 0.11455
H_ H_ 0.870434 0.152671 0.846443 0.11455
H_ H_ 0.780112 0.168824 0.855671 0.11455
H_ H_ 0.895586 0.188867 0.964273 0.11455
H_ H_ 0.982427 0.175257 0.956645 0.11455
H_ H_ 0.957321 0.168204 0.864145 0.11455
H_ H_ 0.656662 0.0195043 0.9428 0.11455
H_ H_ 0.608661 0.441591 0.843992 0.11455
H_ H_ 0.623826 0.0404868 0.851803 0.11455
H_ H_ 0.611163 0.430829 0.963632 0.11455
H_ H_ 0.617946 0.344118 0.957561 0.11455
H_ H_ 0.616676 0.358013 0.864519 0.11455
H_ H_ 0.597855 0.10466 0.964364 0.11455
H_ H_ 0.57713 0.0627162 0.511202 0.11455
H_ H_ 0.606479 0.112737 0.553736 0.11455
H_ H_ 0.68718 0.256496 0.969032 0.11455
H_ H_ 0.733315 0.28339 0.511539 0.11455
H_ H_ 0.697113 0.272759 0.559674 0.11455
H_ H_ 0.516932 0.214118 0.621753 0.11455
H_ H_ 0.508 0.204122 0.673389 0.11455
H_ H_ 0.770294 0.171684 0.636787 0.11455
H_ H_ 0.756826 0.154926 0.686453 0.11455
H_ H_ 0.563464 0.085414 0.747708 0.11455
H_ H_ 0.543695 0.0666053 0.795821 0.11455
H_ H_ 0.576403 0.121763 0.837454 0.11455
H_ H_ 0.660485 0.240895 0.751292 0.11455
H_ H_ 0.685764 0.299785 0.792673 0.11455
H_ H_ 0.680218 0.264007 0.842607 0.11455
H_ H_ 0.689968 0.292147 0.695185 0.11455
H_ H_ 0.629543 0.318456 0.597142 0.11455
H_ H_ 0.713875 0.318643 0.606321 0.11455
H_ H_ 0.604379 0.307948 0.715339 0.11455
H_ H_ 0.509612 0.305452 0.708963 0.11455
H_ H_ 0.53421 0.325915 0.616101 0.11455
H_ H_ 0.821469 0.484657 0.686408 0.11455
H_ H_ 0.846513 0.06758 0.595537 0.11455
H_ H_ 0.900272 0.468346 0.605633 0.11455
H_ H_ 0.892614 0.0661352 0.712378 0.11455
H_ H_ 0.889997 0.155368 0.711207 0.11455
H_ H_ 0.866634 0.151931 0.61909 0.11455
H_ H_ 0.908657 0.396994 0.715575 0.11455
H_ H_ 0.918231 0.428697 0.765972 0.11455
H_ H_ 0.896413 0.376363 0.807117 0.11455
H_ H_ 0.79696 0.261535 0.725634 0.11455
H_ H_ 0.765171 0.206881 0.76374 0.11455
H_ H_ 0.791505 0.223567 0.81358 0.11455
H_ H_ 0.987831 0.280418 0.867654 0.11455
H_ H_ 0.00405211 0.281016 0.919625 0.11455
H_ H_ 0.748583 0.332656 0.891078 0.11455
H_ H_ 0.764363 0.343958 0.941958 0.11455
H_ H_ 0.97048 0.382934 0.999197 0.11455
H_ H_ 0.960999 0.429965 0.548015 0.11455
H_ H_ 0.936495 0.377215 0.587555 0.11455
H_ H_ 0.832262 0.255655 0.509779 0.11455
H_ H_ 0.805861 0.21002 0.551622 0.11455
H_ H_ 0.818115 0.24311 0.598568 0.11455
C_ C_ 0.734198 0.195251 0.905191 0.68181
C_ C_ 0.787608 0.185698 0.900548 -0.05681
C_ C_ 0.821911 0.189177 0.92334 -0.08735
C_ C_ 0.873694 0.175425 0.919567 -0.05681
C_ C_ 0.891226 0.163277 0.891515 -0.05681
C_ C_ 0.857012 0.162453 0.867754 -0.08735
C_ C_ 0.806453 0.173297 0.872716 -0.08735
C_ C_ 0.907258 0.177146 0.94248 -0.08735
C_ C_ 0.959908 0.173808 0.937307 -0.08735
C_ C_ 0.980289 0.167277 0.909786 -0.05681
C_ C_ 0.94569 0.162811 0.886394 -0.08735
C_ C_ 0.623033 0.286831 0.908325 0.68181
C_ C_ 0.643015 0.0935003 0.90128 0.68181
C_ C_ 0.640131 0.0368558 0.898031 -0.05681
C_ C_ 0.612128 0.50085 0.919952 -0.08735
C_ C_ 0.610356 0.447703 0.917493 -0.05681
C_ C_ 0.611475 0.426881 0.889218 -0.05681
C_ C_ 0.614055 0.459457 0.865132 -0.08735
C_ C_ 0.614499 0.512124 0.869092 -0.08735
C_ C_ 0.608224 0.416344 0.941491 -0.08735
C_ C_ 0.612409 0.364855 0.938057 -0.08735
C_ C_ 0.615798 0.342304 0.910372 -0.05681
C_ C_ 0.614206 0.372853 0.885658 -0.08735
C_ C_ 0.537516 0.177409 0.908064 0.68181
C_ C_ 0.610765 0.127729 0.98247 0.1947
C_ C_ 0.596597 0.0975006 0.508401 -0.08735
C_ C_ 0.612603 0.126022 0.532452 -0.08735
C_ C_ 0.642809 0.170903 0.527252 -0.05681
C_ C_ 0.650128 0.187635 0.498908 0.18498
C_ C_ 0.681958 0.243441 0.991628 -0.08735
C_ C_ 0.704638 0.255634 0.515331 -0.08735
C_ C_ 0.683636 0.248251 0.543038 -0.08735
C_ C_ 0.657739 0.203942 0.549767 0.18498
C_ C_ 0.690569 0.181855 0.596349 0.44287
C_ C_ 0.602992 0.195263 0.591784 0.44287
C_ C_ 0.59649 0.195219 0.621528 -0.05681
C_ C_ 0.549809 0.202543 0.634564 -0.08735
C_ C_ 0.543883 0.193908 0.663715 -0.08735
C_ C_ 0.586246 0.180806 0.681719 -0.05681
C_ C_ 0.634537 0.176396 0.669556 -0.05681
C_ C_ 0.638909 0.184711 0.639583 -0.05681
C_ C_ 0.686379 0.179319 0.626729 -0.05681
C_ C_ 0.731613 0.177971 0.644286 -0.08735
C_ C_ 0.725709 0.165518 0.673742 -0.08735
C_ C_ 0.677013 0.169608 0.687068 -0.05681
C_ C_ 0.670234 0.156816 0.71685 0.44287
C_ C_ 0.580041 0.174961 0.71095 0.44287
C_ C_ 0.6139 0.149838 0.756786 0.18498
C_ C_ 0.585568 0.105651 0.763546 -0.08735
C_ C_ 0.574088 0.09482 0.792466 -0.08735
C_ C_ 0.590452 0.127514 0.815246 -0.08735
C_ C_ 0.620778 0.169469 0.809116 0.18498
C_ C_ 0.632914 0.181605 0.779783 -0.05681
C_ C_ 0.651249 0.22999 0.773542 -0.08735
C_ C_ 0.670461 0.259661 0.796793 -0.08735
C_ C_ 0.661242 0.244914 0.824877 0.1947
C_ C_ 0.765483 0.30929 0.655019 0.68181
C_ C_ 0.710382 0.303323 0.650911 -0.05681
C_ C_ 0.675095 0.305617 0.67539 -0.08735
C_ C_ 0.623147 0.311563 0.670163 -0.05681
C_ C_ 0.605423 0.320043 0.641832 -0.05681
C_ C_ 0.638384 0.312299 0.618389 -0.08735
C_ C_ 0.689578 0.306965 0.623159 -0.08735
C_ C_ 0.59003 0.311582 0.693457 -0.08735
C_ C_ 0.53624 0.313343 0.690199 -0.08735
C_ C_ 0.516592 0.321815 0.662594 -0.05681
C_ C_ 0.550517 0.322438 0.638543 -0.08735
C_ C_ 0.867205 0.218542 0.665224 0.68181
C_ C_ 0.861263 0.415964 0.650991 0.68181
C_ C_ 0.862642 0.47093 0.647692 -0.05681
C_ C_ 0.866881 0.00152579 0.669726 -0.08735
C_ C_ 0.872522 0.0553006 0.667034 -0.05681
C_ C_ 0.869512 0.0802854 0.639994 -0.05681
C_ C_ 0.856872 0.0503669 0.616269 -0.08735
C_ C_ 0.886757 0.492633 0.623367 -0.08735
C_ C_ 0.881018 0.0841021 0.692128 -0.08735
C_ C_ 0.883566 0.135457 0.691452 -0.08735
C_ C_ 0.873169 0.161842 0.665396 -0.05681
C_ C_ 0.870835 0.133073 0.639975 -0.08735
C_ C_ 0.963207 0.31863 0.660671 0.68181
C_ C_ 0.894992 0.373346 0.734253 0.1947
C_ C_ 0.905662 0.389406 0.762016 -0.08735
C_ C_ 0.890059 0.360546 0.785644 -0.08735
C_ C_ 0.855146 0.319777 0.78139 -0.05681
C_ C_ 0.840327 0.309606 0.753095 0.18498
C_ C_ 0.811677 0.265948 0.746682 -0.08735
C_ C_ 0.796363 0.232445 0.768045 -0.08735
C_ C_ 0.81018 0.24357 0.796463 -0.08735
C_ C_ 0.838774 0.286912 0.804324 0.18498
C_ C_ 0.811584 0.312122 0.853343 0.44287
C_ C_ 0.897071 0.284235 0.844167 0.44287
C_ C_ 0.910047 0.288803 0.873649 -0.05681
C_ C_ 0.957561 0.284712 0.883276 -0.08735
C_ C_ 0.969101 0.292221 0.91188 -0.08735
C_ C_ 0.928731 0.301343 0.932123 -0.05681
C_ C_ 0.880735 0.311235 0.921088 -0.05681
C_ C_ 0.870688 0.306214 0.89232 -0.05681
C_ C_ 0.822325 0.311024 0.882372 -0.05681
C_ C_ 0.785645 0.329569 0.900561 -0.08735
C_ C_ 0.794356 0.33091 0.929761 -0.08735
C_ C_ 0.842382 0.322719 0.940992 -0.05681
C_ C_ 0.853688 0.330523 0.970805 0.44287
C_ C_ 0.939198 0.306939 0.961239 0.44287
C_ C_ 0.896953 0.339991 0.510399 0.18498
C_ C_ 0.919446 0.386557 0.516382 -0.08735
C_ C_ 0.934865 0.399156 0.544346 -0.08735
C_ C_ 0.919186 0.370946 0.567879 -0.08735
C_ C_ 0.887638 0.329794 0.563645 0.18498
C_ C_ 0.87526 0.31411 0.534326 -0.05681
C_ C_ 0.842898 0.271593 0.530554 -0.08735
C_ C_ 0.828532 0.244671 0.5551 -0.08735
C_ C_ 0.839453 0.26125 0.581879 0.1947
N_ N_ 0.637613 0.171242 0.976562 -0.29468
N_ N_ 0.650256 0.193579 0.580336 -0.17154
N_ N_ 0.621938 0.160493 0.727278 -0.17154
N_ N_ 0.637602 0.201417 0.831106 -0.29468
N_ N_ 0.858985 0.336092 0.730078 -0.29468
N_ N_ 0.848746 0.295468 0.834594 -0.17154
N_ N_ 0.901991 0.317324 0.980671 -0.17154
N_ N_ 0.873258 0.30007 0.586192 -0.29468
O_ O_ 0.71649 0.203192 0.929822 -0.58347
O_ O_ 0.704964 0.200735 0.883066 -0.58347
O_ O_ 0.618465 0.259345 0.930144 -0.58347
O_ O_ 0.624207 0.266527 0.884307 -0.58347
O_ O_ 0.660347 0.115365 0.923202 -0.58347
O_ O_ 0.636346 0.118246 0.879444 -0.58347
O_ O_ 0.566593 0.162677 0.928569 -0.58347
O_ O_ 0.55651 0.187031 0.883305 -0.58347
O_ O_ 0.561277 0.202575 0.5758 -0.46727
O_ O_ 0.734312 0.173982 0.58512 -0.46727
O_ O_ 0.537996 0.189409 0.723895 -0.46727
O_ O_ 0.708333 0.141881 0.732197 -0.46727
O_ O_ 0.783581 0.31119 0.680708 -0.58347
O_ O_ 0.796972 0.300626 0.634942 -0.58347
O_ O_ 0.861938 0.244132 0.688615 -0.58347
O_ O_ 0.877283 0.24101 0.642368 -0.58347
O_ O_ 0.84777 0.396066 0.674234 -0.58347
O_ O_ 0.869199 0.388976 0.629127 -0.58347
O_ O_ 0.932119 0.324677 0.682243 -0.58347
O_ O_ 0.945664 0.317366 0.636015 -0.58347
O_ O_ 0.930299 0.270429 0.823966 -0.46727
O_ O_ 0.772413 0.338387 0.843705 -0.46727
O_ O_ 0.982886 0.292419 0.970816 -0.46727
O_ O_ 0.82179 0.350168 0.989062 -0.46727
Zn Zn 0.628163 0.680347 0.38002 0.90689
Zn Zn 0.636617 0.672122 0.42819 0.90689
Zn Zn 0.882266 0.816402 0.131086 0.90689
Zn Zn 0.876115 0.818213 0.178609 0.90689
H_ H_ 0.802511 0.681539 0.444426 0.11455
H_ H_ 0.871452 0.65826 0.345709 0.11455
H_ H_ 0.782674 0.670481 0.353876 0.11455
H_ H_ 0.893392 0.680795 0.463047 0.11455
H_ H_ 0.98623 0.683825 0.454479 0.11455
H_ H_ 0.958694 0.659479 0.364067 0.11455
H_ H_ 0.633682 0.510622 0.43915 0.11455
H_ H_ 0.602105 0.925304 0.345508 0.11455
H_ H_ 0.677411 0.521007 0.349335 0.11455
H_ H_ 0.637932 0.918118 0.463835 0.11455
H_ H_ 0.622542 0.830768 0.460797 0.11455
H_ H_ 0.616521 0.841796 0.368083 0.11455
H_ H_ 0.596153 0.590281 0.462367 0.11455
H_ H_ 0.556071 0.582584 0.0129988 0.11455
H_ H_ 0.600914 0.630493 0.05539 0.11455
H_ H_ 0.698168 0.732195 0.470011 0.11455
H_ H_ 0.725613 0.792548 0.00597522 0.11455
H_ H_ 0.698835 0.78287 0.0569279 0.11455
H_ H_ 0.521242 0.716636 0.120726 0.11455
H_ H_ 0.505805 0.691052 0.170797 0.11455
H_ H_ 0.768464 0.684429 0.135938 0.11455
H_ H_ 0.759905 0.665402 0.186694 0.11455
H_ H_ 0.590423 0.583754 0.244967 0.11455
H_ H_ 0.558614 0.560695 0.292443 0.11455
H_ H_ 0.573791 0.617255 0.334156 0.11455
H_ H_ 0.671784 0.743777 0.258209 0.11455
H_ H_ 0.692856 0.790931 0.301969 0.11455
H_ H_ 0.678931 0.760397 0.347954 0.11455
H_ H_ 0.703313 0.792161 0.193435 0.11455
H_ H_ 0.642764 0.829149 0.0968297 0.11455
H_ H_ 0.728437 0.823631 0.104286 0.11455
H_ H_ 0.62073 0.800688 0.211701 0.11455
H_ H_ 0.526231 0.812889 0.205675 0.11455
H_ H_ 0.555253 0.822451 0.115305 0.11455
H_ H_ 0.870446 0.982988 0.196013 0.11455
H_ H_ 0.921514 0.5626 0.0988881 0.11455
H_ H_ 0.860904 0.975431 0.106348 0.11455
H_ H_ 0.841275 0.574976 0.207769 0.11455
H_ H_ 0.856892 0.666833 0.204199 0.11455
H_ H_ 0.919221 0.650581 0.122511 0.11455
H_ H_ 0.929897 0.886887 0.214923 0.11455
H_ H_ 0.940551 0.919176 0.264965 0.11455
H_ H_ 0.89098 0.880563 0.302759 0.11455
H_ H_ 0.825536 0.744427 0.22374 0.11455
H_ H_ 0.786963 0.701348 0.261767 0.11455
H_ H_ 0.796423 0.731093 0.311293 0.11455
H_ H_ 0.987587 0.815373 0.368243 0.11455
H_ H_ 0.00299023 0.798231 0.420942 0.11455
H_ H_ 0.745708 0.847661 0.386186 0.11455
H_ H_ 0.758872 0.862542 0.435502 0.11455
H_ H_ 0.956727 0.893274 0.500717 0.11455
H_ H_ 0.921298 0.954146 0.0463302 0.11455
H_ H_ 0.927602 0.886799 0.0863257 0.11455
H_ H_ 0.841025 0.752903 0.0073565 0.11455
H_ H_ 0.81969 0.706696 0.0496561 0.11455
H_ H_ 0.831795 0.739176 0.0976067 0.11455
C_ C_ 0.732085 0.68778 0.403103 0.68181
C_ C_ 0.787158 0.678039 0.398966 -0.05681
C_ C_ 0.819683 0.680196 0.422943 -0.08735
C_ C_ 0.872343 0.670541 0.420521 -0.05681
C_ C_ 0.89061 0.661092 0.391775 -0.05681
C_ C_ 0.858766 0.661475 0.368385 -0.08735
C_ C_ 0.807929 0.667896 0.372506 -0.08735
C_ C_ 0.907344 0.677038 0.442291 -0.08735
C_ C_ 0.95978 0.67495 0.437917 -0.08735
C_ C_ 0.977261 0.667286 0.410237 -0.05681
C_ C_ 0.944509 0.662818 0.386478 -0.08735
C_ C_ 0.619622 0.771994 0.411992 0.68181
C_ C_ 0.649574 0.578863 0.396329 0.68181
C_ C_ 0.654642 0.523544 0.394027 -0.05681
C_ C_ 0.628561 0.988821 0.420216 -0.08735
C_ C_ 0.623972 0.934095 0.41817 -0.05681
C_ C_ 0.612775 0.911687 0.390609 -0.05681
C_ C_ 0.607825 0.942595 0.366127 -0.08735
C_ C_ 0.615415 0.995591 0.369264 -0.08735
C_ C_ 0.624377 0.903473 0.443328 -0.08735
C_ C_ 0.622597 0.851489 0.440249 -0.08735
C_ C_ 0.61529 0.827793 0.414427 -0.05681
C_ C_ 0.614611 0.85821 0.388847 -0.08735
C_ C_ 0.530423 0.671793 0.405159 0.68181
C_ C_ 0.60583 0.61754 0.480362 0.1947
C_ C_ 0.577768 0.615575 0.0109392 -0.08735
C_ C_ 0.602103 0.643026 0.033628 -0.08735
C_ C_ 0.631397 0.68744 0.0265585 -0.05681
C_ C_ 0.64102 0.696987 0.997375 0.18498
C_ C_ 0.683616 0.728141 0.491718 -0.08735
C_ C_ 0.700396 0.762927 0.0119157 -0.08735
C_ C_ 0.680655 0.757677 0.0400853 -0.08735
C_ C_ 0.655696 0.713206 0.0488099 0.18498
C_ C_ 0.692582 0.692938 0.0958538 0.44287
C_ C_ 0.605736 0.71124 0.0922924 0.44287
C_ C_ 0.59896 0.6977 0.121377 -0.05681
C_ C_ 0.552115 0.703125 0.134561 -0.08735
C_ C_ 0.544624 0.691201 0.162243 -0.08735
C_ C_ 0.586353 0.683054 0.181066 -0.05681
C_ C_ 0.635241 0.680145 0.169377 -0.05681
C_ C_ 0.640255 0.686593 0.138949 -0.05681
C_ C_ 0.688488 0.687684 0.126126 -0.05681
C_ C_ 0.730716 0.679316 0.144569 -0.08735
C_ C_ 0.725036 0.674089 0.174367 -0.08735
C_ C_ 0.677781 0.674937 0.186881 -0.05681
C_ C_ 0.67175 0.666888 0.215983 0.44287
C_ C_ 0.582344 0.677541 0.211839 0.44287
C_ C_ 0.617576 0.657564 0.257925 0.18498
C_ C_ 0.595374 0.61011 0.263048 -0.08735
C_ C_ 0.58029 0.594774 0.290395 -0.08735
C_ C_ 0.592818 0.623299 0.313869 -0.08735
C_ C_ 0.615012 0.670172 0.311189 0.18498
C_ C_ 0.631814 0.686706 0.283052 -0.05681
C_ C_ 0.659656 0.731293 0.279288 -0.08735
C_ C_ 0.670542 0.760625 0.303693 -0.08735
C_ C_ 0.660378 0.740972 0.330642 0.1947
C_ C_ 0.780354 0.810495 0.155387 0.68181
C_ C_ 0.724343 0.814919 0.15078 -0.05681
C_ C_ 0.690897 0.81078 0.173546 -0.08735
C_ C_ 0.638577 0.819845 0.168983 -0.05681
C_ C_ 0.619908 0.829633 0.141785 -0.05681
C_ C_ 0.654149 0.827078 0.118396 -0.08735
C_ C_ 0.703522 0.820848 0.122817 -0.08735
C_ C_ 0.604041 0.81678 0.191689 -0.08735
C_ C_ 0.552414 0.822287 0.187575 -0.08735
C_ C_ 0.534143 0.830851 0.159704 -0.05681
C_ C_ 0.5687 0.831916 0.136794 -0.08735
C_ C_ 0.887231 0.720308 0.158236 0.68181
C_ C_ 0.867577 0.916774 0.153187 0.68181
C_ C_ 0.858681 0.971951 0.151586 -0.05681
C_ C_ 0.852728 0.506685 0.164734 -0.08735
C_ C_ 0.862419 0.559423 0.163749 -0.05681
C_ C_ 0.88742 0.580204 0.139995 -0.05681
C_ C_ 0.900685 0.546766 0.117344 -0.08735
C_ C_ 0.854318 0.99827 0.125263 -0.08735
C_ C_ 0.852873 0.590518 0.187251 -0.08735
C_ C_ 0.863633 0.642185 0.185971 -0.08735
C_ C_ 0.885728 0.664277 0.161581 -0.05681
C_ C_ 0.899229 0.633162 0.139108 -0.08735
C_ C_ 0.979228 0.825762 0.151909 0.68181
C_ C_ 0.910492 0.868996 0.23333 0.1947
C_ C_ 0.915805 0.886116 0.26171 -0.08735
C_ C_ 0.888978 0.863372 0.282818 -0.08735
C_ C_ 0.866595 0.817095 0.277613 -0.05681
C_ C_ 0.855081 0.805092 0.248434 0.18498
C_ C_ 0.827477 0.760585 0.244018 -0.08735
C_ C_ 0.80758 0.732484 0.266382 -0.08735
C_ C_ 0.820559 0.743895 0.294953 -0.08735
C_ C_ 0.845595 0.78789 0.300675 0.18498
C_ C_ 0.812936 0.80721 0.347457 0.44287
C_ C_ 0.901423 0.795346 0.339957 0.44287
C_ C_ 0.909169 0.8004 0.370307 -0.05681
C_ C_ 0.957071 0.804569 0.382366 -0.08735
C_ C_ 0.964228 0.802212 0.413067 -0.08735
C_ C_ 0.923347 0.807362 0.431227 -0.05681
C_ C_ 0.874915 0.81246 0.419989 -0.05681
C_ C_ 0.866215 0.807122 0.38904 -0.05681
C_ C_ 0.818288 0.81337 0.376971 -0.05681
C_ C_ 0.779974 0.83185 0.395328 -0.08735
C_ C_ 0.786179 0.837556 0.424887 -0.08735
C_ C_ 0.832997 0.827051 0.438358 -0.05681
C_ C_ 0.842544 0.832179 0.468067 0.44287
C_ C_ 0.930056 0.810229 0.461005 0.44287
C_ C_ 0.874852 0.855657 0.00994335 0.18498
C_ C_ 0.889149 0.904324 0.0162589 -0.08735
C_ C_ 0.906579 0.917474 0.0429886 -0.08735
C_ C_ 0.907548 0.881431 0.0664449 -0.08735
C_ C_ 0.884552 0.832818 0.061123 0.18498
C_ C_ 0.869683 0.82041 0.0328577 -0.05681
C_ C_ 0.847838 0.771572 0.0280765 -0.08735
C_ C_ 0.83668 0.742064 0.0516681 -0.08735
C_ C_ 0.84599 0.75922 0.0796614 0.1947
N_ N_ 0.634472 0.658422 0.474247 -0.29468
N_ N_ 0.650855 0.701753 0.0794669 -0.17154
N_ N_ 0.624138 0.672661 0.227903 -0.17154
N_ N_ 0.63077 0.698578 0.334337 -0.29468
N_ N_ 0.881103 0.828056 0.226325 -0.29468
N_ N_ 0.854318 0.798996 0.329766 -0.17154
N_ N_ 0.890091 0.820822 0.479502 -0.17154
N_ N_ 0.868457 0.803793 0.0839595 -0.29468
O_ O_ 0.711933 0.674336 0.427084 -0.58347
O_ O_ 0.704655 0.691888 0.381076 -0.58347
O_ O_ 0.635392 0.74412 0.433192 -0.58347
O_ O_ 0.61266 0.753087 0.387121 -0.58347
O_ O_ 0.646913 0.599219 0.42096 -0.58347
O_ O_ 0.645116 0.606685 0.373545 -0.58347
O_ O_ 0.557444 0.669411 0.427291 -0.58347
O_ O_ 0.552984 0.670799 0.380806 -0.58347
O_ O_ 0.570744 0.736293 0.0779861 -0.46727
O_ O_ 0.736827 0.686567 0.0833084 -0.46727
O_ O_ 0.536717 0.676269 0.223805 -0.46727
O_ O_ 0.711102 0.649072 0.231616 -0.46727
O_ O_ 0.799291 0.816926 0.181096 -0.58347
O_ O_ 0.80854 0.802377 0.134271 -0.58347
O_ O_ 0.879089 0.745644 0.180735 -0.58347
O_ O_ 0.887584 0.742964 0.133165 -0.58347
O_ O_ 0.870971 0.893257 0.176839 -0.58347
O_ O_ 0.870243 0.892931 0.129024 -0.58347
O_ O_ 0.949634 0.826852 0.174715 -0.58347
O_ O_ 0.960689 0.825198 0.127222 -0.58347
O_ O_ 0.940461 0.80319 0.322972 -0.46727
O_ O_ 0.767921 0.812928 0.335841 -0.46727
O_ O_ 0.972959 0.792952 0.471259 -0.46727
O_ O_ 0.803074 0.838708 0.484159 -0.46727
Zn Zn 0.614508 0.694634 0.879077 0.90689
Zn Zn 0.621025 0.681974 0.9273 0.90689
Zn Zn 0.856319 0.81775 0.632181 0.90689
Zn Zn 0.848214 0.82213 0.681994 0.90689
H_ H_ 0.78605 0.673054 0.947799 0.11455
H_ H_ 0.855824 0.648261 0.850647 0.11455
H_ H_ 0.765519 0.662546 0.857321 0.11455
H_ H_ 0.876611 0.685325 0.967384 0.11455
H_ H_ 0.966864 0.685255 0.959164 0.11455
H_ H_ 0.943494 0.653665 0.870546 0.11455
H_ H_ 0.610472 0.517308 0.941843 0.11455
H_ H_ 0.60189 0.948263 0.847391 0.11455
H_ H_ 0.612806 0.536825 0.850798 0.11455
H_ H_ 0.657654 0.933646 0.961688 0.11455
H_ H_ 0.657689 0.844105 0.954454 0.11455
H_ H_ 0.596011 0.863124 0.868966 0.11455
H_ H_ 0.566792 0.614362 0.964548 0.11455
H_ H_ 0.580587 0.564648 0.512699 0.11455
H_ H_ 0.615591 0.612665 0.553203 0.11455
H_ H_ 0.69241 0.735927 0.968286 0.11455
H_ H_ 0.733773 0.784547 0.50956 0.11455
H_ H_ 0.700589 0.775843 0.556154 0.11455
H_ H_ 0.506138 0.693908 0.615661 0.11455
H_ H_ 0.493527 0.689414 0.668396 0.11455
H_ H_ 0.760073 0.69302 0.636012 0.11455
H_ H_ 0.746646 0.679405 0.688641 0.11455
H_ H_ 0.550657 0.601596 0.747534 0.11455
H_ H_ 0.52447 0.583904 0.796788 0.11455
H_ H_ 0.555312 0.640861 0.834772 0.11455
H_ H_ 0.639753 0.765636 0.757094 0.11455
H_ H_ 0.69452 0.794076 0.794778 0.11455
H_ H_ 0.673436 0.769208 0.844204 0.11455
H_ H_ 0.683654 0.813923 0.697121 0.11455
H_ H_ 0.609647 0.8087 0.601365 0.11455
H_ H_ 0.70348 0.815394 0.607045 0.11455
H_ H_ 0.59281 0.817963 0.718466 0.11455
H_ H_ 0.502173 0.799449 0.70979 0.11455
H_ H_ 0.521871 0.824002 0.618478 0.11455
H_ H_ 0.868657 0.986041 0.691177 0.11455
H_ H_ 0.911126 0.564151 0.603056 0.11455
H_ H_ 0.834261 0.976641 0.600692 0.11455
H_ H_ 0.818215 0.569183 0.707547 0.11455
H_ H_ 0.834747 0.660993 0.706828 0.11455
H_ H_ 0.896662 0.645977 0.621999 0.11455
H_ H_ 0.895189 0.91102 0.71656 0.11455
H_ H_ 0.911783 0.933885 0.766552 0.11455
H_ H_ 0.890795 0.878846 0.806306 0.11455
H_ H_ 0.797783 0.761936 0.726566 0.11455
H_ H_ 0.777966 0.69635 0.763433 0.11455
H_ H_ 0.803339 0.717338 0.812952 0.11455
H_ H_ 0.979712 0.788167 0.875253 0.11455
H_ H_ 0.990558 0.813715 0.925568 0.11455
H_ H_ 0.731003 0.842738 0.883996 0.11455
H_ H_ 0.73975 0.84576 0.937599 0.11455
H_ H_ 0.886097 0.931746 0.998528 0.11455
H_ H_ 0.969151 0.916511 0.550374 0.11455
H_ H_ 0.934505 0.862405 0.588732 0.11455
H_ H_ 0.837966 0.752908 0.503559 0.11455
H_ H_ 0.794537 0.707652 0.545917 0.11455
H_ H_ 0.80132 0.749283 0.593636 0.11455
C_ C_ 0.71668 0.681886 0.907005 0.68181
C_ C_ 0.769273 0.67211 0.903938 -0.05681
C_ C_ 0.801733 0.672985 0.926984 -0.08735
C_ C_ 0.855562 0.675578 0.922614 -0.05681
C_ C_ 0.875048 0.668037 0.894295 -0.05681
C_ C_ 0.840784 0.660183 0.871768 -0.08735
C_ C_ 0.788511 0.664497 0.876506 -0.08735
C_ C_ 0.890087 0.681361 0.945326 -0.08735
C_ C_ 0.942306 0.685616 0.940891 -0.08735
C_ C_ 0.961532 0.680561 0.913727 -0.05681
C_ C_ 0.928344 0.670946 0.890482 -0.08735
C_ C_ 0.620161 0.789381 0.909381 0.68181
C_ C_ 0.619223 0.589295 0.900529 0.68181
C_ C_ 0.620919 0.53458 0.896532 -0.05681
C_ C_ 0.645881 0.00448926 0.921362 -0.08735
C_ C_ 0.637315 0.952758 0.917745 -0.05681
C_ C_ 0.624413 0.930655 0.890726 -0.05681
C_ C_ 0.61785 0.962803 0.86738 -0.08735
C_ C_ 0.62711 0.0151731 0.870554 -0.08735
C_ C_ 0.649125 0.919267 0.941201 -0.08735
C_ C_ 0.643402 0.866888 0.93755 -0.08735
C_ C_ 0.625629 0.846215 0.912157 -0.05681
C_ C_ 0.611868 0.878287 0.888758 -0.08735
C_ C_ 0.519035 0.692464 0.901318 0.68181
C_ C_ 0.583572 0.632396 0.982396 0.1947
C_ C_ 0.596722 0.601263 0.509182 -0.08735
C_ C_ 0.615906 0.628171 0.531848 -0.08735
C_ C_ 0.641212 0.673678 0.526061 -0.05681
C_ C_ 0.651066 0.687284 0.497131 0.18498
C_ C_ 0.676481 0.735276 0.990651 -0.08735
C_ C_ 0.705657 0.75419 0.514406 -0.08735
C_ C_ 0.686764 0.749125 0.541539 -0.08735
C_ C_ 0.657265 0.705976 0.549103 0.18498
C_ C_ 0.687983 0.691537 0.596664 0.44287
C_ C_ 0.598807 0.695079 0.589079 0.44287
C_ C_ 0.588074 0.69785 0.618937 -0.05681
C_ C_ 0.539437 0.691737 0.630599 -0.08735
C_ C_ 0.533043 0.690946 0.660148 -0.08735
C_ C_ 0.574349 0.685499 0.678966 -0.05681
C_ C_ 0.623492 0.684024 0.667119 -0.05681
C_ C_ 0.63056 0.689595 0.637424 -0.05681
C_ C_ 0.680635 0.695984 0.626427 -0.05681
C_ C_ 0.72235 0.686635 0.644684 -0.08735
C_ C_ 0.714931 0.679899 0.67483 -0.08735
C_ C_ 0.664506 0.682898 0.686049 -0.05681
C_ C_ 0.654807 0.66953 0.714446 0.44287
C_ C_ 0.566996 0.682396 0.708853 0.44287
C_ C_ 0.598507 0.66427 0.757415 0.18498
C_ C_ 0.565654 0.623258 0.763844 -0.08735
C_ C_ 0.553267 0.613419 0.79208 -0.08735
C_ C_ 0.571147 0.643737 0.813955 -0.08735
C_ C_ 0.605272 0.68259 0.80833 0.18498
C_ C_ 0.613924 0.699125 0.780227 -0.05681
C_ C_ 0.640084 0.746312 0.776561 -0.08735
C_ C_ 0.671063 0.762812 0.798361 -0.08735
C_ C_ 0.661107 0.745109 0.82574 0.1947
C_ C_ 0.755228 0.815997 0.655352 0.68181
C_ C_ 0.698883 0.815121 0.652369 -0.05681
C_ C_ 0.666528 0.81897 0.676227 -0.08735
C_ C_ 0.613215 0.819808 0.673119 -0.05681
C_ C_ 0.592491 0.823913 0.644174 -0.05681
C_ C_ 0.626554 0.826094 0.620339 -0.08735
C_ C_ 0.677427 0.81808 0.624883 -0.08735
C_ C_ 0.580564 0.819186 0.69687 -0.08735
C_ C_ 0.527932 0.811209 0.691576 -0.08735
C_ C_ 0.506308 0.815395 0.66394 -0.05681
C_ C_ 0.538886 0.821621 0.64016 -0.08735
C_ C_ 0.862853 0.719337 0.663851 0.68181
C_ C_ 0.851267 0.917596 0.646864 0.68181
C_ C_ 0.858459 0.97297 0.645073 -0.05681
C_ C_ 0.841166 0.501874 0.668308 -0.08735
C_ C_ 0.847955 0.555517 0.666247 -0.05681
C_ C_ 0.872927 0.576634 0.64251 -0.05681
C_ C_ 0.893937 0.545853 0.620808 -0.08735
C_ C_ 0.846888 0.998461 0.619626 -0.08735
C_ C_ 0.834804 0.585927 0.689275 -0.08735
C_ C_ 0.844413 0.63768 0.688968 -0.08735
C_ C_ 0.861356 0.661183 0.664452 -0.05681
C_ C_ 0.878133 0.630193 0.640598 -0.08735
C_ C_ 0.95284 0.815427 0.65856 0.68181
C_ C_ 0.882371 0.885201 0.733612 0.1947
C_ C_ 0.893784 0.899111 0.76254 -0.08735
C_ C_ 0.876296 0.870847 0.784758 -0.08735
C_ C_ 0.851812 0.823644 0.780193 -0.05681
C_ C_ 0.839054 0.812138 0.751126 0.18498
C_ C_ 0.81023 0.769417 0.746328 -0.08735
C_ C_ 0.803006 0.732149 0.767823 -0.08735
C_ C_ 0.819297 0.742056 0.796445 -0.08735
C_ C_ 0.84123 0.788106 0.802965 0.18498
C_ C_ 0.807147 0.814029 0.848546 0.44287
C_ C_ 0.894581 0.795063 0.844567 0.44287
C_ C_ 0.901932 0.807222 0.874722 -0.05681
C_ C_ 0.947344 0.800309 0.887762 -0.08735
C_ C_ 0.953104 0.81559 0.916047 -0.08735
C_ C_ 0.911303 0.822944 0.934021 -0.05681
C_ C_ 0.863343 0.825355 0.920638 -0.05681
C_ C_ 0.858591 0.818508 0.891083 -0.05681
C_ C_ 0.811138 0.822621 0.877525 -0.05681
C_ C_ 0.76736 0.833926 0.893544 -0.08735
C_ C_ 0.772787 0.835628 0.924246 -0.08735
C_ C_ 0.820297 0.834113 0.938406 -0.05681
C_ C_ 0.825097 0.841307 0.967966 0.44287
C_ C_ 0.912986 0.827201 0.964508 0.44287
C_ C_ 0.899954 0.831773 0.510011 0.18498
C_ C_ 0.934427 0.872145 0.517394 -0.08735
C_ C_ 0.946548 0.884561 0.545979 -0.08735
C_ C_ 0.923034 0.857032 0.567175 -0.08735
C_ C_ 0.884311 0.821383 0.561421 0.18498
C_ C_ 0.875039 0.806566 0.532437 -0.05681
C_ C_ 0.845352 0.762278 0.52607 -0.08735
C_ C_ 0.822042 0.739089 0.549266 -0.08735
C_ C_ 0.826674 0.760114 0.576639 0.1947
N_ N_ 0.612681 0.673954 0.976711 -0.29468
N_ N_ 0.647119 0.694345 0.578879 -0.17154
N_ N_ 0.607218 0.676165 0.727048 -0.17154
N_ N_ 0.627776 0.704625 0.829993 -0.29468
N_ N_ 0.852882 0.843402 0.728122 -0.29468
N_ N_ 0.847555 0.802166 0.832522 -0.17154
N_ N_ 0.871967 0.840317 0.980459 -0.17154
N_ N_ 0.857949 0.798786 0.583506 -0.29468
O_ O_ 0.698034 0.670032 0.930295 -0.58347
O_ O_ 0.688074 0.693634 0.885872 -0.58347
O_ O_ 0.62677 0.759321 0.931812 -0.58347
O_ O_ 0.618976 0.770212 0.884364 -0.58347
O_ O_ 0.618626 0.606496 0.925001 -0.58347
O_ O_ 0.607961 0.618678 0.878986 -0.58347
O_ O_ 0.54592 0.683463 0.923443 -0.58347
O_ O_ 0.537895 0.698354 0.876565 -0.58347
O_ O_ 0.55946 0.696596 0.571547 -0.46727
O_ O_ 0.731368 0.675568 0.58551 -0.46727
O_ O_ 0.521561 0.693839 0.719373 -0.46727
O_ O_ 0.691377 0.65122 0.729764 -0.46727
O_ O_ 0.774323 0.821082 0.678775 -0.58347
O_ O_ 0.782754 0.809752 0.63284 -0.58347
O_ O_ 0.856588 0.746248 0.687006 -0.58347
O_ O_ 0.86332 0.741369 0.639068 -0.58347
O_ O_ 0.848235 0.897227 0.671436 -0.58347
O_ O_ 0.850548 0.890264 0.624391 -0.58347
O_ O_ 0.926549 0.818108 0.681158 -0.58347
O_ O_ 0.930675 0.819014 0.634716 -0.58347
O_ O_ 0.932085 0.785444 0.827994 -0.46727
O_ O_ 0.7622 0.813543 0.835761 -0.46727
O_ O_ 0.955266 0.821838 0.977943 -0.46727
O_ O_ 0.786434 0.858902 0.98261 -0.46727
_cell_length_a 26.376
_cell_length_b 26.400000238300095
_cell_length_c 46.67800035477134
_cell_angle_alpha 90.00700052986613
_cell_angle_beta 89.99899961309502
_cell_angle_gamma 90.45000003183146
_symmetry_space_group_name_H-M         'P 1'
_symmetry_Int_Tables_number            1
loop_
_symmetry_equiv_pos_as_xyz
   'x, y, z'
                         
loop_
_atom_site_label
_atom_site_type_symbol
_atom_site_fract_x 
_atom_site_fract_y
_atom_site_fract_z
_atom_site_charge
Zn Zn 0.130762 0.180047 0.382785 0.90689
Zn Zn 0.144531 0.175121 0.428798 0.90689
Zn Zn 0.379604 0.321175 0.136843 0.90689
Zn Zn 0.370852 0.321735 0.183961 0.90689
H_ H_ 0.310427 0.182714 0.445639 0.11455
H_ H_ 0.377357 0.17704 0.34548 0.11455
H_ H_ 0.284788 0.18032 0.354188 0.11455
H_ H_ 0.396442 0.164255 0.46405 0.11455
H_ H_ 0.489368 0.176703 0.456751 0.11455
H_ H_ 0.467491 0.183791 0.365652 0.11455
H_ H_ 0.11419 0.0101067 0.440289 0.11455
H_ H_ 0.16141 0.432438 0.345112 0.11455
H_ H_ 0.181244 0.0239757 0.357468 0.11455
H_ H_ 0.12407 0.425878 0.461057 0.11455
H_ H_ 0.118352 0.33252 0.4562 0.11455
H_ H_ 0.151419 0.346076 0.366022 0.11455
H_ H_ 0.0830137 0.102717 0.469052 0.11455
H_ H_ 0.062285 0.0876512 0.0174025 0.11455
H_ H_ 0.113007 0.127348 0.0565808 0.11455
H_ H_ 0.191901 0.251697 0.476166 0.11455
H_ H_ 0.223195 0.304764 0.0124045 0.11455
H_ H_ 0.212664 0.275536 0.0614583 0.11455
H_ H_ 0.0122988 0.207542 0.122465 0.11455
H_ H_ 0.00180541 0.19563 0.174541 0.11455
H_ H_ 0.26372 0.159555 0.134432 0.11455
H_ H_ 0.256465 0.154963 0.187787 0.11455
H_ H_ 0.0909882 0.0830646 0.250555 0.11455
H_ H_ 0.0626057 0.0612849 0.296965 0.11455
H_ H_ 0.0899835 0.111839 0.339881 0.11455
H_ H_ 0.174589 0.248434 0.261103 0.11455
H_ H_ 0.19151 0.299335 0.304615 0.11455
H_ H_ 0.178899 0.262895 0.349874 0.11455
H_ H_ 0.200724 0.322183 0.201137 0.11455
H_ H_ 0.132219 0.335258 0.101176 0.11455
H_ H_ 0.220502 0.315545 0.108023 0.11455
H_ H_ 0.112319 0.321723 0.218452 0.11455
H_ H_ 0.0245361 0.319093 0.209822 0.11455
H_ H_ 0.0496574 0.334432 0.120781 0.11455
H_ H_ 0.367036 0.489284 0.196792 0.11455
H_ H_ 0.401719 0.0736605 0.102164 0.11455
H_ H_ 0.366107 0.47787 0.103959 0.11455
H_ H_ 0.377004 0.0666761 0.220081 0.11455
H_ H_ 0.376967 0.155372 0.218937 0.11455
H_ H_ 0.399108 0.156873 0.128388 0.11455
H_ H_ 0.429688 0.392088 0.221377 0.11455
H_ H_ 0.421823 0.430489 0.27196 0.11455
H_ H_ 0.402549 0.379579 0.309625 0.11455
H_ H_ 0.302156 0.273053 0.228076 0.11455
H_ H_ 0.284867 0.202713 0.26486 0.11455
H_ H_ 0.320011 0.212211 0.313352 0.11455
H_ H_ 0.490844 0.299093 0.375036 0.11455
H_ H_ 0.504511 0.302339 0.428155 0.11455
H_ H_ 0.244146 0.34903 0.392127 0.11455
H_ H_ 0.254955 0.354171 0.444159 0.11455
H_ H_ 0.443591 0.400847 0.503807 0.11455
H_ H_ 0.46282 0.439072 0.0526188 0.11455
H_ H_ 0.430193 0.389262 0.0913987 0.11455
H_ H_ 0.334551 0.268367 0.0125203 0.11455
H_ H_ 0.310818 0.21375 0.0531974 0.11455
H_ H_ 0.326595 0.246811 0.101058 0.11455
C_ C_ 0.234616 0.183884 0.408746 0.68181
C_ C_ 0.290684 0.184112 0.401578 -0.05681
C_ C_ 0.324421 0.177333 0.424691 -0.08735
C_ C_ 0.376726 0.180333 0.420251 -0.05681
C_ C_ 0.396706 0.178809 0.391956 -0.05681
C_ C_ 0.363221 0.177276 0.36873 -0.08735
C_ C_ 0.310175 0.180305 0.372936 -0.08735
C_ C_ 0.409495 0.177526 0.443754 -0.08735
C_ C_ 0.461235 0.176483 0.439265 -0.08735
C_ C_ 0.481298 0.172926 0.411145 -0.05681
C_ C_ 0.448773 0.176406 0.387824 -0.08735
C_ C_ 0.131315 0.273861 0.410311 0.68181
C_ C_ 0.146798 0.0786306 0.401377 0.68181
C_ C_ 0.149384 0.0231289 0.399173 -0.05681
C_ C_ 0.13288 0.494115 0.418579 -0.08735
C_ C_ 0.135622 0.439045 0.416477 -0.05681
C_ C_ 0.146568 0.415845 0.389309 -0.05681
C_ C_ 0.153206 0.448523 0.366222 -0.08735
C_ C_ 0.152792 0.502366 0.367775 -0.08735
C_ C_ 0.127401 0.406224 0.440057 -0.08735
C_ C_ 0.125718 0.353795 0.437251 -0.08735
C_ C_ 0.137683 0.330513 0.410978 -0.05681
C_ C_ 0.146454 0.3631 0.386665 -0.08735
C_ C_ 0.0404162 0.168384 0.406665 0.68181
C_ C_ 0.104332 0.122395 0.485125 0.1947
C_ C_ 0.0861607 0.11877 0.013206 -0.08735
C_ C_ 0.110841 0.144704 0.0357763 -0.08735
C_ C_ 0.138605 0.189255 0.0291204 -0.05681
C_ C_ 0.144964 0.204377 0.999203 0.18498
C_ C_ 0.180613 0.238057 0.497886 -0.08735
C_ C_ 0.197627 0.273314 0.0167284 -0.08735
C_ C_ 0.189359 0.259285 0.0452425 -0.08735
C_ C_ 0.158685 0.217179 0.0526668 0.18498
C_ C_ 0.190802 0.18988 0.0986031 0.44287
C_ C_ 0.102593 0.209376 0.0944655 0.44287
C_ C_ 0.0958024 0.198382 0.123756 -0.05681
C_ C_ 0.0460513 0.202157 0.1367 -0.08735
C_ C_ 0.0397401 0.1941 0.166424 -0.08735
C_ C_ 0.0836678 0.185401 0.184497 -0.05681
C_ C_ 0.132507 0.183148 0.171175 -0.05681
C_ C_ 0.137286 0.187823 0.141445 -0.05681
C_ C_ 0.184933 0.181831 0.12904 -0.05681
C_ C_ 0.228206 0.171571 0.14585 -0.08735
C_ C_ 0.223154 0.167028 0.175752 -0.08735
C_ C_ 0.175813 0.175399 0.189359 -0.05681
C_ C_ 0.168748 0.170347 0.219614 0.44287
C_ C_ 0.0800423 0.178103 0.214435 0.44287
C_ C_ 0.115555 0.157499 0.260917 0.18498
C_ C_ 0.0942543 0.111025 0.266296 -0.08735
C_ C_ 0.0814745 0.0972411 0.294015 -0.08735
C_ C_ 0.0950147 0.125878 0.317734 -0.08735
C_ C_ 0.122021 0.171779 0.313193 0.18498
C_ C_ 0.131859 0.189466 0.284535 -0.05681
C_ C_ 0.158031 0.235071 0.280876 -0.08735
C_ C_ 0.173733 0.262282 0.305075 -0.08735
C_ C_ 0.166642 0.242578 0.332243 0.1947
C_ C_ 0.275379 0.312089 0.15784 0.68181
C_ C_ 0.219087 0.312715 0.154827 -0.05681
C_ C_ 0.185695 0.316475 0.178867 -0.08735
C_ C_ 0.134086 0.316889 0.173839 -0.05681
C_ C_ 0.114366 0.321521 0.146351 -0.05681
C_ C_ 0.146863 0.319663 0.122927 -0.08735
C_ C_ 0.198438 0.314897 0.12637 -0.08735
C_ C_ 0.100224 0.323947 0.196502 -0.08735
C_ C_ 0.0472125 0.325134 0.190909 -0.08735
C_ C_ 0.0267925 0.321557 0.163742 -0.05681
C_ C_ 0.062398 0.326107 0.142262 -0.08735
C_ C_ 0.388526 0.221327 0.171126 0.68181
C_ C_ 0.372796 0.417955 0.152562 0.68181
C_ C_ 0.371208 0.475754 0.150945 -0.05681
C_ C_ 0.375359 0.00630241 0.174613 -0.08735
C_ C_ 0.380969 0.0592298 0.173957 -0.05681
C_ C_ 0.389919 0.0844437 0.148096 -0.05681
C_ C_ 0.39213 0.0555286 0.122564 -0.08735
C_ C_ 0.372418 0.499675 0.123803 -0.08735
C_ C_ 0.375786 0.0861633 0.199197 -0.08735
C_ C_ 0.379143 0.139104 0.198905 -0.08735
C_ C_ 0.384016 0.165726 0.172049 -0.05681
C_ C_ 0.395058 0.137946 0.148257 -0.08735
C_ C_ 0.470925 0.324846 0.161216 0.68181
C_ C_ 0.412054 0.373811 0.239811 0.1947
C_ C_ 0.415365 0.391201 0.266715 -0.08735
C_ C_ 0.396078 0.364083 0.289943 -0.08735
C_ C_ 0.363856 0.323591 0.284895 -0.05681
C_ C_ 0.353029 0.312394 0.255596 0.18498
C_ C_ 0.314872 0.275792 0.248859 -0.08735
C_ C_ 0.305616 0.238075 0.269746 -0.08735
C_ C_ 0.320065 0.246343 0.298335 -0.08735
C_ C_ 0.346938 0.289129 0.306423 0.18498
C_ C_ 0.316884 0.320482 0.352593 0.44287
C_ C_ 0.402638 0.295047 0.348649 0.44287
C_ C_ 0.410862 0.306892 0.377783 -0.05681
C_ C_ 0.461049 0.306735 0.389308 -0.08735
C_ C_ 0.466897 0.303791 0.419696 -0.08735
C_ C_ 0.423845 0.304945 0.437577 -0.05681
C_ C_ 0.373906 0.312676 0.425014 -0.05681
C_ C_ 0.368567 0.315723 0.395552 -0.05681
C_ C_ 0.322204 0.325357 0.383075 -0.05681
C_ C_ 0.280722 0.334819 0.400991 -0.08735
C_ C_ 0.286205 0.335559 0.431159 -0.08735
C_ C_ 0.333546 0.321888 0.443304 -0.05681
C_ C_ 0.34188 0.325871 0.473714 0.44287
C_ C_ 0.428894 0.310239 0.467825 0.44287
C_ C_ 0.398047 0.35302 0.0137766 0.18498
C_ C_ 0.424568 0.398192 0.0209601 -0.08735
C_ C_ 0.437367 0.408695 0.04835 -0.08735
C_ C_ 0.41977 0.377877 0.0703624 -0.08735
C_ C_ 0.392288 0.335054 0.0662386 0.18498
C_ C_ 0.378898 0.323152 0.0373646 -0.05681
C_ C_ 0.351652 0.276367 0.0332853 -0.08735
C_ C_ 0.333029 0.249724 0.0562886 -0.08735
C_ C_ 0.349381 0.262443 0.0831125 0.1947
N_ N_ 0.136334 0.162433 0.479644 -0.29468
N_ N_ 0.149331 0.202719 0.0825596 -0.17154
N_ N_ 0.122085 0.173596 0.231214 -0.17154
N_ N_ 0.141666 0.198268 0.336238 -0.29468
N_ N_ 0.375071 0.339555 0.234044 -0.29468
N_ N_ 0.355099 0.302817 0.336263 -0.17154
N_ N_ 0.38842 0.321938 0.485617 -0.17154
N_ N_ 0.38016 0.303766 0.0883867 -0.29468
O_ O_ 0.217482 0.180118 0.434175 -0.58347
O_ O_ 0.203402 0.189259 0.387348 -0.58347
O_ O_ 0.142523 0.248179 0.431792 -0.58347
O_ O_ 0.114604 0.254402 0.387901 -0.58347
O_ O_ 0.147062 0.0986901 0.426392 -0.58347
O_ O_ 0.148008 0.104502 0.378692 -0.58347
O_ O_ 0.070241 0.170536 0.427883 -0.58347
O_ O_ 0.0564649 0.171041 0.38081 -0.58347
O_ O_ 0.0654596 0.227107 0.078089 -0.46727
O_ O_ 0.236112 0.190062 0.0874329 -0.46727
O_ O_ 0.0346657 0.172618 0.224929 -0.46727
O_ O_ 0.206565 0.155408 0.236419 -0.46727
O_ O_ 0.294558 0.318142 0.181982 -0.58347
O_ O_ 0.304648 0.313185 0.13567 -0.58347
O_ O_ 0.372718 0.249143 0.192484 -0.58347
O_ O_ 0.390225 0.244255 0.147734 -0.58347
O_ O_ 0.365855 0.396048 0.17661 -0.58347
O_ O_ 0.366783 0.392855 0.130491 -0.58347
O_ O_ 0.443202 0.32457 0.18331 -0.58347
O_ O_ 0.453878 0.331014 0.136799 -0.58347
O_ O_ 0.439474 0.276493 0.333018 -0.46727
O_ O_ 0.27359 0.33135 0.34021 -0.46727
O_ O_ 0.475184 0.308385 0.478617 -0.46727
O_ O_ 0.301458 0.336117 0.490409 -0.46727
Zn Zn 0.127808 0.18253 0.884277 0.90689
Zn Zn 0.141789 0.181075 0.931869 0.90689
Zn Zn 0.372296 0.314744 0.637128 0.90689
Zn Zn 0.356149 0.319421 0.685024 0.90689
H_ H_ 0.308301 0.206458 0.944249 0.11455
H_ H_ 0.378587 0.178684 0.849292 0.11455
H_ H_ 0.286861 0.170791 0.857 0.11455
H_ H_ 0.397807 0.195302 0.965689 0.11455
H_ H_ 0.488726 0.18022 0.958603 0.11455
H_ H_ 0.466114 0.166787 0.868737 0.11455
H_ H_ 0.114915 0.0189029 0.94195 0.11455
H_ H_ 0.119643 0.430882 0.843294 0.11455
H_ H_ 0.165424 0.0245005 0.852988 0.11455
H_ H_ 0.140165 0.432006 0.962421 0.11455
H_ H_ 0.138631 0.340324 0.957526 0.11455
H_ H_ 0.131114 0.351726 0.867915 0.11455
H_ H_ 0.0822397 0.10781 0.967439 0.11455
H_ H_ 0.0670553 0.077094 0.517474 0.11455
H_ H_ 0.101253 0.123371 0.557613 0.11455
H_ H_ 0.181498 0.26198 0.972203 0.11455
H_ H_ 0.203735 0.310667 0.517168 0.11455
H_ H_ 0.175986 0.285807 0.563786 0.11455
H_ H_ 0.0123063 0.210503 0.627312 0.11455
H_ H_ 0.00413072 0.207832 0.679233 0.11455
H_ H_ 0.260515 0.178652 0.638269 0.11455
H_ H_ 0.254601 0.159231 0.688373 0.11455
H_ H_ 0.0675437 0.0911204 0.75231 0.11455
H_ H_ 0.0526197 0.0657875 0.803186 0.11455
H_ H_ 0.0786311 0.119546 0.842411 0.11455
H_ H_ 0.179603 0.235411 0.759555 0.11455
H_ H_ 0.208691 0.281093 0.799821 0.11455
H_ H_ 0.170781 0.270647 0.848673 0.11455
H_ H_ 0.190772 0.309303 0.699864 0.11455
H_ H_ 0.12014 0.310238 0.601113 0.11455
H_ H_ 0.214706 0.318203 0.608534 0.11455
H_ H_ 0.107769 0.341899 0.717902 0.11455
H_ H_ 0.0130211 0.337188 0.710935 0.11455
H_ H_ 0.0355849 0.308777 0.621686 0.11455
H_ H_ 0.34943 0.486491 0.698077 0.11455
H_ H_ 0.335888 0.0668607 0.603158 0.11455
H_ H_ 0.412252 0.471138 0.615167 0.11455
H_ H_ 0.391414 0.0684486 0.715605 0.11455
H_ H_ 0.382947 0.159903 0.712341 0.11455
H_ H_ 0.364527 0.149873 0.622373 0.11455
H_ H_ 0.424463 0.389962 0.715703 0.11455
H_ H_ 0.43792 0.423749 0.765225 0.11455
H_ H_ 0.395941 0.381701 0.805666 0.11455
H_ H_ 0.299897 0.25817 0.728132 0.11455
H_ H_ 0.269537 0.210008 0.767547 0.11455
H_ H_ 0.298931 0.230392 0.817842 0.11455
H_ H_ 0.486551 0.285259 0.873157 0.11455
H_ H_ 0.503265 0.305945 0.926753 0.11455
H_ H_ 0.238721 0.343104 0.892631 0.11455
H_ H_ 0.253683 0.370446 0.940896 0.11455
H_ H_ 0.435488 0.423421 0.00314175 0.11455
H_ H_ 0.457382 0.429555 0.554586 0.11455
H_ H_ 0.427121 0.381973 0.593821 0.11455
H_ H_ 0.333213 0.245442 0.515672 0.11455
H_ H_ 0.298552 0.207691 0.554493 0.11455
H_ H_ 0.311806 0.240021 0.604493 0.11455
C_ C_ 0.234052 0.187463 0.907814 0.68181
C_ C_ 0.291427 0.195686 0.901399 -0.05681
C_ C_ 0.325649 0.197937 0.924298 -0.08735
C_ C_ 0.376858 0.191136 0.921022 -0.05681
C_ C_ 0.395336 0.182312 0.892989 -0.05681
C_ C_ 0.36263 0.181687 0.869829 -0.08735
C_ C_ 0.310484 0.184333 0.873642 -0.08735
C_ C_ 0.409267 0.185062 0.944502 -0.08735
C_ C_ 0.461863 0.176287 0.941011 -0.08735
C_ C_ 0.480492 0.174612 0.913268 -0.05681
C_ C_ 0.447768 0.174082 0.889495 -0.08735
C_ C_ 0.120828 0.280552 0.911036 0.68181
C_ C_ 0.142508 0.0842506 0.899313 0.68181
C_ C_ 0.14274 0.0284522 0.898567 -0.05681
C_ C_ 0.125719 0.497249 0.91791 -0.08735
C_ C_ 0.12679 0.445041 0.916667 -0.05681
C_ C_ 0.122414 0.421047 0.889655 -0.05681
C_ C_ 0.117809 0.449425 0.864622 -0.08735
C_ C_ 0.121828 0.501989 0.865611 -0.08735
C_ C_ 0.136641 0.414288 0.940851 -0.08735
C_ C_ 0.13057 0.362823 0.938767 -0.08735
C_ C_ 0.122702 0.337361 0.911844 -0.05681
C_ C_ 0.124669 0.367532 0.887839 -0.08735
C_ C_ 0.0357143 0.17201 0.905974 0.68181
C_ C_ 0.094841 0.131312 0.985024 0.1947
C_ C_ 0.0922116 0.108468 0.512984 -0.08735
C_ C_ 0.115847 0.132086 0.536156 -0.08735
C_ C_ 0.142469 0.176438 0.52989 -0.05681
C_ C_ 0.155811 0.190025 0.502062 0.18498
C_ C_ 0.174391 0.246196 0.99356 -0.08735
C_ C_ 0.184504 0.273715 0.52 -0.08735
C_ C_ 0.171662 0.259739 0.547903 -0.08735
C_ C_ 0.151839 0.210845 0.55368 0.18498
C_ C_ 0.18388 0.182859 0.600208 0.44287
C_ C_ 0.0975505 0.207394 0.597236 0.44287
C_ C_ 0.089994 0.197396 0.627079 -0.05681
C_ C_ 0.0448147 0.201515 0.640246 -0.08735
C_ C_ 0.0411627 0.202525 0.670065 -0.08735
C_ C_ 0.0820618 0.186292 0.686207 -0.05681
C_ C_ 0.125266 0.169656 0.673114 -0.05681
C_ C_ 0.129496 0.176414 0.642509 -0.05681
C_ C_ 0.178304 0.172843 0.629346 -0.05681
C_ C_ 0.221486 0.169071 0.64685 -0.08735
C_ C_ 0.216341 0.162872 0.675223 -0.08735
C_ C_ 0.168964 0.164779 0.688956 -0.05681
C_ C_ 0.164497 0.155227 0.719365 0.44287
C_ C_ 0.0805338 0.189661 0.715958 0.44287
C_ C_ 0.114936 0.155698 0.762843 0.18498
C_ C_ 0.0866402 0.111962 0.769575 -0.08735
C_ C_ 0.0731246 0.099811 0.798136 -0.08735
C_ C_ 0.0907372 0.127989 0.820886 -0.08735
C_ C_ 0.118708 0.172333 0.814985 0.18498
C_ C_ 0.12962 0.186917 0.785419 -0.05681
C_ C_ 0.163763 0.226125 0.77989 -0.08735
C_ C_ 0.176379 0.257553 0.803365 -0.08735
C_ C_ 0.159211 0.24582 0.830776 0.1947
C_ C_ 0.265369 0.30915 0.660775 0.68181
C_ C_ 0.20948 0.312768 0.655404 -0.05681
C_ C_ 0.17521 0.317406 0.6789 -0.08735
C_ C_ 0.124304 0.323311 0.673698 -0.05681
C_ C_ 0.103064 0.316134 0.645626 -0.05681
C_ C_ 0.135643 0.31451 0.622033 -0.08735
C_ C_ 0.188301 0.312541 0.626616 -0.08735
C_ C_ 0.091205 0.330449 0.69702 -0.08735
C_ C_ 0.0381986 0.33126 0.692546 -0.08735
C_ C_ 0.0175662 0.324223 0.665054 -0.05681
C_ C_ 0.0506879 0.318122 0.641578 -0.08735
C_ C_ 0.373088 0.218775 0.666398 0.68181
C_ C_ 0.365236 0.416543 0.65482 0.68181
C_ C_ 0.374565 0.471743 0.654842 -0.05681
C_ C_ 0.372969 0.00313603 0.674791 -0.08735
C_ C_ 0.384137 0.0552045 0.671172 -0.05681
C_ C_ 0.368741 0.0803345 0.64475 -0.05681
C_ C_ 0.351518 0.050168 0.622041 -0.08735
C_ C_ 0.396218 0.495329 0.630122 -0.08735
C_ C_ 0.387428 0.0854842 0.694621 -0.08735
C_ C_ 0.37881 0.13682 0.6937 -0.08735
C_ C_ 0.372815 0.163051 0.667518 -0.05681
C_ C_ 0.364359 0.134503 0.643078 -0.08735
C_ C_ 0.462316 0.323655 0.658027 0.68181
C_ C_ 0.405866 0.37171 0.733937 0.1947
C_ C_ 0.413816 0.390562 0.762032 -0.08735
C_ C_ 0.393003 0.365633 0.784845 -0.08735
C_ C_ 0.359495 0.325584 0.7821 -0.05681
C_ C_ 0.350578 0.306232 0.753749 0.18498
C_ C_ 0.316224 0.26658 0.748666 -0.08735
C_ C_ 0.297078 0.239943 0.772057 -0.08735
C_ C_ 0.312903 0.253043 0.800038 -0.08735
C_ C_ 0.342593 0.297796 0.805647 0.18498
C_ C_ 0.311736 0.328284 0.852673 0.44287
C_ C_ 0.395039 0.29652 0.846524 0.44287
C_ C_ 0.405164 0.307011 0.875612 -0.05681
C_ C_ 0.453988 0.301113 0.887665 -0.08735
C_ C_ 0.463995 0.309106 0.917939 -0.08735
C_ C_ 0.42241 0.322523 0.935757 -0.05681
C_ C_ 0.374002 0.331172 0.924281 -0.05681
C_ C_ 0.364476 0.322476 0.894086 -0.05681
C_ C_ 0.316868 0.331831 0.88197 -0.05681
C_ C_ 0.276823 0.339062 0.900777 -0.08735
C_ C_ 0.285295 0.35133 0.929698 -0.08735
C_ C_ 0.334733 0.343827 0.942122 -0.05681
C_ C_ 0.342614 0.348624 0.971694 0.44287
C_ C_ 0.42837 0.329079 0.965594 0.44287
C_ C_ 0.395166 0.336896 0.515378 0.18498
C_ C_ 0.423269 0.381448 0.520835 -0.08735
C_ C_ 0.433366 0.396147 0.54928 -0.08735
C_ C_ 0.415774 0.368527 0.572956 -0.08735
C_ C_ 0.384981 0.326065 0.568549 0.18498
C_ C_ 0.375041 0.309606 0.539337 -0.05681
C_ C_ 0.345608 0.264015 0.535491 -0.08735
C_ C_ 0.327044 0.236567 0.558453 -0.08735
C_ C_ 0.332731 0.257855 0.586265 0.1947
N_ N_ 0.125645 0.171992 0.977813 -0.29468
N_ N_ 0.142377 0.196131 0.583812 -0.17154
N_ N_ 0.119813 0.169073 0.732136 -0.17154
N_ N_ 0.140233 0.199115 0.836653 -0.29468
N_ N_ 0.370719 0.332051 0.730566 -0.29468
N_ N_ 0.350464 0.311772 0.835036 -0.17154
N_ N_ 0.388863 0.339329 0.983379 -0.17154
N_ N_ 0.36056 0.300299 0.590528 -0.29468
O_ O_ 0.217801 0.180259 0.933347 -0.58347
O_ O_ 0.202231 0.199485 0.888227 -0.58347
O_ O_ 0.143011 0.257558 0.930754 -0.58347
O_ O_ 0.10531 0.25777 0.889323 -0.58347
O_ O_ 0.135961 0.107424 0.922707 -0.58347
O_ O_ 0.146214 0.109276 0.875628 -0.58347
O_ O_ 0.066353 0.17902 0.927128 -0.58347
O_ O_ 0.0529411 0.168775 0.880803 -0.58347
O_ O_ 0.0612948 0.226352 0.581495 -0.46727
O_ O_ 0.229066 0.187238 0.588813 -0.46727
O_ O_ 0.0446501 0.214488 0.728302 -0.46727
O_ O_ 0.197779 0.127284 0.73344 -0.46727
O_ O_ 0.281762 0.30998 0.686566 -0.58347
O_ O_ 0.296538 0.313565 0.640518 -0.58347
O_ O_ 0.360871 0.24555 0.688109 -0.58347
O_ O_ 0.377182 0.239495 0.642887 -0.58347
O_ O_ 0.357899 0.396806 0.679141 -0.58347
O_ O_ 0.364047 0.389277 0.632743 -0.58347
O_ O_ 0.434262 0.327236 0.679068 -0.58347
O_ O_ 0.445873 0.313967 0.634458 -0.58347
O_ O_ 0.431119 0.277802 0.829402 -0.46727
O_ O_ 0.268754 0.342867 0.840628 -0.46727
O_ O_ 0.472885 0.3216 0.977217 -0.46727
O_ O_ 0.311627 0.376203 0.987261 -0.46727
Zn Zn 0.129764 0.679008 0.381206 0.90689
Zn Zn 0.139815 0.677184 0.428408 0.90689
Zn Zn 0.384873 0.820685 0.130257 0.90689
Zn Zn 0.37741 0.825096 0.17816 0.90689
H_ H_ 0.30637 0.69856 0.443599 0.11455
H_ H_ 0.367223 0.666115 0.343939 0.11455
H_ H_ 0.280505 0.672453 0.351521 0.11455
H_ H_ 0.388803 0.708007 0.459107 0.11455
H_ H_ 0.483786 0.708292 0.449364 0.11455
H_ H_ 0.458348 0.666412 0.362571 0.11455
H_ H_ 0.123604 0.513797 0.438001 0.11455
H_ H_ 0.179907 0.928138 0.352876 0.11455
H_ H_ 0.159781 0.521213 0.348436 0.11455
H_ H_ 0.0852482 0.923338 0.459835 0.11455
H_ H_ 0.0917311 0.828805 0.455225 0.11455
H_ H_ 0.143799 0.846497 0.369534 0.11455
H_ H_ 0.0984686 0.59306 0.462258 0.11455
H_ H_ 0.0731052 0.567794 0.0162704 0.11455
H_ H_ 0.115183 0.614229 0.0556346 0.11455
H_ H_ 0.184829 0.747834 0.475375 0.11455
H_ H_ 0.226162 0.793141 0.0104702 0.11455
H_ H_ 0.212753 0.767511 0.0593171 0.11455
H_ H_ 0.0220603 0.70332 0.123295 0.11455
H_ H_ 0.0126608 0.696853 0.173269 0.11455
H_ H_ 0.270714 0.66252 0.138376 0.11455
H_ H_ 0.258914 0.643463 0.186779 0.11455
H_ H_ 0.0551227 0.60116 0.250066 0.11455
H_ H_ 0.0414033 0.575192 0.300036 0.11455
H_ H_ 0.0754662 0.62344 0.339415 0.11455
H_ H_ 0.173323 0.742676 0.257201 0.11455
H_ H_ 0.204658 0.78864 0.298752 0.11455
H_ H_ 0.190619 0.754939 0.348882 0.11455
H_ H_ 0.206943 0.793472 0.194082 0.11455
H_ H_ 0.140425 0.835172 0.0952874 0.11455
H_ H_ 0.228471 0.823797 0.100904 0.11455
H_ H_ 0.117513 0.798164 0.210547 0.11455
H_ H_ 0.0264051 0.810012 0.202721 0.11455
H_ H_ 0.0556978 0.824755 0.111861 0.11455
H_ H_ 0.368589 0.988908 0.196026 0.11455
H_ H_ 0.371265 0.566834 0.100838 0.11455
H_ H_ 0.383427 0.979771 0.10426 0.11455
H_ H_ 0.384212 0.577716 0.219099 0.11455
H_ H_ 0.38578 0.668495 0.211755 0.11455
H_ H_ 0.376018 0.651486 0.121586 0.11455
H_ H_ 0.409912 0.913587 0.212702 0.11455
H_ H_ 0.437611 0.937327 0.261987 0.11455
H_ H_ 0.411981 0.883714 0.303304 0.11455
H_ H_ 0.325458 0.757914 0.221151 0.11455
H_ H_ 0.28873 0.713444 0.260871 0.11455
H_ H_ 0.303233 0.735188 0.30869 0.11455
H_ H_ 0.49525 0.819702 0.373865 0.11455
H_ H_ 0.501282 0.808745 0.427926 0.11455
H_ H_ 0.246051 0.850447 0.381857 0.11455
H_ H_ 0.245885 0.843944 0.433706 0.11455
H_ H_ 0.411173 0.920693 0.500856 0.11455
H_ H_ 0.489625 0.917982 0.0472631 0.11455
H_ H_ 0.453441 0.869463 0.0852189 0.11455
H_ H_ 0.356666 0.755021 0.00338589 0.11455
H_ H_ 0.3106 0.716664 0.0449537 0.11455
H_ H_ 0.329478 0.74346 0.0927618 0.11455
C_ C_ 0.230479 0.690759 0.403957 0.68181
C_ C_ 0.284855 0.684872 0.398604 -0.05681
C_ C_ 0.319825 0.692205 0.421505 -0.08735
C_ C_ 0.37142 0.689278 0.415983 -0.05681
C_ C_ 0.390844 0.679823 0.388445 -0.05681
C_ C_ 0.355602 0.666773 0.366496 -0.08735
C_ C_ 0.304223 0.675904 0.370572 -0.08735
C_ C_ 0.405821 0.699265 0.437513 -0.08735
C_ C_ 0.45781 0.692848 0.433361 -0.08735
C_ C_ 0.476059 0.676165 0.406829 -0.05681
C_ C_ 0.443167 0.669305 0.383833 -0.08735
C_ C_ 0.118889 0.775927 0.41053 0.68181
C_ C_ 0.148577 0.581833 0.397439 0.68181
C_ C_ 0.145924 0.525353 0.39453 -0.05681
C_ C_ 0.128228 0.99104 0.421662 -0.08735
C_ C_ 0.124031 0.938435 0.418766 -0.05681
C_ C_ 0.146259 0.916827 0.394134 -0.05681
C_ C_ 0.167453 0.946551 0.372686 -0.08735
C_ C_ 0.172479 0.999863 0.375242 -0.08735
C_ C_ 0.102337 0.90812 0.440606 -0.08735
C_ C_ 0.103764 0.854759 0.43799 -0.08735
C_ C_ 0.116967 0.833195 0.410994 -0.05681
C_ C_ 0.138604 0.863905 0.390363 -0.08735
C_ C_ 0.0336809 0.669979 0.406751 0.68181
C_ C_ 0.106068 0.620608 0.479426 0.1947
C_ C_ 0.0956221 0.601952 0.0106573 -0.08735
C_ C_ 0.121294 0.625276 0.033902 -0.08735
C_ C_ 0.149603 0.67005 0.0281461 -0.05681
C_ C_ 0.155352 0.686853 0.998485 0.18498
C_ C_ 0.167315 0.741631 0.495217 -0.08735
C_ C_ 0.209557 0.756381 0.0148953 -0.08735
C_ C_ 0.200942 0.741577 0.0435333 -0.08735
C_ C_ 0.168852 0.701257 0.0510396 0.18498
C_ C_ 0.200925 0.678422 0.0981198 0.44287
C_ C_ 0.11485 0.700343 0.0929895 0.44287
C_ C_ 0.104558 0.691613 0.122602 -0.05681
C_ C_ 0.0550168 0.697114 0.135091 -0.08735
C_ C_ 0.0481744 0.687829 0.163064 -0.08735
C_ C_ 0.0872858 0.678993 0.182044 -0.05681
C_ C_ 0.137783 0.672279 0.169752 -0.05681
C_ C_ 0.145372 0.677059 0.139697 -0.05681
C_ C_ 0.193392 0.671753 0.12756 -0.05681
C_ C_ 0.232389 0.662162 0.145823 -0.08735
C_ C_ 0.225508 0.654332 0.175377 -0.08735
C_ C_ 0.178345 0.660641 0.187782 -0.05681
C_ C_ 0.169835 0.657378 0.217271 0.44287
C_ C_ 0.0819641 0.68174 0.212459 0.44287
C_ C_ 0.113089 0.658866 0.26047 0.18498
C_ C_ 0.0806863 0.617909 0.267033 -0.08735
C_ C_ 0.0677977 0.605708 0.296109 -0.08735
C_ C_ 0.0903048 0.631821 0.318168 -0.08735
C_ C_ 0.117478 0.67498 0.312964 0.18498
C_ C_ 0.134399 0.686769 0.284387 -0.05681
C_ C_ 0.165975 0.728813 0.279663 -0.08735
C_ C_ 0.190863 0.752311 0.302146 -0.08735
C_ C_ 0.173595 0.738023 0.331068 0.1947
C_ C_ 0.28156 0.812745 0.15274 0.68181
C_ C_ 0.22523 0.806706 0.147898 -0.05681
C_ C_ 0.19298 0.79518 0.171222 -0.08735
C_ C_ 0.139154 0.799324 0.166285 -0.05681
C_ C_ 0.120803 0.812294 0.138654 -0.05681
C_ C_ 0.154072 0.819043 0.115068 -0.08735
C_ C_ 0.204215 0.813398 0.119649 -0.08735
C_ C_ 0.10385 0.802118 0.190153 -0.08735
C_ C_ 0.052663 0.814353 0.185253 -0.08735
C_ C_ 0.03408 0.821963 0.156956 -0.05681
C_ C_ 0.0685016 0.819832 0.133264 -0.08735
C_ C_ 0.382968 0.723729 0.162261 0.68181
C_ C_ 0.368017 0.920792 0.148095 0.68181
C_ C_ 0.37486 0.977018 0.148864 -0.05681
C_ C_ 0.370996 0.506712 0.176435 -0.08735
C_ C_ 0.370711 0.56038 0.173125 -0.05681
C_ C_ 0.373538 0.581165 0.146119 -0.05681
C_ C_ 0.372968 0.550863 0.121947 -0.08735
C_ C_ 0.382968 0.0034385 0.123174 -0.08735
C_ C_ 0.382487 0.591869 0.197167 -0.08735
C_ C_ 0.381116 0.643962 0.192514 -0.08735
C_ C_ 0.379344 0.666683 0.165878 -0.05681
C_ C_ 0.375348 0.634966 0.142245 -0.08735
C_ C_ 0.478194 0.831171 0.155891 0.68181
C_ C_ 0.408676 0.885621 0.229228 0.1947
C_ C_ 0.422567 0.900082 0.257154 -0.08735
C_ C_ 0.402586 0.873137 0.280946 -0.08735
C_ C_ 0.372701 0.831069 0.277076 -0.05681
C_ C_ 0.363286 0.8144 0.247965 0.18498
C_ C_ 0.335924 0.768804 0.242995 -0.08735
C_ C_ 0.31623 0.740499 0.265315 -0.08735
C_ C_ 0.323332 0.757298 0.29258 -0.08735
C_ C_ 0.353105 0.80026 0.30046 0.18498
C_ C_ 0.31932 0.824967 0.346623 0.44287
C_ C_ 0.40783 0.80656 0.342988 0.44287
C_ C_ 0.411211 0.812657 0.373347 -0.05681
C_ C_ 0.460817 0.814271 0.387092 -0.08735
C_ C_ 0.46355 0.814832 0.416886 -0.08735
C_ C_ 0.419234 0.821569 0.433779 -0.05681
C_ C_ 0.371811 0.825818 0.420414 -0.05681
C_ C_ 0.367641 0.817659 0.390288 -0.05681
C_ C_ 0.320036 0.821029 0.376478 -0.05681
C_ C_ 0.278056 0.833936 0.392591 -0.08735
C_ C_ 0.28055 0.834701 0.421809 -0.08735
C_ C_ 0.326368 0.833144 0.43684 -0.05681
C_ C_ 0.331294 0.837827 0.466637 0.44287
C_ C_ 0.420485 0.822323 0.463716 0.44287
C_ C_ 0.406513 0.845771 0.00758661 0.18498
C_ C_ 0.443165 0.882737 0.0143322 -0.08735
C_ C_ 0.459404 0.89305 0.0423219 -0.08735
C_ C_ 0.43697 0.866037 0.0649158 -0.08735
C_ C_ 0.402079 0.827979 0.059168 0.18498
C_ C_ 0.391395 0.812105 0.0295914 -0.05681
C_ C_ 0.362399 0.76886 0.0246141 -0.08735
C_ C_ 0.34294 0.742906 0.0474717 -0.08735
C_ C_ 0.352857 0.759485 0.0755407 0.1947
N_ N_ 0.129483 0.664964 0.475701 -0.29468
N_ N_ 0.161431 0.690755 0.0814507 -0.17154
N_ N_ 0.122194 0.668944 0.2292 -0.17154
N_ N_ 0.14125 0.696907 0.33522 -0.29468
N_ N_ 0.380137 0.843121 0.224591 -0.29468
N_ N_ 0.360142 0.812516 0.330701 -0.17154
N_ N_ 0.379036 0.831671 0.479598 -0.17154
N_ N_ 0.379553 0.803275 0.0812556 -0.29468
O_ O_ 0.213891 0.691934 0.429019 -0.58347
O_ O_ 0.201894 0.684188 0.382476 -0.58347
O_ O_ 0.119561 0.750688 0.434609 -0.58347
O_ O_ 0.127974 0.751507 0.386812 -0.58347
O_ O_ 0.158487 0.602562 0.42098 -0.58347
O_ O_ 0.136061 0.607328 0.375429 -0.58347
O_ O_ 0.0638108 0.663356 0.427657 -0.58347
O_ O_ 0.0533661 0.675489 0.382261 -0.58347
O_ O_ 0.0773894 0.71771 0.0766613 -0.46727
O_ O_ 0.247647 0.672692 0.0865224 -0.46727
O_ O_ 0.0357283 0.687361 0.224007 -0.46727
O_ O_ 0.209471 0.66065 0.235557 -0.46727
O_ O_ 0.300494 0.811193 0.177363 -0.58347
O_ O_ 0.310126 0.81727 0.131253 -0.58347
O_ O_ 0.39127 0.751435 0.184148 -0.58347
O_ O_ 0.384195 0.742048 0.137153 -0.58347
O_ O_ 0.353221 0.898701 0.169653 -0.58347
O_ O_ 0.385391 0.894806 0.126541 -0.58347
O_ O_ 0.450074 0.840975 0.176677 -0.58347
O_ O_ 0.459993 0.823286 0.130461 -0.58347
O_ O_ 0.448295 0.795145 0.326169 -0.46727
O_ O_ 0.276558 0.834116 0.333689 -0.46727
O_ O_ 0.463161 0.822326 0.475849 -0.46727
O_ O_ 0.292848 0.850582 0.482915 -0.46727
Zn Zn 0.110171 0.68729 0.880947 0.90689
Zn Zn 0.12394 0.677521 0.930619 0.90689
Zn Zn 0.35563 0.814339 0.633509 0.90689
Zn Zn 0.345521 0.820658 0.680659 0.90689
H_ H_ 0.288215 0.701238 0.939603 0.11455
H_ H_ 0.356025 0.67943 0.842866 0.11455
H_ H_ 0.264849 0.662856 0.853787 0.11455
H_ H_ 0.374791 0.688587 0.960599 0.11455
H_ H_ 0.467052 0.689326 0.953784 0.11455
H_ H_ 0.444031 0.691434 0.861633 0.11455
H_ H_ 0.131049 0.51429 0.939056 0.11455
H_ H_ 0.151667 0.928627 0.850337 0.11455
H_ H_ 0.120231 0.523978 0.846607 0.11455
H_ H_ 0.104667 0.937017 0.964763 0.11455
H_ H_ 0.101607 0.839871 0.962552 0.11455
H_ H_ 0.143739 0.851717 0.874123 0.11455
H_ H_ 0.0817817 0.602188 0.964193 0.11455
H_ H_ 0.0747869 0.567163 0.509851 0.11455
H_ H_ 0.0933981 0.622699 0.552595 0.11455
H_ H_ 0.193583 0.733123 0.969708 0.11455
H_ H_ 0.201374 0.80501 0.517408 0.11455
H_ H_ 0.17539 0.784385 0.563534 0.11455
H_ H_ 0.991175 0.691986 0.618947 0.11455
H_ H_ 0.980201 0.694487 0.672096 0.11455
H_ H_ 0.243354 0.68772 0.637771 0.11455
H_ H_ 0.228812 0.672624 0.688845 0.11455
H_ H_ 0.049988 0.585478 0.750385 0.11455
H_ H_ 0.0228708 0.567079 0.799006 0.11455
H_ H_ 0.0491287 0.626611 0.838736 0.11455
H_ H_ 0.146489 0.740727 0.755189 0.11455
H_ H_ 0.167836 0.796959 0.794272 0.11455
H_ H_ 0.156235 0.768062 0.84751 0.11455
H_ H_ 0.182522 0.80499 0.69392 0.11455
H_ H_ 0.117478 0.823045 0.594096 0.11455
H_ H_ 0.201493 0.809781 0.60459 0.11455
H_ H_ 0.0924194 0.803746 0.71285 0.11455
H_ H_ 0.00622898 0.794081 0.704651 0.11455
H_ H_ 0.0253354 0.819791 0.614728 0.11455
H_ H_ 0.386239 0.980715 0.692835 0.11455
H_ H_ 0.413076 0.564984 0.606689 0.11455
H_ H_ 0.321827 0.978297 0.609347 0.11455
H_ H_ 0.327328 0.568741 0.715442 0.11455
H_ H_ 0.324294 0.662646 0.708906 0.11455
H_ H_ 0.393385 0.646925 0.624906 0.11455
H_ H_ 0.407637 0.889453 0.71647 0.11455
H_ H_ 0.422521 0.915472 0.767903 0.11455
H_ H_ 0.369757 0.875405 0.806278 0.11455
H_ H_ 0.264225 0.777742 0.722756 0.11455
H_ H_ 0.232873 0.723193 0.761425 0.11455
H_ H_ 0.265376 0.72988 0.809563 0.11455
H_ H_ 0.475182 0.812634 0.86148 0.11455
H_ H_ 0.50001 0.817582 0.912795 0.11455
H_ H_ 0.228319 0.830364 0.896245 0.11455
H_ H_ 0.249979 0.850382 0.942641 0.11455
H_ H_ 0.452304 0.91038 0.999344 0.11455
H_ H_ 0.442073 0.937529 0.552022 0.11455
H_ H_ 0.421265 0.875334 0.587827 0.11455
H_ H_ 0.336601 0.753412 0.506702 0.11455
H_ H_ 0.310177 0.700022 0.54773 0.11455
H_ H_ 0.317447 0.735292 0.598343 0.11455
C_ C_ 0.212921 0.681131 0.899417 0.68181
C_ C_ 0.268933 0.685705 0.895286 -0.05681
C_ C_ 0.303155 0.686691 0.919987 -0.08735
C_ C_ 0.354692 0.685007 0.916047 -0.05681
C_ C_ 0.374336 0.690906 0.887349 -0.05681
C_ C_ 0.340977 0.684675 0.863964 -0.08735
C_ C_ 0.289813 0.674325 0.869603 -0.08735
C_ C_ 0.387777 0.689246 0.938774 -0.08735
C_ C_ 0.441628 0.692679 0.934705 -0.08735
C_ C_ 0.461872 0.693343 0.906335 -0.05681
C_ C_ 0.42688 0.692405 0.88249 -0.08735
C_ C_ 0.11638 0.781072 0.914735 0.68181
C_ C_ 0.119167 0.583578 0.895957 0.68181
C_ C_ 0.121454 0.52708 0.892865 -0.05681
C_ C_ 0.129784 0.999375 0.922928 -0.08735
C_ C_ 0.123168 0.945996 0.92052 -0.05681
C_ C_ 0.129581 0.922172 0.894522 -0.05681
C_ C_ 0.145983 0.948743 0.870666 -0.08735
C_ C_ 0.153221 0.00122416 0.87308 -0.08735
C_ C_ 0.112459 0.917817 0.945299 -0.08735
C_ C_ 0.110434 0.863609 0.943898 -0.08735
C_ C_ 0.116383 0.839233 0.917537 -0.05681
C_ C_ 0.131572 0.869086 0.893943 -0.08735
C_ C_ 0.0151788 0.67852 0.910292 0.68181
C_ C_ 0.100706 0.621006 0.982772 0.1947
C_ C_ 0.0931961 0.603911 0.507647 -0.08735
C_ C_ 0.102453 0.636163 0.531391 -0.08735
C_ C_ 0.125999 0.682952 0.527796 -0.05681
C_ C_ 0.138662 0.697157 0.499381 0.18498
C_ C_ 0.184211 0.72765 0.992206 -0.08735
C_ C_ 0.180868 0.771978 0.519292 -0.08735
C_ C_ 0.162591 0.761144 0.546484 -0.08735
C_ C_ 0.135504 0.71521 0.551449 0.18498
C_ C_ 0.166783 0.685626 0.59826 0.44287
C_ C_ 0.0788372 0.701781 0.592431 0.44287
C_ C_ 0.0711673 0.690021 0.622653 -0.05681
C_ C_ 0.0229811 0.692786 0.633833 -0.08735
C_ C_ 0.0165067 0.685532 0.663587 -0.08735
C_ C_ 0.0590978 0.681553 0.681554 -0.05681
C_ C_ 0.107473 0.677703 0.669397 -0.05681
C_ C_ 0.113747 0.683971 0.639916 -0.05681
C_ C_ 0.161707 0.679218 0.628285 -0.05681
C_ C_ 0.203329 0.678812 0.646937 -0.08735
C_ C_ 0.198371 0.671237 0.675572 -0.08735
C_ C_ 0.149056 0.669049 0.687257 -0.05681
C_ C_ 0.141512 0.663331 0.717316 0.44287
C_ C_ 0.0548658 0.679947 0.711443 0.44287
C_ C_ 0.0872512 0.656747 0.759127 0.18498
C_ C_ 0.0652996 0.608994 0.766967 -0.08735
C_ C_ 0.0459978 0.601033 0.79395 -0.08735
C_ C_ 0.060171 0.633998 0.816944 -0.08735
C_ C_ 0.0905751 0.676562 0.811079 0.18498
C_ C_ 0.100946 0.689183 0.781205 -0.05681
C_ C_ 0.12965 0.734967 0.776118 -0.08735
C_ C_ 0.150742 0.761102 0.799379 -0.08735
C_ C_ 0.141392 0.744561 0.827862 0.1947
C_ C_ 0.253344 0.813114 0.654542 0.68181
C_ C_ 0.198397 0.812279 0.649387 -0.05681
C_ C_ 0.167335 0.810868 0.67262 -0.08735
C_ C_ 0.116381 0.810769 0.668301 -0.05681
C_ C_ 0.0964282 0.815699 0.639252 -0.05681
C_ C_ 0.129922 0.823248 0.616572 -0.08735
C_ C_ 0.180086 0.818459 0.622002 -0.08735
C_ C_ 0.0810143 0.806507 0.691645 -0.08735
C_ C_ 0.0300294 0.805653 0.687196 -0.08735
C_ C_ 0.00915978 0.809585 0.660099 -0.05681
C_ C_ 0.0406901 0.81615 0.635927 -0.08735
C_ C_ 0.359985 0.717317 0.664748 0.68181
C_ C_ 0.352324 0.917246 0.652657 0.68181
C_ C_ 0.353281 0.97312 0.651261 -0.05681
C_ C_ 0.36253 0.502826 0.678222 -0.08735
C_ C_ 0.367611 0.555867 0.676264 -0.05681
C_ C_ 0.378468 0.577723 0.648902 -0.05681
C_ C_ 0.399959 0.548315 0.627551 -0.08735
C_ C_ 0.339272 0.999785 0.626434 -0.08735
C_ C_ 0.346372 0.585721 0.697095 -0.08735
C_ C_ 0.342655 0.638841 0.693427 -0.08735
C_ C_ 0.357962 0.660802 0.667103 -0.05681
C_ C_ 0.377364 0.629743 0.645084 -0.08735
C_ C_ 0.451132 0.818267 0.659722 0.68181
C_ C_ 0.384736 0.871425 0.733478 0.1947
C_ C_ 0.389692 0.889271 0.761996 -0.08735
C_ C_ 0.367153 0.861866 0.783513 -0.08735
C_ C_ 0.340442 0.817906 0.777318 -0.05681
C_ C_ 0.328729 0.805603 0.748002 0.18498
C_ C_ 0.287359 0.772582 0.741598 -0.08735
C_ C_ 0.267613 0.743415 0.763772 -0.08735
C_ C_ 0.286531 0.748114 0.792674 -0.08735
C_ C_ 0.320375 0.789028 0.800651 0.18498
C_ C_ 0.297042 0.81422 0.848286 0.44287
C_ C_ 0.384345 0.796677 0.839817 0.44287
C_ C_ 0.397677 0.812626 0.867925 -0.05681
C_ C_ 0.448213 0.817043 0.876689 -0.08735
C_ C_ 0.459728 0.818398 0.906368 -0.08735
C_ C_ 0.420505 0.82055 0.927487 -0.05681
C_ C_ 0.370145 0.824567 0.918024 -0.05681
C_ C_ 0.358448 0.81573 0.888538 -0.05681
C_ C_ 0.307417 0.820127 0.878767 -0.05681
C_ C_ 0.268881 0.833769 0.89941 -0.08735
C_ C_ 0.281581 0.837259 0.929379 -0.08735
C_ C_ 0.332833 0.835138 0.938608 -0.05681
C_ C_ 0.345239 0.840525 0.96764 0.44287
C_ C_ 0.431798 0.82448 0.957697 0.44287
C_ C_ 0.385599 0.845273 0.5102 0.18498
C_ C_ 0.405158 0.893661 0.517721 -0.08735
C_ C_ 0.421458 0.901794 0.546244 -0.08735
C_ C_ 0.409327 0.866081 0.567232 -0.08735
C_ C_ 0.376729 0.827718 0.561352 0.18498
C_ C_ 0.367716 0.811964 0.533081 -0.05681
C_ C_ 0.342364 0.7661 0.52837 -0.08735
C_ C_ 0.32279 0.739133 0.550642 -0.08735
C_ C_ 0.331663 0.757438 0.579292 0.1947
N_ N_ 0.13117 0.661079 0.976308 -0.29468
N_ N_ 0.126525 0.69844 0.581136 -0.17154
N_ N_ 0.094296 0.667792 0.728792 -0.17154
N_ N_ 0.110434 0.703333 0.833465 -0.29468
N_ N_ 0.348067 0.83651 0.726919 -0.29468
N_ N_ 0.33356 0.798543 0.830455 -0.17154
N_ N_ 0.39462 0.835445 0.977273 -0.17154
N_ N_ 0.356971 0.80118 0.584123 -0.29468
O_ O_ 0.195994 0.681817 0.925078 -0.58347
O_ O_ 0.185546 0.692185 0.878258 -0.58347
O_ O_ 0.125312 0.754954 0.937145 -0.58347
O_ O_ 0.113694 0.760974 0.890762 -0.58347
O_ O_ 0.117093 0.605274 0.920109 -0.58347
O_ O_ 0.12033 0.610488 0.873981 -0.58347
O_ O_ 0.0444913 0.673097 0.931571 -0.58347
O_ O_ 0.0366455 0.684394 0.886521 -0.58347
O_ O_ 0.0394976 0.705168 0.574377 -0.46727
O_ O_ 0.21207 0.681398 0.585898 -0.46727
O_ O_ 0.0101506 0.681797 0.723719 -0.46727
O_ O_ 0.17909 0.658271 0.735357 -0.46727
O_ O_ 0.271624 0.829515 0.67851 -0.58347
O_ O_ 0.282616 0.800345 0.634371 -0.58347
O_ O_ 0.338996 0.74326 0.684486 -0.58347
O_ O_ 0.367403 0.738457 0.64035 -0.58347
O_ O_ 0.355383 0.896285 0.676932 -0.58347
O_ O_ 0.34594 0.889557 0.630232 -0.58347
O_ O_ 0.420717 0.81241 0.680796 -0.58347
O_ O_ 0.431833 0.825568 0.635737 -0.58347
O_ O_ 0.41898 0.783656 0.821939 -0.46727
O_ O_ 0.251601 0.823712 0.838375 -0.46727
O_ O_ 0.476361 0.814142 0.966524 -0.46727
O_ O_ 0.308961 0.85132 0.986817 -0.46727
Zn Zn 0.633267 0.179026 0.380551 0.90689
Zn Zn 0.640824 0.17315 0.427602 0.90689
Zn Zn 0.877377 0.310922 0.134044 0.90689
Zn Zn 0.866417 0.319966 0.182017 0.90689
H_ H_ 0.806582 0.201331 0.436789 0.11455
H_ H_ 0.880535 0.138198 0.34678 0.11455
H_ H_ 0.789149 0.157255 0.352359 0.11455
H_ H_ 0.892004 0.192707 0.461171 0.11455
H_ H_ 0.985308 0.203644 0.453244 0.11455
H_ H_ 0.968195 0.141002 0.368605 0.11455
H_ H_ 0.632322 0.00585134 0.441194 0.11455
H_ H_ 0.668884 0.427095 0.345174 0.11455
H_ H_ 0.60288 0.0190675 0.352214 0.11455
H_ H_ 0.647722 0.426498 0.462675 0.11455
H_ H_ 0.630163 0.33572 0.459186 0.11455
H_ H_ 0.641501 0.347376 0.36715 0.11455
H_ H_ 0.587725 0.0947115 0.464244 0.11455
H_ H_ 0.589378 0.075371 0.0131827 0.11455
H_ H_ 0.630895 0.120173 0.0522003 0.11455
H_ H_ 0.705413 0.227001 0.472226 0.11455
H_ H_ 0.732646 0.303209 0.00827006 0.11455
H_ H_ 0.708104 0.286419 0.0589953 0.11455
H_ H_ 0.511823 0.204348 0.121983 0.11455
H_ H_ 0.502723 0.20457 0.171453 0.11455
H_ H_ 0.764883 0.185456 0.138671 0.11455
H_ H_ 0.756013 0.186377 0.188871 0.11455
H_ H_ 0.568211 0.0886795 0.247762 0.11455
H_ H_ 0.538593 0.0704956 0.296018 0.11455
H_ H_ 0.572782 0.117925 0.336886 0.11455
H_ H_ 0.65891 0.250161 0.257492 0.11455
H_ H_ 0.696805 0.287913 0.298242 0.11455
H_ H_ 0.691157 0.25133 0.345458 0.11455
H_ H_ 0.701947 0.307821 0.198531 0.11455
H_ H_ 0.632232 0.342436 0.102673 0.11455
H_ H_ 0.724694 0.33576 0.108333 0.11455
H_ H_ 0.615086 0.297999 0.216552 0.11455
H_ H_ 0.521877 0.304728 0.210799 0.11455
H_ H_ 0.546604 0.342236 0.12058 0.11455
H_ H_ 0.840686 0.490754 0.184301 0.11455
H_ H_ 0.866703 0.0647488 0.101084 0.11455
H_ H_ 0.900838 0.469361 0.101877 0.11455
H_ H_ 0.8904 0.0673057 0.21936 0.11455
H_ H_ 0.884098 0.160811 0.215493 0.11455
H_ H_ 0.861171 0.148791 0.124823 0.11455
H_ H_ 0.919102 0.39758 0.215874 0.11455
H_ H_ 0.926717 0.429528 0.264292 0.11455
H_ H_ 0.900804 0.377963 0.304781 0.11455
H_ H_ 0.795278 0.267091 0.224868 0.11455
H_ H_ 0.764696 0.215462 0.265231 0.11455
H_ H_ 0.802392 0.221324 0.3125 0.11455
H_ H_ 0.991354 0.269276 0.376228 0.11455
H_ H_ 0.00214904 0.289419 0.427041 0.11455
H_ H_ 0.74743 0.324707 0.386294 0.11455
H_ H_ 0.755318 0.330144 0.438905 0.11455
H_ H_ 0.933207 0.407346 0.498787 0.11455
H_ H_ 0.991305 0.408252 0.0496869 0.11455
H_ H_ 0.946549 0.369156 0.0896068 0.11455
H_ H_ 0.841131 0.255572 0.00950737 0.11455
H_ H_ 0.803915 0.212654 0.051817 0.11455
H_ H_ 0.822833 0.246939 0.0992772 0.11455
C_ C_ 0.734775 0.177638 0.399183 0.68181
C_ C_ 0.791193 0.17852 0.3956 -0.05681
C_ C_ 0.823075 0.187245 0.417996 -0.08735
C_ C_ 0.877849 0.179126 0.415762 -0.05681
C_ C_ 0.89927 0.164242 0.388589 -0.05681
C_ C_ 0.866578 0.15848 0.365538 -0.08735
C_ C_ 0.8134 0.165035 0.368666 -0.08735
C_ C_ 0.908521 0.188846 0.439926 -0.08735
C_ C_ 0.961464 0.184307 0.43669 -0.08735
C_ C_ 0.983143 0.16904 0.410652 -0.05681
C_ C_ 0.952016 0.154265 0.387732 -0.08735
C_ C_ 0.639297 0.277877 0.410724 0.68181
C_ C_ 0.631937 0.0782136 0.397906 0.68181
C_ C_ 0.62793 0.0197897 0.395077 -0.05681
C_ C_ 0.64871 0.491888 0.419092 -0.08735
C_ C_ 0.647672 0.438626 0.416858 -0.05681
C_ C_ 0.650886 0.417054 0.389248 -0.05681
C_ C_ 0.656933 0.446529 0.364466 -0.08735
C_ C_ 0.662243 0.499683 0.367219 -0.08735
C_ C_ 0.644257 0.410413 0.442117 -0.08735
C_ C_ 0.640362 0.358905 0.439371 -0.08735
C_ C_ 0.639935 0.333549 0.412486 -0.05681
C_ C_ 0.644904 0.363591 0.387738 -0.08735
C_ C_ 0.537379 0.177183 0.40702 0.68181
C_ C_ 0.601529 0.117679 0.481815 0.1947
C_ C_ 0.604124 0.112454 0.0101395 -0.08735
C_ C_ 0.631887 0.135038 0.0312536 -0.08735
C_ C_ 0.650819 0.184389 0.0273152 -0.05681
C_ C_ 0.658053 0.1994 0.998416 0.18498
C_ C_ 0.685916 0.226725 0.492524 -0.08735
C_ C_ 0.704365 0.273359 0.0137989 -0.08735
C_ C_ 0.690716 0.264245 0.0419743 -0.08735
C_ C_ 0.663797 0.219228 0.0505586 0.18498
C_ C_ 0.692536 0.198758 0.0977224 0.44287
C_ C_ 0.604772 0.21302 0.0930313 0.44287
C_ C_ 0.59537 0.204145 0.123503 -0.05681
C_ C_ 0.545189 0.196722 0.13431 -0.08735
C_ C_ 0.538169 0.194217 0.163317 -0.08735
C_ C_ 0.580321 0.188295 0.181587 -0.05681
C_ C_ 0.629754 0.18851 0.170599 -0.05681
C_ C_ 0.63693 0.199104 0.140128 -0.05681
C_ C_ 0.68589 0.195214 0.127698 -0.05681
C_ C_ 0.727346 0.183457 0.146701 -0.08735
C_ C_ 0.721541 0.185389 0.175825 -0.08735
C_ C_ 0.670881 0.186523 0.188336 -0.05681
C_ C_ 0.664497 0.175197 0.217749 0.44287
C_ C_ 0.575538 0.182988 0.21196 0.44287
C_ C_ 0.604884 0.159235 0.258819 0.18498
C_ C_ 0.581701 0.112256 0.265317 -0.08735
C_ C_ 0.560544 0.103684 0.292084 -0.08735
C_ C_ 0.576983 0.132679 0.315151 -0.08735
C_ C_ 0.611202 0.173441 0.310628 0.18498
C_ C_ 0.622614 0.189947 0.282083 -0.05681
C_ C_ 0.653391 0.232429 0.278505 -0.08735
C_ C_ 0.675543 0.255553 0.301414 -0.08735
C_ C_ 0.667264 0.23794 0.328511 0.1947
C_ C_ 0.77244 0.314353 0.158413 0.68181
C_ C_ 0.719791 0.319817 0.154593 -0.05681
C_ C_ 0.686571 0.314014 0.178002 -0.08735
C_ C_ 0.632508 0.318589 0.17354 -0.05681
C_ C_ 0.613833 0.32776 0.146789 -0.05681
C_ C_ 0.649098 0.337878 0.124181 -0.08735
C_ C_ 0.699795 0.327138 0.126824 -0.08735
C_ C_ 0.600671 0.313765 0.196868 -0.08735
C_ C_ 0.546982 0.315695 0.192459 -0.08735
C_ C_ 0.527274 0.322796 0.164305 -0.05681
C_ C_ 0.561361 0.333275 0.141787 -0.08735
C_ C_ 0.87485 0.215556 0.165378 0.68181
C_ C_ 0.861914 0.417071 0.148826 0.68181
C_ C_ 0.871918 0.473585 0.144718 -0.05681
C_ C_ 0.862082 0.00192396 0.175817 -0.08735
C_ C_ 0.870348 0.0548569 0.174273 -0.05681
C_ C_ 0.863384 0.0784653 0.147519 -0.05681
C_ C_ 0.863917 0.0487677 0.122148 -0.08735
C_ C_ 0.892958 0.493484 0.119271 -0.08735
C_ C_ 0.881032 0.0844833 0.198524 -0.08735
C_ C_ 0.883948 0.136815 0.195905 -0.08735
C_ C_ 0.877657 0.161146 0.169191 -0.05681
C_ C_ 0.86505 0.131923 0.145202 -0.08735
C_ C_ 0.9702 0.324118 0.158623 0.68181
C_ C_ 0.905618 0.37393 0.233534 0.1947
C_ C_ 0.909989 0.392938 0.261141 -0.08735
C_ C_ 0.899249 0.360892 0.283859 -0.08735
C_ C_ 0.86909 0.317524 0.279168 -0.05681
C_ C_ 0.852642 0.306471 0.250817 0.18498
C_ C_ 0.811309 0.273425 0.246456 -0.08735
C_ C_ 0.793795 0.243104 0.268505 -0.08735
C_ C_ 0.812995 0.249179 0.295899 -0.08735
C_ C_ 0.849758 0.285824 0.30265 0.18498
C_ C_ 0.821921 0.313703 0.34792 0.44287
C_ C_ 0.905868 0.287875 0.34312 0.44287
C_ C_ 0.915351 0.297462 0.373315 -0.05681
C_ C_ 0.962507 0.291103 0.386858 -0.08735
C_ C_ 0.970156 0.305438 0.415911 -0.08735
C_ C_ 0.927962 0.314206 0.434131 -0.05681
C_ C_ 0.878908 0.312682 0.421551 -0.05681
C_ C_ 0.874106 0.309886 0.390491 -0.05681
C_ C_ 0.826384 0.317864 0.37871 -0.05681
C_ C_ 0.784018 0.323136 0.396484 -0.08735
C_ C_ 0.788733 0.32337 0.426081 -0.08735
C_ C_ 0.836767 0.320999 0.438985 -0.05681
C_ C_ 0.843522 0.334835 0.46767 0.44287
C_ C_ 0.930423 0.316103 0.463536 0.44287
C_ C_ 0.915934 0.327405 0.0109859 0.18498
C_ C_ 0.952042 0.365185 0.0172481 -0.08735
C_ C_ 0.963057 0.380946 0.0449212 -0.08735
C_ C_ 0.939095 0.356482 0.0681209 -0.08735
C_ C_ 0.901655 0.321101 0.0626195 0.18498
C_ C_ 0.887307 0.307817 0.0344679 -0.05681
C_ C_ 0.850231 0.270633 0.0302223 -0.08735
C_ C_ 0.830904 0.244981 0.0537057 -0.08735
C_ C_ 0.841999 0.263391 0.0809598 0.1947
N_ N_ 0.631812 0.158565 0.476316 -0.29468
N_ N_ 0.652303 0.210019 0.0810771 -0.17154
N_ N_ 0.616913 0.171449 0.2287 -0.17154
N_ N_ 0.634782 0.197979 0.333178 -0.29468
N_ N_ 0.873959 0.332559 0.228509 -0.29468
N_ N_ 0.859622 0.298572 0.331776 -0.17154
N_ N_ 0.888397 0.324673 0.479955 -0.17154
N_ N_ 0.874229 0.302059 0.0847713 -0.29468
O_ O_ 0.714975 0.17226 0.424555 -0.58347
O_ O_ 0.704602 0.180376 0.37795 -0.58347
O_ O_ 0.64901 0.249977 0.432267 -0.58347
O_ O_ 0.62826 0.255909 0.386682 -0.58347
O_ O_ 0.643063 0.0989828 0.421338 -0.58347
O_ O_ 0.633302 0.104634 0.375863 -0.58347
O_ O_ 0.567053 0.170624 0.42767 -0.58347
O_ O_ 0.55651 0.178843 0.381284 -0.58347
O_ O_ 0.567484 0.225791 0.0763293 -0.46727
O_ O_ 0.736983 0.184472 0.0879288 -0.46727
O_ O_ 0.532098 0.196448 0.223217 -0.46727
O_ O_ 0.702903 0.157731 0.23266 -0.46727
O_ O_ 0.790802 0.32151 0.182872 -0.58347
O_ O_ 0.801186 0.302539 0.137796 -0.58347
O_ O_ 0.872824 0.243177 0.186994 -0.58347
O_ O_ 0.883076 0.235237 0.139826 -0.58347
O_ O_ 0.863903 0.396995 0.173307 -0.58347
O_ O_ 0.866956 0.387803 0.127255 -0.58347
O_ O_ 0.941116 0.325385 0.180276 -0.58347
O_ O_ 0.953084 0.320859 0.133676 -0.58347
O_ O_ 0.93796 0.260008 0.328563 -0.46727
O_ O_ 0.782113 0.33499 0.334349 -0.46727
O_ O_ 0.972557 0.300445 0.475476 -0.46727
O_ O_ 0.806071 0.342738 0.484167 -0.46727
Zn Zn 0.629687 0.194343 0.880285 0.90689
Zn Zn 0.641366 0.186484 0.92823 0.90689
Zn Zn 0.870945 0.310371 0.633337 0.90689
Zn Zn 0.857631 0.32059 0.682278 0.90689
H_ H_ 0.809753 0.200696 0.94532 0.11455
H_ H_ 0.870434 0.152671 0.846443 0.11455
H_ H_ 0.780112 0.168824 0.855671 0.11455
H_ H_ 0.895586 0.188867 0.964273 0.11455
H_ H_ 0.982427 0.175257 0.956645 0.11455
H_ H_ 0.957321 0.168204 0.864145 0.11455
H_ H_ 0.656662 0.0195043 0.9428 0.11455
H_ H_ 0.608661 0.441591 0.843992 0.11455
H_ H_ 0.623826 0.0404868 0.851803 0.11455
H_ H_ 0.611163 0.430829 0.963632 0.11455
H_ H_ 0.617946 0.344118 0.957561 0.11455
H_ H_ 0.616676 0.358013 0.864519 0.11455
H_ H_ 0.597855 0.10466 0.964364 0.11455
H_ H_ 0.57713 0.0627162 0.511202 0.11455
H_ H_ 0.606479 0.112737 0.553736 0.11455
H_ H_ 0.68718 0.256496 0.969032 0.11455
H_ H_ 0.733315 0.28339 0.511539 0.11455
H_ H_ 0.697113 0.272759 0.559674 0.11455
H_ H_ 0.516932 0.214118 0.621753 0.11455
H_ H_ 0.508 0.204122 0.673389 0.11455
H_ H_ 0.770294 0.171684 0.636787 0.11455
H_ H_ 0.756826 0.154926 0.686453 0.11455
H_ H_ 0.563464 0.085414 0.747708 0.11455
H_ H_ 0.543695 0.0666053 0.795821 0.11455
H_ H_ 0.576403 0.121763 0.837454 0.11455
H_ H_ 0.660485 0.240895 0.751292 0.11455
H_ H_ 0.685764 0.299785 0.792673 0.11455
H_ H_ 0.680218 0.264007 0.842607 0.11455
H_ H_ 0.689968 0.292147 0.695185 0.11455
H_ H_ 0.629543 0.318456 0.597142 0.11455
H_ H_ 0.713875 0.318643 0.606321 0.11455
H_ H_ 0.604379 0.307948 0.715339 0.11455
H_ H_ 0.509612 0.305452 0.708963 0.11455
H_ H_ 0.53421 0.325915 0.616101 0.11455
H_ H_ 0.821469 0.484657 0.686408 0.11455
H_ H_ 0.846513 0.06758 0.595537 0.11455
H_ H_ 0.900272 0.468346 0.605633 0.11455
H_ H_ 0.892614 0.0661352 0.712378 0.11455
H_ H_ 0.889997 0.155368 0.711207 0.11455
H_ H_ 0.866634 0.151931 0.61909 0.11455
H_ H_ 0.908657 0.396994 0.715575 0.11455
H_ H_ 0.918231 0.428697 0.765972 0.11455
H_ H_ 0.896413 0.376363 0.807117 0.11455
H_ H_ 0.79696 0.261535 0.725634 0.11455
H_ H_ 0.765171 0.206881 0.76374 0.11455
H_ H_ 0.791505 0.223567 0.81358 0.11455
H_ H_ 0.987831 0.280418 0.867654 0.11455
H_ H_ 0.00405211 0.281016 0.919625 0.11455
H_ H_ 0.748583 0.332656 0.891078 0.11455
H_ H_ 0.764363 0.343958 0.941958 0.11455
H_ H_ 0.97048 0.382934 0.999197 0.11455
H_ H_ 0.960999 0.429965 0.548015 0.11455
H_ H_ 0.936495 0.377215 0.587555 0.11455
H_ H_ 0.832262 0.255655 0.509779 0.11455
H_ H_ 0.805861 0.21002 0.551622 0.11455
H_ H_ 0.818115 0.24311 0.598568 0.11455
C_ C_ 0.734198 0.195251 0.905191 0.68181
C_ C_ 0.787608 0.185698 0.900548 -0.05681
C_ C_ 0.821911 0.189177 0.92334 -0.08735
C_ C_ 0.873694 0.175425 0.919567 -0.05681
C_ C_ 0.891226 0.163277 0.891515 -0.05681
C_ C_ 0.857012 0.162453 0.867754 -0.08735
C_ C_ 0.806453 0.173297 0.872716 -0.08735
C_ C_ 0.907258 0.177146 0.94248 -0.08735
C_ C_ 0.959908 0.173808 0.937307 -0.08735
C_ C_ 0.980289 0.167277 0.909786 -0.05681
C_ C_ 0.94569 0.162811 0.886394 -0.08735
C_ C_ 0.623033 0.286831 0.908325 0.68181
C_ C_ 0.643015 0.0935003 0.90128 0.68181
C_ C_ 0.640131 0.0368558 0.898031 -0.05681
C_ C_ 0.612128 0.50085 0.919952 -0.08735
C_ C_ 0.610356 0.447703 0.917493 -0.05681
C_ C_ 0.611475 0.426881 0.889218 -0.05681
C_ C_ 0.614055 0.459457 0.865132 -0.08735
C_ C_ 0.614499 0.512124 0.869092 -0.08735
C_ C_ 0.608224 0.416344 0.941491 -0.08735
C_ C_ 0.612409 0.364855 0.938057 -0.08735
C_ C_ 0.615798 0.342304 0.910372 -0.05681
C_ C_ 0.614206 0.372853 0.885658 -0.08735
C_ C_ 0.537516 0.177409 0.908064 0.68181
C_ C_ 0.610765 0.127729 0.98247 0.1947
C_ C_ 0.596597 0.0975006 0.508401 -0.08735
C_ C_ 0.612603 0.126022 0.532452 -0.08735
C_ C_ 0.642809 0.170903 0.527252 -0.05681
C_ C_ 0.650128 0.187635 0.498908 0.18498
C_ C_ 0.681958 0.243441 0.991628 -0.08735
C_ C_ 0.704638 0.255634 0.515331 -0.08735
C_ C_ 0.683636 0.248251 0.543038 -0.08735
C_ C_ 0.657739 0.203942 0.549767 0.18498
C_ C_ 0.690569 0.181855 0.596349 0.44287
C_ C_ 0.602992 0.195263 0.591784 0.44287
C_ C_ 0.59649 0.195219 0.621528 -0.05681
C_ C_ 0.549809 0.202543 0.634564 -0.08735
C_ C_ 0.543883 0.193908 0.663715 -0.08735
C_ C_ 0.586246 0.180806 0.681719 -0.05681
C_ C_ 0.634537 0.176396 0.669556 -0.05681
C_ C_ 0.638909 0.184711 0.639583 -0.05681
C_ C_ 0.686379 0.179319 0.626729 -0.05681
C_ C_ 0.731613 0.177971 0.644286 -0.08735
C_ C_ 0.725709 0.165518 0.673742 -0.08735
C_ C_ 0.677013 0.169608 0.687068 -0.05681
C_ C_ 0.670234 0.156816 0.71685 0.44287
C_ C_ 0.580041 0.174961 0.71095 0.44287
C_ C_ 0.6139 0.149838 0.756786 0.18498
C_ C_ 0.585568 0.105651 0.763546 -0.08735
C_ C_ 0.574088 0.09482 0.792466 -0.08735
C_ C_ 0.590452 0.127514 0.815246 -0.08735
C_ C_ 0.620778 0.169469 0.809116 0.18498
C_ C_ 0.632914 0.181605 0.779783 -0.05681
C_ C_ 0.651249 0.22999 0.773542 -0.08735
C_ C_ 0.670461 0.259661 0.796793 -0.08735
C_ C_ 0.661242 0.244914 0.824877 0.1947
C_ C_ 0.765483 0.30929 0.655019 0.68181
C_ C_ 0.710382 0.303323 0.650911 -0.05681
C_ C_ 0.675095 0.305617 0.67539 -0.08735
C_ C_ 0.623147 0.311563 0.670163 -0.05681
C_ C_ 0.605423 0.320043 0.641832 -0.05681
C_ C_ 0.638384 0.312299 0.618389 -0.08735
C_ C_ 0.689578 0.306965 0.623159 -0.08735
C_ C_ 0.59003 0.311582 0.693457 -0.08735
C_ C_ 0.53624 0.313343 0.690199 -0.08735
C_ C_ 0.516592 0.321815 0.662594 -0.05681
C_ C_ 0.550517 0.322438 0.638543 -0.08735
C_ C_ 0.867205 0.218542 0.665224 0.68181
C_ C_ 0.861263 0.415964 0.650991 0.68181
C_ C_ 0.862642 0.47093 0.647692 -0.05681
C_ C_ 0.866881 0.00152579 0.669726 -0.08735
C_ C_ 0.872522 0.0553006 0.667034 -0.05681
C_ C_ 0.869512 0.0802854 0.639994 -0.05681
C_ C_ 0.856872 0.0503669 0.616269 -0.08735
C_ C_ 0.886757 0.492633 0.623367 -0.08735
C_ C_ 0.881018 0.0841021 0.692128 -0.08735
C_ C_ 0.883566 0.135457 0.691452 -0.08735
C_ C_ 0.873169 0.161842 0.665396 -0.05681
C_ C_ 0.870835 0.133073 0.639975 -0.08735
C_ C_ 0.963207 0.31863 0.660671 0.68181
C_ C_ 0.894992 0.373346 0.734253 0.1947
C_ C_ 0.905662 0.389406 0.762016 -0.08735
C_ C_ 0.890059 0.360546 0.785644 -0.08735
C_ C_ 0.855146 0.319777 0.78139 -0.05681
C_ C_ 0.840327 0.309606 0.753095 0.18498
C_ C_ 0.811677 0.265948 0.746682 -0.08735
C_ C_ 0.796363 0.232445 0.768045 -0.08735
C_ C_ 0.81018 0.24357 0.796463 -0.08735
C_ C_ 0.838774 0.286912 0.804324 0.18498
C_ C_ 0.811584 0.312122 0.853343 0.44287
C_ C_ 0.897071 0.284235 0.844167 0.44287
C_ C_ 0.910047 0.288803 0.873649 -0.05681
C_ C_ 0.957561 0.284712 0.883276 -0.08735
C_ C_ 0.969101 0.292221 0.91188 -0.08735
C_ C_ 0.928731 0.301343 0.932123 -0.05681
C_ C_ 0.880735 0.311235 0.921088 -0.05681
C_ C_ 0.870688 0.306214 0.89232 -0.05681
C_ C_ 0.822325 0.311024 0.882372 -0.05681
C_ C_ 0.785645 0.329569 0.900561 -0.08735
C_ C_ 0.794356 0.33091 0.929761 -0.08735
C_ C_ 0.842382 0.322719 0.940992 -0.05681
C_ C_ 0.853688 0.330523 0.970805 0.44287
C_ C_ 0.939198 0.306939 0.961239 0.44287
C_ C_ 0.896953 0.339991 0.510399 0.18498
C_ C_ 0.919446 0.386557 0.516382 -0.08735
C_ C_ 0.934865 0.399156 0.544346 -0.08735
C_ C_ 0.919186 0.370946 0.567879 -0.08735
C_ C_ 0.887638 0.329794 0.563645 0.18498
C_ C_ 0.87526 0.31411 0.534326 -0.05681
C_ C_ 0.842898 0.271593 0.530554 -0.08735
C_ C_ 0.828532 0.244671 0.5551 -0.08735
C_ C_ 0.839453 0.26125 0.581879 0.1947
N_ N_ 0.637613 0.171242 0.976562 -0.29468
N_ N_ 0.650256 0.193579 0.580336 -0.17154
N_ N_ 0.621938 0.160493 0.727278 -0.17154
N_ N_ 0.637602 0.201417 0.831106 -0.29468
N_ N_ 0.858985 0.336092 0.730078 -0.29468
N_ N_ 0.848746 0.295468 0.834594 -0.17154
N_ N_ 0.901991 0.317324 0.980671 -0.17154
N_ N_ 0.873258 0.30007 0.586192 -0.29468
O_ O_ 0.71649 0.203192 0.929822 -0.58347
O_ O_ 0.704964 0.200735 0.883066 -0.58347
O_ O_ 0.618465 0.259345 0.930144 -0.58347
O_ O_ 0.624207 0.266527 0.884307 -0.58347
O_ O_ 0.660347 0.115365 0.923202 -0.58347
O_ O_ 0.636346 0.118246 0.879444 -0.58347
O_ O_ 0.566593 0.162677 0.928569 -0.58347
O_ O_ 0.55651 0.187031 0.883305 -0.58347
O_ O_ 0.561277 0.202575 0.5758 -0.46727
O_ O_ 0.734312 0.173982 0.58512 -0.46727
O_ O_ 0.537996 0.189409 0.723895 -0.46727
O_ O_ 0.708333 0.141881 0.732197 -0.46727
O_ O_ 0.783581 0.31119 0.680708 -0.58347
O_ O_ 0.796972 0.300626 0.634942 -0.58347
O_ O_ 0.861938 0.244132 0.688615 -0.58347
O_ O_ 0.877283 0.24101 0.642368 -0.58347
O_ O_ 0.84777 0.396066 0.674234 -0.58347
O_ O_ 0.869199 0.388976 0.629127 -0.58347
O_ O_ 0.932119 0.324677 0.682243 -0.58347
O_ O_ 0.945664 0.317366 0.636015 -0.58347
O_ O_ 0.930299 0.270429 0.823966 -0.46727
O_ O_ 0.772413 0.338387 0.843705 -0.46727
O_ O_ 0.982886 0.292419 0.970816 -0.46727
O_ O_ 0.82179 0.350168 0.989062 -0.46727
Zn Zn 0.628163 0.680347 0.38002 0.90689
Zn Zn 0.636617 0.672122 0.42819 0.90689
Zn Zn 0.882266 0.816402 0.131086 0.90689
Zn Zn 0.876115 0.818213 0.178609 0.90689
H_ H_ 0.802511 0.681539 0.444426 0.11455
H_ H_ 0.871452 0.65826 0.345709 0.11455
H_ H_ 0.782674 0.670481 0.353876 0.11455
H_ H_ 0.893392 0.680795 0.463047 0.11455
H_ H_ 0.98623 0.683825 0.454479 0.11455
H_ H_ 0.958694 0.659479 0.364067 0.11455
H_ H_ 0.633682 0.510622 0.43915 0.11455
H_ H_ 0.602105 0.925304 0.345508 0.11455
H_ H_ 0.677411 0.521007 0.349335 0.11455
H_ H_ 0.637932 0.918118 0.463835 0.11455
H_ H_ 0.622542 0.830768 0.460797 0.11455
H_ H_ 0.616521 0.841796 0.368083 0.11455
H_ H_ 0.596153 0.590281 0.462367 0.11455
H_ H_ 0.556071 0.582584 0.0129988 0.11455
H_ H_ 0.600914 0.630493 0.05539 0.11455
H_ H_ 0.698168 0.732195 0.470011 0.11455
H_ H_ 0.725613 0.792548 0.00597522 0.11455
H_ H_ 0.698835 0.78287 0.0569279 0.11455
H_ H_ 0.521242 0.716636 0.120726 0.11455
H_ H_ 0.505805 0.691052 0.170797 0.11455
H_ H_ 0.768464 0.684429 0.135938 0.11455
H_ H_ 0.759905 0.665402 0.186694 0.11455
H_ H_ 0.590423 0.583754 0.244967 0.11455
H_ H_ 0.558614 0.560695 0.292443 0.11455
H_ H_ 0.573791 0.617255 0.334156 0.11455
H_ H_ 0.671784 0.743777 0.258209 0.11455
H_ H_ 0.692856 0.790931 0.301969 0.11455
H_ H_ 0.678931 0.760397 0.347954 0.11455
H_ H_ 0.703313 0.792161 0.193435 0.11455
H_ H_ 0.642764 0.829149 0.0968297 0.11455
H_ H_ 0.728437 0.823631 0.104286 0.11455
H_ H_ 0.62073 0.800688 0.211701 0.11455
H_ H_ 0.526231 0.812889 0.205675 0.11455
H_ H_ 0.555253 0.822451 0.115305 0.11455
H_ H_ 0.870446 0.982988 0.196013 0.11455
H_ H_ 0.921514 0.5626 0.0988881 0.11455
H_ H_ 0.860904 0.975431 0.106348 0.11455
H_ H_ 0.841275 0.574976 0.207769 0.11455
H_ H_ 0.856892 0.666833 0.204199 0.11455
H_ H_ 0.919221 0.650581 0.122511 0.11455
H_ H_ 0.929897 0.886887 0.214923 0.11455
H_ H_ 0.940551 0.919176 0.264965 0.11455
H_ H_ 0.89098 0.880563 0.302759 0.11455
H_ H_ 0.825536 0.744427 0.22374 0.11455
H_ H_ 0.786963 0.701348 0.261767 0.11455
H_ H_ 0.796423 0.731093 0.311293 0.11455
H_ H_ 0.987587 0.815373 0.368243 0.11455
H_ H_ 0.00299023 0.798231 0.420942 0.11455
H_ H_ 0.745708 0.847661 0.386186 0.11455
H_ H_ 0.758872 0.862542 0.435502 0.11455
H_ H_ 0.956727 0.893274 0.500717 0.11455
H_ H_ 0.921298 0.954146 0.0463302 0.11455
H_ H_ 0.927602 0.886799 0.0863257 0.11455
H_ H_ 0.841025 0.752903 0.0073565 0.11455
H_ H_ 0.81969 0.706696 0.0496561 0.11455
H_ H_ 0.831795 0.739176 0.0976067 0.11455
C_ C_ 0.732085 0.68778 0.403103 0.68181
C_ C_ 0.787158 0.678039 0.398966 -0.05681
C_ C_ 0.819683 0.680196 0.422943 -0.08735
C_ C_ 0.872343 0.670541 0.420521 -0.05681
C_ C_ 0.89061 0.661092 0.391775 -0.05681
C_ C_ 0.858766 0.661475 0.368385 -0.08735
C_ C_ 0.807929 0.667896 0.372506 -0.08735
C_ C_ 0.907344 0.677038 0.442291 -0.08735
C_ C_ 0.95978 0.67495 0.437917 -0.08735
C_ C_ 0.977261 0.667286 0.410237 -0.05681
C_ C_ 0.944509 0.662818 0.386478 -0.08735
C_ C_ 0.619622 0.771994 0.411992 0.68181
C_ C_ 0.649574 0.578863 0.396329 0.68181
C_ C_ 0.654642 0.523544 0.394027 -0.05681
C_ C_ 0.628561 0.988821 0.420216 -0.08735
C_ C_ 0.623972 0.934095 0.41817 -0.05681
C_ C_ 0.612775 0.911687 0.390609 -0.05681
C_ C_ 0.607825 0.942595 0.366127 -0.08735
C_ C_ 0.615415 0.995591 0.369264 -0.08735
C_ C_ 0.624377 0.903473 0.443328 -0.08735
C_ C_ 0.622597 0.851489 0.440249 -0.08735
C_ C_ 0.61529 0.827793 0.414427 -0.05681
C_ C_ 0.614611 0.85821 0.388847 -0.08735
C_ C_ 0.530423 0.671793 0.405159 0.68181
C_ C_ 0.60583 0.61754 0.480362 0.1947
C_ C_ 0.577768 0.615575 0.0109392 -0.08735
C_ C_ 0.602103 0.643026 0.033628 -0.08735
C_ C_ 0.631397 0.68744 0.0265585 -0.05681
C_ C_ 0.64102 0.696987 0.997375 0.18498
C_ C_ 0.683616 0.728141 0.491718 -0.08735
C_ C_ 0.700396 0.762927 0.0119157 -0.08735
C_ C_ 0.680655 0.757677 0.0400853 -0.08735
C_ C_ 0.655696 0.713206 0.0488099 0.18498
C_ C_ 0.692582 0.692938 0.0958538 0.44287
C_ C_ 0.605736 0.71124 0.0922924 0.44287
C_ C_ 0.59896 0.6977 0.121377 -0.05681
C_ C_ 0.552115 0.703125 0.134561 -0.08735
C_ C_ 0.544624 0.691201 0.162243 -0.08735
C_ C_ 0.586353 0.683054 0.181066 -0.05681
C_ C_ 0.635241 0.680145 0.169377 -0.05681
C_ C_ 0.640255 0.686593 0.138949 -0.05681
C_ C_ 0.688488 0.687684 0.126126 -0.05681
C_ C_ 0.730716 0.679316 0.144569 -0.08735
C_ C_ 0.725036 0.674089 0.174367 -0.08735
C_ C_ 0.677781 0.674937 0.186881 -0.05681
C_ C_ 0.67175 0.666888 0.215983 0.44287
C_ C_ 0.582344 0.677541 0.211839 0.44287
C_ C_ 0.617576 0.657564 0.257925 0.18498
C_ C_ 0.595374 0.61011 0.263048 -0.08735
C_ C_ 0.58029 0.594774 0.290395 -0.08735
C_ C_ 0.592818 0.623299 0.313869 -0.08735
C_ C_ 0.615012 0.670172 0.311189 0.18498
C_ C_ 0.631814 0.686706 0.283052 -0.05681
C_ C_ 0.659656 0.731293 0.279288 -0.08735
C_ C_ 0.670542 0.760625 0.303693 -0.08735
C_ C_ 0.660378 0.740972 0.330642 0.1947
C_ C_ 0.780354 0.810495 0.155387 0.68181
C_ C_ 0.724343 0.814919 0.15078 -0.05681
C_ C_ 0.690897 0.81078 0.173546 -0.08735
C_ C_ 0.638577 0.819845 0.168983 -0.05681
C_ C_ 0.619908 0.829633 0.141785 -0.05681
C_ C_ 0.654149 0.827078 0.118396 -0.08735
C_ C_ 0.703522 0.820848 0.122817 -0.08735
C_ C_ 0.604041 0.81678 0.191689 -0.08735
C_ C_ 0.552414 0.822287 0.187575 -0.08735
C_ C_ 0.534143 0.830851 0.159704 -0.05681
C_ C_ 0.5687 0.831916 0.136794 -0.08735
C_ C_ 0.887231 0.720308 0.158236 0.68181
C_ C_ 0.867577 0.916774 0.153187 0.68181
C_ C_ 0.858681 0.971951 0.151586 -0.05681
C_ C_ 0.852728 0.506685 0.164734 -0.08735
C_ C_ 0.862419 0.559423 0.163749 -0.05681
C_ C_ 0.88742 0.580204 0.139995 -0.05681
C_ C_ 0.900685 0.546766 0.117344 -0.08735
C_ C_ 0.854318 0.99827 0.125263 -0.08735
C_ C_ 0.852873 0.590518 0.187251 -0.08735
C_ C_ 0.863633 0.642185 0.185971 -0.08735
C_ C_ 0.885728 0.664277 0.161581 -0.05681
C_ C_ 0.899229 0.633162 0.139108 -0.08735
C_ C_ 0.979228 0.825762 0.151909 0.68181
C_ C_ 0.910492 0.868996 0.23333 0.1947
C_ C_ 0.915805 0.886116 0.26171 -0.08735
C_ C_ 0.888978 0.863372 0.282818 -0.08735
C_ C_ 0.866595 0.817095 0.277613 -0.05681
C_ C_ 0.855081 0.805092 0.248434 0.18498
C_ C_ 0.827477 0.760585 0.244018 -0.08735
C_ C_ 0.80758 0.732484 0.266382 -0.08735
C_ C_ 0.820559 0.743895 0.294953 -0.08735
C_ C_ 0.845595 0.78789 0.300675 0.18498
C_ C_ 0.812936 0.80721 0.347457 0.44287
C_ C_ 0.901423 0.795346 0.339957 0.44287
C_ C_ 0.909169 0.8004 0.370307 -0.05681
C_ C_ 0.957071 0.804569 0.382366 -0.08735
C_ C_ 0.964228 0.802212 0.413067 -0.08735
C_ C_ 0.923347 0.807362 0.431227 -0.05681
C_ C_ 0.874915 0.81246 0.419989 -0.05681
C_ C_ 0.866215 0.807122 0.38904 -0.05681
C_ C_ 0.818288 0.81337 0.376971 -0.05681
C_ C_ 0.779974 0.83185 0.395328 -0.08735
C_ C_ 0.786179 0.837556 0.424887 -0.08735
C_ C_ 0.832997 0.827051 0.438358 -0.05681
C_ C_ 0.842544 0.832179 0.468067 0.44287
C_ C_ 0.930056 0.810229 0.461005 0.44287
C_ C_ 0.874852 0.855657 0.00994335 0.18498
C_ C_ 0.889149 0.904324 0.0162589 -0.08735
C_ C_ 0.906579 0.917474 0.0429886 -0.08735
C_ C_ 0.907548 0.881431 0.0664449 -0.08735
C_ C_ 0.884552 0.832818 0.061123 0.18498
C_ C_ 0.869683 0.82041 0.0328577 -0.05681
C_ C_ 0.847838 0.771572 0.0280765 -0.08735
C_ C_ 0.83668 0.742064 0.0516681 -0.08735
C_ C_ 0.84599 0.75922 0.0796614 0.1947
N_ N_ 0.634472 0.658422 0.474247 -0.29468
N_ N_ 0.650855 0.701753 0.0794669 -0.17154
N_ N_ 0.624138 0.672661 0.227903 -0.17154
N_ N_ 0.63077 0.698578 0.334337 -0.29468
N_ N_ 0.881103 0.828056 0.226325 -0.29468
N_ N_ 0.854318 0.798996 0.329766 -0.17154
N_ N_ 0.890091 0.820822 0.479502 -0.17154
N_ N_ 0.868457 0.803793 0.0839595 -0.29468
O_ O_ 0.711933 0.674336 0.427084 -0.58347
O_ O_ 0.704655 0.691888 0.381076 -0.58347
O_ O_ 0.635392 0.74412 0.433192 -0.58347
O_ O_ 0.61266 0.753087 0.387121 -0.58347
O_ O_ 0.646913 0.599219 0.42096 -0.58347
O_ O_ 0.645116 0.606685 0.373545 -0.58347
O_ O_ 0.557444 0.669411 0.427291 -0.58347
O_ O_ 0.552984 0.670799 0.380806 -0.58347
O_ O_ 0.570744 0.736293 0.0779861 -0.46727
O_ O_ 0.736827 0.686567 0.0833084 -0.46727
O_ O_ 0.536717 0.676269 0.223805 -0.46727
O_ O_ 0.711102 0.649072 0.231616 -0.46727
O_ O_ 0.799291 0.816926 0.181096 -0.58347
O_ O_ 0.80854 0.802377 0.134271 -0.58347
O_ O_ 0.879089 0.745644 0.180735 -0.58347
O_ O_ 0.887584 0.742964 0.133165 -0.58347
O_ O_ 0.870971 0.893257 0.176839 -0.58347
O_ O_ 0.870243 0.892931 0.129024 -0.58347
O_ O_ 0.949634 0.826852 0.174715 -0.58347
O_ O_ 0.960689 0.825198 0.127222 -0.58347
O_ O_ 0.940461 0.80319 0.322972 -0.46727
O_ O_ 0.767921 0.812928 0.335841 -0.46727
O_ O_ 0.972959 0.792952 0.471259 -0.46727
O_ O_ 0.803074 0.838708 0.484159 -0.46727
Zn Zn 0.614508 0.694634 0.879077 0.90689
Zn Zn 0.621025 0.681974 0.9273 0.90689
Zn Zn 0.856319 0.81775 0.632181 0.90689
Zn Zn 0.848214 0.82213 0.681994 0.90689
H_ H_ 0.78605 0.673054 0.947799 0.11455
H_ H_ 0.855824 0.648261 0.850647 0.11455
H_ H_ 0.765519 0.662546 0.857321 0.11455
H_ H_ 0.876611 0.685325 0.967384 0.11455
H_ H_ 0.966864 0.685255 0.959164 0.11455
H_ H_ 0.943494 0.653665 0.870546 0.11455
H_ H_ 0.610472 0.517308 0.941843 0.11455
H_ H_ 0.60189 0.948263 0.847391 0.11455
H_ H_ 0.612806 0.536825 0.850798 0.11455
H_ H_ 0.657654 0.933646 0.961688 0.11455
H_ H_ 0.657689 0.844105 0.954454 0.11455
H_ H_ 0.596011 0.863124 0.868966 0.11455
H_ H_ 0.566792 0.614362 0.964548 0.11455
H_ H_ 0.580587 0.564648 0.512699 0.11455
H_ H_ 0.615591 0.612665 0.553203 0.11455
H_ H_ 0.69241 0.735927 0.968286 0.11455
H_ H_ 0.733773 0.784547 0.50956 0.11455
H_ H_ 0.700589 0.775843 0.556154 0.11455
H_ H_ 0.506138 0.693908 0.615661 0.11455
H_ H_ 0.493527 0.689414 0.668396 0.11455
H_ H_ 0.760073 0.69302 0.636012 0.11455
H_ H_ 0.746646 0.679405 0.688641 0.11455
H_ H_ 0.550657 0.601596 0.747534 0.11455
H_ H_ 0.52447 0.583904 0.796788 0.11455
H_ H_ 0.555312 0.640861 0.834772 0.11455
H_ H_ 0.639753 0.765636 0.757094 0.11455
H_ H_ 0.69452 0.794076 0.794778 0.11455
H_ H_ 0.673436 0.769208 0.844204 0.11455
H_ H_ 0.683654 0.813923 0.697121 0.11455
H_ H_ 0.609647 0.8087 0.601365 0.11455
H_ H_ 0.70348 0.815394 0.607045 0.11455
H_ H_ 0.59281 0.817963 0.718466 0.11455
H_ H_ 0.502173 0.799449 0.70979 0.11455
H_ H_ 0.521871 0.824002 0.618478 0.11455
H_ H_ 0.868657 0.986041 0.691177 0.11455
H_ H_ 0.911126 0.564151 0.603056 0.11455
H_ H_ 0.834261 0.976641 0.600692 0.11455
H_ H_ 0.818215 0.569183 0.707547 0.11455
H_ H_ 0.834747 0.660993 0.706828 0.11455
H_ H_ 0.896662 0.645977 0.621999 0.11455
H_ H_ 0.895189 0.91102 0.71656 0.11455
H_ H_ 0.911783 0.933885 0.766552 0.11455
H_ H_ 0.890795 0.878846 0.806306 0.11455
H_ H_ 0.797783 0.761936 0.726566 0.11455
H_ H_ 0.777966 0.69635 0.763433 0.11455
H_ H_ 0.803339 0.717338 0.812952 0.11455
H_ H_ 0.979712 0.788167 0.875253 0.11455
H_ H_ 0.990558 0.813715 0.925568 0.11455
H_ H_ 0.731003 0.842738 0.883996 0.11455
H_ H_ 0.73975 0.84576 0.937599 0.11455
H_ H_ 0.886097 0.931746 0.998528 0.11455
H_ H_ 0.969151 0.916511 0.550374 0.11455
H_ H_ 0.934505 0.862405 0.588732 0.11455
H_ H_ 0.837966 0.752908 0.503559 0.11455
H_ H_ 0.794537 0.707652 0.545917 0.11455
H_ H_ 0.80132 0.749283 0.593636 0.11455
C_ C_ 0.71668 0.681886 0.907005 0.68181
C_ C_ 0.769273 0.67211 0.903938 -0.05681
C_ C_ 0.801733 0.672985 0.926984 -0.08735
C_ C_ 0.855562 0.675578 0.922614 -0.05681
C_ C_ 0.875048 0.668037 0.894295 -0.05681
C_ C_ 0.840784 0.660183 0.871768 -0.08735
C_ C_ 0.788511 0.664497 0.876506 -0.08735
C_ C_ 0.890087 0.681361 0.945326 -0.08735
C_ C_ 0.942306 0.685616 0.940891 -0.08735
C_ C_ 0.961532 0.680561 0.913727 -0.05681
C_ C_ 0.928344 0.670946 0.890482 -0.08735
C_ C_ 0.620161 0.789381 0.909381 0.68181
C_ C_ 0.619223 0.589295 0.900529 0.68181
C_ C_ 0.620919 0.53458 0.896532 -0.05681
C_ C_ 0.645881 0.00448926 0.921362 -0.08735
C_ C_ 0.637315 0.952758 0.917745 -0.05681
C_ C_ 0.624413 0.930655 0.890726 -0.05681
C_ C_ 0.61785 0.962803 0.86738 -0.08735
C_ C_ 0.62711 0.0151731 0.870554 -0.08735
C_ C_ 0.649125 0.919267 0.941201 -0.08735
C_ C_ 0.643402 0.866888 0.93755 -0.08735
C_ C_ 0.625629 0.846215 0.912157 -0.05681
C_ C_ 0.611868 0.878287 0.888758 -0.08735
C_ C_ 0.519035 0.692464 0.901318 0.68181
C_ C_ 0.583572 0.632396 0.982396 0.1947
C_ C_ 0.596722 0.601263 0.509182 -0.08735
C_ C_ 0.615906 0.628171 0.531848 -0.08735
C_ C_ 0.641212 0.673678 0.526061 -0.05681
C_ C_ 0.651066 0.687284 0.497131 0.18498
C_ C_ 0.676481 0.735276 0.990651 -0.08735
C_ C_ 0.705657 0.75419 0.514406 -0.08735
C_ C_ 0.686764 0.749125 0.541539 -0.08735
C_ C_ 0.657265 0.705976 0.549103 0.18498
C_ C_ 0.687983 0.691537 0.596664 0.44287
C_ C_ 0.598807 0.695079 0.589079 0.44287
C_ C_ 0.588074 0.69785 0.618937 -0.05681
C_ C_ 0.539437 0.691737 0.630599 -0.08735
C_ C_ 0.533043 0.690946 0.660148 -0.08735
C_ C_ 0.574349 0.685499 0.678966 -0.05681
C_ C_ 0.623492 0.684024 0.667119 -0.05681
C_ C_ 0.63056 0.689595 0.637424 -0.05681
C_ C_ 0.680635 0.695984 0.626427 -0.05681
C_ C_ 0.72235 0.686635 0.644684 -0.08735
C_ C_ 0.714931 0.679899 0.67483 -0.08735
C_ C_ 0.664506 0.682898 0.686049 -0.05681
C_ C_ 0.654807 0.66953 0.714446 0.44287
C_ C_ 0.566996 0.682396 0.708853 0.44287
C_ C_ 0.598507 0.66427 0.757415 0.18498
C_ C_ 0.565654 0.623258 0.763844 -0.08735
C_ C_ 0.553267 0.613419 0.79208 -0.08735
C_ C_ 0.571147 0.643737 0.813955 -0.08735
C_ C_ 0.605272 0.68259 0.80833 0.18498
C_ C_ 0.613924 0.699125 0.780227 -0.05681
C_ C_ 0.640084 0.746312 0.776561 -0.08735
C_ C_ 0.671063 0.762812 0.798361 -0.08735
C_ C_ 0.661107 0.745109 0.82574 0.1947
C_ C_ 0.755228 0.815997 0.655352 0.68181
C_ C_ 0.698883 0.815121 0.652369 -0.05681
C_ C_ 0.666528 0.81897 0.676227 -0.08735
C_ C_ 0.613215 0.819808 0.673119 -0.05681
C_ C_ 0.592491 0.823913 0.644174 -0.05681
C_ C_ 0.626554 0.826094 0.620339 -0.08735
C_ C_ 0.677427 0.81808 0.624883 -0.08735
C_ C_ 0.580564 0.819186 0.69687 -0.08735
C_ C_ 0.527932 0.811209 0.691576 -0.08735
C_ C_ 0.506308 0.815395 0.66394 -0.05681
C_ C_ 0.538886 0.821621 0.64016 -0.08735
C_ C_ 0.862853 0.719337 0.663851 0.68181
C_ C_ 0.851267 0.917596 0.646864 0.68181
C_ C_ 0.858459 0.97297 0.645073 -0.05681
C_ C_ 0.841166 0.501874 0.668308 -0.08735
C_ C_ 0.847955 0.555517 0.666247 -0.05681
C_ C_ 0.872927 0.576634 0.64251 -0.05681
C_ C_ 0.893937 0.545853 0.620808 -0.08735
C_ C_ 0.846888 0.998461 0.619626 -0.08735
C_ C_ 0.834804 0.585927 0.689275 -0.08735
C_ C_ 0.844413 0.63768 0.688968 -0.08735
C_ C_ 0.861356 0.661183 0.664452 -0.05681
C_ C_ 0.878133 0.630193 0.640598 -0.08735
C_ C_ 0.95284 0.815427 0.65856 0.68181
C_ C_ 0.882371 0.885201 0.733612 0.1947
C_ C_ 0.893784 0.899111 0.76254 -0.08735
C_ C_ 0.876296 0.870847 0.784758 -0.08735
C_ C_ 0.851812 0.823644 0.780193 -0.05681
C_ C_ 0.839054 0.812138 0.751126 0.18498
C_ C_ 0.81023 0.769417 0.746328 -0.08735
C_ C_ 0.803006 0.732149 0.767823 -0.08735
C_ C_ 0.819297 0.742056 0.796445 -0.08735
C_ C_ 0.84123 0.788106 0.802965 0.18498
C_ C_ 0.807147 0.814029 0.848546 0.44287
C_ C_ 0.894581 0.795063 0.844567 0.44287
C_ C_ 0.901932 0.807222 0.874722 -0.05681
C_ C_ 0.947344 0.800309 0.887762 -0.08735
C_ C_ 0.953104 0.81559 0.916047 -0.08735
C_ C_ 0.911303 0.822944 0.934021 -0.05681
C_ C_ 0.863343 0.825355 0.920638 -0.05681
C_ C_ 0.858591 0.818508 0.891083 -0.05681
C_ C_ 0.811138 0.822621 0.877525 -0.05681
C_ C_ 0.76736 0.833926 0.893544 -0.08735
C_ C_ 0.772787 0.835628 0.924246 -0.08735
C_ C_ 0.820297 0.834113 0.938406 -0.05681
C_ C_ 0.825097 0.841307 0.967966 0.44287
C_ C_ 0.912986 0.827201 0.964508 0.44287
C_ C_ 0.899954 0.831773 0.510011 0.18498
C_ C_ 0.934427 0.872145 0.517394 -0.08735
C_ C_ 0.946548 0.884561 0.545979 -0.08735
C_ C_ 0.923034 0.857032 0.567175 -0.08735
C_ C_ 0.884311 0.821383 0.561421 0.18498
C_ C_ 0.875039 0.806566 0.532437 -0.05681
C_ C_ 0.845352 0.762278 0.52607 -0.08735
C_ C_ 0.822042 0.739089 0.549266 -0.08735
C_ C_ 0.826674 0.760114 0.576639 0.1947
N_ N_ 0.612681 0.673954 0.976711 -0.29468
N_ N_ 0.647119 0.694345 0.578879 -0.17154
N_ N_ 0.607218 0.676165 0.727048 -0.17154
N_ N_ 0.627776 0.704625 0.829993 -0.29468
N_ N_ 0.852882 0.843402 0.728122 -0.29468
N_ N_ 0.847555 0.802166 0.832522 -0.17154
N_ N_ 0.871967 0.840317 0.980459 -0.17154
N_ N_ 0.857949 0.798786 0.583506 -0.29468
O_ O_ 0.698034 0.670032 0.930295 -0.58347
O_ O_ 0.688074 0.693634 0.885872 -0.58347
O_ O_ 0.62677 0.759321 0.931812 -0.58347
O_ O_ 0.618976 0.770212 0.884364 -0.58347
O_ O_ 0.618626 0.606496 0.925001 -0.58347
O_ O_ 0.607961 0.618678 0.878986 -0.58347
O_ O_ 0.54592 0.683463 0.923443 -0.58347
O_ O_ 0.537895 0.698354 0.876565 -0.58347
O_ O_ 0.55946 0.696596 0.571547 -0.46727
O_ O_ 0.731368 0.675568 0.58551 -0.46727
O_ O_ 0.521561 0.693839 0.719373 -0.46727
O_ O_ 0.691377 0.65122 0.729764 -0.46727
O_ O_ 0.774323 0.821082 0.678775 -0.58347
O_ O_ 0.782754 0.809752 0.63284 -0.58347
O_ O_ 0.856588 0.746248 0.687006 -0.58347
O_ O_ 0.86332 0.741369 0.639068 -0.58347
O_ O_ 0.848235 0.897227 0.671436 -0.58347
O_ O_ 0.850548 0.890264 0.624391 -0.58347
O_ O_ 0.926549 0.818108 0.681158 -0.58347
O_ O_ 0.930675 0.819014 0.634716 -0.58347
O_ O_ 0.932085 0.785444 0.827994 -0.46727
O_ O_ 0.7622 0.813543 0.835761 -0.46727
O_ O_ 0.955266 0.821838 0.977943 -0.46727
O_ O_ 0.786434 0.858902 0.98261 -0.46727
