_cell_length_a 26.376
_cell_length_b 26.400000238300095
_cell_length_c 46.67800035477134
_cell_angle_alpha 90.00700052986613
_cell_angle_beta 89.99899961309502
_cell_angle_gamma 90.45000003183146
_symmetry_space_group_name_H-M         'P 1'
_symmetry_Int_Tables_number            1
loop_
_symmetry_equiv_pos_as_xyz
   'x, y, z'
                         
loop_
_atom_site_label
_atom_site_type_symbol
_atom_site_fract_x 
_atom_site_fract_y
_atom_site_fract_z
_atom_site_charge
Zn Zn 0.129089 0.179767 0.380842 0.90689
Zn Zn 0.139991 0.177412 0.428815 0.90689
Zn Zn 0.373558 0.306341 0.128931 0.90689
Zn Zn 0.360427 0.31255 0.175292 0.90689
H_ H_ 0.304284 0.195236 0.445763 0.11455
H_ H_ 0.379852 0.181492 0.348938 0.11455
H_ H_ 0.288458 0.189894 0.354473 0.11455
H_ H_ 0.390936 0.194431 0.464332 0.11455
H_ H_ 0.48292 0.19722 0.45775 0.11455
H_ H_ 0.463573 0.165006 0.369354 0.11455
H_ H_ 0.153182 0.00920033 0.444713 0.11455
H_ H_ 0.172501 0.43938 0.354248 0.11455
H_ H_ 0.159593 0.0183629 0.352984 0.11455
H_ H_ 0.105522 0.416516 0.465465 0.11455
H_ H_ 0.112367 0.326332 0.459049 0.11455
H_ H_ 0.153177 0.348476 0.369772 0.11455
H_ H_ 0.0939408 0.089598 0.462652 0.11455
H_ H_ 0.061081 0.0880955 0.0135466 0.11455
H_ H_ 0.0950809 0.131778 0.0547503 0.11455
H_ H_ 0.18828 0.239088 0.471107 0.11455
H_ H_ 0.217875 0.308598 0.015032 0.11455
H_ H_ 0.197932 0.280697 0.0635377 0.11455
H_ H_ 0.0179653 0.200529 0.127106 0.11455
H_ H_ 0.0111969 0.178165 0.176828 0.11455
H_ H_ 0.268599 0.1518 0.131946 0.11455
H_ H_ 0.260712 0.129184 0.181861 0.11455
H_ H_ 0.106383 0.0612247 0.251441 0.11455
H_ H_ 0.061574 0.0508316 0.297906 0.11455
H_ H_ 0.0813542 0.113629 0.337998 0.11455
H_ H_ 0.185609 0.224761 0.256073 0.11455
H_ H_ 0.21049 0.276903 0.293363 0.11455
H_ H_ 0.178142 0.256299 0.345649 0.11455
H_ H_ 0.197712 0.285579 0.192728 0.11455
H_ H_ 0.130648 0.34918 0.101835 0.11455
H_ H_ 0.221046 0.335862 0.106683 0.11455
H_ H_ 0.113257 0.285202 0.213362 0.11455
H_ H_ 0.0177568 0.288886 0.205682 0.11455
H_ H_ 0.0436229 0.343184 0.119092 0.11455
H_ H_ 0.344354 0.473922 0.191154 0.11455
H_ H_ 0.330495 0.0564786 0.0994221 0.11455
H_ H_ 0.361853 0.466771 0.0997712 0.11455
H_ H_ 0.408027 0.0576016 0.209672 0.11455
H_ H_ 0.41437 0.151955 0.205134 0.11455
H_ H_ 0.35825 0.13776 0.116731 0.11455
H_ H_ 0.405346 0.391152 0.20823 0.11455
H_ H_ 0.426963 0.423197 0.257691 0.11455
H_ H_ 0.401807 0.37531 0.300879 0.11455
H_ H_ 0.307114 0.249659 0.219337 0.11455
H_ H_ 0.295503 0.186293 0.261788 0.11455
H_ H_ 0.325102 0.207854 0.309866 0.11455
H_ H_ 0.492905 0.292073 0.370136 0.11455
H_ H_ 0.49964 0.298342 0.420931 0.11455
H_ H_ 0.245793 0.357976 0.379688 0.11455
H_ H_ 0.252097 0.356534 0.433183 0.11455
H_ H_ 0.413538 0.415688 0.493149 0.11455
H_ H_ 0.456727 0.42412 0.0384532 0.11455
H_ H_ 0.43155 0.372402 0.0815226 0.11455
H_ H_ 0.327963 0.249482 0.00631178 0.11455
H_ H_ 0.311963 0.199018 0.0496236 0.11455
H_ H_ 0.318707 0.238463 0.0981325 0.11455
C_ C_ 0.232321 0.178481 0.40501 0.68181
C_ C_ 0.288955 0.18225 0.400154 -0.05681
C_ C_ 0.321173 0.184826 0.424484 -0.08735
C_ C_ 0.374115 0.182134 0.420112 -0.05681
C_ C_ 0.395063 0.17495 0.39272 -0.05681
C_ C_ 0.362535 0.177436 0.369101 -0.08735
C_ C_ 0.310995 0.179522 0.37302 -0.08735
C_ C_ 0.406394 0.190782 0.443025 -0.08735
C_ C_ 0.459316 0.189443 0.439819 -0.08735
C_ C_ 0.480017 0.181138 0.412105 -0.05681
C_ C_ 0.446188 0.17379 0.389038 -0.08735
C_ C_ 0.129879 0.276451 0.411688 0.68181
C_ C_ 0.146206 0.0792342 0.400265 0.68181
C_ C_ 0.146717 0.0241576 0.399316 -0.05681
C_ C_ 0.125284 0.489999 0.42509 -0.08735
C_ C_ 0.125777 0.438017 0.421992 -0.05681
C_ C_ 0.141928 0.418077 0.394971 -0.05681
C_ C_ 0.153415 0.45228 0.372491 -0.08735
C_ C_ 0.148715 0.504246 0.376126 -0.08735
C_ C_ 0.11109 0.404001 0.444306 -0.08735
C_ C_ 0.121992 0.352748 0.442046 -0.08735
C_ C_ 0.13247 0.331456 0.415055 -0.05681
C_ C_ 0.145135 0.363171 0.391511 -0.08735
C_ C_ 0.0364644 0.172469 0.405737 0.68181
C_ C_ 0.109293 0.11027 0.480276 0.1947
C_ C_ 0.0863442 0.120877 0.0099409 -0.08735
C_ C_ 0.104052 0.14762 0.0334413 -0.08735
C_ C_ 0.13829 0.18794 0.0292674 -0.05681
C_ C_ 0.153767 0.201298 1.000674777 0.18498
C_ C_ 0.177226 0.227239 0.493229 -0.08735
C_ C_ 0.197441 0.27485 0.0179058 -0.08735
C_ C_ 0.186422 0.259699 0.0468574 -0.08735
C_ C_ 0.158857 0.215863 0.0524059 0.18498
C_ C_ 0.193165 0.180309 0.0973077 0.44287
C_ C_ 0.106914 0.205535 0.0964837 0.44287
C_ C_ 0.0999914 0.189338 0.124534 -0.05681
C_ C_ 0.0516994 0.190805 0.137965 -0.08735
C_ C_ 0.048808 0.179075 0.167441 -0.08735
C_ C_ 0.0915399 0.171301 0.184225 -0.05681
C_ C_ 0.137561 0.160686 0.170194 -0.05681
C_ C_ 0.142219 0.17024 0.140653 -0.05681
C_ C_ 0.190182 0.169296 0.127427 -0.05681
C_ C_ 0.232152 0.155364 0.142805 -0.08735
C_ C_ 0.228456 0.145933 0.171828 -0.08735
C_ C_ 0.178937 0.143892 0.185385 -0.05681
C_ C_ 0.174305 0.13639 0.21555 0.44287
C_ C_ 0.091715 0.172709 0.215558 0.44287
C_ C_ 0.126806 0.139911 0.259035 0.18498
C_ C_ 0.102349 0.0945067 0.266274 -0.08735
C_ C_ 0.0820843 0.0844871 0.293125 -0.08735
C_ C_ 0.0938185 0.11828 0.315644 -0.08735
C_ C_ 0.126271 0.160275 0.310685 0.18498
C_ C_ 0.14232 0.171783 0.282147 -0.05681
C_ C_ 0.173035 0.21378 0.277793 -0.08735
C_ C_ 0.189842 0.243597 0.300783 -0.08735
C_ C_ 0.169451 0.233171 0.32844 0.1947
C_ C_ 0.271574 0.307954 0.154139 0.68181
C_ C_ 0.21671 0.308398 0.150171 -0.05681
C_ C_ 0.182975 0.296754 0.172234 -0.08735
C_ C_ 0.130676 0.303486 0.169096 -0.05681
C_ C_ 0.111612 0.326669 0.144287 -0.05681
C_ C_ 0.144183 0.33469 0.121094 -0.08735
C_ C_ 0.196494 0.327401 0.124434 -0.08735
C_ C_ 0.0971471 0.292947 0.191742 -0.08735
C_ C_ 0.0451173 0.301229 0.189832 -0.08735
C_ C_ 0.0243383 0.319324 0.163551 -0.05681
C_ C_ 0.0583153 0.332025 0.140489 -0.08735
C_ C_ 0.382129 0.210383 0.159219 0.68181
C_ C_ 0.356942 0.404255 0.145598 0.68181
C_ C_ 0.355762 0.461837 0.145738 -0.05681
C_ C_ 0.375364 -0.0049799999999999844 0.169039 -0.08735
C_ C_ 0.380879 0.0475268 0.166214 -0.05681
C_ C_ 0.367002 0.0696634 0.140306 -0.05681
C_ C_ 0.348781 0.0406211 0.118477 -0.08735
C_ C_ 0.363341 0.487856 0.118823 -0.08735
C_ C_ 0.398047 0.0768061 0.189274 -0.08735
C_ C_ 0.398597 0.129873 0.186206 -0.08735
C_ C_ 0.383999 0.153478 0.162 -0.05681
C_ C_ 0.367215 0.121914 0.13807 -0.08735
C_ C_ 0.46307 0.313935 0.151001 0.68181
C_ C_ 0.39451 0.370358 0.227269 0.1947
C_ C_ 0.405034 0.389005 0.255786 -0.08735
C_ C_ 0.389496 0.361918 0.278707 -0.08735
C_ C_ 0.357745 0.320539 0.275799 -0.05681
C_ C_ 0.348815 0.302951 0.24682 0.18498
C_ C_ 0.322087 0.257971 0.242282 -0.08735
C_ C_ 0.313774 0.223085 0.26539 -0.08735
C_ C_ 0.328041 0.237697 0.292765 -0.08735
C_ C_ 0.346559 0.287354 0.299054 0.18498
C_ C_ 0.315134 0.316145 0.344425 0.44287
C_ C_ 0.403297 0.297599 0.340101 0.44287
C_ C_ 0.410114 0.30763 0.369676 -0.05681
C_ C_ 0.4581 0.303666 0.382834 -0.08735
C_ C_ 0.46105 0.302514 0.412393 -0.08735
C_ C_ 0.419864 0.319687 0.429588 -0.05681
C_ C_ 0.372987 0.330144 0.416915 -0.05681
C_ C_ 0.368923 0.321696 0.387016 -0.05681
C_ C_ 0.3213 0.328678 0.373715 -0.05681
C_ C_ 0.278874 0.343934 0.390479 -0.08735
C_ C_ 0.283508 0.347905 0.420371 -0.08735
C_ C_ 0.328963 0.338192 0.434029 -0.05681
C_ C_ 0.334945 0.338402 0.464453 0.44287
C_ C_ 0.423202 0.313466 0.459089 0.44287
C_ C_ 0.381505 0.336515 0.0049366 0.18498
C_ C_ 0.411842 0.379691 0.00948197 -0.08735
C_ C_ 0.43167 0.392056 0.0370499 -0.08735
C_ C_ 0.413836 0.365313 0.061191 -0.08735
C_ C_ 0.378153 0.325025 0.0572404 0.18498
C_ C_ 0.365018 0.307354 0.0299154 -0.05681
C_ C_ 0.342157 0.261613 0.027099 -0.08735
C_ C_ 0.33229 0.232717 0.0516478 -0.08735
C_ C_ 0.338561 0.254377 0.0791481 0.1947
N_ N_ 0.13439 0.153739 0.475614 -0.29468
N_ N_ 0.152203 0.199734 0.0827047 -0.17154
N_ N_ 0.132908 0.153429 0.229591 -0.17154
N_ N_ 0.138768 0.190549 0.33303 -0.29468
N_ N_ 0.367097 0.326903 0.222708 -0.29468
N_ N_ 0.356109 0.30017 0.328158 -0.17154
N_ N_ 0.382982 0.326322 0.476394 -0.17154
N_ N_ 0.363458 0.298314 0.0819757 -0.29468
O_ O_ 0.212296 0.182153 0.429081 -0.58347
O_ O_ 0.20382 0.182301 0.383552 -0.58347
O_ O_ 0.128649 0.2496 0.434861 -0.58347
O_ O_ 0.1298 0.254622 0.387182 -0.58347
O_ O_ 0.150316 0.100129 0.423541 -0.58347
O_ O_ 0.133315 0.102263 0.3779 -0.58347
O_ O_ 0.0656528 0.170587 0.427027 -0.58347
O_ O_ 0.0547874 0.178725 0.380296 -0.58347
O_ O_ 0.070185 0.226804 0.0819894 -0.46727
O_ O_ 0.237477 0.181067 0.0855736 -0.46727
O_ O_ 0.0576524 0.199211 0.22959 -0.46727
O_ O_ 0.215742 0.125298 0.230709 -0.46727
O_ O_ 0.289773 0.298517 0.178611 -0.58347
O_ O_ 0.299564 0.308605 0.132363 -0.58347
O_ O_ 0.373539 0.239109 0.18103 -0.58347
O_ O_ 0.380537 0.230023 0.134369 -0.58347
O_ O_ 0.346794 0.381958 0.169306 -0.58347
O_ O_ 0.375695 0.382084 0.124378 -0.58347
O_ O_ 0.434489 0.318177 0.172159 -0.58347
O_ O_ 0.446531 0.310118 0.126018 -0.58347
O_ O_ 0.44264 0.280447 0.325691 -0.46727
O_ O_ 0.270614 0.311759 0.333321 -0.46727
O_ O_ 0.468078 0.306819 0.469884 -0.46727
O_ O_ 0.29602 0.342295 0.480932 -0.46727
Zn Zn 0.126345 0.193915 0.881842 0.90689
Zn Zn 0.140999 0.18226 0.931107 0.90689
Zn Zn 0.379884 0.311572 0.629722 0.90689
Zn Zn 0.362214 0.315987 0.676762 0.90689
H_ H_ 0.302858 0.190889 0.947444 0.11455
H_ H_ 0.367933 0.173487 0.848119 0.11455
H_ H_ 0.274835 0.176627 0.857502 0.11455
H_ H_ 0.390495 0.17212 0.965715 0.11455
H_ H_ 0.479549 0.151586 0.956007 0.11455
H_ H_ 0.458558 0.173044 0.866202 0.11455
H_ H_ 0.145067 0.0158769 0.942594 0.11455
H_ H_ 0.143913 0.443354 0.847921 0.11455
H_ H_ 0.109344 0.0322556 0.854938 0.11455
H_ H_ 0.150396 0.437701 0.964462 0.11455
H_ H_ 0.143584 0.345147 0.960198 0.11455
H_ H_ 0.133762 0.357693 0.867039 0.11455
H_ H_ 0.08597 0.115673 0.96257 0.11455
H_ H_ 0.0753955 0.0593894 0.511232 0.11455
H_ H_ 0.113407 0.103768 0.552095 0.11455
H_ H_ 0.19519 0.256953 0.975109 0.11455
H_ H_ 0.204508 0.296829 0.510774 0.11455
H_ H_ 0.188145 0.269658 0.560013 0.11455
H_ H_ 0.0129593 0.202314 0.622212 0.11455
H_ H_ 0.00509545 0.209849 0.673163 0.11455
H_ H_ 0.264029 0.146207 0.635195 0.11455
H_ H_ 0.249011 0.144436 0.689136 0.11455
H_ H_ 0.0663637 0.0924439 0.751361 0.11455
H_ H_ 0.0444164 0.076817 0.801044 0.11455
H_ H_ 0.0817375 0.130319 0.837717 0.11455
H_ H_ 0.168501 0.248599 0.754618 0.11455
H_ H_ 0.210137 0.292085 0.798409 0.11455
H_ H_ 0.192395 0.260659 0.846191 0.11455
H_ H_ 0.197163 0.298338 0.690254 0.11455
H_ H_ 0.134222 0.311758 0.592013 0.11455
H_ H_ 0.225553 0.327078 0.602713 0.11455
H_ H_ 0.118658 0.32997 0.708665 0.11455
H_ H_ 0.0293491 0.350817 0.700744 0.11455
H_ H_ 0.045955 0.323145 0.610869 0.11455
H_ H_ 0.356755 0.488485 0.692583 0.11455
H_ H_ 0.374012 0.0631568 0.595381 0.11455
H_ H_ 0.366621 0.469117 0.597582 0.11455
H_ H_ 0.374626 0.0641916 0.714989 0.11455
H_ H_ 0.384198 0.152318 0.713516 0.11455
H_ H_ 0.382399 0.145138 0.619428 0.11455
H_ H_ 0.406384 0.391372 0.709625 0.11455
H_ H_ 0.402754 0.433817 0.755489 0.11455
H_ H_ 0.367224 0.387108 0.798539 0.11455
H_ H_ 0.317149 0.243017 0.717404 0.11455
H_ H_ 0.294421 0.185094 0.756448 0.11455
H_ H_ 0.303347 0.217883 0.806074 0.11455
H_ H_ 0.479259 0.27707 0.871339 0.11455
H_ H_ 0.48734 0.281469 0.92186 0.11455
H_ H_ 0.244531 0.363686 0.87687 0.11455
H_ H_ 0.250061 0.356623 0.929538 0.11455
H_ H_ 0.418473 0.404035 -0.007770000000000055 0.11455
H_ H_ 0.436482 0.445591 0.540128 0.11455
H_ H_ 0.423798 0.386537 0.584451 0.11455
H_ H_ 0.343414 0.249094 0.50591 0.11455
H_ H_ 0.314898 0.202355 0.549002 0.11455
H_ H_ 0.32468 0.2383 0.595919 0.11455
C_ C_ 0.230107 0.18937 0.90714 0.68181
C_ C_ 0.285371 0.189688 0.901697 -0.05681
C_ C_ 0.319514 0.187013 0.925265 -0.08735
C_ C_ 0.370899 0.176005 0.920028 -0.05681
C_ C_ 0.389268 0.171722 0.892598 -0.05681
C_ C_ 0.354014 0.175701 0.870587 -0.08735
C_ C_ 0.303351 0.184644 0.874423 -0.08735
C_ C_ 0.403355 0.168308 0.94308 -0.08735
C_ C_ 0.45473 0.15638 0.937784 -0.08735
C_ C_ 0.475536 0.160697 0.910008 -0.05681
C_ C_ 0.442262 0.169517 0.887643 -0.08735
C_ C_ 0.130403 0.287501 0.910156 0.68181
C_ C_ 0.136023 0.0877825 0.900501 0.68181
C_ C_ 0.129099 0.0317427 0.898145 -0.05681
C_ C_ 0.159464 0.50038 0.922798 -0.08735
C_ C_ 0.155759 0.447707 0.919933 -0.05681
C_ C_ 0.145005 0.427451 0.892996 -0.05681
C_ C_ 0.149114 0.458285 0.868543 -0.08735
C_ C_ 0.151081 0.510809 0.87243 -0.08735
C_ C_ 0.14895 0.419495 0.944113 -0.08735
C_ C_ 0.145961 0.36716 0.940855 -0.08735
C_ C_ 0.137663 0.343955 0.913591 -0.05681
C_ C_ 0.135861 0.374607 0.88935 -0.08735
C_ C_ 0.0366424 0.188015 0.907244 0.68181
C_ C_ 0.103805 0.13191 0.982298 0.1947
C_ C_ 0.0988959 0.0927896 0.508374 -0.08735
C_ C_ 0.121017 0.119167 0.531112 -0.08735
C_ C_ 0.142521 0.166859 0.526139 -0.05681
C_ C_ 0.149798 0.184597 0.49723 0.18498
C_ C_ 0.181043 0.245518 0.995657 -0.08735
C_ C_ 0.183948 0.262477 0.514845 -0.08735
C_ C_ 0.178159 0.245553 0.542724 -0.08735
C_ C_ 0.157114 0.198846 0.549554 0.18498
C_ C_ 0.19013 0.168952 0.596204 0.44287
C_ C_ 0.1046 0.196225 0.593366 0.44287
C_ C_ 0.09596 0.187394 0.622536 -0.05681
C_ C_ 0.0462002 0.191901 0.635186 -0.08735
C_ C_ 0.0417608 0.198484 0.664699 -0.08735
C_ C_ 0.08497 0.190158 0.682387 -0.05681
C_ C_ 0.131258 0.171231 0.669395 -0.05681
C_ C_ 0.136085 0.170172 0.639478 -0.05681
C_ C_ 0.183974 0.160231 0.625743 -0.05681
C_ C_ 0.225718 0.153198 0.64442 -0.08735
C_ C_ 0.219483 0.151024 0.675064 -0.08735
C_ C_ 0.172714 0.159221 0.68751 -0.05681
C_ C_ 0.165634 0.155416 0.716793 0.44287
C_ C_ 0.0835037 0.188855 0.712789 0.44287
C_ C_ 0.112077 0.158757 0.758737 0.18498
C_ C_ 0.0852523 0.117088 0.766271 -0.08735
C_ C_ 0.0714698 0.107109 0.795156 -0.08735
C_ C_ 0.0857569 0.140152 0.815883 -0.08735
C_ C_ 0.117008 0.181081 0.809925 0.18498
C_ C_ 0.133489 0.190653 0.780909 -0.05681
C_ C_ 0.163897 0.232747 0.77638 -0.08735
C_ C_ 0.186714 0.257396 0.799916 -0.08735
C_ C_ 0.173461 0.242256 0.828072 0.1947
C_ C_ 0.274458 0.308049 0.651202 0.68181
C_ C_ 0.219588 0.307958 0.646211 -0.05681
C_ C_ 0.184822 0.304494 0.668576 -0.08735
C_ C_ 0.133471 0.317896 0.663791 -0.05681
C_ C_ 0.114082 0.321451 0.636425 -0.05681
C_ C_ 0.14796 0.312375 0.613773 -0.08735
C_ C_ 0.200152 0.317513 0.618533 -0.08735
C_ C_ 0.102924 0.330176 0.68748 -0.08735
C_ C_ 0.0516079 0.343449 0.682767 -0.08735
C_ C_ 0.0274937 0.330289 0.656736 -0.05681
C_ C_ 0.0613524 0.328054 0.632822 -0.08735
C_ C_ 0.37616 0.215391 0.661905 0.68181
C_ C_ 0.3652 0.41567 0.647233 0.68181
C_ C_ 0.364693 0.472844 0.645052 -0.05681
C_ C_ 0.362359 -0.00034202 0.670854 -0.08735
C_ C_ 0.36337 0.0520852 0.669475 -0.05681
C_ C_ 0.365233 0.0754882 0.641752 -0.05681
C_ C_ 0.367189 0.046707 0.617242 -0.08735
C_ C_ 0.365585 0.494373 0.616718 -0.08735
C_ C_ 0.369288 0.0814756 0.693515 -0.08735
C_ C_ 0.373259 0.133582 0.692755 -0.08735
C_ C_ 0.371605 0.158138 0.664949 -0.05681
C_ C_ 0.372349 0.128651 0.63993 -0.08735
C_ C_ 0.471029 0.316642 0.656006 0.68181
C_ C_ 0.393278 0.3704 0.727394 0.1947
C_ C_ 0.391236 0.39495 0.753568 -0.08735
C_ C_ 0.376673 0.367845 0.778043 -0.08735
C_ C_ 0.358039 0.318444 0.773121 -0.05681
C_ C_ 0.352301 0.30032 0.744404 0.18498
C_ C_ 0.326505 0.254428 0.738635 -0.08735
C_ C_ 0.315279 0.220433 0.761489 -0.08735
C_ C_ 0.320409 0.23895 0.788755 -0.08735
C_ C_ 0.344225 0.285578 0.796564 0.18498
C_ C_ 0.315496 0.325707 0.841308 0.44287
C_ C_ 0.397526 0.286957 0.838844 0.44287
C_ C_ 0.403418 0.295563 0.868905 -0.05681
C_ C_ 0.450097 0.287288 0.882652 -0.08735
C_ C_ 0.453947 0.291554 0.911408 -0.08735
C_ C_ 0.411088 0.301608 0.928299 -0.05681
C_ C_ 0.365946 0.314387 0.914864 -0.05681
C_ C_ 0.363925 0.315517 0.885155 -0.05681
C_ C_ 0.318138 0.329714 0.870751 -0.05681
C_ C_ 0.278933 0.350116 0.886856 -0.08735
C_ C_ 0.282165 0.345105 0.916808 -0.08735
C_ C_ 0.324725 0.331388 0.93064 -0.05681
C_ C_ 0.327841 0.336286 0.960914 0.44287
C_ C_ 0.409618 0.299318 0.959472 0.44287
C_ C_ 0.391718 0.34119 0.505033 0.18498
C_ C_ 0.407966 0.390353 0.51167 -0.08735
C_ C_ 0.420234 0.408196 0.539088 -0.08735
C_ C_ 0.40972 0.37696 0.562962 -0.08735
C_ C_ 0.391348 0.326739 0.558696 0.18498
C_ C_ 0.380911 0.309916 0.529884 -0.05681
C_ C_ 0.356311 0.26282 0.526889 -0.08735
C_ C_ 0.339564 0.23488 0.551967 -0.08735
C_ C_ 0.345295 0.256244 0.578344 0.1947
N_ N_ 0.134569 0.173174 0.977391 -0.29468
N_ N_ 0.150315 0.185555 0.579908 -0.17154
N_ N_ 0.12118 0.169055 0.728284 -0.17154
N_ N_ 0.13695 0.205861 0.832434 -0.29468
N_ N_ 0.365797 0.329245 0.721995 -0.29468
N_ N_ 0.353001 0.299518 0.826176 -0.17154
N_ N_ 0.371337 0.322898 0.975113 -0.17154
N_ N_ 0.377724 0.29641 0.582582 -0.29468
O_ O_ 0.213916 0.189914 0.93329 -0.58347
O_ O_ 0.197852 0.199457 0.887023 -0.58347
O_ O_ 0.139237 0.26029 0.932173 -0.58347
O_ O_ 0.118497 0.268511 0.885931 -0.58347
O_ O_ 0.14321 0.106653 0.925847 -0.58347
O_ O_ 0.128679 0.117443 0.879163 -0.58347
O_ O_ 0.0657786 0.184688 0.928583 -0.58347
O_ O_ 0.0530217 0.193702 0.881643 -0.58347
O_ O_ 0.0665294 0.210399 0.577799 -0.46727
O_ O_ 0.23216 0.153684 0.583493 -0.46727
O_ O_ 0.0426717 0.205112 0.726419 -0.46727
O_ O_ 0.198555 0.131279 0.732906 -0.46727
O_ O_ 0.29145 0.305443 0.676531 -0.58347
O_ O_ 0.304375 0.3134 0.629931 -0.58347
O_ O_ 0.378143 0.242806 0.684056 -0.58347
O_ O_ 0.37561 0.235284 0.637707 -0.58347
O_ O_ 0.349146 0.391577 0.669345 -0.58347
O_ O_ 0.382251 0.390014 0.626757 -0.58347
O_ O_ 0.440974 0.328239 0.676539 -0.58347
O_ O_ 0.457223 0.309266 0.630637 -0.58347
O_ O_ 0.42969 0.259241 0.824733 -0.46727
O_ O_ 0.272663 0.336764 0.828217 -0.46727
O_ O_ 0.451492 0.288934 0.97248 -0.46727
O_ O_ 0.290413 0.357491 0.975347 -0.46727
Zn Zn 0.12124 0.681631 0.386944 0.90689
Zn Zn 0.136898 0.679588 0.433478 0.90689
Zn Zn 0.361616 0.806364 0.130701 0.90689
Zn Zn 0.350137 0.817595 0.177438 0.90689
H_ H_ 0.30328 0.699603 0.445428 0.11455
H_ H_ 0.369246 0.673615 0.347972 0.11455
H_ H_ 0.273736 0.669259 0.358411 0.11455
H_ H_ 0.393912 0.707322 0.463584 0.11455
H_ H_ 0.485102 0.698697 0.453956 0.11455
H_ H_ 0.460537 0.681519 0.364208 0.11455
H_ H_ 0.116496 0.506569 0.445524 0.11455
H_ H_ 0.139788 0.924962 0.350815 0.11455
H_ H_ 0.154835 0.529529 0.357031 0.11455
H_ H_ 0.147465 0.925191 0.468355 0.11455
H_ H_ 0.135427 0.835517 0.4648 0.11455
H_ H_ 0.136743 0.843096 0.375189 0.11455
H_ H_ 0.0821565 0.612084 0.470442 0.11455
H_ H_ 0.073888 0.573569 0.0124182 0.11455
H_ H_ 0.106672 0.612993 0.0547519 0.11455
H_ H_ 0.195513 0.746357 0.475646 0.11455
H_ H_ 0.219924 0.794877 0.016855 0.11455
H_ H_ 0.206184 0.770134 0.0647284 0.11455
H_ H_ 0.00522495 0.699876 0.119665 0.11455
H_ H_ -0.01003900000000002 0.689038 0.17428 0.11455
H_ H_ 0.253438 0.653408 0.141543 0.11455
H_ H_ 0.240119 0.647833 0.194362 0.11455
H_ H_ 0.0432905 0.599036 0.252178 0.11455
H_ H_ 0.0290355 0.567003 0.298728 0.11455
H_ H_ 0.0613328 0.614373 0.340248 0.11455
H_ H_ 0.155383 0.744372 0.261177 0.11455
H_ H_ 0.191209 0.783596 0.302717 0.11455
H_ H_ 0.188855 0.739241 0.34772 0.11455
H_ H_ 0.184854 0.806896 0.196464 0.11455
H_ H_ 0.114414 0.838897 0.100772 0.11455
H_ H_ 0.203887 0.820504 0.107125 0.11455
H_ H_ 0.10476 0.809941 0.217871 0.11455
H_ H_ 0.00850138 0.819224 0.210052 0.11455
H_ H_ 0.0239556 0.818968 0.118261 0.11455
H_ H_ 0.375526 0.977795 0.189737 0.11455
H_ H_ 0.366296 0.556124 0.0966565 0.11455
H_ H_ 0.339422 0.962457 0.102534 0.11455
H_ H_ 0.3362 0.560151 0.214304 0.11455
H_ H_ 0.335853 0.651355 0.209979 0.11455
H_ H_ 0.366056 0.640221 0.120415 0.11455
H_ H_ 0.408341 0.893138 0.21184 0.11455
H_ H_ 0.42743 0.92267 0.260393 0.11455
H_ H_ 0.397594 0.875154 0.303013 0.11455
H_ H_ 0.288571 0.763318 0.223927 0.11455
H_ H_ 0.26589 0.703694 0.264185 0.11455
H_ H_ 0.305698 0.718458 0.311384 0.11455
H_ H_ 0.487316 0.802096 0.370348 0.11455
H_ H_ 0.498216 0.811265 0.423674 0.11455
H_ H_ 0.237363 0.835873 0.38868 0.11455
H_ H_ 0.2533 0.857265 0.437984 0.11455
H_ H_ 0.437847 0.921318 0.498174 0.11455
H_ H_ 0.445686 0.929256 0.0492414 0.11455
H_ H_ 0.424422 0.868716 0.087035 0.11455
H_ H_ 0.343143 0.747976 0.00433795 0.11455
H_ H_ 0.30945 0.697926 0.0457022 0.11455
H_ H_ 0.311008 0.727832 0.0937272 0.11455
C_ C_ 0.227453 0.680838 0.407976 0.68181
C_ C_ 0.284169 0.68194 0.403275 -0.05681
C_ C_ 0.317758 0.693038 0.424195 -0.08735
C_ C_ 0.371574 0.690353 0.419126 -0.05681
C_ C_ 0.390026 0.684886 0.390861 -0.05681
C_ C_ 0.354825 0.678315 0.369495 -0.08735
C_ C_ 0.302174 0.679242 0.375123 -0.08735
C_ C_ 0.406427 0.697075 0.442331 -0.08735
C_ C_ 0.458625 0.699272 0.435846 -0.08735
C_ C_ 0.476684 0.686845 0.40913 -0.05681
C_ C_ 0.442585 0.685745 0.385427 -0.08735
C_ C_ 0.122077 0.77729 0.417347 0.68181
C_ C_ 0.130834 0.579874 0.405443 0.68181
C_ C_ 0.139237 0.524082 0.402817 -0.05681
C_ C_ 0.142575 0.992732 0.424493 -0.08735
C_ C_ 0.132624 0.940093 0.422331 -0.05681
C_ C_ 0.134472 0.916225 0.395422 -0.05681
C_ C_ 0.140299 0.944435 0.37076 -0.08735
C_ C_ 0.148103 0.998226 0.372861 -0.08735
C_ C_ 0.135283 0.910286 0.44788 -0.08735
C_ C_ 0.129069 0.857277 0.445334 -0.08735
C_ C_ 0.122926 0.8335 0.419049 -0.05681
C_ C_ 0.126585 0.86327 0.394184 -0.08735
C_ C_ 0.0301152 0.684948 0.411754 0.68181
C_ C_ 0.105021 0.62883 0.486515 0.1947
C_ C_ 0.0964522 0.605778 0.00967528 -0.08735
C_ C_ 0.119127 0.629135 0.0332374 -0.08735
C_ C_ 0.141385 0.676062 0.0301786 -0.05681
C_ C_ 0.149484 0.692289 1.00120211 0.18498
C_ C_ 0.184702 0.737685 0.497579 -0.08735
C_ C_ 0.197434 0.762366 0.0210627 -0.08735
C_ C_ 0.187258 0.74899 0.048235 -0.08735
C_ C_ 0.158548 0.705685 0.0534331 0.18498
C_ C_ 0.186001 0.678656 0.10119 0.44287
C_ C_ 0.0999857 0.701471 0.0946207 0.44287
C_ C_ 0.0868903 0.691737 0.124125 -0.05681
C_ C_ 0.0380427 0.692331 0.134104 -0.08735
C_ C_ 0.0274523 0.68918 0.164554 -0.08735
C_ C_ 0.0689624 0.684879 0.18394 -0.05681
C_ C_ 0.1169 0.672952 0.172859 -0.05681
C_ C_ 0.125697 0.681035 0.142876 -0.05681
C_ C_ 0.176387 0.673301 0.13148 -0.05681
C_ C_ 0.216747 0.661771 0.150221 -0.08735
C_ C_ 0.208596 0.655129 0.179513 -0.08735
C_ C_ 0.157866 0.660556 0.191571 -0.05681
C_ C_ 0.148915 0.663188 0.221323 0.44287
C_ C_ 0.0615621 0.681842 0.215561 0.44287
C_ C_ 0.0933617 0.657997 0.26303 0.18498
C_ C_ 0.0620408 0.61678 0.268557 -0.08735
C_ C_ 0.0527137 0.600339 0.295711 -0.08735
C_ C_ 0.0717258 0.627573 0.319259 -0.08735
C_ C_ 0.0988105 0.673524 0.31588 0.18498
C_ C_ 0.111942 0.687107 0.286922 -0.05681
C_ C_ 0.146233 0.728744 0.281644 -0.08735
C_ C_ 0.169872 0.749404 0.305271 -0.08735
C_ C_ 0.158433 0.73504 0.33337 0.1947
C_ C_ 0.259363 0.8071 0.155496 0.68181
C_ C_ 0.202226 0.812884 0.151655 -0.05681
C_ C_ 0.169074 0.809975 0.175449 -0.08735
C_ C_ 0.11679 0.816041 0.172108 -0.05681
C_ C_ 0.0961447 0.819681 0.143609 -0.05681
C_ C_ 0.129083 0.824681 0.120751 -0.08735
C_ C_ 0.180289 0.815424 0.12433 -0.08735
C_ C_ 0.0856523 0.816077 0.196003 -0.08735
C_ C_ 0.0330784 0.817616 0.191739 -0.08735
C_ C_ 0.00900508 0.821118 0.164239 -0.05681
C_ C_ 0.0419327 0.819731 0.140259 -0.08735
C_ C_ 0.35434 0.711846 0.161835 0.68181
C_ C_ 0.357194 0.911742 0.148435 0.68181
C_ C_ 0.36326 0.965405 0.145609 -0.05681
C_ C_ 0.351495 0.492343 0.170706 -0.08735
C_ C_ 0.353806 0.545612 0.169249 -0.05681
C_ C_ 0.366854 0.569351 0.142255 -0.05681
C_ C_ 0.366948 0.540039 0.117908 -0.08735
C_ C_ 0.348262 -0.012912000000000035 0.121081 -0.08735
C_ C_ 0.343385 0.575882 0.193858 -0.08735
C_ C_ 0.347753 0.628847 0.192271 -0.08735
C_ C_ 0.357296 0.653353 0.165345 -0.05681
C_ C_ 0.368411 0.622792 0.14136 -0.08735
C_ C_ 0.456129 0.81346 0.154302 0.68181
C_ C_ 0.394209 0.873467 0.230648 0.1947
C_ C_ 0.402848 0.890224 0.258632 -0.08735
C_ C_ 0.383079 0.864682 0.282378 -0.08735
C_ C_ 0.353995 0.821103 0.278024 -0.05681
C_ C_ 0.340582 0.809317 0.249051 0.18498
C_ C_ 0.309132 0.767978 0.244054 -0.08735
C_ C_ 0.296083 0.734485 0.267762 -0.08735
C_ C_ 0.313669 0.745545 0.295268 -0.08735
C_ C_ 0.343088 0.787455 0.300959 0.18498
C_ C_ 0.309977 0.814261 0.348509 0.44287
C_ C_ 0.396212 0.798794 0.342738 0.44287
C_ C_ 0.406334 0.808081 0.371684 -0.05681
C_ C_ 0.454988 0.806991 0.383864 -0.08735
C_ C_ 0.462829 0.815991 0.413747 -0.08735
C_ C_ 0.419964 0.823279 0.432084 -0.05681
C_ C_ 0.371755 0.822115 0.419733 -0.05681
C_ C_ 0.364342 0.815094 0.389471 -0.05681
C_ C_ 0.315823 0.819376 0.378166 -0.05681
C_ C_ 0.274783 0.831781 0.396914 -0.08735
C_ C_ 0.284585 0.845292 0.425074 -0.08735
C_ C_ 0.332194 0.833906 0.437498 -0.05681
C_ C_ 0.337366 0.841445 0.467594 0.44287
C_ C_ 0.424681 0.829133 0.462649 0.44287
C_ C_ 0.394763 0.833117 0.00907484 0.18498
C_ C_ 0.41262 0.880304 0.0156938 -0.08735
C_ C_ 0.426577 0.893544 0.0432993 -0.08735
C_ C_ 0.409648 0.864025 0.0661767 -0.08735
C_ C_ 0.383847 0.817746 0.0610763 0.18498
C_ C_ 0.376601 0.803537 0.0321085 -0.05681
C_ C_ 0.350704 0.757827 0.0269252 -0.08735
C_ C_ 0.330469 0.731165 0.0495337 -0.08735
C_ C_ 0.330322 0.750491 0.0772268 0.1947
N_ N_ 0.138161 0.666911 0.481239 -0.29468
N_ N_ 0.147145 0.69179 0.0831523 -0.17154
N_ N_ 0.102287 0.672012 0.232984 -0.17154
N_ N_ 0.126831 0.695609 0.338113 -0.29468
N_ N_ 0.361509 0.834096 0.225759 -0.29468
N_ N_ 0.350167 0.804462 0.330833 -0.17154
N_ N_ 0.383982 0.840278 0.479315 -0.17154
N_ N_ 0.3599 0.792248 0.0832713 -0.29468
O_ O_ 0.210275 0.688008 0.43302 -0.58347
O_ O_ 0.197411 0.675532 0.387003 -0.58347
O_ O_ 0.125986 0.749796 0.440025 -0.58347
O_ O_ 0.129438 0.75673 0.392802 -0.58347
O_ O_ 0.146289 0.603057 0.427643 -0.58347
O_ O_ 0.118218 0.604896 0.382988 -0.58347
O_ O_ 0.0577074 0.670879 0.431647 -0.58347
O_ O_ 0.0471397 0.694131 0.386918 -0.58347
O_ O_ 0.0621534 0.712059 0.0775974 -0.46727
O_ O_ 0.232094 0.678444 0.0903488 -0.46727
O_ O_ 0.018319 0.691397 0.227285 -0.46727
O_ O_ 0.187523 0.66006 0.2389 -0.46727
O_ O_ 0.276522 0.820408 0.179105 -0.58347
O_ O_ 0.28724 0.801093 0.133629 -0.58347
O_ O_ 0.341113 0.738364 0.182267 -0.58347
O_ O_ 0.364167 0.733572 0.138114 -0.58347
O_ O_ 0.346501 0.890664 0.172248 -0.58347
O_ O_ 0.363717 0.88416 0.126822 -0.58347
O_ O_ 0.42782 0.811866 0.175416 -0.58347
O_ O_ 0.436659 0.808998 0.128332 -0.58347
O_ O_ 0.434774 0.783792 0.326314 -0.46727
O_ O_ 0.265874 0.81505 0.337263 -0.46727
O_ O_ 0.469787 0.824346 0.473847 -0.46727
O_ O_ 0.296797 0.84831 0.485343 -0.46727
Zn Zn 0.128333 0.687565 0.884421 0.90689
Zn Zn 0.138305 0.679124 0.933243 0.90689
Zn Zn 0.378899 0.809878 0.632091 0.90689
Zn Zn 0.369746 0.819651 0.679439 0.90689
H_ H_ 0.306373 0.702797 0.945482 0.11455
H_ H_ 0.373492 0.656881 0.850444 0.11455
H_ H_ 0.278988 0.656819 0.857728 0.11455
H_ H_ 0.388924 0.67678 0.964877 0.11455
H_ H_ 0.481903 0.674632 0.959442 0.11455
H_ H_ 0.458355 0.675063 0.867279 0.11455
H_ H_ 0.170559 0.516044 0.943406 0.11455
H_ H_ 0.104174 0.93802 0.849681 0.11455
H_ H_ 0.15251 0.533874 0.852492 0.11455
H_ H_ 0.168039 0.934593 0.961954 0.11455
H_ H_ 0.143277 0.840506 0.96176 0.11455
H_ H_ 0.108927 0.852949 0.87144 0.11455
H_ H_ 0.0732703 0.612884 0.964573 0.11455
H_ H_ 0.0756117 0.579116 0.519335 0.11455
H_ H_ 0.121893 0.621017 0.558274 0.11455
H_ H_ 0.190776 0.748578 0.975614 0.11455
H_ H_ 0.22466 0.802354 0.514302 0.11455
H_ H_ 0.213663 0.775366 0.563051 0.11455
H_ H_ 1.0225707 0.690342 0.62265 0.11455
H_ H_ 1.0074999 0.692591 0.677455 0.11455
H_ H_ 0.278986 0.676289 0.643562 0.11455
H_ H_ 0.256963 0.654656 0.694159 0.11455
H_ H_ 0.0846666 0.575667 0.753767 0.11455
H_ H_ 0.0579935 0.561943 0.80455 0.11455
H_ H_ 0.0792555 0.62166 0.841587 0.11455
H_ H_ 0.149823 0.74615 0.759408 0.11455
H_ H_ 0.177538 0.800996 0.798848 0.11455
H_ H_ 0.17796 0.765989 0.847923 0.11455
H_ H_ 0.207192 0.790721 0.691642 0.11455
H_ H_ 0.138649 0.851633 0.600538 0.11455
H_ H_ 0.225604 0.84942 0.606226 0.11455
H_ H_ 0.115044 0.805565 0.712542 0.11455
H_ H_ 0.0250896 0.817076 0.704627 0.11455
H_ H_ 0.0513537 0.834423 0.614566 0.11455
H_ H_ 0.355505 0.981251 0.690625 0.11455
H_ H_ 0.390779 0.564269 0.594965 0.11455
H_ H_ 0.359714 0.973764 0.599169 0.11455
H_ H_ 0.353938 0.569975 0.710154 0.11455
H_ H_ 0.374164 0.660093 0.709029 0.11455
H_ H_ 0.381846 0.647344 0.616867 0.11455
H_ H_ 0.420648 0.89592 0.715535 0.11455
H_ H_ 0.424588 0.928301 0.763971 0.11455
H_ H_ 0.381606 0.884264 0.803662 0.11455
H_ H_ 0.318853 0.748887 0.720288 0.11455
H_ H_ 0.297775 0.690252 0.75986 0.11455
H_ H_ 0.320871 0.710396 0.809934 0.11455
H_ H_ 0.495713 0.802871 0.869923 0.11455
H_ H_ 0.503547 0.804593 0.921756 0.11455
H_ H_ 0.237575 0.82916 0.88699 0.11455
H_ H_ 0.24929 0.830866 0.938298 0.11455
H_ H_ 0.420403 0.908906 0.998254 0.11455
H_ H_ 0.462774 0.938345 0.546212 0.11455
H_ H_ 0.439241 0.888144 0.585798 0.11455
H_ H_ 0.342714 0.766092 0.505946 0.11455
H_ H_ 0.321992 0.711502 0.548375 0.11455
H_ H_ 0.336176 0.735968 0.596087 0.11455
C_ C_ 0.231004 0.694675 0.905424 0.68181
C_ C_ 0.286983 0.689833 0.90119 -0.05681
C_ C_ 0.320931 0.691658 0.924254 -0.08735
C_ C_ 0.373181 0.685453 0.919758 -0.05681
C_ C_ 0.391674 0.67809 0.893387 -0.05681
C_ C_ 0.357112 0.667728 0.870372 -0.08735
C_ C_ 0.305722 0.677261 0.872789 -0.08735
C_ C_ 0.405503 0.682406 0.944389 -0.08735
C_ C_ 0.457851 0.680063 0.941315 -0.08735
C_ C_ 0.478741 0.680017 0.912772 -0.05681
C_ C_ 0.443782 0.67598 0.889275 -0.08735
C_ C_ 0.123777 0.782077 0.912489 0.68181
C_ C_ 0.146415 0.587054 0.903093 0.68181
C_ C_ 0.154047 0.53311 0.898973 -0.05681
C_ C_ 0.137881 0.999836347 0.922542 -0.08735
C_ C_ 0.139049 0.94763 0.919417 -0.05681
C_ C_ 0.123393 0.925224 0.893343 -0.05681
C_ C_ 0.111031 0.956141 0.869369 -0.08735
C_ C_ 0.114269 0.00937216 0.871767 -0.08735
C_ C_ 0.15197 0.916756 0.942683 -0.08735
C_ C_ 0.140204 0.863461 0.941754 -0.08735
C_ C_ 0.126374 0.840533 0.915157 -0.05681
C_ C_ 0.113064 0.872007 0.892073 -0.08735
C_ C_ 0.0327335 0.679282 0.910977 0.68181
C_ C_ 0.097109 0.629872 0.983247 0.1947
C_ C_ 0.10005 0.61037 0.514232 -0.08735
C_ C_ 0.123644 0.63553 0.536676 -0.08735
C_ C_ 0.147207 0.680739 0.533097 -0.05681
C_ C_ 0.157178 0.695106 0.504006 0.18498
C_ C_ 0.184233 0.732139 0.997095 -0.08735
C_ C_ 0.205057 0.769511 0.518695 -0.08735
C_ C_ 0.194395 0.755584 0.54719 -0.08735
C_ C_ 0.168582 0.711172 0.555012 0.18498
C_ C_ 0.202489 0.686535 0.602581 0.44287
C_ C_ 0.114833 0.699043 0.595135 0.44287
C_ C_ 0.105084 0.688268 0.624351 -0.05681
C_ C_ 0.0546865 0.690413 0.637201 -0.08735
C_ C_ 0.0463429 0.687253 0.667808 -0.08735
C_ C_ 0.0891402 0.679281 0.686534 -0.05681
C_ C_ 0.138178 0.672872 0.672874 -0.05681
C_ C_ 0.146598 0.677857 0.642976 -0.05681
C_ C_ 0.193715 0.679559 0.631689 -0.05681
C_ C_ 0.235889 0.674434 0.650912 -0.08735
C_ C_ 0.227246 0.667399 0.680269 -0.08735
C_ C_ 0.180293 0.666951 0.691889 -0.05681
C_ C_ 0.171719 0.666062 0.722001 0.44287
C_ C_ 0.0822943 0.674855 0.716486 0.44287
C_ C_ 0.117908 0.650256 0.762812 0.18498
C_ C_ 0.0928868 0.605137 0.769543 -0.08735
C_ C_ 0.0824794 0.592795 0.79864 -0.08735
C_ C_ 0.0967883 0.625178 0.820943 -0.08735
C_ C_ 0.12034 0.671398 0.814142 0.18498
C_ C_ 0.130421 0.684627 0.786024 -0.05681
C_ C_ 0.148682 0.734256 0.781117 -0.08735
C_ C_ 0.169738 0.761299 0.803454 -0.08735
C_ C_ 0.156395 0.747841 0.831219 0.1947
C_ C_ 0.276087 0.808596 0.651801 0.68181
C_ C_ 0.220554 0.816768 0.649418 -0.05681
C_ C_ 0.188611 0.802548 0.672445 -0.08735
C_ C_ 0.134633 0.80616 0.668243 -0.05681
C_ C_ 0.115864 0.819084 0.640934 -0.05681
C_ C_ 0.150405 0.837935 0.620826 -0.08735
C_ C_ 0.201328 0.836187 0.6237 -0.08735
C_ C_ 0.101024 0.806896 0.690668 -0.08735
C_ C_ 0.0500366 0.811376 0.686498 -0.08735
C_ C_ 0.0291227 0.815587 0.658828 -0.05681
C_ C_ 0.0631688 0.818868 0.63489 -0.08735
C_ C_ 0.390303 0.716851 0.659676 0.68181
C_ C_ 0.367406 0.912837 0.650199 0.68181
C_ C_ 0.362856 0.969394 0.645746 -0.05681
C_ C_ 0.362019 0.504319 0.670024 -0.08735
C_ C_ 0.365626 0.556786 0.666369 -0.05681
C_ C_ 0.374676 0.577349 0.640137 -0.05681
C_ C_ 0.376921 0.546825 0.614537 -0.08735
C_ C_ 0.366695 0.993721 0.619036 -0.08735
C_ C_ 0.362824 0.586924 0.690345 -0.08735
C_ C_ 0.370545 0.638683 0.689101 -0.08735
C_ C_ 0.378152 0.662222 0.662443 -0.05681
C_ C_ 0.376044 0.62916 0.637441 -0.08735
C_ C_ 0.472648 0.818615 0.661043 0.68181
C_ C_ 0.401633 0.875221 0.732953 0.1947
C_ C_ 0.410945 0.892035 0.761327 -0.08735
C_ C_ 0.385079 0.866452 0.783745 -0.08735
C_ C_ 0.361926 0.818993 0.777786 -0.05681
C_ C_ 0.354095 0.803518 0.748338 0.18498
C_ C_ 0.326504 0.760544 0.741971 -0.08735
C_ C_ 0.314101 0.726145 0.764085 -0.08735
C_ C_ 0.326499 0.737876 0.792844 -0.08735
C_ C_ 0.349708 0.784804 0.800029 0.18498
C_ C_ 0.313329 0.805089 0.846276 0.44287
C_ C_ 0.402719 0.79657 0.841116 0.44287
C_ C_ 0.411381 0.806433 0.870505 -0.05681
C_ C_ 0.459867 0.806156 0.883824 -0.08735
C_ C_ 0.466042 0.808157 0.913041 -0.08735
C_ C_ 0.421831 0.81018 0.931138 -0.05681
C_ C_ 0.374387 0.815242 0.918505 -0.05681
C_ C_ 0.369559 0.810725 0.888805 -0.05681
C_ C_ 0.318634 0.811544 0.876418 -0.05681
C_ C_ 0.27541 0.817335 0.894175 -0.08735
C_ C_ 0.282416 0.827503 0.923559 -0.08735
C_ C_ 0.331605 0.824593 0.935996 -0.05681
C_ C_ 0.34002 0.8275 0.966239 0.44287
C_ C_ 0.426856 0.806881 0.961575 0.44287
C_ C_ 0.391154 0.855665 0.509007 0.18498
C_ C_ 0.421134 0.898158 0.515328 -0.08735
C_ C_ 0.434819 0.911045 0.543538 -0.08735
C_ C_ 0.421622 0.87867 0.56628 -0.08735
C_ C_ 0.389268 0.838402 0.562256 0.18498
C_ C_ 0.37791 0.823833 0.532886 -0.05681
C_ C_ 0.352024 0.77824 0.527827 -0.08735
C_ C_ 0.339282 0.747387 0.550752 -0.08735
C_ C_ 0.350301 0.76215 0.578536 0.1947
N_ N_ 0.132709 0.665451 0.978078 -0.29468
N_ N_ 0.162762 0.698787 0.584888 -0.17154
N_ N_ 0.123618 0.663419 0.733215 -0.17154
N_ N_ 0.135804 0.70043 0.836251 -0.29468
N_ N_ 0.371835 0.834204 0.726722 -0.29468
N_ N_ 0.356065 0.797969 0.829177 -0.17154
N_ N_ 0.388662 0.820736 0.978742 -0.17154
N_ N_ 0.374599 0.805888 0.584202 -0.29468
O_ O_ 0.210922 0.68265 0.929888 -0.58347
O_ O_ 0.202336 0.692223 0.883691 -0.58347
O_ O_ 0.133936 0.754775 0.934039 -0.58347
O_ O_ 0.125429 0.762378 0.888019 -0.58347
O_ O_ 0.143406 0.60467 0.928896 -0.58347
O_ O_ 0.134748 0.614474 0.881745 -0.58347
O_ O_ 0.0621645 0.676532 0.932062 -0.58347
O_ O_ 0.0512348 0.682266 0.885352 -0.58347
O_ O_ 0.0766276 0.708589 0.579126 -0.46727
O_ O_ 0.249717 0.68356 0.591568 -0.46727
O_ O_ 0.0369111 0.681769 0.728424 -0.46727
O_ O_ 0.211481 0.66435 0.739356 -0.46727
O_ O_ 0.296869 0.801877 0.676681 -0.58347
O_ O_ 0.302962 0.806315 0.629182 -0.58347
O_ O_ 0.391987 0.745171 0.681844 -0.58347
O_ O_ 0.385843 0.737159 0.635908 -0.58347
O_ O_ 0.361383 0.892587 0.674194 -0.58347
O_ O_ 0.37583 0.884312 0.629203 -0.58347
O_ O_ 0.443059 0.828984 0.681689 -0.58347
O_ O_ 0.45305 0.811941 0.636207 -0.58347
O_ O_ 0.442281 0.786671 0.824144 -0.46727
O_ O_ 0.267521 0.813232 0.834779 -0.46727
O_ O_ 0.469957 0.793304 0.972869 -0.46727
O_ O_ 0.299109 0.834395 0.983213 -0.46727
Zn Zn 0.63436 0.191065 0.383115 0.90689
Zn Zn 0.639606 0.18357 0.430499 0.90689
Zn Zn 0.877209 0.317348 0.130676 0.90689
Zn Zn 0.862151 0.319787 0.17915 0.90689
H_ H_ 0.809395 0.196429 0.446633 0.11455
H_ H_ 0.878556 0.171557 0.347502 0.11455
H_ H_ 0.781132 0.167877 0.356228 0.11455
H_ H_ 0.896827 0.186461 0.463729 0.11455
H_ H_ 0.984209 0.174237 0.457457 0.11455
H_ H_ 0.960581 0.160686 0.365466 0.11455
H_ H_ 0.609517 0.0202641 0.443725 0.11455
H_ H_ 0.646296 0.443473 0.347074 0.11455
H_ H_ 0.652688 0.0270553 0.355505 0.11455
H_ H_ 0.635064 0.427161 0.467397 0.11455
H_ H_ 0.63573 0.338133 0.459308 0.11455
H_ H_ 0.651979 0.357681 0.368786 0.11455
H_ H_ 0.584145 0.107671 0.46715 0.11455
H_ H_ 0.577034 0.0667385 0.0146586 0.11455
H_ H_ 0.625055 0.108042 0.0542714 0.11455
H_ H_ 0.707761 0.243809 0.473278 0.11455
H_ H_ 0.72476 0.293635 0.012689 0.11455
H_ H_ 0.705947 0.269814 0.0622424 0.11455
H_ H_ 0.513585 0.196622 0.123581 0.11455
H_ H_ 0.498358 0.176947 0.172784 0.11455
H_ H_ 0.76216 0.197396 0.146676 0.11455
H_ H_ 0.750009 0.185563 0.19757 0.11455
H_ H_ 0.55141 0.0913987 0.252181 0.11455
H_ H_ 0.529579 0.072888 0.303994 0.11455
H_ H_ 0.572059 0.120266 0.341544 0.11455
H_ H_ 0.634577 0.252597 0.259075 0.11455
H_ H_ 0.681133 0.296358 0.29679 0.11455
H_ H_ 0.680533 0.258626 0.347023 0.11455
H_ H_ 0.69284 0.294656 0.189263 0.11455
H_ H_ 0.627252 0.333046 0.0920324 0.11455
H_ H_ 0.721562 0.335654 0.101753 0.11455
H_ H_ 0.605728 0.283432 0.205789 0.11455
H_ H_ 0.514451 0.290316 0.197654 0.11455
H_ H_ 0.535717 0.33473 0.1102 0.11455
H_ H_ 0.854273 0.486946 0.191759 0.11455
H_ H_ 0.850403 0.0622567 0.0958403 0.11455
H_ H_ 0.873349 0.482099 0.100392 0.11455
H_ H_ 0.840366 0.0750239 0.213291 0.11455
H_ H_ 0.855906 0.163654 0.208984 0.11455
H_ H_ 0.861584 0.152311 0.116223 0.11455
H_ H_ 0.89962 0.397211 0.214557 0.11455
H_ H_ 0.922551 0.427372 0.263289 0.11455
H_ H_ 0.904498 0.371551 0.305554 0.11455
H_ H_ 0.803671 0.250711 0.2251 0.11455
H_ H_ 0.780872 0.19945 0.266194 0.11455
H_ H_ 0.799924 0.227171 0.315531 0.11455
H_ H_ 0.982274 0.27098 0.375252 0.11455
H_ H_ -0.008299999999999974 0.285865 0.427684 0.11455
H_ H_ 0.744668 0.352092 0.386886 0.11455
H_ H_ 0.751352 0.357378 0.435758 0.11455
H_ H_ 0.927586 0.412294 0.498214 0.11455
H_ H_ 0.958752 0.439556 0.0534188 0.11455
H_ H_ 0.93862 0.37548 0.0899841 0.11455
H_ H_ 0.843649 0.260631 0.00412273 0.11455
H_ H_ 0.805705 0.212258 0.0467308 0.11455
H_ H_ 0.810238 0.25028 0.0962957 0.11455
C_ C_ 0.734527 0.193264 0.406887 0.68181
C_ C_ 0.78889 0.185209 0.403355 -0.05681
C_ C_ 0.82335 0.182307 0.426765 -0.08735
C_ C_ 0.875807 0.172693 0.421547 -0.05681
C_ C_ 0.893344 0.167749 0.393263 -0.05681
C_ C_ 0.8607 0.168653 0.370024 -0.08735
C_ C_ 0.808697 0.171294 0.375394 -0.08735
C_ C_ 0.911222 0.181923 0.442806 -0.08735
C_ C_ 0.96193 0.167412 0.438347 -0.08735
C_ C_ 0.981304 0.167511 0.410218 -0.05681
C_ C_ 0.947835 0.163791 0.387451 -0.08735
C_ C_ 0.641627 0.286442 0.410351 0.68181
C_ C_ 0.634699 0.0898344 0.401858 0.68181
C_ C_ 0.635227 0.0313621 0.401268 -0.05681
C_ C_ 0.625172 0.499902 0.424075 -0.08735
C_ C_ 0.629904 0.447278 0.420317 -0.05681
C_ C_ 0.635179 0.426085 0.39217 -0.05681
C_ C_ 0.635973 0.457331 0.368004 -0.08735
C_ C_ 0.630096 0.509811 0.372911 -0.08735
C_ C_ 0.630502 0.415022 0.444986 -0.08735
C_ C_ 0.632803 0.362048 0.440758 -0.08735
C_ C_ 0.640217 0.341361 0.413275 -0.05681
C_ C_ 0.640491 0.373883 0.389761 -0.08735
C_ C_ 0.537122 0.187836 0.406124 0.68181
C_ C_ 0.600004 0.130659 0.484456 0.1947
C_ C_ 0.596354 0.102843 0.0105227 -0.08735
C_ C_ 0.61755 0.127133 0.033335 -0.08735
C_ C_ 0.64449 0.172338 0.0292223 -0.05681
C_ C_ 0.651752 0.188924 0.999525488 0.18498
C_ C_ 0.695986 0.233045 0.494499 -0.08735
C_ C_ 0.69359 0.265694 0.0168695 -0.08735
C_ C_ 0.691102 0.246537 0.0448202 -0.08735
C_ C_ 0.662387 0.20376 0.0528674 0.18498
C_ C_ 0.694199 0.189431 0.103237 0.44287
C_ C_ 0.605402 0.19446 0.0944182 0.44287
C_ C_ 0.597215 0.187158 0.124406 -0.05681
C_ C_ 0.547753 0.19061 0.136502 -0.08735
C_ C_ 0.537969 0.177006 0.164984 -0.08735
C_ C_ 0.57704 0.17034 0.183883 -0.05681
C_ C_ 0.626473 0.175633 0.173019 -0.05681
C_ C_ 0.636017 0.178581 0.143156 -0.05681
C_ C_ 0.686446 0.182504 0.133246 -0.05681
C_ C_ 0.727206 0.180973 0.152344 -0.08735
C_ C_ 0.716938 0.178333 0.182665 -0.08735
C_ C_ 0.666405 0.17191 0.192336 -0.05681
C_ C_ 0.655654 0.165416 0.221539 0.44287
C_ C_ 0.569827 0.172036 0.213763 0.44287
C_ C_ 0.597095 0.15525 0.262332 0.18498
C_ C_ 0.565767 0.116661 0.268966 -0.08735
C_ C_ 0.558667 0.101994 0.298118 -0.08735
C_ C_ 0.582273 0.129148 0.319824 -0.08735
C_ C_ 0.61024 0.171047 0.314119 0.18498
C_ C_ 0.61546 0.187363 0.285419 -0.05681
C_ C_ 0.633958 0.235342 0.280234 -0.08735
C_ C_ 0.65856 0.26246 0.301669 -0.08735
C_ C_ 0.663201 0.239301 0.329751 0.1947
C_ C_ 0.768246 0.314714 0.152658 0.68181
C_ C_ 0.71361 0.318558 0.146357 -0.05681
C_ C_ 0.678 0.312044 0.168476 -0.08735
C_ C_ 0.626452 0.306932 0.162419 -0.05681
C_ C_ 0.607373 0.317303 0.134768 -0.05681
C_ C_ 0.64125 0.328672 0.112685 -0.08735
C_ C_ 0.695182 0.324845 0.118278 -0.08735
C_ C_ 0.592935 0.299922 0.185756 -0.08735
C_ C_ 0.54101 0.299534 0.180961 -0.08735
C_ C_ 0.520185 0.313378 0.154139 -0.05681
C_ C_ 0.553193 0.32387 0.130723 -0.08735
C_ C_ 0.869409 0.220162 0.160202 0.68181
C_ C_ 0.864251 0.418776 0.147632 0.68181
C_ C_ 0.862016 0.476312 0.146322 -0.05681
C_ C_ 0.846184 0.00405783 0.171353 -0.08735
C_ C_ 0.853286 0.0575783 0.168609 -0.05681
C_ C_ 0.854389 0.0804751 0.140662 -0.05681
C_ C_ 0.84987 0.046647 0.11737 -0.08735
C_ C_ 0.874288 0.501351 0.121581 -0.08735
C_ C_ 0.845977 0.0911629 0.192246 -0.08735
C_ C_ 0.858592 0.141377 0.189697 -0.08735
C_ C_ 0.859983 0.165388 0.162992 -0.05681
C_ C_ 0.856838 0.135144 0.138054 -0.08735
C_ C_ 0.969183 0.321786 0.157063 0.68181
C_ C_ 0.892551 0.374143 0.233213 0.1947
C_ C_ 0.900185 0.393024 0.260378 -0.08735
C_ C_ 0.888753 0.362653 0.284204 -0.08735
C_ C_ 0.860535 0.318452 0.279778 -0.05681
C_ C_ 0.85198 0.301164 0.251434 0.18498
C_ C_ 0.819316 0.260162 0.246642 -0.08735
C_ C_ 0.802771 0.232347 0.270148 -0.08735
C_ C_ 0.817135 0.244446 0.297932 -0.08735
C_ C_ 0.843446 0.290385 0.302905 0.18498
C_ C_ 0.814329 0.328031 0.34876 0.44287
C_ C_ 0.897047 0.294041 0.345155 0.44287
C_ C_ 0.904792 0.301018 0.374154 -0.05681
C_ C_ 0.94952 0.284919 0.387217 -0.08735
C_ C_ 0.955171 0.290226 0.417253 -0.08735
C_ C_ 0.918807 0.313928 0.433641 -0.05681
C_ C_ 0.873358 0.326669 0.420741 -0.05681
C_ C_ 0.866762 0.321842 0.390923 -0.05681
C_ C_ 0.820347 0.332838 0.378129 -0.05681
C_ C_ 0.780134 0.346832 0.39544 -0.08735
C_ C_ 0.785266 0.351542 0.423589 -0.08735
C_ C_ 0.830134 0.340457 0.437383 -0.05681
C_ C_ 0.83729 0.347011 0.467329 0.44287
C_ C_ 0.920617 0.312317 0.46422 0.44287
C_ C_ 0.89472 0.350891 0.0109248 0.18498
C_ C_ 0.917973 0.397485 0.0182843 -0.08735
C_ C_ 0.935413 0.405897 0.0473631 -0.08735
C_ C_ 0.922095 0.370236 0.0681018 -0.08735
C_ C_ 0.886265 0.33274 0.0619694 0.18498
C_ C_ 0.877557 0.318392 0.032656 -0.05681
C_ C_ 0.848341 0.274901 0.0265213 -0.08735
C_ C_ 0.821613 0.249742 0.0499493 -0.08735
C_ C_ 0.827462 0.270712 0.0783071 0.1947
N_ N_ 0.635007 0.167829 0.478379 -0.29468
N_ N_ 0.653745 0.191137 0.0835856 -0.17154
N_ N_ 0.608101 0.168074 0.23214 -0.17154
N_ N_ 0.634478 0.19748 0.335721 -0.29468
N_ N_ 0.871289 0.32911 0.228605 -0.29468
N_ N_ 0.851985 0.303658 0.332745 -0.17154
N_ N_ 0.881403 0.330713 0.481122 -0.17154
N_ N_ 0.866023 0.30533 0.083577 -0.29468
O_ O_ 0.713031 0.178872 0.430422 -0.58347
O_ O_ 0.707188 0.201197 0.38457 -0.58347
O_ O_ 0.652333 0.258429 0.431749 -0.58347
O_ O_ 0.624706 0.26474 0.387998 -0.58347
O_ O_ 0.634889 0.111628 0.424885 -0.58347
O_ O_ 0.643147 0.115797 0.379368 -0.58347
O_ O_ 0.56612 0.194185 0.427786 -0.58347
O_ O_ 0.556745 0.180158 0.381772 -0.58347
O_ O_ 0.566435 0.205374 0.0777849 -0.46727
O_ O_ 0.740389 0.182719 0.0939635 -0.46727
O_ O_ 0.528108 0.189868 0.2233 -0.46727
O_ O_ 0.694042 0.164617 0.239866 -0.46727
O_ O_ 0.783801 0.307169 0.177961 -0.58347
O_ O_ 0.799567 0.320601 0.132906 -0.58347
O_ O_ 0.870828 0.247249 0.183557 -0.58347
O_ O_ 0.874943 0.241767 0.135555 -0.58347
O_ O_ 0.854747 0.394955 0.170876 -0.58347
O_ O_ 0.874847 0.393553 0.125871 -0.58347
O_ O_ 0.939094 0.330045 0.176592 -0.58347
O_ O_ 0.953536 0.315506 0.131252 -0.58347
O_ O_ 0.935097 0.28076 0.328461 -0.46727
O_ O_ 0.770515 0.336741 0.336309 -0.46727
O_ O_ 0.960593 0.29191 0.476942 -0.46727
O_ O_ 0.798435 0.364034 0.483272 -0.46727
Zn Zn 0.625891 0.187587 0.881498 0.90689
Zn Zn 0.63336 0.179179 0.929316 0.90689
Zn Zn 0.879384 0.314279 0.63173 0.90689
Zn Zn 0.868089 0.324051 0.680589 0.90689
H_ H_ 0.802892 0.197103 0.945834 0.11455
H_ H_ 0.874925 0.183943 0.848086 0.11455
H_ H_ 0.780267 0.179187 0.855973 0.11455
H_ H_ 0.890108 0.173598 0.965361 0.11455
H_ H_ 0.984525 0.174703 0.959364 0.11455
H_ H_ 0.961777 0.195586 0.867832 0.11455
H_ H_ 0.671397 0.0118002 0.935823 0.11455
H_ H_ 0.61714 0.433397 0.850405 0.11455
H_ H_ 0.608957 0.0290367 0.852964 0.11455
H_ H_ 0.611499 0.42607 0.967766 0.11455
H_ H_ 0.605861 0.333305 0.961212 0.11455
H_ H_ 0.618671 0.352339 0.868685 0.11455
H_ H_ 0.586348 0.101355 0.965068 0.11455
H_ H_ 0.572135 0.0792807 0.516516 0.11455
H_ H_ 0.608306 0.127853 0.557138 0.11455
H_ H_ 0.685311 0.245579 0.97335 0.11455
H_ H_ 0.749663 0.288938 0.509294 0.11455
H_ H_ 0.720502 0.280439 0.558914 0.11455
H_ H_ 0.513362 0.20861 0.618098 0.11455
H_ H_ 0.495219 0.198481 0.666286 0.11455
H_ H_ 0.765866 0.186621 0.640261 0.11455
H_ H_ 0.74693 0.175453 0.692226 0.11455
H_ H_ 0.564149 0.0953815 0.748198 0.11455
H_ H_ 0.556342 0.0635858 0.797431 0.11455
H_ H_ 0.578909 0.114788 0.837935 0.11455
H_ H_ 0.642906 0.25848 0.758645 0.11455
H_ H_ 0.65086 0.311875 0.79847 0.11455
H_ H_ 0.65901 0.27761 0.848437 0.11455
H_ H_ 0.696253 0.30767 0.698441 0.11455
H_ H_ 0.632891 0.354022 0.601409 0.11455
H_ H_ 0.720132 0.330415 0.607637 0.11455
H_ H_ 0.61258 0.320933 0.715416 0.11455
H_ H_ 0.522547 0.307551 0.70711 0.11455
H_ H_ 0.549491 0.337149 0.619238 0.11455
H_ H_ 0.87904 0.493259 0.693606 0.11455
H_ H_ 0.888197 0.0704192 0.601453 0.11455
H_ H_ 0.852884 0.475598 0.601972 0.11455
H_ H_ 0.862404 0.0766075 0.718883 0.11455
H_ H_ 0.877659 0.169952 0.714591 0.11455
H_ H_ 0.886751 0.153451 0.624335 0.11455
H_ H_ 0.918003 0.392897 0.718696 0.11455
H_ H_ 0.916771 0.427618 0.768397 0.11455
H_ H_ 0.880371 0.383861 0.806529 0.11455
H_ H_ 0.79327 0.26496 0.721444 0.11455
H_ H_ 0.751179 0.223627 0.759569 0.11455
H_ H_ 0.756928 0.249978 0.807707 0.11455
H_ H_ 0.970776 0.28798 0.869129 0.11455
H_ H_ -0.00684499999999999 0.313888 0.918563 0.11455
H_ H_ 0.723883 0.339946 0.895439 0.11455
H_ H_ 0.745168 0.354878 0.945292 0.11455
H_ H_ 0.930414 0.424849 1.00257 0.11455
H_ H_ 0.941727 0.442037 0.548618 0.11455
H_ H_ 0.929561 0.378993 0.588587 0.11455
H_ H_ 0.84297 0.251585 0.507413 0.11455
H_ H_ 0.830591 0.192857 0.550077 0.11455
H_ H_ 0.828764 0.233842 0.598614 0.11455
C_ C_ 0.72806 0.202712 0.906534 0.68181
C_ C_ 0.785266 0.198712 0.901158 -0.05681
C_ C_ 0.820694 0.195929 0.925259 -0.08735
C_ C_ 0.873409 0.191009 0.92148 -0.05681
C_ C_ 0.892479 0.185798 0.893361 -0.05681
C_ C_ 0.85858 0.184462 0.870048 -0.08735
C_ C_ 0.805827 0.187424 0.873532 -0.08735
C_ C_ 0.907699 0.185231 0.945139 -0.08735
C_ C_ 0.960939 0.183394 0.941428 -0.08735
C_ C_ 0.981861 0.182369 0.912156 -0.05681
C_ C_ 0.946866 0.187072 0.889183 -0.08735
C_ C_ 0.615903 0.278615 0.91393 0.68181
C_ C_ 0.635822 0.0853903 0.898057 0.68181
C_ C_ 0.637887 0.0281368 0.894529 -0.05681
C_ C_ 0.625573 0.494555 0.924229 -0.08735
C_ C_ 0.619793 0.44124 0.922919 -0.05681
C_ C_ 0.615354 0.419183 0.895269 -0.05681
C_ C_ 0.615906 0.45099 0.871313 -0.08735
C_ C_ 0.632258 0.502023 0.873048 -0.08735
C_ C_ 0.616708 0.411134 0.946602 -0.08735
C_ C_ 0.613343 0.358517 0.943008 -0.08735
C_ C_ 0.617737 0.336069 0.91598 -0.05681
C_ C_ 0.622151 0.367775 0.891418 -0.08735
C_ C_ 0.531853 0.167051 0.906751 0.68181
C_ C_ 0.605207 0.119383 0.982339 0.1947
C_ C_ 0.594148 0.114446 0.51235 -0.08735
C_ C_ 0.614129 0.142695 0.535084 -0.08735
C_ C_ 0.647388 0.183338 0.529737 -0.05681
C_ C_ 0.659386 0.193986 0.500174 0.18498
C_ C_ 0.675687 0.235565 0.994629 -0.08735
C_ C_ 0.718637 0.261642 0.51567 -0.08735
C_ C_ 0.702952 0.256247 0.54403 -0.08735
C_ C_ 0.666201 0.217946 0.551133 0.18498
C_ C_ 0.694652 0.193999 0.600201 0.44287
C_ C_ 0.606266 0.21222 0.59237 0.44287
C_ C_ 0.595464 0.202206 0.621001 -0.05681
C_ C_ 0.545684 0.201309 0.631188 -0.08735
C_ C_ 0.535596 0.197284 0.660207 -0.08735
C_ C_ 0.576514 0.189837 0.680041 -0.05681
C_ C_ 0.627064 0.185628 0.668841 -0.05681
C_ C_ 0.635268 0.189858 0.638868 -0.05681
C_ C_ 0.685014 0.185876 0.628677 -0.05681
C_ C_ 0.725902 0.177791 0.647329 -0.08735
C_ C_ 0.715804 0.174826 0.676263 -0.08735
C_ C_ 0.667381 0.177733 0.688241 -0.05681
C_ C_ 0.656326 0.171769 0.718635 0.44287
C_ C_ 0.568734 0.184238 0.710224 0.44287
C_ C_ 0.599799 0.163311 0.759339 0.18498
C_ C_ 0.58056 0.116082 0.76603 -0.08735
C_ C_ 0.574804 0.0990268 0.793894 -0.08735
C_ C_ 0.584728 0.131624 0.817111 -0.08735
C_ C_ 0.609343 0.177543 0.812565 0.18498
C_ C_ 0.614563 0.194922 0.783809 -0.05681
C_ C_ 0.635944 0.242977 0.779301 -0.08735
C_ C_ 0.646133 0.274148 0.802213 -0.08735
C_ C_ 0.648335 0.253826 0.830193 0.1947
C_ C_ 0.774183 0.322228 0.658514 0.68181
C_ C_ 0.719588 0.324444 0.654688 -0.05681
C_ C_ 0.685077 0.320782 0.677594 -0.08735
C_ C_ 0.633786 0.326063 0.672561 -0.05681
C_ C_ 0.614222 0.334106 0.645358 -0.05681
C_ C_ 0.648254 0.344858 0.623165 -0.08735
C_ C_ 0.699542 0.339042 0.627239 -0.08735
C_ C_ 0.598059 0.315 0.694436 -0.08735
C_ C_ 0.545879 0.315011 0.689312 -0.08735
C_ C_ 0.527092 0.320209 0.661572 -0.05681
C_ C_ 0.561521 0.331537 0.639899 -0.08735
C_ C_ 0.880249 0.223537 0.665107 0.68181
C_ C_ 0.866042 0.419874 0.649779 0.68181
C_ C_ 0.867052 0.476069 0.647984 -0.05681
C_ C_ 0.86804 0.00910024 0.677045 -0.08735
C_ C_ 0.870999 0.0616915 0.674473 -0.05681
C_ C_ 0.87737 0.0845512 0.646591 -0.05681
C_ C_ 0.882099 0.0543878 0.622585 -0.08735
C_ C_ 0.859044 0.498577 0.620594 -0.08735
C_ C_ 0.871249 0.0943695 0.698344 -0.08735
C_ C_ 0.871786 0.146582 0.695432 -0.08735
C_ C_ 0.880308 0.167851 0.66901 -0.05681
C_ C_ 0.882363 0.136593 0.644556 -0.08735
C_ C_ 0.972425 0.323981 0.65493 0.68181
C_ C_ 0.899418 0.371119 0.73611 0.1947
C_ C_ 0.897391 0.393121 0.763394 -0.08735
C_ C_ 0.874694 0.369001 0.785322 -0.08735
C_ C_ 0.842992 0.326772 0.780123 -0.05681
C_ C_ 0.835862 0.312854 0.749936 0.18498
C_ C_ 0.802031 0.276649 0.743893 -0.08735
C_ C_ 0.778794 0.251109 0.765229 -0.08735
C_ C_ 0.782214 0.263257 0.793464 -0.08735
C_ C_ 0.818402 0.29955 0.802132 0.18498
C_ C_ 0.793336 0.32353 0.851701 0.44287
C_ C_ 0.875387 0.296581 0.843594 0.44287
C_ C_ 0.88961 0.30923 0.872134 -0.05681
C_ C_ 0.940721 0.304892 0.881811 -0.08735
C_ C_ 0.952626 0.31149 0.911655 -0.08735
C_ C_ 0.912344 0.324858 0.931548 -0.05681
C_ C_ 0.86366 0.331268 0.920979 -0.05681
C_ C_ 0.853146 0.329177 0.89022 -0.05681
C_ C_ 0.80369 0.334485 0.880607 -0.05681
C_ C_ 0.76355 0.341726 0.90097 -0.08735
C_ C_ 0.775501 0.348045 0.929621 -0.08735
C_ C_ 0.824013 0.339119 0.940608 -0.05681
C_ C_ 0.836669 0.343089 0.971263 0.44287
C_ C_ 0.921604 0.326399 0.962555 0.44287
C_ C_ 0.890127 0.342437 0.510864 0.18498
C_ C_ 0.918087 0.385603 0.516445 -0.08735
C_ C_ 0.924597 0.404378 0.544757 -0.08735
C_ C_ 0.913739 0.37244 0.567708 -0.08735
C_ C_ 0.883624 0.329385 0.562721 0.18498
C_ C_ 0.873151 0.312623 0.534539 -0.05681
C_ C_ 0.85268 0.264421 0.52898 -0.08735
C_ C_ 0.843808 0.232902 0.55242 -0.08735
C_ C_ 0.849097 0.253294 0.580627 0.1947
N_ N_ 0.632713 0.160688 0.976532 -0.29468
N_ N_ 0.655693 0.205879 0.581783 -0.17154
N_ N_ 0.609289 0.178856 0.728872 -0.17154
N_ N_ 0.630052 0.204057 0.8346 -0.29468
N_ N_ 0.864934 0.334491 0.728474 -0.29468
N_ N_ 0.828648 0.307237 0.833416 -0.17154
N_ N_ 0.885549 0.340934 0.980825 -0.17154
N_ N_ 0.867785 0.298765 0.583972 -0.29468
O_ O_ 0.709075 0.181921 0.928543 -0.58347
O_ O_ 0.700007 0.2113 0.884915 -0.58347
O_ O_ 0.626046 0.251767 0.93537 -0.58347
O_ O_ 0.606215 0.257409 0.889792 -0.58347
O_ O_ 0.630032 0.104302 0.922507 -0.58347
O_ O_ 0.645486 0.114296 0.877459 -0.58347
O_ O_ 0.559884 0.170665 0.928203 -0.58347
O_ O_ 0.551714 0.164715 0.881449 -0.58347
O_ O_ 0.567628 0.219084 0.574878 -0.46727
O_ O_ 0.740089 0.192243 0.590142 -0.46727
O_ O_ 0.522152 0.187932 0.720747 -0.46727
O_ O_ 0.693168 0.162172 0.736365 -0.46727
O_ O_ 0.793073 0.323463 0.683518 -0.58347
O_ O_ 0.803457 0.313315 0.636339 -0.58347
O_ O_ 0.875483 0.25197 0.687013 -0.58347
O_ O_ 0.881868 0.242549 0.639578 -0.58347
O_ O_ 0.861163 0.401463 0.673973 -0.58347
O_ O_ 0.876413 0.390947 0.628741 -0.58347
O_ O_ 0.945156 0.332106 0.676126 -0.58347
O_ O_ 0.953044 0.308834 0.630823 -0.58347
O_ O_ 0.90605 0.274775 0.825112 -0.46727
O_ O_ 0.749213 0.333681 0.843049 -0.46727
O_ O_ 0.969545 0.326596 0.969301 -0.46727
O_ O_ 0.798776 0.352997 0.989 -0.46727
Zn Zn 0.621591 0.691034 0.383985 0.90689
Zn Zn 0.635257 0.681482 0.43104 0.90689
Zn Zn 0.85976 0.813498 0.132527 0.90689
Zn Zn 0.851946 0.822449 0.180044 0.90689
H_ H_ 0.795948 0.694197 0.447006 0.11455
H_ H_ 0.865268 0.687696 0.350365 0.11455
H_ H_ 0.775182 0.688435 0.357095 0.11455
H_ H_ 0.887994 0.697939 0.471133 0.11455
H_ H_ 0.976141 0.688883 0.462932 0.11455
H_ H_ 0.953174 0.675533 0.371393 0.11455
H_ H_ 0.62049 0.515669 0.443689 0.11455
H_ H_ 0.642364 0.934659 0.352031 0.11455
H_ H_ 0.621225 0.532337 0.353388 0.11455
H_ H_ 0.588463 0.932689 0.464897 0.11455
H_ H_ 0.583949 0.841455 0.460174 0.11455
H_ H_ 0.644576 0.853835 0.373275 0.11455
H_ H_ 0.577983 0.60827 0.464219 0.11455
H_ H_ 0.597225 0.56584 0.0207251 0.11455
H_ H_ 0.624675 0.622931 0.060371 0.11455
H_ H_ 0.68353 0.75577 0.474162 0.11455
H_ H_ 0.708047 0.809724 0.00796853 0.11455
H_ H_ 0.688128 0.795881 0.0608553 0.11455
H_ H_ 0.508302 0.721694 0.124463 0.11455
H_ H_ 0.495518 0.706915 0.173985 0.11455
H_ H_ 0.754937 0.677396 0.13792 0.11455
H_ H_ 0.744453 0.673047 0.190376 0.11455
H_ H_ 0.550531 0.600134 0.249941 0.11455
H_ H_ 0.528201 0.580238 0.300138 0.11455
H_ H_ 0.559343 0.63083 0.33828 0.11455
H_ H_ 0.662945 0.743338 0.258033 0.11455
H_ H_ 0.688413 0.800045 0.300532 0.11455
H_ H_ 0.683233 0.762343 0.348594 0.11455
H_ H_ 0.680303 0.80392 0.191953 0.11455
H_ H_ 0.616676 0.839898 0.0945269 0.11455
H_ H_ 0.709914 0.828876 0.103295 0.11455
H_ H_ 0.594833 0.813748 0.212161 0.11455
H_ H_ 0.510277 0.803022 0.202446 0.11455
H_ H_ 0.526196 0.834536 0.114004 0.11455
H_ H_ 0.84593 0.984483 0.192033 0.11455
H_ H_ 0.898272 0.570269 0.101112 0.11455
H_ H_ 0.844998 0.970275 0.101505 0.11455
H_ H_ 0.835848 0.573741 0.210309 0.11455
H_ H_ 0.843885 0.666251 0.208857 0.11455
H_ H_ 0.882945 0.65463 0.120883 0.11455
H_ H_ 0.913659 0.891622 0.215625 0.11455
H_ H_ 0.926963 0.917333 0.265755 0.11455
H_ H_ 0.880673 0.883375 0.305204 0.11455
H_ H_ 0.784545 0.761063 0.22716 0.11455
H_ H_ 0.76968 0.701663 0.267503 0.11455
H_ H_ 0.783702 0.734152 0.316775 0.11455
H_ H_ 0.980162 0.794357 0.372446 0.11455
H_ H_ -0.005454999999999988 0.795459 0.421819 0.11455
H_ H_ 0.73489 0.855823 0.391862 0.11455
H_ H_ 0.74972 0.859819 0.444543 0.11455
H_ H_ 0.945466 0.905845 0.499468 0.11455
H_ H_ 0.93984 0.948035 0.0502214 0.11455
H_ H_ 0.916344 0.885072 0.0898291 0.11455
H_ H_ 0.827563 0.765351 0.00769275 0.11455
H_ H_ 0.798744 0.712265 0.0482142 0.11455
H_ H_ 0.824088 0.737453 0.0976282 0.11455
C_ C_ 0.7262 0.693741 0.407026 0.68181
C_ C_ 0.781316 0.691548 0.403175 -0.05681
C_ C_ 0.812607 0.691673 0.426564 -0.08735
C_ C_ 0.86563 0.687369 0.423582 -0.05681
C_ C_ 0.885736 0.684323 0.395824 -0.05681
C_ C_ 0.852325 0.686647 0.372465 -0.08735
C_ C_ 0.799361 0.689274 0.375359 -0.08735
C_ C_ 0.899191 0.686927 0.447792 -0.08735
C_ C_ 0.952735 0.684289 0.44316 -0.08735
C_ C_ 0.97403 0.68152 0.415134 -0.05681
C_ C_ 0.940658 0.678406 0.392039 -0.08735
C_ C_ 0.621036 0.78314 0.412568 0.68181
C_ C_ 0.634783 0.586909 0.402337 0.68181
C_ C_ 0.627821 0.532886 0.400329 -0.05681
C_ C_ 0.619006 1.00108674 0.424238 -0.08735
C_ C_ 0.624006 0.946311 0.423914 -0.05681
C_ C_ 0.632083 0.923381 0.396801 -0.05681
C_ C_ 0.641029 0.954325 0.372461 -0.08735
C_ C_ 0.640679 1.00637783 0.374427 -0.08735
C_ C_ 0.60312 0.915744 0.446448 -0.08735
C_ C_ 0.601839 0.862902 0.443067 -0.08735
C_ C_ 0.621633 0.840187 0.417668 -0.05681
C_ C_ 0.636085 0.871178 0.394956 -0.08735
C_ C_ 0.532171 0.679774 0.403581 0.68181
C_ C_ 0.599433 0.626228 0.482544 0.1947
C_ C_ 0.608772 0.605521 0.0147475 -0.08735
C_ C_ 0.623904 0.635089 0.0377318 -0.08735
C_ C_ 0.637453 0.685574 0.0304437 -0.05681
C_ C_ 0.647351 0.697467 1.00114531 0.18498
C_ C_ 0.674404 0.742382 0.495216 -0.08735
C_ C_ 0.684853 0.778291 0.0145751 -0.08735
C_ C_ 0.673384 0.770347 0.0437323 -0.08735
C_ C_ 0.650166 0.723175 0.0520759 0.18498
C_ C_ 0.682589 0.701218 0.0997454 0.44287
C_ C_ 0.595527 0.716188 0.0940643 0.44287
C_ C_ 0.586239 0.707279 0.123886 -0.05681
C_ C_ 0.539655 0.710677 0.136926 -0.08735
C_ C_ 0.532921 0.705444 0.166144 -0.08735
C_ C_ 0.572929 0.69597 0.18465 -0.05681
C_ C_ 0.620565 0.69274 0.172628 -0.05681
C_ C_ 0.627377 0.696578 0.141754 -0.05681
C_ C_ 0.676662 0.695297 0.129422 -0.05681
C_ C_ 0.718984 0.687339 0.147527 -0.08735
C_ C_ 0.712508 0.681202 0.177008 -0.08735
C_ C_ 0.663173 0.682207 0.189613 -0.05681
C_ C_ 0.655372 0.67013 0.218901 0.44287
C_ C_ 0.567223 0.691154 0.214897 0.44287
C_ C_ 0.596967 0.663916 0.260988 0.18498
C_ C_ 0.564319 0.623301 0.26687 -0.08735
C_ C_ 0.548669 0.615419 0.295312 -0.08735
C_ C_ 0.570435 0.642535 0.317297 -0.08735
C_ C_ 0.609488 0.677435 0.312773 0.18498
C_ C_ 0.61729 0.693011 0.284189 -0.05681
C_ C_ 0.64802 0.734715 0.279418 -0.08735
C_ C_ 0.667783 0.762242 0.30257 -0.08735
C_ C_ 0.663288 0.742035 0.330989 0.1947
C_ C_ 0.757236 0.814061 0.15467 0.68181
C_ C_ 0.701502 0.820863 0.149341 -0.05681
C_ C_ 0.665833 0.81603 0.171286 -0.08735
C_ C_ 0.615128 0.824936 0.167685 -0.05681
C_ C_ 0.59691 0.832532 0.139718 -0.05681
C_ C_ 0.631609 0.831952 0.116624 -0.08735
C_ C_ 0.683522 0.822977 0.12131 -0.08735
C_ C_ 0.58148 0.823549 0.190738 -0.08735
C_ C_ 0.531063 0.821614 0.186387 -0.08735
C_ C_ 0.510705 0.825796 0.159232 -0.05681
C_ C_ 0.544047 0.835356 0.135793 -0.08735
C_ C_ 0.869937 0.723003 0.163143 0.68181
C_ C_ 0.845264 0.918109 0.151165 0.68181
C_ C_ 0.846205 0.972727 0.147016 -0.05681
C_ C_ 0.855594 0.506209 0.170641 -0.08735
C_ C_ 0.864596 0.558811 0.169262 -0.05681
C_ C_ 0.877766 0.581552 0.143688 -0.05681
C_ C_ 0.886129 0.552605 0.120375 -0.08735
C_ C_ 0.846636 0.994474 0.12055 -0.08735
C_ C_ 0.852021 0.589641 0.191561 -0.08735
C_ C_ 0.856502 0.642916 0.190775 -0.08735
C_ C_ 0.872657 0.666246 0.165818 -0.05681
C_ C_ 0.881659 0.634062 0.142098 -0.08735
C_ C_ 0.954772 0.823078 0.159396 0.68181
C_ C_ 0.89272 0.87271 0.233501 0.1947
C_ C_ 0.897343 0.891645 0.260982 -0.08735
C_ C_ 0.869071 0.871715 0.283406 -0.08735
C_ C_ 0.84139 0.828315 0.27938 -0.05681
C_ C_ 0.835803 0.809598 0.251576 0.18498
C_ C_ 0.802298 0.768083 0.24799 -0.08735
C_ C_ 0.791774 0.736213 0.270976 -0.08735
C_ C_ 0.796998 0.754828 0.298638 -0.08735
C_ C_ 0.826632 0.80164 0.303578 0.18498
C_ C_ 0.80271 0.836043 0.352606 0.44287
C_ C_ 0.887299 0.806325 0.343593 0.44287
C_ C_ 0.897687 0.812241 0.373829 -0.05681
C_ C_ 0.948372 0.80209 0.386114 -0.08735
C_ C_ 0.956955 0.801948 0.414627 -0.08735
C_ C_ 0.919858 0.818345 0.432827 -0.05681
C_ C_ 0.86945 0.825111 0.422711 -0.05681
C_ C_ 0.859187 0.828077 0.392768 -0.05681
C_ C_ 0.811656 0.837947 0.38189 -0.05681
C_ C_ 0.771976 0.847379 0.400709 -0.08735
C_ C_ 0.78043 0.852596 0.430232 -0.08735
C_ C_ 0.830871 0.841507 0.441404 -0.05681
C_ C_ 0.840849 0.838026 0.471167 0.44287
C_ C_ 0.926297 0.813415 0.462883 0.44287
C_ C_ 0.885624 0.849041 0.0102827 0.18498
C_ C_ 0.90901 0.897477 0.0169192 -0.08735
C_ C_ 0.918762 0.912132 0.0458686 -0.08735
C_ C_ 0.903755 0.87926 0.0672161 -0.08735
C_ C_ 0.874711 0.834628 0.0620606 0.18498
C_ C_ 0.868124 0.818641 0.0332857 -0.05681
C_ C_ 0.838141 0.777138 0.0290778 -0.08735
C_ C_ 0.818783 0.748563 0.0522506 -0.08735
C_ C_ 0.831079 0.762214 0.0800283 0.1947
N_ N_ 0.629087 0.668405 0.47816 -0.29468
N_ N_ 0.642212 0.712135 0.0823066 -0.17154
N_ N_ 0.606493 0.67445 0.230557 -0.17154
N_ N_ 0.629969 0.703689 0.335236 -0.29468
N_ N_ 0.856176 0.836302 0.228234 -0.29468
N_ N_ 0.837651 0.815035 0.333995 -0.17154
N_ N_ 0.88968 0.83281 0.48043 -0.17154
N_ N_ 0.85596 0.807232 0.0844987 -0.29468
O_ O_ 0.707192 0.693818 0.432063 -0.58347
O_ O_ 0.695984 0.690163 0.385021 -0.58347
O_ O_ 0.625796 0.752868 0.433512 -0.58347
O_ O_ 0.620138 0.76519 0.386721 -0.58347
O_ O_ 0.649061 0.605732 0.425798 -0.58347
O_ O_ 0.619182 0.613308 0.381458 -0.58347
O_ O_ 0.55935 0.670256 0.424882 -0.58347
O_ O_ 0.551647 0.696248 0.380496 -0.58347
O_ O_ 0.557506 0.724904 0.0770779 -0.46727
O_ O_ 0.729418 0.700014 0.0887625 -0.46727
O_ O_ 0.526346 0.705926 0.227443 -0.46727
O_ O_ 0.691806 0.65043 0.235439 -0.46727
O_ O_ 0.777912 0.827351 0.178425 -0.58347
O_ O_ 0.785254 0.796005 0.135447 -0.58347
O_ O_ 0.849195 0.749529 0.183125 -0.58347
O_ O_ 0.880966 0.742207 0.139121 -0.58347
O_ O_ 0.851438 0.89776 0.176584 -0.58347
O_ O_ 0.844845 0.888874 0.129613 -0.58347
O_ O_ 0.92767 0.818961 0.181313 -0.58347
O_ O_ 0.93492 0.827923 0.134656 -0.58347
O_ O_ 0.92441 0.801568 0.325245 -0.46727
O_ O_ 0.757373 0.849363 0.342756 -0.46727
O_ O_ 0.97116 0.803304 0.474335 -0.46727
O_ O_ 0.803978 0.849911 0.489617 -0.46727
Zn Zn 0.629786 0.679877 0.883246 0.90689
Zn Zn 0.635853 0.678261 0.930955 0.90689
Zn Zn 0.881219 0.818121 0.633323 0.90689
Zn Zn 0.871582 0.824316 0.681598 0.90689
H_ H_ 0.805888 0.674779 0.949742 0.11455
H_ H_ 0.878614 0.668404 0.849192 0.11455
H_ H_ 0.783323 0.662448 0.855856 0.11455
H_ H_ 0.89113 0.693507 0.96669 0.11455
H_ H_ 0.980687 0.692336 0.961686 0.11455
H_ H_ 0.957653 0.678133 0.87091 0.11455
H_ H_ 0.624886 0.515003 0.944333 0.11455
H_ H_ 0.617285 0.935864 0.844283 0.11455
H_ H_ 0.633278 0.524496 0.85346 0.11455
H_ H_ 0.666529 0.930308 0.959497 0.11455
H_ H_ 0.649181 0.837808 0.956215 0.11455
H_ H_ 0.619107 0.847574 0.866574 0.11455
H_ H_ 0.591499 0.60111 0.969167 0.11455
H_ H_ 0.561099 0.582213 0.514632 0.11455
H_ H_ 0.606804 0.619826 0.554111 0.11455
H_ H_ 0.689584 0.746535 0.974242 0.11455
H_ H_ 0.709005 0.807072 0.514258 0.11455
H_ H_ 0.696774 0.774553 0.564856 0.11455
H_ H_ 0.508987 0.706633 0.625105 0.11455
H_ H_ 0.503112 0.692582 0.677295 0.11455
H_ H_ 0.757416 0.660019 0.6354 0.11455
H_ H_ 0.745342 0.646134 0.688077 0.11455
H_ H_ 0.551734 0.596075 0.748846 0.11455
H_ H_ 0.537464 0.571225 0.798325 0.11455
H_ H_ 0.575637 0.621497 0.840401 0.11455
H_ H_ 0.666868 0.738747 0.75788 0.11455
H_ H_ 0.709044 0.780868 0.799538 0.11455
H_ H_ 0.682035 0.761132 0.849037 0.11455
H_ H_ 0.705382 0.820015 0.701522 0.11455
H_ H_ 0.635608 0.823287 0.604227 0.11455
H_ H_ 0.726848 0.803121 0.610843 0.11455
H_ H_ 0.616332 0.823131 0.721148 0.11455
H_ H_ 0.525063 0.819533 0.71292 0.11455
H_ H_ 0.546096 0.81502 0.621079 0.11455
H_ H_ 0.872573 0.991421 0.697834 0.11455
H_ H_ 0.854288 0.570022 0.597273 0.11455
H_ H_ 0.873972 0.979944 0.605963 0.11455
H_ H_ 0.889428 0.572081 0.714892 0.11455
H_ H_ 0.894649 0.663174 0.710351 0.11455
H_ H_ 0.872365 0.652079 0.616743 0.11455
H_ H_ 0.925582 0.906138 0.718791 0.11455
H_ H_ 0.939875 0.931892 0.770641 0.11455
H_ H_ 0.895781 0.881324 0.808068 0.11455
H_ H_ 0.824736 0.753028 0.723491 0.11455
H_ H_ 0.802067 0.6958 0.762443 0.11455
H_ H_ 0.815455 0.718678 0.809789 0.11455
H_ H_ 0.999262 0.797422 0.875824 0.11455
H_ H_ 1.00264166 0.804005 0.93013 0.11455
H_ H_ 0.742093 0.821116 0.886271 0.11455
H_ H_ 0.752699 0.837098 0.934954 0.11455
H_ H_ 0.91582 0.927694 1.00219693 0.11455
H_ H_ 0.966238 0.93012 0.548451 0.11455
H_ H_ 0.943451 0.875759 0.587823 0.11455
H_ H_ 0.853529 0.746552 0.510428 0.11455
H_ H_ 0.815038 0.707543 0.550637 0.11455
H_ H_ 0.824795 0.744003 0.600014 0.11455
C_ C_ 0.731035 0.678551 0.906401 0.68181
C_ C_ 0.786305 0.673922 0.902321 -0.05681
C_ C_ 0.820017 0.679389 0.927823 -0.08735
C_ C_ 0.872478 0.684044 0.923293 -0.05681
C_ C_ 0.891517 0.675171 0.895 -0.05681
C_ C_ 0.860746 0.670679 0.870524 -0.08735
C_ C_ 0.807106 0.667188 0.874146 -0.08735
C_ C_ 0.904936 0.692784 0.945468 -0.08735
C_ C_ 0.956675 0.691509 0.942082 -0.08735
C_ C_ 0.97872 0.683786 0.915043 -0.05681
C_ C_ 0.94534 0.678722 0.892201 -0.08735
C_ C_ 0.62663 0.779622 0.911696 0.68181
C_ C_ 0.637858 0.57989 0.902695 0.68181
C_ C_ 0.634913 0.524837 0.900417 -0.05681
C_ C_ 0.653995 -0.0040959999999999885 0.917617 -0.08735
C_ C_ 0.650067 0.943267 0.914472 -0.05681
C_ C_ 0.635036 0.918949 0.888752 -0.05681
C_ C_ 0.628011 0.951846 0.86491 -0.08735
C_ C_ 0.622065 0.00381311 0.869133 -0.08735
C_ C_ 0.655445 0.912142 0.938698 -0.08735
C_ C_ 0.642601 0.860572 0.936977 -0.08735
C_ C_ 0.628246 0.836705 0.911695 -0.05681
C_ C_ 0.628499 0.865038 0.886883 -0.08735
C_ C_ 0.535221 0.676209 0.908619 0.68181
C_ C_ 0.605501 0.622396 0.986873 0.1947
C_ C_ 0.587409 0.612901 0.5099 -0.08735
C_ C_ 0.608875 0.63876 0.532894 -0.08735
C_ C_ 0.634901 0.683589 0.529374 -0.05681
C_ C_ 0.645955 0.698234 0.499816 0.18498
C_ C_ 0.676734 0.739605 0.994928 -0.08735
C_ C_ 0.691087 0.770717 0.518883 -0.08735
C_ C_ 0.679346 0.754339 0.547156 -0.08735
C_ C_ 0.648891 0.713279 0.552162 0.18498
C_ C_ 0.683284 0.679771 0.597402 0.44287
C_ C_ 0.595987 0.697365 0.594725 0.44287
C_ C_ 0.589159 0.695438 0.624644 -0.05681
C_ C_ 0.541899 0.704101 0.637533 -0.08735
C_ C_ 0.538944 0.692811 0.667605 -0.08735
C_ C_ 0.581111 0.687858 0.685724 -0.05681
C_ C_ 0.627699 0.682633 0.67337 -0.05681
C_ C_ 0.632188 0.687684 0.642549 -0.05681
C_ C_ 0.678666 0.676591 0.627903 -0.05681
C_ C_ 0.719751 0.666701 0.645215 -0.08735
C_ C_ 0.715393 0.661667 0.675307 -0.08735
C_ C_ 0.670419 0.671125 0.689356 -0.05681
C_ C_ 0.661861 0.665071 0.719703 0.44287
C_ C_ 0.574929 0.682606 0.715413 0.44287
C_ C_ 0.608887 0.654797 0.76089 0.18498
C_ C_ 0.573641 0.616015 0.766752 -0.08735
C_ C_ 0.563516 0.601648 0.794445 -0.08735
C_ C_ 0.58121 0.632102 0.817289 -0.08735
C_ C_ 0.615184 0.671948 0.812455 0.18498
C_ C_ 0.629327 0.682623 0.78407 -0.05681
C_ C_ 0.659528 0.72475 0.780179 -0.08735
C_ C_ 0.684982 0.748053 0.803553 -0.08735
C_ C_ 0.673173 0.733573 0.831258 0.1947
C_ C_ 0.778167 0.812609 0.66011 0.68181
C_ C_ 0.722999 0.808308 0.656283 -0.05681
C_ C_ 0.689593 0.815344 0.680326 -0.08735
C_ C_ 0.636016 0.815579 0.675233 -0.05681
C_ C_ 0.615976 0.819606 0.646323 -0.05681
C_ C_ 0.649708 0.811857 0.624014 -0.08735
C_ C_ 0.70111 0.804631 0.628547 -0.08735
C_ C_ 0.602246 0.818767 0.698598 -0.08735
C_ C_ 0.54889 0.819585 0.694208 -0.08735
C_ C_ 0.528213 0.820661 0.665842 -0.05681
C_ C_ 0.561246 0.814875 0.642042 -0.08735
C_ C_ 0.884848 0.721745 0.661713 0.68181
C_ C_ 0.868773 0.920729 0.654078 0.68181
C_ C_ 0.86655 0.978528 0.652032 -0.05681
C_ C_ 0.874631 0.508737 0.672422 -0.08735
C_ C_ 0.877158 0.561468 0.668762 -0.05681
C_ C_ 0.874759 0.584847 0.641528 -0.05681
C_ C_ 0.861027 0.553334 0.618655 -0.08735
C_ C_ 0.871737 1.00148368 0.625045 -0.08735
C_ C_ 0.888947 0.59057 0.69293 -0.08735
C_ C_ 0.892616 0.642152 0.690045 -0.08735
C_ C_ 0.883661 0.666171 0.663411 -0.05681
C_ C_ 0.878819 0.635855 0.638085 -0.08735
C_ C_ 0.972583 0.813129 0.654821 0.68181
C_ C_ 0.910052 0.880516 0.736367 0.1947
C_ C_ 0.917307 0.897401 0.764606 -0.08735
C_ C_ 0.895983 0.868211 0.786611 -0.08735
C_ C_ 0.874494 0.820107 0.780538 -0.05681
C_ C_ 0.865589 0.806796 0.75145 0.18498
C_ C_ 0.838443 0.762475 0.74455 -0.08735
C_ C_ 0.825999 0.727843 0.76659 -0.08735
C_ C_ 0.834529 0.739981 0.79449 -0.08735
C_ C_ 0.862321 0.784513 0.801841 0.18498
C_ C_ 0.821891 0.804892 0.847894 0.44287
C_ C_ 0.910958 0.795839 0.84536 0.44287
C_ C_ 0.916086 0.803437 0.875047 -0.05681
C_ C_ 0.963634 0.803443 0.887633 -0.08735
C_ C_ 0.967235 0.807978 0.918279 -0.08735
C_ C_ 0.923336 0.819058 0.935102 -0.05681
C_ C_ 0.877615 0.82074 0.920057 -0.05681
C_ C_ 0.872402 0.811832 0.890612 -0.05681
C_ C_ 0.824246 0.811088 0.878056 -0.05681
C_ C_ 0.781652 0.821936 0.894493 -0.08735
C_ C_ 0.785376 0.830605 0.923504 -0.08735
C_ C_ 0.833646 0.832982 0.936391 -0.05681
C_ C_ 0.837522 0.842223 0.965708 0.44287
C_ C_ 0.922463 0.816077 0.965809 0.44287
C_ C_ 0.902992 0.838888 0.510713 0.18498
C_ C_ 0.929968 0.884808 0.516689 -0.08735
C_ C_ 0.948463 0.893113 0.544391 -0.08735
C_ C_ 0.93501 0.861516 0.567031 -0.08735
C_ C_ 0.895407 0.82593 0.562651 0.18498
C_ C_ 0.885336 0.809756 0.533863 -0.05681
C_ C_ 0.854166 0.766563 0.530441 -0.08735
C_ C_ 0.831348 0.742639 0.553565 -0.08735
C_ C_ 0.841911 0.760552 0.581274 0.1947
N_ N_ 0.629879 0.666887 0.980498 -0.29468
N_ N_ 0.642553 0.69482 0.581824 -0.17154
N_ N_ 0.615028 0.669379 0.731728 -0.17154
N_ N_ 0.637737 0.696403 0.835691 -0.29468
N_ N_ 0.880897 0.838918 0.730379 -0.29468
N_ N_ 0.865698 0.796603 0.832907 -0.17154
N_ N_ 0.88293 0.835395 0.980395 -0.17154
N_ N_ 0.8692 0.80538 0.584565 -0.29468
O_ O_ 0.712125 0.677477 0.930601 -0.58347
O_ O_ 0.70236 0.674592 0.884119 -0.58347
O_ O_ 0.630924 0.753832 0.934942 -0.58347
O_ O_ 0.627736 0.756265 0.887921 -0.58347
O_ O_ 0.645713 0.60081 0.92684 -0.58347
O_ O_ 0.628778 0.60596 0.881176 -0.58347
O_ O_ 0.562874 0.671937 0.929803 -0.58347
O_ O_ 0.555051 0.683229 0.884736 -0.58347
O_ O_ 0.558025 0.709913 0.578771 -0.46727
O_ O_ 0.727491 0.670142 0.583556 -0.46727
O_ O_ 0.529307 0.686589 0.727849 -0.46727
O_ O_ 0.698436 0.646101 0.735389 -0.46727
O_ O_ 0.7979 0.820876 0.684953 -0.58347
O_ O_ 0.805586 0.816021 0.637883 -0.58347
O_ O_ 0.876995 0.748115 0.683836 -0.58347
O_ O_ 0.886381 0.743456 0.637322 -0.58347
O_ O_ 0.865661 0.898708 0.678277 -0.58347
O_ O_ 0.875104 0.895868 0.63086 -0.58347
O_ O_ 0.946024 0.82357 0.676714 -0.58347
O_ O_ 0.953913 0.814329 0.629927 -0.58347
O_ O_ 0.952375 0.790444 0.829777 -0.46727
O_ O_ 0.779954 0.815543 0.833913 -0.46727
O_ O_ 0.964423 0.80354 0.978879 -0.46727
O_ O_ 0.797144 0.850964 0.981704 -0.46727
_cell_length_a 26.376
_cell_length_b 26.400000238300095
_cell_length_c 46.67800035477134
_cell_angle_alpha 90.00700052986613
_cell_angle_beta 89.99899961309502
_cell_angle_gamma 90.45000003183146
_symmetry_space_group_name_H-M         'P 1'
_symmetry_Int_Tables_number            1
loop_
_symmetry_equiv_pos_as_xyz
   'x, y, z'
                         
loop_
_atom_site_label
_atom_site_type_symbol
_atom_site_fract_x 
_atom_site_fract_y
_atom_site_fract_z
_atom_site_charge
Zn Zn 0.129089 0.179767 0.380842 0.90689
Zn Zn 0.139991 0.177412 0.428815 0.90689
Zn Zn 0.373558 0.306341 0.128931 0.90689
Zn Zn 0.360427 0.31255 0.175292 0.90689
H_ H_ 0.304284 0.195236 0.445763 0.11455
H_ H_ 0.379852 0.181492 0.348938 0.11455
H_ H_ 0.288458 0.189894 0.354473 0.11455
H_ H_ 0.390936 0.194431 0.464332 0.11455
H_ H_ 0.48292 0.19722 0.45775 0.11455
H_ H_ 0.463573 0.165006 0.369354 0.11455
H_ H_ 0.153182 0.00920033 0.444713 0.11455
H_ H_ 0.172501 0.43938 0.354248 0.11455
H_ H_ 0.159593 0.0183629 0.352984 0.11455
H_ H_ 0.105522 0.416516 0.465465 0.11455
H_ H_ 0.112367 0.326332 0.459049 0.11455
H_ H_ 0.153177 0.348476 0.369772 0.11455
H_ H_ 0.0939408 0.089598 0.462652 0.11455
H_ H_ 0.061081 0.0880955 0.0135466 0.11455
H_ H_ 0.0950809 0.131778 0.0547503 0.11455
H_ H_ 0.18828 0.239088 0.471107 0.11455
H_ H_ 0.217875 0.308598 0.015032 0.11455
H_ H_ 0.197932 0.280697 0.0635377 0.11455
H_ H_ 0.0179653 0.200529 0.127106 0.11455
H_ H_ 0.0111969 0.178165 0.176828 0.11455
H_ H_ 0.268599 0.1518 0.131946 0.11455
H_ H_ 0.260712 0.129184 0.181861 0.11455
H_ H_ 0.106383 0.0612247 0.251441 0.11455
H_ H_ 0.061574 0.0508316 0.297906 0.11455
H_ H_ 0.0813542 0.113629 0.337998 0.11455
H_ H_ 0.185609 0.224761 0.256073 0.11455
H_ H_ 0.21049 0.276903 0.293363 0.11455
H_ H_ 0.178142 0.256299 0.345649 0.11455
H_ H_ 0.197712 0.285579 0.192728 0.11455
H_ H_ 0.130648 0.34918 0.101835 0.11455
H_ H_ 0.221046 0.335862 0.106683 0.11455
H_ H_ 0.113257 0.285202 0.213362 0.11455
H_ H_ 0.0177568 0.288886 0.205682 0.11455
H_ H_ 0.0436229 0.343184 0.119092 0.11455
H_ H_ 0.344354 0.473922 0.191154 0.11455
H_ H_ 0.330495 0.0564786 0.0994221 0.11455
H_ H_ 0.361853 0.466771 0.0997712 0.11455
H_ H_ 0.408027 0.0576016 0.209672 0.11455
H_ H_ 0.41437 0.151955 0.205134 0.11455
H_ H_ 0.35825 0.13776 0.116731 0.11455
H_ H_ 0.405346 0.391152 0.20823 0.11455
H_ H_ 0.426963 0.423197 0.257691 0.11455
H_ H_ 0.401807 0.37531 0.300879 0.11455
H_ H_ 0.307114 0.249659 0.219337 0.11455
H_ H_ 0.295503 0.186293 0.261788 0.11455
H_ H_ 0.325102 0.207854 0.309866 0.11455
H_ H_ 0.492905 0.292073 0.370136 0.11455
H_ H_ 0.49964 0.298342 0.420931 0.11455
H_ H_ 0.245793 0.357976 0.379688 0.11455
H_ H_ 0.252097 0.356534 0.433183 0.11455
H_ H_ 0.413538 0.415688 0.493149 0.11455
H_ H_ 0.456727 0.42412 0.0384532 0.11455
H_ H_ 0.43155 0.372402 0.0815226 0.11455
H_ H_ 0.327963 0.249482 0.00631178 0.11455
H_ H_ 0.311963 0.199018 0.0496236 0.11455
H_ H_ 0.318707 0.238463 0.0981325 0.11455
C_ C_ 0.232321 0.178481 0.40501 0.68181
C_ C_ 0.288955 0.18225 0.400154 -0.05681
C_ C_ 0.321173 0.184826 0.424484 -0.08735
C_ C_ 0.374115 0.182134 0.420112 -0.05681
C_ C_ 0.395063 0.17495 0.39272 -0.05681
C_ C_ 0.362535 0.177436 0.369101 -0.08735
C_ C_ 0.310995 0.179522 0.37302 -0.08735
C_ C_ 0.406394 0.190782 0.443025 -0.08735
C_ C_ 0.459316 0.189443 0.439819 -0.08735
C_ C_ 0.480017 0.181138 0.412105 -0.05681
C_ C_ 0.446188 0.17379 0.389038 -0.08735
C_ C_ 0.129879 0.276451 0.411688 0.68181
C_ C_ 0.146206 0.0792342 0.400265 0.68181
C_ C_ 0.146717 0.0241576 0.399316 -0.05681
C_ C_ 0.125284 0.489999 0.42509 -0.08735
C_ C_ 0.125777 0.438017 0.421992 -0.05681
C_ C_ 0.141928 0.418077 0.394971 -0.05681
C_ C_ 0.153415 0.45228 0.372491 -0.08735
C_ C_ 0.148715 0.504246 0.376126 -0.08735
C_ C_ 0.11109 0.404001 0.444306 -0.08735
C_ C_ 0.121992 0.352748 0.442046 -0.08735
C_ C_ 0.13247 0.331456 0.415055 -0.05681
C_ C_ 0.145135 0.363171 0.391511 -0.08735
C_ C_ 0.0364644 0.172469 0.405737 0.68181
C_ C_ 0.109293 0.11027 0.480276 0.1947
C_ C_ 0.0863442 0.120877 0.0099409 -0.08735
C_ C_ 0.104052 0.14762 0.0334413 -0.08735
C_ C_ 0.13829 0.18794 0.0292674 -0.05681
C_ C_ 0.153767 0.201298 1.000674777 0.18498
C_ C_ 0.177226 0.227239 0.493229 -0.08735
C_ C_ 0.197441 0.27485 0.0179058 -0.08735
C_ C_ 0.186422 0.259699 0.0468574 -0.08735
C_ C_ 0.158857 0.215863 0.0524059 0.18498
C_ C_ 0.193165 0.180309 0.0973077 0.44287
C_ C_ 0.106914 0.205535 0.0964837 0.44287
C_ C_ 0.0999914 0.189338 0.124534 -0.05681
C_ C_ 0.0516994 0.190805 0.137965 -0.08735
C_ C_ 0.048808 0.179075 0.167441 -0.08735
C_ C_ 0.0915399 0.171301 0.184225 -0.05681
C_ C_ 0.137561 0.160686 0.170194 -0.05681
C_ C_ 0.142219 0.17024 0.140653 -0.05681
C_ C_ 0.190182 0.169296 0.127427 -0.05681
C_ C_ 0.232152 0.155364 0.142805 -0.08735
C_ C_ 0.228456 0.145933 0.171828 -0.08735
C_ C_ 0.178937 0.143892 0.185385 -0.05681
C_ C_ 0.174305 0.13639 0.21555 0.44287
C_ C_ 0.091715 0.172709 0.215558 0.44287
C_ C_ 0.126806 0.139911 0.259035 0.18498
C_ C_ 0.102349 0.0945067 0.266274 -0.08735
C_ C_ 0.0820843 0.0844871 0.293125 -0.08735
C_ C_ 0.0938185 0.11828 0.315644 -0.08735
C_ C_ 0.126271 0.160275 0.310685 0.18498
C_ C_ 0.14232 0.171783 0.282147 -0.05681
C_ C_ 0.173035 0.21378 0.277793 -0.08735
C_ C_ 0.189842 0.243597 0.300783 -0.08735
C_ C_ 0.169451 0.233171 0.32844 0.1947
C_ C_ 0.271574 0.307954 0.154139 0.68181
C_ C_ 0.21671 0.308398 0.150171 -0.05681
C_ C_ 0.182975 0.296754 0.172234 -0.08735
C_ C_ 0.130676 0.303486 0.169096 -0.05681
C_ C_ 0.111612 0.326669 0.144287 -0.05681
C_ C_ 0.144183 0.33469 0.121094 -0.08735
C_ C_ 0.196494 0.327401 0.124434 -0.08735
C_ C_ 0.0971471 0.292947 0.191742 -0.08735
C_ C_ 0.0451173 0.301229 0.189832 -0.08735
C_ C_ 0.0243383 0.319324 0.163551 -0.05681
C_ C_ 0.0583153 0.332025 0.140489 -0.08735
C_ C_ 0.382129 0.210383 0.159219 0.68181
C_ C_ 0.356942 0.404255 0.145598 0.68181
C_ C_ 0.355762 0.461837 0.145738 -0.05681
C_ C_ 0.375364 -0.0049799999999999844 0.169039 -0.08735
C_ C_ 0.380879 0.0475268 0.166214 -0.05681
C_ C_ 0.367002 0.0696634 0.140306 -0.05681
C_ C_ 0.348781 0.0406211 0.118477 -0.08735
C_ C_ 0.363341 0.487856 0.118823 -0.08735
C_ C_ 0.398047 0.0768061 0.189274 -0.08735
C_ C_ 0.398597 0.129873 0.186206 -0.08735
C_ C_ 0.383999 0.153478 0.162 -0.05681
C_ C_ 0.367215 0.121914 0.13807 -0.08735
C_ C_ 0.46307 0.313935 0.151001 0.68181
C_ C_ 0.39451 0.370358 0.227269 0.1947
C_ C_ 0.405034 0.389005 0.255786 -0.08735
C_ C_ 0.389496 0.361918 0.278707 -0.08735
C_ C_ 0.357745 0.320539 0.275799 -0.05681
C_ C_ 0.348815 0.302951 0.24682 0.18498
C_ C_ 0.322087 0.257971 0.242282 -0.08735
C_ C_ 0.313774 0.223085 0.26539 -0.08735
C_ C_ 0.328041 0.237697 0.292765 -0.08735
C_ C_ 0.346559 0.287354 0.299054 0.18498
C_ C_ 0.315134 0.316145 0.344425 0.44287
C_ C_ 0.403297 0.297599 0.340101 0.44287
C_ C_ 0.410114 0.30763 0.369676 -0.05681
C_ C_ 0.4581 0.303666 0.382834 -0.08735
C_ C_ 0.46105 0.302514 0.412393 -0.08735
C_ C_ 0.419864 0.319687 0.429588 -0.05681
C_ C_ 0.372987 0.330144 0.416915 -0.05681
C_ C_ 0.368923 0.321696 0.387016 -0.05681
C_ C_ 0.3213 0.328678 0.373715 -0.05681
C_ C_ 0.278874 0.343934 0.390479 -0.08735
C_ C_ 0.283508 0.347905 0.420371 -0.08735
C_ C_ 0.328963 0.338192 0.434029 -0.05681
C_ C_ 0.334945 0.338402 0.464453 0.44287
C_ C_ 0.423202 0.313466 0.459089 0.44287
C_ C_ 0.381505 0.336515 0.0049366 0.18498
C_ C_ 0.411842 0.379691 0.00948197 -0.08735
C_ C_ 0.43167 0.392056 0.0370499 -0.08735
C_ C_ 0.413836 0.365313 0.061191 -0.08735
C_ C_ 0.378153 0.325025 0.0572404 0.18498
C_ C_ 0.365018 0.307354 0.0299154 -0.05681
C_ C_ 0.342157 0.261613 0.027099 -0.08735
C_ C_ 0.33229 0.232717 0.0516478 -0.08735
C_ C_ 0.338561 0.254377 0.0791481 0.1947
N_ N_ 0.13439 0.153739 0.475614 -0.29468
N_ N_ 0.152203 0.199734 0.0827047 -0.17154
N_ N_ 0.132908 0.153429 0.229591 -0.17154
N_ N_ 0.138768 0.190549 0.33303 -0.29468
N_ N_ 0.367097 0.326903 0.222708 -0.29468
N_ N_ 0.356109 0.30017 0.328158 -0.17154
N_ N_ 0.382982 0.326322 0.476394 -0.17154
N_ N_ 0.363458 0.298314 0.0819757 -0.29468
O_ O_ 0.212296 0.182153 0.429081 -0.58347
O_ O_ 0.20382 0.182301 0.383552 -0.58347
O_ O_ 0.128649 0.2496 0.434861 -0.58347
O_ O_ 0.1298 0.254622 0.387182 -0.58347
O_ O_ 0.150316 0.100129 0.423541 -0.58347
O_ O_ 0.133315 0.102263 0.3779 -0.58347
O_ O_ 0.0656528 0.170587 0.427027 -0.58347
O_ O_ 0.0547874 0.178725 0.380296 -0.58347
O_ O_ 0.070185 0.226804 0.0819894 -0.46727
O_ O_ 0.237477 0.181067 0.0855736 -0.46727
O_ O_ 0.0576524 0.199211 0.22959 -0.46727
O_ O_ 0.215742 0.125298 0.230709 -0.46727
O_ O_ 0.289773 0.298517 0.178611 -0.58347
O_ O_ 0.299564 0.308605 0.132363 -0.58347
O_ O_ 0.373539 0.239109 0.18103 -0.58347
O_ O_ 0.380537 0.230023 0.134369 -0.58347
O_ O_ 0.346794 0.381958 0.169306 -0.58347
O_ O_ 0.375695 0.382084 0.124378 -0.58347
O_ O_ 0.434489 0.318177 0.172159 -0.58347
O_ O_ 0.446531 0.310118 0.126018 -0.58347
O_ O_ 0.44264 0.280447 0.325691 -0.46727
O_ O_ 0.270614 0.311759 0.333321 -0.46727
O_ O_ 0.468078 0.306819 0.469884 -0.46727
O_ O_ 0.29602 0.342295 0.480932 -0.46727
Zn Zn 0.126345 0.193915 0.881842 0.90689
Zn Zn 0.140999 0.18226 0.931107 0.90689
Zn Zn 0.379884 0.311572 0.629722 0.90689
Zn Zn 0.362214 0.315987 0.676762 0.90689
H_ H_ 0.302858 0.190889 0.947444 0.11455
H_ H_ 0.367933 0.173487 0.848119 0.11455
H_ H_ 0.274835 0.176627 0.857502 0.11455
H_ H_ 0.390495 0.17212 0.965715 0.11455
H_ H_ 0.479549 0.151586 0.956007 0.11455
H_ H_ 0.458558 0.173044 0.866202 0.11455
H_ H_ 0.145067 0.0158769 0.942594 0.11455
H_ H_ 0.143913 0.443354 0.847921 0.11455
H_ H_ 0.109344 0.0322556 0.854938 0.11455
H_ H_ 0.150396 0.437701 0.964462 0.11455
H_ H_ 0.143584 0.345147 0.960198 0.11455
H_ H_ 0.133762 0.357693 0.867039 0.11455
H_ H_ 0.08597 0.115673 0.96257 0.11455
H_ H_ 0.0753955 0.0593894 0.511232 0.11455
H_ H_ 0.113407 0.103768 0.552095 0.11455
H_ H_ 0.19519 0.256953 0.975109 0.11455
H_ H_ 0.204508 0.296829 0.510774 0.11455
H_ H_ 0.188145 0.269658 0.560013 0.11455
H_ H_ 0.0129593 0.202314 0.622212 0.11455
H_ H_ 0.00509545 0.209849 0.673163 0.11455
H_ H_ 0.264029 0.146207 0.635195 0.11455
H_ H_ 0.249011 0.144436 0.689136 0.11455
H_ H_ 0.0663637 0.0924439 0.751361 0.11455
H_ H_ 0.0444164 0.076817 0.801044 0.11455
H_ H_ 0.0817375 0.130319 0.837717 0.11455
H_ H_ 0.168501 0.248599 0.754618 0.11455
H_ H_ 0.210137 0.292085 0.798409 0.11455
H_ H_ 0.192395 0.260659 0.846191 0.11455
H_ H_ 0.197163 0.298338 0.690254 0.11455
H_ H_ 0.134222 0.311758 0.592013 0.11455
H_ H_ 0.225553 0.327078 0.602713 0.11455
H_ H_ 0.118658 0.32997 0.708665 0.11455
H_ H_ 0.0293491 0.350817 0.700744 0.11455
H_ H_ 0.045955 0.323145 0.610869 0.11455
H_ H_ 0.356755 0.488485 0.692583 0.11455
H_ H_ 0.374012 0.0631568 0.595381 0.11455
H_ H_ 0.366621 0.469117 0.597582 0.11455
H_ H_ 0.374626 0.0641916 0.714989 0.11455
H_ H_ 0.384198 0.152318 0.713516 0.11455
H_ H_ 0.382399 0.145138 0.619428 0.11455
H_ H_ 0.406384 0.391372 0.709625 0.11455
H_ H_ 0.402754 0.433817 0.755489 0.11455
H_ H_ 0.367224 0.387108 0.798539 0.11455
H_ H_ 0.317149 0.243017 0.717404 0.11455
H_ H_ 0.294421 0.185094 0.756448 0.11455
H_ H_ 0.303347 0.217883 0.806074 0.11455
H_ H_ 0.479259 0.27707 0.871339 0.11455
H_ H_ 0.48734 0.281469 0.92186 0.11455
H_ H_ 0.244531 0.363686 0.87687 0.11455
H_ H_ 0.250061 0.356623 0.929538 0.11455
H_ H_ 0.418473 0.404035 -0.007770000000000055 0.11455
H_ H_ 0.436482 0.445591 0.540128 0.11455
H_ H_ 0.423798 0.386537 0.584451 0.11455
H_ H_ 0.343414 0.249094 0.50591 0.11455
H_ H_ 0.314898 0.202355 0.549002 0.11455
H_ H_ 0.32468 0.2383 0.595919 0.11455
C_ C_ 0.230107 0.18937 0.90714 0.68181
C_ C_ 0.285371 0.189688 0.901697 -0.05681
C_ C_ 0.319514 0.187013 0.925265 -0.08735
C_ C_ 0.370899 0.176005 0.920028 -0.05681
C_ C_ 0.389268 0.171722 0.892598 -0.05681
C_ C_ 0.354014 0.175701 0.870587 -0.08735
C_ C_ 0.303351 0.184644 0.874423 -0.08735
C_ C_ 0.403355 0.168308 0.94308 -0.08735
C_ C_ 0.45473 0.15638 0.937784 -0.08735
C_ C_ 0.475536 0.160697 0.910008 -0.05681
C_ C_ 0.442262 0.169517 0.887643 -0.08735
C_ C_ 0.130403 0.287501 0.910156 0.68181
C_ C_ 0.136023 0.0877825 0.900501 0.68181
C_ C_ 0.129099 0.0317427 0.898145 -0.05681
C_ C_ 0.159464 0.50038 0.922798 -0.08735
C_ C_ 0.155759 0.447707 0.919933 -0.05681
C_ C_ 0.145005 0.427451 0.892996 -0.05681
C_ C_ 0.149114 0.458285 0.868543 -0.08735
C_ C_ 0.151081 0.510809 0.87243 -0.08735
C_ C_ 0.14895 0.419495 0.944113 -0.08735
C_ C_ 0.145961 0.36716 0.940855 -0.08735
C_ C_ 0.137663 0.343955 0.913591 -0.05681
C_ C_ 0.135861 0.374607 0.88935 -0.08735
C_ C_ 0.0366424 0.188015 0.907244 0.68181
C_ C_ 0.103805 0.13191 0.982298 0.1947
C_ C_ 0.0988959 0.0927896 0.508374 -0.08735
C_ C_ 0.121017 0.119167 0.531112 -0.08735
C_ C_ 0.142521 0.166859 0.526139 -0.05681
C_ C_ 0.149798 0.184597 0.49723 0.18498
C_ C_ 0.181043 0.245518 0.995657 -0.08735
C_ C_ 0.183948 0.262477 0.514845 -0.08735
C_ C_ 0.178159 0.245553 0.542724 -0.08735
C_ C_ 0.157114 0.198846 0.549554 0.18498
C_ C_ 0.19013 0.168952 0.596204 0.44287
C_ C_ 0.1046 0.196225 0.593366 0.44287
C_ C_ 0.09596 0.187394 0.622536 -0.05681
C_ C_ 0.0462002 0.191901 0.635186 -0.08735
C_ C_ 0.0417608 0.198484 0.664699 -0.08735
C_ C_ 0.08497 0.190158 0.682387 -0.05681
C_ C_ 0.131258 0.171231 0.669395 -0.05681
C_ C_ 0.136085 0.170172 0.639478 -0.05681
C_ C_ 0.183974 0.160231 0.625743 -0.05681
C_ C_ 0.225718 0.153198 0.64442 -0.08735
C_ C_ 0.219483 0.151024 0.675064 -0.08735
C_ C_ 0.172714 0.159221 0.68751 -0.05681
C_ C_ 0.165634 0.155416 0.716793 0.44287
C_ C_ 0.0835037 0.188855 0.712789 0.44287
C_ C_ 0.112077 0.158757 0.758737 0.18498
C_ C_ 0.0852523 0.117088 0.766271 -0.08735
C_ C_ 0.0714698 0.107109 0.795156 -0.08735
C_ C_ 0.0857569 0.140152 0.815883 -0.08735
C_ C_ 0.117008 0.181081 0.809925 0.18498
C_ C_ 0.133489 0.190653 0.780909 -0.05681
C_ C_ 0.163897 0.232747 0.77638 -0.08735
C_ C_ 0.186714 0.257396 0.799916 -0.08735
C_ C_ 0.173461 0.242256 0.828072 0.1947
C_ C_ 0.274458 0.308049 0.651202 0.68181
C_ C_ 0.219588 0.307958 0.646211 -0.05681
C_ C_ 0.184822 0.304494 0.668576 -0.08735
C_ C_ 0.133471 0.317896 0.663791 -0.05681
C_ C_ 0.114082 0.321451 0.636425 -0.05681
C_ C_ 0.14796 0.312375 0.613773 -0.08735
C_ C_ 0.200152 0.317513 0.618533 -0.08735
C_ C_ 0.102924 0.330176 0.68748 -0.08735
C_ C_ 0.0516079 0.343449 0.682767 -0.08735
C_ C_ 0.0274937 0.330289 0.656736 -0.05681
C_ C_ 0.0613524 0.328054 0.632822 -0.08735
C_ C_ 0.37616 0.215391 0.661905 0.68181
C_ C_ 0.3652 0.41567 0.647233 0.68181
C_ C_ 0.364693 0.472844 0.645052 -0.05681
C_ C_ 0.362359 -0.00034202 0.670854 -0.08735
C_ C_ 0.36337 0.0520852 0.669475 -0.05681
C_ C_ 0.365233 0.0754882 0.641752 -0.05681
C_ C_ 0.367189 0.046707 0.617242 -0.08735
C_ C_ 0.365585 0.494373 0.616718 -0.08735
C_ C_ 0.369288 0.0814756 0.693515 -0.08735
C_ C_ 0.373259 0.133582 0.692755 -0.08735
C_ C_ 0.371605 0.158138 0.664949 -0.05681
C_ C_ 0.372349 0.128651 0.63993 -0.08735
C_ C_ 0.471029 0.316642 0.656006 0.68181
C_ C_ 0.393278 0.3704 0.727394 0.1947
C_ C_ 0.391236 0.39495 0.753568 -0.08735
C_ C_ 0.376673 0.367845 0.778043 -0.08735
C_ C_ 0.358039 0.318444 0.773121 -0.05681
C_ C_ 0.352301 0.30032 0.744404 0.18498
C_ C_ 0.326505 0.254428 0.738635 -0.08735
C_ C_ 0.315279 0.220433 0.761489 -0.08735
C_ C_ 0.320409 0.23895 0.788755 -0.08735
C_ C_ 0.344225 0.285578 0.796564 0.18498
C_ C_ 0.315496 0.325707 0.841308 0.44287
C_ C_ 0.397526 0.286957 0.838844 0.44287
C_ C_ 0.403418 0.295563 0.868905 -0.05681
C_ C_ 0.450097 0.287288 0.882652 -0.08735
C_ C_ 0.453947 0.291554 0.911408 -0.08735
C_ C_ 0.411088 0.301608 0.928299 -0.05681
C_ C_ 0.365946 0.314387 0.914864 -0.05681
C_ C_ 0.363925 0.315517 0.885155 -0.05681
C_ C_ 0.318138 0.329714 0.870751 -0.05681
C_ C_ 0.278933 0.350116 0.886856 -0.08735
C_ C_ 0.282165 0.345105 0.916808 -0.08735
C_ C_ 0.324725 0.331388 0.93064 -0.05681
C_ C_ 0.327841 0.336286 0.960914 0.44287
C_ C_ 0.409618 0.299318 0.959472 0.44287
C_ C_ 0.391718 0.34119 0.505033 0.18498
C_ C_ 0.407966 0.390353 0.51167 -0.08735
C_ C_ 0.420234 0.408196 0.539088 -0.08735
C_ C_ 0.40972 0.37696 0.562962 -0.08735
C_ C_ 0.391348 0.326739 0.558696 0.18498
C_ C_ 0.380911 0.309916 0.529884 -0.05681
C_ C_ 0.356311 0.26282 0.526889 -0.08735
C_ C_ 0.339564 0.23488 0.551967 -0.08735
C_ C_ 0.345295 0.256244 0.578344 0.1947
N_ N_ 0.134569 0.173174 0.977391 -0.29468
N_ N_ 0.150315 0.185555 0.579908 -0.17154
N_ N_ 0.12118 0.169055 0.728284 -0.17154
N_ N_ 0.13695 0.205861 0.832434 -0.29468
N_ N_ 0.365797 0.329245 0.721995 -0.29468
N_ N_ 0.353001 0.299518 0.826176 -0.17154
N_ N_ 0.371337 0.322898 0.975113 -0.17154
N_ N_ 0.377724 0.29641 0.582582 -0.29468
O_ O_ 0.213916 0.189914 0.93329 -0.58347
O_ O_ 0.197852 0.199457 0.887023 -0.58347
O_ O_ 0.139237 0.26029 0.932173 -0.58347
O_ O_ 0.118497 0.268511 0.885931 -0.58347
O_ O_ 0.14321 0.106653 0.925847 -0.58347
O_ O_ 0.128679 0.117443 0.879163 -0.58347
O_ O_ 0.0657786 0.184688 0.928583 -0.58347
O_ O_ 0.0530217 0.193702 0.881643 -0.58347
O_ O_ 0.0665294 0.210399 0.577799 -0.46727
O_ O_ 0.23216 0.153684 0.583493 -0.46727
O_ O_ 0.0426717 0.205112 0.726419 -0.46727
O_ O_ 0.198555 0.131279 0.732906 -0.46727
O_ O_ 0.29145 0.305443 0.676531 -0.58347
O_ O_ 0.304375 0.3134 0.629931 -0.58347
O_ O_ 0.378143 0.242806 0.684056 -0.58347
O_ O_ 0.37561 0.235284 0.637707 -0.58347
O_ O_ 0.349146 0.391577 0.669345 -0.58347
O_ O_ 0.382251 0.390014 0.626757 -0.58347
O_ O_ 0.440974 0.328239 0.676539 -0.58347
O_ O_ 0.457223 0.309266 0.630637 -0.58347
O_ O_ 0.42969 0.259241 0.824733 -0.46727
O_ O_ 0.272663 0.336764 0.828217 -0.46727
O_ O_ 0.451492 0.288934 0.97248 -0.46727
O_ O_ 0.290413 0.357491 0.975347 -0.46727
Zn Zn 0.12124 0.681631 0.386944 0.90689
Zn Zn 0.136898 0.679588 0.433478 0.90689
Zn Zn 0.361616 0.806364 0.130701 0.90689
Zn Zn 0.350137 0.817595 0.177438 0.90689
H_ H_ 0.30328 0.699603 0.445428 0.11455
H_ H_ 0.369246 0.673615 0.347972 0.11455
H_ H_ 0.273736 0.669259 0.358411 0.11455
H_ H_ 0.393912 0.707322 0.463584 0.11455
H_ H_ 0.485102 0.698697 0.453956 0.11455
H_ H_ 0.460537 0.681519 0.364208 0.11455
H_ H_ 0.116496 0.506569 0.445524 0.11455
H_ H_ 0.139788 0.924962 0.350815 0.11455
H_ H_ 0.154835 0.529529 0.357031 0.11455
H_ H_ 0.147465 0.925191 0.468355 0.11455
H_ H_ 0.135427 0.835517 0.4648 0.11455
H_ H_ 0.136743 0.843096 0.375189 0.11455
H_ H_ 0.0821565 0.612084 0.470442 0.11455
H_ H_ 0.073888 0.573569 0.0124182 0.11455
H_ H_ 0.106672 0.612993 0.0547519 0.11455
H_ H_ 0.195513 0.746357 0.475646 0.11455
H_ H_ 0.219924 0.794877 0.016855 0.11455
H_ H_ 0.206184 0.770134 0.0647284 0.11455
H_ H_ 0.00522495 0.699876 0.119665 0.11455
H_ H_ -0.01003900000000002 0.689038 0.17428 0.11455
H_ H_ 0.253438 0.653408 0.141543 0.11455
H_ H_ 0.240119 0.647833 0.194362 0.11455
H_ H_ 0.0432905 0.599036 0.252178 0.11455
H_ H_ 0.0290355 0.567003 0.298728 0.11455
H_ H_ 0.0613328 0.614373 0.340248 0.11455
H_ H_ 0.155383 0.744372 0.261177 0.11455
H_ H_ 0.191209 0.783596 0.302717 0.11455
H_ H_ 0.188855 0.739241 0.34772 0.11455
H_ H_ 0.184854 0.806896 0.196464 0.11455
H_ H_ 0.114414 0.838897 0.100772 0.11455
H_ H_ 0.203887 0.820504 0.107125 0.11455
H_ H_ 0.10476 0.809941 0.217871 0.11455
H_ H_ 0.00850138 0.819224 0.210052 0.11455
H_ H_ 0.0239556 0.818968 0.118261 0.11455
H_ H_ 0.375526 0.977795 0.189737 0.11455
H_ H_ 0.366296 0.556124 0.0966565 0.11455
H_ H_ 0.339422 0.962457 0.102534 0.11455
H_ H_ 0.3362 0.560151 0.214304 0.11455
H_ H_ 0.335853 0.651355 0.209979 0.11455
H_ H_ 0.366056 0.640221 0.120415 0.11455
H_ H_ 0.408341 0.893138 0.21184 0.11455
H_ H_ 0.42743 0.92267 0.260393 0.11455
H_ H_ 0.397594 0.875154 0.303013 0.11455
H_ H_ 0.288571 0.763318 0.223927 0.11455
H_ H_ 0.26589 0.703694 0.264185 0.11455
H_ H_ 0.305698 0.718458 0.311384 0.11455
H_ H_ 0.487316 0.802096 0.370348 0.11455
H_ H_ 0.498216 0.811265 0.423674 0.11455
H_ H_ 0.237363 0.835873 0.38868 0.11455
H_ H_ 0.2533 0.857265 0.437984 0.11455
H_ H_ 0.437847 0.921318 0.498174 0.11455
H_ H_ 0.445686 0.929256 0.0492414 0.11455
H_ H_ 0.424422 0.868716 0.087035 0.11455
H_ H_ 0.343143 0.747976 0.00433795 0.11455
H_ H_ 0.30945 0.697926 0.0457022 0.11455
H_ H_ 0.311008 0.727832 0.0937272 0.11455
C_ C_ 0.227453 0.680838 0.407976 0.68181
C_ C_ 0.284169 0.68194 0.403275 -0.05681
C_ C_ 0.317758 0.693038 0.424195 -0.08735
C_ C_ 0.371574 0.690353 0.419126 -0.05681
C_ C_ 0.390026 0.684886 0.390861 -0.05681
C_ C_ 0.354825 0.678315 0.369495 -0.08735
C_ C_ 0.302174 0.679242 0.375123 -0.08735
C_ C_ 0.406427 0.697075 0.442331 -0.08735
C_ C_ 0.458625 0.699272 0.435846 -0.08735
C_ C_ 0.476684 0.686845 0.40913 -0.05681
C_ C_ 0.442585 0.685745 0.385427 -0.08735
C_ C_ 0.122077 0.77729 0.417347 0.68181
C_ C_ 0.130834 0.579874 0.405443 0.68181
C_ C_ 0.139237 0.524082 0.402817 -0.05681
C_ C_ 0.142575 0.992732 0.424493 -0.08735
C_ C_ 0.132624 0.940093 0.422331 -0.05681
C_ C_ 0.134472 0.916225 0.395422 -0.05681
C_ C_ 0.140299 0.944435 0.37076 -0.08735
C_ C_ 0.148103 0.998226 0.372861 -0.08735
C_ C_ 0.135283 0.910286 0.44788 -0.08735
C_ C_ 0.129069 0.857277 0.445334 -0.08735
C_ C_ 0.122926 0.8335 0.419049 -0.05681
C_ C_ 0.126585 0.86327 0.394184 -0.08735
C_ C_ 0.0301152 0.684948 0.411754 0.68181
C_ C_ 0.105021 0.62883 0.486515 0.1947
C_ C_ 0.0964522 0.605778 0.00967528 -0.08735
C_ C_ 0.119127 0.629135 0.0332374 -0.08735
C_ C_ 0.141385 0.676062 0.0301786 -0.05681
C_ C_ 0.149484 0.692289 1.00120211 0.18498
C_ C_ 0.184702 0.737685 0.497579 -0.08735
C_ C_ 0.197434 0.762366 0.0210627 -0.08735
C_ C_ 0.187258 0.74899 0.048235 -0.08735
C_ C_ 0.158548 0.705685 0.0534331 0.18498
C_ C_ 0.186001 0.678656 0.10119 0.44287
C_ C_ 0.0999857 0.701471 0.0946207 0.44287
C_ C_ 0.0868903 0.691737 0.124125 -0.05681
C_ C_ 0.0380427 0.692331 0.134104 -0.08735
C_ C_ 0.0274523 0.68918 0.164554 -0.08735
C_ C_ 0.0689624 0.684879 0.18394 -0.05681
C_ C_ 0.1169 0.672952 0.172859 -0.05681
C_ C_ 0.125697 0.681035 0.142876 -0.05681
C_ C_ 0.176387 0.673301 0.13148 -0.05681
C_ C_ 0.216747 0.661771 0.150221 -0.08735
C_ C_ 0.208596 0.655129 0.179513 -0.08735
C_ C_ 0.157866 0.660556 0.191571 -0.05681
C_ C_ 0.148915 0.663188 0.221323 0.44287
C_ C_ 0.0615621 0.681842 0.215561 0.44287
C_ C_ 0.0933617 0.657997 0.26303 0.18498
C_ C_ 0.0620408 0.61678 0.268557 -0.08735
C_ C_ 0.0527137 0.600339 0.295711 -0.08735
C_ C_ 0.0717258 0.627573 0.319259 -0.08735
C_ C_ 0.0988105 0.673524 0.31588 0.18498
C_ C_ 0.111942 0.687107 0.286922 -0.05681
C_ C_ 0.146233 0.728744 0.281644 -0.08735
C_ C_ 0.169872 0.749404 0.305271 -0.08735
C_ C_ 0.158433 0.73504 0.33337 0.1947
C_ C_ 0.259363 0.8071 0.155496 0.68181
C_ C_ 0.202226 0.812884 0.151655 -0.05681
C_ C_ 0.169074 0.809975 0.175449 -0.08735
C_ C_ 0.11679 0.816041 0.172108 -0.05681
C_ C_ 0.0961447 0.819681 0.143609 -0.05681
C_ C_ 0.129083 0.824681 0.120751 -0.08735
C_ C_ 0.180289 0.815424 0.12433 -0.08735
C_ C_ 0.0856523 0.816077 0.196003 -0.08735
C_ C_ 0.0330784 0.817616 0.191739 -0.08735
C_ C_ 0.00900508 0.821118 0.164239 -0.05681
C_ C_ 0.0419327 0.819731 0.140259 -0.08735
C_ C_ 0.35434 0.711846 0.161835 0.68181
C_ C_ 0.357194 0.911742 0.148435 0.68181
C_ C_ 0.36326 0.965405 0.145609 -0.05681
C_ C_ 0.351495 0.492343 0.170706 -0.08735
C_ C_ 0.353806 0.545612 0.169249 -0.05681
C_ C_ 0.366854 0.569351 0.142255 -0.05681
C_ C_ 0.366948 0.540039 0.117908 -0.08735
C_ C_ 0.348262 -0.012912000000000035 0.121081 -0.08735
C_ C_ 0.343385 0.575882 0.193858 -0.08735
C_ C_ 0.347753 0.628847 0.192271 -0.08735
C_ C_ 0.357296 0.653353 0.165345 -0.05681
C_ C_ 0.368411 0.622792 0.14136 -0.08735
C_ C_ 0.456129 0.81346 0.154302 0.68181
C_ C_ 0.394209 0.873467 0.230648 0.1947
C_ C_ 0.402848 0.890224 0.258632 -0.08735
C_ C_ 0.383079 0.864682 0.282378 -0.08735
C_ C_ 0.353995 0.821103 0.278024 -0.05681
C_ C_ 0.340582 0.809317 0.249051 0.18498
C_ C_ 0.309132 0.767978 0.244054 -0.08735
C_ C_ 0.296083 0.734485 0.267762 -0.08735
C_ C_ 0.313669 0.745545 0.295268 -0.08735
C_ C_ 0.343088 0.787455 0.300959 0.18498
C_ C_ 0.309977 0.814261 0.348509 0.44287
C_ C_ 0.396212 0.798794 0.342738 0.44287
C_ C_ 0.406334 0.808081 0.371684 -0.05681
C_ C_ 0.454988 0.806991 0.383864 -0.08735
C_ C_ 0.462829 0.815991 0.413747 -0.08735
C_ C_ 0.419964 0.823279 0.432084 -0.05681
C_ C_ 0.371755 0.822115 0.419733 -0.05681
C_ C_ 0.364342 0.815094 0.389471 -0.05681
C_ C_ 0.315823 0.819376 0.378166 -0.05681
C_ C_ 0.274783 0.831781 0.396914 -0.08735
C_ C_ 0.284585 0.845292 0.425074 -0.08735
C_ C_ 0.332194 0.833906 0.437498 -0.05681
C_ C_ 0.337366 0.841445 0.467594 0.44287
C_ C_ 0.424681 0.829133 0.462649 0.44287
C_ C_ 0.394763 0.833117 0.00907484 0.18498
C_ C_ 0.41262 0.880304 0.0156938 -0.08735
C_ C_ 0.426577 0.893544 0.0432993 -0.08735
C_ C_ 0.409648 0.864025 0.0661767 -0.08735
C_ C_ 0.383847 0.817746 0.0610763 0.18498
C_ C_ 0.376601 0.803537 0.0321085 -0.05681
C_ C_ 0.350704 0.757827 0.0269252 -0.08735
C_ C_ 0.330469 0.731165 0.0495337 -0.08735
C_ C_ 0.330322 0.750491 0.0772268 0.1947
N_ N_ 0.138161 0.666911 0.481239 -0.29468
N_ N_ 0.147145 0.69179 0.0831523 -0.17154
N_ N_ 0.102287 0.672012 0.232984 -0.17154
N_ N_ 0.126831 0.695609 0.338113 -0.29468
N_ N_ 0.361509 0.834096 0.225759 -0.29468
N_ N_ 0.350167 0.804462 0.330833 -0.17154
N_ N_ 0.383982 0.840278 0.479315 -0.17154
N_ N_ 0.3599 0.792248 0.0832713 -0.29468
O_ O_ 0.210275 0.688008 0.43302 -0.58347
O_ O_ 0.197411 0.675532 0.387003 -0.58347
O_ O_ 0.125986 0.749796 0.440025 -0.58347
O_ O_ 0.129438 0.75673 0.392802 -0.58347
O_ O_ 0.146289 0.603057 0.427643 -0.58347
O_ O_ 0.118218 0.604896 0.382988 -0.58347
O_ O_ 0.0577074 0.670879 0.431647 -0.58347
O_ O_ 0.0471397 0.694131 0.386918 -0.58347
O_ O_ 0.0621534 0.712059 0.0775974 -0.46727
O_ O_ 0.232094 0.678444 0.0903488 -0.46727
O_ O_ 0.018319 0.691397 0.227285 -0.46727
O_ O_ 0.187523 0.66006 0.2389 -0.46727
O_ O_ 0.276522 0.820408 0.179105 -0.58347
O_ O_ 0.28724 0.801093 0.133629 -0.58347
O_ O_ 0.341113 0.738364 0.182267 -0.58347
O_ O_ 0.364167 0.733572 0.138114 -0.58347
O_ O_ 0.346501 0.890664 0.172248 -0.58347
O_ O_ 0.363717 0.88416 0.126822 -0.58347
O_ O_ 0.42782 0.811866 0.175416 -0.58347
O_ O_ 0.436659 0.808998 0.128332 -0.58347
O_ O_ 0.434774 0.783792 0.326314 -0.46727
O_ O_ 0.265874 0.81505 0.337263 -0.46727
O_ O_ 0.469787 0.824346 0.473847 -0.46727
O_ O_ 0.296797 0.84831 0.485343 -0.46727
Zn Zn 0.128333 0.687565 0.884421 0.90689
Zn Zn 0.138305 0.679124 0.933243 0.90689
Zn Zn 0.378899 0.809878 0.632091 0.90689
Zn Zn 0.369746 0.819651 0.679439 0.90689
H_ H_ 0.306373 0.702797 0.945482 0.11455
H_ H_ 0.373492 0.656881 0.850444 0.11455
H_ H_ 0.278988 0.656819 0.857728 0.11455
H_ H_ 0.388924 0.67678 0.964877 0.11455
H_ H_ 0.481903 0.674632 0.959442 0.11455
H_ H_ 0.458355 0.675063 0.867279 0.11455
H_ H_ 0.170559 0.516044 0.943406 0.11455
H_ H_ 0.104174 0.93802 0.849681 0.11455
H_ H_ 0.15251 0.533874 0.852492 0.11455
H_ H_ 0.168039 0.934593 0.961954 0.11455
H_ H_ 0.143277 0.840506 0.96176 0.11455
H_ H_ 0.108927 0.852949 0.87144 0.11455
H_ H_ 0.0732703 0.612884 0.964573 0.11455
H_ H_ 0.0756117 0.579116 0.519335 0.11455
H_ H_ 0.121893 0.621017 0.558274 0.11455
H_ H_ 0.190776 0.748578 0.975614 0.11455
H_ H_ 0.22466 0.802354 0.514302 0.11455
H_ H_ 0.213663 0.775366 0.563051 0.11455
H_ H_ 1.0225707 0.690342 0.62265 0.11455
H_ H_ 1.0074999 0.692591 0.677455 0.11455
H_ H_ 0.278986 0.676289 0.643562 0.11455
H_ H_ 0.256963 0.654656 0.694159 0.11455
H_ H_ 0.0846666 0.575667 0.753767 0.11455
H_ H_ 0.0579935 0.561943 0.80455 0.11455
H_ H_ 0.0792555 0.62166 0.841587 0.11455
H_ H_ 0.149823 0.74615 0.759408 0.11455
H_ H_ 0.177538 0.800996 0.798848 0.11455
H_ H_ 0.17796 0.765989 0.847923 0.11455
H_ H_ 0.207192 0.790721 0.691642 0.11455
H_ H_ 0.138649 0.851633 0.600538 0.11455
H_ H_ 0.225604 0.84942 0.606226 0.11455
H_ H_ 0.115044 0.805565 0.712542 0.11455
H_ H_ 0.0250896 0.817076 0.704627 0.11455
H_ H_ 0.0513537 0.834423 0.614566 0.11455
H_ H_ 0.355505 0.981251 0.690625 0.11455
H_ H_ 0.390779 0.564269 0.594965 0.11455
H_ H_ 0.359714 0.973764 0.599169 0.11455
H_ H_ 0.353938 0.569975 0.710154 0.11455
H_ H_ 0.374164 0.660093 0.709029 0.11455
H_ H_ 0.381846 0.647344 0.616867 0.11455
H_ H_ 0.420648 0.89592 0.715535 0.11455
H_ H_ 0.424588 0.928301 0.763971 0.11455
H_ H_ 0.381606 0.884264 0.803662 0.11455
H_ H_ 0.318853 0.748887 0.720288 0.11455
H_ H_ 0.297775 0.690252 0.75986 0.11455
H_ H_ 0.320871 0.710396 0.809934 0.11455
H_ H_ 0.495713 0.802871 0.869923 0.11455
H_ H_ 0.503547 0.804593 0.921756 0.11455
H_ H_ 0.237575 0.82916 0.88699 0.11455
H_ H_ 0.24929 0.830866 0.938298 0.11455
H_ H_ 0.420403 0.908906 0.998254 0.11455
H_ H_ 0.462774 0.938345 0.546212 0.11455
H_ H_ 0.439241 0.888144 0.585798 0.11455
H_ H_ 0.342714 0.766092 0.505946 0.11455
H_ H_ 0.321992 0.711502 0.548375 0.11455
H_ H_ 0.336176 0.735968 0.596087 0.11455
C_ C_ 0.231004 0.694675 0.905424 0.68181
C_ C_ 0.286983 0.689833 0.90119 -0.05681
C_ C_ 0.320931 0.691658 0.924254 -0.08735
C_ C_ 0.373181 0.685453 0.919758 -0.05681
C_ C_ 0.391674 0.67809 0.893387 -0.05681
C_ C_ 0.357112 0.667728 0.870372 -0.08735
C_ C_ 0.305722 0.677261 0.872789 -0.08735
C_ C_ 0.405503 0.682406 0.944389 -0.08735
C_ C_ 0.457851 0.680063 0.941315 -0.08735
C_ C_ 0.478741 0.680017 0.912772 -0.05681
C_ C_ 0.443782 0.67598 0.889275 -0.08735
C_ C_ 0.123777 0.782077 0.912489 0.68181
C_ C_ 0.146415 0.587054 0.903093 0.68181
C_ C_ 0.154047 0.53311 0.898973 -0.05681
C_ C_ 0.137881 0.999836347 0.922542 -0.08735
C_ C_ 0.139049 0.94763 0.919417 -0.05681
C_ C_ 0.123393 0.925224 0.893343 -0.05681
C_ C_ 0.111031 0.956141 0.869369 -0.08735
C_ C_ 0.114269 0.00937216 0.871767 -0.08735
C_ C_ 0.15197 0.916756 0.942683 -0.08735
C_ C_ 0.140204 0.863461 0.941754 -0.08735
C_ C_ 0.126374 0.840533 0.915157 -0.05681
C_ C_ 0.113064 0.872007 0.892073 -0.08735
C_ C_ 0.0327335 0.679282 0.910977 0.68181
C_ C_ 0.097109 0.629872 0.983247 0.1947
C_ C_ 0.10005 0.61037 0.514232 -0.08735
C_ C_ 0.123644 0.63553 0.536676 -0.08735
C_ C_ 0.147207 0.680739 0.533097 -0.05681
C_ C_ 0.157178 0.695106 0.504006 0.18498
C_ C_ 0.184233 0.732139 0.997095 -0.08735
C_ C_ 0.205057 0.769511 0.518695 -0.08735
C_ C_ 0.194395 0.755584 0.54719 -0.08735
C_ C_ 0.168582 0.711172 0.555012 0.18498
C_ C_ 0.202489 0.686535 0.602581 0.44287
C_ C_ 0.114833 0.699043 0.595135 0.44287
C_ C_ 0.105084 0.688268 0.624351 -0.05681
C_ C_ 0.0546865 0.690413 0.637201 -0.08735
C_ C_ 0.0463429 0.687253 0.667808 -0.08735
C_ C_ 0.0891402 0.679281 0.686534 -0.05681
C_ C_ 0.138178 0.672872 0.672874 -0.05681
C_ C_ 0.146598 0.677857 0.642976 -0.05681
C_ C_ 0.193715 0.679559 0.631689 -0.05681
C_ C_ 0.235889 0.674434 0.650912 -0.08735
C_ C_ 0.227246 0.667399 0.680269 -0.08735
C_ C_ 0.180293 0.666951 0.691889 -0.05681
C_ C_ 0.171719 0.666062 0.722001 0.44287
C_ C_ 0.0822943 0.674855 0.716486 0.44287
C_ C_ 0.117908 0.650256 0.762812 0.18498
C_ C_ 0.0928868 0.605137 0.769543 -0.08735
C_ C_ 0.0824794 0.592795 0.79864 -0.08735
C_ C_ 0.0967883 0.625178 0.820943 -0.08735
C_ C_ 0.12034 0.671398 0.814142 0.18498
C_ C_ 0.130421 0.684627 0.786024 -0.05681
C_ C_ 0.148682 0.734256 0.781117 -0.08735
C_ C_ 0.169738 0.761299 0.803454 -0.08735
C_ C_ 0.156395 0.747841 0.831219 0.1947
C_ C_ 0.276087 0.808596 0.651801 0.68181
C_ C_ 0.220554 0.816768 0.649418 -0.05681
C_ C_ 0.188611 0.802548 0.672445 -0.08735
C_ C_ 0.134633 0.80616 0.668243 -0.05681
C_ C_ 0.115864 0.819084 0.640934 -0.05681
C_ C_ 0.150405 0.837935 0.620826 -0.08735
C_ C_ 0.201328 0.836187 0.6237 -0.08735
C_ C_ 0.101024 0.806896 0.690668 -0.08735
C_ C_ 0.0500366 0.811376 0.686498 -0.08735
C_ C_ 0.0291227 0.815587 0.658828 -0.05681
C_ C_ 0.0631688 0.818868 0.63489 -0.08735
C_ C_ 0.390303 0.716851 0.659676 0.68181
C_ C_ 0.367406 0.912837 0.650199 0.68181
C_ C_ 0.362856 0.969394 0.645746 -0.05681
C_ C_ 0.362019 0.504319 0.670024 -0.08735
C_ C_ 0.365626 0.556786 0.666369 -0.05681
C_ C_ 0.374676 0.577349 0.640137 -0.05681
C_ C_ 0.376921 0.546825 0.614537 -0.08735
C_ C_ 0.366695 0.993721 0.619036 -0.08735
C_ C_ 0.362824 0.586924 0.690345 -0.08735
C_ C_ 0.370545 0.638683 0.689101 -0.08735
C_ C_ 0.378152 0.662222 0.662443 -0.05681
C_ C_ 0.376044 0.62916 0.637441 -0.08735
C_ C_ 0.472648 0.818615 0.661043 0.68181
C_ C_ 0.401633 0.875221 0.732953 0.1947
C_ C_ 0.410945 0.892035 0.761327 -0.08735
C_ C_ 0.385079 0.866452 0.783745 -0.08735
C_ C_ 0.361926 0.818993 0.777786 -0.05681
C_ C_ 0.354095 0.803518 0.748338 0.18498
C_ C_ 0.326504 0.760544 0.741971 -0.08735
C_ C_ 0.314101 0.726145 0.764085 -0.08735
C_ C_ 0.326499 0.737876 0.792844 -0.08735
C_ C_ 0.349708 0.784804 0.800029 0.18498
C_ C_ 0.313329 0.805089 0.846276 0.44287
C_ C_ 0.402719 0.79657 0.841116 0.44287
C_ C_ 0.411381 0.806433 0.870505 -0.05681
C_ C_ 0.459867 0.806156 0.883824 -0.08735
C_ C_ 0.466042 0.808157 0.913041 -0.08735
C_ C_ 0.421831 0.81018 0.931138 -0.05681
C_ C_ 0.374387 0.815242 0.918505 -0.05681
C_ C_ 0.369559 0.810725 0.888805 -0.05681
C_ C_ 0.318634 0.811544 0.876418 -0.05681
C_ C_ 0.27541 0.817335 0.894175 -0.08735
C_ C_ 0.282416 0.827503 0.923559 -0.08735
C_ C_ 0.331605 0.824593 0.935996 -0.05681
C_ C_ 0.34002 0.8275 0.966239 0.44287
C_ C_ 0.426856 0.806881 0.961575 0.44287
C_ C_ 0.391154 0.855665 0.509007 0.18498
C_ C_ 0.421134 0.898158 0.515328 -0.08735
C_ C_ 0.434819 0.911045 0.543538 -0.08735
C_ C_ 0.421622 0.87867 0.56628 -0.08735
C_ C_ 0.389268 0.838402 0.562256 0.18498
C_ C_ 0.37791 0.823833 0.532886 -0.05681
C_ C_ 0.352024 0.77824 0.527827 -0.08735
C_ C_ 0.339282 0.747387 0.550752 -0.08735
C_ C_ 0.350301 0.76215 0.578536 0.1947
N_ N_ 0.132709 0.665451 0.978078 -0.29468
N_ N_ 0.162762 0.698787 0.584888 -0.17154
N_ N_ 0.123618 0.663419 0.733215 -0.17154
N_ N_ 0.135804 0.70043 0.836251 -0.29468
N_ N_ 0.371835 0.834204 0.726722 -0.29468
N_ N_ 0.356065 0.797969 0.829177 -0.17154
N_ N_ 0.388662 0.820736 0.978742 -0.17154
N_ N_ 0.374599 0.805888 0.584202 -0.29468
O_ O_ 0.210922 0.68265 0.929888 -0.58347
O_ O_ 0.202336 0.692223 0.883691 -0.58347
O_ O_ 0.133936 0.754775 0.934039 -0.58347
O_ O_ 0.125429 0.762378 0.888019 -0.58347
O_ O_ 0.143406 0.60467 0.928896 -0.58347
O_ O_ 0.134748 0.614474 0.881745 -0.58347
O_ O_ 0.0621645 0.676532 0.932062 -0.58347
O_ O_ 0.0512348 0.682266 0.885352 -0.58347
O_ O_ 0.0766276 0.708589 0.579126 -0.46727
O_ O_ 0.249717 0.68356 0.591568 -0.46727
O_ O_ 0.0369111 0.681769 0.728424 -0.46727
O_ O_ 0.211481 0.66435 0.739356 -0.46727
O_ O_ 0.296869 0.801877 0.676681 -0.58347
O_ O_ 0.302962 0.806315 0.629182 -0.58347
O_ O_ 0.391987 0.745171 0.681844 -0.58347
O_ O_ 0.385843 0.737159 0.635908 -0.58347
O_ O_ 0.361383 0.892587 0.674194 -0.58347
O_ O_ 0.37583 0.884312 0.629203 -0.58347
O_ O_ 0.443059 0.828984 0.681689 -0.58347
O_ O_ 0.45305 0.811941 0.636207 -0.58347
O_ O_ 0.442281 0.786671 0.824144 -0.46727
O_ O_ 0.267521 0.813232 0.834779 -0.46727
O_ O_ 0.469957 0.793304 0.972869 -0.46727
O_ O_ 0.299109 0.834395 0.983213 -0.46727
Zn Zn 0.63436 0.191065 0.383115 0.90689
Zn Zn 0.639606 0.18357 0.430499 0.90689
Zn Zn 0.877209 0.317348 0.130676 0.90689
Zn Zn 0.862151 0.319787 0.17915 0.90689
H_ H_ 0.809395 0.196429 0.446633 0.11455
H_ H_ 0.878556 0.171557 0.347502 0.11455
H_ H_ 0.781132 0.167877 0.356228 0.11455
H_ H_ 0.896827 0.186461 0.463729 0.11455
H_ H_ 0.984209 0.174237 0.457457 0.11455
H_ H_ 0.960581 0.160686 0.365466 0.11455
H_ H_ 0.609517 0.0202641 0.443725 0.11455
H_ H_ 0.646296 0.443473 0.347074 0.11455
H_ H_ 0.652688 0.0270553 0.355505 0.11455
H_ H_ 0.635064 0.427161 0.467397 0.11455
H_ H_ 0.63573 0.338133 0.459308 0.11455
H_ H_ 0.651979 0.357681 0.368786 0.11455
H_ H_ 0.584145 0.107671 0.46715 0.11455
H_ H_ 0.577034 0.0667385 0.0146586 0.11455
H_ H_ 0.625055 0.108042 0.0542714 0.11455
H_ H_ 0.707761 0.243809 0.473278 0.11455
H_ H_ 0.72476 0.293635 0.012689 0.11455
H_ H_ 0.705947 0.269814 0.0622424 0.11455
H_ H_ 0.513585 0.196622 0.123581 0.11455
H_ H_ 0.498358 0.176947 0.172784 0.11455
H_ H_ 0.76216 0.197396 0.146676 0.11455
H_ H_ 0.750009 0.185563 0.19757 0.11455
H_ H_ 0.55141 0.0913987 0.252181 0.11455
H_ H_ 0.529579 0.072888 0.303994 0.11455
H_ H_ 0.572059 0.120266 0.341544 0.11455
H_ H_ 0.634577 0.252597 0.259075 0.11455
H_ H_ 0.681133 0.296358 0.29679 0.11455
H_ H_ 0.680533 0.258626 0.347023 0.11455
H_ H_ 0.69284 0.294656 0.189263 0.11455
H_ H_ 0.627252 0.333046 0.0920324 0.11455
H_ H_ 0.721562 0.335654 0.101753 0.11455
H_ H_ 0.605728 0.283432 0.205789 0.11455
H_ H_ 0.514451 0.290316 0.197654 0.11455
H_ H_ 0.535717 0.33473 0.1102 0.11455
H_ H_ 0.854273 0.486946 0.191759 0.11455
H_ H_ 0.850403 0.0622567 0.0958403 0.11455
H_ H_ 0.873349 0.482099 0.100392 0.11455
H_ H_ 0.840366 0.0750239 0.213291 0.11455
H_ H_ 0.855906 0.163654 0.208984 0.11455
H_ H_ 0.861584 0.152311 0.116223 0.11455
H_ H_ 0.89962 0.397211 0.214557 0.11455
H_ H_ 0.922551 0.427372 0.263289 0.11455
H_ H_ 0.904498 0.371551 0.305554 0.11455
H_ H_ 0.803671 0.250711 0.2251 0.11455
H_ H_ 0.780872 0.19945 0.266194 0.11455
H_ H_ 0.799924 0.227171 0.315531 0.11455
H_ H_ 0.982274 0.27098 0.375252 0.11455
H_ H_ -0.008299999999999974 0.285865 0.427684 0.11455
H_ H_ 0.744668 0.352092 0.386886 0.11455
H_ H_ 0.751352 0.357378 0.435758 0.11455
H_ H_ 0.927586 0.412294 0.498214 0.11455
H_ H_ 0.958752 0.439556 0.0534188 0.11455
H_ H_ 0.93862 0.37548 0.0899841 0.11455
H_ H_ 0.843649 0.260631 0.00412273 0.11455
H_ H_ 0.805705 0.212258 0.0467308 0.11455
H_ H_ 0.810238 0.25028 0.0962957 0.11455
C_ C_ 0.734527 0.193264 0.406887 0.68181
C_ C_ 0.78889 0.185209 0.403355 -0.05681
C_ C_ 0.82335 0.182307 0.426765 -0.08735
C_ C_ 0.875807 0.172693 0.421547 -0.05681
C_ C_ 0.893344 0.167749 0.393263 -0.05681
C_ C_ 0.8607 0.168653 0.370024 -0.08735
C_ C_ 0.808697 0.171294 0.375394 -0.08735
C_ C_ 0.911222 0.181923 0.442806 -0.08735
C_ C_ 0.96193 0.167412 0.438347 -0.08735
C_ C_ 0.981304 0.167511 0.410218 -0.05681
C_ C_ 0.947835 0.163791 0.387451 -0.08735
C_ C_ 0.641627 0.286442 0.410351 0.68181
C_ C_ 0.634699 0.0898344 0.401858 0.68181
C_ C_ 0.635227 0.0313621 0.401268 -0.05681
C_ C_ 0.625172 0.499902 0.424075 -0.08735
C_ C_ 0.629904 0.447278 0.420317 -0.05681
C_ C_ 0.635179 0.426085 0.39217 -0.05681
C_ C_ 0.635973 0.457331 0.368004 -0.08735
C_ C_ 0.630096 0.509811 0.372911 -0.08735
C_ C_ 0.630502 0.415022 0.444986 -0.08735
C_ C_ 0.632803 0.362048 0.440758 -0.08735
C_ C_ 0.640217 0.341361 0.413275 -0.05681
C_ C_ 0.640491 0.373883 0.389761 -0.08735
C_ C_ 0.537122 0.187836 0.406124 0.68181
C_ C_ 0.600004 0.130659 0.484456 0.1947
C_ C_ 0.596354 0.102843 0.0105227 -0.08735
C_ C_ 0.61755 0.127133 0.033335 -0.08735
C_ C_ 0.64449 0.172338 0.0292223 -0.05681
C_ C_ 0.651752 0.188924 0.999525488 0.18498
C_ C_ 0.695986 0.233045 0.494499 -0.08735
C_ C_ 0.69359 0.265694 0.0168695 -0.08735
C_ C_ 0.691102 0.246537 0.0448202 -0.08735
C_ C_ 0.662387 0.20376 0.0528674 0.18498
C_ C_ 0.694199 0.189431 0.103237 0.44287
C_ C_ 0.605402 0.19446 0.0944182 0.44287
C_ C_ 0.597215 0.187158 0.124406 -0.05681
C_ C_ 0.547753 0.19061 0.136502 -0.08735
C_ C_ 0.537969 0.177006 0.164984 -0.08735
C_ C_ 0.57704 0.17034 0.183883 -0.05681
C_ C_ 0.626473 0.175633 0.173019 -0.05681
C_ C_ 0.636017 0.178581 0.143156 -0.05681
C_ C_ 0.686446 0.182504 0.133246 -0.05681
C_ C_ 0.727206 0.180973 0.152344 -0.08735
C_ C_ 0.716938 0.178333 0.182665 -0.08735
C_ C_ 0.666405 0.17191 0.192336 -0.05681
C_ C_ 0.655654 0.165416 0.221539 0.44287
C_ C_ 0.569827 0.172036 0.213763 0.44287
C_ C_ 0.597095 0.15525 0.262332 0.18498
C_ C_ 0.565767 0.116661 0.268966 -0.08735
C_ C_ 0.558667 0.101994 0.298118 -0.08735
C_ C_ 0.582273 0.129148 0.319824 -0.08735
C_ C_ 0.61024 0.171047 0.314119 0.18498
C_ C_ 0.61546 0.187363 0.285419 -0.05681
C_ C_ 0.633958 0.235342 0.280234 -0.08735
C_ C_ 0.65856 0.26246 0.301669 -0.08735
C_ C_ 0.663201 0.239301 0.329751 0.1947
C_ C_ 0.768246 0.314714 0.152658 0.68181
C_ C_ 0.71361 0.318558 0.146357 -0.05681
C_ C_ 0.678 0.312044 0.168476 -0.08735
C_ C_ 0.626452 0.306932 0.162419 -0.05681
C_ C_ 0.607373 0.317303 0.134768 -0.05681
C_ C_ 0.64125 0.328672 0.112685 -0.08735
C_ C_ 0.695182 0.324845 0.118278 -0.08735
C_ C_ 0.592935 0.299922 0.185756 -0.08735
C_ C_ 0.54101 0.299534 0.180961 -0.08735
C_ C_ 0.520185 0.313378 0.154139 -0.05681
C_ C_ 0.553193 0.32387 0.130723 -0.08735
C_ C_ 0.869409 0.220162 0.160202 0.68181
C_ C_ 0.864251 0.418776 0.147632 0.68181
C_ C_ 0.862016 0.476312 0.146322 -0.05681
C_ C_ 0.846184 0.00405783 0.171353 -0.08735
C_ C_ 0.853286 0.0575783 0.168609 -0.05681
C_ C_ 0.854389 0.0804751 0.140662 -0.05681
C_ C_ 0.84987 0.046647 0.11737 -0.08735
C_ C_ 0.874288 0.501351 0.121581 -0.08735
C_ C_ 0.845977 0.0911629 0.192246 -0.08735
C_ C_ 0.858592 0.141377 0.189697 -0.08735
C_ C_ 0.859983 0.165388 0.162992 -0.05681
C_ C_ 0.856838 0.135144 0.138054 -0.08735
C_ C_ 0.969183 0.321786 0.157063 0.68181
C_ C_ 0.892551 0.374143 0.233213 0.1947
C_ C_ 0.900185 0.393024 0.260378 -0.08735
C_ C_ 0.888753 0.362653 0.284204 -0.08735
C_ C_ 0.860535 0.318452 0.279778 -0.05681
C_ C_ 0.85198 0.301164 0.251434 0.18498
C_ C_ 0.819316 0.260162 0.246642 -0.08735
C_ C_ 0.802771 0.232347 0.270148 -0.08735
C_ C_ 0.817135 0.244446 0.297932 -0.08735
C_ C_ 0.843446 0.290385 0.302905 0.18498
C_ C_ 0.814329 0.328031 0.34876 0.44287
C_ C_ 0.897047 0.294041 0.345155 0.44287
C_ C_ 0.904792 0.301018 0.374154 -0.05681
C_ C_ 0.94952 0.284919 0.387217 -0.08735
C_ C_ 0.955171 0.290226 0.417253 -0.08735
C_ C_ 0.918807 0.313928 0.433641 -0.05681
C_ C_ 0.873358 0.326669 0.420741 -0.05681
C_ C_ 0.866762 0.321842 0.390923 -0.05681
C_ C_ 0.820347 0.332838 0.378129 -0.05681
C_ C_ 0.780134 0.346832 0.39544 -0.08735
C_ C_ 0.785266 0.351542 0.423589 -0.08735
C_ C_ 0.830134 0.340457 0.437383 -0.05681
C_ C_ 0.83729 0.347011 0.467329 0.44287
C_ C_ 0.920617 0.312317 0.46422 0.44287
C_ C_ 0.89472 0.350891 0.0109248 0.18498
C_ C_ 0.917973 0.397485 0.0182843 -0.08735
C_ C_ 0.935413 0.405897 0.0473631 -0.08735
C_ C_ 0.922095 0.370236 0.0681018 -0.08735
C_ C_ 0.886265 0.33274 0.0619694 0.18498
C_ C_ 0.877557 0.318392 0.032656 -0.05681
C_ C_ 0.848341 0.274901 0.0265213 -0.08735
C_ C_ 0.821613 0.249742 0.0499493 -0.08735
C_ C_ 0.827462 0.270712 0.0783071 0.1947
N_ N_ 0.635007 0.167829 0.478379 -0.29468
N_ N_ 0.653745 0.191137 0.0835856 -0.17154
N_ N_ 0.608101 0.168074 0.23214 -0.17154
N_ N_ 0.634478 0.19748 0.335721 -0.29468
N_ N_ 0.871289 0.32911 0.228605 -0.29468
N_ N_ 0.851985 0.303658 0.332745 -0.17154
N_ N_ 0.881403 0.330713 0.481122 -0.17154
N_ N_ 0.866023 0.30533 0.083577 -0.29468
O_ O_ 0.713031 0.178872 0.430422 -0.58347
O_ O_ 0.707188 0.201197 0.38457 -0.58347
O_ O_ 0.652333 0.258429 0.431749 -0.58347
O_ O_ 0.624706 0.26474 0.387998 -0.58347
O_ O_ 0.634889 0.111628 0.424885 -0.58347
O_ O_ 0.643147 0.115797 0.379368 -0.58347
O_ O_ 0.56612 0.194185 0.427786 -0.58347
O_ O_ 0.556745 0.180158 0.381772 -0.58347
O_ O_ 0.566435 0.205374 0.0777849 -0.46727
O_ O_ 0.740389 0.182719 0.0939635 -0.46727
O_ O_ 0.528108 0.189868 0.2233 -0.46727
O_ O_ 0.694042 0.164617 0.239866 -0.46727
O_ O_ 0.783801 0.307169 0.177961 -0.58347
O_ O_ 0.799567 0.320601 0.132906 -0.58347
O_ O_ 0.870828 0.247249 0.183557 -0.58347
O_ O_ 0.874943 0.241767 0.135555 -0.58347
O_ O_ 0.854747 0.394955 0.170876 -0.58347
O_ O_ 0.874847 0.393553 0.125871 -0.58347
O_ O_ 0.939094 0.330045 0.176592 -0.58347
O_ O_ 0.953536 0.315506 0.131252 -0.58347
O_ O_ 0.935097 0.28076 0.328461 -0.46727
O_ O_ 0.770515 0.336741 0.336309 -0.46727
O_ O_ 0.960593 0.29191 0.476942 -0.46727
O_ O_ 0.798435 0.364034 0.483272 -0.46727
Zn Zn 0.625891 0.187587 0.881498 0.90689
Zn Zn 0.63336 0.179179 0.929316 0.90689
Zn Zn 0.879384 0.314279 0.63173 0.90689
Zn Zn 0.868089 0.324051 0.680589 0.90689
H_ H_ 0.802892 0.197103 0.945834 0.11455
H_ H_ 0.874925 0.183943 0.848086 0.11455
H_ H_ 0.780267 0.179187 0.855973 0.11455
H_ H_ 0.890108 0.173598 0.965361 0.11455
H_ H_ 0.984525 0.174703 0.959364 0.11455
H_ H_ 0.961777 0.195586 0.867832 0.11455
H_ H_ 0.671397 0.0118002 0.935823 0.11455
H_ H_ 0.61714 0.433397 0.850405 0.11455
H_ H_ 0.608957 0.0290367 0.852964 0.11455
H_ H_ 0.611499 0.42607 0.967766 0.11455
H_ H_ 0.605861 0.333305 0.961212 0.11455
H_ H_ 0.618671 0.352339 0.868685 0.11455
H_ H_ 0.586348 0.101355 0.965068 0.11455
H_ H_ 0.572135 0.0792807 0.516516 0.11455
H_ H_ 0.608306 0.127853 0.557138 0.11455
H_ H_ 0.685311 0.245579 0.97335 0.11455
H_ H_ 0.749663 0.288938 0.509294 0.11455
H_ H_ 0.720502 0.280439 0.558914 0.11455
H_ H_ 0.513362 0.20861 0.618098 0.11455
H_ H_ 0.495219 0.198481 0.666286 0.11455
H_ H_ 0.765866 0.186621 0.640261 0.11455
H_ H_ 0.74693 0.175453 0.692226 0.11455
H_ H_ 0.564149 0.0953815 0.748198 0.11455
H_ H_ 0.556342 0.0635858 0.797431 0.11455
H_ H_ 0.578909 0.114788 0.837935 0.11455
H_ H_ 0.642906 0.25848 0.758645 0.11455
H_ H_ 0.65086 0.311875 0.79847 0.11455
H_ H_ 0.65901 0.27761 0.848437 0.11455
H_ H_ 0.696253 0.30767 0.698441 0.11455
H_ H_ 0.632891 0.354022 0.601409 0.11455
H_ H_ 0.720132 0.330415 0.607637 0.11455
H_ H_ 0.61258 0.320933 0.715416 0.11455
H_ H_ 0.522547 0.307551 0.70711 0.11455
H_ H_ 0.549491 0.337149 0.619238 0.11455
H_ H_ 0.87904 0.493259 0.693606 0.11455
H_ H_ 0.888197 0.0704192 0.601453 0.11455
H_ H_ 0.852884 0.475598 0.601972 0.11455
H_ H_ 0.862404 0.0766075 0.718883 0.11455
H_ H_ 0.877659 0.169952 0.714591 0.11455
H_ H_ 0.886751 0.153451 0.624335 0.11455
H_ H_ 0.918003 0.392897 0.718696 0.11455
H_ H_ 0.916771 0.427618 0.768397 0.11455
H_ H_ 0.880371 0.383861 0.806529 0.11455
H_ H_ 0.79327 0.26496 0.721444 0.11455
H_ H_ 0.751179 0.223627 0.759569 0.11455
H_ H_ 0.756928 0.249978 0.807707 0.11455
H_ H_ 0.970776 0.28798 0.869129 0.11455
H_ H_ -0.00684499999999999 0.313888 0.918563 0.11455
H_ H_ 0.723883 0.339946 0.895439 0.11455
H_ H_ 0.745168 0.354878 0.945292 0.11455
H_ H_ 0.930414 0.424849 1.00257 0.11455
H_ H_ 0.941727 0.442037 0.548618 0.11455
H_ H_ 0.929561 0.378993 0.588587 0.11455
H_ H_ 0.84297 0.251585 0.507413 0.11455
H_ H_ 0.830591 0.192857 0.550077 0.11455
H_ H_ 0.828764 0.233842 0.598614 0.11455
C_ C_ 0.72806 0.202712 0.906534 0.68181
C_ C_ 0.785266 0.198712 0.901158 -0.05681
C_ C_ 0.820694 0.195929 0.925259 -0.08735
C_ C_ 0.873409 0.191009 0.92148 -0.05681
C_ C_ 0.892479 0.185798 0.893361 -0.05681
C_ C_ 0.85858 0.184462 0.870048 -0.08735
C_ C_ 0.805827 0.187424 0.873532 -0.08735
C_ C_ 0.907699 0.185231 0.945139 -0.08735
C_ C_ 0.960939 0.183394 0.941428 -0.08735
C_ C_ 0.981861 0.182369 0.912156 -0.05681
C_ C_ 0.946866 0.187072 0.889183 -0.08735
C_ C_ 0.615903 0.278615 0.91393 0.68181
C_ C_ 0.635822 0.0853903 0.898057 0.68181
C_ C_ 0.637887 0.0281368 0.894529 -0.05681
C_ C_ 0.625573 0.494555 0.924229 -0.08735
C_ C_ 0.619793 0.44124 0.922919 -0.05681
C_ C_ 0.615354 0.419183 0.895269 -0.05681
C_ C_ 0.615906 0.45099 0.871313 -0.08735
C_ C_ 0.632258 0.502023 0.873048 -0.08735
C_ C_ 0.616708 0.411134 0.946602 -0.08735
C_ C_ 0.613343 0.358517 0.943008 -0.08735
C_ C_ 0.617737 0.336069 0.91598 -0.05681
C_ C_ 0.622151 0.367775 0.891418 -0.08735
C_ C_ 0.531853 0.167051 0.906751 0.68181
C_ C_ 0.605207 0.119383 0.982339 0.1947
C_ C_ 0.594148 0.114446 0.51235 -0.08735
C_ C_ 0.614129 0.142695 0.535084 -0.08735
C_ C_ 0.647388 0.183338 0.529737 -0.05681
C_ C_ 0.659386 0.193986 0.500174 0.18498
C_ C_ 0.675687 0.235565 0.994629 -0.08735
C_ C_ 0.718637 0.261642 0.51567 -0.08735
C_ C_ 0.702952 0.256247 0.54403 -0.08735
C_ C_ 0.666201 0.217946 0.551133 0.18498
C_ C_ 0.694652 0.193999 0.600201 0.44287
C_ C_ 0.606266 0.21222 0.59237 0.44287
C_ C_ 0.595464 0.202206 0.621001 -0.05681
C_ C_ 0.545684 0.201309 0.631188 -0.08735
C_ C_ 0.535596 0.197284 0.660207 -0.08735
C_ C_ 0.576514 0.189837 0.680041 -0.05681
C_ C_ 0.627064 0.185628 0.668841 -0.05681
C_ C_ 0.635268 0.189858 0.638868 -0.05681
C_ C_ 0.685014 0.185876 0.628677 -0.05681
C_ C_ 0.725902 0.177791 0.647329 -0.08735
C_ C_ 0.715804 0.174826 0.676263 -0.08735
C_ C_ 0.667381 0.177733 0.688241 -0.05681
C_ C_ 0.656326 0.171769 0.718635 0.44287
C_ C_ 0.568734 0.184238 0.710224 0.44287
C_ C_ 0.599799 0.163311 0.759339 0.18498
C_ C_ 0.58056 0.116082 0.76603 -0.08735
C_ C_ 0.574804 0.0990268 0.793894 -0.08735
C_ C_ 0.584728 0.131624 0.817111 -0.08735
C_ C_ 0.609343 0.177543 0.812565 0.18498
C_ C_ 0.614563 0.194922 0.783809 -0.05681
C_ C_ 0.635944 0.242977 0.779301 -0.08735
C_ C_ 0.646133 0.274148 0.802213 -0.08735
C_ C_ 0.648335 0.253826 0.830193 0.1947
C_ C_ 0.774183 0.322228 0.658514 0.68181
C_ C_ 0.719588 0.324444 0.654688 -0.05681
C_ C_ 0.685077 0.320782 0.677594 -0.08735
C_ C_ 0.633786 0.326063 0.672561 -0.05681
C_ C_ 0.614222 0.334106 0.645358 -0.05681
C_ C_ 0.648254 0.344858 0.623165 -0.08735
C_ C_ 0.699542 0.339042 0.627239 -0.08735
C_ C_ 0.598059 0.315 0.694436 -0.08735
C_ C_ 0.545879 0.315011 0.689312 -0.08735
C_ C_ 0.527092 0.320209 0.661572 -0.05681
C_ C_ 0.561521 0.331537 0.639899 -0.08735
C_ C_ 0.880249 0.223537 0.665107 0.68181
C_ C_ 0.866042 0.419874 0.649779 0.68181
C_ C_ 0.867052 0.476069 0.647984 -0.05681
C_ C_ 0.86804 0.00910024 0.677045 -0.08735
C_ C_ 0.870999 0.0616915 0.674473 -0.05681
C_ C_ 0.87737 0.0845512 0.646591 -0.05681
C_ C_ 0.882099 0.0543878 0.622585 -0.08735
C_ C_ 0.859044 0.498577 0.620594 -0.08735
C_ C_ 0.871249 0.0943695 0.698344 -0.08735
C_ C_ 0.871786 0.146582 0.695432 -0.08735
C_ C_ 0.880308 0.167851 0.66901 -0.05681
C_ C_ 0.882363 0.136593 0.644556 -0.08735
C_ C_ 0.972425 0.323981 0.65493 0.68181
C_ C_ 0.899418 0.371119 0.73611 0.1947
C_ C_ 0.897391 0.393121 0.763394 -0.08735
C_ C_ 0.874694 0.369001 0.785322 -0.08735
C_ C_ 0.842992 0.326772 0.780123 -0.05681
C_ C_ 0.835862 0.312854 0.749936 0.18498
C_ C_ 0.802031 0.276649 0.743893 -0.08735
C_ C_ 0.778794 0.251109 0.765229 -0.08735
C_ C_ 0.782214 0.263257 0.793464 -0.08735
C_ C_ 0.818402 0.29955 0.802132 0.18498
C_ C_ 0.793336 0.32353 0.851701 0.44287
C_ C_ 0.875387 0.296581 0.843594 0.44287
C_ C_ 0.88961 0.30923 0.872134 -0.05681
C_ C_ 0.940721 0.304892 0.881811 -0.08735
C_ C_ 0.952626 0.31149 0.911655 -0.08735
C_ C_ 0.912344 0.324858 0.931548 -0.05681
C_ C_ 0.86366 0.331268 0.920979 -0.05681
C_ C_ 0.853146 0.329177 0.89022 -0.05681
C_ C_ 0.80369 0.334485 0.880607 -0.05681
C_ C_ 0.76355 0.341726 0.90097 -0.08735
C_ C_ 0.775501 0.348045 0.929621 -0.08735
C_ C_ 0.824013 0.339119 0.940608 -0.05681
C_ C_ 0.836669 0.343089 0.971263 0.44287
C_ C_ 0.921604 0.326399 0.962555 0.44287
C_ C_ 0.890127 0.342437 0.510864 0.18498
C_ C_ 0.918087 0.385603 0.516445 -0.08735
C_ C_ 0.924597 0.404378 0.544757 -0.08735
C_ C_ 0.913739 0.37244 0.567708 -0.08735
C_ C_ 0.883624 0.329385 0.562721 0.18498
C_ C_ 0.873151 0.312623 0.534539 -0.05681
C_ C_ 0.85268 0.264421 0.52898 -0.08735
C_ C_ 0.843808 0.232902 0.55242 -0.08735
C_ C_ 0.849097 0.253294 0.580627 0.1947
N_ N_ 0.632713 0.160688 0.976532 -0.29468
N_ N_ 0.655693 0.205879 0.581783 -0.17154
N_ N_ 0.609289 0.178856 0.728872 -0.17154
N_ N_ 0.630052 0.204057 0.8346 -0.29468
N_ N_ 0.864934 0.334491 0.728474 -0.29468
N_ N_ 0.828648 0.307237 0.833416 -0.17154
N_ N_ 0.885549 0.340934 0.980825 -0.17154
N_ N_ 0.867785 0.298765 0.583972 -0.29468
O_ O_ 0.709075 0.181921 0.928543 -0.58347
O_ O_ 0.700007 0.2113 0.884915 -0.58347
O_ O_ 0.626046 0.251767 0.93537 -0.58347
O_ O_ 0.606215 0.257409 0.889792 -0.58347
O_ O_ 0.630032 0.104302 0.922507 -0.58347
O_ O_ 0.645486 0.114296 0.877459 -0.58347
O_ O_ 0.559884 0.170665 0.928203 -0.58347
O_ O_ 0.551714 0.164715 0.881449 -0.58347
O_ O_ 0.567628 0.219084 0.574878 -0.46727
O_ O_ 0.740089 0.192243 0.590142 -0.46727
O_ O_ 0.522152 0.187932 0.720747 -0.46727
O_ O_ 0.693168 0.162172 0.736365 -0.46727
O_ O_ 0.793073 0.323463 0.683518 -0.58347
O_ O_ 0.803457 0.313315 0.636339 -0.58347
O_ O_ 0.875483 0.25197 0.687013 -0.58347
O_ O_ 0.881868 0.242549 0.639578 -0.58347
O_ O_ 0.861163 0.401463 0.673973 -0.58347
O_ O_ 0.876413 0.390947 0.628741 -0.58347
O_ O_ 0.945156 0.332106 0.676126 -0.58347
O_ O_ 0.953044 0.308834 0.630823 -0.58347
O_ O_ 0.90605 0.274775 0.825112 -0.46727
O_ O_ 0.749213 0.333681 0.843049 -0.46727
O_ O_ 0.969545 0.326596 0.969301 -0.46727
O_ O_ 0.798776 0.352997 0.989 -0.46727
Zn Zn 0.621591 0.691034 0.383985 0.90689
Zn Zn 0.635257 0.681482 0.43104 0.90689
Zn Zn 0.85976 0.813498 0.132527 0.90689
Zn Zn 0.851946 0.822449 0.180044 0.90689
H_ H_ 0.795948 0.694197 0.447006 0.11455
H_ H_ 0.865268 0.687696 0.350365 0.11455
H_ H_ 0.775182 0.688435 0.357095 0.11455
H_ H_ 0.887994 0.697939 0.471133 0.11455
H_ H_ 0.976141 0.688883 0.462932 0.11455
H_ H_ 0.953174 0.675533 0.371393 0.11455
H_ H_ 0.62049 0.515669 0.443689 0.11455
H_ H_ 0.642364 0.934659 0.352031 0.11455
H_ H_ 0.621225 0.532337 0.353388 0.11455
H_ H_ 0.588463 0.932689 0.464897 0.11455
H_ H_ 0.583949 0.841455 0.460174 0.11455
H_ H_ 0.644576 0.853835 0.373275 0.11455
H_ H_ 0.577983 0.60827 0.464219 0.11455
H_ H_ 0.597225 0.56584 0.0207251 0.11455
H_ H_ 0.624675 0.622931 0.060371 0.11455
H_ H_ 0.68353 0.75577 0.474162 0.11455
H_ H_ 0.708047 0.809724 0.00796853 0.11455
H_ H_ 0.688128 0.795881 0.0608553 0.11455
H_ H_ 0.508302 0.721694 0.124463 0.11455
H_ H_ 0.495518 0.706915 0.173985 0.11455
H_ H_ 0.754937 0.677396 0.13792 0.11455
H_ H_ 0.744453 0.673047 0.190376 0.11455
H_ H_ 0.550531 0.600134 0.249941 0.11455
H_ H_ 0.528201 0.580238 0.300138 0.11455
H_ H_ 0.559343 0.63083 0.33828 0.11455
H_ H_ 0.662945 0.743338 0.258033 0.11455
H_ H_ 0.688413 0.800045 0.300532 0.11455
H_ H_ 0.683233 0.762343 0.348594 0.11455
H_ H_ 0.680303 0.80392 0.191953 0.11455
H_ H_ 0.616676 0.839898 0.0945269 0.11455
H_ H_ 0.709914 0.828876 0.103295 0.11455
H_ H_ 0.594833 0.813748 0.212161 0.11455
H_ H_ 0.510277 0.803022 0.202446 0.11455
H_ H_ 0.526196 0.834536 0.114004 0.11455
H_ H_ 0.84593 0.984483 0.192033 0.11455
H_ H_ 0.898272 0.570269 0.101112 0.11455
H_ H_ 0.844998 0.970275 0.101505 0.11455
H_ H_ 0.835848 0.573741 0.210309 0.11455
H_ H_ 0.843885 0.666251 0.208857 0.11455
H_ H_ 0.882945 0.65463 0.120883 0.11455
H_ H_ 0.913659 0.891622 0.215625 0.11455
H_ H_ 0.926963 0.917333 0.265755 0.11455
H_ H_ 0.880673 0.883375 0.305204 0.11455
H_ H_ 0.784545 0.761063 0.22716 0.11455
H_ H_ 0.76968 0.701663 0.267503 0.11455
H_ H_ 0.783702 0.734152 0.316775 0.11455
H_ H_ 0.980162 0.794357 0.372446 0.11455
H_ H_ -0.005454999999999988 0.795459 0.421819 0.11455
H_ H_ 0.73489 0.855823 0.391862 0.11455
H_ H_ 0.74972 0.859819 0.444543 0.11455
H_ H_ 0.945466 0.905845 0.499468 0.11455
H_ H_ 0.93984 0.948035 0.0502214 0.11455
H_ H_ 0.916344 0.885072 0.0898291 0.11455
H_ H_ 0.827563 0.765351 0.00769275 0.11455
H_ H_ 0.798744 0.712265 0.0482142 0.11455
H_ H_ 0.824088 0.737453 0.0976282 0.11455
C_ C_ 0.7262 0.693741 0.407026 0.68181
C_ C_ 0.781316 0.691548 0.403175 -0.05681
C_ C_ 0.812607 0.691673 0.426564 -0.08735
C_ C_ 0.86563 0.687369 0.423582 -0.05681
C_ C_ 0.885736 0.684323 0.395824 -0.05681
C_ C_ 0.852325 0.686647 0.372465 -0.08735
C_ C_ 0.799361 0.689274 0.375359 -0.08735
C_ C_ 0.899191 0.686927 0.447792 -0.08735
C_ C_ 0.952735 0.684289 0.44316 -0.08735
C_ C_ 0.97403 0.68152 0.415134 -0.05681
C_ C_ 0.940658 0.678406 0.392039 -0.08735
C_ C_ 0.621036 0.78314 0.412568 0.68181
C_ C_ 0.634783 0.586909 0.402337 0.68181
C_ C_ 0.627821 0.532886 0.400329 -0.05681
C_ C_ 0.619006 1.00108674 0.424238 -0.08735
C_ C_ 0.624006 0.946311 0.423914 -0.05681
C_ C_ 0.632083 0.923381 0.396801 -0.05681
C_ C_ 0.641029 0.954325 0.372461 -0.08735
C_ C_ 0.640679 1.00637783 0.374427 -0.08735
C_ C_ 0.60312 0.915744 0.446448 -0.08735
C_ C_ 0.601839 0.862902 0.443067 -0.08735
C_ C_ 0.621633 0.840187 0.417668 -0.05681
C_ C_ 0.636085 0.871178 0.394956 -0.08735
C_ C_ 0.532171 0.679774 0.403581 0.68181
C_ C_ 0.599433 0.626228 0.482544 0.1947
C_ C_ 0.608772 0.605521 0.0147475 -0.08735
C_ C_ 0.623904 0.635089 0.0377318 -0.08735
C_ C_ 0.637453 0.685574 0.0304437 -0.05681
C_ C_ 0.647351 0.697467 1.00114531 0.18498
C_ C_ 0.674404 0.742382 0.495216 -0.08735
C_ C_ 0.684853 0.778291 0.0145751 -0.08735
C_ C_ 0.673384 0.770347 0.0437323 -0.08735
C_ C_ 0.650166 0.723175 0.0520759 0.18498
C_ C_ 0.682589 0.701218 0.0997454 0.44287
C_ C_ 0.595527 0.716188 0.0940643 0.44287
C_ C_ 0.586239 0.707279 0.123886 -0.05681
C_ C_ 0.539655 0.710677 0.136926 -0.08735
C_ C_ 0.532921 0.705444 0.166144 -0.08735
C_ C_ 0.572929 0.69597 0.18465 -0.05681
C_ C_ 0.620565 0.69274 0.172628 -0.05681
C_ C_ 0.627377 0.696578 0.141754 -0.05681
C_ C_ 0.676662 0.695297 0.129422 -0.05681
C_ C_ 0.718984 0.687339 0.147527 -0.08735
C_ C_ 0.712508 0.681202 0.177008 -0.08735
C_ C_ 0.663173 0.682207 0.189613 -0.05681
C_ C_ 0.655372 0.67013 0.218901 0.44287
C_ C_ 0.567223 0.691154 0.214897 0.44287
C_ C_ 0.596967 0.663916 0.260988 0.18498
C_ C_ 0.564319 0.623301 0.26687 -0.08735
C_ C_ 0.548669 0.615419 0.295312 -0.08735
C_ C_ 0.570435 0.642535 0.317297 -0.08735
C_ C_ 0.609488 0.677435 0.312773 0.18498
C_ C_ 0.61729 0.693011 0.284189 -0.05681
C_ C_ 0.64802 0.734715 0.279418 -0.08735
C_ C_ 0.667783 0.762242 0.30257 -0.08735
C_ C_ 0.663288 0.742035 0.330989 0.1947
C_ C_ 0.757236 0.814061 0.15467 0.68181
C_ C_ 0.701502 0.820863 0.149341 -0.05681
C_ C_ 0.665833 0.81603 0.171286 -0.08735
C_ C_ 0.615128 0.824936 0.167685 -0.05681
C_ C_ 0.59691 0.832532 0.139718 -0.05681
C_ C_ 0.631609 0.831952 0.116624 -0.08735
C_ C_ 0.683522 0.822977 0.12131 -0.08735
C_ C_ 0.58148 0.823549 0.190738 -0.08735
C_ C_ 0.531063 0.821614 0.186387 -0.08735
C_ C_ 0.510705 0.825796 0.159232 -0.05681
C_ C_ 0.544047 0.835356 0.135793 -0.08735
C_ C_ 0.869937 0.723003 0.163143 0.68181
C_ C_ 0.845264 0.918109 0.151165 0.68181
C_ C_ 0.846205 0.972727 0.147016 -0.05681
C_ C_ 0.855594 0.506209 0.170641 -0.08735
C_ C_ 0.864596 0.558811 0.169262 -0.05681
C_ C_ 0.877766 0.581552 0.143688 -0.05681
C_ C_ 0.886129 0.552605 0.120375 -0.08735
C_ C_ 0.846636 0.994474 0.12055 -0.08735
C_ C_ 0.852021 0.589641 0.191561 -0.08735
C_ C_ 0.856502 0.642916 0.190775 -0.08735
C_ C_ 0.872657 0.666246 0.165818 -0.05681
C_ C_ 0.881659 0.634062 0.142098 -0.08735
C_ C_ 0.954772 0.823078 0.159396 0.68181
C_ C_ 0.89272 0.87271 0.233501 0.1947
C_ C_ 0.897343 0.891645 0.260982 -0.08735
C_ C_ 0.869071 0.871715 0.283406 -0.08735
C_ C_ 0.84139 0.828315 0.27938 -0.05681
C_ C_ 0.835803 0.809598 0.251576 0.18498
C_ C_ 0.802298 0.768083 0.24799 -0.08735
C_ C_ 0.791774 0.736213 0.270976 -0.08735
C_ C_ 0.796998 0.754828 0.298638 -0.08735
C_ C_ 0.826632 0.80164 0.303578 0.18498
C_ C_ 0.80271 0.836043 0.352606 0.44287
C_ C_ 0.887299 0.806325 0.343593 0.44287
C_ C_ 0.897687 0.812241 0.373829 -0.05681
C_ C_ 0.948372 0.80209 0.386114 -0.08735
C_ C_ 0.956955 0.801948 0.414627 -0.08735
C_ C_ 0.919858 0.818345 0.432827 -0.05681
C_ C_ 0.86945 0.825111 0.422711 -0.05681
C_ C_ 0.859187 0.828077 0.392768 -0.05681
C_ C_ 0.811656 0.837947 0.38189 -0.05681
C_ C_ 0.771976 0.847379 0.400709 -0.08735
C_ C_ 0.78043 0.852596 0.430232 -0.08735
C_ C_ 0.830871 0.841507 0.441404 -0.05681
C_ C_ 0.840849 0.838026 0.471167 0.44287
C_ C_ 0.926297 0.813415 0.462883 0.44287
C_ C_ 0.885624 0.849041 0.0102827 0.18498
C_ C_ 0.90901 0.897477 0.0169192 -0.08735
C_ C_ 0.918762 0.912132 0.0458686 -0.08735
C_ C_ 0.903755 0.87926 0.0672161 -0.08735
C_ C_ 0.874711 0.834628 0.0620606 0.18498
C_ C_ 0.868124 0.818641 0.0332857 -0.05681
C_ C_ 0.838141 0.777138 0.0290778 -0.08735
C_ C_ 0.818783 0.748563 0.0522506 -0.08735
C_ C_ 0.831079 0.762214 0.0800283 0.1947
N_ N_ 0.629087 0.668405 0.47816 -0.29468
N_ N_ 0.642212 0.712135 0.0823066 -0.17154
N_ N_ 0.606493 0.67445 0.230557 -0.17154
N_ N_ 0.629969 0.703689 0.335236 -0.29468
N_ N_ 0.856176 0.836302 0.228234 -0.29468
N_ N_ 0.837651 0.815035 0.333995 -0.17154
N_ N_ 0.88968 0.83281 0.48043 -0.17154
N_ N_ 0.85596 0.807232 0.0844987 -0.29468
O_ O_ 0.707192 0.693818 0.432063 -0.58347
O_ O_ 0.695984 0.690163 0.385021 -0.58347
O_ O_ 0.625796 0.752868 0.433512 -0.58347
O_ O_ 0.620138 0.76519 0.386721 -0.58347
O_ O_ 0.649061 0.605732 0.425798 -0.58347
O_ O_ 0.619182 0.613308 0.381458 -0.58347
O_ O_ 0.55935 0.670256 0.424882 -0.58347
O_ O_ 0.551647 0.696248 0.380496 -0.58347
O_ O_ 0.557506 0.724904 0.0770779 -0.46727
O_ O_ 0.729418 0.700014 0.0887625 -0.46727
O_ O_ 0.526346 0.705926 0.227443 -0.46727
O_ O_ 0.691806 0.65043 0.235439 -0.46727
O_ O_ 0.777912 0.827351 0.178425 -0.58347
O_ O_ 0.785254 0.796005 0.135447 -0.58347
O_ O_ 0.849195 0.749529 0.183125 -0.58347
O_ O_ 0.880966 0.742207 0.139121 -0.58347
O_ O_ 0.851438 0.89776 0.176584 -0.58347
O_ O_ 0.844845 0.888874 0.129613 -0.58347
O_ O_ 0.92767 0.818961 0.181313 -0.58347
O_ O_ 0.93492 0.827923 0.134656 -0.58347
O_ O_ 0.92441 0.801568 0.325245 -0.46727
O_ O_ 0.757373 0.849363 0.342756 -0.46727
O_ O_ 0.97116 0.803304 0.474335 -0.46727
O_ O_ 0.803978 0.849911 0.489617 -0.46727
Zn Zn 0.629786 0.679877 0.883246 0.90689
Zn Zn 0.635853 0.678261 0.930955 0.90689
Zn Zn 0.881219 0.818121 0.633323 0.90689
Zn Zn 0.871582 0.824316 0.681598 0.90689
H_ H_ 0.805888 0.674779 0.949742 0.11455
H_ H_ 0.878614 0.668404 0.849192 0.11455
H_ H_ 0.783323 0.662448 0.855856 0.11455
H_ H_ 0.89113 0.693507 0.96669 0.11455
H_ H_ 0.980687 0.692336 0.961686 0.11455
H_ H_ 0.957653 0.678133 0.87091 0.11455
H_ H_ 0.624886 0.515003 0.944333 0.11455
H_ H_ 0.617285 0.935864 0.844283 0.11455
H_ H_ 0.633278 0.524496 0.85346 0.11455
H_ H_ 0.666529 0.930308 0.959497 0.11455
H_ H_ 0.649181 0.837808 0.956215 0.11455
H_ H_ 0.619107 0.847574 0.866574 0.11455
H_ H_ 0.591499 0.60111 0.969167 0.11455
H_ H_ 0.561099 0.582213 0.514632 0.11455
H_ H_ 0.606804 0.619826 0.554111 0.11455
H_ H_ 0.689584 0.746535 0.974242 0.11455
H_ H_ 0.709005 0.807072 0.514258 0.11455
H_ H_ 0.696774 0.774553 0.564856 0.11455
H_ H_ 0.508987 0.706633 0.625105 0.11455
H_ H_ 0.503112 0.692582 0.677295 0.11455
H_ H_ 0.757416 0.660019 0.6354 0.11455
H_ H_ 0.745342 0.646134 0.688077 0.11455
H_ H_ 0.551734 0.596075 0.748846 0.11455
H_ H_ 0.537464 0.571225 0.798325 0.11455
H_ H_ 0.575637 0.621497 0.840401 0.11455
H_ H_ 0.666868 0.738747 0.75788 0.11455
H_ H_ 0.709044 0.780868 0.799538 0.11455
H_ H_ 0.682035 0.761132 0.849037 0.11455
H_ H_ 0.705382 0.820015 0.701522 0.11455
H_ H_ 0.635608 0.823287 0.604227 0.11455
H_ H_ 0.726848 0.803121 0.610843 0.11455
H_ H_ 0.616332 0.823131 0.721148 0.11455
H_ H_ 0.525063 0.819533 0.71292 0.11455
H_ H_ 0.546096 0.81502 0.621079 0.11455
H_ H_ 0.872573 0.991421 0.697834 0.11455
H_ H_ 0.854288 0.570022 0.597273 0.11455
H_ H_ 0.873972 0.979944 0.605963 0.11455
H_ H_ 0.889428 0.572081 0.714892 0.11455
H_ H_ 0.894649 0.663174 0.710351 0.11455
H_ H_ 0.872365 0.652079 0.616743 0.11455
H_ H_ 0.925582 0.906138 0.718791 0.11455
H_ H_ 0.939875 0.931892 0.770641 0.11455
H_ H_ 0.895781 0.881324 0.808068 0.11455
H_ H_ 0.824736 0.753028 0.723491 0.11455
H_ H_ 0.802067 0.6958 0.762443 0.11455
H_ H_ 0.815455 0.718678 0.809789 0.11455
H_ H_ 0.999262 0.797422 0.875824 0.11455
H_ H_ 1.00264166 0.804005 0.93013 0.11455
H_ H_ 0.742093 0.821116 0.886271 0.11455
H_ H_ 0.752699 0.837098 0.934954 0.11455
H_ H_ 0.91582 0.927694 1.00219693 0.11455
H_ H_ 0.966238 0.93012 0.548451 0.11455
H_ H_ 0.943451 0.875759 0.587823 0.11455
H_ H_ 0.853529 0.746552 0.510428 0.11455
H_ H_ 0.815038 0.707543 0.550637 0.11455
H_ H_ 0.824795 0.744003 0.600014 0.11455
C_ C_ 0.731035 0.678551 0.906401 0.68181
C_ C_ 0.786305 0.673922 0.902321 -0.05681
C_ C_ 0.820017 0.679389 0.927823 -0.08735
C_ C_ 0.872478 0.684044 0.923293 -0.05681
C_ C_ 0.891517 0.675171 0.895 -0.05681
C_ C_ 0.860746 0.670679 0.870524 -0.08735
C_ C_ 0.807106 0.667188 0.874146 -0.08735
C_ C_ 0.904936 0.692784 0.945468 -0.08735
C_ C_ 0.956675 0.691509 0.942082 -0.08735
C_ C_ 0.97872 0.683786 0.915043 -0.05681
C_ C_ 0.94534 0.678722 0.892201 -0.08735
C_ C_ 0.62663 0.779622 0.911696 0.68181
C_ C_ 0.637858 0.57989 0.902695 0.68181
C_ C_ 0.634913 0.524837 0.900417 -0.05681
C_ C_ 0.653995 -0.0040959999999999885 0.917617 -0.08735
C_ C_ 0.650067 0.943267 0.914472 -0.05681
C_ C_ 0.635036 0.918949 0.888752 -0.05681
C_ C_ 0.628011 0.951846 0.86491 -0.08735
C_ C_ 0.622065 0.00381311 0.869133 -0.08735
C_ C_ 0.655445 0.912142 0.938698 -0.08735
C_ C_ 0.642601 0.860572 0.936977 -0.08735
C_ C_ 0.628246 0.836705 0.911695 -0.05681
C_ C_ 0.628499 0.865038 0.886883 -0.08735
C_ C_ 0.535221 0.676209 0.908619 0.68181
C_ C_ 0.605501 0.622396 0.986873 0.1947
C_ C_ 0.587409 0.612901 0.5099 -0.08735
C_ C_ 0.608875 0.63876 0.532894 -0.08735
C_ C_ 0.634901 0.683589 0.529374 -0.05681
C_ C_ 0.645955 0.698234 0.499816 0.18498
C_ C_ 0.676734 0.739605 0.994928 -0.08735
C_ C_ 0.691087 0.770717 0.518883 -0.08735
C_ C_ 0.679346 0.754339 0.547156 -0.08735
C_ C_ 0.648891 0.713279 0.552162 0.18498
C_ C_ 0.683284 0.679771 0.597402 0.44287
C_ C_ 0.595987 0.697365 0.594725 0.44287
C_ C_ 0.589159 0.695438 0.624644 -0.05681
C_ C_ 0.541899 0.704101 0.637533 -0.08735
C_ C_ 0.538944 0.692811 0.667605 -0.08735
C_ C_ 0.581111 0.687858 0.685724 -0.05681
C_ C_ 0.627699 0.682633 0.67337 -0.05681
C_ C_ 0.632188 0.687684 0.642549 -0.05681
C_ C_ 0.678666 0.676591 0.627903 -0.05681
C_ C_ 0.719751 0.666701 0.645215 -0.08735
C_ C_ 0.715393 0.661667 0.675307 -0.08735
C_ C_ 0.670419 0.671125 0.689356 -0.05681
C_ C_ 0.661861 0.665071 0.719703 0.44287
C_ C_ 0.574929 0.682606 0.715413 0.44287
C_ C_ 0.608887 0.654797 0.76089 0.18498
C_ C_ 0.573641 0.616015 0.766752 -0.08735
C_ C_ 0.563516 0.601648 0.794445 -0.08735
C_ C_ 0.58121 0.632102 0.817289 -0.08735
C_ C_ 0.615184 0.671948 0.812455 0.18498
C_ C_ 0.629327 0.682623 0.78407 -0.05681
C_ C_ 0.659528 0.72475 0.780179 -0.08735
C_ C_ 0.684982 0.748053 0.803553 -0.08735
C_ C_ 0.673173 0.733573 0.831258 0.1947
C_ C_ 0.778167 0.812609 0.66011 0.68181
C_ C_ 0.722999 0.808308 0.656283 -0.05681
C_ C_ 0.689593 0.815344 0.680326 -0.08735
C_ C_ 0.636016 0.815579 0.675233 -0.05681
C_ C_ 0.615976 0.819606 0.646323 -0.05681
C_ C_ 0.649708 0.811857 0.624014 -0.08735
C_ C_ 0.70111 0.804631 0.628547 -0.08735
C_ C_ 0.602246 0.818767 0.698598 -0.08735
C_ C_ 0.54889 0.819585 0.694208 -0.08735
C_ C_ 0.528213 0.820661 0.665842 -0.05681
C_ C_ 0.561246 0.814875 0.642042 -0.08735
C_ C_ 0.884848 0.721745 0.661713 0.68181
C_ C_ 0.868773 0.920729 0.654078 0.68181
C_ C_ 0.86655 0.978528 0.652032 -0.05681
C_ C_ 0.874631 0.508737 0.672422 -0.08735
C_ C_ 0.877158 0.561468 0.668762 -0.05681
C_ C_ 0.874759 0.584847 0.641528 -0.05681
C_ C_ 0.861027 0.553334 0.618655 -0.08735
C_ C_ 0.871737 1.00148368 0.625045 -0.08735
C_ C_ 0.888947 0.59057 0.69293 -0.08735
C_ C_ 0.892616 0.642152 0.690045 -0.08735
C_ C_ 0.883661 0.666171 0.663411 -0.05681
C_ C_ 0.878819 0.635855 0.638085 -0.08735
C_ C_ 0.972583 0.813129 0.654821 0.68181
C_ C_ 0.910052 0.880516 0.736367 0.1947
C_ C_ 0.917307 0.897401 0.764606 -0.08735
C_ C_ 0.895983 0.868211 0.786611 -0.08735
C_ C_ 0.874494 0.820107 0.780538 -0.05681
C_ C_ 0.865589 0.806796 0.75145 0.18498
C_ C_ 0.838443 0.762475 0.74455 -0.08735
C_ C_ 0.825999 0.727843 0.76659 -0.08735
C_ C_ 0.834529 0.739981 0.79449 -0.08735
C_ C_ 0.862321 0.784513 0.801841 0.18498
C_ C_ 0.821891 0.804892 0.847894 0.44287
C_ C_ 0.910958 0.795839 0.84536 0.44287
C_ C_ 0.916086 0.803437 0.875047 -0.05681
C_ C_ 0.963634 0.803443 0.887633 -0.08735
C_ C_ 0.967235 0.807978 0.918279 -0.08735
C_ C_ 0.923336 0.819058 0.935102 -0.05681
C_ C_ 0.877615 0.82074 0.920057 -0.05681
C_ C_ 0.872402 0.811832 0.890612 -0.05681
C_ C_ 0.824246 0.811088 0.878056 -0.05681
C_ C_ 0.781652 0.821936 0.894493 -0.08735
C_ C_ 0.785376 0.830605 0.923504 -0.08735
C_ C_ 0.833646 0.832982 0.936391 -0.05681
C_ C_ 0.837522 0.842223 0.965708 0.44287
C_ C_ 0.922463 0.816077 0.965809 0.44287
C_ C_ 0.902992 0.838888 0.510713 0.18498
C_ C_ 0.929968 0.884808 0.516689 -0.08735
C_ C_ 0.948463 0.893113 0.544391 -0.08735
C_ C_ 0.93501 0.861516 0.567031 -0.08735
C_ C_ 0.895407 0.82593 0.562651 0.18498
C_ C_ 0.885336 0.809756 0.533863 -0.05681
C_ C_ 0.854166 0.766563 0.530441 -0.08735
C_ C_ 0.831348 0.742639 0.553565 -0.08735
C_ C_ 0.841911 0.760552 0.581274 0.1947
N_ N_ 0.629879 0.666887 0.980498 -0.29468
N_ N_ 0.642553 0.69482 0.581824 -0.17154
N_ N_ 0.615028 0.669379 0.731728 -0.17154
N_ N_ 0.637737 0.696403 0.835691 -0.29468
N_ N_ 0.880897 0.838918 0.730379 -0.29468
N_ N_ 0.865698 0.796603 0.832907 -0.17154
N_ N_ 0.88293 0.835395 0.980395 -0.17154
N_ N_ 0.8692 0.80538 0.584565 -0.29468
O_ O_ 0.712125 0.677477 0.930601 -0.58347
O_ O_ 0.70236 0.674592 0.884119 -0.58347
O_ O_ 0.630924 0.753832 0.934942 -0.58347
O_ O_ 0.627736 0.756265 0.887921 -0.58347
O_ O_ 0.645713 0.60081 0.92684 -0.58347
O_ O_ 0.628778 0.60596 0.881176 -0.58347
O_ O_ 0.562874 0.671937 0.929803 -0.58347
O_ O_ 0.555051 0.683229 0.884736 -0.58347
O_ O_ 0.558025 0.709913 0.578771 -0.46727
O_ O_ 0.727491 0.670142 0.583556 -0.46727
O_ O_ 0.529307 0.686589 0.727849 -0.46727
O_ O_ 0.698436 0.646101 0.735389 -0.46727
O_ O_ 0.7979 0.820876 0.684953 -0.58347
O_ O_ 0.805586 0.816021 0.637883 -0.58347
O_ O_ 0.876995 0.748115 0.683836 -0.58347
O_ O_ 0.886381 0.743456 0.637322 -0.58347
O_ O_ 0.865661 0.898708 0.678277 -0.58347
O_ O_ 0.875104 0.895868 0.63086 -0.58347
O_ O_ 0.946024 0.82357 0.676714 -0.58347
O_ O_ 0.953913 0.814329 0.629927 -0.58347
O_ O_ 0.952375 0.790444 0.829777 -0.46727
O_ O_ 0.779954 0.815543 0.833913 -0.46727
O_ O_ 0.964423 0.80354 0.978879 -0.46727
O_ O_ 0.797144 0.850964 0.981704 -0.46727
