_cell_length_a 26.376
_cell_length_b 26.400000238300095
_cell_length_c 46.67800035477134
_cell_angle_alpha 90.00700052986613
_cell_angle_beta 89.99899961309502
_cell_angle_gamma 90.45000003183146
_symmetry_space_group_name_H-M         'P 1'
_symmetry_Int_Tables_number            1
loop_
_symmetry_equiv_pos_as_xyz
   'x, y, z'
                         
loop_
_atom_site_label
_atom_site_type_symbol
_atom_site_fract_x 
_atom_site_fract_y
_atom_site_fract_z
_atom_site_charge
Zn Zn 0.12394 0.187229 0.380049 0.90689
Zn Zn 0.12628 0.175999 0.428588 0.90689
Zn Zn 0.367705 0.31591 0.136183 0.90689
Zn Zn 0.353637 0.330494 0.181631 0.90689
H_ H_ 0.301349 0.188425 0.446901 0.11455
H_ H_ 0.369028 0.168837 0.349457 0.11455
H_ H_ 0.277461 0.169563 0.356334 0.11455
H_ H_ 0.386801 0.18116 0.467497 0.11455
H_ H_ 0.478268 0.19142 0.45876 0.11455
H_ H_ 0.454318 0.183114 0.367688 0.11455
H_ H_ 0.110558 0.0137057 0.445142 0.11455
H_ H_ 0.162122 0.433189 0.347978 0.11455
H_ H_ 0.182507 0.019387 0.362521 0.11455
H_ H_ 0.112186 0.428952 0.462832 0.11455
H_ H_ 0.0993203 0.335099 0.456705 0.11455
H_ H_ 0.152141 0.344729 0.372088 0.11455
H_ H_ 0.065161 0.103866 0.465078 0.11455
H_ H_ 0.0600957 0.0859718 0.0114669 0.11455
H_ H_ 0.0981499 0.122874 0.0528733 0.11455
H_ H_ 0.185429 0.238251 0.470789 0.11455
H_ H_ 0.240384 0.289033 0.0153219 0.11455
H_ H_ 0.21713 0.260096 0.0634682 0.11455
H_ H_ 0.0187363 0.193738 0.125931 0.11455
H_ H_ 0.0110449 0.175256 0.175608 0.11455
H_ H_ 0.267753 0.142096 0.137468 0.11455
H_ H_ 0.261747 0.150354 0.189113 0.11455
H_ H_ 0.105688 0.0617436 0.250541 0.11455
H_ H_ 0.077546 0.0409772 0.298637 0.11455
H_ H_ 0.069748 0.111431 0.336761 0.11455
H_ H_ 0.15873 0.237615 0.254535 0.11455
H_ H_ 0.179701 0.290677 0.294422 0.11455
H_ H_ 0.164603 0.265032 0.342094 0.11455
H_ H_ 0.188914 0.308972 0.199503 0.11455
H_ H_ 0.120302 0.325182 0.0984436 0.11455
H_ H_ 0.213121 0.324385 0.109073 0.11455
H_ H_ 0.101791 0.290142 0.215135 0.11455
H_ H_ 0.00771165 0.307338 0.2074 0.11455
H_ H_ 0.0281705 0.318791 0.117843 0.11455
H_ H_ 0.363661 0.492623 0.196399 0.11455
H_ H_ 0.403063 0.07069 0.0994907 0.11455
H_ H_ 0.348117 0.480167 0.106549 0.11455
H_ H_ 0.350665 0.0731758 0.21477 0.11455
H_ H_ 0.35533 0.164149 0.209455 0.11455
H_ H_ 0.391301 0.156261 0.121683 0.11455
H_ H_ 0.418145 0.39801 0.216597 0.11455
H_ H_ 0.438446 0.424077 0.265893 0.11455
H_ H_ 0.409336 0.372323 0.305276 0.11455
H_ H_ 0.289378 0.274916 0.227055 0.11455
H_ H_ 0.270881 0.209787 0.26198 0.11455
H_ H_ 0.30754 0.22253 0.310211 0.11455
H_ H_ 0.491214 0.299282 0.374837 0.11455
H_ H_ 0.500451 0.298711 0.427077 0.11455
H_ H_ 0.239942 0.325796 0.384584 0.11455
H_ H_ 0.244931 0.315249 0.438466 0.11455
H_ H_ 0.423891 0.398657 0.50123 0.11455
H_ H_ 0.457617 0.43099 0.0524492 0.11455
H_ H_ 0.421635 0.377503 0.0938256 0.11455
H_ H_ 0.354905 0.246376 0.01147 0.11455
H_ H_ 0.310074 0.203987 0.0506064 0.11455
H_ H_ 0.309743 0.241789 0.100548 0.11455
C_ C_ 0.223724 0.180588 0.406593 0.68181
C_ C_ 0.28088 0.17642 0.403275 -0.05681
C_ C_ 0.316467 0.18125 0.426681 -0.08735
C_ C_ 0.370021 0.174976 0.422178 -0.05681
C_ C_ 0.388796 0.170631 0.39384 -0.05681
C_ C_ 0.354263 0.168961 0.371557 -0.08735
C_ C_ 0.30071 0.168821 0.375992 -0.08735
C_ C_ 0.402036 0.181254 0.445584 -0.08735
C_ C_ 0.454123 0.176893 0.440644 -0.08735
C_ C_ 0.474985 0.177038 0.412794 -0.05681
C_ C_ 0.441033 0.172312 0.389111 -0.08735
C_ C_ 0.123014 0.280489 0.408558 0.68181
C_ C_ 0.139898 0.0845352 0.402822 0.68181
C_ C_ 0.137446 0.0275391 0.400715 -0.05681
C_ C_ 0.131647 0.495789 0.420528 -0.08735
C_ C_ 0.12773 0.442878 0.418409 -0.05681
C_ C_ 0.13934 0.419174 0.391878 -0.05681
C_ C_ 0.153261 0.448335 0.367706 -0.08735
C_ C_ 0.148381 0.502755 0.36891 -0.08735
C_ C_ 0.112587 0.412378 0.441423 -0.08735
C_ C_ 0.108897 0.359435 0.43828 -0.08735
C_ C_ 0.12114 0.337322 0.41319 -0.05681
C_ C_ 0.133841 0.366653 0.389443 -0.08735
C_ C_ 0.0296465 0.180898 0.403973 0.68181
C_ C_ 0.0844002 0.122051 0.482349 0.1947
C_ C_ 0.0843621 0.117427 0.0079439 -0.08735
C_ C_ 0.107523 0.139294 0.0326716 -0.08735
C_ C_ 0.145162 0.177217 0.0296794 -0.05681
C_ C_ 0.156208 0.193528 1.000721684 0.18498
C_ C_ 0.167179 0.234894 0.491519 -0.08735
C_ C_ 0.215924 0.255149 0.0176835 -0.08735
C_ C_ 0.20111 0.242409 0.0459352 -0.08735
C_ C_ 0.165186 0.204232 0.0532863 0.18498
C_ C_ 0.196221 0.171316 0.0987461 0.44287
C_ C_ 0.111588 0.200928 0.0960855 0.44287
C_ C_ 0.102425 0.189186 0.124916 -0.05681
C_ C_ 0.0546051 0.189474 0.138107 -0.08735
C_ C_ 0.0494325 0.17486 0.166962 -0.08735
C_ C_ 0.0915943 0.170545 0.184867 -0.05681
C_ C_ 0.13875 0.165769 0.171791 -0.05681
C_ C_ 0.143831 0.171605 0.141437 -0.05681
C_ C_ 0.191856 0.165862 0.12939 -0.05681
C_ C_ 0.232494 0.150779 0.146226 -0.08735
C_ C_ 0.228511 0.153701 0.175655 -0.08735
C_ C_ 0.182342 0.157928 0.189085 -0.05681
C_ C_ 0.177443 0.150361 0.218387 0.44287
C_ C_ 0.0877203 0.157637 0.214851 0.44287
C_ C_ 0.125604 0.137745 0.260996 0.18498
C_ C_ 0.105078 0.0906871 0.26736 -0.08735
C_ C_ 0.0882075 0.0792749 0.295549 -0.08735
C_ C_ 0.0902814 0.116841 0.315987 -0.08735
C_ C_ 0.119219 0.16194 0.311467 0.18498
C_ C_ 0.132975 0.174011 0.282836 -0.05681
C_ C_ 0.149298 0.223797 0.275969 -0.08735
C_ C_ 0.155488 0.257963 0.2986 -0.08735
C_ C_ 0.152058 0.24131 0.326288 0.1947
C_ C_ 0.261676 0.322274 0.158831 0.68181
C_ C_ 0.206249 0.317055 0.153663 -0.05681
C_ C_ 0.173227 0.308345 0.177128 -0.08735
C_ C_ 0.119063 0.309291 0.172055 -0.05681
C_ C_ 0.0995504 0.31826 0.143629 -0.05681
C_ C_ 0.134129 0.321664 0.120223 -0.08735
C_ C_ 0.187093 0.319926 0.126096 -0.08735
C_ C_ 0.0863834 0.302651 0.19393 -0.08735
C_ C_ 0.0331781 0.302888 0.189868 -0.08735
C_ C_ 0.013678 0.311679 0.162278 -0.05681
C_ C_ 0.046602 0.31808 0.138624 -0.08735
C_ C_ 0.369239 0.224541 0.163142 0.68181
C_ C_ 0.356675 0.422102 0.153062 0.68181
C_ C_ 0.355673 0.479088 0.151145 -0.05681
C_ C_ 0.360964 0.0091572 0.171147 -0.08735
C_ C_ 0.367418 0.0617499 0.169306 -0.05681
C_ C_ 0.374681 0.0836707 0.142131 -0.05681
C_ C_ 0.390004 0.0539416 0.120094 -0.08735
C_ C_ 0.349943 0.504071 0.12453 -0.08735
C_ C_ 0.361066 0.0923479 0.194505 -0.08735
C_ C_ 0.365382 0.143084 0.192027 -0.08735
C_ C_ 0.370701 0.166143 0.165241 -0.05681
C_ C_ 0.382337 0.137109 0.142028 -0.08735
C_ C_ 0.457307 0.323325 0.157472 0.68181
C_ C_ 0.39799 0.38011 0.234686 0.1947
C_ C_ 0.414769 0.391368 0.262366 -0.08735
C_ C_ 0.394915 0.36432 0.284819 -0.08735
C_ C_ 0.362221 0.321597 0.279374 -0.05681
C_ C_ 0.344961 0.313752 0.251236 0.18498
C_ C_ 0.312725 0.272498 0.244442 -0.08735
C_ C_ 0.299816 0.238549 0.266063 -0.08735
C_ C_ 0.320148 0.246728 0.29353 -0.08735
C_ C_ 0.349027 0.288143 0.300734 0.18498
C_ C_ 0.313937 0.30882 0.34698 0.44287
C_ C_ 0.404549 0.297193 0.343152 0.44287
C_ C_ 0.410969 0.304725 0.37305 -0.05681
C_ C_ 0.457213 0.301599 0.38692 -0.08735
C_ C_ 0.462909 0.302866 0.416302 -0.08735
C_ C_ 0.418112 0.306101 0.43399 -0.05681
C_ C_ 0.369989 0.310202 0.420229 -0.05681
C_ C_ 0.36581 0.310266 0.3903 -0.05681
C_ C_ 0.317934 0.313016 0.376509 -0.05681
C_ C_ 0.276388 0.321249 0.393048 -0.08735
C_ C_ 0.280468 0.318549 0.424393 -0.08735
C_ C_ 0.327743 0.3155 0.438093 -0.05681
C_ C_ 0.331695 0.317298 0.468332 0.44287
C_ C_ 0.42115 0.308423 0.463976 0.44287
C_ C_ 0.394512 0.341802 0.0149749 0.18498
C_ C_ 0.416702 0.38824 0.021317 -0.08735
C_ C_ 0.432741 0.397929 0.0493291 -0.08735
C_ C_ 0.416636 0.36694 0.0725442 -0.08735
C_ C_ 0.383515 0.326656 0.0662517 0.18498
C_ C_ 0.376391 0.311015 0.0374597 -0.05681
C_ C_ 0.352095 0.265211 0.032476 -0.08735
C_ C_ 0.327912 0.239612 0.0559863 -0.08735
C_ C_ 0.328914 0.260212 0.0834292 0.1947
N_ N_ 0.116121 0.161779 0.476221 -0.29468
N_ N_ 0.157736 0.192087 0.0834311 -0.17154
N_ N_ 0.130915 0.151875 0.230891 -0.17154
N_ N_ 0.130221 0.195708 0.332688 -0.29468
N_ N_ 0.360394 0.344139 0.230176 -0.29468
N_ N_ 0.357078 0.301268 0.330288 -0.17154
N_ N_ 0.37855 0.314501 0.480796 -0.17154
N_ N_ 0.357815 0.303255 0.0889071 -0.29468
O_ O_ 0.202336 0.174497 0.430674 -0.58347
O_ O_ 0.198933 0.196358 0.384867 -0.58347
O_ O_ 0.130529 0.252316 0.430918 -0.58347
O_ O_ 0.111401 0.261941 0.383653 -0.58347
O_ O_ 0.123148 0.103461 0.425436 -0.58347
O_ O_ 0.136821 0.109771 0.379951 -0.58347
O_ O_ 0.0536768 0.179733 0.42745 -0.58347
O_ O_ 0.0521032 0.175125 0.379832 -0.58347
O_ O_ 0.0735232 0.213849 0.0810591 -0.46727
O_ O_ 0.240466 0.163732 0.0876466 -0.46727
O_ O_ 0.0448535 0.160636 0.228068 -0.46727
O_ O_ 0.218834 0.151544 0.234726 -0.46727
O_ O_ 0.276883 0.333731 0.184145 -0.58347
O_ O_ 0.292985 0.310604 0.139141 -0.58347
O_ O_ 0.356869 0.254446 0.182553 -0.58347
O_ O_ 0.375811 0.242332 0.13861 -0.58347
O_ O_ 0.361453 0.403292 0.177522 -0.58347
O_ O_ 0.357613 0.395649 0.130064 -0.58347
O_ O_ 0.428077 0.328752 0.179213 -0.58347
O_ O_ 0.438121 0.322957 0.13245 -0.58347
O_ O_ 0.445177 0.286815 0.327089 -0.46727
O_ O_ 0.268163 0.311221 0.334125 -0.46727
O_ O_ 0.465917 0.303324 0.474981 -0.46727
O_ O_ 0.290905 0.326251 0.483398 -0.46727
Zn Zn 0.128366 0.186729 0.882381 0.90689
Zn Zn 0.137794 0.183538 0.930407 0.90689
Zn Zn 0.367845 0.306149 0.633327 0.90689
Zn Zn 0.357055 0.313567 0.680264 0.90689
H_ H_ 0.307636 0.187815 0.94517 0.11455
H_ H_ 0.36768 0.152113 0.847206 0.11455
H_ H_ 0.278383 0.166409 0.853685 0.11455
H_ H_ 0.391731 0.193641 0.9645 0.11455
H_ H_ 0.480239 0.20045 0.954598 0.11455
H_ H_ 0.456451 0.17673 0.864094 0.11455
H_ H_ 0.118041 0.0181119 0.941665 0.11455
H_ H_ 0.173178 0.440492 0.856386 0.11455
H_ H_ 0.148962 0.0309263 0.852486 0.11455
H_ H_ 0.079323 0.430683 0.962668 0.11455
H_ H_ 0.0892187 0.340422 0.960928 0.11455
H_ H_ 0.156444 0.354961 0.877015 0.11455
H_ H_ 0.0834279 0.115922 0.963378 0.11455
H_ H_ 0.0597274 0.0707558 0.516804 0.11455
H_ H_ 0.0950226 0.12241 0.554436 0.11455
H_ H_ 0.204888 0.242089 0.974371 0.11455
H_ H_ 0.202716 0.302926 0.509931 0.11455
H_ H_ 0.183231 0.283106 0.558015 0.11455
H_ H_ 0.0024436 0.20362 0.625852 0.11455
H_ H_ -0.002681999999999962 0.19815 0.677536 0.11455
H_ H_ 0.253232 0.175097 0.631977 0.11455
H_ H_ 0.252664 0.175836 0.682624 0.11455
H_ H_ 0.0680225 0.1043 0.746809 0.11455
H_ H_ 0.0419079 0.0799986 0.793567 0.11455
H_ H_ 0.0681088 0.129045 0.833377 0.11455
H_ H_ 0.156475 0.267484 0.75919 0.11455
H_ H_ 0.184911 0.309349 0.80253 0.11455
H_ H_ 0.174966 0.271647 0.850626 0.11455
H_ H_ 0.19001 0.322641 0.693464 0.11455
H_ H_ 0.121688 0.332449 0.594438 0.11455
H_ H_ 0.212458 0.320331 0.601636 0.11455
H_ H_ 0.108576 0.334384 0.712485 0.11455
H_ H_ 0.0127091 0.330265 0.705929 0.11455
H_ H_ 0.0341457 0.323645 0.614622 0.11455
H_ H_ 0.356274 0.479632 0.689367 0.11455
H_ H_ 0.3525 0.0635734 0.599411 0.11455
H_ H_ 0.391606 0.463765 0.600975 0.11455
H_ H_ 0.36024 0.062553 0.717887 0.11455
H_ H_ 0.369796 0.158585 0.714556 0.11455
H_ H_ 0.353825 0.145941 0.621873 0.11455
H_ H_ 0.429347 0.384784 0.714855 0.11455
H_ H_ 0.449051 0.41457 0.761967 0.11455
H_ H_ 0.414452 0.373689 0.807445 0.11455
H_ H_ 0.306067 0.257182 0.72488 0.11455
H_ H_ 0.277444 0.204579 0.766432 0.11455
H_ H_ 0.296504 0.228235 0.815683 0.11455
H_ H_ 0.488608 0.289729 0.876755 0.11455
H_ H_ 0.502583 0.30689 0.930564 0.11455
H_ H_ 0.243963 0.342508 0.890577 0.11455
H_ H_ 0.254971 0.356241 0.941292 0.11455
H_ H_ 0.440988 0.408114 0.00630419 0.11455
H_ H_ 0.430364 0.428088 0.548389 0.11455
H_ H_ 0.425172 0.365657 0.587229 0.11455
H_ H_ 0.334405 0.233119 0.507384 0.11455
H_ H_ 0.300921 0.190078 0.550053 0.11455
H_ H_ 0.312192 0.227938 0.598297 0.11455
C_ C_ 0.231402 0.183639 0.903915 0.68181
C_ C_ 0.284479 0.179361 0.900068 -0.05681
C_ C_ 0.320134 0.185989 0.92286 -0.08735
C_ C_ 0.371693 0.180376 0.918922 -0.05681
C_ C_ 0.391004 0.169943 0.89082 -0.05681
C_ C_ 0.356588 0.161635 0.868979 -0.08735
C_ C_ 0.305377 0.16707 0.872703 -0.08735
C_ C_ 0.40529 0.187088 0.941766 -0.08735
C_ C_ 0.455591 0.192365 0.936303 -0.08735
C_ C_ 0.477991 0.179484 0.909047 -0.05681
C_ C_ 0.443104 0.171479 0.885789 -0.08735
C_ C_ 0.126699 0.285241 0.914419 0.68181
C_ C_ 0.139843 0.087069 0.898933 0.68181
C_ C_ 0.130902 0.031325 0.896506 -0.05681
C_ C_ 0.116411 0.500725 0.924472 -0.08735
C_ C_ 0.118098 0.447955 0.922496 -0.05681
C_ C_ 0.138672 0.425856 0.897323 -0.05681
C_ C_ 0.157712 0.457389 0.875039 -0.08735
C_ C_ 0.151078 0.510558 0.876346 -0.08735
C_ C_ 0.0988338 0.415954 0.944605 -0.08735
C_ C_ 0.107492 0.363755 0.944299 -0.08735
C_ C_ 0.125288 0.341198 0.917899 -0.05681
C_ C_ 0.136178 0.372012 0.894198 -0.08735
C_ C_ 0.0332396 0.178698 0.907117 0.68181
C_ C_ 0.100157 0.132365 0.981506 0.1947
C_ C_ 0.0766571 0.107347 0.510926 -0.08735
C_ C_ 0.0962989 0.137245 0.532462 -0.08735
C_ C_ 0.126233 0.179236 0.526921 -0.05681
C_ C_ 0.137992 0.190765 0.497998 0.18498
C_ C_ 0.191313 0.232773 0.994954 -0.08735
C_ C_ 0.178275 0.269378 0.513686 -0.08735
C_ C_ 0.165578 0.259203 0.541857 -0.08735
C_ C_ 0.138715 0.213834 0.54849 0.18498
C_ C_ 0.174692 0.19422 0.594508 0.44287
C_ C_ 0.0874091 0.206191 0.593684 0.44287
C_ C_ 0.0833447 0.200126 0.622879 -0.05681
C_ C_ 0.0370693 0.205349 0.637322 -0.08735
C_ C_ 0.0347872 0.201955 0.667098 -0.08735
C_ C_ 0.0781342 0.196472 0.682706 -0.05681
C_ C_ 0.125519 0.189418 0.668879 -0.05681
C_ C_ 0.126619 0.192401 0.638956 -0.05681
C_ C_ 0.172077 0.188062 0.624631 -0.05681
C_ C_ 0.217172 0.177142 0.640719 -0.08735
C_ C_ 0.216579 0.17961 0.67094 -0.08735
C_ C_ 0.170191 0.185306 0.685131 -0.05681
C_ C_ 0.162931 0.185081 0.715386 0.44287
C_ C_ 0.0777636 0.204065 0.712996 0.44287
C_ C_ 0.110437 0.17178 0.758412 0.18498
C_ C_ 0.0805956 0.128361 0.76399 -0.08735
C_ C_ 0.06338 0.116091 0.790362 -0.08735
C_ C_ 0.0808783 0.142127 0.813547 -0.08735
C_ C_ 0.117039 0.181079 0.810564 0.18498
C_ C_ 0.128103 0.200191 0.782566 -0.05681
C_ C_ 0.150404 0.248752 0.780162 -0.08735
C_ C_ 0.167149 0.273473 0.804662 -0.08735
C_ C_ 0.160539 0.252105 0.832189 0.1947
C_ C_ 0.26444 0.316186 0.655121 0.68181
C_ C_ 0.209097 0.322017 0.64871 -0.05681
C_ C_ 0.176006 0.325149 0.671779 -0.08735
C_ C_ 0.123192 0.325825 0.668207 -0.05681
C_ C_ 0.103459 0.329861 0.640795 -0.05681
C_ C_ 0.136111 0.330886 0.616538 -0.08735
C_ C_ 0.189268 0.320672 0.620124 -0.08735
C_ C_ 0.0925346 0.332615 0.691745 -0.08735
C_ C_ 0.0377378 0.331155 0.688057 -0.08735
C_ C_ 0.015885 0.33283 0.660273 -0.05681
C_ C_ 0.0490773 0.329484 0.636873 -0.08735
C_ C_ 0.364954 0.214406 0.665273 0.68181
C_ C_ 0.366455 0.407544 0.648853 0.68181
C_ C_ 0.377569 0.464369 0.645968 -0.05681
C_ C_ 0.369786 -0.0030890000000000084 0.673394 -0.08735
C_ C_ 0.367988 0.0517843 0.671572 -0.05681
C_ C_ 0.357708 0.0731457 0.644578 -0.05681
C_ C_ 0.356155 0.0433972 0.620204 -0.08735
C_ C_ 0.390462 0.487603 0.619565 -0.08735
C_ C_ 0.363501 0.0823897 0.696558 -0.08735
C_ C_ 0.363458 0.135992 0.694883 -0.08735
C_ C_ 0.362168 0.158219 0.668119 -0.05681
C_ C_ 0.358588 0.128126 0.642101 -0.08735
C_ C_ 0.460125 0.307756 0.65624 0.68181
C_ C_ 0.407568 0.368904 0.732553 0.1947
C_ C_ 0.42195 0.382845 0.760897 -0.08735
C_ C_ 0.400556 0.359739 0.785506 -0.08735
C_ C_ 0.363203 0.321847 0.780413 -0.05681
C_ C_ 0.3468 0.311269 0.752111 0.18498
C_ C_ 0.315525 0.268046 0.746025 -0.08735
C_ C_ 0.29645 0.241007 0.769299 -0.08735
C_ C_ 0.309959 0.253364 0.79728 -0.08735
C_ C_ 0.344572 0.294303 0.804317 0.18498
C_ C_ 0.312867 0.310995 0.853229 0.44287
C_ C_ 0.401126 0.298433 0.846941 0.44287
C_ C_ 0.409841 0.308177 0.877499 -0.05681
C_ C_ 0.456592 0.29343 0.891631 -0.08735
C_ C_ 0.464041 0.306162 0.920384 -0.08735
C_ C_ 0.424005 0.324028 0.937048 -0.05681
C_ C_ 0.376439 0.331009 0.924911 -0.05681
C_ C_ 0.3698 0.324738 0.894811 -0.05681
C_ C_ 0.320298 0.325634 0.882679 -0.05681
C_ C_ 0.278709 0.336888 0.899556 -0.08735
C_ C_ 0.285224 0.341806 0.929375 -0.08735
C_ C_ 0.333109 0.339037 0.942905 -0.05681
C_ C_ 0.340604 0.34302 0.973051 0.44287
C_ C_ 0.427088 0.321384 0.96693 0.44287
C_ C_ 0.384049 0.327945 0.509875 0.18498
C_ C_ 0.407117 0.375507 0.516434 -0.08735
C_ C_ 0.415453 0.391553 0.544087 -0.08735
C_ C_ 0.410031 0.355229 0.566348 -0.08735
C_ C_ 0.378169 0.313691 0.562402 0.18498
C_ C_ 0.369102 0.295031 0.532397 -0.05681
C_ C_ 0.343483 0.24825 0.528137 -0.08735
C_ C_ 0.323258 0.223141 0.552349 -0.08735
C_ C_ 0.330739 0.245066 0.580485 0.1947
N_ N_ 0.135773 0.168667 0.978507 -0.29468
N_ N_ 0.132773 0.204924 0.57947 -0.17154
N_ N_ 0.119133 0.190905 0.72887 -0.17154
N_ N_ 0.134659 0.207358 0.834665 -0.29468
N_ N_ 0.368697 0.336101 0.727907 -0.29468
N_ N_ 0.353131 0.305118 0.834618 -0.17154
N_ N_ 0.38555 0.330533 0.984993 -0.17154
N_ N_ 0.362109 0.2851 0.58537 -0.29468
O_ O_ 0.213265 0.18106 0.928681 -0.58347
O_ O_ 0.202504 0.193079 0.882625 -0.58347
O_ O_ 0.129181 0.256838 0.936203 -0.58347
O_ O_ 0.124713 0.264329 0.890764 -0.58347
O_ O_ 0.139396 0.107449 0.923098 -0.58347
O_ O_ 0.144042 0.115193 0.876756 -0.58347
O_ O_ 0.0621429 0.184755 0.928656 -0.58347
O_ O_ 0.0531696 0.171352 0.88227 -0.58347
O_ O_ 0.045302 0.217985 0.579387 -0.46727
O_ O_ 0.219473 0.189129 0.581899 -0.46727
O_ O_ 0.0349176 0.216735 0.725683 -0.46727
O_ O_ 0.204768 0.178129 0.731256 -0.46727
O_ O_ 0.283626 0.325901 0.679304 -0.58347
O_ O_ 0.292619 0.301668 0.6352 -0.58347
O_ O_ 0.348248 0.243001 0.684905 -0.58347
O_ O_ 0.373198 0.234481 0.640738 -0.58347
O_ O_ 0.367243 0.386482 0.674209 -0.58347
O_ O_ 0.3656 0.379998 0.627036 -0.58347
O_ O_ 0.432764 0.306604 0.678486 -0.58347
O_ O_ 0.439498 0.31116 0.631528 -0.58347
O_ O_ 0.439468 0.278007 0.83176 -0.46727
O_ O_ 0.267666 0.3142 0.841916 -0.46727
O_ O_ 0.470309 0.311206 0.979138 -0.46727
O_ O_ 0.301302 0.354773 0.989222 -0.46727
Zn Zn 0.132137 0.679543 0.382445 0.90689
Zn Zn 0.137186 0.67808 0.428677 0.90689
Zn Zn 0.372288 0.820339 0.133685 0.90689
Zn Zn 0.364513 0.82661 0.180829 0.90689
H_ H_ 0.307552 0.695712 0.445038 0.11455
H_ H_ 0.377754 0.643317 0.351848 0.11455
H_ H_ 0.285964 0.657598 0.356303 0.11455
H_ H_ 0.389975 0.714895 0.460826 0.11455
H_ H_ 0.481935 0.719099 0.456884 0.11455
H_ H_ 0.463641 0.66785 0.367609 0.11455
H_ H_ 0.12261 0.513627 0.440194 0.11455
H_ H_ 0.17453 0.931666 0.35715 0.11455
H_ H_ 0.158594 0.526586 0.352221 0.11455
H_ H_ 0.0664616 0.929796 0.456298 0.11455
H_ H_ 0.0659255 0.841146 0.453714 0.11455
H_ H_ 0.167983 0.845688 0.381244 0.11455
H_ H_ 0.0831519 0.598176 0.465536 0.11455
H_ H_ 0.0759078 0.578156 0.0171694 0.11455
H_ H_ 0.10669 0.627391 0.0577191 0.11455
H_ H_ 0.191303 0.739697 0.471969 0.11455
H_ H_ 0.20983 0.813238 0.0114435 0.11455
H_ H_ 0.18253 0.795063 0.0619414 0.11455
H_ H_ 0.0177349 0.724655 0.124437 0.11455
H_ H_ 0.0025165 0.712488 0.175506 0.11455
H_ H_ 0.259689 0.646665 0.138552 0.11455
H_ H_ 0.24368 0.627563 0.189869 0.11455
H_ H_ 0.0485903 0.585041 0.250887 0.11455
H_ H_ 0.0429907 0.562078 0.301839 0.11455
H_ H_ 0.0582212 0.62994 0.33922 0.11455
H_ H_ 0.162761 0.730051 0.25472 0.11455
H_ H_ 0.205534 0.781531 0.292745 0.11455
H_ H_ 0.192679 0.745405 0.345418 0.11455
H_ H_ 0.198298 0.804792 0.197194 0.11455
H_ H_ 0.126255 0.842667 0.100121 0.11455
H_ H_ 0.217384 0.830115 0.106916 0.11455
H_ H_ 0.111873 0.807753 0.21743 0.11455
H_ H_ 0.0230921 0.81114 0.210689 0.11455
H_ H_ 0.0428318 0.847464 0.119545 0.11455
H_ H_ 0.347961 0.990809 0.191306 0.11455
H_ H_ 0.334504 0.571374 0.100176 0.11455
H_ H_ 0.393125 0.976239 0.103812 0.11455
H_ H_ 0.360943 0.57942 0.218774 0.11455
H_ H_ 0.366732 0.673729 0.212357 0.11455
H_ H_ 0.363112 0.658252 0.121853 0.11455
H_ H_ 0.400846 0.908481 0.214007 0.11455
H_ H_ 0.41005 0.947272 0.260139 0.11455
H_ H_ 0.3699 0.902543 0.303813 0.11455
H_ H_ 0.309421 0.766945 0.225299 0.11455
H_ H_ 0.285147 0.712292 0.266802 0.11455
H_ H_ 0.301105 0.740728 0.31625 0.11455
H_ H_ 0.494786 0.802618 0.371371 0.11455
H_ H_ 0.50858 0.821577 0.420819 0.11455
H_ H_ 0.24676 0.852497 0.387291 0.11455
H_ H_ 0.257883 0.858322 0.439092 0.11455
H_ H_ 0.444627 0.924218 0.503528 0.11455
H_ H_ 0.467323 0.920021 0.0474576 0.11455
H_ H_ 0.434882 0.873229 0.0882845 0.11455
H_ H_ 0.344629 0.750552 0.00640259 0.11455
H_ H_ 0.311841 0.700785 0.0503867 0.11455
H_ H_ 0.309453 0.745594 0.0959414 0.11455
C_ C_ 0.233519 0.685067 0.403237 0.68181
C_ C_ 0.289906 0.684512 0.400369 -0.05681
C_ C_ 0.322189 0.695312 0.423517 -0.08735
C_ C_ 0.37566 0.693303 0.418958 -0.05681
C_ C_ 0.395857 0.675098 0.392367 -0.05681
C_ C_ 0.362949 0.659169 0.370905 -0.08735
C_ C_ 0.312078 0.669263 0.374079 -0.08735
C_ C_ 0.40806 0.706607 0.440932 -0.08735
C_ C_ 0.459566 0.710623 0.436948 -0.08735
C_ C_ 0.482498 0.692849 0.411042 -0.05681
C_ C_ 0.449526 0.677822 0.388333 -0.08735
C_ C_ 0.123647 0.776608 0.415244 0.68181
C_ C_ 0.135959 0.581951 0.397683 0.68181
C_ C_ 0.138449 0.525821 0.396241 -0.05681
C_ C_ 0.116776 0.997185 0.424312 -0.08735
C_ C_ 0.116672 0.942002 0.421032 -0.05681
C_ C_ 0.139985 0.918042 0.397375 -0.05681
C_ C_ 0.161435 0.947539 0.37647 -0.08735
C_ C_ 0.160876 0.999392 0.377778 -0.08735
C_ C_ 0.0919203 0.911344 0.441561 -0.08735
C_ C_ 0.0927593 0.858531 0.43949 -0.08735
C_ C_ 0.119242 0.833011 0.416526 -0.05681
C_ C_ 0.142606 0.863656 0.396592 -0.08735
C_ C_ 0.0369601 0.675938 0.411927 0.68181
C_ C_ 0.106591 0.613034 0.482118 0.1947
C_ C_ 0.100695 0.608894 0.0127519 -0.08735
C_ C_ 0.113724 0.641811 0.0350935 -0.08735
C_ C_ 0.139846 0.686309 0.0301656 -0.05681
C_ C_ 0.147317 0.701191 1.000639081 0.18498
C_ C_ 0.187984 0.724545 0.493233 -0.08735
C_ C_ 0.191287 0.775939 0.0168498 -0.08735
C_ C_ 0.181893 0.762217 0.0461344 -0.08735
C_ C_ 0.158213 0.71632 0.0535204 0.18498
C_ C_ 0.189867 0.686203 0.100077 0.44287
C_ C_ 0.102286 0.706739 0.0948742 0.44287
C_ C_ 0.095389 0.703568 0.124559 -0.05681
C_ C_ 0.0485636 0.711622 0.137043 -0.08735
C_ C_ 0.0406156 0.701379 0.167753 -0.08735
C_ C_ 0.083732 0.690802 0.185646 -0.05681
C_ C_ 0.130277 0.676536 0.171598 -0.05681
C_ C_ 0.136667 0.688905 0.142426 -0.05681
C_ C_ 0.183903 0.678511 0.130444 -0.05681
C_ C_ 0.22219 0.657779 0.14716 -0.08735
C_ C_ 0.214898 0.64483 0.175314 -0.08735
C_ C_ 0.169188 0.655006 0.188854 -0.05681
C_ C_ 0.159622 0.646962 0.218272 0.44287
C_ C_ 0.0755131 0.681731 0.214758 0.44287
C_ C_ 0.104024 0.64772 0.26001 0.18498
C_ C_ 0.0718728 0.60665 0.267766 -0.08735
C_ C_ 0.059003 0.59801 0.296546 -0.08735
C_ C_ 0.0782306 0.628254 0.318946 -0.08735
C_ C_ 0.109424 0.669128 0.31209 0.18498
C_ C_ 0.126198 0.677461 0.282897 -0.05681
C_ C_ 0.158657 0.719635 0.277247 -0.08735
C_ C_ 0.17953 0.749448 0.300167 -0.08735
C_ C_ 0.170267 0.730964 0.328156 0.1947
C_ C_ 0.269199 0.824126 0.156275 0.68181
C_ C_ 0.214717 0.824395 0.153465 -0.05681
C_ C_ 0.181825 0.816291 0.176955 -0.08735
C_ C_ 0.129228 0.820102 0.172852 -0.05681
C_ C_ 0.109333 0.830105 0.145057 -0.05681
C_ C_ 0.141954 0.839921 0.122416 -0.08735
C_ C_ 0.19444 0.832275 0.125414 -0.08735
C_ C_ 0.0966011 0.811363 0.195612 -0.08735
C_ C_ 0.0433405 0.812852 0.191244 -0.08735
C_ C_ 0.0222207 0.827421 0.1648 -0.05681
C_ C_ 0.0573142 0.834896 0.141359 -0.08735
C_ C_ 0.371731 0.724912 0.164182 0.68181
C_ C_ 0.3686 0.920961 0.14831 0.68181
C_ C_ 0.370984 0.978392 0.146984 -0.05681
C_ C_ 0.357948 0.51074 0.175506 -0.08735
C_ C_ 0.358871 0.565463 0.173345 -0.05681
C_ C_ 0.355749 0.587372 0.145653 -0.05681
C_ C_ 0.349072 0.556956 0.120924 -0.08735
C_ C_ 0.383987 0.00114935 0.121977 -0.08735
C_ C_ 0.365094 0.596401 0.197067 -0.08735
C_ C_ 0.362151 0.648623 0.194298 -0.08735
C_ C_ 0.36487 0.670555 0.166815 -0.05681
C_ C_ 0.35848 0.640883 0.142734 -0.08735
C_ C_ 0.467488 0.82817 0.159862 0.68181
C_ C_ 0.39288 0.887933 0.233561 0.1947
C_ C_ 0.394351 0.910047 0.259783 -0.08735
C_ C_ 0.372503 0.884905 0.282668 -0.08735
C_ C_ 0.358141 0.834082 0.279459 -0.05681
C_ C_ 0.35736 0.81202 0.251486 0.18498
C_ C_ 0.324784 0.771702 0.247301 -0.08735
C_ C_ 0.303183 0.748077 0.270579 -0.08735
C_ C_ 0.319342 0.760874 0.298064 -0.08735
C_ C_ 0.345274 0.806548 0.303324 0.18498
C_ C_ 0.318238 0.839336 0.349308 0.44287
C_ C_ 0.40402 0.810855 0.342848 0.44287
C_ C_ 0.415216 0.822784 0.372309 -0.05681
C_ C_ 0.463019 0.815991 0.383984 -0.08735
C_ C_ 0.470397 0.824583 0.4129 -0.08735
C_ C_ 0.428884 0.828907 0.432182 -0.05681
C_ C_ 0.381014 0.83519 0.420219 -0.05681
C_ C_ 0.374316 0.836804 0.390383 -0.05681
C_ C_ 0.326304 0.844204 0.378759 -0.05681
C_ C_ 0.28528 0.849322 0.397111 -0.08735
C_ C_ 0.292387 0.84751 0.426274 -0.08735
C_ C_ 0.340737 0.844823 0.438018 -0.05681
C_ C_ 0.349657 0.849348 0.46808 0.44287
C_ C_ 0.436702 0.837558 0.462023 0.44287
C_ C_ 0.39797 0.835849 0.00912788 0.18498
C_ C_ 0.424896 0.879773 0.0153681 -0.08735
C_ C_ 0.440459 0.891229 0.0432376 -0.08735
C_ C_ 0.423994 0.862837 0.0657314 -0.08735
C_ C_ 0.38727 0.826146 0.0621139 0.18498
C_ C_ 0.381752 0.807362 0.032749 -0.05681
C_ C_ 0.352514 0.763523 0.0278829 -0.08735
C_ C_ 0.332436 0.738093 0.0526499 -0.08735
C_ C_ 0.337764 0.759524 0.0802156 0.1947
N_ N_ 0.135583 0.655606 0.476803 -0.29468
N_ N_ 0.150695 0.702809 0.0830864 -0.17154
N_ N_ 0.113318 0.65871 0.230382 -0.17154
N_ N_ 0.134676 0.694495 0.333621 -0.29468
N_ N_ 0.374834 0.839883 0.228845 -0.29468
N_ N_ 0.356976 0.822948 0.332325 -0.17154
N_ N_ 0.397567 0.847831 0.47964 -0.17154
N_ N_ 0.366001 0.80253 0.0847609 -0.29468
O_ O_ 0.211115 0.697143 0.426622 -0.58347
O_ O_ 0.206767 0.672864 0.381919 -0.58347
O_ O_ 0.118945 0.750331 0.43711 -0.58347
O_ O_ 0.13724 0.758094 0.3921 -0.58347
O_ O_ 0.14604 0.602241 0.420594 -0.58347
O_ O_ 0.134962 0.605366 0.374414 -0.58347
O_ O_ 0.0636651 0.662716 0.433398 -0.58347
O_ O_ 0.0580449 0.682538 0.387827 -0.58347
O_ O_ 0.0633728 0.713304 0.0782841 -0.46727
O_ O_ 0.236359 0.684617 0.0877617 -0.46727
O_ O_ 0.0305399 0.688601 0.22614 -0.46727
O_ O_ 0.197155 0.63649 0.236128 -0.46727
O_ O_ 0.28925 0.815025 0.179837 -0.58347
O_ O_ 0.296884 0.824318 0.133817 -0.58347
O_ O_ 0.381469 0.751831 0.185913 -0.58347
O_ O_ 0.365022 0.747217 0.139949 -0.58347
O_ O_ 0.351007 0.90082 0.171094 -0.58347
O_ O_ 0.383068 0.89332 0.126734 -0.58347
O_ O_ 0.439372 0.842425 0.181344 -0.58347
O_ O_ 0.448033 0.812962 0.136289 -0.58347
O_ O_ 0.439705 0.793519 0.325254 -0.46727
O_ O_ 0.271644 0.842897 0.338043 -0.46727
O_ O_ 0.481508 0.831431 0.473347 -0.46727
O_ O_ 0.313229 0.865554 0.483346 -0.46727
Zn Zn 0.126986 0.690186 0.881464 0.90689
Zn Zn 0.134357 0.68191 0.931677 0.90689
Zn Zn 0.384167 0.811062 0.630153 0.90689
Zn Zn 0.374082 0.812196 0.67812 0.90689
H_ H_ 0.297973 0.672952 0.943854 0.11455
H_ H_ 0.366116 0.67201 0.845029 0.11455
H_ H_ 0.276552 0.671395 0.853309 0.11455
H_ H_ 0.3895 0.676146 0.964759 0.11455
H_ H_ 0.47701 0.676803 0.954973 0.11455
H_ H_ 0.451382 0.666375 0.864017 0.11455
H_ H_ 0.0960528 0.517959 0.94247 0.11455
H_ H_ 0.150269 0.939937 0.847659 0.11455
H_ H_ 0.16999 0.53551 0.862735 0.11455
H_ H_ 0.0935071 0.935189 0.963675 0.11455
H_ H_ 0.101027 0.842614 0.959313 0.11455
H_ H_ 0.140057 0.854453 0.87102 0.11455
H_ H_ 0.0890032 0.601869 0.967338 0.11455
H_ H_ 0.0852169 0.559517 0.513452 0.11455
H_ H_ 0.122486 0.60185 0.551918 0.11455
H_ H_ 0.185588 0.753865 0.973051 0.11455
H_ H_ 0.236977 0.780713 0.511904 0.11455
H_ H_ 0.217496 0.760045 0.560068 0.11455
H_ H_ 1.0214262 0.69585 0.619641 0.11455
H_ H_ 1.00572754 0.68402 0.669696 0.11455
H_ H_ 0.26878 0.666 0.637435 0.11455
H_ H_ 0.258827 0.651433 0.687505 0.11455
H_ H_ 0.0774521 0.576405 0.747752 0.11455
H_ H_ 0.060274 0.550189 0.798314 0.11455
H_ H_ 0.0869157 0.605974 0.837047 0.11455
H_ H_ 0.159763 0.737753 0.754702 0.11455
H_ H_ 0.193245 0.787599 0.794881 0.11455
H_ H_ 0.17541 0.759934 0.844489 0.11455
H_ H_ 0.208267 0.8191 0.694058 0.11455
H_ H_ 0.134064 0.799923 0.598147 0.11455
H_ H_ 0.226776 0.802659 0.603725 0.11455
H_ H_ 0.123287 0.815346 0.714138 0.11455
H_ H_ 0.0322799 0.814406 0.707563 0.11455
H_ H_ 0.0500663 0.799163 0.618394 0.11455
H_ H_ 0.382248 0.978465 0.69327 0.11455
H_ H_ 0.388525 0.555832 0.594917 0.11455
H_ H_ 0.365789 0.965614 0.602792 0.11455
H_ H_ 0.378044 0.565779 0.712296 0.11455
H_ H_ 0.394209 0.65753 0.707252 0.11455
H_ H_ 0.386776 0.643173 0.616559 0.11455
H_ H_ 0.427422 0.887362 0.71395 0.11455
H_ H_ 0.448387 0.909838 0.767098 0.11455
H_ H_ 0.395412 0.872315 0.802193 0.11455
H_ H_ 0.318375 0.747445 0.722229 0.11455
H_ H_ 0.28373 0.696131 0.762312 0.11455
H_ H_ 0.287737 0.730681 0.808819 0.11455
H_ H_ 0.493519 0.794506 0.870428 0.11455
H_ H_ 0.503262 0.801522 0.922469 0.11455
H_ H_ 0.241952 0.824554 0.886776 0.11455
H_ H_ 0.253154 0.845922 0.937625 0.11455
H_ H_ 0.43678 0.901457 0.99797 0.11455
H_ H_ 0.457231 0.942251 0.557365 0.11455
H_ H_ 0.446278 0.867154 0.592239 0.11455
H_ H_ 0.34444 0.766621 0.503652 0.11455
H_ H_ 0.313371 0.711857 0.539952 0.11455
H_ H_ 0.323353 0.736566 0.589804 0.11455
C_ C_ 0.225856 0.693611 0.905822 0.68181
C_ C_ 0.281955 0.68588 0.900377 -0.05681
C_ C_ 0.315546 0.680922 0.922963 -0.08735
C_ C_ 0.366909 0.67431 0.918861 -0.05681
C_ C_ 0.386004 0.67023 0.890663 -0.05681
C_ C_ 0.352311 0.673627 0.867426 -0.08735
C_ C_ 0.299758 0.681704 0.871166 -0.08735
C_ C_ 0.402382 0.672037 0.942365 -0.08735
C_ C_ 0.45265 0.674194 0.935756 -0.08735
C_ C_ 0.471452 0.669462 0.90896 -0.05681
C_ C_ 0.437418 0.668257 0.885636 -0.08735
C_ C_ 0.118732 0.785033 0.911028 0.68181
C_ C_ 0.135013 0.58811 0.904728 0.68181
C_ C_ 0.1361 0.53195 0.902466 -0.05681
C_ C_ 0.124361 1.00113829 0.921076 -0.08735
C_ C_ 0.118461 0.947311 0.918481 -0.05681
C_ C_ 0.125931 0.923185 0.892143 -0.05681
C_ C_ 0.137157 0.954136 0.867659 -0.08735
C_ C_ 0.137373 0.00777104 0.870519 -0.08735
C_ C_ 0.100486 0.917487 0.942007 -0.08735
C_ C_ 0.10357 0.865295 0.940785 -0.08735
C_ C_ 0.112493 0.841853 0.91365 -0.05681
C_ C_ 0.12799 0.870525 0.890354 -0.08735
C_ C_ 0.0299011 0.677992 0.907759 0.68181
C_ C_ 0.103409 0.626098 0.984832 0.1947
C_ C_ 0.103929 0.594036 0.508824 -0.08735
C_ C_ 0.121122 0.619604 0.53197 -0.08735
C_ C_ 0.151146 0.665201 0.527225 -0.05681
C_ C_ 0.159485 0.680553 0.499038 0.18498
C_ C_ 0.178486 0.743433 0.995185 -0.08735
C_ C_ 0.211054 0.750849 0.515425 -0.08735
C_ C_ 0.199061 0.737741 0.543711 -0.08735
C_ C_ 0.167683 0.696794 0.550634 0.18498
C_ C_ 0.196482 0.677625 0.598919 0.44287
C_ C_ 0.10891 0.688632 0.59058 0.44287
C_ C_ 0.0991587 0.684564 0.621632 -0.05681
C_ C_ 0.0519867 0.686695 0.633908 -0.08735
C_ C_ 0.0453668 0.679715 0.662636 -0.08735
C_ C_ 0.0860801 0.676999 0.681542 -0.05681
C_ C_ 0.133112 0.666251 0.669043 -0.05681
C_ C_ 0.139164 0.674689 0.640006 -0.05681
C_ C_ 0.188575 0.673363 0.629016 -0.05681
C_ C_ 0.230599 0.66862 0.647131 -0.08735
C_ C_ 0.224118 0.656612 0.675775 -0.08735
C_ C_ 0.1753 0.660383 0.6881 -0.05681
C_ C_ 0.167822 0.656564 0.717757 0.44287
C_ C_ 0.0794045 0.670327 0.71086 0.44287
C_ C_ 0.111624 0.645123 0.759279 0.18498
C_ C_ 0.0904401 0.598301 0.765528 -0.08735
C_ C_ 0.0792004 0.585652 0.793206 -0.08735
C_ C_ 0.0993327 0.615589 0.815737 -0.08735
C_ C_ 0.115661 0.663616 0.810054 0.18498
C_ C_ 0.123937 0.679871 0.78192 -0.05681
C_ C_ 0.149849 0.725026 0.776793 -0.08735
C_ C_ 0.167867 0.754678 0.799953 -0.08735
C_ C_ 0.158781 0.73785 0.828113 0.1947
C_ C_ 0.27963 0.805846 0.653155 0.68181
C_ C_ 0.224966 0.807809 0.649195 -0.05681
C_ C_ 0.193436 0.814833 0.672965 -0.08735
C_ C_ 0.140993 0.812562 0.669634 -0.05681
C_ C_ 0.118218 0.809093 0.641949 -0.05681
C_ C_ 0.1498 0.804186 0.618495 -0.08735
C_ C_ 0.203621 0.802287 0.621834 -0.08735
C_ C_ 0.107478 0.822177 0.692742 -0.08735
C_ C_ 0.0538521 0.815425 0.689712 -0.08735
C_ C_ 0.0315361 0.808664 0.663238 -0.05681
C_ C_ 0.0642776 0.808207 0.639432 -0.08735
C_ C_ 0.38531 0.712475 0.658574 0.68181
C_ C_ 0.37211 0.91262 0.650976 0.68181
C_ C_ 0.36552 0.96651 0.648812 -0.05681
C_ C_ 0.365888 0.496674 0.669643 -0.08735
C_ C_ 0.373194 0.548956 0.666878 -0.05681
C_ C_ 0.381579 0.569855 0.639281 -0.05681
C_ C_ 0.391593 0.539056 0.615895 -0.08735
C_ C_ 0.362378 0.990423 0.621386 -0.08735
C_ C_ 0.377819 0.580242 0.691324 -0.08735
C_ C_ 0.385203 0.633203 0.688385 -0.08735
C_ C_ 0.381929 0.655424 0.66071 -0.05681
C_ C_ 0.381676 0.623799 0.636269 -0.08735
C_ C_ 0.473773 0.819757 0.659337 0.68181
C_ C_ 0.408661 0.86823 0.732017 0.1947
C_ C_ 0.417673 0.882903 0.760247 -0.08735
C_ C_ 0.392452 0.859711 0.780731 -0.08735
C_ C_ 0.364594 0.816678 0.777166 -0.05681
C_ C_ 0.358412 0.79844 0.749204 0.18498
C_ C_ 0.323745 0.760186 0.743808 -0.08735
C_ C_ 0.308415 0.727996 0.766567 -0.08735
C_ C_ 0.312288 0.747054 0.793917 -0.08735
C_ C_ 0.344002 0.787687 0.799986 0.18498
C_ C_ 0.314711 0.811921 0.847011 0.44287
C_ C_ 0.400671 0.795634 0.841293 0.44287
C_ C_ 0.41092 0.800795 0.870921 -0.05681
C_ C_ 0.459575 0.7966 0.883027 -0.08735
C_ C_ 0.465147 0.800563 0.913612 -0.08735
C_ C_ 0.422441 0.807365 0.932146 -0.05681
C_ C_ 0.37454 0.809559 0.920277 -0.05681
C_ C_ 0.369282 0.808811 0.889436 -0.05681
C_ C_ 0.321148 0.816691 0.87652 -0.05681
C_ C_ 0.277991 0.822858 0.894824 -0.08735
C_ C_ 0.284663 0.835488 0.92436 -0.08735
C_ C_ 0.33252 0.821269 0.937697 -0.05681
C_ C_ 0.342876 0.827545 0.966955 0.44287
C_ C_ 0.428746 0.812691 0.961449 0.44287
C_ C_ 0.406595 0.853066 0.51068 0.18498
C_ C_ 0.428464 0.899081 0.520671 -0.08735
C_ C_ 0.44232 0.906861 0.550088 -0.08735
C_ C_ 0.430508 0.867267 0.570274 -0.08735
C_ C_ 0.399502 0.825755 0.561683 0.18498
C_ C_ 0.387349 0.81722 0.532603 -0.05681
C_ C_ 0.358364 0.773267 0.525029 -0.08735
C_ C_ 0.342561 0.740805 0.54576 -0.08735
C_ C_ 0.348182 0.75488 0.574574 0.1947
N_ N_ 0.127992 0.672281 0.979178 -0.29468
N_ N_ 0.156757 0.685268 0.580449 -0.17154
N_ N_ 0.119716 0.659654 0.728506 -0.17154
N_ N_ 0.134122 0.692803 0.833059 -0.29468
N_ N_ 0.380002 0.825904 0.726882 -0.29468
N_ N_ 0.354075 0.800377 0.829967 -0.17154
N_ N_ 0.38878 0.82204 0.978921 -0.17154
N_ N_ 0.379335 0.795141 0.583152 -0.29468
O_ O_ 0.207375 0.693145 0.931103 -0.58347
O_ O_ 0.199738 0.697595 0.884419 -0.58347
O_ O_ 0.119765 0.758383 0.932803 -0.58347
O_ O_ 0.1221 0.764385 0.887105 -0.58347
O_ O_ 0.143182 0.60723 0.928667 -0.58347
O_ O_ 0.13599 0.615477 0.882411 -0.58347
O_ O_ 0.0601194 0.676689 0.928918 -0.58347
O_ O_ 0.0484255 0.684197 0.882835 -0.58347
O_ O_ 0.0705953 0.703437 0.574471 -0.46727
O_ O_ 0.24241 0.66751 0.588406 -0.46727
O_ O_ 0.031823 0.669909 0.720208 -0.46727
O_ O_ 0.207794 0.652334 0.735364 -0.46727
O_ O_ 0.297618 0.807459 0.678263 -0.58347
O_ O_ 0.308909 0.801524 0.632114 -0.58347
O_ O_ 0.378806 0.73754 0.681457 -0.58347
O_ O_ 0.386909 0.732745 0.634311 -0.58347
O_ O_ 0.359325 0.889773 0.672879 -0.58347
O_ O_ 0.37585 0.886547 0.628465 -0.58347
O_ O_ 0.446532 0.819652 0.681118 -0.58347
O_ O_ 0.456322 0.818606 0.633842 -0.58347
O_ O_ 0.439334 0.787673 0.823444 -0.46727
O_ O_ 0.269745 0.819675 0.835745 -0.46727
O_ O_ 0.475897 0.815824 0.971315 -0.46727
O_ O_ 0.304869 0.841583 0.983068 -0.46727
Zn Zn 0.622866 0.183636 0.382082 0.90689
Zn Zn 0.634955 0.179799 0.430124 0.90689
Zn Zn 0.862285 0.318143 0.13088 0.90689
Zn Zn 0.853754 0.322656 0.179905 0.90689
H_ H_ 0.801119 0.212706 0.436555 0.11455
H_ H_ 0.869462 0.150226 0.344831 0.11455
H_ H_ 0.779223 0.151363 0.355787 0.11455
H_ H_ 0.889523 0.215705 0.457248 0.11455
H_ H_ 0.97481 0.234437 0.446849 0.11455
H_ H_ 0.957945 0.157844 0.364763 0.11455
H_ H_ 0.611781 0.0132515 0.440428 0.11455
H_ H_ 0.61836 0.434131 0.349186 0.11455
H_ H_ 0.663027 0.0305013 0.354174 0.11455
H_ H_ 0.651637 0.431838 0.465819 0.11455
H_ H_ 0.649625 0.336868 0.461501 0.11455
H_ H_ 0.617496 0.351763 0.371098 0.11455
H_ H_ 0.564583 0.120597 0.467623 0.11455
H_ H_ 0.570157 0.0854694 0.0189846 0.11455
H_ H_ 0.594386 0.141685 0.0578622 0.11455
H_ H_ 0.697798 0.245363 0.475032 0.11455
H_ H_ 0.720894 0.309876 0.00996985 0.11455
H_ H_ 0.687408 0.297869 0.0597658 0.11455
H_ H_ 0.510582 0.206555 0.12449 0.11455
H_ H_ 0.499332 0.198445 0.175235 0.11455
H_ H_ 0.762003 0.178867 0.136586 0.11455
H_ H_ 0.751851 0.152758 0.188839 0.11455
H_ H_ 0.585054 0.0730244 0.249689 0.11455
H_ H_ 0.560672 0.0486399 0.299297 0.11455
H_ H_ 0.584863 0.107091 0.338578 0.11455
H_ H_ 0.633834 0.249168 0.258659 0.11455
H_ H_ 0.656637 0.304617 0.298858 0.11455
H_ H_ 0.651675 0.269147 0.348132 0.11455
H_ H_ 0.686442 0.306223 0.194577 0.11455
H_ H_ 0.617688 0.344074 0.0964934 0.11455
H_ H_ 0.710372 0.341832 0.106019 0.11455
H_ H_ 0.599335 0.30058 0.212361 0.11455
H_ H_ 0.508061 0.315774 0.207244 0.11455
H_ H_ 0.530169 0.331448 0.113866 0.11455
H_ H_ 0.876075 0.49122 0.193296 0.11455
H_ H_ 0.861751 0.0682691 0.0945245 0.11455
H_ H_ 0.840361 0.480506 0.104401 0.11455
H_ H_ 0.888972 0.0711211 0.210979 0.11455
H_ H_ 0.879037 0.165239 0.207903 0.11455
H_ H_ 0.862033 0.148629 0.118008 0.11455
H_ H_ 0.916704 0.391362 0.213153 0.11455
H_ H_ 0.92809 0.429457 0.260687 0.11455
H_ H_ 0.901019 0.377522 0.30417 0.11455
H_ H_ 0.799657 0.261057 0.220517 0.11455
H_ H_ 0.770059 0.207117 0.261223 0.11455
H_ H_ 0.791424 0.226305 0.309781 0.11455
H_ H_ 0.983835 0.317509 0.370478 0.11455
H_ H_ -0.007256999999999958 0.329793 0.421399 0.11455
H_ H_ 0.729007 0.32495 0.386319 0.11455
H_ H_ 0.739863 0.345479 0.437136 0.11455
H_ H_ 0.924565 0.419566 0.50142 0.11455
H_ H_ 0.963713 0.432259 0.0498412 0.11455
H_ H_ 0.908267 0.394343 0.0881446 0.11455
H_ H_ 0.844747 0.266251 0.00556056 0.11455
H_ H_ 0.786342 0.234248 0.0426217 0.11455
H_ H_ 0.808029 0.254304 0.0930754 0.11455
C_ C_ 0.72499 0.183127 0.402792 0.68181
C_ C_ 0.780396 0.18476 0.395845 -0.05681
C_ C_ 0.816979 0.196317 0.417305 -0.08735
C_ C_ 0.869884 0.191046 0.414293 -0.05681
C_ C_ 0.888804 0.179558 0.387027 -0.05681
C_ C_ 0.856668 0.170304 0.364521 -0.08735
C_ C_ 0.803487 0.171013 0.369526 -0.08735
C_ C_ 0.902428 0.205285 0.436295 -0.08735
C_ C_ 0.95357 0.210015 0.431311 -0.08735
C_ C_ 0.9744 0.191049 0.405904 -0.05681
C_ C_ 0.941204 0.174509 0.383498 -0.08735
C_ C_ 0.626382 0.282025 0.41419 0.68181
C_ C_ 0.633793 0.0836771 0.399886 0.68181
C_ C_ 0.63994 0.0283104 0.397513 -0.05681
C_ C_ 0.635504 0.500257 0.424327 -0.08735
C_ C_ 0.636592 0.445101 0.421046 -0.05681
C_ C_ 0.627305 0.422471 0.394265 -0.05681
C_ C_ 0.625855 0.452474 0.369536 -0.08735
C_ C_ 0.628142 0.505226 0.373008 -0.08735
C_ C_ 0.646022 0.413171 0.445073 -0.08735
C_ C_ 0.63782 0.359777 0.443022 -0.08735
C_ C_ 0.63266 0.337676 0.415904 -0.05681
C_ C_ 0.622012 0.368962 0.391969 -0.08735
C_ C_ 0.531964 0.17337 0.408896 0.68181
C_ C_ 0.59091 0.133229 0.483309 0.1947
C_ C_ 0.591336 0.119557 0.0142767 -0.08735
C_ C_ 0.608906 0.14864 0.0358887 -0.08735
C_ C_ 0.638518 0.190313 0.0302292 -0.05681
C_ C_ 0.655895 0.197317 1.00127696 0.18498
C_ C_ 0.682015 0.236769 0.495102 -0.08735
C_ C_ 0.698081 0.27704 0.0154056 -0.08735
C_ C_ 0.678744 0.270741 0.0437418 -0.08735
C_ C_ 0.65081 0.22615 0.0513984 0.18498
C_ C_ 0.685471 0.199043 0.098267 0.44287
C_ C_ 0.597711 0.219149 0.0943963 0.44287
C_ C_ 0.59105 0.204508 0.124558 -0.05681
C_ C_ 0.544353 0.200187 0.136909 -0.08735
C_ C_ 0.536856 0.190119 0.165774 -0.08735
C_ C_ 0.579848 0.183151 0.183935 -0.05681
C_ C_ 0.627019 0.18244 0.17086 -0.05681
C_ C_ 0.634314 0.19463 0.142021 -0.05681
C_ C_ 0.68187 0.196563 0.129268 -0.05681
C_ C_ 0.725275 0.18193 0.146345 -0.08735
C_ C_ 0.718387 0.166947 0.175658 -0.08735
C_ C_ 0.66943 0.172938 0.188691 -0.05681
C_ C_ 0.664047 0.166665 0.21799 0.44287
C_ C_ 0.575949 0.172492 0.21425 0.44287
C_ C_ 0.609978 0.147782 0.260356 0.18498
C_ C_ 0.590828 0.100353 0.266483 -0.08735
C_ C_ 0.579174 0.0856737 0.295478 -0.08735
C_ C_ 0.599462 0.115239 0.31808 -0.08735
C_ C_ 0.615936 0.165533 0.312406 0.18498
C_ C_ 0.620487 0.18198 0.283114 -0.05681
C_ C_ 0.631821 0.23262 0.279323 -0.08735
C_ C_ 0.643679 0.265098 0.302389 -0.08735
C_ C_ 0.638556 0.24624 0.330411 0.1947
C_ C_ 0.760614 0.316108 0.154881 0.68181
C_ C_ 0.704729 0.319957 0.149686 -0.05681
C_ C_ 0.671958 0.315329 0.173417 -0.08735
C_ C_ 0.619209 0.318205 0.169049 -0.05681
C_ C_ 0.598613 0.327261 0.140588 -0.05681
C_ C_ 0.631888 0.336389 0.116784 -0.08735
C_ C_ 0.68376 0.332738 0.122901 -0.08735
C_ C_ 0.586692 0.311932 0.192408 -0.08735
C_ C_ 0.534701 0.321252 0.188833 -0.08735
C_ C_ 0.51373 0.32581 0.161419 -0.05681
C_ C_ 0.545695 0.326791 0.136076 -0.08735
C_ C_ 0.871335 0.223442 0.159292 0.68181
C_ C_ 0.85656 0.420348 0.150367 0.68181
C_ C_ 0.852702 0.478501 0.149031 -0.05681
C_ C_ 0.889918 0.00652681 0.166794 -0.08735
C_ C_ 0.878253 0.0585301 0.166708 -0.05681
C_ C_ 0.872364 0.0818427 0.139923 -0.05681
C_ C_ 0.868955 0.0522344 0.114847 -0.08735
C_ C_ 0.84626 0.503398 0.123224 -0.08735
C_ C_ 0.886717 0.0900766 0.190549 -0.08735
C_ C_ 0.881425 0.14156 0.189504 -0.08735
C_ C_ 0.87986 0.165782 0.162069 -0.05681
C_ C_ 0.87051 0.134099 0.138112 -0.08735
C_ C_ 0.957823 0.316697 0.157661 0.68181
C_ C_ 0.897256 0.376101 0.231356 0.1947
C_ C_ 0.903936 0.396518 0.258623 -0.08735
C_ C_ 0.888201 0.367674 0.282717 -0.08735
C_ C_ 0.856432 0.323998 0.27813 -0.05681
C_ C_ 0.845437 0.309284 0.24861 0.18498
C_ C_ 0.814194 0.268216 0.242447 -0.08735
C_ C_ 0.792979 0.240651 0.2643 -0.08735
C_ C_ 0.806435 0.24998 0.292011 -0.08735
C_ C_ 0.835117 0.293028 0.299974 0.18498
C_ C_ 0.802286 0.312224 0.347797 0.44287
C_ C_ 0.892345 0.303447 0.341526 0.44287
C_ C_ 0.899578 0.31384 0.371679 -0.05681
C_ C_ 0.949356 0.317792 0.383894 -0.08735
C_ C_ 0.955023 0.329369 0.413709 -0.08735
C_ C_ 0.911866 0.333472 0.430454 -0.05681
C_ C_ 0.864565 0.331854 0.418785 -0.05681
C_ C_ 0.858036 0.325184 0.388633 -0.05681
C_ C_ 0.809042 0.322474 0.376902 -0.05681
C_ C_ 0.767789 0.331246 0.39494 -0.08735
C_ C_ 0.773571 0.337767 0.424972 -0.08735
C_ C_ 0.823678 0.341543 0.436965 -0.05681
C_ C_ 0.82985 0.342688 0.467622 0.44287
C_ C_ 0.918285 0.33838 0.461089 0.44287
C_ C_ 0.902158 0.347533 0.008276 0.18498
C_ C_ 0.935791 0.385886 0.0156747 -0.08735
C_ C_ 0.936463 0.404186 0.0437903 -0.08735
C_ C_ 0.911709 0.379622 0.066627 -0.08735
C_ C_ 0.881725 0.338254 0.0601318 0.18498
C_ C_ 0.874175 0.322733 0.0314585 -0.05681
C_ C_ 0.840462 0.282401 0.0256857 -0.08735
C_ C_ 0.819073 0.25737 0.048495 -0.08735
C_ C_ 0.825746 0.275583 0.076697 0.1947
N_ N_ 0.628664 0.167232 0.478109 -0.29468
N_ N_ 0.644036 0.213832 0.0823688 -0.17154
N_ N_ 0.616088 0.163691 0.230559 -0.17154
N_ N_ 0.625628 0.197434 0.33468 -0.29468
N_ N_ 0.865677 0.336013 0.226645 -0.29468
N_ N_ 0.843518 0.304577 0.330043 -0.17154
N_ N_ 0.877373 0.341658 0.479071 -0.17154
N_ N_ 0.861551 0.31087 0.0824466 -0.29468
O_ O_ 0.707555 0.175858 0.427751 -0.58347
O_ O_ 0.695577 0.194101 0.383135 -0.58347
O_ O_ 0.64248 0.253231 0.432942 -0.58347
O_ O_ 0.609898 0.26008 0.391208 -0.58347
O_ O_ 0.624047 0.105043 0.423084 -0.58347
O_ O_ 0.644501 0.111214 0.378887 -0.58347
O_ O_ 0.561114 0.18719 0.428673 -0.58347
O_ O_ 0.549114 0.166464 0.383742 -0.58347
O_ O_ 0.562392 0.245233 0.0813367 -0.46727
O_ O_ 0.728246 0.186047 0.0854892 -0.46727
O_ O_ 0.531395 0.179503 0.227821 -0.46727
O_ O_ 0.705627 0.158011 0.233043 -0.46727
O_ O_ 0.78069 0.326093 0.178629 -0.58347
O_ O_ 0.787548 0.31189 0.132098 -0.58347
O_ O_ 0.856739 0.247382 0.181543 -0.58347
O_ O_ 0.865975 0.241493 0.134947 -0.58347
O_ O_ 0.858132 0.397377 0.174609 -0.58347
O_ O_ 0.858322 0.393973 0.128679 -0.58347
O_ O_ 0.929257 0.317241 0.178677 -0.58347
O_ O_ 0.938752 0.320082 0.131956 -0.58347
O_ O_ 0.932109 0.294526 0.325624 -0.46727
O_ O_ 0.755544 0.305457 0.33774 -0.46727
O_ O_ 0.965235 0.340568 0.470884 -0.46727
O_ O_ 0.790738 0.350888 0.484456 -0.46727
Zn Zn 0.628471 0.18692 0.882602 0.90689
Zn Zn 0.639135 0.181821 0.930645 0.90689
Zn Zn 0.867108 0.304881 0.6313 0.90689
Zn Zn 0.857853 0.311892 0.678451 0.90689
H_ H_ 0.803916 0.199108 0.94562 0.11455
H_ H_ 0.877768 0.178721 0.848339 0.11455
H_ H_ 0.782022 0.190706 0.856578 0.11455
H_ H_ 0.893592 0.193447 0.966936 0.11455
H_ H_ 0.984998 0.205145 0.955026 0.11455
H_ H_ 0.956488 0.16145 0.868612 0.11455
H_ H_ 0.634154 0.0183839 0.944503 0.11455
H_ H_ 0.652997 0.443036 0.847531 0.11455
H_ H_ 0.634297 0.0278016 0.852297 0.11455
H_ H_ 0.600931 0.434256 0.963498 0.11455
H_ H_ 0.604899 0.339049 0.958023 0.11455
H_ H_ 0.631334 0.354499 0.86806 0.11455
H_ H_ 0.580398 0.115286 0.968306 0.11455
H_ H_ 0.557049 0.0878142 0.514622 0.11455
H_ H_ 0.593857 0.128382 0.555209 0.11455
H_ H_ 0.701833 0.246237 0.972873 0.11455
H_ H_ 0.718968 0.302127 0.51122 0.11455
H_ H_ 0.693775 0.283159 0.563239 0.11455
H_ H_ 0.508984 0.194919 0.625571 0.11455
H_ H_ 0.500438 0.187079 0.67904 0.11455
H_ H_ 0.761957 0.171832 0.636356 0.11455
H_ H_ 0.757042 0.167736 0.688736 0.11455
H_ H_ 0.59638 0.0759538 0.75017 0.11455
H_ H_ 0.569026 0.0546494 0.799552 0.11455
H_ H_ 0.588067 0.113155 0.839246 0.11455
H_ H_ 0.668252 0.239056 0.758507 0.11455
H_ H_ 0.681943 0.3003 0.800032 0.11455
H_ H_ 0.669699 0.26367 0.84824 0.11455
H_ H_ 0.687319 0.295211 0.694958 0.11455
H_ H_ 0.618221 0.330908 0.598661 0.11455
H_ H_ 0.715394 0.335921 0.605293 0.11455
H_ H_ 0.600331 0.31296 0.713612 0.11455
H_ H_ 0.511522 0.311622 0.7064 0.11455
H_ H_ 0.532808 0.324884 0.616873 0.11455
H_ H_ 0.832872 0.476853 0.686325 0.11455
H_ H_ 0.872188 0.0568048 0.598857 0.11455
H_ H_ 0.886424 0.467236 0.601512 0.11455
H_ H_ 0.883449 0.0653857 0.718314 0.11455
H_ H_ 0.892198 0.157959 0.711682 0.11455
H_ H_ 0.859274 0.140717 0.622424 0.11455
H_ H_ 0.911218 0.38966 0.712764 0.11455
H_ H_ 0.922961 0.427309 0.760036 0.11455
H_ H_ 0.881137 0.38153 0.802791 0.11455
H_ H_ 0.80434 0.250614 0.722709 0.11455
H_ H_ 0.776052 0.199544 0.764261 0.11455
H_ H_ 0.813508 0.215636 0.81228 0.11455
H_ H_ 0.983352 0.28721 0.866714 0.11455
H_ H_ -0.00136473 0.2848 0.918811 0.11455
H_ H_ 0.739675 0.353849 0.890964 0.11455
H_ H_ 0.759174 0.365618 0.940251 0.11455
H_ H_ 0.952873 0.406547 0.999242 0.11455
H_ H_ 0.953223 0.430332 0.551751 0.11455
H_ H_ 0.921844 0.376659 0.589447 0.11455
H_ H_ 0.837445 0.259697 0.501654 0.11455
H_ H_ 0.814447 0.198519 0.542903 0.11455
H_ H_ 0.832254 0.220775 0.590825 0.11455
C_ C_ 0.732942 0.183379 0.90624 0.68181
C_ C_ 0.788546 0.186049 0.90098 -0.05681
C_ C_ 0.820353 0.190772 0.92429 -0.08735
C_ C_ 0.873505 0.181816 0.920971 -0.05681
C_ C_ 0.891957 0.174565 0.893253 -0.05681
C_ C_ 0.860862 0.178342 0.869042 -0.08735
C_ C_ 0.807973 0.187277 0.873596 -0.08735
C_ C_ 0.906654 0.18751 0.944533 -0.08735
C_ C_ 0.958308 0.18697 0.939838 -0.08735
C_ C_ 0.977262 0.173796 0.912213 -0.05681
C_ C_ 0.943065 0.169965 0.889803 -0.08735
C_ C_ 0.629164 0.282622 0.912697 0.68181
C_ C_ 0.637186 0.0860826 0.901231 0.68181
C_ C_ 0.635582 0.0291564 0.899253 -0.05681
C_ C_ 0.617505 0.499012 0.920771 -0.08735
C_ C_ 0.616047 0.445703 0.917457 -0.05681
C_ C_ 0.631011 0.424043 0.891498 -0.05681
C_ C_ 0.64299 0.456517 0.867805 -0.08735
C_ C_ 0.650255 0.508752 0.873283 -0.08735
C_ C_ 0.606291 0.416408 0.942429 -0.08735
C_ C_ 0.611203 0.362668 0.939863 -0.08735
C_ C_ 0.623796 0.33989 0.914455 -0.05681
C_ C_ 0.625558 0.370859 0.889127 -0.08735
C_ C_ 0.534396 0.179615 0.907086 0.68181
C_ C_ 0.600015 0.135463 0.985657 0.1947
C_ C_ 0.582276 0.116206 0.510837 -0.08735
C_ C_ 0.605116 0.140738 0.533546 -0.08735
C_ C_ 0.638785 0.181519 0.530157 -0.05681
C_ C_ 0.650322 0.195036 0.500881 0.18498
C_ C_ 0.689741 0.23772 0.995028 -0.08735
C_ C_ 0.695515 0.268817 0.517429 -0.08735
C_ C_ 0.680303 0.258925 0.54594 -0.08735
C_ C_ 0.655813 0.21271 0.552642 0.18498
C_ C_ 0.688347 0.189441 0.59954 0.44287
C_ C_ 0.600218 0.205368 0.596189 0.44287
C_ C_ 0.591653 0.194109 0.625883 -0.05681
C_ C_ 0.543283 0.188956 0.638318 -0.08735
C_ C_ 0.538412 0.183902 0.668553 -0.08735
C_ C_ 0.581919 0.177668 0.6856 -0.05681
C_ C_ 0.627864 0.169785 0.672181 -0.05681
C_ C_ 0.634304 0.178216 0.641396 -0.05681
C_ C_ 0.682914 0.175894 0.628422 -0.05681
C_ C_ 0.725359 0.16861 0.646119 -0.08735
C_ C_ 0.721058 0.171315 0.675567 -0.08735
C_ C_ 0.673297 0.166369 0.688618 -0.05681
C_ C_ 0.667554 0.161383 0.718318 0.44287
C_ C_ 0.580103 0.176217 0.715087 0.44287
C_ C_ 0.61226 0.153473 0.761026 0.18498
C_ C_ 0.593838 0.10472 0.767314 -0.08735
C_ C_ 0.585935 0.0900775 0.795782 -0.08735
C_ C_ 0.601831 0.120374 0.817818 -0.08735
C_ C_ 0.623712 0.167945 0.812284 0.18498
C_ C_ 0.630503 0.183861 0.784039 -0.05681
C_ C_ 0.656915 0.22908 0.779558 -0.08735
C_ C_ 0.670117 0.260329 0.803325 -0.08735
C_ C_ 0.658136 0.242462 0.829955 0.1947
C_ C_ 0.762241 0.300206 0.65231 0.68181
C_ C_ 0.706867 0.30895 0.649367 -0.05681
C_ C_ 0.673054 0.301949 0.672737 -0.08735
C_ C_ 0.621343 0.312631 0.669208 -0.05681
C_ C_ 0.603074 0.321322 0.641473 -0.05681
C_ C_ 0.634143 0.327944 0.619696 -0.08735
C_ C_ 0.687278 0.328248 0.622937 -0.08735
C_ C_ 0.586863 0.313798 0.692308 -0.08735
C_ C_ 0.536176 0.309249 0.687553 -0.08735
C_ C_ 0.51679 0.310009 0.659974 -0.05681
C_ C_ 0.549613 0.316254 0.637353 -0.08735
C_ C_ 0.877849 0.212383 0.664375 0.68181
C_ C_ 0.855091 0.407078 0.646112 0.68181
C_ C_ 0.853972 0.463401 0.643976 -0.05681
C_ C_ 0.873976 -0.004163000000000028 0.673431 -0.08735
C_ C_ 0.87275 0.0488896 0.671801 -0.05681
C_ C_ 0.873981 0.0721112 0.645508 -0.05681
C_ C_ 0.876588 0.0405783 0.620287 -0.08735
C_ C_ 0.876305 0.487359 0.62 -0.08735
C_ C_ 0.879801 0.0803391 0.69664 -0.08735
C_ C_ 0.884057 0.133197 0.692998 -0.08735
C_ C_ 0.875609 0.156109 0.666461 -0.05681
C_ C_ 0.865984 0.124857 0.643374 -0.08735
C_ C_ 0.960288 0.319721 0.656273 0.68181
C_ C_ 0.896122 0.369024 0.729841 0.1947
C_ C_ 0.901434 0.391704 0.757412 -0.08735
C_ C_ 0.878375 0.366277 0.780612 -0.08735
C_ C_ 0.850335 0.323673 0.77695 -0.05681
C_ C_ 0.843562 0.304743 0.748672 0.18498
C_ C_ 0.813998 0.261423 0.744466 -0.08735
C_ C_ 0.800451 0.232625 0.767762 -0.08735
C_ C_ 0.812488 0.245676 0.795535 -0.08735
C_ C_ 0.834719 0.29314 0.800605 0.18498
C_ C_ 0.80845 0.325346 0.847758 0.44287
C_ C_ 0.894685 0.299615 0.840535 0.44287
C_ C_ 0.903977 0.303531 0.870734 -0.05681
C_ C_ 0.952132 0.299593 0.880616 -0.08735
C_ C_ 0.963121 0.299243 0.910435 -0.08735
C_ C_ 0.924976 0.318539 0.930246 -0.05681
C_ C_ 0.874926 0.325267 0.919488 -0.05681
C_ C_ 0.865875 0.32053 0.888928 -0.05681
C_ C_ 0.817716 0.333485 0.877154 -0.05681
C_ C_ 0.777638 0.347519 0.897111 -0.08735
C_ C_ 0.785762 0.347516 0.927239 -0.08735
C_ C_ 0.834807 0.33805 0.938937 -0.05681
C_ C_ 0.84448 0.344368 0.967036 0.44287
C_ C_ 0.932432 0.320724 0.959969 0.44287
C_ C_ 0.887913 0.350103 0.509769 0.18498
C_ C_ 0.919394 0.389866 0.5172 -0.08735
C_ C_ 0.92593 0.403038 0.546325 -0.08735
C_ C_ 0.910138 0.368479 0.568058 -0.08735
C_ C_ 0.883563 0.32464 0.561056 0.18498
C_ C_ 0.872564 0.315458 0.531548 -0.05681
C_ C_ 0.848064 0.270883 0.5253 -0.08735
C_ C_ 0.831092 0.236614 0.54676 -0.08735
C_ C_ 0.840904 0.24926 0.575422 0.1947
N_ N_ 0.637776 0.168361 0.979345 -0.29468
N_ N_ 0.646468 0.198318 0.582625 -0.17154
N_ N_ 0.621637 0.166064 0.730948 -0.17154
N_ N_ 0.630407 0.200941 0.835029 -0.29468
N_ N_ 0.863922 0.329448 0.725923 -0.29468
N_ N_ 0.846104 0.305566 0.831173 -0.17154
N_ N_ 0.892819 0.335477 0.977618 -0.17154
N_ N_ 0.865356 0.2935 0.582343 -0.29468
O_ O_ 0.716735 0.179328 0.931977 -0.58347
O_ O_ 0.701889 0.197171 0.886375 -0.58347
O_ O_ 0.638397 0.257397 0.935401 -0.58347
O_ O_ 0.616598 0.258578 0.889674 -0.58347
O_ O_ 0.635884 0.106549 0.926049 -0.58347
O_ O_ 0.637033 0.113737 0.87915 -0.58347
O_ O_ 0.561024 0.184522 0.929563 -0.58347
O_ O_ 0.556558 0.171682 0.883851 -0.58347
O_ O_ 0.564002 0.226407 0.58174 -0.46727
O_ O_ 0.734162 0.192785 0.588198 -0.46727
O_ O_ 0.540543 0.19776 0.727834 -0.46727
O_ O_ 0.707947 0.152242 0.734718 -0.46727
O_ O_ 0.782498 0.314335 0.676289 -0.58347
O_ O_ 0.790887 0.292985 0.630637 -0.58347
O_ O_ 0.864343 0.239895 0.685387 -0.58347
O_ O_ 0.882155 0.231261 0.639257 -0.58347
O_ O_ 0.855773 0.388389 0.670602 -0.58347
O_ O_ 0.853956 0.377843 0.623678 -0.58347
O_ O_ 0.935013 0.31223 0.678479 -0.58347
O_ O_ 0.941576 0.314851 0.631392 -0.58347
O_ O_ 0.929404 0.278185 0.824483 -0.46727
O_ O_ 0.76181 0.332336 0.83647 -0.46727
O_ O_ 0.97808 0.310332 0.970653 -0.46727
O_ O_ 0.809952 0.359695 0.983645 -0.46727
Zn Zn 0.63224 0.687264 0.382131 0.90689
Zn Zn 0.639415 0.686659 0.431535 0.90689
Zn Zn 0.871908 0.815098 0.132957 0.90689
Zn Zn 0.862657 0.824312 0.178797 0.90689
H_ H_ 0.806907 0.675928 0.445372 0.11455
H_ H_ 0.879616 0.664006 0.348104 0.11455
H_ H_ 0.789825 0.672023 0.352278 0.11455
H_ H_ 0.891649 0.665335 0.467015 0.11455
H_ H_ 0.982296 0.673781 0.461178 0.11455
H_ H_ 0.967519 0.679027 0.37104 0.11455
H_ H_ 0.648128 0.516081 0.443888 0.11455
H_ H_ 0.653453 0.934923 0.348775 0.11455
H_ H_ 0.634098 0.528287 0.352741 0.11455
H_ H_ 0.613501 0.930713 0.462343 0.11455
H_ H_ 0.617501 0.835779 0.458794 0.11455
H_ H_ 0.637071 0.850691 0.368801 0.11455
H_ H_ 0.570725 0.622517 0.466224 0.11455
H_ H_ 0.577061 0.574739 0.0128146 0.11455
H_ H_ 0.61349 0.622038 0.0548714 0.11455
H_ H_ 0.714803 0.728869 0.475478 0.11455
H_ H_ 0.723735 0.796803 0.00917148 0.11455
H_ H_ 0.697208 0.784661 0.0594195 0.11455
H_ H_ 0.504949 0.701624 0.12035 0.11455
H_ H_ 0.497972 0.716941 0.172592 0.11455
H_ H_ 0.748437 0.638399 0.137455 0.11455
H_ H_ 0.732711 0.630386 0.187424 0.11455
H_ H_ 0.560509 0.598018 0.249595 0.11455
H_ H_ 0.528886 0.580173 0.300211 0.11455
H_ H_ 0.576557 0.627127 0.340865 0.11455
H_ H_ 0.652801 0.75726 0.257726 0.11455
H_ H_ 0.694161 0.795617 0.299658 0.11455
H_ H_ 0.690618 0.7578 0.347856 0.11455
H_ H_ 0.702265 0.83669 0.191487 0.11455
H_ H_ 0.625833 0.849532 0.0968219 0.11455
H_ H_ 0.71931 0.83889 0.102869 0.11455
H_ H_ 0.617215 0.820182 0.213285 0.11455
H_ H_ 0.521293 0.830734 0.209802 0.11455
H_ H_ 0.538457 0.833429 0.11642 0.11455
H_ H_ 0.903003 0.987725 0.186716 0.11455
H_ H_ 0.850233 0.572401 0.100232 0.11455
H_ H_ 0.863684 0.974184 0.0984443 0.11455
H_ H_ 0.873376 0.576375 0.216766 0.11455
H_ H_ 0.875347 0.667122 0.21193 0.11455
H_ H_ 0.855418 0.656291 0.119542 0.11455
H_ H_ 0.911199 0.898571 0.215641 0.11455
H_ H_ 0.925802 0.92478 0.266985 0.11455
H_ H_ 0.883076 0.879943 0.307231 0.11455
H_ H_ 0.794308 0.76763 0.220395 0.11455
H_ H_ 0.753824 0.716513 0.259442 0.11455
H_ H_ 0.77662 0.732072 0.310467 0.11455
H_ H_ 0.984691 0.788607 0.367966 0.11455
H_ H_ 5.97914e-05 0.798793 0.418228 0.11455
H_ H_ 0.737878 0.830548 0.392178 0.11455
H_ H_ 0.751831 0.837362 0.440737 0.11455
H_ H_ 0.923262 0.905683 0.500465 0.11455
H_ H_ 0.952183 0.93369 0.0491387 0.11455
H_ H_ 0.93491 0.875026 0.0893863 0.11455
H_ H_ 0.852414 0.741546 0.00750699 0.11455
H_ H_ 0.809394 0.704384 0.0486982 0.11455
H_ H_ 0.818347 0.743058 0.0976587 0.11455
C_ C_ 0.733962 0.686357 0.404546 0.68181
C_ C_ 0.791553 0.678688 0.400683 -0.05681
C_ C_ 0.822549 0.67748 0.424654 -0.08735
C_ C_ 0.876211 0.674663 0.421665 -0.05681
C_ C_ 0.896729 0.676337 0.393209 -0.05681
C_ C_ 0.865086 0.674575 0.369525 -0.08735
C_ C_ 0.81155 0.678026 0.372624 -0.08735
C_ C_ 0.907704 0.669082 0.444995 -0.08735
C_ C_ 0.959217 0.671359 0.441839 -0.08735
C_ C_ 0.983329 0.672338 0.414079 -0.05681
C_ C_ 0.949862 0.671055 0.389875 -0.08735
C_ C_ 0.635928 0.784132 0.413216 0.68181
C_ C_ 0.636538 0.58814 0.400948 0.68181
C_ C_ 0.634013 0.530793 0.398884 -0.05681
C_ C_ 0.623006 0.996832 0.420176 -0.08735
C_ C_ 0.622464 0.942658 0.417221 -0.05681
C_ C_ 0.632119 0.921343 0.391408 -0.05681
C_ C_ 0.640388 0.95346 0.368192 -0.08735
C_ C_ 0.648074 1.00610995 0.371444 -0.08735
C_ C_ 0.617962 0.912964 0.442408 -0.08735
C_ C_ 0.619768 0.860204 0.440505 -0.08735
C_ C_ 0.628432 0.838474 0.41442 -0.05681
C_ C_ 0.631724 0.868805 0.389628 -0.08735
C_ C_ 0.539513 0.697237 0.407207 0.68181
C_ C_ 0.595865 0.6327 0.482967 0.1947
C_ C_ 0.584866 0.612824 0.0111371 -0.08735
C_ C_ 0.6119 0.63698 0.0335621 -0.08735
C_ C_ 0.635844 0.683711 0.0284599 -0.05681
C_ C_ 0.648759 0.694337 0.998424 0.18498
C_ C_ 0.695892 0.727291 0.496091 -0.08735
C_ C_ 0.694397 0.769525 0.0131349 -0.08735
C_ C_ 0.682349 0.759315 0.0424113 -0.08735
C_ C_ 0.654414 0.713772 0.0502733 0.18498
C_ C_ 0.681751 0.679479 0.0980926 0.44287
C_ C_ 0.596751 0.7032 0.0909812 0.44287
C_ C_ 0.587242 0.693775 0.121578 -0.05681
C_ C_ 0.539505 0.701769 0.134373 -0.08735
C_ C_ 0.535329 0.70749 0.16344 -0.08735
C_ C_ 0.575005 0.69389 0.182214 -0.05681
C_ C_ 0.620867 0.680004 0.169869 -0.05681
C_ C_ 0.627415 0.682127 0.139645 -0.05681
C_ C_ 0.674094 0.668633 0.127382 -0.05681
C_ C_ 0.714058 0.65174 0.146544 -0.08735
C_ C_ 0.707992 0.653552 0.175892 -0.08735
C_ C_ 0.661711 0.667407 0.188024 -0.05681
C_ C_ 0.654082 0.669249 0.218451 0.44287
C_ C_ 0.567663 0.692208 0.21302 0.44287
C_ C_ 0.597771 0.66842 0.26048 0.18498
C_ C_ 0.568565 0.625192 0.267285 -0.08735
C_ C_ 0.556197 0.610791 0.296445 -0.08735
C_ C_ 0.574933 0.64069 0.318497 -0.08735
C_ C_ 0.609087 0.680972 0.313235 0.18498
C_ C_ 0.617414 0.697358 0.284425 -0.05681
C_ C_ 0.647918 0.740997 0.279395 -0.08735
C_ C_ 0.671116 0.764132 0.30259 -0.08735
C_ C_ 0.667881 0.742828 0.33035 0.1947
C_ C_ 0.770602 0.822441 0.151736 0.68181
C_ C_ 0.714249 0.828484 0.147319 -0.05681
C_ C_ 0.683274 0.833085 0.171495 -0.08735
C_ C_ 0.629919 0.832374 0.168196 -0.05681
C_ C_ 0.607477 0.840516 0.141222 -0.05681
C_ C_ 0.639775 0.839425 0.116665 -0.08735
C_ C_ 0.692989 0.834697 0.120472 -0.08735
C_ C_ 0.598051 0.829069 0.19252 -0.08735
C_ C_ 0.544983 0.837162 0.190721 -0.08735
C_ C_ 0.522491 0.833722 0.163246 -0.05681
C_ C_ 0.554764 0.835595 0.138473 -0.08735
C_ C_ 0.866107 0.724132 0.164432 0.68181
C_ C_ 0.873614 0.916723 0.147416 0.68181
C_ C_ 0.878309 0.975561 0.143636 -0.05681
C_ C_ 0.86326 0.507843 0.173433 -0.08735
C_ C_ 0.861403 0.560706 0.17175 -0.05681
C_ C_ 0.857793 0.584667 0.144937 -0.05681
C_ C_ 0.849367 0.555594 0.121239 -0.08735
C_ C_ 0.874695 0.998569 0.116448 -0.08735
C_ C_ 0.870802 0.591812 0.195372 -0.08735
C_ C_ 0.873313 0.644414 0.192063 -0.08735
C_ C_ 0.868186 0.668066 0.165376 -0.05681
C_ C_ 0.863321 0.637809 0.140841 -0.08735
C_ C_ 0.96613 0.83031 0.16027 0.68181
C_ C_ 0.893584 0.878323 0.233191 0.1947
C_ C_ 0.898983 0.894284 0.261823 -0.08735
C_ C_ 0.877447 0.868097 0.284177 -0.08735
C_ C_ 0.848418 0.825172 0.277337 -0.05681
C_ C_ 0.837194 0.814632 0.247229 0.18498
C_ C_ 0.802309 0.775757 0.241476 -0.08735
C_ C_ 0.778519 0.749206 0.263775 -0.08735
C_ C_ 0.792609 0.758402 0.292921 -0.08735
C_ C_ 0.830464 0.794665 0.300426 0.18498
C_ C_ 0.807804 0.816357 0.348813 0.44287
C_ C_ 0.891938 0.796196 0.341346 0.44287
C_ C_ 0.90271 0.797762 0.370734 -0.05681
C_ C_ 0.951979 0.793357 0.381703 -0.08735
C_ C_ 0.961812 0.800549 0.411089 -0.08735
C_ C_ 0.923007 0.808631 0.430335 -0.05681
C_ C_ 0.87254 0.808032 0.419796 -0.05681
C_ C_ 0.862718 0.807596 0.390606 -0.05681
C_ C_ 0.813014 0.813135 0.37969 -0.05681
C_ C_ 0.775392 0.825579 0.398844 -0.08735
C_ C_ 0.782888 0.824037 0.427882 -0.08735
C_ C_ 0.832681 0.819902 0.439462 -0.05681
C_ C_ 0.843165 0.827948 0.469289 0.44287
C_ C_ 0.928798 0.813524 0.461158 0.44287
C_ C_ 0.905522 0.832193 0.00967772 0.18498
C_ C_ 0.925124 0.880384 0.0170022 -0.08735
C_ C_ 0.934204 0.89755 0.0450766 -0.08735
C_ C_ 0.924567 0.864586 0.0677411 -0.08735
C_ C_ 0.89835 0.819073 0.0629045 0.18498
C_ C_ 0.887407 0.802339 0.0337466 -0.05681
C_ C_ 0.856245 0.760286 0.0294317 -0.08735
C_ C_ 0.835457 0.73659 0.0519909 -0.08735
C_ C_ 0.841717 0.756698 0.0794626 0.1947
N_ N_ 0.630514 0.671344 0.478922 -0.29468
N_ N_ 0.645529 0.700868 0.0810444 -0.17154
N_ N_ 0.607663 0.678628 0.23053 -0.17154
N_ N_ 0.639016 0.701268 0.334837 -0.29468
N_ N_ 0.865393 0.836977 0.226489 -0.29468
N_ N_ 0.845303 0.803827 0.330465 -0.17154
N_ N_ 0.890751 0.821667 0.479367 -0.17154
N_ N_ 0.879083 0.79158 0.0854294 -0.29468
O_ O_ 0.712605 0.67997 0.42839 -0.58347
O_ O_ 0.707849 0.689219 0.382612 -0.58347
O_ O_ 0.647577 0.760857 0.435893 -0.58347
O_ O_ 0.62806 0.761768 0.389547 -0.58347
O_ O_ 0.63509 0.608077 0.425753 -0.58347
O_ O_ 0.632443 0.613552 0.378469 -0.58347
O_ O_ 0.56437 0.696732 0.429889 -0.58347
O_ O_ 0.558009 0.685968 0.383972 -0.58347
O_ O_ 0.559935 0.719621 0.0749818 -0.46727
O_ O_ 0.727046 0.669588 0.0854203 -0.46727
O_ O_ 0.524687 0.709643 0.224074 -0.46727
O_ O_ 0.690446 0.65448 0.236859 -0.46727
O_ O_ 0.789237 0.828921 0.176185 -0.58347
O_ O_ 0.79763 0.809585 0.131747 -0.58347
O_ O_ 0.861101 0.751245 0.186276 -0.58347
O_ O_ 0.875679 0.743548 0.140828 -0.58347
O_ O_ 0.862959 0.899344 0.172357 -0.58347
O_ O_ 0.866084 0.88994 0.125622 -0.58347
O_ O_ 0.936336 0.824825 0.181254 -0.58347
O_ O_ 0.948565 0.825951 0.135595 -0.58347
O_ O_ 0.929838 0.793257 0.322616 -0.46727
O_ O_ 0.764567 0.830102 0.338916 -0.46727
O_ O_ 0.973084 0.8057 0.472508 -0.46727
O_ O_ 0.80616 0.835981 0.487577 -0.46727
Zn Zn 0.62266 0.690092 0.882595 0.90689
Zn Zn 0.632178 0.679524 0.93046 0.90689
Zn Zn 0.881624 0.803038 0.631312 0.90689
Zn Zn 0.870348 0.816328 0.679027 0.90689
H_ H_ 0.79803 0.681916 0.94645 0.11455
H_ H_ 0.86679 0.674233 0.849156 0.11455
H_ H_ 0.775671 0.682777 0.857653 0.11455
H_ H_ 0.887872 0.676852 0.967929 0.11455
H_ H_ 0.974465 0.700291 0.953749 0.11455
H_ H_ 0.955501 0.681108 0.869828 0.11455
H_ H_ 0.605592 0.516107 0.941015 0.11455
H_ H_ 0.627981 0.931849 0.848138 0.11455
H_ H_ 0.668699 0.532648 0.857651 0.11455
H_ H_ 0.604366 0.936193 0.966874 0.11455
H_ H_ 0.605987 0.841173 0.961763 0.11455
H_ H_ 0.637594 0.854475 0.870503 0.11455
H_ H_ 0.577982 0.604026 0.967274 0.11455
H_ H_ 0.558949 0.586077 0.513718 0.11455
H_ H_ 0.607795 0.625413 0.55558 0.11455
H_ H_ 0.697752 0.740289 0.970496 0.11455
H_ H_ 0.750628 0.780764 0.512931 0.11455
H_ H_ 0.718257 0.766798 0.563353 0.11455
H_ H_ 0.515511 0.710895 0.622273 0.11455
H_ H_ 0.507037 0.697854 0.674942 0.11455
H_ H_ 0.764627 0.65361 0.638877 0.11455
H_ H_ 0.753073 0.646889 0.68899 0.11455
H_ H_ 0.563824 0.587334 0.749554 0.11455
H_ H_ 0.554629 0.560847 0.799951 0.11455
H_ H_ 0.573711 0.626375 0.839113 0.11455
H_ H_ 0.663722 0.742302 0.756184 0.11455
H_ H_ 0.700434 0.788381 0.797498 0.11455
H_ H_ 0.678807 0.761489 0.846611 0.11455
H_ H_ 0.706569 0.817409 0.695808 0.11455
H_ H_ 0.633755 0.848953 0.599266 0.11455
H_ H_ 0.724883 0.824561 0.60354 0.11455
H_ H_ 0.619188 0.812955 0.715661 0.11455
H_ H_ 0.527864 0.809095 0.709909 0.11455
H_ H_ 0.549579 0.851785 0.620392 0.11455
H_ H_ 0.86696 0.976803 0.692891 0.11455
H_ H_ 0.89977 0.553132 0.598942 0.11455
H_ H_ 0.899119 0.970382 0.601728 0.11455
H_ H_ 0.844026 0.56468 0.71355 0.11455
H_ H_ 0.858438 0.656261 0.707127 0.11455
H_ H_ 0.882793 0.636608 0.617128 0.11455
H_ H_ 0.93519 0.87469 0.715787 0.11455
H_ H_ 0.932479 0.923033 0.763251 0.11455
H_ H_ 0.899415 0.870538 0.806551 0.11455
H_ H_ 0.803237 0.75779 0.725579 0.11455
H_ H_ 0.772122 0.702133 0.765457 0.11455
H_ H_ 0.80129 0.721533 0.814939 0.11455
H_ H_ 1.0001636 0.800603 0.869013 0.11455
H_ H_ 1.0109179 0.802152 0.922449 0.11455
H_ H_ 0.744902 0.818573 0.891319 0.11455
H_ H_ 0.757158 0.823191 0.942468 0.11455
H_ H_ 0.938659 0.903189 0.99934 0.11455
H_ H_ 0.966011 0.916781 0.548102 0.11455
H_ H_ 0.936102 0.865206 0.590322 0.11455
H_ H_ 0.851547 0.744211 0.505989 0.11455
H_ H_ 0.800307 0.705611 0.547065 0.11455
H_ H_ 0.821536 0.728108 0.595056 0.11455
C_ C_ 0.726357 0.690646 0.908492 0.68181
C_ C_ 0.781582 0.6862 0.903259 -0.05681
C_ C_ 0.815439 0.682744 0.925788 -0.08735
C_ C_ 0.867947 0.675338 0.921782 -0.05681
C_ C_ 0.88692 0.671357 0.893676 -0.05681
C_ C_ 0.853364 0.680922 0.870909 -0.08735
C_ C_ 0.80066 0.682855 0.87615 -0.08735
C_ C_ 0.901201 0.671003 0.945733 -0.08735
C_ C_ 0.953725 0.676344 0.941045 -0.08735
C_ C_ 0.974214 0.674259 0.912877 -0.05681
C_ C_ 0.93968 0.676548 0.88995 -0.08735
C_ C_ 0.619871 0.78209 0.914167 0.68181
C_ C_ 0.636122 0.58778 0.900102 0.68181
C_ C_ 0.637275 0.529918 0.89835 -0.05681
C_ C_ 0.632144 -0.00034263 0.923709 -0.08735
C_ C_ 0.62345 0.948718 0.922004 -0.05681
C_ C_ 0.623026 0.924804 0.895143 -0.05681
C_ C_ 0.625784 0.952367 0.869645 -0.08735
C_ C_ 0.631046 0.00438077 0.871674 -0.08735
C_ C_ 0.614252 0.919078 0.946433 -0.08735
C_ C_ 0.614757 0.865045 0.9439 -0.08735
C_ C_ 0.621706 0.839122 0.917272 -0.05681
C_ C_ 0.627584 0.870902 0.892312 -0.08735
C_ C_ 0.527166 0.675537 0.904641 0.68181
C_ C_ 0.591397 0.629573 0.983468 0.1947
C_ C_ 0.588142 0.615269 0.510588 -0.08735
C_ C_ 0.613744 0.639415 0.533907 -0.08735
C_ C_ 0.645898 0.680624 0.529781 -0.05681
C_ C_ 0.656523 0.692178 0.501116 0.18498
C_ C_ 0.681723 0.735397 0.99226 -0.08735
C_ C_ 0.719418 0.75444 0.51778 -0.08735
C_ C_ 0.701581 0.74663 0.545985 -0.08735
C_ C_ 0.666309 0.709579 0.552402 0.18498
C_ C_ 0.692942 0.68057 0.598883 0.44287
C_ C_ 0.608244 0.708162 0.593713 0.44287
C_ C_ 0.598875 0.700043 0.623385 -0.05681
C_ C_ 0.54994 0.705778 0.636251 -0.08735
C_ C_ 0.54462 0.698369 0.666008 -0.08735
C_ C_ 0.584055 0.684931 0.682993 -0.05681
C_ C_ 0.632101 0.678412 0.670191 -0.05681
C_ C_ 0.639245 0.68666 0.640974 -0.05681
C_ C_ 0.686656 0.675385 0.628124 -0.05681
C_ C_ 0.726043 0.65861 0.646326 -0.08735
C_ C_ 0.720106 0.655846 0.675509 -0.08735
C_ C_ 0.673198 0.661575 0.687455 -0.05681
C_ C_ 0.663102 0.653518 0.718 0.44287
C_ C_ 0.579976 0.688303 0.71308 0.44287
C_ C_ 0.605958 0.65514 0.760183 0.18498
C_ C_ 0.575058 0.61288 0.766759 -0.08735
C_ C_ 0.56424 0.600361 0.795269 -0.08735
C_ C_ 0.579173 0.634157 0.817566 -0.08735
C_ C_ 0.61161 0.674673 0.811868 0.18498
C_ C_ 0.6251 0.684845 0.783253 -0.05681
C_ C_ 0.656148 0.728417 0.777776 -0.08735
C_ C_ 0.675979 0.755691 0.800571 -0.08735
C_ C_ 0.663522 0.741664 0.828491 0.1947
C_ C_ 0.775278 0.814951 0.654679 0.68181
C_ C_ 0.721361 0.819501 0.649833 -0.05681
C_ C_ 0.689928 0.818792 0.674467 -0.08735
C_ C_ 0.636865 0.825248 0.671409 -0.05681
C_ C_ 0.616766 0.837404 0.644173 -0.05681
C_ C_ 0.648514 0.836923 0.619454 -0.08735
C_ C_ 0.701985 0.829231 0.62258 -0.08735
C_ C_ 0.604248 0.82062 0.694797 -0.08735
C_ C_ 0.551492 0.821352 0.691289 -0.08735
C_ C_ 0.52879 0.828443 0.663532 -0.05681
C_ C_ 0.562116 0.839915 0.640707 -0.08735
C_ C_ 0.872614 0.709799 0.660132 0.68181
C_ C_ 0.871833 0.909672 0.649143 0.68181
C_ C_ 0.880475 0.963981 0.648705 -0.05681
C_ C_ 0.848525 0.49457 0.668437 -0.08735
C_ C_ 0.858458 0.547342 0.667591 -0.05681
C_ C_ 0.872119 0.569626 0.64159 -0.05681
C_ C_ 0.883439 0.538388 0.618691 -0.08735
C_ C_ 0.888992 0.989241 0.621966 -0.08735
C_ C_ 0.851602 0.579517 0.691796 -0.08735
C_ C_ 0.859872 0.633001 0.688817 -0.08735
C_ C_ 0.866441 0.654558 0.662467 -0.05681
C_ C_ 0.874752 0.622872 0.638533 -0.08735
C_ C_ 0.976112 0.806294 0.659208 0.68181
C_ C_ 0.912135 0.861309 0.73301 0.1947
C_ C_ 0.917131 0.884582 0.760988 -0.08735
C_ C_ 0.893136 0.859102 0.784727 -0.08735
C_ C_ 0.865176 0.815055 0.779507 -0.05681
C_ C_ 0.85222 0.801757 0.750186 0.18498
C_ C_ 0.817885 0.761899 0.745684 -0.08735
C_ C_ 0.80188 0.73252 0.768083 -0.08735
C_ C_ 0.816167 0.743967 0.796053 -0.08735
C_ C_ 0.849909 0.781991 0.80224 0.18498
C_ C_ 0.820663 0.807836 0.84946 0.44287
C_ C_ 0.907967 0.792406 0.843628 0.44287
C_ C_ 0.916921 0.804412 0.871439 -0.05681
C_ C_ 0.966611 0.803822 0.882927 -0.08735
C_ C_ 0.972891 0.797131 0.912934 -0.08735
C_ C_ 0.933567 0.807265 0.932266 -0.05681
C_ C_ 0.88351 0.811194 0.921243 -0.05681
C_ C_ 0.876089 0.806721 0.890946 -0.05681
C_ C_ 0.826957 0.810418 0.880015 -0.05681
C_ C_ 0.78427 0.812186 0.898792 -0.08735
C_ C_ 0.792458 0.816886 0.928533 -0.08735
C_ C_ 0.842999 0.818156 0.939271 -0.05681
C_ C_ 0.852343 0.826093 0.968264 0.44287
C_ C_ 0.938861 0.806538 0.962402 0.44287
C_ C_ 0.901223 0.830158 0.508963 0.18498
C_ C_ 0.920876 0.877383 0.515973 -0.08735
C_ C_ 0.937633 0.886866 0.544301 -0.08735
C_ C_ 0.924587 0.856404 0.567083 -0.08735
C_ C_ 0.89241 0.815501 0.562429 0.18498
C_ C_ 0.885644 0.798983 0.532491 -0.05681
C_ C_ 0.854432 0.757749 0.527268 -0.08735
C_ C_ 0.830719 0.732815 0.549745 -0.08735
C_ C_ 0.841687 0.745018 0.57873 0.1947
N_ N_ 0.623191 0.668242 0.97679 -0.29468
N_ N_ 0.655005 0.699109 0.582717 -0.17154
N_ N_ 0.617583 0.669361 0.730251 -0.17154
N_ N_ 0.627226 0.706071 0.834332 -0.29468
N_ N_ 0.875548 0.826279 0.727662 -0.29468
N_ N_ 0.859608 0.793121 0.832324 -0.17154
N_ N_ 0.899185 0.81937 0.978976 -0.17154
N_ N_ 0.87246 0.785588 0.583953 -0.29468
O_ O_ 0.706588 0.679165 0.932382 -0.58347
O_ O_ 0.698254 0.700581 0.887502 -0.58347
O_ O_ 0.636747 0.75299 0.934073 -0.58347
O_ O_ 0.608117 0.761671 0.890547 -0.58347
O_ O_ 0.629674 0.60698 0.924504 -0.58347
O_ O_ 0.637127 0.616927 0.877647 -0.58347
O_ O_ 0.556057 0.681305 0.927134 -0.58347
O_ O_ 0.547758 0.675975 0.879705 -0.58347
O_ O_ 0.572052 0.725444 0.577093 -0.46727
O_ O_ 0.736677 0.671363 0.586725 -0.46727
O_ O_ 0.54048 0.710848 0.725417 -0.46727
O_ O_ 0.698194 0.628884 0.733318 -0.46727
O_ O_ 0.793881 0.818988 0.67916 -0.58347
O_ O_ 0.804564 0.805481 0.633926 -0.58347
O_ O_ 0.868298 0.740195 0.681959 -0.58347
O_ O_ 0.886389 0.728475 0.635774 -0.58347
O_ O_ 0.870816 0.887915 0.673133 -0.58347
O_ O_ 0.874218 0.881191 0.626693 -0.58347
O_ O_ 0.943941 0.81392 0.679313 -0.58347
O_ O_ 0.958684 0.802049 0.633828 -0.58347
O_ O_ 0.945725 0.775006 0.827591 -0.46727
O_ O_ 0.777494 0.822524 0.837986 -0.46727
O_ O_ 0.98278 0.800661 0.973712 -0.46727
O_ O_ 0.814644 0.840865 0.985256 -0.46727
_cell_length_a 26.376
_cell_length_b 26.400000238300095
_cell_length_c 46.67800035477134
_cell_angle_alpha 90.00700052986613
_cell_angle_beta 89.99899961309502
_cell_angle_gamma 90.45000003183146
_symmetry_space_group_name_H-M         'P 1'
_symmetry_Int_Tables_number            1
loop_
_symmetry_equiv_pos_as_xyz
   'x, y, z'
                         
loop_
_atom_site_label
_atom_site_type_symbol
_atom_site_fract_x 
_atom_site_fract_y
_atom_site_fract_z
_atom_site_charge
Zn Zn 0.12394 0.187229 0.380049 0.90689
Zn Zn 0.12628 0.175999 0.428588 0.90689
Zn Zn 0.367705 0.31591 0.136183 0.90689
Zn Zn 0.353637 0.330494 0.181631 0.90689
H_ H_ 0.301349 0.188425 0.446901 0.11455
H_ H_ 0.369028 0.168837 0.349457 0.11455
H_ H_ 0.277461 0.169563 0.356334 0.11455
H_ H_ 0.386801 0.18116 0.467497 0.11455
H_ H_ 0.478268 0.19142 0.45876 0.11455
H_ H_ 0.454318 0.183114 0.367688 0.11455
H_ H_ 0.110558 0.0137057 0.445142 0.11455
H_ H_ 0.162122 0.433189 0.347978 0.11455
H_ H_ 0.182507 0.019387 0.362521 0.11455
H_ H_ 0.112186 0.428952 0.462832 0.11455
H_ H_ 0.0993203 0.335099 0.456705 0.11455
H_ H_ 0.152141 0.344729 0.372088 0.11455
H_ H_ 0.065161 0.103866 0.465078 0.11455
H_ H_ 0.0600957 0.0859718 0.0114669 0.11455
H_ H_ 0.0981499 0.122874 0.0528733 0.11455
H_ H_ 0.185429 0.238251 0.470789 0.11455
H_ H_ 0.240384 0.289033 0.0153219 0.11455
H_ H_ 0.21713 0.260096 0.0634682 0.11455
H_ H_ 0.0187363 0.193738 0.125931 0.11455
H_ H_ 0.0110449 0.175256 0.175608 0.11455
H_ H_ 0.267753 0.142096 0.137468 0.11455
H_ H_ 0.261747 0.150354 0.189113 0.11455
H_ H_ 0.105688 0.0617436 0.250541 0.11455
H_ H_ 0.077546 0.0409772 0.298637 0.11455
H_ H_ 0.069748 0.111431 0.336761 0.11455
H_ H_ 0.15873 0.237615 0.254535 0.11455
H_ H_ 0.179701 0.290677 0.294422 0.11455
H_ H_ 0.164603 0.265032 0.342094 0.11455
H_ H_ 0.188914 0.308972 0.199503 0.11455
H_ H_ 0.120302 0.325182 0.0984436 0.11455
H_ H_ 0.213121 0.324385 0.109073 0.11455
H_ H_ 0.101791 0.290142 0.215135 0.11455
H_ H_ 0.00771165 0.307338 0.2074 0.11455
H_ H_ 0.0281705 0.318791 0.117843 0.11455
H_ H_ 0.363661 0.492623 0.196399 0.11455
H_ H_ 0.403063 0.07069 0.0994907 0.11455
H_ H_ 0.348117 0.480167 0.106549 0.11455
H_ H_ 0.350665 0.0731758 0.21477 0.11455
H_ H_ 0.35533 0.164149 0.209455 0.11455
H_ H_ 0.391301 0.156261 0.121683 0.11455
H_ H_ 0.418145 0.39801 0.216597 0.11455
H_ H_ 0.438446 0.424077 0.265893 0.11455
H_ H_ 0.409336 0.372323 0.305276 0.11455
H_ H_ 0.289378 0.274916 0.227055 0.11455
H_ H_ 0.270881 0.209787 0.26198 0.11455
H_ H_ 0.30754 0.22253 0.310211 0.11455
H_ H_ 0.491214 0.299282 0.374837 0.11455
H_ H_ 0.500451 0.298711 0.427077 0.11455
H_ H_ 0.239942 0.325796 0.384584 0.11455
H_ H_ 0.244931 0.315249 0.438466 0.11455
H_ H_ 0.423891 0.398657 0.50123 0.11455
H_ H_ 0.457617 0.43099 0.0524492 0.11455
H_ H_ 0.421635 0.377503 0.0938256 0.11455
H_ H_ 0.354905 0.246376 0.01147 0.11455
H_ H_ 0.310074 0.203987 0.0506064 0.11455
H_ H_ 0.309743 0.241789 0.100548 0.11455
C_ C_ 0.223724 0.180588 0.406593 0.68181
C_ C_ 0.28088 0.17642 0.403275 -0.05681
C_ C_ 0.316467 0.18125 0.426681 -0.08735
C_ C_ 0.370021 0.174976 0.422178 -0.05681
C_ C_ 0.388796 0.170631 0.39384 -0.05681
C_ C_ 0.354263 0.168961 0.371557 -0.08735
C_ C_ 0.30071 0.168821 0.375992 -0.08735
C_ C_ 0.402036 0.181254 0.445584 -0.08735
C_ C_ 0.454123 0.176893 0.440644 -0.08735
C_ C_ 0.474985 0.177038 0.412794 -0.05681
C_ C_ 0.441033 0.172312 0.389111 -0.08735
C_ C_ 0.123014 0.280489 0.408558 0.68181
C_ C_ 0.139898 0.0845352 0.402822 0.68181
C_ C_ 0.137446 0.0275391 0.400715 -0.05681
C_ C_ 0.131647 0.495789 0.420528 -0.08735
C_ C_ 0.12773 0.442878 0.418409 -0.05681
C_ C_ 0.13934 0.419174 0.391878 -0.05681
C_ C_ 0.153261 0.448335 0.367706 -0.08735
C_ C_ 0.148381 0.502755 0.36891 -0.08735
C_ C_ 0.112587 0.412378 0.441423 -0.08735
C_ C_ 0.108897 0.359435 0.43828 -0.08735
C_ C_ 0.12114 0.337322 0.41319 -0.05681
C_ C_ 0.133841 0.366653 0.389443 -0.08735
C_ C_ 0.0296465 0.180898 0.403973 0.68181
C_ C_ 0.0844002 0.122051 0.482349 0.1947
C_ C_ 0.0843621 0.117427 0.0079439 -0.08735
C_ C_ 0.107523 0.139294 0.0326716 -0.08735
C_ C_ 0.145162 0.177217 0.0296794 -0.05681
C_ C_ 0.156208 0.193528 1.000721684 0.18498
C_ C_ 0.167179 0.234894 0.491519 -0.08735
C_ C_ 0.215924 0.255149 0.0176835 -0.08735
C_ C_ 0.20111 0.242409 0.0459352 -0.08735
C_ C_ 0.165186 0.204232 0.0532863 0.18498
C_ C_ 0.196221 0.171316 0.0987461 0.44287
C_ C_ 0.111588 0.200928 0.0960855 0.44287
C_ C_ 0.102425 0.189186 0.124916 -0.05681
C_ C_ 0.0546051 0.189474 0.138107 -0.08735
C_ C_ 0.0494325 0.17486 0.166962 -0.08735
C_ C_ 0.0915943 0.170545 0.184867 -0.05681
C_ C_ 0.13875 0.165769 0.171791 -0.05681
C_ C_ 0.143831 0.171605 0.141437 -0.05681
C_ C_ 0.191856 0.165862 0.12939 -0.05681
C_ C_ 0.232494 0.150779 0.146226 -0.08735
C_ C_ 0.228511 0.153701 0.175655 -0.08735
C_ C_ 0.182342 0.157928 0.189085 -0.05681
C_ C_ 0.177443 0.150361 0.218387 0.44287
C_ C_ 0.0877203 0.157637 0.214851 0.44287
C_ C_ 0.125604 0.137745 0.260996 0.18498
C_ C_ 0.105078 0.0906871 0.26736 -0.08735
C_ C_ 0.0882075 0.0792749 0.295549 -0.08735
C_ C_ 0.0902814 0.116841 0.315987 -0.08735
C_ C_ 0.119219 0.16194 0.311467 0.18498
C_ C_ 0.132975 0.174011 0.282836 -0.05681
C_ C_ 0.149298 0.223797 0.275969 -0.08735
C_ C_ 0.155488 0.257963 0.2986 -0.08735
C_ C_ 0.152058 0.24131 0.326288 0.1947
C_ C_ 0.261676 0.322274 0.158831 0.68181
C_ C_ 0.206249 0.317055 0.153663 -0.05681
C_ C_ 0.173227 0.308345 0.177128 -0.08735
C_ C_ 0.119063 0.309291 0.172055 -0.05681
C_ C_ 0.0995504 0.31826 0.143629 -0.05681
C_ C_ 0.134129 0.321664 0.120223 -0.08735
C_ C_ 0.187093 0.319926 0.126096 -0.08735
C_ C_ 0.0863834 0.302651 0.19393 -0.08735
C_ C_ 0.0331781 0.302888 0.189868 -0.08735
C_ C_ 0.013678 0.311679 0.162278 -0.05681
C_ C_ 0.046602 0.31808 0.138624 -0.08735
C_ C_ 0.369239 0.224541 0.163142 0.68181
C_ C_ 0.356675 0.422102 0.153062 0.68181
C_ C_ 0.355673 0.479088 0.151145 -0.05681
C_ C_ 0.360964 0.0091572 0.171147 -0.08735
C_ C_ 0.367418 0.0617499 0.169306 -0.05681
C_ C_ 0.374681 0.0836707 0.142131 -0.05681
C_ C_ 0.390004 0.0539416 0.120094 -0.08735
C_ C_ 0.349943 0.504071 0.12453 -0.08735
C_ C_ 0.361066 0.0923479 0.194505 -0.08735
C_ C_ 0.365382 0.143084 0.192027 -0.08735
C_ C_ 0.370701 0.166143 0.165241 -0.05681
C_ C_ 0.382337 0.137109 0.142028 -0.08735
C_ C_ 0.457307 0.323325 0.157472 0.68181
C_ C_ 0.39799 0.38011 0.234686 0.1947
C_ C_ 0.414769 0.391368 0.262366 -0.08735
C_ C_ 0.394915 0.36432 0.284819 -0.08735
C_ C_ 0.362221 0.321597 0.279374 -0.05681
C_ C_ 0.344961 0.313752 0.251236 0.18498
C_ C_ 0.312725 0.272498 0.244442 -0.08735
C_ C_ 0.299816 0.238549 0.266063 -0.08735
C_ C_ 0.320148 0.246728 0.29353 -0.08735
C_ C_ 0.349027 0.288143 0.300734 0.18498
C_ C_ 0.313937 0.30882 0.34698 0.44287
C_ C_ 0.404549 0.297193 0.343152 0.44287
C_ C_ 0.410969 0.304725 0.37305 -0.05681
C_ C_ 0.457213 0.301599 0.38692 -0.08735
C_ C_ 0.462909 0.302866 0.416302 -0.08735
C_ C_ 0.418112 0.306101 0.43399 -0.05681
C_ C_ 0.369989 0.310202 0.420229 -0.05681
C_ C_ 0.36581 0.310266 0.3903 -0.05681
C_ C_ 0.317934 0.313016 0.376509 -0.05681
C_ C_ 0.276388 0.321249 0.393048 -0.08735
C_ C_ 0.280468 0.318549 0.424393 -0.08735
C_ C_ 0.327743 0.3155 0.438093 -0.05681
C_ C_ 0.331695 0.317298 0.468332 0.44287
C_ C_ 0.42115 0.308423 0.463976 0.44287
C_ C_ 0.394512 0.341802 0.0149749 0.18498
C_ C_ 0.416702 0.38824 0.021317 -0.08735
C_ C_ 0.432741 0.397929 0.0493291 -0.08735
C_ C_ 0.416636 0.36694 0.0725442 -0.08735
C_ C_ 0.383515 0.326656 0.0662517 0.18498
C_ C_ 0.376391 0.311015 0.0374597 -0.05681
C_ C_ 0.352095 0.265211 0.032476 -0.08735
C_ C_ 0.327912 0.239612 0.0559863 -0.08735
C_ C_ 0.328914 0.260212 0.0834292 0.1947
N_ N_ 0.116121 0.161779 0.476221 -0.29468
N_ N_ 0.157736 0.192087 0.0834311 -0.17154
N_ N_ 0.130915 0.151875 0.230891 -0.17154
N_ N_ 0.130221 0.195708 0.332688 -0.29468
N_ N_ 0.360394 0.344139 0.230176 -0.29468
N_ N_ 0.357078 0.301268 0.330288 -0.17154
N_ N_ 0.37855 0.314501 0.480796 -0.17154
N_ N_ 0.357815 0.303255 0.0889071 -0.29468
O_ O_ 0.202336 0.174497 0.430674 -0.58347
O_ O_ 0.198933 0.196358 0.384867 -0.58347
O_ O_ 0.130529 0.252316 0.430918 -0.58347
O_ O_ 0.111401 0.261941 0.383653 -0.58347
O_ O_ 0.123148 0.103461 0.425436 -0.58347
O_ O_ 0.136821 0.109771 0.379951 -0.58347
O_ O_ 0.0536768 0.179733 0.42745 -0.58347
O_ O_ 0.0521032 0.175125 0.379832 -0.58347
O_ O_ 0.0735232 0.213849 0.0810591 -0.46727
O_ O_ 0.240466 0.163732 0.0876466 -0.46727
O_ O_ 0.0448535 0.160636 0.228068 -0.46727
O_ O_ 0.218834 0.151544 0.234726 -0.46727
O_ O_ 0.276883 0.333731 0.184145 -0.58347
O_ O_ 0.292985 0.310604 0.139141 -0.58347
O_ O_ 0.356869 0.254446 0.182553 -0.58347
O_ O_ 0.375811 0.242332 0.13861 -0.58347
O_ O_ 0.361453 0.403292 0.177522 -0.58347
O_ O_ 0.357613 0.395649 0.130064 -0.58347
O_ O_ 0.428077 0.328752 0.179213 -0.58347
O_ O_ 0.438121 0.322957 0.13245 -0.58347
O_ O_ 0.445177 0.286815 0.327089 -0.46727
O_ O_ 0.268163 0.311221 0.334125 -0.46727
O_ O_ 0.465917 0.303324 0.474981 -0.46727
O_ O_ 0.290905 0.326251 0.483398 -0.46727
Zn Zn 0.128366 0.186729 0.882381 0.90689
Zn Zn 0.137794 0.183538 0.930407 0.90689
Zn Zn 0.367845 0.306149 0.633327 0.90689
Zn Zn 0.357055 0.313567 0.680264 0.90689
H_ H_ 0.307636 0.187815 0.94517 0.11455
H_ H_ 0.36768 0.152113 0.847206 0.11455
H_ H_ 0.278383 0.166409 0.853685 0.11455
H_ H_ 0.391731 0.193641 0.9645 0.11455
H_ H_ 0.480239 0.20045 0.954598 0.11455
H_ H_ 0.456451 0.17673 0.864094 0.11455
H_ H_ 0.118041 0.0181119 0.941665 0.11455
H_ H_ 0.173178 0.440492 0.856386 0.11455
H_ H_ 0.148962 0.0309263 0.852486 0.11455
H_ H_ 0.079323 0.430683 0.962668 0.11455
H_ H_ 0.0892187 0.340422 0.960928 0.11455
H_ H_ 0.156444 0.354961 0.877015 0.11455
H_ H_ 0.0834279 0.115922 0.963378 0.11455
H_ H_ 0.0597274 0.0707558 0.516804 0.11455
H_ H_ 0.0950226 0.12241 0.554436 0.11455
H_ H_ 0.204888 0.242089 0.974371 0.11455
H_ H_ 0.202716 0.302926 0.509931 0.11455
H_ H_ 0.183231 0.283106 0.558015 0.11455
H_ H_ 0.0024436 0.20362 0.625852 0.11455
H_ H_ -0.002681999999999962 0.19815 0.677536 0.11455
H_ H_ 0.253232 0.175097 0.631977 0.11455
H_ H_ 0.252664 0.175836 0.682624 0.11455
H_ H_ 0.0680225 0.1043 0.746809 0.11455
H_ H_ 0.0419079 0.0799986 0.793567 0.11455
H_ H_ 0.0681088 0.129045 0.833377 0.11455
H_ H_ 0.156475 0.267484 0.75919 0.11455
H_ H_ 0.184911 0.309349 0.80253 0.11455
H_ H_ 0.174966 0.271647 0.850626 0.11455
H_ H_ 0.19001 0.322641 0.693464 0.11455
H_ H_ 0.121688 0.332449 0.594438 0.11455
H_ H_ 0.212458 0.320331 0.601636 0.11455
H_ H_ 0.108576 0.334384 0.712485 0.11455
H_ H_ 0.0127091 0.330265 0.705929 0.11455
H_ H_ 0.0341457 0.323645 0.614622 0.11455
H_ H_ 0.356274 0.479632 0.689367 0.11455
H_ H_ 0.3525 0.0635734 0.599411 0.11455
H_ H_ 0.391606 0.463765 0.600975 0.11455
H_ H_ 0.36024 0.062553 0.717887 0.11455
H_ H_ 0.369796 0.158585 0.714556 0.11455
H_ H_ 0.353825 0.145941 0.621873 0.11455
H_ H_ 0.429347 0.384784 0.714855 0.11455
H_ H_ 0.449051 0.41457 0.761967 0.11455
H_ H_ 0.414452 0.373689 0.807445 0.11455
H_ H_ 0.306067 0.257182 0.72488 0.11455
H_ H_ 0.277444 0.204579 0.766432 0.11455
H_ H_ 0.296504 0.228235 0.815683 0.11455
H_ H_ 0.488608 0.289729 0.876755 0.11455
H_ H_ 0.502583 0.30689 0.930564 0.11455
H_ H_ 0.243963 0.342508 0.890577 0.11455
H_ H_ 0.254971 0.356241 0.941292 0.11455
H_ H_ 0.440988 0.408114 0.00630419 0.11455
H_ H_ 0.430364 0.428088 0.548389 0.11455
H_ H_ 0.425172 0.365657 0.587229 0.11455
H_ H_ 0.334405 0.233119 0.507384 0.11455
H_ H_ 0.300921 0.190078 0.550053 0.11455
H_ H_ 0.312192 0.227938 0.598297 0.11455
C_ C_ 0.231402 0.183639 0.903915 0.68181
C_ C_ 0.284479 0.179361 0.900068 -0.05681
C_ C_ 0.320134 0.185989 0.92286 -0.08735
C_ C_ 0.371693 0.180376 0.918922 -0.05681
C_ C_ 0.391004 0.169943 0.89082 -0.05681
C_ C_ 0.356588 0.161635 0.868979 -0.08735
C_ C_ 0.305377 0.16707 0.872703 -0.08735
C_ C_ 0.40529 0.187088 0.941766 -0.08735
C_ C_ 0.455591 0.192365 0.936303 -0.08735
C_ C_ 0.477991 0.179484 0.909047 -0.05681
C_ C_ 0.443104 0.171479 0.885789 -0.08735
C_ C_ 0.126699 0.285241 0.914419 0.68181
C_ C_ 0.139843 0.087069 0.898933 0.68181
C_ C_ 0.130902 0.031325 0.896506 -0.05681
C_ C_ 0.116411 0.500725 0.924472 -0.08735
C_ C_ 0.118098 0.447955 0.922496 -0.05681
C_ C_ 0.138672 0.425856 0.897323 -0.05681
C_ C_ 0.157712 0.457389 0.875039 -0.08735
C_ C_ 0.151078 0.510558 0.876346 -0.08735
C_ C_ 0.0988338 0.415954 0.944605 -0.08735
C_ C_ 0.107492 0.363755 0.944299 -0.08735
C_ C_ 0.125288 0.341198 0.917899 -0.05681
C_ C_ 0.136178 0.372012 0.894198 -0.08735
C_ C_ 0.0332396 0.178698 0.907117 0.68181
C_ C_ 0.100157 0.132365 0.981506 0.1947
C_ C_ 0.0766571 0.107347 0.510926 -0.08735
C_ C_ 0.0962989 0.137245 0.532462 -0.08735
C_ C_ 0.126233 0.179236 0.526921 -0.05681
C_ C_ 0.137992 0.190765 0.497998 0.18498
C_ C_ 0.191313 0.232773 0.994954 -0.08735
C_ C_ 0.178275 0.269378 0.513686 -0.08735
C_ C_ 0.165578 0.259203 0.541857 -0.08735
C_ C_ 0.138715 0.213834 0.54849 0.18498
C_ C_ 0.174692 0.19422 0.594508 0.44287
C_ C_ 0.0874091 0.206191 0.593684 0.44287
C_ C_ 0.0833447 0.200126 0.622879 -0.05681
C_ C_ 0.0370693 0.205349 0.637322 -0.08735
C_ C_ 0.0347872 0.201955 0.667098 -0.08735
C_ C_ 0.0781342 0.196472 0.682706 -0.05681
C_ C_ 0.125519 0.189418 0.668879 -0.05681
C_ C_ 0.126619 0.192401 0.638956 -0.05681
C_ C_ 0.172077 0.188062 0.624631 -0.05681
C_ C_ 0.217172 0.177142 0.640719 -0.08735
C_ C_ 0.216579 0.17961 0.67094 -0.08735
C_ C_ 0.170191 0.185306 0.685131 -0.05681
C_ C_ 0.162931 0.185081 0.715386 0.44287
C_ C_ 0.0777636 0.204065 0.712996 0.44287
C_ C_ 0.110437 0.17178 0.758412 0.18498
C_ C_ 0.0805956 0.128361 0.76399 -0.08735
C_ C_ 0.06338 0.116091 0.790362 -0.08735
C_ C_ 0.0808783 0.142127 0.813547 -0.08735
C_ C_ 0.117039 0.181079 0.810564 0.18498
C_ C_ 0.128103 0.200191 0.782566 -0.05681
C_ C_ 0.150404 0.248752 0.780162 -0.08735
C_ C_ 0.167149 0.273473 0.804662 -0.08735
C_ C_ 0.160539 0.252105 0.832189 0.1947
C_ C_ 0.26444 0.316186 0.655121 0.68181
C_ C_ 0.209097 0.322017 0.64871 -0.05681
C_ C_ 0.176006 0.325149 0.671779 -0.08735
C_ C_ 0.123192 0.325825 0.668207 -0.05681
C_ C_ 0.103459 0.329861 0.640795 -0.05681
C_ C_ 0.136111 0.330886 0.616538 -0.08735
C_ C_ 0.189268 0.320672 0.620124 -0.08735
C_ C_ 0.0925346 0.332615 0.691745 -0.08735
C_ C_ 0.0377378 0.331155 0.688057 -0.08735
C_ C_ 0.015885 0.33283 0.660273 -0.05681
C_ C_ 0.0490773 0.329484 0.636873 -0.08735
C_ C_ 0.364954 0.214406 0.665273 0.68181
C_ C_ 0.366455 0.407544 0.648853 0.68181
C_ C_ 0.377569 0.464369 0.645968 -0.05681
C_ C_ 0.369786 -0.0030890000000000084 0.673394 -0.08735
C_ C_ 0.367988 0.0517843 0.671572 -0.05681
C_ C_ 0.357708 0.0731457 0.644578 -0.05681
C_ C_ 0.356155 0.0433972 0.620204 -0.08735
C_ C_ 0.390462 0.487603 0.619565 -0.08735
C_ C_ 0.363501 0.0823897 0.696558 -0.08735
C_ C_ 0.363458 0.135992 0.694883 -0.08735
C_ C_ 0.362168 0.158219 0.668119 -0.05681
C_ C_ 0.358588 0.128126 0.642101 -0.08735
C_ C_ 0.460125 0.307756 0.65624 0.68181
C_ C_ 0.407568 0.368904 0.732553 0.1947
C_ C_ 0.42195 0.382845 0.760897 -0.08735
C_ C_ 0.400556 0.359739 0.785506 -0.08735
C_ C_ 0.363203 0.321847 0.780413 -0.05681
C_ C_ 0.3468 0.311269 0.752111 0.18498
C_ C_ 0.315525 0.268046 0.746025 -0.08735
C_ C_ 0.29645 0.241007 0.769299 -0.08735
C_ C_ 0.309959 0.253364 0.79728 -0.08735
C_ C_ 0.344572 0.294303 0.804317 0.18498
C_ C_ 0.312867 0.310995 0.853229 0.44287
C_ C_ 0.401126 0.298433 0.846941 0.44287
C_ C_ 0.409841 0.308177 0.877499 -0.05681
C_ C_ 0.456592 0.29343 0.891631 -0.08735
C_ C_ 0.464041 0.306162 0.920384 -0.08735
C_ C_ 0.424005 0.324028 0.937048 -0.05681
C_ C_ 0.376439 0.331009 0.924911 -0.05681
C_ C_ 0.3698 0.324738 0.894811 -0.05681
C_ C_ 0.320298 0.325634 0.882679 -0.05681
C_ C_ 0.278709 0.336888 0.899556 -0.08735
C_ C_ 0.285224 0.341806 0.929375 -0.08735
C_ C_ 0.333109 0.339037 0.942905 -0.05681
C_ C_ 0.340604 0.34302 0.973051 0.44287
C_ C_ 0.427088 0.321384 0.96693 0.44287
C_ C_ 0.384049 0.327945 0.509875 0.18498
C_ C_ 0.407117 0.375507 0.516434 -0.08735
C_ C_ 0.415453 0.391553 0.544087 -0.08735
C_ C_ 0.410031 0.355229 0.566348 -0.08735
C_ C_ 0.378169 0.313691 0.562402 0.18498
C_ C_ 0.369102 0.295031 0.532397 -0.05681
C_ C_ 0.343483 0.24825 0.528137 -0.08735
C_ C_ 0.323258 0.223141 0.552349 -0.08735
C_ C_ 0.330739 0.245066 0.580485 0.1947
N_ N_ 0.135773 0.168667 0.978507 -0.29468
N_ N_ 0.132773 0.204924 0.57947 -0.17154
N_ N_ 0.119133 0.190905 0.72887 -0.17154
N_ N_ 0.134659 0.207358 0.834665 -0.29468
N_ N_ 0.368697 0.336101 0.727907 -0.29468
N_ N_ 0.353131 0.305118 0.834618 -0.17154
N_ N_ 0.38555 0.330533 0.984993 -0.17154
N_ N_ 0.362109 0.2851 0.58537 -0.29468
O_ O_ 0.213265 0.18106 0.928681 -0.58347
O_ O_ 0.202504 0.193079 0.882625 -0.58347
O_ O_ 0.129181 0.256838 0.936203 -0.58347
O_ O_ 0.124713 0.264329 0.890764 -0.58347
O_ O_ 0.139396 0.107449 0.923098 -0.58347
O_ O_ 0.144042 0.115193 0.876756 -0.58347
O_ O_ 0.0621429 0.184755 0.928656 -0.58347
O_ O_ 0.0531696 0.171352 0.88227 -0.58347
O_ O_ 0.045302 0.217985 0.579387 -0.46727
O_ O_ 0.219473 0.189129 0.581899 -0.46727
O_ O_ 0.0349176 0.216735 0.725683 -0.46727
O_ O_ 0.204768 0.178129 0.731256 -0.46727
O_ O_ 0.283626 0.325901 0.679304 -0.58347
O_ O_ 0.292619 0.301668 0.6352 -0.58347
O_ O_ 0.348248 0.243001 0.684905 -0.58347
O_ O_ 0.373198 0.234481 0.640738 -0.58347
O_ O_ 0.367243 0.386482 0.674209 -0.58347
O_ O_ 0.3656 0.379998 0.627036 -0.58347
O_ O_ 0.432764 0.306604 0.678486 -0.58347
O_ O_ 0.439498 0.31116 0.631528 -0.58347
O_ O_ 0.439468 0.278007 0.83176 -0.46727
O_ O_ 0.267666 0.3142 0.841916 -0.46727
O_ O_ 0.470309 0.311206 0.979138 -0.46727
O_ O_ 0.301302 0.354773 0.989222 -0.46727
Zn Zn 0.132137 0.679543 0.382445 0.90689
Zn Zn 0.137186 0.67808 0.428677 0.90689
Zn Zn 0.372288 0.820339 0.133685 0.90689
Zn Zn 0.364513 0.82661 0.180829 0.90689
H_ H_ 0.307552 0.695712 0.445038 0.11455
H_ H_ 0.377754 0.643317 0.351848 0.11455
H_ H_ 0.285964 0.657598 0.356303 0.11455
H_ H_ 0.389975 0.714895 0.460826 0.11455
H_ H_ 0.481935 0.719099 0.456884 0.11455
H_ H_ 0.463641 0.66785 0.367609 0.11455
H_ H_ 0.12261 0.513627 0.440194 0.11455
H_ H_ 0.17453 0.931666 0.35715 0.11455
H_ H_ 0.158594 0.526586 0.352221 0.11455
H_ H_ 0.0664616 0.929796 0.456298 0.11455
H_ H_ 0.0659255 0.841146 0.453714 0.11455
H_ H_ 0.167983 0.845688 0.381244 0.11455
H_ H_ 0.0831519 0.598176 0.465536 0.11455
H_ H_ 0.0759078 0.578156 0.0171694 0.11455
H_ H_ 0.10669 0.627391 0.0577191 0.11455
H_ H_ 0.191303 0.739697 0.471969 0.11455
H_ H_ 0.20983 0.813238 0.0114435 0.11455
H_ H_ 0.18253 0.795063 0.0619414 0.11455
H_ H_ 0.0177349 0.724655 0.124437 0.11455
H_ H_ 0.0025165 0.712488 0.175506 0.11455
H_ H_ 0.259689 0.646665 0.138552 0.11455
H_ H_ 0.24368 0.627563 0.189869 0.11455
H_ H_ 0.0485903 0.585041 0.250887 0.11455
H_ H_ 0.0429907 0.562078 0.301839 0.11455
H_ H_ 0.0582212 0.62994 0.33922 0.11455
H_ H_ 0.162761 0.730051 0.25472 0.11455
H_ H_ 0.205534 0.781531 0.292745 0.11455
H_ H_ 0.192679 0.745405 0.345418 0.11455
H_ H_ 0.198298 0.804792 0.197194 0.11455
H_ H_ 0.126255 0.842667 0.100121 0.11455
H_ H_ 0.217384 0.830115 0.106916 0.11455
H_ H_ 0.111873 0.807753 0.21743 0.11455
H_ H_ 0.0230921 0.81114 0.210689 0.11455
H_ H_ 0.0428318 0.847464 0.119545 0.11455
H_ H_ 0.347961 0.990809 0.191306 0.11455
H_ H_ 0.334504 0.571374 0.100176 0.11455
H_ H_ 0.393125 0.976239 0.103812 0.11455
H_ H_ 0.360943 0.57942 0.218774 0.11455
H_ H_ 0.366732 0.673729 0.212357 0.11455
H_ H_ 0.363112 0.658252 0.121853 0.11455
H_ H_ 0.400846 0.908481 0.214007 0.11455
H_ H_ 0.41005 0.947272 0.260139 0.11455
H_ H_ 0.3699 0.902543 0.303813 0.11455
H_ H_ 0.309421 0.766945 0.225299 0.11455
H_ H_ 0.285147 0.712292 0.266802 0.11455
H_ H_ 0.301105 0.740728 0.31625 0.11455
H_ H_ 0.494786 0.802618 0.371371 0.11455
H_ H_ 0.50858 0.821577 0.420819 0.11455
H_ H_ 0.24676 0.852497 0.387291 0.11455
H_ H_ 0.257883 0.858322 0.439092 0.11455
H_ H_ 0.444627 0.924218 0.503528 0.11455
H_ H_ 0.467323 0.920021 0.0474576 0.11455
H_ H_ 0.434882 0.873229 0.0882845 0.11455
H_ H_ 0.344629 0.750552 0.00640259 0.11455
H_ H_ 0.311841 0.700785 0.0503867 0.11455
H_ H_ 0.309453 0.745594 0.0959414 0.11455
C_ C_ 0.233519 0.685067 0.403237 0.68181
C_ C_ 0.289906 0.684512 0.400369 -0.05681
C_ C_ 0.322189 0.695312 0.423517 -0.08735
C_ C_ 0.37566 0.693303 0.418958 -0.05681
C_ C_ 0.395857 0.675098 0.392367 -0.05681
C_ C_ 0.362949 0.659169 0.370905 -0.08735
C_ C_ 0.312078 0.669263 0.374079 -0.08735
C_ C_ 0.40806 0.706607 0.440932 -0.08735
C_ C_ 0.459566 0.710623 0.436948 -0.08735
C_ C_ 0.482498 0.692849 0.411042 -0.05681
C_ C_ 0.449526 0.677822 0.388333 -0.08735
C_ C_ 0.123647 0.776608 0.415244 0.68181
C_ C_ 0.135959 0.581951 0.397683 0.68181
C_ C_ 0.138449 0.525821 0.396241 -0.05681
C_ C_ 0.116776 0.997185 0.424312 -0.08735
C_ C_ 0.116672 0.942002 0.421032 -0.05681
C_ C_ 0.139985 0.918042 0.397375 -0.05681
C_ C_ 0.161435 0.947539 0.37647 -0.08735
C_ C_ 0.160876 0.999392 0.377778 -0.08735
C_ C_ 0.0919203 0.911344 0.441561 -0.08735
C_ C_ 0.0927593 0.858531 0.43949 -0.08735
C_ C_ 0.119242 0.833011 0.416526 -0.05681
C_ C_ 0.142606 0.863656 0.396592 -0.08735
C_ C_ 0.0369601 0.675938 0.411927 0.68181
C_ C_ 0.106591 0.613034 0.482118 0.1947
C_ C_ 0.100695 0.608894 0.0127519 -0.08735
C_ C_ 0.113724 0.641811 0.0350935 -0.08735
C_ C_ 0.139846 0.686309 0.0301656 -0.05681
C_ C_ 0.147317 0.701191 1.000639081 0.18498
C_ C_ 0.187984 0.724545 0.493233 -0.08735
C_ C_ 0.191287 0.775939 0.0168498 -0.08735
C_ C_ 0.181893 0.762217 0.0461344 -0.08735
C_ C_ 0.158213 0.71632 0.0535204 0.18498
C_ C_ 0.189867 0.686203 0.100077 0.44287
C_ C_ 0.102286 0.706739 0.0948742 0.44287
C_ C_ 0.095389 0.703568 0.124559 -0.05681
C_ C_ 0.0485636 0.711622 0.137043 -0.08735
C_ C_ 0.0406156 0.701379 0.167753 -0.08735
C_ C_ 0.083732 0.690802 0.185646 -0.05681
C_ C_ 0.130277 0.676536 0.171598 -0.05681
C_ C_ 0.136667 0.688905 0.142426 -0.05681
C_ C_ 0.183903 0.678511 0.130444 -0.05681
C_ C_ 0.22219 0.657779 0.14716 -0.08735
C_ C_ 0.214898 0.64483 0.175314 -0.08735
C_ C_ 0.169188 0.655006 0.188854 -0.05681
C_ C_ 0.159622 0.646962 0.218272 0.44287
C_ C_ 0.0755131 0.681731 0.214758 0.44287
C_ C_ 0.104024 0.64772 0.26001 0.18498
C_ C_ 0.0718728 0.60665 0.267766 -0.08735
C_ C_ 0.059003 0.59801 0.296546 -0.08735
C_ C_ 0.0782306 0.628254 0.318946 -0.08735
C_ C_ 0.109424 0.669128 0.31209 0.18498
C_ C_ 0.126198 0.677461 0.282897 -0.05681
C_ C_ 0.158657 0.719635 0.277247 -0.08735
C_ C_ 0.17953 0.749448 0.300167 -0.08735
C_ C_ 0.170267 0.730964 0.328156 0.1947
C_ C_ 0.269199 0.824126 0.156275 0.68181
C_ C_ 0.214717 0.824395 0.153465 -0.05681
C_ C_ 0.181825 0.816291 0.176955 -0.08735
C_ C_ 0.129228 0.820102 0.172852 -0.05681
C_ C_ 0.109333 0.830105 0.145057 -0.05681
C_ C_ 0.141954 0.839921 0.122416 -0.08735
C_ C_ 0.19444 0.832275 0.125414 -0.08735
C_ C_ 0.0966011 0.811363 0.195612 -0.08735
C_ C_ 0.0433405 0.812852 0.191244 -0.08735
C_ C_ 0.0222207 0.827421 0.1648 -0.05681
C_ C_ 0.0573142 0.834896 0.141359 -0.08735
C_ C_ 0.371731 0.724912 0.164182 0.68181
C_ C_ 0.3686 0.920961 0.14831 0.68181
C_ C_ 0.370984 0.978392 0.146984 -0.05681
C_ C_ 0.357948 0.51074 0.175506 -0.08735
C_ C_ 0.358871 0.565463 0.173345 -0.05681
C_ C_ 0.355749 0.587372 0.145653 -0.05681
C_ C_ 0.349072 0.556956 0.120924 -0.08735
C_ C_ 0.383987 0.00114935 0.121977 -0.08735
C_ C_ 0.365094 0.596401 0.197067 -0.08735
C_ C_ 0.362151 0.648623 0.194298 -0.08735
C_ C_ 0.36487 0.670555 0.166815 -0.05681
C_ C_ 0.35848 0.640883 0.142734 -0.08735
C_ C_ 0.467488 0.82817 0.159862 0.68181
C_ C_ 0.39288 0.887933 0.233561 0.1947
C_ C_ 0.394351 0.910047 0.259783 -0.08735
C_ C_ 0.372503 0.884905 0.282668 -0.08735
C_ C_ 0.358141 0.834082 0.279459 -0.05681
C_ C_ 0.35736 0.81202 0.251486 0.18498
C_ C_ 0.324784 0.771702 0.247301 -0.08735
C_ C_ 0.303183 0.748077 0.270579 -0.08735
C_ C_ 0.319342 0.760874 0.298064 -0.08735
C_ C_ 0.345274 0.806548 0.303324 0.18498
C_ C_ 0.318238 0.839336 0.349308 0.44287
C_ C_ 0.40402 0.810855 0.342848 0.44287
C_ C_ 0.415216 0.822784 0.372309 -0.05681
C_ C_ 0.463019 0.815991 0.383984 -0.08735
C_ C_ 0.470397 0.824583 0.4129 -0.08735
C_ C_ 0.428884 0.828907 0.432182 -0.05681
C_ C_ 0.381014 0.83519 0.420219 -0.05681
C_ C_ 0.374316 0.836804 0.390383 -0.05681
C_ C_ 0.326304 0.844204 0.378759 -0.05681
C_ C_ 0.28528 0.849322 0.397111 -0.08735
C_ C_ 0.292387 0.84751 0.426274 -0.08735
C_ C_ 0.340737 0.844823 0.438018 -0.05681
C_ C_ 0.349657 0.849348 0.46808 0.44287
C_ C_ 0.436702 0.837558 0.462023 0.44287
C_ C_ 0.39797 0.835849 0.00912788 0.18498
C_ C_ 0.424896 0.879773 0.0153681 -0.08735
C_ C_ 0.440459 0.891229 0.0432376 -0.08735
C_ C_ 0.423994 0.862837 0.0657314 -0.08735
C_ C_ 0.38727 0.826146 0.0621139 0.18498
C_ C_ 0.381752 0.807362 0.032749 -0.05681
C_ C_ 0.352514 0.763523 0.0278829 -0.08735
C_ C_ 0.332436 0.738093 0.0526499 -0.08735
C_ C_ 0.337764 0.759524 0.0802156 0.1947
N_ N_ 0.135583 0.655606 0.476803 -0.29468
N_ N_ 0.150695 0.702809 0.0830864 -0.17154
N_ N_ 0.113318 0.65871 0.230382 -0.17154
N_ N_ 0.134676 0.694495 0.333621 -0.29468
N_ N_ 0.374834 0.839883 0.228845 -0.29468
N_ N_ 0.356976 0.822948 0.332325 -0.17154
N_ N_ 0.397567 0.847831 0.47964 -0.17154
N_ N_ 0.366001 0.80253 0.0847609 -0.29468
O_ O_ 0.211115 0.697143 0.426622 -0.58347
O_ O_ 0.206767 0.672864 0.381919 -0.58347
O_ O_ 0.118945 0.750331 0.43711 -0.58347
O_ O_ 0.13724 0.758094 0.3921 -0.58347
O_ O_ 0.14604 0.602241 0.420594 -0.58347
O_ O_ 0.134962 0.605366 0.374414 -0.58347
O_ O_ 0.0636651 0.662716 0.433398 -0.58347
O_ O_ 0.0580449 0.682538 0.387827 -0.58347
O_ O_ 0.0633728 0.713304 0.0782841 -0.46727
O_ O_ 0.236359 0.684617 0.0877617 -0.46727
O_ O_ 0.0305399 0.688601 0.22614 -0.46727
O_ O_ 0.197155 0.63649 0.236128 -0.46727
O_ O_ 0.28925 0.815025 0.179837 -0.58347
O_ O_ 0.296884 0.824318 0.133817 -0.58347
O_ O_ 0.381469 0.751831 0.185913 -0.58347
O_ O_ 0.365022 0.747217 0.139949 -0.58347
O_ O_ 0.351007 0.90082 0.171094 -0.58347
O_ O_ 0.383068 0.89332 0.126734 -0.58347
O_ O_ 0.439372 0.842425 0.181344 -0.58347
O_ O_ 0.448033 0.812962 0.136289 -0.58347
O_ O_ 0.439705 0.793519 0.325254 -0.46727
O_ O_ 0.271644 0.842897 0.338043 -0.46727
O_ O_ 0.481508 0.831431 0.473347 -0.46727
O_ O_ 0.313229 0.865554 0.483346 -0.46727
Zn Zn 0.126986 0.690186 0.881464 0.90689
Zn Zn 0.134357 0.68191 0.931677 0.90689
Zn Zn 0.384167 0.811062 0.630153 0.90689
Zn Zn 0.374082 0.812196 0.67812 0.90689
H_ H_ 0.297973 0.672952 0.943854 0.11455
H_ H_ 0.366116 0.67201 0.845029 0.11455
H_ H_ 0.276552 0.671395 0.853309 0.11455
H_ H_ 0.3895 0.676146 0.964759 0.11455
H_ H_ 0.47701 0.676803 0.954973 0.11455
H_ H_ 0.451382 0.666375 0.864017 0.11455
H_ H_ 0.0960528 0.517959 0.94247 0.11455
H_ H_ 0.150269 0.939937 0.847659 0.11455
H_ H_ 0.16999 0.53551 0.862735 0.11455
H_ H_ 0.0935071 0.935189 0.963675 0.11455
H_ H_ 0.101027 0.842614 0.959313 0.11455
H_ H_ 0.140057 0.854453 0.87102 0.11455
H_ H_ 0.0890032 0.601869 0.967338 0.11455
H_ H_ 0.0852169 0.559517 0.513452 0.11455
H_ H_ 0.122486 0.60185 0.551918 0.11455
H_ H_ 0.185588 0.753865 0.973051 0.11455
H_ H_ 0.236977 0.780713 0.511904 0.11455
H_ H_ 0.217496 0.760045 0.560068 0.11455
H_ H_ 1.0214262 0.69585 0.619641 0.11455
H_ H_ 1.00572754 0.68402 0.669696 0.11455
H_ H_ 0.26878 0.666 0.637435 0.11455
H_ H_ 0.258827 0.651433 0.687505 0.11455
H_ H_ 0.0774521 0.576405 0.747752 0.11455
H_ H_ 0.060274 0.550189 0.798314 0.11455
H_ H_ 0.0869157 0.605974 0.837047 0.11455
H_ H_ 0.159763 0.737753 0.754702 0.11455
H_ H_ 0.193245 0.787599 0.794881 0.11455
H_ H_ 0.17541 0.759934 0.844489 0.11455
H_ H_ 0.208267 0.8191 0.694058 0.11455
H_ H_ 0.134064 0.799923 0.598147 0.11455
H_ H_ 0.226776 0.802659 0.603725 0.11455
H_ H_ 0.123287 0.815346 0.714138 0.11455
H_ H_ 0.0322799 0.814406 0.707563 0.11455
H_ H_ 0.0500663 0.799163 0.618394 0.11455
H_ H_ 0.382248 0.978465 0.69327 0.11455
H_ H_ 0.388525 0.555832 0.594917 0.11455
H_ H_ 0.365789 0.965614 0.602792 0.11455
H_ H_ 0.378044 0.565779 0.712296 0.11455
H_ H_ 0.394209 0.65753 0.707252 0.11455
H_ H_ 0.386776 0.643173 0.616559 0.11455
H_ H_ 0.427422 0.887362 0.71395 0.11455
H_ H_ 0.448387 0.909838 0.767098 0.11455
H_ H_ 0.395412 0.872315 0.802193 0.11455
H_ H_ 0.318375 0.747445 0.722229 0.11455
H_ H_ 0.28373 0.696131 0.762312 0.11455
H_ H_ 0.287737 0.730681 0.808819 0.11455
H_ H_ 0.493519 0.794506 0.870428 0.11455
H_ H_ 0.503262 0.801522 0.922469 0.11455
H_ H_ 0.241952 0.824554 0.886776 0.11455
H_ H_ 0.253154 0.845922 0.937625 0.11455
H_ H_ 0.43678 0.901457 0.99797 0.11455
H_ H_ 0.457231 0.942251 0.557365 0.11455
H_ H_ 0.446278 0.867154 0.592239 0.11455
H_ H_ 0.34444 0.766621 0.503652 0.11455
H_ H_ 0.313371 0.711857 0.539952 0.11455
H_ H_ 0.323353 0.736566 0.589804 0.11455
C_ C_ 0.225856 0.693611 0.905822 0.68181
C_ C_ 0.281955 0.68588 0.900377 -0.05681
C_ C_ 0.315546 0.680922 0.922963 -0.08735
C_ C_ 0.366909 0.67431 0.918861 -0.05681
C_ C_ 0.386004 0.67023 0.890663 -0.05681
C_ C_ 0.352311 0.673627 0.867426 -0.08735
C_ C_ 0.299758 0.681704 0.871166 -0.08735
C_ C_ 0.402382 0.672037 0.942365 -0.08735
C_ C_ 0.45265 0.674194 0.935756 -0.08735
C_ C_ 0.471452 0.669462 0.90896 -0.05681
C_ C_ 0.437418 0.668257 0.885636 -0.08735
C_ C_ 0.118732 0.785033 0.911028 0.68181
C_ C_ 0.135013 0.58811 0.904728 0.68181
C_ C_ 0.1361 0.53195 0.902466 -0.05681
C_ C_ 0.124361 1.00113829 0.921076 -0.08735
C_ C_ 0.118461 0.947311 0.918481 -0.05681
C_ C_ 0.125931 0.923185 0.892143 -0.05681
C_ C_ 0.137157 0.954136 0.867659 -0.08735
C_ C_ 0.137373 0.00777104 0.870519 -0.08735
C_ C_ 0.100486 0.917487 0.942007 -0.08735
C_ C_ 0.10357 0.865295 0.940785 -0.08735
C_ C_ 0.112493 0.841853 0.91365 -0.05681
C_ C_ 0.12799 0.870525 0.890354 -0.08735
C_ C_ 0.0299011 0.677992 0.907759 0.68181
C_ C_ 0.103409 0.626098 0.984832 0.1947
C_ C_ 0.103929 0.594036 0.508824 -0.08735
C_ C_ 0.121122 0.619604 0.53197 -0.08735
C_ C_ 0.151146 0.665201 0.527225 -0.05681
C_ C_ 0.159485 0.680553 0.499038 0.18498
C_ C_ 0.178486 0.743433 0.995185 -0.08735
C_ C_ 0.211054 0.750849 0.515425 -0.08735
C_ C_ 0.199061 0.737741 0.543711 -0.08735
C_ C_ 0.167683 0.696794 0.550634 0.18498
C_ C_ 0.196482 0.677625 0.598919 0.44287
C_ C_ 0.10891 0.688632 0.59058 0.44287
C_ C_ 0.0991587 0.684564 0.621632 -0.05681
C_ C_ 0.0519867 0.686695 0.633908 -0.08735
C_ C_ 0.0453668 0.679715 0.662636 -0.08735
C_ C_ 0.0860801 0.676999 0.681542 -0.05681
C_ C_ 0.133112 0.666251 0.669043 -0.05681
C_ C_ 0.139164 0.674689 0.640006 -0.05681
C_ C_ 0.188575 0.673363 0.629016 -0.05681
C_ C_ 0.230599 0.66862 0.647131 -0.08735
C_ C_ 0.224118 0.656612 0.675775 -0.08735
C_ C_ 0.1753 0.660383 0.6881 -0.05681
C_ C_ 0.167822 0.656564 0.717757 0.44287
C_ C_ 0.0794045 0.670327 0.71086 0.44287
C_ C_ 0.111624 0.645123 0.759279 0.18498
C_ C_ 0.0904401 0.598301 0.765528 -0.08735
C_ C_ 0.0792004 0.585652 0.793206 -0.08735
C_ C_ 0.0993327 0.615589 0.815737 -0.08735
C_ C_ 0.115661 0.663616 0.810054 0.18498
C_ C_ 0.123937 0.679871 0.78192 -0.05681
C_ C_ 0.149849 0.725026 0.776793 -0.08735
C_ C_ 0.167867 0.754678 0.799953 -0.08735
C_ C_ 0.158781 0.73785 0.828113 0.1947
C_ C_ 0.27963 0.805846 0.653155 0.68181
C_ C_ 0.224966 0.807809 0.649195 -0.05681
C_ C_ 0.193436 0.814833 0.672965 -0.08735
C_ C_ 0.140993 0.812562 0.669634 -0.05681
C_ C_ 0.118218 0.809093 0.641949 -0.05681
C_ C_ 0.1498 0.804186 0.618495 -0.08735
C_ C_ 0.203621 0.802287 0.621834 -0.08735
C_ C_ 0.107478 0.822177 0.692742 -0.08735
C_ C_ 0.0538521 0.815425 0.689712 -0.08735
C_ C_ 0.0315361 0.808664 0.663238 -0.05681
C_ C_ 0.0642776 0.808207 0.639432 -0.08735
C_ C_ 0.38531 0.712475 0.658574 0.68181
C_ C_ 0.37211 0.91262 0.650976 0.68181
C_ C_ 0.36552 0.96651 0.648812 -0.05681
C_ C_ 0.365888 0.496674 0.669643 -0.08735
C_ C_ 0.373194 0.548956 0.666878 -0.05681
C_ C_ 0.381579 0.569855 0.639281 -0.05681
C_ C_ 0.391593 0.539056 0.615895 -0.08735
C_ C_ 0.362378 0.990423 0.621386 -0.08735
C_ C_ 0.377819 0.580242 0.691324 -0.08735
C_ C_ 0.385203 0.633203 0.688385 -0.08735
C_ C_ 0.381929 0.655424 0.66071 -0.05681
C_ C_ 0.381676 0.623799 0.636269 -0.08735
C_ C_ 0.473773 0.819757 0.659337 0.68181
C_ C_ 0.408661 0.86823 0.732017 0.1947
C_ C_ 0.417673 0.882903 0.760247 -0.08735
C_ C_ 0.392452 0.859711 0.780731 -0.08735
C_ C_ 0.364594 0.816678 0.777166 -0.05681
C_ C_ 0.358412 0.79844 0.749204 0.18498
C_ C_ 0.323745 0.760186 0.743808 -0.08735
C_ C_ 0.308415 0.727996 0.766567 -0.08735
C_ C_ 0.312288 0.747054 0.793917 -0.08735
C_ C_ 0.344002 0.787687 0.799986 0.18498
C_ C_ 0.314711 0.811921 0.847011 0.44287
C_ C_ 0.400671 0.795634 0.841293 0.44287
C_ C_ 0.41092 0.800795 0.870921 -0.05681
C_ C_ 0.459575 0.7966 0.883027 -0.08735
C_ C_ 0.465147 0.800563 0.913612 -0.08735
C_ C_ 0.422441 0.807365 0.932146 -0.05681
C_ C_ 0.37454 0.809559 0.920277 -0.05681
C_ C_ 0.369282 0.808811 0.889436 -0.05681
C_ C_ 0.321148 0.816691 0.87652 -0.05681
C_ C_ 0.277991 0.822858 0.894824 -0.08735
C_ C_ 0.284663 0.835488 0.92436 -0.08735
C_ C_ 0.33252 0.821269 0.937697 -0.05681
C_ C_ 0.342876 0.827545 0.966955 0.44287
C_ C_ 0.428746 0.812691 0.961449 0.44287
C_ C_ 0.406595 0.853066 0.51068 0.18498
C_ C_ 0.428464 0.899081 0.520671 -0.08735
C_ C_ 0.44232 0.906861 0.550088 -0.08735
C_ C_ 0.430508 0.867267 0.570274 -0.08735
C_ C_ 0.399502 0.825755 0.561683 0.18498
C_ C_ 0.387349 0.81722 0.532603 -0.05681
C_ C_ 0.358364 0.773267 0.525029 -0.08735
C_ C_ 0.342561 0.740805 0.54576 -0.08735
C_ C_ 0.348182 0.75488 0.574574 0.1947
N_ N_ 0.127992 0.672281 0.979178 -0.29468
N_ N_ 0.156757 0.685268 0.580449 -0.17154
N_ N_ 0.119716 0.659654 0.728506 -0.17154
N_ N_ 0.134122 0.692803 0.833059 -0.29468
N_ N_ 0.380002 0.825904 0.726882 -0.29468
N_ N_ 0.354075 0.800377 0.829967 -0.17154
N_ N_ 0.38878 0.82204 0.978921 -0.17154
N_ N_ 0.379335 0.795141 0.583152 -0.29468
O_ O_ 0.207375 0.693145 0.931103 -0.58347
O_ O_ 0.199738 0.697595 0.884419 -0.58347
O_ O_ 0.119765 0.758383 0.932803 -0.58347
O_ O_ 0.1221 0.764385 0.887105 -0.58347
O_ O_ 0.143182 0.60723 0.928667 -0.58347
O_ O_ 0.13599 0.615477 0.882411 -0.58347
O_ O_ 0.0601194 0.676689 0.928918 -0.58347
O_ O_ 0.0484255 0.684197 0.882835 -0.58347
O_ O_ 0.0705953 0.703437 0.574471 -0.46727
O_ O_ 0.24241 0.66751 0.588406 -0.46727
O_ O_ 0.031823 0.669909 0.720208 -0.46727
O_ O_ 0.207794 0.652334 0.735364 -0.46727
O_ O_ 0.297618 0.807459 0.678263 -0.58347
O_ O_ 0.308909 0.801524 0.632114 -0.58347
O_ O_ 0.378806 0.73754 0.681457 -0.58347
O_ O_ 0.386909 0.732745 0.634311 -0.58347
O_ O_ 0.359325 0.889773 0.672879 -0.58347
O_ O_ 0.37585 0.886547 0.628465 -0.58347
O_ O_ 0.446532 0.819652 0.681118 -0.58347
O_ O_ 0.456322 0.818606 0.633842 -0.58347
O_ O_ 0.439334 0.787673 0.823444 -0.46727
O_ O_ 0.269745 0.819675 0.835745 -0.46727
O_ O_ 0.475897 0.815824 0.971315 -0.46727
O_ O_ 0.304869 0.841583 0.983068 -0.46727
Zn Zn 0.622866 0.183636 0.382082 0.90689
Zn Zn 0.634955 0.179799 0.430124 0.90689
Zn Zn 0.862285 0.318143 0.13088 0.90689
Zn Zn 0.853754 0.322656 0.179905 0.90689
H_ H_ 0.801119 0.212706 0.436555 0.11455
H_ H_ 0.869462 0.150226 0.344831 0.11455
H_ H_ 0.779223 0.151363 0.355787 0.11455
H_ H_ 0.889523 0.215705 0.457248 0.11455
H_ H_ 0.97481 0.234437 0.446849 0.11455
H_ H_ 0.957945 0.157844 0.364763 0.11455
H_ H_ 0.611781 0.0132515 0.440428 0.11455
H_ H_ 0.61836 0.434131 0.349186 0.11455
H_ H_ 0.663027 0.0305013 0.354174 0.11455
H_ H_ 0.651637 0.431838 0.465819 0.11455
H_ H_ 0.649625 0.336868 0.461501 0.11455
H_ H_ 0.617496 0.351763 0.371098 0.11455
H_ H_ 0.564583 0.120597 0.467623 0.11455
H_ H_ 0.570157 0.0854694 0.0189846 0.11455
H_ H_ 0.594386 0.141685 0.0578622 0.11455
H_ H_ 0.697798 0.245363 0.475032 0.11455
H_ H_ 0.720894 0.309876 0.00996985 0.11455
H_ H_ 0.687408 0.297869 0.0597658 0.11455
H_ H_ 0.510582 0.206555 0.12449 0.11455
H_ H_ 0.499332 0.198445 0.175235 0.11455
H_ H_ 0.762003 0.178867 0.136586 0.11455
H_ H_ 0.751851 0.152758 0.188839 0.11455
H_ H_ 0.585054 0.0730244 0.249689 0.11455
H_ H_ 0.560672 0.0486399 0.299297 0.11455
H_ H_ 0.584863 0.107091 0.338578 0.11455
H_ H_ 0.633834 0.249168 0.258659 0.11455
H_ H_ 0.656637 0.304617 0.298858 0.11455
H_ H_ 0.651675 0.269147 0.348132 0.11455
H_ H_ 0.686442 0.306223 0.194577 0.11455
H_ H_ 0.617688 0.344074 0.0964934 0.11455
H_ H_ 0.710372 0.341832 0.106019 0.11455
H_ H_ 0.599335 0.30058 0.212361 0.11455
H_ H_ 0.508061 0.315774 0.207244 0.11455
H_ H_ 0.530169 0.331448 0.113866 0.11455
H_ H_ 0.876075 0.49122 0.193296 0.11455
H_ H_ 0.861751 0.0682691 0.0945245 0.11455
H_ H_ 0.840361 0.480506 0.104401 0.11455
H_ H_ 0.888972 0.0711211 0.210979 0.11455
H_ H_ 0.879037 0.165239 0.207903 0.11455
H_ H_ 0.862033 0.148629 0.118008 0.11455
H_ H_ 0.916704 0.391362 0.213153 0.11455
H_ H_ 0.92809 0.429457 0.260687 0.11455
H_ H_ 0.901019 0.377522 0.30417 0.11455
H_ H_ 0.799657 0.261057 0.220517 0.11455
H_ H_ 0.770059 0.207117 0.261223 0.11455
H_ H_ 0.791424 0.226305 0.309781 0.11455
H_ H_ 0.983835 0.317509 0.370478 0.11455
H_ H_ -0.007256999999999958 0.329793 0.421399 0.11455
H_ H_ 0.729007 0.32495 0.386319 0.11455
H_ H_ 0.739863 0.345479 0.437136 0.11455
H_ H_ 0.924565 0.419566 0.50142 0.11455
H_ H_ 0.963713 0.432259 0.0498412 0.11455
H_ H_ 0.908267 0.394343 0.0881446 0.11455
H_ H_ 0.844747 0.266251 0.00556056 0.11455
H_ H_ 0.786342 0.234248 0.0426217 0.11455
H_ H_ 0.808029 0.254304 0.0930754 0.11455
C_ C_ 0.72499 0.183127 0.402792 0.68181
C_ C_ 0.780396 0.18476 0.395845 -0.05681
C_ C_ 0.816979 0.196317 0.417305 -0.08735
C_ C_ 0.869884 0.191046 0.414293 -0.05681
C_ C_ 0.888804 0.179558 0.387027 -0.05681
C_ C_ 0.856668 0.170304 0.364521 -0.08735
C_ C_ 0.803487 0.171013 0.369526 -0.08735
C_ C_ 0.902428 0.205285 0.436295 -0.08735
C_ C_ 0.95357 0.210015 0.431311 -0.08735
C_ C_ 0.9744 0.191049 0.405904 -0.05681
C_ C_ 0.941204 0.174509 0.383498 -0.08735
C_ C_ 0.626382 0.282025 0.41419 0.68181
C_ C_ 0.633793 0.0836771 0.399886 0.68181
C_ C_ 0.63994 0.0283104 0.397513 -0.05681
C_ C_ 0.635504 0.500257 0.424327 -0.08735
C_ C_ 0.636592 0.445101 0.421046 -0.05681
C_ C_ 0.627305 0.422471 0.394265 -0.05681
C_ C_ 0.625855 0.452474 0.369536 -0.08735
C_ C_ 0.628142 0.505226 0.373008 -0.08735
C_ C_ 0.646022 0.413171 0.445073 -0.08735
C_ C_ 0.63782 0.359777 0.443022 -0.08735
C_ C_ 0.63266 0.337676 0.415904 -0.05681
C_ C_ 0.622012 0.368962 0.391969 -0.08735
C_ C_ 0.531964 0.17337 0.408896 0.68181
C_ C_ 0.59091 0.133229 0.483309 0.1947
C_ C_ 0.591336 0.119557 0.0142767 -0.08735
C_ C_ 0.608906 0.14864 0.0358887 -0.08735
C_ C_ 0.638518 0.190313 0.0302292 -0.05681
C_ C_ 0.655895 0.197317 1.00127696 0.18498
C_ C_ 0.682015 0.236769 0.495102 -0.08735
C_ C_ 0.698081 0.27704 0.0154056 -0.08735
C_ C_ 0.678744 0.270741 0.0437418 -0.08735
C_ C_ 0.65081 0.22615 0.0513984 0.18498
C_ C_ 0.685471 0.199043 0.098267 0.44287
C_ C_ 0.597711 0.219149 0.0943963 0.44287
C_ C_ 0.59105 0.204508 0.124558 -0.05681
C_ C_ 0.544353 0.200187 0.136909 -0.08735
C_ C_ 0.536856 0.190119 0.165774 -0.08735
C_ C_ 0.579848 0.183151 0.183935 -0.05681
C_ C_ 0.627019 0.18244 0.17086 -0.05681
C_ C_ 0.634314 0.19463 0.142021 -0.05681
C_ C_ 0.68187 0.196563 0.129268 -0.05681
C_ C_ 0.725275 0.18193 0.146345 -0.08735
C_ C_ 0.718387 0.166947 0.175658 -0.08735
C_ C_ 0.66943 0.172938 0.188691 -0.05681
C_ C_ 0.664047 0.166665 0.21799 0.44287
C_ C_ 0.575949 0.172492 0.21425 0.44287
C_ C_ 0.609978 0.147782 0.260356 0.18498
C_ C_ 0.590828 0.100353 0.266483 -0.08735
C_ C_ 0.579174 0.0856737 0.295478 -0.08735
C_ C_ 0.599462 0.115239 0.31808 -0.08735
C_ C_ 0.615936 0.165533 0.312406 0.18498
C_ C_ 0.620487 0.18198 0.283114 -0.05681
C_ C_ 0.631821 0.23262 0.279323 -0.08735
C_ C_ 0.643679 0.265098 0.302389 -0.08735
C_ C_ 0.638556 0.24624 0.330411 0.1947
C_ C_ 0.760614 0.316108 0.154881 0.68181
C_ C_ 0.704729 0.319957 0.149686 -0.05681
C_ C_ 0.671958 0.315329 0.173417 -0.08735
C_ C_ 0.619209 0.318205 0.169049 -0.05681
C_ C_ 0.598613 0.327261 0.140588 -0.05681
C_ C_ 0.631888 0.336389 0.116784 -0.08735
C_ C_ 0.68376 0.332738 0.122901 -0.08735
C_ C_ 0.586692 0.311932 0.192408 -0.08735
C_ C_ 0.534701 0.321252 0.188833 -0.08735
C_ C_ 0.51373 0.32581 0.161419 -0.05681
C_ C_ 0.545695 0.326791 0.136076 -0.08735
C_ C_ 0.871335 0.223442 0.159292 0.68181
C_ C_ 0.85656 0.420348 0.150367 0.68181
C_ C_ 0.852702 0.478501 0.149031 -0.05681
C_ C_ 0.889918 0.00652681 0.166794 -0.08735
C_ C_ 0.878253 0.0585301 0.166708 -0.05681
C_ C_ 0.872364 0.0818427 0.139923 -0.05681
C_ C_ 0.868955 0.0522344 0.114847 -0.08735
C_ C_ 0.84626 0.503398 0.123224 -0.08735
C_ C_ 0.886717 0.0900766 0.190549 -0.08735
C_ C_ 0.881425 0.14156 0.189504 -0.08735
C_ C_ 0.87986 0.165782 0.162069 -0.05681
C_ C_ 0.87051 0.134099 0.138112 -0.08735
C_ C_ 0.957823 0.316697 0.157661 0.68181
C_ C_ 0.897256 0.376101 0.231356 0.1947
C_ C_ 0.903936 0.396518 0.258623 -0.08735
C_ C_ 0.888201 0.367674 0.282717 -0.08735
C_ C_ 0.856432 0.323998 0.27813 -0.05681
C_ C_ 0.845437 0.309284 0.24861 0.18498
C_ C_ 0.814194 0.268216 0.242447 -0.08735
C_ C_ 0.792979 0.240651 0.2643 -0.08735
C_ C_ 0.806435 0.24998 0.292011 -0.08735
C_ C_ 0.835117 0.293028 0.299974 0.18498
C_ C_ 0.802286 0.312224 0.347797 0.44287
C_ C_ 0.892345 0.303447 0.341526 0.44287
C_ C_ 0.899578 0.31384 0.371679 -0.05681
C_ C_ 0.949356 0.317792 0.383894 -0.08735
C_ C_ 0.955023 0.329369 0.413709 -0.08735
C_ C_ 0.911866 0.333472 0.430454 -0.05681
C_ C_ 0.864565 0.331854 0.418785 -0.05681
C_ C_ 0.858036 0.325184 0.388633 -0.05681
C_ C_ 0.809042 0.322474 0.376902 -0.05681
C_ C_ 0.767789 0.331246 0.39494 -0.08735
C_ C_ 0.773571 0.337767 0.424972 -0.08735
C_ C_ 0.823678 0.341543 0.436965 -0.05681
C_ C_ 0.82985 0.342688 0.467622 0.44287
C_ C_ 0.918285 0.33838 0.461089 0.44287
C_ C_ 0.902158 0.347533 0.008276 0.18498
C_ C_ 0.935791 0.385886 0.0156747 -0.08735
C_ C_ 0.936463 0.404186 0.0437903 -0.08735
C_ C_ 0.911709 0.379622 0.066627 -0.08735
C_ C_ 0.881725 0.338254 0.0601318 0.18498
C_ C_ 0.874175 0.322733 0.0314585 -0.05681
C_ C_ 0.840462 0.282401 0.0256857 -0.08735
C_ C_ 0.819073 0.25737 0.048495 -0.08735
C_ C_ 0.825746 0.275583 0.076697 0.1947
N_ N_ 0.628664 0.167232 0.478109 -0.29468
N_ N_ 0.644036 0.213832 0.0823688 -0.17154
N_ N_ 0.616088 0.163691 0.230559 -0.17154
N_ N_ 0.625628 0.197434 0.33468 -0.29468
N_ N_ 0.865677 0.336013 0.226645 -0.29468
N_ N_ 0.843518 0.304577 0.330043 -0.17154
N_ N_ 0.877373 0.341658 0.479071 -0.17154
N_ N_ 0.861551 0.31087 0.0824466 -0.29468
O_ O_ 0.707555 0.175858 0.427751 -0.58347
O_ O_ 0.695577 0.194101 0.383135 -0.58347
O_ O_ 0.64248 0.253231 0.432942 -0.58347
O_ O_ 0.609898 0.26008 0.391208 -0.58347
O_ O_ 0.624047 0.105043 0.423084 -0.58347
O_ O_ 0.644501 0.111214 0.378887 -0.58347
O_ O_ 0.561114 0.18719 0.428673 -0.58347
O_ O_ 0.549114 0.166464 0.383742 -0.58347
O_ O_ 0.562392 0.245233 0.0813367 -0.46727
O_ O_ 0.728246 0.186047 0.0854892 -0.46727
O_ O_ 0.531395 0.179503 0.227821 -0.46727
O_ O_ 0.705627 0.158011 0.233043 -0.46727
O_ O_ 0.78069 0.326093 0.178629 -0.58347
O_ O_ 0.787548 0.31189 0.132098 -0.58347
O_ O_ 0.856739 0.247382 0.181543 -0.58347
O_ O_ 0.865975 0.241493 0.134947 -0.58347
O_ O_ 0.858132 0.397377 0.174609 -0.58347
O_ O_ 0.858322 0.393973 0.128679 -0.58347
O_ O_ 0.929257 0.317241 0.178677 -0.58347
O_ O_ 0.938752 0.320082 0.131956 -0.58347
O_ O_ 0.932109 0.294526 0.325624 -0.46727
O_ O_ 0.755544 0.305457 0.33774 -0.46727
O_ O_ 0.965235 0.340568 0.470884 -0.46727
O_ O_ 0.790738 0.350888 0.484456 -0.46727
Zn Zn 0.628471 0.18692 0.882602 0.90689
Zn Zn 0.639135 0.181821 0.930645 0.90689
Zn Zn 0.867108 0.304881 0.6313 0.90689
Zn Zn 0.857853 0.311892 0.678451 0.90689
H_ H_ 0.803916 0.199108 0.94562 0.11455
H_ H_ 0.877768 0.178721 0.848339 0.11455
H_ H_ 0.782022 0.190706 0.856578 0.11455
H_ H_ 0.893592 0.193447 0.966936 0.11455
H_ H_ 0.984998 0.205145 0.955026 0.11455
H_ H_ 0.956488 0.16145 0.868612 0.11455
H_ H_ 0.634154 0.0183839 0.944503 0.11455
H_ H_ 0.652997 0.443036 0.847531 0.11455
H_ H_ 0.634297 0.0278016 0.852297 0.11455
H_ H_ 0.600931 0.434256 0.963498 0.11455
H_ H_ 0.604899 0.339049 0.958023 0.11455
H_ H_ 0.631334 0.354499 0.86806 0.11455
H_ H_ 0.580398 0.115286 0.968306 0.11455
H_ H_ 0.557049 0.0878142 0.514622 0.11455
H_ H_ 0.593857 0.128382 0.555209 0.11455
H_ H_ 0.701833 0.246237 0.972873 0.11455
H_ H_ 0.718968 0.302127 0.51122 0.11455
H_ H_ 0.693775 0.283159 0.563239 0.11455
H_ H_ 0.508984 0.194919 0.625571 0.11455
H_ H_ 0.500438 0.187079 0.67904 0.11455
H_ H_ 0.761957 0.171832 0.636356 0.11455
H_ H_ 0.757042 0.167736 0.688736 0.11455
H_ H_ 0.59638 0.0759538 0.75017 0.11455
H_ H_ 0.569026 0.0546494 0.799552 0.11455
H_ H_ 0.588067 0.113155 0.839246 0.11455
H_ H_ 0.668252 0.239056 0.758507 0.11455
H_ H_ 0.681943 0.3003 0.800032 0.11455
H_ H_ 0.669699 0.26367 0.84824 0.11455
H_ H_ 0.687319 0.295211 0.694958 0.11455
H_ H_ 0.618221 0.330908 0.598661 0.11455
H_ H_ 0.715394 0.335921 0.605293 0.11455
H_ H_ 0.600331 0.31296 0.713612 0.11455
H_ H_ 0.511522 0.311622 0.7064 0.11455
H_ H_ 0.532808 0.324884 0.616873 0.11455
H_ H_ 0.832872 0.476853 0.686325 0.11455
H_ H_ 0.872188 0.0568048 0.598857 0.11455
H_ H_ 0.886424 0.467236 0.601512 0.11455
H_ H_ 0.883449 0.0653857 0.718314 0.11455
H_ H_ 0.892198 0.157959 0.711682 0.11455
H_ H_ 0.859274 0.140717 0.622424 0.11455
H_ H_ 0.911218 0.38966 0.712764 0.11455
H_ H_ 0.922961 0.427309 0.760036 0.11455
H_ H_ 0.881137 0.38153 0.802791 0.11455
H_ H_ 0.80434 0.250614 0.722709 0.11455
H_ H_ 0.776052 0.199544 0.764261 0.11455
H_ H_ 0.813508 0.215636 0.81228 0.11455
H_ H_ 0.983352 0.28721 0.866714 0.11455
H_ H_ -0.00136473 0.2848 0.918811 0.11455
H_ H_ 0.739675 0.353849 0.890964 0.11455
H_ H_ 0.759174 0.365618 0.940251 0.11455
H_ H_ 0.952873 0.406547 0.999242 0.11455
H_ H_ 0.953223 0.430332 0.551751 0.11455
H_ H_ 0.921844 0.376659 0.589447 0.11455
H_ H_ 0.837445 0.259697 0.501654 0.11455
H_ H_ 0.814447 0.198519 0.542903 0.11455
H_ H_ 0.832254 0.220775 0.590825 0.11455
C_ C_ 0.732942 0.183379 0.90624 0.68181
C_ C_ 0.788546 0.186049 0.90098 -0.05681
C_ C_ 0.820353 0.190772 0.92429 -0.08735
C_ C_ 0.873505 0.181816 0.920971 -0.05681
C_ C_ 0.891957 0.174565 0.893253 -0.05681
C_ C_ 0.860862 0.178342 0.869042 -0.08735
C_ C_ 0.807973 0.187277 0.873596 -0.08735
C_ C_ 0.906654 0.18751 0.944533 -0.08735
C_ C_ 0.958308 0.18697 0.939838 -0.08735
C_ C_ 0.977262 0.173796 0.912213 -0.05681
C_ C_ 0.943065 0.169965 0.889803 -0.08735
C_ C_ 0.629164 0.282622 0.912697 0.68181
C_ C_ 0.637186 0.0860826 0.901231 0.68181
C_ C_ 0.635582 0.0291564 0.899253 -0.05681
C_ C_ 0.617505 0.499012 0.920771 -0.08735
C_ C_ 0.616047 0.445703 0.917457 -0.05681
C_ C_ 0.631011 0.424043 0.891498 -0.05681
C_ C_ 0.64299 0.456517 0.867805 -0.08735
C_ C_ 0.650255 0.508752 0.873283 -0.08735
C_ C_ 0.606291 0.416408 0.942429 -0.08735
C_ C_ 0.611203 0.362668 0.939863 -0.08735
C_ C_ 0.623796 0.33989 0.914455 -0.05681
C_ C_ 0.625558 0.370859 0.889127 -0.08735
C_ C_ 0.534396 0.179615 0.907086 0.68181
C_ C_ 0.600015 0.135463 0.985657 0.1947
C_ C_ 0.582276 0.116206 0.510837 -0.08735
C_ C_ 0.605116 0.140738 0.533546 -0.08735
C_ C_ 0.638785 0.181519 0.530157 -0.05681
C_ C_ 0.650322 0.195036 0.500881 0.18498
C_ C_ 0.689741 0.23772 0.995028 -0.08735
C_ C_ 0.695515 0.268817 0.517429 -0.08735
C_ C_ 0.680303 0.258925 0.54594 -0.08735
C_ C_ 0.655813 0.21271 0.552642 0.18498
C_ C_ 0.688347 0.189441 0.59954 0.44287
C_ C_ 0.600218 0.205368 0.596189 0.44287
C_ C_ 0.591653 0.194109 0.625883 -0.05681
C_ C_ 0.543283 0.188956 0.638318 -0.08735
C_ C_ 0.538412 0.183902 0.668553 -0.08735
C_ C_ 0.581919 0.177668 0.6856 -0.05681
C_ C_ 0.627864 0.169785 0.672181 -0.05681
C_ C_ 0.634304 0.178216 0.641396 -0.05681
C_ C_ 0.682914 0.175894 0.628422 -0.05681
C_ C_ 0.725359 0.16861 0.646119 -0.08735
C_ C_ 0.721058 0.171315 0.675567 -0.08735
C_ C_ 0.673297 0.166369 0.688618 -0.05681
C_ C_ 0.667554 0.161383 0.718318 0.44287
C_ C_ 0.580103 0.176217 0.715087 0.44287
C_ C_ 0.61226 0.153473 0.761026 0.18498
C_ C_ 0.593838 0.10472 0.767314 -0.08735
C_ C_ 0.585935 0.0900775 0.795782 -0.08735
C_ C_ 0.601831 0.120374 0.817818 -0.08735
C_ C_ 0.623712 0.167945 0.812284 0.18498
C_ C_ 0.630503 0.183861 0.784039 -0.05681
C_ C_ 0.656915 0.22908 0.779558 -0.08735
C_ C_ 0.670117 0.260329 0.803325 -0.08735
C_ C_ 0.658136 0.242462 0.829955 0.1947
C_ C_ 0.762241 0.300206 0.65231 0.68181
C_ C_ 0.706867 0.30895 0.649367 -0.05681
C_ C_ 0.673054 0.301949 0.672737 -0.08735
C_ C_ 0.621343 0.312631 0.669208 -0.05681
C_ C_ 0.603074 0.321322 0.641473 -0.05681
C_ C_ 0.634143 0.327944 0.619696 -0.08735
C_ C_ 0.687278 0.328248 0.622937 -0.08735
C_ C_ 0.586863 0.313798 0.692308 -0.08735
C_ C_ 0.536176 0.309249 0.687553 -0.08735
C_ C_ 0.51679 0.310009 0.659974 -0.05681
C_ C_ 0.549613 0.316254 0.637353 -0.08735
C_ C_ 0.877849 0.212383 0.664375 0.68181
C_ C_ 0.855091 0.407078 0.646112 0.68181
C_ C_ 0.853972 0.463401 0.643976 -0.05681
C_ C_ 0.873976 -0.004163000000000028 0.673431 -0.08735
C_ C_ 0.87275 0.0488896 0.671801 -0.05681
C_ C_ 0.873981 0.0721112 0.645508 -0.05681
C_ C_ 0.876588 0.0405783 0.620287 -0.08735
C_ C_ 0.876305 0.487359 0.62 -0.08735
C_ C_ 0.879801 0.0803391 0.69664 -0.08735
C_ C_ 0.884057 0.133197 0.692998 -0.08735
C_ C_ 0.875609 0.156109 0.666461 -0.05681
C_ C_ 0.865984 0.124857 0.643374 -0.08735
C_ C_ 0.960288 0.319721 0.656273 0.68181
C_ C_ 0.896122 0.369024 0.729841 0.1947
C_ C_ 0.901434 0.391704 0.757412 -0.08735
C_ C_ 0.878375 0.366277 0.780612 -0.08735
C_ C_ 0.850335 0.323673 0.77695 -0.05681
C_ C_ 0.843562 0.304743 0.748672 0.18498
C_ C_ 0.813998 0.261423 0.744466 -0.08735
C_ C_ 0.800451 0.232625 0.767762 -0.08735
C_ C_ 0.812488 0.245676 0.795535 -0.08735
C_ C_ 0.834719 0.29314 0.800605 0.18498
C_ C_ 0.80845 0.325346 0.847758 0.44287
C_ C_ 0.894685 0.299615 0.840535 0.44287
C_ C_ 0.903977 0.303531 0.870734 -0.05681
C_ C_ 0.952132 0.299593 0.880616 -0.08735
C_ C_ 0.963121 0.299243 0.910435 -0.08735
C_ C_ 0.924976 0.318539 0.930246 -0.05681
C_ C_ 0.874926 0.325267 0.919488 -0.05681
C_ C_ 0.865875 0.32053 0.888928 -0.05681
C_ C_ 0.817716 0.333485 0.877154 -0.05681
C_ C_ 0.777638 0.347519 0.897111 -0.08735
C_ C_ 0.785762 0.347516 0.927239 -0.08735
C_ C_ 0.834807 0.33805 0.938937 -0.05681
C_ C_ 0.84448 0.344368 0.967036 0.44287
C_ C_ 0.932432 0.320724 0.959969 0.44287
C_ C_ 0.887913 0.350103 0.509769 0.18498
C_ C_ 0.919394 0.389866 0.5172 -0.08735
C_ C_ 0.92593 0.403038 0.546325 -0.08735
C_ C_ 0.910138 0.368479 0.568058 -0.08735
C_ C_ 0.883563 0.32464 0.561056 0.18498
C_ C_ 0.872564 0.315458 0.531548 -0.05681
C_ C_ 0.848064 0.270883 0.5253 -0.08735
C_ C_ 0.831092 0.236614 0.54676 -0.08735
C_ C_ 0.840904 0.24926 0.575422 0.1947
N_ N_ 0.637776 0.168361 0.979345 -0.29468
N_ N_ 0.646468 0.198318 0.582625 -0.17154
N_ N_ 0.621637 0.166064 0.730948 -0.17154
N_ N_ 0.630407 0.200941 0.835029 -0.29468
N_ N_ 0.863922 0.329448 0.725923 -0.29468
N_ N_ 0.846104 0.305566 0.831173 -0.17154
N_ N_ 0.892819 0.335477 0.977618 -0.17154
N_ N_ 0.865356 0.2935 0.582343 -0.29468
O_ O_ 0.716735 0.179328 0.931977 -0.58347
O_ O_ 0.701889 0.197171 0.886375 -0.58347
O_ O_ 0.638397 0.257397 0.935401 -0.58347
O_ O_ 0.616598 0.258578 0.889674 -0.58347
O_ O_ 0.635884 0.106549 0.926049 -0.58347
O_ O_ 0.637033 0.113737 0.87915 -0.58347
O_ O_ 0.561024 0.184522 0.929563 -0.58347
O_ O_ 0.556558 0.171682 0.883851 -0.58347
O_ O_ 0.564002 0.226407 0.58174 -0.46727
O_ O_ 0.734162 0.192785 0.588198 -0.46727
O_ O_ 0.540543 0.19776 0.727834 -0.46727
O_ O_ 0.707947 0.152242 0.734718 -0.46727
O_ O_ 0.782498 0.314335 0.676289 -0.58347
O_ O_ 0.790887 0.292985 0.630637 -0.58347
O_ O_ 0.864343 0.239895 0.685387 -0.58347
O_ O_ 0.882155 0.231261 0.639257 -0.58347
O_ O_ 0.855773 0.388389 0.670602 -0.58347
O_ O_ 0.853956 0.377843 0.623678 -0.58347
O_ O_ 0.935013 0.31223 0.678479 -0.58347
O_ O_ 0.941576 0.314851 0.631392 -0.58347
O_ O_ 0.929404 0.278185 0.824483 -0.46727
O_ O_ 0.76181 0.332336 0.83647 -0.46727
O_ O_ 0.97808 0.310332 0.970653 -0.46727
O_ O_ 0.809952 0.359695 0.983645 -0.46727
Zn Zn 0.63224 0.687264 0.382131 0.90689
Zn Zn 0.639415 0.686659 0.431535 0.90689
Zn Zn 0.871908 0.815098 0.132957 0.90689
Zn Zn 0.862657 0.824312 0.178797 0.90689
H_ H_ 0.806907 0.675928 0.445372 0.11455
H_ H_ 0.879616 0.664006 0.348104 0.11455
H_ H_ 0.789825 0.672023 0.352278 0.11455
H_ H_ 0.891649 0.665335 0.467015 0.11455
H_ H_ 0.982296 0.673781 0.461178 0.11455
H_ H_ 0.967519 0.679027 0.37104 0.11455
H_ H_ 0.648128 0.516081 0.443888 0.11455
H_ H_ 0.653453 0.934923 0.348775 0.11455
H_ H_ 0.634098 0.528287 0.352741 0.11455
H_ H_ 0.613501 0.930713 0.462343 0.11455
H_ H_ 0.617501 0.835779 0.458794 0.11455
H_ H_ 0.637071 0.850691 0.368801 0.11455
H_ H_ 0.570725 0.622517 0.466224 0.11455
H_ H_ 0.577061 0.574739 0.0128146 0.11455
H_ H_ 0.61349 0.622038 0.0548714 0.11455
H_ H_ 0.714803 0.728869 0.475478 0.11455
H_ H_ 0.723735 0.796803 0.00917148 0.11455
H_ H_ 0.697208 0.784661 0.0594195 0.11455
H_ H_ 0.504949 0.701624 0.12035 0.11455
H_ H_ 0.497972 0.716941 0.172592 0.11455
H_ H_ 0.748437 0.638399 0.137455 0.11455
H_ H_ 0.732711 0.630386 0.187424 0.11455
H_ H_ 0.560509 0.598018 0.249595 0.11455
H_ H_ 0.528886 0.580173 0.300211 0.11455
H_ H_ 0.576557 0.627127 0.340865 0.11455
H_ H_ 0.652801 0.75726 0.257726 0.11455
H_ H_ 0.694161 0.795617 0.299658 0.11455
H_ H_ 0.690618 0.7578 0.347856 0.11455
H_ H_ 0.702265 0.83669 0.191487 0.11455
H_ H_ 0.625833 0.849532 0.0968219 0.11455
H_ H_ 0.71931 0.83889 0.102869 0.11455
H_ H_ 0.617215 0.820182 0.213285 0.11455
H_ H_ 0.521293 0.830734 0.209802 0.11455
H_ H_ 0.538457 0.833429 0.11642 0.11455
H_ H_ 0.903003 0.987725 0.186716 0.11455
H_ H_ 0.850233 0.572401 0.100232 0.11455
H_ H_ 0.863684 0.974184 0.0984443 0.11455
H_ H_ 0.873376 0.576375 0.216766 0.11455
H_ H_ 0.875347 0.667122 0.21193 0.11455
H_ H_ 0.855418 0.656291 0.119542 0.11455
H_ H_ 0.911199 0.898571 0.215641 0.11455
H_ H_ 0.925802 0.92478 0.266985 0.11455
H_ H_ 0.883076 0.879943 0.307231 0.11455
H_ H_ 0.794308 0.76763 0.220395 0.11455
H_ H_ 0.753824 0.716513 0.259442 0.11455
H_ H_ 0.77662 0.732072 0.310467 0.11455
H_ H_ 0.984691 0.788607 0.367966 0.11455
H_ H_ 5.97914e-05 0.798793 0.418228 0.11455
H_ H_ 0.737878 0.830548 0.392178 0.11455
H_ H_ 0.751831 0.837362 0.440737 0.11455
H_ H_ 0.923262 0.905683 0.500465 0.11455
H_ H_ 0.952183 0.93369 0.0491387 0.11455
H_ H_ 0.93491 0.875026 0.0893863 0.11455
H_ H_ 0.852414 0.741546 0.00750699 0.11455
H_ H_ 0.809394 0.704384 0.0486982 0.11455
H_ H_ 0.818347 0.743058 0.0976587 0.11455
C_ C_ 0.733962 0.686357 0.404546 0.68181
C_ C_ 0.791553 0.678688 0.400683 -0.05681
C_ C_ 0.822549 0.67748 0.424654 -0.08735
C_ C_ 0.876211 0.674663 0.421665 -0.05681
C_ C_ 0.896729 0.676337 0.393209 -0.05681
C_ C_ 0.865086 0.674575 0.369525 -0.08735
C_ C_ 0.81155 0.678026 0.372624 -0.08735
C_ C_ 0.907704 0.669082 0.444995 -0.08735
C_ C_ 0.959217 0.671359 0.441839 -0.08735
C_ C_ 0.983329 0.672338 0.414079 -0.05681
C_ C_ 0.949862 0.671055 0.389875 -0.08735
C_ C_ 0.635928 0.784132 0.413216 0.68181
C_ C_ 0.636538 0.58814 0.400948 0.68181
C_ C_ 0.634013 0.530793 0.398884 -0.05681
C_ C_ 0.623006 0.996832 0.420176 -0.08735
C_ C_ 0.622464 0.942658 0.417221 -0.05681
C_ C_ 0.632119 0.921343 0.391408 -0.05681
C_ C_ 0.640388 0.95346 0.368192 -0.08735
C_ C_ 0.648074 1.00610995 0.371444 -0.08735
C_ C_ 0.617962 0.912964 0.442408 -0.08735
C_ C_ 0.619768 0.860204 0.440505 -0.08735
C_ C_ 0.628432 0.838474 0.41442 -0.05681
C_ C_ 0.631724 0.868805 0.389628 -0.08735
C_ C_ 0.539513 0.697237 0.407207 0.68181
C_ C_ 0.595865 0.6327 0.482967 0.1947
C_ C_ 0.584866 0.612824 0.0111371 -0.08735
C_ C_ 0.6119 0.63698 0.0335621 -0.08735
C_ C_ 0.635844 0.683711 0.0284599 -0.05681
C_ C_ 0.648759 0.694337 0.998424 0.18498
C_ C_ 0.695892 0.727291 0.496091 -0.08735
C_ C_ 0.694397 0.769525 0.0131349 -0.08735
C_ C_ 0.682349 0.759315 0.0424113 -0.08735
C_ C_ 0.654414 0.713772 0.0502733 0.18498
C_ C_ 0.681751 0.679479 0.0980926 0.44287
C_ C_ 0.596751 0.7032 0.0909812 0.44287
C_ C_ 0.587242 0.693775 0.121578 -0.05681
C_ C_ 0.539505 0.701769 0.134373 -0.08735
C_ C_ 0.535329 0.70749 0.16344 -0.08735
C_ C_ 0.575005 0.69389 0.182214 -0.05681
C_ C_ 0.620867 0.680004 0.169869 -0.05681
C_ C_ 0.627415 0.682127 0.139645 -0.05681
C_ C_ 0.674094 0.668633 0.127382 -0.05681
C_ C_ 0.714058 0.65174 0.146544 -0.08735
C_ C_ 0.707992 0.653552 0.175892 -0.08735
C_ C_ 0.661711 0.667407 0.188024 -0.05681
C_ C_ 0.654082 0.669249 0.218451 0.44287
C_ C_ 0.567663 0.692208 0.21302 0.44287
C_ C_ 0.597771 0.66842 0.26048 0.18498
C_ C_ 0.568565 0.625192 0.267285 -0.08735
C_ C_ 0.556197 0.610791 0.296445 -0.08735
C_ C_ 0.574933 0.64069 0.318497 -0.08735
C_ C_ 0.609087 0.680972 0.313235 0.18498
C_ C_ 0.617414 0.697358 0.284425 -0.05681
C_ C_ 0.647918 0.740997 0.279395 -0.08735
C_ C_ 0.671116 0.764132 0.30259 -0.08735
C_ C_ 0.667881 0.742828 0.33035 0.1947
C_ C_ 0.770602 0.822441 0.151736 0.68181
C_ C_ 0.714249 0.828484 0.147319 -0.05681
C_ C_ 0.683274 0.833085 0.171495 -0.08735
C_ C_ 0.629919 0.832374 0.168196 -0.05681
C_ C_ 0.607477 0.840516 0.141222 -0.05681
C_ C_ 0.639775 0.839425 0.116665 -0.08735
C_ C_ 0.692989 0.834697 0.120472 -0.08735
C_ C_ 0.598051 0.829069 0.19252 -0.08735
C_ C_ 0.544983 0.837162 0.190721 -0.08735
C_ C_ 0.522491 0.833722 0.163246 -0.05681
C_ C_ 0.554764 0.835595 0.138473 -0.08735
C_ C_ 0.866107 0.724132 0.164432 0.68181
C_ C_ 0.873614 0.916723 0.147416 0.68181
C_ C_ 0.878309 0.975561 0.143636 -0.05681
C_ C_ 0.86326 0.507843 0.173433 -0.08735
C_ C_ 0.861403 0.560706 0.17175 -0.05681
C_ C_ 0.857793 0.584667 0.144937 -0.05681
C_ C_ 0.849367 0.555594 0.121239 -0.08735
C_ C_ 0.874695 0.998569 0.116448 -0.08735
C_ C_ 0.870802 0.591812 0.195372 -0.08735
C_ C_ 0.873313 0.644414 0.192063 -0.08735
C_ C_ 0.868186 0.668066 0.165376 -0.05681
C_ C_ 0.863321 0.637809 0.140841 -0.08735
C_ C_ 0.96613 0.83031 0.16027 0.68181
C_ C_ 0.893584 0.878323 0.233191 0.1947
C_ C_ 0.898983 0.894284 0.261823 -0.08735
C_ C_ 0.877447 0.868097 0.284177 -0.08735
C_ C_ 0.848418 0.825172 0.277337 -0.05681
C_ C_ 0.837194 0.814632 0.247229 0.18498
C_ C_ 0.802309 0.775757 0.241476 -0.08735
C_ C_ 0.778519 0.749206 0.263775 -0.08735
C_ C_ 0.792609 0.758402 0.292921 -0.08735
C_ C_ 0.830464 0.794665 0.300426 0.18498
C_ C_ 0.807804 0.816357 0.348813 0.44287
C_ C_ 0.891938 0.796196 0.341346 0.44287
C_ C_ 0.90271 0.797762 0.370734 -0.05681
C_ C_ 0.951979 0.793357 0.381703 -0.08735
C_ C_ 0.961812 0.800549 0.411089 -0.08735
C_ C_ 0.923007 0.808631 0.430335 -0.05681
C_ C_ 0.87254 0.808032 0.419796 -0.05681
C_ C_ 0.862718 0.807596 0.390606 -0.05681
C_ C_ 0.813014 0.813135 0.37969 -0.05681
C_ C_ 0.775392 0.825579 0.398844 -0.08735
C_ C_ 0.782888 0.824037 0.427882 -0.08735
C_ C_ 0.832681 0.819902 0.439462 -0.05681
C_ C_ 0.843165 0.827948 0.469289 0.44287
C_ C_ 0.928798 0.813524 0.461158 0.44287
C_ C_ 0.905522 0.832193 0.00967772 0.18498
C_ C_ 0.925124 0.880384 0.0170022 -0.08735
C_ C_ 0.934204 0.89755 0.0450766 -0.08735
C_ C_ 0.924567 0.864586 0.0677411 -0.08735
C_ C_ 0.89835 0.819073 0.0629045 0.18498
C_ C_ 0.887407 0.802339 0.0337466 -0.05681
C_ C_ 0.856245 0.760286 0.0294317 -0.08735
C_ C_ 0.835457 0.73659 0.0519909 -0.08735
C_ C_ 0.841717 0.756698 0.0794626 0.1947
N_ N_ 0.630514 0.671344 0.478922 -0.29468
N_ N_ 0.645529 0.700868 0.0810444 -0.17154
N_ N_ 0.607663 0.678628 0.23053 -0.17154
N_ N_ 0.639016 0.701268 0.334837 -0.29468
N_ N_ 0.865393 0.836977 0.226489 -0.29468
N_ N_ 0.845303 0.803827 0.330465 -0.17154
N_ N_ 0.890751 0.821667 0.479367 -0.17154
N_ N_ 0.879083 0.79158 0.0854294 -0.29468
O_ O_ 0.712605 0.67997 0.42839 -0.58347
O_ O_ 0.707849 0.689219 0.382612 -0.58347
O_ O_ 0.647577 0.760857 0.435893 -0.58347
O_ O_ 0.62806 0.761768 0.389547 -0.58347
O_ O_ 0.63509 0.608077 0.425753 -0.58347
O_ O_ 0.632443 0.613552 0.378469 -0.58347
O_ O_ 0.56437 0.696732 0.429889 -0.58347
O_ O_ 0.558009 0.685968 0.383972 -0.58347
O_ O_ 0.559935 0.719621 0.0749818 -0.46727
O_ O_ 0.727046 0.669588 0.0854203 -0.46727
O_ O_ 0.524687 0.709643 0.224074 -0.46727
O_ O_ 0.690446 0.65448 0.236859 -0.46727
O_ O_ 0.789237 0.828921 0.176185 -0.58347
O_ O_ 0.79763 0.809585 0.131747 -0.58347
O_ O_ 0.861101 0.751245 0.186276 -0.58347
O_ O_ 0.875679 0.743548 0.140828 -0.58347
O_ O_ 0.862959 0.899344 0.172357 -0.58347
O_ O_ 0.866084 0.88994 0.125622 -0.58347
O_ O_ 0.936336 0.824825 0.181254 -0.58347
O_ O_ 0.948565 0.825951 0.135595 -0.58347
O_ O_ 0.929838 0.793257 0.322616 -0.46727
O_ O_ 0.764567 0.830102 0.338916 -0.46727
O_ O_ 0.973084 0.8057 0.472508 -0.46727
O_ O_ 0.80616 0.835981 0.487577 -0.46727
Zn Zn 0.62266 0.690092 0.882595 0.90689
Zn Zn 0.632178 0.679524 0.93046 0.90689
Zn Zn 0.881624 0.803038 0.631312 0.90689
Zn Zn 0.870348 0.816328 0.679027 0.90689
H_ H_ 0.79803 0.681916 0.94645 0.11455
H_ H_ 0.86679 0.674233 0.849156 0.11455
H_ H_ 0.775671 0.682777 0.857653 0.11455
H_ H_ 0.887872 0.676852 0.967929 0.11455
H_ H_ 0.974465 0.700291 0.953749 0.11455
H_ H_ 0.955501 0.681108 0.869828 0.11455
H_ H_ 0.605592 0.516107 0.941015 0.11455
H_ H_ 0.627981 0.931849 0.848138 0.11455
H_ H_ 0.668699 0.532648 0.857651 0.11455
H_ H_ 0.604366 0.936193 0.966874 0.11455
H_ H_ 0.605987 0.841173 0.961763 0.11455
H_ H_ 0.637594 0.854475 0.870503 0.11455
H_ H_ 0.577982 0.604026 0.967274 0.11455
H_ H_ 0.558949 0.586077 0.513718 0.11455
H_ H_ 0.607795 0.625413 0.55558 0.11455
H_ H_ 0.697752 0.740289 0.970496 0.11455
H_ H_ 0.750628 0.780764 0.512931 0.11455
H_ H_ 0.718257 0.766798 0.563353 0.11455
H_ H_ 0.515511 0.710895 0.622273 0.11455
H_ H_ 0.507037 0.697854 0.674942 0.11455
H_ H_ 0.764627 0.65361 0.638877 0.11455
H_ H_ 0.753073 0.646889 0.68899 0.11455
H_ H_ 0.563824 0.587334 0.749554 0.11455
H_ H_ 0.554629 0.560847 0.799951 0.11455
H_ H_ 0.573711 0.626375 0.839113 0.11455
H_ H_ 0.663722 0.742302 0.756184 0.11455
H_ H_ 0.700434 0.788381 0.797498 0.11455
H_ H_ 0.678807 0.761489 0.846611 0.11455
H_ H_ 0.706569 0.817409 0.695808 0.11455
H_ H_ 0.633755 0.848953 0.599266 0.11455
H_ H_ 0.724883 0.824561 0.60354 0.11455
H_ H_ 0.619188 0.812955 0.715661 0.11455
H_ H_ 0.527864 0.809095 0.709909 0.11455
H_ H_ 0.549579 0.851785 0.620392 0.11455
H_ H_ 0.86696 0.976803 0.692891 0.11455
H_ H_ 0.89977 0.553132 0.598942 0.11455
H_ H_ 0.899119 0.970382 0.601728 0.11455
H_ H_ 0.844026 0.56468 0.71355 0.11455
H_ H_ 0.858438 0.656261 0.707127 0.11455
H_ H_ 0.882793 0.636608 0.617128 0.11455
H_ H_ 0.93519 0.87469 0.715787 0.11455
H_ H_ 0.932479 0.923033 0.763251 0.11455
H_ H_ 0.899415 0.870538 0.806551 0.11455
H_ H_ 0.803237 0.75779 0.725579 0.11455
H_ H_ 0.772122 0.702133 0.765457 0.11455
H_ H_ 0.80129 0.721533 0.814939 0.11455
H_ H_ 1.0001636 0.800603 0.869013 0.11455
H_ H_ 1.0109179 0.802152 0.922449 0.11455
H_ H_ 0.744902 0.818573 0.891319 0.11455
H_ H_ 0.757158 0.823191 0.942468 0.11455
H_ H_ 0.938659 0.903189 0.99934 0.11455
H_ H_ 0.966011 0.916781 0.548102 0.11455
H_ H_ 0.936102 0.865206 0.590322 0.11455
H_ H_ 0.851547 0.744211 0.505989 0.11455
H_ H_ 0.800307 0.705611 0.547065 0.11455
H_ H_ 0.821536 0.728108 0.595056 0.11455
C_ C_ 0.726357 0.690646 0.908492 0.68181
C_ C_ 0.781582 0.6862 0.903259 -0.05681
C_ C_ 0.815439 0.682744 0.925788 -0.08735
C_ C_ 0.867947 0.675338 0.921782 -0.05681
C_ C_ 0.88692 0.671357 0.893676 -0.05681
C_ C_ 0.853364 0.680922 0.870909 -0.08735
C_ C_ 0.80066 0.682855 0.87615 -0.08735
C_ C_ 0.901201 0.671003 0.945733 -0.08735
C_ C_ 0.953725 0.676344 0.941045 -0.08735
C_ C_ 0.974214 0.674259 0.912877 -0.05681
C_ C_ 0.93968 0.676548 0.88995 -0.08735
C_ C_ 0.619871 0.78209 0.914167 0.68181
C_ C_ 0.636122 0.58778 0.900102 0.68181
C_ C_ 0.637275 0.529918 0.89835 -0.05681
C_ C_ 0.632144 -0.00034263 0.923709 -0.08735
C_ C_ 0.62345 0.948718 0.922004 -0.05681
C_ C_ 0.623026 0.924804 0.895143 -0.05681
C_ C_ 0.625784 0.952367 0.869645 -0.08735
C_ C_ 0.631046 0.00438077 0.871674 -0.08735
C_ C_ 0.614252 0.919078 0.946433 -0.08735
C_ C_ 0.614757 0.865045 0.9439 -0.08735
C_ C_ 0.621706 0.839122 0.917272 -0.05681
C_ C_ 0.627584 0.870902 0.892312 -0.08735
C_ C_ 0.527166 0.675537 0.904641 0.68181
C_ C_ 0.591397 0.629573 0.983468 0.1947
C_ C_ 0.588142 0.615269 0.510588 -0.08735
C_ C_ 0.613744 0.639415 0.533907 -0.08735
C_ C_ 0.645898 0.680624 0.529781 -0.05681
C_ C_ 0.656523 0.692178 0.501116 0.18498
C_ C_ 0.681723 0.735397 0.99226 -0.08735
C_ C_ 0.719418 0.75444 0.51778 -0.08735
C_ C_ 0.701581 0.74663 0.545985 -0.08735
C_ C_ 0.666309 0.709579 0.552402 0.18498
C_ C_ 0.692942 0.68057 0.598883 0.44287
C_ C_ 0.608244 0.708162 0.593713 0.44287
C_ C_ 0.598875 0.700043 0.623385 -0.05681
C_ C_ 0.54994 0.705778 0.636251 -0.08735
C_ C_ 0.54462 0.698369 0.666008 -0.08735
C_ C_ 0.584055 0.684931 0.682993 -0.05681
C_ C_ 0.632101 0.678412 0.670191 -0.05681
C_ C_ 0.639245 0.68666 0.640974 -0.05681
C_ C_ 0.686656 0.675385 0.628124 -0.05681
C_ C_ 0.726043 0.65861 0.646326 -0.08735
C_ C_ 0.720106 0.655846 0.675509 -0.08735
C_ C_ 0.673198 0.661575 0.687455 -0.05681
C_ C_ 0.663102 0.653518 0.718 0.44287
C_ C_ 0.579976 0.688303 0.71308 0.44287
C_ C_ 0.605958 0.65514 0.760183 0.18498
C_ C_ 0.575058 0.61288 0.766759 -0.08735
C_ C_ 0.56424 0.600361 0.795269 -0.08735
C_ C_ 0.579173 0.634157 0.817566 -0.08735
C_ C_ 0.61161 0.674673 0.811868 0.18498
C_ C_ 0.6251 0.684845 0.783253 -0.05681
C_ C_ 0.656148 0.728417 0.777776 -0.08735
C_ C_ 0.675979 0.755691 0.800571 -0.08735
C_ C_ 0.663522 0.741664 0.828491 0.1947
C_ C_ 0.775278 0.814951 0.654679 0.68181
C_ C_ 0.721361 0.819501 0.649833 -0.05681
C_ C_ 0.689928 0.818792 0.674467 -0.08735
C_ C_ 0.636865 0.825248 0.671409 -0.05681
C_ C_ 0.616766 0.837404 0.644173 -0.05681
C_ C_ 0.648514 0.836923 0.619454 -0.08735
C_ C_ 0.701985 0.829231 0.62258 -0.08735
C_ C_ 0.604248 0.82062 0.694797 -0.08735
C_ C_ 0.551492 0.821352 0.691289 -0.08735
C_ C_ 0.52879 0.828443 0.663532 -0.05681
C_ C_ 0.562116 0.839915 0.640707 -0.08735
C_ C_ 0.872614 0.709799 0.660132 0.68181
C_ C_ 0.871833 0.909672 0.649143 0.68181
C_ C_ 0.880475 0.963981 0.648705 -0.05681
C_ C_ 0.848525 0.49457 0.668437 -0.08735
C_ C_ 0.858458 0.547342 0.667591 -0.05681
C_ C_ 0.872119 0.569626 0.64159 -0.05681
C_ C_ 0.883439 0.538388 0.618691 -0.08735
C_ C_ 0.888992 0.989241 0.621966 -0.08735
C_ C_ 0.851602 0.579517 0.691796 -0.08735
C_ C_ 0.859872 0.633001 0.688817 -0.08735
C_ C_ 0.866441 0.654558 0.662467 -0.05681
C_ C_ 0.874752 0.622872 0.638533 -0.08735
C_ C_ 0.976112 0.806294 0.659208 0.68181
C_ C_ 0.912135 0.861309 0.73301 0.1947
C_ C_ 0.917131 0.884582 0.760988 -0.08735
C_ C_ 0.893136 0.859102 0.784727 -0.08735
C_ C_ 0.865176 0.815055 0.779507 -0.05681
C_ C_ 0.85222 0.801757 0.750186 0.18498
C_ C_ 0.817885 0.761899 0.745684 -0.08735
C_ C_ 0.80188 0.73252 0.768083 -0.08735
C_ C_ 0.816167 0.743967 0.796053 -0.08735
C_ C_ 0.849909 0.781991 0.80224 0.18498
C_ C_ 0.820663 0.807836 0.84946 0.44287
C_ C_ 0.907967 0.792406 0.843628 0.44287
C_ C_ 0.916921 0.804412 0.871439 -0.05681
C_ C_ 0.966611 0.803822 0.882927 -0.08735
C_ C_ 0.972891 0.797131 0.912934 -0.08735
C_ C_ 0.933567 0.807265 0.932266 -0.05681
C_ C_ 0.88351 0.811194 0.921243 -0.05681
C_ C_ 0.876089 0.806721 0.890946 -0.05681
C_ C_ 0.826957 0.810418 0.880015 -0.05681
C_ C_ 0.78427 0.812186 0.898792 -0.08735
C_ C_ 0.792458 0.816886 0.928533 -0.08735
C_ C_ 0.842999 0.818156 0.939271 -0.05681
C_ C_ 0.852343 0.826093 0.968264 0.44287
C_ C_ 0.938861 0.806538 0.962402 0.44287
C_ C_ 0.901223 0.830158 0.508963 0.18498
C_ C_ 0.920876 0.877383 0.515973 -0.08735
C_ C_ 0.937633 0.886866 0.544301 -0.08735
C_ C_ 0.924587 0.856404 0.567083 -0.08735
C_ C_ 0.89241 0.815501 0.562429 0.18498
C_ C_ 0.885644 0.798983 0.532491 -0.05681
C_ C_ 0.854432 0.757749 0.527268 -0.08735
C_ C_ 0.830719 0.732815 0.549745 -0.08735
C_ C_ 0.841687 0.745018 0.57873 0.1947
N_ N_ 0.623191 0.668242 0.97679 -0.29468
N_ N_ 0.655005 0.699109 0.582717 -0.17154
N_ N_ 0.617583 0.669361 0.730251 -0.17154
N_ N_ 0.627226 0.706071 0.834332 -0.29468
N_ N_ 0.875548 0.826279 0.727662 -0.29468
N_ N_ 0.859608 0.793121 0.832324 -0.17154
N_ N_ 0.899185 0.81937 0.978976 -0.17154
N_ N_ 0.87246 0.785588 0.583953 -0.29468
O_ O_ 0.706588 0.679165 0.932382 -0.58347
O_ O_ 0.698254 0.700581 0.887502 -0.58347
O_ O_ 0.636747 0.75299 0.934073 -0.58347
O_ O_ 0.608117 0.761671 0.890547 -0.58347
O_ O_ 0.629674 0.60698 0.924504 -0.58347
O_ O_ 0.637127 0.616927 0.877647 -0.58347
O_ O_ 0.556057 0.681305 0.927134 -0.58347
O_ O_ 0.547758 0.675975 0.879705 -0.58347
O_ O_ 0.572052 0.725444 0.577093 -0.46727
O_ O_ 0.736677 0.671363 0.586725 -0.46727
O_ O_ 0.54048 0.710848 0.725417 -0.46727
O_ O_ 0.698194 0.628884 0.733318 -0.46727
O_ O_ 0.793881 0.818988 0.67916 -0.58347
O_ O_ 0.804564 0.805481 0.633926 -0.58347
O_ O_ 0.868298 0.740195 0.681959 -0.58347
O_ O_ 0.886389 0.728475 0.635774 -0.58347
O_ O_ 0.870816 0.887915 0.673133 -0.58347
O_ O_ 0.874218 0.881191 0.626693 -0.58347
O_ O_ 0.943941 0.81392 0.679313 -0.58347
O_ O_ 0.958684 0.802049 0.633828 -0.58347
O_ O_ 0.945725 0.775006 0.827591 -0.46727
O_ O_ 0.777494 0.822524 0.837986 -0.46727
O_ O_ 0.98278 0.800661 0.973712 -0.46727
O_ O_ 0.814644 0.840865 0.985256 -0.46727
