_cell_length_a 26.376
_cell_length_b 26.400000238300095
_cell_length_c 46.67800035477134
_cell_angle_alpha 90.00700052986613
_cell_angle_beta 89.99899961309502
_cell_angle_gamma 90.45000003183146
_symmetry_space_group_name_H-M         'P 1'
_symmetry_Int_Tables_number            1
loop_
_symmetry_equiv_pos_as_xyz
   'x, y, z'
                         
loop_
_atom_site_label
_atom_site_type_symbol
_atom_site_fract_x 
_atom_site_fract_y
_atom_site_fract_z
_atom_site_charge
Zn Zn 0.124897 0.188095 0.383603 0.90689
Zn Zn 0.13392 0.182788 0.431454 0.90689
Zn Zn 0.378751 0.318406 0.133618 0.90689
Zn Zn 0.371455 0.326153 0.179299 0.90689
H_ H_ 0.301972 0.196065 0.447537 0.11455
H_ H_ 0.364424 0.176228 0.348686 0.11455
H_ H_ 0.276122 0.174124 0.357638 0.11455
H_ H_ 0.391867 0.210383 0.462096 0.11455
H_ H_ 0.481739 0.214535 0.449747 0.11455
H_ H_ 0.45181 0.16405 0.365184 0.11455
H_ H_ 0.129277 0.0154476 0.442556 0.11455
H_ H_ 0.107594 0.439873 0.353565 0.11455
H_ H_ 0.129076 0.0289011 0.351502 0.11455
H_ H_ 0.129716 0.431937 0.47009 0.11455
H_ H_ 0.132382 0.337708 0.465668 0.11455
H_ H_ 0.100278 0.3545 0.374956 0.11455
H_ H_ 0.0779596 0.115168 0.466598 0.11455
H_ H_ 0.0495814 0.0852667 0.0148105 0.11455
H_ H_ 0.0887285 0.13501 0.0570472 0.11455
H_ H_ 0.199933 0.245911 0.471175 0.11455
H_ H_ 0.206448 0.305282 0.0133386 0.11455
H_ H_ 0.191157 0.280126 0.0621149 0.11455
H_ H_ 0.00739874 0.227955 0.127698 0.11455
H_ H_ -0.006496999999999975 0.194667 0.176968 0.11455
H_ H_ 0.248435 0.160208 0.136217 0.11455
H_ H_ 0.244222 0.167309 0.188609 0.11455
H_ H_ 0.0825338 0.0923628 0.249302 0.11455
H_ H_ 0.0533758 0.0690299 0.296291 0.11455
H_ H_ 0.0692569 0.129155 0.339677 0.11455
H_ H_ 0.149027 0.265723 0.259897 0.11455
H_ H_ 0.18098 0.309467 0.30256 0.11455
H_ H_ 0.180351 0.267867 0.349095 0.11455
H_ H_ 0.205773 0.321444 0.19839 0.11455
H_ H_ 0.132325 0.346349 0.101597 0.11455
H_ H_ 0.223593 0.341842 0.107923 0.11455
H_ H_ 0.113442 0.338123 0.219679 0.11455
H_ H_ 0.024794 0.344065 0.211943 0.11455
H_ H_ 0.0436354 0.333691 0.120835 0.11455
H_ H_ 0.364194 0.491339 0.189966 0.11455
H_ H_ 0.33696 0.0731722 0.101654 0.11455
H_ H_ 0.388174 0.473044 0.100988 0.11455
H_ H_ 0.399096 0.0690044 0.214173 0.11455
H_ H_ 0.398083 0.16933 0.213702 0.11455
H_ H_ 0.343655 0.156793 0.125703 0.11455
H_ H_ 0.42156 0.406159 0.212206 0.11455
H_ H_ 0.436619 0.435048 0.261803 0.11455
H_ H_ 0.386826 0.400684 0.303358 0.11455
H_ H_ 0.317179 0.262324 0.220263 0.11455
H_ H_ 0.300137 0.207376 0.260762 0.11455
H_ H_ 0.306527 0.236725 0.311458 0.11455
H_ H_ 0.488918 0.315741 0.36806 0.11455
H_ H_ 0.500764 0.321415 0.420885 0.11455
H_ H_ 0.237762 0.33549 0.389642 0.11455
H_ H_ 0.251509 0.344801 0.439265 0.11455
H_ H_ 0.443455 0.40812 0.497679 0.11455
H_ H_ 0.462393 0.428367 0.0469103 0.11455
H_ H_ 0.448095 0.369491 0.0860697 0.11455
H_ H_ 0.348783 0.24184 0.0108604 0.11455
H_ H_ 0.301652 0.21219 0.0534394 0.11455
H_ H_ 0.315875 0.253895 0.10055 0.11455
C_ C_ 0.227642 0.187923 0.406173 0.68181
C_ C_ 0.28199 0.185823 0.40272 -0.05681
C_ C_ 0.314974 0.190275 0.425078 -0.08735
C_ C_ 0.36925 0.186668 0.421119 -0.05681
C_ C_ 0.387739 0.178678 0.392966 -0.05681
C_ C_ 0.352394 0.175963 0.370661 -0.08735
C_ C_ 0.300781 0.173216 0.375581 -0.08735
C_ C_ 0.40424 0.197523 0.442104 -0.08735
C_ C_ 0.456957 0.198582 0.434927 -0.08735
C_ C_ 0.473974 0.185633 0.407649 -0.05681
C_ C_ 0.440492 0.174049 0.386874 -0.08735
C_ C_ 0.126881 0.284163 0.413892 0.68181
C_ C_ 0.134122 0.086442 0.399393 0.68181
C_ C_ 0.126583 0.0288732 0.397398 -0.05681
C_ C_ 0.127724 0.500279 0.428022 -0.08735
C_ C_ 0.123519 0.446304 0.425095 -0.05681
C_ C_ 0.117807 0.424265 0.398286 -0.05681
C_ C_ 0.11189 0.456667 0.375442 -0.08735
C_ C_ 0.123443 0.508136 0.376605 -0.08735
C_ C_ 0.12707 0.4129 0.450096 -0.08735
C_ C_ 0.124918 0.360445 0.446916 -0.08735
C_ C_ 0.121882 0.339373 0.419177 -0.05681
C_ C_ 0.109182 0.372377 0.395911 -0.08735
C_ C_ 0.0294071 0.185246 0.408867 0.68181
C_ C_ 0.102465 0.129749 0.482785 0.1947
C_ C_ 0.0767951 0.11681 0.0127631 -0.08735
C_ C_ 0.098348 0.144592 0.0347226 -0.08735
C_ C_ 0.130164 0.184122 0.0289006 -0.05681
C_ C_ 0.146871 0.194331 1.000646945 0.18498
C_ C_ 0.179775 0.241088 0.492939 -0.08735
C_ C_ 0.184382 0.271221 0.0167142 -0.08735
C_ C_ 0.175821 0.258521 0.0455764 -0.08735
C_ C_ 0.147068 0.214608 0.0524346 0.18498
C_ C_ 0.179393 0.184927 0.0977269 0.44287
C_ C_ 0.0929915 0.211727 0.0945869 0.44287
C_ C_ 0.0867893 0.207702 0.124867 -0.05681
C_ C_ 0.0404381 0.215013 0.138728 -0.08735
C_ C_ 0.0324758 0.202592 0.16806 -0.08735
C_ C_ 0.0746902 0.195038 0.184865 -0.05681
C_ C_ 0.122194 0.194558 0.172144 -0.05681
C_ C_ 0.127681 0.195065 0.141751 -0.05681
C_ C_ 0.17413 0.184526 0.127904 -0.05681
C_ C_ 0.215742 0.17702 0.145755 -0.08735
C_ C_ 0.211216 0.176694 0.17601 -0.08735
C_ C_ 0.16378 0.17974 0.189349 -0.05681
C_ C_ 0.159065 0.17804 0.219524 0.44287
C_ C_ 0.0705477 0.188675 0.215267 0.44287
C_ C_ 0.107533 0.168722 0.261202 0.18498
C_ C_ 0.0895417 0.119165 0.26672 -0.08735
C_ C_ 0.0743728 0.106435 0.294457 -0.08735
C_ C_ 0.0849847 0.136468 0.317401 -0.08735
C_ C_ 0.114956 0.179164 0.313209 0.18498
C_ C_ 0.126502 0.196231 0.284551 -0.05681
C_ C_ 0.14627 0.245879 0.280426 -0.08735
C_ C_ 0.163482 0.272143 0.304306 -0.08735
C_ C_ 0.159185 0.251033 0.332447 0.1947
C_ C_ 0.277102 0.321201 0.15672 0.68181
C_ C_ 0.221101 0.325866 0.154017 -0.05681
C_ C_ 0.189482 0.32092 0.177805 -0.08735
C_ C_ 0.135694 0.325666 0.174482 -0.05681
C_ C_ 0.114833 0.328838 0.14581 -0.05681
C_ C_ 0.147739 0.335694 0.122959 -0.08735
C_ C_ 0.199216 0.333253 0.126241 -0.08735
C_ C_ 0.101119 0.329873 0.198454 -0.08735
C_ C_ 0.0498856 0.332667 0.193889 -0.08735
C_ C_ 0.0286234 0.32766 0.165538 -0.05681
C_ C_ 0.0613134 0.332138 0.141735 -0.08735
C_ C_ 0.382663 0.226774 0.165565 0.68181
C_ C_ 0.368397 0.42088 0.149013 0.68181
C_ C_ 0.373409 0.477399 0.145649 -0.05681
C_ C_ 0.380749 0.010292 0.170581 -0.08735
C_ C_ 0.381901 0.0635916 0.169981 -0.05681
C_ C_ 0.36048 0.0869297 0.145771 -0.05681
C_ C_ 0.344029 0.056654 0.122623 -0.08735
C_ C_ 0.384692 0.498733 0.118697 -0.08735
C_ C_ 0.389482 0.0918713 0.194956 -0.08735
C_ C_ 0.384452 0.144621 0.194969 -0.08735
C_ C_ 0.373677 0.169546 0.169858 -0.05681
C_ C_ 0.355716 0.14006 0.145639 -0.08735
C_ C_ 0.473562 0.329231 0.155663 0.68181
C_ C_ 0.402297 0.388126 0.229215 0.1947
C_ C_ 0.409608 0.405387 0.257198 -0.08735
C_ C_ 0.385022 0.383605 0.280683 -0.08735
C_ C_ 0.356588 0.339435 0.276062 -0.05681
C_ C_ 0.351545 0.321222 0.247421 0.18498
C_ C_ 0.32802 0.274079 0.242658 -0.08735
C_ C_ 0.308281 0.247019 0.265303 -0.08735
C_ C_ 0.31528 0.261807 0.293479 -0.08735
C_ C_ 0.338849 0.308541 0.299686 0.18498
C_ C_ 0.309929 0.328636 0.348285 0.44287
C_ C_ 0.397335 0.31392 0.340921 0.44287
C_ C_ 0.406261 0.318118 0.37123 -0.05681
C_ C_ 0.455977 0.314162 0.382151 -0.08735
C_ C_ 0.463212 0.318928 0.412276 -0.08735
C_ C_ 0.420855 0.32057 0.431706 -0.05681
C_ C_ 0.373487 0.324787 0.419557 -0.05681
C_ C_ 0.367017 0.323527 0.38957 -0.05681
C_ C_ 0.316613 0.32676 0.378347 -0.05681
C_ C_ 0.276373 0.335323 0.398314 -0.08735
C_ C_ 0.283144 0.33527 0.426924 -0.08735
C_ C_ 0.330767 0.326891 0.439104 -0.05681
C_ C_ 0.339913 0.326328 0.468576 0.44287
C_ C_ 0.427325 0.324883 0.461383 0.44287
C_ C_ 0.401162 0.338568 0.00902859 0.18498
C_ C_ 0.432139 0.381102 0.0142792 -0.08735
C_ C_ 0.440081 0.395727 0.0421339 -0.08735
C_ C_ 0.42732 0.364128 0.0651601 -0.08735
C_ C_ 0.39603 0.324555 0.0613962 0.18498
C_ C_ 0.383389 0.308939 0.0328208 -0.05681
C_ C_ 0.355771 0.262804 0.0302416 -0.08735
C_ C_ 0.329037 0.242419 0.0544402 -0.08735
C_ C_ 0.337561 0.264344 0.081534 0.1947
N_ N_ 0.131104 0.172523 0.476954 -0.29468
N_ N_ 0.139461 0.199137 0.0822169 -0.17154
N_ N_ 0.112927 0.185415 0.231544 -0.17154
N_ N_ 0.133376 0.206238 0.336434 -0.29468
N_ N_ 0.375246 0.346389 0.224056 -0.29468
N_ N_ 0.349479 0.322799 0.329382 -0.17154
N_ N_ 0.38741 0.328615 0.479119 -0.17154
N_ N_ 0.375911 0.299942 0.0843652 -0.29468
O_ O_ 0.208827 0.176986 0.430124 -0.58347
O_ O_ 0.199983 0.202849 0.386244 -0.58347
O_ O_ 0.134821 0.256044 0.434688 -0.58347
O_ O_ 0.116743 0.265533 0.390251 -0.58347
O_ O_ 0.130199 0.108588 0.42377 -0.58347
O_ O_ 0.133009 0.114244 0.376424 -0.58347
O_ O_ 0.0587524 0.184163 0.430987 -0.58347
O_ O_ 0.0492856 0.18231 0.3836 -0.58347
O_ O_ 0.0538982 0.228437 0.0802998 -0.46727
O_ O_ 0.223497 0.173692 0.0850484 -0.46727
O_ O_ 0.025771 0.181531 0.227055 -0.46727
O_ O_ 0.198642 0.171921 0.235964 -0.46727
O_ O_ 0.298902 0.316776 0.181102 -0.58347
O_ O_ 0.30504 0.321482 0.134205 -0.58347
O_ O_ 0.388703 0.256546 0.187327 -0.58347
O_ O_ 0.37438 0.245113 0.141686 -0.58347
O_ O_ 0.35767 0.399964 0.172824 -0.58347
O_ O_ 0.371858 0.393978 0.126816 -0.58347
O_ O_ 0.446052 0.343139 0.176583 -0.58347
O_ O_ 0.453558 0.316471 0.132864 -0.58347
O_ O_ 0.435898 0.305738 0.323741 -0.46727
O_ O_ 0.263101 0.334754 0.338423 -0.46727
O_ O_ 0.474376 0.323359 0.473168 -0.46727
O_ O_ 0.30464 0.342276 0.486078 -0.46727
Zn Zn 0.12796 0.179602 0.88293 0.90689
Zn Zn 0.132828 0.171711 0.930196 0.90689
Zn Zn 0.376962 0.309103 0.630003 0.90689
Zn Zn 0.372424 0.316563 0.677524 0.90689
H_ H_ 0.30505 0.197884 0.945675 0.11455
H_ H_ 0.364384 0.143081 0.85027 0.11455
H_ H_ 0.277588 0.159958 0.857004 0.11455
H_ H_ 0.390617 0.203977 0.962291 0.11455
H_ H_ 0.478554 0.194533 0.954693 0.11455
H_ H_ 0.451792 0.154929 0.867014 0.11455
H_ H_ 0.150965 0.00907694 0.943344 0.11455
H_ H_ 0.155227 0.422455 0.847798 0.11455
H_ H_ 0.141181 0.022786 0.851355 0.11455
H_ H_ 0.148073 0.419849 0.964771 0.11455
H_ H_ 0.139191 0.325696 0.959628 0.11455
H_ H_ 0.126112 0.344638 0.868701 0.11455
H_ H_ 0.0781171 0.106919 0.966537 0.11455
H_ H_ 0.067496 0.0829646 0.515852 0.11455
H_ H_ 0.0991932 0.135141 0.554558 0.11455
H_ H_ 0.201263 0.237408 0.977764 0.11455
H_ H_ 0.231435 0.295378 0.508365 0.11455
H_ H_ 0.203958 0.282066 0.56001 0.11455
H_ H_ 0.0192307 0.207887 0.626368 0.11455
H_ H_ 0.014066 0.194845 0.675891 0.11455
H_ H_ 0.26984 0.18018 0.631501 0.11455
H_ H_ 0.264729 0.157685 0.681561 0.11455
H_ H_ 0.0860166 0.0812294 0.745132 0.11455
H_ H_ 0.0593189 0.0581184 0.794363 0.11455
H_ H_ 0.0855794 0.108199 0.835744 0.11455
H_ H_ 0.181945 0.23469 0.756593 0.11455
H_ H_ 0.207452 0.287196 0.798063 0.11455
H_ H_ 0.176257 0.265221 0.845707 0.11455
H_ H_ 0.20047 0.283843 0.694561 0.11455
H_ H_ 0.130949 0.329375 0.597571 0.11455
H_ H_ 0.223201 0.329299 0.606397 0.11455
H_ H_ 0.113195 0.28675 0.714199 0.11455
H_ H_ 0.0238939 0.297159 0.708029 0.11455
H_ H_ 0.0433749 0.309988 0.616172 0.11455
H_ H_ 0.366135 0.490326 0.695093 0.11455
H_ H_ 0.339814 0.0615534 0.597315 0.11455
H_ H_ 0.344469 0.471217 0.603275 0.11455
H_ H_ 0.395757 0.0642307 0.709972 0.11455
H_ H_ 0.406439 0.156119 0.706186 0.11455
H_ H_ 0.36725 0.14553 0.615535 0.11455
H_ H_ 0.42722 0.38985 0.714273 0.11455
H_ H_ 0.443373 0.418316 0.766746 0.11455
H_ H_ 0.40582 0.370811 0.803924 0.11455
H_ H_ 0.326251 0.239308 0.72337 0.11455
H_ H_ 0.295114 0.188462 0.762066 0.11455
H_ H_ 0.310001 0.218514 0.813853 0.11455
H_ H_ 0.496098 0.293132 0.873545 0.11455
H_ H_ 0.507189 0.306096 0.92075 0.11455
H_ H_ 0.247422 0.335413 0.886547 0.11455
H_ H_ 0.258152 0.35197 0.938342 0.11455
H_ H_ 0.443247 0.406413 -0.0028759999999999897 0.11455
H_ H_ 0.447777 0.442651 0.546313 0.11455
H_ H_ 0.419936 0.388597 0.588326 0.11455
H_ H_ 0.356091 0.251678 0.505314 0.11455
H_ H_ 0.323848 0.19953 0.545533 0.11455
H_ H_ 0.337271 0.228906 0.594011 0.11455
C_ C_ 0.229135 0.186216 0.907016 0.68181
C_ C_ 0.282473 0.181656 0.902064 -0.05681
C_ C_ 0.318814 0.190117 0.924488 -0.08735
C_ C_ 0.369926 0.185769 0.919068 -0.05681
C_ C_ 0.387315 0.17245 0.891361 -0.05681
C_ C_ 0.352309 0.159755 0.87028 -0.08735
C_ C_ 0.301405 0.171373 0.874383 -0.08735
C_ C_ 0.402553 0.195364 0.941715 -0.08735
C_ C_ 0.454328 0.188027 0.936854 -0.08735
C_ C_ 0.474389 0.179192 0.910095 -0.05681
C_ C_ 0.438827 0.167156 0.887229 -0.08735
C_ C_ 0.123573 0.273195 0.912201 0.68181
C_ C_ 0.132422 0.0767148 0.900655 0.68181
C_ C_ 0.140968 0.022814 0.897907 -0.05681
C_ C_ 0.145858 0.488609 0.921914 -0.08735
C_ C_ 0.140068 0.434845 0.9195 -0.05681
C_ C_ 0.139476 0.412071 0.892502 -0.05681
C_ C_ 0.145852 0.442564 0.867828 -0.08735
C_ C_ 0.149901 0.495083 0.869986 -0.08735
C_ C_ 0.141476 0.401418 0.944077 -0.08735
C_ C_ 0.133277 0.348901 0.940878 -0.08735
C_ C_ 0.127754 0.32826 0.91416 -0.05681
C_ C_ 0.135402 0.358948 0.889475 -0.08735
C_ C_ 0.0320278 0.171876 0.904306 0.68181
C_ C_ 0.0932486 0.127782 0.983728 0.1947
C_ C_ 0.0882609 0.117438 0.511124 -0.08735
C_ C_ 0.108321 0.146607 0.5333 -0.08735
C_ C_ 0.132994 0.192038 0.528457 -0.05681
C_ C_ 0.145746 0.202639 0.498585 0.18498
C_ C_ 0.178421 0.235006 0.995327 -0.08735
C_ C_ 0.201967 0.270589 0.514596 -0.08735
C_ C_ 0.188282 0.259216 0.542974 -0.08735
C_ C_ 0.156055 0.221184 0.551192 0.18498
C_ C_ 0.193539 0.192306 0.595281 0.44287
C_ C_ 0.106689 0.211947 0.594571 0.44287
C_ C_ 0.101214 0.195879 0.623367 -0.05681
C_ C_ 0.053728 0.193818 0.63688 -0.08735
C_ C_ 0.049908 0.185524 0.666385 -0.08735
C_ C_ 0.092707 0.174452 0.682883 -0.05681
C_ C_ 0.140749 0.170031 0.668407 -0.05681
C_ C_ 0.143192 0.184864 0.639577 -0.05681
C_ C_ 0.191697 0.185359 0.626443 -0.05681
C_ C_ 0.23542 0.177293 0.642372 -0.08735
C_ C_ 0.232632 0.166861 0.671233 -0.08735
C_ C_ 0.184113 0.161545 0.68477 -0.05681
C_ C_ 0.1807 0.160401 0.715119 0.44287
C_ C_ 0.0898908 0.171426 0.712986 0.44287
C_ C_ 0.12654 0.147732 0.758102 0.18498
C_ C_ 0.0978939 0.103837 0.762837 -0.08735
C_ C_ 0.08553 0.0890377 0.790661 -0.08735
C_ C_ 0.103668 0.117556 0.814666 -0.08735
C_ C_ 0.126184 0.164699 0.810058 0.18498
C_ C_ 0.141552 0.178861 0.781836 -0.05681
C_ C_ 0.172358 0.223048 0.777947 -0.08735
C_ C_ 0.183047 0.253118 0.80124 -0.08735
C_ C_ 0.168625 0.237993 0.828367 0.1947
C_ C_ 0.275479 0.305549 0.652922 0.68181
C_ C_ 0.21911 0.311455 0.650635 -0.05681
C_ C_ 0.186548 0.299259 0.673338 -0.08735
C_ C_ 0.13306 0.302109 0.669699 -0.05681
C_ C_ 0.112658 0.310811 0.642697 -0.05681
C_ C_ 0.145209 0.323208 0.619084 -0.08735
C_ C_ 0.198117 0.320605 0.624153 -0.08735
C_ C_ 0.100471 0.298463 0.692879 -0.08735
C_ C_ 0.0476359 0.307387 0.689916 -0.08735
C_ C_ 0.0270952 0.313526 0.661779 -0.05681
C_ C_ 0.059531 0.311647 0.638077 -0.08735
C_ C_ 0.382752 0.214478 0.658458 0.68181
C_ C_ 0.365501 0.414399 0.651454 0.68181
C_ C_ 0.365865 0.472091 0.648615 -0.05681
C_ C_ 0.36483 0.000280000000000058 0.670973 -0.08735
C_ C_ 0.372583 0.0521823 0.667153 -0.05681
C_ C_ 0.3654 0.075009 0.639954 -0.05681
C_ C_ 0.348543 0.0444044 0.616469 -0.08735
C_ C_ 0.353654 0.494291 0.621719 -0.08735
C_ C_ 0.386622 0.0823338 0.691393 -0.08735
C_ C_ 0.392654 0.135083 0.687973 -0.08735
C_ C_ 0.381255 0.158207 0.66074 -0.05681
C_ C_ 0.368304 0.128828 0.638039 -0.08735
C_ C_ 0.471842 0.331422 0.656576 0.68181
C_ C_ 0.40693 0.371612 0.732351 0.1947
C_ C_ 0.42019 0.385569 0.760404 -0.08735
C_ C_ 0.393738 0.362334 0.782775 -0.08735
C_ C_ 0.364066 0.318982 0.778224 -0.05681
C_ C_ 0.358791 0.300009 0.748151 0.18498
C_ C_ 0.335383 0.253906 0.744569 -0.08735
C_ C_ 0.315619 0.224226 0.767806 -0.08735
C_ C_ 0.324184 0.241404 0.795738 -0.08735
C_ C_ 0.347897 0.286775 0.801391 0.18498
C_ C_ 0.315286 0.31209 0.848753 0.44287
C_ C_ 0.404094 0.29546 0.843375 0.44287
C_ C_ 0.414458 0.304873 0.872438 -0.05681
C_ C_ 0.463076 0.30315 0.885442 -0.08735
C_ C_ 0.468606 0.306002 0.91445 -0.08735
C_ C_ 0.426886 0.316723 0.932057 -0.05681
C_ C_ 0.378822 0.321632 0.919667 -0.05681
C_ C_ 0.371638 0.31605 0.890334 -0.05681
C_ C_ 0.323447 0.320571 0.878583 -0.05681
C_ C_ 0.282868 0.334909 0.895776 -0.08735
C_ C_ 0.290941 0.345144 0.92581 -0.08735
C_ C_ 0.338502 0.333331 0.938009 -0.05681
C_ C_ 0.345398 0.330304 0.968168 0.44287
C_ C_ 0.433029 0.315856 0.962288 0.44287
C_ C_ 0.396586 0.343825 0.508881 0.18498
C_ C_ 0.423559 0.387594 0.515115 -0.08735
C_ C_ 0.428552 0.405611 0.54304 -0.08735
C_ C_ 0.410353 0.375951 0.566379 -0.08735
C_ C_ 0.390499 0.326469 0.560328 0.18498
C_ C_ 0.381531 0.31101 0.531733 -0.05681
C_ C_ 0.362707 0.263632 0.526924 -0.08735
C_ C_ 0.34494 0.234666 0.549467 -0.08735
C_ C_ 0.356602 0.250035 0.577842 0.1947
N_ N_ 0.129683 0.164302 0.977658 -0.29468
N_ N_ 0.152199 0.206629 0.58097 -0.17154
N_ N_ 0.133142 0.162691 0.72826 -0.17154
N_ N_ 0.142503 0.192714 0.832805 -0.29468
N_ N_ 0.376058 0.329553 0.726282 -0.29468
N_ N_ 0.355761 0.300925 0.831218 -0.17154
N_ N_ 0.392652 0.325996 0.979281 -0.17154
N_ N_ 0.377325 0.296191 0.582854 -0.29468
O_ O_ 0.210063 0.16815 0.929853 -0.58347
O_ O_ 0.199227 0.20073 0.887886 -0.58347
O_ O_ 0.134469 0.244698 0.932291 -0.58347
O_ O_ 0.111398 0.252973 0.889194 -0.58347
O_ O_ 0.129238 0.0976668 0.925652 -0.58347
O_ O_ 0.14251 0.103933 0.878866 -0.58347
O_ O_ 0.0576594 0.175399 0.926793 -0.58347
O_ O_ 0.0554345 0.163454 0.881377 -0.58347
O_ O_ 0.0661569 0.226449 0.579681 -0.46727
O_ O_ 0.236984 0.185512 0.580669 -0.46727
O_ O_ 0.048636 0.187273 0.726567 -0.46727
O_ O_ 0.22111 0.160496 0.731757 -0.46727
O_ O_ 0.296322 0.319147 0.676659 -0.58347
O_ O_ 0.302993 0.290237 0.632399 -0.58347
O_ O_ 0.371528 0.240931 0.680526 -0.58347
O_ O_ 0.38913 0.235221 0.634784 -0.58347
O_ O_ 0.371447 0.39241 0.675009 -0.58347
O_ O_ 0.360774 0.386002 0.629354 -0.58347
O_ O_ 0.446681 0.327233 0.679339 -0.58347
O_ O_ 0.45027 0.327889 0.632116 -0.58347
O_ O_ 0.44178 0.283689 0.826503 -0.46727
O_ O_ 0.269484 0.320265 0.836818 -0.46727
O_ O_ 0.477115 0.303533 0.974121 -0.46727
O_ O_ 0.309319 0.345532 0.985054 -0.46727
Zn Zn 0.120236 0.688378 0.383943 0.90689
Zn Zn 0.128128 0.680153 0.431408 0.90689
Zn Zn 0.374166 0.816733 0.12882 0.90689
Zn Zn 0.363972 0.824295 0.176703 0.90689
H_ H_ 0.298267 0.691106 0.445468 0.11455
H_ H_ 0.364887 0.628702 0.350657 0.11455
H_ H_ 0.27272 0.637995 0.359819 0.11455
H_ H_ 0.385817 0.693461 0.462744 0.11455
H_ H_ 0.473901 0.692074 0.452604 0.11455
H_ H_ 0.449096 0.659173 0.365914 0.11455
H_ H_ 0.132918 0.516622 0.449974 0.11455
H_ H_ 0.130507 0.935753 0.345018 0.11455
H_ H_ 0.129048 0.530535 0.35575 0.11455
H_ H_ 0.131334 0.930511 0.465125 0.11455
H_ H_ 0.135424 0.838274 0.460927 0.11455
H_ H_ 0.118131 0.850268 0.366383 0.11455
H_ H_ 0.0704311 0.608369 0.465897 0.11455
H_ H_ 0.0990342 0.561424 0.0163628 0.11455
H_ H_ 0.114153 0.620577 0.0570566 0.11455
H_ H_ 0.191313 0.744116 0.476111 0.11455
H_ H_ 0.237193 0.790913 0.0124048 0.11455
H_ H_ 0.214962 0.772681 0.062106 0.11455
H_ H_ 0.0133739 0.705224 0.119576 0.11455
H_ H_ 0.000744804 0.70619 0.172744 0.11455
H_ H_ 0.2602 0.663827 0.142976 0.11455
H_ H_ 0.24511 0.64544 0.19213 0.11455
H_ H_ 0.0601544 0.589628 0.250258 0.11455
H_ H_ 0.0299227 0.565245 0.299412 0.11455
H_ H_ 0.0471117 0.625535 0.336698 0.11455
H_ H_ 0.152843 0.746627 0.257823 0.11455
H_ H_ 0.193809 0.786041 0.302789 0.11455
H_ H_ 0.172736 0.758557 0.348101 0.11455
H_ H_ 0.199493 0.805287 0.193347 0.11455
H_ H_ 0.124526 0.849942 0.0991838 0.11455
H_ H_ 0.218876 0.840645 0.104157 0.11455
H_ H_ 0.114137 0.802377 0.215386 0.11455
H_ H_ 0.019165 0.815066 0.211345 0.11455
H_ H_ 0.0402626 0.837787 0.120542 0.11455
H_ H_ 0.396667 0.989432 0.188716 0.11455
H_ H_ 0.379521 0.568276 0.0935957 0.11455
H_ H_ 0.342308 0.986233 0.103419 0.11455
H_ H_ 0.370622 0.574783 0.211339 0.11455
H_ H_ 0.358608 0.664764 0.204172 0.11455
H_ H_ 0.385999 0.654758 0.114347 0.11455
H_ H_ 0.414252 0.897233 0.211989 0.11455
H_ H_ 0.441726 0.921399 0.262532 0.11455
H_ H_ 0.402345 0.874256 0.30295 0.11455
H_ H_ 0.312475 0.750599 0.221326 0.11455
H_ H_ 0.284284 0.698298 0.25864 0.11455
H_ H_ 0.303455 0.718778 0.309802 0.11455
H_ H_ 0.482026 0.785407 0.374433 0.11455
H_ H_ 0.486452 0.79101 0.428807 0.11455
H_ H_ 0.231012 0.825523 0.384322 0.11455
H_ H_ 0.237267 0.832874 0.436019 0.11455
H_ H_ 0.395444 0.91739 0.503137 0.11455
H_ H_ 0.455841 0.937126 0.0493719 0.11455
H_ H_ 0.428681 0.880392 0.0880734 0.11455
H_ H_ 0.340523 0.762937 0.00497959 0.11455
H_ H_ 0.315658 0.707429 0.0450895 0.11455
H_ H_ 0.320427 0.739775 0.0948319 0.11455
C_ C_ 0.223712 0.678155 0.405625 0.68181
C_ C_ 0.277855 0.662132 0.403172 -0.05681
C_ C_ 0.312185 0.676187 0.425124 -0.08735
C_ C_ 0.36465 0.669607 0.420893 -0.05681
C_ C_ 0.384217 0.658681 0.393315 -0.05681
C_ C_ 0.350009 0.64393 0.370853 -0.08735
C_ C_ 0.297371 0.646494 0.376286 -0.08735
C_ C_ 0.39845 0.67648 0.442361 -0.08735
C_ C_ 0.44924 0.679955 0.436773 -0.08735
C_ C_ 0.471091 0.670859 0.40986 -0.05681
C_ C_ 0.437409 0.659179 0.387899 -0.08735
C_ C_ 0.121306 0.782212 0.411703 0.68181
C_ C_ 0.129987 0.587713 0.404386 0.68181
C_ C_ 0.127409 0.530564 0.403389 -0.05681
C_ C_ 0.125118 0.99732854 0.42136 -0.08735
C_ C_ 0.129694 0.945127 0.418312 -0.05681
C_ C_ 0.122463 0.922385 0.390798 -0.05681
C_ C_ 0.123364 0.952598 0.366869 -0.08735
C_ C_ 0.124824 1.00485729 0.370417 -0.08735
C_ C_ 0.128076 0.915177 0.4433 -0.08735
C_ C_ 0.127751 0.860651 0.440982 -0.08735
C_ C_ 0.122708 0.838511 0.414376 -0.05681
C_ C_ 0.121573 0.867748 0.388172 -0.08735
C_ C_ 0.0262123 0.685127 0.409954 0.68181
C_ C_ 0.0943606 0.625527 0.483716 0.1947
C_ C_ 0.110054 0.60123 0.0125315 -0.08735
C_ C_ 0.121706 0.632866 0.0363563 -0.08735
C_ C_ 0.14723 0.679495 0.0299483 -0.05681
C_ C_ 0.155348 0.6935 1.000679064 0.18498
C_ C_ 0.174645 0.738147 0.496637 -0.08735
C_ C_ 0.211382 0.759254 0.0174261 -0.08735
C_ C_ 0.197849 0.750765 0.0454718 -0.08735
C_ C_ 0.168547 0.709022 0.0522036 0.18498
C_ C_ 0.191987 0.68234 0.101477 0.44287
C_ C_ 0.108515 0.706933 0.0941634 0.44287
C_ C_ 0.0951002 0.695268 0.12322 -0.05681
C_ C_ 0.044758 0.697038 0.133629 -0.08735
C_ C_ 0.0368662 0.697628 0.163438 -0.08735
C_ C_ 0.0790532 0.691989 0.183199 -0.05681
C_ C_ 0.125792 0.67712 0.171707 -0.05681
C_ C_ 0.133898 0.68374 0.142129 -0.05681
C_ C_ 0.182281 0.676254 0.130668 -0.05681
C_ C_ 0.222696 0.666774 0.150826 -0.08735
C_ C_ 0.214993 0.660997 0.179703 -0.08735
C_ C_ 0.16647 0.664267 0.190733 -0.05681
C_ C_ 0.155306 0.656184 0.220452 0.44287
C_ C_ 0.0734151 0.690215 0.213283 0.44287
C_ C_ 0.0985583 0.656713 0.261527 0.18498
C_ C_ 0.0724957 0.610214 0.26747 -0.08735
C_ C_ 0.0528012 0.599957 0.294676 -0.08735
C_ C_ 0.070041 0.629885 0.317224 -0.08735
C_ C_ 0.103561 0.673359 0.31347 0.18498
C_ C_ 0.114514 0.686992 0.284783 -0.05681
C_ C_ 0.145128 0.731197 0.279343 -0.08735
C_ C_ 0.166893 0.75506 0.303062 -0.08735
C_ C_ 0.151847 0.742294 0.330578 0.1947
C_ C_ 0.270742 0.816972 0.153257 0.68181
C_ C_ 0.214015 0.820143 0.149865 -0.05681
C_ C_ 0.182095 0.810614 0.172932 -0.08735
C_ C_ 0.129935 0.811809 0.170511 -0.05681
C_ C_ 0.106562 0.823799 0.143307 -0.05681
C_ C_ 0.138234 0.828096 0.118944 -0.08735
C_ C_ 0.192002 0.832884 0.123491 -0.08735
C_ C_ 0.096349 0.812044 0.194106 -0.08735
C_ C_ 0.0425 0.815863 0.191494 -0.08735
C_ C_ 0.0203347 0.818875 0.164706 -0.05681
C_ C_ 0.0543849 0.830344 0.141529 -0.08735
C_ C_ 0.380332 0.7233 0.158276 0.68181
C_ C_ 0.363393 0.922284 0.148863 0.68181
C_ C_ 0.367317 0.97961 0.146992 -0.05681
C_ C_ 0.369889 0.509004 0.168797 -0.08735
C_ C_ 0.375783 0.561574 0.165341 -0.05681
C_ C_ 0.381862 0.583198 0.138266 -0.05681
C_ C_ 0.387407 0.551302 0.11451 -0.08735
C_ C_ 0.347583 0.00519609 0.123029 -0.08735
C_ C_ 0.373811 0.591293 0.190419 -0.08735
C_ C_ 0.375611 0.641969 0.18744 -0.08735
C_ C_ 0.382274 0.665752 0.160539 -0.05681
C_ C_ 0.387578 0.63584 0.136312 -0.08735
C_ C_ 0.466835 0.827836 0.151416 0.68181
C_ C_ 0.402944 0.874315 0.229199 0.1947
C_ C_ 0.420464 0.885438 0.257536 -0.08735
C_ C_ 0.399242 0.859663 0.281598 -0.08735
C_ C_ 0.366332 0.816436 0.276108 -0.05681
C_ C_ 0.352881 0.805813 0.247445 0.18498
C_ C_ 0.323605 0.760534 0.24246 -0.08735
C_ C_ 0.304141 0.731265 0.263947 -0.08735
C_ C_ 0.314949 0.743675 0.293167 -0.08735
C_ C_ 0.342924 0.787601 0.299281 0.18498
C_ C_ 0.309637 0.812368 0.345876 0.44287
C_ C_ 0.396092 0.790164 0.34234 0.44287
C_ C_ 0.401877 0.798991 0.372537 -0.05681
C_ C_ 0.44793 0.794123 0.386618 -0.08735
C_ C_ 0.4516 0.802038 0.416935 -0.08735
C_ C_ 0.409415 0.812932 0.434561 -0.05681
C_ C_ 0.363195 0.815792 0.419998 -0.05681
C_ C_ 0.359818 0.809538 0.389388 -0.05681
C_ C_ 0.312472 0.81266 0.376065 -0.05681
C_ C_ 0.267685 0.819013 0.393473 -0.08735
C_ C_ 0.271714 0.824242 0.423335 -0.08735
C_ C_ 0.319489 0.82194 0.436167 -0.05681
C_ C_ 0.32454 0.824616 0.466553 0.44287
C_ C_ 0.412775 0.814965 0.464486 0.44287
C_ C_ 0.405181 0.841051 0.00870837 0.18498
C_ C_ 0.425349 0.887397 0.01431 -0.08735
C_ C_ 0.436124 0.901354 0.0429558 -0.08735
C_ C_ 0.419407 0.872661 0.0656934 -0.08735
C_ C_ 0.389216 0.828246 0.0608145 0.18498
C_ C_ 0.380617 0.81463 0.0316924 -0.05681
C_ C_ 0.349527 0.775404 0.0272597 -0.08735
C_ C_ 0.332921 0.743596 0.0495995 -0.08735
C_ C_ 0.337942 0.760723 0.0780794 0.1947
N_ N_ 0.120891 0.670074 0.478164 -0.29468
N_ N_ 0.156692 0.69863 0.0829136 -0.17154
N_ N_ 0.108959 0.669483 0.23136 -0.17154
N_ N_ 0.122406 0.700445 0.33553 -0.29468
N_ N_ 0.370545 0.833338 0.224873 -0.29468
N_ N_ 0.35004 0.799445 0.329327 -0.17154
N_ N_ 0.370785 0.827068 0.480292 -0.17154
N_ N_ 0.364064 0.804438 0.0834361 -0.29468
O_ O_ 0.20408 0.681687 0.430004 -0.58347
O_ O_ 0.1946 0.681476 0.382995 -0.58347
O_ O_ 0.123512 0.754461 0.434831 -0.58347
O_ O_ 0.124059 0.762644 0.387312 -0.58347
O_ O_ 0.134378 0.607455 0.42932 -0.58347
O_ O_ 0.116751 0.612898 0.383154 -0.58347
O_ O_ 0.0531946 0.678033 0.432514 -0.58347
O_ O_ 0.0482264 0.689629 0.386253 -0.58347
O_ O_ 0.0703782 0.718799 0.0760599 -0.46727
O_ O_ 0.236095 0.668534 0.0912819 -0.46727
O_ O_ 0.0327835 0.710142 0.225971 -0.46727
O_ O_ 0.189232 0.63297 0.235925 -0.46727
O_ O_ 0.290514 0.81865 0.177442 -0.58347
O_ O_ 0.299118 0.81684 0.130981 -0.58347
O_ O_ 0.370929 0.749089 0.180754 -0.58347
O_ O_ 0.385192 0.744877 0.134038 -0.58347
O_ O_ 0.354887 0.900868 0.173377 -0.58347
O_ O_ 0.364403 0.895437 0.125952 -0.58347
O_ O_ 0.43736 0.832742 0.172763 -0.58347
O_ O_ 0.448144 0.82241 0.126314 -0.58347
O_ O_ 0.433229 0.77099 0.32882 -0.46727
O_ O_ 0.269018 0.833265 0.333279 -0.46727
O_ O_ 0.457158 0.804624 0.477459 -0.46727
O_ O_ 0.284923 0.825805 0.483195 -0.46727
Zn Zn 0.138901 0.680058 0.881355 0.90689
Zn Zn 0.144419 0.671504 0.929889 0.90689
Zn Zn 0.360463 0.812998 0.629604 0.90689
Zn Zn 0.353743 0.819732 0.678421 0.90689
H_ H_ 0.311994 0.667372 0.945149 0.11455
H_ H_ 0.374506 0.652193 0.845393 0.11455
H_ H_ 0.282333 0.655147 0.854628 0.11455
H_ H_ 0.39872 0.66664 0.963509 0.11455
H_ H_ 0.491448 0.677747 0.952036 0.11455
H_ H_ 0.462673 0.643624 0.862427 0.11455
H_ H_ 0.1414 0.50713 0.941379 0.11455
H_ H_ 0.141444 0.932425 0.846407 0.11455
H_ H_ 0.159416 0.51848 0.850202 0.11455
H_ H_ 0.12616 0.919007 0.964072 0.11455
H_ H_ 0.12484 0.830479 0.958563 0.11455
H_ H_ 0.137807 0.846118 0.868665 0.11455
H_ H_ 0.0964406 0.600705 0.966027 0.11455
H_ H_ 0.0736874 0.570528 0.514354 0.11455
H_ H_ 0.107364 0.616307 0.555924 0.11455
H_ H_ 0.206208 0.735688 0.973602 0.11455
H_ H_ 0.217567 0.797987 0.514676 0.11455
H_ H_ 0.19704 0.774848 0.564523 0.11455
H_ H_ 0.996781 0.718712 0.621894 0.11455
H_ H_ 0.983354 0.701967 0.672574 0.11455
H_ H_ 0.243992 0.667187 0.643777 0.11455
H_ H_ 0.22885 0.64522 0.694684 0.11455
H_ H_ 0.0329791 0.604926 0.753273 0.11455
H_ H_ 0.0366108 0.570355 0.803219 0.11455
H_ H_ 0.0751534 0.619068 0.841617 0.11455
H_ H_ 0.139079 0.751733 0.758138 0.11455
H_ H_ 0.18981 0.793868 0.796955 0.11455
H_ H_ 0.188717 0.753155 0.844864 0.11455
H_ H_ 0.184118 0.804074 0.701784 0.11455
H_ H_ 0.113704 0.816701 0.602265 0.11455
H_ H_ 0.204554 0.812756 0.609092 0.11455
H_ H_ 0.0954469 0.825419 0.72118 0.11455
H_ H_ 0.0059486 0.819456 0.715988 0.11455
H_ H_ 0.0261029 0.817167 0.623522 0.11455
H_ H_ 0.374125 0.981861 0.69096 0.11455
H_ H_ 0.335795 0.559383 0.598665 0.11455
H_ H_ 0.334401 0.966751 0.602498 0.11455
H_ H_ 0.375083 0.575079 0.715056 0.11455
H_ H_ 0.359982 0.667924 0.708941 0.11455
H_ H_ 0.347665 0.648095 0.618206 0.11455
H_ H_ 0.397135 0.900896 0.713579 0.11455
H_ H_ 0.408507 0.927854 0.762993 0.11455
H_ H_ 0.405528 0.866826 0.803133 0.11455
H_ H_ 0.321446 0.739613 0.723675 0.11455
H_ H_ 0.287009 0.689189 0.761295 0.11455
H_ H_ 0.306082 0.710323 0.811415 0.11455
H_ H_ 0.486068 0.769165 0.869764 0.11455
H_ H_ 0.497122 0.768809 0.921727 0.11455
H_ H_ 0.251188 0.84543 0.887896 0.11455
H_ H_ 0.258249 0.844437 0.939151 0.11455
H_ H_ 0.440296 0.913354 0.99714 0.11455
H_ H_ 0.427552 0.935044 0.550215 0.11455
H_ H_ 0.418374 0.872549 0.586928 0.11455
H_ H_ 0.341638 0.742334 0.503889 0.11455
H_ H_ 0.314839 0.691246 0.543388 0.11455
H_ H_ 0.313127 0.728742 0.594858 0.11455
C_ C_ 0.238556 0.679222 0.902691 0.68181
C_ C_ 0.291018 0.66205 0.899328 -0.05681
C_ C_ 0.324895 0.659198 0.923101 -0.08735
C_ C_ 0.378191 0.654936 0.918796 -0.05681
C_ C_ 0.396982 0.649742 0.890166 -0.05681
C_ C_ 0.360948 0.645826 0.867297 -0.08735
C_ C_ 0.309467 0.650126 0.871957 -0.08735
C_ C_ 0.412878 0.665696 0.941266 -0.08735
C_ C_ 0.464962 0.668796 0.935432 -0.08735
C_ C_ 0.482304 0.662316 0.907419 -0.05681
C_ C_ 0.448404 0.649367 0.884652 -0.08735
C_ C_ 0.130542 0.773883 0.910795 0.68181
C_ C_ 0.1492 0.574667 0.899234 0.68181
C_ C_ 0.14915 0.517757 0.896346 -0.05681
C_ C_ 0.14341 0.990972 0.922744 -0.08735
C_ C_ 0.141307 0.937746 0.919771 -0.05681
C_ C_ 0.135317 0.917058 0.892806 -0.05681
C_ C_ 0.142672 0.948086 0.867934 -0.08735
C_ C_ 0.143838 0.0006800000000000139 0.870828 -0.08735
C_ C_ 0.128524 0.905803 0.943753 -0.08735
C_ C_ 0.124711 0.855005 0.940603 -0.08735
C_ C_ 0.128828 0.832215 0.913494 -0.05681
C_ C_ 0.128232 0.863896 0.888947 -0.08735
C_ C_ 0.0456352 0.669635 0.911292 0.68181
C_ C_ 0.115521 0.619187 0.98405 0.1947
C_ C_ 0.0929686 0.60618 0.511517 -0.08735
C_ C_ 0.110727 0.634011 0.534121 -0.08735
C_ C_ 0.129845 0.683173 0.530289 -0.05681
C_ C_ 0.138321 0.700182 0.500603 0.18498
C_ C_ 0.191087 0.73158 0.994899 -0.08735
C_ C_ 0.194743 0.765556 0.519451 -0.08735
C_ C_ 0.181921 0.752893 0.54759 -0.08735
C_ C_ 0.148166 0.712301 0.553422 0.18498
C_ C_ 0.17042 0.684055 0.600857 0.44287
C_ C_ 0.0855152 0.706721 0.593491 0.44287
C_ C_ 0.0769326 0.703179 0.623288 -0.05681
C_ C_ 0.0278027 0.703122 0.634306 -0.08735
C_ C_ 0.0192485 0.693692 0.664032 -0.08735
C_ C_ 0.0587045 0.687491 0.683405 -0.05681
C_ C_ 0.107346 0.6794 0.672143 -0.05681
C_ C_ 0.114898 0.68602 0.641792 -0.05681
C_ C_ 0.164623 0.679292 0.630647 -0.05681
C_ C_ 0.205078 0.666588 0.65054 -0.08735
C_ C_ 0.196942 0.660478 0.680022 -0.08735
C_ C_ 0.147835 0.666708 0.691351 -0.05681
C_ C_ 0.138592 0.667604 0.720998 0.44287
C_ C_ 0.0513945 0.687217 0.714232 0.44287
C_ C_ 0.0829667 0.669467 0.762621 0.18498
C_ C_ 0.0544512 0.625417 0.769595 -0.08735
C_ C_ 0.0589444 0.603579 0.797309 -0.08735
C_ C_ 0.0781825 0.633684 0.819924 -0.08735
C_ C_ 0.106707 0.676484 0.813247 0.18498
C_ C_ 0.109307 0.694015 0.78469 -0.05681
C_ C_ 0.136888 0.737298 0.779013 -0.08735
C_ C_ 0.169308 0.759271 0.800478 -0.08735
C_ C_ 0.169188 0.73601 0.828247 0.1947
C_ C_ 0.258961 0.807862 0.657139 0.68181
C_ C_ 0.201753 0.816158 0.656026 -0.05681
C_ C_ 0.167584 0.80949 0.679793 -0.08735
C_ C_ 0.11483 0.815018 0.676745 -0.05681
C_ C_ 0.0943364 0.820837 0.649099 -0.05681
C_ C_ 0.128262 0.819938 0.624844 -0.08735
C_ C_ 0.17991 0.813634 0.628258 -0.08735
C_ C_ 0.0819822 0.814002 0.699965 -0.08735
C_ C_ 0.0293228 0.818002 0.696611 -0.08735
C_ C_ 0.00795295 0.821559 0.669489 -0.05681
C_ C_ 0.0413208 0.818519 0.645255 -0.08735
C_ C_ 0.361048 0.71815 0.660271 0.68181
C_ C_ 0.352243 0.914116 0.649749 0.68181
C_ C_ 0.348604 0.97038 0.647618 -0.05681
C_ C_ 0.369375 0.504485 0.673008 -0.08735
C_ C_ 0.369462 0.558497 0.669866 -0.05681
C_ C_ 0.36129 0.57984 0.642115 -0.05681
C_ C_ 0.349659 0.546213 0.619733 -0.08735
C_ C_ 0.341902 0.991591 0.620825 -0.08735
C_ C_ 0.366387 0.590121 0.693647 -0.08735
C_ C_ 0.35841 0.64256 0.690685 -0.08735
C_ C_ 0.357617 0.662977 0.662649 -0.05681
C_ C_ 0.357816 0.632612 0.638769 -0.08735
C_ C_ 0.454155 0.821321 0.656151 0.68181
C_ C_ 0.38735 0.875908 0.731157 0.1947
C_ C_ 0.396117 0.890946 0.759678 -0.08735
C_ C_ 0.386847 0.860297 0.782133 -0.08735
C_ C_ 0.357424 0.814607 0.777388 -0.05681
C_ C_ 0.348784 0.800813 0.748238 0.18498
C_ C_ 0.323384 0.755294 0.743758 -0.08735
C_ C_ 0.301312 0.726304 0.766285 -0.08735
C_ C_ 0.312306 0.738969 0.794763 -0.08735
C_ C_ 0.341326 0.781638 0.800604 0.18498
C_ C_ 0.312383 0.808987 0.848249 0.44287
C_ C_ 0.398695 0.781845 0.843106 0.44287
C_ C_ 0.408693 0.793355 0.872572 -0.05681
C_ C_ 0.45668 0.782261 0.884763 -0.08735
C_ C_ 0.461207 0.780791 0.913724 -0.08735
C_ C_ 0.421996 0.794276 0.93326 -0.05681
C_ C_ 0.376572 0.81166 0.919407 -0.05681
C_ C_ 0.369412 0.806476 0.890134 -0.05681
C_ C_ 0.321833 0.81902 0.878055 -0.05681
C_ C_ 0.286486 0.839932 0.895705 -0.08735
C_ C_ 0.291953 0.841545 0.925108 -0.08735
C_ C_ 0.339709 0.833296 0.937052 -0.05681
C_ C_ 0.348586 0.84177 0.967105 0.44287
C_ C_ 0.431584 0.80689 0.962455 0.44287
C_ C_ 0.374678 0.842345 0.510935 0.18498
C_ C_ 0.391054 0.889197 0.518385 -0.08735
C_ C_ 0.406687 0.899006 0.545446 -0.08735
C_ C_ 0.400721 0.863796 0.566978 -0.08735
C_ C_ 0.375817 0.818724 0.561219 0.18498
C_ C_ 0.365891 0.806715 0.532514 -0.05681
C_ C_ 0.346718 0.757819 0.526184 -0.08735
C_ C_ 0.33248 0.727012 0.548625 -0.08735
C_ C_ 0.333657 0.746714 0.577231 0.1947
N_ N_ 0.14075 0.662194 0.978556 -0.29468
N_ N_ 0.133883 0.701007 0.583272 -0.17154
N_ N_ 0.0915186 0.678557 0.732337 -0.17154
N_ N_ 0.134885 0.699328 0.833882 -0.29468
N_ N_ 0.363003 0.830537 0.725308 -0.29468
N_ N_ 0.351646 0.793629 0.831156 -0.17154
N_ N_ 0.393647 0.827647 0.979356 -0.17154
N_ N_ 0.352142 0.793044 0.581801 -0.29468
O_ O_ 0.218557 0.681305 0.926646 -0.58347
O_ O_ 0.212395 0.68442 0.879954 -0.58347
O_ O_ 0.133024 0.750171 0.933178 -0.58347
O_ O_ 0.128181 0.752669 0.886963 -0.58347
O_ O_ 0.155025 0.594352 0.923621 -0.58347
O_ O_ 0.139918 0.602275 0.877869 -0.58347
O_ O_ 0.0733259 0.661652 0.931777 -0.58347
O_ O_ 0.0636772 0.679591 0.887236 -0.58347
O_ O_ 0.050225 0.720748 0.575911 -0.46727
O_ O_ 0.217881 0.679353 0.591234 -0.46727
O_ O_ 0.00629948 0.692874 0.724957 -0.46727
O_ O_ 0.176968 0.657937 0.738735 -0.46727
O_ O_ 0.281145 0.805954 0.680873 -0.58347
O_ O_ 0.284426 0.813488 0.634584 -0.58347
O_ O_ 0.365873 0.741981 0.682386 -0.58347
O_ O_ 0.359893 0.739258 0.635723 -0.58347
O_ O_ 0.343928 0.892298 0.67417 -0.58347
O_ O_ 0.351654 0.88932 0.62625 -0.58347
O_ O_ 0.42632 0.833776 0.676778 -0.58347
O_ O_ 0.436225 0.816406 0.631206 -0.58347
O_ O_ 0.435818 0.769965 0.825565 -0.46727
O_ O_ 0.269712 0.826049 0.836605 -0.46727
O_ O_ 0.478063 0.80426 0.974363 -0.46727
O_ O_ 0.312694 0.857466 0.984433 -0.46727
Zn Zn 0.622189 0.184946 0.379768 0.90689
Zn Zn 0.636222 0.179447 0.428274 0.90689
Zn Zn 0.881682 0.321594 0.132178 0.90689
Zn Zn 0.866242 0.327574 0.17971 0.90689
H_ H_ 0.799797 0.209702 0.44199 0.11455
H_ H_ 0.870235 0.15138 0.350385 0.11455
H_ H_ 0.778027 0.15592 0.355621 0.11455
H_ H_ 0.885646 0.215235 0.462555 0.11455
H_ H_ 0.974189 0.207824 0.456819 0.11455
H_ H_ 0.954277 0.179904 0.368449 0.11455
H_ H_ 0.623043 0.0100669 0.441996 0.11455
H_ H_ 0.593546 0.432067 0.345842 0.11455
H_ H_ 0.60863 0.0232254 0.350066 0.11455
H_ H_ 0.641618 0.427889 0.459036 0.11455
H_ H_ 0.643196 0.334422 0.45379 0.11455
H_ H_ 0.607239 0.347958 0.364092 0.11455
H_ H_ 0.578024 0.109527 0.463595 0.11455
H_ H_ 0.573613 0.0869265 0.0197329 0.11455
H_ H_ 0.613843 0.130983 0.0553383 0.11455
H_ H_ 0.691543 0.242919 0.472389 0.11455
H_ H_ 0.738578 0.296801 0.0107246 0.11455
H_ H_ 0.722691 0.279106 0.0609748 0.11455
H_ H_ 0.521613 0.217955 0.122599 0.11455
H_ H_ 0.510004 0.204107 0.176664 0.11455
H_ H_ 0.771746 0.190709 0.136786 0.11455
H_ H_ 0.761738 0.176184 0.187245 0.11455
H_ H_ 0.576555 0.0719074 0.247021 0.11455
H_ H_ 0.54978 0.0547321 0.295264 0.11455
H_ H_ 0.561891 0.119234 0.335249 0.11455
H_ H_ 0.683117 0.224895 0.256956 0.11455
H_ H_ 0.702643 0.277488 0.295148 0.11455
H_ H_ 0.679153 0.259352 0.343122 0.11455
H_ H_ 0.703573 0.302459 0.19232 0.11455
H_ H_ 0.633379 0.336529 0.0952511 0.11455
H_ H_ 0.723496 0.338133 0.103956 0.11455
H_ H_ 0.615457 0.295273 0.21289 0.11455
H_ H_ 0.526501 0.296407 0.203111 0.11455
H_ H_ 0.54818 0.333991 0.114967 0.11455
H_ H_ 0.843497 0.490062 0.191979 0.11455
H_ H_ 0.832192 0.0745814 0.102261 0.11455
H_ H_ 0.899219 0.480376 0.106308 0.11455
H_ H_ 0.887109 0.0779679 0.216395 0.11455
H_ H_ 0.899189 0.168232 0.209808 0.11455
H_ H_ 0.854415 0.154321 0.121337 0.11455
H_ H_ 0.901285 0.405694 0.217748 0.11455
H_ H_ 0.900035 0.438031 0.266194 0.11455
H_ H_ 0.889669 0.384142 0.304637 0.11455
H_ H_ 0.826765 0.241503 0.223752 0.11455
H_ H_ 0.815567 0.181659 0.264745 0.11455
H_ H_ 0.838623 0.205526 0.313025 0.11455
H_ H_ 1.00317 0.310146 0.377923 0.11455
H_ H_ 0.0100673 0.322884 0.429656 0.11455
H_ H_ 0.745605 0.317667 0.386586 0.11455
H_ H_ 0.753084 0.329306 0.4373 0.11455
H_ H_ 0.933066 0.42445 0.502111 0.11455
H_ H_ 0.971152 0.441378 0.0459723 0.11455
H_ H_ 0.935216 0.390664 0.0889893 0.11455
H_ H_ 0.861053 0.253784 0.00721406 0.11455
H_ H_ 0.820927 0.209704 0.0503998 0.11455
H_ H_ 0.825625 0.248027 0.0968163 0.11455
C_ C_ 0.728608 0.181926 0.404263 0.68181
C_ C_ 0.783485 0.186121 0.399934 -0.05681
C_ C_ 0.81609 0.193282 0.422788 -0.08735
C_ C_ 0.869333 0.186205 0.419073 -0.05681
C_ C_ 0.889673 0.175244 0.393275 -0.05681
C_ C_ 0.8564 0.166862 0.369783 -0.08735
C_ C_ 0.803852 0.170924 0.373277 -0.08735
C_ C_ 0.899442 0.197727 0.442065 -0.08735
C_ C_ 0.951729 0.200465 0.438798 -0.08735
C_ C_ 0.974639 0.191489 0.412199 -0.05681
C_ C_ 0.941379 0.182362 0.389921 -0.08735
C_ C_ 0.626545 0.280873 0.406142 0.68181
C_ C_ 0.623259 0.0826398 0.39876 0.68181
C_ C_ 0.620713 0.0266359 0.396339 -0.05681
C_ C_ 0.63915 0.495508 0.415554 -0.08735
C_ C_ 0.632788 0.441949 0.413831 -0.05681
C_ C_ 0.622475 0.418703 0.387034 -0.05681
C_ C_ 0.606645 0.451303 0.36481 -0.08735
C_ C_ 0.610451 0.504636 0.366023 -0.08735
C_ C_ 0.640716 0.410836 0.438191 -0.08735
C_ C_ 0.636638 0.358263 0.435517 -0.08735
C_ C_ 0.627163 0.335466 0.408236 -0.05681
C_ C_ 0.614711 0.365962 0.384507 -0.08735
C_ C_ 0.529312 0.18567 0.403031 0.68181
C_ C_ 0.59331 0.128745 0.481489 0.1947
C_ C_ 0.594208 0.120934 0.0137445 -0.08735
C_ C_ 0.616324 0.146922 0.034999 -0.08735
C_ C_ 0.644943 0.190817 0.0298871 -0.05681
C_ C_ 0.656507 0.201527 1.00133814 0.18498
C_ C_ 0.682203 0.231728 0.494604 -0.08735
C_ C_ 0.714895 0.265792 0.0170759 -0.08735
C_ C_ 0.698469 0.260926 0.0450989 -0.08735
C_ C_ 0.667371 0.218644 0.0529417 0.18498
C_ C_ 0.697135 0.189638 0.0977959 0.44287
C_ C_ 0.609435 0.215609 0.0937696 0.44287
C_ C_ 0.600031 0.199137 0.12238 -0.05681
C_ C_ 0.551524 0.203921 0.13623 -0.08735
C_ C_ 0.543625 0.192148 0.166298 -0.08735
C_ C_ 0.58869 0.183059 0.182505 -0.05681
C_ C_ 0.637101 0.17946 0.168964 -0.05681
C_ C_ 0.642377 0.184725 0.139695 -0.05681
C_ C_ 0.691114 0.184597 0.127276 -0.05681
C_ C_ 0.733681 0.184288 0.145015 -0.08735
C_ C_ 0.728874 0.178034 0.174727 -0.08735
C_ C_ 0.680326 0.170418 0.18681 -0.05681
C_ C_ 0.672426 0.151651 0.21502 0.44287
C_ C_ 0.584898 0.17628 0.212616 0.44287
C_ C_ 0.61564 0.143753 0.257927 0.18498
C_ C_ 0.583788 0.101117 0.263182 -0.08735
C_ C_ 0.568984 0.0904821 0.291356 -0.08735
C_ C_ 0.581693 0.122354 0.313955 -0.08735
C_ C_ 0.618228 0.162562 0.309539 0.18498
C_ C_ 0.632476 0.174486 0.280887 -0.05681
C_ C_ 0.663444 0.217076 0.276129 -0.08735
C_ C_ 0.682881 0.241981 0.299238 -0.08735
C_ C_ 0.66532 0.232714 0.326857 0.1947
C_ C_ 0.77548 0.325369 0.154593 0.68181
C_ C_ 0.721023 0.322732 0.149779 -0.05681
C_ C_ 0.688449 0.315993 0.172324 -0.08735
C_ C_ 0.635818 0.318835 0.168721 -0.05681
C_ C_ 0.614954 0.32671 0.140542 -0.05681
C_ C_ 0.648338 0.331097 0.11764 -0.08735
C_ C_ 0.700239 0.334196 0.122598 -0.08735
C_ C_ 0.601981 0.309421 0.191516 -0.08735
C_ C_ 0.549541 0.309078 0.185967 -0.08735
C_ C_ 0.529159 0.326291 0.159568 -0.05681
C_ C_ 0.561805 0.327186 0.136527 -0.08735
C_ C_ 0.882173 0.228291 0.162096 0.68181
C_ C_ 0.869605 0.422154 0.153473 0.68181
C_ C_ 0.872392 0.478601 0.150188 -0.05681
C_ C_ 0.868186 0.0132797 0.174933 -0.08735
C_ C_ 0.873628 0.0652031 0.171344 -0.05681
C_ C_ 0.865 0.08711 0.144099 -0.05681
C_ C_ 0.847046 0.0561998 0.121409 -0.08735
C_ C_ 0.888385 0.502439 0.124585 -0.08735
C_ C_ 0.879453 0.0957867 0.195191 -0.08735
C_ C_ 0.885406 0.146206 0.191807 -0.08735
C_ C_ 0.879506 0.170844 0.165028 -0.05681
C_ C_ 0.866434 0.139388 0.141491 -0.08735
C_ C_ 0.972674 0.325474 0.161801 0.68181
C_ C_ 0.886223 0.381082 0.233544 0.1947
C_ C_ 0.894484 0.397216 0.261854 -0.08735
C_ C_ 0.88087 0.36721 0.283683 -0.08735
C_ C_ 0.867647 0.315877 0.279412 -0.05681
C_ C_ 0.859418 0.300429 0.250506 0.18498
C_ C_ 0.84008 0.252487 0.245797 -0.08735
C_ C_ 0.830077 0.219886 0.268871 -0.08735
C_ C_ 0.841566 0.233524 0.297206 -0.08735
C_ C_ 0.859889 0.281843 0.303818 0.18498
C_ C_ 0.824538 0.300113 0.350547 0.44287
C_ C_ 0.915289 0.299761 0.345267 0.44287
C_ C_ 0.922718 0.311085 0.375571 -0.05681
C_ C_ 0.968993 0.311947 0.389906 -0.08735
C_ C_ 0.971976 0.318482 0.419177 -0.08735
C_ C_ 0.928264 0.323796 0.435612 -0.05681
C_ C_ 0.880552 0.321952 0.422941 -0.05681
C_ C_ 0.877371 0.317825 0.392329 -0.05681
C_ C_ 0.827523 0.313011 0.379457 -0.05681
C_ C_ 0.784337 0.317563 0.395844 -0.08735
C_ C_ 0.78942 0.328116 0.425754 -0.08735
C_ C_ 0.836299 0.327851 0.439485 -0.05681
C_ C_ 0.842159 0.336503 0.469751 0.44287
C_ C_ 0.931996 0.327827 0.466367 0.44287
C_ C_ 0.90944 0.344527 0.0101353 0.18498
C_ C_ 0.946054 0.382865 0.016491 -0.08735
C_ C_ 0.954817 0.402989 0.0445804 -0.08735
C_ C_ 0.928722 0.378188 0.0679221 -0.08735
C_ C_ 0.895345 0.335778 0.0627021 0.18498
C_ C_ 0.88693 0.319955 0.0338202 -0.05681
C_ C_ 0.863871 0.272092 0.0297593 -0.08735
C_ C_ 0.844071 0.244656 0.0530517 -0.08735
C_ C_ 0.843959 0.267411 0.0804123 0.1947
N_ N_ 0.625911 0.167682 0.477774 -0.29468
N_ N_ 0.657808 0.207032 0.0821357 -0.17154
N_ N_ 0.625237 0.157002 0.229131 -0.17154
N_ N_ 0.632171 0.192751 0.332233 -0.29468
N_ N_ 0.864682 0.3344 0.228309 -0.29468
N_ N_ 0.867064 0.297832 0.333402 -0.17154
N_ N_ 0.888791 0.333569 0.482874 -0.17154
N_ N_ 0.872408 0.311055 0.0847668 -0.29468
O_ O_ 0.709008 0.182789 0.428689 -0.58347
O_ O_ 0.698589 0.184828 0.382504 -0.58347
O_ O_ 0.637819 0.255223 0.428326 -0.58347
O_ O_ 0.617627 0.25887 0.382263 -0.58347
O_ O_ 0.627511 0.103636 0.422334 -0.58347
O_ O_ 0.621876 0.108331 0.375905 -0.58347
O_ O_ 0.560648 0.181893 0.423839 -0.58347
O_ O_ 0.546732 0.180476 0.377568 -0.58347
O_ O_ 0.573368 0.23729 0.0796465 -0.46727
O_ O_ 0.738417 0.170798 0.0844057 -0.46727
O_ O_ 0.54275 0.18987 0.226349 -0.46727
O_ O_ 0.713371 0.136577 0.22959 -0.46727
O_ O_ 0.791267 0.320549 0.179995 -0.58347
O_ O_ 0.806423 0.323175 0.133944 -0.58347
O_ O_ 0.882473 0.255982 0.183389 -0.58347
O_ O_ 0.8815 0.247274 0.137283 -0.58347
O_ O_ 0.857813 0.403104 0.177127 -0.58347
O_ O_ 0.880855 0.395287 0.131833 -0.58347
O_ O_ 0.942561 0.336608 0.18254 -0.58347
O_ O_ 0.955558 0.323413 0.136745 -0.58347
O_ O_ 0.955359 0.293296 0.328708 -0.46727
O_ O_ 0.781016 0.301553 0.338043 -0.46727
O_ O_ 0.975473 0.318885 0.478761 -0.46727
O_ O_ 0.802529 0.344107 0.485736 -0.46727
Zn Zn 0.620287 0.181967 0.88199 0.90689
Zn Zn 0.639599 0.177619 0.930321 0.90689
Zn Zn 0.877039 0.313434 0.63587 0.90689
Zn Zn 0.867926 0.319809 0.683585 0.90689
H_ H_ 0.804035 0.184764 0.94553 0.11455
H_ H_ 0.86281 0.141593 0.847974 0.11455
H_ H_ 0.775062 0.181451 0.855076 0.11455
H_ H_ 0.893059 0.189601 0.960706 0.11455
H_ H_ 0.980301 0.195501 0.952265 0.11455
H_ H_ 0.956009 0.149025 0.862801 0.11455
H_ H_ 0.636512 0.0138495 0.942897 0.11455
H_ H_ 0.63765 0.428108 0.845518 0.11455
H_ H_ 0.62687 0.0278229 0.852818 0.11455
H_ H_ 0.653274 0.419151 0.963204 0.11455
H_ H_ 0.62987 0.33221 0.957695 0.11455
H_ H_ 0.631581 0.347114 0.867927 0.11455
H_ H_ 0.592228 0.108384 0.967792 0.11455
H_ H_ 0.562144 0.0714325 0.511979 0.11455
H_ H_ 0.601658 0.11613 0.555592 0.11455
H_ H_ 0.707237 0.243601 0.974778 0.11455
H_ H_ 0.71329 0.298278 0.512006 0.11455
H_ H_ 0.703466 0.27026 0.562557 0.11455
H_ H_ 0.515831 0.20356 0.621143 0.11455
H_ H_ 0.504677 0.202596 0.673266 0.11455
H_ H_ 0.764778 0.153188 0.636572 0.11455
H_ H_ 0.753546 0.148987 0.686921 0.11455
H_ H_ 0.561046 0.100276 0.747552 0.11455
H_ H_ 0.547786 0.0657039 0.795862 0.11455
H_ H_ 0.583677 0.114301 0.837326 0.11455
H_ H_ 0.674244 0.24325 0.759461 0.11455
H_ H_ 0.705071 0.286741 0.801951 0.11455
H_ H_ 0.680539 0.264241 0.849768 0.11455
H_ H_ 0.702719 0.351812 0.691337 0.11455
H_ H_ 0.629997 0.303382 0.599222 0.11455
H_ H_ 0.720478 0.305279 0.606333 0.11455
H_ H_ 0.621775 0.364136 0.708874 0.11455
H_ H_ 0.529614 0.357954 0.704086 0.11455
H_ H_ 0.546068 0.330328 0.614309 0.11455
H_ H_ 0.874377 0.485669 0.697868 0.11455
H_ H_ 0.881356 0.0616904 0.598472 0.11455
H_ H_ 0.86525 0.475879 0.60642 0.11455
H_ H_ 0.849473 0.070329 0.717661 0.11455
H_ H_ 0.87136 0.161385 0.712872 0.11455
H_ H_ 0.887016 0.144342 0.620532 0.11455
H_ H_ 0.920741 0.38853 0.72372 0.11455
H_ H_ 0.920068 0.422615 0.770211 0.11455
H_ H_ 0.880331 0.37464 0.810236 0.11455
H_ H_ 0.801525 0.256073 0.723358 0.11455
H_ H_ 0.775346 0.197921 0.761031 0.11455
H_ H_ 0.794543 0.210345 0.81098 0.11455
H_ H_ 0.979996 0.271223 0.874869 0.11455
H_ H_ 0.00189471 0.314658 0.920707 0.11455
H_ H_ 0.738622 0.343022 0.891968 0.11455
H_ H_ 0.758081 0.353036 0.943363 0.11455
H_ H_ 0.965831 0.399846 0.99758955 0.11455
H_ H_ 0.958291 0.442721 0.552984 0.11455
H_ H_ 0.928951 0.38351 0.591107 0.11455
H_ H_ 0.846142 0.260677 0.511383 0.11455
H_ H_ 0.816818 0.20961 0.546706 0.11455
H_ H_ 0.82855 0.234684 0.597567 0.11455
C_ C_ 0.728493 0.185014 0.906406 0.68181
C_ C_ 0.783436 0.178983 0.901123 -0.05681
C_ C_ 0.819607 0.174892 0.92418 -0.08735
C_ C_ 0.871355 0.175679 0.918237 -0.05681
C_ C_ 0.888658 0.166282 0.890447 -0.05681
C_ C_ 0.852986 0.165955 0.86734 -0.08735
C_ C_ 0.801515 0.177846 0.873036 -0.08735
C_ C_ 0.905318 0.18677 0.939318 -0.08735
C_ C_ 0.956591 0.186976 0.934542 -0.08735
C_ C_ 0.975396 0.174139 0.907273 -0.05681
C_ C_ 0.940733 0.158689 0.88503 -0.08735
C_ C_ 0.623933 0.277452 0.91162 0.68181
C_ C_ 0.635509 0.0824909 0.901389 0.68181
C_ C_ 0.638587 0.0264371 0.897806 -0.05681
C_ C_ 0.646816 0.494361 0.918966 -0.08735
C_ C_ 0.642612 0.440815 0.918179 -0.05681
C_ C_ 0.637044 0.417688 0.891249 -0.05681
C_ C_ 0.636716 0.447249 0.865959 -0.08735
C_ C_ 0.644611 0.499682 0.866873 -0.08735
C_ C_ 0.641554 0.408383 0.942707 -0.08735
C_ C_ 0.630204 0.357552 0.939326 -0.08735
C_ C_ 0.630878 0.333982 0.913012 -0.05681
C_ C_ 0.635372 0.364701 0.888959 -0.08735
C_ C_ 0.53103 0.178656 0.90671 0.68181
C_ C_ 0.602266 0.135966 0.98492 0.1947
C_ C_ 0.585817 0.10788 0.509129 -0.08735
C_ C_ 0.61044 0.128948 0.534207 -0.08735
C_ C_ 0.638251 0.175482 0.528002 -0.05681
C_ C_ 0.650037 0.190996 0.499629 0.18498
C_ C_ 0.692702 0.238185 0.995229 -0.08735
C_ C_ 0.697863 0.260974 0.516866 -0.08735
C_ C_ 0.690748 0.245344 0.544701 -0.08735
C_ C_ 0.660364 0.203612 0.550872 0.18498
C_ C_ 0.68909 0.182315 0.598295 0.44287
C_ C_ 0.604386 0.20044 0.592692 0.44287
C_ C_ 0.596551 0.194238 0.622966 -0.05681
C_ C_ 0.548917 0.200677 0.634649 -0.08735
C_ C_ 0.541306 0.199055 0.664693 -0.08735
C_ C_ 0.58338 0.193817 0.683229 -0.05681
C_ C_ 0.6316 0.182898 0.670817 -0.05681
C_ C_ 0.638327 0.181025 0.640572 -0.05681
C_ C_ 0.686086 0.175016 0.62827 -0.05681
C_ C_ 0.72855 0.164294 0.645909 -0.08735
C_ C_ 0.721199 0.158979 0.675498 -0.08735
C_ C_ 0.672953 0.170054 0.687926 -0.05681
C_ C_ 0.666748 0.16467 0.717848 0.44287
C_ C_ 0.580004 0.189508 0.714187 0.44287
C_ C_ 0.611778 0.160467 0.759234 0.18498
C_ C_ 0.579782 0.118207 0.764975 -0.08735
C_ C_ 0.568456 0.103194 0.793194 -0.08735
C_ C_ 0.58847 0.129685 0.817357 -0.08735
C_ C_ 0.616463 0.173084 0.813168 0.18498
C_ C_ 0.627162 0.191054 0.783745 -0.05681
C_ C_ 0.658801 0.231513 0.780365 -0.08735
C_ C_ 0.678836 0.255605 0.804134 -0.08735
C_ C_ 0.666473 0.241114 0.831412 0.1947
C_ C_ 0.773681 0.314511 0.656404 0.68181
C_ C_ 0.718617 0.322239 0.650808 -0.05681
C_ C_ 0.68528 0.334615 0.673192 -0.08735
C_ C_ 0.633297 0.339971 0.666967 -0.05681
C_ C_ 0.613779 0.325755 0.640891 -0.05681
C_ C_ 0.645583 0.311757 0.619578 -0.08735
C_ C_ 0.69729 0.31344 0.624189 -0.08735
C_ C_ 0.602221 0.35288 0.688756 -0.08735
C_ C_ 0.550026 0.348118 0.685778 -0.08735
C_ C_ 0.528733 0.339397 0.65903 -0.05681
C_ C_ 0.561339 0.330596 0.636164 -0.08735
C_ C_ 0.878354 0.217661 0.6646 0.68181
C_ C_ 0.86971 0.416301 0.655394 0.68181
C_ C_ 0.856687 0.472264 0.652648 -0.05681
C_ C_ 0.855094 0.0033758 0.673182 -0.08735
C_ C_ 0.859693 0.0554838 0.670726 -0.05681
C_ C_ 0.872125 0.0763251 0.643459 -0.05681
C_ C_ 0.870087 0.0449553 0.619506 -0.08735
C_ C_ 0.856926 0.496702 0.625469 -0.08735
C_ C_ 0.861952 0.0859939 0.696665 -0.08735
C_ C_ 0.867449 0.138463 0.694077 -0.08735
C_ C_ 0.875528 0.160405 0.666577 -0.05681
C_ C_ 0.879042 0.128347 0.641926 -0.08735
C_ C_ 0.969891 0.312839 0.658453 0.68181
C_ C_ 0.899849 0.366929 0.738295 0.1947
C_ C_ 0.898676 0.388019 0.76624 -0.08735
C_ C_ 0.873983 0.362706 0.788431 -0.08735
C_ C_ 0.84988 0.316068 0.782687 -0.05681
C_ C_ 0.845563 0.301393 0.752601 0.18498
C_ C_ 0.811489 0.263959 0.745002 -0.08735
C_ C_ 0.789551 0.233716 0.766776 -0.08735
C_ C_ 0.8073 0.23872 0.796034 -0.08735
C_ C_ 0.834875 0.282491 0.804086 0.18498
C_ C_ 0.806705 0.308633 0.851616 0.44287
C_ C_ 0.891325 0.280038 0.8454 0.44287
C_ C_ 0.904016 0.294487 0.873906 -0.05681
C_ C_ 0.953911 0.293623 0.885472 -0.08735
C_ C_ 0.962679 0.304846 0.91373 -0.08735
C_ C_ 0.923729 0.312435 0.932381 -0.05681
C_ C_ 0.873427 0.314731 0.9218 -0.05681
C_ C_ 0.864329 0.309382 0.892033 -0.05681
C_ C_ 0.813455 0.314796 0.881497 -0.05681
C_ C_ 0.77597 0.336961 0.899492 -0.08735
C_ C_ 0.788885 0.344105 0.928765 -0.08735
C_ C_ 0.836329 0.333698 0.940324 -0.05681
C_ C_ 0.848567 0.343269 0.969752 0.44287
C_ C_ 0.932654 0.316463 0.962171 0.44287
C_ C_ 0.893955 0.351804 0.512393 0.18498
C_ C_ 0.921791 0.397053 0.519292 -0.08735
C_ C_ 0.934568 0.409051 0.547817 -0.08735
C_ C_ 0.915163 0.379082 0.570598 -0.08735
C_ C_ 0.884038 0.336618 0.564723 0.18498
C_ C_ 0.873911 0.321909 0.535747 -0.05681
C_ C_ 0.85265 0.272234 0.531112 -0.08735
C_ C_ 0.832571 0.245276 0.553395 -0.08735
C_ C_ 0.840297 0.262145 0.581676 0.1947
N_ N_ 0.634278 0.176401 0.978841 -0.29468
N_ N_ 0.649672 0.192162 0.580761 -0.17154
N_ N_ 0.620281 0.174841 0.730293 -0.17154
N_ N_ 0.630177 0.202066 0.836063 -0.29468
N_ N_ 0.869386 0.326676 0.731553 -0.29468
N_ N_ 0.845264 0.292019 0.834159 -0.17154
N_ N_ 0.895302 0.33283 0.980384 -0.17154
N_ N_ 0.86879 0.304222 0.586366 -0.29468
O_ O_ 0.713364 0.186366 0.931597 -0.58347
O_ O_ 0.697418 0.185263 0.885322 -0.58347
O_ O_ 0.6327 0.249379 0.932222 -0.58347
O_ O_ 0.615645 0.258811 0.887113 -0.58347
O_ O_ 0.643206 0.101874 0.925752 -0.58347
O_ O_ 0.624506 0.108876 0.879731 -0.58347
O_ O_ 0.561231 0.172207 0.928698 -0.58347
O_ O_ 0.548539 0.172849 0.882026 -0.58347
O_ O_ 0.568694 0.214977 0.575797 -0.46727
O_ O_ 0.734842 0.179929 0.587447 -0.46727
O_ O_ 0.536629 0.196865 0.726958 -0.46727
O_ O_ 0.701936 0.141412 0.732972 -0.46727
O_ O_ 0.791359 0.317649 0.680299 -0.58347
O_ O_ 0.805163 0.312046 0.635931 -0.58347
O_ O_ 0.867072 0.243817 0.686655 -0.58347
O_ O_ 0.879804 0.23889 0.639727 -0.58347
O_ O_ 0.867374 0.394034 0.679675 -0.58347
O_ O_ 0.86909 0.390722 0.632438 -0.58347
O_ O_ 0.943738 0.320658 0.68026 -0.58347
O_ O_ 0.950333 0.314326 0.634121 -0.58347
O_ O_ 0.9239 0.257052 0.829915 -0.46727
O_ O_ 0.765424 0.322937 0.838865 -0.46727
O_ O_ 0.977856 0.307549 0.972226 -0.46727
O_ O_ 0.812893 0.358315 0.987072 -0.46727
Zn Zn 0.619181 0.682959 0.379454 0.90689
Zn Zn 0.630908 0.674998 0.42819 0.90689
Zn Zn 0.873953 0.8192 0.132243 0.90689
Zn Zn 0.86151 0.828288 0.18063 0.90689
H_ H_ 0.798435 0.682821 0.443587 0.11455
H_ H_ 0.868234 0.656918 0.348867 0.11455
H_ H_ 0.780499 0.678179 0.351148 0.11455
H_ H_ 0.881318 0.685725 0.464048 0.11455
H_ H_ 0.973213 0.692046 0.458046 0.11455
H_ H_ 0.959092 0.672177 0.368096 0.11455
H_ H_ 0.641223 0.51286 0.437911 0.11455
H_ H_ 0.60203 0.92857 0.34866 0.11455
H_ H_ 0.599668 0.527845 0.34863 0.11455
H_ H_ 0.625388 0.923466 0.46679 0.11455
H_ H_ 0.616895 0.830187 0.461749 0.11455
H_ H_ 0.614952 0.844851 0.370364 0.11455
H_ H_ 0.579546 0.602833 0.464657 0.11455
H_ H_ 0.595046 0.558483 0.00739075 0.11455
H_ H_ 0.627748 0.611307 0.0517209 0.11455
H_ H_ 0.696627 0.735539 0.472838 0.11455
H_ H_ 0.723859 0.800696 0.0103471 0.11455
H_ H_ 0.700801 0.777192 0.0629991 0.11455
H_ H_ 0.522221 0.708078 0.120604 0.11455
H_ H_ 0.51239 0.706427 0.175222 0.11455
H_ H_ 0.764878 0.632965 0.132844 0.11455
H_ H_ 0.749925 0.624124 0.184639 0.11455
H_ H_ 0.587996 0.581216 0.249075 0.11455
H_ H_ 0.557682 0.562434 0.298554 0.11455
H_ H_ 0.563357 0.632478 0.333871 0.11455
H_ H_ 0.679421 0.742197 0.25838 0.11455
H_ H_ 0.683861 0.802098 0.299133 0.11455
H_ H_ 0.664268 0.770048 0.348542 0.11455
H_ H_ 0.69551 0.803591 0.190352 0.11455
H_ H_ 0.624391 0.844885 0.0945302 0.11455
H_ H_ 0.721082 0.834407 0.102489 0.11455
H_ H_ 0.604528 0.816507 0.210066 0.11455
H_ H_ 0.513598 0.818671 0.201738 0.11455
H_ H_ 0.539297 0.844002 0.113291 0.11455
H_ H_ 0.87636 0.996099 0.194773 0.11455
H_ H_ 0.91083 0.570282 0.105098 0.11455
H_ H_ 0.830194 0.978274 0.110132 0.11455
H_ H_ 0.8412 0.572297 0.215057 0.11455
H_ H_ 0.843026 0.666571 0.210487 0.11455
H_ H_ 0.890873 0.652855 0.125107 0.11455
H_ H_ 0.902342 0.905476 0.216875 0.11455
H_ H_ 0.923292 0.931544 0.26622 0.11455
H_ H_ 0.880718 0.893757 0.305834 0.11455
H_ H_ 0.797475 0.763853 0.226541 0.11455
H_ H_ 0.773793 0.706746 0.265278 0.11455
H_ H_ 0.788996 0.734297 0.316521 0.11455
H_ H_ 0.974732 0.805717 0.372133 0.11455
H_ H_ -0.012128000000000028 0.806898 0.425414 0.11455
H_ H_ 0.724735 0.84268 0.388729 0.11455
H_ H_ 0.735084 0.840221 0.442856 0.11455
H_ H_ 0.93679 0.901024 0.501086 0.11455
H_ H_ 0.945253 0.948385 0.0487332 0.11455
H_ H_ 0.923203 0.889788 0.088202 0.11455
H_ H_ 0.853079 0.755808 0.00835424 0.11455
H_ H_ 0.807679 0.719299 0.047373 0.11455
H_ H_ 0.822404 0.748179 0.0976534 0.11455
C_ C_ 0.723662 0.683253 0.400651 0.68181
C_ C_ 0.781048 0.684017 0.397713 -0.05681
C_ C_ 0.812848 0.684287 0.422171 -0.08735
C_ C_ 0.8661 0.678773 0.420202 -0.05681
C_ C_ 0.887086 0.669852 0.392844 -0.05681
C_ C_ 0.855534 0.667138 0.368904 -0.08735
C_ C_ 0.803888 0.678008 0.37118 -0.08735
C_ C_ 0.897069 0.682137 0.443371 -0.08735
C_ C_ 0.949388 0.685278 0.439918 -0.08735
C_ C_ 0.972242 0.68143 0.41299 -0.05681
C_ C_ 0.939039 0.673398 0.388856 -0.08735
C_ C_ 0.613246 0.777222 0.412207 0.68181
C_ C_ 0.633304 0.582727 0.395067 0.68181
C_ C_ 0.630806 0.52591 0.391804 -0.05681
C_ C_ 0.625319 0.99342 0.420747 -0.08735
C_ C_ 0.622205 0.938864 0.420579 -0.05681
C_ C_ 0.615053 0.917377 0.39289 -0.05681
C_ C_ 0.610054 0.948179 0.367688 -0.08735
C_ C_ 0.615674 1.00137501 0.368978 -0.08735
C_ C_ 0.627919 0.90753 0.445543 -0.08735
C_ C_ 0.622947 0.855198 0.443141 -0.08735
C_ C_ 0.617085 0.833038 0.415291 -0.05681
C_ C_ 0.614721 0.863713 0.390542 -0.08735
C_ C_ 0.526941 0.673061 0.404884 0.68181
C_ C_ 0.600573 0.618459 0.4815 0.1947
C_ C_ 0.608558 0.599235 0.00650492 -0.08735
C_ C_ 0.62763 0.626133 0.0300659 -0.08735
C_ C_ 0.647423 0.676467 0.0269617 -0.05681
C_ C_ 0.655286 0.693703 0.998746 0.18498
C_ C_ 0.678745 0.730099 0.49314 -0.08735
C_ C_ 0.69663 0.77095 0.0158123 -0.08735
C_ C_ 0.689502 0.754063 0.0443549 -0.08735
C_ C_ 0.664087 0.708351 0.0500705 0.18498
C_ C_ 0.697646 0.67634 0.0957207 0.44287
C_ C_ 0.610536 0.696983 0.090599 0.44287
C_ C_ 0.602216 0.689724 0.12143 -0.05681
C_ C_ 0.553445 0.700946 0.133981 -0.08735
C_ C_ 0.547677 0.696972 0.164586 -0.08735
C_ C_ 0.591394 0.690498 0.182014 -0.05681
C_ C_ 0.637211 0.676287 0.169027 -0.05681
C_ C_ 0.642158 0.678083 0.138389 -0.05681
C_ C_ 0.691101 0.669869 0.126309 -0.05681
C_ C_ 0.729712 0.644881 0.142445 -0.08735
C_ C_ 0.721641 0.640049 0.171658 -0.08735
C_ C_ 0.677031 0.657243 0.185565 -0.05681
C_ C_ 0.670407 0.650048 0.215147 0.44287
C_ C_ 0.588091 0.684757 0.212367 0.44287
C_ C_ 0.617183 0.654008 0.258792 0.18498
C_ C_ 0.593616 0.607626 0.265446 -0.08735
C_ C_ 0.57566 0.596949 0.292567 -0.08735
C_ C_ 0.583859 0.632323 0.31419 -0.08735
C_ C_ 0.614158 0.67488 0.310169 0.18498
C_ C_ 0.631218 0.687185 0.28151 -0.05681
C_ C_ 0.658027 0.734935 0.277731 -0.08735
C_ C_ 0.671384 0.763491 0.301771 -0.08735
C_ C_ 0.656961 0.746904 0.329514 0.1947
C_ C_ 0.770379 0.817854 0.152042 0.68181
C_ C_ 0.713276 0.824439 0.147556 -0.05681
C_ C_ 0.678792 0.820508 0.171117 -0.08735
C_ C_ 0.626042 0.825033 0.16688 -0.05681
C_ C_ 0.607285 0.838414 0.139322 -0.05681
C_ C_ 0.640392 0.83991 0.115636 -0.08735
C_ C_ 0.693608 0.837174 0.119991 -0.08735
C_ C_ 0.591456 0.820161 0.189861 -0.08735
C_ C_ 0.539147 0.822823 0.183844 -0.08735
C_ C_ 0.521211 0.833474 0.156396 -0.05681
C_ C_ 0.55397 0.841582 0.134446 -0.08735
C_ C_ 0.871437 0.724777 0.164923 0.68181
C_ C_ 0.858451 0.923547 0.152656 0.68181
C_ C_ 0.86031 0.981424 0.150352 -0.05681
C_ C_ 0.859236 0.508939 0.172581 -0.08735
C_ C_ 0.868757 0.561104 0.173202 -0.05681
C_ C_ 0.889112 0.584855 0.1483 -0.05681
C_ C_ 0.896863 0.554582 0.123917 -0.08735
C_ C_ 0.847705 1.0032143 0.124457 -0.08735
C_ C_ 0.856358 0.590049 0.197062 -0.08735
C_ C_ 0.861523 0.643714 0.195246 -0.08735
C_ C_ 0.874011 0.667976 0.169416 -0.05681
C_ C_ 0.885725 0.63677 0.145706 -0.08735
C_ C_ 0.96592 0.827619 0.161782 0.68181
C_ C_ 0.886538 0.885592 0.234837 0.1947
C_ C_ 0.895783 0.903115 0.262289 -0.08735
C_ C_ 0.870464 0.8815 0.28494 -0.08735
C_ C_ 0.841184 0.835138 0.281127 -0.05681
C_ C_ 0.834847 0.818444 0.252683 0.18498
C_ C_ 0.804744 0.774666 0.248119 -0.08735
C_ C_ 0.792553 0.743471 0.270092 -0.08735
C_ C_ 0.804504 0.75681 0.297932 -0.08735
C_ C_ 0.824568 0.805109 0.304214 0.18498
C_ C_ 0.797694 0.829953 0.350988 0.44287
C_ C_ 0.885382 0.811863 0.344034 0.44287
C_ C_ 0.893941 0.817835 0.372834 -0.05681
C_ C_ 0.942772 0.81302 0.386208 -0.08735
C_ C_ 0.949812 0.811448 0.415869 -0.08735
C_ C_ 0.906364 0.813766 0.434349 -0.05681
C_ C_ 0.858098 0.822055 0.422379 -0.05681
C_ C_ 0.851889 0.821748 0.392077 -0.05681
C_ C_ 0.803785 0.828933 0.38106 -0.05681
C_ C_ 0.760487 0.831851 0.399204 -0.08735
C_ C_ 0.768176 0.834279 0.429639 -0.08735
C_ C_ 0.817451 0.827555 0.441034 -0.05681
C_ C_ 0.826368 0.838265 0.470299 0.44287
C_ C_ 0.912928 0.818218 0.463812 0.44287
C_ C_ 0.894502 0.850358 0.0106263 0.18498
C_ C_ 0.915984 0.896924 0.0166566 -0.08735
C_ C_ 0.924258 0.914012 0.0439067 -0.08735
C_ C_ 0.910361 0.882062 0.0664379 -0.08735
C_ C_ 0.885709 0.836131 0.0620115 0.18498
C_ C_ 0.879546 0.819765 0.0332902 -0.05681
C_ C_ 0.858662 0.770931 0.0281337 -0.08735
C_ C_ 0.833459 0.748733 0.0517064 -0.08735
C_ C_ 0.843997 0.763673 0.0796663 0.1947
N_ N_ 0.633827 0.65624 0.475892 -0.29468
N_ N_ 0.657638 0.693723 0.0792741 -0.17154
N_ N_ 0.626246 0.665932 0.228676 -0.17154
N_ N_ 0.627211 0.703803 0.332555 -0.29468
N_ N_ 0.854238 0.844789 0.230514 -0.29468
N_ N_ 0.837196 0.816303 0.333886 -0.17154
N_ N_ 0.873977 0.834082 0.481501 -0.17154
N_ N_ 0.87188 0.805939 0.0849133 -0.29468
O_ O_ 0.705656 0.674529 0.424629 -0.58347
O_ O_ 0.695696 0.698483 0.380128 -0.58347
O_ O_ 0.629188 0.750644 0.432658 -0.58347
O_ O_ 0.602967 0.757531 0.38874 -0.58347
O_ O_ 0.624602 0.60176 0.419856 -0.58347
O_ O_ 0.635996 0.610781 0.373468 -0.58347
O_ O_ 0.553898 0.670796 0.427211 -0.58347
O_ O_ 0.545208 0.669084 0.379444 -0.58347
O_ O_ 0.572039 0.708631 0.075295 -0.46727
O_ O_ 0.737792 0.65903 0.0819286 -0.46727
O_ O_ 0.541946 0.684514 0.223648 -0.46727
O_ O_ 0.700942 0.621158 0.229232 -0.46727
O_ O_ 0.789176 0.82193 0.176409 -0.58347
O_ O_ 0.799606 0.817972 0.130444 -0.58347
O_ O_ 0.862213 0.751193 0.186999 -0.58347
O_ O_ 0.878883 0.745915 0.140156 -0.58347
O_ O_ 0.845933 0.903298 0.175217 -0.58347
O_ O_ 0.863503 0.89574 0.130742 -0.58347
O_ O_ 0.938071 0.836195 0.18389 -0.58347
O_ O_ 0.947176 0.826709 0.136857 -0.58347
O_ O_ 0.925105 0.805121 0.326479 -0.46727
O_ O_ 0.753614 0.837095 0.339329 -0.46727
O_ O_ 0.958168 0.80548 0.474349 -0.46727
O_ O_ 0.786984 0.846791 0.487063 -0.46727
Zn Zn 0.634445 0.681805 0.88087 0.90689
Zn Zn 0.648608 0.679154 0.928166 0.90689
Zn Zn 0.855382 0.810408 0.636753 0.90689
Zn Zn 0.85035 0.818382 0.682203 0.90689
H_ H_ 0.814037 0.687086 0.949222 0.11455
H_ H_ 0.878087 0.681857 0.851448 0.11455
H_ H_ 0.790459 0.668518 0.858943 0.11455
H_ H_ 0.896752 0.688647 0.966982 0.11455
H_ H_ 0.991308 0.700272 0.96093 0.11455
H_ H_ 0.968375 0.659534 0.870612 0.11455
H_ H_ 0.651834 0.513017 0.938996 0.11455
H_ H_ 0.631147 0.935974 0.84908 0.11455
H_ H_ 0.64648 0.522572 0.847602 0.11455
H_ H_ 0.65047 0.931113 0.965214 0.11455
H_ H_ 0.643271 0.838107 0.961086 0.11455
H_ H_ 0.626198 0.85456 0.870166 0.11455
H_ H_ 0.595474 0.601769 0.961503 0.11455
H_ H_ 0.552513 0.584221 0.511519 0.11455
H_ H_ 0.60234 0.621364 0.554698 0.11455
H_ H_ 0.703748 0.743624 0.974572 0.11455
H_ H_ 0.713441 0.794096 0.513742 0.11455
H_ H_ 0.689398 0.7739 0.561361 0.11455
H_ H_ 0.518002 0.692321 0.622345 0.11455
H_ H_ 0.505216 0.690567 0.672917 0.11455
H_ H_ 0.766111 0.673408 0.636925 0.11455
H_ H_ 0.759706 0.653499 0.689208 0.11455
H_ H_ 0.595853 0.580322 0.744778 0.11455
H_ H_ 0.575716 0.549956 0.791953 0.11455
H_ H_ 0.590704 0.603221 0.834568 0.11455
H_ H_ 0.670345 0.743033 0.759202 0.11455
H_ H_ 0.709422 0.779678 0.800833 0.11455
H_ H_ 0.686455 0.753799 0.84976 0.11455
H_ H_ 0.682649 0.801794 0.692882 0.11455
H_ H_ 0.616072 0.839608 0.593995 0.11455
H_ H_ 0.702544 0.839753 0.603979 0.11455
H_ H_ 0.595551 0.797008 0.71132 0.11455
H_ H_ 0.505401 0.800915 0.704598 0.11455
H_ H_ 0.530412 0.832987 0.612583 0.11455
H_ H_ 0.850939 0.985728 0.69533 0.11455
H_ H_ 0.860785 0.567505 0.601676 0.11455
H_ H_ 0.85073 0.97138 0.602481 0.11455
H_ H_ 0.88082 0.570229 0.720642 0.11455
H_ H_ 0.875861 0.66078 0.716728 0.11455
H_ H_ 0.862091 0.648036 0.624112 0.11455
H_ H_ 0.899702 0.897714 0.714502 0.11455
H_ H_ 0.913928 0.930264 0.760836 0.11455
H_ H_ 0.877699 0.889924 0.803539 0.11455
H_ H_ 0.79875 0.75589 0.726434 0.11455
H_ H_ 0.783844 0.694261 0.764948 0.11455
H_ H_ 0.804332 0.723581 0.815506 0.11455
H_ H_ 0.988593 0.808716 0.871661 0.11455
H_ H_ 1.00025 0.818912 0.921249 0.11455
H_ H_ 0.734875 0.840356 0.890386 0.11455
H_ H_ 0.748995 0.83704 0.941789 0.11455
H_ H_ 0.928142 0.919595 0.998543 0.11455
H_ H_ 0.955946 0.924222 0.553366 0.11455
H_ H_ 0.930141 0.864741 0.588742 0.11455
H_ H_ 0.844221 0.743307 0.507759 0.11455
H_ H_ 0.802143 0.700666 0.549061 0.11455
H_ H_ 0.808482 0.736827 0.59652 0.11455
C_ C_ 0.737414 0.682858 0.906527 0.68181
C_ C_ 0.794955 0.676658 0.903745 -0.05681
C_ C_ 0.827025 0.679183 0.927581 -0.08735
C_ C_ 0.879912 0.675401 0.923847 -0.05681
C_ C_ 0.90037 0.672882 0.895841 -0.05681
C_ C_ 0.866381 0.671984 0.87213 -0.08735
C_ C_ 0.815138 0.677117 0.876809 -0.08735
C_ C_ 0.912996 0.682364 0.946598 -0.08735
C_ C_ 0.967111 0.679026 0.944282 -0.08735
C_ C_ 0.988941 0.673769 0.915566 -0.05681
C_ C_ 0.954332 0.668155 0.892496 -0.08735
C_ C_ 0.630766 0.777743 0.910098 0.68181
C_ C_ 0.647446 0.583105 0.896453 0.68181
C_ C_ 0.643358 0.524828 0.895109 -0.05681
C_ C_ 0.635829 -0.004677000000000042 0.923004 -0.08735
C_ C_ 0.638639 0.942327 0.920147 -0.05681
C_ C_ 0.630329 0.920207 0.893616 -0.05681
C_ C_ 0.63063 0.951852 0.869963 -0.08735
C_ C_ 0.630413 0.00477603 0.871691 -0.08735
C_ C_ 0.641891 0.912955 0.944498 -0.08735
C_ C_ 0.63785 0.860138 0.941292 -0.08735
C_ C_ 0.630288 0.834909 0.913682 -0.05681
C_ C_ 0.626705 0.86804 0.890479 -0.08735
C_ C_ 0.537826 0.668421 0.903035 0.68181
C_ C_ 0.609995 0.623098 0.97955 0.1947
C_ C_ 0.585981 0.606768 0.508891 -0.08735
C_ C_ 0.610301 0.629872 0.53257 -0.08735
C_ C_ 0.641019 0.671928 0.527291 -0.05681
C_ C_ 0.653075 0.684757 0.498454 0.18498
C_ C_ 0.685071 0.738533 0.993972 -0.08735
C_ C_ 0.688004 0.763048 0.516324 -0.08735
C_ C_ 0.673758 0.751664 0.543814 -0.08735
C_ C_ 0.656751 0.702644 0.550236 0.18498
C_ C_ 0.694145 0.684145 0.596829 0.44287
C_ C_ 0.604679 0.694053 0.593397 0.44287
C_ C_ 0.598521 0.684313 0.623394 -0.05681
C_ C_ 0.550638 0.687783 0.635612 -0.08735
C_ C_ 0.543823 0.685795 0.664981 -0.08735
C_ C_ 0.587952 0.683762 0.683423 -0.05681
C_ C_ 0.637057 0.676389 0.670047 -0.05681
C_ C_ 0.642019 0.676719 0.63997 -0.05681
C_ C_ 0.688459 0.67393 0.626174 -0.05681
C_ C_ 0.730875 0.66819 0.644965 -0.08735
C_ C_ 0.727095 0.662527 0.675952 -0.08735
C_ C_ 0.679077 0.668391 0.688063 -0.05681
C_ C_ 0.672673 0.663716 0.71762 0.44287
C_ C_ 0.58621 0.687151 0.713155 0.44287
C_ C_ 0.614841 0.656767 0.758086 0.18498
C_ C_ 0.592823 0.607177 0.762026 -0.08735
C_ C_ 0.583205 0.590106 0.789392 -0.08735
C_ C_ 0.596201 0.619138 0.813142 -0.08735
C_ C_ 0.621293 0.6671 0.810557 0.18498
C_ C_ 0.630371 0.684672 0.78283 -0.05681
C_ C_ 0.65829 0.729873 0.77988 -0.08735
C_ C_ 0.681642 0.751444 0.804078 -0.08735
C_ C_ 0.671049 0.734954 0.830906 0.1947
C_ C_ 0.755942 0.815714 0.653994 0.68181
C_ C_ 0.700633 0.823744 0.649916 -0.05681
C_ C_ 0.667517 0.812475 0.672554 -0.08735
C_ C_ 0.615609 0.816949 0.668094 -0.05681
C_ C_ 0.594653 0.82964 0.640858 -0.05681
C_ C_ 0.628072 0.840044 0.617559 -0.08735
C_ C_ 0.680908 0.841018 0.622996 -0.08735
C_ C_ 0.582916 0.808439 0.690704 -0.08735
C_ C_ 0.530996 0.811269 0.687095 -0.08735
C_ C_ 0.509637 0.821691 0.659602 -0.05681
C_ C_ 0.54209 0.827281 0.635574 -0.08735
C_ C_ 0.864971 0.717783 0.66625 0.68181
C_ C_ 0.841595 0.914541 0.65141 0.68181
C_ C_ 0.847361 0.970183 0.648722 -0.05681
C_ C_ 0.864588 0.504009 0.677629 -0.08735
C_ C_ 0.868647 0.556104 0.674204 -0.05681
C_ C_ 0.862532 0.579821 0.647371 -0.05681
C_ C_ 0.856628 0.548858 0.623102 -0.08735
C_ C_ 0.856779 0.991927 0.622192 -0.08735
C_ C_ 0.874087 0.586579 0.69905 -0.08735
C_ C_ 0.874099 0.639592 0.697233 -0.08735
C_ C_ 0.869196 0.661985 0.669724 -0.05681
C_ C_ 0.862755 0.632431 0.645058 -0.08735
C_ C_ 0.95213 0.816568 0.666503 0.68181
C_ C_ 0.877132 0.882317 0.731524 0.1947
C_ C_ 0.891131 0.896369 0.758461 -0.08735
C_ C_ 0.86883 0.873804 0.782484 -0.08735
C_ C_ 0.842601 0.827692 0.779843 -0.05681
C_ C_ 0.830759 0.812455 0.752088 0.18498
C_ C_ 0.810086 0.764815 0.746993 -0.08735
C_ C_ 0.80516 0.730856 0.769319 -0.08735
C_ C_ 0.814407 0.745339 0.797583 -0.08735
C_ C_ 0.83497 0.795535 0.80352 0.18498
C_ C_ 0.805631 0.820004 0.849771 0.44287
C_ C_ 0.893846 0.807445 0.842833 0.44287
C_ C_ 0.902712 0.809229 0.873949 -0.05681
C_ C_ 0.953739 0.807 0.884792 -0.08735
C_ C_ 0.962517 0.816174 0.913641 -0.08735
C_ C_ 0.921024 0.819332 0.933825 -0.05681
C_ C_ 0.870941 0.823008 0.922112 -0.05681
C_ C_ 0.862433 0.818556 0.89214 -0.05681
C_ C_ 0.81257 0.826679 0.88039 -0.05681
C_ C_ 0.772154 0.833258 0.899932 -0.08735
C_ C_ 0.781002 0.828333 0.929223 -0.08735
C_ C_ 0.829989 0.827817 0.939858 -0.05681
C_ C_ 0.8381 0.838242 0.968877 0.44287
C_ C_ 0.927553 0.825957 0.963557 0.44287
C_ C_ 0.885703 0.8395 0.511997 0.18498
C_ C_ 0.919359 0.879133 0.519443 -0.08735
C_ C_ 0.930681 0.893733 0.547642 -0.08735
C_ C_ 0.910885 0.862766 0.568839 -0.08735
C_ C_ 0.873329 0.826189 0.563488 0.18498
C_ C_ 0.864733 0.810645 0.534276 -0.05681
C_ C_ 0.841577 0.763355 0.528995 -0.08735
C_ C_ 0.821056 0.737815 0.552681 -0.08735
C_ C_ 0.825798 0.758555 0.580326 0.1947
N_ N_ 0.638075 0.666057 0.975994 -0.29468
N_ N_ 0.651045 0.691647 0.580341 -0.17154
N_ N_ 0.626293 0.673503 0.729496 -0.17154
N_ N_ 0.639532 0.693068 0.833603 -0.29468
N_ N_ 0.844992 0.83994 0.728462 -0.29468
N_ N_ 0.845925 0.8112 0.831954 -0.17154
N_ N_ 0.885536 0.83915 0.980028 -0.17154
N_ N_ 0.854091 0.799927 0.586006 -0.29468
O_ O_ 0.717585 0.677508 0.93101 -0.58347
O_ O_ 0.710914 0.68566 0.884288 -0.58347
O_ O_ 0.64262 0.74967 0.93129 -0.58347
O_ O_ 0.621837 0.757961 0.885811 -0.58347
O_ O_ 0.649908 0.605981 0.921036 -0.58347
O_ O_ 0.647007 0.608924 0.873544 -0.58347
O_ O_ 0.566015 0.678161 0.924661 -0.58347
O_ O_ 0.558322 0.670601 0.878487 -0.58347
O_ O_ 0.564504 0.703852 0.577728 -0.46727
O_ O_ 0.737579 0.675165 0.584225 -0.46727
O_ O_ 0.541984 0.697865 0.725622 -0.46727
O_ O_ 0.709784 0.648718 0.73433 -0.46727
O_ O_ 0.775256 0.811723 0.678042 -0.58347
O_ O_ 0.78333 0.805262 0.63291 -0.58347
O_ O_ 0.862182 0.746341 0.687296 -0.58347
O_ O_ 0.86188 0.735853 0.640873 -0.58347
O_ O_ 0.834183 0.89312 0.675785 -0.58347
O_ O_ 0.852607 0.886773 0.631199 -0.58347
O_ O_ 0.924973 0.827018 0.688579 -0.58347
O_ O_ 0.932151 0.816689 0.641659 -0.58347
O_ O_ 0.931197 0.797423 0.824381 -0.46727
O_ O_ 0.759708 0.826739 0.839654 -0.46727
O_ O_ 0.973264 0.824996 0.97473 -0.46727
O_ O_ 0.799694 0.842601 0.985839 -0.46727
_cell_length_a 26.376
_cell_length_b 26.400000238300095
_cell_length_c 46.67800035477134
_cell_angle_alpha 90.00700052986613
_cell_angle_beta 89.99899961309502
_cell_angle_gamma 90.45000003183146
_symmetry_space_group_name_H-M         'P 1'
_symmetry_Int_Tables_number            1
loop_
_symmetry_equiv_pos_as_xyz
   'x, y, z'
                         
loop_
_atom_site_label
_atom_site_type_symbol
_atom_site_fract_x 
_atom_site_fract_y
_atom_site_fract_z
_atom_site_charge
Zn Zn 0.124897 0.188095 0.383603 0.90689
Zn Zn 0.13392 0.182788 0.431454 0.90689
Zn Zn 0.378751 0.318406 0.133618 0.90689
Zn Zn 0.371455 0.326153 0.179299 0.90689
H_ H_ 0.301972 0.196065 0.447537 0.11455
H_ H_ 0.364424 0.176228 0.348686 0.11455
H_ H_ 0.276122 0.174124 0.357638 0.11455
H_ H_ 0.391867 0.210383 0.462096 0.11455
H_ H_ 0.481739 0.214535 0.449747 0.11455
H_ H_ 0.45181 0.16405 0.365184 0.11455
H_ H_ 0.129277 0.0154476 0.442556 0.11455
H_ H_ 0.107594 0.439873 0.353565 0.11455
H_ H_ 0.129076 0.0289011 0.351502 0.11455
H_ H_ 0.129716 0.431937 0.47009 0.11455
H_ H_ 0.132382 0.337708 0.465668 0.11455
H_ H_ 0.100278 0.3545 0.374956 0.11455
H_ H_ 0.0779596 0.115168 0.466598 0.11455
H_ H_ 0.0495814 0.0852667 0.0148105 0.11455
H_ H_ 0.0887285 0.13501 0.0570472 0.11455
H_ H_ 0.199933 0.245911 0.471175 0.11455
H_ H_ 0.206448 0.305282 0.0133386 0.11455
H_ H_ 0.191157 0.280126 0.0621149 0.11455
H_ H_ 0.00739874 0.227955 0.127698 0.11455
H_ H_ -0.006496999999999975 0.194667 0.176968 0.11455
H_ H_ 0.248435 0.160208 0.136217 0.11455
H_ H_ 0.244222 0.167309 0.188609 0.11455
H_ H_ 0.0825338 0.0923628 0.249302 0.11455
H_ H_ 0.0533758 0.0690299 0.296291 0.11455
H_ H_ 0.0692569 0.129155 0.339677 0.11455
H_ H_ 0.149027 0.265723 0.259897 0.11455
H_ H_ 0.18098 0.309467 0.30256 0.11455
H_ H_ 0.180351 0.267867 0.349095 0.11455
H_ H_ 0.205773 0.321444 0.19839 0.11455
H_ H_ 0.132325 0.346349 0.101597 0.11455
H_ H_ 0.223593 0.341842 0.107923 0.11455
H_ H_ 0.113442 0.338123 0.219679 0.11455
H_ H_ 0.024794 0.344065 0.211943 0.11455
H_ H_ 0.0436354 0.333691 0.120835 0.11455
H_ H_ 0.364194 0.491339 0.189966 0.11455
H_ H_ 0.33696 0.0731722 0.101654 0.11455
H_ H_ 0.388174 0.473044 0.100988 0.11455
H_ H_ 0.399096 0.0690044 0.214173 0.11455
H_ H_ 0.398083 0.16933 0.213702 0.11455
H_ H_ 0.343655 0.156793 0.125703 0.11455
H_ H_ 0.42156 0.406159 0.212206 0.11455
H_ H_ 0.436619 0.435048 0.261803 0.11455
H_ H_ 0.386826 0.400684 0.303358 0.11455
H_ H_ 0.317179 0.262324 0.220263 0.11455
H_ H_ 0.300137 0.207376 0.260762 0.11455
H_ H_ 0.306527 0.236725 0.311458 0.11455
H_ H_ 0.488918 0.315741 0.36806 0.11455
H_ H_ 0.500764 0.321415 0.420885 0.11455
H_ H_ 0.237762 0.33549 0.389642 0.11455
H_ H_ 0.251509 0.344801 0.439265 0.11455
H_ H_ 0.443455 0.40812 0.497679 0.11455
H_ H_ 0.462393 0.428367 0.0469103 0.11455
H_ H_ 0.448095 0.369491 0.0860697 0.11455
H_ H_ 0.348783 0.24184 0.0108604 0.11455
H_ H_ 0.301652 0.21219 0.0534394 0.11455
H_ H_ 0.315875 0.253895 0.10055 0.11455
C_ C_ 0.227642 0.187923 0.406173 0.68181
C_ C_ 0.28199 0.185823 0.40272 -0.05681
C_ C_ 0.314974 0.190275 0.425078 -0.08735
C_ C_ 0.36925 0.186668 0.421119 -0.05681
C_ C_ 0.387739 0.178678 0.392966 -0.05681
C_ C_ 0.352394 0.175963 0.370661 -0.08735
C_ C_ 0.300781 0.173216 0.375581 -0.08735
C_ C_ 0.40424 0.197523 0.442104 -0.08735
C_ C_ 0.456957 0.198582 0.434927 -0.08735
C_ C_ 0.473974 0.185633 0.407649 -0.05681
C_ C_ 0.440492 0.174049 0.386874 -0.08735
C_ C_ 0.126881 0.284163 0.413892 0.68181
C_ C_ 0.134122 0.086442 0.399393 0.68181
C_ C_ 0.126583 0.0288732 0.397398 -0.05681
C_ C_ 0.127724 0.500279 0.428022 -0.08735
C_ C_ 0.123519 0.446304 0.425095 -0.05681
C_ C_ 0.117807 0.424265 0.398286 -0.05681
C_ C_ 0.11189 0.456667 0.375442 -0.08735
C_ C_ 0.123443 0.508136 0.376605 -0.08735
C_ C_ 0.12707 0.4129 0.450096 -0.08735
C_ C_ 0.124918 0.360445 0.446916 -0.08735
C_ C_ 0.121882 0.339373 0.419177 -0.05681
C_ C_ 0.109182 0.372377 0.395911 -0.08735
C_ C_ 0.0294071 0.185246 0.408867 0.68181
C_ C_ 0.102465 0.129749 0.482785 0.1947
C_ C_ 0.0767951 0.11681 0.0127631 -0.08735
C_ C_ 0.098348 0.144592 0.0347226 -0.08735
C_ C_ 0.130164 0.184122 0.0289006 -0.05681
C_ C_ 0.146871 0.194331 1.000646945 0.18498
C_ C_ 0.179775 0.241088 0.492939 -0.08735
C_ C_ 0.184382 0.271221 0.0167142 -0.08735
C_ C_ 0.175821 0.258521 0.0455764 -0.08735
C_ C_ 0.147068 0.214608 0.0524346 0.18498
C_ C_ 0.179393 0.184927 0.0977269 0.44287
C_ C_ 0.0929915 0.211727 0.0945869 0.44287
C_ C_ 0.0867893 0.207702 0.124867 -0.05681
C_ C_ 0.0404381 0.215013 0.138728 -0.08735
C_ C_ 0.0324758 0.202592 0.16806 -0.08735
C_ C_ 0.0746902 0.195038 0.184865 -0.05681
C_ C_ 0.122194 0.194558 0.172144 -0.05681
C_ C_ 0.127681 0.195065 0.141751 -0.05681
C_ C_ 0.17413 0.184526 0.127904 -0.05681
C_ C_ 0.215742 0.17702 0.145755 -0.08735
C_ C_ 0.211216 0.176694 0.17601 -0.08735
C_ C_ 0.16378 0.17974 0.189349 -0.05681
C_ C_ 0.159065 0.17804 0.219524 0.44287
C_ C_ 0.0705477 0.188675 0.215267 0.44287
C_ C_ 0.107533 0.168722 0.261202 0.18498
C_ C_ 0.0895417 0.119165 0.26672 -0.08735
C_ C_ 0.0743728 0.106435 0.294457 -0.08735
C_ C_ 0.0849847 0.136468 0.317401 -0.08735
C_ C_ 0.114956 0.179164 0.313209 0.18498
C_ C_ 0.126502 0.196231 0.284551 -0.05681
C_ C_ 0.14627 0.245879 0.280426 -0.08735
C_ C_ 0.163482 0.272143 0.304306 -0.08735
C_ C_ 0.159185 0.251033 0.332447 0.1947
C_ C_ 0.277102 0.321201 0.15672 0.68181
C_ C_ 0.221101 0.325866 0.154017 -0.05681
C_ C_ 0.189482 0.32092 0.177805 -0.08735
C_ C_ 0.135694 0.325666 0.174482 -0.05681
C_ C_ 0.114833 0.328838 0.14581 -0.05681
C_ C_ 0.147739 0.335694 0.122959 -0.08735
C_ C_ 0.199216 0.333253 0.126241 -0.08735
C_ C_ 0.101119 0.329873 0.198454 -0.08735
C_ C_ 0.0498856 0.332667 0.193889 -0.08735
C_ C_ 0.0286234 0.32766 0.165538 -0.05681
C_ C_ 0.0613134 0.332138 0.141735 -0.08735
C_ C_ 0.382663 0.226774 0.165565 0.68181
C_ C_ 0.368397 0.42088 0.149013 0.68181
C_ C_ 0.373409 0.477399 0.145649 -0.05681
C_ C_ 0.380749 0.010292 0.170581 -0.08735
C_ C_ 0.381901 0.0635916 0.169981 -0.05681
C_ C_ 0.36048 0.0869297 0.145771 -0.05681
C_ C_ 0.344029 0.056654 0.122623 -0.08735
C_ C_ 0.384692 0.498733 0.118697 -0.08735
C_ C_ 0.389482 0.0918713 0.194956 -0.08735
C_ C_ 0.384452 0.144621 0.194969 -0.08735
C_ C_ 0.373677 0.169546 0.169858 -0.05681
C_ C_ 0.355716 0.14006 0.145639 -0.08735
C_ C_ 0.473562 0.329231 0.155663 0.68181
C_ C_ 0.402297 0.388126 0.229215 0.1947
C_ C_ 0.409608 0.405387 0.257198 -0.08735
C_ C_ 0.385022 0.383605 0.280683 -0.08735
C_ C_ 0.356588 0.339435 0.276062 -0.05681
C_ C_ 0.351545 0.321222 0.247421 0.18498
C_ C_ 0.32802 0.274079 0.242658 -0.08735
C_ C_ 0.308281 0.247019 0.265303 -0.08735
C_ C_ 0.31528 0.261807 0.293479 -0.08735
C_ C_ 0.338849 0.308541 0.299686 0.18498
C_ C_ 0.309929 0.328636 0.348285 0.44287
C_ C_ 0.397335 0.31392 0.340921 0.44287
C_ C_ 0.406261 0.318118 0.37123 -0.05681
C_ C_ 0.455977 0.314162 0.382151 -0.08735
C_ C_ 0.463212 0.318928 0.412276 -0.08735
C_ C_ 0.420855 0.32057 0.431706 -0.05681
C_ C_ 0.373487 0.324787 0.419557 -0.05681
C_ C_ 0.367017 0.323527 0.38957 -0.05681
C_ C_ 0.316613 0.32676 0.378347 -0.05681
C_ C_ 0.276373 0.335323 0.398314 -0.08735
C_ C_ 0.283144 0.33527 0.426924 -0.08735
C_ C_ 0.330767 0.326891 0.439104 -0.05681
C_ C_ 0.339913 0.326328 0.468576 0.44287
C_ C_ 0.427325 0.324883 0.461383 0.44287
C_ C_ 0.401162 0.338568 0.00902859 0.18498
C_ C_ 0.432139 0.381102 0.0142792 -0.08735
C_ C_ 0.440081 0.395727 0.0421339 -0.08735
C_ C_ 0.42732 0.364128 0.0651601 -0.08735
C_ C_ 0.39603 0.324555 0.0613962 0.18498
C_ C_ 0.383389 0.308939 0.0328208 -0.05681
C_ C_ 0.355771 0.262804 0.0302416 -0.08735
C_ C_ 0.329037 0.242419 0.0544402 -0.08735
C_ C_ 0.337561 0.264344 0.081534 0.1947
N_ N_ 0.131104 0.172523 0.476954 -0.29468
N_ N_ 0.139461 0.199137 0.0822169 -0.17154
N_ N_ 0.112927 0.185415 0.231544 -0.17154
N_ N_ 0.133376 0.206238 0.336434 -0.29468
N_ N_ 0.375246 0.346389 0.224056 -0.29468
N_ N_ 0.349479 0.322799 0.329382 -0.17154
N_ N_ 0.38741 0.328615 0.479119 -0.17154
N_ N_ 0.375911 0.299942 0.0843652 -0.29468
O_ O_ 0.208827 0.176986 0.430124 -0.58347
O_ O_ 0.199983 0.202849 0.386244 -0.58347
O_ O_ 0.134821 0.256044 0.434688 -0.58347
O_ O_ 0.116743 0.265533 0.390251 -0.58347
O_ O_ 0.130199 0.108588 0.42377 -0.58347
O_ O_ 0.133009 0.114244 0.376424 -0.58347
O_ O_ 0.0587524 0.184163 0.430987 -0.58347
O_ O_ 0.0492856 0.18231 0.3836 -0.58347
O_ O_ 0.0538982 0.228437 0.0802998 -0.46727
O_ O_ 0.223497 0.173692 0.0850484 -0.46727
O_ O_ 0.025771 0.181531 0.227055 -0.46727
O_ O_ 0.198642 0.171921 0.235964 -0.46727
O_ O_ 0.298902 0.316776 0.181102 -0.58347
O_ O_ 0.30504 0.321482 0.134205 -0.58347
O_ O_ 0.388703 0.256546 0.187327 -0.58347
O_ O_ 0.37438 0.245113 0.141686 -0.58347
O_ O_ 0.35767 0.399964 0.172824 -0.58347
O_ O_ 0.371858 0.393978 0.126816 -0.58347
O_ O_ 0.446052 0.343139 0.176583 -0.58347
O_ O_ 0.453558 0.316471 0.132864 -0.58347
O_ O_ 0.435898 0.305738 0.323741 -0.46727
O_ O_ 0.263101 0.334754 0.338423 -0.46727
O_ O_ 0.474376 0.323359 0.473168 -0.46727
O_ O_ 0.30464 0.342276 0.486078 -0.46727
Zn Zn 0.12796 0.179602 0.88293 0.90689
Zn Zn 0.132828 0.171711 0.930196 0.90689
Zn Zn 0.376962 0.309103 0.630003 0.90689
Zn Zn 0.372424 0.316563 0.677524 0.90689
H_ H_ 0.30505 0.197884 0.945675 0.11455
H_ H_ 0.364384 0.143081 0.85027 0.11455
H_ H_ 0.277588 0.159958 0.857004 0.11455
H_ H_ 0.390617 0.203977 0.962291 0.11455
H_ H_ 0.478554 0.194533 0.954693 0.11455
H_ H_ 0.451792 0.154929 0.867014 0.11455
H_ H_ 0.150965 0.00907694 0.943344 0.11455
H_ H_ 0.155227 0.422455 0.847798 0.11455
H_ H_ 0.141181 0.022786 0.851355 0.11455
H_ H_ 0.148073 0.419849 0.964771 0.11455
H_ H_ 0.139191 0.325696 0.959628 0.11455
H_ H_ 0.126112 0.344638 0.868701 0.11455
H_ H_ 0.0781171 0.106919 0.966537 0.11455
H_ H_ 0.067496 0.0829646 0.515852 0.11455
H_ H_ 0.0991932 0.135141 0.554558 0.11455
H_ H_ 0.201263 0.237408 0.977764 0.11455
H_ H_ 0.231435 0.295378 0.508365 0.11455
H_ H_ 0.203958 0.282066 0.56001 0.11455
H_ H_ 0.0192307 0.207887 0.626368 0.11455
H_ H_ 0.014066 0.194845 0.675891 0.11455
H_ H_ 0.26984 0.18018 0.631501 0.11455
H_ H_ 0.264729 0.157685 0.681561 0.11455
H_ H_ 0.0860166 0.0812294 0.745132 0.11455
H_ H_ 0.0593189 0.0581184 0.794363 0.11455
H_ H_ 0.0855794 0.108199 0.835744 0.11455
H_ H_ 0.181945 0.23469 0.756593 0.11455
H_ H_ 0.207452 0.287196 0.798063 0.11455
H_ H_ 0.176257 0.265221 0.845707 0.11455
H_ H_ 0.20047 0.283843 0.694561 0.11455
H_ H_ 0.130949 0.329375 0.597571 0.11455
H_ H_ 0.223201 0.329299 0.606397 0.11455
H_ H_ 0.113195 0.28675 0.714199 0.11455
H_ H_ 0.0238939 0.297159 0.708029 0.11455
H_ H_ 0.0433749 0.309988 0.616172 0.11455
H_ H_ 0.366135 0.490326 0.695093 0.11455
H_ H_ 0.339814 0.0615534 0.597315 0.11455
H_ H_ 0.344469 0.471217 0.603275 0.11455
H_ H_ 0.395757 0.0642307 0.709972 0.11455
H_ H_ 0.406439 0.156119 0.706186 0.11455
H_ H_ 0.36725 0.14553 0.615535 0.11455
H_ H_ 0.42722 0.38985 0.714273 0.11455
H_ H_ 0.443373 0.418316 0.766746 0.11455
H_ H_ 0.40582 0.370811 0.803924 0.11455
H_ H_ 0.326251 0.239308 0.72337 0.11455
H_ H_ 0.295114 0.188462 0.762066 0.11455
H_ H_ 0.310001 0.218514 0.813853 0.11455
H_ H_ 0.496098 0.293132 0.873545 0.11455
H_ H_ 0.507189 0.306096 0.92075 0.11455
H_ H_ 0.247422 0.335413 0.886547 0.11455
H_ H_ 0.258152 0.35197 0.938342 0.11455
H_ H_ 0.443247 0.406413 -0.0028759999999999897 0.11455
H_ H_ 0.447777 0.442651 0.546313 0.11455
H_ H_ 0.419936 0.388597 0.588326 0.11455
H_ H_ 0.356091 0.251678 0.505314 0.11455
H_ H_ 0.323848 0.19953 0.545533 0.11455
H_ H_ 0.337271 0.228906 0.594011 0.11455
C_ C_ 0.229135 0.186216 0.907016 0.68181
C_ C_ 0.282473 0.181656 0.902064 -0.05681
C_ C_ 0.318814 0.190117 0.924488 -0.08735
C_ C_ 0.369926 0.185769 0.919068 -0.05681
C_ C_ 0.387315 0.17245 0.891361 -0.05681
C_ C_ 0.352309 0.159755 0.87028 -0.08735
C_ C_ 0.301405 0.171373 0.874383 -0.08735
C_ C_ 0.402553 0.195364 0.941715 -0.08735
C_ C_ 0.454328 0.188027 0.936854 -0.08735
C_ C_ 0.474389 0.179192 0.910095 -0.05681
C_ C_ 0.438827 0.167156 0.887229 -0.08735
C_ C_ 0.123573 0.273195 0.912201 0.68181
C_ C_ 0.132422 0.0767148 0.900655 0.68181
C_ C_ 0.140968 0.022814 0.897907 -0.05681
C_ C_ 0.145858 0.488609 0.921914 -0.08735
C_ C_ 0.140068 0.434845 0.9195 -0.05681
C_ C_ 0.139476 0.412071 0.892502 -0.05681
C_ C_ 0.145852 0.442564 0.867828 -0.08735
C_ C_ 0.149901 0.495083 0.869986 -0.08735
C_ C_ 0.141476 0.401418 0.944077 -0.08735
C_ C_ 0.133277 0.348901 0.940878 -0.08735
C_ C_ 0.127754 0.32826 0.91416 -0.05681
C_ C_ 0.135402 0.358948 0.889475 -0.08735
C_ C_ 0.0320278 0.171876 0.904306 0.68181
C_ C_ 0.0932486 0.127782 0.983728 0.1947
C_ C_ 0.0882609 0.117438 0.511124 -0.08735
C_ C_ 0.108321 0.146607 0.5333 -0.08735
C_ C_ 0.132994 0.192038 0.528457 -0.05681
C_ C_ 0.145746 0.202639 0.498585 0.18498
C_ C_ 0.178421 0.235006 0.995327 -0.08735
C_ C_ 0.201967 0.270589 0.514596 -0.08735
C_ C_ 0.188282 0.259216 0.542974 -0.08735
C_ C_ 0.156055 0.221184 0.551192 0.18498
C_ C_ 0.193539 0.192306 0.595281 0.44287
C_ C_ 0.106689 0.211947 0.594571 0.44287
C_ C_ 0.101214 0.195879 0.623367 -0.05681
C_ C_ 0.053728 0.193818 0.63688 -0.08735
C_ C_ 0.049908 0.185524 0.666385 -0.08735
C_ C_ 0.092707 0.174452 0.682883 -0.05681
C_ C_ 0.140749 0.170031 0.668407 -0.05681
C_ C_ 0.143192 0.184864 0.639577 -0.05681
C_ C_ 0.191697 0.185359 0.626443 -0.05681
C_ C_ 0.23542 0.177293 0.642372 -0.08735
C_ C_ 0.232632 0.166861 0.671233 -0.08735
C_ C_ 0.184113 0.161545 0.68477 -0.05681
C_ C_ 0.1807 0.160401 0.715119 0.44287
C_ C_ 0.0898908 0.171426 0.712986 0.44287
C_ C_ 0.12654 0.147732 0.758102 0.18498
C_ C_ 0.0978939 0.103837 0.762837 -0.08735
C_ C_ 0.08553 0.0890377 0.790661 -0.08735
C_ C_ 0.103668 0.117556 0.814666 -0.08735
C_ C_ 0.126184 0.164699 0.810058 0.18498
C_ C_ 0.141552 0.178861 0.781836 -0.05681
C_ C_ 0.172358 0.223048 0.777947 -0.08735
C_ C_ 0.183047 0.253118 0.80124 -0.08735
C_ C_ 0.168625 0.237993 0.828367 0.1947
C_ C_ 0.275479 0.305549 0.652922 0.68181
C_ C_ 0.21911 0.311455 0.650635 -0.05681
C_ C_ 0.186548 0.299259 0.673338 -0.08735
C_ C_ 0.13306 0.302109 0.669699 -0.05681
C_ C_ 0.112658 0.310811 0.642697 -0.05681
C_ C_ 0.145209 0.323208 0.619084 -0.08735
C_ C_ 0.198117 0.320605 0.624153 -0.08735
C_ C_ 0.100471 0.298463 0.692879 -0.08735
C_ C_ 0.0476359 0.307387 0.689916 -0.08735
C_ C_ 0.0270952 0.313526 0.661779 -0.05681
C_ C_ 0.059531 0.311647 0.638077 -0.08735
C_ C_ 0.382752 0.214478 0.658458 0.68181
C_ C_ 0.365501 0.414399 0.651454 0.68181
C_ C_ 0.365865 0.472091 0.648615 -0.05681
C_ C_ 0.36483 0.000280000000000058 0.670973 -0.08735
C_ C_ 0.372583 0.0521823 0.667153 -0.05681
C_ C_ 0.3654 0.075009 0.639954 -0.05681
C_ C_ 0.348543 0.0444044 0.616469 -0.08735
C_ C_ 0.353654 0.494291 0.621719 -0.08735
C_ C_ 0.386622 0.0823338 0.691393 -0.08735
C_ C_ 0.392654 0.135083 0.687973 -0.08735
C_ C_ 0.381255 0.158207 0.66074 -0.05681
C_ C_ 0.368304 0.128828 0.638039 -0.08735
C_ C_ 0.471842 0.331422 0.656576 0.68181
C_ C_ 0.40693 0.371612 0.732351 0.1947
C_ C_ 0.42019 0.385569 0.760404 -0.08735
C_ C_ 0.393738 0.362334 0.782775 -0.08735
C_ C_ 0.364066 0.318982 0.778224 -0.05681
C_ C_ 0.358791 0.300009 0.748151 0.18498
C_ C_ 0.335383 0.253906 0.744569 -0.08735
C_ C_ 0.315619 0.224226 0.767806 -0.08735
C_ C_ 0.324184 0.241404 0.795738 -0.08735
C_ C_ 0.347897 0.286775 0.801391 0.18498
C_ C_ 0.315286 0.31209 0.848753 0.44287
C_ C_ 0.404094 0.29546 0.843375 0.44287
C_ C_ 0.414458 0.304873 0.872438 -0.05681
C_ C_ 0.463076 0.30315 0.885442 -0.08735
C_ C_ 0.468606 0.306002 0.91445 -0.08735
C_ C_ 0.426886 0.316723 0.932057 -0.05681
C_ C_ 0.378822 0.321632 0.919667 -0.05681
C_ C_ 0.371638 0.31605 0.890334 -0.05681
C_ C_ 0.323447 0.320571 0.878583 -0.05681
C_ C_ 0.282868 0.334909 0.895776 -0.08735
C_ C_ 0.290941 0.345144 0.92581 -0.08735
C_ C_ 0.338502 0.333331 0.938009 -0.05681
C_ C_ 0.345398 0.330304 0.968168 0.44287
C_ C_ 0.433029 0.315856 0.962288 0.44287
C_ C_ 0.396586 0.343825 0.508881 0.18498
C_ C_ 0.423559 0.387594 0.515115 -0.08735
C_ C_ 0.428552 0.405611 0.54304 -0.08735
C_ C_ 0.410353 0.375951 0.566379 -0.08735
C_ C_ 0.390499 0.326469 0.560328 0.18498
C_ C_ 0.381531 0.31101 0.531733 -0.05681
C_ C_ 0.362707 0.263632 0.526924 -0.08735
C_ C_ 0.34494 0.234666 0.549467 -0.08735
C_ C_ 0.356602 0.250035 0.577842 0.1947
N_ N_ 0.129683 0.164302 0.977658 -0.29468
N_ N_ 0.152199 0.206629 0.58097 -0.17154
N_ N_ 0.133142 0.162691 0.72826 -0.17154
N_ N_ 0.142503 0.192714 0.832805 -0.29468
N_ N_ 0.376058 0.329553 0.726282 -0.29468
N_ N_ 0.355761 0.300925 0.831218 -0.17154
N_ N_ 0.392652 0.325996 0.979281 -0.17154
N_ N_ 0.377325 0.296191 0.582854 -0.29468
O_ O_ 0.210063 0.16815 0.929853 -0.58347
O_ O_ 0.199227 0.20073 0.887886 -0.58347
O_ O_ 0.134469 0.244698 0.932291 -0.58347
O_ O_ 0.111398 0.252973 0.889194 -0.58347
O_ O_ 0.129238 0.0976668 0.925652 -0.58347
O_ O_ 0.14251 0.103933 0.878866 -0.58347
O_ O_ 0.0576594 0.175399 0.926793 -0.58347
O_ O_ 0.0554345 0.163454 0.881377 -0.58347
O_ O_ 0.0661569 0.226449 0.579681 -0.46727
O_ O_ 0.236984 0.185512 0.580669 -0.46727
O_ O_ 0.048636 0.187273 0.726567 -0.46727
O_ O_ 0.22111 0.160496 0.731757 -0.46727
O_ O_ 0.296322 0.319147 0.676659 -0.58347
O_ O_ 0.302993 0.290237 0.632399 -0.58347
O_ O_ 0.371528 0.240931 0.680526 -0.58347
O_ O_ 0.38913 0.235221 0.634784 -0.58347
O_ O_ 0.371447 0.39241 0.675009 -0.58347
O_ O_ 0.360774 0.386002 0.629354 -0.58347
O_ O_ 0.446681 0.327233 0.679339 -0.58347
O_ O_ 0.45027 0.327889 0.632116 -0.58347
O_ O_ 0.44178 0.283689 0.826503 -0.46727
O_ O_ 0.269484 0.320265 0.836818 -0.46727
O_ O_ 0.477115 0.303533 0.974121 -0.46727
O_ O_ 0.309319 0.345532 0.985054 -0.46727
Zn Zn 0.120236 0.688378 0.383943 0.90689
Zn Zn 0.128128 0.680153 0.431408 0.90689
Zn Zn 0.374166 0.816733 0.12882 0.90689
Zn Zn 0.363972 0.824295 0.176703 0.90689
H_ H_ 0.298267 0.691106 0.445468 0.11455
H_ H_ 0.364887 0.628702 0.350657 0.11455
H_ H_ 0.27272 0.637995 0.359819 0.11455
H_ H_ 0.385817 0.693461 0.462744 0.11455
H_ H_ 0.473901 0.692074 0.452604 0.11455
H_ H_ 0.449096 0.659173 0.365914 0.11455
H_ H_ 0.132918 0.516622 0.449974 0.11455
H_ H_ 0.130507 0.935753 0.345018 0.11455
H_ H_ 0.129048 0.530535 0.35575 0.11455
H_ H_ 0.131334 0.930511 0.465125 0.11455
H_ H_ 0.135424 0.838274 0.460927 0.11455
H_ H_ 0.118131 0.850268 0.366383 0.11455
H_ H_ 0.0704311 0.608369 0.465897 0.11455
H_ H_ 0.0990342 0.561424 0.0163628 0.11455
H_ H_ 0.114153 0.620577 0.0570566 0.11455
H_ H_ 0.191313 0.744116 0.476111 0.11455
H_ H_ 0.237193 0.790913 0.0124048 0.11455
H_ H_ 0.214962 0.772681 0.062106 0.11455
H_ H_ 0.0133739 0.705224 0.119576 0.11455
H_ H_ 0.000744804 0.70619 0.172744 0.11455
H_ H_ 0.2602 0.663827 0.142976 0.11455
H_ H_ 0.24511 0.64544 0.19213 0.11455
H_ H_ 0.0601544 0.589628 0.250258 0.11455
H_ H_ 0.0299227 0.565245 0.299412 0.11455
H_ H_ 0.0471117 0.625535 0.336698 0.11455
H_ H_ 0.152843 0.746627 0.257823 0.11455
H_ H_ 0.193809 0.786041 0.302789 0.11455
H_ H_ 0.172736 0.758557 0.348101 0.11455
H_ H_ 0.199493 0.805287 0.193347 0.11455
H_ H_ 0.124526 0.849942 0.0991838 0.11455
H_ H_ 0.218876 0.840645 0.104157 0.11455
H_ H_ 0.114137 0.802377 0.215386 0.11455
H_ H_ 0.019165 0.815066 0.211345 0.11455
H_ H_ 0.0402626 0.837787 0.120542 0.11455
H_ H_ 0.396667 0.989432 0.188716 0.11455
H_ H_ 0.379521 0.568276 0.0935957 0.11455
H_ H_ 0.342308 0.986233 0.103419 0.11455
H_ H_ 0.370622 0.574783 0.211339 0.11455
H_ H_ 0.358608 0.664764 0.204172 0.11455
H_ H_ 0.385999 0.654758 0.114347 0.11455
H_ H_ 0.414252 0.897233 0.211989 0.11455
H_ H_ 0.441726 0.921399 0.262532 0.11455
H_ H_ 0.402345 0.874256 0.30295 0.11455
H_ H_ 0.312475 0.750599 0.221326 0.11455
H_ H_ 0.284284 0.698298 0.25864 0.11455
H_ H_ 0.303455 0.718778 0.309802 0.11455
H_ H_ 0.482026 0.785407 0.374433 0.11455
H_ H_ 0.486452 0.79101 0.428807 0.11455
H_ H_ 0.231012 0.825523 0.384322 0.11455
H_ H_ 0.237267 0.832874 0.436019 0.11455
H_ H_ 0.395444 0.91739 0.503137 0.11455
H_ H_ 0.455841 0.937126 0.0493719 0.11455
H_ H_ 0.428681 0.880392 0.0880734 0.11455
H_ H_ 0.340523 0.762937 0.00497959 0.11455
H_ H_ 0.315658 0.707429 0.0450895 0.11455
H_ H_ 0.320427 0.739775 0.0948319 0.11455
C_ C_ 0.223712 0.678155 0.405625 0.68181
C_ C_ 0.277855 0.662132 0.403172 -0.05681
C_ C_ 0.312185 0.676187 0.425124 -0.08735
C_ C_ 0.36465 0.669607 0.420893 -0.05681
C_ C_ 0.384217 0.658681 0.393315 -0.05681
C_ C_ 0.350009 0.64393 0.370853 -0.08735
C_ C_ 0.297371 0.646494 0.376286 -0.08735
C_ C_ 0.39845 0.67648 0.442361 -0.08735
C_ C_ 0.44924 0.679955 0.436773 -0.08735
C_ C_ 0.471091 0.670859 0.40986 -0.05681
C_ C_ 0.437409 0.659179 0.387899 -0.08735
C_ C_ 0.121306 0.782212 0.411703 0.68181
C_ C_ 0.129987 0.587713 0.404386 0.68181
C_ C_ 0.127409 0.530564 0.403389 -0.05681
C_ C_ 0.125118 0.99732854 0.42136 -0.08735
C_ C_ 0.129694 0.945127 0.418312 -0.05681
C_ C_ 0.122463 0.922385 0.390798 -0.05681
C_ C_ 0.123364 0.952598 0.366869 -0.08735
C_ C_ 0.124824 1.00485729 0.370417 -0.08735
C_ C_ 0.128076 0.915177 0.4433 -0.08735
C_ C_ 0.127751 0.860651 0.440982 -0.08735
C_ C_ 0.122708 0.838511 0.414376 -0.05681
C_ C_ 0.121573 0.867748 0.388172 -0.08735
C_ C_ 0.0262123 0.685127 0.409954 0.68181
C_ C_ 0.0943606 0.625527 0.483716 0.1947
C_ C_ 0.110054 0.60123 0.0125315 -0.08735
C_ C_ 0.121706 0.632866 0.0363563 -0.08735
C_ C_ 0.14723 0.679495 0.0299483 -0.05681
C_ C_ 0.155348 0.6935 1.000679064 0.18498
C_ C_ 0.174645 0.738147 0.496637 -0.08735
C_ C_ 0.211382 0.759254 0.0174261 -0.08735
C_ C_ 0.197849 0.750765 0.0454718 -0.08735
C_ C_ 0.168547 0.709022 0.0522036 0.18498
C_ C_ 0.191987 0.68234 0.101477 0.44287
C_ C_ 0.108515 0.706933 0.0941634 0.44287
C_ C_ 0.0951002 0.695268 0.12322 -0.05681
C_ C_ 0.044758 0.697038 0.133629 -0.08735
C_ C_ 0.0368662 0.697628 0.163438 -0.08735
C_ C_ 0.0790532 0.691989 0.183199 -0.05681
C_ C_ 0.125792 0.67712 0.171707 -0.05681
C_ C_ 0.133898 0.68374 0.142129 -0.05681
C_ C_ 0.182281 0.676254 0.130668 -0.05681
C_ C_ 0.222696 0.666774 0.150826 -0.08735
C_ C_ 0.214993 0.660997 0.179703 -0.08735
C_ C_ 0.16647 0.664267 0.190733 -0.05681
C_ C_ 0.155306 0.656184 0.220452 0.44287
C_ C_ 0.0734151 0.690215 0.213283 0.44287
C_ C_ 0.0985583 0.656713 0.261527 0.18498
C_ C_ 0.0724957 0.610214 0.26747 -0.08735
C_ C_ 0.0528012 0.599957 0.294676 -0.08735
C_ C_ 0.070041 0.629885 0.317224 -0.08735
C_ C_ 0.103561 0.673359 0.31347 0.18498
C_ C_ 0.114514 0.686992 0.284783 -0.05681
C_ C_ 0.145128 0.731197 0.279343 -0.08735
C_ C_ 0.166893 0.75506 0.303062 -0.08735
C_ C_ 0.151847 0.742294 0.330578 0.1947
C_ C_ 0.270742 0.816972 0.153257 0.68181
C_ C_ 0.214015 0.820143 0.149865 -0.05681
C_ C_ 0.182095 0.810614 0.172932 -0.08735
C_ C_ 0.129935 0.811809 0.170511 -0.05681
C_ C_ 0.106562 0.823799 0.143307 -0.05681
C_ C_ 0.138234 0.828096 0.118944 -0.08735
C_ C_ 0.192002 0.832884 0.123491 -0.08735
C_ C_ 0.096349 0.812044 0.194106 -0.08735
C_ C_ 0.0425 0.815863 0.191494 -0.08735
C_ C_ 0.0203347 0.818875 0.164706 -0.05681
C_ C_ 0.0543849 0.830344 0.141529 -0.08735
C_ C_ 0.380332 0.7233 0.158276 0.68181
C_ C_ 0.363393 0.922284 0.148863 0.68181
C_ C_ 0.367317 0.97961 0.146992 -0.05681
C_ C_ 0.369889 0.509004 0.168797 -0.08735
C_ C_ 0.375783 0.561574 0.165341 -0.05681
C_ C_ 0.381862 0.583198 0.138266 -0.05681
C_ C_ 0.387407 0.551302 0.11451 -0.08735
C_ C_ 0.347583 0.00519609 0.123029 -0.08735
C_ C_ 0.373811 0.591293 0.190419 -0.08735
C_ C_ 0.375611 0.641969 0.18744 -0.08735
C_ C_ 0.382274 0.665752 0.160539 -0.05681
C_ C_ 0.387578 0.63584 0.136312 -0.08735
C_ C_ 0.466835 0.827836 0.151416 0.68181
C_ C_ 0.402944 0.874315 0.229199 0.1947
C_ C_ 0.420464 0.885438 0.257536 -0.08735
C_ C_ 0.399242 0.859663 0.281598 -0.08735
C_ C_ 0.366332 0.816436 0.276108 -0.05681
C_ C_ 0.352881 0.805813 0.247445 0.18498
C_ C_ 0.323605 0.760534 0.24246 -0.08735
C_ C_ 0.304141 0.731265 0.263947 -0.08735
C_ C_ 0.314949 0.743675 0.293167 -0.08735
C_ C_ 0.342924 0.787601 0.299281 0.18498
C_ C_ 0.309637 0.812368 0.345876 0.44287
C_ C_ 0.396092 0.790164 0.34234 0.44287
C_ C_ 0.401877 0.798991 0.372537 -0.05681
C_ C_ 0.44793 0.794123 0.386618 -0.08735
C_ C_ 0.4516 0.802038 0.416935 -0.08735
C_ C_ 0.409415 0.812932 0.434561 -0.05681
C_ C_ 0.363195 0.815792 0.419998 -0.05681
C_ C_ 0.359818 0.809538 0.389388 -0.05681
C_ C_ 0.312472 0.81266 0.376065 -0.05681
C_ C_ 0.267685 0.819013 0.393473 -0.08735
C_ C_ 0.271714 0.824242 0.423335 -0.08735
C_ C_ 0.319489 0.82194 0.436167 -0.05681
C_ C_ 0.32454 0.824616 0.466553 0.44287
C_ C_ 0.412775 0.814965 0.464486 0.44287
C_ C_ 0.405181 0.841051 0.00870837 0.18498
C_ C_ 0.425349 0.887397 0.01431 -0.08735
C_ C_ 0.436124 0.901354 0.0429558 -0.08735
C_ C_ 0.419407 0.872661 0.0656934 -0.08735
C_ C_ 0.389216 0.828246 0.0608145 0.18498
C_ C_ 0.380617 0.81463 0.0316924 -0.05681
C_ C_ 0.349527 0.775404 0.0272597 -0.08735
C_ C_ 0.332921 0.743596 0.0495995 -0.08735
C_ C_ 0.337942 0.760723 0.0780794 0.1947
N_ N_ 0.120891 0.670074 0.478164 -0.29468
N_ N_ 0.156692 0.69863 0.0829136 -0.17154
N_ N_ 0.108959 0.669483 0.23136 -0.17154
N_ N_ 0.122406 0.700445 0.33553 -0.29468
N_ N_ 0.370545 0.833338 0.224873 -0.29468
N_ N_ 0.35004 0.799445 0.329327 -0.17154
N_ N_ 0.370785 0.827068 0.480292 -0.17154
N_ N_ 0.364064 0.804438 0.0834361 -0.29468
O_ O_ 0.20408 0.681687 0.430004 -0.58347
O_ O_ 0.1946 0.681476 0.382995 -0.58347
O_ O_ 0.123512 0.754461 0.434831 -0.58347
O_ O_ 0.124059 0.762644 0.387312 -0.58347
O_ O_ 0.134378 0.607455 0.42932 -0.58347
O_ O_ 0.116751 0.612898 0.383154 -0.58347
O_ O_ 0.0531946 0.678033 0.432514 -0.58347
O_ O_ 0.0482264 0.689629 0.386253 -0.58347
O_ O_ 0.0703782 0.718799 0.0760599 -0.46727
O_ O_ 0.236095 0.668534 0.0912819 -0.46727
O_ O_ 0.0327835 0.710142 0.225971 -0.46727
O_ O_ 0.189232 0.63297 0.235925 -0.46727
O_ O_ 0.290514 0.81865 0.177442 -0.58347
O_ O_ 0.299118 0.81684 0.130981 -0.58347
O_ O_ 0.370929 0.749089 0.180754 -0.58347
O_ O_ 0.385192 0.744877 0.134038 -0.58347
O_ O_ 0.354887 0.900868 0.173377 -0.58347
O_ O_ 0.364403 0.895437 0.125952 -0.58347
O_ O_ 0.43736 0.832742 0.172763 -0.58347
O_ O_ 0.448144 0.82241 0.126314 -0.58347
O_ O_ 0.433229 0.77099 0.32882 -0.46727
O_ O_ 0.269018 0.833265 0.333279 -0.46727
O_ O_ 0.457158 0.804624 0.477459 -0.46727
O_ O_ 0.284923 0.825805 0.483195 -0.46727
Zn Zn 0.138901 0.680058 0.881355 0.90689
Zn Zn 0.144419 0.671504 0.929889 0.90689
Zn Zn 0.360463 0.812998 0.629604 0.90689
Zn Zn 0.353743 0.819732 0.678421 0.90689
H_ H_ 0.311994 0.667372 0.945149 0.11455
H_ H_ 0.374506 0.652193 0.845393 0.11455
H_ H_ 0.282333 0.655147 0.854628 0.11455
H_ H_ 0.39872 0.66664 0.963509 0.11455
H_ H_ 0.491448 0.677747 0.952036 0.11455
H_ H_ 0.462673 0.643624 0.862427 0.11455
H_ H_ 0.1414 0.50713 0.941379 0.11455
H_ H_ 0.141444 0.932425 0.846407 0.11455
H_ H_ 0.159416 0.51848 0.850202 0.11455
H_ H_ 0.12616 0.919007 0.964072 0.11455
H_ H_ 0.12484 0.830479 0.958563 0.11455
H_ H_ 0.137807 0.846118 0.868665 0.11455
H_ H_ 0.0964406 0.600705 0.966027 0.11455
H_ H_ 0.0736874 0.570528 0.514354 0.11455
H_ H_ 0.107364 0.616307 0.555924 0.11455
H_ H_ 0.206208 0.735688 0.973602 0.11455
H_ H_ 0.217567 0.797987 0.514676 0.11455
H_ H_ 0.19704 0.774848 0.564523 0.11455
H_ H_ 0.996781 0.718712 0.621894 0.11455
H_ H_ 0.983354 0.701967 0.672574 0.11455
H_ H_ 0.243992 0.667187 0.643777 0.11455
H_ H_ 0.22885 0.64522 0.694684 0.11455
H_ H_ 0.0329791 0.604926 0.753273 0.11455
H_ H_ 0.0366108 0.570355 0.803219 0.11455
H_ H_ 0.0751534 0.619068 0.841617 0.11455
H_ H_ 0.139079 0.751733 0.758138 0.11455
H_ H_ 0.18981 0.793868 0.796955 0.11455
H_ H_ 0.188717 0.753155 0.844864 0.11455
H_ H_ 0.184118 0.804074 0.701784 0.11455
H_ H_ 0.113704 0.816701 0.602265 0.11455
H_ H_ 0.204554 0.812756 0.609092 0.11455
H_ H_ 0.0954469 0.825419 0.72118 0.11455
H_ H_ 0.0059486 0.819456 0.715988 0.11455
H_ H_ 0.0261029 0.817167 0.623522 0.11455
H_ H_ 0.374125 0.981861 0.69096 0.11455
H_ H_ 0.335795 0.559383 0.598665 0.11455
H_ H_ 0.334401 0.966751 0.602498 0.11455
H_ H_ 0.375083 0.575079 0.715056 0.11455
H_ H_ 0.359982 0.667924 0.708941 0.11455
H_ H_ 0.347665 0.648095 0.618206 0.11455
H_ H_ 0.397135 0.900896 0.713579 0.11455
H_ H_ 0.408507 0.927854 0.762993 0.11455
H_ H_ 0.405528 0.866826 0.803133 0.11455
H_ H_ 0.321446 0.739613 0.723675 0.11455
H_ H_ 0.287009 0.689189 0.761295 0.11455
H_ H_ 0.306082 0.710323 0.811415 0.11455
H_ H_ 0.486068 0.769165 0.869764 0.11455
H_ H_ 0.497122 0.768809 0.921727 0.11455
H_ H_ 0.251188 0.84543 0.887896 0.11455
H_ H_ 0.258249 0.844437 0.939151 0.11455
H_ H_ 0.440296 0.913354 0.99714 0.11455
H_ H_ 0.427552 0.935044 0.550215 0.11455
H_ H_ 0.418374 0.872549 0.586928 0.11455
H_ H_ 0.341638 0.742334 0.503889 0.11455
H_ H_ 0.314839 0.691246 0.543388 0.11455
H_ H_ 0.313127 0.728742 0.594858 0.11455
C_ C_ 0.238556 0.679222 0.902691 0.68181
C_ C_ 0.291018 0.66205 0.899328 -0.05681
C_ C_ 0.324895 0.659198 0.923101 -0.08735
C_ C_ 0.378191 0.654936 0.918796 -0.05681
C_ C_ 0.396982 0.649742 0.890166 -0.05681
C_ C_ 0.360948 0.645826 0.867297 -0.08735
C_ C_ 0.309467 0.650126 0.871957 -0.08735
C_ C_ 0.412878 0.665696 0.941266 -0.08735
C_ C_ 0.464962 0.668796 0.935432 -0.08735
C_ C_ 0.482304 0.662316 0.907419 -0.05681
C_ C_ 0.448404 0.649367 0.884652 -0.08735
C_ C_ 0.130542 0.773883 0.910795 0.68181
C_ C_ 0.1492 0.574667 0.899234 0.68181
C_ C_ 0.14915 0.517757 0.896346 -0.05681
C_ C_ 0.14341 0.990972 0.922744 -0.08735
C_ C_ 0.141307 0.937746 0.919771 -0.05681
C_ C_ 0.135317 0.917058 0.892806 -0.05681
C_ C_ 0.142672 0.948086 0.867934 -0.08735
C_ C_ 0.143838 0.0006800000000000139 0.870828 -0.08735
C_ C_ 0.128524 0.905803 0.943753 -0.08735
C_ C_ 0.124711 0.855005 0.940603 -0.08735
C_ C_ 0.128828 0.832215 0.913494 -0.05681
C_ C_ 0.128232 0.863896 0.888947 -0.08735
C_ C_ 0.0456352 0.669635 0.911292 0.68181
C_ C_ 0.115521 0.619187 0.98405 0.1947
C_ C_ 0.0929686 0.60618 0.511517 -0.08735
C_ C_ 0.110727 0.634011 0.534121 -0.08735
C_ C_ 0.129845 0.683173 0.530289 -0.05681
C_ C_ 0.138321 0.700182 0.500603 0.18498
C_ C_ 0.191087 0.73158 0.994899 -0.08735
C_ C_ 0.194743 0.765556 0.519451 -0.08735
C_ C_ 0.181921 0.752893 0.54759 -0.08735
C_ C_ 0.148166 0.712301 0.553422 0.18498
C_ C_ 0.17042 0.684055 0.600857 0.44287
C_ C_ 0.0855152 0.706721 0.593491 0.44287
C_ C_ 0.0769326 0.703179 0.623288 -0.05681
C_ C_ 0.0278027 0.703122 0.634306 -0.08735
C_ C_ 0.0192485 0.693692 0.664032 -0.08735
C_ C_ 0.0587045 0.687491 0.683405 -0.05681
C_ C_ 0.107346 0.6794 0.672143 -0.05681
C_ C_ 0.114898 0.68602 0.641792 -0.05681
C_ C_ 0.164623 0.679292 0.630647 -0.05681
C_ C_ 0.205078 0.666588 0.65054 -0.08735
C_ C_ 0.196942 0.660478 0.680022 -0.08735
C_ C_ 0.147835 0.666708 0.691351 -0.05681
C_ C_ 0.138592 0.667604 0.720998 0.44287
C_ C_ 0.0513945 0.687217 0.714232 0.44287
C_ C_ 0.0829667 0.669467 0.762621 0.18498
C_ C_ 0.0544512 0.625417 0.769595 -0.08735
C_ C_ 0.0589444 0.603579 0.797309 -0.08735
C_ C_ 0.0781825 0.633684 0.819924 -0.08735
C_ C_ 0.106707 0.676484 0.813247 0.18498
C_ C_ 0.109307 0.694015 0.78469 -0.05681
C_ C_ 0.136888 0.737298 0.779013 -0.08735
C_ C_ 0.169308 0.759271 0.800478 -0.08735
C_ C_ 0.169188 0.73601 0.828247 0.1947
C_ C_ 0.258961 0.807862 0.657139 0.68181
C_ C_ 0.201753 0.816158 0.656026 -0.05681
C_ C_ 0.167584 0.80949 0.679793 -0.08735
C_ C_ 0.11483 0.815018 0.676745 -0.05681
C_ C_ 0.0943364 0.820837 0.649099 -0.05681
C_ C_ 0.128262 0.819938 0.624844 -0.08735
C_ C_ 0.17991 0.813634 0.628258 -0.08735
C_ C_ 0.0819822 0.814002 0.699965 -0.08735
C_ C_ 0.0293228 0.818002 0.696611 -0.08735
C_ C_ 0.00795295 0.821559 0.669489 -0.05681
C_ C_ 0.0413208 0.818519 0.645255 -0.08735
C_ C_ 0.361048 0.71815 0.660271 0.68181
C_ C_ 0.352243 0.914116 0.649749 0.68181
C_ C_ 0.348604 0.97038 0.647618 -0.05681
C_ C_ 0.369375 0.504485 0.673008 -0.08735
C_ C_ 0.369462 0.558497 0.669866 -0.05681
C_ C_ 0.36129 0.57984 0.642115 -0.05681
C_ C_ 0.349659 0.546213 0.619733 -0.08735
C_ C_ 0.341902 0.991591 0.620825 -0.08735
C_ C_ 0.366387 0.590121 0.693647 -0.08735
C_ C_ 0.35841 0.64256 0.690685 -0.08735
C_ C_ 0.357617 0.662977 0.662649 -0.05681
C_ C_ 0.357816 0.632612 0.638769 -0.08735
C_ C_ 0.454155 0.821321 0.656151 0.68181
C_ C_ 0.38735 0.875908 0.731157 0.1947
C_ C_ 0.396117 0.890946 0.759678 -0.08735
C_ C_ 0.386847 0.860297 0.782133 -0.08735
C_ C_ 0.357424 0.814607 0.777388 -0.05681
C_ C_ 0.348784 0.800813 0.748238 0.18498
C_ C_ 0.323384 0.755294 0.743758 -0.08735
C_ C_ 0.301312 0.726304 0.766285 -0.08735
C_ C_ 0.312306 0.738969 0.794763 -0.08735
C_ C_ 0.341326 0.781638 0.800604 0.18498
C_ C_ 0.312383 0.808987 0.848249 0.44287
C_ C_ 0.398695 0.781845 0.843106 0.44287
C_ C_ 0.408693 0.793355 0.872572 -0.05681
C_ C_ 0.45668 0.782261 0.884763 -0.08735
C_ C_ 0.461207 0.780791 0.913724 -0.08735
C_ C_ 0.421996 0.794276 0.93326 -0.05681
C_ C_ 0.376572 0.81166 0.919407 -0.05681
C_ C_ 0.369412 0.806476 0.890134 -0.05681
C_ C_ 0.321833 0.81902 0.878055 -0.05681
C_ C_ 0.286486 0.839932 0.895705 -0.08735
C_ C_ 0.291953 0.841545 0.925108 -0.08735
C_ C_ 0.339709 0.833296 0.937052 -0.05681
C_ C_ 0.348586 0.84177 0.967105 0.44287
C_ C_ 0.431584 0.80689 0.962455 0.44287
C_ C_ 0.374678 0.842345 0.510935 0.18498
C_ C_ 0.391054 0.889197 0.518385 -0.08735
C_ C_ 0.406687 0.899006 0.545446 -0.08735
C_ C_ 0.400721 0.863796 0.566978 -0.08735
C_ C_ 0.375817 0.818724 0.561219 0.18498
C_ C_ 0.365891 0.806715 0.532514 -0.05681
C_ C_ 0.346718 0.757819 0.526184 -0.08735
C_ C_ 0.33248 0.727012 0.548625 -0.08735
C_ C_ 0.333657 0.746714 0.577231 0.1947
N_ N_ 0.14075 0.662194 0.978556 -0.29468
N_ N_ 0.133883 0.701007 0.583272 -0.17154
N_ N_ 0.0915186 0.678557 0.732337 -0.17154
N_ N_ 0.134885 0.699328 0.833882 -0.29468
N_ N_ 0.363003 0.830537 0.725308 -0.29468
N_ N_ 0.351646 0.793629 0.831156 -0.17154
N_ N_ 0.393647 0.827647 0.979356 -0.17154
N_ N_ 0.352142 0.793044 0.581801 -0.29468
O_ O_ 0.218557 0.681305 0.926646 -0.58347
O_ O_ 0.212395 0.68442 0.879954 -0.58347
O_ O_ 0.133024 0.750171 0.933178 -0.58347
O_ O_ 0.128181 0.752669 0.886963 -0.58347
O_ O_ 0.155025 0.594352 0.923621 -0.58347
O_ O_ 0.139918 0.602275 0.877869 -0.58347
O_ O_ 0.0733259 0.661652 0.931777 -0.58347
O_ O_ 0.0636772 0.679591 0.887236 -0.58347
O_ O_ 0.050225 0.720748 0.575911 -0.46727
O_ O_ 0.217881 0.679353 0.591234 -0.46727
O_ O_ 0.00629948 0.692874 0.724957 -0.46727
O_ O_ 0.176968 0.657937 0.738735 -0.46727
O_ O_ 0.281145 0.805954 0.680873 -0.58347
O_ O_ 0.284426 0.813488 0.634584 -0.58347
O_ O_ 0.365873 0.741981 0.682386 -0.58347
O_ O_ 0.359893 0.739258 0.635723 -0.58347
O_ O_ 0.343928 0.892298 0.67417 -0.58347
O_ O_ 0.351654 0.88932 0.62625 -0.58347
O_ O_ 0.42632 0.833776 0.676778 -0.58347
O_ O_ 0.436225 0.816406 0.631206 -0.58347
O_ O_ 0.435818 0.769965 0.825565 -0.46727
O_ O_ 0.269712 0.826049 0.836605 -0.46727
O_ O_ 0.478063 0.80426 0.974363 -0.46727
O_ O_ 0.312694 0.857466 0.984433 -0.46727
Zn Zn 0.622189 0.184946 0.379768 0.90689
Zn Zn 0.636222 0.179447 0.428274 0.90689
Zn Zn 0.881682 0.321594 0.132178 0.90689
Zn Zn 0.866242 0.327574 0.17971 0.90689
H_ H_ 0.799797 0.209702 0.44199 0.11455
H_ H_ 0.870235 0.15138 0.350385 0.11455
H_ H_ 0.778027 0.15592 0.355621 0.11455
H_ H_ 0.885646 0.215235 0.462555 0.11455
H_ H_ 0.974189 0.207824 0.456819 0.11455
H_ H_ 0.954277 0.179904 0.368449 0.11455
H_ H_ 0.623043 0.0100669 0.441996 0.11455
H_ H_ 0.593546 0.432067 0.345842 0.11455
H_ H_ 0.60863 0.0232254 0.350066 0.11455
H_ H_ 0.641618 0.427889 0.459036 0.11455
H_ H_ 0.643196 0.334422 0.45379 0.11455
H_ H_ 0.607239 0.347958 0.364092 0.11455
H_ H_ 0.578024 0.109527 0.463595 0.11455
H_ H_ 0.573613 0.0869265 0.0197329 0.11455
H_ H_ 0.613843 0.130983 0.0553383 0.11455
H_ H_ 0.691543 0.242919 0.472389 0.11455
H_ H_ 0.738578 0.296801 0.0107246 0.11455
H_ H_ 0.722691 0.279106 0.0609748 0.11455
H_ H_ 0.521613 0.217955 0.122599 0.11455
H_ H_ 0.510004 0.204107 0.176664 0.11455
H_ H_ 0.771746 0.190709 0.136786 0.11455
H_ H_ 0.761738 0.176184 0.187245 0.11455
H_ H_ 0.576555 0.0719074 0.247021 0.11455
H_ H_ 0.54978 0.0547321 0.295264 0.11455
H_ H_ 0.561891 0.119234 0.335249 0.11455
H_ H_ 0.683117 0.224895 0.256956 0.11455
H_ H_ 0.702643 0.277488 0.295148 0.11455
H_ H_ 0.679153 0.259352 0.343122 0.11455
H_ H_ 0.703573 0.302459 0.19232 0.11455
H_ H_ 0.633379 0.336529 0.0952511 0.11455
H_ H_ 0.723496 0.338133 0.103956 0.11455
H_ H_ 0.615457 0.295273 0.21289 0.11455
H_ H_ 0.526501 0.296407 0.203111 0.11455
H_ H_ 0.54818 0.333991 0.114967 0.11455
H_ H_ 0.843497 0.490062 0.191979 0.11455
H_ H_ 0.832192 0.0745814 0.102261 0.11455
H_ H_ 0.899219 0.480376 0.106308 0.11455
H_ H_ 0.887109 0.0779679 0.216395 0.11455
H_ H_ 0.899189 0.168232 0.209808 0.11455
H_ H_ 0.854415 0.154321 0.121337 0.11455
H_ H_ 0.901285 0.405694 0.217748 0.11455
H_ H_ 0.900035 0.438031 0.266194 0.11455
H_ H_ 0.889669 0.384142 0.304637 0.11455
H_ H_ 0.826765 0.241503 0.223752 0.11455
H_ H_ 0.815567 0.181659 0.264745 0.11455
H_ H_ 0.838623 0.205526 0.313025 0.11455
H_ H_ 1.00317 0.310146 0.377923 0.11455
H_ H_ 0.0100673 0.322884 0.429656 0.11455
H_ H_ 0.745605 0.317667 0.386586 0.11455
H_ H_ 0.753084 0.329306 0.4373 0.11455
H_ H_ 0.933066 0.42445 0.502111 0.11455
H_ H_ 0.971152 0.441378 0.0459723 0.11455
H_ H_ 0.935216 0.390664 0.0889893 0.11455
H_ H_ 0.861053 0.253784 0.00721406 0.11455
H_ H_ 0.820927 0.209704 0.0503998 0.11455
H_ H_ 0.825625 0.248027 0.0968163 0.11455
C_ C_ 0.728608 0.181926 0.404263 0.68181
C_ C_ 0.783485 0.186121 0.399934 -0.05681
C_ C_ 0.81609 0.193282 0.422788 -0.08735
C_ C_ 0.869333 0.186205 0.419073 -0.05681
C_ C_ 0.889673 0.175244 0.393275 -0.05681
C_ C_ 0.8564 0.166862 0.369783 -0.08735
C_ C_ 0.803852 0.170924 0.373277 -0.08735
C_ C_ 0.899442 0.197727 0.442065 -0.08735
C_ C_ 0.951729 0.200465 0.438798 -0.08735
C_ C_ 0.974639 0.191489 0.412199 -0.05681
C_ C_ 0.941379 0.182362 0.389921 -0.08735
C_ C_ 0.626545 0.280873 0.406142 0.68181
C_ C_ 0.623259 0.0826398 0.39876 0.68181
C_ C_ 0.620713 0.0266359 0.396339 -0.05681
C_ C_ 0.63915 0.495508 0.415554 -0.08735
C_ C_ 0.632788 0.441949 0.413831 -0.05681
C_ C_ 0.622475 0.418703 0.387034 -0.05681
C_ C_ 0.606645 0.451303 0.36481 -0.08735
C_ C_ 0.610451 0.504636 0.366023 -0.08735
C_ C_ 0.640716 0.410836 0.438191 -0.08735
C_ C_ 0.636638 0.358263 0.435517 -0.08735
C_ C_ 0.627163 0.335466 0.408236 -0.05681
C_ C_ 0.614711 0.365962 0.384507 -0.08735
C_ C_ 0.529312 0.18567 0.403031 0.68181
C_ C_ 0.59331 0.128745 0.481489 0.1947
C_ C_ 0.594208 0.120934 0.0137445 -0.08735
C_ C_ 0.616324 0.146922 0.034999 -0.08735
C_ C_ 0.644943 0.190817 0.0298871 -0.05681
C_ C_ 0.656507 0.201527 1.00133814 0.18498
C_ C_ 0.682203 0.231728 0.494604 -0.08735
C_ C_ 0.714895 0.265792 0.0170759 -0.08735
C_ C_ 0.698469 0.260926 0.0450989 -0.08735
C_ C_ 0.667371 0.218644 0.0529417 0.18498
C_ C_ 0.697135 0.189638 0.0977959 0.44287
C_ C_ 0.609435 0.215609 0.0937696 0.44287
C_ C_ 0.600031 0.199137 0.12238 -0.05681
C_ C_ 0.551524 0.203921 0.13623 -0.08735
C_ C_ 0.543625 0.192148 0.166298 -0.08735
C_ C_ 0.58869 0.183059 0.182505 -0.05681
C_ C_ 0.637101 0.17946 0.168964 -0.05681
C_ C_ 0.642377 0.184725 0.139695 -0.05681
C_ C_ 0.691114 0.184597 0.127276 -0.05681
C_ C_ 0.733681 0.184288 0.145015 -0.08735
C_ C_ 0.728874 0.178034 0.174727 -0.08735
C_ C_ 0.680326 0.170418 0.18681 -0.05681
C_ C_ 0.672426 0.151651 0.21502 0.44287
C_ C_ 0.584898 0.17628 0.212616 0.44287
C_ C_ 0.61564 0.143753 0.257927 0.18498
C_ C_ 0.583788 0.101117 0.263182 -0.08735
C_ C_ 0.568984 0.0904821 0.291356 -0.08735
C_ C_ 0.581693 0.122354 0.313955 -0.08735
C_ C_ 0.618228 0.162562 0.309539 0.18498
C_ C_ 0.632476 0.174486 0.280887 -0.05681
C_ C_ 0.663444 0.217076 0.276129 -0.08735
C_ C_ 0.682881 0.241981 0.299238 -0.08735
C_ C_ 0.66532 0.232714 0.326857 0.1947
C_ C_ 0.77548 0.325369 0.154593 0.68181
C_ C_ 0.721023 0.322732 0.149779 -0.05681
C_ C_ 0.688449 0.315993 0.172324 -0.08735
C_ C_ 0.635818 0.318835 0.168721 -0.05681
C_ C_ 0.614954 0.32671 0.140542 -0.05681
C_ C_ 0.648338 0.331097 0.11764 -0.08735
C_ C_ 0.700239 0.334196 0.122598 -0.08735
C_ C_ 0.601981 0.309421 0.191516 -0.08735
C_ C_ 0.549541 0.309078 0.185967 -0.08735
C_ C_ 0.529159 0.326291 0.159568 -0.05681
C_ C_ 0.561805 0.327186 0.136527 -0.08735
C_ C_ 0.882173 0.228291 0.162096 0.68181
C_ C_ 0.869605 0.422154 0.153473 0.68181
C_ C_ 0.872392 0.478601 0.150188 -0.05681
C_ C_ 0.868186 0.0132797 0.174933 -0.08735
C_ C_ 0.873628 0.0652031 0.171344 -0.05681
C_ C_ 0.865 0.08711 0.144099 -0.05681
C_ C_ 0.847046 0.0561998 0.121409 -0.08735
C_ C_ 0.888385 0.502439 0.124585 -0.08735
C_ C_ 0.879453 0.0957867 0.195191 -0.08735
C_ C_ 0.885406 0.146206 0.191807 -0.08735
C_ C_ 0.879506 0.170844 0.165028 -0.05681
C_ C_ 0.866434 0.139388 0.141491 -0.08735
C_ C_ 0.972674 0.325474 0.161801 0.68181
C_ C_ 0.886223 0.381082 0.233544 0.1947
C_ C_ 0.894484 0.397216 0.261854 -0.08735
C_ C_ 0.88087 0.36721 0.283683 -0.08735
C_ C_ 0.867647 0.315877 0.279412 -0.05681
C_ C_ 0.859418 0.300429 0.250506 0.18498
C_ C_ 0.84008 0.252487 0.245797 -0.08735
C_ C_ 0.830077 0.219886 0.268871 -0.08735
C_ C_ 0.841566 0.233524 0.297206 -0.08735
C_ C_ 0.859889 0.281843 0.303818 0.18498
C_ C_ 0.824538 0.300113 0.350547 0.44287
C_ C_ 0.915289 0.299761 0.345267 0.44287
C_ C_ 0.922718 0.311085 0.375571 -0.05681
C_ C_ 0.968993 0.311947 0.389906 -0.08735
C_ C_ 0.971976 0.318482 0.419177 -0.08735
C_ C_ 0.928264 0.323796 0.435612 -0.05681
C_ C_ 0.880552 0.321952 0.422941 -0.05681
C_ C_ 0.877371 0.317825 0.392329 -0.05681
C_ C_ 0.827523 0.313011 0.379457 -0.05681
C_ C_ 0.784337 0.317563 0.395844 -0.08735
C_ C_ 0.78942 0.328116 0.425754 -0.08735
C_ C_ 0.836299 0.327851 0.439485 -0.05681
C_ C_ 0.842159 0.336503 0.469751 0.44287
C_ C_ 0.931996 0.327827 0.466367 0.44287
C_ C_ 0.90944 0.344527 0.0101353 0.18498
C_ C_ 0.946054 0.382865 0.016491 -0.08735
C_ C_ 0.954817 0.402989 0.0445804 -0.08735
C_ C_ 0.928722 0.378188 0.0679221 -0.08735
C_ C_ 0.895345 0.335778 0.0627021 0.18498
C_ C_ 0.88693 0.319955 0.0338202 -0.05681
C_ C_ 0.863871 0.272092 0.0297593 -0.08735
C_ C_ 0.844071 0.244656 0.0530517 -0.08735
C_ C_ 0.843959 0.267411 0.0804123 0.1947
N_ N_ 0.625911 0.167682 0.477774 -0.29468
N_ N_ 0.657808 0.207032 0.0821357 -0.17154
N_ N_ 0.625237 0.157002 0.229131 -0.17154
N_ N_ 0.632171 0.192751 0.332233 -0.29468
N_ N_ 0.864682 0.3344 0.228309 -0.29468
N_ N_ 0.867064 0.297832 0.333402 -0.17154
N_ N_ 0.888791 0.333569 0.482874 -0.17154
N_ N_ 0.872408 0.311055 0.0847668 -0.29468
O_ O_ 0.709008 0.182789 0.428689 -0.58347
O_ O_ 0.698589 0.184828 0.382504 -0.58347
O_ O_ 0.637819 0.255223 0.428326 -0.58347
O_ O_ 0.617627 0.25887 0.382263 -0.58347
O_ O_ 0.627511 0.103636 0.422334 -0.58347
O_ O_ 0.621876 0.108331 0.375905 -0.58347
O_ O_ 0.560648 0.181893 0.423839 -0.58347
O_ O_ 0.546732 0.180476 0.377568 -0.58347
O_ O_ 0.573368 0.23729 0.0796465 -0.46727
O_ O_ 0.738417 0.170798 0.0844057 -0.46727
O_ O_ 0.54275 0.18987 0.226349 -0.46727
O_ O_ 0.713371 0.136577 0.22959 -0.46727
O_ O_ 0.791267 0.320549 0.179995 -0.58347
O_ O_ 0.806423 0.323175 0.133944 -0.58347
O_ O_ 0.882473 0.255982 0.183389 -0.58347
O_ O_ 0.8815 0.247274 0.137283 -0.58347
O_ O_ 0.857813 0.403104 0.177127 -0.58347
O_ O_ 0.880855 0.395287 0.131833 -0.58347
O_ O_ 0.942561 0.336608 0.18254 -0.58347
O_ O_ 0.955558 0.323413 0.136745 -0.58347
O_ O_ 0.955359 0.293296 0.328708 -0.46727
O_ O_ 0.781016 0.301553 0.338043 -0.46727
O_ O_ 0.975473 0.318885 0.478761 -0.46727
O_ O_ 0.802529 0.344107 0.485736 -0.46727
Zn Zn 0.620287 0.181967 0.88199 0.90689
Zn Zn 0.639599 0.177619 0.930321 0.90689
Zn Zn 0.877039 0.313434 0.63587 0.90689
Zn Zn 0.867926 0.319809 0.683585 0.90689
H_ H_ 0.804035 0.184764 0.94553 0.11455
H_ H_ 0.86281 0.141593 0.847974 0.11455
H_ H_ 0.775062 0.181451 0.855076 0.11455
H_ H_ 0.893059 0.189601 0.960706 0.11455
H_ H_ 0.980301 0.195501 0.952265 0.11455
H_ H_ 0.956009 0.149025 0.862801 0.11455
H_ H_ 0.636512 0.0138495 0.942897 0.11455
H_ H_ 0.63765 0.428108 0.845518 0.11455
H_ H_ 0.62687 0.0278229 0.852818 0.11455
H_ H_ 0.653274 0.419151 0.963204 0.11455
H_ H_ 0.62987 0.33221 0.957695 0.11455
H_ H_ 0.631581 0.347114 0.867927 0.11455
H_ H_ 0.592228 0.108384 0.967792 0.11455
H_ H_ 0.562144 0.0714325 0.511979 0.11455
H_ H_ 0.601658 0.11613 0.555592 0.11455
H_ H_ 0.707237 0.243601 0.974778 0.11455
H_ H_ 0.71329 0.298278 0.512006 0.11455
H_ H_ 0.703466 0.27026 0.562557 0.11455
H_ H_ 0.515831 0.20356 0.621143 0.11455
H_ H_ 0.504677 0.202596 0.673266 0.11455
H_ H_ 0.764778 0.153188 0.636572 0.11455
H_ H_ 0.753546 0.148987 0.686921 0.11455
H_ H_ 0.561046 0.100276 0.747552 0.11455
H_ H_ 0.547786 0.0657039 0.795862 0.11455
H_ H_ 0.583677 0.114301 0.837326 0.11455
H_ H_ 0.674244 0.24325 0.759461 0.11455
H_ H_ 0.705071 0.286741 0.801951 0.11455
H_ H_ 0.680539 0.264241 0.849768 0.11455
H_ H_ 0.702719 0.351812 0.691337 0.11455
H_ H_ 0.629997 0.303382 0.599222 0.11455
H_ H_ 0.720478 0.305279 0.606333 0.11455
H_ H_ 0.621775 0.364136 0.708874 0.11455
H_ H_ 0.529614 0.357954 0.704086 0.11455
H_ H_ 0.546068 0.330328 0.614309 0.11455
H_ H_ 0.874377 0.485669 0.697868 0.11455
H_ H_ 0.881356 0.0616904 0.598472 0.11455
H_ H_ 0.86525 0.475879 0.60642 0.11455
H_ H_ 0.849473 0.070329 0.717661 0.11455
H_ H_ 0.87136 0.161385 0.712872 0.11455
H_ H_ 0.887016 0.144342 0.620532 0.11455
H_ H_ 0.920741 0.38853 0.72372 0.11455
H_ H_ 0.920068 0.422615 0.770211 0.11455
H_ H_ 0.880331 0.37464 0.810236 0.11455
H_ H_ 0.801525 0.256073 0.723358 0.11455
H_ H_ 0.775346 0.197921 0.761031 0.11455
H_ H_ 0.794543 0.210345 0.81098 0.11455
H_ H_ 0.979996 0.271223 0.874869 0.11455
H_ H_ 0.00189471 0.314658 0.920707 0.11455
H_ H_ 0.738622 0.343022 0.891968 0.11455
H_ H_ 0.758081 0.353036 0.943363 0.11455
H_ H_ 0.965831 0.399846 0.99758955 0.11455
H_ H_ 0.958291 0.442721 0.552984 0.11455
H_ H_ 0.928951 0.38351 0.591107 0.11455
H_ H_ 0.846142 0.260677 0.511383 0.11455
H_ H_ 0.816818 0.20961 0.546706 0.11455
H_ H_ 0.82855 0.234684 0.597567 0.11455
C_ C_ 0.728493 0.185014 0.906406 0.68181
C_ C_ 0.783436 0.178983 0.901123 -0.05681
C_ C_ 0.819607 0.174892 0.92418 -0.08735
C_ C_ 0.871355 0.175679 0.918237 -0.05681
C_ C_ 0.888658 0.166282 0.890447 -0.05681
C_ C_ 0.852986 0.165955 0.86734 -0.08735
C_ C_ 0.801515 0.177846 0.873036 -0.08735
C_ C_ 0.905318 0.18677 0.939318 -0.08735
C_ C_ 0.956591 0.186976 0.934542 -0.08735
C_ C_ 0.975396 0.174139 0.907273 -0.05681
C_ C_ 0.940733 0.158689 0.88503 -0.08735
C_ C_ 0.623933 0.277452 0.91162 0.68181
C_ C_ 0.635509 0.0824909 0.901389 0.68181
C_ C_ 0.638587 0.0264371 0.897806 -0.05681
C_ C_ 0.646816 0.494361 0.918966 -0.08735
C_ C_ 0.642612 0.440815 0.918179 -0.05681
C_ C_ 0.637044 0.417688 0.891249 -0.05681
C_ C_ 0.636716 0.447249 0.865959 -0.08735
C_ C_ 0.644611 0.499682 0.866873 -0.08735
C_ C_ 0.641554 0.408383 0.942707 -0.08735
C_ C_ 0.630204 0.357552 0.939326 -0.08735
C_ C_ 0.630878 0.333982 0.913012 -0.05681
C_ C_ 0.635372 0.364701 0.888959 -0.08735
C_ C_ 0.53103 0.178656 0.90671 0.68181
C_ C_ 0.602266 0.135966 0.98492 0.1947
C_ C_ 0.585817 0.10788 0.509129 -0.08735
C_ C_ 0.61044 0.128948 0.534207 -0.08735
C_ C_ 0.638251 0.175482 0.528002 -0.05681
C_ C_ 0.650037 0.190996 0.499629 0.18498
C_ C_ 0.692702 0.238185 0.995229 -0.08735
C_ C_ 0.697863 0.260974 0.516866 -0.08735
C_ C_ 0.690748 0.245344 0.544701 -0.08735
C_ C_ 0.660364 0.203612 0.550872 0.18498
C_ C_ 0.68909 0.182315 0.598295 0.44287
C_ C_ 0.604386 0.20044 0.592692 0.44287
C_ C_ 0.596551 0.194238 0.622966 -0.05681
C_ C_ 0.548917 0.200677 0.634649 -0.08735
C_ C_ 0.541306 0.199055 0.664693 -0.08735
C_ C_ 0.58338 0.193817 0.683229 -0.05681
C_ C_ 0.6316 0.182898 0.670817 -0.05681
C_ C_ 0.638327 0.181025 0.640572 -0.05681
C_ C_ 0.686086 0.175016 0.62827 -0.05681
C_ C_ 0.72855 0.164294 0.645909 -0.08735
C_ C_ 0.721199 0.158979 0.675498 -0.08735
C_ C_ 0.672953 0.170054 0.687926 -0.05681
C_ C_ 0.666748 0.16467 0.717848 0.44287
C_ C_ 0.580004 0.189508 0.714187 0.44287
C_ C_ 0.611778 0.160467 0.759234 0.18498
C_ C_ 0.579782 0.118207 0.764975 -0.08735
C_ C_ 0.568456 0.103194 0.793194 -0.08735
C_ C_ 0.58847 0.129685 0.817357 -0.08735
C_ C_ 0.616463 0.173084 0.813168 0.18498
C_ C_ 0.627162 0.191054 0.783745 -0.05681
C_ C_ 0.658801 0.231513 0.780365 -0.08735
C_ C_ 0.678836 0.255605 0.804134 -0.08735
C_ C_ 0.666473 0.241114 0.831412 0.1947
C_ C_ 0.773681 0.314511 0.656404 0.68181
C_ C_ 0.718617 0.322239 0.650808 -0.05681
C_ C_ 0.68528 0.334615 0.673192 -0.08735
C_ C_ 0.633297 0.339971 0.666967 -0.05681
C_ C_ 0.613779 0.325755 0.640891 -0.05681
C_ C_ 0.645583 0.311757 0.619578 -0.08735
C_ C_ 0.69729 0.31344 0.624189 -0.08735
C_ C_ 0.602221 0.35288 0.688756 -0.08735
C_ C_ 0.550026 0.348118 0.685778 -0.08735
C_ C_ 0.528733 0.339397 0.65903 -0.05681
C_ C_ 0.561339 0.330596 0.636164 -0.08735
C_ C_ 0.878354 0.217661 0.6646 0.68181
C_ C_ 0.86971 0.416301 0.655394 0.68181
C_ C_ 0.856687 0.472264 0.652648 -0.05681
C_ C_ 0.855094 0.0033758 0.673182 -0.08735
C_ C_ 0.859693 0.0554838 0.670726 -0.05681
C_ C_ 0.872125 0.0763251 0.643459 -0.05681
C_ C_ 0.870087 0.0449553 0.619506 -0.08735
C_ C_ 0.856926 0.496702 0.625469 -0.08735
C_ C_ 0.861952 0.0859939 0.696665 -0.08735
C_ C_ 0.867449 0.138463 0.694077 -0.08735
C_ C_ 0.875528 0.160405 0.666577 -0.05681
C_ C_ 0.879042 0.128347 0.641926 -0.08735
C_ C_ 0.969891 0.312839 0.658453 0.68181
C_ C_ 0.899849 0.366929 0.738295 0.1947
C_ C_ 0.898676 0.388019 0.76624 -0.08735
C_ C_ 0.873983 0.362706 0.788431 -0.08735
C_ C_ 0.84988 0.316068 0.782687 -0.05681
C_ C_ 0.845563 0.301393 0.752601 0.18498
C_ C_ 0.811489 0.263959 0.745002 -0.08735
C_ C_ 0.789551 0.233716 0.766776 -0.08735
C_ C_ 0.8073 0.23872 0.796034 -0.08735
C_ C_ 0.834875 0.282491 0.804086 0.18498
C_ C_ 0.806705 0.308633 0.851616 0.44287
C_ C_ 0.891325 0.280038 0.8454 0.44287
C_ C_ 0.904016 0.294487 0.873906 -0.05681
C_ C_ 0.953911 0.293623 0.885472 -0.08735
C_ C_ 0.962679 0.304846 0.91373 -0.08735
C_ C_ 0.923729 0.312435 0.932381 -0.05681
C_ C_ 0.873427 0.314731 0.9218 -0.05681
C_ C_ 0.864329 0.309382 0.892033 -0.05681
C_ C_ 0.813455 0.314796 0.881497 -0.05681
C_ C_ 0.77597 0.336961 0.899492 -0.08735
C_ C_ 0.788885 0.344105 0.928765 -0.08735
C_ C_ 0.836329 0.333698 0.940324 -0.05681
C_ C_ 0.848567 0.343269 0.969752 0.44287
C_ C_ 0.932654 0.316463 0.962171 0.44287
C_ C_ 0.893955 0.351804 0.512393 0.18498
C_ C_ 0.921791 0.397053 0.519292 -0.08735
C_ C_ 0.934568 0.409051 0.547817 -0.08735
C_ C_ 0.915163 0.379082 0.570598 -0.08735
C_ C_ 0.884038 0.336618 0.564723 0.18498
C_ C_ 0.873911 0.321909 0.535747 -0.05681
C_ C_ 0.85265 0.272234 0.531112 -0.08735
C_ C_ 0.832571 0.245276 0.553395 -0.08735
C_ C_ 0.840297 0.262145 0.581676 0.1947
N_ N_ 0.634278 0.176401 0.978841 -0.29468
N_ N_ 0.649672 0.192162 0.580761 -0.17154
N_ N_ 0.620281 0.174841 0.730293 -0.17154
N_ N_ 0.630177 0.202066 0.836063 -0.29468
N_ N_ 0.869386 0.326676 0.731553 -0.29468
N_ N_ 0.845264 0.292019 0.834159 -0.17154
N_ N_ 0.895302 0.33283 0.980384 -0.17154
N_ N_ 0.86879 0.304222 0.586366 -0.29468
O_ O_ 0.713364 0.186366 0.931597 -0.58347
O_ O_ 0.697418 0.185263 0.885322 -0.58347
O_ O_ 0.6327 0.249379 0.932222 -0.58347
O_ O_ 0.615645 0.258811 0.887113 -0.58347
O_ O_ 0.643206 0.101874 0.925752 -0.58347
O_ O_ 0.624506 0.108876 0.879731 -0.58347
O_ O_ 0.561231 0.172207 0.928698 -0.58347
O_ O_ 0.548539 0.172849 0.882026 -0.58347
O_ O_ 0.568694 0.214977 0.575797 -0.46727
O_ O_ 0.734842 0.179929 0.587447 -0.46727
O_ O_ 0.536629 0.196865 0.726958 -0.46727
O_ O_ 0.701936 0.141412 0.732972 -0.46727
O_ O_ 0.791359 0.317649 0.680299 -0.58347
O_ O_ 0.805163 0.312046 0.635931 -0.58347
O_ O_ 0.867072 0.243817 0.686655 -0.58347
O_ O_ 0.879804 0.23889 0.639727 -0.58347
O_ O_ 0.867374 0.394034 0.679675 -0.58347
O_ O_ 0.86909 0.390722 0.632438 -0.58347
O_ O_ 0.943738 0.320658 0.68026 -0.58347
O_ O_ 0.950333 0.314326 0.634121 -0.58347
O_ O_ 0.9239 0.257052 0.829915 -0.46727
O_ O_ 0.765424 0.322937 0.838865 -0.46727
O_ O_ 0.977856 0.307549 0.972226 -0.46727
O_ O_ 0.812893 0.358315 0.987072 -0.46727
Zn Zn 0.619181 0.682959 0.379454 0.90689
Zn Zn 0.630908 0.674998 0.42819 0.90689
Zn Zn 0.873953 0.8192 0.132243 0.90689
Zn Zn 0.86151 0.828288 0.18063 0.90689
H_ H_ 0.798435 0.682821 0.443587 0.11455
H_ H_ 0.868234 0.656918 0.348867 0.11455
H_ H_ 0.780499 0.678179 0.351148 0.11455
H_ H_ 0.881318 0.685725 0.464048 0.11455
H_ H_ 0.973213 0.692046 0.458046 0.11455
H_ H_ 0.959092 0.672177 0.368096 0.11455
H_ H_ 0.641223 0.51286 0.437911 0.11455
H_ H_ 0.60203 0.92857 0.34866 0.11455
H_ H_ 0.599668 0.527845 0.34863 0.11455
H_ H_ 0.625388 0.923466 0.46679 0.11455
H_ H_ 0.616895 0.830187 0.461749 0.11455
H_ H_ 0.614952 0.844851 0.370364 0.11455
H_ H_ 0.579546 0.602833 0.464657 0.11455
H_ H_ 0.595046 0.558483 0.00739075 0.11455
H_ H_ 0.627748 0.611307 0.0517209 0.11455
H_ H_ 0.696627 0.735539 0.472838 0.11455
H_ H_ 0.723859 0.800696 0.0103471 0.11455
H_ H_ 0.700801 0.777192 0.0629991 0.11455
H_ H_ 0.522221 0.708078 0.120604 0.11455
H_ H_ 0.51239 0.706427 0.175222 0.11455
H_ H_ 0.764878 0.632965 0.132844 0.11455
H_ H_ 0.749925 0.624124 0.184639 0.11455
H_ H_ 0.587996 0.581216 0.249075 0.11455
H_ H_ 0.557682 0.562434 0.298554 0.11455
H_ H_ 0.563357 0.632478 0.333871 0.11455
H_ H_ 0.679421 0.742197 0.25838 0.11455
H_ H_ 0.683861 0.802098 0.299133 0.11455
H_ H_ 0.664268 0.770048 0.348542 0.11455
H_ H_ 0.69551 0.803591 0.190352 0.11455
H_ H_ 0.624391 0.844885 0.0945302 0.11455
H_ H_ 0.721082 0.834407 0.102489 0.11455
H_ H_ 0.604528 0.816507 0.210066 0.11455
H_ H_ 0.513598 0.818671 0.201738 0.11455
H_ H_ 0.539297 0.844002 0.113291 0.11455
H_ H_ 0.87636 0.996099 0.194773 0.11455
H_ H_ 0.91083 0.570282 0.105098 0.11455
H_ H_ 0.830194 0.978274 0.110132 0.11455
H_ H_ 0.8412 0.572297 0.215057 0.11455
H_ H_ 0.843026 0.666571 0.210487 0.11455
H_ H_ 0.890873 0.652855 0.125107 0.11455
H_ H_ 0.902342 0.905476 0.216875 0.11455
H_ H_ 0.923292 0.931544 0.26622 0.11455
H_ H_ 0.880718 0.893757 0.305834 0.11455
H_ H_ 0.797475 0.763853 0.226541 0.11455
H_ H_ 0.773793 0.706746 0.265278 0.11455
H_ H_ 0.788996 0.734297 0.316521 0.11455
H_ H_ 0.974732 0.805717 0.372133 0.11455
H_ H_ -0.012128000000000028 0.806898 0.425414 0.11455
H_ H_ 0.724735 0.84268 0.388729 0.11455
H_ H_ 0.735084 0.840221 0.442856 0.11455
H_ H_ 0.93679 0.901024 0.501086 0.11455
H_ H_ 0.945253 0.948385 0.0487332 0.11455
H_ H_ 0.923203 0.889788 0.088202 0.11455
H_ H_ 0.853079 0.755808 0.00835424 0.11455
H_ H_ 0.807679 0.719299 0.047373 0.11455
H_ H_ 0.822404 0.748179 0.0976534 0.11455
C_ C_ 0.723662 0.683253 0.400651 0.68181
C_ C_ 0.781048 0.684017 0.397713 -0.05681
C_ C_ 0.812848 0.684287 0.422171 -0.08735
C_ C_ 0.8661 0.678773 0.420202 -0.05681
C_ C_ 0.887086 0.669852 0.392844 -0.05681
C_ C_ 0.855534 0.667138 0.368904 -0.08735
C_ C_ 0.803888 0.678008 0.37118 -0.08735
C_ C_ 0.897069 0.682137 0.443371 -0.08735
C_ C_ 0.949388 0.685278 0.439918 -0.08735
C_ C_ 0.972242 0.68143 0.41299 -0.05681
C_ C_ 0.939039 0.673398 0.388856 -0.08735
C_ C_ 0.613246 0.777222 0.412207 0.68181
C_ C_ 0.633304 0.582727 0.395067 0.68181
C_ C_ 0.630806 0.52591 0.391804 -0.05681
C_ C_ 0.625319 0.99342 0.420747 -0.08735
C_ C_ 0.622205 0.938864 0.420579 -0.05681
C_ C_ 0.615053 0.917377 0.39289 -0.05681
C_ C_ 0.610054 0.948179 0.367688 -0.08735
C_ C_ 0.615674 1.00137501 0.368978 -0.08735
C_ C_ 0.627919 0.90753 0.445543 -0.08735
C_ C_ 0.622947 0.855198 0.443141 -0.08735
C_ C_ 0.617085 0.833038 0.415291 -0.05681
C_ C_ 0.614721 0.863713 0.390542 -0.08735
C_ C_ 0.526941 0.673061 0.404884 0.68181
C_ C_ 0.600573 0.618459 0.4815 0.1947
C_ C_ 0.608558 0.599235 0.00650492 -0.08735
C_ C_ 0.62763 0.626133 0.0300659 -0.08735
C_ C_ 0.647423 0.676467 0.0269617 -0.05681
C_ C_ 0.655286 0.693703 0.998746 0.18498
C_ C_ 0.678745 0.730099 0.49314 -0.08735
C_ C_ 0.69663 0.77095 0.0158123 -0.08735
C_ C_ 0.689502 0.754063 0.0443549 -0.08735
C_ C_ 0.664087 0.708351 0.0500705 0.18498
C_ C_ 0.697646 0.67634 0.0957207 0.44287
C_ C_ 0.610536 0.696983 0.090599 0.44287
C_ C_ 0.602216 0.689724 0.12143 -0.05681
C_ C_ 0.553445 0.700946 0.133981 -0.08735
C_ C_ 0.547677 0.696972 0.164586 -0.08735
C_ C_ 0.591394 0.690498 0.182014 -0.05681
C_ C_ 0.637211 0.676287 0.169027 -0.05681
C_ C_ 0.642158 0.678083 0.138389 -0.05681
C_ C_ 0.691101 0.669869 0.126309 -0.05681
C_ C_ 0.729712 0.644881 0.142445 -0.08735
C_ C_ 0.721641 0.640049 0.171658 -0.08735
C_ C_ 0.677031 0.657243 0.185565 -0.05681
C_ C_ 0.670407 0.650048 0.215147 0.44287
C_ C_ 0.588091 0.684757 0.212367 0.44287
C_ C_ 0.617183 0.654008 0.258792 0.18498
C_ C_ 0.593616 0.607626 0.265446 -0.08735
C_ C_ 0.57566 0.596949 0.292567 -0.08735
C_ C_ 0.583859 0.632323 0.31419 -0.08735
C_ C_ 0.614158 0.67488 0.310169 0.18498
C_ C_ 0.631218 0.687185 0.28151 -0.05681
C_ C_ 0.658027 0.734935 0.277731 -0.08735
C_ C_ 0.671384 0.763491 0.301771 -0.08735
C_ C_ 0.656961 0.746904 0.329514 0.1947
C_ C_ 0.770379 0.817854 0.152042 0.68181
C_ C_ 0.713276 0.824439 0.147556 -0.05681
C_ C_ 0.678792 0.820508 0.171117 -0.08735
C_ C_ 0.626042 0.825033 0.16688 -0.05681
C_ C_ 0.607285 0.838414 0.139322 -0.05681
C_ C_ 0.640392 0.83991 0.115636 -0.08735
C_ C_ 0.693608 0.837174 0.119991 -0.08735
C_ C_ 0.591456 0.820161 0.189861 -0.08735
C_ C_ 0.539147 0.822823 0.183844 -0.08735
C_ C_ 0.521211 0.833474 0.156396 -0.05681
C_ C_ 0.55397 0.841582 0.134446 -0.08735
C_ C_ 0.871437 0.724777 0.164923 0.68181
C_ C_ 0.858451 0.923547 0.152656 0.68181
C_ C_ 0.86031 0.981424 0.150352 -0.05681
C_ C_ 0.859236 0.508939 0.172581 -0.08735
C_ C_ 0.868757 0.561104 0.173202 -0.05681
C_ C_ 0.889112 0.584855 0.1483 -0.05681
C_ C_ 0.896863 0.554582 0.123917 -0.08735
C_ C_ 0.847705 1.0032143 0.124457 -0.08735
C_ C_ 0.856358 0.590049 0.197062 -0.08735
C_ C_ 0.861523 0.643714 0.195246 -0.08735
C_ C_ 0.874011 0.667976 0.169416 -0.05681
C_ C_ 0.885725 0.63677 0.145706 -0.08735
C_ C_ 0.96592 0.827619 0.161782 0.68181
C_ C_ 0.886538 0.885592 0.234837 0.1947
C_ C_ 0.895783 0.903115 0.262289 -0.08735
C_ C_ 0.870464 0.8815 0.28494 -0.08735
C_ C_ 0.841184 0.835138 0.281127 -0.05681
C_ C_ 0.834847 0.818444 0.252683 0.18498
C_ C_ 0.804744 0.774666 0.248119 -0.08735
C_ C_ 0.792553 0.743471 0.270092 -0.08735
C_ C_ 0.804504 0.75681 0.297932 -0.08735
C_ C_ 0.824568 0.805109 0.304214 0.18498
C_ C_ 0.797694 0.829953 0.350988 0.44287
C_ C_ 0.885382 0.811863 0.344034 0.44287
C_ C_ 0.893941 0.817835 0.372834 -0.05681
C_ C_ 0.942772 0.81302 0.386208 -0.08735
C_ C_ 0.949812 0.811448 0.415869 -0.08735
C_ C_ 0.906364 0.813766 0.434349 -0.05681
C_ C_ 0.858098 0.822055 0.422379 -0.05681
C_ C_ 0.851889 0.821748 0.392077 -0.05681
C_ C_ 0.803785 0.828933 0.38106 -0.05681
C_ C_ 0.760487 0.831851 0.399204 -0.08735
C_ C_ 0.768176 0.834279 0.429639 -0.08735
C_ C_ 0.817451 0.827555 0.441034 -0.05681
C_ C_ 0.826368 0.838265 0.470299 0.44287
C_ C_ 0.912928 0.818218 0.463812 0.44287
C_ C_ 0.894502 0.850358 0.0106263 0.18498
C_ C_ 0.915984 0.896924 0.0166566 -0.08735
C_ C_ 0.924258 0.914012 0.0439067 -0.08735
C_ C_ 0.910361 0.882062 0.0664379 -0.08735
C_ C_ 0.885709 0.836131 0.0620115 0.18498
C_ C_ 0.879546 0.819765 0.0332902 -0.05681
C_ C_ 0.858662 0.770931 0.0281337 -0.08735
C_ C_ 0.833459 0.748733 0.0517064 -0.08735
C_ C_ 0.843997 0.763673 0.0796663 0.1947
N_ N_ 0.633827 0.65624 0.475892 -0.29468
N_ N_ 0.657638 0.693723 0.0792741 -0.17154
N_ N_ 0.626246 0.665932 0.228676 -0.17154
N_ N_ 0.627211 0.703803 0.332555 -0.29468
N_ N_ 0.854238 0.844789 0.230514 -0.29468
N_ N_ 0.837196 0.816303 0.333886 -0.17154
N_ N_ 0.873977 0.834082 0.481501 -0.17154
N_ N_ 0.87188 0.805939 0.0849133 -0.29468
O_ O_ 0.705656 0.674529 0.424629 -0.58347
O_ O_ 0.695696 0.698483 0.380128 -0.58347
O_ O_ 0.629188 0.750644 0.432658 -0.58347
O_ O_ 0.602967 0.757531 0.38874 -0.58347
O_ O_ 0.624602 0.60176 0.419856 -0.58347
O_ O_ 0.635996 0.610781 0.373468 -0.58347
O_ O_ 0.553898 0.670796 0.427211 -0.58347
O_ O_ 0.545208 0.669084 0.379444 -0.58347
O_ O_ 0.572039 0.708631 0.075295 -0.46727
O_ O_ 0.737792 0.65903 0.0819286 -0.46727
O_ O_ 0.541946 0.684514 0.223648 -0.46727
O_ O_ 0.700942 0.621158 0.229232 -0.46727
O_ O_ 0.789176 0.82193 0.176409 -0.58347
O_ O_ 0.799606 0.817972 0.130444 -0.58347
O_ O_ 0.862213 0.751193 0.186999 -0.58347
O_ O_ 0.878883 0.745915 0.140156 -0.58347
O_ O_ 0.845933 0.903298 0.175217 -0.58347
O_ O_ 0.863503 0.89574 0.130742 -0.58347
O_ O_ 0.938071 0.836195 0.18389 -0.58347
O_ O_ 0.947176 0.826709 0.136857 -0.58347
O_ O_ 0.925105 0.805121 0.326479 -0.46727
O_ O_ 0.753614 0.837095 0.339329 -0.46727
O_ O_ 0.958168 0.80548 0.474349 -0.46727
O_ O_ 0.786984 0.846791 0.487063 -0.46727
Zn Zn 0.634445 0.681805 0.88087 0.90689
Zn Zn 0.648608 0.679154 0.928166 0.90689
Zn Zn 0.855382 0.810408 0.636753 0.90689
Zn Zn 0.85035 0.818382 0.682203 0.90689
H_ H_ 0.814037 0.687086 0.949222 0.11455
H_ H_ 0.878087 0.681857 0.851448 0.11455
H_ H_ 0.790459 0.668518 0.858943 0.11455
H_ H_ 0.896752 0.688647 0.966982 0.11455
H_ H_ 0.991308 0.700272 0.96093 0.11455
H_ H_ 0.968375 0.659534 0.870612 0.11455
H_ H_ 0.651834 0.513017 0.938996 0.11455
H_ H_ 0.631147 0.935974 0.84908 0.11455
H_ H_ 0.64648 0.522572 0.847602 0.11455
H_ H_ 0.65047 0.931113 0.965214 0.11455
H_ H_ 0.643271 0.838107 0.961086 0.11455
H_ H_ 0.626198 0.85456 0.870166 0.11455
H_ H_ 0.595474 0.601769 0.961503 0.11455
H_ H_ 0.552513 0.584221 0.511519 0.11455
H_ H_ 0.60234 0.621364 0.554698 0.11455
H_ H_ 0.703748 0.743624 0.974572 0.11455
H_ H_ 0.713441 0.794096 0.513742 0.11455
H_ H_ 0.689398 0.7739 0.561361 0.11455
H_ H_ 0.518002 0.692321 0.622345 0.11455
H_ H_ 0.505216 0.690567 0.672917 0.11455
H_ H_ 0.766111 0.673408 0.636925 0.11455
H_ H_ 0.759706 0.653499 0.689208 0.11455
H_ H_ 0.595853 0.580322 0.744778 0.11455
H_ H_ 0.575716 0.549956 0.791953 0.11455
H_ H_ 0.590704 0.603221 0.834568 0.11455
H_ H_ 0.670345 0.743033 0.759202 0.11455
H_ H_ 0.709422 0.779678 0.800833 0.11455
H_ H_ 0.686455 0.753799 0.84976 0.11455
H_ H_ 0.682649 0.801794 0.692882 0.11455
H_ H_ 0.616072 0.839608 0.593995 0.11455
H_ H_ 0.702544 0.839753 0.603979 0.11455
H_ H_ 0.595551 0.797008 0.71132 0.11455
H_ H_ 0.505401 0.800915 0.704598 0.11455
H_ H_ 0.530412 0.832987 0.612583 0.11455
H_ H_ 0.850939 0.985728 0.69533 0.11455
H_ H_ 0.860785 0.567505 0.601676 0.11455
H_ H_ 0.85073 0.97138 0.602481 0.11455
H_ H_ 0.88082 0.570229 0.720642 0.11455
H_ H_ 0.875861 0.66078 0.716728 0.11455
H_ H_ 0.862091 0.648036 0.624112 0.11455
H_ H_ 0.899702 0.897714 0.714502 0.11455
H_ H_ 0.913928 0.930264 0.760836 0.11455
H_ H_ 0.877699 0.889924 0.803539 0.11455
H_ H_ 0.79875 0.75589 0.726434 0.11455
H_ H_ 0.783844 0.694261 0.764948 0.11455
H_ H_ 0.804332 0.723581 0.815506 0.11455
H_ H_ 0.988593 0.808716 0.871661 0.11455
H_ H_ 1.00025 0.818912 0.921249 0.11455
H_ H_ 0.734875 0.840356 0.890386 0.11455
H_ H_ 0.748995 0.83704 0.941789 0.11455
H_ H_ 0.928142 0.919595 0.998543 0.11455
H_ H_ 0.955946 0.924222 0.553366 0.11455
H_ H_ 0.930141 0.864741 0.588742 0.11455
H_ H_ 0.844221 0.743307 0.507759 0.11455
H_ H_ 0.802143 0.700666 0.549061 0.11455
H_ H_ 0.808482 0.736827 0.59652 0.11455
C_ C_ 0.737414 0.682858 0.906527 0.68181
C_ C_ 0.794955 0.676658 0.903745 -0.05681
C_ C_ 0.827025 0.679183 0.927581 -0.08735
C_ C_ 0.879912 0.675401 0.923847 -0.05681
C_ C_ 0.90037 0.672882 0.895841 -0.05681
C_ C_ 0.866381 0.671984 0.87213 -0.08735
C_ C_ 0.815138 0.677117 0.876809 -0.08735
C_ C_ 0.912996 0.682364 0.946598 -0.08735
C_ C_ 0.967111 0.679026 0.944282 -0.08735
C_ C_ 0.988941 0.673769 0.915566 -0.05681
C_ C_ 0.954332 0.668155 0.892496 -0.08735
C_ C_ 0.630766 0.777743 0.910098 0.68181
C_ C_ 0.647446 0.583105 0.896453 0.68181
C_ C_ 0.643358 0.524828 0.895109 -0.05681
C_ C_ 0.635829 -0.004677000000000042 0.923004 -0.08735
C_ C_ 0.638639 0.942327 0.920147 -0.05681
C_ C_ 0.630329 0.920207 0.893616 -0.05681
C_ C_ 0.63063 0.951852 0.869963 -0.08735
C_ C_ 0.630413 0.00477603 0.871691 -0.08735
C_ C_ 0.641891 0.912955 0.944498 -0.08735
C_ C_ 0.63785 0.860138 0.941292 -0.08735
C_ C_ 0.630288 0.834909 0.913682 -0.05681
C_ C_ 0.626705 0.86804 0.890479 -0.08735
C_ C_ 0.537826 0.668421 0.903035 0.68181
C_ C_ 0.609995 0.623098 0.97955 0.1947
C_ C_ 0.585981 0.606768 0.508891 -0.08735
C_ C_ 0.610301 0.629872 0.53257 -0.08735
C_ C_ 0.641019 0.671928 0.527291 -0.05681
C_ C_ 0.653075 0.684757 0.498454 0.18498
C_ C_ 0.685071 0.738533 0.993972 -0.08735
C_ C_ 0.688004 0.763048 0.516324 -0.08735
C_ C_ 0.673758 0.751664 0.543814 -0.08735
C_ C_ 0.656751 0.702644 0.550236 0.18498
C_ C_ 0.694145 0.684145 0.596829 0.44287
C_ C_ 0.604679 0.694053 0.593397 0.44287
C_ C_ 0.598521 0.684313 0.623394 -0.05681
C_ C_ 0.550638 0.687783 0.635612 -0.08735
C_ C_ 0.543823 0.685795 0.664981 -0.08735
C_ C_ 0.587952 0.683762 0.683423 -0.05681
C_ C_ 0.637057 0.676389 0.670047 -0.05681
C_ C_ 0.642019 0.676719 0.63997 -0.05681
C_ C_ 0.688459 0.67393 0.626174 -0.05681
C_ C_ 0.730875 0.66819 0.644965 -0.08735
C_ C_ 0.727095 0.662527 0.675952 -0.08735
C_ C_ 0.679077 0.668391 0.688063 -0.05681
C_ C_ 0.672673 0.663716 0.71762 0.44287
C_ C_ 0.58621 0.687151 0.713155 0.44287
C_ C_ 0.614841 0.656767 0.758086 0.18498
C_ C_ 0.592823 0.607177 0.762026 -0.08735
C_ C_ 0.583205 0.590106 0.789392 -0.08735
C_ C_ 0.596201 0.619138 0.813142 -0.08735
C_ C_ 0.621293 0.6671 0.810557 0.18498
C_ C_ 0.630371 0.684672 0.78283 -0.05681
C_ C_ 0.65829 0.729873 0.77988 -0.08735
C_ C_ 0.681642 0.751444 0.804078 -0.08735
C_ C_ 0.671049 0.734954 0.830906 0.1947
C_ C_ 0.755942 0.815714 0.653994 0.68181
C_ C_ 0.700633 0.823744 0.649916 -0.05681
C_ C_ 0.667517 0.812475 0.672554 -0.08735
C_ C_ 0.615609 0.816949 0.668094 -0.05681
C_ C_ 0.594653 0.82964 0.640858 -0.05681
C_ C_ 0.628072 0.840044 0.617559 -0.08735
C_ C_ 0.680908 0.841018 0.622996 -0.08735
C_ C_ 0.582916 0.808439 0.690704 -0.08735
C_ C_ 0.530996 0.811269 0.687095 -0.08735
C_ C_ 0.509637 0.821691 0.659602 -0.05681
C_ C_ 0.54209 0.827281 0.635574 -0.08735
C_ C_ 0.864971 0.717783 0.66625 0.68181
C_ C_ 0.841595 0.914541 0.65141 0.68181
C_ C_ 0.847361 0.970183 0.648722 -0.05681
C_ C_ 0.864588 0.504009 0.677629 -0.08735
C_ C_ 0.868647 0.556104 0.674204 -0.05681
C_ C_ 0.862532 0.579821 0.647371 -0.05681
C_ C_ 0.856628 0.548858 0.623102 -0.08735
C_ C_ 0.856779 0.991927 0.622192 -0.08735
C_ C_ 0.874087 0.586579 0.69905 -0.08735
C_ C_ 0.874099 0.639592 0.697233 -0.08735
C_ C_ 0.869196 0.661985 0.669724 -0.05681
C_ C_ 0.862755 0.632431 0.645058 -0.08735
C_ C_ 0.95213 0.816568 0.666503 0.68181
C_ C_ 0.877132 0.882317 0.731524 0.1947
C_ C_ 0.891131 0.896369 0.758461 -0.08735
C_ C_ 0.86883 0.873804 0.782484 -0.08735
C_ C_ 0.842601 0.827692 0.779843 -0.05681
C_ C_ 0.830759 0.812455 0.752088 0.18498
C_ C_ 0.810086 0.764815 0.746993 -0.08735
C_ C_ 0.80516 0.730856 0.769319 -0.08735
C_ C_ 0.814407 0.745339 0.797583 -0.08735
C_ C_ 0.83497 0.795535 0.80352 0.18498
C_ C_ 0.805631 0.820004 0.849771 0.44287
C_ C_ 0.893846 0.807445 0.842833 0.44287
C_ C_ 0.902712 0.809229 0.873949 -0.05681
C_ C_ 0.953739 0.807 0.884792 -0.08735
C_ C_ 0.962517 0.816174 0.913641 -0.08735
C_ C_ 0.921024 0.819332 0.933825 -0.05681
C_ C_ 0.870941 0.823008 0.922112 -0.05681
C_ C_ 0.862433 0.818556 0.89214 -0.05681
C_ C_ 0.81257 0.826679 0.88039 -0.05681
C_ C_ 0.772154 0.833258 0.899932 -0.08735
C_ C_ 0.781002 0.828333 0.929223 -0.08735
C_ C_ 0.829989 0.827817 0.939858 -0.05681
C_ C_ 0.8381 0.838242 0.968877 0.44287
C_ C_ 0.927553 0.825957 0.963557 0.44287
C_ C_ 0.885703 0.8395 0.511997 0.18498
C_ C_ 0.919359 0.879133 0.519443 -0.08735
C_ C_ 0.930681 0.893733 0.547642 -0.08735
C_ C_ 0.910885 0.862766 0.568839 -0.08735
C_ C_ 0.873329 0.826189 0.563488 0.18498
C_ C_ 0.864733 0.810645 0.534276 -0.05681
C_ C_ 0.841577 0.763355 0.528995 -0.08735
C_ C_ 0.821056 0.737815 0.552681 -0.08735
C_ C_ 0.825798 0.758555 0.580326 0.1947
N_ N_ 0.638075 0.666057 0.975994 -0.29468
N_ N_ 0.651045 0.691647 0.580341 -0.17154
N_ N_ 0.626293 0.673503 0.729496 -0.17154
N_ N_ 0.639532 0.693068 0.833603 -0.29468
N_ N_ 0.844992 0.83994 0.728462 -0.29468
N_ N_ 0.845925 0.8112 0.831954 -0.17154
N_ N_ 0.885536 0.83915 0.980028 -0.17154
N_ N_ 0.854091 0.799927 0.586006 -0.29468
O_ O_ 0.717585 0.677508 0.93101 -0.58347
O_ O_ 0.710914 0.68566 0.884288 -0.58347
O_ O_ 0.64262 0.74967 0.93129 -0.58347
O_ O_ 0.621837 0.757961 0.885811 -0.58347
O_ O_ 0.649908 0.605981 0.921036 -0.58347
O_ O_ 0.647007 0.608924 0.873544 -0.58347
O_ O_ 0.566015 0.678161 0.924661 -0.58347
O_ O_ 0.558322 0.670601 0.878487 -0.58347
O_ O_ 0.564504 0.703852 0.577728 -0.46727
O_ O_ 0.737579 0.675165 0.584225 -0.46727
O_ O_ 0.541984 0.697865 0.725622 -0.46727
O_ O_ 0.709784 0.648718 0.73433 -0.46727
O_ O_ 0.775256 0.811723 0.678042 -0.58347
O_ O_ 0.78333 0.805262 0.63291 -0.58347
O_ O_ 0.862182 0.746341 0.687296 -0.58347
O_ O_ 0.86188 0.735853 0.640873 -0.58347
O_ O_ 0.834183 0.89312 0.675785 -0.58347
O_ O_ 0.852607 0.886773 0.631199 -0.58347
O_ O_ 0.924973 0.827018 0.688579 -0.58347
O_ O_ 0.932151 0.816689 0.641659 -0.58347
O_ O_ 0.931197 0.797423 0.824381 -0.46727
O_ O_ 0.759708 0.826739 0.839654 -0.46727
O_ O_ 0.973264 0.824996 0.97473 -0.46727
O_ O_ 0.799694 0.842601 0.985839 -0.46727
