_cell_length_a 26.376
_cell_length_b 26.400000238300095
_cell_length_c 46.67800035477134
_cell_angle_alpha 90.00700052986613
_cell_angle_beta 89.99899961309502
_cell_angle_gamma 90.45000003183146
_symmetry_space_group_name_H-M         'P 1'
_symmetry_Int_Tables_number            1
loop_
_symmetry_equiv_pos_as_xyz
   'x, y, z'
                         
loop_
_atom_site_label
_atom_site_type_symbol
_atom_site_fract_x 
_atom_site_fract_y
_atom_site_fract_z
_atom_site_charge
Zn Zn 0.132377 0.182857 0.381272 0.90689
Zn Zn 0.144682 0.17768 0.428994 0.90689
Zn Zn 0.371783 0.312149 0.133937 0.90689
Zn Zn 0.361417 0.31556 0.182117 0.90689
H_ H_ 0.307649 0.181514 0.444217 0.11455
H_ H_ 0.381148 0.174312 0.347741 0.11455
H_ H_ 0.285351 0.166968 0.35267 0.11455
H_ H_ 0.391569 0.185983 0.464393 0.11455
H_ H_ 0.483128 0.182505 0.460048 0.11455
H_ H_ 0.465166 0.166759 0.367854 0.11455
H_ H_ 0.16192 0.0122517 0.441843 0.11455
H_ H_ 0.163177 0.438453 0.346318 0.11455
H_ H_ 0.104072 0.0255287 0.356229 0.11455
H_ H_ 0.106919 0.425955 0.462764 0.11455
H_ H_ 0.118459 0.331392 0.458435 0.11455
H_ H_ 0.16469 0.34965 0.369585 0.11455
H_ H_ 0.101668 0.103291 0.46558 0.11455
H_ H_ 0.0849261 0.0677769 0.0121624 0.11455
H_ H_ 0.118357 0.113379 0.05288 0.11455
H_ H_ 0.202803 0.248646 0.468303 0.11455
H_ H_ 0.228253 0.297132 0.0168861 0.11455
H_ H_ 0.22111 0.264364 0.0651208 0.11455
H_ H_ 0.019162 0.197224 0.124424 0.11455
H_ H_ 0.00970004 0.192544 0.176288 0.11455
H_ H_ 0.269256 0.159041 0.137752 0.11455
H_ H_ 0.258149 0.13602 0.186822 0.11455
H_ H_ 0.0688069 0.0823588 0.247951 0.11455
H_ H_ 0.0442786 0.0646182 0.300618 0.11455
H_ H_ 0.0681546 0.125678 0.338279 0.11455
H_ H_ 0.173957 0.235547 0.258439 0.11455
H_ H_ 0.213855 0.275641 0.296871 0.11455
H_ H_ 0.19382 0.246768 0.3451 0.11455
H_ H_ 0.192445 0.292336 0.196048 0.11455
H_ H_ 0.128456 0.332456 0.0998 0.11455
H_ H_ 0.210589 0.330077 0.106842 0.11455
H_ H_ 0.103154 0.283002 0.215194 0.11455
H_ H_ 0.0134141 0.283451 0.205291 0.11455
H_ H_ 0.0379068 0.317928 0.1164 0.11455
H_ H_ 0.381674 0.483052 0.193238 0.11455
H_ H_ 0.325595 0.0602335 0.102796 0.11455
H_ H_ 0.32296 0.469525 0.107301 0.11455
H_ H_ 0.39603 0.0662821 0.214944 0.11455
H_ H_ 0.407815 0.153638 0.207904 0.11455
H_ H_ 0.354831 0.145179 0.118746 0.11455
H_ H_ 0.406866 0.390592 0.216938 0.11455
H_ H_ 0.410439 0.429825 0.264409 0.11455
H_ H_ 0.383353 0.378796 0.305335 0.11455
H_ H_ 0.309054 0.242301 0.226988 0.11455
H_ H_ 0.291567 0.18735 0.266973 0.11455
H_ H_ 0.316212 0.209585 0.315619 0.11455
H_ H_ 0.497394 0.299158 0.372679 0.11455
H_ H_ 0.509473 0.311106 0.422657 0.11455
H_ H_ 0.245013 0.305992 0.39488 0.11455
H_ H_ 0.259812 0.345795 0.442188 0.11455
H_ H_ 0.446607 0.416536 0.50176 0.11455
H_ H_ 0.478514 0.411705 0.0515008 0.11455
H_ H_ 0.437055 0.367901 0.0886536 0.11455
H_ H_ 0.342221 0.24577 0.00738837 0.11455
H_ H_ 0.304637 0.201982 0.0505629 0.11455
H_ H_ 0.306882 0.24484 0.0989958 0.11455
C_ C_ 0.235734 0.175605 0.403223 0.68181
C_ C_ 0.291198 0.177742 0.398743 -0.05681
C_ C_ 0.322289 0.176346 0.423457 -0.08735
C_ C_ 0.373946 0.180723 0.419464 -0.05681
C_ C_ 0.395927 0.177558 0.391412 -0.05681
C_ C_ 0.363273 0.17939 0.367901 -0.08735
C_ C_ 0.310478 0.169359 0.371487 -0.08735
C_ C_ 0.407019 0.178035 0.443121 -0.08735
C_ C_ 0.459615 0.184079 0.440018 -0.08735
C_ C_ 0.481572 0.180222 0.412583 -0.05681
C_ C_ 0.448985 0.174696 0.388145 -0.08735
C_ C_ 0.140289 0.278632 0.410795 0.68181
C_ C_ 0.140752 0.0805093 0.401071 0.68181
C_ C_ 0.132623 0.023381 0.399932 -0.05681
C_ C_ 0.126112 0.492441 0.420958 -0.08735
C_ C_ 0.128149 0.439924 0.417683 -0.05681
C_ C_ 0.141712 0.418819 0.391443 -0.05681
C_ C_ 0.151596 0.452046 0.367221 -0.08735
C_ C_ 0.143606 0.502358 0.370152 -0.08735
C_ C_ 0.123593 0.407425 0.44248 -0.08735
C_ C_ 0.127181 0.356245 0.440188 -0.08735
C_ C_ 0.136035 0.334413 0.412441 -0.05681
C_ C_ 0.153262 0.365898 0.390033 -0.08735
C_ C_ 0.0399982 0.191125 0.407794 0.68181
C_ C_ 0.120447 0.123833 0.481649 0.1947
C_ C_ 0.0997936 0.10502 0.00969943 -0.08735
C_ C_ 0.122851 0.129658 0.0328157 -0.08735
C_ C_ 0.145908 0.17732 0.0299019 -0.05681
C_ C_ 0.154226 0.194514 1.00153279 0.18498
C_ C_ 0.18828 0.241063 0.491879 -0.08735
C_ C_ 0.205665 0.263092 0.0197157 -0.08735
C_ C_ 0.197513 0.246742 0.0479697 -0.08735
C_ C_ 0.163648 0.205374 0.0530295 0.18498
C_ C_ 0.192083 0.170416 0.099244 0.44287
C_ C_ 0.108435 0.200632 0.0951875 0.44287
C_ C_ 0.100966 0.188901 0.124698 -0.05681
C_ C_ 0.0514485 0.18774 0.137916 -0.08735
C_ C_ 0.0464456 0.190498 0.166968 -0.08735
C_ C_ 0.0876509 0.174633 0.184142 -0.05681
C_ C_ 0.134655 0.167241 0.171416 -0.05681
C_ C_ 0.143027 0.176444 0.14221 -0.05681
C_ C_ 0.189863 0.171775 0.129653 -0.05681
C_ C_ 0.23163 0.157018 0.146777 -0.08735
C_ C_ 0.224194 0.145428 0.175212 -0.08735
C_ C_ 0.175873 0.151223 0.187447 -0.05681
C_ C_ 0.169701 0.14499 0.217065 0.44287
C_ C_ 0.0856205 0.176256 0.214205 0.44287
C_ C_ 0.117901 0.142753 0.25912 0.18498
C_ C_ 0.0868007 0.100993 0.265608 -0.08735
C_ C_ 0.0670647 0.0946197 0.293809 -0.08735
C_ C_ 0.0829077 0.128103 0.316842 -0.08735
C_ C_ 0.119348 0.16716 0.310573 0.18498
C_ C_ 0.137598 0.173884 0.282016 -0.05681
C_ C_ 0.169404 0.215759 0.278338 -0.08735
C_ C_ 0.189424 0.242565 0.301439 -0.08735
C_ C_ 0.172599 0.23206 0.328335 0.1947
C_ C_ 0.266588 0.307322 0.155979 0.68181
C_ C_ 0.210419 0.30993 0.151953 -0.05681
C_ C_ 0.176113 0.300108 0.175145 -0.08735
C_ C_ 0.124022 0.305437 0.171598 -0.05681
C_ C_ 0.105092 0.315718 0.14289 -0.05681
C_ C_ 0.138776 0.3271 0.121097 -0.08735
C_ C_ 0.189403 0.321003 0.125344 -0.08735
C_ C_ 0.0901822 0.298412 0.194991 -0.08735
C_ C_ 0.036923 0.302671 0.189607 -0.08735
C_ C_ 0.017865 0.311286 0.162363 -0.05681
C_ C_ 0.0517575 0.316251 0.138266 -0.08735
C_ C_ 0.374222 0.21597 0.162645 0.68181
C_ C_ 0.35495 0.410803 0.151382 0.68181
C_ C_ 0.354038 0.468414 0.149647 -0.05681
C_ C_ 0.36781 0.00042000000000008697 0.174366 -0.08735
C_ C_ 0.368197 0.0532773 0.171668 -0.05681
C_ C_ 0.350272 0.076188 0.146068 -0.05681
C_ C_ 0.33493 0.0438882 0.12362 -0.08735
C_ C_ 0.339137 0.491576 0.124249 -0.08735
C_ C_ 0.389174 0.0818314 0.19374 -0.08735
C_ C_ 0.393445 0.133601 0.189701 -0.08735
C_ C_ 0.375452 0.158473 0.164189 -0.05681
C_ C_ 0.357688 0.13002 0.14051 -0.08735
C_ C_ 0.463931 0.322859 0.157302 0.68181
C_ C_ 0.385647 0.375078 0.234111 0.1947
C_ C_ 0.393889 0.392344 0.261672 -0.08735
C_ C_ 0.380313 0.361574 0.285144 -0.08735
C_ C_ 0.356313 0.314894 0.281009 -0.05681
C_ C_ 0.343758 0.299727 0.25201 0.18498
C_ C_ 0.31812 0.256693 0.246911 -0.08735
C_ C_ 0.30628 0.224866 0.271696 -0.08735
C_ C_ 0.323179 0.235785 0.299294 -0.08735
C_ C_ 0.343737 0.283516 0.30544 0.18498
C_ C_ 0.316907 0.305983 0.35313 0.44287
C_ C_ 0.405702 0.293636 0.345807 0.44287
C_ C_ 0.414648 0.30903 0.37404 -0.05681
C_ C_ 0.465173 0.310108 0.385898 -0.08735
C_ C_ 0.471634 0.318939 0.41464 -0.08735
C_ C_ 0.432169 0.329823 0.433563 -0.05681
C_ C_ 0.380877 0.331871 0.422767 -0.05681
C_ C_ 0.372438 0.322343 0.392475 -0.05681
C_ C_ 0.324278 0.315767 0.382567 -0.05681
C_ C_ 0.284053 0.320151 0.40159 -0.08735
C_ C_ 0.292475 0.335956 0.429874 -0.08735
C_ C_ 0.341473 0.335362 0.440627 -0.05681
C_ C_ 0.3514 0.344054 0.469302 0.44287
C_ C_ 0.439665 0.329142 0.463398 0.44287
C_ C_ 0.403521 0.33315 0.0104034 0.18498
C_ C_ 0.433792 0.374456 0.0165687 -0.08735
C_ C_ 0.451306 0.381323 0.045677 -0.08735
C_ C_ 0.428523 0.354695 0.067473 -0.08735
C_ C_ 0.387262 0.319523 0.0622436 0.18498
C_ C_ 0.378213 0.304332 0.033808 -0.05681
C_ C_ 0.352189 0.258775 0.0287808 -0.08735
C_ C_ 0.329921 0.234882 0.0535105 -0.08735
C_ C_ 0.33179 0.25715 0.0810836 0.1947
N_ N_ 0.144068 0.1676 0.475824 -0.29468
N_ N_ 0.153474 0.190045 0.0825029 -0.17154
N_ N_ 0.124239 0.157633 0.230155 -0.17154
N_ N_ 0.138481 0.193057 0.332531 -0.29468
N_ N_ 0.358291 0.330196 0.229564 -0.29468
N_ N_ 0.356994 0.295732 0.33549 -0.17154
N_ N_ 0.398663 0.337102 0.481195 -0.17154
N_ N_ 0.365272 0.294085 0.0857743 -0.29468
O_ O_ 0.215865 0.175835 0.42857 -0.58347
O_ O_ 0.206824 0.175421 0.381774 -0.58347
O_ O_ 0.143611 0.253053 0.433158 -0.58347
O_ O_ 0.141239 0.256417 0.38708 -0.58347
O_ O_ 0.149905 0.104191 0.424478 -0.58347
O_ O_ 0.137717 0.106806 0.377969 -0.58347
O_ O_ 0.0683377 0.177937 0.428532 -0.58347
O_ O_ 0.0589446 0.189754 0.383109 -0.58347
O_ O_ 0.070757 0.213276 0.0787705 -0.46727
O_ O_ 0.235903 0.161257 0.0858619 -0.46727
O_ O_ 0.0461803 0.196987 0.226792 -0.46727
O_ O_ 0.209159 0.130718 0.231784 -0.46727
O_ O_ 0.287823 0.302563 0.180306 -0.58347
O_ O_ 0.294589 0.314717 0.1343 -0.58347
O_ O_ 0.37761 0.239519 0.186227 -0.58347
O_ O_ 0.367015 0.237915 0.139162 -0.58347
O_ O_ 0.343073 0.389112 0.175196 -0.58347
O_ O_ 0.370869 0.385346 0.13048 -0.58347
O_ O_ 0.436058 0.334406 0.177437 -0.58347
O_ O_ 0.44653 0.310677 0.132869 -0.58347
O_ O_ 0.444448 0.278452 0.329344 -0.46727
O_ O_ 0.269386 0.305125 0.342466 -0.46727
O_ O_ 0.482366 0.312568 0.473428 -0.46727
O_ O_ 0.314351 0.361045 0.486332 -0.46727
Zn Zn 0.126245 0.19416 0.880639 0.90689
Zn Zn 0.136787 0.184071 0.927595 0.90689
Zn Zn 0.372793 0.326549 0.633352 0.90689
Zn Zn 0.362639 0.332304 0.679584 0.90689
H_ H_ 0.308 0.201265 0.947327 0.11455
H_ H_ 0.37357 0.168005 0.851283 0.11455
H_ H_ 0.281864 0.163386 0.858414 0.11455
H_ H_ 0.392885 0.200067 0.965511 0.11455
H_ H_ 0.487232 0.199255 0.956729 0.11455
H_ H_ 0.460535 0.157131 0.871103 0.11455
H_ H_ 0.161602 0.0199965 0.939932 0.11455
H_ H_ 0.0931752 0.444172 0.84805 0.11455
H_ H_ 0.112311 0.03035 0.852408 0.11455
H_ H_ 0.150754 0.435222 0.962352 0.11455
H_ H_ 0.160806 0.343657 0.955339 0.11455
H_ H_ 0.0892685 0.360885 0.871246 0.11455
H_ H_ 0.0810603 0.110897 0.965192 0.11455
H_ H_ 0.0826125 0.0796052 0.513186 0.11455
H_ H_ 0.0984946 0.139752 0.553432 0.11455
H_ H_ 0.190568 0.254872 0.97473 0.11455
H_ H_ 0.232971 0.299089 0.509602 0.11455
H_ H_ 0.207143 0.28425 0.558061 0.11455
H_ H_ 0.0156156 0.224787 0.61997 0.11455
H_ H_ 0.00431 0.193888 0.672731 0.11455
H_ H_ 0.267393 0.171709 0.630851 0.11455
H_ H_ 0.259303 0.150714 0.681112 0.11455
H_ H_ 0.0770207 0.0900247 0.743562 0.11455
H_ H_ 0.0541376 0.0636347 0.794637 0.11455
H_ H_ 0.0888588 0.115169 0.835403 0.11455
H_ H_ 0.160696 0.249785 0.754955 0.11455
H_ H_ 0.198861 0.291192 0.796653 0.11455
H_ H_ 0.181137 0.267232 0.84415 0.11455
H_ H_ 0.191607 0.298612 0.691011 0.11455
H_ H_ 0.124186 0.362789 0.597727 0.11455
H_ H_ 0.218707 0.35223 0.605158 0.11455
H_ H_ 0.105668 0.303377 0.711968 0.11455
H_ H_ 0.0162292 0.320442 0.706236 0.11455
H_ H_ 0.0365545 0.34425 0.617014 0.11455
H_ H_ 0.370912 0.499127 0.692752 0.11455
H_ H_ 0.368147 0.0721012 0.597222 0.11455
H_ H_ 0.344568 0.491639 0.5997 0.11455
H_ H_ 0.362739 0.0835525 0.71626 0.11455
H_ H_ 0.364674 0.175334 0.711156 0.11455
H_ H_ 0.387005 0.156355 0.619928 0.11455
H_ H_ 0.412489 0.39986 0.714298 0.11455
H_ H_ 0.421401 0.437168 0.761768 0.11455
H_ H_ 0.388496 0.388407 0.803473 0.11455
H_ H_ 0.305262 0.25969 0.720911 0.11455
H_ H_ 0.286002 0.201796 0.760362 0.11455
H_ H_ 0.297963 0.22175 0.808554 0.11455
H_ H_ 0.4897 0.280914 0.869878 0.11455
H_ H_ 0.50776 0.302978 0.920796 0.11455
H_ H_ 0.247554 0.355405 0.890409 0.11455
H_ H_ 0.259566 0.362282 0.942567 0.11455
H_ H_ 0.454783 0.39225 -0.000764192 0.11455
H_ H_ 0.451201 0.448252 0.551977 0.11455
H_ H_ 0.418537 0.394231 0.590396 0.11455
H_ H_ 0.361159 0.255767 0.507835 0.11455
H_ H_ 0.321034 0.212808 0.548355 0.11455
H_ H_ 0.325452 0.247274 0.59751 0.11455
C_ C_ 0.229363 0.19368 0.907038 0.68181
C_ C_ 0.285762 0.187384 0.903377 -0.05681
C_ C_ 0.319769 0.192571 0.926071 -0.08735
C_ C_ 0.37155 0.185342 0.922414 -0.05681
C_ C_ 0.391005 0.176507 0.895165 -0.05681
C_ C_ 0.358475 0.17135 0.872148 -0.08735
C_ C_ 0.306315 0.176298 0.875679 -0.08735
C_ C_ 0.407192 0.188705 0.945361 -0.08735
C_ C_ 0.460018 0.188273 0.939898 -0.08735
C_ C_ 0.478025 0.179572 0.912464 -0.05681
C_ C_ 0.443801 0.167935 0.891641 -0.08735
C_ C_ 0.121855 0.28803 0.910047 0.68181
C_ C_ 0.142937 0.0878909 0.899153 0.68181
C_ C_ 0.134822 0.031911 0.897361 -0.05681
C_ C_ 0.138612 0.500032 0.920475 -0.08735
C_ C_ 0.129407 0.448804 0.918762 -0.05681
C_ C_ 0.115577 0.428216 0.892115 -0.05681
C_ C_ 0.106072 0.459952 0.868045 -0.08735
C_ C_ 0.107604 0.512659 0.871034 -0.08735
C_ C_ 0.147363 0.417729 0.9412 -0.08735
C_ C_ 0.142946 0.365931 0.9386 -0.08735
C_ C_ 0.123588 0.343974 0.913437 -0.05681
C_ C_ 0.106898 0.375304 0.890519 -0.08735
C_ C_ 0.0321563 0.19279 0.902364 0.68181
C_ C_ 0.100262 0.127817 0.98298 0.1947
C_ C_ 0.10753 0.11162 0.509055 -0.08735
C_ C_ 0.11076 0.147818 0.531246 -0.08735
C_ C_ 0.140534 0.189988 0.525636 -0.05681
C_ C_ 0.157319 0.200155 0.497988 0.18498
C_ C_ 0.182128 0.23786 0.99728 -0.08735
C_ C_ 0.203462 0.273064 0.513919 -0.08735
C_ C_ 0.191946 0.259867 0.541737 -0.08735
C_ C_ 0.158554 0.220769 0.54782 0.18498
C_ C_ 0.191226 0.190382 0.593303 0.44287
C_ C_ 0.106789 0.222615 0.591933 0.44287
C_ C_ 0.0984233 0.209677 0.619969 -0.05681
C_ C_ 0.0475767 0.210536 0.631612 -0.08735
C_ C_ 0.0406699 0.194498 0.660818 -0.08735
C_ C_ 0.0852907 0.186427 0.67882 -0.05681
C_ C_ 0.135249 0.188343 0.666301 -0.05681
C_ C_ 0.140066 0.193725 0.636489 -0.05681
C_ C_ 0.187205 0.186891 0.623022 -0.05681
C_ C_ 0.229559 0.177535 0.640529 -0.08735
C_ C_ 0.222792 0.164083 0.669184 -0.08735
C_ C_ 0.17797 0.177593 0.683663 -0.05681
C_ C_ 0.171415 0.167043 0.713097 0.44287
C_ C_ 0.0822794 0.184292 0.708847 0.44287
C_ C_ 0.113555 0.159673 0.755602 0.18498
C_ C_ 0.0857493 0.114848 0.762158 -0.08735
C_ C_ 0.0762617 0.0982161 0.789947 -0.08735
C_ C_ 0.0912826 0.129706 0.813329 -0.08735
C_ C_ 0.11866 0.174267 0.809078 0.18498
C_ C_ 0.13218 0.187646 0.779899 -0.05681
C_ C_ 0.160012 0.232313 0.776331 -0.08735
C_ C_ 0.180342 0.255751 0.79954 -0.08735
C_ C_ 0.169034 0.241137 0.827041 0.1947
C_ C_ 0.267941 0.322418 0.654863 0.68181
C_ C_ 0.211133 0.326193 0.649968 -0.05681
C_ C_ 0.177208 0.313458 0.672153 -0.08735
C_ C_ 0.124827 0.317292 0.667407 -0.05681
C_ C_ 0.105024 0.330535 0.639311 -0.05681
C_ C_ 0.138715 0.342217 0.616673 -0.08735
C_ C_ 0.192701 0.342952 0.622195 -0.08735
C_ C_ 0.0904872 0.314518 0.690718 -0.08735
C_ C_ 0.0407199 0.327058 0.687963 -0.08735
C_ C_ 0.0191416 0.337813 0.661292 -0.05681
C_ C_ 0.0529381 0.338816 0.637321 -0.08735
C_ C_ 0.372163 0.232739 0.664174 0.68181
C_ C_ 0.356564 0.42755 0.649619 0.68181
C_ C_ 0.356293 0.483493 0.64746 -0.05681
C_ C_ 0.361376 0.0155009 0.673302 -0.08735
C_ C_ 0.359735 0.0682265 0.670341 -0.05681
C_ C_ 0.366957 0.0919503 0.642903 -0.05681
C_ C_ 0.3683 0.0580539 0.618916 -0.08735
C_ C_ 0.356309 0.508694 0.620475 -0.08735
C_ C_ 0.364893 0.099786 0.69494 -0.08735
C_ C_ 0.366468 0.151855 0.692363 -0.08735
C_ C_ 0.373833 0.176273 0.665857 -0.05681
C_ C_ 0.375241 0.144281 0.640689 -0.08735
C_ C_ 0.464211 0.33274 0.658038 0.68181
C_ C_ 0.398234 0.379731 0.732256 0.1947
C_ C_ 0.404625 0.398845 0.759687 -0.08735
C_ C_ 0.38641 0.37165 0.782345 -0.08735
C_ C_ 0.358426 0.325646 0.778123 -0.05681
C_ C_ 0.345588 0.313996 0.750115 0.18498
C_ C_ 0.317637 0.270007 0.743589 -0.08735
C_ C_ 0.306574 0.235673 0.765739 -0.08735
C_ C_ 0.315699 0.248164 0.794917 -0.08735
C_ C_ 0.340846 0.294767 0.801954 0.18498
C_ C_ 0.315341 0.317758 0.849239 0.44287
C_ C_ 0.398608 0.289468 0.843649 0.44287
C_ C_ 0.408909 0.299681 0.872156 -0.05681
C_ C_ 0.458498 0.294331 0.882768 -0.08735
C_ C_ 0.467445 0.30049 0.912659 -0.08735
C_ C_ 0.427288 0.313688 0.93141 -0.05681
C_ C_ 0.378354 0.322883 0.921016 -0.05681
C_ C_ 0.370641 0.319044 0.890845 -0.05681
C_ C_ 0.322641 0.327479 0.879147 -0.05681
C_ C_ 0.283396 0.346987 0.898062 -0.08735
C_ C_ 0.291306 0.348173 0.92808 -0.08735
C_ C_ 0.340121 0.337805 0.939649 -0.05681
C_ C_ 0.347663 0.334892 0.969798 0.44287
C_ C_ 0.433827 0.313435 0.96213 0.44287
C_ C_ 0.406804 0.347305 0.511551 0.18498
C_ C_ 0.430944 0.394948 0.518909 -0.08735
C_ C_ 0.437043 0.411253 0.546923 -0.08735
C_ C_ 0.418179 0.380802 0.568388 -0.08735
C_ C_ 0.393182 0.335066 0.563162 0.18498
C_ C_ 0.390548 0.316139 0.534584 -0.05681
C_ C_ 0.365387 0.269324 0.530029 -0.08735
C_ C_ 0.342203 0.246573 0.553067 -0.08735
C_ C_ 0.343044 0.2676 0.580754 0.1947
N_ N_ 0.131528 0.168255 0.97879 -0.29468
N_ N_ 0.150611 0.207094 0.577874 -0.17154
N_ N_ 0.123975 0.172637 0.725689 -0.17154
N_ N_ 0.139186 0.201178 0.832396 -0.29468
N_ N_ 0.365216 0.340514 0.727025 -0.29468
N_ N_ 0.354332 0.304707 0.832152 -0.17154
N_ N_ 0.393846 0.322095 0.980292 -0.17154
N_ N_ 0.371592 0.309178 0.586007 -0.29468
O_ O_ 0.207998 0.18758 0.931118 -0.58347
O_ O_ 0.203134 0.200075 0.884464 -0.58347
O_ O_ 0.128455 0.260832 0.931667 -0.58347
O_ O_ 0.116552 0.268035 0.88602 -0.58347
O_ O_ 0.139566 0.107608 0.922565 -0.58347
O_ O_ 0.137352 0.116211 0.87829 -0.58347
O_ O_ 0.0603774 0.188266 0.924089 -0.58347
O_ O_ 0.0485714 0.18348 0.877782 -0.58347
O_ O_ 0.0728622 0.248767 0.577934 -0.46727
O_ O_ 0.230609 0.178298 0.579965 -0.46727
O_ O_ 0.0401863 0.194607 0.721698 -0.46727
O_ O_ 0.209111 0.149093 0.727845 -0.46727
O_ O_ 0.288873 0.329982 0.678765 -0.58347
O_ O_ 0.298662 0.317207 0.634088 -0.58347
O_ O_ 0.366041 0.258378 0.686601 -0.58347
O_ O_ 0.380967 0.253422 0.639843 -0.58347
O_ O_ 0.360443 0.405604 0.67398 -0.58347
O_ O_ 0.357865 0.400917 0.626058 -0.58347
O_ O_ 0.435477 0.333765 0.680236 -0.58347
O_ O_ 0.445497 0.332783 0.633534 -0.58347
O_ O_ 0.425719 0.253675 0.829666 -0.46727
O_ O_ 0.26881 0.322175 0.838645 -0.46727
O_ O_ 0.475652 0.293623 0.97235 -0.46727
O_ O_ 0.31133 0.348805 0.986269 -0.46727
Zn Zn 0.131175 0.682386 0.384953 0.90689
Zn Zn 0.134733 0.679207 0.432418 0.90689
Zn Zn 0.36939 0.812231 0.132004 0.90689
Zn Zn 0.36034 0.816954 0.180834 0.90689
H_ H_ 0.303435 0.695756 0.443751 0.11455
H_ H_ 0.377078 0.647846 0.347993 0.11455
H_ H_ 0.284138 0.658053 0.3558 0.11455
H_ H_ 0.393014 0.707337 0.461559 0.11455
H_ H_ 0.483727 0.707523 0.455669 0.11455
H_ H_ 0.459171 0.654731 0.366245 0.11455
H_ H_ 0.128189 0.505172 0.443231 0.11455
H_ H_ 0.110319 0.933152 0.351638 0.11455
H_ H_ 0.151175 0.525863 0.352272 0.11455
H_ H_ 0.178723 0.929195 0.463328 0.11455
H_ H_ 0.173577 0.83036 0.456142 0.11455
H_ H_ 0.107656 0.84753 0.37385 0.11455
H_ H_ 0.108268 0.587492 0.470309 0.11455
H_ H_ 0.0703261 0.566263 0.0118835 0.11455
H_ H_ 0.0966136 0.616545 0.0545636 0.11455
H_ H_ 0.206504 0.72725 0.47041 0.11455
H_ H_ 0.202457 0.803401 0.0123943 0.11455
H_ H_ 0.181957 0.778404 0.0635868 0.11455
H_ H_ 0.00442927 0.698408 0.126758 0.11455
H_ H_ -0.00041199999999996795 0.683704 0.176647 0.11455
H_ H_ 0.259419 0.687018 0.137431 0.11455
H_ H_ 0.251055 0.667892 0.188798 0.11455
H_ H_ 0.0697148 0.580157 0.248759 0.11455
H_ H_ 0.0426258 0.563785 0.300821 0.11455
H_ H_ 0.0703525 0.614533 0.341031 0.11455
H_ H_ 0.165826 0.736452 0.260205 0.11455
H_ H_ 0.19108 0.789121 0.301756 0.11455
H_ H_ 0.18614 0.756183 0.34814 0.11455
H_ H_ 0.186688 0.795664 0.192434 0.11455
H_ H_ 0.125906 0.835711 0.0975751 0.11455
H_ H_ 0.216041 0.83012 0.104768 0.11455
H_ H_ 0.107065 0.809974 0.212518 0.11455
H_ H_ 0.0170683 0.814922 0.207447 0.11455
H_ H_ 0.036995 0.822851 0.115049 0.11455
H_ H_ 0.384375 0.985302 0.193079 0.11455
H_ H_ 0.348983 0.559214 0.0994135 0.11455
H_ H_ 0.322562 0.969127 0.106993 0.11455
H_ H_ 0.39882 0.566148 0.212827 0.11455
H_ H_ 0.394317 0.657309 0.20981 0.11455
H_ H_ 0.340884 0.64451 0.124887 0.11455
H_ H_ 0.410904 0.881323 0.217096 0.11455
H_ H_ 0.432905 0.905125 0.265265 0.11455
H_ H_ 0.40478 0.856508 0.306177 0.11455
H_ H_ 0.301192 0.744429 0.225824 0.11455
H_ H_ 0.289045 0.682467 0.26326 0.11455
H_ H_ 0.318114 0.699407 0.313711 0.11455
H_ H_ 0.496509 0.789709 0.373042 0.11455
H_ H_ 0.508632 0.807242 0.422423 0.11455
H_ H_ 0.243704 0.805612 0.391992 0.11455
H_ H_ 0.258067 0.82185 0.440951 0.11455
H_ H_ 0.419745 0.930756 0.498045 0.11455
H_ H_ 0.440376 0.944505 0.0523629 0.11455
H_ H_ 0.425575 0.880594 0.0890964 0.11455
H_ H_ 0.342729 0.757796 0.00783526 0.11455
H_ H_ 0.325972 0.699275 0.0459323 0.11455
H_ H_ 0.330826 0.732087 0.0956024 0.11455
C_ C_ 0.232696 0.684989 0.403492 0.68181
C_ C_ 0.286811 0.675792 0.399766 -0.05681
C_ C_ 0.319506 0.686234 0.422323 -0.08735
C_ C_ 0.371973 0.685177 0.418386 -0.05681
C_ C_ 0.393294 0.668051 0.391861 -0.05681
C_ C_ 0.360327 0.655791 0.369391 -0.08735
C_ C_ 0.30893 0.662345 0.373962 -0.08735
C_ C_ 0.405858 0.690557 0.441647 -0.08735
C_ C_ 0.45768 0.692093 0.438103 -0.08735
C_ C_ 0.477685 0.681798 0.410239 -0.05681
C_ C_ 0.444104 0.669076 0.387271 -0.08735
C_ C_ 0.132016 0.779613 0.415304 0.68181
C_ C_ 0.137218 0.580587 0.398917 0.68181
C_ C_ 0.139054 0.524041 0.396967 -0.05681
C_ C_ 0.14528 0.993539 0.423439 -0.08735
C_ C_ 0.148361 0.941619 0.420549 -0.05681
C_ C_ 0.127577 0.918925 0.395401 -0.05681
C_ C_ 0.117563 0.949894 0.37201 -0.08735
C_ C_ 0.116221 1.00222072 0.373974 -0.08735
C_ C_ 0.165944 0.911275 0.442863 -0.08735
C_ C_ 0.160766 0.856649 0.440547 -0.08735
C_ C_ 0.135267 0.835489 0.41696 -0.05681
C_ C_ 0.123042 0.864461 0.393184 -0.08735
C_ C_ 0.0348979 0.66906 0.415006 0.68181
C_ C_ 0.118439 0.615042 0.486868 0.1947
C_ C_ 0.0917825 0.6006 0.00914391 -0.08735
C_ C_ 0.104563 0.631399 0.0329142 -0.08735
C_ C_ 0.126293 0.679378 0.028833 -0.05681
C_ C_ 0.13374 0.694821 0.9999721474 0.18498
C_ C_ 0.192391 0.725849 0.492435 -0.08735
C_ C_ 0.184085 0.767693 0.0177943 -0.08735
C_ C_ 0.168627 0.75535 0.0459452 -0.08735
C_ C_ 0.144965 0.709272 0.0518762 0.18498
C_ C_ 0.182159 0.691909 0.0982691 0.44287
C_ C_ 0.0930426 0.6972 0.094633 0.44287
C_ C_ 0.0859249 0.690295 0.124656 -0.05681
C_ C_ 0.0384425 0.691553 0.137972 -0.08735
C_ C_ 0.0368532 0.685002 0.16697 -0.08735
C_ C_ 0.0761651 0.676699 0.186519 -0.05681
C_ C_ 0.124273 0.676933 0.172792 -0.05681
C_ C_ 0.130455 0.68146 0.142238 -0.05681
C_ C_ 0.17874 0.687395 0.128302 -0.05681
C_ C_ 0.222885 0.681548 0.146817 -0.08735
C_ C_ 0.216061 0.672673 0.1776 -0.08735
C_ C_ 0.167987 0.67431 0.19025 -0.05681
C_ C_ 0.160315 0.66339 0.219582 0.44287
C_ C_ 0.0708231 0.672984 0.215214 0.44287
C_ C_ 0.107455 0.652129 0.261862 0.18498
C_ C_ 0.0804708 0.605026 0.26808 -0.08735
C_ C_ 0.0673058 0.594268 0.296401 -0.08735
C_ C_ 0.0822631 0.623805 0.319792 -0.08735
C_ C_ 0.112083 0.66754 0.315424 0.18498
C_ C_ 0.125282 0.681077 0.286651 -0.05681
C_ C_ 0.153181 0.72543 0.281253 -0.08735
C_ C_ 0.165791 0.756539 0.303661 -0.08735
C_ C_ 0.161383 0.739088 0.331974 0.1947
C_ C_ 0.265237 0.812339 0.153336 0.68181
C_ C_ 0.210362 0.813453 0.148798 -0.05681
C_ C_ 0.175478 0.812525 0.171653 -0.08735
C_ C_ 0.124048 0.816469 0.168093 -0.05681
C_ C_ 0.104743 0.819106 0.140976 -0.05681
C_ C_ 0.140209 0.823833 0.117711 -0.08735
C_ C_ 0.192448 0.82383 0.121931 -0.08735
C_ C_ 0.0915483 0.816296 0.191241 -0.08735
C_ C_ 0.0392998 0.814499 0.187863 -0.08735
C_ C_ 0.0180134 0.814317 0.159436 -0.05681
C_ C_ 0.0510742 0.814806 0.136316 -0.08735
C_ C_ 0.373509 0.717202 0.163542 0.68181
C_ C_ 0.354922 0.914877 0.153202 0.68181
C_ C_ 0.350089 0.969588 0.151044 -0.05681
C_ C_ 0.372952 0.499875 0.172895 -0.08735
C_ C_ 0.371172 0.552377 0.170147 -0.05681
C_ C_ 0.358312 0.575292 0.143996 -0.05681
C_ C_ 0.343293 0.543861 0.120748 -0.08735
C_ C_ 0.330891 -0.007685000000000053 0.126153 -0.08735
C_ C_ 0.384852 0.583585 0.193131 -0.08735
C_ C_ 0.384739 0.635929 0.191011 -0.08735
C_ C_ 0.373018 0.659023 0.165574 -0.05681
C_ C_ 0.356901 0.627744 0.14226 -0.08735
C_ C_ 0.463149 0.816522 0.157458 0.68181
C_ C_ 0.397586 0.861156 0.234861 0.1947
C_ C_ 0.403994 0.878361 0.262598 -0.08735
C_ C_ 0.388855 0.848489 0.285006 -0.08735
C_ C_ 0.363796 0.803487 0.280652 -0.05681
C_ C_ 0.350938 0.791395 0.251307 0.18498
C_ C_ 0.321168 0.748407 0.245767 -0.08735
C_ C_ 0.314714 0.711665 0.267984 -0.08735
C_ C_ 0.32903 0.723312 0.297213 -0.08735
C_ C_ 0.35178 0.771546 0.303736 0.18498
C_ C_ 0.319724 0.794612 0.351613 0.44287
C_ C_ 0.407152 0.786455 0.345235 0.44287
C_ C_ 0.416084 0.799468 0.374163 -0.05681
C_ C_ 0.464734 0.800148 0.386279 -0.08735
C_ C_ 0.471807 0.812432 0.414591 -0.08735
C_ C_ 0.429043 0.824121 0.43307 -0.05681
C_ C_ 0.380398 0.818549 0.421667 -0.05681
C_ C_ 0.374151 0.810319 0.392217 -0.05681
C_ C_ 0.324783 0.805226 0.38092 -0.05681
C_ C_ 0.283098 0.812809 0.398835 -0.08735
C_ C_ 0.289391 0.815648 0.427977 -0.08735
C_ C_ 0.337334 0.8231 0.440079 -0.05681
C_ C_ 0.343539 0.828653 0.469479 0.44287
C_ C_ 0.431957 0.832917 0.463339 0.44287
C_ C_ 0.389535 0.851046 0.0113414 0.18498
C_ C_ 0.412628 0.899318 0.0198898 -0.08735
C_ C_ 0.423918 0.907004 0.0481299 -0.08735
C_ C_ 0.405887 0.874132 0.0696566 -0.08735
C_ C_ 0.386697 0.827587 0.062962 0.18498
C_ C_ 0.374094 0.816293 0.0338692 -0.05681
C_ C_ 0.348714 0.771309 0.0281182 -0.08735
C_ C_ 0.338668 0.736943 0.0504441 -0.08735
C_ C_ 0.347432 0.753516 0.078716 0.1947
N_ N_ 0.142969 0.656659 0.479476 -0.29468
N_ N_ 0.140173 0.696833 0.0826165 -0.17154
N_ N_ 0.113963 0.665965 0.231228 -0.17154
N_ N_ 0.133538 0.695234 0.337243 -0.29468
N_ N_ 0.366475 0.822964 0.22973 -0.29468
N_ N_ 0.360086 0.782905 0.33481 -0.17154
N_ N_ 0.390986 0.836028 0.480731 -0.17154
N_ N_ 0.370819 0.798029 0.0847844 -0.29468
O_ O_ 0.210734 0.683494 0.427517 -0.58347
O_ O_ 0.205808 0.689393 0.381821 -0.58347
O_ O_ 0.135023 0.75299 0.437305 -0.58347
O_ O_ 0.123776 0.757869 0.390977 -0.58347
O_ O_ 0.133286 0.600638 0.424068 -0.58347
O_ O_ 0.135956 0.60754 0.377796 -0.58347
O_ O_ 0.063419 0.672416 0.437447 -0.58347
O_ O_ 0.0545059 0.673103 0.389728 -0.58347
O_ O_ 0.0527701 0.705863 0.0792295 -0.46727
O_ O_ 0.226859 0.692353 0.0864334 -0.46727
O_ O_ 0.0252802 0.679746 0.226782 -0.46727
O_ O_ 0.200081 0.653579 0.235696 -0.46727
O_ O_ 0.285236 0.813775 0.178972 -0.58347
O_ O_ 0.292641 0.803175 0.132377 -0.58347
O_ O_ 0.362299 0.742814 0.185148 -0.58347
O_ O_ 0.378364 0.736451 0.139044 -0.58347
O_ O_ 0.356462 0.895054 0.177301 -0.58347
O_ O_ 0.36115 0.886708 0.13054 -0.58347
O_ O_ 0.434669 0.820864 0.179402 -0.58347
O_ O_ 0.443358 0.818941 0.131894 -0.58347
O_ O_ 0.446746 0.772051 0.329211 -0.46727
O_ O_ 0.275738 0.795091 0.339176 -0.46727
O_ O_ 0.475714 0.847032 0.474523 -0.46727
O_ O_ 0.30361 0.842052 0.484949 -0.46727
Zn Zn 0.115499 0.690675 0.879246 0.90689
Zn Zn 0.127104 0.685605 0.928542 0.90689
Zn Zn 0.378582 0.830028 0.635527 0.90689
Zn Zn 0.366633 0.82826 0.68357 0.90689
H_ H_ 0.296766 0.699376 0.943836 0.11455
H_ H_ 0.365552 0.67982 0.847352 0.11455
H_ H_ 0.27047 0.68092 0.85333 0.11455
H_ H_ 0.385823 0.695625 0.96319 0.11455
H_ H_ 0.474549 0.686219 0.954061 0.11455
H_ H_ 0.448039 0.680107 0.862662 0.11455
H_ H_ 0.14949 0.515763 0.941685 0.11455
H_ H_ 0.0946681 0.940547 0.851929 0.11455
H_ H_ 0.108148 0.534568 0.852207 0.11455
H_ H_ 0.15959 0.93438 0.963919 0.11455
H_ H_ 0.145113 0.840673 0.961857 0.11455
H_ H_ 0.0941143 0.85786 0.874187 0.11455
H_ H_ 0.0834128 0.597589 0.963144 0.11455
H_ H_ 0.0993781 0.56062 0.51942 0.11455
H_ H_ 0.129191 0.616443 0.558204 0.11455
H_ H_ 0.173022 0.751908 0.973042 0.11455
H_ H_ 0.233334 0.79328 0.506093 0.11455
H_ H_ 0.206127 0.786861 0.558279 0.11455
H_ H_ 1.0251309 0.698946 0.618166 0.11455
H_ H_ 1.00957845 0.680514 0.670062 0.11455
H_ H_ 0.275204 0.696841 0.642812 0.11455
H_ H_ 0.26508 0.689662 0.695485 0.11455
H_ H_ 0.0778097 0.594363 0.746817 0.11455
H_ H_ 0.0596114 0.566149 0.796182 0.11455
H_ H_ 0.0705361 0.628061 0.837861 0.11455
H_ H_ 0.140815 0.763243 0.754821 0.11455
H_ H_ 0.169974 0.814345 0.800257 0.11455
H_ H_ 0.164088 0.776415 0.845302 0.11455
H_ H_ 0.195843 0.829076 0.697307 0.11455
H_ H_ 0.134966 0.842367 0.597205 0.11455
H_ H_ 0.226684 0.837889 0.608366 0.11455
H_ H_ 0.108505 0.82062 0.716536 0.11455
H_ H_ 0.0197185 0.827952 0.706928 0.11455
H_ H_ 0.0459875 0.821853 0.614569 0.11455
H_ H_ 0.351781 0.996436 0.693753 0.11455
H_ H_ 0.356359 0.578318 0.597493 0.11455
H_ H_ 0.373203 0.983042 0.605062 0.11455
H_ H_ 0.401808 0.580108 0.712768 0.11455
H_ H_ 0.399151 0.673256 0.70858 0.11455
H_ H_ 0.375425 0.663767 0.618333 0.11455
H_ H_ 0.434862 0.899127 0.716116 0.11455
H_ H_ 0.453041 0.928515 0.766255 0.11455
H_ H_ 0.414251 0.878931 0.806529 0.11455
H_ H_ 0.309088 0.775218 0.722486 0.11455
H_ H_ 0.278235 0.720607 0.761348 0.11455
H_ H_ 0.299054 0.740667 0.811873 0.11455
H_ H_ 0.493157 0.79649 0.875817 0.11455
H_ H_ 0.503859 0.816276 0.927814 0.11455
H_ H_ 0.241702 0.837768 0.886996 0.11455
H_ H_ 0.248548 0.848189 0.940917 0.11455
H_ H_ 0.432642 0.920036 1.00398613 0.11455
H_ H_ 0.44939 0.948082 0.547335 0.11455
H_ H_ 0.435014 0.891263 0.587791 0.11455
H_ H_ 0.350949 0.759312 0.50879 0.11455
H_ H_ 0.311401 0.718424 0.549219 0.11455
H_ H_ 0.32513 0.747184 0.598257 0.11455
C_ C_ 0.220252 0.693575 0.902559 0.68181
C_ C_ 0.277028 0.692327 0.898542 -0.05681
C_ C_ 0.310221 0.691923 0.922464 -0.08735
C_ C_ 0.362611 0.686219 0.918242 -0.05681
C_ C_ 0.381884 0.686194 0.8898 -0.05681
C_ C_ 0.347571 0.68502 0.867359 -0.08735
C_ C_ 0.295637 0.684118 0.871412 -0.08735
C_ C_ 0.396543 0.687908 0.941138 -0.08735
C_ C_ 0.447988 0.685047 0.935646 -0.08735
C_ C_ 0.467044 0.682288 0.907092 -0.05681
C_ C_ 0.434192 0.678789 0.884762 -0.08735
C_ C_ 0.11664 0.785023 0.912113 0.68181
C_ C_ 0.127983 0.589735 0.899324 0.68181
C_ C_ 0.125018 0.533548 0.897334 -0.05681
C_ C_ 0.146961 1.00128 0.921209 -0.08735
C_ C_ 0.13567 0.948711 0.920942 -0.05681
C_ C_ 0.118766 0.926828 0.895498 -0.05681
C_ C_ 0.108666 0.958404 0.871037 -0.08735
C_ C_ 0.120979 0.00965123 0.871826 -0.08735
C_ C_ 0.151926 0.916518 0.942545 -0.08735
C_ C_ 0.142531 0.864379 0.941422 -0.08735
C_ C_ 0.121037 0.843156 0.916077 -0.05681
C_ C_ 0.107 0.874716 0.893902 -0.08735
C_ C_ 0.0258757 0.677727 0.905673 0.68181
C_ C_ 0.0952997 0.619908 0.981835 0.1947
C_ C_ 0.114569 0.597963 0.515118 -0.08735
C_ C_ 0.130707 0.630884 0.537406 -0.08735
C_ C_ 0.155028 0.67637 0.530146 -0.05681
C_ C_ 0.161637 0.687312 0.500748 0.18498
C_ C_ 0.163243 0.738555 0.994511 -0.08735
C_ C_ 0.208515 0.761779 0.513118 -0.08735
C_ C_ 0.200219 0.755082 0.542623 -0.08735
C_ C_ 0.174944 0.712004 0.551741 0.18498
C_ C_ 0.208117 0.697641 0.600795 0.44287
C_ C_ 0.118214 0.707238 0.593722 0.44287
C_ C_ 0.107744 0.698062 0.622555 -0.05681
C_ C_ 0.0579741 0.697148 0.633029 -0.08735
C_ C_ 0.0488575 0.68885 0.661772 -0.08735
C_ C_ 0.0901461 0.689154 0.681769 -0.05681
C_ C_ 0.140188 0.686008 0.671339 -0.05681
C_ C_ 0.149254 0.694781 0.641683 -0.05681
C_ C_ 0.19804 0.695152 0.631521 -0.05681
C_ C_ 0.237918 0.690737 0.650253 -0.08735
C_ C_ 0.230871 0.687851 0.680388 -0.08735
C_ C_ 0.180072 0.684024 0.691519 -0.05681
C_ C_ 0.167726 0.679178 0.721533 0.44287
C_ C_ 0.0803208 0.686706 0.711435 0.44287
C_ C_ 0.10425 0.667429 0.759052 0.18498
C_ C_ 0.0807251 0.621699 0.764117 -0.08735
C_ C_ 0.0763941 0.603286 0.792966 -0.08735
C_ C_ 0.082504 0.636721 0.815903 -0.08735
C_ C_ 0.102276 0.68608 0.811727 0.18498
C_ C_ 0.110215 0.703564 0.782323 -0.05681
C_ C_ 0.12821 0.753496 0.777573 -0.08735
C_ C_ 0.146347 0.779629 0.802227 -0.08735
C_ C_ 0.141394 0.75901 0.82943 0.1947
C_ C_ 0.274735 0.827776 0.658986 0.68181
C_ C_ 0.217889 0.832573 0.653364 -0.05681
C_ C_ 0.182499 0.825379 0.675729 -0.08735
C_ C_ 0.13022 0.824713 0.670237 -0.05681
C_ C_ 0.112666 0.830444 0.642017 -0.05681
C_ C_ 0.147804 0.834801 0.619331 -0.08735
C_ C_ 0.200037 0.835186 0.625078 -0.08735
C_ C_ 0.0953329 0.815646 0.693613 -0.08735
C_ C_ 0.044605 0.821042 0.688354 -0.08735
C_ C_ 0.0250562 0.8228 0.660035 -0.05681
C_ C_ 0.06105 0.823184 0.637019 -0.08735
C_ C_ 0.377165 0.730144 0.664606 0.68181
C_ C_ 0.365591 0.926189 0.65129 0.68181
C_ C_ 0.361426 0.98346 0.649157 -0.05681
C_ C_ 0.366839 0.51497 0.670975 -0.08735
C_ C_ 0.375759 0.566698 0.668249 -0.05681
C_ C_ 0.37213 0.591826 0.642581 -0.05681
C_ C_ 0.358492 0.562756 0.619121 -0.08735
C_ C_ 0.370227 1.00617567 0.623207 -0.08735
C_ C_ 0.392853 0.596801 0.691735 -0.08735
C_ C_ 0.395185 0.64919 0.690031 -0.08735
C_ C_ 0.383024 0.67426 0.665334 -0.05681
C_ C_ 0.379372 0.644989 0.639723 -0.08735
C_ C_ 0.474906 0.836715 0.658466 0.68181
C_ C_ 0.414138 0.884245 0.734819 0.1947
C_ C_ 0.424605 0.898472 0.761742 -0.08735
C_ C_ 0.408656 0.867282 0.784618 -0.08735
C_ C_ 0.3688 0.830619 0.780104 -0.05681
C_ C_ 0.355712 0.819127 0.751158 0.18498
C_ C_ 0.318522 0.782634 0.745163 -0.08735
C_ C_ 0.300237 0.752987 0.766676 -0.08735
C_ C_ 0.31239 0.76426 0.795023 -0.08735
C_ C_ 0.348967 0.801318 0.802364 0.18498
C_ C_ 0.317116 0.827322 0.84904 0.44287
C_ C_ 0.404911 0.803502 0.845153 0.44287
C_ C_ 0.412236 0.811572 0.874804 -0.05681
C_ C_ 0.459305 0.804707 0.887963 -0.08735
C_ C_ 0.465203 0.815371 0.918519 -0.08735
C_ C_ 0.422832 0.82795 0.935612 -0.05681
C_ C_ 0.372835 0.828535 0.921885 -0.05681
C_ C_ 0.369982 0.829164 0.891669 -0.05681
C_ C_ 0.322605 0.835703 0.878075 -0.05681
C_ C_ 0.278524 0.838876 0.895565 -0.08735
C_ C_ 0.282192 0.843283 0.925848 -0.08735
C_ C_ 0.329769 0.835322 0.939293 -0.05681
C_ C_ 0.337091 0.841804 0.96913 0.44287
C_ C_ 0.427428 0.828985 0.965766 0.44287
C_ C_ 0.394498 0.852128 0.510078 0.18498
C_ C_ 0.411492 0.902114 0.515618 -0.08735
C_ C_ 0.431663 0.913252 0.542543 -0.08735
C_ C_ 0.422981 0.880013 0.565319 -0.08735
C_ C_ 0.38889 0.838916 0.5621 0.18498
C_ C_ 0.380495 0.820762 0.533515 -0.05681
C_ C_ 0.357185 0.774029 0.529284 -0.08735
C_ C_ 0.338488 0.747389 0.553042 -0.08735
C_ C_ 0.343023 0.767956 0.580669 0.1947
N_ N_ 0.119401 0.666486 0.977389 -0.29468
N_ N_ 0.16672 0.705959 0.58269 -0.17154
N_ N_ 0.118444 0.680302 0.730881 -0.17154
N_ N_ 0.121535 0.711699 0.83322 -0.29468
N_ N_ 0.377561 0.847067 0.729694 -0.29468
N_ N_ 0.358569 0.813386 0.832209 -0.17154
N_ N_ 0.385022 0.840839 0.981653 -0.17154
N_ N_ 0.370618 0.811393 0.586036 -0.29468
O_ O_ 0.201869 0.688692 0.927355 -0.58347
O_ O_ 0.19079 0.703421 0.881885 -0.58347
O_ O_ 0.123408 0.759626 0.932911 -0.58347
O_ O_ 0.106415 0.764582 0.888387 -0.58347
O_ O_ 0.134658 0.608824 0.923035 -0.58347
O_ O_ 0.128484 0.617082 0.877312 -0.58347
O_ O_ 0.0556024 0.677547 0.926288 -0.58347
O_ O_ 0.0415177 0.679715 0.879479 -0.58347
O_ O_ 0.0812327 0.717752 0.575338 -0.46727
O_ O_ 0.253304 0.689885 0.589876 -0.46727
O_ O_ 0.0351438 0.698429 0.720448 -0.46727
O_ O_ 0.204171 0.679109 0.741482 -0.46727
O_ O_ 0.293086 0.828085 0.683387 -0.58347
O_ O_ 0.303668 0.816483 0.638396 -0.58347
O_ O_ 0.370917 0.754827 0.688543 -0.58347
O_ O_ 0.388638 0.755 0.642076 -0.58347
O_ O_ 0.368148 0.903852 0.675136 -0.58347
O_ O_ 0.365544 0.900424 0.62868 -0.58347
O_ O_ 0.44847 0.826348 0.680828 -0.58347
O_ O_ 0.454498 0.843136 0.634008 -0.58347
O_ O_ 0.43863 0.777641 0.830948 -0.46727
O_ O_ 0.272486 0.829666 0.838219 -0.46727
O_ O_ 0.470845 0.826051 0.979185 -0.46727
O_ O_ 0.295805 0.85014 0.984628 -0.46727
Zn Zn 0.633077 0.185586 0.383251 0.90689
Zn Zn 0.641125 0.181006 0.431394 0.90689
Zn Zn 0.871879 0.303691 0.13191 0.90689
Zn Zn 0.859419 0.305995 0.179106 0.90689
H_ H_ 0.812153 0.196132 0.445832 0.11455
H_ H_ 0.88117 0.172932 0.346758 0.11455
H_ H_ 0.786444 0.168001 0.357434 0.11455
H_ H_ 0.898133 0.210077 0.463756 0.11455
H_ H_ 0.989851 0.216207 0.45792 0.11455
H_ H_ 0.967535 0.178404 0.366361 0.11455
H_ H_ 0.676082 0.0119446 0.439101 0.11455
H_ H_ 0.63099 0.436364 0.351176 0.11455
H_ H_ 0.625146 0.0289992 0.349837 0.11455
H_ H_ 0.645989 0.425122 0.469235 0.11455
H_ H_ 0.614189 0.337146 0.465001 0.11455
H_ H_ 0.61153 0.347705 0.373195 0.11455
H_ H_ 0.595049 0.108382 0.467516 0.11455
H_ H_ 0.555741 0.0839308 0.014309 0.11455
H_ H_ 0.586666 0.125426 0.0551812 0.11455
H_ H_ 0.704023 0.248756 0.477427 0.11455
H_ H_ 0.708488 0.303367 0.0203539 0.11455
H_ H_ 0.667939 0.284632 0.0655422 0.11455
H_ H_ 0.499925 0.189768 0.127202 0.11455
H_ H_ 0.49122 0.187409 0.17901 0.11455
H_ H_ 0.754091 0.163189 0.137912 0.11455
H_ H_ 0.744955 0.146961 0.187354 0.11455
H_ H_ 0.565396 0.0842484 0.252594 0.11455
H_ H_ 0.552311 0.0575693 0.303181 0.11455
H_ H_ 0.577315 0.115358 0.343246 0.11455
H_ H_ 0.670966 0.233391 0.255873 0.11455
H_ H_ 0.69538 0.287146 0.296886 0.11455
H_ H_ 0.682294 0.263329 0.345401 0.11455
H_ H_ 0.691863 0.28242 0.194455 0.11455
H_ H_ 0.627033 0.334189 0.0988692 0.11455
H_ H_ 0.71713 0.323476 0.105204 0.11455
H_ H_ 0.610864 0.299636 0.213424 0.11455
H_ H_ 0.514451 0.304583 0.208727 0.11455
H_ H_ 0.539442 0.336385 0.117971 0.11455
H_ H_ 0.876614 0.474222 0.192589 0.11455
H_ H_ 0.868595 0.0501643 0.0973886 0.11455
H_ H_ 0.854459 0.458816 0.101891 0.11455
H_ H_ 0.91497 0.0595894 0.210061 0.11455
H_ H_ 0.903813 0.147405 0.208359 0.11455
H_ H_ 0.844497 0.132443 0.120467 0.11455
H_ H_ 0.920259 0.379929 0.213133 0.11455
H_ H_ 0.927848 0.415975 0.260372 0.11455
H_ H_ 0.897536 0.370825 0.302183 0.11455
H_ H_ 0.810229 0.240363 0.22362 0.11455
H_ H_ 0.788097 0.183249 0.266917 0.11455
H_ H_ 0.806699 0.21513 0.316484 0.11455
H_ H_ 0.988059 0.31359 0.374073 0.11455
H_ H_ -0.00752699999999995 0.322933 0.425782 0.11455
H_ H_ 0.731872 0.317959 0.38231 0.11455
H_ H_ 0.736982 0.349243 0.431343 0.11455
H_ H_ 0.897713 0.430131 0.499888 0.11455
H_ H_ 0.956824 0.419882 0.0442831 0.11455
H_ H_ 0.918128 0.380487 0.085859 0.11455
H_ H_ 0.830952 0.250598 0.00599436 0.11455
H_ H_ 0.801688 0.201737 0.0456975 0.11455
H_ H_ 0.832815 0.225271 0.0946953 0.11455
C_ C_ 0.735765 0.191274 0.405154 0.68181
C_ C_ 0.792695 0.188931 0.400823 -0.05681
C_ C_ 0.825407 0.194229 0.424602 -0.08735
C_ C_ 0.876476 0.196854 0.419656 -0.05681
C_ C_ 0.896763 0.185799 0.391944 -0.05681
C_ C_ 0.865036 0.178865 0.368726 -0.08735
C_ C_ 0.811132 0.178659 0.373533 -0.08735
C_ C_ 0.909911 0.203076 0.442618 -0.08735
C_ C_ 0.964252 0.203362 0.439644 -0.08735
C_ C_ 0.984892 0.194652 0.412084 -0.05681
C_ C_ 0.950891 0.185979 0.387874 -0.08735
C_ C_ 0.620472 0.280987 0.415431 0.68181
C_ C_ 0.653139 0.0844854 0.399324 0.68181
C_ C_ 0.648358 0.0294171 0.395855 -0.05681
C_ C_ 0.635043 0.496772 0.425808 -0.08735
C_ C_ 0.62899 0.443416 0.424378 -0.05681
C_ C_ 0.623244 0.419501 0.396458 -0.05681
C_ C_ 0.629756 0.451784 0.372568 -0.08735
C_ C_ 0.638756 0.503367 0.374862 -0.08735
C_ C_ 0.633871 0.411396 0.448145 -0.08735
C_ C_ 0.623862 0.358035 0.445596 -0.08735
C_ C_ 0.618436 0.336502 0.418418 -0.05681
C_ C_ 0.613698 0.367536 0.394186 -0.08735
C_ C_ 0.537251 0.177855 0.408315 0.68181
C_ C_ 0.611637 0.128112 0.485292 0.1947
C_ C_ 0.59171 0.103494 0.0114428 -0.08735
C_ C_ 0.60632 0.133327 0.0344087 -0.08735
C_ C_ 0.634558 0.177632 0.0314676 -0.05681
C_ C_ 0.652485 0.189194 1.00251307 0.18498
C_ C_ 0.689048 0.240656 0.499237 -0.08735
C_ C_ 0.689318 0.266736 0.0233602 -0.08735
C_ C_ 0.665818 0.255732 0.049411 -0.08735
C_ C_ 0.642015 0.210406 0.0547885 0.18498
C_ C_ 0.677026 0.182831 0.100382 0.44287
C_ C_ 0.589175 0.199754 0.09726 0.44287
C_ C_ 0.581616 0.189203 0.126775 -0.05681
C_ C_ 0.534101 0.188443 0.140179 -0.08735
C_ C_ 0.53102 0.185989 0.169708 -0.08735
C_ C_ 0.573703 0.172702 0.186951 -0.05681
C_ C_ 0.620852 0.16961 0.173183 -0.05681
C_ C_ 0.626354 0.178522 0.144048 -0.05681
C_ C_ 0.673073 0.17502 0.129763 -0.05681
C_ C_ 0.714851 0.162146 0.146336 -0.08735
C_ C_ 0.711676 0.155661 0.175604 -0.08735
C_ C_ 0.665246 0.16025 0.189529 -0.05681
C_ C_ 0.65689 0.148685 0.218583 0.44287
C_ C_ 0.570938 0.172238 0.216638 0.44287
C_ C_ 0.607145 0.149783 0.263103 0.18498
C_ C_ 0.579581 0.106588 0.270227 -0.08735
C_ C_ 0.571793 0.0924431 0.297959 -0.08735
C_ C_ 0.589139 0.12125 0.320576 -0.08735
C_ C_ 0.617974 0.165513 0.314001 0.18498
C_ C_ 0.631848 0.175225 0.285185 -0.05681
C_ C_ 0.656984 0.221322 0.278813 -0.08735
C_ C_ 0.676141 0.252426 0.301259 -0.08735
C_ C_ 0.667698 0.237492 0.329252 0.1947
C_ C_ 0.767295 0.300006 0.154859 0.68181
C_ C_ 0.71228 0.298889 0.14982 -0.05681
C_ C_ 0.677723 0.292367 0.17278 -0.08735
C_ C_ 0.6254 0.304768 0.16862 -0.05681
C_ C_ 0.60588 0.315189 0.14178 -0.05681
C_ C_ 0.640206 0.318884 0.119771 -0.08735
C_ C_ 0.692771 0.316063 0.123594 -0.08735
C_ C_ 0.592645 0.304156 0.192001 -0.08735
C_ C_ 0.538908 0.307074 0.188882 -0.08735
C_ C_ 0.51882 0.324456 0.162242 -0.05681
C_ C_ 0.55361 0.329846 0.13919 -0.08735
C_ C_ 0.872709 0.203676 0.161817 0.68181
C_ C_ 0.863904 0.400962 0.150457 0.68181
C_ C_ 0.86374 0.457292 0.148056 -0.05681
C_ C_ 0.879734 -0.011122999999999994 0.171075 -0.08735
C_ C_ 0.879187 0.0420381 0.169335 -0.05681
C_ C_ 0.866733 0.0644934 0.144011 -0.05681
C_ C_ 0.859006 0.034686 0.118507 -0.08735
C_ C_ 0.855971 0.48125 0.121585 -0.08735
C_ C_ 0.896743 0.0734982 0.192363 -0.08735
C_ C_ 0.895469 0.124799 0.189444 -0.08735
C_ C_ 0.875787 0.147406 0.164064 -0.05681
C_ C_ 0.862606 0.11691 0.140385 -0.08735
C_ C_ 0.962976 0.312268 0.155734 0.68181
C_ C_ 0.897038 0.363082 0.229572 0.1947
C_ C_ 0.906011 0.382399 0.256776 -0.08735
C_ C_ 0.888411 0.355654 0.281753 -0.08735
C_ C_ 0.862856 0.310367 0.277554 -0.05681
C_ C_ 0.852485 0.292172 0.248762 0.18498
C_ C_ 0.819403 0.250033 0.245403 -0.08735
C_ C_ 0.806884 0.220068 0.271044 -0.08735
C_ C_ 0.820495 0.237477 0.297907 -0.08735
C_ C_ 0.851486 0.280333 0.301849 0.18498
C_ C_ 0.811274 0.309382 0.345738 0.44287
C_ C_ 0.899943 0.297738 0.34398 0.44287
C_ C_ 0.904579 0.315512 0.372187 -0.05681
C_ C_ 0.952225 0.319574 0.385774 -0.08735
C_ C_ 0.956675 0.32489 0.415685 -0.08735
C_ C_ 0.910588 0.329389 0.431925 -0.05681
C_ C_ 0.862956 0.334237 0.418284 -0.05681
C_ C_ 0.860629 0.324284 0.388585 -0.05681
C_ C_ 0.813692 0.320627 0.375094 -0.05681
C_ C_ 0.768341 0.324735 0.392044 -0.08735
C_ C_ 0.770241 0.334742 0.421132 -0.08735
C_ C_ 0.818193 0.340292 0.435403 -0.05681
C_ C_ 0.822715 0.343799 0.465911 0.44287
C_ C_ 0.911033 0.335711 0.462616 0.44287
C_ C_ 0.88351 0.338667 0.00843037 0.18498
C_ C_ 0.919935 0.376609 0.0141251 -0.08735
C_ C_ 0.927797 0.391981 0.041716 -0.08735
C_ C_ 0.905886 0.368295 0.0652784 -0.08735
C_ C_ 0.880201 0.322663 0.0608271 0.18498
C_ C_ 0.866438 0.307391 0.0312301 -0.05681
C_ C_ 0.841046 0.262018 0.0267857 -0.08735
C_ C_ 0.828549 0.230144 0.0495621 -0.08735
C_ C_ 0.840954 0.246714 0.0773336 0.1947
N_ N_ 0.644904 0.167715 0.480365 -0.29468
N_ N_ 0.635945 0.196217 0.0845481 -0.17154
N_ N_ 0.613305 0.162755 0.233377 -0.17154
N_ N_ 0.636811 0.196515 0.335562 -0.29468
N_ N_ 0.867661 0.322378 0.225524 -0.29468
N_ N_ 0.854541 0.299978 0.330268 -0.17154
N_ N_ 0.868959 0.339659 0.479406 -0.17154
N_ N_ 0.866392 0.291647 0.0819644 -0.29468
O_ O_ 0.716318 0.180694 0.429067 -0.58347
O_ O_ 0.708571 0.199408 0.384019 -0.58347
O_ O_ 0.636624 0.255568 0.436385 -0.58347
O_ O_ 0.6173 0.260648 0.390841 -0.58347
O_ O_ 0.645215 0.102967 0.423587 -0.58347
O_ O_ 0.652376 0.113353 0.377062 -0.58347
O_ O_ 0.564547 0.174763 0.43147 -0.58347
O_ O_ 0.558827 0.179957 0.383814 -0.58347
O_ O_ 0.550296 0.211989 0.0820145 -0.46727
O_ O_ 0.719606 0.170085 0.0865477 -0.46727
O_ O_ 0.524013 0.168499 0.227925 -0.46727
O_ O_ 0.6965 0.135115 0.234231 -0.46727
O_ O_ 0.784114 0.300518 0.180966 -0.58347
O_ O_ 0.795954 0.291156 0.13461 -0.58347
O_ O_ 0.861588 0.228979 0.184396 -0.58347
O_ O_ 0.886522 0.226178 0.138435 -0.58347
O_ O_ 0.858315 0.379562 0.173994 -0.58347
O_ O_ 0.860615 0.376235 0.127392 -0.58347
O_ O_ 0.933814 0.309913 0.176905 -0.58347
O_ O_ 0.946207 0.31224 0.130632 -0.58347
O_ O_ 0.937538 0.272089 0.332352 -0.46727
O_ O_ 0.767079 0.312556 0.331958 -0.46727
O_ O_ 0.955622 0.335625 0.474758 -0.46727
O_ O_ 0.782803 0.360615 0.480525 -0.46727
Zn Zn 0.628894 0.180863 0.881444 0.90689
Zn Zn 0.636541 0.178255 0.929758 0.90689
Zn Zn 0.869137 0.322075 0.631962 0.90689
Zn Zn 0.856891 0.324923 0.679767 0.90689
H_ H_ 0.80514 0.210049 0.939749 0.11455
H_ H_ 0.874617 0.150777 0.847771 0.11455
H_ H_ 0.78103 0.159285 0.854683 0.11455
H_ H_ 0.892004 0.191744 0.962342 0.11455
H_ H_ 0.984455 0.202072 0.953782 0.11455
H_ H_ 0.959948 0.171006 0.862568 0.11455
H_ H_ 0.654141 0.00918308 0.940309 0.11455
H_ H_ 0.603218 0.439072 0.845199 0.11455
H_ H_ 0.625131 0.0305418 0.85184 0.11455
H_ H_ 0.63612 0.426376 0.962139 0.11455
H_ H_ 0.629657 0.335836 0.958389 0.11455
H_ H_ 0.606317 0.34882 0.8662 0.11455
H_ H_ 0.575368 0.110963 0.966818 0.11455
H_ H_ 0.570768 0.0852909 0.515667 0.11455
H_ H_ 0.611622 0.123335 0.558227 0.11455
H_ H_ 0.697506 0.243203 0.977807 0.11455
H_ H_ 0.723019 0.307171 0.515958 0.11455
H_ H_ 0.698158 0.283377 0.56623 0.11455
H_ H_ 0.524202 0.203643 0.625415 0.11455
H_ H_ 0.511418 0.199761 0.677222 0.11455
H_ H_ 0.771987 0.15346 0.640754 0.11455
H_ H_ 0.756166 0.130868 0.689119 0.11455
H_ H_ 0.581348 0.0643556 0.75255 0.11455
H_ H_ 0.55695 0.0493202 0.801406 0.11455
H_ H_ 0.575871 0.11063 0.839453 0.11455
H_ H_ 0.654334 0.235195 0.755099 0.11455
H_ H_ 0.674362 0.292847 0.792523 0.11455
H_ H_ 0.680961 0.251027 0.84589 0.11455
H_ H_ 0.686102 0.290251 0.694365 0.11455
H_ H_ 0.62155 0.32106 0.597746 0.11455
H_ H_ 0.713241 0.325284 0.605444 0.11455
H_ H_ 0.610284 0.340294 0.712991 0.11455
H_ H_ 0.515007 0.333426 0.707241 0.11455
H_ H_ 0.540507 0.334994 0.615857 0.11455
H_ H_ 0.893616 0.490515 0.69083 0.11455
H_ H_ 0.851759 0.0718917 0.597218 0.11455
H_ H_ 0.814626 0.480681 0.610346 0.11455
H_ H_ 0.922439 0.0767721 0.708484 0.11455
H_ H_ 0.916582 0.168764 0.705498 0.11455
H_ H_ 0.859782 0.153946 0.618787 0.11455
H_ H_ 0.901308 0.400049 0.718135 0.11455
H_ H_ 0.929638 0.415324 0.76617 0.11455
H_ H_ 0.897317 0.361731 0.805949 0.11455
H_ H_ 0.799469 0.255877 0.720952 0.11455
H_ H_ 0.766216 0.201553 0.757658 0.11455
H_ H_ 0.785532 0.215851 0.8066 0.11455
H_ H_ 0.976625 0.284074 0.869257 0.11455
H_ H_ -0.009072999999999998 0.308198 0.921077 0.11455
H_ H_ 0.730138 0.324369 0.884555 0.11455
H_ H_ 0.735101 0.319811 0.938399 0.11455
H_ H_ 0.937897 0.399648 0.997941 0.11455
H_ H_ 0.913925 0.456308 0.548475 0.11455
H_ H_ 0.906175 0.395906 0.587363 0.11455
H_ H_ 0.821868 0.261448 0.50815 0.11455
H_ H_ 0.803027 0.209837 0.552681 0.11455
H_ H_ 0.814299 0.244877 0.596462 0.11455
C_ C_ 0.730975 0.187925 0.902812 0.68181
C_ C_ 0.785816 0.186428 0.897591 -0.05681
C_ C_ 0.820476 0.195422 0.91967 -0.08735
C_ C_ 0.873574 0.188058 0.916426 -0.05681
C_ C_ 0.894352 0.172537 0.889332 -0.05681
C_ C_ 0.859991 0.166236 0.867121 -0.08735
C_ C_ 0.807601 0.164644 0.871698 -0.08735
C_ C_ 0.906674 0.187179 0.939854 -0.08735
C_ C_ 0.958992 0.189289 0.935851 -0.08735
C_ C_ 0.9789 0.188216 0.907179 -0.05681
C_ C_ 0.94603 0.176518 0.884059 -0.08735
C_ C_ 0.623722 0.279904 0.908341 0.68181
C_ C_ 0.644132 0.0813285 0.900819 0.68181
C_ C_ 0.639071 0.0259462 0.896732 -0.05681
C_ C_ 0.627981 0.495627 0.919623 -0.08735
C_ C_ 0.621747 0.442174 0.916894 -0.05681
C_ C_ 0.617801 0.420344 0.889601 -0.05681
C_ C_ 0.618171 0.452567 0.86575 -0.08735
C_ C_ 0.627881 0.503841 0.86907 -0.08735
C_ C_ 0.62706 0.410756 0.940591 -0.08735
C_ C_ 0.628671 0.358351 0.938359 -0.08735
C_ C_ 0.622462 0.335664 0.910387 -0.05681
C_ C_ 0.616049 0.36726 0.886019 -0.08735
C_ C_ 0.533435 0.174228 0.908797 0.68181
C_ C_ 0.602439 0.120816 0.983774 0.1947
C_ C_ 0.596642 0.114235 0.513173 -0.08735
C_ C_ 0.619148 0.139439 0.536847 -0.08735
C_ C_ 0.649415 0.181059 0.532099 -0.05681
C_ C_ 0.663168 0.194972 0.503227 0.18498
C_ C_ 0.678637 0.233871 0.998873 -0.08735
C_ C_ 0.707718 0.27048 0.522187 -0.08735
C_ C_ 0.695408 0.255339 0.550869 -0.08735
C_ C_ 0.666585 0.211323 0.555826 0.18498
C_ C_ 0.701394 0.18357 0.601454 0.44287
C_ C_ 0.614179 0.204754 0.596325 0.44287
C_ C_ 0.607652 0.199625 0.626088 -0.05681
C_ C_ 0.557845 0.197921 0.638515 -0.08735
C_ C_ 0.54901 0.190803 0.667013 -0.08735
C_ C_ 0.590827 0.180139 0.684283 -0.05681
C_ C_ 0.638676 0.17367 0.673049 -0.05681
C_ C_ 0.647828 0.185925 0.643883 -0.05681
C_ C_ 0.695614 0.179777 0.631843 -0.05681
C_ C_ 0.734035 0.161646 0.649329 -0.08735
C_ C_ 0.724965 0.149059 0.678021 -0.08735
C_ C_ 0.678119 0.157754 0.69072 -0.05681
C_ C_ 0.668123 0.143801 0.718834 0.44287
C_ C_ 0.58285 0.172249 0.713084 0.44287
C_ C_ 0.609508 0.141821 0.760018 0.18498
C_ C_ 0.583305 0.0959659 0.768054 -0.08735
C_ C_ 0.573652 0.0837735 0.796571 -0.08735
C_ C_ 0.587061 0.119146 0.817376 -0.08735
C_ C_ 0.611577 0.165681 0.810849 0.18498
C_ C_ 0.619266 0.178987 0.782262 -0.05681
C_ C_ 0.645868 0.224024 0.776263 -0.08735
C_ C_ 0.659944 0.255801 0.798603 -0.08735
C_ C_ 0.659506 0.23497 0.827236 0.1947
C_ C_ 0.763506 0.312314 0.655324 0.68181
C_ C_ 0.708447 0.309327 0.651849 -0.05681
C_ C_ 0.674229 0.308283 0.674276 -0.08735
C_ C_ 0.624514 0.324616 0.670386 -0.05681
C_ C_ 0.605135 0.323142 0.642165 -0.05681
C_ C_ 0.637308 0.322393 0.619439 -0.08735
C_ C_ 0.687038 0.322517 0.624124 -0.08735
C_ C_ 0.59387 0.333414 0.69286 -0.08735
C_ C_ 0.541629 0.335382 0.688779 -0.08735
C_ C_ 0.518895 0.335775 0.661297 -0.05681
C_ C_ 0.55266 0.330723 0.637416 -0.08735
C_ C_ 0.878335 0.225525 0.661722 0.68181
C_ C_ 0.85441 0.420587 0.652108 0.68181
C_ C_ 0.856121 0.477359 0.648953 -0.05681
C_ C_ 0.889508 0.00867286 0.669167 -0.08735
C_ C_ 0.888502 0.0614361 0.667783 -0.05681
C_ C_ 0.878931 0.0848286 0.640579 -0.05681
C_ C_ 0.865298 0.0539436 0.616751 -0.08735
C_ C_ 0.837107 0.503767 0.625362 -0.08735
C_ C_ 0.900661 0.0921478 0.690728 -0.08735
C_ C_ 0.904999 0.14639 0.686662 -0.08735
C_ C_ 0.883957 0.169003 0.662407 -0.05681
C_ C_ 0.872814 0.13755 0.638694 -0.08735
C_ C_ 0.962025 0.337552 0.657759 0.68181
C_ C_ 0.889019 0.37359 0.734153 0.1947
C_ C_ 0.902905 0.384271 0.762054 -0.08735
C_ C_ 0.886225 0.354385 0.78466 -0.08735
C_ C_ 0.850837 0.314854 0.779093 -0.05681
C_ C_ 0.838155 0.304731 0.749406 0.18498
C_ C_ 0.805234 0.265065 0.743031 -0.08735
C_ C_ 0.784666 0.236094 0.764024 -0.08735
C_ C_ 0.799637 0.241474 0.79119 -0.08735
C_ C_ 0.829994 0.28218 0.800784 0.18498
C_ C_ 0.798753 0.309537 0.847691 0.44287
C_ C_ 0.887071 0.290755 0.842395 0.44287
C_ C_ 0.895949 0.305447 0.871018 -0.05681
C_ C_ 0.945949 0.302721 0.88281 -0.08735
C_ C_ 0.953718 0.309402 0.91265 -0.08735
C_ C_ 0.912517 0.315483 0.930512 -0.05681
C_ C_ 0.86335 0.317448 0.918596 -0.05681
C_ C_ 0.854409 0.313642 0.889841 -0.05681
C_ C_ 0.806268 0.317878 0.877604 -0.05681
C_ C_ 0.76444 0.319727 0.895163 -0.08735
C_ C_ 0.770774 0.321964 0.925229 -0.08735
C_ C_ 0.820521 0.326754 0.937211 -0.05681
C_ C_ 0.829045 0.329865 0.96711 0.44287
C_ C_ 0.916357 0.315615 0.960301 0.44287
C_ C_ 0.874619 0.353585 0.50961 0.18498
C_ C_ 0.892248 0.403701 0.516369 -0.08735
C_ C_ 0.903767 0.417426 0.543562 -0.08735
C_ C_ 0.89525 0.384759 0.566204 -0.08735
C_ C_ 0.872463 0.337355 0.562042 0.18498
C_ C_ 0.862307 0.319658 0.532467 -0.05681
C_ C_ 0.836115 0.2738 0.529656 -0.08735
C_ C_ 0.828127 0.243639 0.552985 -0.08735
C_ C_ 0.831512 0.267426 0.5805 0.1947
N_ N_ 0.633378 0.162269 0.978848 -0.29468
N_ N_ 0.660707 0.196791 0.584855 -0.17154
N_ N_ 0.620094 0.15315 0.729832 -0.17154
N_ N_ 0.634262 0.19188 0.832633 -0.29468
N_ N_ 0.856039 0.336642 0.72834 -0.29468
N_ N_ 0.839353 0.293728 0.831118 -0.17154
N_ N_ 0.876696 0.326918 0.978474 -0.17154
N_ N_ 0.858481 0.309453 0.585233 -0.29468
O_ O_ 0.712905 0.177184 0.926809 -0.58347
O_ O_ 0.702597 0.189745 0.882172 -0.58347
O_ O_ 0.636983 0.256273 0.930236 -0.58347
O_ O_ 0.615306 0.258459 0.884201 -0.58347
O_ O_ 0.638024 0.10162 0.925063 -0.58347
O_ O_ 0.641993 0.107223 0.878255 -0.58347
O_ O_ 0.561911 0.181015 0.930188 -0.58347
O_ O_ 0.554312 0.170894 0.883902 -0.58347
O_ O_ 0.575379 0.218444 0.580581 -0.46727
O_ O_ 0.743481 0.174418 0.588857 -0.46727
O_ O_ 0.537544 0.179329 0.724034 -0.46727
O_ O_ 0.705995 0.13238 0.736604 -0.46727
O_ O_ 0.783448 0.313619 0.680469 -0.58347
O_ O_ 0.790744 0.315891 0.633035 -0.58347
O_ O_ 0.869889 0.252266 0.683897 -0.58347
O_ O_ 0.882125 0.246235 0.637473 -0.58347
O_ O_ 0.844653 0.399535 0.675718 -0.58347
O_ O_ 0.86286 0.395247 0.62977 -0.58347
O_ O_ 0.934305 0.338082 0.679409 -0.58347
O_ O_ 0.943258 0.334709 0.632792 -0.58347
O_ O_ 0.926643 0.280777 0.825426 -0.46727
O_ O_ 0.752941 0.320155 0.835563 -0.46727
O_ O_ 0.960937 0.313542 0.970973 -0.46727
O_ O_ 0.789051 0.335962 0.984505 -0.46727
Zn Zn 0.62891 0.686697 0.382382 0.90689
Zn Zn 0.636998 0.681307 0.430029 0.90689
Zn Zn 0.865338 0.803563 0.131617 0.90689
Zn Zn 0.859421 0.806278 0.178164 0.90689
H_ H_ 0.808607 0.684147 0.448518 0.11455
H_ H_ 0.883256 0.664515 0.350238 0.11455
H_ H_ 0.792986 0.680063 0.35571 0.11455
H_ H_ 0.891533 0.677789 0.469341 0.11455
H_ H_ 0.983462 0.672699 0.464225 0.11455
H_ H_ 0.965206 0.671074 0.374559 0.11455
H_ H_ 0.636235 0.515088 0.445507 0.11455
H_ H_ 0.611616 0.940776 0.346054 0.11455
H_ H_ 0.636757 0.524822 0.354385 0.11455
H_ H_ 0.67536 0.924959 0.461486 0.11455
H_ H_ 0.669445 0.835455 0.45304 0.11455
H_ H_ 0.608949 0.854961 0.367868 0.11455
H_ H_ 0.571738 0.616216 0.466905 0.11455
H_ H_ 0.554112 0.573083 0.011255 0.11455
H_ H_ 0.603163 0.60685 0.0539559 0.11455
H_ H_ 0.696864 0.744414 0.475477 0.11455
H_ H_ 0.721809 0.784545 0.0218934 0.11455
H_ H_ 0.69286 0.762564 0.0686877 0.11455
H_ H_ 0.505661 0.68431 0.121731 0.11455
H_ H_ 0.494044 0.677537 0.17317 0.11455
H_ H_ 0.759223 0.660355 0.142326 0.11455
H_ H_ 0.743511 0.645007 0.194027 0.11455
H_ H_ 0.565859 0.581193 0.256127 0.11455
H_ H_ 0.533225 0.575858 0.306625 0.11455
H_ H_ 0.578716 0.6212 0.344819 0.11455
H_ H_ 0.65807 0.741905 0.25857 0.11455
H_ H_ 0.695443 0.791882 0.294603 0.11455
H_ H_ 0.689843 0.762003 0.346779 0.11455
H_ H_ 0.689768 0.771974 0.190476 0.11455
H_ H_ 0.620531 0.842034 0.100347 0.11455
H_ H_ 0.71501 0.823648 0.105214 0.11455
H_ H_ 0.604347 0.783081 0.215016 0.11455
H_ H_ 0.513262 0.784391 0.206478 0.11455
H_ H_ 0.537044 0.832131 0.117174 0.11455
H_ H_ 0.887316 0.969803 0.191821 0.11455
H_ H_ 0.861755 0.552325 0.0970651 0.11455
H_ H_ 0.863155 0.959365 0.101027 0.11455
H_ H_ 0.864674 0.558319 0.215382 0.11455
H_ H_ 0.869419 0.649392 0.21039 0.11455
H_ H_ 0.854552 0.63682 0.118749 0.11455
H_ H_ 0.918523 0.879683 0.214034 0.11455
H_ H_ 0.929519 0.913944 0.262146 0.11455
H_ H_ 0.896066 0.865092 0.304477 0.11455
H_ H_ 0.802345 0.746505 0.221594 0.11455
H_ H_ 0.762364 0.698091 0.262443 0.11455
H_ H_ 0.790757 0.716618 0.313228 0.11455
H_ H_ 0.995234 0.780599 0.366368 0.11455
H_ H_ 0.0126976 0.78185 0.417639 0.11455
H_ H_ 0.751707 0.848363 0.389869 0.11455
H_ H_ 0.768861 0.844937 0.441687 0.11455
H_ H_ 0.959639 0.909545 0.496093 0.11455
H_ H_ 0.929685 0.930437 0.0493299 0.11455
H_ H_ 0.904305 0.876996 0.0875212 0.11455
H_ H_ 0.843828 0.74111 0.00462381 0.11455
H_ H_ 0.821033 0.686075 0.0452286 0.11455
H_ H_ 0.812685 0.72362 0.0954765 0.11455
C_ C_ 0.734999 0.690307 0.407118 0.68181
C_ C_ 0.791084 0.680919 0.402621 -0.05681
C_ C_ 0.824427 0.680853 0.426356 -0.08735
C_ C_ 0.873934 0.665976 0.423934 -0.05681
C_ C_ 0.895689 0.661049 0.397657 -0.05681
C_ C_ 0.866885 0.666626 0.372283 -0.08735
C_ C_ 0.813155 0.675431 0.375021 -0.08735
C_ C_ 0.904771 0.669382 0.4485 -0.08735
C_ C_ 0.957405 0.664766 0.445778 -0.08735
C_ C_ 0.980427 0.658042 0.418706 -0.05681
C_ C_ 0.947409 0.658252 0.394838 -0.08735
C_ C_ 0.627475 0.781454 0.409926 0.68181
C_ C_ 0.638254 0.583487 0.402536 0.68181
C_ C_ 0.634919 0.526538 0.401063 -0.05681
C_ C_ 0.660148 0.99743 0.419531 -0.08735
C_ C_ 0.653635 0.943332 0.417034 -0.05681
C_ C_ 0.63173 0.922831 0.390971 -0.05681
C_ C_ 0.621377 0.956311 0.367927 -0.08735
C_ C_ 0.629251 1.00805421 0.370218 -0.08735
C_ C_ 0.660602 0.911376 0.440549 -0.08735
C_ C_ 0.655885 0.859742 0.436337 -0.08735
C_ C_ 0.634852 0.838247 0.41165 -0.05681
C_ C_ 0.620104 0.871266 0.388819 -0.08735
C_ C_ 0.533753 0.682664 0.405878 0.68181
C_ C_ 0.594017 0.631829 0.484059 0.1947
C_ C_ 0.579869 0.603582 0.00825571 -0.08735
C_ C_ 0.606161 0.622471 0.0322187 -0.08735
C_ C_ 0.6287 0.669909 0.0300945 -0.05681
C_ C_ 0.638692 0.690971 1.00110027 0.18498
C_ C_ 0.676371 0.741226 0.494539 -0.08735
C_ C_ 0.693459 0.753805 0.0225424 -0.08735
C_ C_ 0.679 0.738982 0.0502047 -0.08735
C_ C_ 0.650443 0.696318 0.0546859 0.18498
C_ C_ 0.686143 0.672142 0.10142 0.44287
C_ C_ 0.597398 0.690327 0.0962979 0.44287
C_ C_ 0.588462 0.683288 0.124608 -0.05681
C_ C_ 0.540191 0.682793 0.13578 -0.08735
C_ C_ 0.53184 0.674118 0.164303 -0.08735
C_ C_ 0.572719 0.666047 0.183238 -0.05681
C_ C_ 0.622736 0.665135 0.171317 -0.05681
C_ C_ 0.631296 0.671596 0.141398 -0.05681
C_ C_ 0.679659 0.671007 0.131255 -0.05681
C_ C_ 0.720657 0.664078 0.149936 -0.08735
C_ C_ 0.711528 0.657136 0.17989 -0.08735
C_ C_ 0.662794 0.662936 0.190988 -0.05681
C_ C_ 0.654422 0.656444 0.220418 0.44287
C_ C_ 0.565803 0.667174 0.213695 0.44287
C_ C_ 0.601309 0.654258 0.26281 0.18498
C_ C_ 0.574875 0.611337 0.271372 -0.08735
C_ C_ 0.564576 0.600774 0.299993 -0.08735
C_ C_ 0.587341 0.628365 0.322536 -0.08735
C_ C_ 0.620233 0.669388 0.315389 0.18498
C_ C_ 0.626713 0.684302 0.285349 -0.05681
C_ C_ 0.65578 0.726842 0.279323 -0.08735
C_ C_ 0.677846 0.75429 0.30093 -0.08735
C_ C_ 0.673418 0.739153 0.329735 0.1947
C_ C_ 0.764106 0.79922 0.154787 0.68181
C_ C_ 0.709419 0.807398 0.150891 -0.05681
C_ C_ 0.675028 0.791419 0.172154 -0.08735
C_ C_ 0.623086 0.804005 0.16948 -0.05681
C_ C_ 0.603274 0.820271 0.142349 -0.05681
C_ C_ 0.636934 0.830669 0.12056 -0.08735
C_ C_ 0.689856 0.824621 0.124507 -0.08735
C_ C_ 0.590152 0.792393 0.192665 -0.08735
C_ C_ 0.538171 0.799022 0.189641 -0.08735
C_ C_ 0.518817 0.815062 0.162338 -0.05681
C_ C_ 0.551158 0.824908 0.138779 -0.08735
C_ C_ 0.867708 0.707221 0.16133 0.68181
C_ C_ 0.857347 0.902312 0.150431 0.68181
C_ C_ 0.861364 0.958123 0.148357 -0.05681
C_ C_ 0.868957 0.489237 0.172279 -0.08735
C_ C_ 0.86031 0.542537 0.169474 -0.05681
C_ C_ 0.8571 0.56492 0.142338 -0.05681
C_ C_ 0.858772 0.534219 0.118283 -0.08735
C_ C_ 0.85762 0.982048 0.1211 -0.08735
C_ C_ 0.866874 0.574969 0.193753 -0.08735
C_ C_ 0.867015 0.62604 0.190501 -0.08735
C_ C_ 0.86268 0.650261 0.163782 -0.05681
C_ C_ 0.857153 0.618145 0.13976 -0.08735
C_ C_ 0.962153 0.810438 0.153709 0.68181
C_ C_ 0.902146 0.859774 0.231575 0.1947
C_ C_ 0.904505 0.881092 0.25875 -0.08735
C_ C_ 0.888339 0.853276 0.282478 -0.08735
C_ C_ 0.854237 0.811892 0.278024 -0.05681
C_ C_ 0.841412 0.800091 0.248725 0.18498
C_ C_ 0.80688 0.759382 0.244115 -0.08735
C_ C_ 0.788517 0.730265 0.266652 -0.08735
C_ C_ 0.80101 0.742689 0.295618 -0.08735
C_ C_ 0.839782 0.779341 0.300367 0.18498
C_ C_ 0.816239 0.809694 0.349308 0.44287
C_ C_ 0.901384 0.787692 0.339928 0.44287
C_ C_ 0.913507 0.793975 0.369542 -0.05681
C_ C_ 0.963135 0.785064 0.380655 -0.08735
C_ C_ 0.974706 0.790495 0.410826 -0.08735
C_ C_ 0.936045 0.808174 0.429578 -0.05681
C_ C_ 0.886818 0.813704 0.418932 -0.05681
C_ C_ 0.876131 0.807094 0.389454 -0.05681
C_ C_ 0.826667 0.815565 0.378891 -0.05681
C_ C_ 0.789335 0.836082 0.398468 -0.08735
C_ C_ 0.80091 0.837852 0.427214 -0.08735
C_ C_ 0.847984 0.827536 0.438399 -0.05681
C_ C_ 0.858668 0.833069 0.467697 0.44287
C_ C_ 0.945668 0.814458 0.459016 0.44287
C_ C_ 0.881269 0.834473 0.0080721 0.18498
C_ C_ 0.903813 0.882429 0.0149438 -0.08735
C_ C_ 0.916171 0.893734 0.0437215 -0.08735
C_ C_ 0.89505 0.865815 0.0657075 -0.08735
C_ C_ 0.869001 0.820136 0.0607367 0.18498
C_ C_ 0.866876 0.802916 0.0315628 -0.05681
C_ C_ 0.848605 0.755607 0.0275266 -0.08735
C_ C_ 0.830556 0.725776 0.0496789 -0.08735
C_ C_ 0.833013 0.742309 0.0780878 0.1947
N_ N_ 0.628719 0.669906 0.478312 -0.29468
N_ N_ 0.643607 0.681446 0.0841334 -0.17154
N_ N_ 0.607474 0.663415 0.232259 -0.17154
N_ N_ 0.642332 0.697489 0.336549 -0.29468
N_ N_ 0.866029 0.822677 0.226265 -0.29468
N_ N_ 0.85192 0.790351 0.330961 -0.17154
N_ N_ 0.906844 0.825825 0.477225 -0.17154
N_ N_ 0.850982 0.791173 0.0831197 -0.29468
O_ O_ 0.713612 0.686221 0.431441 -0.58347
O_ O_ 0.706354 0.689115 0.384995 -0.58347
O_ O_ 0.631355 0.754613 0.431884 -0.58347
O_ O_ 0.622471 0.763039 0.386067 -0.58347
O_ O_ 0.64124 0.604897 0.426419 -0.58347
O_ O_ 0.641309 0.609866 0.38039 -0.58347
O_ O_ 0.562048 0.674664 0.427797 -0.58347
O_ O_ 0.55398 0.684 0.381222 -0.58347
O_ O_ 0.56034 0.708989 0.0802109 -0.46727
O_ O_ 0.731923 0.673338 0.0897575 -0.46727
O_ O_ 0.521844 0.676282 0.225013 -0.46727
O_ O_ 0.692412 0.644964 0.236447 -0.46727
O_ O_ 0.784497 0.802621 0.179003 -0.58347
O_ O_ 0.790746 0.79251 0.133229 -0.58347
O_ O_ 0.861203 0.736586 0.183024 -0.58347
O_ O_ 0.874715 0.72857 0.137444 -0.58347
O_ O_ 0.858197 0.879775 0.174512 -0.58347
O_ O_ 0.860404 0.877356 0.127858 -0.58347
O_ O_ 0.93317 0.810772 0.17584 -0.58347
O_ O_ 0.941492 0.815849 0.128843 -0.58347
O_ O_ 0.933116 0.770416 0.322016 -0.46727
O_ O_ 0.771701 0.823811 0.340415 -0.46727
O_ O_ 0.991514 0.807866 0.47041 -0.46727
O_ O_ 0.829194 0.860396 0.484077 -0.46727
Zn Zn 0.616795 0.685194 0.880737 0.90689
Zn Zn 0.62784 0.67864 0.929941 0.90689
Zn Zn 0.877571 0.819512 0.629138 0.90689
Zn Zn 0.866604 0.825441 0.67718 0.90689
H_ H_ 0.802005 0.682458 0.947047 0.11455
H_ H_ 0.863266 0.675261 0.847899 0.11455
H_ H_ 0.774844 0.674111 0.856511 0.11455
H_ H_ 0.885376 0.66322 0.965213 0.11455
H_ H_ 0.975079 0.665045 0.956874 0.11455
H_ H_ 0.948994 0.677026 0.865729 0.11455
H_ H_ 0.620527 0.511584 0.940154 0.11455
H_ H_ 0.616329 0.936718 0.8477 0.11455
H_ H_ 0.631487 0.527238 0.850081 0.11455
H_ H_ 0.648501 0.924231 0.963948 0.11455
H_ H_ 0.630288 0.837772 0.960309 0.11455
H_ H_ 0.608249 0.852871 0.867555 0.11455
H_ H_ 0.566502 0.610208 0.964436 0.11455
H_ H_ 0.571925 0.574912 0.516057 0.11455
H_ H_ 0.60546 0.621873 0.55566 0.11455
H_ H_ 0.678432 0.749989 0.976579 0.11455
H_ H_ 0.717949 0.805007 0.51261 0.11455
H_ H_ 0.690496 0.78524 0.562535 0.11455
H_ H_ 0.509749 0.727801 0.623455 0.11455
H_ H_ 0.499653 0.720749 0.67467 0.11455
H_ H_ 0.761558 0.692272 0.639571 0.11455
H_ H_ 0.749765 0.680627 0.689068 0.11455
H_ H_ 0.563029 0.599498 0.744546 0.11455
H_ H_ 0.528311 0.578703 0.793954 0.11455
H_ H_ 0.552084 0.629199 0.836252 0.11455
H_ H_ 0.654073 0.757133 0.758099 0.11455
H_ H_ 0.679092 0.804214 0.800544 0.11455
H_ H_ 0.682347 0.752408 0.848832 0.11455
H_ H_ 0.700492 0.813334 0.692898 0.11455
H_ H_ 0.630758 0.864114 0.597635 0.11455
H_ H_ 0.72256 0.83842 0.601172 0.11455
H_ H_ 0.618838 0.836176 0.716736 0.11455
H_ H_ 0.529514 0.836293 0.709019 0.11455
H_ H_ 0.54446 0.848784 0.617261 0.11455
H_ H_ 0.90332 0.990681 0.687928 0.11455
H_ H_ 0.830959 0.572375 0.601679 0.11455
H_ H_ 0.853082 0.980081 0.599893 0.11455
H_ H_ 0.900642 0.57555 0.71135 0.11455
H_ H_ 0.897602 0.668311 0.708632 0.11455
H_ H_ 0.842541 0.657342 0.621431 0.11455
H_ H_ 0.913051 0.902189 0.71222 0.11455
H_ H_ 0.94118 0.923741 0.7613 0.11455
H_ H_ 0.887155 0.89441 0.801406 0.11455
H_ H_ 0.802012 0.76249 0.719657 0.11455
H_ H_ 0.761973 0.719262 0.761384 0.11455
H_ H_ 0.771022 0.755036 0.809534 0.11455
H_ H_ 0.970008 0.79152 0.869242 0.11455
H_ H_ 0.985443 0.795053 0.922379 0.11455
H_ H_ 0.723573 0.83753 0.886433 0.11455
H_ H_ 0.736876 0.841952 0.938625 0.11455
H_ H_ 0.913699 0.909381 0.998241 0.11455
H_ H_ 0.992462 0.922548 0.544724 0.11455
H_ H_ 0.942744 0.883581 0.586204 0.11455
H_ H_ 0.863392 0.750227 0.507272 0.11455
H_ H_ 0.819212 0.71358 0.548543 0.11455
H_ H_ 0.828575 0.752026 0.594755 0.11455
C_ C_ 0.723857 0.676163 0.906364 0.68181
C_ C_ 0.780411 0.677401 0.902722 -0.05681
C_ C_ 0.813252 0.67762 0.925733 -0.08735
C_ C_ 0.864319 0.673491 0.920605 -0.05681
C_ C_ 0.883278 0.674175 0.892959 -0.05681
C_ C_ 0.849161 0.676628 0.86987 -0.08735
C_ C_ 0.799297 0.67999 0.874573 -0.08735
C_ C_ 0.898072 0.671201 0.943997 -0.08735
C_ C_ 0.950306 0.670923 0.939149 -0.08735
C_ C_ 0.969599 0.673389 0.911172 -0.05681
C_ C_ 0.933936 0.673691 0.886937 -0.08735
C_ C_ 0.615168 0.781461 0.912435 0.68181
C_ C_ 0.624721 0.584648 0.897795 0.68181
C_ C_ 0.620963 0.527876 0.895135 -0.05681
C_ C_ 0.641182 -0.005484999999999962 0.920388 -0.08735
C_ C_ 0.636913 0.941258 0.918535 -0.05681
C_ C_ 0.62657 0.920641 0.891579 -0.05681
C_ C_ 0.622951 0.952667 0.868551 -0.08735
C_ C_ 0.623881 0.00545692 0.871096 -0.08735
C_ C_ 0.641407 0.909925 0.942568 -0.08735
C_ C_ 0.627754 0.859195 0.940924 -0.08735
C_ C_ 0.618138 0.837851 0.913442 -0.05681
C_ C_ 0.615797 0.869411 0.888558 -0.08735
C_ C_ 0.521614 0.684172 0.903269 0.68181
C_ C_ 0.585452 0.627104 0.981892 0.1947
C_ C_ 0.589629 0.611947 0.512322 -0.08735
C_ C_ 0.611645 0.63678 0.53394 -0.08735
C_ C_ 0.642763 0.680584 0.528565 -0.05681
C_ C_ 0.649627 0.695405 0.499913 0.18498
C_ C_ 0.670902 0.734643 0.997604 -0.08735
C_ C_ 0.692507 0.773787 0.516555 -0.08735
C_ C_ 0.67655 0.764019 0.544653 -0.08735
C_ C_ 0.652966 0.717104 0.551032 0.18498
C_ C_ 0.687147 0.698174 0.598281 0.44287
C_ C_ 0.59949 0.713103 0.593577 0.44287
C_ C_ 0.591837 0.711055 0.623172 -0.05681
C_ C_ 0.542732 0.717656 0.636084 -0.08735
C_ C_ 0.537369 0.71196 0.665488 -0.08735
C_ C_ 0.580246 0.702695 0.683238 -0.05681
C_ C_ 0.626779 0.692772 0.670575 -0.05681
C_ C_ 0.633624 0.702681 0.640932 -0.05681
C_ C_ 0.682054 0.694209 0.628096 -0.05681
C_ C_ 0.723424 0.689283 0.646474 -0.08735
C_ C_ 0.716213 0.680217 0.675763 -0.08735
C_ C_ 0.668223 0.679541 0.68861 -0.05681
C_ C_ 0.659526 0.676235 0.718379 0.44287
C_ C_ 0.572495 0.700521 0.711907 0.44287
C_ C_ 0.599035 0.668595 0.758278 0.18498
C_ C_ 0.572456 0.62355 0.763032 -0.08735
C_ C_ 0.55323 0.611289 0.791199 -0.08735
C_ C_ 0.569507 0.637299 0.814605 -0.08735
C_ C_ 0.606393 0.676352 0.811189 0.18498
C_ C_ 0.616911 0.696233 0.782423 -0.05681
C_ C_ 0.647156 0.739833 0.778919 -0.08735
C_ C_ 0.663234 0.765191 0.802994 -0.08735
C_ C_ 0.659911 0.740613 0.829851 0.1947
C_ C_ 0.772711 0.821951 0.65156 0.68181
C_ C_ 0.718247 0.830026 0.647314 -0.05681
C_ C_ 0.687141 0.831785 0.672123 -0.08735
C_ C_ 0.635226 0.837923 0.669451 -0.05681
C_ C_ 0.614196 0.846796 0.641577 -0.05681
C_ C_ 0.646226 0.855202 0.617902 -0.08735
C_ C_ 0.698249 0.843588 0.620573 -0.08735
C_ C_ 0.605095 0.836311 0.693952 -0.08735
C_ C_ 0.552569 0.841461 0.690729 -0.08735
C_ C_ 0.530797 0.845249 0.66262 -0.05681
C_ C_ 0.563452 0.849572 0.638084 -0.08735
C_ C_ 0.875476 0.725522 0.66001 0.68181
C_ C_ 0.872521 0.920076 0.646886 0.68181
C_ C_ 0.875007 0.977027 0.644579 -0.05681
C_ C_ 0.877832 0.50924 0.67107 -0.08735
C_ C_ 0.879923 0.562829 0.66758 -0.05681
C_ C_ 0.86334 0.585978 0.641808 -0.05681
C_ C_ 0.846682 0.554406 0.61986 -0.08735
C_ C_ 0.8616 1.0010805 0.618678 -0.08735
C_ C_ 0.893194 0.593165 0.690815 -0.08735
C_ C_ 0.884303 0.644038 0.690016 -0.08735
C_ C_ 0.875771 0.668468 0.662804 -0.05681
C_ C_ 0.859252 0.63899 0.640743 -0.08735
C_ C_ 0.970223 0.828434 0.655156 0.68181
C_ C_ 0.899333 0.881475 0.730018 0.1947
C_ C_ 0.912923 0.894704 0.757694 -0.08735
C_ C_ 0.882905 0.877667 0.780668 -0.08735
C_ C_ 0.851177 0.834724 0.776823 -0.05681
C_ C_ 0.844311 0.817371 0.746844 0.18498
C_ C_ 0.806691 0.779848 0.741789 -0.08735
C_ C_ 0.78653 0.752092 0.764961 -0.08735
C_ C_ 0.794432 0.767549 0.792769 -0.08735
C_ C_ 0.827543 0.807594 0.799763 0.18498
C_ C_ 0.795249 0.831731 0.846643 0.44287
C_ C_ 0.881505 0.806748 0.841108 0.44287
C_ C_ 0.889634 0.811535 0.870518 -0.05681
C_ C_ 0.937931 0.801408 0.882328 -0.08735
C_ C_ 0.946883 0.801069 0.912975 -0.08735
C_ C_ 0.905528 0.806017 0.930841 -0.05681
C_ C_ 0.856294 0.817059 0.91762 -0.05681
C_ C_ 0.848811 0.819168 0.888977 -0.05681
C_ C_ 0.800375 0.828981 0.876599 -0.05681
C_ C_ 0.759267 0.832052 0.895806 -0.08735
C_ C_ 0.767069 0.833184 0.92519 -0.08735
C_ C_ 0.814806 0.82239 0.936849 -0.05681
C_ C_ 0.823413 0.824933 0.967758 0.44287
C_ C_ 0.912059 0.813168 0.960498 0.44287
C_ C_ 0.919986 0.839779 0.507047 0.18498
C_ C_ 0.952873 0.881588 0.512041 -0.08735
C_ C_ 0.963354 0.893168 0.541347 -0.08735
C_ C_ 0.938425 0.869894 0.565269 -0.08735
C_ C_ 0.905385 0.829658 0.559491 0.18498
C_ C_ 0.896376 0.813501 0.530453 -0.05681
C_ C_ 0.863287 0.770908 0.526526 -0.08735
C_ C_ 0.842364 0.746671 0.550818 -0.08735
C_ C_ 0.845991 0.769492 0.57743 0.1947
N_ N_ 0.618009 0.666231 0.978638 -0.29468
N_ N_ 0.646823 0.705818 0.580931 -0.17154
N_ N_ 0.611215 0.681775 0.728995 -0.17154
N_ N_ 0.627939 0.699989 0.834498 -0.29468
N_ N_ 0.870931 0.841315 0.724582 -0.29468
N_ N_ 0.836506 0.821344 0.829528 -0.17154
N_ N_ 0.871448 0.821081 0.978341 -0.17154
N_ N_ 0.87604 0.810783 0.581871 -0.29468
O_ O_ 0.703943 0.678265 0.931504 -0.58347
O_ O_ 0.695106 0.675614 0.884669 -0.58347
O_ O_ 0.622832 0.752865 0.934404 -0.58347
O_ O_ 0.615597 0.761256 0.887814 -0.58347
O_ O_ 0.628663 0.604122 0.922605 -0.58347
O_ O_ 0.61531 0.611301 0.876098 -0.58347
O_ O_ 0.549971 0.679409 0.925869 -0.58347
O_ O_ 0.540398 0.68177 0.879707 -0.58347
O_ O_ 0.559762 0.72539 0.577749 -0.46727
O_ O_ 0.730672 0.688251 0.586754 -0.46727
O_ O_ 0.527682 0.709067 0.723625 -0.46727
O_ O_ 0.693011 0.653805 0.734928 -0.46727
O_ O_ 0.790532 0.824592 0.676725 -0.58347
O_ O_ 0.80176 0.814489 0.630114 -0.58347
O_ O_ 0.871553 0.751901 0.682141 -0.58347
O_ O_ 0.883873 0.743267 0.63506 -0.58347
O_ O_ 0.866865 0.900428 0.670359 -0.58347
O_ O_ 0.872391 0.892859 0.623664 -0.58347
O_ O_ 0.942586 0.831063 0.676546 -0.58347
O_ O_ 0.952761 0.830776 0.629811 -0.58347
O_ O_ 0.917739 0.78747 0.824856 -0.46727
O_ O_ 0.751794 0.840165 0.833414 -0.46727
O_ O_ 0.957642 0.81036 0.971481 -0.46727
O_ O_ 0.785193 0.830032 0.985701 -0.46727
_cell_length_a 26.376
_cell_length_b 26.400000238300095
_cell_length_c 46.67800035477134
_cell_angle_alpha 90.00700052986613
_cell_angle_beta 89.99899961309502
_cell_angle_gamma 90.45000003183146
_symmetry_space_group_name_H-M         'P 1'
_symmetry_Int_Tables_number            1
loop_
_symmetry_equiv_pos_as_xyz
   'x, y, z'
                         
loop_
_atom_site_label
_atom_site_type_symbol
_atom_site_fract_x 
_atom_site_fract_y
_atom_site_fract_z
_atom_site_charge
Zn Zn 0.132377 0.182857 0.381272 0.90689
Zn Zn 0.144682 0.17768 0.428994 0.90689
Zn Zn 0.371783 0.312149 0.133937 0.90689
Zn Zn 0.361417 0.31556 0.182117 0.90689
H_ H_ 0.307649 0.181514 0.444217 0.11455
H_ H_ 0.381148 0.174312 0.347741 0.11455
H_ H_ 0.285351 0.166968 0.35267 0.11455
H_ H_ 0.391569 0.185983 0.464393 0.11455
H_ H_ 0.483128 0.182505 0.460048 0.11455
H_ H_ 0.465166 0.166759 0.367854 0.11455
H_ H_ 0.16192 0.0122517 0.441843 0.11455
H_ H_ 0.163177 0.438453 0.346318 0.11455
H_ H_ 0.104072 0.0255287 0.356229 0.11455
H_ H_ 0.106919 0.425955 0.462764 0.11455
H_ H_ 0.118459 0.331392 0.458435 0.11455
H_ H_ 0.16469 0.34965 0.369585 0.11455
H_ H_ 0.101668 0.103291 0.46558 0.11455
H_ H_ 0.0849261 0.0677769 0.0121624 0.11455
H_ H_ 0.118357 0.113379 0.05288 0.11455
H_ H_ 0.202803 0.248646 0.468303 0.11455
H_ H_ 0.228253 0.297132 0.0168861 0.11455
H_ H_ 0.22111 0.264364 0.0651208 0.11455
H_ H_ 0.019162 0.197224 0.124424 0.11455
H_ H_ 0.00970004 0.192544 0.176288 0.11455
H_ H_ 0.269256 0.159041 0.137752 0.11455
H_ H_ 0.258149 0.13602 0.186822 0.11455
H_ H_ 0.0688069 0.0823588 0.247951 0.11455
H_ H_ 0.0442786 0.0646182 0.300618 0.11455
H_ H_ 0.0681546 0.125678 0.338279 0.11455
H_ H_ 0.173957 0.235547 0.258439 0.11455
H_ H_ 0.213855 0.275641 0.296871 0.11455
H_ H_ 0.19382 0.246768 0.3451 0.11455
H_ H_ 0.192445 0.292336 0.196048 0.11455
H_ H_ 0.128456 0.332456 0.0998 0.11455
H_ H_ 0.210589 0.330077 0.106842 0.11455
H_ H_ 0.103154 0.283002 0.215194 0.11455
H_ H_ 0.0134141 0.283451 0.205291 0.11455
H_ H_ 0.0379068 0.317928 0.1164 0.11455
H_ H_ 0.381674 0.483052 0.193238 0.11455
H_ H_ 0.325595 0.0602335 0.102796 0.11455
H_ H_ 0.32296 0.469525 0.107301 0.11455
H_ H_ 0.39603 0.0662821 0.214944 0.11455
H_ H_ 0.407815 0.153638 0.207904 0.11455
H_ H_ 0.354831 0.145179 0.118746 0.11455
H_ H_ 0.406866 0.390592 0.216938 0.11455
H_ H_ 0.410439 0.429825 0.264409 0.11455
H_ H_ 0.383353 0.378796 0.305335 0.11455
H_ H_ 0.309054 0.242301 0.226988 0.11455
H_ H_ 0.291567 0.18735 0.266973 0.11455
H_ H_ 0.316212 0.209585 0.315619 0.11455
H_ H_ 0.497394 0.299158 0.372679 0.11455
H_ H_ 0.509473 0.311106 0.422657 0.11455
H_ H_ 0.245013 0.305992 0.39488 0.11455
H_ H_ 0.259812 0.345795 0.442188 0.11455
H_ H_ 0.446607 0.416536 0.50176 0.11455
H_ H_ 0.478514 0.411705 0.0515008 0.11455
H_ H_ 0.437055 0.367901 0.0886536 0.11455
H_ H_ 0.342221 0.24577 0.00738837 0.11455
H_ H_ 0.304637 0.201982 0.0505629 0.11455
H_ H_ 0.306882 0.24484 0.0989958 0.11455
C_ C_ 0.235734 0.175605 0.403223 0.68181
C_ C_ 0.291198 0.177742 0.398743 -0.05681
C_ C_ 0.322289 0.176346 0.423457 -0.08735
C_ C_ 0.373946 0.180723 0.419464 -0.05681
C_ C_ 0.395927 0.177558 0.391412 -0.05681
C_ C_ 0.363273 0.17939 0.367901 -0.08735
C_ C_ 0.310478 0.169359 0.371487 -0.08735
C_ C_ 0.407019 0.178035 0.443121 -0.08735
C_ C_ 0.459615 0.184079 0.440018 -0.08735
C_ C_ 0.481572 0.180222 0.412583 -0.05681
C_ C_ 0.448985 0.174696 0.388145 -0.08735
C_ C_ 0.140289 0.278632 0.410795 0.68181
C_ C_ 0.140752 0.0805093 0.401071 0.68181
C_ C_ 0.132623 0.023381 0.399932 -0.05681
C_ C_ 0.126112 0.492441 0.420958 -0.08735
C_ C_ 0.128149 0.439924 0.417683 -0.05681
C_ C_ 0.141712 0.418819 0.391443 -0.05681
C_ C_ 0.151596 0.452046 0.367221 -0.08735
C_ C_ 0.143606 0.502358 0.370152 -0.08735
C_ C_ 0.123593 0.407425 0.44248 -0.08735
C_ C_ 0.127181 0.356245 0.440188 -0.08735
C_ C_ 0.136035 0.334413 0.412441 -0.05681
C_ C_ 0.153262 0.365898 0.390033 -0.08735
C_ C_ 0.0399982 0.191125 0.407794 0.68181
C_ C_ 0.120447 0.123833 0.481649 0.1947
C_ C_ 0.0997936 0.10502 0.00969943 -0.08735
C_ C_ 0.122851 0.129658 0.0328157 -0.08735
C_ C_ 0.145908 0.17732 0.0299019 -0.05681
C_ C_ 0.154226 0.194514 1.00153279 0.18498
C_ C_ 0.18828 0.241063 0.491879 -0.08735
C_ C_ 0.205665 0.263092 0.0197157 -0.08735
C_ C_ 0.197513 0.246742 0.0479697 -0.08735
C_ C_ 0.163648 0.205374 0.0530295 0.18498
C_ C_ 0.192083 0.170416 0.099244 0.44287
C_ C_ 0.108435 0.200632 0.0951875 0.44287
C_ C_ 0.100966 0.188901 0.124698 -0.05681
C_ C_ 0.0514485 0.18774 0.137916 -0.08735
C_ C_ 0.0464456 0.190498 0.166968 -0.08735
C_ C_ 0.0876509 0.174633 0.184142 -0.05681
C_ C_ 0.134655 0.167241 0.171416 -0.05681
C_ C_ 0.143027 0.176444 0.14221 -0.05681
C_ C_ 0.189863 0.171775 0.129653 -0.05681
C_ C_ 0.23163 0.157018 0.146777 -0.08735
C_ C_ 0.224194 0.145428 0.175212 -0.08735
C_ C_ 0.175873 0.151223 0.187447 -0.05681
C_ C_ 0.169701 0.14499 0.217065 0.44287
C_ C_ 0.0856205 0.176256 0.214205 0.44287
C_ C_ 0.117901 0.142753 0.25912 0.18498
C_ C_ 0.0868007 0.100993 0.265608 -0.08735
C_ C_ 0.0670647 0.0946197 0.293809 -0.08735
C_ C_ 0.0829077 0.128103 0.316842 -0.08735
C_ C_ 0.119348 0.16716 0.310573 0.18498
C_ C_ 0.137598 0.173884 0.282016 -0.05681
C_ C_ 0.169404 0.215759 0.278338 -0.08735
C_ C_ 0.189424 0.242565 0.301439 -0.08735
C_ C_ 0.172599 0.23206 0.328335 0.1947
C_ C_ 0.266588 0.307322 0.155979 0.68181
C_ C_ 0.210419 0.30993 0.151953 -0.05681
C_ C_ 0.176113 0.300108 0.175145 -0.08735
C_ C_ 0.124022 0.305437 0.171598 -0.05681
C_ C_ 0.105092 0.315718 0.14289 -0.05681
C_ C_ 0.138776 0.3271 0.121097 -0.08735
C_ C_ 0.189403 0.321003 0.125344 -0.08735
C_ C_ 0.0901822 0.298412 0.194991 -0.08735
C_ C_ 0.036923 0.302671 0.189607 -0.08735
C_ C_ 0.017865 0.311286 0.162363 -0.05681
C_ C_ 0.0517575 0.316251 0.138266 -0.08735
C_ C_ 0.374222 0.21597 0.162645 0.68181
C_ C_ 0.35495 0.410803 0.151382 0.68181
C_ C_ 0.354038 0.468414 0.149647 -0.05681
C_ C_ 0.36781 0.00042000000000008697 0.174366 -0.08735
C_ C_ 0.368197 0.0532773 0.171668 -0.05681
C_ C_ 0.350272 0.076188 0.146068 -0.05681
C_ C_ 0.33493 0.0438882 0.12362 -0.08735
C_ C_ 0.339137 0.491576 0.124249 -0.08735
C_ C_ 0.389174 0.0818314 0.19374 -0.08735
C_ C_ 0.393445 0.133601 0.189701 -0.08735
C_ C_ 0.375452 0.158473 0.164189 -0.05681
C_ C_ 0.357688 0.13002 0.14051 -0.08735
C_ C_ 0.463931 0.322859 0.157302 0.68181
C_ C_ 0.385647 0.375078 0.234111 0.1947
C_ C_ 0.393889 0.392344 0.261672 -0.08735
C_ C_ 0.380313 0.361574 0.285144 -0.08735
C_ C_ 0.356313 0.314894 0.281009 -0.05681
C_ C_ 0.343758 0.299727 0.25201 0.18498
C_ C_ 0.31812 0.256693 0.246911 -0.08735
C_ C_ 0.30628 0.224866 0.271696 -0.08735
C_ C_ 0.323179 0.235785 0.299294 -0.08735
C_ C_ 0.343737 0.283516 0.30544 0.18498
C_ C_ 0.316907 0.305983 0.35313 0.44287
C_ C_ 0.405702 0.293636 0.345807 0.44287
C_ C_ 0.414648 0.30903 0.37404 -0.05681
C_ C_ 0.465173 0.310108 0.385898 -0.08735
C_ C_ 0.471634 0.318939 0.41464 -0.08735
C_ C_ 0.432169 0.329823 0.433563 -0.05681
C_ C_ 0.380877 0.331871 0.422767 -0.05681
C_ C_ 0.372438 0.322343 0.392475 -0.05681
C_ C_ 0.324278 0.315767 0.382567 -0.05681
C_ C_ 0.284053 0.320151 0.40159 -0.08735
C_ C_ 0.292475 0.335956 0.429874 -0.08735
C_ C_ 0.341473 0.335362 0.440627 -0.05681
C_ C_ 0.3514 0.344054 0.469302 0.44287
C_ C_ 0.439665 0.329142 0.463398 0.44287
C_ C_ 0.403521 0.33315 0.0104034 0.18498
C_ C_ 0.433792 0.374456 0.0165687 -0.08735
C_ C_ 0.451306 0.381323 0.045677 -0.08735
C_ C_ 0.428523 0.354695 0.067473 -0.08735
C_ C_ 0.387262 0.319523 0.0622436 0.18498
C_ C_ 0.378213 0.304332 0.033808 -0.05681
C_ C_ 0.352189 0.258775 0.0287808 -0.08735
C_ C_ 0.329921 0.234882 0.0535105 -0.08735
C_ C_ 0.33179 0.25715 0.0810836 0.1947
N_ N_ 0.144068 0.1676 0.475824 -0.29468
N_ N_ 0.153474 0.190045 0.0825029 -0.17154
N_ N_ 0.124239 0.157633 0.230155 -0.17154
N_ N_ 0.138481 0.193057 0.332531 -0.29468
N_ N_ 0.358291 0.330196 0.229564 -0.29468
N_ N_ 0.356994 0.295732 0.33549 -0.17154
N_ N_ 0.398663 0.337102 0.481195 -0.17154
N_ N_ 0.365272 0.294085 0.0857743 -0.29468
O_ O_ 0.215865 0.175835 0.42857 -0.58347
O_ O_ 0.206824 0.175421 0.381774 -0.58347
O_ O_ 0.143611 0.253053 0.433158 -0.58347
O_ O_ 0.141239 0.256417 0.38708 -0.58347
O_ O_ 0.149905 0.104191 0.424478 -0.58347
O_ O_ 0.137717 0.106806 0.377969 -0.58347
O_ O_ 0.0683377 0.177937 0.428532 -0.58347
O_ O_ 0.0589446 0.189754 0.383109 -0.58347
O_ O_ 0.070757 0.213276 0.0787705 -0.46727
O_ O_ 0.235903 0.161257 0.0858619 -0.46727
O_ O_ 0.0461803 0.196987 0.226792 -0.46727
O_ O_ 0.209159 0.130718 0.231784 -0.46727
O_ O_ 0.287823 0.302563 0.180306 -0.58347
O_ O_ 0.294589 0.314717 0.1343 -0.58347
O_ O_ 0.37761 0.239519 0.186227 -0.58347
O_ O_ 0.367015 0.237915 0.139162 -0.58347
O_ O_ 0.343073 0.389112 0.175196 -0.58347
O_ O_ 0.370869 0.385346 0.13048 -0.58347
O_ O_ 0.436058 0.334406 0.177437 -0.58347
O_ O_ 0.44653 0.310677 0.132869 -0.58347
O_ O_ 0.444448 0.278452 0.329344 -0.46727
O_ O_ 0.269386 0.305125 0.342466 -0.46727
O_ O_ 0.482366 0.312568 0.473428 -0.46727
O_ O_ 0.314351 0.361045 0.486332 -0.46727
Zn Zn 0.126245 0.19416 0.880639 0.90689
Zn Zn 0.136787 0.184071 0.927595 0.90689
Zn Zn 0.372793 0.326549 0.633352 0.90689
Zn Zn 0.362639 0.332304 0.679584 0.90689
H_ H_ 0.308 0.201265 0.947327 0.11455
H_ H_ 0.37357 0.168005 0.851283 0.11455
H_ H_ 0.281864 0.163386 0.858414 0.11455
H_ H_ 0.392885 0.200067 0.965511 0.11455
H_ H_ 0.487232 0.199255 0.956729 0.11455
H_ H_ 0.460535 0.157131 0.871103 0.11455
H_ H_ 0.161602 0.0199965 0.939932 0.11455
H_ H_ 0.0931752 0.444172 0.84805 0.11455
H_ H_ 0.112311 0.03035 0.852408 0.11455
H_ H_ 0.150754 0.435222 0.962352 0.11455
H_ H_ 0.160806 0.343657 0.955339 0.11455
H_ H_ 0.0892685 0.360885 0.871246 0.11455
H_ H_ 0.0810603 0.110897 0.965192 0.11455
H_ H_ 0.0826125 0.0796052 0.513186 0.11455
H_ H_ 0.0984946 0.139752 0.553432 0.11455
H_ H_ 0.190568 0.254872 0.97473 0.11455
H_ H_ 0.232971 0.299089 0.509602 0.11455
H_ H_ 0.207143 0.28425 0.558061 0.11455
H_ H_ 0.0156156 0.224787 0.61997 0.11455
H_ H_ 0.00431 0.193888 0.672731 0.11455
H_ H_ 0.267393 0.171709 0.630851 0.11455
H_ H_ 0.259303 0.150714 0.681112 0.11455
H_ H_ 0.0770207 0.0900247 0.743562 0.11455
H_ H_ 0.0541376 0.0636347 0.794637 0.11455
H_ H_ 0.0888588 0.115169 0.835403 0.11455
H_ H_ 0.160696 0.249785 0.754955 0.11455
H_ H_ 0.198861 0.291192 0.796653 0.11455
H_ H_ 0.181137 0.267232 0.84415 0.11455
H_ H_ 0.191607 0.298612 0.691011 0.11455
H_ H_ 0.124186 0.362789 0.597727 0.11455
H_ H_ 0.218707 0.35223 0.605158 0.11455
H_ H_ 0.105668 0.303377 0.711968 0.11455
H_ H_ 0.0162292 0.320442 0.706236 0.11455
H_ H_ 0.0365545 0.34425 0.617014 0.11455
H_ H_ 0.370912 0.499127 0.692752 0.11455
H_ H_ 0.368147 0.0721012 0.597222 0.11455
H_ H_ 0.344568 0.491639 0.5997 0.11455
H_ H_ 0.362739 0.0835525 0.71626 0.11455
H_ H_ 0.364674 0.175334 0.711156 0.11455
H_ H_ 0.387005 0.156355 0.619928 0.11455
H_ H_ 0.412489 0.39986 0.714298 0.11455
H_ H_ 0.421401 0.437168 0.761768 0.11455
H_ H_ 0.388496 0.388407 0.803473 0.11455
H_ H_ 0.305262 0.25969 0.720911 0.11455
H_ H_ 0.286002 0.201796 0.760362 0.11455
H_ H_ 0.297963 0.22175 0.808554 0.11455
H_ H_ 0.4897 0.280914 0.869878 0.11455
H_ H_ 0.50776 0.302978 0.920796 0.11455
H_ H_ 0.247554 0.355405 0.890409 0.11455
H_ H_ 0.259566 0.362282 0.942567 0.11455
H_ H_ 0.454783 0.39225 -0.000764192 0.11455
H_ H_ 0.451201 0.448252 0.551977 0.11455
H_ H_ 0.418537 0.394231 0.590396 0.11455
H_ H_ 0.361159 0.255767 0.507835 0.11455
H_ H_ 0.321034 0.212808 0.548355 0.11455
H_ H_ 0.325452 0.247274 0.59751 0.11455
C_ C_ 0.229363 0.19368 0.907038 0.68181
C_ C_ 0.285762 0.187384 0.903377 -0.05681
C_ C_ 0.319769 0.192571 0.926071 -0.08735
C_ C_ 0.37155 0.185342 0.922414 -0.05681
C_ C_ 0.391005 0.176507 0.895165 -0.05681
C_ C_ 0.358475 0.17135 0.872148 -0.08735
C_ C_ 0.306315 0.176298 0.875679 -0.08735
C_ C_ 0.407192 0.188705 0.945361 -0.08735
C_ C_ 0.460018 0.188273 0.939898 -0.08735
C_ C_ 0.478025 0.179572 0.912464 -0.05681
C_ C_ 0.443801 0.167935 0.891641 -0.08735
C_ C_ 0.121855 0.28803 0.910047 0.68181
C_ C_ 0.142937 0.0878909 0.899153 0.68181
C_ C_ 0.134822 0.031911 0.897361 -0.05681
C_ C_ 0.138612 0.500032 0.920475 -0.08735
C_ C_ 0.129407 0.448804 0.918762 -0.05681
C_ C_ 0.115577 0.428216 0.892115 -0.05681
C_ C_ 0.106072 0.459952 0.868045 -0.08735
C_ C_ 0.107604 0.512659 0.871034 -0.08735
C_ C_ 0.147363 0.417729 0.9412 -0.08735
C_ C_ 0.142946 0.365931 0.9386 -0.08735
C_ C_ 0.123588 0.343974 0.913437 -0.05681
C_ C_ 0.106898 0.375304 0.890519 -0.08735
C_ C_ 0.0321563 0.19279 0.902364 0.68181
C_ C_ 0.100262 0.127817 0.98298 0.1947
C_ C_ 0.10753 0.11162 0.509055 -0.08735
C_ C_ 0.11076 0.147818 0.531246 -0.08735
C_ C_ 0.140534 0.189988 0.525636 -0.05681
C_ C_ 0.157319 0.200155 0.497988 0.18498
C_ C_ 0.182128 0.23786 0.99728 -0.08735
C_ C_ 0.203462 0.273064 0.513919 -0.08735
C_ C_ 0.191946 0.259867 0.541737 -0.08735
C_ C_ 0.158554 0.220769 0.54782 0.18498
C_ C_ 0.191226 0.190382 0.593303 0.44287
C_ C_ 0.106789 0.222615 0.591933 0.44287
C_ C_ 0.0984233 0.209677 0.619969 -0.05681
C_ C_ 0.0475767 0.210536 0.631612 -0.08735
C_ C_ 0.0406699 0.194498 0.660818 -0.08735
C_ C_ 0.0852907 0.186427 0.67882 -0.05681
C_ C_ 0.135249 0.188343 0.666301 -0.05681
C_ C_ 0.140066 0.193725 0.636489 -0.05681
C_ C_ 0.187205 0.186891 0.623022 -0.05681
C_ C_ 0.229559 0.177535 0.640529 -0.08735
C_ C_ 0.222792 0.164083 0.669184 -0.08735
C_ C_ 0.17797 0.177593 0.683663 -0.05681
C_ C_ 0.171415 0.167043 0.713097 0.44287
C_ C_ 0.0822794 0.184292 0.708847 0.44287
C_ C_ 0.113555 0.159673 0.755602 0.18498
C_ C_ 0.0857493 0.114848 0.762158 -0.08735
C_ C_ 0.0762617 0.0982161 0.789947 -0.08735
C_ C_ 0.0912826 0.129706 0.813329 -0.08735
C_ C_ 0.11866 0.174267 0.809078 0.18498
C_ C_ 0.13218 0.187646 0.779899 -0.05681
C_ C_ 0.160012 0.232313 0.776331 -0.08735
C_ C_ 0.180342 0.255751 0.79954 -0.08735
C_ C_ 0.169034 0.241137 0.827041 0.1947
C_ C_ 0.267941 0.322418 0.654863 0.68181
C_ C_ 0.211133 0.326193 0.649968 -0.05681
C_ C_ 0.177208 0.313458 0.672153 -0.08735
C_ C_ 0.124827 0.317292 0.667407 -0.05681
C_ C_ 0.105024 0.330535 0.639311 -0.05681
C_ C_ 0.138715 0.342217 0.616673 -0.08735
C_ C_ 0.192701 0.342952 0.622195 -0.08735
C_ C_ 0.0904872 0.314518 0.690718 -0.08735
C_ C_ 0.0407199 0.327058 0.687963 -0.08735
C_ C_ 0.0191416 0.337813 0.661292 -0.05681
C_ C_ 0.0529381 0.338816 0.637321 -0.08735
C_ C_ 0.372163 0.232739 0.664174 0.68181
C_ C_ 0.356564 0.42755 0.649619 0.68181
C_ C_ 0.356293 0.483493 0.64746 -0.05681
C_ C_ 0.361376 0.0155009 0.673302 -0.08735
C_ C_ 0.359735 0.0682265 0.670341 -0.05681
C_ C_ 0.366957 0.0919503 0.642903 -0.05681
C_ C_ 0.3683 0.0580539 0.618916 -0.08735
C_ C_ 0.356309 0.508694 0.620475 -0.08735
C_ C_ 0.364893 0.099786 0.69494 -0.08735
C_ C_ 0.366468 0.151855 0.692363 -0.08735
C_ C_ 0.373833 0.176273 0.665857 -0.05681
C_ C_ 0.375241 0.144281 0.640689 -0.08735
C_ C_ 0.464211 0.33274 0.658038 0.68181
C_ C_ 0.398234 0.379731 0.732256 0.1947
C_ C_ 0.404625 0.398845 0.759687 -0.08735
C_ C_ 0.38641 0.37165 0.782345 -0.08735
C_ C_ 0.358426 0.325646 0.778123 -0.05681
C_ C_ 0.345588 0.313996 0.750115 0.18498
C_ C_ 0.317637 0.270007 0.743589 -0.08735
C_ C_ 0.306574 0.235673 0.765739 -0.08735
C_ C_ 0.315699 0.248164 0.794917 -0.08735
C_ C_ 0.340846 0.294767 0.801954 0.18498
C_ C_ 0.315341 0.317758 0.849239 0.44287
C_ C_ 0.398608 0.289468 0.843649 0.44287
C_ C_ 0.408909 0.299681 0.872156 -0.05681
C_ C_ 0.458498 0.294331 0.882768 -0.08735
C_ C_ 0.467445 0.30049 0.912659 -0.08735
C_ C_ 0.427288 0.313688 0.93141 -0.05681
C_ C_ 0.378354 0.322883 0.921016 -0.05681
C_ C_ 0.370641 0.319044 0.890845 -0.05681
C_ C_ 0.322641 0.327479 0.879147 -0.05681
C_ C_ 0.283396 0.346987 0.898062 -0.08735
C_ C_ 0.291306 0.348173 0.92808 -0.08735
C_ C_ 0.340121 0.337805 0.939649 -0.05681
C_ C_ 0.347663 0.334892 0.969798 0.44287
C_ C_ 0.433827 0.313435 0.96213 0.44287
C_ C_ 0.406804 0.347305 0.511551 0.18498
C_ C_ 0.430944 0.394948 0.518909 -0.08735
C_ C_ 0.437043 0.411253 0.546923 -0.08735
C_ C_ 0.418179 0.380802 0.568388 -0.08735
C_ C_ 0.393182 0.335066 0.563162 0.18498
C_ C_ 0.390548 0.316139 0.534584 -0.05681
C_ C_ 0.365387 0.269324 0.530029 -0.08735
C_ C_ 0.342203 0.246573 0.553067 -0.08735
C_ C_ 0.343044 0.2676 0.580754 0.1947
N_ N_ 0.131528 0.168255 0.97879 -0.29468
N_ N_ 0.150611 0.207094 0.577874 -0.17154
N_ N_ 0.123975 0.172637 0.725689 -0.17154
N_ N_ 0.139186 0.201178 0.832396 -0.29468
N_ N_ 0.365216 0.340514 0.727025 -0.29468
N_ N_ 0.354332 0.304707 0.832152 -0.17154
N_ N_ 0.393846 0.322095 0.980292 -0.17154
N_ N_ 0.371592 0.309178 0.586007 -0.29468
O_ O_ 0.207998 0.18758 0.931118 -0.58347
O_ O_ 0.203134 0.200075 0.884464 -0.58347
O_ O_ 0.128455 0.260832 0.931667 -0.58347
O_ O_ 0.116552 0.268035 0.88602 -0.58347
O_ O_ 0.139566 0.107608 0.922565 -0.58347
O_ O_ 0.137352 0.116211 0.87829 -0.58347
O_ O_ 0.0603774 0.188266 0.924089 -0.58347
O_ O_ 0.0485714 0.18348 0.877782 -0.58347
O_ O_ 0.0728622 0.248767 0.577934 -0.46727
O_ O_ 0.230609 0.178298 0.579965 -0.46727
O_ O_ 0.0401863 0.194607 0.721698 -0.46727
O_ O_ 0.209111 0.149093 0.727845 -0.46727
O_ O_ 0.288873 0.329982 0.678765 -0.58347
O_ O_ 0.298662 0.317207 0.634088 -0.58347
O_ O_ 0.366041 0.258378 0.686601 -0.58347
O_ O_ 0.380967 0.253422 0.639843 -0.58347
O_ O_ 0.360443 0.405604 0.67398 -0.58347
O_ O_ 0.357865 0.400917 0.626058 -0.58347
O_ O_ 0.435477 0.333765 0.680236 -0.58347
O_ O_ 0.445497 0.332783 0.633534 -0.58347
O_ O_ 0.425719 0.253675 0.829666 -0.46727
O_ O_ 0.26881 0.322175 0.838645 -0.46727
O_ O_ 0.475652 0.293623 0.97235 -0.46727
O_ O_ 0.31133 0.348805 0.986269 -0.46727
Zn Zn 0.131175 0.682386 0.384953 0.90689
Zn Zn 0.134733 0.679207 0.432418 0.90689
Zn Zn 0.36939 0.812231 0.132004 0.90689
Zn Zn 0.36034 0.816954 0.180834 0.90689
H_ H_ 0.303435 0.695756 0.443751 0.11455
H_ H_ 0.377078 0.647846 0.347993 0.11455
H_ H_ 0.284138 0.658053 0.3558 0.11455
H_ H_ 0.393014 0.707337 0.461559 0.11455
H_ H_ 0.483727 0.707523 0.455669 0.11455
H_ H_ 0.459171 0.654731 0.366245 0.11455
H_ H_ 0.128189 0.505172 0.443231 0.11455
H_ H_ 0.110319 0.933152 0.351638 0.11455
H_ H_ 0.151175 0.525863 0.352272 0.11455
H_ H_ 0.178723 0.929195 0.463328 0.11455
H_ H_ 0.173577 0.83036 0.456142 0.11455
H_ H_ 0.107656 0.84753 0.37385 0.11455
H_ H_ 0.108268 0.587492 0.470309 0.11455
H_ H_ 0.0703261 0.566263 0.0118835 0.11455
H_ H_ 0.0966136 0.616545 0.0545636 0.11455
H_ H_ 0.206504 0.72725 0.47041 0.11455
H_ H_ 0.202457 0.803401 0.0123943 0.11455
H_ H_ 0.181957 0.778404 0.0635868 0.11455
H_ H_ 0.00442927 0.698408 0.126758 0.11455
H_ H_ -0.00041199999999996795 0.683704 0.176647 0.11455
H_ H_ 0.259419 0.687018 0.137431 0.11455
H_ H_ 0.251055 0.667892 0.188798 0.11455
H_ H_ 0.0697148 0.580157 0.248759 0.11455
H_ H_ 0.0426258 0.563785 0.300821 0.11455
H_ H_ 0.0703525 0.614533 0.341031 0.11455
H_ H_ 0.165826 0.736452 0.260205 0.11455
H_ H_ 0.19108 0.789121 0.301756 0.11455
H_ H_ 0.18614 0.756183 0.34814 0.11455
H_ H_ 0.186688 0.795664 0.192434 0.11455
H_ H_ 0.125906 0.835711 0.0975751 0.11455
H_ H_ 0.216041 0.83012 0.104768 0.11455
H_ H_ 0.107065 0.809974 0.212518 0.11455
H_ H_ 0.0170683 0.814922 0.207447 0.11455
H_ H_ 0.036995 0.822851 0.115049 0.11455
H_ H_ 0.384375 0.985302 0.193079 0.11455
H_ H_ 0.348983 0.559214 0.0994135 0.11455
H_ H_ 0.322562 0.969127 0.106993 0.11455
H_ H_ 0.39882 0.566148 0.212827 0.11455
H_ H_ 0.394317 0.657309 0.20981 0.11455
H_ H_ 0.340884 0.64451 0.124887 0.11455
H_ H_ 0.410904 0.881323 0.217096 0.11455
H_ H_ 0.432905 0.905125 0.265265 0.11455
H_ H_ 0.40478 0.856508 0.306177 0.11455
H_ H_ 0.301192 0.744429 0.225824 0.11455
H_ H_ 0.289045 0.682467 0.26326 0.11455
H_ H_ 0.318114 0.699407 0.313711 0.11455
H_ H_ 0.496509 0.789709 0.373042 0.11455
H_ H_ 0.508632 0.807242 0.422423 0.11455
H_ H_ 0.243704 0.805612 0.391992 0.11455
H_ H_ 0.258067 0.82185 0.440951 0.11455
H_ H_ 0.419745 0.930756 0.498045 0.11455
H_ H_ 0.440376 0.944505 0.0523629 0.11455
H_ H_ 0.425575 0.880594 0.0890964 0.11455
H_ H_ 0.342729 0.757796 0.00783526 0.11455
H_ H_ 0.325972 0.699275 0.0459323 0.11455
H_ H_ 0.330826 0.732087 0.0956024 0.11455
C_ C_ 0.232696 0.684989 0.403492 0.68181
C_ C_ 0.286811 0.675792 0.399766 -0.05681
C_ C_ 0.319506 0.686234 0.422323 -0.08735
C_ C_ 0.371973 0.685177 0.418386 -0.05681
C_ C_ 0.393294 0.668051 0.391861 -0.05681
C_ C_ 0.360327 0.655791 0.369391 -0.08735
C_ C_ 0.30893 0.662345 0.373962 -0.08735
C_ C_ 0.405858 0.690557 0.441647 -0.08735
C_ C_ 0.45768 0.692093 0.438103 -0.08735
C_ C_ 0.477685 0.681798 0.410239 -0.05681
C_ C_ 0.444104 0.669076 0.387271 -0.08735
C_ C_ 0.132016 0.779613 0.415304 0.68181
C_ C_ 0.137218 0.580587 0.398917 0.68181
C_ C_ 0.139054 0.524041 0.396967 -0.05681
C_ C_ 0.14528 0.993539 0.423439 -0.08735
C_ C_ 0.148361 0.941619 0.420549 -0.05681
C_ C_ 0.127577 0.918925 0.395401 -0.05681
C_ C_ 0.117563 0.949894 0.37201 -0.08735
C_ C_ 0.116221 1.00222072 0.373974 -0.08735
C_ C_ 0.165944 0.911275 0.442863 -0.08735
C_ C_ 0.160766 0.856649 0.440547 -0.08735
C_ C_ 0.135267 0.835489 0.41696 -0.05681
C_ C_ 0.123042 0.864461 0.393184 -0.08735
C_ C_ 0.0348979 0.66906 0.415006 0.68181
C_ C_ 0.118439 0.615042 0.486868 0.1947
C_ C_ 0.0917825 0.6006 0.00914391 -0.08735
C_ C_ 0.104563 0.631399 0.0329142 -0.08735
C_ C_ 0.126293 0.679378 0.028833 -0.05681
C_ C_ 0.13374 0.694821 0.9999721474 0.18498
C_ C_ 0.192391 0.725849 0.492435 -0.08735
C_ C_ 0.184085 0.767693 0.0177943 -0.08735
C_ C_ 0.168627 0.75535 0.0459452 -0.08735
C_ C_ 0.144965 0.709272 0.0518762 0.18498
C_ C_ 0.182159 0.691909 0.0982691 0.44287
C_ C_ 0.0930426 0.6972 0.094633 0.44287
C_ C_ 0.0859249 0.690295 0.124656 -0.05681
C_ C_ 0.0384425 0.691553 0.137972 -0.08735
C_ C_ 0.0368532 0.685002 0.16697 -0.08735
C_ C_ 0.0761651 0.676699 0.186519 -0.05681
C_ C_ 0.124273 0.676933 0.172792 -0.05681
C_ C_ 0.130455 0.68146 0.142238 -0.05681
C_ C_ 0.17874 0.687395 0.128302 -0.05681
C_ C_ 0.222885 0.681548 0.146817 -0.08735
C_ C_ 0.216061 0.672673 0.1776 -0.08735
C_ C_ 0.167987 0.67431 0.19025 -0.05681
C_ C_ 0.160315 0.66339 0.219582 0.44287
C_ C_ 0.0708231 0.672984 0.215214 0.44287
C_ C_ 0.107455 0.652129 0.261862 0.18498
C_ C_ 0.0804708 0.605026 0.26808 -0.08735
C_ C_ 0.0673058 0.594268 0.296401 -0.08735
C_ C_ 0.0822631 0.623805 0.319792 -0.08735
C_ C_ 0.112083 0.66754 0.315424 0.18498
C_ C_ 0.125282 0.681077 0.286651 -0.05681
C_ C_ 0.153181 0.72543 0.281253 -0.08735
C_ C_ 0.165791 0.756539 0.303661 -0.08735
C_ C_ 0.161383 0.739088 0.331974 0.1947
C_ C_ 0.265237 0.812339 0.153336 0.68181
C_ C_ 0.210362 0.813453 0.148798 -0.05681
C_ C_ 0.175478 0.812525 0.171653 -0.08735
C_ C_ 0.124048 0.816469 0.168093 -0.05681
C_ C_ 0.104743 0.819106 0.140976 -0.05681
C_ C_ 0.140209 0.823833 0.117711 -0.08735
C_ C_ 0.192448 0.82383 0.121931 -0.08735
C_ C_ 0.0915483 0.816296 0.191241 -0.08735
C_ C_ 0.0392998 0.814499 0.187863 -0.08735
C_ C_ 0.0180134 0.814317 0.159436 -0.05681
C_ C_ 0.0510742 0.814806 0.136316 -0.08735
C_ C_ 0.373509 0.717202 0.163542 0.68181
C_ C_ 0.354922 0.914877 0.153202 0.68181
C_ C_ 0.350089 0.969588 0.151044 -0.05681
C_ C_ 0.372952 0.499875 0.172895 -0.08735
C_ C_ 0.371172 0.552377 0.170147 -0.05681
C_ C_ 0.358312 0.575292 0.143996 -0.05681
C_ C_ 0.343293 0.543861 0.120748 -0.08735
C_ C_ 0.330891 -0.007685000000000053 0.126153 -0.08735
C_ C_ 0.384852 0.583585 0.193131 -0.08735
C_ C_ 0.384739 0.635929 0.191011 -0.08735
C_ C_ 0.373018 0.659023 0.165574 -0.05681
C_ C_ 0.356901 0.627744 0.14226 -0.08735
C_ C_ 0.463149 0.816522 0.157458 0.68181
C_ C_ 0.397586 0.861156 0.234861 0.1947
C_ C_ 0.403994 0.878361 0.262598 -0.08735
C_ C_ 0.388855 0.848489 0.285006 -0.08735
C_ C_ 0.363796 0.803487 0.280652 -0.05681
C_ C_ 0.350938 0.791395 0.251307 0.18498
C_ C_ 0.321168 0.748407 0.245767 -0.08735
C_ C_ 0.314714 0.711665 0.267984 -0.08735
C_ C_ 0.32903 0.723312 0.297213 -0.08735
C_ C_ 0.35178 0.771546 0.303736 0.18498
C_ C_ 0.319724 0.794612 0.351613 0.44287
C_ C_ 0.407152 0.786455 0.345235 0.44287
C_ C_ 0.416084 0.799468 0.374163 -0.05681
C_ C_ 0.464734 0.800148 0.386279 -0.08735
C_ C_ 0.471807 0.812432 0.414591 -0.08735
C_ C_ 0.429043 0.824121 0.43307 -0.05681
C_ C_ 0.380398 0.818549 0.421667 -0.05681
C_ C_ 0.374151 0.810319 0.392217 -0.05681
C_ C_ 0.324783 0.805226 0.38092 -0.05681
C_ C_ 0.283098 0.812809 0.398835 -0.08735
C_ C_ 0.289391 0.815648 0.427977 -0.08735
C_ C_ 0.337334 0.8231 0.440079 -0.05681
C_ C_ 0.343539 0.828653 0.469479 0.44287
C_ C_ 0.431957 0.832917 0.463339 0.44287
C_ C_ 0.389535 0.851046 0.0113414 0.18498
C_ C_ 0.412628 0.899318 0.0198898 -0.08735
C_ C_ 0.423918 0.907004 0.0481299 -0.08735
C_ C_ 0.405887 0.874132 0.0696566 -0.08735
C_ C_ 0.386697 0.827587 0.062962 0.18498
C_ C_ 0.374094 0.816293 0.0338692 -0.05681
C_ C_ 0.348714 0.771309 0.0281182 -0.08735
C_ C_ 0.338668 0.736943 0.0504441 -0.08735
C_ C_ 0.347432 0.753516 0.078716 0.1947
N_ N_ 0.142969 0.656659 0.479476 -0.29468
N_ N_ 0.140173 0.696833 0.0826165 -0.17154
N_ N_ 0.113963 0.665965 0.231228 -0.17154
N_ N_ 0.133538 0.695234 0.337243 -0.29468
N_ N_ 0.366475 0.822964 0.22973 -0.29468
N_ N_ 0.360086 0.782905 0.33481 -0.17154
N_ N_ 0.390986 0.836028 0.480731 -0.17154
N_ N_ 0.370819 0.798029 0.0847844 -0.29468
O_ O_ 0.210734 0.683494 0.427517 -0.58347
O_ O_ 0.205808 0.689393 0.381821 -0.58347
O_ O_ 0.135023 0.75299 0.437305 -0.58347
O_ O_ 0.123776 0.757869 0.390977 -0.58347
O_ O_ 0.133286 0.600638 0.424068 -0.58347
O_ O_ 0.135956 0.60754 0.377796 -0.58347
O_ O_ 0.063419 0.672416 0.437447 -0.58347
O_ O_ 0.0545059 0.673103 0.389728 -0.58347
O_ O_ 0.0527701 0.705863 0.0792295 -0.46727
O_ O_ 0.226859 0.692353 0.0864334 -0.46727
O_ O_ 0.0252802 0.679746 0.226782 -0.46727
O_ O_ 0.200081 0.653579 0.235696 -0.46727
O_ O_ 0.285236 0.813775 0.178972 -0.58347
O_ O_ 0.292641 0.803175 0.132377 -0.58347
O_ O_ 0.362299 0.742814 0.185148 -0.58347
O_ O_ 0.378364 0.736451 0.139044 -0.58347
O_ O_ 0.356462 0.895054 0.177301 -0.58347
O_ O_ 0.36115 0.886708 0.13054 -0.58347
O_ O_ 0.434669 0.820864 0.179402 -0.58347
O_ O_ 0.443358 0.818941 0.131894 -0.58347
O_ O_ 0.446746 0.772051 0.329211 -0.46727
O_ O_ 0.275738 0.795091 0.339176 -0.46727
O_ O_ 0.475714 0.847032 0.474523 -0.46727
O_ O_ 0.30361 0.842052 0.484949 -0.46727
Zn Zn 0.115499 0.690675 0.879246 0.90689
Zn Zn 0.127104 0.685605 0.928542 0.90689
Zn Zn 0.378582 0.830028 0.635527 0.90689
Zn Zn 0.366633 0.82826 0.68357 0.90689
H_ H_ 0.296766 0.699376 0.943836 0.11455
H_ H_ 0.365552 0.67982 0.847352 0.11455
H_ H_ 0.27047 0.68092 0.85333 0.11455
H_ H_ 0.385823 0.695625 0.96319 0.11455
H_ H_ 0.474549 0.686219 0.954061 0.11455
H_ H_ 0.448039 0.680107 0.862662 0.11455
H_ H_ 0.14949 0.515763 0.941685 0.11455
H_ H_ 0.0946681 0.940547 0.851929 0.11455
H_ H_ 0.108148 0.534568 0.852207 0.11455
H_ H_ 0.15959 0.93438 0.963919 0.11455
H_ H_ 0.145113 0.840673 0.961857 0.11455
H_ H_ 0.0941143 0.85786 0.874187 0.11455
H_ H_ 0.0834128 0.597589 0.963144 0.11455
H_ H_ 0.0993781 0.56062 0.51942 0.11455
H_ H_ 0.129191 0.616443 0.558204 0.11455
H_ H_ 0.173022 0.751908 0.973042 0.11455
H_ H_ 0.233334 0.79328 0.506093 0.11455
H_ H_ 0.206127 0.786861 0.558279 0.11455
H_ H_ 1.0251309 0.698946 0.618166 0.11455
H_ H_ 1.00957845 0.680514 0.670062 0.11455
H_ H_ 0.275204 0.696841 0.642812 0.11455
H_ H_ 0.26508 0.689662 0.695485 0.11455
H_ H_ 0.0778097 0.594363 0.746817 0.11455
H_ H_ 0.0596114 0.566149 0.796182 0.11455
H_ H_ 0.0705361 0.628061 0.837861 0.11455
H_ H_ 0.140815 0.763243 0.754821 0.11455
H_ H_ 0.169974 0.814345 0.800257 0.11455
H_ H_ 0.164088 0.776415 0.845302 0.11455
H_ H_ 0.195843 0.829076 0.697307 0.11455
H_ H_ 0.134966 0.842367 0.597205 0.11455
H_ H_ 0.226684 0.837889 0.608366 0.11455
H_ H_ 0.108505 0.82062 0.716536 0.11455
H_ H_ 0.0197185 0.827952 0.706928 0.11455
H_ H_ 0.0459875 0.821853 0.614569 0.11455
H_ H_ 0.351781 0.996436 0.693753 0.11455
H_ H_ 0.356359 0.578318 0.597493 0.11455
H_ H_ 0.373203 0.983042 0.605062 0.11455
H_ H_ 0.401808 0.580108 0.712768 0.11455
H_ H_ 0.399151 0.673256 0.70858 0.11455
H_ H_ 0.375425 0.663767 0.618333 0.11455
H_ H_ 0.434862 0.899127 0.716116 0.11455
H_ H_ 0.453041 0.928515 0.766255 0.11455
H_ H_ 0.414251 0.878931 0.806529 0.11455
H_ H_ 0.309088 0.775218 0.722486 0.11455
H_ H_ 0.278235 0.720607 0.761348 0.11455
H_ H_ 0.299054 0.740667 0.811873 0.11455
H_ H_ 0.493157 0.79649 0.875817 0.11455
H_ H_ 0.503859 0.816276 0.927814 0.11455
H_ H_ 0.241702 0.837768 0.886996 0.11455
H_ H_ 0.248548 0.848189 0.940917 0.11455
H_ H_ 0.432642 0.920036 1.00398613 0.11455
H_ H_ 0.44939 0.948082 0.547335 0.11455
H_ H_ 0.435014 0.891263 0.587791 0.11455
H_ H_ 0.350949 0.759312 0.50879 0.11455
H_ H_ 0.311401 0.718424 0.549219 0.11455
H_ H_ 0.32513 0.747184 0.598257 0.11455
C_ C_ 0.220252 0.693575 0.902559 0.68181
C_ C_ 0.277028 0.692327 0.898542 -0.05681
C_ C_ 0.310221 0.691923 0.922464 -0.08735
C_ C_ 0.362611 0.686219 0.918242 -0.05681
C_ C_ 0.381884 0.686194 0.8898 -0.05681
C_ C_ 0.347571 0.68502 0.867359 -0.08735
C_ C_ 0.295637 0.684118 0.871412 -0.08735
C_ C_ 0.396543 0.687908 0.941138 -0.08735
C_ C_ 0.447988 0.685047 0.935646 -0.08735
C_ C_ 0.467044 0.682288 0.907092 -0.05681
C_ C_ 0.434192 0.678789 0.884762 -0.08735
C_ C_ 0.11664 0.785023 0.912113 0.68181
C_ C_ 0.127983 0.589735 0.899324 0.68181
C_ C_ 0.125018 0.533548 0.897334 -0.05681
C_ C_ 0.146961 1.00128 0.921209 -0.08735
C_ C_ 0.13567 0.948711 0.920942 -0.05681
C_ C_ 0.118766 0.926828 0.895498 -0.05681
C_ C_ 0.108666 0.958404 0.871037 -0.08735
C_ C_ 0.120979 0.00965123 0.871826 -0.08735
C_ C_ 0.151926 0.916518 0.942545 -0.08735
C_ C_ 0.142531 0.864379 0.941422 -0.08735
C_ C_ 0.121037 0.843156 0.916077 -0.05681
C_ C_ 0.107 0.874716 0.893902 -0.08735
C_ C_ 0.0258757 0.677727 0.905673 0.68181
C_ C_ 0.0952997 0.619908 0.981835 0.1947
C_ C_ 0.114569 0.597963 0.515118 -0.08735
C_ C_ 0.130707 0.630884 0.537406 -0.08735
C_ C_ 0.155028 0.67637 0.530146 -0.05681
C_ C_ 0.161637 0.687312 0.500748 0.18498
C_ C_ 0.163243 0.738555 0.994511 -0.08735
C_ C_ 0.208515 0.761779 0.513118 -0.08735
C_ C_ 0.200219 0.755082 0.542623 -0.08735
C_ C_ 0.174944 0.712004 0.551741 0.18498
C_ C_ 0.208117 0.697641 0.600795 0.44287
C_ C_ 0.118214 0.707238 0.593722 0.44287
C_ C_ 0.107744 0.698062 0.622555 -0.05681
C_ C_ 0.0579741 0.697148 0.633029 -0.08735
C_ C_ 0.0488575 0.68885 0.661772 -0.08735
C_ C_ 0.0901461 0.689154 0.681769 -0.05681
C_ C_ 0.140188 0.686008 0.671339 -0.05681
C_ C_ 0.149254 0.694781 0.641683 -0.05681
C_ C_ 0.19804 0.695152 0.631521 -0.05681
C_ C_ 0.237918 0.690737 0.650253 -0.08735
C_ C_ 0.230871 0.687851 0.680388 -0.08735
C_ C_ 0.180072 0.684024 0.691519 -0.05681
C_ C_ 0.167726 0.679178 0.721533 0.44287
C_ C_ 0.0803208 0.686706 0.711435 0.44287
C_ C_ 0.10425 0.667429 0.759052 0.18498
C_ C_ 0.0807251 0.621699 0.764117 -0.08735
C_ C_ 0.0763941 0.603286 0.792966 -0.08735
C_ C_ 0.082504 0.636721 0.815903 -0.08735
C_ C_ 0.102276 0.68608 0.811727 0.18498
C_ C_ 0.110215 0.703564 0.782323 -0.05681
C_ C_ 0.12821 0.753496 0.777573 -0.08735
C_ C_ 0.146347 0.779629 0.802227 -0.08735
C_ C_ 0.141394 0.75901 0.82943 0.1947
C_ C_ 0.274735 0.827776 0.658986 0.68181
C_ C_ 0.217889 0.832573 0.653364 -0.05681
C_ C_ 0.182499 0.825379 0.675729 -0.08735
C_ C_ 0.13022 0.824713 0.670237 -0.05681
C_ C_ 0.112666 0.830444 0.642017 -0.05681
C_ C_ 0.147804 0.834801 0.619331 -0.08735
C_ C_ 0.200037 0.835186 0.625078 -0.08735
C_ C_ 0.0953329 0.815646 0.693613 -0.08735
C_ C_ 0.044605 0.821042 0.688354 -0.08735
C_ C_ 0.0250562 0.8228 0.660035 -0.05681
C_ C_ 0.06105 0.823184 0.637019 -0.08735
C_ C_ 0.377165 0.730144 0.664606 0.68181
C_ C_ 0.365591 0.926189 0.65129 0.68181
C_ C_ 0.361426 0.98346 0.649157 -0.05681
C_ C_ 0.366839 0.51497 0.670975 -0.08735
C_ C_ 0.375759 0.566698 0.668249 -0.05681
C_ C_ 0.37213 0.591826 0.642581 -0.05681
C_ C_ 0.358492 0.562756 0.619121 -0.08735
C_ C_ 0.370227 1.00617567 0.623207 -0.08735
C_ C_ 0.392853 0.596801 0.691735 -0.08735
C_ C_ 0.395185 0.64919 0.690031 -0.08735
C_ C_ 0.383024 0.67426 0.665334 -0.05681
C_ C_ 0.379372 0.644989 0.639723 -0.08735
C_ C_ 0.474906 0.836715 0.658466 0.68181
C_ C_ 0.414138 0.884245 0.734819 0.1947
C_ C_ 0.424605 0.898472 0.761742 -0.08735
C_ C_ 0.408656 0.867282 0.784618 -0.08735
C_ C_ 0.3688 0.830619 0.780104 -0.05681
C_ C_ 0.355712 0.819127 0.751158 0.18498
C_ C_ 0.318522 0.782634 0.745163 -0.08735
C_ C_ 0.300237 0.752987 0.766676 -0.08735
C_ C_ 0.31239 0.76426 0.795023 -0.08735
C_ C_ 0.348967 0.801318 0.802364 0.18498
C_ C_ 0.317116 0.827322 0.84904 0.44287
C_ C_ 0.404911 0.803502 0.845153 0.44287
C_ C_ 0.412236 0.811572 0.874804 -0.05681
C_ C_ 0.459305 0.804707 0.887963 -0.08735
C_ C_ 0.465203 0.815371 0.918519 -0.08735
C_ C_ 0.422832 0.82795 0.935612 -0.05681
C_ C_ 0.372835 0.828535 0.921885 -0.05681
C_ C_ 0.369982 0.829164 0.891669 -0.05681
C_ C_ 0.322605 0.835703 0.878075 -0.05681
C_ C_ 0.278524 0.838876 0.895565 -0.08735
C_ C_ 0.282192 0.843283 0.925848 -0.08735
C_ C_ 0.329769 0.835322 0.939293 -0.05681
C_ C_ 0.337091 0.841804 0.96913 0.44287
C_ C_ 0.427428 0.828985 0.965766 0.44287
C_ C_ 0.394498 0.852128 0.510078 0.18498
C_ C_ 0.411492 0.902114 0.515618 -0.08735
C_ C_ 0.431663 0.913252 0.542543 -0.08735
C_ C_ 0.422981 0.880013 0.565319 -0.08735
C_ C_ 0.38889 0.838916 0.5621 0.18498
C_ C_ 0.380495 0.820762 0.533515 -0.05681
C_ C_ 0.357185 0.774029 0.529284 -0.08735
C_ C_ 0.338488 0.747389 0.553042 -0.08735
C_ C_ 0.343023 0.767956 0.580669 0.1947
N_ N_ 0.119401 0.666486 0.977389 -0.29468
N_ N_ 0.16672 0.705959 0.58269 -0.17154
N_ N_ 0.118444 0.680302 0.730881 -0.17154
N_ N_ 0.121535 0.711699 0.83322 -0.29468
N_ N_ 0.377561 0.847067 0.729694 -0.29468
N_ N_ 0.358569 0.813386 0.832209 -0.17154
N_ N_ 0.385022 0.840839 0.981653 -0.17154
N_ N_ 0.370618 0.811393 0.586036 -0.29468
O_ O_ 0.201869 0.688692 0.927355 -0.58347
O_ O_ 0.19079 0.703421 0.881885 -0.58347
O_ O_ 0.123408 0.759626 0.932911 -0.58347
O_ O_ 0.106415 0.764582 0.888387 -0.58347
O_ O_ 0.134658 0.608824 0.923035 -0.58347
O_ O_ 0.128484 0.617082 0.877312 -0.58347
O_ O_ 0.0556024 0.677547 0.926288 -0.58347
O_ O_ 0.0415177 0.679715 0.879479 -0.58347
O_ O_ 0.0812327 0.717752 0.575338 -0.46727
O_ O_ 0.253304 0.689885 0.589876 -0.46727
O_ O_ 0.0351438 0.698429 0.720448 -0.46727
O_ O_ 0.204171 0.679109 0.741482 -0.46727
O_ O_ 0.293086 0.828085 0.683387 -0.58347
O_ O_ 0.303668 0.816483 0.638396 -0.58347
O_ O_ 0.370917 0.754827 0.688543 -0.58347
O_ O_ 0.388638 0.755 0.642076 -0.58347
O_ O_ 0.368148 0.903852 0.675136 -0.58347
O_ O_ 0.365544 0.900424 0.62868 -0.58347
O_ O_ 0.44847 0.826348 0.680828 -0.58347
O_ O_ 0.454498 0.843136 0.634008 -0.58347
O_ O_ 0.43863 0.777641 0.830948 -0.46727
O_ O_ 0.272486 0.829666 0.838219 -0.46727
O_ O_ 0.470845 0.826051 0.979185 -0.46727
O_ O_ 0.295805 0.85014 0.984628 -0.46727
Zn Zn 0.633077 0.185586 0.383251 0.90689
Zn Zn 0.641125 0.181006 0.431394 0.90689
Zn Zn 0.871879 0.303691 0.13191 0.90689
Zn Zn 0.859419 0.305995 0.179106 0.90689
H_ H_ 0.812153 0.196132 0.445832 0.11455
H_ H_ 0.88117 0.172932 0.346758 0.11455
H_ H_ 0.786444 0.168001 0.357434 0.11455
H_ H_ 0.898133 0.210077 0.463756 0.11455
H_ H_ 0.989851 0.216207 0.45792 0.11455
H_ H_ 0.967535 0.178404 0.366361 0.11455
H_ H_ 0.676082 0.0119446 0.439101 0.11455
H_ H_ 0.63099 0.436364 0.351176 0.11455
H_ H_ 0.625146 0.0289992 0.349837 0.11455
H_ H_ 0.645989 0.425122 0.469235 0.11455
H_ H_ 0.614189 0.337146 0.465001 0.11455
H_ H_ 0.61153 0.347705 0.373195 0.11455
H_ H_ 0.595049 0.108382 0.467516 0.11455
H_ H_ 0.555741 0.0839308 0.014309 0.11455
H_ H_ 0.586666 0.125426 0.0551812 0.11455
H_ H_ 0.704023 0.248756 0.477427 0.11455
H_ H_ 0.708488 0.303367 0.0203539 0.11455
H_ H_ 0.667939 0.284632 0.0655422 0.11455
H_ H_ 0.499925 0.189768 0.127202 0.11455
H_ H_ 0.49122 0.187409 0.17901 0.11455
H_ H_ 0.754091 0.163189 0.137912 0.11455
H_ H_ 0.744955 0.146961 0.187354 0.11455
H_ H_ 0.565396 0.0842484 0.252594 0.11455
H_ H_ 0.552311 0.0575693 0.303181 0.11455
H_ H_ 0.577315 0.115358 0.343246 0.11455
H_ H_ 0.670966 0.233391 0.255873 0.11455
H_ H_ 0.69538 0.287146 0.296886 0.11455
H_ H_ 0.682294 0.263329 0.345401 0.11455
H_ H_ 0.691863 0.28242 0.194455 0.11455
H_ H_ 0.627033 0.334189 0.0988692 0.11455
H_ H_ 0.71713 0.323476 0.105204 0.11455
H_ H_ 0.610864 0.299636 0.213424 0.11455
H_ H_ 0.514451 0.304583 0.208727 0.11455
H_ H_ 0.539442 0.336385 0.117971 0.11455
H_ H_ 0.876614 0.474222 0.192589 0.11455
H_ H_ 0.868595 0.0501643 0.0973886 0.11455
H_ H_ 0.854459 0.458816 0.101891 0.11455
H_ H_ 0.91497 0.0595894 0.210061 0.11455
H_ H_ 0.903813 0.147405 0.208359 0.11455
H_ H_ 0.844497 0.132443 0.120467 0.11455
H_ H_ 0.920259 0.379929 0.213133 0.11455
H_ H_ 0.927848 0.415975 0.260372 0.11455
H_ H_ 0.897536 0.370825 0.302183 0.11455
H_ H_ 0.810229 0.240363 0.22362 0.11455
H_ H_ 0.788097 0.183249 0.266917 0.11455
H_ H_ 0.806699 0.21513 0.316484 0.11455
H_ H_ 0.988059 0.31359 0.374073 0.11455
H_ H_ -0.00752699999999995 0.322933 0.425782 0.11455
H_ H_ 0.731872 0.317959 0.38231 0.11455
H_ H_ 0.736982 0.349243 0.431343 0.11455
H_ H_ 0.897713 0.430131 0.499888 0.11455
H_ H_ 0.956824 0.419882 0.0442831 0.11455
H_ H_ 0.918128 0.380487 0.085859 0.11455
H_ H_ 0.830952 0.250598 0.00599436 0.11455
H_ H_ 0.801688 0.201737 0.0456975 0.11455
H_ H_ 0.832815 0.225271 0.0946953 0.11455
C_ C_ 0.735765 0.191274 0.405154 0.68181
C_ C_ 0.792695 0.188931 0.400823 -0.05681
C_ C_ 0.825407 0.194229 0.424602 -0.08735
C_ C_ 0.876476 0.196854 0.419656 -0.05681
C_ C_ 0.896763 0.185799 0.391944 -0.05681
C_ C_ 0.865036 0.178865 0.368726 -0.08735
C_ C_ 0.811132 0.178659 0.373533 -0.08735
C_ C_ 0.909911 0.203076 0.442618 -0.08735
C_ C_ 0.964252 0.203362 0.439644 -0.08735
C_ C_ 0.984892 0.194652 0.412084 -0.05681
C_ C_ 0.950891 0.185979 0.387874 -0.08735
C_ C_ 0.620472 0.280987 0.415431 0.68181
C_ C_ 0.653139 0.0844854 0.399324 0.68181
C_ C_ 0.648358 0.0294171 0.395855 -0.05681
C_ C_ 0.635043 0.496772 0.425808 -0.08735
C_ C_ 0.62899 0.443416 0.424378 -0.05681
C_ C_ 0.623244 0.419501 0.396458 -0.05681
C_ C_ 0.629756 0.451784 0.372568 -0.08735
C_ C_ 0.638756 0.503367 0.374862 -0.08735
C_ C_ 0.633871 0.411396 0.448145 -0.08735
C_ C_ 0.623862 0.358035 0.445596 -0.08735
C_ C_ 0.618436 0.336502 0.418418 -0.05681
C_ C_ 0.613698 0.367536 0.394186 -0.08735
C_ C_ 0.537251 0.177855 0.408315 0.68181
C_ C_ 0.611637 0.128112 0.485292 0.1947
C_ C_ 0.59171 0.103494 0.0114428 -0.08735
C_ C_ 0.60632 0.133327 0.0344087 -0.08735
C_ C_ 0.634558 0.177632 0.0314676 -0.05681
C_ C_ 0.652485 0.189194 1.00251307 0.18498
C_ C_ 0.689048 0.240656 0.499237 -0.08735
C_ C_ 0.689318 0.266736 0.0233602 -0.08735
C_ C_ 0.665818 0.255732 0.049411 -0.08735
C_ C_ 0.642015 0.210406 0.0547885 0.18498
C_ C_ 0.677026 0.182831 0.100382 0.44287
C_ C_ 0.589175 0.199754 0.09726 0.44287
C_ C_ 0.581616 0.189203 0.126775 -0.05681
C_ C_ 0.534101 0.188443 0.140179 -0.08735
C_ C_ 0.53102 0.185989 0.169708 -0.08735
C_ C_ 0.573703 0.172702 0.186951 -0.05681
C_ C_ 0.620852 0.16961 0.173183 -0.05681
C_ C_ 0.626354 0.178522 0.144048 -0.05681
C_ C_ 0.673073 0.17502 0.129763 -0.05681
C_ C_ 0.714851 0.162146 0.146336 -0.08735
C_ C_ 0.711676 0.155661 0.175604 -0.08735
C_ C_ 0.665246 0.16025 0.189529 -0.05681
C_ C_ 0.65689 0.148685 0.218583 0.44287
C_ C_ 0.570938 0.172238 0.216638 0.44287
C_ C_ 0.607145 0.149783 0.263103 0.18498
C_ C_ 0.579581 0.106588 0.270227 -0.08735
C_ C_ 0.571793 0.0924431 0.297959 -0.08735
C_ C_ 0.589139 0.12125 0.320576 -0.08735
C_ C_ 0.617974 0.165513 0.314001 0.18498
C_ C_ 0.631848 0.175225 0.285185 -0.05681
C_ C_ 0.656984 0.221322 0.278813 -0.08735
C_ C_ 0.676141 0.252426 0.301259 -0.08735
C_ C_ 0.667698 0.237492 0.329252 0.1947
C_ C_ 0.767295 0.300006 0.154859 0.68181
C_ C_ 0.71228 0.298889 0.14982 -0.05681
C_ C_ 0.677723 0.292367 0.17278 -0.08735
C_ C_ 0.6254 0.304768 0.16862 -0.05681
C_ C_ 0.60588 0.315189 0.14178 -0.05681
C_ C_ 0.640206 0.318884 0.119771 -0.08735
C_ C_ 0.692771 0.316063 0.123594 -0.08735
C_ C_ 0.592645 0.304156 0.192001 -0.08735
C_ C_ 0.538908 0.307074 0.188882 -0.08735
C_ C_ 0.51882 0.324456 0.162242 -0.05681
C_ C_ 0.55361 0.329846 0.13919 -0.08735
C_ C_ 0.872709 0.203676 0.161817 0.68181
C_ C_ 0.863904 0.400962 0.150457 0.68181
C_ C_ 0.86374 0.457292 0.148056 -0.05681
C_ C_ 0.879734 -0.011122999999999994 0.171075 -0.08735
C_ C_ 0.879187 0.0420381 0.169335 -0.05681
C_ C_ 0.866733 0.0644934 0.144011 -0.05681
C_ C_ 0.859006 0.034686 0.118507 -0.08735
C_ C_ 0.855971 0.48125 0.121585 -0.08735
C_ C_ 0.896743 0.0734982 0.192363 -0.08735
C_ C_ 0.895469 0.124799 0.189444 -0.08735
C_ C_ 0.875787 0.147406 0.164064 -0.05681
C_ C_ 0.862606 0.11691 0.140385 -0.08735
C_ C_ 0.962976 0.312268 0.155734 0.68181
C_ C_ 0.897038 0.363082 0.229572 0.1947
C_ C_ 0.906011 0.382399 0.256776 -0.08735
C_ C_ 0.888411 0.355654 0.281753 -0.08735
C_ C_ 0.862856 0.310367 0.277554 -0.05681
C_ C_ 0.852485 0.292172 0.248762 0.18498
C_ C_ 0.819403 0.250033 0.245403 -0.08735
C_ C_ 0.806884 0.220068 0.271044 -0.08735
C_ C_ 0.820495 0.237477 0.297907 -0.08735
C_ C_ 0.851486 0.280333 0.301849 0.18498
C_ C_ 0.811274 0.309382 0.345738 0.44287
C_ C_ 0.899943 0.297738 0.34398 0.44287
C_ C_ 0.904579 0.315512 0.372187 -0.05681
C_ C_ 0.952225 0.319574 0.385774 -0.08735
C_ C_ 0.956675 0.32489 0.415685 -0.08735
C_ C_ 0.910588 0.329389 0.431925 -0.05681
C_ C_ 0.862956 0.334237 0.418284 -0.05681
C_ C_ 0.860629 0.324284 0.388585 -0.05681
C_ C_ 0.813692 0.320627 0.375094 -0.05681
C_ C_ 0.768341 0.324735 0.392044 -0.08735
C_ C_ 0.770241 0.334742 0.421132 -0.08735
C_ C_ 0.818193 0.340292 0.435403 -0.05681
C_ C_ 0.822715 0.343799 0.465911 0.44287
C_ C_ 0.911033 0.335711 0.462616 0.44287
C_ C_ 0.88351 0.338667 0.00843037 0.18498
C_ C_ 0.919935 0.376609 0.0141251 -0.08735
C_ C_ 0.927797 0.391981 0.041716 -0.08735
C_ C_ 0.905886 0.368295 0.0652784 -0.08735
C_ C_ 0.880201 0.322663 0.0608271 0.18498
C_ C_ 0.866438 0.307391 0.0312301 -0.05681
C_ C_ 0.841046 0.262018 0.0267857 -0.08735
C_ C_ 0.828549 0.230144 0.0495621 -0.08735
C_ C_ 0.840954 0.246714 0.0773336 0.1947
N_ N_ 0.644904 0.167715 0.480365 -0.29468
N_ N_ 0.635945 0.196217 0.0845481 -0.17154
N_ N_ 0.613305 0.162755 0.233377 -0.17154
N_ N_ 0.636811 0.196515 0.335562 -0.29468
N_ N_ 0.867661 0.322378 0.225524 -0.29468
N_ N_ 0.854541 0.299978 0.330268 -0.17154
N_ N_ 0.868959 0.339659 0.479406 -0.17154
N_ N_ 0.866392 0.291647 0.0819644 -0.29468
O_ O_ 0.716318 0.180694 0.429067 -0.58347
O_ O_ 0.708571 0.199408 0.384019 -0.58347
O_ O_ 0.636624 0.255568 0.436385 -0.58347
O_ O_ 0.6173 0.260648 0.390841 -0.58347
O_ O_ 0.645215 0.102967 0.423587 -0.58347
O_ O_ 0.652376 0.113353 0.377062 -0.58347
O_ O_ 0.564547 0.174763 0.43147 -0.58347
O_ O_ 0.558827 0.179957 0.383814 -0.58347
O_ O_ 0.550296 0.211989 0.0820145 -0.46727
O_ O_ 0.719606 0.170085 0.0865477 -0.46727
O_ O_ 0.524013 0.168499 0.227925 -0.46727
O_ O_ 0.6965 0.135115 0.234231 -0.46727
O_ O_ 0.784114 0.300518 0.180966 -0.58347
O_ O_ 0.795954 0.291156 0.13461 -0.58347
O_ O_ 0.861588 0.228979 0.184396 -0.58347
O_ O_ 0.886522 0.226178 0.138435 -0.58347
O_ O_ 0.858315 0.379562 0.173994 -0.58347
O_ O_ 0.860615 0.376235 0.127392 -0.58347
O_ O_ 0.933814 0.309913 0.176905 -0.58347
O_ O_ 0.946207 0.31224 0.130632 -0.58347
O_ O_ 0.937538 0.272089 0.332352 -0.46727
O_ O_ 0.767079 0.312556 0.331958 -0.46727
O_ O_ 0.955622 0.335625 0.474758 -0.46727
O_ O_ 0.782803 0.360615 0.480525 -0.46727
Zn Zn 0.628894 0.180863 0.881444 0.90689
Zn Zn 0.636541 0.178255 0.929758 0.90689
Zn Zn 0.869137 0.322075 0.631962 0.90689
Zn Zn 0.856891 0.324923 0.679767 0.90689
H_ H_ 0.80514 0.210049 0.939749 0.11455
H_ H_ 0.874617 0.150777 0.847771 0.11455
H_ H_ 0.78103 0.159285 0.854683 0.11455
H_ H_ 0.892004 0.191744 0.962342 0.11455
H_ H_ 0.984455 0.202072 0.953782 0.11455
H_ H_ 0.959948 0.171006 0.862568 0.11455
H_ H_ 0.654141 0.00918308 0.940309 0.11455
H_ H_ 0.603218 0.439072 0.845199 0.11455
H_ H_ 0.625131 0.0305418 0.85184 0.11455
H_ H_ 0.63612 0.426376 0.962139 0.11455
H_ H_ 0.629657 0.335836 0.958389 0.11455
H_ H_ 0.606317 0.34882 0.8662 0.11455
H_ H_ 0.575368 0.110963 0.966818 0.11455
H_ H_ 0.570768 0.0852909 0.515667 0.11455
H_ H_ 0.611622 0.123335 0.558227 0.11455
H_ H_ 0.697506 0.243203 0.977807 0.11455
H_ H_ 0.723019 0.307171 0.515958 0.11455
H_ H_ 0.698158 0.283377 0.56623 0.11455
H_ H_ 0.524202 0.203643 0.625415 0.11455
H_ H_ 0.511418 0.199761 0.677222 0.11455
H_ H_ 0.771987 0.15346 0.640754 0.11455
H_ H_ 0.756166 0.130868 0.689119 0.11455
H_ H_ 0.581348 0.0643556 0.75255 0.11455
H_ H_ 0.55695 0.0493202 0.801406 0.11455
H_ H_ 0.575871 0.11063 0.839453 0.11455
H_ H_ 0.654334 0.235195 0.755099 0.11455
H_ H_ 0.674362 0.292847 0.792523 0.11455
H_ H_ 0.680961 0.251027 0.84589 0.11455
H_ H_ 0.686102 0.290251 0.694365 0.11455
H_ H_ 0.62155 0.32106 0.597746 0.11455
H_ H_ 0.713241 0.325284 0.605444 0.11455
H_ H_ 0.610284 0.340294 0.712991 0.11455
H_ H_ 0.515007 0.333426 0.707241 0.11455
H_ H_ 0.540507 0.334994 0.615857 0.11455
H_ H_ 0.893616 0.490515 0.69083 0.11455
H_ H_ 0.851759 0.0718917 0.597218 0.11455
H_ H_ 0.814626 0.480681 0.610346 0.11455
H_ H_ 0.922439 0.0767721 0.708484 0.11455
H_ H_ 0.916582 0.168764 0.705498 0.11455
H_ H_ 0.859782 0.153946 0.618787 0.11455
H_ H_ 0.901308 0.400049 0.718135 0.11455
H_ H_ 0.929638 0.415324 0.76617 0.11455
H_ H_ 0.897317 0.361731 0.805949 0.11455
H_ H_ 0.799469 0.255877 0.720952 0.11455
H_ H_ 0.766216 0.201553 0.757658 0.11455
H_ H_ 0.785532 0.215851 0.8066 0.11455
H_ H_ 0.976625 0.284074 0.869257 0.11455
H_ H_ -0.009072999999999998 0.308198 0.921077 0.11455
H_ H_ 0.730138 0.324369 0.884555 0.11455
H_ H_ 0.735101 0.319811 0.938399 0.11455
H_ H_ 0.937897 0.399648 0.997941 0.11455
H_ H_ 0.913925 0.456308 0.548475 0.11455
H_ H_ 0.906175 0.395906 0.587363 0.11455
H_ H_ 0.821868 0.261448 0.50815 0.11455
H_ H_ 0.803027 0.209837 0.552681 0.11455
H_ H_ 0.814299 0.244877 0.596462 0.11455
C_ C_ 0.730975 0.187925 0.902812 0.68181
C_ C_ 0.785816 0.186428 0.897591 -0.05681
C_ C_ 0.820476 0.195422 0.91967 -0.08735
C_ C_ 0.873574 0.188058 0.916426 -0.05681
C_ C_ 0.894352 0.172537 0.889332 -0.05681
C_ C_ 0.859991 0.166236 0.867121 -0.08735
C_ C_ 0.807601 0.164644 0.871698 -0.08735
C_ C_ 0.906674 0.187179 0.939854 -0.08735
C_ C_ 0.958992 0.189289 0.935851 -0.08735
C_ C_ 0.9789 0.188216 0.907179 -0.05681
C_ C_ 0.94603 0.176518 0.884059 -0.08735
C_ C_ 0.623722 0.279904 0.908341 0.68181
C_ C_ 0.644132 0.0813285 0.900819 0.68181
C_ C_ 0.639071 0.0259462 0.896732 -0.05681
C_ C_ 0.627981 0.495627 0.919623 -0.08735
C_ C_ 0.621747 0.442174 0.916894 -0.05681
C_ C_ 0.617801 0.420344 0.889601 -0.05681
C_ C_ 0.618171 0.452567 0.86575 -0.08735
C_ C_ 0.627881 0.503841 0.86907 -0.08735
C_ C_ 0.62706 0.410756 0.940591 -0.08735
C_ C_ 0.628671 0.358351 0.938359 -0.08735
C_ C_ 0.622462 0.335664 0.910387 -0.05681
C_ C_ 0.616049 0.36726 0.886019 -0.08735
C_ C_ 0.533435 0.174228 0.908797 0.68181
C_ C_ 0.602439 0.120816 0.983774 0.1947
C_ C_ 0.596642 0.114235 0.513173 -0.08735
C_ C_ 0.619148 0.139439 0.536847 -0.08735
C_ C_ 0.649415 0.181059 0.532099 -0.05681
C_ C_ 0.663168 0.194972 0.503227 0.18498
C_ C_ 0.678637 0.233871 0.998873 -0.08735
C_ C_ 0.707718 0.27048 0.522187 -0.08735
C_ C_ 0.695408 0.255339 0.550869 -0.08735
C_ C_ 0.666585 0.211323 0.555826 0.18498
C_ C_ 0.701394 0.18357 0.601454 0.44287
C_ C_ 0.614179 0.204754 0.596325 0.44287
C_ C_ 0.607652 0.199625 0.626088 -0.05681
C_ C_ 0.557845 0.197921 0.638515 -0.08735
C_ C_ 0.54901 0.190803 0.667013 -0.08735
C_ C_ 0.590827 0.180139 0.684283 -0.05681
C_ C_ 0.638676 0.17367 0.673049 -0.05681
C_ C_ 0.647828 0.185925 0.643883 -0.05681
C_ C_ 0.695614 0.179777 0.631843 -0.05681
C_ C_ 0.734035 0.161646 0.649329 -0.08735
C_ C_ 0.724965 0.149059 0.678021 -0.08735
C_ C_ 0.678119 0.157754 0.69072 -0.05681
C_ C_ 0.668123 0.143801 0.718834 0.44287
C_ C_ 0.58285 0.172249 0.713084 0.44287
C_ C_ 0.609508 0.141821 0.760018 0.18498
C_ C_ 0.583305 0.0959659 0.768054 -0.08735
C_ C_ 0.573652 0.0837735 0.796571 -0.08735
C_ C_ 0.587061 0.119146 0.817376 -0.08735
C_ C_ 0.611577 0.165681 0.810849 0.18498
C_ C_ 0.619266 0.178987 0.782262 -0.05681
C_ C_ 0.645868 0.224024 0.776263 -0.08735
C_ C_ 0.659944 0.255801 0.798603 -0.08735
C_ C_ 0.659506 0.23497 0.827236 0.1947
C_ C_ 0.763506 0.312314 0.655324 0.68181
C_ C_ 0.708447 0.309327 0.651849 -0.05681
C_ C_ 0.674229 0.308283 0.674276 -0.08735
C_ C_ 0.624514 0.324616 0.670386 -0.05681
C_ C_ 0.605135 0.323142 0.642165 -0.05681
C_ C_ 0.637308 0.322393 0.619439 -0.08735
C_ C_ 0.687038 0.322517 0.624124 -0.08735
C_ C_ 0.59387 0.333414 0.69286 -0.08735
C_ C_ 0.541629 0.335382 0.688779 -0.08735
C_ C_ 0.518895 0.335775 0.661297 -0.05681
C_ C_ 0.55266 0.330723 0.637416 -0.08735
C_ C_ 0.878335 0.225525 0.661722 0.68181
C_ C_ 0.85441 0.420587 0.652108 0.68181
C_ C_ 0.856121 0.477359 0.648953 -0.05681
C_ C_ 0.889508 0.00867286 0.669167 -0.08735
C_ C_ 0.888502 0.0614361 0.667783 -0.05681
C_ C_ 0.878931 0.0848286 0.640579 -0.05681
C_ C_ 0.865298 0.0539436 0.616751 -0.08735
C_ C_ 0.837107 0.503767 0.625362 -0.08735
C_ C_ 0.900661 0.0921478 0.690728 -0.08735
C_ C_ 0.904999 0.14639 0.686662 -0.08735
C_ C_ 0.883957 0.169003 0.662407 -0.05681
C_ C_ 0.872814 0.13755 0.638694 -0.08735
C_ C_ 0.962025 0.337552 0.657759 0.68181
C_ C_ 0.889019 0.37359 0.734153 0.1947
C_ C_ 0.902905 0.384271 0.762054 -0.08735
C_ C_ 0.886225 0.354385 0.78466 -0.08735
C_ C_ 0.850837 0.314854 0.779093 -0.05681
C_ C_ 0.838155 0.304731 0.749406 0.18498
C_ C_ 0.805234 0.265065 0.743031 -0.08735
C_ C_ 0.784666 0.236094 0.764024 -0.08735
C_ C_ 0.799637 0.241474 0.79119 -0.08735
C_ C_ 0.829994 0.28218 0.800784 0.18498
C_ C_ 0.798753 0.309537 0.847691 0.44287
C_ C_ 0.887071 0.290755 0.842395 0.44287
C_ C_ 0.895949 0.305447 0.871018 -0.05681
C_ C_ 0.945949 0.302721 0.88281 -0.08735
C_ C_ 0.953718 0.309402 0.91265 -0.08735
C_ C_ 0.912517 0.315483 0.930512 -0.05681
C_ C_ 0.86335 0.317448 0.918596 -0.05681
C_ C_ 0.854409 0.313642 0.889841 -0.05681
C_ C_ 0.806268 0.317878 0.877604 -0.05681
C_ C_ 0.76444 0.319727 0.895163 -0.08735
C_ C_ 0.770774 0.321964 0.925229 -0.08735
C_ C_ 0.820521 0.326754 0.937211 -0.05681
C_ C_ 0.829045 0.329865 0.96711 0.44287
C_ C_ 0.916357 0.315615 0.960301 0.44287
C_ C_ 0.874619 0.353585 0.50961 0.18498
C_ C_ 0.892248 0.403701 0.516369 -0.08735
C_ C_ 0.903767 0.417426 0.543562 -0.08735
C_ C_ 0.89525 0.384759 0.566204 -0.08735
C_ C_ 0.872463 0.337355 0.562042 0.18498
C_ C_ 0.862307 0.319658 0.532467 -0.05681
C_ C_ 0.836115 0.2738 0.529656 -0.08735
C_ C_ 0.828127 0.243639 0.552985 -0.08735
C_ C_ 0.831512 0.267426 0.5805 0.1947
N_ N_ 0.633378 0.162269 0.978848 -0.29468
N_ N_ 0.660707 0.196791 0.584855 -0.17154
N_ N_ 0.620094 0.15315 0.729832 -0.17154
N_ N_ 0.634262 0.19188 0.832633 -0.29468
N_ N_ 0.856039 0.336642 0.72834 -0.29468
N_ N_ 0.839353 0.293728 0.831118 -0.17154
N_ N_ 0.876696 0.326918 0.978474 -0.17154
N_ N_ 0.858481 0.309453 0.585233 -0.29468
O_ O_ 0.712905 0.177184 0.926809 -0.58347
O_ O_ 0.702597 0.189745 0.882172 -0.58347
O_ O_ 0.636983 0.256273 0.930236 -0.58347
O_ O_ 0.615306 0.258459 0.884201 -0.58347
O_ O_ 0.638024 0.10162 0.925063 -0.58347
O_ O_ 0.641993 0.107223 0.878255 -0.58347
O_ O_ 0.561911 0.181015 0.930188 -0.58347
O_ O_ 0.554312 0.170894 0.883902 -0.58347
O_ O_ 0.575379 0.218444 0.580581 -0.46727
O_ O_ 0.743481 0.174418 0.588857 -0.46727
O_ O_ 0.537544 0.179329 0.724034 -0.46727
O_ O_ 0.705995 0.13238 0.736604 -0.46727
O_ O_ 0.783448 0.313619 0.680469 -0.58347
O_ O_ 0.790744 0.315891 0.633035 -0.58347
O_ O_ 0.869889 0.252266 0.683897 -0.58347
O_ O_ 0.882125 0.246235 0.637473 -0.58347
O_ O_ 0.844653 0.399535 0.675718 -0.58347
O_ O_ 0.86286 0.395247 0.62977 -0.58347
O_ O_ 0.934305 0.338082 0.679409 -0.58347
O_ O_ 0.943258 0.334709 0.632792 -0.58347
O_ O_ 0.926643 0.280777 0.825426 -0.46727
O_ O_ 0.752941 0.320155 0.835563 -0.46727
O_ O_ 0.960937 0.313542 0.970973 -0.46727
O_ O_ 0.789051 0.335962 0.984505 -0.46727
Zn Zn 0.62891 0.686697 0.382382 0.90689
Zn Zn 0.636998 0.681307 0.430029 0.90689
Zn Zn 0.865338 0.803563 0.131617 0.90689
Zn Zn 0.859421 0.806278 0.178164 0.90689
H_ H_ 0.808607 0.684147 0.448518 0.11455
H_ H_ 0.883256 0.664515 0.350238 0.11455
H_ H_ 0.792986 0.680063 0.35571 0.11455
H_ H_ 0.891533 0.677789 0.469341 0.11455
H_ H_ 0.983462 0.672699 0.464225 0.11455
H_ H_ 0.965206 0.671074 0.374559 0.11455
H_ H_ 0.636235 0.515088 0.445507 0.11455
H_ H_ 0.611616 0.940776 0.346054 0.11455
H_ H_ 0.636757 0.524822 0.354385 0.11455
H_ H_ 0.67536 0.924959 0.461486 0.11455
H_ H_ 0.669445 0.835455 0.45304 0.11455
H_ H_ 0.608949 0.854961 0.367868 0.11455
H_ H_ 0.571738 0.616216 0.466905 0.11455
H_ H_ 0.554112 0.573083 0.011255 0.11455
H_ H_ 0.603163 0.60685 0.0539559 0.11455
H_ H_ 0.696864 0.744414 0.475477 0.11455
H_ H_ 0.721809 0.784545 0.0218934 0.11455
H_ H_ 0.69286 0.762564 0.0686877 0.11455
H_ H_ 0.505661 0.68431 0.121731 0.11455
H_ H_ 0.494044 0.677537 0.17317 0.11455
H_ H_ 0.759223 0.660355 0.142326 0.11455
H_ H_ 0.743511 0.645007 0.194027 0.11455
H_ H_ 0.565859 0.581193 0.256127 0.11455
H_ H_ 0.533225 0.575858 0.306625 0.11455
H_ H_ 0.578716 0.6212 0.344819 0.11455
H_ H_ 0.65807 0.741905 0.25857 0.11455
H_ H_ 0.695443 0.791882 0.294603 0.11455
H_ H_ 0.689843 0.762003 0.346779 0.11455
H_ H_ 0.689768 0.771974 0.190476 0.11455
H_ H_ 0.620531 0.842034 0.100347 0.11455
H_ H_ 0.71501 0.823648 0.105214 0.11455
H_ H_ 0.604347 0.783081 0.215016 0.11455
H_ H_ 0.513262 0.784391 0.206478 0.11455
H_ H_ 0.537044 0.832131 0.117174 0.11455
H_ H_ 0.887316 0.969803 0.191821 0.11455
H_ H_ 0.861755 0.552325 0.0970651 0.11455
H_ H_ 0.863155 0.959365 0.101027 0.11455
H_ H_ 0.864674 0.558319 0.215382 0.11455
H_ H_ 0.869419 0.649392 0.21039 0.11455
H_ H_ 0.854552 0.63682 0.118749 0.11455
H_ H_ 0.918523 0.879683 0.214034 0.11455
H_ H_ 0.929519 0.913944 0.262146 0.11455
H_ H_ 0.896066 0.865092 0.304477 0.11455
H_ H_ 0.802345 0.746505 0.221594 0.11455
H_ H_ 0.762364 0.698091 0.262443 0.11455
H_ H_ 0.790757 0.716618 0.313228 0.11455
H_ H_ 0.995234 0.780599 0.366368 0.11455
H_ H_ 0.0126976 0.78185 0.417639 0.11455
H_ H_ 0.751707 0.848363 0.389869 0.11455
H_ H_ 0.768861 0.844937 0.441687 0.11455
H_ H_ 0.959639 0.909545 0.496093 0.11455
H_ H_ 0.929685 0.930437 0.0493299 0.11455
H_ H_ 0.904305 0.876996 0.0875212 0.11455
H_ H_ 0.843828 0.74111 0.00462381 0.11455
H_ H_ 0.821033 0.686075 0.0452286 0.11455
H_ H_ 0.812685 0.72362 0.0954765 0.11455
C_ C_ 0.734999 0.690307 0.407118 0.68181
C_ C_ 0.791084 0.680919 0.402621 -0.05681
C_ C_ 0.824427 0.680853 0.426356 -0.08735
C_ C_ 0.873934 0.665976 0.423934 -0.05681
C_ C_ 0.895689 0.661049 0.397657 -0.05681
C_ C_ 0.866885 0.666626 0.372283 -0.08735
C_ C_ 0.813155 0.675431 0.375021 -0.08735
C_ C_ 0.904771 0.669382 0.4485 -0.08735
C_ C_ 0.957405 0.664766 0.445778 -0.08735
C_ C_ 0.980427 0.658042 0.418706 -0.05681
C_ C_ 0.947409 0.658252 0.394838 -0.08735
C_ C_ 0.627475 0.781454 0.409926 0.68181
C_ C_ 0.638254 0.583487 0.402536 0.68181
C_ C_ 0.634919 0.526538 0.401063 -0.05681
C_ C_ 0.660148 0.99743 0.419531 -0.08735
C_ C_ 0.653635 0.943332 0.417034 -0.05681
C_ C_ 0.63173 0.922831 0.390971 -0.05681
C_ C_ 0.621377 0.956311 0.367927 -0.08735
C_ C_ 0.629251 1.00805421 0.370218 -0.08735
C_ C_ 0.660602 0.911376 0.440549 -0.08735
C_ C_ 0.655885 0.859742 0.436337 -0.08735
C_ C_ 0.634852 0.838247 0.41165 -0.05681
C_ C_ 0.620104 0.871266 0.388819 -0.08735
C_ C_ 0.533753 0.682664 0.405878 0.68181
C_ C_ 0.594017 0.631829 0.484059 0.1947
C_ C_ 0.579869 0.603582 0.00825571 -0.08735
C_ C_ 0.606161 0.622471 0.0322187 -0.08735
C_ C_ 0.6287 0.669909 0.0300945 -0.05681
C_ C_ 0.638692 0.690971 1.00110027 0.18498
C_ C_ 0.676371 0.741226 0.494539 -0.08735
C_ C_ 0.693459 0.753805 0.0225424 -0.08735
C_ C_ 0.679 0.738982 0.0502047 -0.08735
C_ C_ 0.650443 0.696318 0.0546859 0.18498
C_ C_ 0.686143 0.672142 0.10142 0.44287
C_ C_ 0.597398 0.690327 0.0962979 0.44287
C_ C_ 0.588462 0.683288 0.124608 -0.05681
C_ C_ 0.540191 0.682793 0.13578 -0.08735
C_ C_ 0.53184 0.674118 0.164303 -0.08735
C_ C_ 0.572719 0.666047 0.183238 -0.05681
C_ C_ 0.622736 0.665135 0.171317 -0.05681
C_ C_ 0.631296 0.671596 0.141398 -0.05681
C_ C_ 0.679659 0.671007 0.131255 -0.05681
C_ C_ 0.720657 0.664078 0.149936 -0.08735
C_ C_ 0.711528 0.657136 0.17989 -0.08735
C_ C_ 0.662794 0.662936 0.190988 -0.05681
C_ C_ 0.654422 0.656444 0.220418 0.44287
C_ C_ 0.565803 0.667174 0.213695 0.44287
C_ C_ 0.601309 0.654258 0.26281 0.18498
C_ C_ 0.574875 0.611337 0.271372 -0.08735
C_ C_ 0.564576 0.600774 0.299993 -0.08735
C_ C_ 0.587341 0.628365 0.322536 -0.08735
C_ C_ 0.620233 0.669388 0.315389 0.18498
C_ C_ 0.626713 0.684302 0.285349 -0.05681
C_ C_ 0.65578 0.726842 0.279323 -0.08735
C_ C_ 0.677846 0.75429 0.30093 -0.08735
C_ C_ 0.673418 0.739153 0.329735 0.1947
C_ C_ 0.764106 0.79922 0.154787 0.68181
C_ C_ 0.709419 0.807398 0.150891 -0.05681
C_ C_ 0.675028 0.791419 0.172154 -0.08735
C_ C_ 0.623086 0.804005 0.16948 -0.05681
C_ C_ 0.603274 0.820271 0.142349 -0.05681
C_ C_ 0.636934 0.830669 0.12056 -0.08735
C_ C_ 0.689856 0.824621 0.124507 -0.08735
C_ C_ 0.590152 0.792393 0.192665 -0.08735
C_ C_ 0.538171 0.799022 0.189641 -0.08735
C_ C_ 0.518817 0.815062 0.162338 -0.05681
C_ C_ 0.551158 0.824908 0.138779 -0.08735
C_ C_ 0.867708 0.707221 0.16133 0.68181
C_ C_ 0.857347 0.902312 0.150431 0.68181
C_ C_ 0.861364 0.958123 0.148357 -0.05681
C_ C_ 0.868957 0.489237 0.172279 -0.08735
C_ C_ 0.86031 0.542537 0.169474 -0.05681
C_ C_ 0.8571 0.56492 0.142338 -0.05681
C_ C_ 0.858772 0.534219 0.118283 -0.08735
C_ C_ 0.85762 0.982048 0.1211 -0.08735
C_ C_ 0.866874 0.574969 0.193753 -0.08735
C_ C_ 0.867015 0.62604 0.190501 -0.08735
C_ C_ 0.86268 0.650261 0.163782 -0.05681
C_ C_ 0.857153 0.618145 0.13976 -0.08735
C_ C_ 0.962153 0.810438 0.153709 0.68181
C_ C_ 0.902146 0.859774 0.231575 0.1947
C_ C_ 0.904505 0.881092 0.25875 -0.08735
C_ C_ 0.888339 0.853276 0.282478 -0.08735
C_ C_ 0.854237 0.811892 0.278024 -0.05681
C_ C_ 0.841412 0.800091 0.248725 0.18498
C_ C_ 0.80688 0.759382 0.244115 -0.08735
C_ C_ 0.788517 0.730265 0.266652 -0.08735
C_ C_ 0.80101 0.742689 0.295618 -0.08735
C_ C_ 0.839782 0.779341 0.300367 0.18498
C_ C_ 0.816239 0.809694 0.349308 0.44287
C_ C_ 0.901384 0.787692 0.339928 0.44287
C_ C_ 0.913507 0.793975 0.369542 -0.05681
C_ C_ 0.963135 0.785064 0.380655 -0.08735
C_ C_ 0.974706 0.790495 0.410826 -0.08735
C_ C_ 0.936045 0.808174 0.429578 -0.05681
C_ C_ 0.886818 0.813704 0.418932 -0.05681
C_ C_ 0.876131 0.807094 0.389454 -0.05681
C_ C_ 0.826667 0.815565 0.378891 -0.05681
C_ C_ 0.789335 0.836082 0.398468 -0.08735
C_ C_ 0.80091 0.837852 0.427214 -0.08735
C_ C_ 0.847984 0.827536 0.438399 -0.05681
C_ C_ 0.858668 0.833069 0.467697 0.44287
C_ C_ 0.945668 0.814458 0.459016 0.44287
C_ C_ 0.881269 0.834473 0.0080721 0.18498
C_ C_ 0.903813 0.882429 0.0149438 -0.08735
C_ C_ 0.916171 0.893734 0.0437215 -0.08735
C_ C_ 0.89505 0.865815 0.0657075 -0.08735
C_ C_ 0.869001 0.820136 0.0607367 0.18498
C_ C_ 0.866876 0.802916 0.0315628 -0.05681
C_ C_ 0.848605 0.755607 0.0275266 -0.08735
C_ C_ 0.830556 0.725776 0.0496789 -0.08735
C_ C_ 0.833013 0.742309 0.0780878 0.1947
N_ N_ 0.628719 0.669906 0.478312 -0.29468
N_ N_ 0.643607 0.681446 0.0841334 -0.17154
N_ N_ 0.607474 0.663415 0.232259 -0.17154
N_ N_ 0.642332 0.697489 0.336549 -0.29468
N_ N_ 0.866029 0.822677 0.226265 -0.29468
N_ N_ 0.85192 0.790351 0.330961 -0.17154
N_ N_ 0.906844 0.825825 0.477225 -0.17154
N_ N_ 0.850982 0.791173 0.0831197 -0.29468
O_ O_ 0.713612 0.686221 0.431441 -0.58347
O_ O_ 0.706354 0.689115 0.384995 -0.58347
O_ O_ 0.631355 0.754613 0.431884 -0.58347
O_ O_ 0.622471 0.763039 0.386067 -0.58347
O_ O_ 0.64124 0.604897 0.426419 -0.58347
O_ O_ 0.641309 0.609866 0.38039 -0.58347
O_ O_ 0.562048 0.674664 0.427797 -0.58347
O_ O_ 0.55398 0.684 0.381222 -0.58347
O_ O_ 0.56034 0.708989 0.0802109 -0.46727
O_ O_ 0.731923 0.673338 0.0897575 -0.46727
O_ O_ 0.521844 0.676282 0.225013 -0.46727
O_ O_ 0.692412 0.644964 0.236447 -0.46727
O_ O_ 0.784497 0.802621 0.179003 -0.58347
O_ O_ 0.790746 0.79251 0.133229 -0.58347
O_ O_ 0.861203 0.736586 0.183024 -0.58347
O_ O_ 0.874715 0.72857 0.137444 -0.58347
O_ O_ 0.858197 0.879775 0.174512 -0.58347
O_ O_ 0.860404 0.877356 0.127858 -0.58347
O_ O_ 0.93317 0.810772 0.17584 -0.58347
O_ O_ 0.941492 0.815849 0.128843 -0.58347
O_ O_ 0.933116 0.770416 0.322016 -0.46727
O_ O_ 0.771701 0.823811 0.340415 -0.46727
O_ O_ 0.991514 0.807866 0.47041 -0.46727
O_ O_ 0.829194 0.860396 0.484077 -0.46727
Zn Zn 0.616795 0.685194 0.880737 0.90689
Zn Zn 0.62784 0.67864 0.929941 0.90689
Zn Zn 0.877571 0.819512 0.629138 0.90689
Zn Zn 0.866604 0.825441 0.67718 0.90689
H_ H_ 0.802005 0.682458 0.947047 0.11455
H_ H_ 0.863266 0.675261 0.847899 0.11455
H_ H_ 0.774844 0.674111 0.856511 0.11455
H_ H_ 0.885376 0.66322 0.965213 0.11455
H_ H_ 0.975079 0.665045 0.956874 0.11455
H_ H_ 0.948994 0.677026 0.865729 0.11455
H_ H_ 0.620527 0.511584 0.940154 0.11455
H_ H_ 0.616329 0.936718 0.8477 0.11455
H_ H_ 0.631487 0.527238 0.850081 0.11455
H_ H_ 0.648501 0.924231 0.963948 0.11455
H_ H_ 0.630288 0.837772 0.960309 0.11455
H_ H_ 0.608249 0.852871 0.867555 0.11455
H_ H_ 0.566502 0.610208 0.964436 0.11455
H_ H_ 0.571925 0.574912 0.516057 0.11455
H_ H_ 0.60546 0.621873 0.55566 0.11455
H_ H_ 0.678432 0.749989 0.976579 0.11455
H_ H_ 0.717949 0.805007 0.51261 0.11455
H_ H_ 0.690496 0.78524 0.562535 0.11455
H_ H_ 0.509749 0.727801 0.623455 0.11455
H_ H_ 0.499653 0.720749 0.67467 0.11455
H_ H_ 0.761558 0.692272 0.639571 0.11455
H_ H_ 0.749765 0.680627 0.689068 0.11455
H_ H_ 0.563029 0.599498 0.744546 0.11455
H_ H_ 0.528311 0.578703 0.793954 0.11455
H_ H_ 0.552084 0.629199 0.836252 0.11455
H_ H_ 0.654073 0.757133 0.758099 0.11455
H_ H_ 0.679092 0.804214 0.800544 0.11455
H_ H_ 0.682347 0.752408 0.848832 0.11455
H_ H_ 0.700492 0.813334 0.692898 0.11455
H_ H_ 0.630758 0.864114 0.597635 0.11455
H_ H_ 0.72256 0.83842 0.601172 0.11455
H_ H_ 0.618838 0.836176 0.716736 0.11455
H_ H_ 0.529514 0.836293 0.709019 0.11455
H_ H_ 0.54446 0.848784 0.617261 0.11455
H_ H_ 0.90332 0.990681 0.687928 0.11455
H_ H_ 0.830959 0.572375 0.601679 0.11455
H_ H_ 0.853082 0.980081 0.599893 0.11455
H_ H_ 0.900642 0.57555 0.71135 0.11455
H_ H_ 0.897602 0.668311 0.708632 0.11455
H_ H_ 0.842541 0.657342 0.621431 0.11455
H_ H_ 0.913051 0.902189 0.71222 0.11455
H_ H_ 0.94118 0.923741 0.7613 0.11455
H_ H_ 0.887155 0.89441 0.801406 0.11455
H_ H_ 0.802012 0.76249 0.719657 0.11455
H_ H_ 0.761973 0.719262 0.761384 0.11455
H_ H_ 0.771022 0.755036 0.809534 0.11455
H_ H_ 0.970008 0.79152 0.869242 0.11455
H_ H_ 0.985443 0.795053 0.922379 0.11455
H_ H_ 0.723573 0.83753 0.886433 0.11455
H_ H_ 0.736876 0.841952 0.938625 0.11455
H_ H_ 0.913699 0.909381 0.998241 0.11455
H_ H_ 0.992462 0.922548 0.544724 0.11455
H_ H_ 0.942744 0.883581 0.586204 0.11455
H_ H_ 0.863392 0.750227 0.507272 0.11455
H_ H_ 0.819212 0.71358 0.548543 0.11455
H_ H_ 0.828575 0.752026 0.594755 0.11455
C_ C_ 0.723857 0.676163 0.906364 0.68181
C_ C_ 0.780411 0.677401 0.902722 -0.05681
C_ C_ 0.813252 0.67762 0.925733 -0.08735
C_ C_ 0.864319 0.673491 0.920605 -0.05681
C_ C_ 0.883278 0.674175 0.892959 -0.05681
C_ C_ 0.849161 0.676628 0.86987 -0.08735
C_ C_ 0.799297 0.67999 0.874573 -0.08735
C_ C_ 0.898072 0.671201 0.943997 -0.08735
C_ C_ 0.950306 0.670923 0.939149 -0.08735
C_ C_ 0.969599 0.673389 0.911172 -0.05681
C_ C_ 0.933936 0.673691 0.886937 -0.08735
C_ C_ 0.615168 0.781461 0.912435 0.68181
C_ C_ 0.624721 0.584648 0.897795 0.68181
C_ C_ 0.620963 0.527876 0.895135 -0.05681
C_ C_ 0.641182 -0.005484999999999962 0.920388 -0.08735
C_ C_ 0.636913 0.941258 0.918535 -0.05681
C_ C_ 0.62657 0.920641 0.891579 -0.05681
C_ C_ 0.622951 0.952667 0.868551 -0.08735
C_ C_ 0.623881 0.00545692 0.871096 -0.08735
C_ C_ 0.641407 0.909925 0.942568 -0.08735
C_ C_ 0.627754 0.859195 0.940924 -0.08735
C_ C_ 0.618138 0.837851 0.913442 -0.05681
C_ C_ 0.615797 0.869411 0.888558 -0.08735
C_ C_ 0.521614 0.684172 0.903269 0.68181
C_ C_ 0.585452 0.627104 0.981892 0.1947
C_ C_ 0.589629 0.611947 0.512322 -0.08735
C_ C_ 0.611645 0.63678 0.53394 -0.08735
C_ C_ 0.642763 0.680584 0.528565 -0.05681
C_ C_ 0.649627 0.695405 0.499913 0.18498
C_ C_ 0.670902 0.734643 0.997604 -0.08735
C_ C_ 0.692507 0.773787 0.516555 -0.08735
C_ C_ 0.67655 0.764019 0.544653 -0.08735
C_ C_ 0.652966 0.717104 0.551032 0.18498
C_ C_ 0.687147 0.698174 0.598281 0.44287
C_ C_ 0.59949 0.713103 0.593577 0.44287
C_ C_ 0.591837 0.711055 0.623172 -0.05681
C_ C_ 0.542732 0.717656 0.636084 -0.08735
C_ C_ 0.537369 0.71196 0.665488 -0.08735
C_ C_ 0.580246 0.702695 0.683238 -0.05681
C_ C_ 0.626779 0.692772 0.670575 -0.05681
C_ C_ 0.633624 0.702681 0.640932 -0.05681
C_ C_ 0.682054 0.694209 0.628096 -0.05681
C_ C_ 0.723424 0.689283 0.646474 -0.08735
C_ C_ 0.716213 0.680217 0.675763 -0.08735
C_ C_ 0.668223 0.679541 0.68861 -0.05681
C_ C_ 0.659526 0.676235 0.718379 0.44287
C_ C_ 0.572495 0.700521 0.711907 0.44287
C_ C_ 0.599035 0.668595 0.758278 0.18498
C_ C_ 0.572456 0.62355 0.763032 -0.08735
C_ C_ 0.55323 0.611289 0.791199 -0.08735
C_ C_ 0.569507 0.637299 0.814605 -0.08735
C_ C_ 0.606393 0.676352 0.811189 0.18498
C_ C_ 0.616911 0.696233 0.782423 -0.05681
C_ C_ 0.647156 0.739833 0.778919 -0.08735
C_ C_ 0.663234 0.765191 0.802994 -0.08735
C_ C_ 0.659911 0.740613 0.829851 0.1947
C_ C_ 0.772711 0.821951 0.65156 0.68181
C_ C_ 0.718247 0.830026 0.647314 -0.05681
C_ C_ 0.687141 0.831785 0.672123 -0.08735
C_ C_ 0.635226 0.837923 0.669451 -0.05681
C_ C_ 0.614196 0.846796 0.641577 -0.05681
C_ C_ 0.646226 0.855202 0.617902 -0.08735
C_ C_ 0.698249 0.843588 0.620573 -0.08735
C_ C_ 0.605095 0.836311 0.693952 -0.08735
C_ C_ 0.552569 0.841461 0.690729 -0.08735
C_ C_ 0.530797 0.845249 0.66262 -0.05681
C_ C_ 0.563452 0.849572 0.638084 -0.08735
C_ C_ 0.875476 0.725522 0.66001 0.68181
C_ C_ 0.872521 0.920076 0.646886 0.68181
C_ C_ 0.875007 0.977027 0.644579 -0.05681
C_ C_ 0.877832 0.50924 0.67107 -0.08735
C_ C_ 0.879923 0.562829 0.66758 -0.05681
C_ C_ 0.86334 0.585978 0.641808 -0.05681
C_ C_ 0.846682 0.554406 0.61986 -0.08735
C_ C_ 0.8616 1.0010805 0.618678 -0.08735
C_ C_ 0.893194 0.593165 0.690815 -0.08735
C_ C_ 0.884303 0.644038 0.690016 -0.08735
C_ C_ 0.875771 0.668468 0.662804 -0.05681
C_ C_ 0.859252 0.63899 0.640743 -0.08735
C_ C_ 0.970223 0.828434 0.655156 0.68181
C_ C_ 0.899333 0.881475 0.730018 0.1947
C_ C_ 0.912923 0.894704 0.757694 -0.08735
C_ C_ 0.882905 0.877667 0.780668 -0.08735
C_ C_ 0.851177 0.834724 0.776823 -0.05681
C_ C_ 0.844311 0.817371 0.746844 0.18498
C_ C_ 0.806691 0.779848 0.741789 -0.08735
C_ C_ 0.78653 0.752092 0.764961 -0.08735
C_ C_ 0.794432 0.767549 0.792769 -0.08735
C_ C_ 0.827543 0.807594 0.799763 0.18498
C_ C_ 0.795249 0.831731 0.846643 0.44287
C_ C_ 0.881505 0.806748 0.841108 0.44287
C_ C_ 0.889634 0.811535 0.870518 -0.05681
C_ C_ 0.937931 0.801408 0.882328 -0.08735
C_ C_ 0.946883 0.801069 0.912975 -0.08735
C_ C_ 0.905528 0.806017 0.930841 -0.05681
C_ C_ 0.856294 0.817059 0.91762 -0.05681
C_ C_ 0.848811 0.819168 0.888977 -0.05681
C_ C_ 0.800375 0.828981 0.876599 -0.05681
C_ C_ 0.759267 0.832052 0.895806 -0.08735
C_ C_ 0.767069 0.833184 0.92519 -0.08735
C_ C_ 0.814806 0.82239 0.936849 -0.05681
C_ C_ 0.823413 0.824933 0.967758 0.44287
C_ C_ 0.912059 0.813168 0.960498 0.44287
C_ C_ 0.919986 0.839779 0.507047 0.18498
C_ C_ 0.952873 0.881588 0.512041 -0.08735
C_ C_ 0.963354 0.893168 0.541347 -0.08735
C_ C_ 0.938425 0.869894 0.565269 -0.08735
C_ C_ 0.905385 0.829658 0.559491 0.18498
C_ C_ 0.896376 0.813501 0.530453 -0.05681
C_ C_ 0.863287 0.770908 0.526526 -0.08735
C_ C_ 0.842364 0.746671 0.550818 -0.08735
C_ C_ 0.845991 0.769492 0.57743 0.1947
N_ N_ 0.618009 0.666231 0.978638 -0.29468
N_ N_ 0.646823 0.705818 0.580931 -0.17154
N_ N_ 0.611215 0.681775 0.728995 -0.17154
N_ N_ 0.627939 0.699989 0.834498 -0.29468
N_ N_ 0.870931 0.841315 0.724582 -0.29468
N_ N_ 0.836506 0.821344 0.829528 -0.17154
N_ N_ 0.871448 0.821081 0.978341 -0.17154
N_ N_ 0.87604 0.810783 0.581871 -0.29468
O_ O_ 0.703943 0.678265 0.931504 -0.58347
O_ O_ 0.695106 0.675614 0.884669 -0.58347
O_ O_ 0.622832 0.752865 0.934404 -0.58347
O_ O_ 0.615597 0.761256 0.887814 -0.58347
O_ O_ 0.628663 0.604122 0.922605 -0.58347
O_ O_ 0.61531 0.611301 0.876098 -0.58347
O_ O_ 0.549971 0.679409 0.925869 -0.58347
O_ O_ 0.540398 0.68177 0.879707 -0.58347
O_ O_ 0.559762 0.72539 0.577749 -0.46727
O_ O_ 0.730672 0.688251 0.586754 -0.46727
O_ O_ 0.527682 0.709067 0.723625 -0.46727
O_ O_ 0.693011 0.653805 0.734928 -0.46727
O_ O_ 0.790532 0.824592 0.676725 -0.58347
O_ O_ 0.80176 0.814489 0.630114 -0.58347
O_ O_ 0.871553 0.751901 0.682141 -0.58347
O_ O_ 0.883873 0.743267 0.63506 -0.58347
O_ O_ 0.866865 0.900428 0.670359 -0.58347
O_ O_ 0.872391 0.892859 0.623664 -0.58347
O_ O_ 0.942586 0.831063 0.676546 -0.58347
O_ O_ 0.952761 0.830776 0.629811 -0.58347
O_ O_ 0.917739 0.78747 0.824856 -0.46727
O_ O_ 0.751794 0.840165 0.833414 -0.46727
O_ O_ 0.957642 0.81036 0.971481 -0.46727
O_ O_ 0.785193 0.830032 0.985701 -0.46727
