_cell_length_a 26.376
_cell_length_b 26.400000238300095
_cell_length_c 46.67800035477134
_cell_angle_alpha 90.00700052986613
_cell_angle_beta 89.99899961309502
_cell_angle_gamma 90.45000003183146
_symmetry_space_group_name_H-M         'P 1'
_symmetry_Int_Tables_number            1
loop_
_symmetry_equiv_pos_as_xyz
   'x, y, z'
                         
loop_
_atom_site_label
_atom_site_type_symbol
_atom_site_fract_x 
_atom_site_fract_y
_atom_site_fract_z
_atom_site_charge
Zn Zn 0.123078 0.190465 0.385158 0.90689
Zn Zn 0.136227 0.181697 0.431493 0.90689
Zn Zn 0.366127 0.324779 0.132006 0.90689
Zn Zn 0.356141 0.325299 0.178399 0.90689
H_ H_ 0.297717 0.178496 0.444531 0.11455
H_ H_ 0.364982 0.177368 0.345218 0.11455
H_ H_ 0.274108 0.168887 0.355307 0.11455
H_ H_ 0.383735 0.174424 0.46341 0.11455
H_ H_ 0.477207 0.186027 0.454532 0.11455
H_ H_ 0.456243 0.179647 0.365045 0.11455
H_ H_ 0.159745 0.0175096 0.436956 0.11455
H_ H_ 0.132085 0.438106 0.34645 0.11455
H_ H_ 0.10066 0.0339648 0.350617 0.11455
H_ H_ 0.142904 0.434166 0.465237 0.11455
H_ H_ 0.14182 0.343197 0.460671 0.11455
H_ H_ 0.126037 0.355766 0.371229 0.11455
H_ H_ 0.0886733 0.102386 0.464183 0.11455
H_ H_ 0.064155 0.0844887 0.0174778 0.11455
H_ H_ 0.101547 0.129313 0.0603775 0.11455
H_ H_ 0.176906 0.25571 0.479578 0.11455
H_ H_ 0.186713 0.322755 0.0173634 0.11455
H_ H_ 0.181621 0.291345 0.066577 0.11455
H_ H_ 0.00323887 0.208779 0.122497 0.11455
H_ H_ -0.014101999999999948 0.186125 0.174117 0.11455
H_ H_ 0.254657 0.170191 0.14202 0.11455
H_ H_ 0.236841 0.139249 0.192151 0.11455
H_ H_ 0.0373741 0.0829943 0.256629 0.11455
H_ H_ 0.00659669 0.0848545 0.304272 0.11455
H_ H_ 0.0528442 0.132329 0.342584 0.11455
H_ H_ 0.154506 0.228108 0.255226 0.11455
H_ H_ 0.179087 0.285686 0.292495 0.11455
H_ H_ 0.162679 0.264423 0.344032 0.11455
H_ H_ 0.188384 0.295105 0.189147 0.11455
H_ H_ 0.12095 0.347752 0.0954508 0.11455
H_ H_ 0.210795 0.349886 0.102253 0.11455
H_ H_ 0.106622 0.28282 0.208082 0.11455
H_ H_ 0.0154083 0.292214 0.204165 0.11455
H_ H_ 0.0305084 0.338686 0.116012 0.11455
H_ H_ 0.380748 0.497386 0.191789 0.11455
H_ H_ 0.305115 0.0660725 0.109108 0.11455
H_ H_ 0.338381 0.48443 0.10263 0.11455
H_ H_ 0.421975 0.0805354 0.20713 0.11455
H_ H_ 0.407662 0.171387 0.202239 0.11455
H_ H_ 0.323089 0.149877 0.125731 0.11455
H_ H_ 0.408377 0.39131 0.216735 0.11455
H_ H_ 0.427996 0.418325 0.266479 0.11455
H_ H_ 0.384859 0.374777 0.307736 0.11455
H_ H_ 0.299664 0.253069 0.223668 0.11455
H_ H_ 0.28809 0.190052 0.263254 0.11455
H_ H_ 0.30068 0.21279 0.310831 0.11455
H_ H_ 0.482228 0.294178 0.373742 0.11455
H_ H_ 0.489213 0.29858 0.425639 0.11455
H_ H_ 0.224979 0.314375 0.389576 0.11455
H_ H_ 0.236214 0.312048 0.442375 0.11455
H_ H_ 0.417146 0.405158 0.501348 0.11455
H_ H_ 0.431627 0.447756 0.047633 0.11455
H_ H_ 0.422697 0.384813 0.0853355 0.11455
H_ H_ 0.319808 0.271871 0.00538455 0.11455
H_ H_ 0.294637 0.219427 0.0467021 0.11455
H_ H_ 0.31839 0.240277 0.0960257 0.11455
C_ C_ 0.227925 0.190656 0.404293 0.68181
C_ C_ 0.28306 0.182523 0.399767 -0.05681
C_ C_ 0.31312 0.180245 0.423443 -0.08735
C_ C_ 0.365975 0.178501 0.418948 -0.05681
C_ C_ 0.38707 0.179232 0.390637 -0.05681
C_ C_ 0.352724 0.174668 0.367522 -0.08735
C_ C_ 0.301809 0.169488 0.372489 -0.08735
C_ C_ 0.400042 0.177563 0.44253 -0.08735
C_ C_ 0.451803 0.177557 0.437672 -0.08735
C_ C_ 0.472415 0.180777 0.410134 -0.05681
C_ C_ 0.439043 0.179461 0.385917 -0.08735
C_ C_ 0.129715 0.284049 0.414976 0.68181
C_ C_ 0.133912 0.0906588 0.398193 0.68181
C_ C_ 0.131908 0.0352277 0.39462 -0.05681
C_ C_ 0.15507 0.501967 0.419744 -0.08735
C_ C_ 0.143314 0.449602 0.419652 -0.05681
C_ C_ 0.136761 0.426493 0.393426 -0.05681
C_ C_ 0.128777 0.45542 0.367904 -0.08735
C_ C_ 0.136562 0.508126 0.368906 -0.08735
C_ C_ 0.139502 0.41748 0.445161 -0.08735
C_ C_ 0.141189 0.364402 0.442445 -0.08735
C_ C_ 0.133547 0.341634 0.417123 -0.05681
C_ C_ 0.133386 0.373627 0.39206 -0.08735
C_ C_ 0.030888 0.178082 0.41082 0.68181
C_ C_ 0.104631 0.120176 0.48317 0.1947
C_ C_ 0.0957986 0.110791 0.0142896 -0.08735
C_ C_ 0.109783 0.140822 0.0376093 -0.08735
C_ C_ 0.136267 0.187237 0.0325321 -0.05681
C_ C_ 0.142836 0.20288 1.00350029 0.18498
C_ C_ 0.170063 0.241347 0.499816 -0.08735
C_ C_ 0.17505 0.284003 0.0210487 -0.08735
C_ C_ 0.164864 0.270959 0.0500746 -0.08735
C_ C_ 0.147902 0.222 0.0562919 0.18498
C_ C_ 0.180761 0.198536 0.103459 0.44287
C_ C_ 0.0935519 0.214972 0.0978371 0.44287
C_ C_ 0.0842755 0.200268 0.126737 -0.05681
C_ C_ 0.0333727 0.194523 0.136029 -0.08735
C_ C_ 0.0244115 0.182835 0.165823 -0.08735
C_ C_ 0.0665703 0.174241 0.184587 -0.05681
C_ C_ 0.115352 0.171047 0.173368 -0.05681
C_ C_ 0.126096 0.184727 0.144156 -0.05681
C_ C_ 0.173848 0.181695 0.132007 -0.05681
C_ C_ 0.215009 0.167976 0.150121 -0.08735
C_ C_ 0.206543 0.1559 0.179221 -0.08735
C_ C_ 0.156775 0.157219 0.191304 -0.05681
C_ C_ 0.147987 0.146953 0.220785 0.44287
C_ C_ 0.0601881 0.166131 0.214104 0.44287
C_ C_ 0.0919241 0.143728 0.262236 0.18498
C_ C_ 0.0594155 0.105314 0.271762 -0.08735
C_ C_ 0.041497 0.105117 0.299507 -0.08735
C_ C_ 0.0642387 0.135037 0.321438 -0.08735
C_ C_ 0.104461 0.166979 0.314698 0.18498
C_ C_ 0.116845 0.173254 0.284517 -0.05681
C_ C_ 0.148659 0.213565 0.276874 -0.08735
C_ C_ 0.160194 0.250509 0.298722 -0.08735
C_ C_ 0.152598 0.239175 0.328408 0.1947
C_ C_ 0.263471 0.326324 0.152607 0.68181
C_ C_ 0.209241 0.323738 0.147118 -0.05681
C_ C_ 0.175014 0.306063 0.1682 -0.08735
C_ C_ 0.122357 0.307145 0.16493 -0.05681
C_ C_ 0.101392 0.322351 0.138543 -0.05681
C_ C_ 0.13515 0.339611 0.117022 -0.08735
C_ C_ 0.18603 0.336271 0.119488 -0.08735
C_ C_ 0.0914585 0.298524 0.188713 -0.08735
C_ C_ 0.0383187 0.302762 0.185779 -0.08735
C_ C_ 0.0153353 0.317244 0.159562 -0.05681
C_ C_ 0.0463055 0.326614 0.136562 -0.08735
C_ C_ 0.370234 0.225512 0.160899 0.68181
C_ C_ 0.360652 0.425267 0.149753 0.68181
C_ C_ 0.360711 0.482124 0.147928 -0.05681
C_ C_ 0.393887 0.00708032 0.16629 -0.08735
C_ C_ 0.38673 0.0615886 0.165289 -0.05681
C_ C_ 0.355112 0.0829906 0.143757 -0.05681
C_ C_ 0.33059 0.0499976 0.124582 -0.08735
C_ C_ 0.345787 0.506982 0.121864 -0.08735
C_ C_ 0.400504 0.0935372 0.188384 -0.08735
C_ C_ 0.397876 0.146054 0.184525 -0.08735
C_ C_ 0.372437 0.168012 0.161169 -0.05681
C_ C_ 0.34953 0.136104 0.141008 -0.08735
C_ C_ 0.458434 0.325885 0.158632 0.68181
C_ C_ 0.38776 0.376041 0.234733 0.1947
C_ C_ 0.402221 0.387221 0.26247 -0.08735
C_ C_ 0.381696 0.360424 0.285499 -0.08735
C_ C_ 0.355679 0.31533 0.280273 -0.05681
C_ C_ 0.3435 0.302794 0.250171 0.18498
C_ C_ 0.314956 0.260221 0.244799 -0.08735
C_ C_ 0.304316 0.227485 0.266976 -0.08735
C_ C_ 0.311376 0.24198 0.295896 -0.08735
C_ C_ 0.337769 0.284259 0.303354 0.18498
C_ C_ 0.302504 0.308501 0.349494 0.44287
C_ C_ 0.391067 0.293109 0.345916 0.44287
C_ C_ 0.398951 0.304057 0.374905 -0.05681
C_ C_ 0.447161 0.299002 0.386173 -0.08735
C_ C_ 0.452351 0.303332 0.415845 -0.08735
C_ C_ 0.410008 0.310953 0.433595 -0.05681
C_ C_ 0.362751 0.31695 0.422404 -0.05681
C_ C_ 0.356857 0.309224 0.392756 -0.05681
C_ C_ 0.307346 0.31049 0.380125 -0.05681
C_ C_ 0.264686 0.314668 0.398173 -0.08735
C_ C_ 0.270206 0.32019 0.427811 -0.08735
C_ C_ 0.319784 0.323904 0.440205 -0.05681
C_ C_ 0.326546 0.327975 0.470364 0.44287
C_ C_ 0.414374 0.313289 0.464942 0.44287
C_ C_ 0.381294 0.354916 0.00903277 0.18498
C_ C_ 0.408123 0.398163 0.0147841 -0.08735
C_ C_ 0.422747 0.408768 0.0432866 -0.08735
C_ C_ 0.41157 0.376189 0.0651912 -0.08735
C_ C_ 0.377459 0.336483 0.0608925 0.18498
C_ C_ 0.364273 0.3242 0.0320134 -0.05681
C_ C_ 0.332116 0.281422 0.0273459 -0.08735
C_ C_ 0.316912 0.251827 0.0515109 -0.08735
C_ C_ 0.326512 0.266884 0.0789085 0.1947
N_ N_ 0.130608 0.165169 0.479874 -0.29468
N_ N_ 0.14014 0.208803 0.0855933 -0.17154
N_ N_ 0.0996011 0.149892 0.231312 -0.17154
N_ N_ 0.125286 0.198132 0.336419 -0.29468
N_ N_ 0.356351 0.336688 0.228763 -0.29468
N_ N_ 0.344679 0.298383 0.33299 -0.17154
N_ N_ 0.373041 0.322893 0.482037 -0.17154
N_ N_ 0.358104 0.307686 0.0840262 -0.29468
O_ O_ 0.211288 0.191262 0.429045 -0.58347
O_ O_ 0.19683 0.187362 0.383056 -0.58347
O_ O_ 0.1218 0.256484 0.437073 -0.58347
O_ O_ 0.130459 0.264746 0.390614 -0.58347
O_ O_ 0.145189 0.10971 0.42264 -0.58347
O_ O_ 0.120748 0.118896 0.377832 -0.58347
O_ O_ 0.0618461 0.165152 0.43041 -0.58347
O_ O_ 0.0483768 0.193785 0.38757 -0.58347
O_ O_ 0.0551628 0.225006 0.0813228 -0.46727
O_ O_ 0.227247 0.19957 0.0920694 -0.46727
O_ O_ 0.0132271 0.170428 0.225714 -0.46727
O_ O_ 0.185031 0.128415 0.237083 -0.46727
O_ O_ 0.281562 0.312489 0.176729 -0.58347
O_ O_ 0.292684 0.332409 0.131322 -0.58347
O_ O_ 0.364683 0.250273 0.184365 -0.58347
O_ O_ 0.366767 0.247244 0.136826 -0.58347
O_ O_ 0.349741 0.402554 0.173004 -0.58347
O_ O_ 0.372016 0.399025 0.127553 -0.58347
O_ O_ 0.429998 0.331497 0.179267 -0.58347
O_ O_ 0.440245 0.320594 0.13307 -0.58347
O_ O_ 0.43065 0.282972 0.329641 -0.46727
O_ O_ 0.257203 0.310709 0.338286 -0.46727
O_ O_ 0.459181 0.309098 0.476738 -0.46727
O_ O_ 0.288627 0.342588 0.485404 -0.46727
Zn Zn 0.127105 0.179273 0.883683 0.90689
Zn Zn 0.137554 0.173075 0.932397 0.90689
Zn Zn 0.375434 0.301072 0.632244 0.90689
Zn Zn 0.359843 0.313342 0.680112 0.90689
H_ H_ 0.302317 0.20389 0.946045 0.11455
H_ H_ 0.368911 0.15391 0.85028 0.11455
H_ H_ 0.279663 0.146386 0.860972 0.11455
H_ H_ 0.384354 0.203029 0.964929 0.11455
H_ H_ 0.482823 0.202181 0.956161 0.11455
H_ H_ 0.460325 0.171292 0.868255 0.11455
H_ H_ 0.166604 0.0108655 0.940874 0.11455
H_ H_ 0.154241 0.424028 0.848541 0.11455
H_ H_ 0.0921751 0.0232903 0.856597 0.11455
H_ H_ 0.104709 0.428499 0.962714 0.11455
H_ H_ 0.111304 0.336492 0.962077 0.11455
H_ H_ 0.146392 0.345341 0.871363 0.11455
H_ H_ 0.0996686 0.101538 0.96936 0.11455
H_ H_ 0.064579 0.0712949 0.512853 0.11455
H_ H_ 0.0855783 0.125581 0.55461 0.11455
H_ H_ 0.164975 0.26779 0.979014 0.11455
H_ H_ 0.211392 0.303329 0.518663 0.11455
H_ H_ 0.188891 0.275092 0.568464 0.11455
H_ H_ -0.0016920000000000268 0.201245 0.627792 0.11455
H_ H_ -0.011044000000000054 0.179319 0.677283 0.11455
H_ H_ 0.2514 0.148354 0.638884 0.11455
H_ H_ 0.239175 0.148328 0.692053 0.11455
H_ H_ 0.0458887 0.0791147 0.756866 0.11455
H_ H_ 0.0299389 0.0614436 0.806165 0.11455
H_ H_ 0.0600077 0.115265 0.842817 0.11455
H_ H_ 0.14387 0.230458 0.757175 0.11455
H_ H_ 0.179567 0.28298 0.79624 0.11455
H_ H_ 0.167337 0.254262 0.846252 0.11455
H_ H_ 0.193684 0.27574 0.689612 0.11455
H_ H_ 0.125461 0.335836 0.596661 0.11455
H_ H_ 0.217879 0.334197 0.60542 0.11455
H_ H_ 0.108457 0.293333 0.710457 0.11455
H_ H_ 0.0173871 0.279382 0.702194 0.11455
H_ H_ 0.0404324 0.332868 0.617328 0.11455
H_ H_ 0.365725 0.47644 0.693083 0.11455
H_ H_ 0.403455 0.0600699 0.602263 0.11455
H_ H_ 0.377314 0.466772 0.600823 0.11455
H_ H_ 0.317837 0.0645097 0.713081 0.11455
H_ H_ 0.342253 0.150463 0.711834 0.11455
H_ H_ 0.403454 0.137123 0.626794 0.11455
H_ H_ 0.421837 0.376556 0.71683 0.11455
H_ H_ 0.441616 0.399073 0.764923 0.11455
H_ H_ 0.394274 0.36356 0.805615 0.11455
H_ H_ 0.303381 0.248723 0.723654 0.11455
H_ H_ 0.253094 0.208143 0.759065 0.11455
H_ H_ 0.28094 0.22647 0.811445 0.11455
H_ H_ 0.467604 0.281613 0.870735 0.11455
H_ H_ 0.484351 0.299377 0.920397 0.11455
H_ H_ 0.227827 0.363066 0.887435 0.11455
H_ H_ 0.244472 0.382154 0.934821 0.11455
H_ H_ 0.422329 0.421209 -0.0032200000000000006 0.11455
H_ H_ 0.471848 0.401188 0.547718 0.11455
H_ H_ 0.443211 0.349092 0.58602 0.11455
H_ H_ 0.322862 0.251017 0.509414 0.11455
H_ H_ 0.291571 0.20143 0.553762 0.11455
H_ H_ 0.313222 0.226613 0.599741 0.11455
C_ C_ 0.229674 0.176366 0.907516 0.68181
C_ C_ 0.28624 0.178841 0.902663 -0.05681
C_ C_ 0.317949 0.192426 0.924626 -0.08735
C_ C_ 0.371459 0.188198 0.920005 -0.05681
C_ C_ 0.390776 0.181427 0.891876 -0.05681
C_ C_ 0.354712 0.168212 0.87069 -0.08735
C_ C_ 0.303854 0.1614 0.877028 -0.08735
C_ C_ 0.40379 0.198409 0.94321 -0.08735
C_ C_ 0.456113 0.200668 0.939133 -0.08735
C_ C_ 0.475553 0.186855 0.912305 -0.05681
C_ C_ 0.443142 0.177394 0.888865 -0.08735
C_ C_ 0.124371 0.278443 0.91396 0.68181
C_ C_ 0.132543 0.0785413 0.900655 0.68181
C_ C_ 0.130734 0.0217419 0.89794 -0.05681
C_ C_ 0.127901 0.493368 0.920326 -0.08735
C_ C_ 0.126829 0.440776 0.919349 -0.05681
C_ C_ 0.137829 0.415516 0.893181 -0.05681
C_ C_ 0.149341 0.442983 0.868847 -0.08735
C_ C_ 0.148286 0.496493 0.869887 -0.08735
C_ C_ 0.120523 0.411087 0.943819 -0.08735
C_ C_ 0.11584 0.357775 0.942263 -0.08735
C_ C_ 0.125017 0.33266 0.916103 -0.05681
C_ C_ 0.133327 0.362786 0.892101 -0.08735
C_ C_ 0.0331087 0.179655 0.909554 0.68181
C_ C_ 0.109175 0.126313 0.986618 0.1947
C_ C_ 0.0904265 0.103092 0.511247 -0.08735
C_ C_ 0.104557 0.132774 0.534793 -0.08735
C_ C_ 0.132193 0.177696 0.531746 -0.05681
C_ C_ 0.145153 0.194953 0.503465 0.18498
C_ C_ 0.157274 0.253745 0.998834 -0.08735
C_ C_ 0.186311 0.269074 0.523435 -0.08735
C_ C_ 0.176495 0.251924 0.551069 -0.08735
C_ C_ 0.145034 0.208846 0.555444 0.18498
C_ C_ 0.176063 0.173763 0.60103 0.44287
C_ C_ 0.0905565 0.204081 0.598208 0.44287
C_ C_ 0.0821757 0.188172 0.627373 -0.05681
C_ C_ 0.0333588 0.18906 0.639478 -0.08735
C_ C_ 0.0267431 0.176846 0.668648 -0.08735
C_ C_ 0.0673594 0.165128 0.686397 -0.05681
C_ C_ 0.11565 0.159395 0.673895 -0.05681
C_ C_ 0.123433 0.171463 0.643714 -0.05681
C_ C_ 0.173054 0.167329 0.631421 -0.05681
C_ C_ 0.213642 0.153117 0.649278 -0.08735
C_ C_ 0.206435 0.150622 0.678735 -0.08735
C_ C_ 0.157501 0.148301 0.690398 -0.05681
C_ C_ 0.149565 0.142493 0.719759 0.44287
C_ C_ 0.0611076 0.161078 0.715628 0.44287
C_ C_ 0.0956389 0.142824 0.762845 0.18498
C_ C_ 0.0688885 0.0990264 0.771691 -0.08735
C_ C_ 0.0594051 0.0887892 0.80124 -0.08735
C_ C_ 0.0771592 0.119716 0.8227 -0.08735
C_ C_ 0.101901 0.164276 0.815136 0.18498
C_ C_ 0.111913 0.176054 0.785604 -0.05681
C_ C_ 0.142905 0.218245 0.778735 -0.08735
C_ C_ 0.155984 0.250965 0.800633 -0.08735
C_ C_ 0.147186 0.235541 0.829451 0.1947
C_ C_ 0.268315 0.303403 0.654169 0.68181
C_ C_ 0.213824 0.308478 0.649083 -0.05681
C_ C_ 0.178658 0.294123 0.670585 -0.08735
C_ C_ 0.127063 0.305213 0.668181 -0.05681
C_ C_ 0.107341 0.318215 0.641089 -0.05681
C_ C_ 0.1405 0.326747 0.617862 -0.08735
C_ C_ 0.192584 0.324245 0.623037 -0.08735
C_ C_ 0.0934011 0.2973 0.690109 -0.08735
C_ C_ 0.0421145 0.297787 0.686589 -0.08735
C_ C_ 0.0228143 0.308202 0.659717 -0.05681
C_ C_ 0.0559085 0.318122 0.636903 -0.08735
C_ C_ 0.368554 0.208974 0.664811 0.68181
C_ C_ 0.370971 0.40557 0.649444 0.68181
C_ C_ 0.373357 0.461548 0.646707 -0.05681
C_ C_ 0.341307 -0.003927000000000014 0.671654 -0.08735
C_ C_ 0.350583 0.0485315 0.67023 -0.05681
C_ C_ 0.375095 0.0692696 0.646473 -0.05681
C_ C_ 0.388901 0.0389549 0.6224 -0.08735
C_ C_ 0.37128 0.486784 0.6207 -0.08735
C_ C_ 0.335017 0.0802266 0.692251 -0.08735
C_ C_ 0.347389 0.130375 0.691973 -0.08735
C_ C_ 0.37014 0.152835 0.668602 -0.05681
C_ C_ 0.38756 0.121076 0.645765 -0.08735
C_ C_ 0.466564 0.311915 0.659337 0.68181
C_ C_ 0.399154 0.361957 0.734067 0.1947
C_ C_ 0.410909 0.375137 0.760814 -0.08735
C_ C_ 0.387494 0.349908 0.783668 -0.08735
C_ C_ 0.350131 0.314426 0.779361 -0.05681
C_ C_ 0.340305 0.300945 0.750257 0.18498
C_ C_ 0.308345 0.260857 0.74392 -0.08735
C_ C_ 0.280407 0.237191 0.765621 -0.08735
C_ C_ 0.293422 0.248017 0.793842 -0.08735
C_ C_ 0.325526 0.289868 0.80193 0.18498
C_ C_ 0.297695 0.32836 0.848012 0.44287
C_ C_ 0.376629 0.286831 0.844496 0.44287
C_ C_ 0.3885 0.30094 0.872382 -0.05681
C_ C_ 0.436246 0.295453 0.884143 -0.08735
C_ C_ 0.448494 0.311405 0.912036 -0.08735
C_ C_ 0.407443 0.322418 0.931515 -0.05681
C_ C_ 0.360599 0.331941 0.919282 -0.05681
C_ C_ 0.350299 0.321752 0.890695 -0.05681
C_ C_ 0.303852 0.334647 0.87865 -0.05681
C_ C_ 0.265819 0.355649 0.894983 -0.08735
C_ C_ 0.275175 0.366398 0.92345 -0.08735
C_ C_ 0.319628 0.347921 0.936921 -0.05681
C_ C_ 0.32731 0.350413 0.966805 0.44287
C_ C_ 0.414514 0.331999 0.961055 0.44287
C_ C_ 0.379652 0.33533 0.511791 0.18498
C_ C_ 0.409765 0.376428 0.518464 -0.08735
C_ C_ 0.437427 0.377929 0.544146 -0.08735
C_ C_ 0.421533 0.34787 0.567141 -0.08735
C_ C_ 0.382796 0.314459 0.563884 0.18498
C_ C_ 0.362384 0.306066 0.535421 -0.05681
C_ C_ 0.331836 0.262772 0.53061 -0.08735
C_ C_ 0.316913 0.234222 0.554089 -0.08735
C_ C_ 0.329189 0.248108 0.581758 0.1947
N_ N_ 0.130018 0.172655 0.981465 -0.29468
N_ N_ 0.136968 0.194077 0.584905 -0.17154
N_ N_ 0.104187 0.15385 0.732956 -0.17154
N_ N_ 0.12436 0.191627 0.835938 -0.29468
N_ N_ 0.364988 0.326075 0.728441 -0.29468
N_ N_ 0.333929 0.30357 0.831806 -0.17154
N_ N_ 0.37416 0.34333 0.978111 -0.17154
N_ N_ 0.363204 0.287117 0.585409 -0.29468
O_ O_ 0.21 0.173644 0.93177 -0.58347
O_ O_ 0.202281 0.182379 0.885932 -0.58347
O_ O_ 0.130612 0.251019 0.935226 -0.58347
O_ O_ 0.125212 0.259761 0.890355 -0.58347
O_ O_ 0.136425 0.0968446 0.925353 -0.58347
O_ O_ 0.129128 0.106775 0.878895 -0.58347
O_ O_ 0.0624535 0.175584 0.9309 -0.58347
O_ O_ 0.0515822 0.178353 0.884411 -0.58347
O_ O_ 0.0509496 0.222514 0.584085 -0.46727
O_ O_ 0.219349 0.161864 0.587696 -0.46727
O_ O_ 0.0171177 0.170384 0.727544 -0.46727
O_ O_ 0.188549 0.130232 0.737019 -0.46727
O_ O_ 0.285371 0.308587 0.67972 -0.58347
O_ O_ 0.300532 0.30086 0.633074 -0.58347
O_ O_ 0.362963 0.237888 0.686187 -0.58347
O_ O_ 0.37725 0.226936 0.639743 -0.58347
O_ O_ 0.354591 0.386617 0.672647 -0.58347
O_ O_ 0.377716 0.377157 0.627741 -0.58347
O_ O_ 0.437043 0.320465 0.680483 -0.58347
O_ O_ 0.448508 0.299872 0.634145 -0.58347
O_ O_ 0.40512 0.255446 0.830483 -0.46727
O_ O_ 0.257321 0.347977 0.835683 -0.46727
O_ O_ 0.460475 0.332683 0.971393 -0.46727
O_ O_ 0.290876 0.368659 0.983947 -0.46727
Zn Zn 0.133647 0.687387 0.378044 0.90689
Zn Zn 0.147483 0.682167 0.4259 0.90689
Zn Zn 0.386604 0.818144 0.130348 0.90689
Zn Zn 0.375863 0.828934 0.178845 0.90689
H_ H_ 0.311165 0.706712 0.44002 0.11455
H_ H_ 0.379608 0.666163 0.345267 0.11455
H_ H_ 0.289296 0.674168 0.350947 0.11455
H_ H_ 0.399527 0.716722 0.457672 0.11455
H_ H_ 0.488741 0.711722 0.4492 0.11455
H_ H_ 0.468235 0.670417 0.364355 0.11455
H_ H_ 0.175531 0.516443 0.437954 0.11455
H_ H_ 0.0978109 0.94391 0.347599 0.11455
H_ H_ 0.134814 0.530162 0.34927 0.11455
H_ H_ 0.166104 0.930805 0.457338 0.11455
H_ H_ 0.148685 0.839802 0.455513 0.11455
H_ H_ 0.113456 0.85726 0.365057 0.11455
H_ H_ 0.0887217 0.603601 0.460772 0.11455
H_ H_ 0.0646406 0.579399 0.0158338 0.11455
H_ H_ 0.118456 0.620593 0.055465 0.11455
H_ H_ 0.211714 0.731484 0.470328 0.11455
H_ H_ 0.241897 0.788384 0.00879937 0.11455
H_ H_ 0.221763 0.77117 0.0569572 0.11455
H_ H_ 0.0149074 0.713406 0.119922 0.11455
H_ H_ 0.00719568 0.713 0.169671 0.11455
H_ H_ 0.269138 0.675045 0.139206 0.11455
H_ H_ 0.257247 0.665503 0.18891 0.11455
H_ H_ 0.0728507 0.583765 0.250171 0.11455
H_ H_ 0.0502164 0.56493 0.298096 0.11455
H_ H_ 0.0855694 0.620928 0.334714 0.11455
H_ H_ 0.160976 0.749594 0.253801 0.11455
H_ H_ 0.182738 0.802786 0.2938 0.11455
H_ H_ 0.180823 0.768491 0.343837 0.11455
H_ H_ 0.205131 0.815619 0.192905 0.11455
H_ H_ 0.141071 0.826104 0.0952197 0.11455
H_ H_ 0.231302 0.822353 0.102685 0.11455
H_ H_ 0.120961 0.806526 0.21024 0.11455
H_ H_ 0.0315475 0.815912 0.204311 0.11455
H_ H_ 0.0513 0.834932 0.112921 0.11455
H_ H_ 0.413714 0.990958 0.185199 0.11455
H_ H_ 0.333782 0.574162 0.101294 0.11455
H_ H_ 0.322065 0.976717 0.10813 0.11455
H_ H_ 0.396041 0.578194 0.212858 0.11455
H_ H_ 0.398998 0.671135 0.210714 0.11455
H_ H_ 0.36502 0.655312 0.119296 0.11455
H_ H_ 0.414226 0.905797 0.218883 0.11455
H_ H_ 0.425817 0.934282 0.266959 0.11455
H_ H_ 0.407002 0.873555 0.308118 0.11455
H_ H_ 0.311846 0.759756 0.223141 0.11455
H_ H_ 0.290293 0.699107 0.261985 0.11455
H_ H_ 0.333542 0.708629 0.308806 0.11455
H_ H_ 0.490844 0.804566 0.375812 0.11455
H_ H_ 0.498267 0.819189 0.427276 0.11455
H_ H_ 0.237439 0.848469 0.381646 0.11455
H_ H_ 0.248417 0.863425 0.43396 0.11455
H_ H_ 0.401687 0.923721 0.505346 0.11455
H_ H_ 0.452144 0.947342 0.0474192 0.11455
H_ H_ 0.433418 0.885585 0.0874895 0.11455
H_ H_ 0.340107 0.762722 0.0053282 0.11455
H_ H_ 0.322436 0.708012 0.0466582 0.11455
H_ H_ 0.335614 0.743272 0.0952911 0.11455
C_ C_ 0.237856 0.692523 0.399789 0.68181
C_ C_ 0.293887 0.694611 0.39577 -0.05681
C_ C_ 0.328456 0.700135 0.419554 -0.08735
C_ C_ 0.380583 0.692853 0.415515 -0.05681
C_ C_ 0.399684 0.675305 0.388956 -0.05681
C_ C_ 0.365498 0.670352 0.366152 -0.08735
C_ C_ 0.312703 0.67756 0.368911 -0.08735
C_ C_ 0.413685 0.699463 0.4381 -0.08735
C_ C_ 0.465538 0.697253 0.433508 -0.08735
C_ C_ 0.485638 0.681744 0.407567 -0.05681
C_ C_ 0.451546 0.673182 0.385127 -0.08735
C_ C_ 0.128413 0.783776 0.407971 0.68181
C_ C_ 0.147998 0.587486 0.397219 0.68181
C_ C_ 0.1482 0.531823 0.395111 -0.05681
C_ C_ 0.151099 1.00247577 0.416336 -0.08735
C_ C_ 0.144411 0.948656 0.413835 -0.05681
C_ C_ 0.126112 0.926049 0.389238 -0.05681
C_ C_ 0.112252 0.959778 0.36689 -0.08735
C_ C_ 0.113952 1.0123786 0.369284 -0.08735
C_ C_ 0.153485 0.916238 0.438277 -0.08735
C_ C_ 0.147423 0.863527 0.435593 -0.08735
C_ C_ 0.132688 0.840546 0.409281 -0.05681
C_ C_ 0.125971 0.872898 0.385383 -0.08735
C_ C_ 0.0445273 0.677472 0.4038 0.68181
C_ C_ 0.110388 0.621511 0.478252 0.1947
C_ C_ 0.0938277 0.608216 0.010966 -0.08735
C_ C_ 0.120779 0.63309 0.0333084 -0.08735
C_ C_ 0.149733 0.676985 0.0272019 -0.05681
C_ C_ 0.156162 0.691313 0.997906 0.18498
C_ C_ 0.194416 0.729012 0.491457 -0.08735
C_ C_ 0.215727 0.757564 0.0139221 -0.08735
C_ C_ 0.202175 0.748234 0.041814 -0.08735
C_ C_ 0.168371 0.708179 0.0491941 0.18498
C_ C_ 0.197556 0.691904 0.0972686 0.44287
C_ C_ 0.108347 0.701703 0.0903113 0.44287
C_ C_ 0.0982661 0.692292 0.120609 -0.05681
C_ C_ 0.0489711 0.700911 0.132433 -0.08735
C_ C_ 0.0427768 0.695756 0.162877 -0.08735
C_ C_ 0.0840241 0.688929 0.181234 -0.05681
C_ C_ 0.133661 0.683824 0.16864 -0.05681
C_ C_ 0.140128 0.686521 0.139659 -0.05681
C_ C_ 0.189682 0.686572 0.127531 -0.05681
C_ C_ 0.229318 0.679532 0.145614 -0.08735
C_ C_ 0.223964 0.671987 0.174847 -0.08735
C_ C_ 0.17519 0.671227 0.186837 -0.05681
C_ C_ 0.165017 0.664043 0.215617 0.44287
C_ C_ 0.0754698 0.681918 0.210688 0.44287
C_ C_ 0.10722 0.657393 0.257236 0.18498
C_ C_ 0.0786926 0.612379 0.264709 -0.08735
C_ C_ 0.071668 0.600422 0.29319 -0.08735
C_ C_ 0.0889249 0.633332 0.313379 -0.08735
C_ C_ 0.112622 0.679181 0.307503 0.18498
C_ C_ 0.125876 0.689003 0.279025 -0.05681
C_ C_ 0.149689 0.737697 0.275324 -0.08735
C_ C_ 0.160928 0.769386 0.299316 -0.08735
C_ C_ 0.160668 0.748062 0.326354 0.1947
C_ C_ 0.280761 0.81857 0.153301 0.68181
C_ C_ 0.225677 0.821809 0.148944 -0.05681
C_ C_ 0.192234 0.817289 0.171496 -0.08735
C_ C_ 0.136739 0.818422 0.166805 -0.05681
C_ C_ 0.119963 0.824461 0.138828 -0.05681
C_ C_ 0.155307 0.827138 0.116852 -0.08735
C_ C_ 0.206495 0.830105 0.121302 -0.08735
C_ C_ 0.105637 0.818346 0.190749 -0.08735
C_ C_ 0.0546904 0.819938 0.185549 -0.08735
C_ C_ 0.0330395 0.822992 0.15855 -0.05681
C_ C_ 0.0674226 0.828564 0.134381 -0.08735
C_ C_ 0.385385 0.726063 0.160437 0.68181
C_ C_ 0.376209 0.921093 0.147494 0.68181
C_ C_ 0.371309 0.975901 0.144657 -0.05681
C_ C_ 0.37405 0.512723 0.171645 -0.08735
C_ C_ 0.373301 0.563792 0.169698 -0.05681
C_ C_ 0.369349 0.586347 0.143411 -0.05681
C_ C_ 0.35027 0.557884 0.119825 -0.08735
C_ C_ 0.339677 -0.001515000000000044 0.124256 -0.08735
C_ C_ 0.388718 0.59476 0.19235 -0.08735
C_ C_ 0.395949 0.647331 0.190528 -0.08735
C_ C_ 0.388472 0.669333 0.163288 -0.05681
C_ C_ 0.377973 0.638789 0.139292 -0.08735
C_ C_ 0.478648 0.830169 0.158925 0.68181
C_ C_ 0.402532 0.881259 0.235528 0.1947
C_ C_ 0.409569 0.895221 0.264108 -0.08735
C_ C_ 0.392495 0.866161 0.286964 -0.08735
C_ C_ 0.364295 0.820651 0.280657 -0.05681
C_ C_ 0.352089 0.811458 0.251087 0.18498
C_ C_ 0.322686 0.768797 0.245284 -0.08735
C_ C_ 0.313421 0.732288 0.266831 -0.08735
C_ C_ 0.328416 0.740411 0.294886 -0.08735
C_ C_ 0.348948 0.786249 0.30265 0.18498
C_ C_ 0.312658 0.809383 0.347867 0.44287
C_ C_ 0.403778 0.794677 0.34537 0.44287
C_ C_ 0.408936 0.805524 0.374924 -0.05681
C_ C_ 0.455746 0.811039 0.387801 -0.08735
C_ C_ 0.460756 0.824417 0.417217 -0.08735
C_ C_ 0.417446 0.832467 0.433702 -0.05681
C_ C_ 0.368935 0.832135 0.419928 -0.05681
C_ C_ 0.363516 0.816287 0.391249 -0.05681
C_ C_ 0.317561 0.825147 0.376696 -0.05681
C_ C_ 0.273946 0.842565 0.392506 -0.08735
C_ C_ 0.278605 0.848331 0.422821 -0.08735
C_ C_ 0.325814 0.843468 0.436332 -0.05681
C_ C_ 0.330814 0.844329 0.467194 0.44287
C_ C_ 0.419118 0.832952 0.463865 0.44287
C_ C_ 0.388644 0.858081 0.00820074 0.18498
C_ C_ 0.414783 0.901961 0.0151788 -0.08735
C_ C_ 0.429144 0.914406 0.0426779 -0.08735
C_ C_ 0.423168 0.878266 0.0647751 -0.08735
C_ C_ 0.396696 0.834265 0.0599134 0.18498
C_ C_ 0.381558 0.821968 0.030743 -0.05681
C_ C_ 0.354502 0.776187 0.026564 -0.08735
C_ C_ 0.34347 0.744978 0.0499785 -0.08735
C_ C_ 0.354742 0.761388 0.0777599 0.1947
N_ N_ 0.136738 0.664779 0.474336 -0.29468
N_ N_ 0.15754 0.695792 0.0790921 -0.17154
N_ N_ 0.115826 0.667962 0.226943 -0.17154
N_ N_ 0.132904 0.704221 0.33061 -0.29468
N_ N_ 0.374765 0.838305 0.228914 -0.29468
N_ N_ 0.355908 0.796432 0.332667 -0.17154
N_ N_ 0.377018 0.838505 0.480027 -0.17154
N_ N_ 0.382594 0.803965 0.0820141 -0.29468
O_ O_ 0.221969 0.682111 0.424564 -0.58347
O_ O_ 0.207733 0.699663 0.378391 -0.58347
O_ O_ 0.147832 0.758137 0.428068 -0.58347
O_ O_ 0.12034 0.762528 0.384008 -0.58347
O_ O_ 0.148804 0.607036 0.421631 -0.58347
O_ O_ 0.145323 0.614423 0.375352 -0.58347
O_ O_ 0.0711535 0.674937 0.425709 -0.58347
O_ O_ 0.0647016 0.673801 0.379384 -0.58347
O_ O_ 0.0715218 0.717242 0.0737203 -0.46727
O_ O_ 0.243575 0.680429 0.0875084 -0.46727
O_ O_ 0.0355574 0.699979 0.222836 -0.46727
O_ O_ 0.201148 0.64855 0.232449 -0.46727
O_ O_ 0.300378 0.823544 0.178204 -0.58347
O_ O_ 0.309327 0.814893 0.130831 -0.58347
O_ O_ 0.371531 0.7534 0.179691 -0.58347
O_ O_ 0.394365 0.744222 0.136451 -0.58347
O_ O_ 0.374584 0.900045 0.172777 -0.58347
O_ O_ 0.383807 0.893148 0.126557 -0.58347
O_ O_ 0.451028 0.83618 0.180887 -0.58347
O_ O_ 0.45897 0.82607 0.134717 -0.58347
O_ O_ 0.44419 0.783059 0.330684 -0.46727
O_ O_ 0.266966 0.804814 0.33751 -0.46727
O_ O_ 0.459518 0.817824 0.476104 -0.46727
O_ O_ 0.291586 0.857651 0.484053 -0.46727
Zn Zn 0.129313 0.682559 0.881946 0.90689
Zn Zn 0.13864 0.675549 0.929463 0.90689
Zn Zn 0.367442 0.804009 0.632072 0.90689
Zn Zn 0.359069 0.810179 0.679299 0.90689
H_ H_ 0.310042 0.684701 0.944844 0.11455
H_ H_ 0.376951 0.670554 0.845837 0.11455
H_ H_ 0.287733 0.653687 0.856681 0.11455
H_ H_ 0.397361 0.685699 0.963249 0.11455
H_ H_ 0.486951 0.690461 0.955371 0.11455
H_ H_ 0.463241 0.678237 0.864808 0.11455
H_ H_ 0.119344 0.511485 0.940816 0.11455
H_ H_ 0.0914867 0.928066 0.851541 0.11455
H_ H_ 0.146448 0.518035 0.849931 0.11455
H_ H_ 0.152733 0.922216 0.963605 0.11455
H_ H_ 0.151066 0.833015 0.957651 0.11455
H_ H_ 0.102098 0.849071 0.872521 0.11455
H_ H_ 0.0758436 0.612004 0.966356 0.11455
H_ H_ 0.0923286 0.563567 0.508233 0.11455
H_ H_ 0.10663 0.617921 0.550249 0.11455
H_ H_ 0.208359 0.73181 0.970311 0.11455
H_ H_ 0.235434 0.790772 0.511442 0.11455
H_ H_ 0.203384 0.772629 0.561021 0.11455
H_ H_ 1.0136088 0.700317 0.618592 0.11455
H_ H_ 1.00506504 0.706169 0.670975 0.11455
H_ H_ 0.264093 0.671086 0.63562 0.11455
H_ H_ 0.250835 0.662188 0.686862 0.11455
H_ H_ 0.0714708 0.594705 0.746357 0.11455
H_ H_ 0.0578245 0.567904 0.794461 0.11455
H_ H_ 0.0712378 0.621474 0.836008 0.11455
H_ H_ 0.155879 0.761472 0.761782 0.11455
H_ H_ 0.210938 0.783324 0.800346 0.11455
H_ H_ 0.198137 0.749244 0.84643 0.11455
H_ H_ 0.191606 0.790237 0.69753 0.11455
H_ H_ 0.12362 0.837988 0.601325 0.11455
H_ H_ 0.214266 0.819065 0.604692 0.11455
H_ H_ 0.102965 0.805616 0.716936 0.11455
H_ H_ 0.0109062 0.799905 0.704618 0.11455
H_ H_ 0.0377697 0.831685 0.616866 0.11455
H_ H_ 0.330948 0.979724 0.691757 0.11455
H_ H_ 0.360733 0.558539 0.597727 0.11455
H_ H_ 0.382829 0.966881 0.602917 0.11455
H_ H_ 0.379946 0.556851 0.715263 0.11455
H_ H_ 0.389627 0.65136 0.71092 0.11455
H_ H_ 0.363508 0.642195 0.621002 0.11455
H_ H_ 0.420177 0.875114 0.713871 0.11455
H_ H_ 0.452518 0.888517 0.762808 0.11455
H_ H_ 0.391354 0.869531 0.803102 0.11455
H_ H_ 0.303937 0.737765 0.723461 0.11455
H_ H_ 0.275851 0.687543 0.764083 0.11455
H_ H_ 0.301421 0.713588 0.814548 0.11455
H_ H_ 0.489562 0.784963 0.873773 0.11455
H_ H_ 0.503045 0.810455 0.923372 0.11455
H_ H_ 0.238917 0.841149 0.883184 0.11455
H_ H_ 0.251558 0.859846 0.931679 0.11455
H_ H_ 0.429164 0.924553 0.996649 0.11455
H_ H_ 0.438032 0.935474 0.555084 0.11455
H_ H_ 0.421091 0.86958 0.589302 0.11455
H_ H_ 0.338925 0.752481 0.503209 0.11455
H_ H_ 0.304803 0.694986 0.543217 0.11455
H_ H_ 0.321413 0.717452 0.593549 0.11455
C_ C_ 0.234838 0.676418 0.906991 0.68181
C_ C_ 0.290509 0.675561 0.901817 -0.05681
C_ C_ 0.325457 0.683782 0.924012 -0.08735
C_ C_ 0.37795 0.682147 0.919146 -0.05681
C_ C_ 0.396432 0.681792 0.89049 -0.05681
C_ C_ 0.362581 0.677732 0.867967 -0.08735
C_ C_ 0.309239 0.672263 0.873861 -0.08735
C_ C_ 0.410438 0.683081 0.942422 -0.08735
C_ C_ 0.462785 0.683277 0.937342 -0.08735
C_ C_ 0.481877 0.681922 0.909693 -0.05681
C_ C_ 0.449511 0.679456 0.88614 -0.08735
C_ C_ 0.132825 0.776057 0.911293 0.68181
C_ C_ 0.139195 0.579234 0.898031 0.68181
C_ C_ 0.1368 0.523812 0.895959 -0.05681
C_ C_ 0.149008 0.993058 0.921677 -0.08735
C_ C_ 0.141909 0.938608 0.919216 -0.05681
C_ C_ 0.131201 0.917984 0.891814 -0.05681
C_ C_ 0.111158 0.94743 0.870256 -0.08735
C_ C_ 0.108384 -0.0005380000000000384 0.873562 -0.08735
C_ C_ 0.151058 0.906759 0.942293 -0.08735
C_ C_ 0.140482 0.854883 0.940107 -0.08735
C_ C_ 0.131922 0.832503 0.913011 -0.05681
C_ C_ 0.126073 0.863511 0.889127 -0.08735
C_ C_ 0.0359449 0.677962 0.904519 0.68181
C_ C_ 0.0993288 0.627134 0.983271 0.1947
C_ C_ 0.109609 0.60086 0.505073 -0.08735
C_ C_ 0.122274 0.63033 0.529417 -0.08735
C_ C_ 0.147544 0.675612 0.525225 -0.05681
C_ C_ 0.159876 0.689954 0.49665 0.18498
C_ C_ 0.196152 0.726192 0.992363 -0.08735
C_ C_ 0.205382 0.762445 0.514258 -0.08735
C_ C_ 0.188862 0.751865 0.542561 -0.08735
C_ C_ 0.161272 0.708327 0.548422 0.18498
C_ C_ 0.193109 0.685731 0.595178 0.44287
C_ C_ 0.105262 0.697638 0.589649 0.44287
C_ C_ 0.0972002 0.693022 0.619597 -0.05681
C_ C_ 0.0464668 0.697553 0.631736 -0.08735
C_ C_ 0.0413966 0.6989 0.662188 -0.08735
C_ C_ 0.081703 0.686926 0.680581 -0.05681
C_ C_ 0.131113 0.682812 0.668846 -0.05681
C_ C_ 0.137515 0.685432 0.637647 -0.05681
C_ C_ 0.186513 0.682583 0.626507 -0.05681
C_ C_ 0.228784 0.678584 0.645018 -0.08735
C_ C_ 0.222254 0.67327 0.674246 -0.08735
C_ C_ 0.172672 0.676758 0.687065 -0.05681
C_ C_ 0.163568 0.67452 0.716696 0.44287
C_ C_ 0.0753374 0.691759 0.710807 0.44287
C_ C_ 0.106979 0.667355 0.758659 0.18498
C_ C_ 0.0785687 0.621769 0.763713 -0.08735
C_ C_ 0.0700807 0.606317 0.790806 -0.08735
C_ C_ 0.0831505 0.631684 0.81427 -0.08735
C_ C_ 0.112698 0.675809 0.811258 0.18498
C_ C_ 0.123688 0.694963 0.782405 -0.05681
C_ C_ 0.149517 0.743204 0.781057 -0.08735
C_ C_ 0.179172 0.758854 0.803613 -0.08735
C_ C_ 0.177185 0.733551 0.82936 0.1947
C_ C_ 0.266715 0.797429 0.654791 0.68181
C_ C_ 0.210131 0.802216 0.651718 -0.05681
C_ C_ 0.1767 0.80381 0.675901 -0.08735
C_ C_ 0.123033 0.81209 0.672331 -0.05681
C_ C_ 0.104775 0.824526 0.644628 -0.05681
C_ C_ 0.139447 0.824568 0.621036 -0.08735
C_ C_ 0.189492 0.813228 0.624307 -0.08735
C_ C_ 0.0889383 0.812707 0.695371 -0.08735
C_ C_ 0.0364598 0.818411 0.69063 -0.08735
C_ C_ 0.0186348 0.823362 0.662115 -0.05681
C_ C_ 0.0513959 0.82747 0.638499 -0.08735
C_ C_ 0.374279 0.708949 0.661382 0.68181
C_ C_ 0.353787 0.907016 0.651916 0.68181
C_ C_ 0.359378 0.963941 0.649818 -0.05681
C_ C_ 0.374213 0.493022 0.67263 -0.08735
C_ C_ 0.370583 0.546694 0.670009 -0.05681
C_ C_ 0.370789 0.570066 0.642562 -0.05681
C_ C_ 0.366796 0.5402 0.618417 -0.08735
C_ C_ 0.377059 0.988647 0.62319 -0.08735
C_ C_ 0.374165 0.576103 0.695405 -0.08735
C_ C_ 0.376824 0.62861 0.692484 -0.08735
C_ C_ 0.371644 0.652949 0.665506 -0.05681
C_ C_ 0.367956 0.622403 0.640881 -0.08735
C_ C_ 0.464655 0.808286 0.657106 0.68181
C_ C_ 0.40309 0.854643 0.73186 0.1947
C_ C_ 0.418778 0.866678 0.760617 -0.08735
C_ C_ 0.393264 0.846514 0.783866 -0.08735
C_ C_ 0.362464 0.804798 0.778416 -0.05681
C_ C_ 0.348676 0.79127 0.749953 0.18498
C_ C_ 0.315198 0.749711 0.745273 -0.08735
C_ C_ 0.299526 0.720984 0.768376 -0.08735
C_ C_ 0.314258 0.735448 0.796882 -0.08735
C_ C_ 0.3457 0.777195 0.801772 0.18498
C_ C_ 0.315248 0.807067 0.846806 0.44287
C_ C_ 0.400338 0.786115 0.843238 0.44287
C_ C_ 0.410276 0.800278 0.872444 -0.05681
C_ C_ 0.4586 0.802609 0.88526 -0.08735
C_ C_ 0.463379 0.811699 0.91454 -0.08735
C_ C_ 0.420292 0.825023 0.932251 -0.05681
C_ C_ 0.372192 0.829452 0.918731 -0.05681
C_ C_ 0.36735 0.810593 0.890167 -0.05681
C_ C_ 0.319051 0.816186 0.876826 -0.05681
C_ C_ 0.277987 0.835293 0.891772 -0.08735
C_ C_ 0.282362 0.842185 0.921517 -0.08735
C_ C_ 0.329163 0.840069 0.93509 -0.05681
C_ C_ 0.336438 0.850771 0.96506 0.44287
C_ C_ 0.423823 0.835525 0.961333 0.44287
C_ C_ 0.383435 0.846139 0.510832 0.18498
C_ C_ 0.399232 0.895149 0.520539 -0.08735
C_ C_ 0.413937 0.902444 0.548603 -0.08735
C_ C_ 0.406456 0.864296 0.5686 -0.08735
C_ C_ 0.378849 0.821019 0.562039 0.18498
C_ C_ 0.371187 0.809078 0.532883 -0.05681
C_ C_ 0.343996 0.764209 0.525929 -0.08735
C_ C_ 0.325405 0.731251 0.548192 -0.08735
C_ C_ 0.331954 0.746006 0.576873 0.1947
N_ N_ 0.133333 0.66398 0.976435 -0.29468
N_ N_ 0.153044 0.692879 0.577282 -0.17154
N_ N_ 0.116737 0.684706 0.729244 -0.17154
N_ N_ 0.140847 0.696339 0.833729 -0.29468
N_ N_ 0.36578 0.820306 0.728092 -0.29468
N_ N_ 0.354743 0.790262 0.831615 -0.17154
N_ N_ 0.382598 0.845859 0.97813 -0.17154
N_ N_ 0.361229 0.789459 0.583747 -0.29468
O_ O_ 0.213821 0.678526 0.931853 -0.58347
O_ O_ 0.206892 0.681161 0.884299 -0.58347
O_ O_ 0.143033 0.750539 0.932505 -0.58347
O_ O_ 0.130819 0.754657 0.88774 -0.58347
O_ O_ 0.136608 0.600375 0.922628 -0.58347
O_ O_ 0.132055 0.606416 0.875755 -0.58347
O_ O_ 0.0645862 0.675191 0.925889 -0.58347
O_ O_ 0.0552237 0.679113 0.880126 -0.58347
O_ O_ 0.0662243 0.710748 0.573602 -0.46727
O_ O_ 0.238305 0.681156 0.585173 -0.46727
O_ O_ 0.0315828 0.698936 0.722321 -0.46727
O_ O_ 0.199738 0.663495 0.733696 -0.46727
O_ O_ 0.287057 0.801916 0.679446 -0.58347
O_ O_ 0.293569 0.790526 0.633296 -0.58347
O_ O_ 0.366374 0.739101 0.682737 -0.58347
O_ O_ 0.377398 0.729319 0.636653 -0.58347
O_ O_ 0.355844 0.885466 0.676684 -0.58347
O_ O_ 0.358512 0.881972 0.627864 -0.58347
O_ O_ 0.435464 0.813805 0.67891 -0.58347
O_ O_ 0.444262 0.805386 0.632251 -0.58347
O_ O_ 0.440441 0.776385 0.825405 -0.46727
O_ O_ 0.272801 0.816856 0.833133 -0.46727
O_ O_ 0.468823 0.834435 0.973325 -0.46727
O_ O_ 0.297449 0.863183 0.981975 -0.46727
Zn Zn 0.621652 0.180935 0.383385 0.90689
Zn Zn 0.630678 0.175452 0.431093 0.90689
Zn Zn 0.864069 0.329232 0.13345 0.90689
Zn Zn 0.86057 0.33116 0.180339 0.90689
H_ H_ 0.796194 0.190615 0.447958 0.11455
H_ H_ 0.866038 0.157835 0.34986 0.11455
H_ H_ 0.772965 0.162255 0.355623 0.11455
H_ H_ 0.880835 0.173922 0.468553 0.11455
H_ H_ 0.977619 0.175411 0.460199 0.11455
H_ H_ 0.955289 0.171006 0.370988 0.11455
H_ H_ 0.643483 0.0111456 0.446363 0.11455
H_ H_ 0.634987 0.431063 0.344166 0.11455
H_ H_ 0.633435 0.0247007 0.353423 0.11455
H_ H_ 0.641368 0.425663 0.465451 0.11455
H_ H_ 0.614686 0.335188 0.459882 0.11455
H_ H_ 0.631171 0.345007 0.371282 0.11455
H_ H_ 0.57057 0.106853 0.472208 0.11455
H_ H_ 0.57696 0.0709101 0.0142135 0.11455
H_ H_ 0.584368 0.135576 0.0539267 0.11455
H_ H_ 0.700257 0.232496 0.474473 0.11455
H_ H_ 0.720167 0.305008 0.0177006 0.11455
H_ H_ 0.694368 0.282181 0.0647235 0.11455
H_ H_ 0.510627 0.213346 0.124663 0.11455
H_ H_ 0.499266 0.193996 0.176729 0.11455
H_ H_ 0.758162 0.161203 0.138464 0.11455
H_ H_ 0.751134 0.155598 0.191103 0.11455
H_ H_ 0.556205 0.0947486 0.251036 0.11455
H_ H_ 0.539808 0.0659784 0.300154 0.11455
H_ H_ 0.567876 0.118625 0.340388 0.11455
H_ H_ 0.644397 0.255736 0.263014 0.11455
H_ H_ 0.69225 0.292533 0.303915 0.11455
H_ H_ 0.680111 0.257233 0.350077 0.11455
H_ H_ 0.688157 0.303469 0.197468 0.11455
H_ H_ 0.618909 0.316704 0.100368 0.11455
H_ H_ 0.709503 0.314209 0.107449 0.11455
H_ H_ 0.600545 0.31934 0.217276 0.11455
H_ H_ 0.509806 0.323237 0.207991 0.11455
H_ H_ 0.532004 0.322761 0.118574 0.11455
H_ H_ 0.853161 0.500357 0.197729 0.11455
H_ H_ 0.90286 0.0741488 0.102078 0.11455
H_ H_ 0.856539 0.484057 0.104859 0.11455
H_ H_ 0.842648 0.0806493 0.216721 0.11455
H_ H_ 0.834138 0.17159 0.209261 0.11455
H_ H_ 0.899936 0.15937 0.124396 0.11455
H_ H_ 0.907423 0.411548 0.22237 0.11455
H_ H_ 0.93755 0.423212 0.271746 0.11455
H_ H_ 0.91055 0.366491 0.307877 0.11455
H_ H_ 0.803752 0.26528 0.223886 0.11455
H_ H_ 0.790803 0.199462 0.256317 0.11455
H_ H_ 0.799384 0.217554 0.309673 0.11455
H_ H_ 0.992403 0.303303 0.370386 0.11455
H_ H_ 0.00554094 0.310654 0.42301 0.11455
H_ H_ 0.740379 0.317952 0.388487 0.11455
H_ H_ 0.751622 0.323109 0.441639 0.11455
H_ H_ 0.949058 0.387949 0.497582 0.11455
H_ H_ 0.965838 0.436641 0.0495263 0.11455
H_ H_ 0.923424 0.391164 0.0891996 0.11455
H_ H_ 0.836832 0.268577 0.00786555 0.11455
H_ H_ 0.788897 0.227611 0.051953 0.11455
H_ H_ 0.812848 0.253412 0.0979102 0.11455
C_ C_ 0.725367 0.177776 0.406079 0.68181
C_ C_ 0.782277 0.174491 0.402453 -0.05681
C_ C_ 0.812974 0.181409 0.426238 -0.08735
C_ C_ 0.866572 0.173298 0.423694 -0.05681
C_ C_ 0.88801 0.169438 0.396055 -0.05681
C_ C_ 0.854518 0.164734 0.37094 -0.08735
C_ C_ 0.801758 0.166239 0.374929 -0.08735
C_ C_ 0.898742 0.174468 0.446838 -0.08735
C_ C_ 0.953555 0.177602 0.442088 -0.08735
C_ C_ 0.974084 0.17434 0.414538 -0.05681
C_ C_ 0.940482 0.171291 0.391748 -0.08735
C_ C_ 0.62169 0.277954 0.412369 0.68181
C_ C_ 0.629724 0.0799353 0.401845 0.68181
C_ C_ 0.635457 0.0245502 0.39955 -0.05681
C_ C_ 0.645575 0.492939 0.420417 -0.08735
C_ C_ 0.64264 0.440223 0.418895 -0.05681
C_ C_ 0.640821 0.417651 0.391455 -0.05681
C_ C_ 0.641 0.447919 0.366184 -0.08735
C_ C_ 0.641549 0.500338 0.368771 -0.08735
C_ C_ 0.633899 0.410704 0.444163 -0.08735
C_ C_ 0.623242 0.359187 0.441228 -0.08735
C_ C_ 0.625035 0.334772 0.41474 -0.05681
C_ C_ 0.629713 0.3653 0.390108 -0.08735
C_ C_ 0.529543 0.177147 0.407417 0.68181
C_ C_ 0.591286 0.12695 0.488707 0.1947
C_ C_ 0.596439 0.106584 0.0120926 -0.08735
C_ C_ 0.610083 0.136933 0.0354186 -0.08735
C_ C_ 0.639773 0.181352 0.0307848 -0.05681
C_ C_ 0.651497 0.195332 1.00284986 0.18498
C_ C_ 0.688922 0.22517 0.495594 -0.08735
C_ C_ 0.690847 0.274859 0.0202841 -0.08735
C_ C_ 0.68304 0.256364 0.048098 -0.08735
C_ C_ 0.653757 0.214584 0.0540362 0.18498
C_ C_ 0.687622 0.194682 0.101729 0.44287
C_ C_ 0.600129 0.204327 0.0967468 0.44287
C_ C_ 0.589992 0.193092 0.126053 -0.05681
C_ C_ 0.541494 0.198095 0.137515 -0.08735
C_ C_ 0.535186 0.190447 0.167325 -0.08735
C_ C_ 0.578654 0.184358 0.185531 -0.05681
C_ C_ 0.626301 0.179211 0.1736 -0.05681
C_ C_ 0.633213 0.182314 0.142966 -0.05681
C_ C_ 0.68131 0.182348 0.130322 -0.05681
C_ C_ 0.721249 0.171937 0.147428 -0.08735
C_ C_ 0.717091 0.163112 0.176859 -0.08735
C_ C_ 0.668375 0.167536 0.190425 -0.05681
C_ C_ 0.661108 0.165024 0.220696 0.44287
C_ C_ 0.572224 0.184203 0.215234 0.44287
C_ C_ 0.601665 0.159177 0.262424 0.18498
C_ C_ 0.576881 0.113763 0.267845 -0.08735
C_ C_ 0.566341 0.0966297 0.296206 -0.08735
C_ C_ 0.58165 0.126225 0.319938 -0.08735
C_ C_ 0.612122 0.170839 0.314717 0.18498
C_ C_ 0.620971 0.188316 0.286237 -0.05681
C_ C_ 0.645477 0.23482 0.281381 -0.08735
C_ C_ 0.670063 0.256219 0.305328 -0.08735
C_ C_ 0.661539 0.237387 0.332616 0.1947
C_ C_ 0.763386 0.32681 0.156013 0.68181
C_ C_ 0.706489 0.320449 0.153585 -0.05681
C_ C_ 0.674064 0.309617 0.17603 -0.08735
C_ C_ 0.621207 0.311802 0.172893 -0.05681
C_ C_ 0.600931 0.317473 0.144903 -0.05681
C_ C_ 0.63328 0.321257 0.120777 -0.08735
C_ C_ 0.68508 0.318544 0.12551 -0.08735
C_ C_ 0.586703 0.312609 0.196053 -0.08735
C_ C_ 0.534601 0.320735 0.190971 -0.08735
C_ C_ 0.51478 0.320769 0.163341 -0.05681
C_ C_ 0.547463 0.317223 0.14067 -0.08735
C_ C_ 0.863869 0.229321 0.164216 0.68181
C_ C_ 0.862237 0.426109 0.152387 0.68181
C_ C_ 0.861163 0.483319 0.15077 -0.05681
C_ C_ 0.867996 0.0127794 0.174921 -0.08735
C_ C_ 0.869726 0.0679161 0.172647 -0.05681
C_ C_ 0.879059 0.0905442 0.146601 -0.05681
C_ C_ 0.88874 0.0595811 0.122279 -0.08735
C_ C_ 0.86027 0.506917 0.123798 -0.08735
C_ C_ 0.856908 0.0993045 0.196294 -0.08735
C_ C_ 0.854019 0.150916 0.192997 -0.08735
C_ C_ 0.868759 0.173957 0.167059 -0.05681
C_ C_ 0.887096 0.14277 0.143965 -0.08735
C_ C_ 0.959294 0.32612 0.158161 0.68181
C_ C_ 0.898666 0.380939 0.236765 0.1947
C_ C_ 0.909804 0.392203 0.265633 -0.08735
C_ C_ 0.893701 0.359185 0.286478 -0.08735
C_ C_ 0.864492 0.317546 0.280058 -0.05681
C_ C_ 0.852447 0.308658 0.250605 0.18498
C_ C_ 0.817284 0.270317 0.24445 -0.08735
C_ C_ 0.804738 0.234981 0.264414 -0.08735
C_ C_ 0.811638 0.245408 0.293549 -0.08735
C_ C_ 0.842822 0.286267 0.302004 0.18498
C_ C_ 0.814058 0.302022 0.35001 0.44287
C_ C_ 0.901922 0.29037 0.343709 0.44287
C_ C_ 0.910377 0.296187 0.372576 -0.05681
C_ C_ 0.960482 0.301298 0.38434 -0.08735
C_ C_ 0.966273 0.305633 0.413989 -0.08735
C_ C_ 0.92372 0.301807 0.433075 -0.05681
C_ C_ 0.875339 0.300862 0.421422 -0.05681
C_ C_ 0.867745 0.296154 0.391282 -0.05681
C_ C_ 0.817751 0.302951 0.380061 -0.05681
C_ C_ 0.776226 0.311867 0.398527 -0.08735
C_ C_ 0.784273 0.318098 0.427798 -0.08735
C_ C_ 0.834153 0.312397 0.438882 -0.05681
C_ C_ 0.841097 0.323634 0.467469 0.44287
C_ C_ 0.928374 0.30638 0.462545 0.44287
C_ C_ 0.886928 0.35666 0.00974327 0.18498
C_ C_ 0.924461 0.392696 0.0160547 -0.08735
C_ C_ 0.941077 0.403569 0.0445315 -0.08735
C_ C_ 0.912216 0.383612 0.06674 -0.08735
C_ C_ 0.878002 0.343666 0.0620412 0.18498
C_ C_ 0.864606 0.330614 0.0339821 -0.05681
C_ C_ 0.838028 0.284849 0.0296966 -0.08735
C_ C_ 0.818107 0.259623 0.0531993 -0.08735
C_ C_ 0.83105 0.274016 0.0815472 0.1947
N_ N_ 0.625163 0.161904 0.481319 -0.29468
N_ N_ 0.647317 0.201295 0.0852052 -0.17154
N_ N_ 0.612664 0.173156 0.232327 -0.17154
N_ N_ 0.630506 0.1976 0.336803 -0.29468
N_ N_ 0.867824 0.340746 0.230015 -0.29468
N_ N_ 0.854552 0.292287 0.332404 -0.17154
N_ N_ 0.887477 0.316738 0.479482 -0.17154
N_ N_ 0.859733 0.315377 0.0858001 -0.29468
O_ O_ 0.705966 0.162523 0.428137 -0.58347
O_ O_ 0.698873 0.197038 0.386318 -0.58347
O_ O_ 0.638642 0.250483 0.43241 -0.58347
O_ O_ 0.608435 0.255338 0.389262 -0.58347
O_ O_ 0.617005 0.101222 0.426344 -0.58347
O_ O_ 0.633034 0.108039 0.379447 -0.58347
O_ O_ 0.558651 0.183893 0.428523 -0.58347
O_ O_ 0.549651 0.173021 0.383112 -0.58347
O_ O_ 0.560509 0.217089 0.080456 -0.46727
O_ O_ 0.732561 0.189976 0.0899121 -0.46727
O_ O_ 0.525932 0.192193 0.226397 -0.46727
O_ O_ 0.700303 0.158521 0.238185 -0.46727
O_ O_ 0.785317 0.320155 0.179523 -0.58347
O_ O_ 0.78967 0.32651 0.133693 -0.58347
O_ O_ 0.863361 0.253597 0.186956 -0.58347
O_ O_ 0.865742 0.252489 0.140468 -0.58347
O_ O_ 0.855961 0.406441 0.176846 -0.58347
O_ O_ 0.860216 0.399381 0.129817 -0.58347
O_ O_ 0.934405 0.336388 0.180613 -0.58347
O_ O_ 0.940914 0.33386 0.13424 -0.58347
O_ O_ 0.939172 0.279675 0.326211 -0.46727
O_ O_ 0.767142 0.300495 0.338966 -0.46727
O_ O_ 0.972633 0.303329 0.475055 -0.46727
O_ O_ 0.800982 0.331556 0.484467 -0.46727
Zn Zn 0.622149 0.192963 0.882878 0.90689
Zn Zn 0.634022 0.185536 0.93008 0.90689
Zn Zn 0.871889 0.308709 0.630225 0.90689
Zn Zn 0.865056 0.311897 0.679027 0.90689
H_ H_ 0.804186 0.220438 0.943391 0.11455
H_ H_ 0.871317 0.156107 0.852854 0.11455
H_ H_ 0.781288 0.170972 0.857412 0.11455
H_ H_ 0.88947 0.209784 0.96719 0.11455
H_ H_ 0.979016 0.20778 0.959334 0.11455
H_ H_ 0.957631 0.168848 0.870124 0.11455
H_ H_ 0.620072 0.0199828 0.942208 0.11455
H_ H_ 0.598753 0.441193 0.848643 0.11455
H_ H_ 0.654482 0.0361544 0.851728 0.11455
H_ H_ 0.66012 0.431581 0.960585 0.11455
H_ H_ 0.64626 0.343203 0.958665 0.11455
H_ H_ 0.619292 0.355982 0.866787 0.11455
H_ H_ 0.58658 0.106591 0.966068 0.11455
H_ H_ 0.554515 0.0827196 0.520578 0.11455
H_ H_ 0.590098 0.13312 0.559647 0.11455
H_ H_ 0.68529 0.256451 0.976775 0.11455
H_ H_ 0.724395 0.291791 0.509681 0.11455
H_ H_ 0.709516 0.277699 0.560556 0.11455
H_ H_ 0.507719 0.210482 0.621305 0.11455
H_ H_ 0.491062 0.207974 0.672848 0.11455
H_ H_ 0.756768 0.183243 0.641594 0.11455
H_ H_ 0.741736 0.162517 0.692882 0.11455
H_ H_ 0.553826 0.086807 0.753007 0.11455
H_ H_ 0.526493 0.0753257 0.802185 0.11455
H_ H_ 0.556234 0.134258 0.840589 0.11455
H_ H_ 0.651812 0.244617 0.753103 0.11455
H_ H_ 0.691785 0.288534 0.791389 0.11455
H_ H_ 0.681885 0.260761 0.843594 0.11455
H_ H_ 0.694737 0.301172 0.698053 0.11455
H_ H_ 0.629493 0.31962 0.600734 0.11455
H_ H_ 0.716675 0.337226 0.611117 0.11455
H_ H_ 0.610435 0.302062 0.718256 0.11455
H_ H_ 0.525032 0.302579 0.710702 0.11455
H_ H_ 0.539919 0.324587 0.618389 0.11455
H_ H_ 0.855908 0.475168 0.69249 0.11455
H_ H_ 0.825006 0.0596795 0.60111 0.11455
H_ H_ 0.900354 0.461458 0.606201 0.11455
H_ H_ 0.867817 0.0609407 0.716946 0.11455
H_ H_ 0.880739 0.152545 0.712839 0.11455
H_ H_ 0.838373 0.13738 0.621636 0.11455
H_ H_ 0.926842 0.387215 0.714407 0.11455
H_ H_ 0.948322 0.413402 0.765594 0.11455
H_ H_ 0.912756 0.372141 0.805601 0.11455
H_ H_ 0.807556 0.256823 0.724182 0.11455
H_ H_ 0.766653 0.207385 0.764866 0.11455
H_ H_ 0.792369 0.23147 0.815379 0.11455
H_ H_ 0.983323 0.300285 0.873975 0.11455
H_ H_ -0.006836999999999982 0.308422 0.925627 0.11455
H_ H_ 0.739138 0.35587 0.886087 0.11455
H_ H_ 0.745339 0.354277 0.93488 0.11455
H_ H_ 0.946587 0.410884 0.998814 0.11455
H_ H_ 0.955537 0.422721 0.545739 0.11455
H_ H_ 0.921173 0.375579 0.587465 0.11455
H_ H_ 0.847094 0.235247 0.506609 0.11455
H_ H_ 0.813626 0.191154 0.547885 0.11455
H_ H_ 0.818815 0.231488 0.59609 0.11455
C_ C_ 0.728724 0.192814 0.906029 0.68181
C_ C_ 0.785471 0.19344 0.902047 -0.05681
C_ C_ 0.820713 0.20507 0.925274 -0.08735
C_ C_ 0.871789 0.19151 0.922909 -0.05681
C_ C_ 0.891997 0.178927 0.895596 -0.05681
C_ C_ 0.857789 0.171689 0.872801 -0.08735
C_ C_ 0.80601 0.177391 0.876034 -0.08735
C_ C_ 0.90556 0.198721 0.947201 -0.08735
C_ C_ 0.957359 0.19818 0.940769 -0.08735
C_ C_ 0.978156 0.182375 0.914042 -0.05681
C_ C_ 0.944226 0.177549 0.890967 -0.08735
C_ C_ 0.623487 0.28733 0.910014 0.68181
C_ C_ 0.634019 0.0915725 0.899844 0.68181
C_ C_ 0.637213 0.0351937 0.896847 -0.05681
C_ C_ 0.64598 0.501899 0.920862 -0.08735
C_ C_ 0.639882 0.447496 0.917077 -0.05681
C_ C_ 0.63042 0.426189 0.889991 -0.05681
C_ C_ 0.618166 0.457654 0.866922 -0.08735
C_ C_ 0.619321 0.510683 0.870972 -0.08735
C_ C_ 0.644945 0.416246 0.941198 -0.08735
C_ C_ 0.632135 0.364746 0.940611 -0.08735
C_ C_ 0.623938 0.342941 0.913324 -0.05681
C_ C_ 0.627208 0.372429 0.887975 -0.08735
C_ C_ 0.531814 0.188958 0.907516 0.68181
C_ C_ 0.602704 0.125969 0.984708 0.1947
C_ C_ 0.585548 0.111192 0.51623 -0.08735
C_ C_ 0.607682 0.138468 0.539003 -0.08735
C_ C_ 0.638487 0.181342 0.531796 -0.05681
C_ C_ 0.650826 0.188725 0.50226 0.18498
C_ C_ 0.67742 0.242598 0.997108 -0.08735
C_ C_ 0.700325 0.261636 0.516428 -0.08735
C_ C_ 0.69227 0.252767 0.544889 -0.08735
C_ C_ 0.655911 0.217339 0.552857 0.18498
C_ C_ 0.685019 0.200565 0.601306 0.44287
C_ C_ 0.597682 0.211322 0.594329 0.44287
C_ C_ 0.587382 0.200094 0.623738 -0.05681
C_ C_ 0.538686 0.203118 0.635229 -0.08735
C_ C_ 0.527895 0.199584 0.664391 -0.08735
C_ C_ 0.570605 0.187615 0.682888 -0.05681
C_ C_ 0.619973 0.187001 0.671612 -0.05681
C_ C_ 0.628145 0.192272 0.64235 -0.05681
C_ C_ 0.677106 0.192959 0.631114 -0.05681
C_ C_ 0.718152 0.184221 0.650399 -0.08735
C_ C_ 0.708349 0.173985 0.678857 -0.08735
C_ C_ 0.659574 0.176092 0.690145 -0.05681
C_ C_ 0.650269 0.166371 0.718963 0.44287
C_ C_ 0.562164 0.178749 0.71228 0.44287
C_ C_ 0.591728 0.156456 0.759805 0.18498
C_ C_ 0.565431 0.114062 0.768426 -0.08735
C_ C_ 0.547876 0.111062 0.796523 -0.08735
C_ C_ 0.567013 0.141274 0.817969 -0.08735
C_ C_ 0.600583 0.180581 0.810978 0.18498
C_ C_ 0.612378 0.189256 0.780737 -0.05681
C_ C_ 0.639056 0.236001 0.774848 -0.08735
C_ C_ 0.66513 0.259347 0.798058 -0.08735
C_ C_ 0.662217 0.240628 0.826165 0.1947
C_ C_ 0.770531 0.312342 0.655949 0.68181
C_ C_ 0.714369 0.313772 0.653413 -0.05681
C_ C_ 0.681494 0.313511 0.6773 -0.08735
C_ C_ 0.628682 0.31635 0.672975 -0.05681
C_ C_ 0.608365 0.32141 0.645031 -0.05681
C_ C_ 0.640994 0.320391 0.622425 -0.08735
C_ C_ 0.693305 0.325761 0.627589 -0.08735
C_ C_ 0.597261 0.313732 0.696762 -0.08735
C_ C_ 0.544896 0.312246 0.692019 -0.08735
C_ C_ 0.522705 0.31669 0.663314 -0.05681
C_ C_ 0.556446 0.321217 0.640217 -0.08735
C_ C_ 0.867541 0.210001 0.662719 0.68181
C_ C_ 0.869338 0.406147 0.650879 0.68181
C_ C_ 0.875719 0.462147 0.6501 -0.05681
C_ C_ 0.860921 -0.004634999999999945 0.672127 -0.08735
C_ C_ 0.856347 0.0476309 0.671379 -0.05681
C_ C_ 0.844929 0.070206 0.644707 -0.05681
C_ C_ 0.832737 0.0391572 0.620398 -0.08735
C_ C_ 0.889669 0.484986 0.623394 -0.08735
C_ C_ 0.868786 0.0762145 0.696312 -0.08735
C_ C_ 0.87058 0.130527 0.693731 -0.08735
C_ C_ 0.864801 0.153686 0.665529 -0.05681
C_ C_ 0.849829 0.122673 0.641611 -0.08735
C_ C_ 0.967786 0.309595 0.656125 0.68181
C_ C_ 0.910273 0.367062 0.732348 0.1947
C_ C_ 0.920529 0.384568 0.760929 -0.08735
C_ C_ 0.901864 0.357788 0.783954 -0.08735
C_ C_ 0.866977 0.316204 0.780154 -0.05681
C_ C_ 0.855716 0.301919 0.751234 0.18498
C_ C_ 0.817606 0.265125 0.746293 -0.08735
C_ C_ 0.793816 0.239598 0.76964 -0.08735
C_ C_ 0.806033 0.253528 0.798679 -0.08735
C_ C_ 0.843376 0.291827 0.803371 0.18498
C_ C_ 0.812085 0.331322 0.84758 0.44287
C_ C_ 0.895884 0.298473 0.845329 0.44287
C_ C_ 0.902827 0.31135 0.873398 -0.05681
C_ C_ 0.951278 0.30628 0.886003 -0.08735
C_ C_ 0.958419 0.314632 0.915421 -0.08735
C_ C_ 0.916219 0.327204 0.933112 -0.05681
C_ C_ 0.869222 0.336737 0.91984 -0.05681
C_ C_ 0.862884 0.330244 0.88926 -0.05681
C_ C_ 0.816929 0.343127 0.877255 -0.05681
C_ C_ 0.77764 0.359022 0.894732 -0.08735
C_ C_ 0.77839 0.354738 0.923394 -0.08735
C_ C_ 0.827237 0.346804 0.937477 -0.05681
C_ C_ 0.832031 0.35155 0.967727 0.44287
C_ C_ 0.916816 0.32452 0.963761 0.44287
C_ C_ 0.897275 0.328013 0.509218 0.18498
C_ C_ 0.927318 0.369652 0.514793 -0.08735
C_ C_ 0.933015 0.389697 0.542427 -0.08735
C_ C_ 0.913488 0.36148 0.56477 -0.08735
C_ C_ 0.890267 0.314204 0.560211 0.18498
C_ C_ 0.886232 0.293908 0.532217 -0.05681
C_ C_ 0.856545 0.248275 0.527975 -0.08735
C_ C_ 0.840491 0.222094 0.552858 -0.08735
C_ C_ 0.839218 0.247049 0.578844 0.1947
N_ N_ 0.631907 0.168317 0.980321 -0.29468
N_ N_ 0.645544 0.211664 0.583594 -0.17154
N_ N_ 0.601759 0.165105 0.729568 -0.17154
N_ N_ 0.626699 0.205343 0.833119 -0.29468
N_ N_ 0.8763 0.326447 0.728583 -0.29468
N_ N_ 0.850984 0.307936 0.832295 -0.17154
N_ N_ 0.877059 0.340995 0.980115 -0.17154
N_ N_ 0.867786 0.290167 0.582552 -0.29468
O_ O_ 0.709069 0.188453 0.930786 -0.58347
O_ O_ 0.699199 0.197995 0.883991 -0.58347
O_ O_ 0.630612 0.262177 0.932436 -0.58347
O_ O_ 0.617053 0.267317 0.885386 -0.58347
O_ O_ 0.642033 0.111475 0.924016 -0.58347
O_ O_ 0.629165 0.12018 0.878614 -0.58347
O_ O_ 0.559709 0.180968 0.928775 -0.58347
O_ O_ 0.549173 0.187868 0.881829 -0.58347
O_ O_ 0.56151 0.222405 0.577692 -0.46727
O_ O_ 0.732453 0.196373 0.592132 -0.46727
O_ O_ 0.518084 0.189477 0.723549 -0.46727
O_ O_ 0.685579 0.148038 0.735892 -0.46727
O_ O_ 0.791846 0.318518 0.679667 -0.58347
O_ O_ 0.797251 0.298742 0.634661 -0.58347
O_ O_ 0.862592 0.236501 0.685856 -0.58347
O_ O_ 0.879737 0.232315 0.639012 -0.58347
O_ O_ 0.869432 0.382402 0.674194 -0.58347
O_ O_ 0.862105 0.382605 0.62813 -0.58347
O_ O_ 0.939103 0.308657 0.678575 -0.58347
O_ O_ 0.9489 0.314513 0.631057 -0.58347
O_ O_ 0.934527 0.284207 0.82846 -0.46727
O_ O_ 0.765509 0.333806 0.836077 -0.46727
O_ O_ 0.956106 0.301861 0.976797 -0.46727
O_ O_ 0.792153 0.362845 0.984165 -0.46727
Zn Zn 0.634526 0.679801 0.380479 0.90689
Zn Zn 0.642808 0.677132 0.427445 0.90689
Zn Zn 0.88247 0.824333 0.131445 0.90689
Zn Zn 0.874768 0.829833 0.181488 0.90689
H_ H_ 0.815346 0.678885 0.442796 0.11455
H_ H_ 0.882876 0.688725 0.344944 0.11455
H_ H_ 0.787971 0.681237 0.35313 0.11455
H_ H_ 0.898748 0.678236 0.46287 0.11455
H_ H_ 0.991177 0.676156 0.453523 0.11455
H_ H_ 0.971297 0.681237 0.363825 0.11455
H_ H_ 0.638951 0.510605 0.441345 0.11455
H_ H_ 0.629518 0.93612 0.348167 0.11455
H_ H_ 0.64738 0.522436 0.349519 0.11455
H_ H_ 0.632583 0.923933 0.466909 0.11455
H_ H_ 0.619652 0.830225 0.460783 0.11455
H_ H_ 0.623764 0.849708 0.36801 0.11455
H_ H_ 0.572975 0.610814 0.46087 0.11455
H_ H_ 0.577327 0.58511 0.0184424 0.11455
H_ H_ 0.620474 0.630353 0.0568528 0.11455
H_ H_ 0.69839 0.734563 0.471919 0.11455
H_ H_ 0.737633 0.805258 0.00806704 0.11455
H_ H_ 0.718028 0.789151 0.0602751 0.11455
H_ H_ 0.522835 0.714161 0.121172 0.11455
H_ H_ 0.507859 0.69591 0.171191 0.11455
H_ H_ 0.774184 0.702174 0.142815 0.11455
H_ H_ 0.758766 0.672983 0.19271 0.11455
H_ H_ 0.562687 0.597929 0.246929 0.11455
H_ H_ 0.557467 0.565676 0.292763 0.11455
H_ H_ 0.591059 0.615122 0.335297 0.11455
H_ H_ 0.654367 0.759355 0.257609 0.11455
H_ H_ 0.684184 0.80308 0.301953 0.11455
H_ H_ 0.68771 0.756293 0.346629 0.11455
H_ H_ 0.706342 0.806473 0.194396 0.11455
H_ H_ 0.639439 0.858832 0.0974832 0.11455
H_ H_ 0.727078 0.854388 0.105498 0.11455
H_ H_ 0.622539 0.808512 0.213428 0.11455
H_ H_ 0.532384 0.803944 0.206079 0.11455
H_ H_ 0.550695 0.848785 0.117772 0.11455
H_ H_ 0.861016 0.994701 0.195199 0.11455
H_ H_ 0.874615 0.575747 0.0987159 0.11455
H_ H_ 0.903392 0.985018 0.107741 0.11455
H_ H_ 0.849025 0.585591 0.216254 0.11455
H_ H_ 0.872426 0.674271 0.21139 0.11455
H_ H_ 0.881046 0.656732 0.121436 0.11455
H_ H_ 0.924987 0.900354 0.216874 0.11455
H_ H_ 0.953272 0.917411 0.264219 0.11455
H_ H_ 0.904858 0.882525 0.305795 0.11455
H_ H_ 0.815891 0.761663 0.222923 0.11455
H_ H_ 0.77498 0.717868 0.263954 0.11455
H_ H_ 0.79338 0.739935 0.31111 0.11455
H_ H_ 0.983313 0.80312 0.373191 0.11455
H_ H_ -0.004197000000000006 0.811271 0.425706 0.11455
H_ H_ 0.735481 0.856056 0.387325 0.11455
H_ H_ 0.745585 0.859649 0.438738 0.11455
H_ H_ 0.946311 0.906052 0.505106 0.11455
H_ H_ 0.986387 0.917448 0.0472435 0.11455
H_ H_ 0.938316 0.880721 0.0867242 0.11455
H_ H_ 0.858159 0.750538 0.00902268 0.11455
H_ H_ 0.820356 0.70405 0.0502802 0.11455
H_ H_ 0.8221 0.749781 0.0983452 0.11455
C_ C_ 0.738003 0.683645 0.403027 0.68181
C_ C_ 0.793402 0.680652 0.398625 -0.05681
C_ C_ 0.828644 0.678947 0.421701 -0.08735
C_ C_ 0.881305 0.681001 0.41663 -0.05681
C_ C_ 0.901557 0.681872 0.389129 -0.05681
C_ C_ 0.867607 0.685734 0.366771 -0.08735
C_ C_ 0.813811 0.684192 0.371029 -0.08735
C_ C_ 0.914574 0.675667 0.439665 -0.08735
C_ C_ 0.96709 0.677031 0.435582 -0.08735
C_ C_ 0.987979 0.674811 0.407424 -0.05681
C_ C_ 0.953056 0.680406 0.384389 -0.08735
C_ C_ 0.633752 0.777125 0.411599 0.68181
C_ C_ 0.644357 0.580249 0.397904 0.68181
C_ C_ 0.64423 0.524808 0.395493 -0.05681
C_ C_ 0.639604 0.993798 0.424321 -0.08735
C_ C_ 0.633749 0.940419 0.421277 -0.05681
C_ C_ 0.625886 0.918465 0.393689 -0.05681
C_ C_ 0.629884 0.9504 0.370058 -0.08735
C_ C_ 0.630908 1.00257614 0.373039 -0.08735
C_ C_ 0.632043 0.9077 0.445595 -0.08735
C_ C_ 0.622789 0.855698 0.442264 -0.08735
C_ C_ 0.626548 0.83366 0.414622 -0.05681
C_ C_ 0.624881 0.864327 0.389851 -0.08735
C_ C_ 0.541742 0.677574 0.403735 0.68181
C_ C_ 0.596802 0.623395 0.477981 0.1947
C_ C_ 0.601859 0.61908 0.0143898 -0.08735
C_ C_ 0.626591 0.643898 0.0355319 -0.08735
C_ C_ 0.652739 0.689979 0.0298923 -0.05681
C_ C_ 0.658165 0.70349 0.999926 0.18498
C_ C_ 0.687094 0.726054 0.493377 -0.08735
C_ C_ 0.713962 0.772629 0.014149 -0.08735
C_ C_ 0.70052 0.764674 0.0433706 -0.08735
C_ C_ 0.673311 0.719769 0.0515982 0.18498
C_ C_ 0.704324 0.698848 0.100247 0.44287
C_ C_ 0.614739 0.716492 0.0940682 0.44287
C_ C_ 0.606017 0.705137 0.123212 -0.05681
C_ C_ 0.554237 0.703395 0.133252 -0.08735
C_ C_ 0.545809 0.692247 0.162262 -0.08735
C_ C_ 0.586822 0.689019 0.181653 -0.05681
C_ C_ 0.636821 0.683854 0.17106 -0.05681
C_ C_ 0.645957 0.691392 0.141449 -0.05681
C_ C_ 0.697048 0.694514 0.130703 -0.05681
C_ C_ 0.737384 0.690921 0.150759 -0.08735
C_ C_ 0.726059 0.68184 0.178682 -0.08735
C_ C_ 0.677547 0.67883 0.189171 -0.05681
C_ C_ 0.667303 0.677828 0.218402 0.44287
C_ C_ 0.580172 0.685321 0.210376 0.44287
C_ C_ 0.609499 0.663945 0.257301 0.18498
C_ C_ 0.581309 0.619694 0.263169 -0.08735
C_ C_ 0.576868 0.600522 0.289971 -0.08735
C_ C_ 0.59923 0.625194 0.313384 -0.08735
C_ C_ 0.626047 0.670032 0.309314 0.18498
C_ C_ 0.631235 0.690148 0.281421 -0.05681
C_ C_ 0.649652 0.73992 0.279196 -0.08735
C_ C_ 0.66971 0.766861 0.30316 -0.08735
C_ C_ 0.669322 0.741113 0.328613 0.1947
C_ C_ 0.780512 0.827232 0.153579 0.68181
C_ C_ 0.724758 0.830397 0.150848 -0.05681
C_ C_ 0.692494 0.815747 0.172802 -0.08735
C_ C_ 0.639273 0.820465 0.168833 -0.05681
C_ C_ 0.617768 0.826178 0.140263 -0.05681
C_ C_ 0.650959 0.841503 0.118635 -0.08735
C_ C_ 0.703192 0.841693 0.123561 -0.08735
C_ C_ 0.607391 0.820858 0.192869 -0.08735
C_ C_ 0.555412 0.816811 0.188456 -0.08735
C_ C_ 0.534075 0.826305 0.161876 -0.05681
C_ C_ 0.564652 0.831785 0.137939 -0.08735
C_ C_ 0.881798 0.728581 0.163559 0.68181
C_ C_ 0.873055 0.926052 0.150512 0.68181
C_ C_ 0.877358 0.983136 0.150321 -0.05681
C_ C_ 0.858014 0.515828 0.175738 -0.08735
C_ C_ 0.866578 0.568226 0.172615 -0.05681
C_ C_ 0.877116 0.589168 0.145013 -0.05681
C_ C_ 0.868341 0.559248 0.120607 -0.08735
C_ C_ 0.890164 1.00680096 0.124608 -0.08735
C_ C_ 0.869274 0.598507 0.196941 -0.08735
C_ C_ 0.873422 0.650086 0.193619 -0.08735
C_ C_ 0.882048 0.672618 0.166503 -0.05681
C_ C_ 0.8852 0.640711 0.14218 -0.08735
C_ C_ 0.97696 0.831402 0.156554 0.68181
C_ C_ 0.905633 0.883091 0.234236 0.1947
C_ C_ 0.922655 0.891516 0.26151 -0.08735
C_ C_ 0.894662 0.872553 0.283871 -0.08735
C_ C_ 0.86249 0.83103 0.278959 -0.05681
C_ C_ 0.848364 0.819314 0.249949 0.18498
C_ C_ 0.822181 0.774986 0.245343 -0.08735
C_ C_ 0.798714 0.750187 0.267307 -0.08735
C_ C_ 0.81108 0.761248 0.295751 -0.08735
C_ C_ 0.83822 0.805854 0.301663 0.18498
C_ C_ 0.807109 0.830571 0.348152 0.44287
C_ C_ 0.893277 0.809195 0.343457 0.44287
C_ C_ 0.902864 0.817774 0.373138 -0.05681
C_ C_ 0.950326 0.810671 0.386032 -0.08735
C_ C_ 0.958381 0.817211 0.415731 -0.08735
C_ C_ 0.916521 0.822965 0.434019 -0.05681
C_ C_ 0.86746 0.831189 0.421461 -0.05681
C_ C_ 0.859664 0.827308 0.391259 -0.05681
C_ C_ 0.81242 0.835807 0.378334 -0.05681
C_ C_ 0.772611 0.844613 0.39591 -0.08735
C_ C_ 0.778844 0.852565 0.425981 -0.08735
C_ C_ 0.825244 0.841838 0.439706 -0.05681
C_ C_ 0.831854 0.845733 0.470085 0.44287
C_ C_ 0.921437 0.828529 0.464144 0.44287
C_ C_ 0.909143 0.840084 0.0106501 0.18498
C_ C_ 0.940143 0.882823 0.0146397 -0.08735
C_ C_ 0.951319 0.895824 0.0436635 -0.08735
C_ C_ 0.926269 0.870736 0.0659634 -0.08735
C_ C_ 0.895648 0.827948 0.0616777 0.18498
C_ C_ 0.889615 0.810733 0.0340108 -0.05681
C_ C_ 0.858405 0.767996 0.0300682 -0.08735
C_ C_ 0.836801 0.742731 0.0533033 -0.08735
C_ C_ 0.842831 0.762755 0.0808 0.1947
N_ N_ 0.631724 0.661305 0.474392 -0.29468
N_ N_ 0.663149 0.709631 0.0823261 -0.17154
N_ N_ 0.620048 0.679798 0.228379 -0.17154
N_ N_ 0.647561 0.696057 0.33227 -0.29468
N_ N_ 0.870881 0.844373 0.228323 -0.29468
N_ N_ 0.846836 0.816057 0.331085 -0.17154
N_ N_ 0.88033 0.838479 0.481905 -0.17154
N_ N_ 0.869104 0.80714 0.0839299 -0.29468
O_ O_ 0.71968 0.675032 0.427762 -0.58347
O_ O_ 0.708616 0.689285 0.383432 -0.58347
O_ O_ 0.646561 0.751467 0.432693 -0.58347
O_ O_ 0.628007 0.755606 0.387419 -0.58347
O_ O_ 0.637019 0.603597 0.421368 -0.58347
O_ O_ 0.645172 0.605275 0.375672 -0.58347
O_ O_ 0.571458 0.685762 0.425261 -0.58347
O_ O_ 0.559801 0.667568 0.379218 -0.58347
O_ O_ 0.57811 0.732594 0.0769226 -0.46727
O_ O_ 0.750143 0.687639 0.0907159 -0.46727
O_ O_ 0.535626 0.685932 0.22193 -0.46727
O_ O_ 0.705017 0.669835 0.235669 -0.46727
O_ O_ 0.799443 0.821818 0.178028 -0.58347
O_ O_ 0.808094 0.83573 0.13266 -0.58347
O_ O_ 0.882423 0.756828 0.186202 -0.58347
O_ O_ 0.87511 0.750813 0.139521 -0.58347
O_ O_ 0.86598 0.902986 0.174831 -0.58347
O_ O_ 0.886976 0.901328 0.128745 -0.58347
O_ O_ 0.94923 0.835388 0.178771 -0.58347
O_ O_ 0.95713 0.818984 0.132942 -0.58347
O_ O_ 0.93088 0.790527 0.328899 -0.46727
O_ O_ 0.762443 0.840393 0.336566 -0.46727
O_ O_ 0.963819 0.811868 0.47499 -0.46727
O_ O_ 0.793301 0.856024 0.487031 -0.46727
Zn Zn 0.631387 0.690023 0.882003 0.90689
Zn Zn 0.638393 0.683221 0.929254 0.90689
Zn Zn 0.870026 0.806515 0.632941 0.90689
Zn Zn 0.86021 0.815066 0.679759 0.90689
H_ H_ 0.803835 0.686185 0.943473 0.11455
H_ H_ 0.874211 0.66785 0.845585 0.11455
H_ H_ 0.782436 0.67853 0.852313 0.11455
H_ H_ 0.895692 0.682389 0.965713 0.11455
H_ H_ 0.984278 0.681442 0.954887 0.11455
H_ H_ 0.961266 0.676625 0.865989 0.11455
H_ H_ 0.662159 0.519291 0.940895 0.11455
H_ H_ 0.662475 0.945057 0.847721 0.11455
H_ H_ 0.59975 0.532081 0.855299 0.11455
H_ H_ 0.591767 0.931858 0.959231 0.11455
H_ H_ 0.600989 0.840838 0.954532 0.11455
H_ H_ 0.639819 0.859267 0.864479 0.11455
H_ H_ 0.591056 0.611004 0.970297 0.11455
H_ H_ 0.568402 0.567214 0.506886 0.11455
H_ H_ 0.6097 0.602726 0.548617 0.11455
H_ H_ 0.696216 0.750325 0.969733 0.11455
H_ H_ 0.728851 0.786695 0.514371 0.11455
H_ H_ 0.711898 0.751997 0.563905 0.11455
H_ H_ 0.525191 0.68905 0.624057 0.11455
H_ H_ 0.52172 0.684531 0.678182 0.11455
H_ H_ 0.773605 0.625375 0.629676 0.11455
H_ H_ 0.767703 0.628999 0.68375 0.11455
H_ H_ 0.618743 0.573813 0.749472 0.11455
H_ H_ 0.594356 0.553093 0.797776 0.11455
H_ H_ 0.596492 0.613769 0.836182 0.11455
H_ H_ 0.688403 0.741414 0.757045 0.11455
H_ H_ 0.689363 0.804283 0.798662 0.11455
H_ H_ 0.67287 0.76926 0.846453 0.11455
H_ H_ 0.693208 0.802299 0.695903 0.11455
H_ H_ 0.620854 0.827097 0.599626 0.11455
H_ H_ 0.712645 0.810056 0.604298 0.11455
H_ H_ 0.607516 0.798002 0.715374 0.11455
H_ H_ 0.516725 0.811169 0.707537 0.11455
H_ H_ 0.536063 0.829085 0.619754 0.11455
H_ H_ 0.86961 0.977577 0.691564 0.11455
H_ H_ 0.894026 0.553775 0.5994 0.11455
H_ H_ 0.81411 0.96138 0.605768 0.11455
H_ H_ 0.854571 0.562154 0.714544 0.11455
H_ H_ 0.861903 0.653994 0.707829 0.11455
H_ H_ 0.898635 0.63802 0.62004 0.11455
H_ H_ 0.908896 0.894923 0.713233 0.11455
H_ H_ 0.923467 0.927052 0.76289 0.11455
H_ H_ 0.892641 0.882722 0.802841 0.11455
H_ H_ 0.817404 0.741702 0.724739 0.11455
H_ H_ 0.773208 0.702557 0.766747 0.11455
H_ H_ 0.779221 0.735679 0.813551 0.11455
H_ H_ 0.985052 0.789587 0.870733 0.11455
H_ H_ 0.999692 0.787627 0.922052 0.11455
H_ H_ 0.746972 0.866945 0.891652 0.11455
H_ H_ 0.761561 0.875055 0.941594 0.11455
H_ H_ 0.96027 0.898309 0.996493 0.11455
H_ H_ 0.958855 0.929221 0.552852 0.11455
H_ H_ 0.925246 0.876699 0.592465 0.11455
H_ H_ 0.824327 0.763206 0.507517 0.11455
H_ H_ 0.808341 0.702688 0.546496 0.11455
H_ H_ 0.83352 0.726842 0.595975 0.11455
C_ C_ 0.732701 0.687554 0.90426 0.68181
C_ C_ 0.78633 0.679523 0.898688 -0.05681
C_ C_ 0.819705 0.682228 0.922264 -0.08735
C_ C_ 0.873529 0.681722 0.919108 -0.05681
C_ C_ 0.892797 0.670288 0.891196 -0.05681
C_ C_ 0.857859 0.669308 0.866381 -0.08735
C_ C_ 0.805925 0.677049 0.870678 -0.08735
C_ C_ 0.908535 0.680785 0.943575 -0.08735
C_ C_ 0.960404 0.678733 0.937762 -0.08735
C_ C_ 0.978889 0.673698 0.90953 -0.05681
C_ C_ 0.94504 0.668712 0.8868 -0.08735
C_ C_ 0.631001 0.787478 0.909755 0.68181
C_ C_ 0.635255 0.590435 0.899659 0.68181
C_ C_ 0.636385 0.533661 0.896591 -0.05681
C_ C_ 0.625695 0.00313592 0.920061 -0.08735
C_ C_ 0.625486 0.94924 0.918341 -0.05681
C_ C_ 0.636612 0.929035 0.89123 -0.05681
C_ C_ 0.648426 0.96121 0.867525 -0.08735
C_ C_ 0.644487 0.0139964 0.869924 -0.08735
C_ C_ 0.613792 0.918365 0.941715 -0.08735
C_ C_ 0.617034 0.865851 0.937905 -0.08735
C_ C_ 0.628222 0.844186 0.911915 -0.05681
C_ C_ 0.632857 0.876038 0.886787 -0.08735
C_ C_ 0.537844 0.679531 0.906238 0.68181
C_ C_ 0.610038 0.633898 0.985594 0.1947
C_ C_ 0.590267 0.601948 0.50443 -0.08735
C_ C_ 0.614844 0.621635 0.528471 -0.08735
C_ C_ 0.643231 0.667742 0.525793 -0.05681
C_ C_ 0.655745 0.684208 0.497526 0.18498
C_ C_ 0.690734 0.742386 0.992868 -0.08735
C_ C_ 0.705929 0.753006 0.517168 -0.08735
C_ C_ 0.692707 0.736954 0.544632 -0.08735
C_ C_ 0.666405 0.692105 0.549048 0.18498
C_ C_ 0.697256 0.66126 0.594351 0.44287
C_ C_ 0.611009 0.68277 0.591221 0.44287
C_ C_ 0.606398 0.675591 0.621683 -0.05681
C_ C_ 0.560614 0.68569 0.636617 -0.08735
C_ C_ 0.556849 0.680965 0.667172 -0.08735
C_ C_ 0.601222 0.673042 0.682872 -0.05681
C_ C_ 0.648507 0.665186 0.668891 -0.05681
C_ C_ 0.649114 0.664626 0.638806 -0.05681
C_ C_ 0.694417 0.654848 0.624656 -0.05681
C_ C_ 0.736836 0.637807 0.640922 -0.08735
C_ C_ 0.736139 0.640957 0.670665 -0.08735
C_ C_ 0.690254 0.651833 0.685041 -0.05681
C_ C_ 0.687758 0.654567 0.715397 0.44287
C_ C_ 0.600106 0.669791 0.713595 0.44287
C_ C_ 0.640501 0.649281 0.758201 0.18498
C_ C_ 0.624461 0.601577 0.765372 -0.08735
C_ C_ 0.60573 0.591312 0.792814 -0.08735
C_ C_ 0.607187 0.625876 0.814333 -0.08735
C_ C_ 0.628173 0.672891 0.809448 0.18498
C_ C_ 0.645452 0.685026 0.781492 -0.05681
C_ C_ 0.672011 0.731429 0.777964 -0.08735
C_ C_ 0.670815 0.767904 0.800322 -0.08735
C_ C_ 0.656975 0.752105 0.827568 0.1947
C_ C_ 0.765315 0.799203 0.655743 0.68181
C_ C_ 0.710794 0.800565 0.650507 -0.05681
C_ C_ 0.678275 0.80483 0.674489 -0.08735
C_ C_ 0.625139 0.800956 0.670654 -0.05681
C_ C_ 0.60568 0.808823 0.643272 -0.05681
C_ C_ 0.638272 0.820133 0.620833 -0.08735
C_ C_ 0.690402 0.809246 0.623291 -0.08735
C_ C_ 0.591826 0.794733 0.69355 -0.08735
C_ C_ 0.53965 0.798708 0.68914 -0.08735
C_ C_ 0.520241 0.807052 0.661423 -0.05681
C_ C_ 0.552701 0.814953 0.639495 -0.08735
C_ C_ 0.881302 0.710785 0.662404 0.68181
C_ C_ 0.84991 0.907903 0.651699 0.68181
C_ C_ 0.845591 0.964624 0.649717 -0.05681
C_ C_ 0.863997 0.493351 0.672563 -0.08735
C_ C_ 0.865167 0.546919 0.670176 -0.05681
C_ C_ 0.878198 0.568434 0.643932 -0.05681
C_ C_ 0.887879 0.536379 0.62025 -0.08735
C_ C_ 0.830596 0.986323 0.623229 -0.08735
C_ C_ 0.859718 0.578591 0.694083 -0.08735
C_ C_ 0.868708 0.629964 0.691049 -0.08735
C_ C_ 0.878496 0.653442 0.66468 -0.05681
C_ C_ 0.881721 0.622701 0.639992 -0.08735
C_ C_ 0.963868 0.823274 0.656635 0.68181
C_ C_ 0.893877 0.874758 0.731627 0.1947
C_ C_ 0.905287 0.890494 0.759599 -0.08735
C_ C_ 0.881651 0.867423 0.782133 -0.08735
C_ C_ 0.858079 0.819555 0.779573 -0.05681
C_ C_ 0.850187 0.801317 0.751338 0.18498
C_ C_ 0.822239 0.757781 0.746749 -0.08735
C_ C_ 0.798419 0.733224 0.770126 -0.08735
C_ C_ 0.807219 0.749783 0.798603 -0.08735
C_ C_ 0.838722 0.791713 0.803095 0.18498
C_ C_ 0.808911 0.819547 0.851507 0.44287
C_ C_ 0.894596 0.79815 0.843968 0.44287
C_ C_ 0.905412 0.806445 0.873418 -0.05681
C_ C_ 0.954587 0.799083 0.885586 -0.08735
C_ C_ 0.961805 0.795641 0.914489 -0.08735
C_ C_ 0.921445 0.809143 0.933243 -0.05681
C_ C_ 0.873667 0.824779 0.921485 -0.05681
C_ C_ 0.866396 0.821336 0.891885 -0.05681
C_ C_ 0.817304 0.82972 0.880274 -0.05681
C_ C_ 0.780102 0.847784 0.898593 -0.08735
C_ C_ 0.789281 0.854719 0.927529 -0.08735
C_ C_ 0.836486 0.842073 0.939892 -0.05681
C_ C_ 0.849022 0.846213 0.970306 0.44287
C_ C_ 0.924663 0.802748 0.963211 0.44287
C_ C_ 0.889709 0.847572 0.512015 0.18498
C_ C_ 0.91934 0.890919 0.521069 -0.08735
C_ C_ 0.934175 0.898194 0.548644 -0.08735
C_ C_ 0.9113 0.87128 0.569942 -0.08735
C_ C_ 0.879204 0.828917 0.564161 0.18498
C_ C_ 0.867886 0.816389 0.534735 -0.05681
C_ C_ 0.837916 0.77191 0.529562 -0.08735
C_ C_ 0.824876 0.740502 0.551159 -0.08735
C_ C_ 0.839176 0.752415 0.579344 0.1947
N_ N_ 0.634474 0.677242 0.978353 -0.29468
N_ N_ 0.656764 0.675334 0.577895 -0.17154
N_ N_ 0.642624 0.661762 0.72888 -0.17154
N_ N_ 0.637298 0.704893 0.832552 -0.29468
N_ N_ 0.868499 0.827549 0.72781 -0.29468
N_ N_ 0.847392 0.804798 0.832959 -0.17154
N_ N_ 0.892629 0.827919 0.981306 -0.17154
N_ N_ 0.864621 0.79748 0.585326 -0.29468
O_ O_ 0.71269 0.67741 0.928018 -0.58347
O_ O_ 0.703543 0.701541 0.885006 -0.58347
O_ O_ 0.639964 0.757558 0.931825 -0.58347
O_ O_ 0.620192 0.766306 0.88589 -0.58347
O_ O_ 0.63101 0.611933 0.924226 -0.58347
O_ O_ 0.643449 0.617452 0.877794 -0.58347
O_ O_ 0.565694 0.68881 0.926956 -0.58347
O_ O_ 0.556415 0.681959 0.880787 -0.58347
O_ O_ 0.57136 0.69975 0.576403 -0.46727
O_ O_ 0.740835 0.660009 0.583079 -0.46727
O_ O_ 0.556465 0.679234 0.727007 -0.46727
O_ O_ 0.730323 0.646453 0.730209 -0.46727
O_ O_ 0.784357 0.799149 0.680439 -0.58347
O_ O_ 0.79473 0.797385 0.633699 -0.58347
O_ O_ 0.882217 0.736994 0.68509 -0.58347
O_ O_ 0.880692 0.731708 0.63835 -0.58347
O_ O_ 0.842206 0.88486 0.675785 -0.58347
O_ O_ 0.860911 0.882223 0.62913 -0.58347
O_ O_ 0.935266 0.8314 0.677093 -0.58347
O_ O_ 0.946932 0.815057 0.632362 -0.58347
O_ O_ 0.932628 0.78306 0.82696 -0.46727
O_ O_ 0.764341 0.829842 0.840432 -0.46727
O_ O_ 0.962909 0.78074 0.974651 -0.46727
O_ O_ 0.812342 0.858506 0.988016 -0.46727
_cell_length_a 26.376
_cell_length_b 26.400000238300095
_cell_length_c 46.67800035477134
_cell_angle_alpha 90.00700052986613
_cell_angle_beta 89.99899961309502
_cell_angle_gamma 90.45000003183146
_symmetry_space_group_name_H-M         'P 1'
_symmetry_Int_Tables_number            1
loop_
_symmetry_equiv_pos_as_xyz
   'x, y, z'
                         
loop_
_atom_site_label
_atom_site_type_symbol
_atom_site_fract_x 
_atom_site_fract_y
_atom_site_fract_z
_atom_site_charge
Zn Zn 0.123078 0.190465 0.385158 0.90689
Zn Zn 0.136227 0.181697 0.431493 0.90689
Zn Zn 0.366127 0.324779 0.132006 0.90689
Zn Zn 0.356141 0.325299 0.178399 0.90689
H_ H_ 0.297717 0.178496 0.444531 0.11455
H_ H_ 0.364982 0.177368 0.345218 0.11455
H_ H_ 0.274108 0.168887 0.355307 0.11455
H_ H_ 0.383735 0.174424 0.46341 0.11455
H_ H_ 0.477207 0.186027 0.454532 0.11455
H_ H_ 0.456243 0.179647 0.365045 0.11455
H_ H_ 0.159745 0.0175096 0.436956 0.11455
H_ H_ 0.132085 0.438106 0.34645 0.11455
H_ H_ 0.10066 0.0339648 0.350617 0.11455
H_ H_ 0.142904 0.434166 0.465237 0.11455
H_ H_ 0.14182 0.343197 0.460671 0.11455
H_ H_ 0.126037 0.355766 0.371229 0.11455
H_ H_ 0.0886733 0.102386 0.464183 0.11455
H_ H_ 0.064155 0.0844887 0.0174778 0.11455
H_ H_ 0.101547 0.129313 0.0603775 0.11455
H_ H_ 0.176906 0.25571 0.479578 0.11455
H_ H_ 0.186713 0.322755 0.0173634 0.11455
H_ H_ 0.181621 0.291345 0.066577 0.11455
H_ H_ 0.00323887 0.208779 0.122497 0.11455
H_ H_ -0.014101999999999948 0.186125 0.174117 0.11455
H_ H_ 0.254657 0.170191 0.14202 0.11455
H_ H_ 0.236841 0.139249 0.192151 0.11455
H_ H_ 0.0373741 0.0829943 0.256629 0.11455
H_ H_ 0.00659669 0.0848545 0.304272 0.11455
H_ H_ 0.0528442 0.132329 0.342584 0.11455
H_ H_ 0.154506 0.228108 0.255226 0.11455
H_ H_ 0.179087 0.285686 0.292495 0.11455
H_ H_ 0.162679 0.264423 0.344032 0.11455
H_ H_ 0.188384 0.295105 0.189147 0.11455
H_ H_ 0.12095 0.347752 0.0954508 0.11455
H_ H_ 0.210795 0.349886 0.102253 0.11455
H_ H_ 0.106622 0.28282 0.208082 0.11455
H_ H_ 0.0154083 0.292214 0.204165 0.11455
H_ H_ 0.0305084 0.338686 0.116012 0.11455
H_ H_ 0.380748 0.497386 0.191789 0.11455
H_ H_ 0.305115 0.0660725 0.109108 0.11455
H_ H_ 0.338381 0.48443 0.10263 0.11455
H_ H_ 0.421975 0.0805354 0.20713 0.11455
H_ H_ 0.407662 0.171387 0.202239 0.11455
H_ H_ 0.323089 0.149877 0.125731 0.11455
H_ H_ 0.408377 0.39131 0.216735 0.11455
H_ H_ 0.427996 0.418325 0.266479 0.11455
H_ H_ 0.384859 0.374777 0.307736 0.11455
H_ H_ 0.299664 0.253069 0.223668 0.11455
H_ H_ 0.28809 0.190052 0.263254 0.11455
H_ H_ 0.30068 0.21279 0.310831 0.11455
H_ H_ 0.482228 0.294178 0.373742 0.11455
H_ H_ 0.489213 0.29858 0.425639 0.11455
H_ H_ 0.224979 0.314375 0.389576 0.11455
H_ H_ 0.236214 0.312048 0.442375 0.11455
H_ H_ 0.417146 0.405158 0.501348 0.11455
H_ H_ 0.431627 0.447756 0.047633 0.11455
H_ H_ 0.422697 0.384813 0.0853355 0.11455
H_ H_ 0.319808 0.271871 0.00538455 0.11455
H_ H_ 0.294637 0.219427 0.0467021 0.11455
H_ H_ 0.31839 0.240277 0.0960257 0.11455
C_ C_ 0.227925 0.190656 0.404293 0.68181
C_ C_ 0.28306 0.182523 0.399767 -0.05681
C_ C_ 0.31312 0.180245 0.423443 -0.08735
C_ C_ 0.365975 0.178501 0.418948 -0.05681
C_ C_ 0.38707 0.179232 0.390637 -0.05681
C_ C_ 0.352724 0.174668 0.367522 -0.08735
C_ C_ 0.301809 0.169488 0.372489 -0.08735
C_ C_ 0.400042 0.177563 0.44253 -0.08735
C_ C_ 0.451803 0.177557 0.437672 -0.08735
C_ C_ 0.472415 0.180777 0.410134 -0.05681
C_ C_ 0.439043 0.179461 0.385917 -0.08735
C_ C_ 0.129715 0.284049 0.414976 0.68181
C_ C_ 0.133912 0.0906588 0.398193 0.68181
C_ C_ 0.131908 0.0352277 0.39462 -0.05681
C_ C_ 0.15507 0.501967 0.419744 -0.08735
C_ C_ 0.143314 0.449602 0.419652 -0.05681
C_ C_ 0.136761 0.426493 0.393426 -0.05681
C_ C_ 0.128777 0.45542 0.367904 -0.08735
C_ C_ 0.136562 0.508126 0.368906 -0.08735
C_ C_ 0.139502 0.41748 0.445161 -0.08735
C_ C_ 0.141189 0.364402 0.442445 -0.08735
C_ C_ 0.133547 0.341634 0.417123 -0.05681
C_ C_ 0.133386 0.373627 0.39206 -0.08735
C_ C_ 0.030888 0.178082 0.41082 0.68181
C_ C_ 0.104631 0.120176 0.48317 0.1947
C_ C_ 0.0957986 0.110791 0.0142896 -0.08735
C_ C_ 0.109783 0.140822 0.0376093 -0.08735
C_ C_ 0.136267 0.187237 0.0325321 -0.05681
C_ C_ 0.142836 0.20288 1.00350029 0.18498
C_ C_ 0.170063 0.241347 0.499816 -0.08735
C_ C_ 0.17505 0.284003 0.0210487 -0.08735
C_ C_ 0.164864 0.270959 0.0500746 -0.08735
C_ C_ 0.147902 0.222 0.0562919 0.18498
C_ C_ 0.180761 0.198536 0.103459 0.44287
C_ C_ 0.0935519 0.214972 0.0978371 0.44287
C_ C_ 0.0842755 0.200268 0.126737 -0.05681
C_ C_ 0.0333727 0.194523 0.136029 -0.08735
C_ C_ 0.0244115 0.182835 0.165823 -0.08735
C_ C_ 0.0665703 0.174241 0.184587 -0.05681
C_ C_ 0.115352 0.171047 0.173368 -0.05681
C_ C_ 0.126096 0.184727 0.144156 -0.05681
C_ C_ 0.173848 0.181695 0.132007 -0.05681
C_ C_ 0.215009 0.167976 0.150121 -0.08735
C_ C_ 0.206543 0.1559 0.179221 -0.08735
C_ C_ 0.156775 0.157219 0.191304 -0.05681
C_ C_ 0.147987 0.146953 0.220785 0.44287
C_ C_ 0.0601881 0.166131 0.214104 0.44287
C_ C_ 0.0919241 0.143728 0.262236 0.18498
C_ C_ 0.0594155 0.105314 0.271762 -0.08735
C_ C_ 0.041497 0.105117 0.299507 -0.08735
C_ C_ 0.0642387 0.135037 0.321438 -0.08735
C_ C_ 0.104461 0.166979 0.314698 0.18498
C_ C_ 0.116845 0.173254 0.284517 -0.05681
C_ C_ 0.148659 0.213565 0.276874 -0.08735
C_ C_ 0.160194 0.250509 0.298722 -0.08735
C_ C_ 0.152598 0.239175 0.328408 0.1947
C_ C_ 0.263471 0.326324 0.152607 0.68181
C_ C_ 0.209241 0.323738 0.147118 -0.05681
C_ C_ 0.175014 0.306063 0.1682 -0.08735
C_ C_ 0.122357 0.307145 0.16493 -0.05681
C_ C_ 0.101392 0.322351 0.138543 -0.05681
C_ C_ 0.13515 0.339611 0.117022 -0.08735
C_ C_ 0.18603 0.336271 0.119488 -0.08735
C_ C_ 0.0914585 0.298524 0.188713 -0.08735
C_ C_ 0.0383187 0.302762 0.185779 -0.08735
C_ C_ 0.0153353 0.317244 0.159562 -0.05681
C_ C_ 0.0463055 0.326614 0.136562 -0.08735
C_ C_ 0.370234 0.225512 0.160899 0.68181
C_ C_ 0.360652 0.425267 0.149753 0.68181
C_ C_ 0.360711 0.482124 0.147928 -0.05681
C_ C_ 0.393887 0.00708032 0.16629 -0.08735
C_ C_ 0.38673 0.0615886 0.165289 -0.05681
C_ C_ 0.355112 0.0829906 0.143757 -0.05681
C_ C_ 0.33059 0.0499976 0.124582 -0.08735
C_ C_ 0.345787 0.506982 0.121864 -0.08735
C_ C_ 0.400504 0.0935372 0.188384 -0.08735
C_ C_ 0.397876 0.146054 0.184525 -0.08735
C_ C_ 0.372437 0.168012 0.161169 -0.05681
C_ C_ 0.34953 0.136104 0.141008 -0.08735
C_ C_ 0.458434 0.325885 0.158632 0.68181
C_ C_ 0.38776 0.376041 0.234733 0.1947
C_ C_ 0.402221 0.387221 0.26247 -0.08735
C_ C_ 0.381696 0.360424 0.285499 -0.08735
C_ C_ 0.355679 0.31533 0.280273 -0.05681
C_ C_ 0.3435 0.302794 0.250171 0.18498
C_ C_ 0.314956 0.260221 0.244799 -0.08735
C_ C_ 0.304316 0.227485 0.266976 -0.08735
C_ C_ 0.311376 0.24198 0.295896 -0.08735
C_ C_ 0.337769 0.284259 0.303354 0.18498
C_ C_ 0.302504 0.308501 0.349494 0.44287
C_ C_ 0.391067 0.293109 0.345916 0.44287
C_ C_ 0.398951 0.304057 0.374905 -0.05681
C_ C_ 0.447161 0.299002 0.386173 -0.08735
C_ C_ 0.452351 0.303332 0.415845 -0.08735
C_ C_ 0.410008 0.310953 0.433595 -0.05681
C_ C_ 0.362751 0.31695 0.422404 -0.05681
C_ C_ 0.356857 0.309224 0.392756 -0.05681
C_ C_ 0.307346 0.31049 0.380125 -0.05681
C_ C_ 0.264686 0.314668 0.398173 -0.08735
C_ C_ 0.270206 0.32019 0.427811 -0.08735
C_ C_ 0.319784 0.323904 0.440205 -0.05681
C_ C_ 0.326546 0.327975 0.470364 0.44287
C_ C_ 0.414374 0.313289 0.464942 0.44287
C_ C_ 0.381294 0.354916 0.00903277 0.18498
C_ C_ 0.408123 0.398163 0.0147841 -0.08735
C_ C_ 0.422747 0.408768 0.0432866 -0.08735
C_ C_ 0.41157 0.376189 0.0651912 -0.08735
C_ C_ 0.377459 0.336483 0.0608925 0.18498
C_ C_ 0.364273 0.3242 0.0320134 -0.05681
C_ C_ 0.332116 0.281422 0.0273459 -0.08735
C_ C_ 0.316912 0.251827 0.0515109 -0.08735
C_ C_ 0.326512 0.266884 0.0789085 0.1947
N_ N_ 0.130608 0.165169 0.479874 -0.29468
N_ N_ 0.14014 0.208803 0.0855933 -0.17154
N_ N_ 0.0996011 0.149892 0.231312 -0.17154
N_ N_ 0.125286 0.198132 0.336419 -0.29468
N_ N_ 0.356351 0.336688 0.228763 -0.29468
N_ N_ 0.344679 0.298383 0.33299 -0.17154
N_ N_ 0.373041 0.322893 0.482037 -0.17154
N_ N_ 0.358104 0.307686 0.0840262 -0.29468
O_ O_ 0.211288 0.191262 0.429045 -0.58347
O_ O_ 0.19683 0.187362 0.383056 -0.58347
O_ O_ 0.1218 0.256484 0.437073 -0.58347
O_ O_ 0.130459 0.264746 0.390614 -0.58347
O_ O_ 0.145189 0.10971 0.42264 -0.58347
O_ O_ 0.120748 0.118896 0.377832 -0.58347
O_ O_ 0.0618461 0.165152 0.43041 -0.58347
O_ O_ 0.0483768 0.193785 0.38757 -0.58347
O_ O_ 0.0551628 0.225006 0.0813228 -0.46727
O_ O_ 0.227247 0.19957 0.0920694 -0.46727
O_ O_ 0.0132271 0.170428 0.225714 -0.46727
O_ O_ 0.185031 0.128415 0.237083 -0.46727
O_ O_ 0.281562 0.312489 0.176729 -0.58347
O_ O_ 0.292684 0.332409 0.131322 -0.58347
O_ O_ 0.364683 0.250273 0.184365 -0.58347
O_ O_ 0.366767 0.247244 0.136826 -0.58347
O_ O_ 0.349741 0.402554 0.173004 -0.58347
O_ O_ 0.372016 0.399025 0.127553 -0.58347
O_ O_ 0.429998 0.331497 0.179267 -0.58347
O_ O_ 0.440245 0.320594 0.13307 -0.58347
O_ O_ 0.43065 0.282972 0.329641 -0.46727
O_ O_ 0.257203 0.310709 0.338286 -0.46727
O_ O_ 0.459181 0.309098 0.476738 -0.46727
O_ O_ 0.288627 0.342588 0.485404 -0.46727
Zn Zn 0.127105 0.179273 0.883683 0.90689
Zn Zn 0.137554 0.173075 0.932397 0.90689
Zn Zn 0.375434 0.301072 0.632244 0.90689
Zn Zn 0.359843 0.313342 0.680112 0.90689
H_ H_ 0.302317 0.20389 0.946045 0.11455
H_ H_ 0.368911 0.15391 0.85028 0.11455
H_ H_ 0.279663 0.146386 0.860972 0.11455
H_ H_ 0.384354 0.203029 0.964929 0.11455
H_ H_ 0.482823 0.202181 0.956161 0.11455
H_ H_ 0.460325 0.171292 0.868255 0.11455
H_ H_ 0.166604 0.0108655 0.940874 0.11455
H_ H_ 0.154241 0.424028 0.848541 0.11455
H_ H_ 0.0921751 0.0232903 0.856597 0.11455
H_ H_ 0.104709 0.428499 0.962714 0.11455
H_ H_ 0.111304 0.336492 0.962077 0.11455
H_ H_ 0.146392 0.345341 0.871363 0.11455
H_ H_ 0.0996686 0.101538 0.96936 0.11455
H_ H_ 0.064579 0.0712949 0.512853 0.11455
H_ H_ 0.0855783 0.125581 0.55461 0.11455
H_ H_ 0.164975 0.26779 0.979014 0.11455
H_ H_ 0.211392 0.303329 0.518663 0.11455
H_ H_ 0.188891 0.275092 0.568464 0.11455
H_ H_ -0.0016920000000000268 0.201245 0.627792 0.11455
H_ H_ -0.011044000000000054 0.179319 0.677283 0.11455
H_ H_ 0.2514 0.148354 0.638884 0.11455
H_ H_ 0.239175 0.148328 0.692053 0.11455
H_ H_ 0.0458887 0.0791147 0.756866 0.11455
H_ H_ 0.0299389 0.0614436 0.806165 0.11455
H_ H_ 0.0600077 0.115265 0.842817 0.11455
H_ H_ 0.14387 0.230458 0.757175 0.11455
H_ H_ 0.179567 0.28298 0.79624 0.11455
H_ H_ 0.167337 0.254262 0.846252 0.11455
H_ H_ 0.193684 0.27574 0.689612 0.11455
H_ H_ 0.125461 0.335836 0.596661 0.11455
H_ H_ 0.217879 0.334197 0.60542 0.11455
H_ H_ 0.108457 0.293333 0.710457 0.11455
H_ H_ 0.0173871 0.279382 0.702194 0.11455
H_ H_ 0.0404324 0.332868 0.617328 0.11455
H_ H_ 0.365725 0.47644 0.693083 0.11455
H_ H_ 0.403455 0.0600699 0.602263 0.11455
H_ H_ 0.377314 0.466772 0.600823 0.11455
H_ H_ 0.317837 0.0645097 0.713081 0.11455
H_ H_ 0.342253 0.150463 0.711834 0.11455
H_ H_ 0.403454 0.137123 0.626794 0.11455
H_ H_ 0.421837 0.376556 0.71683 0.11455
H_ H_ 0.441616 0.399073 0.764923 0.11455
H_ H_ 0.394274 0.36356 0.805615 0.11455
H_ H_ 0.303381 0.248723 0.723654 0.11455
H_ H_ 0.253094 0.208143 0.759065 0.11455
H_ H_ 0.28094 0.22647 0.811445 0.11455
H_ H_ 0.467604 0.281613 0.870735 0.11455
H_ H_ 0.484351 0.299377 0.920397 0.11455
H_ H_ 0.227827 0.363066 0.887435 0.11455
H_ H_ 0.244472 0.382154 0.934821 0.11455
H_ H_ 0.422329 0.421209 -0.0032200000000000006 0.11455
H_ H_ 0.471848 0.401188 0.547718 0.11455
H_ H_ 0.443211 0.349092 0.58602 0.11455
H_ H_ 0.322862 0.251017 0.509414 0.11455
H_ H_ 0.291571 0.20143 0.553762 0.11455
H_ H_ 0.313222 0.226613 0.599741 0.11455
C_ C_ 0.229674 0.176366 0.907516 0.68181
C_ C_ 0.28624 0.178841 0.902663 -0.05681
C_ C_ 0.317949 0.192426 0.924626 -0.08735
C_ C_ 0.371459 0.188198 0.920005 -0.05681
C_ C_ 0.390776 0.181427 0.891876 -0.05681
C_ C_ 0.354712 0.168212 0.87069 -0.08735
C_ C_ 0.303854 0.1614 0.877028 -0.08735
C_ C_ 0.40379 0.198409 0.94321 -0.08735
C_ C_ 0.456113 0.200668 0.939133 -0.08735
C_ C_ 0.475553 0.186855 0.912305 -0.05681
C_ C_ 0.443142 0.177394 0.888865 -0.08735
C_ C_ 0.124371 0.278443 0.91396 0.68181
C_ C_ 0.132543 0.0785413 0.900655 0.68181
C_ C_ 0.130734 0.0217419 0.89794 -0.05681
C_ C_ 0.127901 0.493368 0.920326 -0.08735
C_ C_ 0.126829 0.440776 0.919349 -0.05681
C_ C_ 0.137829 0.415516 0.893181 -0.05681
C_ C_ 0.149341 0.442983 0.868847 -0.08735
C_ C_ 0.148286 0.496493 0.869887 -0.08735
C_ C_ 0.120523 0.411087 0.943819 -0.08735
C_ C_ 0.11584 0.357775 0.942263 -0.08735
C_ C_ 0.125017 0.33266 0.916103 -0.05681
C_ C_ 0.133327 0.362786 0.892101 -0.08735
C_ C_ 0.0331087 0.179655 0.909554 0.68181
C_ C_ 0.109175 0.126313 0.986618 0.1947
C_ C_ 0.0904265 0.103092 0.511247 -0.08735
C_ C_ 0.104557 0.132774 0.534793 -0.08735
C_ C_ 0.132193 0.177696 0.531746 -0.05681
C_ C_ 0.145153 0.194953 0.503465 0.18498
C_ C_ 0.157274 0.253745 0.998834 -0.08735
C_ C_ 0.186311 0.269074 0.523435 -0.08735
C_ C_ 0.176495 0.251924 0.551069 -0.08735
C_ C_ 0.145034 0.208846 0.555444 0.18498
C_ C_ 0.176063 0.173763 0.60103 0.44287
C_ C_ 0.0905565 0.204081 0.598208 0.44287
C_ C_ 0.0821757 0.188172 0.627373 -0.05681
C_ C_ 0.0333588 0.18906 0.639478 -0.08735
C_ C_ 0.0267431 0.176846 0.668648 -0.08735
C_ C_ 0.0673594 0.165128 0.686397 -0.05681
C_ C_ 0.11565 0.159395 0.673895 -0.05681
C_ C_ 0.123433 0.171463 0.643714 -0.05681
C_ C_ 0.173054 0.167329 0.631421 -0.05681
C_ C_ 0.213642 0.153117 0.649278 -0.08735
C_ C_ 0.206435 0.150622 0.678735 -0.08735
C_ C_ 0.157501 0.148301 0.690398 -0.05681
C_ C_ 0.149565 0.142493 0.719759 0.44287
C_ C_ 0.0611076 0.161078 0.715628 0.44287
C_ C_ 0.0956389 0.142824 0.762845 0.18498
C_ C_ 0.0688885 0.0990264 0.771691 -0.08735
C_ C_ 0.0594051 0.0887892 0.80124 -0.08735
C_ C_ 0.0771592 0.119716 0.8227 -0.08735
C_ C_ 0.101901 0.164276 0.815136 0.18498
C_ C_ 0.111913 0.176054 0.785604 -0.05681
C_ C_ 0.142905 0.218245 0.778735 -0.08735
C_ C_ 0.155984 0.250965 0.800633 -0.08735
C_ C_ 0.147186 0.235541 0.829451 0.1947
C_ C_ 0.268315 0.303403 0.654169 0.68181
C_ C_ 0.213824 0.308478 0.649083 -0.05681
C_ C_ 0.178658 0.294123 0.670585 -0.08735
C_ C_ 0.127063 0.305213 0.668181 -0.05681
C_ C_ 0.107341 0.318215 0.641089 -0.05681
C_ C_ 0.1405 0.326747 0.617862 -0.08735
C_ C_ 0.192584 0.324245 0.623037 -0.08735
C_ C_ 0.0934011 0.2973 0.690109 -0.08735
C_ C_ 0.0421145 0.297787 0.686589 -0.08735
C_ C_ 0.0228143 0.308202 0.659717 -0.05681
C_ C_ 0.0559085 0.318122 0.636903 -0.08735
C_ C_ 0.368554 0.208974 0.664811 0.68181
C_ C_ 0.370971 0.40557 0.649444 0.68181
C_ C_ 0.373357 0.461548 0.646707 -0.05681
C_ C_ 0.341307 -0.003927000000000014 0.671654 -0.08735
C_ C_ 0.350583 0.0485315 0.67023 -0.05681
C_ C_ 0.375095 0.0692696 0.646473 -0.05681
C_ C_ 0.388901 0.0389549 0.6224 -0.08735
C_ C_ 0.37128 0.486784 0.6207 -0.08735
C_ C_ 0.335017 0.0802266 0.692251 -0.08735
C_ C_ 0.347389 0.130375 0.691973 -0.08735
C_ C_ 0.37014 0.152835 0.668602 -0.05681
C_ C_ 0.38756 0.121076 0.645765 -0.08735
C_ C_ 0.466564 0.311915 0.659337 0.68181
C_ C_ 0.399154 0.361957 0.734067 0.1947
C_ C_ 0.410909 0.375137 0.760814 -0.08735
C_ C_ 0.387494 0.349908 0.783668 -0.08735
C_ C_ 0.350131 0.314426 0.779361 -0.05681
C_ C_ 0.340305 0.300945 0.750257 0.18498
C_ C_ 0.308345 0.260857 0.74392 -0.08735
C_ C_ 0.280407 0.237191 0.765621 -0.08735
C_ C_ 0.293422 0.248017 0.793842 -0.08735
C_ C_ 0.325526 0.289868 0.80193 0.18498
C_ C_ 0.297695 0.32836 0.848012 0.44287
C_ C_ 0.376629 0.286831 0.844496 0.44287
C_ C_ 0.3885 0.30094 0.872382 -0.05681
C_ C_ 0.436246 0.295453 0.884143 -0.08735
C_ C_ 0.448494 0.311405 0.912036 -0.08735
C_ C_ 0.407443 0.322418 0.931515 -0.05681
C_ C_ 0.360599 0.331941 0.919282 -0.05681
C_ C_ 0.350299 0.321752 0.890695 -0.05681
C_ C_ 0.303852 0.334647 0.87865 -0.05681
C_ C_ 0.265819 0.355649 0.894983 -0.08735
C_ C_ 0.275175 0.366398 0.92345 -0.08735
C_ C_ 0.319628 0.347921 0.936921 -0.05681
C_ C_ 0.32731 0.350413 0.966805 0.44287
C_ C_ 0.414514 0.331999 0.961055 0.44287
C_ C_ 0.379652 0.33533 0.511791 0.18498
C_ C_ 0.409765 0.376428 0.518464 -0.08735
C_ C_ 0.437427 0.377929 0.544146 -0.08735
C_ C_ 0.421533 0.34787 0.567141 -0.08735
C_ C_ 0.382796 0.314459 0.563884 0.18498
C_ C_ 0.362384 0.306066 0.535421 -0.05681
C_ C_ 0.331836 0.262772 0.53061 -0.08735
C_ C_ 0.316913 0.234222 0.554089 -0.08735
C_ C_ 0.329189 0.248108 0.581758 0.1947
N_ N_ 0.130018 0.172655 0.981465 -0.29468
N_ N_ 0.136968 0.194077 0.584905 -0.17154
N_ N_ 0.104187 0.15385 0.732956 -0.17154
N_ N_ 0.12436 0.191627 0.835938 -0.29468
N_ N_ 0.364988 0.326075 0.728441 -0.29468
N_ N_ 0.333929 0.30357 0.831806 -0.17154
N_ N_ 0.37416 0.34333 0.978111 -0.17154
N_ N_ 0.363204 0.287117 0.585409 -0.29468
O_ O_ 0.21 0.173644 0.93177 -0.58347
O_ O_ 0.202281 0.182379 0.885932 -0.58347
O_ O_ 0.130612 0.251019 0.935226 -0.58347
O_ O_ 0.125212 0.259761 0.890355 -0.58347
O_ O_ 0.136425 0.0968446 0.925353 -0.58347
O_ O_ 0.129128 0.106775 0.878895 -0.58347
O_ O_ 0.0624535 0.175584 0.9309 -0.58347
O_ O_ 0.0515822 0.178353 0.884411 -0.58347
O_ O_ 0.0509496 0.222514 0.584085 -0.46727
O_ O_ 0.219349 0.161864 0.587696 -0.46727
O_ O_ 0.0171177 0.170384 0.727544 -0.46727
O_ O_ 0.188549 0.130232 0.737019 -0.46727
O_ O_ 0.285371 0.308587 0.67972 -0.58347
O_ O_ 0.300532 0.30086 0.633074 -0.58347
O_ O_ 0.362963 0.237888 0.686187 -0.58347
O_ O_ 0.37725 0.226936 0.639743 -0.58347
O_ O_ 0.354591 0.386617 0.672647 -0.58347
O_ O_ 0.377716 0.377157 0.627741 -0.58347
O_ O_ 0.437043 0.320465 0.680483 -0.58347
O_ O_ 0.448508 0.299872 0.634145 -0.58347
O_ O_ 0.40512 0.255446 0.830483 -0.46727
O_ O_ 0.257321 0.347977 0.835683 -0.46727
O_ O_ 0.460475 0.332683 0.971393 -0.46727
O_ O_ 0.290876 0.368659 0.983947 -0.46727
Zn Zn 0.133647 0.687387 0.378044 0.90689
Zn Zn 0.147483 0.682167 0.4259 0.90689
Zn Zn 0.386604 0.818144 0.130348 0.90689
Zn Zn 0.375863 0.828934 0.178845 0.90689
H_ H_ 0.311165 0.706712 0.44002 0.11455
H_ H_ 0.379608 0.666163 0.345267 0.11455
H_ H_ 0.289296 0.674168 0.350947 0.11455
H_ H_ 0.399527 0.716722 0.457672 0.11455
H_ H_ 0.488741 0.711722 0.4492 0.11455
H_ H_ 0.468235 0.670417 0.364355 0.11455
H_ H_ 0.175531 0.516443 0.437954 0.11455
H_ H_ 0.0978109 0.94391 0.347599 0.11455
H_ H_ 0.134814 0.530162 0.34927 0.11455
H_ H_ 0.166104 0.930805 0.457338 0.11455
H_ H_ 0.148685 0.839802 0.455513 0.11455
H_ H_ 0.113456 0.85726 0.365057 0.11455
H_ H_ 0.0887217 0.603601 0.460772 0.11455
H_ H_ 0.0646406 0.579399 0.0158338 0.11455
H_ H_ 0.118456 0.620593 0.055465 0.11455
H_ H_ 0.211714 0.731484 0.470328 0.11455
H_ H_ 0.241897 0.788384 0.00879937 0.11455
H_ H_ 0.221763 0.77117 0.0569572 0.11455
H_ H_ 0.0149074 0.713406 0.119922 0.11455
H_ H_ 0.00719568 0.713 0.169671 0.11455
H_ H_ 0.269138 0.675045 0.139206 0.11455
H_ H_ 0.257247 0.665503 0.18891 0.11455
H_ H_ 0.0728507 0.583765 0.250171 0.11455
H_ H_ 0.0502164 0.56493 0.298096 0.11455
H_ H_ 0.0855694 0.620928 0.334714 0.11455
H_ H_ 0.160976 0.749594 0.253801 0.11455
H_ H_ 0.182738 0.802786 0.2938 0.11455
H_ H_ 0.180823 0.768491 0.343837 0.11455
H_ H_ 0.205131 0.815619 0.192905 0.11455
H_ H_ 0.141071 0.826104 0.0952197 0.11455
H_ H_ 0.231302 0.822353 0.102685 0.11455
H_ H_ 0.120961 0.806526 0.21024 0.11455
H_ H_ 0.0315475 0.815912 0.204311 0.11455
H_ H_ 0.0513 0.834932 0.112921 0.11455
H_ H_ 0.413714 0.990958 0.185199 0.11455
H_ H_ 0.333782 0.574162 0.101294 0.11455
H_ H_ 0.322065 0.976717 0.10813 0.11455
H_ H_ 0.396041 0.578194 0.212858 0.11455
H_ H_ 0.398998 0.671135 0.210714 0.11455
H_ H_ 0.36502 0.655312 0.119296 0.11455
H_ H_ 0.414226 0.905797 0.218883 0.11455
H_ H_ 0.425817 0.934282 0.266959 0.11455
H_ H_ 0.407002 0.873555 0.308118 0.11455
H_ H_ 0.311846 0.759756 0.223141 0.11455
H_ H_ 0.290293 0.699107 0.261985 0.11455
H_ H_ 0.333542 0.708629 0.308806 0.11455
H_ H_ 0.490844 0.804566 0.375812 0.11455
H_ H_ 0.498267 0.819189 0.427276 0.11455
H_ H_ 0.237439 0.848469 0.381646 0.11455
H_ H_ 0.248417 0.863425 0.43396 0.11455
H_ H_ 0.401687 0.923721 0.505346 0.11455
H_ H_ 0.452144 0.947342 0.0474192 0.11455
H_ H_ 0.433418 0.885585 0.0874895 0.11455
H_ H_ 0.340107 0.762722 0.0053282 0.11455
H_ H_ 0.322436 0.708012 0.0466582 0.11455
H_ H_ 0.335614 0.743272 0.0952911 0.11455
C_ C_ 0.237856 0.692523 0.399789 0.68181
C_ C_ 0.293887 0.694611 0.39577 -0.05681
C_ C_ 0.328456 0.700135 0.419554 -0.08735
C_ C_ 0.380583 0.692853 0.415515 -0.05681
C_ C_ 0.399684 0.675305 0.388956 -0.05681
C_ C_ 0.365498 0.670352 0.366152 -0.08735
C_ C_ 0.312703 0.67756 0.368911 -0.08735
C_ C_ 0.413685 0.699463 0.4381 -0.08735
C_ C_ 0.465538 0.697253 0.433508 -0.08735
C_ C_ 0.485638 0.681744 0.407567 -0.05681
C_ C_ 0.451546 0.673182 0.385127 -0.08735
C_ C_ 0.128413 0.783776 0.407971 0.68181
C_ C_ 0.147998 0.587486 0.397219 0.68181
C_ C_ 0.1482 0.531823 0.395111 -0.05681
C_ C_ 0.151099 1.00247577 0.416336 -0.08735
C_ C_ 0.144411 0.948656 0.413835 -0.05681
C_ C_ 0.126112 0.926049 0.389238 -0.05681
C_ C_ 0.112252 0.959778 0.36689 -0.08735
C_ C_ 0.113952 1.0123786 0.369284 -0.08735
C_ C_ 0.153485 0.916238 0.438277 -0.08735
C_ C_ 0.147423 0.863527 0.435593 -0.08735
C_ C_ 0.132688 0.840546 0.409281 -0.05681
C_ C_ 0.125971 0.872898 0.385383 -0.08735
C_ C_ 0.0445273 0.677472 0.4038 0.68181
C_ C_ 0.110388 0.621511 0.478252 0.1947
C_ C_ 0.0938277 0.608216 0.010966 -0.08735
C_ C_ 0.120779 0.63309 0.0333084 -0.08735
C_ C_ 0.149733 0.676985 0.0272019 -0.05681
C_ C_ 0.156162 0.691313 0.997906 0.18498
C_ C_ 0.194416 0.729012 0.491457 -0.08735
C_ C_ 0.215727 0.757564 0.0139221 -0.08735
C_ C_ 0.202175 0.748234 0.041814 -0.08735
C_ C_ 0.168371 0.708179 0.0491941 0.18498
C_ C_ 0.197556 0.691904 0.0972686 0.44287
C_ C_ 0.108347 0.701703 0.0903113 0.44287
C_ C_ 0.0982661 0.692292 0.120609 -0.05681
C_ C_ 0.0489711 0.700911 0.132433 -0.08735
C_ C_ 0.0427768 0.695756 0.162877 -0.08735
C_ C_ 0.0840241 0.688929 0.181234 -0.05681
C_ C_ 0.133661 0.683824 0.16864 -0.05681
C_ C_ 0.140128 0.686521 0.139659 -0.05681
C_ C_ 0.189682 0.686572 0.127531 -0.05681
C_ C_ 0.229318 0.679532 0.145614 -0.08735
C_ C_ 0.223964 0.671987 0.174847 -0.08735
C_ C_ 0.17519 0.671227 0.186837 -0.05681
C_ C_ 0.165017 0.664043 0.215617 0.44287
C_ C_ 0.0754698 0.681918 0.210688 0.44287
C_ C_ 0.10722 0.657393 0.257236 0.18498
C_ C_ 0.0786926 0.612379 0.264709 -0.08735
C_ C_ 0.071668 0.600422 0.29319 -0.08735
C_ C_ 0.0889249 0.633332 0.313379 -0.08735
C_ C_ 0.112622 0.679181 0.307503 0.18498
C_ C_ 0.125876 0.689003 0.279025 -0.05681
C_ C_ 0.149689 0.737697 0.275324 -0.08735
C_ C_ 0.160928 0.769386 0.299316 -0.08735
C_ C_ 0.160668 0.748062 0.326354 0.1947
C_ C_ 0.280761 0.81857 0.153301 0.68181
C_ C_ 0.225677 0.821809 0.148944 -0.05681
C_ C_ 0.192234 0.817289 0.171496 -0.08735
C_ C_ 0.136739 0.818422 0.166805 -0.05681
C_ C_ 0.119963 0.824461 0.138828 -0.05681
C_ C_ 0.155307 0.827138 0.116852 -0.08735
C_ C_ 0.206495 0.830105 0.121302 -0.08735
C_ C_ 0.105637 0.818346 0.190749 -0.08735
C_ C_ 0.0546904 0.819938 0.185549 -0.08735
C_ C_ 0.0330395 0.822992 0.15855 -0.05681
C_ C_ 0.0674226 0.828564 0.134381 -0.08735
C_ C_ 0.385385 0.726063 0.160437 0.68181
C_ C_ 0.376209 0.921093 0.147494 0.68181
C_ C_ 0.371309 0.975901 0.144657 -0.05681
C_ C_ 0.37405 0.512723 0.171645 -0.08735
C_ C_ 0.373301 0.563792 0.169698 -0.05681
C_ C_ 0.369349 0.586347 0.143411 -0.05681
C_ C_ 0.35027 0.557884 0.119825 -0.08735
C_ C_ 0.339677 -0.001515000000000044 0.124256 -0.08735
C_ C_ 0.388718 0.59476 0.19235 -0.08735
C_ C_ 0.395949 0.647331 0.190528 -0.08735
C_ C_ 0.388472 0.669333 0.163288 -0.05681
C_ C_ 0.377973 0.638789 0.139292 -0.08735
C_ C_ 0.478648 0.830169 0.158925 0.68181
C_ C_ 0.402532 0.881259 0.235528 0.1947
C_ C_ 0.409569 0.895221 0.264108 -0.08735
C_ C_ 0.392495 0.866161 0.286964 -0.08735
C_ C_ 0.364295 0.820651 0.280657 -0.05681
C_ C_ 0.352089 0.811458 0.251087 0.18498
C_ C_ 0.322686 0.768797 0.245284 -0.08735
C_ C_ 0.313421 0.732288 0.266831 -0.08735
C_ C_ 0.328416 0.740411 0.294886 -0.08735
C_ C_ 0.348948 0.786249 0.30265 0.18498
C_ C_ 0.312658 0.809383 0.347867 0.44287
C_ C_ 0.403778 0.794677 0.34537 0.44287
C_ C_ 0.408936 0.805524 0.374924 -0.05681
C_ C_ 0.455746 0.811039 0.387801 -0.08735
C_ C_ 0.460756 0.824417 0.417217 -0.08735
C_ C_ 0.417446 0.832467 0.433702 -0.05681
C_ C_ 0.368935 0.832135 0.419928 -0.05681
C_ C_ 0.363516 0.816287 0.391249 -0.05681
C_ C_ 0.317561 0.825147 0.376696 -0.05681
C_ C_ 0.273946 0.842565 0.392506 -0.08735
C_ C_ 0.278605 0.848331 0.422821 -0.08735
C_ C_ 0.325814 0.843468 0.436332 -0.05681
C_ C_ 0.330814 0.844329 0.467194 0.44287
C_ C_ 0.419118 0.832952 0.463865 0.44287
C_ C_ 0.388644 0.858081 0.00820074 0.18498
C_ C_ 0.414783 0.901961 0.0151788 -0.08735
C_ C_ 0.429144 0.914406 0.0426779 -0.08735
C_ C_ 0.423168 0.878266 0.0647751 -0.08735
C_ C_ 0.396696 0.834265 0.0599134 0.18498
C_ C_ 0.381558 0.821968 0.030743 -0.05681
C_ C_ 0.354502 0.776187 0.026564 -0.08735
C_ C_ 0.34347 0.744978 0.0499785 -0.08735
C_ C_ 0.354742 0.761388 0.0777599 0.1947
N_ N_ 0.136738 0.664779 0.474336 -0.29468
N_ N_ 0.15754 0.695792 0.0790921 -0.17154
N_ N_ 0.115826 0.667962 0.226943 -0.17154
N_ N_ 0.132904 0.704221 0.33061 -0.29468
N_ N_ 0.374765 0.838305 0.228914 -0.29468
N_ N_ 0.355908 0.796432 0.332667 -0.17154
N_ N_ 0.377018 0.838505 0.480027 -0.17154
N_ N_ 0.382594 0.803965 0.0820141 -0.29468
O_ O_ 0.221969 0.682111 0.424564 -0.58347
O_ O_ 0.207733 0.699663 0.378391 -0.58347
O_ O_ 0.147832 0.758137 0.428068 -0.58347
O_ O_ 0.12034 0.762528 0.384008 -0.58347
O_ O_ 0.148804 0.607036 0.421631 -0.58347
O_ O_ 0.145323 0.614423 0.375352 -0.58347
O_ O_ 0.0711535 0.674937 0.425709 -0.58347
O_ O_ 0.0647016 0.673801 0.379384 -0.58347
O_ O_ 0.0715218 0.717242 0.0737203 -0.46727
O_ O_ 0.243575 0.680429 0.0875084 -0.46727
O_ O_ 0.0355574 0.699979 0.222836 -0.46727
O_ O_ 0.201148 0.64855 0.232449 -0.46727
O_ O_ 0.300378 0.823544 0.178204 -0.58347
O_ O_ 0.309327 0.814893 0.130831 -0.58347
O_ O_ 0.371531 0.7534 0.179691 -0.58347
O_ O_ 0.394365 0.744222 0.136451 -0.58347
O_ O_ 0.374584 0.900045 0.172777 -0.58347
O_ O_ 0.383807 0.893148 0.126557 -0.58347
O_ O_ 0.451028 0.83618 0.180887 -0.58347
O_ O_ 0.45897 0.82607 0.134717 -0.58347
O_ O_ 0.44419 0.783059 0.330684 -0.46727
O_ O_ 0.266966 0.804814 0.33751 -0.46727
O_ O_ 0.459518 0.817824 0.476104 -0.46727
O_ O_ 0.291586 0.857651 0.484053 -0.46727
Zn Zn 0.129313 0.682559 0.881946 0.90689
Zn Zn 0.13864 0.675549 0.929463 0.90689
Zn Zn 0.367442 0.804009 0.632072 0.90689
Zn Zn 0.359069 0.810179 0.679299 0.90689
H_ H_ 0.310042 0.684701 0.944844 0.11455
H_ H_ 0.376951 0.670554 0.845837 0.11455
H_ H_ 0.287733 0.653687 0.856681 0.11455
H_ H_ 0.397361 0.685699 0.963249 0.11455
H_ H_ 0.486951 0.690461 0.955371 0.11455
H_ H_ 0.463241 0.678237 0.864808 0.11455
H_ H_ 0.119344 0.511485 0.940816 0.11455
H_ H_ 0.0914867 0.928066 0.851541 0.11455
H_ H_ 0.146448 0.518035 0.849931 0.11455
H_ H_ 0.152733 0.922216 0.963605 0.11455
H_ H_ 0.151066 0.833015 0.957651 0.11455
H_ H_ 0.102098 0.849071 0.872521 0.11455
H_ H_ 0.0758436 0.612004 0.966356 0.11455
H_ H_ 0.0923286 0.563567 0.508233 0.11455
H_ H_ 0.10663 0.617921 0.550249 0.11455
H_ H_ 0.208359 0.73181 0.970311 0.11455
H_ H_ 0.235434 0.790772 0.511442 0.11455
H_ H_ 0.203384 0.772629 0.561021 0.11455
H_ H_ 1.0136088 0.700317 0.618592 0.11455
H_ H_ 1.00506504 0.706169 0.670975 0.11455
H_ H_ 0.264093 0.671086 0.63562 0.11455
H_ H_ 0.250835 0.662188 0.686862 0.11455
H_ H_ 0.0714708 0.594705 0.746357 0.11455
H_ H_ 0.0578245 0.567904 0.794461 0.11455
H_ H_ 0.0712378 0.621474 0.836008 0.11455
H_ H_ 0.155879 0.761472 0.761782 0.11455
H_ H_ 0.210938 0.783324 0.800346 0.11455
H_ H_ 0.198137 0.749244 0.84643 0.11455
H_ H_ 0.191606 0.790237 0.69753 0.11455
H_ H_ 0.12362 0.837988 0.601325 0.11455
H_ H_ 0.214266 0.819065 0.604692 0.11455
H_ H_ 0.102965 0.805616 0.716936 0.11455
H_ H_ 0.0109062 0.799905 0.704618 0.11455
H_ H_ 0.0377697 0.831685 0.616866 0.11455
H_ H_ 0.330948 0.979724 0.691757 0.11455
H_ H_ 0.360733 0.558539 0.597727 0.11455
H_ H_ 0.382829 0.966881 0.602917 0.11455
H_ H_ 0.379946 0.556851 0.715263 0.11455
H_ H_ 0.389627 0.65136 0.71092 0.11455
H_ H_ 0.363508 0.642195 0.621002 0.11455
H_ H_ 0.420177 0.875114 0.713871 0.11455
H_ H_ 0.452518 0.888517 0.762808 0.11455
H_ H_ 0.391354 0.869531 0.803102 0.11455
H_ H_ 0.303937 0.737765 0.723461 0.11455
H_ H_ 0.275851 0.687543 0.764083 0.11455
H_ H_ 0.301421 0.713588 0.814548 0.11455
H_ H_ 0.489562 0.784963 0.873773 0.11455
H_ H_ 0.503045 0.810455 0.923372 0.11455
H_ H_ 0.238917 0.841149 0.883184 0.11455
H_ H_ 0.251558 0.859846 0.931679 0.11455
H_ H_ 0.429164 0.924553 0.996649 0.11455
H_ H_ 0.438032 0.935474 0.555084 0.11455
H_ H_ 0.421091 0.86958 0.589302 0.11455
H_ H_ 0.338925 0.752481 0.503209 0.11455
H_ H_ 0.304803 0.694986 0.543217 0.11455
H_ H_ 0.321413 0.717452 0.593549 0.11455
C_ C_ 0.234838 0.676418 0.906991 0.68181
C_ C_ 0.290509 0.675561 0.901817 -0.05681
C_ C_ 0.325457 0.683782 0.924012 -0.08735
C_ C_ 0.37795 0.682147 0.919146 -0.05681
C_ C_ 0.396432 0.681792 0.89049 -0.05681
C_ C_ 0.362581 0.677732 0.867967 -0.08735
C_ C_ 0.309239 0.672263 0.873861 -0.08735
C_ C_ 0.410438 0.683081 0.942422 -0.08735
C_ C_ 0.462785 0.683277 0.937342 -0.08735
C_ C_ 0.481877 0.681922 0.909693 -0.05681
C_ C_ 0.449511 0.679456 0.88614 -0.08735
C_ C_ 0.132825 0.776057 0.911293 0.68181
C_ C_ 0.139195 0.579234 0.898031 0.68181
C_ C_ 0.1368 0.523812 0.895959 -0.05681
C_ C_ 0.149008 0.993058 0.921677 -0.08735
C_ C_ 0.141909 0.938608 0.919216 -0.05681
C_ C_ 0.131201 0.917984 0.891814 -0.05681
C_ C_ 0.111158 0.94743 0.870256 -0.08735
C_ C_ 0.108384 -0.0005380000000000384 0.873562 -0.08735
C_ C_ 0.151058 0.906759 0.942293 -0.08735
C_ C_ 0.140482 0.854883 0.940107 -0.08735
C_ C_ 0.131922 0.832503 0.913011 -0.05681
C_ C_ 0.126073 0.863511 0.889127 -0.08735
C_ C_ 0.0359449 0.677962 0.904519 0.68181
C_ C_ 0.0993288 0.627134 0.983271 0.1947
C_ C_ 0.109609 0.60086 0.505073 -0.08735
C_ C_ 0.122274 0.63033 0.529417 -0.08735
C_ C_ 0.147544 0.675612 0.525225 -0.05681
C_ C_ 0.159876 0.689954 0.49665 0.18498
C_ C_ 0.196152 0.726192 0.992363 -0.08735
C_ C_ 0.205382 0.762445 0.514258 -0.08735
C_ C_ 0.188862 0.751865 0.542561 -0.08735
C_ C_ 0.161272 0.708327 0.548422 0.18498
C_ C_ 0.193109 0.685731 0.595178 0.44287
C_ C_ 0.105262 0.697638 0.589649 0.44287
C_ C_ 0.0972002 0.693022 0.619597 -0.05681
C_ C_ 0.0464668 0.697553 0.631736 -0.08735
C_ C_ 0.0413966 0.6989 0.662188 -0.08735
C_ C_ 0.081703 0.686926 0.680581 -0.05681
C_ C_ 0.131113 0.682812 0.668846 -0.05681
C_ C_ 0.137515 0.685432 0.637647 -0.05681
C_ C_ 0.186513 0.682583 0.626507 -0.05681
C_ C_ 0.228784 0.678584 0.645018 -0.08735
C_ C_ 0.222254 0.67327 0.674246 -0.08735
C_ C_ 0.172672 0.676758 0.687065 -0.05681
C_ C_ 0.163568 0.67452 0.716696 0.44287
C_ C_ 0.0753374 0.691759 0.710807 0.44287
C_ C_ 0.106979 0.667355 0.758659 0.18498
C_ C_ 0.0785687 0.621769 0.763713 -0.08735
C_ C_ 0.0700807 0.606317 0.790806 -0.08735
C_ C_ 0.0831505 0.631684 0.81427 -0.08735
C_ C_ 0.112698 0.675809 0.811258 0.18498
C_ C_ 0.123688 0.694963 0.782405 -0.05681
C_ C_ 0.149517 0.743204 0.781057 -0.08735
C_ C_ 0.179172 0.758854 0.803613 -0.08735
C_ C_ 0.177185 0.733551 0.82936 0.1947
C_ C_ 0.266715 0.797429 0.654791 0.68181
C_ C_ 0.210131 0.802216 0.651718 -0.05681
C_ C_ 0.1767 0.80381 0.675901 -0.08735
C_ C_ 0.123033 0.81209 0.672331 -0.05681
C_ C_ 0.104775 0.824526 0.644628 -0.05681
C_ C_ 0.139447 0.824568 0.621036 -0.08735
C_ C_ 0.189492 0.813228 0.624307 -0.08735
C_ C_ 0.0889383 0.812707 0.695371 -0.08735
C_ C_ 0.0364598 0.818411 0.69063 -0.08735
C_ C_ 0.0186348 0.823362 0.662115 -0.05681
C_ C_ 0.0513959 0.82747 0.638499 -0.08735
C_ C_ 0.374279 0.708949 0.661382 0.68181
C_ C_ 0.353787 0.907016 0.651916 0.68181
C_ C_ 0.359378 0.963941 0.649818 -0.05681
C_ C_ 0.374213 0.493022 0.67263 -0.08735
C_ C_ 0.370583 0.546694 0.670009 -0.05681
C_ C_ 0.370789 0.570066 0.642562 -0.05681
C_ C_ 0.366796 0.5402 0.618417 -0.08735
C_ C_ 0.377059 0.988647 0.62319 -0.08735
C_ C_ 0.374165 0.576103 0.695405 -0.08735
C_ C_ 0.376824 0.62861 0.692484 -0.08735
C_ C_ 0.371644 0.652949 0.665506 -0.05681
C_ C_ 0.367956 0.622403 0.640881 -0.08735
C_ C_ 0.464655 0.808286 0.657106 0.68181
C_ C_ 0.40309 0.854643 0.73186 0.1947
C_ C_ 0.418778 0.866678 0.760617 -0.08735
C_ C_ 0.393264 0.846514 0.783866 -0.08735
C_ C_ 0.362464 0.804798 0.778416 -0.05681
C_ C_ 0.348676 0.79127 0.749953 0.18498
C_ C_ 0.315198 0.749711 0.745273 -0.08735
C_ C_ 0.299526 0.720984 0.768376 -0.08735
C_ C_ 0.314258 0.735448 0.796882 -0.08735
C_ C_ 0.3457 0.777195 0.801772 0.18498
C_ C_ 0.315248 0.807067 0.846806 0.44287
C_ C_ 0.400338 0.786115 0.843238 0.44287
C_ C_ 0.410276 0.800278 0.872444 -0.05681
C_ C_ 0.4586 0.802609 0.88526 -0.08735
C_ C_ 0.463379 0.811699 0.91454 -0.08735
C_ C_ 0.420292 0.825023 0.932251 -0.05681
C_ C_ 0.372192 0.829452 0.918731 -0.05681
C_ C_ 0.36735 0.810593 0.890167 -0.05681
C_ C_ 0.319051 0.816186 0.876826 -0.05681
C_ C_ 0.277987 0.835293 0.891772 -0.08735
C_ C_ 0.282362 0.842185 0.921517 -0.08735
C_ C_ 0.329163 0.840069 0.93509 -0.05681
C_ C_ 0.336438 0.850771 0.96506 0.44287
C_ C_ 0.423823 0.835525 0.961333 0.44287
C_ C_ 0.383435 0.846139 0.510832 0.18498
C_ C_ 0.399232 0.895149 0.520539 -0.08735
C_ C_ 0.413937 0.902444 0.548603 -0.08735
C_ C_ 0.406456 0.864296 0.5686 -0.08735
C_ C_ 0.378849 0.821019 0.562039 0.18498
C_ C_ 0.371187 0.809078 0.532883 -0.05681
C_ C_ 0.343996 0.764209 0.525929 -0.08735
C_ C_ 0.325405 0.731251 0.548192 -0.08735
C_ C_ 0.331954 0.746006 0.576873 0.1947
N_ N_ 0.133333 0.66398 0.976435 -0.29468
N_ N_ 0.153044 0.692879 0.577282 -0.17154
N_ N_ 0.116737 0.684706 0.729244 -0.17154
N_ N_ 0.140847 0.696339 0.833729 -0.29468
N_ N_ 0.36578 0.820306 0.728092 -0.29468
N_ N_ 0.354743 0.790262 0.831615 -0.17154
N_ N_ 0.382598 0.845859 0.97813 -0.17154
N_ N_ 0.361229 0.789459 0.583747 -0.29468
O_ O_ 0.213821 0.678526 0.931853 -0.58347
O_ O_ 0.206892 0.681161 0.884299 -0.58347
O_ O_ 0.143033 0.750539 0.932505 -0.58347
O_ O_ 0.130819 0.754657 0.88774 -0.58347
O_ O_ 0.136608 0.600375 0.922628 -0.58347
O_ O_ 0.132055 0.606416 0.875755 -0.58347
O_ O_ 0.0645862 0.675191 0.925889 -0.58347
O_ O_ 0.0552237 0.679113 0.880126 -0.58347
O_ O_ 0.0662243 0.710748 0.573602 -0.46727
O_ O_ 0.238305 0.681156 0.585173 -0.46727
O_ O_ 0.0315828 0.698936 0.722321 -0.46727
O_ O_ 0.199738 0.663495 0.733696 -0.46727
O_ O_ 0.287057 0.801916 0.679446 -0.58347
O_ O_ 0.293569 0.790526 0.633296 -0.58347
O_ O_ 0.366374 0.739101 0.682737 -0.58347
O_ O_ 0.377398 0.729319 0.636653 -0.58347
O_ O_ 0.355844 0.885466 0.676684 -0.58347
O_ O_ 0.358512 0.881972 0.627864 -0.58347
O_ O_ 0.435464 0.813805 0.67891 -0.58347
O_ O_ 0.444262 0.805386 0.632251 -0.58347
O_ O_ 0.440441 0.776385 0.825405 -0.46727
O_ O_ 0.272801 0.816856 0.833133 -0.46727
O_ O_ 0.468823 0.834435 0.973325 -0.46727
O_ O_ 0.297449 0.863183 0.981975 -0.46727
Zn Zn 0.621652 0.180935 0.383385 0.90689
Zn Zn 0.630678 0.175452 0.431093 0.90689
Zn Zn 0.864069 0.329232 0.13345 0.90689
Zn Zn 0.86057 0.33116 0.180339 0.90689
H_ H_ 0.796194 0.190615 0.447958 0.11455
H_ H_ 0.866038 0.157835 0.34986 0.11455
H_ H_ 0.772965 0.162255 0.355623 0.11455
H_ H_ 0.880835 0.173922 0.468553 0.11455
H_ H_ 0.977619 0.175411 0.460199 0.11455
H_ H_ 0.955289 0.171006 0.370988 0.11455
H_ H_ 0.643483 0.0111456 0.446363 0.11455
H_ H_ 0.634987 0.431063 0.344166 0.11455
H_ H_ 0.633435 0.0247007 0.353423 0.11455
H_ H_ 0.641368 0.425663 0.465451 0.11455
H_ H_ 0.614686 0.335188 0.459882 0.11455
H_ H_ 0.631171 0.345007 0.371282 0.11455
H_ H_ 0.57057 0.106853 0.472208 0.11455
H_ H_ 0.57696 0.0709101 0.0142135 0.11455
H_ H_ 0.584368 0.135576 0.0539267 0.11455
H_ H_ 0.700257 0.232496 0.474473 0.11455
H_ H_ 0.720167 0.305008 0.0177006 0.11455
H_ H_ 0.694368 0.282181 0.0647235 0.11455
H_ H_ 0.510627 0.213346 0.124663 0.11455
H_ H_ 0.499266 0.193996 0.176729 0.11455
H_ H_ 0.758162 0.161203 0.138464 0.11455
H_ H_ 0.751134 0.155598 0.191103 0.11455
H_ H_ 0.556205 0.0947486 0.251036 0.11455
H_ H_ 0.539808 0.0659784 0.300154 0.11455
H_ H_ 0.567876 0.118625 0.340388 0.11455
H_ H_ 0.644397 0.255736 0.263014 0.11455
H_ H_ 0.69225 0.292533 0.303915 0.11455
H_ H_ 0.680111 0.257233 0.350077 0.11455
H_ H_ 0.688157 0.303469 0.197468 0.11455
H_ H_ 0.618909 0.316704 0.100368 0.11455
H_ H_ 0.709503 0.314209 0.107449 0.11455
H_ H_ 0.600545 0.31934 0.217276 0.11455
H_ H_ 0.509806 0.323237 0.207991 0.11455
H_ H_ 0.532004 0.322761 0.118574 0.11455
H_ H_ 0.853161 0.500357 0.197729 0.11455
H_ H_ 0.90286 0.0741488 0.102078 0.11455
H_ H_ 0.856539 0.484057 0.104859 0.11455
H_ H_ 0.842648 0.0806493 0.216721 0.11455
H_ H_ 0.834138 0.17159 0.209261 0.11455
H_ H_ 0.899936 0.15937 0.124396 0.11455
H_ H_ 0.907423 0.411548 0.22237 0.11455
H_ H_ 0.93755 0.423212 0.271746 0.11455
H_ H_ 0.91055 0.366491 0.307877 0.11455
H_ H_ 0.803752 0.26528 0.223886 0.11455
H_ H_ 0.790803 0.199462 0.256317 0.11455
H_ H_ 0.799384 0.217554 0.309673 0.11455
H_ H_ 0.992403 0.303303 0.370386 0.11455
H_ H_ 0.00554094 0.310654 0.42301 0.11455
H_ H_ 0.740379 0.317952 0.388487 0.11455
H_ H_ 0.751622 0.323109 0.441639 0.11455
H_ H_ 0.949058 0.387949 0.497582 0.11455
H_ H_ 0.965838 0.436641 0.0495263 0.11455
H_ H_ 0.923424 0.391164 0.0891996 0.11455
H_ H_ 0.836832 0.268577 0.00786555 0.11455
H_ H_ 0.788897 0.227611 0.051953 0.11455
H_ H_ 0.812848 0.253412 0.0979102 0.11455
C_ C_ 0.725367 0.177776 0.406079 0.68181
C_ C_ 0.782277 0.174491 0.402453 -0.05681
C_ C_ 0.812974 0.181409 0.426238 -0.08735
C_ C_ 0.866572 0.173298 0.423694 -0.05681
C_ C_ 0.88801 0.169438 0.396055 -0.05681
C_ C_ 0.854518 0.164734 0.37094 -0.08735
C_ C_ 0.801758 0.166239 0.374929 -0.08735
C_ C_ 0.898742 0.174468 0.446838 -0.08735
C_ C_ 0.953555 0.177602 0.442088 -0.08735
C_ C_ 0.974084 0.17434 0.414538 -0.05681
C_ C_ 0.940482 0.171291 0.391748 -0.08735
C_ C_ 0.62169 0.277954 0.412369 0.68181
C_ C_ 0.629724 0.0799353 0.401845 0.68181
C_ C_ 0.635457 0.0245502 0.39955 -0.05681
C_ C_ 0.645575 0.492939 0.420417 -0.08735
C_ C_ 0.64264 0.440223 0.418895 -0.05681
C_ C_ 0.640821 0.417651 0.391455 -0.05681
C_ C_ 0.641 0.447919 0.366184 -0.08735
C_ C_ 0.641549 0.500338 0.368771 -0.08735
C_ C_ 0.633899 0.410704 0.444163 -0.08735
C_ C_ 0.623242 0.359187 0.441228 -0.08735
C_ C_ 0.625035 0.334772 0.41474 -0.05681
C_ C_ 0.629713 0.3653 0.390108 -0.08735
C_ C_ 0.529543 0.177147 0.407417 0.68181
C_ C_ 0.591286 0.12695 0.488707 0.1947
C_ C_ 0.596439 0.106584 0.0120926 -0.08735
C_ C_ 0.610083 0.136933 0.0354186 -0.08735
C_ C_ 0.639773 0.181352 0.0307848 -0.05681
C_ C_ 0.651497 0.195332 1.00284986 0.18498
C_ C_ 0.688922 0.22517 0.495594 -0.08735
C_ C_ 0.690847 0.274859 0.0202841 -0.08735
C_ C_ 0.68304 0.256364 0.048098 -0.08735
C_ C_ 0.653757 0.214584 0.0540362 0.18498
C_ C_ 0.687622 0.194682 0.101729 0.44287
C_ C_ 0.600129 0.204327 0.0967468 0.44287
C_ C_ 0.589992 0.193092 0.126053 -0.05681
C_ C_ 0.541494 0.198095 0.137515 -0.08735
C_ C_ 0.535186 0.190447 0.167325 -0.08735
C_ C_ 0.578654 0.184358 0.185531 -0.05681
C_ C_ 0.626301 0.179211 0.1736 -0.05681
C_ C_ 0.633213 0.182314 0.142966 -0.05681
C_ C_ 0.68131 0.182348 0.130322 -0.05681
C_ C_ 0.721249 0.171937 0.147428 -0.08735
C_ C_ 0.717091 0.163112 0.176859 -0.08735
C_ C_ 0.668375 0.167536 0.190425 -0.05681
C_ C_ 0.661108 0.165024 0.220696 0.44287
C_ C_ 0.572224 0.184203 0.215234 0.44287
C_ C_ 0.601665 0.159177 0.262424 0.18498
C_ C_ 0.576881 0.113763 0.267845 -0.08735
C_ C_ 0.566341 0.0966297 0.296206 -0.08735
C_ C_ 0.58165 0.126225 0.319938 -0.08735
C_ C_ 0.612122 0.170839 0.314717 0.18498
C_ C_ 0.620971 0.188316 0.286237 -0.05681
C_ C_ 0.645477 0.23482 0.281381 -0.08735
C_ C_ 0.670063 0.256219 0.305328 -0.08735
C_ C_ 0.661539 0.237387 0.332616 0.1947
C_ C_ 0.763386 0.32681 0.156013 0.68181
C_ C_ 0.706489 0.320449 0.153585 -0.05681
C_ C_ 0.674064 0.309617 0.17603 -0.08735
C_ C_ 0.621207 0.311802 0.172893 -0.05681
C_ C_ 0.600931 0.317473 0.144903 -0.05681
C_ C_ 0.63328 0.321257 0.120777 -0.08735
C_ C_ 0.68508 0.318544 0.12551 -0.08735
C_ C_ 0.586703 0.312609 0.196053 -0.08735
C_ C_ 0.534601 0.320735 0.190971 -0.08735
C_ C_ 0.51478 0.320769 0.163341 -0.05681
C_ C_ 0.547463 0.317223 0.14067 -0.08735
C_ C_ 0.863869 0.229321 0.164216 0.68181
C_ C_ 0.862237 0.426109 0.152387 0.68181
C_ C_ 0.861163 0.483319 0.15077 -0.05681
C_ C_ 0.867996 0.0127794 0.174921 -0.08735
C_ C_ 0.869726 0.0679161 0.172647 -0.05681
C_ C_ 0.879059 0.0905442 0.146601 -0.05681
C_ C_ 0.88874 0.0595811 0.122279 -0.08735
C_ C_ 0.86027 0.506917 0.123798 -0.08735
C_ C_ 0.856908 0.0993045 0.196294 -0.08735
C_ C_ 0.854019 0.150916 0.192997 -0.08735
C_ C_ 0.868759 0.173957 0.167059 -0.05681
C_ C_ 0.887096 0.14277 0.143965 -0.08735
C_ C_ 0.959294 0.32612 0.158161 0.68181
C_ C_ 0.898666 0.380939 0.236765 0.1947
C_ C_ 0.909804 0.392203 0.265633 -0.08735
C_ C_ 0.893701 0.359185 0.286478 -0.08735
C_ C_ 0.864492 0.317546 0.280058 -0.05681
C_ C_ 0.852447 0.308658 0.250605 0.18498
C_ C_ 0.817284 0.270317 0.24445 -0.08735
C_ C_ 0.804738 0.234981 0.264414 -0.08735
C_ C_ 0.811638 0.245408 0.293549 -0.08735
C_ C_ 0.842822 0.286267 0.302004 0.18498
C_ C_ 0.814058 0.302022 0.35001 0.44287
C_ C_ 0.901922 0.29037 0.343709 0.44287
C_ C_ 0.910377 0.296187 0.372576 -0.05681
C_ C_ 0.960482 0.301298 0.38434 -0.08735
C_ C_ 0.966273 0.305633 0.413989 -0.08735
C_ C_ 0.92372 0.301807 0.433075 -0.05681
C_ C_ 0.875339 0.300862 0.421422 -0.05681
C_ C_ 0.867745 0.296154 0.391282 -0.05681
C_ C_ 0.817751 0.302951 0.380061 -0.05681
C_ C_ 0.776226 0.311867 0.398527 -0.08735
C_ C_ 0.784273 0.318098 0.427798 -0.08735
C_ C_ 0.834153 0.312397 0.438882 -0.05681
C_ C_ 0.841097 0.323634 0.467469 0.44287
C_ C_ 0.928374 0.30638 0.462545 0.44287
C_ C_ 0.886928 0.35666 0.00974327 0.18498
C_ C_ 0.924461 0.392696 0.0160547 -0.08735
C_ C_ 0.941077 0.403569 0.0445315 -0.08735
C_ C_ 0.912216 0.383612 0.06674 -0.08735
C_ C_ 0.878002 0.343666 0.0620412 0.18498
C_ C_ 0.864606 0.330614 0.0339821 -0.05681
C_ C_ 0.838028 0.284849 0.0296966 -0.08735
C_ C_ 0.818107 0.259623 0.0531993 -0.08735
C_ C_ 0.83105 0.274016 0.0815472 0.1947
N_ N_ 0.625163 0.161904 0.481319 -0.29468
N_ N_ 0.647317 0.201295 0.0852052 -0.17154
N_ N_ 0.612664 0.173156 0.232327 -0.17154
N_ N_ 0.630506 0.1976 0.336803 -0.29468
N_ N_ 0.867824 0.340746 0.230015 -0.29468
N_ N_ 0.854552 0.292287 0.332404 -0.17154
N_ N_ 0.887477 0.316738 0.479482 -0.17154
N_ N_ 0.859733 0.315377 0.0858001 -0.29468
O_ O_ 0.705966 0.162523 0.428137 -0.58347
O_ O_ 0.698873 0.197038 0.386318 -0.58347
O_ O_ 0.638642 0.250483 0.43241 -0.58347
O_ O_ 0.608435 0.255338 0.389262 -0.58347
O_ O_ 0.617005 0.101222 0.426344 -0.58347
O_ O_ 0.633034 0.108039 0.379447 -0.58347
O_ O_ 0.558651 0.183893 0.428523 -0.58347
O_ O_ 0.549651 0.173021 0.383112 -0.58347
O_ O_ 0.560509 0.217089 0.080456 -0.46727
O_ O_ 0.732561 0.189976 0.0899121 -0.46727
O_ O_ 0.525932 0.192193 0.226397 -0.46727
O_ O_ 0.700303 0.158521 0.238185 -0.46727
O_ O_ 0.785317 0.320155 0.179523 -0.58347
O_ O_ 0.78967 0.32651 0.133693 -0.58347
O_ O_ 0.863361 0.253597 0.186956 -0.58347
O_ O_ 0.865742 0.252489 0.140468 -0.58347
O_ O_ 0.855961 0.406441 0.176846 -0.58347
O_ O_ 0.860216 0.399381 0.129817 -0.58347
O_ O_ 0.934405 0.336388 0.180613 -0.58347
O_ O_ 0.940914 0.33386 0.13424 -0.58347
O_ O_ 0.939172 0.279675 0.326211 -0.46727
O_ O_ 0.767142 0.300495 0.338966 -0.46727
O_ O_ 0.972633 0.303329 0.475055 -0.46727
O_ O_ 0.800982 0.331556 0.484467 -0.46727
Zn Zn 0.622149 0.192963 0.882878 0.90689
Zn Zn 0.634022 0.185536 0.93008 0.90689
Zn Zn 0.871889 0.308709 0.630225 0.90689
Zn Zn 0.865056 0.311897 0.679027 0.90689
H_ H_ 0.804186 0.220438 0.943391 0.11455
H_ H_ 0.871317 0.156107 0.852854 0.11455
H_ H_ 0.781288 0.170972 0.857412 0.11455
H_ H_ 0.88947 0.209784 0.96719 0.11455
H_ H_ 0.979016 0.20778 0.959334 0.11455
H_ H_ 0.957631 0.168848 0.870124 0.11455
H_ H_ 0.620072 0.0199828 0.942208 0.11455
H_ H_ 0.598753 0.441193 0.848643 0.11455
H_ H_ 0.654482 0.0361544 0.851728 0.11455
H_ H_ 0.66012 0.431581 0.960585 0.11455
H_ H_ 0.64626 0.343203 0.958665 0.11455
H_ H_ 0.619292 0.355982 0.866787 0.11455
H_ H_ 0.58658 0.106591 0.966068 0.11455
H_ H_ 0.554515 0.0827196 0.520578 0.11455
H_ H_ 0.590098 0.13312 0.559647 0.11455
H_ H_ 0.68529 0.256451 0.976775 0.11455
H_ H_ 0.724395 0.291791 0.509681 0.11455
H_ H_ 0.709516 0.277699 0.560556 0.11455
H_ H_ 0.507719 0.210482 0.621305 0.11455
H_ H_ 0.491062 0.207974 0.672848 0.11455
H_ H_ 0.756768 0.183243 0.641594 0.11455
H_ H_ 0.741736 0.162517 0.692882 0.11455
H_ H_ 0.553826 0.086807 0.753007 0.11455
H_ H_ 0.526493 0.0753257 0.802185 0.11455
H_ H_ 0.556234 0.134258 0.840589 0.11455
H_ H_ 0.651812 0.244617 0.753103 0.11455
H_ H_ 0.691785 0.288534 0.791389 0.11455
H_ H_ 0.681885 0.260761 0.843594 0.11455
H_ H_ 0.694737 0.301172 0.698053 0.11455
H_ H_ 0.629493 0.31962 0.600734 0.11455
H_ H_ 0.716675 0.337226 0.611117 0.11455
H_ H_ 0.610435 0.302062 0.718256 0.11455
H_ H_ 0.525032 0.302579 0.710702 0.11455
H_ H_ 0.539919 0.324587 0.618389 0.11455
H_ H_ 0.855908 0.475168 0.69249 0.11455
H_ H_ 0.825006 0.0596795 0.60111 0.11455
H_ H_ 0.900354 0.461458 0.606201 0.11455
H_ H_ 0.867817 0.0609407 0.716946 0.11455
H_ H_ 0.880739 0.152545 0.712839 0.11455
H_ H_ 0.838373 0.13738 0.621636 0.11455
H_ H_ 0.926842 0.387215 0.714407 0.11455
H_ H_ 0.948322 0.413402 0.765594 0.11455
H_ H_ 0.912756 0.372141 0.805601 0.11455
H_ H_ 0.807556 0.256823 0.724182 0.11455
H_ H_ 0.766653 0.207385 0.764866 0.11455
H_ H_ 0.792369 0.23147 0.815379 0.11455
H_ H_ 0.983323 0.300285 0.873975 0.11455
H_ H_ -0.006836999999999982 0.308422 0.925627 0.11455
H_ H_ 0.739138 0.35587 0.886087 0.11455
H_ H_ 0.745339 0.354277 0.93488 0.11455
H_ H_ 0.946587 0.410884 0.998814 0.11455
H_ H_ 0.955537 0.422721 0.545739 0.11455
H_ H_ 0.921173 0.375579 0.587465 0.11455
H_ H_ 0.847094 0.235247 0.506609 0.11455
H_ H_ 0.813626 0.191154 0.547885 0.11455
H_ H_ 0.818815 0.231488 0.59609 0.11455
C_ C_ 0.728724 0.192814 0.906029 0.68181
C_ C_ 0.785471 0.19344 0.902047 -0.05681
C_ C_ 0.820713 0.20507 0.925274 -0.08735
C_ C_ 0.871789 0.19151 0.922909 -0.05681
C_ C_ 0.891997 0.178927 0.895596 -0.05681
C_ C_ 0.857789 0.171689 0.872801 -0.08735
C_ C_ 0.80601 0.177391 0.876034 -0.08735
C_ C_ 0.90556 0.198721 0.947201 -0.08735
C_ C_ 0.957359 0.19818 0.940769 -0.08735
C_ C_ 0.978156 0.182375 0.914042 -0.05681
C_ C_ 0.944226 0.177549 0.890967 -0.08735
C_ C_ 0.623487 0.28733 0.910014 0.68181
C_ C_ 0.634019 0.0915725 0.899844 0.68181
C_ C_ 0.637213 0.0351937 0.896847 -0.05681
C_ C_ 0.64598 0.501899 0.920862 -0.08735
C_ C_ 0.639882 0.447496 0.917077 -0.05681
C_ C_ 0.63042 0.426189 0.889991 -0.05681
C_ C_ 0.618166 0.457654 0.866922 -0.08735
C_ C_ 0.619321 0.510683 0.870972 -0.08735
C_ C_ 0.644945 0.416246 0.941198 -0.08735
C_ C_ 0.632135 0.364746 0.940611 -0.08735
C_ C_ 0.623938 0.342941 0.913324 -0.05681
C_ C_ 0.627208 0.372429 0.887975 -0.08735
C_ C_ 0.531814 0.188958 0.907516 0.68181
C_ C_ 0.602704 0.125969 0.984708 0.1947
C_ C_ 0.585548 0.111192 0.51623 -0.08735
C_ C_ 0.607682 0.138468 0.539003 -0.08735
C_ C_ 0.638487 0.181342 0.531796 -0.05681
C_ C_ 0.650826 0.188725 0.50226 0.18498
C_ C_ 0.67742 0.242598 0.997108 -0.08735
C_ C_ 0.700325 0.261636 0.516428 -0.08735
C_ C_ 0.69227 0.252767 0.544889 -0.08735
C_ C_ 0.655911 0.217339 0.552857 0.18498
C_ C_ 0.685019 0.200565 0.601306 0.44287
C_ C_ 0.597682 0.211322 0.594329 0.44287
C_ C_ 0.587382 0.200094 0.623738 -0.05681
C_ C_ 0.538686 0.203118 0.635229 -0.08735
C_ C_ 0.527895 0.199584 0.664391 -0.08735
C_ C_ 0.570605 0.187615 0.682888 -0.05681
C_ C_ 0.619973 0.187001 0.671612 -0.05681
C_ C_ 0.628145 0.192272 0.64235 -0.05681
C_ C_ 0.677106 0.192959 0.631114 -0.05681
C_ C_ 0.718152 0.184221 0.650399 -0.08735
C_ C_ 0.708349 0.173985 0.678857 -0.08735
C_ C_ 0.659574 0.176092 0.690145 -0.05681
C_ C_ 0.650269 0.166371 0.718963 0.44287
C_ C_ 0.562164 0.178749 0.71228 0.44287
C_ C_ 0.591728 0.156456 0.759805 0.18498
C_ C_ 0.565431 0.114062 0.768426 -0.08735
C_ C_ 0.547876 0.111062 0.796523 -0.08735
C_ C_ 0.567013 0.141274 0.817969 -0.08735
C_ C_ 0.600583 0.180581 0.810978 0.18498
C_ C_ 0.612378 0.189256 0.780737 -0.05681
C_ C_ 0.639056 0.236001 0.774848 -0.08735
C_ C_ 0.66513 0.259347 0.798058 -0.08735
C_ C_ 0.662217 0.240628 0.826165 0.1947
C_ C_ 0.770531 0.312342 0.655949 0.68181
C_ C_ 0.714369 0.313772 0.653413 -0.05681
C_ C_ 0.681494 0.313511 0.6773 -0.08735
C_ C_ 0.628682 0.31635 0.672975 -0.05681
C_ C_ 0.608365 0.32141 0.645031 -0.05681
C_ C_ 0.640994 0.320391 0.622425 -0.08735
C_ C_ 0.693305 0.325761 0.627589 -0.08735
C_ C_ 0.597261 0.313732 0.696762 -0.08735
C_ C_ 0.544896 0.312246 0.692019 -0.08735
C_ C_ 0.522705 0.31669 0.663314 -0.05681
C_ C_ 0.556446 0.321217 0.640217 -0.08735
C_ C_ 0.867541 0.210001 0.662719 0.68181
C_ C_ 0.869338 0.406147 0.650879 0.68181
C_ C_ 0.875719 0.462147 0.6501 -0.05681
C_ C_ 0.860921 -0.004634999999999945 0.672127 -0.08735
C_ C_ 0.856347 0.0476309 0.671379 -0.05681
C_ C_ 0.844929 0.070206 0.644707 -0.05681
C_ C_ 0.832737 0.0391572 0.620398 -0.08735
C_ C_ 0.889669 0.484986 0.623394 -0.08735
C_ C_ 0.868786 0.0762145 0.696312 -0.08735
C_ C_ 0.87058 0.130527 0.693731 -0.08735
C_ C_ 0.864801 0.153686 0.665529 -0.05681
C_ C_ 0.849829 0.122673 0.641611 -0.08735
C_ C_ 0.967786 0.309595 0.656125 0.68181
C_ C_ 0.910273 0.367062 0.732348 0.1947
C_ C_ 0.920529 0.384568 0.760929 -0.08735
C_ C_ 0.901864 0.357788 0.783954 -0.08735
C_ C_ 0.866977 0.316204 0.780154 -0.05681
C_ C_ 0.855716 0.301919 0.751234 0.18498
C_ C_ 0.817606 0.265125 0.746293 -0.08735
C_ C_ 0.793816 0.239598 0.76964 -0.08735
C_ C_ 0.806033 0.253528 0.798679 -0.08735
C_ C_ 0.843376 0.291827 0.803371 0.18498
C_ C_ 0.812085 0.331322 0.84758 0.44287
C_ C_ 0.895884 0.298473 0.845329 0.44287
C_ C_ 0.902827 0.31135 0.873398 -0.05681
C_ C_ 0.951278 0.30628 0.886003 -0.08735
C_ C_ 0.958419 0.314632 0.915421 -0.08735
C_ C_ 0.916219 0.327204 0.933112 -0.05681
C_ C_ 0.869222 0.336737 0.91984 -0.05681
C_ C_ 0.862884 0.330244 0.88926 -0.05681
C_ C_ 0.816929 0.343127 0.877255 -0.05681
C_ C_ 0.77764 0.359022 0.894732 -0.08735
C_ C_ 0.77839 0.354738 0.923394 -0.08735
C_ C_ 0.827237 0.346804 0.937477 -0.05681
C_ C_ 0.832031 0.35155 0.967727 0.44287
C_ C_ 0.916816 0.32452 0.963761 0.44287
C_ C_ 0.897275 0.328013 0.509218 0.18498
C_ C_ 0.927318 0.369652 0.514793 -0.08735
C_ C_ 0.933015 0.389697 0.542427 -0.08735
C_ C_ 0.913488 0.36148 0.56477 -0.08735
C_ C_ 0.890267 0.314204 0.560211 0.18498
C_ C_ 0.886232 0.293908 0.532217 -0.05681
C_ C_ 0.856545 0.248275 0.527975 -0.08735
C_ C_ 0.840491 0.222094 0.552858 -0.08735
C_ C_ 0.839218 0.247049 0.578844 0.1947
N_ N_ 0.631907 0.168317 0.980321 -0.29468
N_ N_ 0.645544 0.211664 0.583594 -0.17154
N_ N_ 0.601759 0.165105 0.729568 -0.17154
N_ N_ 0.626699 0.205343 0.833119 -0.29468
N_ N_ 0.8763 0.326447 0.728583 -0.29468
N_ N_ 0.850984 0.307936 0.832295 -0.17154
N_ N_ 0.877059 0.340995 0.980115 -0.17154
N_ N_ 0.867786 0.290167 0.582552 -0.29468
O_ O_ 0.709069 0.188453 0.930786 -0.58347
O_ O_ 0.699199 0.197995 0.883991 -0.58347
O_ O_ 0.630612 0.262177 0.932436 -0.58347
O_ O_ 0.617053 0.267317 0.885386 -0.58347
O_ O_ 0.642033 0.111475 0.924016 -0.58347
O_ O_ 0.629165 0.12018 0.878614 -0.58347
O_ O_ 0.559709 0.180968 0.928775 -0.58347
O_ O_ 0.549173 0.187868 0.881829 -0.58347
O_ O_ 0.56151 0.222405 0.577692 -0.46727
O_ O_ 0.732453 0.196373 0.592132 -0.46727
O_ O_ 0.518084 0.189477 0.723549 -0.46727
O_ O_ 0.685579 0.148038 0.735892 -0.46727
O_ O_ 0.791846 0.318518 0.679667 -0.58347
O_ O_ 0.797251 0.298742 0.634661 -0.58347
O_ O_ 0.862592 0.236501 0.685856 -0.58347
O_ O_ 0.879737 0.232315 0.639012 -0.58347
O_ O_ 0.869432 0.382402 0.674194 -0.58347
O_ O_ 0.862105 0.382605 0.62813 -0.58347
O_ O_ 0.939103 0.308657 0.678575 -0.58347
O_ O_ 0.9489 0.314513 0.631057 -0.58347
O_ O_ 0.934527 0.284207 0.82846 -0.46727
O_ O_ 0.765509 0.333806 0.836077 -0.46727
O_ O_ 0.956106 0.301861 0.976797 -0.46727
O_ O_ 0.792153 0.362845 0.984165 -0.46727
Zn Zn 0.634526 0.679801 0.380479 0.90689
Zn Zn 0.642808 0.677132 0.427445 0.90689
Zn Zn 0.88247 0.824333 0.131445 0.90689
Zn Zn 0.874768 0.829833 0.181488 0.90689
H_ H_ 0.815346 0.678885 0.442796 0.11455
H_ H_ 0.882876 0.688725 0.344944 0.11455
H_ H_ 0.787971 0.681237 0.35313 0.11455
H_ H_ 0.898748 0.678236 0.46287 0.11455
H_ H_ 0.991177 0.676156 0.453523 0.11455
H_ H_ 0.971297 0.681237 0.363825 0.11455
H_ H_ 0.638951 0.510605 0.441345 0.11455
H_ H_ 0.629518 0.93612 0.348167 0.11455
H_ H_ 0.64738 0.522436 0.349519 0.11455
H_ H_ 0.632583 0.923933 0.466909 0.11455
H_ H_ 0.619652 0.830225 0.460783 0.11455
H_ H_ 0.623764 0.849708 0.36801 0.11455
H_ H_ 0.572975 0.610814 0.46087 0.11455
H_ H_ 0.577327 0.58511 0.0184424 0.11455
H_ H_ 0.620474 0.630353 0.0568528 0.11455
H_ H_ 0.69839 0.734563 0.471919 0.11455
H_ H_ 0.737633 0.805258 0.00806704 0.11455
H_ H_ 0.718028 0.789151 0.0602751 0.11455
H_ H_ 0.522835 0.714161 0.121172 0.11455
H_ H_ 0.507859 0.69591 0.171191 0.11455
H_ H_ 0.774184 0.702174 0.142815 0.11455
H_ H_ 0.758766 0.672983 0.19271 0.11455
H_ H_ 0.562687 0.597929 0.246929 0.11455
H_ H_ 0.557467 0.565676 0.292763 0.11455
H_ H_ 0.591059 0.615122 0.335297 0.11455
H_ H_ 0.654367 0.759355 0.257609 0.11455
H_ H_ 0.684184 0.80308 0.301953 0.11455
H_ H_ 0.68771 0.756293 0.346629 0.11455
H_ H_ 0.706342 0.806473 0.194396 0.11455
H_ H_ 0.639439 0.858832 0.0974832 0.11455
H_ H_ 0.727078 0.854388 0.105498 0.11455
H_ H_ 0.622539 0.808512 0.213428 0.11455
H_ H_ 0.532384 0.803944 0.206079 0.11455
H_ H_ 0.550695 0.848785 0.117772 0.11455
H_ H_ 0.861016 0.994701 0.195199 0.11455
H_ H_ 0.874615 0.575747 0.0987159 0.11455
H_ H_ 0.903392 0.985018 0.107741 0.11455
H_ H_ 0.849025 0.585591 0.216254 0.11455
H_ H_ 0.872426 0.674271 0.21139 0.11455
H_ H_ 0.881046 0.656732 0.121436 0.11455
H_ H_ 0.924987 0.900354 0.216874 0.11455
H_ H_ 0.953272 0.917411 0.264219 0.11455
H_ H_ 0.904858 0.882525 0.305795 0.11455
H_ H_ 0.815891 0.761663 0.222923 0.11455
H_ H_ 0.77498 0.717868 0.263954 0.11455
H_ H_ 0.79338 0.739935 0.31111 0.11455
H_ H_ 0.983313 0.80312 0.373191 0.11455
H_ H_ -0.004197000000000006 0.811271 0.425706 0.11455
H_ H_ 0.735481 0.856056 0.387325 0.11455
H_ H_ 0.745585 0.859649 0.438738 0.11455
H_ H_ 0.946311 0.906052 0.505106 0.11455
H_ H_ 0.986387 0.917448 0.0472435 0.11455
H_ H_ 0.938316 0.880721 0.0867242 0.11455
H_ H_ 0.858159 0.750538 0.00902268 0.11455
H_ H_ 0.820356 0.70405 0.0502802 0.11455
H_ H_ 0.8221 0.749781 0.0983452 0.11455
C_ C_ 0.738003 0.683645 0.403027 0.68181
C_ C_ 0.793402 0.680652 0.398625 -0.05681
C_ C_ 0.828644 0.678947 0.421701 -0.08735
C_ C_ 0.881305 0.681001 0.41663 -0.05681
C_ C_ 0.901557 0.681872 0.389129 -0.05681
C_ C_ 0.867607 0.685734 0.366771 -0.08735
C_ C_ 0.813811 0.684192 0.371029 -0.08735
C_ C_ 0.914574 0.675667 0.439665 -0.08735
C_ C_ 0.96709 0.677031 0.435582 -0.08735
C_ C_ 0.987979 0.674811 0.407424 -0.05681
C_ C_ 0.953056 0.680406 0.384389 -0.08735
C_ C_ 0.633752 0.777125 0.411599 0.68181
C_ C_ 0.644357 0.580249 0.397904 0.68181
C_ C_ 0.64423 0.524808 0.395493 -0.05681
C_ C_ 0.639604 0.993798 0.424321 -0.08735
C_ C_ 0.633749 0.940419 0.421277 -0.05681
C_ C_ 0.625886 0.918465 0.393689 -0.05681
C_ C_ 0.629884 0.9504 0.370058 -0.08735
C_ C_ 0.630908 1.00257614 0.373039 -0.08735
C_ C_ 0.632043 0.9077 0.445595 -0.08735
C_ C_ 0.622789 0.855698 0.442264 -0.08735
C_ C_ 0.626548 0.83366 0.414622 -0.05681
C_ C_ 0.624881 0.864327 0.389851 -0.08735
C_ C_ 0.541742 0.677574 0.403735 0.68181
C_ C_ 0.596802 0.623395 0.477981 0.1947
C_ C_ 0.601859 0.61908 0.0143898 -0.08735
C_ C_ 0.626591 0.643898 0.0355319 -0.08735
C_ C_ 0.652739 0.689979 0.0298923 -0.05681
C_ C_ 0.658165 0.70349 0.999926 0.18498
C_ C_ 0.687094 0.726054 0.493377 -0.08735
C_ C_ 0.713962 0.772629 0.014149 -0.08735
C_ C_ 0.70052 0.764674 0.0433706 -0.08735
C_ C_ 0.673311 0.719769 0.0515982 0.18498
C_ C_ 0.704324 0.698848 0.100247 0.44287
C_ C_ 0.614739 0.716492 0.0940682 0.44287
C_ C_ 0.606017 0.705137 0.123212 -0.05681
C_ C_ 0.554237 0.703395 0.133252 -0.08735
C_ C_ 0.545809 0.692247 0.162262 -0.08735
C_ C_ 0.586822 0.689019 0.181653 -0.05681
C_ C_ 0.636821 0.683854 0.17106 -0.05681
C_ C_ 0.645957 0.691392 0.141449 -0.05681
C_ C_ 0.697048 0.694514 0.130703 -0.05681
C_ C_ 0.737384 0.690921 0.150759 -0.08735
C_ C_ 0.726059 0.68184 0.178682 -0.08735
C_ C_ 0.677547 0.67883 0.189171 -0.05681
C_ C_ 0.667303 0.677828 0.218402 0.44287
C_ C_ 0.580172 0.685321 0.210376 0.44287
C_ C_ 0.609499 0.663945 0.257301 0.18498
C_ C_ 0.581309 0.619694 0.263169 -0.08735
C_ C_ 0.576868 0.600522 0.289971 -0.08735
C_ C_ 0.59923 0.625194 0.313384 -0.08735
C_ C_ 0.626047 0.670032 0.309314 0.18498
C_ C_ 0.631235 0.690148 0.281421 -0.05681
C_ C_ 0.649652 0.73992 0.279196 -0.08735
C_ C_ 0.66971 0.766861 0.30316 -0.08735
C_ C_ 0.669322 0.741113 0.328613 0.1947
C_ C_ 0.780512 0.827232 0.153579 0.68181
C_ C_ 0.724758 0.830397 0.150848 -0.05681
C_ C_ 0.692494 0.815747 0.172802 -0.08735
C_ C_ 0.639273 0.820465 0.168833 -0.05681
C_ C_ 0.617768 0.826178 0.140263 -0.05681
C_ C_ 0.650959 0.841503 0.118635 -0.08735
C_ C_ 0.703192 0.841693 0.123561 -0.08735
C_ C_ 0.607391 0.820858 0.192869 -0.08735
C_ C_ 0.555412 0.816811 0.188456 -0.08735
C_ C_ 0.534075 0.826305 0.161876 -0.05681
C_ C_ 0.564652 0.831785 0.137939 -0.08735
C_ C_ 0.881798 0.728581 0.163559 0.68181
C_ C_ 0.873055 0.926052 0.150512 0.68181
C_ C_ 0.877358 0.983136 0.150321 -0.05681
C_ C_ 0.858014 0.515828 0.175738 -0.08735
C_ C_ 0.866578 0.568226 0.172615 -0.05681
C_ C_ 0.877116 0.589168 0.145013 -0.05681
C_ C_ 0.868341 0.559248 0.120607 -0.08735
C_ C_ 0.890164 1.00680096 0.124608 -0.08735
C_ C_ 0.869274 0.598507 0.196941 -0.08735
C_ C_ 0.873422 0.650086 0.193619 -0.08735
C_ C_ 0.882048 0.672618 0.166503 -0.05681
C_ C_ 0.8852 0.640711 0.14218 -0.08735
C_ C_ 0.97696 0.831402 0.156554 0.68181
C_ C_ 0.905633 0.883091 0.234236 0.1947
C_ C_ 0.922655 0.891516 0.26151 -0.08735
C_ C_ 0.894662 0.872553 0.283871 -0.08735
C_ C_ 0.86249 0.83103 0.278959 -0.05681
C_ C_ 0.848364 0.819314 0.249949 0.18498
C_ C_ 0.822181 0.774986 0.245343 -0.08735
C_ C_ 0.798714 0.750187 0.267307 -0.08735
C_ C_ 0.81108 0.761248 0.295751 -0.08735
C_ C_ 0.83822 0.805854 0.301663 0.18498
C_ C_ 0.807109 0.830571 0.348152 0.44287
C_ C_ 0.893277 0.809195 0.343457 0.44287
C_ C_ 0.902864 0.817774 0.373138 -0.05681
C_ C_ 0.950326 0.810671 0.386032 -0.08735
C_ C_ 0.958381 0.817211 0.415731 -0.08735
C_ C_ 0.916521 0.822965 0.434019 -0.05681
C_ C_ 0.86746 0.831189 0.421461 -0.05681
C_ C_ 0.859664 0.827308 0.391259 -0.05681
C_ C_ 0.81242 0.835807 0.378334 -0.05681
C_ C_ 0.772611 0.844613 0.39591 -0.08735
C_ C_ 0.778844 0.852565 0.425981 -0.08735
C_ C_ 0.825244 0.841838 0.439706 -0.05681
C_ C_ 0.831854 0.845733 0.470085 0.44287
C_ C_ 0.921437 0.828529 0.464144 0.44287
C_ C_ 0.909143 0.840084 0.0106501 0.18498
C_ C_ 0.940143 0.882823 0.0146397 -0.08735
C_ C_ 0.951319 0.895824 0.0436635 -0.08735
C_ C_ 0.926269 0.870736 0.0659634 -0.08735
C_ C_ 0.895648 0.827948 0.0616777 0.18498
C_ C_ 0.889615 0.810733 0.0340108 -0.05681
C_ C_ 0.858405 0.767996 0.0300682 -0.08735
C_ C_ 0.836801 0.742731 0.0533033 -0.08735
C_ C_ 0.842831 0.762755 0.0808 0.1947
N_ N_ 0.631724 0.661305 0.474392 -0.29468
N_ N_ 0.663149 0.709631 0.0823261 -0.17154
N_ N_ 0.620048 0.679798 0.228379 -0.17154
N_ N_ 0.647561 0.696057 0.33227 -0.29468
N_ N_ 0.870881 0.844373 0.228323 -0.29468
N_ N_ 0.846836 0.816057 0.331085 -0.17154
N_ N_ 0.88033 0.838479 0.481905 -0.17154
N_ N_ 0.869104 0.80714 0.0839299 -0.29468
O_ O_ 0.71968 0.675032 0.427762 -0.58347
O_ O_ 0.708616 0.689285 0.383432 -0.58347
O_ O_ 0.646561 0.751467 0.432693 -0.58347
O_ O_ 0.628007 0.755606 0.387419 -0.58347
O_ O_ 0.637019 0.603597 0.421368 -0.58347
O_ O_ 0.645172 0.605275 0.375672 -0.58347
O_ O_ 0.571458 0.685762 0.425261 -0.58347
O_ O_ 0.559801 0.667568 0.379218 -0.58347
O_ O_ 0.57811 0.732594 0.0769226 -0.46727
O_ O_ 0.750143 0.687639 0.0907159 -0.46727
O_ O_ 0.535626 0.685932 0.22193 -0.46727
O_ O_ 0.705017 0.669835 0.235669 -0.46727
O_ O_ 0.799443 0.821818 0.178028 -0.58347
O_ O_ 0.808094 0.83573 0.13266 -0.58347
O_ O_ 0.882423 0.756828 0.186202 -0.58347
O_ O_ 0.87511 0.750813 0.139521 -0.58347
O_ O_ 0.86598 0.902986 0.174831 -0.58347
O_ O_ 0.886976 0.901328 0.128745 -0.58347
O_ O_ 0.94923 0.835388 0.178771 -0.58347
O_ O_ 0.95713 0.818984 0.132942 -0.58347
O_ O_ 0.93088 0.790527 0.328899 -0.46727
O_ O_ 0.762443 0.840393 0.336566 -0.46727
O_ O_ 0.963819 0.811868 0.47499 -0.46727
O_ O_ 0.793301 0.856024 0.487031 -0.46727
Zn Zn 0.631387 0.690023 0.882003 0.90689
Zn Zn 0.638393 0.683221 0.929254 0.90689
Zn Zn 0.870026 0.806515 0.632941 0.90689
Zn Zn 0.86021 0.815066 0.679759 0.90689
H_ H_ 0.803835 0.686185 0.943473 0.11455
H_ H_ 0.874211 0.66785 0.845585 0.11455
H_ H_ 0.782436 0.67853 0.852313 0.11455
H_ H_ 0.895692 0.682389 0.965713 0.11455
H_ H_ 0.984278 0.681442 0.954887 0.11455
H_ H_ 0.961266 0.676625 0.865989 0.11455
H_ H_ 0.662159 0.519291 0.940895 0.11455
H_ H_ 0.662475 0.945057 0.847721 0.11455
H_ H_ 0.59975 0.532081 0.855299 0.11455
H_ H_ 0.591767 0.931858 0.959231 0.11455
H_ H_ 0.600989 0.840838 0.954532 0.11455
H_ H_ 0.639819 0.859267 0.864479 0.11455
H_ H_ 0.591056 0.611004 0.970297 0.11455
H_ H_ 0.568402 0.567214 0.506886 0.11455
H_ H_ 0.6097 0.602726 0.548617 0.11455
H_ H_ 0.696216 0.750325 0.969733 0.11455
H_ H_ 0.728851 0.786695 0.514371 0.11455
H_ H_ 0.711898 0.751997 0.563905 0.11455
H_ H_ 0.525191 0.68905 0.624057 0.11455
H_ H_ 0.52172 0.684531 0.678182 0.11455
H_ H_ 0.773605 0.625375 0.629676 0.11455
H_ H_ 0.767703 0.628999 0.68375 0.11455
H_ H_ 0.618743 0.573813 0.749472 0.11455
H_ H_ 0.594356 0.553093 0.797776 0.11455
H_ H_ 0.596492 0.613769 0.836182 0.11455
H_ H_ 0.688403 0.741414 0.757045 0.11455
H_ H_ 0.689363 0.804283 0.798662 0.11455
H_ H_ 0.67287 0.76926 0.846453 0.11455
H_ H_ 0.693208 0.802299 0.695903 0.11455
H_ H_ 0.620854 0.827097 0.599626 0.11455
H_ H_ 0.712645 0.810056 0.604298 0.11455
H_ H_ 0.607516 0.798002 0.715374 0.11455
H_ H_ 0.516725 0.811169 0.707537 0.11455
H_ H_ 0.536063 0.829085 0.619754 0.11455
H_ H_ 0.86961 0.977577 0.691564 0.11455
H_ H_ 0.894026 0.553775 0.5994 0.11455
H_ H_ 0.81411 0.96138 0.605768 0.11455
H_ H_ 0.854571 0.562154 0.714544 0.11455
H_ H_ 0.861903 0.653994 0.707829 0.11455
H_ H_ 0.898635 0.63802 0.62004 0.11455
H_ H_ 0.908896 0.894923 0.713233 0.11455
H_ H_ 0.923467 0.927052 0.76289 0.11455
H_ H_ 0.892641 0.882722 0.802841 0.11455
H_ H_ 0.817404 0.741702 0.724739 0.11455
H_ H_ 0.773208 0.702557 0.766747 0.11455
H_ H_ 0.779221 0.735679 0.813551 0.11455
H_ H_ 0.985052 0.789587 0.870733 0.11455
H_ H_ 0.999692 0.787627 0.922052 0.11455
H_ H_ 0.746972 0.866945 0.891652 0.11455
H_ H_ 0.761561 0.875055 0.941594 0.11455
H_ H_ 0.96027 0.898309 0.996493 0.11455
H_ H_ 0.958855 0.929221 0.552852 0.11455
H_ H_ 0.925246 0.876699 0.592465 0.11455
H_ H_ 0.824327 0.763206 0.507517 0.11455
H_ H_ 0.808341 0.702688 0.546496 0.11455
H_ H_ 0.83352 0.726842 0.595975 0.11455
C_ C_ 0.732701 0.687554 0.90426 0.68181
C_ C_ 0.78633 0.679523 0.898688 -0.05681
C_ C_ 0.819705 0.682228 0.922264 -0.08735
C_ C_ 0.873529 0.681722 0.919108 -0.05681
C_ C_ 0.892797 0.670288 0.891196 -0.05681
C_ C_ 0.857859 0.669308 0.866381 -0.08735
C_ C_ 0.805925 0.677049 0.870678 -0.08735
C_ C_ 0.908535 0.680785 0.943575 -0.08735
C_ C_ 0.960404 0.678733 0.937762 -0.08735
C_ C_ 0.978889 0.673698 0.90953 -0.05681
C_ C_ 0.94504 0.668712 0.8868 -0.08735
C_ C_ 0.631001 0.787478 0.909755 0.68181
C_ C_ 0.635255 0.590435 0.899659 0.68181
C_ C_ 0.636385 0.533661 0.896591 -0.05681
C_ C_ 0.625695 0.00313592 0.920061 -0.08735
C_ C_ 0.625486 0.94924 0.918341 -0.05681
C_ C_ 0.636612 0.929035 0.89123 -0.05681
C_ C_ 0.648426 0.96121 0.867525 -0.08735
C_ C_ 0.644487 0.0139964 0.869924 -0.08735
C_ C_ 0.613792 0.918365 0.941715 -0.08735
C_ C_ 0.617034 0.865851 0.937905 -0.08735
C_ C_ 0.628222 0.844186 0.911915 -0.05681
C_ C_ 0.632857 0.876038 0.886787 -0.08735
C_ C_ 0.537844 0.679531 0.906238 0.68181
C_ C_ 0.610038 0.633898 0.985594 0.1947
C_ C_ 0.590267 0.601948 0.50443 -0.08735
C_ C_ 0.614844 0.621635 0.528471 -0.08735
C_ C_ 0.643231 0.667742 0.525793 -0.05681
C_ C_ 0.655745 0.684208 0.497526 0.18498
C_ C_ 0.690734 0.742386 0.992868 -0.08735
C_ C_ 0.705929 0.753006 0.517168 -0.08735
C_ C_ 0.692707 0.736954 0.544632 -0.08735
C_ C_ 0.666405 0.692105 0.549048 0.18498
C_ C_ 0.697256 0.66126 0.594351 0.44287
C_ C_ 0.611009 0.68277 0.591221 0.44287
C_ C_ 0.606398 0.675591 0.621683 -0.05681
C_ C_ 0.560614 0.68569 0.636617 -0.08735
C_ C_ 0.556849 0.680965 0.667172 -0.08735
C_ C_ 0.601222 0.673042 0.682872 -0.05681
C_ C_ 0.648507 0.665186 0.668891 -0.05681
C_ C_ 0.649114 0.664626 0.638806 -0.05681
C_ C_ 0.694417 0.654848 0.624656 -0.05681
C_ C_ 0.736836 0.637807 0.640922 -0.08735
C_ C_ 0.736139 0.640957 0.670665 -0.08735
C_ C_ 0.690254 0.651833 0.685041 -0.05681
C_ C_ 0.687758 0.654567 0.715397 0.44287
C_ C_ 0.600106 0.669791 0.713595 0.44287
C_ C_ 0.640501 0.649281 0.758201 0.18498
C_ C_ 0.624461 0.601577 0.765372 -0.08735
C_ C_ 0.60573 0.591312 0.792814 -0.08735
C_ C_ 0.607187 0.625876 0.814333 -0.08735
C_ C_ 0.628173 0.672891 0.809448 0.18498
C_ C_ 0.645452 0.685026 0.781492 -0.05681
C_ C_ 0.672011 0.731429 0.777964 -0.08735
C_ C_ 0.670815 0.767904 0.800322 -0.08735
C_ C_ 0.656975 0.752105 0.827568 0.1947
C_ C_ 0.765315 0.799203 0.655743 0.68181
C_ C_ 0.710794 0.800565 0.650507 -0.05681
C_ C_ 0.678275 0.80483 0.674489 -0.08735
C_ C_ 0.625139 0.800956 0.670654 -0.05681
C_ C_ 0.60568 0.808823 0.643272 -0.05681
C_ C_ 0.638272 0.820133 0.620833 -0.08735
C_ C_ 0.690402 0.809246 0.623291 -0.08735
C_ C_ 0.591826 0.794733 0.69355 -0.08735
C_ C_ 0.53965 0.798708 0.68914 -0.08735
C_ C_ 0.520241 0.807052 0.661423 -0.05681
C_ C_ 0.552701 0.814953 0.639495 -0.08735
C_ C_ 0.881302 0.710785 0.662404 0.68181
C_ C_ 0.84991 0.907903 0.651699 0.68181
C_ C_ 0.845591 0.964624 0.649717 -0.05681
C_ C_ 0.863997 0.493351 0.672563 -0.08735
C_ C_ 0.865167 0.546919 0.670176 -0.05681
C_ C_ 0.878198 0.568434 0.643932 -0.05681
C_ C_ 0.887879 0.536379 0.62025 -0.08735
C_ C_ 0.830596 0.986323 0.623229 -0.08735
C_ C_ 0.859718 0.578591 0.694083 -0.08735
C_ C_ 0.868708 0.629964 0.691049 -0.08735
C_ C_ 0.878496 0.653442 0.66468 -0.05681
C_ C_ 0.881721 0.622701 0.639992 -0.08735
C_ C_ 0.963868 0.823274 0.656635 0.68181
C_ C_ 0.893877 0.874758 0.731627 0.1947
C_ C_ 0.905287 0.890494 0.759599 -0.08735
C_ C_ 0.881651 0.867423 0.782133 -0.08735
C_ C_ 0.858079 0.819555 0.779573 -0.05681
C_ C_ 0.850187 0.801317 0.751338 0.18498
C_ C_ 0.822239 0.757781 0.746749 -0.08735
C_ C_ 0.798419 0.733224 0.770126 -0.08735
C_ C_ 0.807219 0.749783 0.798603 -0.08735
C_ C_ 0.838722 0.791713 0.803095 0.18498
C_ C_ 0.808911 0.819547 0.851507 0.44287
C_ C_ 0.894596 0.79815 0.843968 0.44287
C_ C_ 0.905412 0.806445 0.873418 -0.05681
C_ C_ 0.954587 0.799083 0.885586 -0.08735
C_ C_ 0.961805 0.795641 0.914489 -0.08735
C_ C_ 0.921445 0.809143 0.933243 -0.05681
C_ C_ 0.873667 0.824779 0.921485 -0.05681
C_ C_ 0.866396 0.821336 0.891885 -0.05681
C_ C_ 0.817304 0.82972 0.880274 -0.05681
C_ C_ 0.780102 0.847784 0.898593 -0.08735
C_ C_ 0.789281 0.854719 0.927529 -0.08735
C_ C_ 0.836486 0.842073 0.939892 -0.05681
C_ C_ 0.849022 0.846213 0.970306 0.44287
C_ C_ 0.924663 0.802748 0.963211 0.44287
C_ C_ 0.889709 0.847572 0.512015 0.18498
C_ C_ 0.91934 0.890919 0.521069 -0.08735
C_ C_ 0.934175 0.898194 0.548644 -0.08735
C_ C_ 0.9113 0.87128 0.569942 -0.08735
C_ C_ 0.879204 0.828917 0.564161 0.18498
C_ C_ 0.867886 0.816389 0.534735 -0.05681
C_ C_ 0.837916 0.77191 0.529562 -0.08735
C_ C_ 0.824876 0.740502 0.551159 -0.08735
C_ C_ 0.839176 0.752415 0.579344 0.1947
N_ N_ 0.634474 0.677242 0.978353 -0.29468
N_ N_ 0.656764 0.675334 0.577895 -0.17154
N_ N_ 0.642624 0.661762 0.72888 -0.17154
N_ N_ 0.637298 0.704893 0.832552 -0.29468
N_ N_ 0.868499 0.827549 0.72781 -0.29468
N_ N_ 0.847392 0.804798 0.832959 -0.17154
N_ N_ 0.892629 0.827919 0.981306 -0.17154
N_ N_ 0.864621 0.79748 0.585326 -0.29468
O_ O_ 0.71269 0.67741 0.928018 -0.58347
O_ O_ 0.703543 0.701541 0.885006 -0.58347
O_ O_ 0.639964 0.757558 0.931825 -0.58347
O_ O_ 0.620192 0.766306 0.88589 -0.58347
O_ O_ 0.63101 0.611933 0.924226 -0.58347
O_ O_ 0.643449 0.617452 0.877794 -0.58347
O_ O_ 0.565694 0.68881 0.926956 -0.58347
O_ O_ 0.556415 0.681959 0.880787 -0.58347
O_ O_ 0.57136 0.69975 0.576403 -0.46727
O_ O_ 0.740835 0.660009 0.583079 -0.46727
O_ O_ 0.556465 0.679234 0.727007 -0.46727
O_ O_ 0.730323 0.646453 0.730209 -0.46727
O_ O_ 0.784357 0.799149 0.680439 -0.58347
O_ O_ 0.79473 0.797385 0.633699 -0.58347
O_ O_ 0.882217 0.736994 0.68509 -0.58347
O_ O_ 0.880692 0.731708 0.63835 -0.58347
O_ O_ 0.842206 0.88486 0.675785 -0.58347
O_ O_ 0.860911 0.882223 0.62913 -0.58347
O_ O_ 0.935266 0.8314 0.677093 -0.58347
O_ O_ 0.946932 0.815057 0.632362 -0.58347
O_ O_ 0.932628 0.78306 0.82696 -0.46727
O_ O_ 0.764341 0.829842 0.840432 -0.46727
O_ O_ 0.962909 0.78074 0.974651 -0.46727
O_ O_ 0.812342 0.858506 0.988016 -0.46727
