_cell_length_a 26.376
_cell_length_b 26.400000238300095
_cell_length_c 46.67800035477134
_cell_angle_alpha 90.00700052986613
_cell_angle_beta 89.99899961309502
_cell_angle_gamma 90.45000003183146
_symmetry_space_group_name_H-M         'P 1'
_symmetry_Int_Tables_number            1
loop_
_symmetry_equiv_pos_as_xyz
   'x, y, z'
                         
loop_
_atom_site_label
_atom_site_type_symbol
_atom_site_fract_x 
_atom_site_fract_y
_atom_site_fract_z
_atom_site_charge
Zn Zn 0.127898 0.18707 0.380976 0.90689
Zn Zn 0.131221 0.179518 0.430176 0.90689
Zn Zn 0.380958 0.312577 0.132432 0.90689
Zn Zn 0.368308 0.313886 0.180192 0.90689
H_ H_ 0.304012 0.182595 0.442685 0.11455
H_ H_ 0.369426 0.184258 0.342562 0.11455
H_ H_ 0.280911 0.160849 0.352959 0.11455
H_ H_ 0.389881 0.169928 0.461831 0.11455
H_ H_ 0.481369 0.169443 0.453848 0.11455
H_ H_ 0.462437 0.175887 0.362217 0.11455
H_ H_ 0.151054 0.010432 0.444081 0.11455
H_ H_ 0.134706 0.442223 0.346367 0.11455
H_ H_ 0.108418 0.0301087 0.35545 0.11455
H_ H_ 0.138988 0.430238 0.463884 0.11455
H_ H_ 0.163084 0.337065 0.454979 0.11455
H_ H_ 0.119565 0.35409 0.369549 0.11455
H_ H_ 0.0718531 0.118193 0.468439 0.11455
H_ H_ 0.0741104 0.0785445 0.0149694 0.11455
H_ H_ 0.0998261 0.130427 0.0568221 0.11455
H_ H_ 0.189924 0.250379 0.47379 0.11455
H_ H_ 0.234751 0.292606 0.0164545 0.11455
H_ H_ 0.199991 0.284733 0.0660652 0.11455
H_ H_ 0.00703804 0.223917 0.126407 0.11455
H_ H_ -0.00777899999999998 0.202406 0.1749 0.11455
H_ H_ 0.258003 0.188393 0.145128 0.11455
H_ H_ 0.243245 0.161356 0.192686 0.11455
H_ H_ 0.0643246 0.0856005 0.249957 0.11455
H_ H_ 0.0496433 0.0613895 0.299963 0.11455
H_ H_ 0.0737204 0.11942 0.337847 0.11455
H_ H_ 0.15139 0.246113 0.255725 0.11455
H_ H_ 0.190292 0.293059 0.295514 0.11455
H_ H_ 0.171435 0.270108 0.344474 0.11455
H_ H_ 0.198958 0.30829 0.195778 0.11455
H_ H_ 0.13901 0.359454 0.100468 0.11455
H_ H_ 0.221816 0.334942 0.105993 0.11455
H_ H_ 0.113778 0.313516 0.216968 0.11455
H_ H_ 0.0193086 0.314329 0.20525 0.11455
H_ H_ 0.0468626 0.345359 0.115357 0.11455
H_ H_ 0.345991 0.482927 0.191717 0.11455
H_ H_ 0.336712 0.0606838 0.100124 0.11455
H_ H_ 0.401086 0.467319 0.102978 0.11455
H_ H_ 0.39613 0.0641315 0.213382 0.11455
H_ H_ 0.401175 0.156368 0.208273 0.11455
H_ H_ 0.369611 0.148613 0.119182 0.11455
H_ H_ 0.415907 0.395329 0.21117 0.11455
H_ H_ 0.44026 0.423433 0.260098 0.11455
H_ H_ 0.397846 0.382247 0.302385 0.11455
H_ H_ 0.317045 0.25201 0.22158 0.11455
H_ H_ 0.295879 0.195441 0.262651 0.11455
H_ H_ 0.297192 0.226864 0.313513 0.11455
H_ H_ 0.480825 0.288325 0.373762 0.11455
H_ H_ 0.487885 0.287491 0.426849 0.11455
H_ H_ 0.237095 0.354417 0.383695 0.11455
H_ H_ 0.249043 0.380821 0.434889 0.11455
H_ H_ 0.426029 0.427692 0.502045 0.11455
H_ H_ 0.465651 0.42256 0.0438266 0.11455
H_ H_ 0.436913 0.373067 0.0844331 0.11455
H_ H_ 0.336302 0.248841 0.00914585 0.11455
H_ H_ 0.308082 0.203802 0.0539621 0.11455
H_ H_ 0.321329 0.240825 0.0992746 0.11455
C_ C_ 0.228602 0.186626 0.40256 0.68181
C_ C_ 0.285559 0.177682 0.397861 -0.05681
C_ C_ 0.319414 0.174807 0.420958 -0.08735
C_ C_ 0.371997 0.17627 0.416712 -0.05681
C_ C_ 0.390334 0.177878 0.388504 -0.05681
C_ C_ 0.355631 0.181962 0.364326 -0.08735
C_ C_ 0.30401 0.176151 0.370237 -0.08735
C_ C_ 0.404482 0.174984 0.440091 -0.08735
C_ C_ 0.455793 0.171512 0.435529 -0.08735
C_ C_ 0.476778 0.178587 0.407924 -0.05681
C_ C_ 0.444022 0.176472 0.383729 -0.08735
C_ C_ 0.126756 0.283587 0.410222 0.68181
C_ C_ 0.133883 0.0872374 0.402201 0.68181
C_ C_ 0.131095 0.0319143 0.399288 -0.05681
C_ C_ 0.143055 0.49875 0.420624 -0.08735
C_ C_ 0.13081 0.446926 0.41872 -0.05681
C_ C_ 0.130621 0.424734 0.39138 -0.05681
C_ C_ 0.135881 0.456231 0.36726 -0.08735
C_ C_ 0.13607 0.508694 0.369389 -0.08735
C_ C_ 0.135689 0.413772 0.44304 -0.08735
C_ C_ 0.141954 0.360863 0.438928 -0.08735
C_ C_ 0.12769 0.340889 0.413798 -0.05681
C_ C_ 0.123728 0.372859 0.389586 -0.08735
C_ C_ 0.0326201 0.174998 0.404978 0.68181
C_ C_ 0.0875613 0.140253 0.485742 0.1947
C_ C_ 0.0961788 0.113015 0.013435 -0.08735
C_ C_ 0.111356 0.141481 0.036157 -0.08735
C_ C_ 0.140411 0.185432 0.0306478 -0.05681
C_ C_ 0.154286 0.197831 1.0021492 0.18498
C_ C_ 0.177179 0.243274 0.494517 -0.08735
C_ C_ 0.202445 0.269619 0.0199215 -0.08735
C_ C_ 0.185047 0.261548 0.0477485 -0.08735
C_ C_ 0.153146 0.219182 0.0537057 0.18498
C_ C_ 0.184553 0.201994 0.102433 0.44287
C_ C_ 0.0967175 0.211244 0.0954312 0.44287
C_ C_ 0.0865924 0.203648 0.125863 -0.05681
C_ C_ 0.0391004 0.211153 0.138776 -0.08735
C_ C_ 0.0309345 0.197738 0.166571 -0.08735
C_ C_ 0.0710203 0.182997 0.184331 -0.05681
C_ C_ 0.119532 0.177261 0.171888 -0.05681
C_ C_ 0.129712 0.190099 0.142565 -0.05681
C_ C_ 0.178028 0.188527 0.131223 -0.05681
C_ C_ 0.218201 0.179012 0.149576 -0.08735
C_ C_ 0.211339 0.165492 0.177761 -0.08735
C_ C_ 0.162824 0.164703 0.1896 -0.05681
C_ C_ 0.154584 0.153405 0.219102 0.44287
C_ C_ 0.0661852 0.176885 0.214486 0.44287
C_ C_ 0.100425 0.156675 0.260441 0.18498
C_ C_ 0.0760643 0.111568 0.267397 -0.08735
C_ C_ 0.0697719 0.0976551 0.296509 -0.08735
C_ C_ 0.0874366 0.127741 0.31772 -0.08735
C_ C_ 0.11304 0.173563 0.311514 0.18498
C_ C_ 0.120627 0.188605 0.282976 -0.05681
C_ C_ 0.148404 0.231354 0.277343 -0.08735
C_ C_ 0.170192 0.25799 0.29973 -0.08735
C_ C_ 0.157876 0.246876 0.327658 0.1947
C_ C_ 0.27383 0.318895 0.154064 0.68181
C_ C_ 0.219204 0.32055 0.150617 -0.05681
C_ C_ 0.184093 0.319027 0.174327 -0.08735
C_ C_ 0.132609 0.326513 0.1701 -0.05681
C_ C_ 0.114573 0.33783 0.14204 -0.05681
C_ C_ 0.147512 0.338896 0.120343 -0.08735
C_ C_ 0.198424 0.326322 0.12366 -0.08735
C_ C_ 0.0986887 0.316226 0.19415 -0.08735
C_ C_ 0.0465432 0.319165 0.187885 -0.08735
C_ C_ 0.0266722 0.329308 0.160094 -0.05681
C_ C_ 0.060273 0.339562 0.137233 -0.08735
C_ C_ 0.379085 0.214189 0.164787 0.68181
C_ C_ 0.369032 0.41251 0.147512 0.68181
C_ C_ 0.373609 0.468177 0.146919 -0.05681
C_ C_ 0.374641 -0.0025159999999999627 0.172283 -0.08735
C_ C_ 0.373464 0.0506438 0.170323 -0.05681
C_ C_ 0.361777 0.0755206 0.143516 -0.05681
C_ C_ 0.348195 0.0432021 0.120457 -0.08735
C_ C_ 0.396075 0.489641 0.122499 -0.08735
C_ C_ 0.386493 0.0814687 0.193869 -0.08735
C_ C_ 0.391477 0.134028 0.190656 -0.08735
C_ C_ 0.381193 0.157236 0.164587 -0.05681
C_ C_ 0.370228 0.127892 0.140454 -0.08735
C_ C_ 0.473214 0.304833 0.155908 0.68181
C_ C_ 0.404263 0.373058 0.230086 0.1947
C_ C_ 0.412199 0.39342 0.2573 -0.08735
C_ C_ 0.391465 0.367938 0.281196 -0.08735
C_ C_ 0.362704 0.32335 0.278405 -0.05681
C_ C_ 0.355615 0.305206 0.249207 0.18498
C_ C_ 0.325159 0.26197 0.244428 -0.08735
C_ C_ 0.30933 0.233857 0.267207 -0.08735
C_ C_ 0.311248 0.251641 0.295861 -0.08735
C_ C_ 0.339595 0.296385 0.302318 0.18498
C_ C_ 0.308623 0.328667 0.34776 0.44287
C_ C_ 0.395451 0.306934 0.344333 0.44287
C_ C_ 0.403313 0.311309 0.374045 -0.05681
C_ C_ 0.44982 0.300873 0.387487 -0.08735
C_ C_ 0.453425 0.302869 0.417913 -0.08735
C_ C_ 0.411347 0.319656 0.434695 -0.05681
C_ C_ 0.366861 0.333929 0.420613 -0.05681
C_ C_ 0.363421 0.33043 0.389986 -0.05681
C_ C_ 0.315849 0.340115 0.377495 -0.05681
C_ C_ 0.272067 0.350315 0.393959 -0.08735
C_ C_ 0.279044 0.361576 0.422886 -0.08735
C_ C_ 0.325764 0.350019 0.437206 -0.05681
C_ C_ 0.330204 0.354572 0.467409 0.44287
C_ C_ 0.416466 0.328626 0.464748 0.44287
C_ C_ 0.396005 0.334407 0.00841018 0.18498
C_ C_ 0.424362 0.380251 0.014077 -0.08735
C_ C_ 0.439052 0.392201 0.0404379 -0.08735
C_ C_ 0.421111 0.363937 0.0640308 -0.08735
C_ C_ 0.390439 0.322019 0.0606778 0.18498
C_ C_ 0.377311 0.307355 0.0321847 -0.05681
C_ C_ 0.349365 0.262349 0.0296987 -0.08735
C_ C_ 0.331109 0.237645 0.0537194 -0.08735
C_ C_ 0.339941 0.257219 0.081381 0.1947
N_ N_ 0.123103 0.176148 0.479616 -0.29468
N_ N_ 0.144885 0.208005 0.0839423 -0.17154
N_ N_ 0.10745 0.163944 0.23056 -0.17154
N_ N_ 0.128993 0.205343 0.333402 -0.29468
N_ N_ 0.373557 0.331495 0.225862 -0.29468
N_ N_ 0.347923 0.310067 0.332636 -0.17154
N_ N_ 0.375311 0.344767 0.480929 -0.17154
N_ N_ 0.372065 0.298195 0.0841776 -0.29468
O_ O_ 0.207677 0.173646 0.426493 -0.58347
O_ O_ 0.202874 0.196463 0.381119 -0.58347
O_ O_ 0.132363 0.256708 0.432434 -0.58347
O_ O_ 0.120486 0.263836 0.386719 -0.58347
O_ O_ 0.128348 0.105489 0.426204 -0.58347
O_ O_ 0.137378 0.113475 0.379821 -0.58347
O_ O_ 0.0581984 0.182839 0.426586 -0.58347
O_ O_ 0.05284 0.17799 0.380719 -0.58347
O_ O_ 0.0577969 0.216105 0.0779344 -0.46727
O_ O_ 0.232064 0.20296 0.0933124 -0.46727
O_ O_ 0.0214963 0.177295 0.227617 -0.46727
O_ O_ 0.190101 0.136414 0.236299 -0.46727
O_ O_ 0.29241 0.309293 0.17846 -0.58347
O_ O_ 0.302112 0.31569 0.132344 -0.58347
O_ O_ 0.382765 0.239822 0.187007 -0.58347
O_ O_ 0.378692 0.236833 0.140082 -0.58347
O_ O_ 0.356208 0.389493 0.170886 -0.58347
O_ O_ 0.384194 0.385289 0.126294 -0.58347
O_ O_ 0.444304 0.318649 0.176363 -0.58347
O_ O_ 0.455141 0.304144 0.130877 -0.58347
O_ O_ 0.433097 0.292293 0.328595 -0.46727
O_ O_ 0.26234 0.326828 0.336484 -0.46727
O_ O_ 0.461126 0.327156 0.476641 -0.46727
O_ O_ 0.291474 0.370273 0.482585 -0.46727
Zn Zn 0.130825 0.183668 0.883825 0.90689
Zn Zn 0.143625 0.175567 0.933201 0.90689
Zn Zn 0.371648 0.31636 0.631296 0.90689
Zn Zn 0.366724 0.321382 0.677027 0.90689
H_ H_ 0.315486 0.185509 0.95078 0.11455
H_ H_ 0.377996 0.156832 0.850605 0.11455
H_ H_ 0.285489 0.162611 0.859653 0.11455
H_ H_ 0.406509 0.194461 0.966365 0.11455
H_ H_ 0.493916 0.167375 0.9576 0.11455
H_ H_ 0.464623 0.152909 0.867437 0.11455
H_ H_ 0.141377 0.0155832 0.944745 0.11455
H_ H_ 0.166083 0.430563 0.849902 0.11455
H_ H_ 0.134793 0.0255051 0.854763 0.11455
H_ H_ 0.0987413 0.431315 0.962554 0.11455
H_ H_ 0.0938554 0.336487 0.957132 0.11455
H_ H_ 0.148854 0.349045 0.872311 0.11455
H_ H_ 0.0838046 0.111083 0.968568 0.11455
H_ H_ 0.0519421 0.0932902 0.517628 0.11455
H_ H_ 0.0970663 0.136255 0.557046 0.11455
H_ H_ 0.196148 0.247387 0.974148 0.11455
H_ H_ 0.225337 0.303514 0.512526 0.11455
H_ H_ 0.202998 0.27871 0.562268 0.11455
H_ H_ 0.00799887 0.20444 0.624573 0.11455
H_ H_ -0.004554999999999976 0.195667 0.676639 0.11455
H_ H_ 0.260213 0.186961 0.637987 0.11455
H_ H_ 0.246499 0.170149 0.688752 0.11455
H_ H_ 0.0724194 0.0852061 0.74819 0.11455
H_ H_ 0.0631709 0.0558081 0.797847 0.11455
H_ H_ 0.0907882 0.106469 0.83856 0.11455
H_ H_ 0.152242 0.245904 0.757918 0.11455
H_ H_ 0.195209 0.294929 0.7985 0.11455
H_ H_ 0.178934 0.264742 0.848238 0.11455
H_ H_ 0.196983 0.313133 0.69119 0.11455
H_ H_ 0.129983 0.326042 0.593312 0.11455
H_ H_ 0.222305 0.327984 0.602023 0.11455
H_ H_ 0.108012 0.304116 0.707495 0.11455
H_ H_ 0.0208044 0.316826 0.701449 0.11455
H_ H_ 0.040312 0.338013 0.611661 0.11455
H_ H_ 0.347014 0.4874 0.689387 0.11455
H_ H_ 0.392173 0.0646001 0.597823 0.11455
H_ H_ 0.39499 0.478939 0.601092 0.11455
H_ H_ 0.31527 0.0717412 0.706785 0.11455
H_ H_ 0.331059 0.162381 0.705347 0.11455
H_ H_ 0.386405 0.149252 0.61857 0.11455
H_ H_ 0.418759 0.398212 0.712725 0.11455
H_ H_ 0.441399 0.422694 0.760078 0.11455
H_ H_ 0.406774 0.37091 0.801196 0.11455
H_ H_ 0.304504 0.257875 0.723256 0.11455
H_ H_ 0.264561 0.214477 0.760458 0.11455
H_ H_ 0.279739 0.240505 0.809931 0.11455
H_ H_ 0.486317 0.289992 0.8683 0.11455
H_ H_ 0.498172 0.284583 0.919764 0.11455
H_ H_ 0.243024 0.356575 0.885254 0.11455
H_ H_ 0.257795 0.357629 0.939165 0.11455
H_ H_ 0.432855 0.403671 -0.004052999999999973 0.11455
H_ H_ 0.448817 0.443793 0.552522 0.11455
H_ H_ 0.438969 0.376455 0.587603 0.11455
H_ H_ 0.33154 0.267985 0.505658 0.11455
H_ H_ 0.305982 0.213497 0.546166 0.11455
H_ H_ 0.326457 0.237155 0.595871 0.11455
C_ C_ 0.236553 0.182823 0.909168 0.68181
C_ C_ 0.293979 0.175318 0.905489 -0.05681
C_ C_ 0.327488 0.186666 0.927949 -0.08735
C_ C_ 0.379145 0.181871 0.922166 -0.05681
C_ C_ 0.397824 0.166824 0.894858 -0.05681
C_ C_ 0.363165 0.162747 0.872542 -0.08735
C_ C_ 0.311344 0.164822 0.877701 -0.08735
C_ C_ 0.416664 0.183365 0.944156 -0.08735
C_ C_ 0.466862 0.174385 0.939585 -0.08735
C_ C_ 0.484511 0.167359 0.912492 -0.05681
C_ C_ 0.451607 0.160299 0.889932 -0.08735
C_ C_ 0.129475 0.279954 0.913956 0.68181
C_ C_ 0.14457 0.0838106 0.902193 0.68181
C_ C_ 0.137384 0.0275149 0.898937 -0.05681
C_ C_ 0.126931 0.495086 0.921453 -0.08735
C_ C_ 0.126201 0.442818 0.91989 -0.05681
C_ C_ 0.143639 0.41874 0.894839 -0.05681
C_ C_ 0.153937 0.44711 0.8704 -0.08735
C_ C_ 0.158053 0.501532 0.873001 -0.08735
C_ C_ 0.10584 0.412558 0.941644 -0.08735
C_ C_ 0.110978 0.358809 0.939977 -0.08735
C_ C_ 0.132298 0.335709 0.916095 -0.05681
C_ C_ 0.142759 0.366801 0.89215 -0.08735
C_ C_ 0.0394092 0.169695 0.911055 0.68181
C_ C_ 0.105684 0.129266 0.985291 0.1947
C_ C_ 0.0803663 0.122395 0.512522 -0.08735
C_ C_ 0.106927 0.144438 0.535638 -0.08735
C_ C_ 0.133732 0.189381 0.530477 -0.05681
C_ C_ 0.144595 0.202855 0.500673 0.18498
C_ C_ 0.188233 0.237146 0.997487 -0.08735
C_ C_ 0.198326 0.272101 0.517027 -0.08735
C_ C_ 0.181446 0.26125 0.545432 -0.08735
C_ C_ 0.150948 0.221407 0.552485 0.18498
C_ C_ 0.183129 0.195936 0.599484 0.44287
C_ C_ 0.0965423 0.210733 0.595305 0.44287
C_ C_ 0.0888223 0.196844 0.624919 -0.05681
C_ C_ 0.0396524 0.196533 0.63782 -0.08735
C_ C_ 0.0330282 0.19048 0.667267 -0.08735
C_ C_ 0.076933 0.1861 0.684211 -0.05681
C_ C_ 0.125935 0.185562 0.671956 -0.05681
C_ C_ 0.130987 0.187304 0.64145 -0.05681
C_ C_ 0.179172 0.187315 0.629361 -0.05681
C_ C_ 0.221865 0.184213 0.647097 -0.08735
C_ C_ 0.216181 0.174014 0.676514 -0.08735
C_ C_ 0.168946 0.180227 0.688793 -0.05681
C_ C_ 0.160982 0.169776 0.717952 0.44287
C_ C_ 0.074839 0.179918 0.713681 0.44287
C_ C_ 0.111072 0.154678 0.760025 0.18498
C_ C_ 0.0875181 0.106471 0.766089 -0.08735
C_ C_ 0.0808007 0.0913791 0.794334 -0.08735
C_ C_ 0.0915603 0.124781 0.817537 -0.08735
C_ C_ 0.120177 0.167372 0.813058 0.18498
C_ C_ 0.123391 0.187269 0.784313 -0.05681
C_ C_ 0.15122 0.230786 0.780039 -0.08735
C_ C_ 0.171937 0.259727 0.802691 -0.08735
C_ C_ 0.164283 0.242174 0.830471 0.1947
C_ C_ 0.271073 0.320711 0.650497 0.68181
C_ C_ 0.215414 0.324085 0.646939 -0.05681
C_ C_ 0.181165 0.316612 0.669924 -0.08735
C_ C_ 0.128481 0.318557 0.664577 -0.05681
C_ C_ 0.110309 0.325803 0.637293 -0.05681
C_ C_ 0.144546 0.325801 0.613879 -0.08735
C_ C_ 0.195946 0.328791 0.619774 -0.08735
C_ C_ 0.0946825 0.316926 0.68738 -0.08735
C_ C_ 0.0441429 0.316093 0.682609 -0.08735
C_ C_ 0.0228229 0.324731 0.656139 -0.05681
C_ C_ 0.0570776 0.329533 0.63279 -0.08735
C_ C_ 0.372176 0.216771 0.660763 0.68181
C_ C_ 0.371951 0.417471 0.647468 0.68181
C_ C_ 0.372447 0.475405 0.646776 -0.05681
C_ C_ 0.340428 0.00174297 0.667899 -0.08735
C_ C_ 0.345524 0.0569232 0.665483 -0.05681
C_ C_ 0.365396 0.0780622 0.639688 -0.05681
C_ C_ 0.379488 0.0489894 0.6174 -0.08735
C_ C_ 0.393953 0.499576 0.621062 -0.08735
C_ C_ 0.333079 0.0871746 0.688426 -0.08735
C_ C_ 0.340624 0.138531 0.686875 -0.08735
C_ C_ 0.362121 0.161154 0.6614 -0.05681
C_ C_ 0.371805 0.131389 0.638215 -0.08735
C_ C_ 0.468735 0.315046 0.657453 0.68181
C_ C_ 0.401471 0.376546 0.729827 0.1947
C_ C_ 0.413454 0.391395 0.757361 -0.08735
C_ C_ 0.392609 0.36487 0.780526 -0.08735
C_ C_ 0.359798 0.322641 0.775801 -0.05681
C_ C_ 0.351329 0.308208 0.748108 0.18498
C_ C_ 0.317791 0.269404 0.742914 -0.08735
C_ C_ 0.295083 0.242454 0.765299 -0.08735
C_ C_ 0.304827 0.254649 0.794141 -0.08735
C_ C_ 0.338999 0.296101 0.800441 0.18498
C_ C_ 0.312492 0.324029 0.846671 0.44287
C_ C_ 0.39738 0.292848 0.841619 0.44287
C_ C_ 0.405837 0.301844 0.870041 -0.05681
C_ C_ 0.454791 0.296309 0.882416 -0.08735
C_ C_ 0.460794 0.295752 0.912005 -0.08735
C_ C_ 0.42005 0.303169 0.9296 -0.05681
C_ C_ 0.370935 0.31341 0.918466 -0.05681
C_ C_ 0.364004 0.314013 0.888251 -0.05681
C_ C_ 0.318235 0.330178 0.876049 -0.05681
C_ C_ 0.279954 0.345657 0.895207 -0.08735
C_ C_ 0.287195 0.345801 0.92579 -0.08735
C_ C_ 0.332182 0.330396 0.937323 -0.05681
C_ C_ 0.340602 0.33209 0.967267 0.44287
C_ C_ 0.428225 0.314248 0.959276 0.44287
C_ C_ 0.384757 0.358595 0.511591 0.18498
C_ C_ 0.41258 0.402057 0.518036 -0.08735
C_ C_ 0.431254 0.408743 0.546656 -0.08735
C_ C_ 0.420641 0.37356 0.566627 -0.08735
C_ C_ 0.382049 0.336335 0.561804 0.18498
C_ C_ 0.36659 0.324398 0.53329 -0.05681
C_ C_ 0.338545 0.279826 0.527912 -0.08735
C_ C_ 0.329442 0.246639 0.550437 -0.08735
C_ C_ 0.340915 0.260098 0.578819 0.1947
N_ N_ 0.135991 0.169521 0.979803 -0.29468
N_ N_ 0.142409 0.207365 0.58286 -0.17154
N_ N_ 0.114796 0.172998 0.730469 -0.17154
N_ N_ 0.137673 0.197047 0.83575 -0.29468
N_ N_ 0.369414 0.33596 0.725361 -0.29468
N_ N_ 0.352076 0.308146 0.829544 -0.17154
N_ N_ 0.388034 0.320918 0.978501 -0.17154
N_ N_ 0.366018 0.304569 0.584531 -0.29468
O_ O_ 0.216907 0.178135 0.933264 -0.58347
O_ O_ 0.208138 0.192964 0.887914 -0.58347
O_ O_ 0.141496 0.253982 0.935525 -0.58347
O_ O_ 0.118272 0.259006 0.89023 -0.58347
O_ O_ 0.147321 0.102265 0.927084 -0.58347
O_ O_ 0.14431 0.111061 0.880728 -0.58347
O_ O_ 0.0689814 0.171008 0.932756 -0.58347
O_ O_ 0.0585914 0.168567 0.885857 -0.58347
O_ O_ 0.0580204 0.230384 0.58159 -0.46727
O_ O_ 0.229645 0.198919 0.587556 -0.46727
O_ O_ 0.029554 0.180962 0.726547 -0.46727
O_ O_ 0.199402 0.15741 0.734312 -0.46727
O_ O_ 0.291928 0.324415 0.674635 -0.58347
O_ O_ 0.299113 0.312554 0.628817 -0.58347
O_ O_ 0.369712 0.241752 0.684055 -0.58347
O_ O_ 0.373123 0.239974 0.63708 -0.58347
O_ O_ 0.362542 0.39662 0.671112 -0.58347
O_ O_ 0.378077 0.392068 0.624152 -0.58347
O_ O_ 0.438031 0.32529 0.677903 -0.58347
O_ O_ 0.449979 0.30776 0.632814 -0.58347
O_ O_ 0.424958 0.260032 0.828414 -0.46727
O_ O_ 0.268285 0.336032 0.834874 -0.46727
O_ O_ 0.473752 0.309887 0.969365 -0.46727
O_ O_ 0.304321 0.349944 0.98503 -0.46727
Zn Zn 0.117808 0.683888 0.381113 0.90689
Zn Zn 0.126215 0.682903 0.429291 0.90689
Zn Zn 0.371795 0.812553 0.131031 0.90689
Zn Zn 0.364497 0.816231 0.179677 0.90689
H_ H_ 0.292277 0.705578 0.441686 0.11455
H_ H_ 0.36256 0.67249 0.34633 0.11455
H_ H_ 0.267164 0.674451 0.353599 0.11455
H_ H_ 0.375289 0.683541 0.464184 0.11455
H_ H_ 0.468481 0.665634 0.458033 0.11455
H_ H_ 0.449411 0.680128 0.366559 0.11455
H_ H_ 0.151257 0.515862 0.441628 0.11455
H_ H_ 0.0924377 0.939895 0.351326 0.11455
H_ H_ 0.144197 0.531704 0.350633 0.11455
H_ H_ 0.143681 0.922636 0.46644 0.11455
H_ H_ 0.146309 0.837535 0.457918 0.11455
H_ H_ 0.0965757 0.855208 0.37106 0.11455
H_ H_ 0.0738187 0.609283 0.465673 0.11455
H_ H_ 0.0505177 0.585598 0.0174425 0.11455
H_ H_ 0.0862405 0.629818 0.0568971 0.11455
H_ H_ 0.186874 0.748254 0.469509 0.11455
H_ H_ 0.213428 0.797468 0.0145025 0.11455
H_ H_ 0.199915 0.770322 0.0657971 0.11455
H_ H_ 0.0130116 0.721516 0.124579 0.11455
H_ H_ -0.0038970000000000393 0.710783 0.177692 0.11455
H_ H_ 0.24851 0.637213 0.140628 0.11455
H_ H_ 0.242582 0.642688 0.194021 0.11455
H_ H_ 0.0526804 0.579258 0.250903 0.11455
H_ H_ 0.0385314 0.556785 0.303073 0.11455
H_ H_ 0.0560229 0.624 0.342036 0.11455
H_ H_ 0.145629 0.73884 0.257763 0.11455
H_ H_ 0.17432 0.79063 0.29564 0.11455
H_ H_ 0.159981 0.768974 0.345681 0.11455
H_ H_ 0.203389 0.8208 0.195934 0.11455
H_ H_ 0.129267 0.822393 0.100149 0.11455
H_ H_ 0.217311 0.815069 0.105592 0.11455
H_ H_ 0.113471 0.798603 0.216954 0.11455
H_ H_ 0.0211738 0.810254 0.210415 0.11455
H_ H_ 0.0442643 0.837481 0.122151 0.11455
H_ H_ 0.393943 0.979712 0.190071 0.11455
H_ H_ 0.423447 0.558311 0.103967 0.11455
H_ H_ 0.339448 0.969225 0.104555 0.11455
H_ H_ 0.330281 0.56734 0.208791 0.11455
H_ H_ 0.343717 0.660231 0.205466 0.11455
H_ H_ 0.39813 0.638781 0.118479 0.11455
H_ H_ 0.413696 0.889522 0.213407 0.11455
H_ H_ 0.430236 0.92059 0.264395 0.11455
H_ H_ 0.40309 0.874622 0.303556 0.11455
H_ H_ 0.303409 0.743583 0.22665 0.11455
H_ H_ 0.272526 0.698346 0.270144 0.11455
H_ H_ 0.296958 0.729859 0.318203 0.11455
H_ H_ 0.485333 0.790078 0.375601 0.11455
H_ H_ 0.498685 0.802629 0.426339 0.11455
H_ H_ 0.238387 0.845011 0.3915 0.11455
H_ H_ 0.246821 0.842504 0.443703 0.11455
H_ H_ 0.431853 0.921981 0.49944 0.11455
H_ H_ 0.437579 0.934174 0.050381 0.11455
H_ H_ 0.428 0.865488 0.0872122 0.11455
H_ H_ 0.331647 0.752135 0.00649904 0.11455
H_ H_ 0.303245 0.703957 0.0477394 0.11455
H_ H_ 0.303206 0.739061 0.0949964 0.11455
C_ C_ 0.219524 0.69205 0.402467 0.68181
C_ C_ 0.274509 0.687657 0.398872 -0.05681
C_ C_ 0.3073 0.692359 0.422179 -0.08735
C_ C_ 0.359103 0.686717 0.418898 -0.05681
C_ C_ 0.377627 0.684211 0.390549 -0.05681
C_ C_ 0.346728 0.678111 0.367119 -0.08735
C_ C_ 0.294852 0.682594 0.371306 -0.08735
C_ C_ 0.391961 0.686426 0.443742 -0.08735
C_ C_ 0.443717 0.678473 0.439289 -0.08735
C_ C_ 0.462974 0.677018 0.411204 -0.05681
C_ C_ 0.430603 0.678543 0.386828 -0.08735
C_ C_ 0.109438 0.782533 0.411338 0.68181
C_ C_ 0.135241 0.588041 0.398371 0.68181
C_ C_ 0.140411 0.531463 0.396601 -0.05681
C_ C_ 0.140324 0.996292 0.423254 -0.08735
C_ C_ 0.129019 0.944243 0.420669 -0.05681
C_ C_ 0.117529 0.923688 0.393607 -0.05681
C_ C_ 0.108083 0.956412 0.370879 -0.08735
C_ C_ 0.115672 1.008638 0.373802 -0.08735
C_ C_ 0.133377 0.909899 0.444272 -0.08735
C_ C_ 0.135083 0.858697 0.439665 -0.08735
C_ C_ 0.119298 0.837966 0.413998 -0.05681
C_ C_ 0.106431 0.872107 0.391348 -0.08735
C_ C_ 0.0232754 0.672444 0.408532 0.68181
C_ C_ 0.0930545 0.629428 0.48259 0.1947
C_ C_ 0.0775798 0.614881 0.0135597 -0.08735
C_ C_ 0.100316 0.638127 0.0357101 -0.08735
C_ C_ 0.137447 0.675783 0.0316405 -0.05681
C_ C_ 0.148192 0.688815 1.00282577 0.18498
C_ C_ 0.18065 0.736695 0.491119 -0.08735
C_ C_ 0.201261 0.758799 0.0199514 -0.08735
C_ C_ 0.186058 0.748032 0.0487813 -0.08735
C_ C_ 0.157221 0.703976 0.0548249 0.18498
C_ C_ 0.185264 0.67553 0.101581 0.44287
C_ C_ 0.100918 0.705045 0.0959849 0.44287
C_ C_ 0.0902973 0.697231 0.125335 -0.05681
C_ C_ 0.0434667 0.707538 0.137463 -0.08735
C_ C_ 0.0331391 0.700169 0.168029 -0.08735
C_ C_ 0.0729923 0.680774 0.184801 -0.05681
C_ C_ 0.120815 0.669824 0.172553 -0.05681
C_ C_ 0.129381 0.679235 0.143781 -0.05681
C_ C_ 0.176517 0.667339 0.131306 -0.05681
C_ C_ 0.215474 0.650438 0.150605 -0.08735
C_ C_ 0.209915 0.648666 0.18003 -0.08735
C_ C_ 0.162062 0.661508 0.191856 -0.05681
C_ C_ 0.151565 0.652617 0.220274 0.44287
C_ C_ 0.0663607 0.677722 0.215471 0.44287
C_ C_ 0.0945575 0.648888 0.261651 0.18498
C_ C_ 0.0643155 0.607029 0.269043 -0.08735
C_ C_ 0.0522607 0.594368 0.298583 -0.08735
C_ C_ 0.0691534 0.628846 0.320517 -0.08735
C_ C_ 0.0988732 0.671515 0.313572 0.18498
C_ C_ 0.10971 0.681559 0.283965 -0.05681
C_ C_ 0.132603 0.729287 0.278609 -0.08735
C_ C_ 0.157629 0.754583 0.299213 -0.08735
C_ C_ 0.144781 0.744285 0.328031 0.1947
C_ C_ 0.272997 0.814029 0.156141 0.68181
C_ C_ 0.216999 0.81105 0.151778 -0.05681
C_ C_ 0.184664 0.814404 0.176708 -0.08735
C_ C_ 0.132508 0.822112 0.174821 -0.05681
C_ C_ 0.112566 0.825066 0.146474 -0.05681
C_ C_ 0.143506 0.823001 0.122678 -0.08735
C_ C_ 0.195659 0.816224 0.124506 -0.08735
C_ C_ 0.0995898 0.817656 0.198146 -0.08735
C_ C_ 0.0482969 0.816138 0.193036 -0.08735
C_ C_ 0.0260672 0.825998 0.165408 -0.05681
C_ C_ 0.0588666 0.827707 0.141489 -0.08735
C_ C_ 0.375064 0.715947 0.160588 0.68181
C_ C_ 0.361014 0.91139 0.150634 0.68181
C_ C_ 0.359022 0.966685 0.149879 -0.05681
C_ C_ 0.363218 0.499739 0.171321 -0.08735
C_ C_ 0.363291 0.552693 0.16736 -0.05681
C_ C_ 0.385934 0.573 0.143606 -0.05681
C_ C_ 0.400334 0.541975 0.120944 -0.08735
C_ C_ 0.344477 -0.009122999999999992 0.124825 -0.08735
C_ C_ 0.348741 0.584013 0.19079 -0.08735
C_ C_ 0.359149 0.635707 0.189991 -0.08735
C_ C_ 0.375378 0.658135 0.164204 -0.05681
C_ C_ 0.386292 0.625444 0.140317 -0.08735
C_ C_ 0.465652 0.819338 0.152789 0.68181
C_ C_ 0.399245 0.870397 0.231434 0.1947
C_ C_ 0.415133 0.884788 0.259138 -0.08735
C_ C_ 0.392636 0.859907 0.282331 -0.08735
C_ C_ 0.361046 0.816409 0.279915 -0.05681
C_ C_ 0.34763 0.80297 0.250974 0.18498
C_ C_ 0.312081 0.762225 0.247583 -0.08735
C_ C_ 0.296087 0.734488 0.272032 -0.08735
C_ C_ 0.30887 0.748848 0.299805 -0.08735
C_ C_ 0.338542 0.79139 0.304246 0.18498
C_ C_ 0.310631 0.827061 0.350393 0.44287
C_ C_ 0.395154 0.797284 0.345948 0.44287
C_ C_ 0.403377 0.806247 0.37568 -0.05681
C_ C_ 0.452042 0.798747 0.387835 -0.08735
C_ C_ 0.461646 0.812012 0.416773 -0.08735
C_ C_ 0.421549 0.824885 0.434735 -0.05681
C_ C_ 0.372343 0.822334 0.423552 -0.05681
C_ C_ 0.363225 0.817122 0.393816 -0.05681
C_ C_ 0.316202 0.829681 0.381435 -0.05681
C_ C_ 0.27619 0.842095 0.400057 -0.08735
C_ C_ 0.281651 0.840072 0.43036 -0.08735
C_ C_ 0.331045 0.83235 0.441922 -0.05681
C_ C_ 0.340269 0.836191 0.47194 0.44287
C_ C_ 0.430111 0.830003 0.463898 0.44287
C_ C_ 0.384925 0.840799 0.0092003 0.18498
C_ C_ 0.405922 0.887987 0.0158927 -0.08735
C_ C_ 0.422606 0.897113 0.0449303 -0.08735
C_ C_ 0.412759 0.863507 0.0664731 -0.08735
C_ C_ 0.381422 0.821083 0.0607357 0.18498
C_ C_ 0.370014 0.808304 0.0325104 -0.05681
C_ C_ 0.340509 0.764337 0.0277513 -0.08735
C_ C_ 0.320392 0.739041 0.0507296 -0.08735
C_ C_ 0.32498 0.75798 0.0782626 0.1947
N_ N_ 0.124954 0.668377 0.475636 -0.29468
N_ N_ 0.146439 0.692577 0.0851205 -0.17154
N_ N_ 0.104759 0.664127 0.232455 -0.17154
N_ N_ 0.119165 0.701643 0.334652 -0.29468
N_ N_ 0.371003 0.825532 0.227735 -0.29468
N_ N_ 0.347612 0.806827 0.334267 -0.17154
N_ N_ 0.390609 0.83808 0.482103 -0.17154
N_ N_ 0.356949 0.796965 0.083156 -0.29468
O_ O_ 0.201092 0.692075 0.427461 -0.58347
O_ O_ 0.189885 0.692868 0.381096 -0.58347
O_ O_ 0.107911 0.757726 0.434642 -0.58347
O_ O_ 0.114237 0.760906 0.387049 -0.58347
O_ O_ 0.135478 0.608701 0.422343 -0.58347
O_ O_ 0.125885 0.613824 0.375299 -0.58347
O_ O_ 0.0514607 0.673988 0.429752 -0.58347
O_ O_ 0.0425906 0.671919 0.383513 -0.58347
O_ O_ 0.0659456 0.726438 0.0796307 -0.46727
O_ O_ 0.230738 0.671273 0.0898436 -0.46727
O_ O_ 0.0218585 0.690432 0.227038 -0.46727
O_ O_ 0.186928 0.638307 0.237871 -0.46727
O_ O_ 0.290095 0.807066 0.180492 -0.58347
O_ O_ 0.300411 0.819765 0.135605 -0.58347
O_ O_ 0.369456 0.73964 0.18371 -0.58347
O_ O_ 0.367771 0.737132 0.136689 -0.58347
O_ O_ 0.352559 0.887126 0.17332 -0.58347
O_ O_ 0.377492 0.887347 0.128153 -0.58347
O_ O_ 0.437599 0.828052 0.174156 -0.58347
O_ O_ 0.446725 0.806137 0.128981 -0.58347
O_ O_ 0.432871 0.78181 0.328981 -0.46727
O_ O_ 0.265535 0.83518 0.339339 -0.46727
O_ O_ 0.475476 0.830988 0.474562 -0.46727
O_ O_ 0.30207 0.840608 0.490549 -0.46727
Zn Zn 0.130455 0.6845 0.882093 0.90689
Zn Zn 0.136651 0.679979 0.932707 0.90689
Zn Zn 0.382367 0.81401 0.635721 0.90689
Zn Zn 0.373586 0.82461 0.68186 0.90689
H_ H_ 0.304278 0.675961 0.944905 0.11455
H_ H_ 0.366749 0.661773 0.846679 0.11455
H_ H_ 0.279598 0.664129 0.852846 0.11455
H_ H_ 0.385527 0.663157 0.964424 0.11455
H_ H_ 0.476055 0.680701 0.956155 0.11455
H_ H_ 0.455333 0.659211 0.863895 0.11455
H_ H_ 0.113293 0.513882 0.940149 0.11455
H_ H_ 0.109031 0.938939 0.851931 0.11455
H_ H_ 0.180362 0.520872 0.855957 0.11455
H_ H_ 0.157844 0.92589 0.96661 0.11455
H_ H_ 0.125643 0.83611 0.963757 0.11455
H_ H_ 0.12096 0.850102 0.871923 0.11455
H_ H_ 0.0777308 0.604275 0.967937 0.11455
H_ H_ 0.0668099 0.57701 0.516205 0.11455
H_ H_ 0.114043 0.622658 0.554298 0.11455
H_ H_ 0.194823 0.741854 0.975851 0.11455
H_ H_ 0.218722 0.800594 0.509699 0.11455
H_ H_ 0.205815 0.775024 0.558322 0.11455
H_ H_ 1.0177873 0.712453 0.620922 0.11455
H_ H_ 1.0077396 0.697916 0.674725 0.11455
H_ H_ 0.269897 0.666982 0.63405 0.11455
H_ H_ 0.25449 0.646383 0.686342 0.11455
H_ H_ 0.0783589 0.58239 0.745814 0.11455
H_ H_ 0.057435 0.5592 0.799121 0.11455
H_ H_ 0.0845213 0.620213 0.836724 0.11455
H_ H_ 0.157443 0.749449 0.753798 0.11455
H_ H_ 0.203993 0.786934 0.793546 0.11455
H_ H_ 0.174128 0.76507 0.845374 0.11455
H_ H_ 0.20414 0.79183 0.700372 0.11455
H_ H_ 0.138483 0.809814 0.603281 0.11455
H_ H_ 0.230949 0.812682 0.61246 0.11455
H_ H_ 0.115809 0.814819 0.720974 0.11455
H_ H_ 0.022987 0.807588 0.708422 0.11455
H_ H_ 0.0527923 0.827826 0.620393 0.11455
H_ H_ 0.314886 0.98432 0.68465 0.11455
H_ H_ 0.41681 0.570596 0.602955 0.11455
H_ H_ 0.386757 0.972848 0.602382 0.11455
H_ H_ 0.338544 0.570726 0.712772 0.11455
H_ H_ 0.347446 0.663583 0.707953 0.11455
H_ H_ 0.411574 0.650041 0.624358 0.11455
H_ H_ 0.419615 0.899951 0.719659 0.11455
H_ H_ 0.433303 0.924058 0.768922 0.11455
H_ H_ 0.397334 0.869729 0.808856 0.11455
H_ H_ 0.302867 0.760109 0.72182 0.11455
H_ H_ 0.275655 0.700987 0.757921 0.11455
H_ H_ 0.309481 0.710662 0.807156 0.11455
H_ H_ 0.487113 0.774255 0.875063 0.11455
H_ H_ 0.49754 0.797489 0.925466 0.11455
H_ H_ 0.23937 0.822449 0.884916 0.11455
H_ H_ 0.249259 0.85059 0.933325 0.11455
H_ H_ 0.422173 0.909593 0.998409 0.11455
H_ H_ 0.454763 0.944145 0.549483 0.11455
H_ H_ 0.440773 0.886211 0.589428 0.11455
H_ H_ 0.364132 0.756279 0.508219 0.11455
H_ H_ 0.337012 0.702835 0.548035 0.11455
H_ H_ 0.346881 0.729735 0.597857 0.11455
C_ C_ 0.230968 0.684155 0.90506 0.68181
C_ C_ 0.284381 0.674311 0.900352 -0.05681
C_ C_ 0.318505 0.673045 0.923417 -0.08735
C_ C_ 0.37002 0.664356 0.918817 -0.05681
C_ C_ 0.389516 0.663127 0.89077 -0.05681
C_ C_ 0.354658 0.656687 0.867902 -0.08735
C_ C_ 0.303023 0.665699 0.872006 -0.08735
C_ C_ 0.400179 0.666183 0.942107 -0.08735
C_ C_ 0.45271 0.667792 0.938626 -0.08735
C_ C_ 0.474254 0.662228 0.909987 -0.05681
C_ C_ 0.442662 0.661719 0.886062 -0.08735
C_ C_ 0.124332 0.780834 0.914491 0.68181
C_ C_ 0.138139 0.582552 0.898815 0.68181
C_ C_ 0.139278 0.526169 0.897408 -0.05681
C_ C_ 0.141796 0.997665 0.923662 -0.08735
C_ C_ 0.133849 0.943469 0.922852 -0.05681
C_ C_ 0.123279 0.92131 0.895499 -0.05681
C_ C_ 0.125515 0.9517 0.870302 -0.08735
C_ C_ 0.131262 0.00272557 0.872712 -0.08735
C_ C_ 0.143568 0.911329 0.946037 -0.08735
C_ C_ 0.127101 0.861449 0.94446 -0.08735
C_ C_ 0.117712 0.836439 0.9181 -0.05681
C_ C_ 0.120353 0.867655 0.893361 -0.08735
C_ C_ 0.0346524 0.676175 0.908861 0.68181
C_ C_ 0.0916962 0.626363 0.985159 0.1947
C_ C_ 0.0901665 0.609161 0.510756 -0.08735
C_ C_ 0.114266 0.636429 0.532546 -0.08735
C_ C_ 0.143439 0.676201 0.526393 -0.05681
C_ C_ 0.147291 0.695346 0.49662 0.18498
C_ C_ 0.185088 0.729041 0.996777 -0.08735
C_ C_ 0.200729 0.76621 0.513225 -0.08735
C_ C_ 0.186571 0.753555 0.54146 -0.08735
C_ C_ 0.162175 0.708127 0.54856 0.18498
C_ C_ 0.19614 0.685757 0.596054 0.44287
C_ C_ 0.107636 0.703909 0.591479 0.44287
C_ C_ 0.0994524 0.691994 0.620417 -0.05681
C_ C_ 0.0516631 0.701305 0.633996 -0.08735
C_ C_ 0.0458798 0.696603 0.664037 -0.08735
C_ C_ 0.0888732 0.690762 0.681346 -0.05681
C_ C_ 0.136419 0.682267 0.668974 -0.05681
C_ C_ 0.140694 0.685105 0.638389 -0.05681
C_ C_ 0.190326 0.682366 0.626748 -0.05681
C_ C_ 0.232126 0.67024 0.64349 -0.08735
C_ C_ 0.22429 0.661569 0.672924 -0.08735
C_ C_ 0.176628 0.666245 0.685397 -0.05681
C_ C_ 0.169053 0.657495 0.715018 0.44287
C_ C_ 0.0852 0.689934 0.711882 0.44287
C_ C_ 0.112667 0.655413 0.757223 0.18498
C_ C_ 0.0906621 0.606519 0.763593 -0.08735
C_ C_ 0.0774001 0.593562 0.792904 -0.08735
C_ C_ 0.0884016 0.630489 0.81455 -0.08735
C_ C_ 0.113643 0.674864 0.809667 0.18498
C_ C_ 0.125562 0.689396 0.781347 -0.05681
C_ C_ 0.152003 0.733831 0.776074 -0.08735
C_ C_ 0.175636 0.757813 0.799075 -0.08735
C_ C_ 0.163486 0.742389 0.827768 0.1947
C_ C_ 0.280184 0.80243 0.660963 0.68181
C_ C_ 0.225638 0.80388 0.657367 -0.05681
C_ C_ 0.191121 0.803766 0.680352 -0.08735
C_ C_ 0.137204 0.81272 0.676228 -0.05681
C_ C_ 0.119134 0.815951 0.647485 -0.05681
C_ C_ 0.154043 0.810259 0.625315 -0.08735
C_ C_ 0.206357 0.811173 0.629974 -0.08735
C_ C_ 0.1021 0.814867 0.698744 -0.08735
C_ C_ 0.0505407 0.8235 0.692785 -0.08735
C_ C_ 0.0333784 0.826533 0.664421 -0.05681
C_ C_ 0.0669933 0.826814 0.642325 -0.08735
C_ C_ 0.388802 0.721488 0.664814 0.68181
C_ C_ 0.369305 0.917064 0.648791 0.68181
C_ C_ 0.360224 0.972137 0.644758 -0.05681
C_ C_ 0.36187 0.505058 0.670525 -0.08735
C_ C_ 0.365497 0.557868 0.669251 -0.05681
C_ C_ 0.387031 0.579836 0.643241 -0.05681
C_ C_ 0.401928 0.550587 0.621144 -0.08735
C_ C_ 0.376546 0.996284 0.619865 -0.08735
C_ C_ 0.351509 0.587422 0.692562 -0.08735
C_ C_ 0.361317 0.64 0.691153 -0.08735
C_ C_ 0.384006 0.663736 0.666007 -0.05681
C_ C_ 0.39317 0.632774 0.642073 -0.08735
C_ C_ 0.477514 0.82128 0.656612 0.68181
C_ C_ 0.403611 0.873466 0.735904 0.1947
C_ C_ 0.414133 0.88775 0.763513 -0.08735
C_ C_ 0.392331 0.85745 0.786369 -0.08735
C_ C_ 0.363383 0.816173 0.778877 -0.05681
C_ C_ 0.349456 0.807651 0.749249 0.18498
C_ C_ 0.311748 0.771426 0.742831 -0.08735
C_ C_ 0.295367 0.736943 0.764428 -0.08735
C_ C_ 0.314616 0.742065 0.792254 -0.08735
C_ C_ 0.348733 0.780215 0.799819 0.18498
C_ C_ 0.313676 0.798511 0.846732 0.44287
C_ C_ 0.403335 0.788762 0.842246 0.44287
C_ C_ 0.408963 0.798592 0.872195 -0.05681
C_ C_ 0.455547 0.790092 0.886599 -0.08735
C_ C_ 0.461361 0.798307 0.91673 -0.08735
C_ C_ 0.418921 0.816115 0.933305 -0.05681
C_ C_ 0.37226 0.821042 0.919089 -0.05681
C_ C_ 0.368863 0.812081 0.888525 -0.05681
C_ C_ 0.319472 0.809111 0.876432 -0.05681
C_ C_ 0.278949 0.822205 0.893588 -0.08735
C_ C_ 0.283296 0.838463 0.921722 -0.08735
C_ C_ 0.329747 0.833419 0.935796 -0.05681
C_ C_ 0.334373 0.838334 0.965833 0.44287
C_ C_ 0.420102 0.81668 0.963506 0.44287
C_ C_ 0.398469 0.851498 0.511781 0.18498
C_ C_ 0.423482 0.896049 0.517905 -0.08735
C_ C_ 0.435458 0.909532 0.546265 -0.08735
C_ C_ 0.422796 0.876498 0.569183 -0.08735
C_ C_ 0.397787 0.828619 0.563429 0.18498
C_ C_ 0.386396 0.818127 0.534482 -0.05681
C_ C_ 0.36543 0.770932 0.529391 -0.08735
C_ C_ 0.354114 0.737633 0.552389 -0.08735
C_ C_ 0.360764 0.753561 0.580056 0.1947
N_ N_ 0.127691 0.663191 0.980159 -0.29468
N_ N_ 0.155078 0.698644 0.579451 -0.17154
N_ N_ 0.124282 0.667485 0.727478 -0.17154
N_ N_ 0.130862 0.702956 0.832072 -0.29468
N_ N_ 0.374335 0.834251 0.728156 -0.29468
N_ N_ 0.354761 0.792695 0.830338 -0.17154
N_ N_ 0.378195 0.825988 0.979475 -0.17154
N_ N_ 0.378834 0.798982 0.585269 -0.29468
O_ O_ 0.211023 0.682437 0.92953 -0.58347
O_ O_ 0.204962 0.702727 0.885123 -0.58347
O_ O_ 0.137506 0.752867 0.93587 -0.58347
O_ O_ 0.11902 0.759859 0.889916 -0.58347
O_ O_ 0.132886 0.605444 0.922939 -0.58347
O_ O_ 0.14271 0.610163 0.876611 -0.58347
O_ O_ 0.0636007 0.678965 0.929677 -0.58347
O_ O_ 0.0540906 0.67369 0.884676 -0.58347
O_ O_ 0.0724417 0.723937 0.574786 -0.46727
O_ O_ 0.240337 0.678985 0.582886 -0.46727
O_ O_ 0.0396911 0.698799 0.724193 -0.46727
O_ O_ 0.20544 0.634148 0.730588 -0.46727
O_ O_ 0.296995 0.828643 0.681839 -0.58347
O_ O_ 0.307907 0.797457 0.638415 -0.58347
O_ O_ 0.369425 0.74858 0.684573 -0.58347
O_ O_ 0.394676 0.740211 0.639461 -0.58347
O_ O_ 0.382539 0.901542 0.673959 -0.58347
O_ O_ 0.362031 0.885978 0.628994 -0.58347
O_ O_ 0.44908 0.817015 0.678831 -0.58347
O_ O_ 0.456759 0.829734 0.632326 -0.58347
O_ O_ 0.443049 0.785299 0.825761 -0.46727
O_ O_ 0.267346 0.796117 0.835718 -0.46727
O_ O_ 0.465938 0.809427 0.97528 -0.46727
O_ O_ 0.292019 0.841422 0.981274 -0.46727
Zn Zn 0.624537 0.192894 0.378548 0.90689
Zn Zn 0.637381 0.178491 0.427286 0.90689
Zn Zn 0.877178 0.319054 0.132239 0.90689
Zn Zn 0.870181 0.324122 0.179251 0.90689
H_ H_ 0.805102 0.20164 0.43889 0.11455
H_ H_ 0.877622 0.153956 0.344094 0.11455
H_ H_ 0.778274 0.159804 0.353889 0.11455
H_ H_ 0.892129 0.208768 0.459142 0.11455
H_ H_ 0.98128 0.192024 0.454592 0.11455
H_ H_ 0.95821 0.153068 0.362434 0.11455
H_ H_ 0.628398 0.0172373 0.44082 0.11455
H_ H_ 0.640963 0.443283 0.346742 0.11455
H_ H_ 0.618079 0.0287498 0.35035 0.11455
H_ H_ 0.599429 0.426793 0.462049 0.11455
H_ H_ 0.630808 0.339936 0.456368 0.11455
H_ H_ 0.634676 0.355466 0.365524 0.11455
H_ H_ 0.58812 0.100572 0.4617 0.11455
H_ H_ 0.590885 0.0553468 0.0143671 0.11455
H_ H_ 0.620219 0.11077 0.0550932 0.11455
H_ H_ 0.679703 0.251269 0.472289 0.11455
H_ H_ 0.721839 0.292337 0.00905114 0.11455
H_ H_ 0.698231 0.277529 0.0599757 0.11455
H_ H_ 0.506988 0.176125 0.115081 0.11455
H_ H_ 0.495806 0.186451 0.165799 0.11455
H_ H_ 0.758359 0.19528 0.139121 0.11455
H_ H_ 0.746215 0.176881 0.188505 0.11455
H_ H_ 0.540933 0.104727 0.249176 0.11455
H_ H_ 0.519629 0.0885608 0.298195 0.11455
H_ H_ 0.56512 0.134984 0.336992 0.11455
H_ H_ 0.648151 0.252596 0.251074 0.11455
H_ H_ 0.691495 0.295891 0.287916 0.11455
H_ H_ 0.684526 0.266827 0.33913 0.11455
H_ H_ 0.703188 0.29996 0.194263 0.11455
H_ H_ 0.63498 0.316217 0.0952814 0.11455
H_ H_ 0.723648 0.320107 0.102636 0.11455
H_ H_ 0.616683 0.296163 0.212609 0.11455
H_ H_ 0.523387 0.295307 0.206322 0.11455
H_ H_ 0.547931 0.308113 0.116183 0.11455
H_ H_ 0.886678 0.48891 0.19237 0.11455
H_ H_ 0.887151 0.0675485 0.0980363 0.11455
H_ H_ 0.882673 0.481021 0.0983403 0.11455
H_ H_ 0.826561 0.0769707 0.209611 0.11455
H_ H_ 0.856191 0.164389 0.20957 0.11455
H_ H_ 0.884111 0.154188 0.119448 0.11455
H_ H_ 0.918325 0.397322 0.215083 0.11455
H_ H_ 0.921063 0.433737 0.262119 0.11455
H_ H_ 0.894803 0.38386 0.304049 0.11455
H_ H_ 0.801234 0.265137 0.223517 0.11455
H_ H_ 0.774971 0.208821 0.262926 0.11455
H_ H_ 0.793646 0.228002 0.314109 0.11455
H_ H_ 0.979751 0.295054 0.375743 0.11455
H_ H_ -0.013336000000000015 0.308525 0.426032 0.11455
H_ H_ 0.73613 0.367207 0.383872 0.11455
H_ H_ 0.743259 0.370142 0.436683 0.11455
H_ H_ 0.927137 0.41988 0.501303 0.11455
H_ H_ 0.974011 0.416149 0.0452185 0.11455
H_ H_ 0.941494 0.373206 0.0860574 0.11455
H_ H_ 0.832426 0.258661 0.00816435 0.11455
H_ H_ 0.800477 0.209142 0.0486943 0.11455
H_ H_ 0.820298 0.239043 0.0975143 0.11455
C_ C_ 0.730021 0.187446 0.400808 0.68181
C_ C_ 0.786046 0.178008 0.397021 -0.05681
C_ C_ 0.819451 0.18657 0.419813 -0.08735
C_ C_ 0.872833 0.184601 0.4157 -0.05681
C_ C_ 0.892406 0.174625 0.387918 -0.05681
C_ C_ 0.859353 0.16646 0.365165 -0.08735
C_ C_ 0.805059 0.165045 0.370006 -0.08735
C_ C_ 0.906722 0.196279 0.438687 -0.08735
C_ C_ 0.957603 0.182854 0.435813 -0.08735
C_ C_ 0.978404 0.172573 0.40836 -0.05681
C_ C_ 0.94512 0.168135 0.383906 -0.08735
C_ C_ 0.618974 0.282752 0.408809 0.68181
C_ C_ 0.628565 0.0865843 0.398822 0.68181
C_ C_ 0.62977 0.0297286 0.396092 -0.05681
C_ C_ 0.613437 0.499017 0.421021 -0.08735
C_ C_ 0.611457 0.44539 0.41668 -0.05681
C_ C_ 0.620172 0.426121 0.389503 -0.05681
C_ C_ 0.630978 0.458215 0.366478 -0.08735
C_ C_ 0.631603 0.510215 0.37008 -0.08735
C_ C_ 0.613976 0.413585 0.441373 -0.08735
C_ C_ 0.619033 0.362554 0.438499 -0.08735
C_ C_ 0.622705 0.339417 0.411255 -0.05681
C_ C_ 0.627536 0.372925 0.387387 -0.08735
C_ C_ 0.53399 0.180494 0.404272 0.68181
C_ C_ 0.606447 0.121928 0.47928 0.1947
C_ C_ 0.605346 0.0942003 0.0111966 -0.08735
C_ C_ 0.622387 0.124026 0.0340112 -0.08735
C_ C_ 0.645119 0.172221 0.0271502 -0.05681
C_ C_ 0.65226 0.187939 0.998352 0.18498
C_ C_ 0.673901 0.238778 0.493383 -0.08735
C_ C_ 0.692258 0.264697 0.0149549 -0.08735
C_ C_ 0.683508 0.253163 0.0432152 -0.08735
C_ C_ 0.659276 0.205094 0.0495327 0.18498
C_ C_ 0.689434 0.176529 0.0960358 0.44287
C_ C_ 0.600902 0.194264 0.0900356 0.44287
C_ C_ 0.590051 0.178691 0.118699 -0.05681
C_ C_ 0.540483 0.180607 0.128667 -0.08735
C_ C_ 0.534375 0.186055 0.157739 -0.08735
C_ C_ 0.574192 0.182834 0.178461 -0.05681
C_ C_ 0.623242 0.176679 0.16818 -0.05681
C_ C_ 0.631977 0.177586 0.137443 -0.05681
C_ C_ 0.681025 0.182814 0.126628 -0.05681
C_ C_ 0.721307 0.184354 0.146622 -0.08735
C_ C_ 0.714134 0.176348 0.175716 -0.08735
C_ C_ 0.66529 0.173848 0.187094 -0.05681
C_ C_ 0.653756 0.16672 0.216319 0.44287
C_ C_ 0.566031 0.183506 0.207726 0.44287
C_ C_ 0.592583 0.166705 0.257445 0.18498
C_ C_ 0.559923 0.128496 0.264618 -0.08735
C_ C_ 0.546547 0.119169 0.293429 -0.08735
C_ C_ 0.573084 0.144433 0.315445 -0.08735
C_ C_ 0.607371 0.182838 0.309618 0.18498
C_ C_ 0.616003 0.195861 0.279543 -0.05681
C_ C_ 0.643396 0.238788 0.273558 -0.08735
C_ C_ 0.668828 0.264103 0.29492 -0.08735
C_ C_ 0.664557 0.246921 0.323351 0.1947
C_ C_ 0.775445 0.321685 0.152297 0.68181
C_ C_ 0.720551 0.314735 0.149385 -0.05681
C_ C_ 0.688246 0.310697 0.173699 -0.08735
C_ C_ 0.635737 0.309018 0.168986 -0.05681
C_ C_ 0.61575 0.310753 0.14041 -0.05681
C_ C_ 0.648965 0.314517 0.117065 -0.08735
C_ C_ 0.700317 0.315037 0.122143 -0.08735
C_ C_ 0.60224 0.301799 0.192485 -0.08735
C_ C_ 0.549362 0.301507 0.187865 -0.08735
C_ C_ 0.530127 0.304554 0.160349 -0.05681
C_ C_ 0.563473 0.308022 0.136827 -0.08735
C_ C_ 0.878229 0.223629 0.161948 0.68181
C_ C_ 0.875504 0.419653 0.148499 0.68181
C_ C_ 0.87985 0.477542 0.146462 -0.05681
C_ C_ 0.846779 0.00693503 0.170774 -0.08735
C_ C_ 0.854404 0.0588111 0.169257 -0.05681
C_ C_ 0.865647 0.0828318 0.141609 -0.05681
C_ C_ 0.869657 0.0512978 0.117816 -0.08735
C_ C_ 0.881446 0.501816 0.118926 -0.08735
C_ C_ 0.847227 0.0919986 0.191781 -0.08735
C_ C_ 0.856048 0.143244 0.189415 -0.08735
C_ C_ 0.870661 0.167146 0.163929 -0.05681
C_ C_ 0.870826 0.136718 0.139235 -0.08735
C_ C_ 0.970492 0.326553 0.156271 0.68181
C_ C_ 0.894282 0.383511 0.232592 0.1947
C_ C_ 0.900782 0.400586 0.259589 -0.08735
C_ C_ 0.882968 0.373155 0.282936 -0.08735
C_ C_ 0.856557 0.326298 0.278023 -0.05681
C_ C_ 0.848983 0.310386 0.249414 0.18498
C_ C_ 0.818053 0.267776 0.24534 -0.08735
C_ C_ 0.801755 0.238544 0.267889 -0.08735
C_ C_ 0.813011 0.250975 0.296397 -0.08735
C_ C_ 0.837165 0.296927 0.301976 0.18498
C_ C_ 0.805663 0.329137 0.346996 0.44287
C_ C_ 0.891109 0.300186 0.344427 0.44287
C_ C_ 0.898825 0.313635 0.37332 -0.05681
C_ C_ 0.947241 0.312154 0.38676 -0.08735
C_ C_ 0.95201 0.319411 0.416705 -0.08735
C_ C_ 0.910333 0.328023 0.434349 -0.05681
C_ C_ 0.862938 0.331741 0.421227 -0.05681
C_ C_ 0.858382 0.330955 0.390324 -0.05681
C_ C_ 0.812236 0.339688 0.376761 -0.05681
C_ C_ 0.770974 0.357549 0.393931 -0.08735
C_ C_ 0.775641 0.357184 0.423974 -0.08735
C_ C_ 0.821032 0.343887 0.438435 -0.05681
C_ C_ 0.828523 0.350224 0.46915 0.44287
C_ C_ 0.91341 0.327716 0.464582 0.44287
C_ C_ 0.889235 0.342032 0.0103996 0.18498
C_ C_ 0.924545 0.382115 0.0150947 -0.08735
C_ C_ 0.943079 0.390704 0.0416766 -0.08735
C_ C_ 0.925932 0.363172 0.0651021 -0.08735
C_ C_ 0.888672 0.324765 0.0620585 0.18498
C_ C_ 0.871979 0.312637 0.033614 -0.05681
C_ C_ 0.839196 0.270908 0.0295315 -0.08735
C_ C_ 0.82434 0.241017 0.0536185 -0.08735
C_ C_ 0.839067 0.255001 0.0801436 0.1947
N_ N_ 0.639108 0.16214 0.475277 -0.29468
N_ N_ 0.650892 0.188072 0.0789085 -0.17154
N_ N_ 0.60338 0.171554 0.226475 -0.17154
N_ N_ 0.634989 0.206736 0.330911 -0.29468
N_ N_ 0.871931 0.337961 0.227594 -0.29468
N_ N_ 0.845549 0.311698 0.331108 -0.17154
N_ N_ 0.874048 0.3438 0.48133 -0.17154
N_ N_ 0.871078 0.295196 0.0843107 -0.29468
O_ O_ 0.709599 0.180325 0.42577 -0.58347
O_ O_ 0.702246 0.199363 0.379619 -0.58347
O_ O_ 0.628058 0.253931 0.429821 -0.58347
O_ O_ 0.617947 0.262452 0.384546 -0.58347
O_ O_ 0.646206 0.106564 0.421758 -0.58347
O_ O_ 0.631587 0.114745 0.376359 -0.58347
O_ O_ 0.562124 0.170067 0.425524 -0.58347
O_ O_ 0.552683 0.186206 0.379129 -0.58347
O_ O_ 0.563922 0.207207 0.0735619 -0.46727
O_ O_ 0.734168 0.180472 0.0861683 -0.46727
O_ O_ 0.52187 0.197515 0.217823 -0.46727
O_ O_ 0.689979 0.149715 0.233434 -0.46727
O_ O_ 0.796255 0.326282 0.176414 -0.58347
O_ O_ 0.80299 0.315889 0.130159 -0.58347
O_ O_ 0.875463 0.249455 0.185442 -0.58347
O_ O_ 0.878529 0.244682 0.138509 -0.58347
O_ O_ 0.861968 0.400626 0.172311 -0.58347
O_ O_ 0.880321 0.392021 0.125665 -0.58347
O_ O_ 0.943143 0.332909 0.178117 -0.58347
O_ O_ 0.952771 0.318394 0.131419 -0.58347
O_ O_ 0.930876 0.293303 0.327353 -0.46727
O_ O_ 0.761468 0.337142 0.33451 -0.46727
O_ O_ 0.956574 0.318541 0.476637 -0.46727
O_ O_ 0.789446 0.353785 0.485624 -0.46727
Zn Zn 0.63505 0.173695 0.881916 0.90689
Zn Zn 0.638633 0.171595 0.92975 0.90689
Zn Zn 0.87312 0.317164 0.633656 0.90689
Zn Zn 0.863984 0.326138 0.678651 0.90689
H_ H_ 0.811385 0.195082 0.946579 0.11455
H_ H_ 0.881364 0.15623 0.851067 0.11455
H_ H_ 0.793748 0.159393 0.857947 0.11455
H_ H_ 0.895473 0.180188 0.968231 0.11455
H_ H_ 0.989143 0.188066 0.9601 0.11455
H_ H_ 0.967351 0.151987 0.870312 0.11455
H_ H_ 0.628224 0.00265607 0.942054 0.11455
H_ H_ 0.636886 0.423132 0.844693 0.11455
H_ H_ 0.659037 0.0153629 0.851399 0.11455
H_ H_ 0.635038 0.417243 0.964864 0.11455
H_ H_ 0.616561 0.325035 0.958339 0.11455
H_ H_ 0.640563 0.336345 0.86752 0.11455
H_ H_ 0.592945 0.0929535 0.966293 0.11455
H_ H_ 0.576731 0.0676018 0.511206 0.11455
H_ H_ 0.610461 0.116951 0.552618 0.11455
H_ H_ 0.680275 0.245959 0.971105 0.11455
H_ H_ 0.696871 0.31003 0.509753 0.11455
H_ H_ 0.680551 0.286547 0.560237 0.11455
H_ H_ 0.503436 0.194793 0.620476 0.11455
H_ H_ 0.495341 0.199066 0.673381 0.11455
H_ H_ 0.754606 0.173161 0.63664 0.11455
H_ H_ 0.744818 0.172225 0.687283 0.11455
H_ H_ 0.553461 0.0962687 0.746301 0.11455
H_ H_ 0.536972 0.0720096 0.797869 0.11455
H_ H_ 0.574637 0.118751 0.837307 0.11455
H_ H_ 0.658615 0.246602 0.757113 0.11455
H_ H_ 0.701945 0.289126 0.800849 0.11455
H_ H_ 0.6952 0.251101 0.849223 0.11455
H_ H_ 0.695606 0.311937 0.698406 0.11455
H_ H_ 0.628416 0.322233 0.599165 0.11455
H_ H_ 0.72035 0.320138 0.606623 0.11455
H_ H_ 0.605681 0.313392 0.717647 0.11455
H_ H_ 0.51722 0.31686 0.707971 0.11455
H_ H_ 0.544923 0.309461 0.616588 0.11455
H_ H_ 0.841379 0.49217 0.6908 0.11455
H_ H_ 0.891868 0.0696089 0.600637 0.11455
H_ H_ 0.893037 0.475199 0.604335 0.11455
H_ H_ 0.866742 0.0750004 0.717599 0.11455
H_ H_ 0.857777 0.168499 0.709833 0.11455
H_ H_ 0.887087 0.151409 0.620316 0.11455
H_ H_ 0.916045 0.398412 0.718351 0.11455
H_ H_ 0.918337 0.42961 0.766516 0.11455
H_ H_ 0.891521 0.37886 0.806923 0.11455
H_ H_ 0.812506 0.257107 0.722629 0.11455
H_ H_ 0.779131 0.200186 0.761673 0.11455
H_ H_ 0.798228 0.220314 0.81224 0.11455
H_ H_ 0.992246 0.286664 0.87484 0.11455
H_ H_ 0.0022100000000000453 0.299751 0.926338 0.11455
H_ H_ 0.739057 0.340702 0.886233 0.11455
H_ H_ 0.749141 0.335142 0.939599 0.11455
H_ H_ 0.936104 0.404776 0.998397 0.11455
H_ H_ 0.952751 0.438805 0.552823 0.11455
H_ H_ 0.921946 0.38599 0.591062 0.11455
H_ H_ 0.831856 0.265998 0.508687 0.11455
H_ H_ 0.798405 0.218108 0.548824 0.11455
H_ H_ 0.819979 0.243438 0.598598 0.11455
C_ C_ 0.737797 0.175797 0.906277 0.68181
C_ C_ 0.793993 0.176455 0.902523 -0.05681
C_ C_ 0.827513 0.186475 0.925117 -0.08735
C_ C_ 0.878469 0.175607 0.923181 -0.05681
C_ C_ 0.898643 0.170358 0.895238 -0.05681
C_ C_ 0.866196 0.161373 0.87211 -0.08735
C_ C_ 0.816135 0.163574 0.875572 -0.08735
C_ C_ 0.910494 0.177829 0.946659 -0.08735
C_ C_ 0.963475 0.179348 0.941722 -0.08735
C_ C_ 0.983933 0.171903 0.914295 -0.05681
C_ C_ 0.951571 0.166371 0.89071 -0.08735
C_ C_ 0.627033 0.27053 0.911413 0.68181
C_ C_ 0.643479 0.071212 0.89986 0.68181
C_ C_ 0.648671 0.0145256 0.897647 -0.05681
C_ C_ 0.650841 0.484945 0.920488 -0.08735
C_ C_ 0.646839 0.431208 0.91834 -0.05681
C_ C_ 0.646451 0.408284 0.890606 -0.05681
C_ C_ 0.641164 0.439047 0.865731 -0.08735
C_ C_ 0.643751 0.492738 0.869128 -0.08735
C_ C_ 0.642701 0.39982 0.943319 -0.08735
C_ C_ 0.629106 0.349487 0.940289 -0.08735
C_ C_ 0.631628 0.326824 0.913643 -0.05681
C_ C_ 0.637501 0.355037 0.8891 -0.08735
C_ C_ 0.540737 0.162275 0.906514 0.68181
C_ C_ 0.609652 0.113516 0.983315 0.1947
C_ C_ 0.593267 0.105148 0.50747 -0.08735
C_ C_ 0.612545 0.132614 0.53092 -0.08735
C_ C_ 0.636233 0.179578 0.52645 -0.05681
C_ C_ 0.651113 0.19267 0.498248 0.18498
C_ C_ 0.676839 0.231892 0.993692 -0.08735
C_ C_ 0.681161 0.272958 0.515161 -0.08735
C_ C_ 0.670344 0.258976 0.543702 -0.08735
C_ C_ 0.653644 0.21038 0.550223 0.18498
C_ C_ 0.684708 0.192839 0.597973 0.44287
C_ C_ 0.595334 0.194301 0.591397 0.44287
C_ C_ 0.587067 0.186853 0.62045 -0.05681
C_ C_ 0.538557 0.194249 0.633282 -0.08735
C_ C_ 0.530531 0.187362 0.662792 -0.08735
C_ C_ 0.571199 0.182886 0.681186 -0.05681
C_ C_ 0.621153 0.179031 0.669603 -0.05681
C_ C_ 0.627957 0.178537 0.639221 -0.05681
C_ C_ 0.677356 0.179562 0.626731 -0.05681
C_ C_ 0.717773 0.171357 0.64487 -0.08735
C_ C_ 0.712227 0.170138 0.675205 -0.08735
C_ C_ 0.663761 0.173844 0.687385 -0.05681
C_ C_ 0.656592 0.170839 0.717477 0.44287
C_ C_ 0.567359 0.182051 0.711744 0.44287
C_ C_ 0.602131 0.160253 0.75907 0.18498
C_ C_ 0.569795 0.117959 0.764879 -0.08735
C_ C_ 0.563603 0.100703 0.793512 -0.08735
C_ C_ 0.587002 0.127719 0.815925 -0.08735
C_ C_ 0.61959 0.167545 0.810572 0.18498
C_ C_ 0.626991 0.185924 0.782565 -0.05681
C_ C_ 0.656428 0.229857 0.77798 -0.08735
C_ C_ 0.681124 0.254105 0.801718 -0.08735
C_ C_ 0.675538 0.23303 0.829881 0.1947
C_ C_ 0.772416 0.320395 0.658091 0.68181
C_ C_ 0.715732 0.317914 0.653685 -0.05681
C_ C_ 0.682361 0.321571 0.676925 -0.08735
C_ C_ 0.630373 0.317864 0.67292 -0.05681
C_ C_ 0.608942 0.322697 0.644702 -0.05681
C_ C_ 0.642219 0.32183 0.621073 -0.08735
C_ C_ 0.694487 0.318981 0.62568 -0.08735
C_ C_ 0.595974 0.322722 0.695982 -0.08735
C_ C_ 0.54405 0.321081 0.689931 -0.08735
C_ C_ 0.524989 0.31774 0.662048 -0.05681
C_ C_ 0.559918 0.31751 0.638558 -0.08735
C_ C_ 0.871565 0.223124 0.661868 0.68181
C_ C_ 0.863083 0.4211 0.651889 0.68181
C_ C_ 0.865704 0.480322 0.647732 -0.05681
C_ C_ 0.868658 0.00812271 0.674254 -0.08735
C_ C_ 0.870429 0.0615078 0.672122 -0.05681
C_ C_ 0.882066 0.0838042 0.645175 -0.05681
C_ C_ 0.89255 0.0530212 0.621656 -0.08735
C_ C_ 0.88227 0.50172 0.622327 -0.08735
C_ C_ 0.86748 0.0917419 0.695864 -0.08735
C_ C_ 0.864051 0.14502 0.691531 -0.08735
C_ C_ 0.866633 0.167528 0.664362 -0.05681
C_ C_ 0.880263 0.135799 0.641752 -0.08735
C_ C_ 0.966394 0.328729 0.652798 0.68181
C_ C_ 0.896958 0.376015 0.734872 0.1947
C_ C_ 0.904237 0.39138 0.763184 -0.08735
C_ C_ 0.889154 0.36406 0.785966 -0.08735
C_ C_ 0.861788 0.318859 0.780597 -0.05681
C_ C_ 0.854133 0.303662 0.750795 0.18498
C_ C_ 0.823823 0.260919 0.7446 -0.08735
C_ C_ 0.80519 0.230681 0.767222 -0.08735
C_ C_ 0.814784 0.243398 0.79529 -0.08735
C_ C_ 0.844342 0.285684 0.803031 0.18498
C_ C_ 0.814326 0.31695 0.8488 0.44287
C_ C_ 0.899695 0.292014 0.844571 0.44287
C_ C_ 0.90796 0.297073 0.874039 -0.05681
C_ C_ 0.956599 0.293381 0.888032 -0.08735
C_ C_ 0.961771 0.301722 0.91768 -0.08735
C_ C_ 0.917213 0.304091 0.935733 -0.05681
C_ C_ 0.872585 0.316468 0.922317 -0.05681
C_ C_ 0.866626 0.312232 0.892458 -0.05681
C_ C_ 0.820227 0.321292 0.879319 -0.05681
C_ C_ 0.774828 0.327369 0.895894 -0.08735
C_ C_ 0.782524 0.333403 0.925761 -0.08735
C_ C_ 0.831237 0.332488 0.938751 -0.05681
C_ C_ 0.835989 0.335542 0.968915 0.44287
C_ C_ 0.921508 0.30718 0.966038 0.44287
C_ C_ 0.882639 0.355606 0.511852 0.18498
C_ C_ 0.917945 0.394148 0.518241 -0.08735
C_ C_ 0.934438 0.402369 0.546412 -0.08735
C_ C_ 0.915137 0.374283 0.568866 -0.08735
C_ C_ 0.88006 0.335496 0.563618 0.18498
C_ C_ 0.867673 0.322313 0.53413 -0.05681
C_ C_ 0.83495 0.281958 0.529264 -0.08735
C_ C_ 0.817387 0.253247 0.552085 -0.08735
C_ C_ 0.830724 0.264253 0.58047 0.1947
N_ N_ 0.633531 0.15905 0.977133 -0.29468
N_ N_ 0.644388 0.195204 0.579961 -0.17154
N_ N_ 0.608749 0.17483 0.729387 -0.17154
N_ N_ 0.644399 0.188823 0.8331 -0.29468
N_ N_ 0.869977 0.334796 0.729021 -0.29468
N_ N_ 0.852651 0.298191 0.832724 -0.17154
N_ N_ 0.880122 0.323095 0.982168 -0.17154
N_ N_ 0.860137 0.306695 0.58619 -0.29468
O_ O_ 0.715544 0.183366 0.930561 -0.58347
O_ O_ 0.711211 0.167042 0.884479 -0.58347
O_ O_ 0.621621 0.243948 0.934044 -0.58347
O_ O_ 0.642039 0.249342 0.889103 -0.58347
O_ O_ 0.649928 0.0925031 0.924343 -0.58347
O_ O_ 0.628873 0.097378 0.877593 -0.58347
O_ O_ 0.570376 0.151845 0.92639 -0.58347
O_ O_ 0.558806 0.175795 0.88353 -0.58347
O_ O_ 0.554681 0.1957 0.574967 -0.46727
O_ O_ 0.732195 0.198763 0.588605 -0.46727
O_ O_ 0.52197 0.189277 0.723774 -0.46727
O_ O_ 0.69567 0.157526 0.733882 -0.46727
O_ O_ 0.792264 0.32673 0.682993 -0.58347
O_ O_ 0.799886 0.317739 0.636587 -0.58347
O_ O_ 0.866852 0.254138 0.681991 -0.58347
O_ O_ 0.876997 0.240802 0.636527 -0.58347
O_ O_ 0.858976 0.401934 0.677191 -0.58347
O_ O_ 0.866557 0.391626 0.630377 -0.58347
O_ O_ 0.940066 0.327597 0.676276 -0.58347
O_ O_ 0.945773 0.326751 0.628442 -0.58347
O_ O_ 0.937928 0.277948 0.829244 -0.46727
O_ O_ 0.768248 0.319992 0.837431 -0.46727
O_ O_ 0.966691 0.303237 0.977025 -0.46727
O_ O_ 0.799827 0.354775 0.983528 -0.46727
Zn Zn 0.615872 0.690562 0.384087 0.90689
Zn Zn 0.625374 0.682137 0.429366 0.90689
Zn Zn 0.875076 0.816925 0.132804 0.90689
Zn Zn 0.863838 0.825508 0.180607 0.90689
H_ H_ 0.79225 0.673849 0.447456 0.11455
H_ H_ 0.859667 0.672104 0.347507 0.11455
H_ H_ 0.767343 0.673356 0.357067 0.11455
H_ H_ 0.874907 0.652189 0.463629 0.11455
H_ H_ 0.967568 0.659898 0.458928 0.11455
H_ H_ 0.949986 0.687223 0.369154 0.11455
H_ H_ 0.610314 0.514038 0.442281 0.11455
H_ H_ 0.607881 0.938436 0.347369 0.11455
H_ H_ 0.635735 0.533876 0.351214 0.11455
H_ H_ 0.624786 0.935326 0.462812 0.11455
H_ H_ 0.613037 0.84465 0.46178 0.11455
H_ H_ 0.604426 0.850031 0.370314 0.11455
H_ H_ 0.56318 0.612012 0.466089 0.11455
H_ H_ 0.552989 0.578572 0.012249 0.11455
H_ H_ 0.586185 0.615423 0.0540315 0.11455
H_ H_ 0.689547 0.739015 0.470957 0.11455
H_ H_ 0.718676 0.787499 0.0198681 0.11455
H_ H_ 0.696312 0.756726 0.0676837 0.11455
H_ H_ 0.508518 0.698034 0.126521 0.11455
H_ H_ 0.50486 0.694448 0.177551 0.11455
H_ H_ 0.754889 0.625012 0.132961 0.11455
H_ H_ 0.753804 0.643158 0.185875 0.11455
H_ H_ 0.574918 0.585297 0.24871 0.11455
H_ H_ 0.539075 0.568169 0.297082 0.11455
H_ H_ 0.561883 0.622782 0.337813 0.11455
H_ H_ 0.670322 0.741287 0.257891 0.11455
H_ H_ 0.689426 0.79709 0.300791 0.11455
H_ H_ 0.663342 0.767362 0.348492 0.11455
H_ H_ 0.690229 0.800221 0.196478 0.11455
H_ H_ 0.630189 0.828249 0.0963782 0.11455
H_ H_ 0.718664 0.832302 0.106047 0.11455
H_ H_ 0.60289 0.801887 0.213834 0.11455
H_ H_ 0.513491 0.813464 0.204715 0.11455
H_ H_ 0.542576 0.81166 0.1135 0.11455
H_ H_ 0.837462 0.989682 0.191438 0.11455
H_ H_ 0.873539 0.570547 0.0981495 0.11455
H_ H_ 0.866098 0.973807 0.100479 0.11455
H_ H_ 0.888632 0.578061 0.216143 0.11455
H_ H_ 0.898982 0.668091 0.21153 0.11455
H_ H_ 0.870163 0.653141 0.120666 0.11455
H_ H_ 0.89682 0.902943 0.214262 0.11455
H_ H_ 0.922184 0.931641 0.263302 0.11455
H_ H_ 0.884059 0.883875 0.305292 0.11455
H_ H_ 0.811039 0.750382 0.222828 0.11455
H_ H_ 0.783421 0.699706 0.264064 0.11455
H_ H_ 0.790061 0.733355 0.313502 0.11455
H_ H_ 0.97956 0.788361 0.369688 0.11455
H_ H_ -0.005774999999999975 0.794692 0.42246 0.11455
H_ H_ 0.735677 0.837499 0.393636 0.11455
H_ H_ 0.751123 0.847438 0.444048 0.11455
H_ H_ 0.92967 0.91033 0.4954 0.11455
H_ H_ 0.974136 0.918438 0.0488019 0.11455
H_ H_ 0.933317 0.875005 0.0893095 0.11455
H_ H_ 0.839694 0.749345 0.0103587 0.11455
H_ H_ 0.803683 0.705412 0.053353 0.11455
H_ H_ 0.819321 0.741072 0.10023 0.11455
C_ C_ 0.718926 0.690063 0.408575 0.68181
C_ C_ 0.774436 0.684512 0.403975 -0.05681
C_ C_ 0.808693 0.676242 0.42598 -0.08735
C_ C_ 0.860047 0.6711 0.420738 -0.05681
C_ C_ 0.879112 0.673753 0.393062 -0.05681
C_ C_ 0.845269 0.671332 0.369624 -0.08735
C_ C_ 0.792892 0.67809 0.37447 -0.08735
C_ C_ 0.891741 0.659188 0.443371 -0.08735
C_ C_ 0.944514 0.659596 0.438638 -0.08735
C_ C_ 0.965994 0.670375 0.41213 -0.05681
C_ C_ 0.930757 0.676794 0.388847 -0.08735
C_ C_ 0.611881 0.784005 0.412902 0.68181
C_ C_ 0.622456 0.587701 0.401632 0.68181
C_ C_ 0.619653 0.532589 0.397673 -0.05681
C_ C_ 0.627485 1.0000259105 0.42063 -0.08735
C_ C_ 0.621746 0.947443 0.418561 -0.05681
C_ C_ 0.612901 0.923692 0.392317 -0.05681
C_ C_ 0.613989 0.953109 0.367586 -0.08735
C_ C_ 0.623005 1.00501197 0.368781 -0.08735
C_ C_ 0.619409 0.917393 0.442537 -0.08735
C_ C_ 0.617586 0.864279 0.441717 -0.08735
C_ C_ 0.607877 0.841293 0.415999 -0.05681
C_ C_ 0.608016 0.86942 0.391004 -0.08735
C_ C_ 0.518708 0.680187 0.406856 0.68181
C_ C_ 0.580781 0.633965 0.483344 0.1947
C_ C_ 0.586021 0.600161 0.00826922 -0.08735
C_ C_ 0.600369 0.628278 0.0324012 -0.08735
C_ C_ 0.630195 0.671676 0.0292202 -0.05681
C_ C_ 0.646291 0.685541 1.00126648 0.18498
C_ C_ 0.672134 0.738414 0.492385 -0.08735
C_ C_ 0.692207 0.756177 0.0211101 -0.08735
C_ C_ 0.681871 0.737603 0.0484449 -0.08735
C_ C_ 0.651639 0.697055 0.0535986 0.18498
C_ C_ 0.682221 0.660139 0.0971495 0.44287
C_ C_ 0.598226 0.693704 0.0956974 0.44287
C_ C_ 0.593122 0.688559 0.12443 -0.05681
C_ C_ 0.545983 0.693427 0.138648 -0.08735
C_ C_ 0.542903 0.691197 0.169365 -0.08735
C_ C_ 0.585681 0.68088 0.186043 -0.05681
C_ C_ 0.633246 0.671491 0.170475 -0.05681
C_ C_ 0.636088 0.673149 0.140301 -0.05681
C_ C_ 0.680412 0.656277 0.127415 -0.05681
C_ C_ 0.722464 0.641625 0.143844 -0.08735
C_ C_ 0.720451 0.643791 0.173486 -0.08735
C_ C_ 0.67353 0.655304 0.186692 -0.05681
C_ C_ 0.669465 0.651867 0.217391 0.44287
C_ C_ 0.584793 0.680421 0.21581 0.44287
C_ C_ 0.61869 0.65023 0.260845 0.18498
C_ C_ 0.589246 0.606728 0.267326 -0.08735
C_ C_ 0.567403 0.598912 0.293718 -0.08735
C_ C_ 0.577327 0.631041 0.315813 -0.08735
C_ C_ 0.608275 0.675042 0.311766 0.18498
C_ C_ 0.626532 0.687102 0.282852 -0.05681
C_ C_ 0.656485 0.730771 0.278602 -0.08735
C_ C_ 0.663717 0.762573 0.302564 -0.08735
C_ C_ 0.646307 0.749343 0.329952 0.1947
C_ C_ 0.77018 0.813545 0.155144 0.68181
C_ C_ 0.714565 0.814063 0.150633 -0.05681
C_ C_ 0.679787 0.806501 0.173362 -0.08735
C_ C_ 0.627479 0.810119 0.168891 -0.05681
C_ C_ 0.609703 0.812375 0.140544 -0.05681
C_ C_ 0.642728 0.822138 0.117899 -0.08735
C_ C_ 0.694844 0.821555 0.123243 -0.08735
C_ C_ 0.591298 0.806179 0.191414 -0.08735
C_ C_ 0.53853 0.808849 0.186204 -0.08735
C_ C_ 0.520842 0.816151 0.157938 -0.05681
C_ C_ 0.556136 0.814076 0.135028 -0.08735
C_ C_ 0.872687 0.721294 0.163309 0.68181
C_ C_ 0.855148 0.91846 0.148779 0.68181
C_ C_ 0.855953 0.97666 0.146532 -0.05681
C_ C_ 0.882777 0.507097 0.171449 -0.08735
C_ C_ 0.882273 0.559929 0.170451 -0.05681
C_ C_ 0.879969 0.582681 0.142962 -0.05681
C_ C_ 0.874695 0.553742 0.118237 -0.08735
C_ C_ 0.863456 0.998493 0.120213 -0.08735
C_ C_ 0.891251 0.591869 0.194491 -0.08735
C_ C_ 0.891581 0.645066 0.191908 -0.08735
C_ C_ 0.885682 0.666369 0.165281 -0.05681
C_ C_ 0.878179 0.634176 0.14118 -0.08735
C_ C_ 0.968464 0.827133 0.159872 0.68181
C_ C_ 0.882122 0.883982 0.232945 0.1947
C_ C_ 0.89545 0.899995 0.260563 -0.08735
C_ C_ 0.879119 0.870535 0.283882 -0.08735
C_ C_ 0.849745 0.825073 0.279338 -0.05681
C_ C_ 0.841394 0.810721 0.250157 0.18498
C_ C_ 0.822276 0.761408 0.244009 -0.08735
C_ C_ 0.805185 0.732975 0.267945 -0.08735
C_ C_ 0.804579 0.75249 0.295851 -0.08735
C_ C_ 0.833884 0.79515 0.302526 0.18498
C_ C_ 0.804526 0.820166 0.351068 0.44287
C_ C_ 0.890127 0.802503 0.342897 0.44287
C_ C_ 0.900891 0.807256 0.372896 -0.05681
C_ C_ 0.948867 0.794737 0.384592 -0.08735
C_ C_ 0.956758 0.795749 0.413997 -0.08735
C_ C_ 0.918294 0.809147 0.43275 -0.05681
C_ C_ 0.87176 0.820983 0.421506 -0.05681
C_ C_ 0.861382 0.819349 0.391355 -0.05681
C_ C_ 0.813792 0.828373 0.380623 -0.05681
C_ C_ 0.77358 0.840737 0.400022 -0.08735
C_ C_ 0.781919 0.84132 0.429331 -0.08735
C_ C_ 0.831309 0.833602 0.441032 -0.05681
C_ C_ 0.839669 0.837692 0.470074 0.44287
C_ C_ 0.924073 0.811188 0.463194 0.44287
C_ C_ 0.902078 0.831382 0.0123584 0.18498
C_ C_ 0.938421 0.870002 0.0177421 -0.08735
C_ C_ 0.952477 0.884305 0.0454587 -0.08735
C_ C_ 0.929754 0.858559 0.0687921 -0.08735
C_ C_ 0.896682 0.817484 0.0638707 0.18498
C_ C_ 0.882299 0.803123 0.0353199 -0.05681
C_ C_ 0.843793 0.765026 0.0308498 -0.08735
C_ C_ 0.820282 0.742651 0.0545577 -0.08735
C_ C_ 0.831923 0.76127 0.0814824 0.1947
N_ N_ 0.617405 0.669401 0.477533 -0.29468
N_ N_ 0.642422 0.680485 0.082688 -0.17154
N_ N_ 0.625162 0.664663 0.230992 -0.17154
N_ N_ 0.619976 0.704461 0.334301 -0.29468
N_ N_ 0.854586 0.842592 0.228497 -0.29468
N_ N_ 0.842984 0.808227 0.332807 -0.17154
N_ N_ 0.885914 0.828211 0.481154 -0.17154
N_ N_ 0.869455 0.797824 0.0863069 -0.29468
O_ O_ 0.698258 0.674865 0.430816 -0.58347
O_ O_ 0.692783 0.702803 0.38782 -0.58347
O_ O_ 0.625569 0.757245 0.433993 -0.58347
O_ O_ 0.605026 0.764997 0.388298 -0.58347
O_ O_ 0.624377 0.6071 0.426467 -0.58347
O_ O_ 0.626881 0.617456 0.380413 -0.58347
O_ O_ 0.547838 0.685479 0.427953 -0.58347
O_ O_ 0.539283 0.684828 0.381469 -0.58347
O_ O_ 0.559875 0.711141 0.0799419 -0.46727
O_ O_ 0.723921 0.645532 0.0842544 -0.46727
O_ O_ 0.541718 0.691653 0.229153 -0.46727
O_ O_ 0.710896 0.639972 0.232821 -0.46727
O_ O_ 0.787914 0.813921 0.180436 -0.58347
O_ O_ 0.79899 0.806644 0.134136 -0.58347
O_ O_ 0.875719 0.750659 0.185426 -0.58347
O_ O_ 0.880777 0.741757 0.138429 -0.58347
O_ O_ 0.848594 0.898965 0.172916 -0.58347
O_ O_ 0.870623 0.891527 0.128527 -0.58347
O_ O_ 0.939113 0.835905 0.18147 -0.58347
O_ O_ 0.949739 0.824877 0.135151 -0.58347
O_ O_ 0.926703 0.789185 0.324913 -0.46727
O_ O_ 0.760515 0.829399 0.339702 -0.46727
O_ O_ 0.965228 0.789285 0.474732 -0.46727
O_ O_ 0.801071 0.852354 0.487062 -0.46727
Zn Zn 0.625983 0.675317 0.88336 0.90689
Zn Zn 0.633699 0.666252 0.928482 0.90689
Zn Zn 0.887275 0.819934 0.634069 0.90689
Zn Zn 0.874404 0.828759 0.68139 0.90689
H_ H_ 0.806437 0.687126 0.949987 0.11455
H_ H_ 0.870951 0.674479 0.849054 0.11455
H_ H_ 0.779111 0.678927 0.856525 0.11455
H_ H_ 0.893325 0.687628 0.967 0.11455
H_ H_ 0.986692 0.686668 0.959637 0.11455
H_ H_ 0.959123 0.681426 0.867692 0.11455
H_ H_ 0.658435 0.503432 0.94115 0.11455
H_ H_ 0.664832 0.924907 0.848656 0.11455
H_ H_ 0.646506 0.516679 0.850448 0.11455
H_ H_ 0.636308 0.916653 0.966949 0.11455
H_ H_ 0.624251 0.825248 0.960898 0.11455
H_ H_ 0.633628 0.842897 0.868817 0.11455
H_ H_ 0.583473 0.597284 0.962832 0.11455
H_ H_ 0.53112 0.604515 0.516748 0.11455
H_ H_ 0.575062 0.644111 0.554993 0.11455
H_ H_ 0.694132 0.735068 0.975015 0.11455
H_ H_ 0.724417 0.792933 0.509501 0.11455
H_ H_ 0.703046 0.780505 0.558667 0.11455
H_ H_ 0.509027 0.709294 0.622294 0.11455
H_ H_ 0.496898 0.704959 0.673403 0.11455
H_ H_ 0.75906 0.680819 0.634607 0.11455
H_ H_ 0.748763 0.676998 0.68751 0.11455
H_ H_ 0.569265 0.590879 0.744377 0.11455
H_ H_ 0.536669 0.566617 0.794045 0.11455
H_ H_ 0.567724 0.613963 0.835368 0.11455
H_ H_ 0.669198 0.741703 0.762425 0.11455
H_ H_ 0.701378 0.784146 0.803264 0.11455
H_ H_ 0.683737 0.748453 0.851478 0.11455
H_ H_ 0.708493 0.830698 0.696064 0.11455
H_ H_ 0.640211 0.843169 0.601541 0.11455
H_ H_ 0.725337 0.826379 0.603461 0.11455
H_ H_ 0.621451 0.821101 0.714462 0.11455
H_ H_ 0.526777 0.830342 0.707731 0.11455
H_ H_ 0.553936 0.819851 0.617116 0.11455
H_ H_ 0.853124 0.99138 0.694042 0.11455
H_ H_ 0.904516 0.569108 0.600564 0.11455
H_ H_ 0.895562 0.976418 0.606779 0.11455
H_ H_ 0.836499 0.571669 0.712858 0.11455
H_ H_ 0.853359 0.666038 0.711846 0.11455
H_ H_ 0.899446 0.655321 0.623676 0.11455
H_ H_ 0.932365 0.88896 0.715484 0.11455
H_ H_ 0.946115 0.924056 0.764047 0.11455
H_ H_ 0.919068 0.870227 0.805663 0.11455
H_ H_ 0.813848 0.763398 0.724433 0.11455
H_ H_ 0.776379 0.713946 0.763361 0.11455
H_ H_ 0.798779 0.737477 0.812314 0.11455
H_ H_ 0.987002 0.786607 0.870467 0.11455
H_ H_ 1.00278714 0.799528 0.92283 0.11455
H_ H_ 0.743129 0.860582 0.891349 0.11455
H_ H_ 0.761259 0.855954 0.942054 0.11455
H_ H_ 0.958999 0.886123 0.999171 0.11455
H_ H_ 0.977566 0.930153 0.543817 0.11455
H_ H_ 0.955133 0.871937 0.585239 0.11455
H_ H_ 0.860753 0.743314 0.51347 0.11455
H_ H_ 0.802749 0.721459 0.554781 0.11455
H_ H_ 0.821485 0.762096 0.601628 0.11455
C_ C_ 0.729666 0.678623 0.908195 0.68181
C_ C_ 0.785463 0.684876 0.902496 -0.05681
C_ C_ 0.820536 0.689703 0.926904 -0.08735
C_ C_ 0.873032 0.682956 0.922974 -0.05681
C_ C_ 0.889877 0.677449 0.894148 -0.05681
C_ C_ 0.856525 0.680185 0.870818 -0.08735
C_ C_ 0.804398 0.685004 0.874977 -0.08735
C_ C_ 0.907325 0.685384 0.945096 -0.08735
C_ C_ 0.959047 0.674869 0.941281 -0.08735
C_ C_ 0.977692 0.671431 0.913137 -0.05681
C_ C_ 0.94356 0.672366 0.889709 -0.08735
C_ C_ 0.625423 0.768326 0.912202 0.68181
C_ C_ 0.637777 0.57305 0.899363 0.68181
C_ C_ 0.645051 0.516137 0.896786 -0.05681
C_ C_ 0.637198 -0.015329000000000037 0.922109 -0.08735
C_ C_ 0.634795 0.931775 0.920117 -0.05681
C_ C_ 0.640434 0.910158 0.892326 -0.05681
C_ C_ 0.65502 0.940253 0.868983 -0.08735
C_ C_ 0.655657 -0.007654999999999967 0.871166 -0.08735
C_ C_ 0.632762 0.900506 0.945544 -0.08735
C_ C_ 0.629021 0.848136 0.942205 -0.08735
C_ C_ 0.627547 0.825192 0.914232 -0.05681
C_ C_ 0.632148 0.857675 0.889899 -0.08735
C_ C_ 0.530099 0.666696 0.90708 0.68181
C_ C_ 0.602142 0.614291 0.980651 0.1947
C_ C_ 0.565838 0.625119 0.512298 -0.08735
C_ C_ 0.586434 0.654744 0.533962 -0.08735
C_ C_ 0.624907 0.689235 0.527762 -0.05681
C_ C_ 0.639862 0.697789 0.499144 0.18498
C_ C_ 0.680089 0.725321 0.996824 -0.08735
C_ C_ 0.692161 0.76922 0.514438 -0.08735
C_ C_ 0.685271 0.755514 0.542904 -0.08735
C_ C_ 0.65084 0.715413 0.550101 0.18498
C_ C_ 0.684059 0.691618 0.597213 0.44287
C_ C_ 0.596621 0.709843 0.592818 0.44287
C_ C_ 0.587983 0.698757 0.6224 -0.05681
C_ C_ 0.540374 0.699295 0.635064 -0.08735
C_ C_ 0.53366 0.693165 0.66455 -0.08735
C_ C_ 0.575191 0.684486 0.683292 -0.05681
C_ C_ 0.62384 0.685694 0.670114 -0.05681
C_ C_ 0.629676 0.689921 0.639647 -0.05681
C_ C_ 0.677822 0.682057 0.627317 -0.05681
C_ C_ 0.719532 0.679709 0.644787 -0.08735
C_ C_ 0.71546 0.680886 0.67448 -0.08735
C_ C_ 0.667331 0.681635 0.687038 -0.05681
C_ C_ 0.663096 0.676583 0.717248 0.44287
C_ C_ 0.573227 0.683425 0.713844 0.44287
C_ C_ 0.61151 0.656581 0.759481 0.18498
C_ C_ 0.580656 0.612934 0.763755 -0.08735
C_ C_ 0.565782 0.596113 0.791525 -0.08735
C_ C_ 0.584579 0.62189 0.816116 -0.08735
C_ C_ 0.615437 0.665226 0.812603 0.18498
C_ C_ 0.628081 0.68505 0.784044 -0.05681
C_ C_ 0.660782 0.725198 0.781963 -0.08735
C_ C_ 0.678771 0.750446 0.806187 -0.08735
C_ C_ 0.664709 0.733563 0.832901 0.1947
C_ C_ 0.779639 0.833344 0.654299 0.68181
C_ C_ 0.724536 0.827464 0.651057 -0.05681
C_ C_ 0.692494 0.827102 0.674874 -0.08735
C_ C_ 0.63832 0.830815 0.671551 -0.05681
C_ C_ 0.62044 0.832393 0.643479 -0.05681
C_ C_ 0.652681 0.824674 0.621123 -0.08735
C_ C_ 0.704616 0.822466 0.624399 -0.08735
C_ C_ 0.604835 0.824324 0.693929 -0.08735
C_ C_ 0.552224 0.830553 0.689651 -0.08735
C_ C_ 0.532444 0.828024 0.662568 -0.05681
C_ C_ 0.566982 0.828109 0.639147 -0.08735
C_ C_ 0.875514 0.725482 0.664809 0.68181
C_ C_ 0.885331 0.921086 0.653879 0.68181
C_ C_ 0.884647 0.977679 0.651303 -0.05681
C_ C_ 0.853702 0.509766 0.670823 -0.08735
C_ C_ 0.861651 0.562635 0.669415 -0.05681
C_ C_ 0.876497 0.585352 0.643865 -0.05681
C_ C_ 0.887296 0.554583 0.619799 -0.08735
C_ C_ 0.893091 0.999447 0.625074 -0.08735
C_ C_ 0.852691 0.59108 0.693768 -0.08735
C_ C_ 0.862216 0.643901 0.692333 -0.08735
C_ C_ 0.876764 0.66665 0.667215 -0.05681
C_ C_ 0.890242 0.637833 0.64292 -0.08735
C_ C_ 0.977766 0.821221 0.65945 0.68181
C_ C_ 0.914922 0.871637 0.733319 0.1947
C_ C_ 0.926543 0.888847 0.760743 -0.08735
C_ C_ 0.906203 0.86385 0.784072 -0.08735
C_ C_ 0.865322 0.830354 0.778954 -0.05681
C_ C_ 0.853189 0.815293 0.749944 0.18498
C_ C_ 0.820886 0.774716 0.745529 -0.08735
C_ C_ 0.800023 0.748008 0.767955 -0.08735
C_ C_ 0.811456 0.76161 0.795722 -0.08735
C_ C_ 0.844877 0.799722 0.802648 0.18498
C_ C_ 0.816003 0.830496 0.849155 0.44287
C_ C_ 0.900001 0.799853 0.843657 0.44287
C_ C_ 0.910033 0.807192 0.87336 -0.05681
C_ C_ 0.957527 0.799269 0.884882 -0.08735
C_ C_ 0.963807 0.801841 0.915366 -0.08735
C_ C_ 0.921141 0.808942 0.934167 -0.05681
C_ C_ 0.874396 0.813021 0.922293 -0.05681
C_ C_ 0.867914 0.812137 0.891853 -0.05681
C_ C_ 0.818755 0.826247 0.879417 -0.05681
C_ C_ 0.779424 0.842256 0.897433 -0.08735
C_ C_ 0.789826 0.844249 0.928203 -0.08735
C_ C_ 0.835761 0.828343 0.94045 -0.05681
C_ C_ 0.842407 0.830193 0.970933 0.44287
C_ C_ 0.927846 0.807759 0.964178 0.44287
C_ C_ 0.898465 0.84265 0.509899 0.18498
C_ C_ 0.928701 0.885944 0.513625 -0.08735
C_ C_ 0.94993 0.898276 0.541436 -0.08735
C_ C_ 0.939075 0.868042 0.565277 -0.08735
C_ C_ 0.902648 0.829517 0.561891 0.18498
C_ C_ 0.889357 0.811778 0.534002 -0.05681
C_ C_ 0.8548 0.770201 0.531798 -0.08735
C_ C_ 0.832016 0.750169 0.556462 -0.08735
C_ C_ 0.845215 0.770532 0.583299 0.1947
N_ N_ 0.627039 0.658545 0.97832 -0.29468
N_ N_ 0.643029 0.704293 0.580245 -0.17154
N_ N_ 0.615961 0.677505 0.730258 -0.17154
N_ N_ 0.631063 0.692531 0.836422 -0.29468
N_ N_ 0.877154 0.837831 0.728152 -0.29468
N_ N_ 0.855285 0.814503 0.832438 -0.17154
N_ N_ 0.88905 0.820845 0.982161 -0.17154
N_ N_ 0.880844 0.80894 0.585651 -0.29468
O_ O_ 0.712985 0.667052 0.932386 -0.58347
O_ O_ 0.699043 0.680054 0.88676 -0.58347
O_ O_ 0.639557 0.740274 0.93207 -0.58347
O_ O_ 0.614614 0.748127 0.888405 -0.58347
O_ O_ 0.636866 0.592896 0.923377 -0.58347
O_ O_ 0.638309 0.60255 0.876943 -0.58347
O_ O_ 0.55716 0.665758 0.928432 -0.58347
O_ O_ 0.550904 0.667512 0.882503 -0.58347
O_ O_ 0.55892 0.730525 0.577738 -0.46727
O_ O_ 0.73113 0.686447 0.586517 -0.46727
O_ O_ 0.530198 0.693877 0.725593 -0.46727
O_ O_ 0.702681 0.66692 0.734499 -0.46727
O_ O_ 0.79886 0.830611 0.679516 -0.58347
O_ O_ 0.808617 0.829846 0.632494 -0.58347
O_ O_ 0.881473 0.753103 0.686248 -0.58347
O_ O_ 0.874811 0.745353 0.639745 -0.58347
O_ O_ 0.867557 0.899797 0.676262 -0.58347
O_ O_ 0.897872 0.8948 0.632919 -0.58347
O_ O_ 0.949683 0.825791 0.680644 -0.58347
O_ O_ 0.961078 0.817698 0.63374 -0.58347
O_ O_ 0.930093 0.770338 0.827761 -0.46727
O_ O_ 0.772615 0.844973 0.836127 -0.46727
O_ O_ 0.97371 0.798261 0.974504 -0.46727
O_ O_ 0.802375 0.838209 0.987611 -0.46727
_cell_length_a 26.376
_cell_length_b 26.400000238300095
_cell_length_c 46.67800035477134
_cell_angle_alpha 90.00700052986613
_cell_angle_beta 89.99899961309502
_cell_angle_gamma 90.45000003183146
_symmetry_space_group_name_H-M         'P 1'
_symmetry_Int_Tables_number            1
loop_
_symmetry_equiv_pos_as_xyz
   'x, y, z'
                         
loop_
_atom_site_label
_atom_site_type_symbol
_atom_site_fract_x 
_atom_site_fract_y
_atom_site_fract_z
_atom_site_charge
Zn Zn 0.127898 0.18707 0.380976 0.90689
Zn Zn 0.131221 0.179518 0.430176 0.90689
Zn Zn 0.380958 0.312577 0.132432 0.90689
Zn Zn 0.368308 0.313886 0.180192 0.90689
H_ H_ 0.304012 0.182595 0.442685 0.11455
H_ H_ 0.369426 0.184258 0.342562 0.11455
H_ H_ 0.280911 0.160849 0.352959 0.11455
H_ H_ 0.389881 0.169928 0.461831 0.11455
H_ H_ 0.481369 0.169443 0.453848 0.11455
H_ H_ 0.462437 0.175887 0.362217 0.11455
H_ H_ 0.151054 0.010432 0.444081 0.11455
H_ H_ 0.134706 0.442223 0.346367 0.11455
H_ H_ 0.108418 0.0301087 0.35545 0.11455
H_ H_ 0.138988 0.430238 0.463884 0.11455
H_ H_ 0.163084 0.337065 0.454979 0.11455
H_ H_ 0.119565 0.35409 0.369549 0.11455
H_ H_ 0.0718531 0.118193 0.468439 0.11455
H_ H_ 0.0741104 0.0785445 0.0149694 0.11455
H_ H_ 0.0998261 0.130427 0.0568221 0.11455
H_ H_ 0.189924 0.250379 0.47379 0.11455
H_ H_ 0.234751 0.292606 0.0164545 0.11455
H_ H_ 0.199991 0.284733 0.0660652 0.11455
H_ H_ 0.00703804 0.223917 0.126407 0.11455
H_ H_ -0.00777899999999998 0.202406 0.1749 0.11455
H_ H_ 0.258003 0.188393 0.145128 0.11455
H_ H_ 0.243245 0.161356 0.192686 0.11455
H_ H_ 0.0643246 0.0856005 0.249957 0.11455
H_ H_ 0.0496433 0.0613895 0.299963 0.11455
H_ H_ 0.0737204 0.11942 0.337847 0.11455
H_ H_ 0.15139 0.246113 0.255725 0.11455
H_ H_ 0.190292 0.293059 0.295514 0.11455
H_ H_ 0.171435 0.270108 0.344474 0.11455
H_ H_ 0.198958 0.30829 0.195778 0.11455
H_ H_ 0.13901 0.359454 0.100468 0.11455
H_ H_ 0.221816 0.334942 0.105993 0.11455
H_ H_ 0.113778 0.313516 0.216968 0.11455
H_ H_ 0.0193086 0.314329 0.20525 0.11455
H_ H_ 0.0468626 0.345359 0.115357 0.11455
H_ H_ 0.345991 0.482927 0.191717 0.11455
H_ H_ 0.336712 0.0606838 0.100124 0.11455
H_ H_ 0.401086 0.467319 0.102978 0.11455
H_ H_ 0.39613 0.0641315 0.213382 0.11455
H_ H_ 0.401175 0.156368 0.208273 0.11455
H_ H_ 0.369611 0.148613 0.119182 0.11455
H_ H_ 0.415907 0.395329 0.21117 0.11455
H_ H_ 0.44026 0.423433 0.260098 0.11455
H_ H_ 0.397846 0.382247 0.302385 0.11455
H_ H_ 0.317045 0.25201 0.22158 0.11455
H_ H_ 0.295879 0.195441 0.262651 0.11455
H_ H_ 0.297192 0.226864 0.313513 0.11455
H_ H_ 0.480825 0.288325 0.373762 0.11455
H_ H_ 0.487885 0.287491 0.426849 0.11455
H_ H_ 0.237095 0.354417 0.383695 0.11455
H_ H_ 0.249043 0.380821 0.434889 0.11455
H_ H_ 0.426029 0.427692 0.502045 0.11455
H_ H_ 0.465651 0.42256 0.0438266 0.11455
H_ H_ 0.436913 0.373067 0.0844331 0.11455
H_ H_ 0.336302 0.248841 0.00914585 0.11455
H_ H_ 0.308082 0.203802 0.0539621 0.11455
H_ H_ 0.321329 0.240825 0.0992746 0.11455
C_ C_ 0.228602 0.186626 0.40256 0.68181
C_ C_ 0.285559 0.177682 0.397861 -0.05681
C_ C_ 0.319414 0.174807 0.420958 -0.08735
C_ C_ 0.371997 0.17627 0.416712 -0.05681
C_ C_ 0.390334 0.177878 0.388504 -0.05681
C_ C_ 0.355631 0.181962 0.364326 -0.08735
C_ C_ 0.30401 0.176151 0.370237 -0.08735
C_ C_ 0.404482 0.174984 0.440091 -0.08735
C_ C_ 0.455793 0.171512 0.435529 -0.08735
C_ C_ 0.476778 0.178587 0.407924 -0.05681
C_ C_ 0.444022 0.176472 0.383729 -0.08735
C_ C_ 0.126756 0.283587 0.410222 0.68181
C_ C_ 0.133883 0.0872374 0.402201 0.68181
C_ C_ 0.131095 0.0319143 0.399288 -0.05681
C_ C_ 0.143055 0.49875 0.420624 -0.08735
C_ C_ 0.13081 0.446926 0.41872 -0.05681
C_ C_ 0.130621 0.424734 0.39138 -0.05681
C_ C_ 0.135881 0.456231 0.36726 -0.08735
C_ C_ 0.13607 0.508694 0.369389 -0.08735
C_ C_ 0.135689 0.413772 0.44304 -0.08735
C_ C_ 0.141954 0.360863 0.438928 -0.08735
C_ C_ 0.12769 0.340889 0.413798 -0.05681
C_ C_ 0.123728 0.372859 0.389586 -0.08735
C_ C_ 0.0326201 0.174998 0.404978 0.68181
C_ C_ 0.0875613 0.140253 0.485742 0.1947
C_ C_ 0.0961788 0.113015 0.013435 -0.08735
C_ C_ 0.111356 0.141481 0.036157 -0.08735
C_ C_ 0.140411 0.185432 0.0306478 -0.05681
C_ C_ 0.154286 0.197831 1.0021492 0.18498
C_ C_ 0.177179 0.243274 0.494517 -0.08735
C_ C_ 0.202445 0.269619 0.0199215 -0.08735
C_ C_ 0.185047 0.261548 0.0477485 -0.08735
C_ C_ 0.153146 0.219182 0.0537057 0.18498
C_ C_ 0.184553 0.201994 0.102433 0.44287
C_ C_ 0.0967175 0.211244 0.0954312 0.44287
C_ C_ 0.0865924 0.203648 0.125863 -0.05681
C_ C_ 0.0391004 0.211153 0.138776 -0.08735
C_ C_ 0.0309345 0.197738 0.166571 -0.08735
C_ C_ 0.0710203 0.182997 0.184331 -0.05681
C_ C_ 0.119532 0.177261 0.171888 -0.05681
C_ C_ 0.129712 0.190099 0.142565 -0.05681
C_ C_ 0.178028 0.188527 0.131223 -0.05681
C_ C_ 0.218201 0.179012 0.149576 -0.08735
C_ C_ 0.211339 0.165492 0.177761 -0.08735
C_ C_ 0.162824 0.164703 0.1896 -0.05681
C_ C_ 0.154584 0.153405 0.219102 0.44287
C_ C_ 0.0661852 0.176885 0.214486 0.44287
C_ C_ 0.100425 0.156675 0.260441 0.18498
C_ C_ 0.0760643 0.111568 0.267397 -0.08735
C_ C_ 0.0697719 0.0976551 0.296509 -0.08735
C_ C_ 0.0874366 0.127741 0.31772 -0.08735
C_ C_ 0.11304 0.173563 0.311514 0.18498
C_ C_ 0.120627 0.188605 0.282976 -0.05681
C_ C_ 0.148404 0.231354 0.277343 -0.08735
C_ C_ 0.170192 0.25799 0.29973 -0.08735
C_ C_ 0.157876 0.246876 0.327658 0.1947
C_ C_ 0.27383 0.318895 0.154064 0.68181
C_ C_ 0.219204 0.32055 0.150617 -0.05681
C_ C_ 0.184093 0.319027 0.174327 -0.08735
C_ C_ 0.132609 0.326513 0.1701 -0.05681
C_ C_ 0.114573 0.33783 0.14204 -0.05681
C_ C_ 0.147512 0.338896 0.120343 -0.08735
C_ C_ 0.198424 0.326322 0.12366 -0.08735
C_ C_ 0.0986887 0.316226 0.19415 -0.08735
C_ C_ 0.0465432 0.319165 0.187885 -0.08735
C_ C_ 0.0266722 0.329308 0.160094 -0.05681
C_ C_ 0.060273 0.339562 0.137233 -0.08735
C_ C_ 0.379085 0.214189 0.164787 0.68181
C_ C_ 0.369032 0.41251 0.147512 0.68181
C_ C_ 0.373609 0.468177 0.146919 -0.05681
C_ C_ 0.374641 -0.0025159999999999627 0.172283 -0.08735
C_ C_ 0.373464 0.0506438 0.170323 -0.05681
C_ C_ 0.361777 0.0755206 0.143516 -0.05681
C_ C_ 0.348195 0.0432021 0.120457 -0.08735
C_ C_ 0.396075 0.489641 0.122499 -0.08735
C_ C_ 0.386493 0.0814687 0.193869 -0.08735
C_ C_ 0.391477 0.134028 0.190656 -0.08735
C_ C_ 0.381193 0.157236 0.164587 -0.05681
C_ C_ 0.370228 0.127892 0.140454 -0.08735
C_ C_ 0.473214 0.304833 0.155908 0.68181
C_ C_ 0.404263 0.373058 0.230086 0.1947
C_ C_ 0.412199 0.39342 0.2573 -0.08735
C_ C_ 0.391465 0.367938 0.281196 -0.08735
C_ C_ 0.362704 0.32335 0.278405 -0.05681
C_ C_ 0.355615 0.305206 0.249207 0.18498
C_ C_ 0.325159 0.26197 0.244428 -0.08735
C_ C_ 0.30933 0.233857 0.267207 -0.08735
C_ C_ 0.311248 0.251641 0.295861 -0.08735
C_ C_ 0.339595 0.296385 0.302318 0.18498
C_ C_ 0.308623 0.328667 0.34776 0.44287
C_ C_ 0.395451 0.306934 0.344333 0.44287
C_ C_ 0.403313 0.311309 0.374045 -0.05681
C_ C_ 0.44982 0.300873 0.387487 -0.08735
C_ C_ 0.453425 0.302869 0.417913 -0.08735
C_ C_ 0.411347 0.319656 0.434695 -0.05681
C_ C_ 0.366861 0.333929 0.420613 -0.05681
C_ C_ 0.363421 0.33043 0.389986 -0.05681
C_ C_ 0.315849 0.340115 0.377495 -0.05681
C_ C_ 0.272067 0.350315 0.393959 -0.08735
C_ C_ 0.279044 0.361576 0.422886 -0.08735
C_ C_ 0.325764 0.350019 0.437206 -0.05681
C_ C_ 0.330204 0.354572 0.467409 0.44287
C_ C_ 0.416466 0.328626 0.464748 0.44287
C_ C_ 0.396005 0.334407 0.00841018 0.18498
C_ C_ 0.424362 0.380251 0.014077 -0.08735
C_ C_ 0.439052 0.392201 0.0404379 -0.08735
C_ C_ 0.421111 0.363937 0.0640308 -0.08735
C_ C_ 0.390439 0.322019 0.0606778 0.18498
C_ C_ 0.377311 0.307355 0.0321847 -0.05681
C_ C_ 0.349365 0.262349 0.0296987 -0.08735
C_ C_ 0.331109 0.237645 0.0537194 -0.08735
C_ C_ 0.339941 0.257219 0.081381 0.1947
N_ N_ 0.123103 0.176148 0.479616 -0.29468
N_ N_ 0.144885 0.208005 0.0839423 -0.17154
N_ N_ 0.10745 0.163944 0.23056 -0.17154
N_ N_ 0.128993 0.205343 0.333402 -0.29468
N_ N_ 0.373557 0.331495 0.225862 -0.29468
N_ N_ 0.347923 0.310067 0.332636 -0.17154
N_ N_ 0.375311 0.344767 0.480929 -0.17154
N_ N_ 0.372065 0.298195 0.0841776 -0.29468
O_ O_ 0.207677 0.173646 0.426493 -0.58347
O_ O_ 0.202874 0.196463 0.381119 -0.58347
O_ O_ 0.132363 0.256708 0.432434 -0.58347
O_ O_ 0.120486 0.263836 0.386719 -0.58347
O_ O_ 0.128348 0.105489 0.426204 -0.58347
O_ O_ 0.137378 0.113475 0.379821 -0.58347
O_ O_ 0.0581984 0.182839 0.426586 -0.58347
O_ O_ 0.05284 0.17799 0.380719 -0.58347
O_ O_ 0.0577969 0.216105 0.0779344 -0.46727
O_ O_ 0.232064 0.20296 0.0933124 -0.46727
O_ O_ 0.0214963 0.177295 0.227617 -0.46727
O_ O_ 0.190101 0.136414 0.236299 -0.46727
O_ O_ 0.29241 0.309293 0.17846 -0.58347
O_ O_ 0.302112 0.31569 0.132344 -0.58347
O_ O_ 0.382765 0.239822 0.187007 -0.58347
O_ O_ 0.378692 0.236833 0.140082 -0.58347
O_ O_ 0.356208 0.389493 0.170886 -0.58347
O_ O_ 0.384194 0.385289 0.126294 -0.58347
O_ O_ 0.444304 0.318649 0.176363 -0.58347
O_ O_ 0.455141 0.304144 0.130877 -0.58347
O_ O_ 0.433097 0.292293 0.328595 -0.46727
O_ O_ 0.26234 0.326828 0.336484 -0.46727
O_ O_ 0.461126 0.327156 0.476641 -0.46727
O_ O_ 0.291474 0.370273 0.482585 -0.46727
Zn Zn 0.130825 0.183668 0.883825 0.90689
Zn Zn 0.143625 0.175567 0.933201 0.90689
Zn Zn 0.371648 0.31636 0.631296 0.90689
Zn Zn 0.366724 0.321382 0.677027 0.90689
H_ H_ 0.315486 0.185509 0.95078 0.11455
H_ H_ 0.377996 0.156832 0.850605 0.11455
H_ H_ 0.285489 0.162611 0.859653 0.11455
H_ H_ 0.406509 0.194461 0.966365 0.11455
H_ H_ 0.493916 0.167375 0.9576 0.11455
H_ H_ 0.464623 0.152909 0.867437 0.11455
H_ H_ 0.141377 0.0155832 0.944745 0.11455
H_ H_ 0.166083 0.430563 0.849902 0.11455
H_ H_ 0.134793 0.0255051 0.854763 0.11455
H_ H_ 0.0987413 0.431315 0.962554 0.11455
H_ H_ 0.0938554 0.336487 0.957132 0.11455
H_ H_ 0.148854 0.349045 0.872311 0.11455
H_ H_ 0.0838046 0.111083 0.968568 0.11455
H_ H_ 0.0519421 0.0932902 0.517628 0.11455
H_ H_ 0.0970663 0.136255 0.557046 0.11455
H_ H_ 0.196148 0.247387 0.974148 0.11455
H_ H_ 0.225337 0.303514 0.512526 0.11455
H_ H_ 0.202998 0.27871 0.562268 0.11455
H_ H_ 0.00799887 0.20444 0.624573 0.11455
H_ H_ -0.004554999999999976 0.195667 0.676639 0.11455
H_ H_ 0.260213 0.186961 0.637987 0.11455
H_ H_ 0.246499 0.170149 0.688752 0.11455
H_ H_ 0.0724194 0.0852061 0.74819 0.11455
H_ H_ 0.0631709 0.0558081 0.797847 0.11455
H_ H_ 0.0907882 0.106469 0.83856 0.11455
H_ H_ 0.152242 0.245904 0.757918 0.11455
H_ H_ 0.195209 0.294929 0.7985 0.11455
H_ H_ 0.178934 0.264742 0.848238 0.11455
H_ H_ 0.196983 0.313133 0.69119 0.11455
H_ H_ 0.129983 0.326042 0.593312 0.11455
H_ H_ 0.222305 0.327984 0.602023 0.11455
H_ H_ 0.108012 0.304116 0.707495 0.11455
H_ H_ 0.0208044 0.316826 0.701449 0.11455
H_ H_ 0.040312 0.338013 0.611661 0.11455
H_ H_ 0.347014 0.4874 0.689387 0.11455
H_ H_ 0.392173 0.0646001 0.597823 0.11455
H_ H_ 0.39499 0.478939 0.601092 0.11455
H_ H_ 0.31527 0.0717412 0.706785 0.11455
H_ H_ 0.331059 0.162381 0.705347 0.11455
H_ H_ 0.386405 0.149252 0.61857 0.11455
H_ H_ 0.418759 0.398212 0.712725 0.11455
H_ H_ 0.441399 0.422694 0.760078 0.11455
H_ H_ 0.406774 0.37091 0.801196 0.11455
H_ H_ 0.304504 0.257875 0.723256 0.11455
H_ H_ 0.264561 0.214477 0.760458 0.11455
H_ H_ 0.279739 0.240505 0.809931 0.11455
H_ H_ 0.486317 0.289992 0.8683 0.11455
H_ H_ 0.498172 0.284583 0.919764 0.11455
H_ H_ 0.243024 0.356575 0.885254 0.11455
H_ H_ 0.257795 0.357629 0.939165 0.11455
H_ H_ 0.432855 0.403671 -0.004052999999999973 0.11455
H_ H_ 0.448817 0.443793 0.552522 0.11455
H_ H_ 0.438969 0.376455 0.587603 0.11455
H_ H_ 0.33154 0.267985 0.505658 0.11455
H_ H_ 0.305982 0.213497 0.546166 0.11455
H_ H_ 0.326457 0.237155 0.595871 0.11455
C_ C_ 0.236553 0.182823 0.909168 0.68181
C_ C_ 0.293979 0.175318 0.905489 -0.05681
C_ C_ 0.327488 0.186666 0.927949 -0.08735
C_ C_ 0.379145 0.181871 0.922166 -0.05681
C_ C_ 0.397824 0.166824 0.894858 -0.05681
C_ C_ 0.363165 0.162747 0.872542 -0.08735
C_ C_ 0.311344 0.164822 0.877701 -0.08735
C_ C_ 0.416664 0.183365 0.944156 -0.08735
C_ C_ 0.466862 0.174385 0.939585 -0.08735
C_ C_ 0.484511 0.167359 0.912492 -0.05681
C_ C_ 0.451607 0.160299 0.889932 -0.08735
C_ C_ 0.129475 0.279954 0.913956 0.68181
C_ C_ 0.14457 0.0838106 0.902193 0.68181
C_ C_ 0.137384 0.0275149 0.898937 -0.05681
C_ C_ 0.126931 0.495086 0.921453 -0.08735
C_ C_ 0.126201 0.442818 0.91989 -0.05681
C_ C_ 0.143639 0.41874 0.894839 -0.05681
C_ C_ 0.153937 0.44711 0.8704 -0.08735
C_ C_ 0.158053 0.501532 0.873001 -0.08735
C_ C_ 0.10584 0.412558 0.941644 -0.08735
C_ C_ 0.110978 0.358809 0.939977 -0.08735
C_ C_ 0.132298 0.335709 0.916095 -0.05681
C_ C_ 0.142759 0.366801 0.89215 -0.08735
C_ C_ 0.0394092 0.169695 0.911055 0.68181
C_ C_ 0.105684 0.129266 0.985291 0.1947
C_ C_ 0.0803663 0.122395 0.512522 -0.08735
C_ C_ 0.106927 0.144438 0.535638 -0.08735
C_ C_ 0.133732 0.189381 0.530477 -0.05681
C_ C_ 0.144595 0.202855 0.500673 0.18498
C_ C_ 0.188233 0.237146 0.997487 -0.08735
C_ C_ 0.198326 0.272101 0.517027 -0.08735
C_ C_ 0.181446 0.26125 0.545432 -0.08735
C_ C_ 0.150948 0.221407 0.552485 0.18498
C_ C_ 0.183129 0.195936 0.599484 0.44287
C_ C_ 0.0965423 0.210733 0.595305 0.44287
C_ C_ 0.0888223 0.196844 0.624919 -0.05681
C_ C_ 0.0396524 0.196533 0.63782 -0.08735
C_ C_ 0.0330282 0.19048 0.667267 -0.08735
C_ C_ 0.076933 0.1861 0.684211 -0.05681
C_ C_ 0.125935 0.185562 0.671956 -0.05681
C_ C_ 0.130987 0.187304 0.64145 -0.05681
C_ C_ 0.179172 0.187315 0.629361 -0.05681
C_ C_ 0.221865 0.184213 0.647097 -0.08735
C_ C_ 0.216181 0.174014 0.676514 -0.08735
C_ C_ 0.168946 0.180227 0.688793 -0.05681
C_ C_ 0.160982 0.169776 0.717952 0.44287
C_ C_ 0.074839 0.179918 0.713681 0.44287
C_ C_ 0.111072 0.154678 0.760025 0.18498
C_ C_ 0.0875181 0.106471 0.766089 -0.08735
C_ C_ 0.0808007 0.0913791 0.794334 -0.08735
C_ C_ 0.0915603 0.124781 0.817537 -0.08735
C_ C_ 0.120177 0.167372 0.813058 0.18498
C_ C_ 0.123391 0.187269 0.784313 -0.05681
C_ C_ 0.15122 0.230786 0.780039 -0.08735
C_ C_ 0.171937 0.259727 0.802691 -0.08735
C_ C_ 0.164283 0.242174 0.830471 0.1947
C_ C_ 0.271073 0.320711 0.650497 0.68181
C_ C_ 0.215414 0.324085 0.646939 -0.05681
C_ C_ 0.181165 0.316612 0.669924 -0.08735
C_ C_ 0.128481 0.318557 0.664577 -0.05681
C_ C_ 0.110309 0.325803 0.637293 -0.05681
C_ C_ 0.144546 0.325801 0.613879 -0.08735
C_ C_ 0.195946 0.328791 0.619774 -0.08735
C_ C_ 0.0946825 0.316926 0.68738 -0.08735
C_ C_ 0.0441429 0.316093 0.682609 -0.08735
C_ C_ 0.0228229 0.324731 0.656139 -0.05681
C_ C_ 0.0570776 0.329533 0.63279 -0.08735
C_ C_ 0.372176 0.216771 0.660763 0.68181
C_ C_ 0.371951 0.417471 0.647468 0.68181
C_ C_ 0.372447 0.475405 0.646776 -0.05681
C_ C_ 0.340428 0.00174297 0.667899 -0.08735
C_ C_ 0.345524 0.0569232 0.665483 -0.05681
C_ C_ 0.365396 0.0780622 0.639688 -0.05681
C_ C_ 0.379488 0.0489894 0.6174 -0.08735
C_ C_ 0.393953 0.499576 0.621062 -0.08735
C_ C_ 0.333079 0.0871746 0.688426 -0.08735
C_ C_ 0.340624 0.138531 0.686875 -0.08735
C_ C_ 0.362121 0.161154 0.6614 -0.05681
C_ C_ 0.371805 0.131389 0.638215 -0.08735
C_ C_ 0.468735 0.315046 0.657453 0.68181
C_ C_ 0.401471 0.376546 0.729827 0.1947
C_ C_ 0.413454 0.391395 0.757361 -0.08735
C_ C_ 0.392609 0.36487 0.780526 -0.08735
C_ C_ 0.359798 0.322641 0.775801 -0.05681
C_ C_ 0.351329 0.308208 0.748108 0.18498
C_ C_ 0.317791 0.269404 0.742914 -0.08735
C_ C_ 0.295083 0.242454 0.765299 -0.08735
C_ C_ 0.304827 0.254649 0.794141 -0.08735
C_ C_ 0.338999 0.296101 0.800441 0.18498
C_ C_ 0.312492 0.324029 0.846671 0.44287
C_ C_ 0.39738 0.292848 0.841619 0.44287
C_ C_ 0.405837 0.301844 0.870041 -0.05681
C_ C_ 0.454791 0.296309 0.882416 -0.08735
C_ C_ 0.460794 0.295752 0.912005 -0.08735
C_ C_ 0.42005 0.303169 0.9296 -0.05681
C_ C_ 0.370935 0.31341 0.918466 -0.05681
C_ C_ 0.364004 0.314013 0.888251 -0.05681
C_ C_ 0.318235 0.330178 0.876049 -0.05681
C_ C_ 0.279954 0.345657 0.895207 -0.08735
C_ C_ 0.287195 0.345801 0.92579 -0.08735
C_ C_ 0.332182 0.330396 0.937323 -0.05681
C_ C_ 0.340602 0.33209 0.967267 0.44287
C_ C_ 0.428225 0.314248 0.959276 0.44287
C_ C_ 0.384757 0.358595 0.511591 0.18498
C_ C_ 0.41258 0.402057 0.518036 -0.08735
C_ C_ 0.431254 0.408743 0.546656 -0.08735
C_ C_ 0.420641 0.37356 0.566627 -0.08735
C_ C_ 0.382049 0.336335 0.561804 0.18498
C_ C_ 0.36659 0.324398 0.53329 -0.05681
C_ C_ 0.338545 0.279826 0.527912 -0.08735
C_ C_ 0.329442 0.246639 0.550437 -0.08735
C_ C_ 0.340915 0.260098 0.578819 0.1947
N_ N_ 0.135991 0.169521 0.979803 -0.29468
N_ N_ 0.142409 0.207365 0.58286 -0.17154
N_ N_ 0.114796 0.172998 0.730469 -0.17154
N_ N_ 0.137673 0.197047 0.83575 -0.29468
N_ N_ 0.369414 0.33596 0.725361 -0.29468
N_ N_ 0.352076 0.308146 0.829544 -0.17154
N_ N_ 0.388034 0.320918 0.978501 -0.17154
N_ N_ 0.366018 0.304569 0.584531 -0.29468
O_ O_ 0.216907 0.178135 0.933264 -0.58347
O_ O_ 0.208138 0.192964 0.887914 -0.58347
O_ O_ 0.141496 0.253982 0.935525 -0.58347
O_ O_ 0.118272 0.259006 0.89023 -0.58347
O_ O_ 0.147321 0.102265 0.927084 -0.58347
O_ O_ 0.14431 0.111061 0.880728 -0.58347
O_ O_ 0.0689814 0.171008 0.932756 -0.58347
O_ O_ 0.0585914 0.168567 0.885857 -0.58347
O_ O_ 0.0580204 0.230384 0.58159 -0.46727
O_ O_ 0.229645 0.198919 0.587556 -0.46727
O_ O_ 0.029554 0.180962 0.726547 -0.46727
O_ O_ 0.199402 0.15741 0.734312 -0.46727
O_ O_ 0.291928 0.324415 0.674635 -0.58347
O_ O_ 0.299113 0.312554 0.628817 -0.58347
O_ O_ 0.369712 0.241752 0.684055 -0.58347
O_ O_ 0.373123 0.239974 0.63708 -0.58347
O_ O_ 0.362542 0.39662 0.671112 -0.58347
O_ O_ 0.378077 0.392068 0.624152 -0.58347
O_ O_ 0.438031 0.32529 0.677903 -0.58347
O_ O_ 0.449979 0.30776 0.632814 -0.58347
O_ O_ 0.424958 0.260032 0.828414 -0.46727
O_ O_ 0.268285 0.336032 0.834874 -0.46727
O_ O_ 0.473752 0.309887 0.969365 -0.46727
O_ O_ 0.304321 0.349944 0.98503 -0.46727
Zn Zn 0.117808 0.683888 0.381113 0.90689
Zn Zn 0.126215 0.682903 0.429291 0.90689
Zn Zn 0.371795 0.812553 0.131031 0.90689
Zn Zn 0.364497 0.816231 0.179677 0.90689
H_ H_ 0.292277 0.705578 0.441686 0.11455
H_ H_ 0.36256 0.67249 0.34633 0.11455
H_ H_ 0.267164 0.674451 0.353599 0.11455
H_ H_ 0.375289 0.683541 0.464184 0.11455
H_ H_ 0.468481 0.665634 0.458033 0.11455
H_ H_ 0.449411 0.680128 0.366559 0.11455
H_ H_ 0.151257 0.515862 0.441628 0.11455
H_ H_ 0.0924377 0.939895 0.351326 0.11455
H_ H_ 0.144197 0.531704 0.350633 0.11455
H_ H_ 0.143681 0.922636 0.46644 0.11455
H_ H_ 0.146309 0.837535 0.457918 0.11455
H_ H_ 0.0965757 0.855208 0.37106 0.11455
H_ H_ 0.0738187 0.609283 0.465673 0.11455
H_ H_ 0.0505177 0.585598 0.0174425 0.11455
H_ H_ 0.0862405 0.629818 0.0568971 0.11455
H_ H_ 0.186874 0.748254 0.469509 0.11455
H_ H_ 0.213428 0.797468 0.0145025 0.11455
H_ H_ 0.199915 0.770322 0.0657971 0.11455
H_ H_ 0.0130116 0.721516 0.124579 0.11455
H_ H_ -0.0038970000000000393 0.710783 0.177692 0.11455
H_ H_ 0.24851 0.637213 0.140628 0.11455
H_ H_ 0.242582 0.642688 0.194021 0.11455
H_ H_ 0.0526804 0.579258 0.250903 0.11455
H_ H_ 0.0385314 0.556785 0.303073 0.11455
H_ H_ 0.0560229 0.624 0.342036 0.11455
H_ H_ 0.145629 0.73884 0.257763 0.11455
H_ H_ 0.17432 0.79063 0.29564 0.11455
H_ H_ 0.159981 0.768974 0.345681 0.11455
H_ H_ 0.203389 0.8208 0.195934 0.11455
H_ H_ 0.129267 0.822393 0.100149 0.11455
H_ H_ 0.217311 0.815069 0.105592 0.11455
H_ H_ 0.113471 0.798603 0.216954 0.11455
H_ H_ 0.0211738 0.810254 0.210415 0.11455
H_ H_ 0.0442643 0.837481 0.122151 0.11455
H_ H_ 0.393943 0.979712 0.190071 0.11455
H_ H_ 0.423447 0.558311 0.103967 0.11455
H_ H_ 0.339448 0.969225 0.104555 0.11455
H_ H_ 0.330281 0.56734 0.208791 0.11455
H_ H_ 0.343717 0.660231 0.205466 0.11455
H_ H_ 0.39813 0.638781 0.118479 0.11455
H_ H_ 0.413696 0.889522 0.213407 0.11455
H_ H_ 0.430236 0.92059 0.264395 0.11455
H_ H_ 0.40309 0.874622 0.303556 0.11455
H_ H_ 0.303409 0.743583 0.22665 0.11455
H_ H_ 0.272526 0.698346 0.270144 0.11455
H_ H_ 0.296958 0.729859 0.318203 0.11455
H_ H_ 0.485333 0.790078 0.375601 0.11455
H_ H_ 0.498685 0.802629 0.426339 0.11455
H_ H_ 0.238387 0.845011 0.3915 0.11455
H_ H_ 0.246821 0.842504 0.443703 0.11455
H_ H_ 0.431853 0.921981 0.49944 0.11455
H_ H_ 0.437579 0.934174 0.050381 0.11455
H_ H_ 0.428 0.865488 0.0872122 0.11455
H_ H_ 0.331647 0.752135 0.00649904 0.11455
H_ H_ 0.303245 0.703957 0.0477394 0.11455
H_ H_ 0.303206 0.739061 0.0949964 0.11455
C_ C_ 0.219524 0.69205 0.402467 0.68181
C_ C_ 0.274509 0.687657 0.398872 -0.05681
C_ C_ 0.3073 0.692359 0.422179 -0.08735
C_ C_ 0.359103 0.686717 0.418898 -0.05681
C_ C_ 0.377627 0.684211 0.390549 -0.05681
C_ C_ 0.346728 0.678111 0.367119 -0.08735
C_ C_ 0.294852 0.682594 0.371306 -0.08735
C_ C_ 0.391961 0.686426 0.443742 -0.08735
C_ C_ 0.443717 0.678473 0.439289 -0.08735
C_ C_ 0.462974 0.677018 0.411204 -0.05681
C_ C_ 0.430603 0.678543 0.386828 -0.08735
C_ C_ 0.109438 0.782533 0.411338 0.68181
C_ C_ 0.135241 0.588041 0.398371 0.68181
C_ C_ 0.140411 0.531463 0.396601 -0.05681
C_ C_ 0.140324 0.996292 0.423254 -0.08735
C_ C_ 0.129019 0.944243 0.420669 -0.05681
C_ C_ 0.117529 0.923688 0.393607 -0.05681
C_ C_ 0.108083 0.956412 0.370879 -0.08735
C_ C_ 0.115672 1.008638 0.373802 -0.08735
C_ C_ 0.133377 0.909899 0.444272 -0.08735
C_ C_ 0.135083 0.858697 0.439665 -0.08735
C_ C_ 0.119298 0.837966 0.413998 -0.05681
C_ C_ 0.106431 0.872107 0.391348 -0.08735
C_ C_ 0.0232754 0.672444 0.408532 0.68181
C_ C_ 0.0930545 0.629428 0.48259 0.1947
C_ C_ 0.0775798 0.614881 0.0135597 -0.08735
C_ C_ 0.100316 0.638127 0.0357101 -0.08735
C_ C_ 0.137447 0.675783 0.0316405 -0.05681
C_ C_ 0.148192 0.688815 1.00282577 0.18498
C_ C_ 0.18065 0.736695 0.491119 -0.08735
C_ C_ 0.201261 0.758799 0.0199514 -0.08735
C_ C_ 0.186058 0.748032 0.0487813 -0.08735
C_ C_ 0.157221 0.703976 0.0548249 0.18498
C_ C_ 0.185264 0.67553 0.101581 0.44287
C_ C_ 0.100918 0.705045 0.0959849 0.44287
C_ C_ 0.0902973 0.697231 0.125335 -0.05681
C_ C_ 0.0434667 0.707538 0.137463 -0.08735
C_ C_ 0.0331391 0.700169 0.168029 -0.08735
C_ C_ 0.0729923 0.680774 0.184801 -0.05681
C_ C_ 0.120815 0.669824 0.172553 -0.05681
C_ C_ 0.129381 0.679235 0.143781 -0.05681
C_ C_ 0.176517 0.667339 0.131306 -0.05681
C_ C_ 0.215474 0.650438 0.150605 -0.08735
C_ C_ 0.209915 0.648666 0.18003 -0.08735
C_ C_ 0.162062 0.661508 0.191856 -0.05681
C_ C_ 0.151565 0.652617 0.220274 0.44287
C_ C_ 0.0663607 0.677722 0.215471 0.44287
C_ C_ 0.0945575 0.648888 0.261651 0.18498
C_ C_ 0.0643155 0.607029 0.269043 -0.08735
C_ C_ 0.0522607 0.594368 0.298583 -0.08735
C_ C_ 0.0691534 0.628846 0.320517 -0.08735
C_ C_ 0.0988732 0.671515 0.313572 0.18498
C_ C_ 0.10971 0.681559 0.283965 -0.05681
C_ C_ 0.132603 0.729287 0.278609 -0.08735
C_ C_ 0.157629 0.754583 0.299213 -0.08735
C_ C_ 0.144781 0.744285 0.328031 0.1947
C_ C_ 0.272997 0.814029 0.156141 0.68181
C_ C_ 0.216999 0.81105 0.151778 -0.05681
C_ C_ 0.184664 0.814404 0.176708 -0.08735
C_ C_ 0.132508 0.822112 0.174821 -0.05681
C_ C_ 0.112566 0.825066 0.146474 -0.05681
C_ C_ 0.143506 0.823001 0.122678 -0.08735
C_ C_ 0.195659 0.816224 0.124506 -0.08735
C_ C_ 0.0995898 0.817656 0.198146 -0.08735
C_ C_ 0.0482969 0.816138 0.193036 -0.08735
C_ C_ 0.0260672 0.825998 0.165408 -0.05681
C_ C_ 0.0588666 0.827707 0.141489 -0.08735
C_ C_ 0.375064 0.715947 0.160588 0.68181
C_ C_ 0.361014 0.91139 0.150634 0.68181
C_ C_ 0.359022 0.966685 0.149879 -0.05681
C_ C_ 0.363218 0.499739 0.171321 -0.08735
C_ C_ 0.363291 0.552693 0.16736 -0.05681
C_ C_ 0.385934 0.573 0.143606 -0.05681
C_ C_ 0.400334 0.541975 0.120944 -0.08735
C_ C_ 0.344477 -0.009122999999999992 0.124825 -0.08735
C_ C_ 0.348741 0.584013 0.19079 -0.08735
C_ C_ 0.359149 0.635707 0.189991 -0.08735
C_ C_ 0.375378 0.658135 0.164204 -0.05681
C_ C_ 0.386292 0.625444 0.140317 -0.08735
C_ C_ 0.465652 0.819338 0.152789 0.68181
C_ C_ 0.399245 0.870397 0.231434 0.1947
C_ C_ 0.415133 0.884788 0.259138 -0.08735
C_ C_ 0.392636 0.859907 0.282331 -0.08735
C_ C_ 0.361046 0.816409 0.279915 -0.05681
C_ C_ 0.34763 0.80297 0.250974 0.18498
C_ C_ 0.312081 0.762225 0.247583 -0.08735
C_ C_ 0.296087 0.734488 0.272032 -0.08735
C_ C_ 0.30887 0.748848 0.299805 -0.08735
C_ C_ 0.338542 0.79139 0.304246 0.18498
C_ C_ 0.310631 0.827061 0.350393 0.44287
C_ C_ 0.395154 0.797284 0.345948 0.44287
C_ C_ 0.403377 0.806247 0.37568 -0.05681
C_ C_ 0.452042 0.798747 0.387835 -0.08735
C_ C_ 0.461646 0.812012 0.416773 -0.08735
C_ C_ 0.421549 0.824885 0.434735 -0.05681
C_ C_ 0.372343 0.822334 0.423552 -0.05681
C_ C_ 0.363225 0.817122 0.393816 -0.05681
C_ C_ 0.316202 0.829681 0.381435 -0.05681
C_ C_ 0.27619 0.842095 0.400057 -0.08735
C_ C_ 0.281651 0.840072 0.43036 -0.08735
C_ C_ 0.331045 0.83235 0.441922 -0.05681
C_ C_ 0.340269 0.836191 0.47194 0.44287
C_ C_ 0.430111 0.830003 0.463898 0.44287
C_ C_ 0.384925 0.840799 0.0092003 0.18498
C_ C_ 0.405922 0.887987 0.0158927 -0.08735
C_ C_ 0.422606 0.897113 0.0449303 -0.08735
C_ C_ 0.412759 0.863507 0.0664731 -0.08735
C_ C_ 0.381422 0.821083 0.0607357 0.18498
C_ C_ 0.370014 0.808304 0.0325104 -0.05681
C_ C_ 0.340509 0.764337 0.0277513 -0.08735
C_ C_ 0.320392 0.739041 0.0507296 -0.08735
C_ C_ 0.32498 0.75798 0.0782626 0.1947
N_ N_ 0.124954 0.668377 0.475636 -0.29468
N_ N_ 0.146439 0.692577 0.0851205 -0.17154
N_ N_ 0.104759 0.664127 0.232455 -0.17154
N_ N_ 0.119165 0.701643 0.334652 -0.29468
N_ N_ 0.371003 0.825532 0.227735 -0.29468
N_ N_ 0.347612 0.806827 0.334267 -0.17154
N_ N_ 0.390609 0.83808 0.482103 -0.17154
N_ N_ 0.356949 0.796965 0.083156 -0.29468
O_ O_ 0.201092 0.692075 0.427461 -0.58347
O_ O_ 0.189885 0.692868 0.381096 -0.58347
O_ O_ 0.107911 0.757726 0.434642 -0.58347
O_ O_ 0.114237 0.760906 0.387049 -0.58347
O_ O_ 0.135478 0.608701 0.422343 -0.58347
O_ O_ 0.125885 0.613824 0.375299 -0.58347
O_ O_ 0.0514607 0.673988 0.429752 -0.58347
O_ O_ 0.0425906 0.671919 0.383513 -0.58347
O_ O_ 0.0659456 0.726438 0.0796307 -0.46727
O_ O_ 0.230738 0.671273 0.0898436 -0.46727
O_ O_ 0.0218585 0.690432 0.227038 -0.46727
O_ O_ 0.186928 0.638307 0.237871 -0.46727
O_ O_ 0.290095 0.807066 0.180492 -0.58347
O_ O_ 0.300411 0.819765 0.135605 -0.58347
O_ O_ 0.369456 0.73964 0.18371 -0.58347
O_ O_ 0.367771 0.737132 0.136689 -0.58347
O_ O_ 0.352559 0.887126 0.17332 -0.58347
O_ O_ 0.377492 0.887347 0.128153 -0.58347
O_ O_ 0.437599 0.828052 0.174156 -0.58347
O_ O_ 0.446725 0.806137 0.128981 -0.58347
O_ O_ 0.432871 0.78181 0.328981 -0.46727
O_ O_ 0.265535 0.83518 0.339339 -0.46727
O_ O_ 0.475476 0.830988 0.474562 -0.46727
O_ O_ 0.30207 0.840608 0.490549 -0.46727
Zn Zn 0.130455 0.6845 0.882093 0.90689
Zn Zn 0.136651 0.679979 0.932707 0.90689
Zn Zn 0.382367 0.81401 0.635721 0.90689
Zn Zn 0.373586 0.82461 0.68186 0.90689
H_ H_ 0.304278 0.675961 0.944905 0.11455
H_ H_ 0.366749 0.661773 0.846679 0.11455
H_ H_ 0.279598 0.664129 0.852846 0.11455
H_ H_ 0.385527 0.663157 0.964424 0.11455
H_ H_ 0.476055 0.680701 0.956155 0.11455
H_ H_ 0.455333 0.659211 0.863895 0.11455
H_ H_ 0.113293 0.513882 0.940149 0.11455
H_ H_ 0.109031 0.938939 0.851931 0.11455
H_ H_ 0.180362 0.520872 0.855957 0.11455
H_ H_ 0.157844 0.92589 0.96661 0.11455
H_ H_ 0.125643 0.83611 0.963757 0.11455
H_ H_ 0.12096 0.850102 0.871923 0.11455
H_ H_ 0.0777308 0.604275 0.967937 0.11455
H_ H_ 0.0668099 0.57701 0.516205 0.11455
H_ H_ 0.114043 0.622658 0.554298 0.11455
H_ H_ 0.194823 0.741854 0.975851 0.11455
H_ H_ 0.218722 0.800594 0.509699 0.11455
H_ H_ 0.205815 0.775024 0.558322 0.11455
H_ H_ 1.0177873 0.712453 0.620922 0.11455
H_ H_ 1.0077396 0.697916 0.674725 0.11455
H_ H_ 0.269897 0.666982 0.63405 0.11455
H_ H_ 0.25449 0.646383 0.686342 0.11455
H_ H_ 0.0783589 0.58239 0.745814 0.11455
H_ H_ 0.057435 0.5592 0.799121 0.11455
H_ H_ 0.0845213 0.620213 0.836724 0.11455
H_ H_ 0.157443 0.749449 0.753798 0.11455
H_ H_ 0.203993 0.786934 0.793546 0.11455
H_ H_ 0.174128 0.76507 0.845374 0.11455
H_ H_ 0.20414 0.79183 0.700372 0.11455
H_ H_ 0.138483 0.809814 0.603281 0.11455
H_ H_ 0.230949 0.812682 0.61246 0.11455
H_ H_ 0.115809 0.814819 0.720974 0.11455
H_ H_ 0.022987 0.807588 0.708422 0.11455
H_ H_ 0.0527923 0.827826 0.620393 0.11455
H_ H_ 0.314886 0.98432 0.68465 0.11455
H_ H_ 0.41681 0.570596 0.602955 0.11455
H_ H_ 0.386757 0.972848 0.602382 0.11455
H_ H_ 0.338544 0.570726 0.712772 0.11455
H_ H_ 0.347446 0.663583 0.707953 0.11455
H_ H_ 0.411574 0.650041 0.624358 0.11455
H_ H_ 0.419615 0.899951 0.719659 0.11455
H_ H_ 0.433303 0.924058 0.768922 0.11455
H_ H_ 0.397334 0.869729 0.808856 0.11455
H_ H_ 0.302867 0.760109 0.72182 0.11455
H_ H_ 0.275655 0.700987 0.757921 0.11455
H_ H_ 0.309481 0.710662 0.807156 0.11455
H_ H_ 0.487113 0.774255 0.875063 0.11455
H_ H_ 0.49754 0.797489 0.925466 0.11455
H_ H_ 0.23937 0.822449 0.884916 0.11455
H_ H_ 0.249259 0.85059 0.933325 0.11455
H_ H_ 0.422173 0.909593 0.998409 0.11455
H_ H_ 0.454763 0.944145 0.549483 0.11455
H_ H_ 0.440773 0.886211 0.589428 0.11455
H_ H_ 0.364132 0.756279 0.508219 0.11455
H_ H_ 0.337012 0.702835 0.548035 0.11455
H_ H_ 0.346881 0.729735 0.597857 0.11455
C_ C_ 0.230968 0.684155 0.90506 0.68181
C_ C_ 0.284381 0.674311 0.900352 -0.05681
C_ C_ 0.318505 0.673045 0.923417 -0.08735
C_ C_ 0.37002 0.664356 0.918817 -0.05681
C_ C_ 0.389516 0.663127 0.89077 -0.05681
C_ C_ 0.354658 0.656687 0.867902 -0.08735
C_ C_ 0.303023 0.665699 0.872006 -0.08735
C_ C_ 0.400179 0.666183 0.942107 -0.08735
C_ C_ 0.45271 0.667792 0.938626 -0.08735
C_ C_ 0.474254 0.662228 0.909987 -0.05681
C_ C_ 0.442662 0.661719 0.886062 -0.08735
C_ C_ 0.124332 0.780834 0.914491 0.68181
C_ C_ 0.138139 0.582552 0.898815 0.68181
C_ C_ 0.139278 0.526169 0.897408 -0.05681
C_ C_ 0.141796 0.997665 0.923662 -0.08735
C_ C_ 0.133849 0.943469 0.922852 -0.05681
C_ C_ 0.123279 0.92131 0.895499 -0.05681
C_ C_ 0.125515 0.9517 0.870302 -0.08735
C_ C_ 0.131262 0.00272557 0.872712 -0.08735
C_ C_ 0.143568 0.911329 0.946037 -0.08735
C_ C_ 0.127101 0.861449 0.94446 -0.08735
C_ C_ 0.117712 0.836439 0.9181 -0.05681
C_ C_ 0.120353 0.867655 0.893361 -0.08735
C_ C_ 0.0346524 0.676175 0.908861 0.68181
C_ C_ 0.0916962 0.626363 0.985159 0.1947
C_ C_ 0.0901665 0.609161 0.510756 -0.08735
C_ C_ 0.114266 0.636429 0.532546 -0.08735
C_ C_ 0.143439 0.676201 0.526393 -0.05681
C_ C_ 0.147291 0.695346 0.49662 0.18498
C_ C_ 0.185088 0.729041 0.996777 -0.08735
C_ C_ 0.200729 0.76621 0.513225 -0.08735
C_ C_ 0.186571 0.753555 0.54146 -0.08735
C_ C_ 0.162175 0.708127 0.54856 0.18498
C_ C_ 0.19614 0.685757 0.596054 0.44287
C_ C_ 0.107636 0.703909 0.591479 0.44287
C_ C_ 0.0994524 0.691994 0.620417 -0.05681
C_ C_ 0.0516631 0.701305 0.633996 -0.08735
C_ C_ 0.0458798 0.696603 0.664037 -0.08735
C_ C_ 0.0888732 0.690762 0.681346 -0.05681
C_ C_ 0.136419 0.682267 0.668974 -0.05681
C_ C_ 0.140694 0.685105 0.638389 -0.05681
C_ C_ 0.190326 0.682366 0.626748 -0.05681
C_ C_ 0.232126 0.67024 0.64349 -0.08735
C_ C_ 0.22429 0.661569 0.672924 -0.08735
C_ C_ 0.176628 0.666245 0.685397 -0.05681
C_ C_ 0.169053 0.657495 0.715018 0.44287
C_ C_ 0.0852 0.689934 0.711882 0.44287
C_ C_ 0.112667 0.655413 0.757223 0.18498
C_ C_ 0.0906621 0.606519 0.763593 -0.08735
C_ C_ 0.0774001 0.593562 0.792904 -0.08735
C_ C_ 0.0884016 0.630489 0.81455 -0.08735
C_ C_ 0.113643 0.674864 0.809667 0.18498
C_ C_ 0.125562 0.689396 0.781347 -0.05681
C_ C_ 0.152003 0.733831 0.776074 -0.08735
C_ C_ 0.175636 0.757813 0.799075 -0.08735
C_ C_ 0.163486 0.742389 0.827768 0.1947
C_ C_ 0.280184 0.80243 0.660963 0.68181
C_ C_ 0.225638 0.80388 0.657367 -0.05681
C_ C_ 0.191121 0.803766 0.680352 -0.08735
C_ C_ 0.137204 0.81272 0.676228 -0.05681
C_ C_ 0.119134 0.815951 0.647485 -0.05681
C_ C_ 0.154043 0.810259 0.625315 -0.08735
C_ C_ 0.206357 0.811173 0.629974 -0.08735
C_ C_ 0.1021 0.814867 0.698744 -0.08735
C_ C_ 0.0505407 0.8235 0.692785 -0.08735
C_ C_ 0.0333784 0.826533 0.664421 -0.05681
C_ C_ 0.0669933 0.826814 0.642325 -0.08735
C_ C_ 0.388802 0.721488 0.664814 0.68181
C_ C_ 0.369305 0.917064 0.648791 0.68181
C_ C_ 0.360224 0.972137 0.644758 -0.05681
C_ C_ 0.36187 0.505058 0.670525 -0.08735
C_ C_ 0.365497 0.557868 0.669251 -0.05681
C_ C_ 0.387031 0.579836 0.643241 -0.05681
C_ C_ 0.401928 0.550587 0.621144 -0.08735
C_ C_ 0.376546 0.996284 0.619865 -0.08735
C_ C_ 0.351509 0.587422 0.692562 -0.08735
C_ C_ 0.361317 0.64 0.691153 -0.08735
C_ C_ 0.384006 0.663736 0.666007 -0.05681
C_ C_ 0.39317 0.632774 0.642073 -0.08735
C_ C_ 0.477514 0.82128 0.656612 0.68181
C_ C_ 0.403611 0.873466 0.735904 0.1947
C_ C_ 0.414133 0.88775 0.763513 -0.08735
C_ C_ 0.392331 0.85745 0.786369 -0.08735
C_ C_ 0.363383 0.816173 0.778877 -0.05681
C_ C_ 0.349456 0.807651 0.749249 0.18498
C_ C_ 0.311748 0.771426 0.742831 -0.08735
C_ C_ 0.295367 0.736943 0.764428 -0.08735
C_ C_ 0.314616 0.742065 0.792254 -0.08735
C_ C_ 0.348733 0.780215 0.799819 0.18498
C_ C_ 0.313676 0.798511 0.846732 0.44287
C_ C_ 0.403335 0.788762 0.842246 0.44287
C_ C_ 0.408963 0.798592 0.872195 -0.05681
C_ C_ 0.455547 0.790092 0.886599 -0.08735
C_ C_ 0.461361 0.798307 0.91673 -0.08735
C_ C_ 0.418921 0.816115 0.933305 -0.05681
C_ C_ 0.37226 0.821042 0.919089 -0.05681
C_ C_ 0.368863 0.812081 0.888525 -0.05681
C_ C_ 0.319472 0.809111 0.876432 -0.05681
C_ C_ 0.278949 0.822205 0.893588 -0.08735
C_ C_ 0.283296 0.838463 0.921722 -0.08735
C_ C_ 0.329747 0.833419 0.935796 -0.05681
C_ C_ 0.334373 0.838334 0.965833 0.44287
C_ C_ 0.420102 0.81668 0.963506 0.44287
C_ C_ 0.398469 0.851498 0.511781 0.18498
C_ C_ 0.423482 0.896049 0.517905 -0.08735
C_ C_ 0.435458 0.909532 0.546265 -0.08735
C_ C_ 0.422796 0.876498 0.569183 -0.08735
C_ C_ 0.397787 0.828619 0.563429 0.18498
C_ C_ 0.386396 0.818127 0.534482 -0.05681
C_ C_ 0.36543 0.770932 0.529391 -0.08735
C_ C_ 0.354114 0.737633 0.552389 -0.08735
C_ C_ 0.360764 0.753561 0.580056 0.1947
N_ N_ 0.127691 0.663191 0.980159 -0.29468
N_ N_ 0.155078 0.698644 0.579451 -0.17154
N_ N_ 0.124282 0.667485 0.727478 -0.17154
N_ N_ 0.130862 0.702956 0.832072 -0.29468
N_ N_ 0.374335 0.834251 0.728156 -0.29468
N_ N_ 0.354761 0.792695 0.830338 -0.17154
N_ N_ 0.378195 0.825988 0.979475 -0.17154
N_ N_ 0.378834 0.798982 0.585269 -0.29468
O_ O_ 0.211023 0.682437 0.92953 -0.58347
O_ O_ 0.204962 0.702727 0.885123 -0.58347
O_ O_ 0.137506 0.752867 0.93587 -0.58347
O_ O_ 0.11902 0.759859 0.889916 -0.58347
O_ O_ 0.132886 0.605444 0.922939 -0.58347
O_ O_ 0.14271 0.610163 0.876611 -0.58347
O_ O_ 0.0636007 0.678965 0.929677 -0.58347
O_ O_ 0.0540906 0.67369 0.884676 -0.58347
O_ O_ 0.0724417 0.723937 0.574786 -0.46727
O_ O_ 0.240337 0.678985 0.582886 -0.46727
O_ O_ 0.0396911 0.698799 0.724193 -0.46727
O_ O_ 0.20544 0.634148 0.730588 -0.46727
O_ O_ 0.296995 0.828643 0.681839 -0.58347
O_ O_ 0.307907 0.797457 0.638415 -0.58347
O_ O_ 0.369425 0.74858 0.684573 -0.58347
O_ O_ 0.394676 0.740211 0.639461 -0.58347
O_ O_ 0.382539 0.901542 0.673959 -0.58347
O_ O_ 0.362031 0.885978 0.628994 -0.58347
O_ O_ 0.44908 0.817015 0.678831 -0.58347
O_ O_ 0.456759 0.829734 0.632326 -0.58347
O_ O_ 0.443049 0.785299 0.825761 -0.46727
O_ O_ 0.267346 0.796117 0.835718 -0.46727
O_ O_ 0.465938 0.809427 0.97528 -0.46727
O_ O_ 0.292019 0.841422 0.981274 -0.46727
Zn Zn 0.624537 0.192894 0.378548 0.90689
Zn Zn 0.637381 0.178491 0.427286 0.90689
Zn Zn 0.877178 0.319054 0.132239 0.90689
Zn Zn 0.870181 0.324122 0.179251 0.90689
H_ H_ 0.805102 0.20164 0.43889 0.11455
H_ H_ 0.877622 0.153956 0.344094 0.11455
H_ H_ 0.778274 0.159804 0.353889 0.11455
H_ H_ 0.892129 0.208768 0.459142 0.11455
H_ H_ 0.98128 0.192024 0.454592 0.11455
H_ H_ 0.95821 0.153068 0.362434 0.11455
H_ H_ 0.628398 0.0172373 0.44082 0.11455
H_ H_ 0.640963 0.443283 0.346742 0.11455
H_ H_ 0.618079 0.0287498 0.35035 0.11455
H_ H_ 0.599429 0.426793 0.462049 0.11455
H_ H_ 0.630808 0.339936 0.456368 0.11455
H_ H_ 0.634676 0.355466 0.365524 0.11455
H_ H_ 0.58812 0.100572 0.4617 0.11455
H_ H_ 0.590885 0.0553468 0.0143671 0.11455
H_ H_ 0.620219 0.11077 0.0550932 0.11455
H_ H_ 0.679703 0.251269 0.472289 0.11455
H_ H_ 0.721839 0.292337 0.00905114 0.11455
H_ H_ 0.698231 0.277529 0.0599757 0.11455
H_ H_ 0.506988 0.176125 0.115081 0.11455
H_ H_ 0.495806 0.186451 0.165799 0.11455
H_ H_ 0.758359 0.19528 0.139121 0.11455
H_ H_ 0.746215 0.176881 0.188505 0.11455
H_ H_ 0.540933 0.104727 0.249176 0.11455
H_ H_ 0.519629 0.0885608 0.298195 0.11455
H_ H_ 0.56512 0.134984 0.336992 0.11455
H_ H_ 0.648151 0.252596 0.251074 0.11455
H_ H_ 0.691495 0.295891 0.287916 0.11455
H_ H_ 0.684526 0.266827 0.33913 0.11455
H_ H_ 0.703188 0.29996 0.194263 0.11455
H_ H_ 0.63498 0.316217 0.0952814 0.11455
H_ H_ 0.723648 0.320107 0.102636 0.11455
H_ H_ 0.616683 0.296163 0.212609 0.11455
H_ H_ 0.523387 0.295307 0.206322 0.11455
H_ H_ 0.547931 0.308113 0.116183 0.11455
H_ H_ 0.886678 0.48891 0.19237 0.11455
H_ H_ 0.887151 0.0675485 0.0980363 0.11455
H_ H_ 0.882673 0.481021 0.0983403 0.11455
H_ H_ 0.826561 0.0769707 0.209611 0.11455
H_ H_ 0.856191 0.164389 0.20957 0.11455
H_ H_ 0.884111 0.154188 0.119448 0.11455
H_ H_ 0.918325 0.397322 0.215083 0.11455
H_ H_ 0.921063 0.433737 0.262119 0.11455
H_ H_ 0.894803 0.38386 0.304049 0.11455
H_ H_ 0.801234 0.265137 0.223517 0.11455
H_ H_ 0.774971 0.208821 0.262926 0.11455
H_ H_ 0.793646 0.228002 0.314109 0.11455
H_ H_ 0.979751 0.295054 0.375743 0.11455
H_ H_ -0.013336000000000015 0.308525 0.426032 0.11455
H_ H_ 0.73613 0.367207 0.383872 0.11455
H_ H_ 0.743259 0.370142 0.436683 0.11455
H_ H_ 0.927137 0.41988 0.501303 0.11455
H_ H_ 0.974011 0.416149 0.0452185 0.11455
H_ H_ 0.941494 0.373206 0.0860574 0.11455
H_ H_ 0.832426 0.258661 0.00816435 0.11455
H_ H_ 0.800477 0.209142 0.0486943 0.11455
H_ H_ 0.820298 0.239043 0.0975143 0.11455
C_ C_ 0.730021 0.187446 0.400808 0.68181
C_ C_ 0.786046 0.178008 0.397021 -0.05681
C_ C_ 0.819451 0.18657 0.419813 -0.08735
C_ C_ 0.872833 0.184601 0.4157 -0.05681
C_ C_ 0.892406 0.174625 0.387918 -0.05681
C_ C_ 0.859353 0.16646 0.365165 -0.08735
C_ C_ 0.805059 0.165045 0.370006 -0.08735
C_ C_ 0.906722 0.196279 0.438687 -0.08735
C_ C_ 0.957603 0.182854 0.435813 -0.08735
C_ C_ 0.978404 0.172573 0.40836 -0.05681
C_ C_ 0.94512 0.168135 0.383906 -0.08735
C_ C_ 0.618974 0.282752 0.408809 0.68181
C_ C_ 0.628565 0.0865843 0.398822 0.68181
C_ C_ 0.62977 0.0297286 0.396092 -0.05681
C_ C_ 0.613437 0.499017 0.421021 -0.08735
C_ C_ 0.611457 0.44539 0.41668 -0.05681
C_ C_ 0.620172 0.426121 0.389503 -0.05681
C_ C_ 0.630978 0.458215 0.366478 -0.08735
C_ C_ 0.631603 0.510215 0.37008 -0.08735
C_ C_ 0.613976 0.413585 0.441373 -0.08735
C_ C_ 0.619033 0.362554 0.438499 -0.08735
C_ C_ 0.622705 0.339417 0.411255 -0.05681
C_ C_ 0.627536 0.372925 0.387387 -0.08735
C_ C_ 0.53399 0.180494 0.404272 0.68181
C_ C_ 0.606447 0.121928 0.47928 0.1947
C_ C_ 0.605346 0.0942003 0.0111966 -0.08735
C_ C_ 0.622387 0.124026 0.0340112 -0.08735
C_ C_ 0.645119 0.172221 0.0271502 -0.05681
C_ C_ 0.65226 0.187939 0.998352 0.18498
C_ C_ 0.673901 0.238778 0.493383 -0.08735
C_ C_ 0.692258 0.264697 0.0149549 -0.08735
C_ C_ 0.683508 0.253163 0.0432152 -0.08735
C_ C_ 0.659276 0.205094 0.0495327 0.18498
C_ C_ 0.689434 0.176529 0.0960358 0.44287
C_ C_ 0.600902 0.194264 0.0900356 0.44287
C_ C_ 0.590051 0.178691 0.118699 -0.05681
C_ C_ 0.540483 0.180607 0.128667 -0.08735
C_ C_ 0.534375 0.186055 0.157739 -0.08735
C_ C_ 0.574192 0.182834 0.178461 -0.05681
C_ C_ 0.623242 0.176679 0.16818 -0.05681
C_ C_ 0.631977 0.177586 0.137443 -0.05681
C_ C_ 0.681025 0.182814 0.126628 -0.05681
C_ C_ 0.721307 0.184354 0.146622 -0.08735
C_ C_ 0.714134 0.176348 0.175716 -0.08735
C_ C_ 0.66529 0.173848 0.187094 -0.05681
C_ C_ 0.653756 0.16672 0.216319 0.44287
C_ C_ 0.566031 0.183506 0.207726 0.44287
C_ C_ 0.592583 0.166705 0.257445 0.18498
C_ C_ 0.559923 0.128496 0.264618 -0.08735
C_ C_ 0.546547 0.119169 0.293429 -0.08735
C_ C_ 0.573084 0.144433 0.315445 -0.08735
C_ C_ 0.607371 0.182838 0.309618 0.18498
C_ C_ 0.616003 0.195861 0.279543 -0.05681
C_ C_ 0.643396 0.238788 0.273558 -0.08735
C_ C_ 0.668828 0.264103 0.29492 -0.08735
C_ C_ 0.664557 0.246921 0.323351 0.1947
C_ C_ 0.775445 0.321685 0.152297 0.68181
C_ C_ 0.720551 0.314735 0.149385 -0.05681
C_ C_ 0.688246 0.310697 0.173699 -0.08735
C_ C_ 0.635737 0.309018 0.168986 -0.05681
C_ C_ 0.61575 0.310753 0.14041 -0.05681
C_ C_ 0.648965 0.314517 0.117065 -0.08735
C_ C_ 0.700317 0.315037 0.122143 -0.08735
C_ C_ 0.60224 0.301799 0.192485 -0.08735
C_ C_ 0.549362 0.301507 0.187865 -0.08735
C_ C_ 0.530127 0.304554 0.160349 -0.05681
C_ C_ 0.563473 0.308022 0.136827 -0.08735
C_ C_ 0.878229 0.223629 0.161948 0.68181
C_ C_ 0.875504 0.419653 0.148499 0.68181
C_ C_ 0.87985 0.477542 0.146462 -0.05681
C_ C_ 0.846779 0.00693503 0.170774 -0.08735
C_ C_ 0.854404 0.0588111 0.169257 -0.05681
C_ C_ 0.865647 0.0828318 0.141609 -0.05681
C_ C_ 0.869657 0.0512978 0.117816 -0.08735
C_ C_ 0.881446 0.501816 0.118926 -0.08735
C_ C_ 0.847227 0.0919986 0.191781 -0.08735
C_ C_ 0.856048 0.143244 0.189415 -0.08735
C_ C_ 0.870661 0.167146 0.163929 -0.05681
C_ C_ 0.870826 0.136718 0.139235 -0.08735
C_ C_ 0.970492 0.326553 0.156271 0.68181
C_ C_ 0.894282 0.383511 0.232592 0.1947
C_ C_ 0.900782 0.400586 0.259589 -0.08735
C_ C_ 0.882968 0.373155 0.282936 -0.08735
C_ C_ 0.856557 0.326298 0.278023 -0.05681
C_ C_ 0.848983 0.310386 0.249414 0.18498
C_ C_ 0.818053 0.267776 0.24534 -0.08735
C_ C_ 0.801755 0.238544 0.267889 -0.08735
C_ C_ 0.813011 0.250975 0.296397 -0.08735
C_ C_ 0.837165 0.296927 0.301976 0.18498
C_ C_ 0.805663 0.329137 0.346996 0.44287
C_ C_ 0.891109 0.300186 0.344427 0.44287
C_ C_ 0.898825 0.313635 0.37332 -0.05681
C_ C_ 0.947241 0.312154 0.38676 -0.08735
C_ C_ 0.95201 0.319411 0.416705 -0.08735
C_ C_ 0.910333 0.328023 0.434349 -0.05681
C_ C_ 0.862938 0.331741 0.421227 -0.05681
C_ C_ 0.858382 0.330955 0.390324 -0.05681
C_ C_ 0.812236 0.339688 0.376761 -0.05681
C_ C_ 0.770974 0.357549 0.393931 -0.08735
C_ C_ 0.775641 0.357184 0.423974 -0.08735
C_ C_ 0.821032 0.343887 0.438435 -0.05681
C_ C_ 0.828523 0.350224 0.46915 0.44287
C_ C_ 0.91341 0.327716 0.464582 0.44287
C_ C_ 0.889235 0.342032 0.0103996 0.18498
C_ C_ 0.924545 0.382115 0.0150947 -0.08735
C_ C_ 0.943079 0.390704 0.0416766 -0.08735
C_ C_ 0.925932 0.363172 0.0651021 -0.08735
C_ C_ 0.888672 0.324765 0.0620585 0.18498
C_ C_ 0.871979 0.312637 0.033614 -0.05681
C_ C_ 0.839196 0.270908 0.0295315 -0.08735
C_ C_ 0.82434 0.241017 0.0536185 -0.08735
C_ C_ 0.839067 0.255001 0.0801436 0.1947
N_ N_ 0.639108 0.16214 0.475277 -0.29468
N_ N_ 0.650892 0.188072 0.0789085 -0.17154
N_ N_ 0.60338 0.171554 0.226475 -0.17154
N_ N_ 0.634989 0.206736 0.330911 -0.29468
N_ N_ 0.871931 0.337961 0.227594 -0.29468
N_ N_ 0.845549 0.311698 0.331108 -0.17154
N_ N_ 0.874048 0.3438 0.48133 -0.17154
N_ N_ 0.871078 0.295196 0.0843107 -0.29468
O_ O_ 0.709599 0.180325 0.42577 -0.58347
O_ O_ 0.702246 0.199363 0.379619 -0.58347
O_ O_ 0.628058 0.253931 0.429821 -0.58347
O_ O_ 0.617947 0.262452 0.384546 -0.58347
O_ O_ 0.646206 0.106564 0.421758 -0.58347
O_ O_ 0.631587 0.114745 0.376359 -0.58347
O_ O_ 0.562124 0.170067 0.425524 -0.58347
O_ O_ 0.552683 0.186206 0.379129 -0.58347
O_ O_ 0.563922 0.207207 0.0735619 -0.46727
O_ O_ 0.734168 0.180472 0.0861683 -0.46727
O_ O_ 0.52187 0.197515 0.217823 -0.46727
O_ O_ 0.689979 0.149715 0.233434 -0.46727
O_ O_ 0.796255 0.326282 0.176414 -0.58347
O_ O_ 0.80299 0.315889 0.130159 -0.58347
O_ O_ 0.875463 0.249455 0.185442 -0.58347
O_ O_ 0.878529 0.244682 0.138509 -0.58347
O_ O_ 0.861968 0.400626 0.172311 -0.58347
O_ O_ 0.880321 0.392021 0.125665 -0.58347
O_ O_ 0.943143 0.332909 0.178117 -0.58347
O_ O_ 0.952771 0.318394 0.131419 -0.58347
O_ O_ 0.930876 0.293303 0.327353 -0.46727
O_ O_ 0.761468 0.337142 0.33451 -0.46727
O_ O_ 0.956574 0.318541 0.476637 -0.46727
O_ O_ 0.789446 0.353785 0.485624 -0.46727
Zn Zn 0.63505 0.173695 0.881916 0.90689
Zn Zn 0.638633 0.171595 0.92975 0.90689
Zn Zn 0.87312 0.317164 0.633656 0.90689
Zn Zn 0.863984 0.326138 0.678651 0.90689
H_ H_ 0.811385 0.195082 0.946579 0.11455
H_ H_ 0.881364 0.15623 0.851067 0.11455
H_ H_ 0.793748 0.159393 0.857947 0.11455
H_ H_ 0.895473 0.180188 0.968231 0.11455
H_ H_ 0.989143 0.188066 0.9601 0.11455
H_ H_ 0.967351 0.151987 0.870312 0.11455
H_ H_ 0.628224 0.00265607 0.942054 0.11455
H_ H_ 0.636886 0.423132 0.844693 0.11455
H_ H_ 0.659037 0.0153629 0.851399 0.11455
H_ H_ 0.635038 0.417243 0.964864 0.11455
H_ H_ 0.616561 0.325035 0.958339 0.11455
H_ H_ 0.640563 0.336345 0.86752 0.11455
H_ H_ 0.592945 0.0929535 0.966293 0.11455
H_ H_ 0.576731 0.0676018 0.511206 0.11455
H_ H_ 0.610461 0.116951 0.552618 0.11455
H_ H_ 0.680275 0.245959 0.971105 0.11455
H_ H_ 0.696871 0.31003 0.509753 0.11455
H_ H_ 0.680551 0.286547 0.560237 0.11455
H_ H_ 0.503436 0.194793 0.620476 0.11455
H_ H_ 0.495341 0.199066 0.673381 0.11455
H_ H_ 0.754606 0.173161 0.63664 0.11455
H_ H_ 0.744818 0.172225 0.687283 0.11455
H_ H_ 0.553461 0.0962687 0.746301 0.11455
H_ H_ 0.536972 0.0720096 0.797869 0.11455
H_ H_ 0.574637 0.118751 0.837307 0.11455
H_ H_ 0.658615 0.246602 0.757113 0.11455
H_ H_ 0.701945 0.289126 0.800849 0.11455
H_ H_ 0.6952 0.251101 0.849223 0.11455
H_ H_ 0.695606 0.311937 0.698406 0.11455
H_ H_ 0.628416 0.322233 0.599165 0.11455
H_ H_ 0.72035 0.320138 0.606623 0.11455
H_ H_ 0.605681 0.313392 0.717647 0.11455
H_ H_ 0.51722 0.31686 0.707971 0.11455
H_ H_ 0.544923 0.309461 0.616588 0.11455
H_ H_ 0.841379 0.49217 0.6908 0.11455
H_ H_ 0.891868 0.0696089 0.600637 0.11455
H_ H_ 0.893037 0.475199 0.604335 0.11455
H_ H_ 0.866742 0.0750004 0.717599 0.11455
H_ H_ 0.857777 0.168499 0.709833 0.11455
H_ H_ 0.887087 0.151409 0.620316 0.11455
H_ H_ 0.916045 0.398412 0.718351 0.11455
H_ H_ 0.918337 0.42961 0.766516 0.11455
H_ H_ 0.891521 0.37886 0.806923 0.11455
H_ H_ 0.812506 0.257107 0.722629 0.11455
H_ H_ 0.779131 0.200186 0.761673 0.11455
H_ H_ 0.798228 0.220314 0.81224 0.11455
H_ H_ 0.992246 0.286664 0.87484 0.11455
H_ H_ 0.0022100000000000453 0.299751 0.926338 0.11455
H_ H_ 0.739057 0.340702 0.886233 0.11455
H_ H_ 0.749141 0.335142 0.939599 0.11455
H_ H_ 0.936104 0.404776 0.998397 0.11455
H_ H_ 0.952751 0.438805 0.552823 0.11455
H_ H_ 0.921946 0.38599 0.591062 0.11455
H_ H_ 0.831856 0.265998 0.508687 0.11455
H_ H_ 0.798405 0.218108 0.548824 0.11455
H_ H_ 0.819979 0.243438 0.598598 0.11455
C_ C_ 0.737797 0.175797 0.906277 0.68181
C_ C_ 0.793993 0.176455 0.902523 -0.05681
C_ C_ 0.827513 0.186475 0.925117 -0.08735
C_ C_ 0.878469 0.175607 0.923181 -0.05681
C_ C_ 0.898643 0.170358 0.895238 -0.05681
C_ C_ 0.866196 0.161373 0.87211 -0.08735
C_ C_ 0.816135 0.163574 0.875572 -0.08735
C_ C_ 0.910494 0.177829 0.946659 -0.08735
C_ C_ 0.963475 0.179348 0.941722 -0.08735
C_ C_ 0.983933 0.171903 0.914295 -0.05681
C_ C_ 0.951571 0.166371 0.89071 -0.08735
C_ C_ 0.627033 0.27053 0.911413 0.68181
C_ C_ 0.643479 0.071212 0.89986 0.68181
C_ C_ 0.648671 0.0145256 0.897647 -0.05681
C_ C_ 0.650841 0.484945 0.920488 -0.08735
C_ C_ 0.646839 0.431208 0.91834 -0.05681
C_ C_ 0.646451 0.408284 0.890606 -0.05681
C_ C_ 0.641164 0.439047 0.865731 -0.08735
C_ C_ 0.643751 0.492738 0.869128 -0.08735
C_ C_ 0.642701 0.39982 0.943319 -0.08735
C_ C_ 0.629106 0.349487 0.940289 -0.08735
C_ C_ 0.631628 0.326824 0.913643 -0.05681
C_ C_ 0.637501 0.355037 0.8891 -0.08735
C_ C_ 0.540737 0.162275 0.906514 0.68181
C_ C_ 0.609652 0.113516 0.983315 0.1947
C_ C_ 0.593267 0.105148 0.50747 -0.08735
C_ C_ 0.612545 0.132614 0.53092 -0.08735
C_ C_ 0.636233 0.179578 0.52645 -0.05681
C_ C_ 0.651113 0.19267 0.498248 0.18498
C_ C_ 0.676839 0.231892 0.993692 -0.08735
C_ C_ 0.681161 0.272958 0.515161 -0.08735
C_ C_ 0.670344 0.258976 0.543702 -0.08735
C_ C_ 0.653644 0.21038 0.550223 0.18498
C_ C_ 0.684708 0.192839 0.597973 0.44287
C_ C_ 0.595334 0.194301 0.591397 0.44287
C_ C_ 0.587067 0.186853 0.62045 -0.05681
C_ C_ 0.538557 0.194249 0.633282 -0.08735
C_ C_ 0.530531 0.187362 0.662792 -0.08735
C_ C_ 0.571199 0.182886 0.681186 -0.05681
C_ C_ 0.621153 0.179031 0.669603 -0.05681
C_ C_ 0.627957 0.178537 0.639221 -0.05681
C_ C_ 0.677356 0.179562 0.626731 -0.05681
C_ C_ 0.717773 0.171357 0.64487 -0.08735
C_ C_ 0.712227 0.170138 0.675205 -0.08735
C_ C_ 0.663761 0.173844 0.687385 -0.05681
C_ C_ 0.656592 0.170839 0.717477 0.44287
C_ C_ 0.567359 0.182051 0.711744 0.44287
C_ C_ 0.602131 0.160253 0.75907 0.18498
C_ C_ 0.569795 0.117959 0.764879 -0.08735
C_ C_ 0.563603 0.100703 0.793512 -0.08735
C_ C_ 0.587002 0.127719 0.815925 -0.08735
C_ C_ 0.61959 0.167545 0.810572 0.18498
C_ C_ 0.626991 0.185924 0.782565 -0.05681
C_ C_ 0.656428 0.229857 0.77798 -0.08735
C_ C_ 0.681124 0.254105 0.801718 -0.08735
C_ C_ 0.675538 0.23303 0.829881 0.1947
C_ C_ 0.772416 0.320395 0.658091 0.68181
C_ C_ 0.715732 0.317914 0.653685 -0.05681
C_ C_ 0.682361 0.321571 0.676925 -0.08735
C_ C_ 0.630373 0.317864 0.67292 -0.05681
C_ C_ 0.608942 0.322697 0.644702 -0.05681
C_ C_ 0.642219 0.32183 0.621073 -0.08735
C_ C_ 0.694487 0.318981 0.62568 -0.08735
C_ C_ 0.595974 0.322722 0.695982 -0.08735
C_ C_ 0.54405 0.321081 0.689931 -0.08735
C_ C_ 0.524989 0.31774 0.662048 -0.05681
C_ C_ 0.559918 0.31751 0.638558 -0.08735
C_ C_ 0.871565 0.223124 0.661868 0.68181
C_ C_ 0.863083 0.4211 0.651889 0.68181
C_ C_ 0.865704 0.480322 0.647732 -0.05681
C_ C_ 0.868658 0.00812271 0.674254 -0.08735
C_ C_ 0.870429 0.0615078 0.672122 -0.05681
C_ C_ 0.882066 0.0838042 0.645175 -0.05681
C_ C_ 0.89255 0.0530212 0.621656 -0.08735
C_ C_ 0.88227 0.50172 0.622327 -0.08735
C_ C_ 0.86748 0.0917419 0.695864 -0.08735
C_ C_ 0.864051 0.14502 0.691531 -0.08735
C_ C_ 0.866633 0.167528 0.664362 -0.05681
C_ C_ 0.880263 0.135799 0.641752 -0.08735
C_ C_ 0.966394 0.328729 0.652798 0.68181
C_ C_ 0.896958 0.376015 0.734872 0.1947
C_ C_ 0.904237 0.39138 0.763184 -0.08735
C_ C_ 0.889154 0.36406 0.785966 -0.08735
C_ C_ 0.861788 0.318859 0.780597 -0.05681
C_ C_ 0.854133 0.303662 0.750795 0.18498
C_ C_ 0.823823 0.260919 0.7446 -0.08735
C_ C_ 0.80519 0.230681 0.767222 -0.08735
C_ C_ 0.814784 0.243398 0.79529 -0.08735
C_ C_ 0.844342 0.285684 0.803031 0.18498
C_ C_ 0.814326 0.31695 0.8488 0.44287
C_ C_ 0.899695 0.292014 0.844571 0.44287
C_ C_ 0.90796 0.297073 0.874039 -0.05681
C_ C_ 0.956599 0.293381 0.888032 -0.08735
C_ C_ 0.961771 0.301722 0.91768 -0.08735
C_ C_ 0.917213 0.304091 0.935733 -0.05681
C_ C_ 0.872585 0.316468 0.922317 -0.05681
C_ C_ 0.866626 0.312232 0.892458 -0.05681
C_ C_ 0.820227 0.321292 0.879319 -0.05681
C_ C_ 0.774828 0.327369 0.895894 -0.08735
C_ C_ 0.782524 0.333403 0.925761 -0.08735
C_ C_ 0.831237 0.332488 0.938751 -0.05681
C_ C_ 0.835989 0.335542 0.968915 0.44287
C_ C_ 0.921508 0.30718 0.966038 0.44287
C_ C_ 0.882639 0.355606 0.511852 0.18498
C_ C_ 0.917945 0.394148 0.518241 -0.08735
C_ C_ 0.934438 0.402369 0.546412 -0.08735
C_ C_ 0.915137 0.374283 0.568866 -0.08735
C_ C_ 0.88006 0.335496 0.563618 0.18498
C_ C_ 0.867673 0.322313 0.53413 -0.05681
C_ C_ 0.83495 0.281958 0.529264 -0.08735
C_ C_ 0.817387 0.253247 0.552085 -0.08735
C_ C_ 0.830724 0.264253 0.58047 0.1947
N_ N_ 0.633531 0.15905 0.977133 -0.29468
N_ N_ 0.644388 0.195204 0.579961 -0.17154
N_ N_ 0.608749 0.17483 0.729387 -0.17154
N_ N_ 0.644399 0.188823 0.8331 -0.29468
N_ N_ 0.869977 0.334796 0.729021 -0.29468
N_ N_ 0.852651 0.298191 0.832724 -0.17154
N_ N_ 0.880122 0.323095 0.982168 -0.17154
N_ N_ 0.860137 0.306695 0.58619 -0.29468
O_ O_ 0.715544 0.183366 0.930561 -0.58347
O_ O_ 0.711211 0.167042 0.884479 -0.58347
O_ O_ 0.621621 0.243948 0.934044 -0.58347
O_ O_ 0.642039 0.249342 0.889103 -0.58347
O_ O_ 0.649928 0.0925031 0.924343 -0.58347
O_ O_ 0.628873 0.097378 0.877593 -0.58347
O_ O_ 0.570376 0.151845 0.92639 -0.58347
O_ O_ 0.558806 0.175795 0.88353 -0.58347
O_ O_ 0.554681 0.1957 0.574967 -0.46727
O_ O_ 0.732195 0.198763 0.588605 -0.46727
O_ O_ 0.52197 0.189277 0.723774 -0.46727
O_ O_ 0.69567 0.157526 0.733882 -0.46727
O_ O_ 0.792264 0.32673 0.682993 -0.58347
O_ O_ 0.799886 0.317739 0.636587 -0.58347
O_ O_ 0.866852 0.254138 0.681991 -0.58347
O_ O_ 0.876997 0.240802 0.636527 -0.58347
O_ O_ 0.858976 0.401934 0.677191 -0.58347
O_ O_ 0.866557 0.391626 0.630377 -0.58347
O_ O_ 0.940066 0.327597 0.676276 -0.58347
O_ O_ 0.945773 0.326751 0.628442 -0.58347
O_ O_ 0.937928 0.277948 0.829244 -0.46727
O_ O_ 0.768248 0.319992 0.837431 -0.46727
O_ O_ 0.966691 0.303237 0.977025 -0.46727
O_ O_ 0.799827 0.354775 0.983528 -0.46727
Zn Zn 0.615872 0.690562 0.384087 0.90689
Zn Zn 0.625374 0.682137 0.429366 0.90689
Zn Zn 0.875076 0.816925 0.132804 0.90689
Zn Zn 0.863838 0.825508 0.180607 0.90689
H_ H_ 0.79225 0.673849 0.447456 0.11455
H_ H_ 0.859667 0.672104 0.347507 0.11455
H_ H_ 0.767343 0.673356 0.357067 0.11455
H_ H_ 0.874907 0.652189 0.463629 0.11455
H_ H_ 0.967568 0.659898 0.458928 0.11455
H_ H_ 0.949986 0.687223 0.369154 0.11455
H_ H_ 0.610314 0.514038 0.442281 0.11455
H_ H_ 0.607881 0.938436 0.347369 0.11455
H_ H_ 0.635735 0.533876 0.351214 0.11455
H_ H_ 0.624786 0.935326 0.462812 0.11455
H_ H_ 0.613037 0.84465 0.46178 0.11455
H_ H_ 0.604426 0.850031 0.370314 0.11455
H_ H_ 0.56318 0.612012 0.466089 0.11455
H_ H_ 0.552989 0.578572 0.012249 0.11455
H_ H_ 0.586185 0.615423 0.0540315 0.11455
H_ H_ 0.689547 0.739015 0.470957 0.11455
H_ H_ 0.718676 0.787499 0.0198681 0.11455
H_ H_ 0.696312 0.756726 0.0676837 0.11455
H_ H_ 0.508518 0.698034 0.126521 0.11455
H_ H_ 0.50486 0.694448 0.177551 0.11455
H_ H_ 0.754889 0.625012 0.132961 0.11455
H_ H_ 0.753804 0.643158 0.185875 0.11455
H_ H_ 0.574918 0.585297 0.24871 0.11455
H_ H_ 0.539075 0.568169 0.297082 0.11455
H_ H_ 0.561883 0.622782 0.337813 0.11455
H_ H_ 0.670322 0.741287 0.257891 0.11455
H_ H_ 0.689426 0.79709 0.300791 0.11455
H_ H_ 0.663342 0.767362 0.348492 0.11455
H_ H_ 0.690229 0.800221 0.196478 0.11455
H_ H_ 0.630189 0.828249 0.0963782 0.11455
H_ H_ 0.718664 0.832302 0.106047 0.11455
H_ H_ 0.60289 0.801887 0.213834 0.11455
H_ H_ 0.513491 0.813464 0.204715 0.11455
H_ H_ 0.542576 0.81166 0.1135 0.11455
H_ H_ 0.837462 0.989682 0.191438 0.11455
H_ H_ 0.873539 0.570547 0.0981495 0.11455
H_ H_ 0.866098 0.973807 0.100479 0.11455
H_ H_ 0.888632 0.578061 0.216143 0.11455
H_ H_ 0.898982 0.668091 0.21153 0.11455
H_ H_ 0.870163 0.653141 0.120666 0.11455
H_ H_ 0.89682 0.902943 0.214262 0.11455
H_ H_ 0.922184 0.931641 0.263302 0.11455
H_ H_ 0.884059 0.883875 0.305292 0.11455
H_ H_ 0.811039 0.750382 0.222828 0.11455
H_ H_ 0.783421 0.699706 0.264064 0.11455
H_ H_ 0.790061 0.733355 0.313502 0.11455
H_ H_ 0.97956 0.788361 0.369688 0.11455
H_ H_ -0.005774999999999975 0.794692 0.42246 0.11455
H_ H_ 0.735677 0.837499 0.393636 0.11455
H_ H_ 0.751123 0.847438 0.444048 0.11455
H_ H_ 0.92967 0.91033 0.4954 0.11455
H_ H_ 0.974136 0.918438 0.0488019 0.11455
H_ H_ 0.933317 0.875005 0.0893095 0.11455
H_ H_ 0.839694 0.749345 0.0103587 0.11455
H_ H_ 0.803683 0.705412 0.053353 0.11455
H_ H_ 0.819321 0.741072 0.10023 0.11455
C_ C_ 0.718926 0.690063 0.408575 0.68181
C_ C_ 0.774436 0.684512 0.403975 -0.05681
C_ C_ 0.808693 0.676242 0.42598 -0.08735
C_ C_ 0.860047 0.6711 0.420738 -0.05681
C_ C_ 0.879112 0.673753 0.393062 -0.05681
C_ C_ 0.845269 0.671332 0.369624 -0.08735
C_ C_ 0.792892 0.67809 0.37447 -0.08735
C_ C_ 0.891741 0.659188 0.443371 -0.08735
C_ C_ 0.944514 0.659596 0.438638 -0.08735
C_ C_ 0.965994 0.670375 0.41213 -0.05681
C_ C_ 0.930757 0.676794 0.388847 -0.08735
C_ C_ 0.611881 0.784005 0.412902 0.68181
C_ C_ 0.622456 0.587701 0.401632 0.68181
C_ C_ 0.619653 0.532589 0.397673 -0.05681
C_ C_ 0.627485 1.0000259105 0.42063 -0.08735
C_ C_ 0.621746 0.947443 0.418561 -0.05681
C_ C_ 0.612901 0.923692 0.392317 -0.05681
C_ C_ 0.613989 0.953109 0.367586 -0.08735
C_ C_ 0.623005 1.00501197 0.368781 -0.08735
C_ C_ 0.619409 0.917393 0.442537 -0.08735
C_ C_ 0.617586 0.864279 0.441717 -0.08735
C_ C_ 0.607877 0.841293 0.415999 -0.05681
C_ C_ 0.608016 0.86942 0.391004 -0.08735
C_ C_ 0.518708 0.680187 0.406856 0.68181
C_ C_ 0.580781 0.633965 0.483344 0.1947
C_ C_ 0.586021 0.600161 0.00826922 -0.08735
C_ C_ 0.600369 0.628278 0.0324012 -0.08735
C_ C_ 0.630195 0.671676 0.0292202 -0.05681
C_ C_ 0.646291 0.685541 1.00126648 0.18498
C_ C_ 0.672134 0.738414 0.492385 -0.08735
C_ C_ 0.692207 0.756177 0.0211101 -0.08735
C_ C_ 0.681871 0.737603 0.0484449 -0.08735
C_ C_ 0.651639 0.697055 0.0535986 0.18498
C_ C_ 0.682221 0.660139 0.0971495 0.44287
C_ C_ 0.598226 0.693704 0.0956974 0.44287
C_ C_ 0.593122 0.688559 0.12443 -0.05681
C_ C_ 0.545983 0.693427 0.138648 -0.08735
C_ C_ 0.542903 0.691197 0.169365 -0.08735
C_ C_ 0.585681 0.68088 0.186043 -0.05681
C_ C_ 0.633246 0.671491 0.170475 -0.05681
C_ C_ 0.636088 0.673149 0.140301 -0.05681
C_ C_ 0.680412 0.656277 0.127415 -0.05681
C_ C_ 0.722464 0.641625 0.143844 -0.08735
C_ C_ 0.720451 0.643791 0.173486 -0.08735
C_ C_ 0.67353 0.655304 0.186692 -0.05681
C_ C_ 0.669465 0.651867 0.217391 0.44287
C_ C_ 0.584793 0.680421 0.21581 0.44287
C_ C_ 0.61869 0.65023 0.260845 0.18498
C_ C_ 0.589246 0.606728 0.267326 -0.08735
C_ C_ 0.567403 0.598912 0.293718 -0.08735
C_ C_ 0.577327 0.631041 0.315813 -0.08735
C_ C_ 0.608275 0.675042 0.311766 0.18498
C_ C_ 0.626532 0.687102 0.282852 -0.05681
C_ C_ 0.656485 0.730771 0.278602 -0.08735
C_ C_ 0.663717 0.762573 0.302564 -0.08735
C_ C_ 0.646307 0.749343 0.329952 0.1947
C_ C_ 0.77018 0.813545 0.155144 0.68181
C_ C_ 0.714565 0.814063 0.150633 -0.05681
C_ C_ 0.679787 0.806501 0.173362 -0.08735
C_ C_ 0.627479 0.810119 0.168891 -0.05681
C_ C_ 0.609703 0.812375 0.140544 -0.05681
C_ C_ 0.642728 0.822138 0.117899 -0.08735
C_ C_ 0.694844 0.821555 0.123243 -0.08735
C_ C_ 0.591298 0.806179 0.191414 -0.08735
C_ C_ 0.53853 0.808849 0.186204 -0.08735
C_ C_ 0.520842 0.816151 0.157938 -0.05681
C_ C_ 0.556136 0.814076 0.135028 -0.08735
C_ C_ 0.872687 0.721294 0.163309 0.68181
C_ C_ 0.855148 0.91846 0.148779 0.68181
C_ C_ 0.855953 0.97666 0.146532 -0.05681
C_ C_ 0.882777 0.507097 0.171449 -0.08735
C_ C_ 0.882273 0.559929 0.170451 -0.05681
C_ C_ 0.879969 0.582681 0.142962 -0.05681
C_ C_ 0.874695 0.553742 0.118237 -0.08735
C_ C_ 0.863456 0.998493 0.120213 -0.08735
C_ C_ 0.891251 0.591869 0.194491 -0.08735
C_ C_ 0.891581 0.645066 0.191908 -0.08735
C_ C_ 0.885682 0.666369 0.165281 -0.05681
C_ C_ 0.878179 0.634176 0.14118 -0.08735
C_ C_ 0.968464 0.827133 0.159872 0.68181
C_ C_ 0.882122 0.883982 0.232945 0.1947
C_ C_ 0.89545 0.899995 0.260563 -0.08735
C_ C_ 0.879119 0.870535 0.283882 -0.08735
C_ C_ 0.849745 0.825073 0.279338 -0.05681
C_ C_ 0.841394 0.810721 0.250157 0.18498
C_ C_ 0.822276 0.761408 0.244009 -0.08735
C_ C_ 0.805185 0.732975 0.267945 -0.08735
C_ C_ 0.804579 0.75249 0.295851 -0.08735
C_ C_ 0.833884 0.79515 0.302526 0.18498
C_ C_ 0.804526 0.820166 0.351068 0.44287
C_ C_ 0.890127 0.802503 0.342897 0.44287
C_ C_ 0.900891 0.807256 0.372896 -0.05681
C_ C_ 0.948867 0.794737 0.384592 -0.08735
C_ C_ 0.956758 0.795749 0.413997 -0.08735
C_ C_ 0.918294 0.809147 0.43275 -0.05681
C_ C_ 0.87176 0.820983 0.421506 -0.05681
C_ C_ 0.861382 0.819349 0.391355 -0.05681
C_ C_ 0.813792 0.828373 0.380623 -0.05681
C_ C_ 0.77358 0.840737 0.400022 -0.08735
C_ C_ 0.781919 0.84132 0.429331 -0.08735
C_ C_ 0.831309 0.833602 0.441032 -0.05681
C_ C_ 0.839669 0.837692 0.470074 0.44287
C_ C_ 0.924073 0.811188 0.463194 0.44287
C_ C_ 0.902078 0.831382 0.0123584 0.18498
C_ C_ 0.938421 0.870002 0.0177421 -0.08735
C_ C_ 0.952477 0.884305 0.0454587 -0.08735
C_ C_ 0.929754 0.858559 0.0687921 -0.08735
C_ C_ 0.896682 0.817484 0.0638707 0.18498
C_ C_ 0.882299 0.803123 0.0353199 -0.05681
C_ C_ 0.843793 0.765026 0.0308498 -0.08735
C_ C_ 0.820282 0.742651 0.0545577 -0.08735
C_ C_ 0.831923 0.76127 0.0814824 0.1947
N_ N_ 0.617405 0.669401 0.477533 -0.29468
N_ N_ 0.642422 0.680485 0.082688 -0.17154
N_ N_ 0.625162 0.664663 0.230992 -0.17154
N_ N_ 0.619976 0.704461 0.334301 -0.29468
N_ N_ 0.854586 0.842592 0.228497 -0.29468
N_ N_ 0.842984 0.808227 0.332807 -0.17154
N_ N_ 0.885914 0.828211 0.481154 -0.17154
N_ N_ 0.869455 0.797824 0.0863069 -0.29468
O_ O_ 0.698258 0.674865 0.430816 -0.58347
O_ O_ 0.692783 0.702803 0.38782 -0.58347
O_ O_ 0.625569 0.757245 0.433993 -0.58347
O_ O_ 0.605026 0.764997 0.388298 -0.58347
O_ O_ 0.624377 0.6071 0.426467 -0.58347
O_ O_ 0.626881 0.617456 0.380413 -0.58347
O_ O_ 0.547838 0.685479 0.427953 -0.58347
O_ O_ 0.539283 0.684828 0.381469 -0.58347
O_ O_ 0.559875 0.711141 0.0799419 -0.46727
O_ O_ 0.723921 0.645532 0.0842544 -0.46727
O_ O_ 0.541718 0.691653 0.229153 -0.46727
O_ O_ 0.710896 0.639972 0.232821 -0.46727
O_ O_ 0.787914 0.813921 0.180436 -0.58347
O_ O_ 0.79899 0.806644 0.134136 -0.58347
O_ O_ 0.875719 0.750659 0.185426 -0.58347
O_ O_ 0.880777 0.741757 0.138429 -0.58347
O_ O_ 0.848594 0.898965 0.172916 -0.58347
O_ O_ 0.870623 0.891527 0.128527 -0.58347
O_ O_ 0.939113 0.835905 0.18147 -0.58347
O_ O_ 0.949739 0.824877 0.135151 -0.58347
O_ O_ 0.926703 0.789185 0.324913 -0.46727
O_ O_ 0.760515 0.829399 0.339702 -0.46727
O_ O_ 0.965228 0.789285 0.474732 -0.46727
O_ O_ 0.801071 0.852354 0.487062 -0.46727
Zn Zn 0.625983 0.675317 0.88336 0.90689
Zn Zn 0.633699 0.666252 0.928482 0.90689
Zn Zn 0.887275 0.819934 0.634069 0.90689
Zn Zn 0.874404 0.828759 0.68139 0.90689
H_ H_ 0.806437 0.687126 0.949987 0.11455
H_ H_ 0.870951 0.674479 0.849054 0.11455
H_ H_ 0.779111 0.678927 0.856525 0.11455
H_ H_ 0.893325 0.687628 0.967 0.11455
H_ H_ 0.986692 0.686668 0.959637 0.11455
H_ H_ 0.959123 0.681426 0.867692 0.11455
H_ H_ 0.658435 0.503432 0.94115 0.11455
H_ H_ 0.664832 0.924907 0.848656 0.11455
H_ H_ 0.646506 0.516679 0.850448 0.11455
H_ H_ 0.636308 0.916653 0.966949 0.11455
H_ H_ 0.624251 0.825248 0.960898 0.11455
H_ H_ 0.633628 0.842897 0.868817 0.11455
H_ H_ 0.583473 0.597284 0.962832 0.11455
H_ H_ 0.53112 0.604515 0.516748 0.11455
H_ H_ 0.575062 0.644111 0.554993 0.11455
H_ H_ 0.694132 0.735068 0.975015 0.11455
H_ H_ 0.724417 0.792933 0.509501 0.11455
H_ H_ 0.703046 0.780505 0.558667 0.11455
H_ H_ 0.509027 0.709294 0.622294 0.11455
H_ H_ 0.496898 0.704959 0.673403 0.11455
H_ H_ 0.75906 0.680819 0.634607 0.11455
H_ H_ 0.748763 0.676998 0.68751 0.11455
H_ H_ 0.569265 0.590879 0.744377 0.11455
H_ H_ 0.536669 0.566617 0.794045 0.11455
H_ H_ 0.567724 0.613963 0.835368 0.11455
H_ H_ 0.669198 0.741703 0.762425 0.11455
H_ H_ 0.701378 0.784146 0.803264 0.11455
H_ H_ 0.683737 0.748453 0.851478 0.11455
H_ H_ 0.708493 0.830698 0.696064 0.11455
H_ H_ 0.640211 0.843169 0.601541 0.11455
H_ H_ 0.725337 0.826379 0.603461 0.11455
H_ H_ 0.621451 0.821101 0.714462 0.11455
H_ H_ 0.526777 0.830342 0.707731 0.11455
H_ H_ 0.553936 0.819851 0.617116 0.11455
H_ H_ 0.853124 0.99138 0.694042 0.11455
H_ H_ 0.904516 0.569108 0.600564 0.11455
H_ H_ 0.895562 0.976418 0.606779 0.11455
H_ H_ 0.836499 0.571669 0.712858 0.11455
H_ H_ 0.853359 0.666038 0.711846 0.11455
H_ H_ 0.899446 0.655321 0.623676 0.11455
H_ H_ 0.932365 0.88896 0.715484 0.11455
H_ H_ 0.946115 0.924056 0.764047 0.11455
H_ H_ 0.919068 0.870227 0.805663 0.11455
H_ H_ 0.813848 0.763398 0.724433 0.11455
H_ H_ 0.776379 0.713946 0.763361 0.11455
H_ H_ 0.798779 0.737477 0.812314 0.11455
H_ H_ 0.987002 0.786607 0.870467 0.11455
H_ H_ 1.00278714 0.799528 0.92283 0.11455
H_ H_ 0.743129 0.860582 0.891349 0.11455
H_ H_ 0.761259 0.855954 0.942054 0.11455
H_ H_ 0.958999 0.886123 0.999171 0.11455
H_ H_ 0.977566 0.930153 0.543817 0.11455
H_ H_ 0.955133 0.871937 0.585239 0.11455
H_ H_ 0.860753 0.743314 0.51347 0.11455
H_ H_ 0.802749 0.721459 0.554781 0.11455
H_ H_ 0.821485 0.762096 0.601628 0.11455
C_ C_ 0.729666 0.678623 0.908195 0.68181
C_ C_ 0.785463 0.684876 0.902496 -0.05681
C_ C_ 0.820536 0.689703 0.926904 -0.08735
C_ C_ 0.873032 0.682956 0.922974 -0.05681
C_ C_ 0.889877 0.677449 0.894148 -0.05681
C_ C_ 0.856525 0.680185 0.870818 -0.08735
C_ C_ 0.804398 0.685004 0.874977 -0.08735
C_ C_ 0.907325 0.685384 0.945096 -0.08735
C_ C_ 0.959047 0.674869 0.941281 -0.08735
C_ C_ 0.977692 0.671431 0.913137 -0.05681
C_ C_ 0.94356 0.672366 0.889709 -0.08735
C_ C_ 0.625423 0.768326 0.912202 0.68181
C_ C_ 0.637777 0.57305 0.899363 0.68181
C_ C_ 0.645051 0.516137 0.896786 -0.05681
C_ C_ 0.637198 -0.015329000000000037 0.922109 -0.08735
C_ C_ 0.634795 0.931775 0.920117 -0.05681
C_ C_ 0.640434 0.910158 0.892326 -0.05681
C_ C_ 0.65502 0.940253 0.868983 -0.08735
C_ C_ 0.655657 -0.007654999999999967 0.871166 -0.08735
C_ C_ 0.632762 0.900506 0.945544 -0.08735
C_ C_ 0.629021 0.848136 0.942205 -0.08735
C_ C_ 0.627547 0.825192 0.914232 -0.05681
C_ C_ 0.632148 0.857675 0.889899 -0.08735
C_ C_ 0.530099 0.666696 0.90708 0.68181
C_ C_ 0.602142 0.614291 0.980651 0.1947
C_ C_ 0.565838 0.625119 0.512298 -0.08735
C_ C_ 0.586434 0.654744 0.533962 -0.08735
C_ C_ 0.624907 0.689235 0.527762 -0.05681
C_ C_ 0.639862 0.697789 0.499144 0.18498
C_ C_ 0.680089 0.725321 0.996824 -0.08735
C_ C_ 0.692161 0.76922 0.514438 -0.08735
C_ C_ 0.685271 0.755514 0.542904 -0.08735
C_ C_ 0.65084 0.715413 0.550101 0.18498
C_ C_ 0.684059 0.691618 0.597213 0.44287
C_ C_ 0.596621 0.709843 0.592818 0.44287
C_ C_ 0.587983 0.698757 0.6224 -0.05681
C_ C_ 0.540374 0.699295 0.635064 -0.08735
C_ C_ 0.53366 0.693165 0.66455 -0.08735
C_ C_ 0.575191 0.684486 0.683292 -0.05681
C_ C_ 0.62384 0.685694 0.670114 -0.05681
C_ C_ 0.629676 0.689921 0.639647 -0.05681
C_ C_ 0.677822 0.682057 0.627317 -0.05681
C_ C_ 0.719532 0.679709 0.644787 -0.08735
C_ C_ 0.71546 0.680886 0.67448 -0.08735
C_ C_ 0.667331 0.681635 0.687038 -0.05681
C_ C_ 0.663096 0.676583 0.717248 0.44287
C_ C_ 0.573227 0.683425 0.713844 0.44287
C_ C_ 0.61151 0.656581 0.759481 0.18498
C_ C_ 0.580656 0.612934 0.763755 -0.08735
C_ C_ 0.565782 0.596113 0.791525 -0.08735
C_ C_ 0.584579 0.62189 0.816116 -0.08735
C_ C_ 0.615437 0.665226 0.812603 0.18498
C_ C_ 0.628081 0.68505 0.784044 -0.05681
C_ C_ 0.660782 0.725198 0.781963 -0.08735
C_ C_ 0.678771 0.750446 0.806187 -0.08735
C_ C_ 0.664709 0.733563 0.832901 0.1947
C_ C_ 0.779639 0.833344 0.654299 0.68181
C_ C_ 0.724536 0.827464 0.651057 -0.05681
C_ C_ 0.692494 0.827102 0.674874 -0.08735
C_ C_ 0.63832 0.830815 0.671551 -0.05681
C_ C_ 0.62044 0.832393 0.643479 -0.05681
C_ C_ 0.652681 0.824674 0.621123 -0.08735
C_ C_ 0.704616 0.822466 0.624399 -0.08735
C_ C_ 0.604835 0.824324 0.693929 -0.08735
C_ C_ 0.552224 0.830553 0.689651 -0.08735
C_ C_ 0.532444 0.828024 0.662568 -0.05681
C_ C_ 0.566982 0.828109 0.639147 -0.08735
C_ C_ 0.875514 0.725482 0.664809 0.68181
C_ C_ 0.885331 0.921086 0.653879 0.68181
C_ C_ 0.884647 0.977679 0.651303 -0.05681
C_ C_ 0.853702 0.509766 0.670823 -0.08735
C_ C_ 0.861651 0.562635 0.669415 -0.05681
C_ C_ 0.876497 0.585352 0.643865 -0.05681
C_ C_ 0.887296 0.554583 0.619799 -0.08735
C_ C_ 0.893091 0.999447 0.625074 -0.08735
C_ C_ 0.852691 0.59108 0.693768 -0.08735
C_ C_ 0.862216 0.643901 0.692333 -0.08735
C_ C_ 0.876764 0.66665 0.667215 -0.05681
C_ C_ 0.890242 0.637833 0.64292 -0.08735
C_ C_ 0.977766 0.821221 0.65945 0.68181
C_ C_ 0.914922 0.871637 0.733319 0.1947
C_ C_ 0.926543 0.888847 0.760743 -0.08735
C_ C_ 0.906203 0.86385 0.784072 -0.08735
C_ C_ 0.865322 0.830354 0.778954 -0.05681
C_ C_ 0.853189 0.815293 0.749944 0.18498
C_ C_ 0.820886 0.774716 0.745529 -0.08735
C_ C_ 0.800023 0.748008 0.767955 -0.08735
C_ C_ 0.811456 0.76161 0.795722 -0.08735
C_ C_ 0.844877 0.799722 0.802648 0.18498
C_ C_ 0.816003 0.830496 0.849155 0.44287
C_ C_ 0.900001 0.799853 0.843657 0.44287
C_ C_ 0.910033 0.807192 0.87336 -0.05681
C_ C_ 0.957527 0.799269 0.884882 -0.08735
C_ C_ 0.963807 0.801841 0.915366 -0.08735
C_ C_ 0.921141 0.808942 0.934167 -0.05681
C_ C_ 0.874396 0.813021 0.922293 -0.05681
C_ C_ 0.867914 0.812137 0.891853 -0.05681
C_ C_ 0.818755 0.826247 0.879417 -0.05681
C_ C_ 0.779424 0.842256 0.897433 -0.08735
C_ C_ 0.789826 0.844249 0.928203 -0.08735
C_ C_ 0.835761 0.828343 0.94045 -0.05681
C_ C_ 0.842407 0.830193 0.970933 0.44287
C_ C_ 0.927846 0.807759 0.964178 0.44287
C_ C_ 0.898465 0.84265 0.509899 0.18498
C_ C_ 0.928701 0.885944 0.513625 -0.08735
C_ C_ 0.94993 0.898276 0.541436 -0.08735
C_ C_ 0.939075 0.868042 0.565277 -0.08735
C_ C_ 0.902648 0.829517 0.561891 0.18498
C_ C_ 0.889357 0.811778 0.534002 -0.05681
C_ C_ 0.8548 0.770201 0.531798 -0.08735
C_ C_ 0.832016 0.750169 0.556462 -0.08735
C_ C_ 0.845215 0.770532 0.583299 0.1947
N_ N_ 0.627039 0.658545 0.97832 -0.29468
N_ N_ 0.643029 0.704293 0.580245 -0.17154
N_ N_ 0.615961 0.677505 0.730258 -0.17154
N_ N_ 0.631063 0.692531 0.836422 -0.29468
N_ N_ 0.877154 0.837831 0.728152 -0.29468
N_ N_ 0.855285 0.814503 0.832438 -0.17154
N_ N_ 0.88905 0.820845 0.982161 -0.17154
N_ N_ 0.880844 0.80894 0.585651 -0.29468
O_ O_ 0.712985 0.667052 0.932386 -0.58347
O_ O_ 0.699043 0.680054 0.88676 -0.58347
O_ O_ 0.639557 0.740274 0.93207 -0.58347
O_ O_ 0.614614 0.748127 0.888405 -0.58347
O_ O_ 0.636866 0.592896 0.923377 -0.58347
O_ O_ 0.638309 0.60255 0.876943 -0.58347
O_ O_ 0.55716 0.665758 0.928432 -0.58347
O_ O_ 0.550904 0.667512 0.882503 -0.58347
O_ O_ 0.55892 0.730525 0.577738 -0.46727
O_ O_ 0.73113 0.686447 0.586517 -0.46727
O_ O_ 0.530198 0.693877 0.725593 -0.46727
O_ O_ 0.702681 0.66692 0.734499 -0.46727
O_ O_ 0.79886 0.830611 0.679516 -0.58347
O_ O_ 0.808617 0.829846 0.632494 -0.58347
O_ O_ 0.881473 0.753103 0.686248 -0.58347
O_ O_ 0.874811 0.745353 0.639745 -0.58347
O_ O_ 0.867557 0.899797 0.676262 -0.58347
O_ O_ 0.897872 0.8948 0.632919 -0.58347
O_ O_ 0.949683 0.825791 0.680644 -0.58347
O_ O_ 0.961078 0.817698 0.63374 -0.58347
O_ O_ 0.930093 0.770338 0.827761 -0.46727
O_ O_ 0.772615 0.844973 0.836127 -0.46727
O_ O_ 0.97371 0.798261 0.974504 -0.46727
O_ O_ 0.802375 0.838209 0.987611 -0.46727
