_cell_length_a 26.376
_cell_length_b 26.400000238300095
_cell_length_c 46.67800035477134
_cell_angle_alpha 90.00700052986613
_cell_angle_beta 89.99899961309502
_cell_angle_gamma 90.45000003183146
_symmetry_space_group_name_H-M         'P 1'
_symmetry_Int_Tables_number            1
loop_
_symmetry_equiv_pos_as_xyz
   'x, y, z'
                         
loop_
_atom_site_label
_atom_site_type_symbol
_atom_site_fract_x 
_atom_site_fract_y
_atom_site_fract_z
_atom_site_charge
Zn Zn 0.143014 0.186267 0.381872 0.90689
Zn Zn 0.143337 0.179669 0.430431 0.90689
Zn Zn 0.374014 0.312467 0.135499 0.90689
Zn Zn 0.364639 0.318695 0.186067 0.90689
H_ H_ 0.316179 0.200314 0.445885 0.11455
H_ H_ 0.385925 0.156794 0.349679 0.11455
H_ H_ 0.294978 0.16683 0.35469 0.11455
H_ H_ 0.400213 0.193479 0.466551 0.11455
H_ H_ 0.487839 0.181357 0.461184 0.11455
H_ H_ 0.469195 0.146541 0.371899 0.11455
H_ H_ 0.138334 0.0102255 0.44345 0.11455
H_ H_ 0.149721 0.437624 0.348749 0.11455
H_ H_ 0.14906 0.0267478 0.350955 0.11455
H_ H_ 0.144307 0.432218 0.467167 0.11455
H_ H_ 0.133104 0.338232 0.462271 0.11455
H_ H_ 0.133634 0.3531 0.369568 0.11455
H_ H_ 0.0856059 0.109111 0.464322 0.11455
H_ H_ 0.0575463 0.0760928 0.00840789 0.11455
H_ H_ 0.0782815 0.129047 0.0501233 0.11455
H_ H_ 0.200396 0.240378 0.468411 0.11455
H_ H_ 0.226423 0.290949 0.0150604 0.11455
H_ H_ 0.19047 0.275981 0.0624424 0.11455
H_ H_ 0.0159234 0.21147 0.124666 0.11455
H_ H_ 0.00457445 0.196362 0.179012 0.11455
H_ H_ 0.264855 0.176296 0.133652 0.11455
H_ H_ 0.25766 0.169986 0.186173 0.11455
H_ H_ 0.0953792 0.0791879 0.252002 0.11455
H_ H_ 0.0748234 0.0584713 0.302936 0.11455
H_ H_ 0.08802 0.120752 0.340466 0.11455
H_ H_ 0.174585 0.24178 0.253246 0.11455
H_ H_ 0.21201 0.290382 0.295345 0.11455
H_ H_ 0.199228 0.261402 0.343764 0.11455
H_ H_ 0.190227 0.302756 0.198863 0.11455
H_ H_ 0.134511 0.325147 0.0995364 0.11455
H_ H_ 0.224761 0.307971 0.107382 0.11455
H_ H_ 0.107272 0.312482 0.217211 0.11455
H_ H_ 0.0166423 0.331309 0.204656 0.11455
H_ H_ 0.0430398 0.330318 0.113786 0.11455
H_ H_ 0.376872 0.483476 0.199773 0.11455
H_ H_ 0.387937 0.0645314 0.10121 0.11455
H_ H_ 0.393865 0.466713 0.108167 0.11455
H_ H_ 0.352572 0.0675289 0.218432 0.11455
H_ H_ 0.362978 0.1612 0.213975 0.11455
H_ H_ 0.37921 0.148101 0.12357 0.11455
H_ H_ 0.427782 0.390568 0.217415 0.11455
H_ H_ 0.433263 0.425181 0.265008 0.11455
H_ H_ 0.414663 0.371215 0.307772 0.11455
H_ H_ 0.31079 0.254566 0.230234 0.11455
H_ H_ 0.291408 0.195495 0.268234 0.11455
H_ H_ 0.313436 0.223374 0.320761 0.11455
H_ H_ 0.49909 0.291969 0.375285 0.11455
H_ H_ 0.508142 0.294433 0.427931 0.11455
H_ H_ 0.253215 0.344043 0.390253 0.11455
H_ H_ 0.263867 0.353151 0.443017 0.11455
H_ H_ 0.462261 0.404045 0.499152 0.11455
H_ H_ 0.445371 0.433259 0.0489128 0.11455
H_ H_ 0.426996 0.37699 0.0921861 0.11455
H_ H_ 0.35906 0.236403 0.0148535 0.11455
H_ H_ 0.315291 0.194599 0.0578527 0.11455
H_ H_ 0.312875 0.245283 0.102098 0.11455
C_ C_ 0.242075 0.181609 0.404761 0.68181
C_ C_ 0.298217 0.17948 0.401246 -0.05681
C_ C_ 0.329026 0.185741 0.425047 -0.08735
C_ C_ 0.38218 0.177703 0.421861 -0.05681
C_ C_ 0.402529 0.169943 0.394066 -0.05681
C_ C_ 0.370381 0.160585 0.371394 -0.08735
C_ C_ 0.318032 0.168732 0.374305 -0.08735
C_ C_ 0.414777 0.18465 0.444828 -0.08735
C_ C_ 0.46598 0.182367 0.441697 -0.08735
C_ C_ 0.488074 0.172056 0.414381 -0.05681
C_ C_ 0.455044 0.162991 0.391586 -0.08735
C_ C_ 0.141685 0.281793 0.410779 0.68181
C_ C_ 0.145249 0.0823906 0.402631 0.68181
C_ C_ 0.143562 0.0253511 0.398947 -0.05681
C_ C_ 0.143296 0.497307 0.424224 -0.08735
C_ C_ 0.142208 0.444876 0.421255 -0.05681
C_ C_ 0.142285 0.424447 0.393482 -0.05681
C_ C_ 0.141261 0.454367 0.369698 -0.08735
C_ C_ 0.138233 0.506744 0.371603 -0.08735
C_ C_ 0.141361 0.413916 0.445427 -0.08735
C_ C_ 0.139048 0.360646 0.442693 -0.08735
C_ C_ 0.135399 0.338053 0.414782 -0.05681
C_ C_ 0.138428 0.370324 0.390861 -0.08735
C_ C_ 0.0426591 0.181569 0.406618 0.68181
C_ C_ 0.110145 0.12435 0.481153 0.1947
C_ C_ 0.0832655 0.108169 0.00473621 -0.08735
C_ C_ 0.0973035 0.137996 0.029187 -0.08735
C_ C_ 0.133807 0.178648 0.0265792 -0.05681
C_ C_ 0.149864 0.192016 0.99897 0.18498
C_ C_ 0.189037 0.236838 0.49024 -0.08735
C_ C_ 0.199377 0.261252 0.0188455 -0.08735
C_ C_ 0.181677 0.248792 0.0456353 -0.08735
C_ C_ 0.148544 0.208358 0.0504779 0.18498
C_ C_ 0.185496 0.175721 0.0963917 0.44287
C_ C_ 0.0948792 0.192785 0.0934513 0.44287
C_ C_ 0.0920787 0.190702 0.124087 -0.05681
C_ C_ 0.047178 0.201049 0.138515 -0.08735
C_ C_ 0.0408935 0.195602 0.168728 -0.08735
C_ C_ 0.0842563 0.182196 0.183566 -0.05681
C_ C_ 0.13245 0.18022 0.169713 -0.05681
C_ C_ 0.13598 0.178516 0.13975 -0.05681
C_ C_ 0.182619 0.172179 0.126204 -0.05681
C_ C_ 0.227941 0.170056 0.142295 -0.08735
C_ C_ 0.224413 0.168876 0.172797 -0.08735
C_ C_ 0.176464 0.169096 0.186128 -0.05681
C_ C_ 0.170645 0.15815 0.215541 0.44287
C_ C_ 0.0831509 0.176768 0.214228 0.44287
C_ C_ 0.123877 0.152135 0.26025 0.18498
C_ C_ 0.107368 0.103764 0.268207 -0.08735
C_ C_ 0.0944166 0.0917963 0.296353 -0.08735
C_ C_ 0.107921 0.125293 0.318579 -0.08735
C_ C_ 0.131709 0.1724 0.312121 0.18498
C_ C_ 0.137988 0.185976 0.282503 -0.05681
C_ C_ 0.166593 0.230203 0.27565 -0.08735
C_ C_ 0.18882 0.257238 0.298937 -0.08735
C_ C_ 0.180494 0.241356 0.326717 0.1947
C_ C_ 0.271419 0.306555 0.161977 0.68181
C_ C_ 0.215965 0.305541 0.155296 -0.05681
C_ C_ 0.179168 0.309833 0.176838 -0.08735
C_ C_ 0.128278 0.31908 0.171017 -0.05681
C_ C_ 0.109885 0.321679 0.143042 -0.05681
C_ C_ 0.144626 0.312352 0.120789 -0.08735
C_ C_ 0.196353 0.304086 0.125544 -0.08735
C_ C_ 0.0955504 0.3196 0.194476 -0.08735
C_ C_ 0.0430352 0.327135 0.187967 -0.08735
C_ C_ 0.0238357 0.326863 0.160177 -0.05681
C_ C_ 0.0582789 0.32828 0.136642 -0.08735
C_ C_ 0.36968 0.215712 0.164569 0.68181
C_ C_ 0.372375 0.414521 0.156198 0.68181
C_ C_ 0.388478 0.467576 0.154105 -0.05681
C_ C_ 0.356827 -0.00037200000000003897 0.1738 -0.08735
C_ C_ 0.361591 0.0527407 0.172687 -0.05681
C_ C_ 0.369521 0.0758324 0.144953 -0.05681
C_ C_ 0.374593 0.0469309 0.12067 -0.08735
C_ C_ 0.393586 0.490139 0.126885 -0.08735
C_ C_ 0.355423 0.0834325 0.196792 -0.08735
C_ C_ 0.359696 0.13597 0.194593 -0.08735
C_ C_ 0.36932 0.159256 0.168171 -0.05681
C_ C_ 0.372245 0.128751 0.143254 -0.08735
C_ C_ 0.465415 0.310159 0.160544 0.68181
C_ C_ 0.407955 0.371272 0.235871 0.1947
C_ C_ 0.420213 0.386374 0.263131 -0.08735
C_ C_ 0.40208 0.361182 0.287019 -0.08735
C_ C_ 0.371358 0.318942 0.283232 -0.05681
C_ C_ 0.359599 0.303079 0.254158 0.18498
C_ C_ 0.323162 0.262992 0.250775 -0.08735
C_ C_ 0.311009 0.230686 0.273365 -0.08735
C_ C_ 0.320151 0.246911 0.301817 -0.08735
C_ C_ 0.354871 0.286779 0.306583 0.18498
C_ C_ 0.323327 0.318898 0.352045 0.44287
C_ C_ 0.410031 0.295238 0.347212 0.44287
C_ C_ 0.418476 0.305082 0.37586 -0.05681
C_ C_ 0.466171 0.298101 0.388721 -0.08735
C_ C_ 0.471283 0.301837 0.417875 -0.08735
C_ C_ 0.430964 0.318119 0.435189 -0.05681
C_ C_ 0.383708 0.331572 0.42315 -0.05681
C_ C_ 0.377382 0.321358 0.393249 -0.05681
C_ C_ 0.33018 0.326929 0.381381 -0.05681
C_ C_ 0.288921 0.341334 0.398325 -0.08735
C_ C_ 0.29412 0.349938 0.427888 -0.08735
C_ C_ 0.341859 0.343074 0.440173 -0.05681
C_ C_ 0.350369 0.345779 0.470688 0.44287
C_ C_ 0.436565 0.322316 0.465591 0.44287
C_ C_ 0.397116 0.332941 0.0127181 0.18498
C_ C_ 0.419709 0.379117 0.0181276 -0.08735
C_ C_ 0.427331 0.396109 0.0461726 -0.08735
C_ C_ 0.412861 0.36771 0.0698426 -0.08735
C_ C_ 0.388434 0.321242 0.0649661 0.18498
C_ C_ 0.377583 0.304739 0.0364461 -0.05681
C_ C_ 0.356926 0.255474 0.0352636 -0.08735
C_ C_ 0.329988 0.234717 0.0575177 -0.08735
C_ C_ 0.335873 0.256435 0.0850522 0.1947
N_ N_ 0.141881 0.164201 0.476359 -0.29468
N_ N_ 0.143099 0.188549 0.0808 -0.17154
N_ N_ 0.125934 0.16489 0.229379 -0.17154
N_ N_ 0.148993 0.201226 0.33345 -0.29468
N_ N_ 0.376669 0.330234 0.231919 -0.29468
N_ N_ 0.364164 0.303125 0.335333 -0.17154
N_ N_ 0.39687 0.335298 0.482531 -0.17154
N_ N_ 0.369108 0.296898 0.0885687 -0.29468
O_ O_ 0.220928 0.171868 0.42893 -0.58347
O_ O_ 0.217544 0.197339 0.383263 -0.58347
O_ O_ 0.137735 0.252493 0.432335 -0.58347
O_ O_ 0.141479 0.263935 0.385492 -0.58347
O_ O_ 0.140519 0.101154 0.427425 -0.58347
O_ O_ 0.149617 0.110552 0.380729 -0.58347
O_ O_ 0.0701709 0.177399 0.429165 -0.58347
O_ O_ 0.0628124 0.185844 0.382256 -0.58347
O_ O_ 0.055623 0.206829 0.0769043 -0.46727
O_ O_ 0.229784 0.176464 0.08421 -0.46727
O_ O_ 0.0393229 0.179446 0.227996 -0.46727
O_ O_ 0.21221 0.145362 0.230093 -0.46727
O_ O_ 0.288001 0.31646 0.186444 -0.58347
O_ O_ 0.301516 0.300411 0.141579 -0.58347
O_ O_ 0.366909 0.243209 0.18709 -0.58347
O_ O_ 0.381241 0.235256 0.14088 -0.58347
O_ O_ 0.361239 0.395063 0.180258 -0.58347
O_ O_ 0.367722 0.388579 0.13361 -0.58347
O_ O_ 0.436622 0.323354 0.18159 -0.58347
O_ O_ 0.448508 0.309789 0.135189 -0.58347
O_ O_ 0.447567 0.279843 0.330986 -0.46727
O_ O_ 0.278189 0.322836 0.339984 -0.46727
O_ O_ 0.479007 0.306603 0.477937 -0.46727
O_ O_ 0.315272 0.366127 0.48665 -0.46727
Zn Zn 0.127857 0.190251 0.879089 0.90689
Zn Zn 0.140961 0.183472 0.928799 0.90689
Zn Zn 0.382154 0.315426 0.63349 0.90689
Zn Zn 0.366522 0.320965 0.679443 0.90689
H_ H_ 0.30837 0.198101 0.94889 0.11455
H_ H_ 0.374355 0.178908 0.850431 0.11455
H_ H_ 0.286335 0.187442 0.858328 0.11455
H_ H_ 0.392674 0.200303 0.968421 0.11455
H_ H_ 0.48347 0.191401 0.961111 0.11455
H_ H_ 0.461734 0.188862 0.870014 0.11455
H_ H_ 0.129877 0.0189265 0.937737 0.11455
H_ H_ 0.133117 0.440417 0.841575 0.11455
H_ H_ 0.169726 0.0261829 0.849533 0.11455
H_ H_ 0.131707 0.436393 0.958265 0.11455
H_ H_ 0.121186 0.343472 0.956383 0.11455
H_ H_ 0.137739 0.352763 0.864548 0.11455
H_ H_ 0.0847075 0.104422 0.960422 0.11455
H_ H_ 0.0809625 0.0752249 0.512998 0.11455
H_ H_ 0.133445 0.114089 0.554726 0.11455
H_ H_ 0.18972 0.254205 0.975892 0.11455
H_ H_ 0.22265 0.302394 0.504876 0.11455
H_ H_ 0.209158 0.285798 0.555894 0.11455
H_ H_ 0.0266125 0.217255 0.618776 0.11455
H_ H_ 0.0130996 0.200372 0.670416 0.11455
H_ H_ 0.273065 0.164533 0.636425 0.11455
H_ H_ 0.264356 0.161776 0.690538 0.11455
H_ H_ 0.0723583 0.0958806 0.744712 0.11455
H_ H_ 0.0539965 0.0670805 0.794986 0.11455
H_ H_ 0.0832825 0.122167 0.836602 0.11455
H_ H_ 0.166507 0.249259 0.753075 0.11455
H_ H_ 0.211652 0.287572 0.796826 0.11455
H_ H_ 0.182176 0.269887 0.845378 0.11455
H_ H_ 0.205579 0.329697 0.694844 0.11455
H_ H_ 0.137892 0.327525 0.593739 0.11455
H_ H_ 0.228306 0.320758 0.60468 0.11455
H_ H_ 0.118744 0.336543 0.713157 0.11455
H_ H_ 0.0261529 0.344638 0.705697 0.11455
H_ H_ 0.0471868 0.320778 0.616281 0.11455
H_ H_ 0.341532 0.487536 0.692134 0.11455
H_ H_ 0.417556 0.0634597 0.605669 0.11455
H_ H_ 0.386592 0.477359 0.602545 0.11455
H_ H_ 0.344689 0.0793319 0.715004 0.11455
H_ H_ 0.364758 0.166095 0.711555 0.11455
H_ H_ 0.412738 0.153759 0.625986 0.11455
H_ H_ 0.418245 0.403298 0.716846 0.11455
H_ H_ 0.442108 0.424075 0.762536 0.11455
H_ H_ 0.421506 0.36721 0.805103 0.11455
H_ H_ 0.305638 0.260063 0.723225 0.11455
H_ H_ 0.28016 0.205277 0.763153 0.11455
H_ H_ 0.300229 0.225978 0.813147 0.11455
H_ H_ 0.49012 0.313225 0.873745 0.11455
H_ H_ 0.503997 0.309378 0.925361 0.11455
H_ H_ 0.236574 0.315303 0.890688 0.11455
H_ H_ 0.249586 0.319213 0.94232 0.11455
H_ H_ 0.428872 0.403504 0.000158054 0.11455
H_ H_ 0.494202 0.411352 0.550217 0.11455
H_ H_ 0.444392 0.37944 0.589728 0.11455
H_ H_ 0.341893 0.267701 0.509264 0.11455
H_ H_ 0.308202 0.218427 0.550788 0.11455
H_ H_ 0.32695 0.249848 0.599656 0.11455
C_ C_ 0.232087 0.191035 0.906192 0.68181
C_ C_ 0.289205 0.19371 0.903132 -0.05681
C_ C_ 0.322199 0.191717 0.927441 -0.08735
C_ C_ 0.374558 0.192788 0.923163 -0.05681
C_ C_ 0.395423 0.186057 0.895226 -0.05681
C_ C_ 0.362483 0.187787 0.871296 -0.08735
C_ C_ 0.311849 0.192377 0.87586 -0.08735
C_ C_ 0.406101 0.191846 0.947079 -0.08735
C_ C_ 0.45985 0.192184 0.943098 -0.08735
C_ C_ 0.479214 0.190122 0.915108 -0.05681
C_ C_ 0.448024 0.186509 0.891336 -0.08735
C_ C_ 0.13348 0.284733 0.908782 0.68181
C_ C_ 0.146881 0.0876634 0.897343 0.68181
C_ C_ 0.142963 0.0293658 0.894181 -0.05681
C_ C_ 0.132067 0.503101 0.916896 -0.08735
C_ C_ 0.130603 0.448904 0.91405 -0.05681
C_ C_ 0.133037 0.425749 0.887262 -0.05681
C_ C_ 0.129039 0.456846 0.862423 -0.08735
C_ C_ 0.130093 0.511249 0.865227 -0.08735
C_ C_ 0.127907 0.418462 0.938243 -0.08735
C_ C_ 0.127524 0.364928 0.937073 -0.08735
C_ C_ 0.137087 0.340631 0.910305 -0.05681
C_ C_ 0.140257 0.372636 0.884789 -0.08735
C_ C_ 0.0376083 0.175103 0.901372 0.68181
C_ C_ 0.0942764 0.128872 0.97815 0.1947
C_ C_ 0.104239 0.108119 0.510225 -0.08735
C_ C_ 0.129869 0.130883 0.532792 -0.08735
C_ C_ 0.154561 0.178173 0.526451 -0.05681
C_ C_ 0.16069 0.193599 0.498215 0.18498
C_ C_ 0.180256 0.237119 0.995129 -0.08735
C_ C_ 0.204365 0.269402 0.511562 -0.08735
C_ C_ 0.197523 0.25736 0.539868 -0.08735
C_ C_ 0.171123 0.211969 0.547593 0.18498
C_ C_ 0.20206 0.190253 0.5965 0.44287
C_ C_ 0.115235 0.203461 0.589489 0.44287
C_ C_ 0.105085 0.201385 0.620126 -0.05681
C_ C_ 0.0577735 0.20438 0.632432 -0.08735
C_ C_ 0.0503431 0.195449 0.661596 -0.08735
C_ C_ 0.0914878 0.192149 0.681342 -0.05681
C_ C_ 0.140218 0.188969 0.669514 -0.05681
C_ C_ 0.147752 0.193952 0.638255 -0.05681
C_ C_ 0.195694 0.188009 0.626666 -0.05681
C_ C_ 0.236105 0.171257 0.645273 -0.08735
C_ C_ 0.230442 0.17265 0.675187 -0.08735
C_ C_ 0.181654 0.175869 0.687022 -0.05681
C_ C_ 0.174398 0.168566 0.716856 0.44287
C_ C_ 0.0846618 0.187538 0.711508 0.44287
C_ C_ 0.117199 0.159139 0.757566 0.18498
C_ C_ 0.0859486 0.117217 0.76311 -0.08735
C_ C_ 0.078276 0.101302 0.791315 -0.08735
C_ C_ 0.0948133 0.132262 0.815024 -0.08735
C_ C_ 0.12456 0.17501 0.808929 0.18498
C_ C_ 0.135078 0.189164 0.780534 -0.05681
C_ C_ 0.162273 0.234373 0.775396 -0.08735
C_ C_ 0.184888 0.258587 0.79912 -0.08735
C_ C_ 0.172535 0.244481 0.827663 0.1947
C_ C_ 0.276419 0.313008 0.655199 0.68181
C_ C_ 0.220905 0.321384 0.650065 -0.05681
C_ C_ 0.188728 0.327586 0.673559 -0.08735
C_ C_ 0.135679 0.328717 0.668643 -0.05681
C_ C_ 0.116068 0.330522 0.640067 -0.05681
C_ C_ 0.150524 0.328236 0.616623 -0.08735
C_ C_ 0.201315 0.322135 0.621603 -0.08735
C_ C_ 0.101513 0.332281 0.69181 -0.08735
C_ C_ 0.0519 0.342241 0.687962 -0.08735
C_ C_ 0.0290533 0.33089 0.66126 -0.05681
C_ C_ 0.0630061 0.330167 0.636723 -0.08735
C_ C_ 0.380406 0.222611 0.664516 0.68181
C_ C_ 0.368834 0.418042 0.648708 0.68181
C_ C_ 0.367153 0.474659 0.647763 -0.05681
C_ C_ 0.351273 0.0067151 0.671947 -0.08735
C_ C_ 0.361097 0.0604953 0.670788 -0.05681
C_ C_ 0.383961 0.0820012 0.646031 -0.05681
C_ C_ 0.398033 0.0502205 0.623635 -0.08735
C_ C_ 0.375277 0.50011 0.621699 -0.08735
C_ C_ 0.35359 0.0923954 0.694321 -0.08735
C_ C_ 0.367529 0.143439 0.69261 -0.08735
C_ C_ 0.377275 0.1659 0.666349 -0.05681
C_ C_ 0.393238 0.135076 0.643865 -0.08735
C_ C_ 0.471617 0.328636 0.657253 0.68181
C_ C_ 0.40088 0.381251 0.733801 0.1947
C_ C_ 0.414811 0.394586 0.761547 -0.08735
C_ C_ 0.403086 0.361989 0.784271 -0.08735
C_ C_ 0.368312 0.321442 0.779993 -0.05681
C_ C_ 0.35658 0.30769 0.750976 0.18498
C_ C_ 0.324232 0.2661 0.745669 -0.08735
C_ C_ 0.302078 0.24022 0.767244 -0.08735
C_ C_ 0.313672 0.251566 0.796082 -0.08735
C_ C_ 0.347506 0.293965 0.802682 0.18498
C_ C_ 0.314275 0.317642 0.849498 0.44287
C_ C_ 0.401309 0.303423 0.84559 0.44287
C_ C_ 0.410135 0.317097 0.875107 -0.05681
C_ C_ 0.458222 0.31907 0.887587 -0.08735
C_ C_ 0.466261 0.316129 0.916274 -0.08735
C_ C_ 0.423071 0.319578 0.934678 -0.05681
C_ C_ 0.374716 0.320861 0.922991 -0.05681
C_ C_ 0.366701 0.315397 0.892874 -0.05681
C_ C_ 0.318807 0.318661 0.879222 -0.05681
C_ C_ 0.277952 0.318464 0.898297 -0.08735
C_ C_ 0.284057 0.316793 0.928618 -0.08735
C_ C_ 0.332683 0.315187 0.942055 -0.05681
C_ C_ 0.339357 0.317982 0.971774 0.44287
C_ C_ 0.428256 0.314046 0.964962 0.44287
C_ C_ 0.406156 0.348641 0.511896 0.18498
C_ C_ 0.442212 0.385979 0.517635 -0.08735
C_ C_ 0.457841 0.393442 0.545524 -0.08735
C_ C_ 0.43219 0.370466 0.567857 -0.08735
C_ C_ 0.394695 0.33575 0.563214 0.18498
C_ C_ 0.38154 0.323827 0.53452 -0.05681
C_ C_ 0.349368 0.282586 0.530336 -0.08735
C_ C_ 0.333591 0.2499 0.55322 -0.08735
C_ C_ 0.344178 0.266934 0.581021 0.1947
N_ N_ 0.130517 0.166071 0.975424 -0.29468
N_ N_ 0.162474 0.205241 0.578744 -0.17154
N_ N_ 0.125829 0.171541 0.728136 -0.17154
N_ N_ 0.141435 0.205497 0.831529 -0.29468
N_ N_ 0.377026 0.337612 0.728914 -0.29468
N_ N_ 0.354929 0.311849 0.832402 -0.17154
N_ N_ 0.387335 0.317994 0.983164 -0.17154
N_ N_ 0.371718 0.310619 0.585433 -0.29468
O_ O_ 0.21321 0.18784 0.931303 -0.58347
O_ O_ 0.202949 0.198541 0.88403 -0.58347
O_ O_ 0.134548 0.260422 0.932591 -0.58347
O_ O_ 0.112315 0.263278 0.887023 -0.58347
O_ O_ 0.144484 0.108707 0.921425 -0.58347
O_ O_ 0.14399 0.113921 0.874672 -0.58347
O_ O_ 0.0668861 0.179074 0.921687 -0.58347
O_ O_ 0.0542905 0.176168 0.876707 -0.58347
O_ O_ 0.076594 0.210034 0.572716 -0.46727
O_ O_ 0.247782 0.187365 0.58598 -0.46727
O_ O_ 0.0392745 0.184697 0.723636 -0.46727
O_ O_ 0.210856 0.145067 0.731427 -0.46727
O_ O_ 0.293112 0.30695 0.679748 -0.58347
O_ O_ 0.306574 0.317626 0.634615 -0.58347
O_ O_ 0.379221 0.248193 0.687482 -0.58347
O_ O_ 0.385647 0.242639 0.639832 -0.58347
O_ O_ 0.35419 0.395993 0.670368 -0.58347
O_ O_ 0.382806 0.393291 0.627208 -0.58347
O_ O_ 0.4424 0.337715 0.677954 -0.58347
O_ O_ 0.454263 0.314855 0.633052 -0.58347
O_ O_ 0.43525 0.276085 0.830855 -0.46727
O_ O_ 0.269091 0.322905 0.837143 -0.46727
O_ O_ 0.474918 0.319841 0.976357 -0.46727
O_ O_ 0.299719 0.317797 0.987963 -0.46727
Zn Zn 0.131095 0.689369 0.380841 0.90689
Zn Zn 0.140554 0.67955 0.429239 0.90689
Zn Zn 0.367268 0.811527 0.131147 0.90689
Zn Zn 0.36287 0.821717 0.180176 0.90689
H_ H_ 0.308477 0.683664 0.449573 0.11455
H_ H_ 0.369933 0.659868 0.348855 0.11455
H_ H_ 0.28212 0.654484 0.358258 0.11455
H_ H_ 0.394373 0.68291 0.466411 0.11455
H_ H_ 0.48549 0.682775 0.457572 0.11455
H_ H_ 0.457472 0.684961 0.366618 0.11455
H_ H_ 0.147039 0.513941 0.444276 0.11455
H_ H_ 0.130836 0.935297 0.3444 0.11455
H_ H_ 0.139268 0.530945 0.351273 0.11455
H_ H_ 0.110989 0.925336 0.463853 0.11455
H_ H_ 0.096721 0.833365 0.457942 0.11455
H_ H_ 0.122591 0.851767 0.367067 0.11455
H_ H_ 0.0961967 0.598588 0.466869 0.11455
H_ H_ 0.0872725 0.566802 0.0138796 0.11455
H_ H_ 0.126195 0.614344 0.054707 0.11455
H_ H_ 0.175441 0.759108 0.47197 0.11455
H_ H_ 0.209682 0.803005 0.00851085 0.11455
H_ H_ 0.194643 0.782064 0.0582788 0.11455
H_ H_ 0.0201771 0.692776 0.119965 0.11455
H_ H_ 0.0114332 0.680464 0.173734 0.11455
H_ H_ 0.273958 0.659088 0.135508 0.11455
H_ H_ 0.264404 0.664297 0.188163 0.11455
H_ H_ 0.0862091 0.581389 0.24866 0.11455
H_ H_ 0.0558016 0.56288 0.296692 0.11455
H_ H_ 0.075541 0.620862 0.335872 0.11455
H_ H_ 0.169362 0.74773 0.254624 0.11455
H_ H_ 0.193683 0.798714 0.293644 0.11455
H_ H_ 0.179968 0.76762 0.345049 0.11455
H_ H_ 0.192046 0.791706 0.194235 0.11455
H_ H_ 0.129427 0.851282 0.100881 0.11455
H_ H_ 0.216616 0.841858 0.10723 0.11455
H_ H_ 0.103394 0.786824 0.213651 0.11455
H_ H_ 0.0159117 0.801387 0.205485 0.11455
H_ H_ 0.0396046 0.839662 0.115542 0.11455
H_ H_ 0.350189 0.979526 0.194401 0.11455
H_ H_ 0.394029 0.559822 0.101506 0.11455
H_ H_ 0.378843 0.975603 0.102667 0.11455
H_ H_ 0.372095 0.570364 0.221168 0.11455
H_ H_ 0.367858 0.661702 0.213822 0.11455
H_ H_ 0.38967 0.646389 0.123758 0.11455
H_ H_ 0.409984 0.897949 0.215088 0.11455
H_ H_ 0.411977 0.934167 0.266524 0.11455
H_ H_ 0.368946 0.88471 0.304975 0.11455
H_ H_ 0.313641 0.754509 0.223427 0.11455
H_ H_ 0.281967 0.695668 0.265162 0.11455
H_ H_ 0.307814 0.714306 0.312324 0.11455
H_ H_ 0.49339 0.796359 0.373147 0.11455
H_ H_ 0.50104 0.808482 0.425103 0.11455
H_ H_ 0.241589 0.842486 0.385614 0.11455
H_ H_ 0.24893 0.850789 0.437143 0.11455
H_ H_ 0.419208 0.919742 0.500263 0.11455
H_ H_ 0.475873 0.92042 0.0430514 0.11455
H_ H_ 0.432836 0.882382 0.0845173 0.11455
H_ H_ 0.330451 0.762798 0.0049668 0.11455
H_ H_ 0.294439 0.721154 0.0472658 0.11455
H_ H_ 0.326765 0.738569 0.0960861 0.11455
C_ C_ 0.233453 0.688569 0.408549 0.68181
C_ C_ 0.287331 0.675188 0.404067 -0.05681
C_ C_ 0.321861 0.680787 0.427646 -0.08735
C_ C_ 0.373747 0.679062 0.421576 -0.05681
C_ C_ 0.39242 0.676704 0.393344 -0.05681
C_ C_ 0.357611 0.670344 0.370464 -0.08735
C_ C_ 0.305817 0.665772 0.375827 -0.08735
C_ C_ 0.407811 0.682477 0.444987 -0.08735
C_ C_ 0.461085 0.680019 0.440194 -0.08735
C_ C_ 0.478999 0.681837 0.411751 -0.05681
C_ C_ 0.445093 0.682224 0.388818 -0.08735
C_ C_ 0.117181 0.779197 0.409083 0.68181
C_ C_ 0.150308 0.585514 0.400321 0.68181
C_ C_ 0.143586 0.529678 0.398711 -0.05681
C_ C_ 0.13101 0.994429 0.422148 -0.08735
C_ C_ 0.121909 0.941813 0.418104 -0.05681
C_ C_ 0.123882 0.920538 0.390418 -0.05681
C_ C_ 0.133095 0.952558 0.366084 -0.08735
C_ C_ 0.142437 1.00347584 0.370398 -0.08735
C_ C_ 0.110529 0.910042 0.441924 -0.08735
C_ C_ 0.108256 0.857105 0.439407 -0.08735
C_ C_ 0.114984 0.836601 0.412114 -0.05681
C_ C_ 0.121302 0.868918 0.388311 -0.08735
C_ C_ 0.0376205 0.669925 0.403367 0.68181
C_ C_ 0.101093 0.626967 0.483293 0.1947
C_ C_ 0.106834 0.602395 0.0100289 -0.08735
C_ C_ 0.122801 0.630005 0.03276 -0.08735
C_ C_ 0.147823 0.677055 0.0274476 -0.05681
C_ C_ 0.148699 0.696951 0.998015 0.18498
C_ C_ 0.171417 0.743822 0.493088 -0.08735
C_ C_ 0.197375 0.766143 0.0134839 -0.08735
C_ C_ 0.185738 0.754365 0.0419706 -0.08735
C_ C_ 0.163025 0.707937 0.0499272 0.18498
C_ C_ 0.195697 0.68059 0.0959456 0.44287
C_ C_ 0.109467 0.700813 0.0927208 0.44287
C_ C_ 0.101215 0.692697 0.12227 -0.05681
C_ C_ 0.052186 0.687355 0.134721 -0.08735
C_ C_ 0.0472874 0.67893 0.16313 -0.08735
C_ C_ 0.0918061 0.677466 0.181961 -0.05681
C_ C_ 0.139041 0.678064 0.169819 -0.05681
C_ C_ 0.143809 0.682408 0.139883 -0.05681
C_ C_ 0.190883 0.675686 0.127277 -0.05681
C_ C_ 0.236698 0.668157 0.144727 -0.08735
C_ C_ 0.230714 0.665473 0.175356 -0.08735
C_ C_ 0.181551 0.670351 0.187729 -0.05681
C_ C_ 0.174719 0.66468 0.217448 0.44287
C_ C_ 0.0892547 0.676621 0.21296 0.44287
C_ C_ 0.118757 0.652632 0.258602 0.18498
C_ C_ 0.0958617 0.60382 0.265175 -0.08735
C_ C_ 0.0847635 0.591527 0.292837 -0.08735
C_ C_ 0.0966444 0.623664 0.316269 -0.08735
C_ C_ 0.12681 0.668006 0.309713 0.18498
C_ C_ 0.136211 0.684828 0.281264 -0.05681
C_ C_ 0.162701 0.730777 0.276139 -0.08735
C_ C_ 0.179128 0.760382 0.298793 -0.08735
C_ C_ 0.166611 0.743138 0.326955 0.1947
C_ C_ 0.266545 0.810735 0.155601 0.68181
C_ C_ 0.212168 0.817795 0.151365 -0.05681
C_ C_ 0.178308 0.803511 0.172773 -0.08735
C_ C_ 0.12629 0.808201 0.168942 -0.05681
C_ C_ 0.106462 0.822124 0.14174 -0.05681
C_ C_ 0.141291 0.841646 0.121288 -0.08735
C_ C_ 0.192662 0.83644 0.12587 -0.08735
C_ C_ 0.0918083 0.800082 0.192569 -0.08735
C_ C_ 0.0420379 0.807529 0.188223 -0.08735
C_ C_ 0.0224027 0.817935 0.161011 -0.05681
C_ C_ 0.0550844 0.828183 0.138144 -0.08735
C_ C_ 0.373471 0.717007 0.165254 0.68181
C_ C_ 0.35869 0.912864 0.150641 0.68181
C_ C_ 0.365906 0.969315 0.149496 -0.05681
C_ C_ 0.380616 0.50079 0.17864 -0.08735
C_ C_ 0.382497 0.553746 0.175657 -0.05681
C_ C_ 0.385765 0.575039 0.147624 -0.05681
C_ C_ 0.389963 0.543391 0.123412 -0.08735
C_ C_ 0.377567 -0.005847000000000047 0.123348 -0.08735
C_ C_ 0.377081 0.586164 0.198896 -0.08735
C_ C_ 0.375021 0.637979 0.194797 -0.08735
C_ C_ 0.379502 0.659379 0.167955 -0.05681
C_ C_ 0.382018 0.627866 0.14429 -0.08735
C_ C_ 0.462955 0.819482 0.15743 0.68181
C_ C_ 0.392733 0.87931 0.233009 0.1947
C_ C_ 0.392978 0.897717 0.262105 -0.08735
C_ C_ 0.372994 0.868828 0.283684 -0.08735
C_ C_ 0.363253 0.818335 0.279369 -0.05681
C_ C_ 0.354208 0.803647 0.251174 0.18498
C_ C_ 0.325983 0.759316 0.245361 -0.08735
C_ C_ 0.311781 0.725472 0.267278 -0.08735
C_ C_ 0.326577 0.73767 0.294765 -0.08735
C_ C_ 0.349432 0.784651 0.301665 0.18498
C_ C_ 0.313449 0.810831 0.347278 0.44287
C_ C_ 0.401624 0.792785 0.34443 0.44287
C_ C_ 0.41073 0.807773 0.373498 -0.05681
C_ C_ 0.459608 0.804302 0.38622 -0.08735
C_ C_ 0.464136 0.807999 0.415671 -0.08735
C_ C_ 0.420151 0.810372 0.434078 -0.05681
C_ C_ 0.37224 0.819558 0.420233 -0.05681
C_ C_ 0.367196 0.814988 0.39074 -0.05681
C_ C_ 0.319743 0.819169 0.377716 -0.05681
C_ C_ 0.27764 0.832883 0.394901 -0.08735
C_ C_ 0.282261 0.836695 0.42432 -0.08735
C_ C_ 0.33011 0.829345 0.437661 -0.05681
C_ C_ 0.336406 0.834836 0.467719 0.44287
C_ C_ 0.423938 0.81506 0.464391 0.44287
C_ C_ 0.389063 0.851345 0.00813046 0.18498
C_ C_ 0.421278 0.892176 0.0128702 -0.08735
C_ C_ 0.443012 0.896139 0.0400082 -0.08735
C_ C_ 0.416042 0.876576 0.0634995 -0.08735
C_ C_ 0.380398 0.837679 0.0601892 0.18498
C_ C_ 0.366862 0.823626 0.0307078 -0.05681
C_ C_ 0.340301 0.778638 0.0263687 -0.08735
C_ C_ 0.323619 0.750908 0.0506358 -0.08735
C_ C_ 0.340696 0.761612 0.0783005 0.1947
N_ N_ 0.12745 0.668529 0.476542 -0.29468
N_ N_ 0.156245 0.696863 0.0800743 -0.17154
N_ N_ 0.12852 0.664802 0.229035 -0.17154
N_ N_ 0.142873 0.697537 0.33279 -0.29468
N_ N_ 0.372469 0.83294 0.228526 -0.29468
N_ N_ 0.354645 0.797792 0.33194 -0.17154
N_ N_ 0.383092 0.830505 0.480202 -0.17154
N_ N_ 0.366293 0.806482 0.0821791 -0.29468
O_ O_ 0.21432 0.689022 0.433626 -0.58347
O_ O_ 0.204727 0.691428 0.387012 -0.58347
O_ O_ 0.119061 0.749487 0.430353 -0.58347
O_ O_ 0.12151 0.762452 0.384541 -0.58347
O_ O_ 0.158477 0.604665 0.425589 -0.58347
O_ O_ 0.139787 0.613495 0.379136 -0.58347
O_ O_ 0.0695582 0.657084 0.423365 -0.58347
O_ O_ 0.054249 0.68158 0.379154 -0.58347
O_ O_ 0.0701459 0.715868 0.0777731 -0.46727
O_ O_ 0.2367 0.661362 0.0826839 -0.46727
O_ O_ 0.0465969 0.693365 0.224898 -0.46727
O_ O_ 0.213196 0.649369 0.23386 -0.46727
O_ O_ 0.286686 0.809526 0.180326 -0.58347
O_ O_ 0.293331 0.811224 0.133462 -0.58347
O_ O_ 0.376019 0.747747 0.186146 -0.58347
O_ O_ 0.370496 0.734624 0.140288 -0.58347
O_ O_ 0.351668 0.891447 0.174938 -0.58347
O_ O_ 0.370378 0.886522 0.128372 -0.58347
O_ O_ 0.435898 0.83256 0.178525 -0.58347
O_ O_ 0.444579 0.814133 0.132082 -0.58347
O_ O_ 0.439117 0.774704 0.328451 -0.46727
O_ O_ 0.267974 0.811994 0.335426 -0.46727
O_ O_ 0.470308 0.812899 0.475767 -0.46727
O_ O_ 0.294941 0.846532 0.482757 -0.46727
Zn Zn 0.11856 0.690659 0.879058 0.90689
Zn Zn 0.129987 0.682985 0.927798 0.90689
Zn Zn 0.365299 0.817958 0.632745 0.90689
Zn Zn 0.354382 0.823529 0.678907 0.90689
H_ H_ 0.297627 0.705107 0.940871 0.11455
H_ H_ 0.375478 0.677917 0.844878 0.11455
H_ H_ 0.27897 0.685348 0.848797 0.11455
H_ H_ 0.384981 0.698579 0.961277 0.11455
H_ H_ 0.472538 0.670832 0.957729 0.11455
H_ H_ 0.456404 0.670373 0.865482 0.11455
H_ H_ 0.135792 0.519082 0.937397 0.11455
H_ H_ 0.150392 0.934065 0.845159 0.11455
H_ H_ 0.129498 0.535536 0.84707 0.11455
H_ H_ 0.107124 0.934097 0.962156 0.11455
H_ H_ 0.133513 0.845256 0.959947 0.11455
H_ H_ 0.126015 0.852136 0.86892 0.11455
H_ H_ 0.0942487 0.599974 0.9652 0.11455
H_ H_ 0.0675194 0.57654 0.513248 0.11455
H_ H_ 0.0907795 0.63336 0.556039 0.11455
H_ H_ 0.193405 0.741015 0.970951 0.11455
H_ H_ 0.216077 0.801476 0.511247 0.11455
H_ H_ 0.196641 0.783738 0.560086 0.11455
H_ H_ 1.00358987 0.73494 0.622179 0.11455
H_ H_ 0.995275 0.731952 0.673228 0.11455
H_ H_ 0.250109 0.674189 0.636301 0.11455
H_ H_ 0.238907 0.666649 0.687364 0.11455
H_ H_ 0.0663895 0.595095 0.747036 0.11455
H_ H_ 0.0322982 0.574906 0.796632 0.11455
H_ H_ 0.0509797 0.633701 0.83639 0.11455
H_ H_ 0.131491 0.762968 0.755048 0.11455
H_ H_ 0.173017 0.803697 0.79467 0.11455
H_ H_ 0.171067 0.77247 0.841878 0.11455
H_ H_ 0.189402 0.810776 0.697147 0.11455
H_ H_ 0.123527 0.82781 0.599685 0.11455
H_ H_ 0.21358 0.80954 0.607311 0.11455
H_ H_ 0.101673 0.81084 0.717764 0.11455
H_ H_ 0.0106715 0.823361 0.709276 0.11455
H_ H_ 0.0365587 0.833824 0.616906 0.11455
H_ H_ 0.334602 0.989491 0.691415 0.11455
H_ H_ 0.375256 0.568726 0.59829 0.11455
H_ H_ 0.394495 0.974154 0.605264 0.11455
H_ H_ 0.348339 0.570108 0.7168 0.11455
H_ H_ 0.344343 0.665075 0.712363 0.11455
H_ H_ 0.360341 0.653367 0.620156 0.11455
H_ H_ 0.414686 0.896605 0.7148 0.11455
H_ H_ 0.434441 0.918574 0.764165 0.11455
H_ H_ 0.3727 0.893932 0.800548 0.11455
H_ H_ 0.289265 0.762744 0.721918 0.11455
H_ H_ 0.249557 0.720131 0.76127 0.11455
H_ H_ 0.263727 0.744132 0.80959 0.11455
H_ H_ 0.473118 0.799286 0.870117 0.11455
H_ H_ 0.480829 0.79988 0.9221 0.11455
H_ H_ 0.220896 0.834441 0.886188 0.11455
H_ H_ 0.236595 0.850865 0.942232 0.11455
H_ H_ 0.440026 0.908651 0.994443 0.11455
H_ H_ 0.451966 0.935602 0.548091 0.11455
H_ H_ 0.422976 0.880064 0.590351 0.11455
H_ H_ 0.335942 0.75386 0.507922 0.11455
H_ H_ 0.308234 0.702123 0.547766 0.11455
H_ H_ 0.314748 0.735543 0.597801 0.11455
C_ C_ 0.223652 0.693534 0.898428 0.68181
C_ C_ 0.280899 0.693551 0.894736 -0.05681
C_ C_ 0.312444 0.696903 0.918456 -0.08735
C_ C_ 0.364764 0.686416 0.916283 -0.05681
C_ C_ 0.386205 0.677011 0.889342 -0.05681
C_ C_ 0.356102 0.678178 0.865768 -0.08735
C_ C_ 0.303659 0.685207 0.868271 -0.08735
C_ C_ 0.397154 0.683611 0.940795 -0.08735
C_ C_ 0.449332 0.676287 0.937478 -0.08735
C_ C_ 0.470417 0.672894 0.910435 -0.05681
C_ C_ 0.43908 0.667337 0.886636 -0.08735
C_ C_ 0.125766 0.784697 0.913761 0.68181
C_ C_ 0.130562 0.589373 0.893848 0.68181
C_ C_ 0.12863 0.534101 0.892988 -0.05681
C_ C_ 0.128433 1.000461215 0.917674 -0.08735
C_ C_ 0.130899 0.948459 0.917378 -0.05681
C_ C_ 0.137443 0.922582 0.890992 -0.05681
C_ C_ 0.145358 0.953558 0.866555 -0.08735
C_ C_ 0.155263 0.0042449 0.86858 -0.08735
C_ C_ 0.121572 0.918869 0.942766 -0.08735
C_ C_ 0.128838 0.866838 0.941297 -0.08735
C_ C_ 0.126052 0.841288 0.915131 -0.05681
C_ C_ 0.12982 0.87032 0.888917 -0.08735
C_ C_ 0.0249745 0.683336 0.911306 0.68181
C_ C_ 0.108917 0.62192 0.981997 0.1947
C_ C_ 0.0866137 0.613708 0.511327 -0.08735
C_ C_ 0.0961375 0.645464 0.533765 -0.08735
C_ C_ 0.127012 0.689288 0.527505 -0.05681
C_ C_ 0.141524 0.700912 0.498195 0.18498
C_ C_ 0.177806 0.737774 0.99218 -0.08735
C_ C_ 0.18545 0.774256 0.514954 -0.08735
C_ C_ 0.180178 0.759088 0.543326 -0.08735
C_ C_ 0.14923 0.716852 0.549902 0.18498
C_ C_ 0.174997 0.688835 0.596786 0.44287
C_ C_ 0.0928102 0.71648 0.592287 0.44287
C_ C_ 0.0795455 0.704792 0.621454 -0.05681
C_ C_ 0.0310908 0.71584 0.634361 -0.08735
C_ C_ 0.0278312 0.714978 0.663915 -0.08735
C_ C_ 0.067271 0.696769 0.681863 -0.05681
C_ C_ 0.115442 0.684194 0.669608 -0.05681
C_ C_ 0.120031 0.689242 0.638627 -0.05681
C_ C_ 0.168947 0.683056 0.626869 -0.05681
C_ C_ 0.21154 0.675625 0.645385 -0.08735
C_ C_ 0.203829 0.67102 0.674291 -0.08735
C_ C_ 0.156241 0.675173 0.686961 -0.05681
C_ C_ 0.149742 0.67588 0.717489 0.44287
C_ C_ 0.0625236 0.693987 0.712667 0.44287
C_ C_ 0.0969717 0.665313 0.758884 0.18498
C_ C_ 0.0753362 0.619265 0.764658 -0.08735
C_ C_ 0.0581101 0.606728 0.792738 -0.08735
C_ C_ 0.0681901 0.639993 0.815473 -0.08735
C_ C_ 0.0989717 0.683355 0.810141 0.18498
C_ C_ 0.10543 0.701231 0.781337 -0.05681
C_ C_ 0.12582 0.748525 0.776341 -0.08735
C_ C_ 0.142996 0.776722 0.799917 -0.08735
C_ C_ 0.145356 0.755286 0.826567 0.1947
C_ C_ 0.261748 0.810909 0.657993 0.68181
C_ C_ 0.206907 0.814632 0.653833 -0.05681
C_ C_ 0.175059 0.824286 0.677368 -0.08735
C_ C_ 0.122002 0.822126 0.672502 -0.05681
C_ C_ 0.102663 0.832837 0.644183 -0.05681
C_ C_ 0.135812 0.824345 0.621619 -0.08735
C_ C_ 0.18725 0.815357 0.625809 -0.08735
C_ C_ 0.0885274 0.82104 0.696095 -0.08735
C_ C_ 0.0347171 0.822478 0.690601 -0.08735
C_ C_ 0.0165718 0.831714 0.662513 -0.05681
C_ C_ 0.050014 0.83734 0.639125 -0.08735
C_ C_ 0.363674 0.722593 0.664097 0.68181
C_ C_ 0.361975 0.919052 0.649778 0.68181
C_ C_ 0.365986 0.976001 0.648865 -0.05681
C_ C_ 0.354683 0.504249 0.671786 -0.08735
C_ C_ 0.352962 0.557166 0.67032 -0.05681
C_ C_ 0.360811 0.58111 0.643651 -0.05681
C_ C_ 0.374741 0.551916 0.619727 -0.08735
C_ C_ 0.387421 0.99744 0.624408 -0.08735
C_ C_ 0.347904 0.586047 0.695466 -0.08735
C_ C_ 0.347656 0.640534 0.692704 -0.08735
C_ C_ 0.357738 0.664146 0.666617 -0.05681
C_ C_ 0.362138 0.634508 0.641499 -0.08735
C_ C_ 0.456835 0.821378 0.655328 0.68181
C_ C_ 0.394273 0.876332 0.731969 0.1947
C_ C_ 0.40369 0.892102 0.760493 -0.08735
C_ C_ 0.371795 0.874529 0.781319 -0.08735
C_ C_ 0.343217 0.830593 0.776539 -0.05681
C_ C_ 0.338034 0.811202 0.748275 0.18498
C_ C_ 0.30061 0.775154 0.74348 -0.08735
C_ C_ 0.277854 0.749383 0.765284 -0.08735
C_ C_ 0.28894 0.760223 0.793433 -0.08735
C_ C_ 0.321179 0.802484 0.799867 0.18498
C_ C_ 0.29408 0.834222 0.846093 0.44287
C_ C_ 0.37938 0.806785 0.840483 0.44287
C_ C_ 0.390705 0.817178 0.870452 -0.05681
C_ C_ 0.438829 0.808802 0.882267 -0.08735
C_ C_ 0.442922 0.806228 0.911686 -0.08735
C_ C_ 0.405046 0.820714 0.930188 -0.05681
C_ C_ 0.358555 0.832191 0.9184 -0.05681
C_ C_ 0.350211 0.827902 0.888695 -0.05681
C_ C_ 0.301818 0.835738 0.876845 -0.05681
C_ C_ 0.259716 0.83524 0.896063 -0.08735
C_ C_ 0.268292 0.842472 0.926466 -0.08735
C_ C_ 0.318795 0.843107 0.936921 -0.05681
C_ C_ 0.328389 0.849835 0.966946 0.44287
C_ C_ 0.415125 0.82323 0.960257 0.44287
C_ C_ 0.389306 0.844756 0.510081 0.18498
C_ C_ 0.408471 0.895307 0.517025 -0.08735
C_ C_ 0.422178 0.905295 0.545865 -0.08735
C_ C_ 0.410177 0.871254 0.567976 -0.08735
C_ C_ 0.37833 0.83003 0.562486 0.18498
C_ C_ 0.370956 0.813514 0.533395 -0.05681
C_ C_ 0.3441 0.767193 0.529421 -0.08735
C_ C_ 0.327958 0.738679 0.551915 -0.08735
C_ C_ 0.328265 0.760441 0.579979 0.1947
N_ N_ 0.131166 0.668173 0.975728 -0.29468
N_ N_ 0.136335 0.706014 0.580013 -0.17154
N_ N_ 0.103222 0.682162 0.729849 -0.17154
N_ N_ 0.119635 0.711334 0.831969 -0.29468
N_ N_ 0.362799 0.836879 0.726337 -0.29468
N_ N_ 0.332625 0.817454 0.829561 -0.17154
N_ N_ 0.376356 0.842536 0.977993 -0.17154
N_ N_ 0.358676 0.802403 0.585817 -0.29468
O_ O_ 0.203193 0.693112 0.924323 -0.58347
O_ O_ 0.197404 0.689686 0.876531 -0.58347
O_ O_ 0.120791 0.757658 0.93644 -0.58347
O_ O_ 0.119124 0.764284 0.889112 -0.58347
O_ O_ 0.137574 0.611079 0.917888 -0.58347
O_ O_ 0.116264 0.615387 0.872628 -0.58347
O_ O_ 0.0546012 0.677539 0.931984 -0.58347
O_ O_ 0.0428427 0.68724 0.887238 -0.58347
O_ O_ 0.0600077 0.740879 0.576843 -0.46727
O_ O_ 0.217901 0.67222 0.58538 -0.46727
O_ O_ 0.0187861 0.701715 0.725025 -0.46727
O_ O_ 0.188998 0.671626 0.73433 -0.46727
O_ O_ 0.280701 0.821521 0.682395 -0.58347
O_ O_ 0.289953 0.820905 0.63649 -0.58347
O_ O_ 0.359062 0.749111 0.686545 -0.58347
O_ O_ 0.364895 0.743825 0.639039 -0.58347
O_ O_ 0.355714 0.900467 0.673671 -0.58347
O_ O_ 0.364747 0.890992 0.627576 -0.58347
O_ O_ 0.427493 0.822477 0.676362 -0.58347
O_ O_ 0.43879 0.81685 0.630201 -0.58347
O_ O_ 0.415772 0.787443 0.824167 -0.46727
O_ O_ 0.24991 0.844896 0.834958 -0.46727
O_ O_ 0.46125 0.825452 0.968684 -0.46727
O_ O_ 0.295134 0.868764 0.98456 -0.46727
Zn Zn 0.638797 0.183507 0.381363 0.90689
Zn Zn 0.645028 0.178128 0.431191 0.90689
Zn Zn 0.87106 0.309196 0.130357 0.90689
Zn Zn 0.861046 0.316662 0.176437 0.90689
H_ H_ 0.813046 0.192692 0.444103 0.11455
H_ H_ 0.882604 0.152423 0.348151 0.11455
H_ H_ 0.79051 0.157028 0.354021 0.11455
H_ H_ 0.900747 0.214563 0.459441 0.11455
H_ H_ 0.990792 0.207056 0.45463 0.11455
H_ H_ 0.96733 0.151689 0.367859 0.11455
H_ H_ 0.609667 0.0139418 0.442948 0.11455
H_ H_ 0.636953 0.435242 0.351526 0.11455
H_ H_ 0.677113 0.0203951 0.360162 0.11455
H_ H_ 0.650163 0.429258 0.467885 0.11455
H_ H_ 0.637717 0.336198 0.465695 0.11455
H_ H_ 0.640397 0.347934 0.373723 0.11455
H_ H_ 0.581654 0.10001 0.465588 0.11455
H_ H_ 0.569478 0.0759148 0.0149404 0.11455
H_ H_ 0.611716 0.117009 0.0571445 0.11455
H_ H_ 0.70757 0.231704 0.474461 0.11455
H_ H_ 0.716382 0.30311 0.0144034 0.11455
H_ H_ 0.671621 0.293162 0.0617156 0.11455
H_ H_ 0.507515 0.199721 0.123719 0.11455
H_ H_ 0.497397 0.178848 0.176517 0.11455
H_ H_ 0.755447 0.160267 0.133013 0.11455
H_ H_ 0.745443 0.145564 0.188112 0.11455
H_ H_ 0.57288 0.0667319 0.255583 0.11455
H_ H_ 0.548541 0.0551881 0.304735 0.11455
H_ H_ 0.580768 0.115572 0.343118 0.11455
H_ H_ 0.662768 0.232032 0.255005 0.11455
H_ H_ 0.697692 0.282671 0.293532 0.11455
H_ H_ 0.689628 0.255023 0.341658 0.11455
H_ H_ 0.69686 0.298384 0.195742 0.11455
H_ H_ 0.624241 0.328722 0.0988503 0.11455
H_ H_ 0.718105 0.337888 0.106279 0.11455
H_ H_ 0.611049 0.283795 0.214861 0.11455
H_ H_ 0.518832 0.276762 0.207834 0.11455
H_ H_ 0.538781 0.328606 0.120522 0.11455
H_ H_ 0.83835 0.477948 0.188071 0.11455
H_ H_ 0.865733 0.057506 0.095146 0.11455
H_ H_ 0.894539 0.470286 0.102338 0.11455
H_ H_ 0.876908 0.06531 0.210649 0.11455
H_ H_ 0.889937 0.157994 0.204271 0.11455
H_ H_ 0.844697 0.140951 0.115088 0.11455
H_ H_ 0.923031 0.387045 0.211803 0.11455
H_ H_ 0.953007 0.405924 0.261556 0.11455
H_ H_ 0.908758 0.359924 0.302907 0.11455
H_ H_ 0.809162 0.246362 0.219188 0.11455
H_ H_ 0.772808 0.196768 0.258449 0.11455
H_ H_ 0.795831 0.215874 0.30957 0.11455
H_ H_ 0.98625 0.30036 0.370524 0.11455
H_ H_ -0.0020059999999999523 0.304413 0.420506 0.11455
H_ H_ 0.735752 0.315733 0.385473 0.11455
H_ H_ 0.748718 0.333438 0.438858 0.11455
H_ H_ 0.922917 0.425329 0.500311 0.11455
H_ H_ 0.959424 0.429776 0.0461556 0.11455
H_ H_ 0.936071 0.371823 0.0847782 0.11455
H_ H_ 0.834663 0.253431 0.00618424 0.11455
H_ H_ 0.792894 0.214678 0.0473286 0.11455
H_ H_ 0.814709 0.242262 0.0962987 0.11455
C_ C_ 0.738676 0.175747 0.402677 0.68181
C_ C_ 0.7943 0.173615 0.400315 -0.05681
C_ C_ 0.829572 0.185957 0.422709 -0.08735
C_ C_ 0.882542 0.187995 0.417645 -0.05681
C_ C_ 0.902919 0.175273 0.390194 -0.05681
C_ C_ 0.867564 0.163264 0.36815 -0.08735
C_ C_ 0.814305 0.165861 0.373282 -0.08735
C_ C_ 0.915484 0.197555 0.440115 -0.08735
C_ C_ 0.966912 0.193091 0.437143 -0.08735
C_ C_ 0.98833 0.183038 0.40936 -0.05681
C_ C_ 0.955828 0.17216 0.386396 -0.08735
C_ C_ 0.638804 0.278828 0.41602 0.68181
C_ C_ 0.644769 0.0798085 0.403445 0.68181
C_ C_ 0.642928 0.0232742 0.401701 -0.05681
C_ C_ 0.647339 0.494077 0.426632 -0.08735
C_ C_ 0.649623 0.441687 0.424039 -0.05681
C_ C_ 0.648796 0.418963 0.396169 -0.05681
C_ C_ 0.648767 0.450223 0.372861 -0.08735
C_ C_ 0.650875 0.502708 0.375502 -0.08735
C_ C_ 0.643974 0.412469 0.447567 -0.08735
C_ C_ 0.643703 0.358368 0.445888 -0.08735
C_ C_ 0.641425 0.335555 0.419199 -0.05681
C_ C_ 0.642822 0.365799 0.394256 -0.08735
C_ C_ 0.543267 0.176836 0.410791 0.68181
C_ C_ 0.606645 0.115696 0.482135 0.1947
C_ C_ 0.592704 0.107854 0.0114419 -0.08735
C_ C_ 0.612145 0.134774 0.0346897 -0.08735
C_ C_ 0.636515 0.180981 0.0299635 -0.05681
C_ C_ 0.651375 0.191992 1.00161776 0.18498
C_ C_ 0.693903 0.222926 0.49645 -0.08735
C_ C_ 0.693656 0.269726 0.0180739 -0.08735
C_ C_ 0.672253 0.261822 0.0455413 -0.08735
C_ C_ 0.646343 0.215638 0.0525204 0.18498
C_ C_ 0.682988 0.193431 0.0986011 0.44287
C_ C_ 0.592969 0.200263 0.0958542 0.44287
C_ C_ 0.5868 0.193408 0.125098 -0.05681
C_ C_ 0.537996 0.186851 0.13719 -0.08735
C_ C_ 0.534853 0.17385 0.166999 -0.08735
C_ C_ 0.577824 0.171558 0.184558 -0.05681
C_ C_ 0.625189 0.171275 0.171956 -0.05681
C_ C_ 0.629071 0.178814 0.141302 -0.05681
C_ C_ 0.675872 0.176482 0.127683 -0.05681
C_ C_ 0.719228 0.167062 0.145065 -0.08735
C_ C_ 0.714728 0.157876 0.174673 -0.08735
C_ C_ 0.668223 0.158059 0.187839 -0.05681
C_ C_ 0.661442 0.148292 0.217306 0.44287
C_ C_ 0.572286 0.159972 0.213902 0.44287
C_ C_ 0.609214 0.141082 0.260657 0.18498
C_ C_ 0.581563 0.0977536 0.2704 -0.08735
C_ C_ 0.570699 0.0883388 0.299032 -0.08735
C_ C_ 0.589349 0.121186 0.320436 -0.08735
C_ C_ 0.617978 0.163781 0.31187 0.18498
C_ C_ 0.627176 0.175172 0.283031 -0.05681
C_ C_ 0.649538 0.221316 0.27595 -0.08735
C_ C_ 0.672998 0.249925 0.297851 -0.08735
C_ C_ 0.667077 0.23617 0.325899 0.1947
C_ C_ 0.767449 0.30751 0.154133 0.68181
C_ C_ 0.713566 0.312495 0.150641 -0.05681
C_ C_ 0.680789 0.305477 0.174488 -0.08735
C_ C_ 0.627061 0.305183 0.17016 -0.05681
C_ C_ 0.606947 0.314043 0.143009 -0.05681
C_ C_ 0.641247 0.32402 0.120176 -0.08735
C_ C_ 0.693782 0.323376 0.12342 -0.08735
C_ C_ 0.593354 0.293301 0.193236 -0.08735
C_ C_ 0.54174 0.293263 0.190867 -0.08735
C_ C_ 0.520724 0.311017 0.165593 -0.05681
C_ C_ 0.553788 0.317363 0.140835 -0.08735
C_ C_ 0.865599 0.214662 0.155547 0.68181
C_ C_ 0.860831 0.411504 0.1498 0.68181
C_ C_ 0.867929 0.467231 0.146591 -0.05681
C_ C_ 0.869935 -0.004379000000000022 0.169056 -0.08735
C_ C_ 0.871072 0.049955 0.166629 -0.05681
C_ C_ 0.858278 0.0715472 0.138969 -0.05681
C_ C_ 0.857121 0.0402678 0.114777 -0.08735
C_ C_ 0.884424 0.490122 0.121455 -0.08735
C_ C_ 0.876469 0.0829492 0.189919 -0.08735
C_ C_ 0.874189 0.135192 0.186893 -0.08735
C_ C_ 0.865919 0.157241 0.159036 -0.05681
C_ C_ 0.856904 0.124874 0.135668 -0.08735
C_ C_ 0.967092 0.316535 0.155426 0.68181
C_ C_ 0.905455 0.367214 0.230536 0.1947
C_ C_ 0.923382 0.376176 0.257702 -0.08735
C_ C_ 0.896451 0.354859 0.281052 -0.08735
C_ C_ 0.863053 0.314098 0.276076 -0.05681
C_ C_ 0.85123 0.300866 0.247199 0.18498
C_ C_ 0.817515 0.259205 0.241584 -0.08735
C_ C_ 0.797605 0.22937 0.263352 -0.08735
C_ C_ 0.811983 0.240314 0.291584 -0.08735
C_ C_ 0.841867 0.284413 0.298433 0.18498
C_ C_ 0.807499 0.308115 0.345373 0.44287
C_ C_ 0.894528 0.285652 0.342097 0.44287
C_ C_ 0.904634 0.300263 0.370837 -0.05681
C_ C_ 0.95305 0.302957 0.38314 -0.08735
C_ C_ 0.959685 0.312343 0.412317 -0.08735
C_ C_ 0.918182 0.319263 0.430594 -0.05681
C_ C_ 0.868918 0.319178 0.419083 -0.05681
C_ C_ 0.863132 0.312811 0.388038 -0.05681
C_ C_ 0.814046 0.314934 0.375903 -0.05681
C_ C_ 0.772591 0.321461 0.394153 -0.08735
C_ C_ 0.779903 0.327712 0.424308 -0.08735
C_ C_ 0.828896 0.32665 0.4367 -0.05681
C_ C_ 0.836918 0.32955 0.467501 0.44287
C_ C_ 0.926687 0.331103 0.460469 0.44287
C_ C_ 0.886687 0.346136 0.00762174 0.18498
C_ C_ 0.920312 0.387307 0.0132626 -0.08735
C_ C_ 0.935552 0.397008 0.0412713 -0.08735
C_ C_ 0.92128 0.363877 0.0638062 -0.08735
C_ C_ 0.884073 0.326368 0.0589315 0.18498
C_ C_ 0.868129 0.316449 0.0303242 -0.05681
C_ C_ 0.835447 0.273626 0.0266707 -0.08735
C_ C_ 0.815271 0.248188 0.0498169 -0.08735
C_ C_ 0.833133 0.259219 0.078231 0.1947
N_ N_ 0.637262 0.156618 0.478088 -0.29468
N_ N_ 0.64066 0.201522 0.0823628 -0.17154
N_ N_ 0.613785 0.152478 0.230738 -0.17154
N_ N_ 0.638524 0.195211 0.332744 -0.29468
N_ N_ 0.872251 0.326596 0.224717 -0.29468
N_ N_ 0.848557 0.295859 0.328907 -0.17154
N_ N_ 0.885947 0.331363 0.478469 -0.17154
N_ N_ 0.863974 0.300799 0.0821835 -0.29468
O_ O_ 0.717708 0.16927 0.427366 -0.58347
O_ O_ 0.713241 0.189821 0.380728 -0.58347
O_ O_ 0.647536 0.252329 0.437716 -0.58347
O_ O_ 0.631499 0.258252 0.390974 -0.58347
O_ O_ 0.647755 0.103099 0.427233 -0.58347
O_ O_ 0.647073 0.106803 0.38105 -0.58347
O_ O_ 0.570532 0.17475 0.432638 -0.58347
O_ O_ 0.562426 0.179896 0.385676 -0.58347
O_ O_ 0.553218 0.209743 0.0802307 -0.46727
O_ O_ 0.727606 0.187195 0.087188 -0.46727
O_ O_ 0.526808 0.152975 0.224892 -0.46727
O_ O_ 0.701446 0.14613 0.23408 -0.46727
O_ O_ 0.788519 0.320455 0.17782 -0.58347
O_ O_ 0.795588 0.300387 0.132127 -0.58347
O_ O_ 0.857085 0.242028 0.178135 -0.58347
O_ O_ 0.884941 0.235091 0.132678 -0.58347
O_ O_ 0.859383 0.391629 0.174801 -0.58347
O_ O_ 0.862547 0.383538 0.127803 -0.58347
O_ O_ 0.937234 0.31661 0.176504 -0.58347
O_ O_ 0.9498 0.318972 0.130376 -0.58347
O_ O_ 0.93266 0.271582 0.325191 -0.46727
O_ O_ 0.76342 0.315159 0.332972 -0.46727
O_ O_ 0.972838 0.327559 0.472004 -0.46727
O_ O_ 0.7974 0.330142 0.483773 -0.46727
Zn Zn 0.630678 0.187218 0.883136 0.90689
Zn Zn 0.637188 0.18391 0.932333 0.90689
Zn Zn 0.878831 0.313469 0.632028 0.90689
Zn Zn 0.869146 0.323976 0.67989 0.90689
H_ H_ 0.814205 0.189255 0.944899 0.11455
H_ H_ 0.871065 0.158687 0.845196 0.11455
H_ H_ 0.779562 0.169153 0.854192 0.11455
H_ H_ 0.897543 0.181074 0.964087 0.11455
H_ H_ 0.990521 0.178136 0.952586 0.11455
H_ H_ 0.964211 0.156829 0.863367 0.11455
H_ H_ 0.586822 0.0228706 0.931385 0.11455
H_ H_ 0.590415 0.43666 0.854517 0.11455
H_ H_ 0.691063 0.0284077 0.861786 0.11455
H_ H_ 0.682237 0.435726 0.961837 0.11455
H_ H_ 0.670276 0.339848 0.959616 0.11455
H_ H_ 0.588824 0.355433 0.88181 0.11455
H_ H_ 0.580878 0.105884 0.966387 0.11455
H_ H_ 0.568296 0.0690389 0.51278 0.11455
H_ H_ 0.606031 0.110393 0.554492 0.11455
H_ H_ 0.701143 0.241301 0.975212 0.11455
H_ H_ 0.729279 0.289245 0.515119 0.11455
H_ H_ 0.690454 0.273726 0.561806 0.11455
H_ H_ 0.511568 0.195524 0.621471 0.11455
H_ H_ 0.497642 0.184808 0.671529 0.11455
H_ H_ 0.760954 0.179176 0.642855 0.11455
H_ H_ 0.753515 0.154207 0.69258 0.11455
H_ H_ 0.547514 0.106632 0.750529 0.11455
H_ H_ 0.526978 0.0864672 0.80242 0.11455
H_ H_ 0.57337 0.131164 0.841072 0.11455
H_ H_ 0.664852 0.247832 0.758796 0.11455
H_ H_ 0.685791 0.302347 0.798313 0.11455
H_ H_ 0.674519 0.274162 0.84827 0.11455
H_ H_ 0.695257 0.328586 0.694866 0.11455
H_ H_ 0.631502 0.29342 0.597898 0.11455
H_ H_ 0.72096 0.290739 0.607019 0.11455
H_ H_ 0.614501 0.333507 0.713965 0.11455
H_ H_ 0.521519 0.33605 0.706184 0.11455
H_ H_ 0.544046 0.313314 0.617235 0.11455
H_ H_ 0.897409 0.487441 0.688906 0.11455
H_ H_ 0.888136 0.0641755 0.596648 0.11455
H_ H_ 0.855029 0.47752 0.60052 0.11455
H_ H_ 0.886216 0.0661447 0.714394 0.11455
H_ H_ 0.886802 0.159343 0.711765 0.11455
H_ H_ 0.883803 0.153581 0.619338 0.11455
H_ H_ 0.919211 0.401034 0.71398 0.11455
H_ H_ 0.939451 0.426055 0.763826 0.11455
H_ H_ 0.898292 0.385179 0.804611 0.11455
H_ H_ 0.807413 0.259508 0.723588 0.11455
H_ H_ 0.783446 0.202341 0.761613 0.11455
H_ H_ 0.788587 0.235226 0.809886 0.11455
H_ H_ 0.987696 0.296865 0.873479 0.11455
H_ H_ -0.011494000000000004 0.285693 0.926147 0.11455
H_ H_ 0.746554 0.372033 0.879853 0.11455
H_ H_ 0.757268 0.385641 0.932881 0.11455
H_ H_ 0.937865 0.411632 0.995587 0.11455
H_ H_ 0.954926 0.434353 0.547447 0.11455
H_ H_ 0.931167 0.381496 0.585875 0.11455
H_ H_ 0.861892 0.24761 0.504407 0.11455
H_ H_ 0.813734 0.206252 0.543054 0.11455
H_ H_ 0.823994 0.239345 0.592949 0.11455
C_ C_ 0.734953 0.186284 0.905449 0.68181
C_ C_ 0.791561 0.179208 0.900916 -0.05681
C_ C_ 0.827186 0.18053 0.923125 -0.08735
C_ C_ 0.87712 0.167696 0.918605 -0.05681
C_ C_ 0.894554 0.163212 0.889832 -0.05681
C_ C_ 0.857528 0.160901 0.867817 -0.08735
C_ C_ 0.806567 0.167471 0.873239 -0.08735
C_ C_ 0.909844 0.172638 0.941529 -0.08735
C_ C_ 0.962715 0.176925 0.936255 -0.08735
C_ C_ 0.981651 0.17382 0.907221 -0.05681
C_ C_ 0.947608 0.162686 0.884899 -0.08735
C_ C_ 0.62859 0.28527 0.917346 0.68181
C_ C_ 0.640456 0.0864621 0.90045 0.68181
C_ C_ 0.643365 0.0312148 0.899473 -0.05681
C_ C_ 0.641449 0.50214 0.924078 -0.08735
C_ C_ 0.640456 0.449027 0.922699 -0.05681
C_ C_ 0.615921 0.424814 0.898572 -0.05681
C_ C_ 0.598597 0.454623 0.876246 -0.08735
C_ C_ 0.601149 0.50693 0.877121 -0.08735
C_ C_ 0.659464 0.418866 0.945397 -0.08735
C_ C_ 0.656071 0.365805 0.943802 -0.08735
C_ C_ 0.633593 0.342397 0.919571 -0.05681
C_ C_ 0.612354 0.372968 0.897663 -0.08735
C_ C_ 0.535984 0.189014 0.910809 0.68181
C_ C_ 0.601502 0.124134 0.983294 0.1947
C_ C_ 0.596795 0.097382 0.509894 -0.08735
C_ C_ 0.614608 0.125465 0.533307 -0.08735
C_ C_ 0.647315 0.166535 0.53026 -0.05681
C_ C_ 0.657011 0.183953 0.500788 0.18498
C_ C_ 0.683435 0.236326 0.995602 -0.08735
C_ C_ 0.705776 0.25536 0.518579 -0.08735
C_ C_ 0.688502 0.243293 0.545872 -0.08735
C_ C_ 0.662423 0.196411 0.553122 0.18498
C_ C_ 0.692673 0.183145 0.601339 0.44287
C_ C_ 0.605645 0.192902 0.593836 0.44287
C_ C_ 0.594743 0.186767 0.622717 -0.05681
C_ C_ 0.545207 0.189401 0.634189 -0.08735
C_ C_ 0.538012 0.185509 0.664219 -0.08735
C_ C_ 0.579067 0.182036 0.683306 -0.05681
C_ C_ 0.62607 0.168442 0.671398 -0.05681
C_ C_ 0.635478 0.176835 0.642101 -0.05681
C_ C_ 0.685474 0.177096 0.631566 -0.05681
C_ C_ 0.724939 0.173519 0.650742 -0.08735
C_ C_ 0.71807 0.161156 0.679432 -0.08735
C_ C_ 0.667505 0.163475 0.691139 -0.05681
C_ C_ 0.658338 0.162662 0.721216 0.44287
C_ C_ 0.572567 0.186 0.713242 0.44287
C_ C_ 0.601444 0.166381 0.761969 0.18498
C_ C_ 0.568087 0.124122 0.767929 -0.08735
C_ C_ 0.558009 0.113535 0.797546 -0.08735
C_ C_ 0.583101 0.139751 0.819692 -0.08735
C_ C_ 0.616446 0.178938 0.813831 0.18498
C_ C_ 0.622245 0.194637 0.785208 -0.05681
C_ C_ 0.650984 0.238453 0.780034 -0.08735
C_ C_ 0.665158 0.268771 0.803059 -0.08735
C_ C_ 0.659917 0.251818 0.82954 0.1947
C_ C_ 0.773767 0.312546 0.653813 0.68181
C_ C_ 0.71577 0.314929 0.649812 -0.05681
C_ C_ 0.683279 0.322273 0.672594 -0.08735
C_ C_ 0.631359 0.327894 0.669005 -0.05681
C_ C_ 0.611373 0.317788 0.641748 -0.05681
C_ C_ 0.646212 0.304507 0.619303 -0.08735
C_ C_ 0.696776 0.298409 0.62455 -0.08735
C_ C_ 0.59992 0.336793 0.691951 -0.08735
C_ C_ 0.54843 0.328448 0.689141 -0.08735
C_ C_ 0.527334 0.329447 0.661137 -0.05681
C_ C_ 0.559107 0.320854 0.637684 -0.08735
C_ C_ 0.880838 0.220674 0.663507 0.68181
C_ C_ 0.866191 0.418534 0.648878 0.68181
C_ C_ 0.873724 0.475865 0.645284 -0.05681
C_ C_ 0.871661 0.00425932 0.672129 -0.08735
C_ C_ 0.876949 0.0555646 0.669284 -0.05681
C_ C_ 0.876819 0.0804822 0.642663 -0.05681
C_ C_ 0.873729 0.0503873 0.618072 -0.08735
C_ C_ 0.860977 0.498987 0.620083 -0.08735
C_ C_ 0.883543 0.0856286 0.693485 -0.08735
C_ C_ 0.885243 0.138128 0.691712 -0.08735
C_ C_ 0.882253 0.164852 0.66512 -0.05681
C_ C_ 0.87674 0.134512 0.640674 -0.08735
C_ C_ 0.972315 0.328254 0.656353 0.68181
C_ C_ 0.903977 0.377044 0.731127 0.1947
C_ C_ 0.918001 0.392552 0.759487 -0.08735
C_ C_ 0.895836 0.367085 0.782971 -0.08735
C_ C_ 0.867688 0.320883 0.778518 -0.05681
C_ C_ 0.856823 0.307182 0.748848 0.18498
C_ C_ 0.82681 0.263298 0.743471 -0.08735
C_ C_ 0.806599 0.234537 0.765832 -0.08735
C_ C_ 0.814057 0.251791 0.794617 -0.08735
C_ C_ 0.845211 0.292997 0.800908 0.18498
C_ C_ 0.815951 0.327829 0.845486 0.44287
C_ C_ 0.902707 0.299399 0.842686 0.44287
C_ C_ 0.90968 0.310257 0.871615 -0.05681
C_ C_ 0.955243 0.302044 0.885731 -0.08735
C_ C_ 0.95426 0.295047 0.916442 -0.08735
C_ C_ 0.910528 0.307182 0.931261 -0.05681
C_ C_ 0.870573 0.331079 0.918861 -0.05681
C_ C_ 0.866281 0.323029 0.888246 -0.05681
C_ C_ 0.821051 0.336051 0.874816 -0.05681
C_ C_ 0.781518 0.358161 0.891613 -0.08735
C_ C_ 0.788654 0.366692 0.920897 -0.08735
C_ C_ 0.828772 0.347726 0.935721 -0.05681
C_ C_ 0.832925 0.350029 0.96604 0.44287
C_ C_ 0.913543 0.310989 0.962077 0.44287
C_ C_ 0.896444 0.344639 0.508228 0.18498
C_ C_ 0.912551 0.395895 0.515679 -0.08735
C_ C_ 0.929882 0.404503 0.543502 -0.08735
C_ C_ 0.922868 0.369345 0.565397 -0.08735
C_ C_ 0.897238 0.323639 0.56071 0.18498
C_ C_ 0.885867 0.310418 0.531793 -0.05681
C_ C_ 0.86618 0.261826 0.527187 -0.08735
C_ C_ 0.838495 0.239258 0.549041 -0.08735
C_ C_ 0.844579 0.257109 0.576147 0.1947
N_ N_ 0.632941 0.162182 0.978405 -0.29468
N_ N_ 0.652481 0.187425 0.583063 -0.17154
N_ N_ 0.612816 0.178244 0.732218 -0.17154
N_ N_ 0.637508 0.208234 0.835748 -0.29468
N_ N_ 0.873874 0.335628 0.726621 -0.29468
N_ N_ 0.855339 0.304999 0.83082 -0.17154
N_ N_ 0.876057 0.333323 0.978442 -0.17154
N_ N_ 0.876376 0.296942 0.583037 -0.29468
O_ O_ 0.714786 0.180294 0.930161 -0.58347
O_ O_ 0.707508 0.192245 0.883996 -0.58347
O_ O_ 0.640198 0.259135 0.938828 -0.58347
O_ O_ 0.622953 0.263806 0.892313 -0.58347
O_ O_ 0.637593 0.107396 0.924471 -0.58347
O_ O_ 0.638432 0.111616 0.878845 -0.58347
O_ O_ 0.563782 0.188661 0.933011 -0.58347
O_ O_ 0.555493 0.178984 0.885876 -0.58347
O_ O_ 0.566773 0.20081 0.576403 -0.46727
O_ O_ 0.738082 0.188049 0.591204 -0.46727
O_ O_ 0.531263 0.209799 0.72278 -0.46727
O_ O_ 0.699383 0.159133 0.737675 -0.46727
O_ O_ 0.793868 0.317697 0.677652 -0.58347
O_ O_ 0.803157 0.309758 0.632349 -0.58347
O_ O_ 0.868968 0.246561 0.685671 -0.58347
O_ O_ 0.881076 0.24048 0.638976 -0.58347
O_ O_ 0.864207 0.400889 0.674202 -0.58347
O_ O_ 0.875102 0.389932 0.628759 -0.58347
O_ O_ 0.943474 0.32994 0.67764 -0.58347
O_ O_ 0.954967 0.316036 0.632568 -0.58347
O_ O_ 0.937983 0.283969 0.82578 -0.46727
O_ O_ 0.775205 0.340738 0.831803 -0.46727
O_ O_ 0.954692 0.293051 0.97564 -0.46727
O_ O_ 0.793141 0.360161 0.981091 -0.46727
Zn Zn 0.628031 0.681576 0.383493 0.90689
Zn Zn 0.639079 0.678727 0.430011 0.90689
Zn Zn 0.867749 0.80537 0.131201 0.90689
Zn Zn 0.863764 0.815318 0.179821 0.90689
H_ H_ 0.813088 0.679628 0.446603 0.11455
H_ H_ 0.873923 0.65905 0.346946 0.11455
H_ H_ 0.778601 0.663058 0.356097 0.11455
H_ H_ 0.89664 0.66729 0.464168 0.11455
H_ H_ 0.990089 0.657079 0.45423 0.11455
H_ H_ 0.961132 0.66968 0.363402 0.11455
H_ H_ 0.650851 0.511837 0.44841 0.11455
H_ H_ 0.686442 0.929178 0.358871 0.11455
H_ H_ 0.657618 0.523697 0.356347 0.11455
H_ H_ 0.592146 0.925822 0.464351 0.11455
H_ H_ 0.589866 0.834536 0.458412 0.11455
H_ H_ 0.659271 0.846385 0.377078 0.11455
H_ H_ 0.586535 0.601035 0.4632 0.11455
H_ H_ 0.544854 0.592891 0.0141122 0.11455
H_ H_ 0.583011 0.631927 0.0541082 0.11455
H_ H_ 0.692416 0.743054 0.474267 0.11455
H_ H_ 0.712886 0.806542 0.0153834 0.11455
H_ H_ 0.685196 0.788174 0.0621018 0.11455
H_ H_ 0.50293 0.709005 0.125943 0.11455
H_ H_ 0.488857 0.680949 0.174673 0.11455
H_ H_ 0.753613 0.663755 0.137584 0.11455
H_ H_ 0.743043 0.653867 0.18633 0.11455
H_ H_ 0.564155 0.57725 0.251868 0.11455
H_ H_ 0.54941 0.554701 0.30096 0.11455
H_ H_ 0.573404 0.612757 0.340937 0.11455
H_ H_ 0.650897 0.737028 0.255503 0.11455
H_ H_ 0.694481 0.781025 0.295318 0.11455
H_ H_ 0.685006 0.751978 0.344994 0.11455
H_ H_ 0.688196 0.793941 0.192888 0.11455
H_ H_ 0.623397 0.834101 0.0991699 0.11455
H_ H_ 0.713902 0.838046 0.1046 0.11455
H_ H_ 0.606922 0.78885 0.212934 0.11455
H_ H_ 0.512042 0.802297 0.207081 0.11455
H_ H_ 0.538375 0.844531 0.11824 0.11455
H_ H_ 0.877318 0.978301 0.190219 0.11455
H_ H_ 0.906437 0.560182 0.102227 0.11455
H_ H_ 0.860754 0.966085 0.0985617 0.11455
H_ H_ 0.825833 0.564757 0.213914 0.11455
H_ H_ 0.825801 0.65793 0.208503 0.11455
H_ H_ 0.906425 0.643433 0.128141 0.11455
H_ H_ 0.911383 0.893315 0.215884 0.11455
H_ H_ 0.923029 0.92324 0.264177 0.11455
H_ H_ 0.886837 0.87965 0.306213 0.11455
H_ H_ 0.796463 0.759448 0.225288 0.11455
H_ H_ 0.773593 0.699886 0.263676 0.11455
H_ H_ 0.787406 0.722273 0.313834 0.11455
H_ H_ 0.979505 0.778025 0.373145 0.11455
H_ H_ -0.005403999999999964 0.786405 0.42427 0.11455
H_ H_ 0.742258 0.862156 0.387177 0.11455
H_ H_ 0.746371 0.859233 0.43963 0.11455
H_ H_ 0.926648 0.903004 0.497338 0.11455
H_ H_ 0.933626 0.927219 0.0431585 0.11455
H_ H_ 0.922951 0.870558 0.0847309 0.11455
H_ H_ 0.834986 0.73598 0.00735283 0.11455
H_ H_ 0.800473 0.691804 0.0517218 0.11455
H_ H_ 0.827767 0.721504 0.0996372 0.11455
C_ C_ 0.73224 0.674702 0.405471 0.68181
C_ C_ 0.788629 0.673535 0.40146 -0.05681
C_ C_ 0.823524 0.674295 0.424425 -0.08735
C_ C_ 0.876024 0.666798 0.419414 -0.05681
C_ C_ 0.894843 0.665563 0.391178 -0.05681
C_ C_ 0.861503 0.663832 0.368054 -0.08735
C_ C_ 0.808734 0.666587 0.373359 -0.08735
C_ C_ 0.910409 0.665407 0.442887 -0.08735
C_ C_ 0.963913 0.663819 0.437995 -0.08735
C_ C_ 0.983159 0.664731 0.409236 -0.05681
C_ C_ 0.948502 0.662862 0.386052 -0.08735
C_ C_ 0.631188 0.777653 0.413717 0.68181
C_ C_ 0.639239 0.580245 0.403569 0.68181
C_ C_ 0.642531 0.524187 0.401868 -0.05681
C_ C_ 0.625853 0.993817 0.424949 -0.08735
C_ C_ 0.622926 0.940582 0.422424 -0.05681
C_ C_ 0.64373 0.917551 0.397359 -0.05681
C_ C_ 0.664501 0.948057 0.376283 -0.08735
C_ C_ 0.660772 0.99938498 0.37782 -0.08735
C_ C_ 0.606591 0.910325 0.44476 -0.08735
C_ C_ 0.605896 0.85673 0.440993 -0.08735
C_ C_ 0.626212 0.834509 0.417037 -0.05681
C_ C_ 0.645113 0.865171 0.395582 -0.08735
C_ C_ 0.534835 0.680402 0.407399 0.68181
C_ C_ 0.602858 0.621956 0.481679 0.1947
C_ C_ 0.572313 0.624494 0.0111726 -0.08735
C_ C_ 0.598171 0.6433 0.0344948 -0.08735
C_ C_ 0.628832 0.685382 0.0301325 -0.05681
C_ C_ 0.644783 0.699073 1.0010662 0.18498
C_ C_ 0.680675 0.732149 0.495927 -0.08735
C_ C_ 0.68872 0.773237 0.0194 -0.08735
C_ C_ 0.676335 0.759785 0.0473454 -0.08735
C_ C_ 0.645307 0.716648 0.0532121 0.18498
C_ C_ 0.677935 0.683535 0.098463 0.44287
C_ C_ 0.591401 0.701954 0.094982 0.44287
C_ C_ 0.583539 0.698094 0.124324 -0.05681
C_ C_ 0.534529 0.697313 0.136593 -0.08735
C_ C_ 0.527702 0.682735 0.165488 -0.08735
C_ C_ 0.572065 0.675502 0.183535 -0.05681
C_ C_ 0.621065 0.678964 0.171423 -0.05681
C_ C_ 0.625778 0.685085 0.141309 -0.05681
C_ C_ 0.671997 0.675664 0.12796 -0.05681
C_ C_ 0.713764 0.667038 0.14496 -0.08735
C_ C_ 0.7102 0.665103 0.174167 -0.08735
C_ C_ 0.661977 0.666871 0.187443 -0.05681
C_ C_ 0.655517 0.65461 0.21637 0.44287
C_ C_ 0.567826 0.666279 0.212781 0.44287
C_ C_ 0.603571 0.644861 0.259703 0.18498
C_ C_ 0.584367 0.597498 0.267832 -0.08735
C_ C_ 0.566846 0.589831 0.296267 -0.08735
C_ C_ 0.582662 0.621001 0.319086 -0.08735
C_ C_ 0.614803 0.663896 0.312277 0.18498
C_ C_ 0.625174 0.675463 0.282215 -0.05681
C_ C_ 0.651291 0.721039 0.27684 -0.08735
C_ C_ 0.672363 0.748674 0.29955 -0.08735
C_ C_ 0.66915 0.730509 0.327283 0.1947
C_ C_ 0.766833 0.809147 0.153568 0.68181
C_ C_ 0.710591 0.812087 0.149963 -0.05681
C_ C_ 0.676356 0.801648 0.172607 -0.08735
C_ C_ 0.623072 0.810831 0.168834 -0.05681
C_ C_ 0.605184 0.825879 0.142703 -0.05681
C_ C_ 0.639384 0.830234 0.119825 -0.08735
C_ C_ 0.690714 0.826545 0.123123 -0.08735
C_ C_ 0.591592 0.803647 0.192929 -0.08735
C_ C_ 0.53874 0.8097 0.189742 -0.08735
C_ C_ 0.518752 0.818789 0.161798 -0.05681
C_ C_ 0.552514 0.829722 0.139072 -0.08735
C_ C_ 0.866887 0.712613 0.164981 0.68181
C_ C_ 0.865828 0.910233 0.149425 0.68181
C_ C_ 0.866373 0.965284 0.144616 -0.05681
C_ C_ 0.849802 0.497324 0.169468 -0.08735
C_ C_ 0.85731 0.550627 0.169827 -0.05681
C_ C_ 0.883771 0.57258 0.146501 -0.05681
C_ C_ 0.892663 0.541784 0.121767 -0.08735
C_ C_ 0.858884 0.987869 0.117301 -0.08735
C_ C_ 0.841314 0.580312 0.194543 -0.08735
C_ C_ 0.845958 0.634951 0.193603 -0.08735
C_ C_ 0.870021 0.657539 0.16908 -0.05681
C_ C_ 0.887883 0.626263 0.146384 -0.08735
C_ C_ 0.965216 0.81353 0.158034 0.68181
C_ C_ 0.896117 0.871079 0.233492 0.1947
C_ C_ 0.900126 0.890503 0.260957 -0.08735
C_ C_ 0.881436 0.865041 0.284074 -0.08735
C_ C_ 0.853851 0.821151 0.279884 -0.05681
C_ C_ 0.840914 0.80956 0.250723 0.18498
C_ C_ 0.809922 0.766785 0.245916 -0.08735
C_ C_ 0.795826 0.733871 0.267628 -0.08735
C_ C_ 0.804738 0.746655 0.295944 -0.08735
C_ C_ 0.833996 0.790344 0.302382 0.18498
C_ C_ 0.807468 0.81597 0.349341 0.44287
C_ C_ 0.89463 0.795997 0.342967 0.44287
C_ C_ 0.901313 0.801038 0.37304 -0.05681
C_ C_ 0.948201 0.7883 0.386952 -0.08735
C_ C_ 0.955048 0.791854 0.416517 -0.08735
C_ C_ 0.911378 0.800393 0.43481 -0.05681
C_ C_ 0.865192 0.814848 0.42144 -0.05681
C_ C_ 0.861041 0.816753 0.390328 -0.05681
C_ C_ 0.81531 0.831254 0.377641 -0.05681
C_ C_ 0.775141 0.848652 0.39583 -0.08735
C_ C_ 0.779205 0.848631 0.425523 -0.08735
C_ C_ 0.825025 0.834191 0.438828 -0.05681
C_ C_ 0.828024 0.831212 0.468535 0.44287
C_ C_ 0.915084 0.805089 0.465441 0.44287
C_ C_ 0.880693 0.829529 0.00865512 0.18498
C_ C_ 0.904278 0.877166 0.0133379 -0.08735
C_ C_ 0.915192 0.890423 0.0406772 -0.08735
C_ C_ 0.906942 0.859706 0.0641024 -0.08735
C_ C_ 0.881905 0.812924 0.0607847 0.18498
C_ C_ 0.868647 0.797272 0.0325093 -0.05681
C_ C_ 0.842804 0.751305 0.0296228 -0.08735
C_ C_ 0.82542 0.723877 0.054081 -0.08735
C_ C_ 0.839971 0.740679 0.0809802 0.1947
N_ N_ 0.635575 0.660798 0.477003 -0.29468
N_ N_ 0.638244 0.700708 0.0827857 -0.17154
N_ N_ 0.60987 0.65187 0.228599 -0.17154
N_ N_ 0.639033 0.689509 0.333692 -0.29468
N_ N_ 0.864166 0.831292 0.22785 -0.29468
N_ N_ 0.846596 0.80173 0.332143 -0.17154
N_ N_ 0.87311 0.81857 0.481631 -0.17154
N_ N_ 0.863324 0.786928 0.0843035 -0.29468
O_ O_ 0.714271 0.683175 0.430277 -0.58347
O_ O_ 0.703616 0.677613 0.384394 -0.58347
O_ O_ 0.633043 0.75303 0.436676 -0.58347
O_ O_ 0.62752 0.756715 0.389445 -0.58347
O_ O_ 0.645102 0.603545 0.426284 -0.58347
O_ O_ 0.62931 0.605677 0.381007 -0.58347
O_ O_ 0.564805 0.679858 0.429717 -0.58347
O_ O_ 0.552827 0.690649 0.383237 -0.58347
O_ O_ 0.552396 0.713042 0.0776606 -0.46727
O_ O_ 0.722656 0.677449 0.0872354 -0.46727
O_ O_ 0.523782 0.668661 0.224481 -0.46727
O_ O_ 0.697878 0.648548 0.230491 -0.46727
O_ O_ 0.787162 0.809441 0.177901 -0.58347
O_ O_ 0.793645 0.798735 0.131952 -0.58347
O_ O_ 0.869238 0.739552 0.186843 -0.58347
O_ O_ 0.867633 0.734428 0.139891 -0.58347
O_ O_ 0.861807 0.89305 0.174391 -0.58347
O_ O_ 0.866274 0.879652 0.127501 -0.58347
O_ O_ 0.937313 0.819083 0.180308 -0.58347
O_ O_ 0.94346 0.808613 0.13383 -0.58347
O_ O_ 0.93358 0.784153 0.326646 -0.46727
O_ O_ 0.759734 0.815594 0.338947 -0.46727
O_ O_ 0.95444 0.78527 0.479287 -0.46727
O_ O_ 0.789359 0.837948 0.48524 -0.46727
Zn Zn 0.618232 0.687064 0.881971 0.90689
Zn Zn 0.628488 0.68791 0.929304 0.90689
Zn Zn 0.865919 0.817359 0.63377 0.90689
Zn Zn 0.85735 0.821547 0.679935 0.90689
H_ H_ 0.793912 0.683599 0.94738 0.11455
H_ H_ 0.864467 0.674105 0.850367 0.11455
H_ H_ 0.774713 0.69767 0.85739 0.11455
H_ H_ 0.881415 0.673558 0.969984 0.11455
H_ H_ 0.971951 0.678985 0.960564 0.11455
H_ H_ 0.95107 0.671474 0.871162 0.11455
H_ H_ 0.666022 0.519935 0.939925 0.11455
H_ H_ 0.676716 0.93822 0.852469 0.11455
H_ H_ 0.591555 0.528682 0.857919 0.11455
H_ H_ 0.580314 0.936661 0.96065 0.11455
H_ H_ 0.570605 0.844296 0.955994 0.11455
H_ H_ 0.642713 0.852911 0.873999 0.11455
H_ H_ 0.569984 0.616431 0.965918 0.11455
H_ H_ 0.565482 0.576058 0.514221 0.11455
H_ H_ 0.603141 0.617585 0.554668 0.11455
H_ H_ 0.685519 0.7528 0.97626 0.11455
H_ H_ 0.718975 0.797936 0.513716 0.11455
H_ H_ 0.683933 0.781207 0.561238 0.11455
H_ H_ 0.501276 0.711159 0.618785 0.11455
H_ H_ 0.490244 0.696901 0.671895 0.11455
H_ H_ 0.754331 0.678872 0.640737 0.11455
H_ H_ 0.737855 0.669281 0.69141 0.11455
H_ H_ 0.547915 0.59517 0.750225 0.11455
H_ H_ 0.54137 0.564395 0.79796 0.11455
H_ H_ 0.567093 0.620253 0.83913 0.11455
H_ H_ 0.645942 0.75289 0.755877 0.11455
H_ H_ 0.688915 0.794522 0.794824 0.11455
H_ H_ 0.676295 0.762205 0.846078 0.11455
H_ H_ 0.685405 0.820415 0.699183 0.11455
H_ H_ 0.623796 0.813288 0.601142 0.11455
H_ H_ 0.710757 0.818833 0.607495 0.11455
H_ H_ 0.59308 0.813838 0.716206 0.11455
H_ H_ 0.506198 0.806209 0.706451 0.11455
H_ H_ 0.534891 0.835408 0.619193 0.11455
H_ H_ 0.865592 0.987066 0.693568 0.11455
H_ H_ 0.843102 0.567952 0.599312 0.11455
H_ H_ 0.872063 0.973636 0.601388 0.11455
H_ H_ 0.918542 0.57119 0.709682 0.11455
H_ H_ 0.905689 0.658899 0.709687 0.11455
H_ H_ 0.855912 0.656512 0.62103 0.11455
H_ H_ 0.926309 0.882893 0.716687 0.11455
H_ H_ 0.941461 0.913371 0.766318 0.11455
H_ H_ 0.8878 0.880375 0.805647 0.11455
H_ H_ 0.810356 0.7496 0.723889 0.11455
H_ H_ 0.75158 0.721545 0.760795 0.11455
H_ H_ 0.779118 0.731787 0.812382 0.11455
H_ H_ 0.975641 0.789149 0.871692 0.11455
H_ H_ 0.986609 0.805173 0.922916 0.11455
H_ H_ 0.728566 0.85291 0.886601 0.11455
H_ H_ 0.744946 0.87138 0.938225 0.11455
H_ H_ 0.904412 0.906983 0.997774 0.11455
H_ H_ 0.950767 0.923086 0.546593 0.11455
H_ H_ 0.926259 0.870399 0.587457 0.11455
H_ H_ 0.823614 0.753219 0.510869 0.11455
H_ H_ 0.792882 0.711281 0.554094 0.11455
H_ H_ 0.813671 0.740968 0.601787 0.11455
C_ C_ 0.722193 0.68798 0.906627 0.68181
C_ C_ 0.778607 0.693455 0.903575 -0.05681
C_ C_ 0.809391 0.682236 0.926532 -0.08735
C_ C_ 0.863185 0.682615 0.923613 -0.05681
C_ C_ 0.883358 0.683298 0.896499 -0.05681
C_ C_ 0.850349 0.684235 0.872725 -0.08735
C_ C_ 0.798104 0.691079 0.875717 -0.08735
C_ C_ 0.895791 0.673694 0.947411 -0.08735
C_ C_ 0.947395 0.674577 0.94361 -0.08735
C_ C_ 0.969664 0.67255 0.916681 -0.05681
C_ C_ 0.937056 0.678716 0.892671 -0.08735
C_ C_ 0.612084 0.785858 0.912181 0.68181
C_ C_ 0.628313 0.587524 0.901985 0.68181
C_ C_ 0.622925 0.531593 0.900463 -0.05681
C_ C_ 0.612051 0.00297776 0.918592 -0.08735
C_ C_ 0.612376 0.951316 0.917832 -0.05681
C_ C_ 0.632965 0.926324 0.892796 -0.05681
C_ C_ 0.660441 0.956207 0.87163 -0.08735
C_ C_ 0.66585 0.00718192 0.875351 -0.08735
C_ C_ 0.596441 0.919797 0.941614 -0.08735
C_ C_ 0.590472 0.866537 0.93884 -0.08735
C_ C_ 0.609808 0.843112 0.913836 -0.05681
C_ C_ 0.62864 0.8733 0.891645 -0.08735
C_ C_ 0.526454 0.676968 0.906911 0.68181
C_ C_ 0.589078 0.636052 0.982807 0.1947
C_ C_ 0.589772 0.608025 0.509918 -0.08735
C_ C_ 0.613017 0.632049 0.532961 -0.08735
C_ C_ 0.637486 0.676461 0.528609 -0.05681
C_ C_ 0.648467 0.691043 0.499521 0.18498
C_ C_ 0.673242 0.741171 0.996699 -0.08735
C_ C_ 0.691102 0.766992 0.517463 -0.08735
C_ C_ 0.675795 0.753998 0.544513 -0.08735
C_ C_ 0.651253 0.710419 0.551282 0.18498
C_ C_ 0.679563 0.689543 0.599195 0.44287
C_ C_ 0.592071 0.707297 0.592388 0.44287
C_ C_ 0.582406 0.695333 0.621143 -0.05681
C_ C_ 0.533848 0.699153 0.632282 -0.08735
C_ C_ 0.526088 0.69046 0.661843 -0.08735
C_ C_ 0.567456 0.687471 0.680877 -0.05681
C_ C_ 0.615248 0.684147 0.670237 -0.05681
C_ C_ 0.622795 0.688474 0.640074 -0.05681
C_ C_ 0.673177 0.68989 0.629126 -0.05681
C_ C_ 0.713416 0.678095 0.648284 -0.08735
C_ C_ 0.705925 0.671196 0.677009 -0.08735
C_ C_ 0.656741 0.675284 0.688276 -0.05681
C_ C_ 0.648604 0.668947 0.71757 0.44287
C_ C_ 0.560668 0.684941 0.711337 0.44287
C_ C_ 0.59117 0.662358 0.760026 0.18498
C_ C_ 0.563158 0.617961 0.766557 -0.08735
C_ C_ 0.557952 0.601449 0.794515 -0.08735
C_ C_ 0.572366 0.633954 0.817981 -0.08735
C_ C_ 0.600866 0.678817 0.81157 0.18498
C_ C_ 0.609405 0.693745 0.783127 -0.05681
C_ C_ 0.63874 0.737627 0.777699 -0.08735
C_ C_ 0.663879 0.761936 0.799748 -0.08735
C_ C_ 0.655235 0.74551 0.828283 0.1947
C_ C_ 0.761007 0.815568 0.658539 0.68181
C_ C_ 0.704954 0.81373 0.65393 -0.05681
C_ C_ 0.671203 0.815514 0.677479 -0.08735
C_ C_ 0.619126 0.823108 0.672212 -0.05681
C_ C_ 0.601808 0.821123 0.644059 -0.05681
C_ C_ 0.636281 0.814692 0.622249 -0.08735
C_ C_ 0.686303 0.82187 0.625948 -0.08735
C_ C_ 0.581715 0.81925 0.694078 -0.08735
C_ C_ 0.530666 0.816447 0.688732 -0.08735
C_ C_ 0.512902 0.821193 0.661015 -0.05681
C_ C_ 0.548744 0.824953 0.639615 -0.08735
C_ C_ 0.874433 0.722388 0.663365 0.68181
C_ C_ 0.862276 0.916764 0.651258 0.68181
C_ C_ 0.868245 0.972687 0.648762 -0.05681
C_ C_ 0.891346 0.504784 0.668832 -0.08735
C_ C_ 0.892018 0.558773 0.66655 -0.05681
C_ C_ 0.875422 0.582711 0.641362 -0.05681
C_ C_ 0.85897 0.55199 0.618546 -0.08735
C_ C_ 0.868685 0.996328 0.621361 -0.08735
C_ C_ 0.906054 0.589348 0.690249 -0.08735
C_ C_ 0.895571 0.63989 0.690247 -0.08735
C_ C_ 0.877001 0.665011 0.665207 -0.05681
C_ C_ 0.872041 0.635726 0.639623 -0.08735
C_ C_ 0.961103 0.826832 0.657062 0.68181
C_ C_ 0.902607 0.868924 0.733392 0.1947
C_ C_ 0.91103 0.886307 0.761463 -0.08735
C_ C_ 0.880254 0.866859 0.783954 -0.08735
C_ C_ 0.848283 0.823556 0.778383 -0.05681
C_ C_ 0.84277 0.808174 0.749855 0.18498
C_ C_ 0.809426 0.767754 0.743822 -0.08735
C_ C_ 0.787873 0.740636 0.767234 -0.08735
C_ C_ 0.799436 0.751256 0.795723 -0.08735
C_ C_ 0.830608 0.793523 0.802459 0.18498
C_ C_ 0.798683 0.825295 0.848118 0.44287
C_ C_ 0.884508 0.800081 0.842727 0.44287
C_ C_ 0.894758 0.808543 0.872383 -0.05681
C_ C_ 0.942503 0.802692 0.884075 -0.08735
C_ C_ 0.948344 0.802517 0.912895 -0.08735
C_ C_ 0.908006 0.812791 0.931451 -0.05681
C_ C_ 0.86028 0.822901 0.920261 -0.05681
C_ C_ 0.853922 0.822108 0.889745 -0.05681
C_ C_ 0.806457 0.83288 0.877544 -0.05681
C_ C_ 0.767394 0.848708 0.896253 -0.08735
C_ C_ 0.774838 0.853381 0.925546 -0.08735
C_ C_ 0.821127 0.835965 0.937302 -0.05681
C_ C_ 0.827504 0.83212 0.967637 0.44287
C_ C_ 0.911336 0.807325 0.961997 0.44287
C_ C_ 0.88165 0.836299 0.510968 0.18498
C_ C_ 0.912169 0.879836 0.51551 -0.08735
C_ C_ 0.927289 0.890907 0.54326 -0.08735
C_ C_ 0.914067 0.861494 0.565974 -0.08735
C_ C_ 0.881537 0.821363 0.562624 0.18498
C_ C_ 0.864759 0.809074 0.535065 -0.05681
C_ C_ 0.833932 0.766705 0.530921 -0.08735
C_ C_ 0.817668 0.741972 0.555626 -0.08735
C_ C_ 0.828257 0.759254 0.582672 0.1947
N_ N_ 0.623591 0.674196 0.977377 -0.29468
N_ N_ 0.640558 0.698977 0.581517 -0.17154
N_ N_ 0.60133 0.674849 0.729409 -0.17154
N_ N_ 0.623967 0.706286 0.833846 -0.29468
N_ N_ 0.870396 0.830071 0.727918 -0.29468
N_ N_ 0.837179 0.804674 0.832174 -0.17154
N_ N_ 0.871866 0.816216 0.979877 -0.17154
N_ N_ 0.859377 0.799441 0.586292 -0.29468
O_ O_ 0.703458 0.685679 0.930956 -0.58347
O_ O_ 0.694136 0.692798 0.884435 -0.58347
O_ O_ 0.620579 0.761741 0.934694 -0.58347
O_ O_ 0.612071 0.76354 0.887462 -0.58347
O_ O_ 0.634239 0.607788 0.925945 -0.58347
O_ O_ 0.626084 0.614082 0.879375 -0.58347
O_ O_ 0.553891 0.679164 0.928812 -0.58347
O_ O_ 0.543543 0.686577 0.882932 -0.58347
O_ O_ 0.555895 0.718221 0.574362 -0.46727
O_ O_ 0.725028 0.685771 0.589491 -0.46727
O_ O_ 0.516731 0.693942 0.72178 -0.46727
O_ O_ 0.688866 0.659103 0.733953 -0.46727
O_ O_ 0.778751 0.820741 0.683576 -0.58347
O_ O_ 0.791614 0.80466 0.637885 -0.58347
O_ O_ 0.860049 0.746477 0.685264 -0.58347
O_ O_ 0.881201 0.744108 0.641172 -0.58347
O_ O_ 0.858512 0.897308 0.675257 -0.58347
O_ O_ 0.856101 0.891156 0.629208 -0.58347
O_ O_ 0.93171 0.828208 0.678345 -0.58347
O_ O_ 0.944344 0.823553 0.631912 -0.58347
O_ O_ 0.919946 0.783735 0.825787 -0.46727
O_ O_ 0.757141 0.83471 0.835401 -0.46727
O_ O_ 0.954345 0.792772 0.972724 -0.46727
O_ O_ 0.787566 0.83857 0.984075 -0.46727
_cell_length_a 26.376
_cell_length_b 26.400000238300095
_cell_length_c 46.67800035477134
_cell_angle_alpha 90.00700052986613
_cell_angle_beta 89.99899961309502
_cell_angle_gamma 90.45000003183146
_symmetry_space_group_name_H-M         'P 1'
_symmetry_Int_Tables_number            1
loop_
_symmetry_equiv_pos_as_xyz
   'x, y, z'
                         
loop_
_atom_site_label
_atom_site_type_symbol
_atom_site_fract_x 
_atom_site_fract_y
_atom_site_fract_z
_atom_site_charge
Zn Zn 0.143014 0.186267 0.381872 0.90689
Zn Zn 0.143337 0.179669 0.430431 0.90689
Zn Zn 0.374014 0.312467 0.135499 0.90689
Zn Zn 0.364639 0.318695 0.186067 0.90689
H_ H_ 0.316179 0.200314 0.445885 0.11455
H_ H_ 0.385925 0.156794 0.349679 0.11455
H_ H_ 0.294978 0.16683 0.35469 0.11455
H_ H_ 0.400213 0.193479 0.466551 0.11455
H_ H_ 0.487839 0.181357 0.461184 0.11455
H_ H_ 0.469195 0.146541 0.371899 0.11455
H_ H_ 0.138334 0.0102255 0.44345 0.11455
H_ H_ 0.149721 0.437624 0.348749 0.11455
H_ H_ 0.14906 0.0267478 0.350955 0.11455
H_ H_ 0.144307 0.432218 0.467167 0.11455
H_ H_ 0.133104 0.338232 0.462271 0.11455
H_ H_ 0.133634 0.3531 0.369568 0.11455
H_ H_ 0.0856059 0.109111 0.464322 0.11455
H_ H_ 0.0575463 0.0760928 0.00840789 0.11455
H_ H_ 0.0782815 0.129047 0.0501233 0.11455
H_ H_ 0.200396 0.240378 0.468411 0.11455
H_ H_ 0.226423 0.290949 0.0150604 0.11455
H_ H_ 0.19047 0.275981 0.0624424 0.11455
H_ H_ 0.0159234 0.21147 0.124666 0.11455
H_ H_ 0.00457445 0.196362 0.179012 0.11455
H_ H_ 0.264855 0.176296 0.133652 0.11455
H_ H_ 0.25766 0.169986 0.186173 0.11455
H_ H_ 0.0953792 0.0791879 0.252002 0.11455
H_ H_ 0.0748234 0.0584713 0.302936 0.11455
H_ H_ 0.08802 0.120752 0.340466 0.11455
H_ H_ 0.174585 0.24178 0.253246 0.11455
H_ H_ 0.21201 0.290382 0.295345 0.11455
H_ H_ 0.199228 0.261402 0.343764 0.11455
H_ H_ 0.190227 0.302756 0.198863 0.11455
H_ H_ 0.134511 0.325147 0.0995364 0.11455
H_ H_ 0.224761 0.307971 0.107382 0.11455
H_ H_ 0.107272 0.312482 0.217211 0.11455
H_ H_ 0.0166423 0.331309 0.204656 0.11455
H_ H_ 0.0430398 0.330318 0.113786 0.11455
H_ H_ 0.376872 0.483476 0.199773 0.11455
H_ H_ 0.387937 0.0645314 0.10121 0.11455
H_ H_ 0.393865 0.466713 0.108167 0.11455
H_ H_ 0.352572 0.0675289 0.218432 0.11455
H_ H_ 0.362978 0.1612 0.213975 0.11455
H_ H_ 0.37921 0.148101 0.12357 0.11455
H_ H_ 0.427782 0.390568 0.217415 0.11455
H_ H_ 0.433263 0.425181 0.265008 0.11455
H_ H_ 0.414663 0.371215 0.307772 0.11455
H_ H_ 0.31079 0.254566 0.230234 0.11455
H_ H_ 0.291408 0.195495 0.268234 0.11455
H_ H_ 0.313436 0.223374 0.320761 0.11455
H_ H_ 0.49909 0.291969 0.375285 0.11455
H_ H_ 0.508142 0.294433 0.427931 0.11455
H_ H_ 0.253215 0.344043 0.390253 0.11455
H_ H_ 0.263867 0.353151 0.443017 0.11455
H_ H_ 0.462261 0.404045 0.499152 0.11455
H_ H_ 0.445371 0.433259 0.0489128 0.11455
H_ H_ 0.426996 0.37699 0.0921861 0.11455
H_ H_ 0.35906 0.236403 0.0148535 0.11455
H_ H_ 0.315291 0.194599 0.0578527 0.11455
H_ H_ 0.312875 0.245283 0.102098 0.11455
C_ C_ 0.242075 0.181609 0.404761 0.68181
C_ C_ 0.298217 0.17948 0.401246 -0.05681
C_ C_ 0.329026 0.185741 0.425047 -0.08735
C_ C_ 0.38218 0.177703 0.421861 -0.05681
C_ C_ 0.402529 0.169943 0.394066 -0.05681
C_ C_ 0.370381 0.160585 0.371394 -0.08735
C_ C_ 0.318032 0.168732 0.374305 -0.08735
C_ C_ 0.414777 0.18465 0.444828 -0.08735
C_ C_ 0.46598 0.182367 0.441697 -0.08735
C_ C_ 0.488074 0.172056 0.414381 -0.05681
C_ C_ 0.455044 0.162991 0.391586 -0.08735
C_ C_ 0.141685 0.281793 0.410779 0.68181
C_ C_ 0.145249 0.0823906 0.402631 0.68181
C_ C_ 0.143562 0.0253511 0.398947 -0.05681
C_ C_ 0.143296 0.497307 0.424224 -0.08735
C_ C_ 0.142208 0.444876 0.421255 -0.05681
C_ C_ 0.142285 0.424447 0.393482 -0.05681
C_ C_ 0.141261 0.454367 0.369698 -0.08735
C_ C_ 0.138233 0.506744 0.371603 -0.08735
C_ C_ 0.141361 0.413916 0.445427 -0.08735
C_ C_ 0.139048 0.360646 0.442693 -0.08735
C_ C_ 0.135399 0.338053 0.414782 -0.05681
C_ C_ 0.138428 0.370324 0.390861 -0.08735
C_ C_ 0.0426591 0.181569 0.406618 0.68181
C_ C_ 0.110145 0.12435 0.481153 0.1947
C_ C_ 0.0832655 0.108169 0.00473621 -0.08735
C_ C_ 0.0973035 0.137996 0.029187 -0.08735
C_ C_ 0.133807 0.178648 0.0265792 -0.05681
C_ C_ 0.149864 0.192016 0.99897 0.18498
C_ C_ 0.189037 0.236838 0.49024 -0.08735
C_ C_ 0.199377 0.261252 0.0188455 -0.08735
C_ C_ 0.181677 0.248792 0.0456353 -0.08735
C_ C_ 0.148544 0.208358 0.0504779 0.18498
C_ C_ 0.185496 0.175721 0.0963917 0.44287
C_ C_ 0.0948792 0.192785 0.0934513 0.44287
C_ C_ 0.0920787 0.190702 0.124087 -0.05681
C_ C_ 0.047178 0.201049 0.138515 -0.08735
C_ C_ 0.0408935 0.195602 0.168728 -0.08735
C_ C_ 0.0842563 0.182196 0.183566 -0.05681
C_ C_ 0.13245 0.18022 0.169713 -0.05681
C_ C_ 0.13598 0.178516 0.13975 -0.05681
C_ C_ 0.182619 0.172179 0.126204 -0.05681
C_ C_ 0.227941 0.170056 0.142295 -0.08735
C_ C_ 0.224413 0.168876 0.172797 -0.08735
C_ C_ 0.176464 0.169096 0.186128 -0.05681
C_ C_ 0.170645 0.15815 0.215541 0.44287
C_ C_ 0.0831509 0.176768 0.214228 0.44287
C_ C_ 0.123877 0.152135 0.26025 0.18498
C_ C_ 0.107368 0.103764 0.268207 -0.08735
C_ C_ 0.0944166 0.0917963 0.296353 -0.08735
C_ C_ 0.107921 0.125293 0.318579 -0.08735
C_ C_ 0.131709 0.1724 0.312121 0.18498
C_ C_ 0.137988 0.185976 0.282503 -0.05681
C_ C_ 0.166593 0.230203 0.27565 -0.08735
C_ C_ 0.18882 0.257238 0.298937 -0.08735
C_ C_ 0.180494 0.241356 0.326717 0.1947
C_ C_ 0.271419 0.306555 0.161977 0.68181
C_ C_ 0.215965 0.305541 0.155296 -0.05681
C_ C_ 0.179168 0.309833 0.176838 -0.08735
C_ C_ 0.128278 0.31908 0.171017 -0.05681
C_ C_ 0.109885 0.321679 0.143042 -0.05681
C_ C_ 0.144626 0.312352 0.120789 -0.08735
C_ C_ 0.196353 0.304086 0.125544 -0.08735
C_ C_ 0.0955504 0.3196 0.194476 -0.08735
C_ C_ 0.0430352 0.327135 0.187967 -0.08735
C_ C_ 0.0238357 0.326863 0.160177 -0.05681
C_ C_ 0.0582789 0.32828 0.136642 -0.08735
C_ C_ 0.36968 0.215712 0.164569 0.68181
C_ C_ 0.372375 0.414521 0.156198 0.68181
C_ C_ 0.388478 0.467576 0.154105 -0.05681
C_ C_ 0.356827 -0.00037200000000003897 0.1738 -0.08735
C_ C_ 0.361591 0.0527407 0.172687 -0.05681
C_ C_ 0.369521 0.0758324 0.144953 -0.05681
C_ C_ 0.374593 0.0469309 0.12067 -0.08735
C_ C_ 0.393586 0.490139 0.126885 -0.08735
C_ C_ 0.355423 0.0834325 0.196792 -0.08735
C_ C_ 0.359696 0.13597 0.194593 -0.08735
C_ C_ 0.36932 0.159256 0.168171 -0.05681
C_ C_ 0.372245 0.128751 0.143254 -0.08735
C_ C_ 0.465415 0.310159 0.160544 0.68181
C_ C_ 0.407955 0.371272 0.235871 0.1947
C_ C_ 0.420213 0.386374 0.263131 -0.08735
C_ C_ 0.40208 0.361182 0.287019 -0.08735
C_ C_ 0.371358 0.318942 0.283232 -0.05681
C_ C_ 0.359599 0.303079 0.254158 0.18498
C_ C_ 0.323162 0.262992 0.250775 -0.08735
C_ C_ 0.311009 0.230686 0.273365 -0.08735
C_ C_ 0.320151 0.246911 0.301817 -0.08735
C_ C_ 0.354871 0.286779 0.306583 0.18498
C_ C_ 0.323327 0.318898 0.352045 0.44287
C_ C_ 0.410031 0.295238 0.347212 0.44287
C_ C_ 0.418476 0.305082 0.37586 -0.05681
C_ C_ 0.466171 0.298101 0.388721 -0.08735
C_ C_ 0.471283 0.301837 0.417875 -0.08735
C_ C_ 0.430964 0.318119 0.435189 -0.05681
C_ C_ 0.383708 0.331572 0.42315 -0.05681
C_ C_ 0.377382 0.321358 0.393249 -0.05681
C_ C_ 0.33018 0.326929 0.381381 -0.05681
C_ C_ 0.288921 0.341334 0.398325 -0.08735
C_ C_ 0.29412 0.349938 0.427888 -0.08735
C_ C_ 0.341859 0.343074 0.440173 -0.05681
C_ C_ 0.350369 0.345779 0.470688 0.44287
C_ C_ 0.436565 0.322316 0.465591 0.44287
C_ C_ 0.397116 0.332941 0.0127181 0.18498
C_ C_ 0.419709 0.379117 0.0181276 -0.08735
C_ C_ 0.427331 0.396109 0.0461726 -0.08735
C_ C_ 0.412861 0.36771 0.0698426 -0.08735
C_ C_ 0.388434 0.321242 0.0649661 0.18498
C_ C_ 0.377583 0.304739 0.0364461 -0.05681
C_ C_ 0.356926 0.255474 0.0352636 -0.08735
C_ C_ 0.329988 0.234717 0.0575177 -0.08735
C_ C_ 0.335873 0.256435 0.0850522 0.1947
N_ N_ 0.141881 0.164201 0.476359 -0.29468
N_ N_ 0.143099 0.188549 0.0808 -0.17154
N_ N_ 0.125934 0.16489 0.229379 -0.17154
N_ N_ 0.148993 0.201226 0.33345 -0.29468
N_ N_ 0.376669 0.330234 0.231919 -0.29468
N_ N_ 0.364164 0.303125 0.335333 -0.17154
N_ N_ 0.39687 0.335298 0.482531 -0.17154
N_ N_ 0.369108 0.296898 0.0885687 -0.29468
O_ O_ 0.220928 0.171868 0.42893 -0.58347
O_ O_ 0.217544 0.197339 0.383263 -0.58347
O_ O_ 0.137735 0.252493 0.432335 -0.58347
O_ O_ 0.141479 0.263935 0.385492 -0.58347
O_ O_ 0.140519 0.101154 0.427425 -0.58347
O_ O_ 0.149617 0.110552 0.380729 -0.58347
O_ O_ 0.0701709 0.177399 0.429165 -0.58347
O_ O_ 0.0628124 0.185844 0.382256 -0.58347
O_ O_ 0.055623 0.206829 0.0769043 -0.46727
O_ O_ 0.229784 0.176464 0.08421 -0.46727
O_ O_ 0.0393229 0.179446 0.227996 -0.46727
O_ O_ 0.21221 0.145362 0.230093 -0.46727
O_ O_ 0.288001 0.31646 0.186444 -0.58347
O_ O_ 0.301516 0.300411 0.141579 -0.58347
O_ O_ 0.366909 0.243209 0.18709 -0.58347
O_ O_ 0.381241 0.235256 0.14088 -0.58347
O_ O_ 0.361239 0.395063 0.180258 -0.58347
O_ O_ 0.367722 0.388579 0.13361 -0.58347
O_ O_ 0.436622 0.323354 0.18159 -0.58347
O_ O_ 0.448508 0.309789 0.135189 -0.58347
O_ O_ 0.447567 0.279843 0.330986 -0.46727
O_ O_ 0.278189 0.322836 0.339984 -0.46727
O_ O_ 0.479007 0.306603 0.477937 -0.46727
O_ O_ 0.315272 0.366127 0.48665 -0.46727
Zn Zn 0.127857 0.190251 0.879089 0.90689
Zn Zn 0.140961 0.183472 0.928799 0.90689
Zn Zn 0.382154 0.315426 0.63349 0.90689
Zn Zn 0.366522 0.320965 0.679443 0.90689
H_ H_ 0.30837 0.198101 0.94889 0.11455
H_ H_ 0.374355 0.178908 0.850431 0.11455
H_ H_ 0.286335 0.187442 0.858328 0.11455
H_ H_ 0.392674 0.200303 0.968421 0.11455
H_ H_ 0.48347 0.191401 0.961111 0.11455
H_ H_ 0.461734 0.188862 0.870014 0.11455
H_ H_ 0.129877 0.0189265 0.937737 0.11455
H_ H_ 0.133117 0.440417 0.841575 0.11455
H_ H_ 0.169726 0.0261829 0.849533 0.11455
H_ H_ 0.131707 0.436393 0.958265 0.11455
H_ H_ 0.121186 0.343472 0.956383 0.11455
H_ H_ 0.137739 0.352763 0.864548 0.11455
H_ H_ 0.0847075 0.104422 0.960422 0.11455
H_ H_ 0.0809625 0.0752249 0.512998 0.11455
H_ H_ 0.133445 0.114089 0.554726 0.11455
H_ H_ 0.18972 0.254205 0.975892 0.11455
H_ H_ 0.22265 0.302394 0.504876 0.11455
H_ H_ 0.209158 0.285798 0.555894 0.11455
H_ H_ 0.0266125 0.217255 0.618776 0.11455
H_ H_ 0.0130996 0.200372 0.670416 0.11455
H_ H_ 0.273065 0.164533 0.636425 0.11455
H_ H_ 0.264356 0.161776 0.690538 0.11455
H_ H_ 0.0723583 0.0958806 0.744712 0.11455
H_ H_ 0.0539965 0.0670805 0.794986 0.11455
H_ H_ 0.0832825 0.122167 0.836602 0.11455
H_ H_ 0.166507 0.249259 0.753075 0.11455
H_ H_ 0.211652 0.287572 0.796826 0.11455
H_ H_ 0.182176 0.269887 0.845378 0.11455
H_ H_ 0.205579 0.329697 0.694844 0.11455
H_ H_ 0.137892 0.327525 0.593739 0.11455
H_ H_ 0.228306 0.320758 0.60468 0.11455
H_ H_ 0.118744 0.336543 0.713157 0.11455
H_ H_ 0.0261529 0.344638 0.705697 0.11455
H_ H_ 0.0471868 0.320778 0.616281 0.11455
H_ H_ 0.341532 0.487536 0.692134 0.11455
H_ H_ 0.417556 0.0634597 0.605669 0.11455
H_ H_ 0.386592 0.477359 0.602545 0.11455
H_ H_ 0.344689 0.0793319 0.715004 0.11455
H_ H_ 0.364758 0.166095 0.711555 0.11455
H_ H_ 0.412738 0.153759 0.625986 0.11455
H_ H_ 0.418245 0.403298 0.716846 0.11455
H_ H_ 0.442108 0.424075 0.762536 0.11455
H_ H_ 0.421506 0.36721 0.805103 0.11455
H_ H_ 0.305638 0.260063 0.723225 0.11455
H_ H_ 0.28016 0.205277 0.763153 0.11455
H_ H_ 0.300229 0.225978 0.813147 0.11455
H_ H_ 0.49012 0.313225 0.873745 0.11455
H_ H_ 0.503997 0.309378 0.925361 0.11455
H_ H_ 0.236574 0.315303 0.890688 0.11455
H_ H_ 0.249586 0.319213 0.94232 0.11455
H_ H_ 0.428872 0.403504 0.000158054 0.11455
H_ H_ 0.494202 0.411352 0.550217 0.11455
H_ H_ 0.444392 0.37944 0.589728 0.11455
H_ H_ 0.341893 0.267701 0.509264 0.11455
H_ H_ 0.308202 0.218427 0.550788 0.11455
H_ H_ 0.32695 0.249848 0.599656 0.11455
C_ C_ 0.232087 0.191035 0.906192 0.68181
C_ C_ 0.289205 0.19371 0.903132 -0.05681
C_ C_ 0.322199 0.191717 0.927441 -0.08735
C_ C_ 0.374558 0.192788 0.923163 -0.05681
C_ C_ 0.395423 0.186057 0.895226 -0.05681
C_ C_ 0.362483 0.187787 0.871296 -0.08735
C_ C_ 0.311849 0.192377 0.87586 -0.08735
C_ C_ 0.406101 0.191846 0.947079 -0.08735
C_ C_ 0.45985 0.192184 0.943098 -0.08735
C_ C_ 0.479214 0.190122 0.915108 -0.05681
C_ C_ 0.448024 0.186509 0.891336 -0.08735
C_ C_ 0.13348 0.284733 0.908782 0.68181
C_ C_ 0.146881 0.0876634 0.897343 0.68181
C_ C_ 0.142963 0.0293658 0.894181 -0.05681
C_ C_ 0.132067 0.503101 0.916896 -0.08735
C_ C_ 0.130603 0.448904 0.91405 -0.05681
C_ C_ 0.133037 0.425749 0.887262 -0.05681
C_ C_ 0.129039 0.456846 0.862423 -0.08735
C_ C_ 0.130093 0.511249 0.865227 -0.08735
C_ C_ 0.127907 0.418462 0.938243 -0.08735
C_ C_ 0.127524 0.364928 0.937073 -0.08735
C_ C_ 0.137087 0.340631 0.910305 -0.05681
C_ C_ 0.140257 0.372636 0.884789 -0.08735
C_ C_ 0.0376083 0.175103 0.901372 0.68181
C_ C_ 0.0942764 0.128872 0.97815 0.1947
C_ C_ 0.104239 0.108119 0.510225 -0.08735
C_ C_ 0.129869 0.130883 0.532792 -0.08735
C_ C_ 0.154561 0.178173 0.526451 -0.05681
C_ C_ 0.16069 0.193599 0.498215 0.18498
C_ C_ 0.180256 0.237119 0.995129 -0.08735
C_ C_ 0.204365 0.269402 0.511562 -0.08735
C_ C_ 0.197523 0.25736 0.539868 -0.08735
C_ C_ 0.171123 0.211969 0.547593 0.18498
C_ C_ 0.20206 0.190253 0.5965 0.44287
C_ C_ 0.115235 0.203461 0.589489 0.44287
C_ C_ 0.105085 0.201385 0.620126 -0.05681
C_ C_ 0.0577735 0.20438 0.632432 -0.08735
C_ C_ 0.0503431 0.195449 0.661596 -0.08735
C_ C_ 0.0914878 0.192149 0.681342 -0.05681
C_ C_ 0.140218 0.188969 0.669514 -0.05681
C_ C_ 0.147752 0.193952 0.638255 -0.05681
C_ C_ 0.195694 0.188009 0.626666 -0.05681
C_ C_ 0.236105 0.171257 0.645273 -0.08735
C_ C_ 0.230442 0.17265 0.675187 -0.08735
C_ C_ 0.181654 0.175869 0.687022 -0.05681
C_ C_ 0.174398 0.168566 0.716856 0.44287
C_ C_ 0.0846618 0.187538 0.711508 0.44287
C_ C_ 0.117199 0.159139 0.757566 0.18498
C_ C_ 0.0859486 0.117217 0.76311 -0.08735
C_ C_ 0.078276 0.101302 0.791315 -0.08735
C_ C_ 0.0948133 0.132262 0.815024 -0.08735
C_ C_ 0.12456 0.17501 0.808929 0.18498
C_ C_ 0.135078 0.189164 0.780534 -0.05681
C_ C_ 0.162273 0.234373 0.775396 -0.08735
C_ C_ 0.184888 0.258587 0.79912 -0.08735
C_ C_ 0.172535 0.244481 0.827663 0.1947
C_ C_ 0.276419 0.313008 0.655199 0.68181
C_ C_ 0.220905 0.321384 0.650065 -0.05681
C_ C_ 0.188728 0.327586 0.673559 -0.08735
C_ C_ 0.135679 0.328717 0.668643 -0.05681
C_ C_ 0.116068 0.330522 0.640067 -0.05681
C_ C_ 0.150524 0.328236 0.616623 -0.08735
C_ C_ 0.201315 0.322135 0.621603 -0.08735
C_ C_ 0.101513 0.332281 0.69181 -0.08735
C_ C_ 0.0519 0.342241 0.687962 -0.08735
C_ C_ 0.0290533 0.33089 0.66126 -0.05681
C_ C_ 0.0630061 0.330167 0.636723 -0.08735
C_ C_ 0.380406 0.222611 0.664516 0.68181
C_ C_ 0.368834 0.418042 0.648708 0.68181
C_ C_ 0.367153 0.474659 0.647763 -0.05681
C_ C_ 0.351273 0.0067151 0.671947 -0.08735
C_ C_ 0.361097 0.0604953 0.670788 -0.05681
C_ C_ 0.383961 0.0820012 0.646031 -0.05681
C_ C_ 0.398033 0.0502205 0.623635 -0.08735
C_ C_ 0.375277 0.50011 0.621699 -0.08735
C_ C_ 0.35359 0.0923954 0.694321 -0.08735
C_ C_ 0.367529 0.143439 0.69261 -0.08735
C_ C_ 0.377275 0.1659 0.666349 -0.05681
C_ C_ 0.393238 0.135076 0.643865 -0.08735
C_ C_ 0.471617 0.328636 0.657253 0.68181
C_ C_ 0.40088 0.381251 0.733801 0.1947
C_ C_ 0.414811 0.394586 0.761547 -0.08735
C_ C_ 0.403086 0.361989 0.784271 -0.08735
C_ C_ 0.368312 0.321442 0.779993 -0.05681
C_ C_ 0.35658 0.30769 0.750976 0.18498
C_ C_ 0.324232 0.2661 0.745669 -0.08735
C_ C_ 0.302078 0.24022 0.767244 -0.08735
C_ C_ 0.313672 0.251566 0.796082 -0.08735
C_ C_ 0.347506 0.293965 0.802682 0.18498
C_ C_ 0.314275 0.317642 0.849498 0.44287
C_ C_ 0.401309 0.303423 0.84559 0.44287
C_ C_ 0.410135 0.317097 0.875107 -0.05681
C_ C_ 0.458222 0.31907 0.887587 -0.08735
C_ C_ 0.466261 0.316129 0.916274 -0.08735
C_ C_ 0.423071 0.319578 0.934678 -0.05681
C_ C_ 0.374716 0.320861 0.922991 -0.05681
C_ C_ 0.366701 0.315397 0.892874 -0.05681
C_ C_ 0.318807 0.318661 0.879222 -0.05681
C_ C_ 0.277952 0.318464 0.898297 -0.08735
C_ C_ 0.284057 0.316793 0.928618 -0.08735
C_ C_ 0.332683 0.315187 0.942055 -0.05681
C_ C_ 0.339357 0.317982 0.971774 0.44287
C_ C_ 0.428256 0.314046 0.964962 0.44287
C_ C_ 0.406156 0.348641 0.511896 0.18498
C_ C_ 0.442212 0.385979 0.517635 -0.08735
C_ C_ 0.457841 0.393442 0.545524 -0.08735
C_ C_ 0.43219 0.370466 0.567857 -0.08735
C_ C_ 0.394695 0.33575 0.563214 0.18498
C_ C_ 0.38154 0.323827 0.53452 -0.05681
C_ C_ 0.349368 0.282586 0.530336 -0.08735
C_ C_ 0.333591 0.2499 0.55322 -0.08735
C_ C_ 0.344178 0.266934 0.581021 0.1947
N_ N_ 0.130517 0.166071 0.975424 -0.29468
N_ N_ 0.162474 0.205241 0.578744 -0.17154
N_ N_ 0.125829 0.171541 0.728136 -0.17154
N_ N_ 0.141435 0.205497 0.831529 -0.29468
N_ N_ 0.377026 0.337612 0.728914 -0.29468
N_ N_ 0.354929 0.311849 0.832402 -0.17154
N_ N_ 0.387335 0.317994 0.983164 -0.17154
N_ N_ 0.371718 0.310619 0.585433 -0.29468
O_ O_ 0.21321 0.18784 0.931303 -0.58347
O_ O_ 0.202949 0.198541 0.88403 -0.58347
O_ O_ 0.134548 0.260422 0.932591 -0.58347
O_ O_ 0.112315 0.263278 0.887023 -0.58347
O_ O_ 0.144484 0.108707 0.921425 -0.58347
O_ O_ 0.14399 0.113921 0.874672 -0.58347
O_ O_ 0.0668861 0.179074 0.921687 -0.58347
O_ O_ 0.0542905 0.176168 0.876707 -0.58347
O_ O_ 0.076594 0.210034 0.572716 -0.46727
O_ O_ 0.247782 0.187365 0.58598 -0.46727
O_ O_ 0.0392745 0.184697 0.723636 -0.46727
O_ O_ 0.210856 0.145067 0.731427 -0.46727
O_ O_ 0.293112 0.30695 0.679748 -0.58347
O_ O_ 0.306574 0.317626 0.634615 -0.58347
O_ O_ 0.379221 0.248193 0.687482 -0.58347
O_ O_ 0.385647 0.242639 0.639832 -0.58347
O_ O_ 0.35419 0.395993 0.670368 -0.58347
O_ O_ 0.382806 0.393291 0.627208 -0.58347
O_ O_ 0.4424 0.337715 0.677954 -0.58347
O_ O_ 0.454263 0.314855 0.633052 -0.58347
O_ O_ 0.43525 0.276085 0.830855 -0.46727
O_ O_ 0.269091 0.322905 0.837143 -0.46727
O_ O_ 0.474918 0.319841 0.976357 -0.46727
O_ O_ 0.299719 0.317797 0.987963 -0.46727
Zn Zn 0.131095 0.689369 0.380841 0.90689
Zn Zn 0.140554 0.67955 0.429239 0.90689
Zn Zn 0.367268 0.811527 0.131147 0.90689
Zn Zn 0.36287 0.821717 0.180176 0.90689
H_ H_ 0.308477 0.683664 0.449573 0.11455
H_ H_ 0.369933 0.659868 0.348855 0.11455
H_ H_ 0.28212 0.654484 0.358258 0.11455
H_ H_ 0.394373 0.68291 0.466411 0.11455
H_ H_ 0.48549 0.682775 0.457572 0.11455
H_ H_ 0.457472 0.684961 0.366618 0.11455
H_ H_ 0.147039 0.513941 0.444276 0.11455
H_ H_ 0.130836 0.935297 0.3444 0.11455
H_ H_ 0.139268 0.530945 0.351273 0.11455
H_ H_ 0.110989 0.925336 0.463853 0.11455
H_ H_ 0.096721 0.833365 0.457942 0.11455
H_ H_ 0.122591 0.851767 0.367067 0.11455
H_ H_ 0.0961967 0.598588 0.466869 0.11455
H_ H_ 0.0872725 0.566802 0.0138796 0.11455
H_ H_ 0.126195 0.614344 0.054707 0.11455
H_ H_ 0.175441 0.759108 0.47197 0.11455
H_ H_ 0.209682 0.803005 0.00851085 0.11455
H_ H_ 0.194643 0.782064 0.0582788 0.11455
H_ H_ 0.0201771 0.692776 0.119965 0.11455
H_ H_ 0.0114332 0.680464 0.173734 0.11455
H_ H_ 0.273958 0.659088 0.135508 0.11455
H_ H_ 0.264404 0.664297 0.188163 0.11455
H_ H_ 0.0862091 0.581389 0.24866 0.11455
H_ H_ 0.0558016 0.56288 0.296692 0.11455
H_ H_ 0.075541 0.620862 0.335872 0.11455
H_ H_ 0.169362 0.74773 0.254624 0.11455
H_ H_ 0.193683 0.798714 0.293644 0.11455
H_ H_ 0.179968 0.76762 0.345049 0.11455
H_ H_ 0.192046 0.791706 0.194235 0.11455
H_ H_ 0.129427 0.851282 0.100881 0.11455
H_ H_ 0.216616 0.841858 0.10723 0.11455
H_ H_ 0.103394 0.786824 0.213651 0.11455
H_ H_ 0.0159117 0.801387 0.205485 0.11455
H_ H_ 0.0396046 0.839662 0.115542 0.11455
H_ H_ 0.350189 0.979526 0.194401 0.11455
H_ H_ 0.394029 0.559822 0.101506 0.11455
H_ H_ 0.378843 0.975603 0.102667 0.11455
H_ H_ 0.372095 0.570364 0.221168 0.11455
H_ H_ 0.367858 0.661702 0.213822 0.11455
H_ H_ 0.38967 0.646389 0.123758 0.11455
H_ H_ 0.409984 0.897949 0.215088 0.11455
H_ H_ 0.411977 0.934167 0.266524 0.11455
H_ H_ 0.368946 0.88471 0.304975 0.11455
H_ H_ 0.313641 0.754509 0.223427 0.11455
H_ H_ 0.281967 0.695668 0.265162 0.11455
H_ H_ 0.307814 0.714306 0.312324 0.11455
H_ H_ 0.49339 0.796359 0.373147 0.11455
H_ H_ 0.50104 0.808482 0.425103 0.11455
H_ H_ 0.241589 0.842486 0.385614 0.11455
H_ H_ 0.24893 0.850789 0.437143 0.11455
H_ H_ 0.419208 0.919742 0.500263 0.11455
H_ H_ 0.475873 0.92042 0.0430514 0.11455
H_ H_ 0.432836 0.882382 0.0845173 0.11455
H_ H_ 0.330451 0.762798 0.0049668 0.11455
H_ H_ 0.294439 0.721154 0.0472658 0.11455
H_ H_ 0.326765 0.738569 0.0960861 0.11455
C_ C_ 0.233453 0.688569 0.408549 0.68181
C_ C_ 0.287331 0.675188 0.404067 -0.05681
C_ C_ 0.321861 0.680787 0.427646 -0.08735
C_ C_ 0.373747 0.679062 0.421576 -0.05681
C_ C_ 0.39242 0.676704 0.393344 -0.05681
C_ C_ 0.357611 0.670344 0.370464 -0.08735
C_ C_ 0.305817 0.665772 0.375827 -0.08735
C_ C_ 0.407811 0.682477 0.444987 -0.08735
C_ C_ 0.461085 0.680019 0.440194 -0.08735
C_ C_ 0.478999 0.681837 0.411751 -0.05681
C_ C_ 0.445093 0.682224 0.388818 -0.08735
C_ C_ 0.117181 0.779197 0.409083 0.68181
C_ C_ 0.150308 0.585514 0.400321 0.68181
C_ C_ 0.143586 0.529678 0.398711 -0.05681
C_ C_ 0.13101 0.994429 0.422148 -0.08735
C_ C_ 0.121909 0.941813 0.418104 -0.05681
C_ C_ 0.123882 0.920538 0.390418 -0.05681
C_ C_ 0.133095 0.952558 0.366084 -0.08735
C_ C_ 0.142437 1.00347584 0.370398 -0.08735
C_ C_ 0.110529 0.910042 0.441924 -0.08735
C_ C_ 0.108256 0.857105 0.439407 -0.08735
C_ C_ 0.114984 0.836601 0.412114 -0.05681
C_ C_ 0.121302 0.868918 0.388311 -0.08735
C_ C_ 0.0376205 0.669925 0.403367 0.68181
C_ C_ 0.101093 0.626967 0.483293 0.1947
C_ C_ 0.106834 0.602395 0.0100289 -0.08735
C_ C_ 0.122801 0.630005 0.03276 -0.08735
C_ C_ 0.147823 0.677055 0.0274476 -0.05681
C_ C_ 0.148699 0.696951 0.998015 0.18498
C_ C_ 0.171417 0.743822 0.493088 -0.08735
C_ C_ 0.197375 0.766143 0.0134839 -0.08735
C_ C_ 0.185738 0.754365 0.0419706 -0.08735
C_ C_ 0.163025 0.707937 0.0499272 0.18498
C_ C_ 0.195697 0.68059 0.0959456 0.44287
C_ C_ 0.109467 0.700813 0.0927208 0.44287
C_ C_ 0.101215 0.692697 0.12227 -0.05681
C_ C_ 0.052186 0.687355 0.134721 -0.08735
C_ C_ 0.0472874 0.67893 0.16313 -0.08735
C_ C_ 0.0918061 0.677466 0.181961 -0.05681
C_ C_ 0.139041 0.678064 0.169819 -0.05681
C_ C_ 0.143809 0.682408 0.139883 -0.05681
C_ C_ 0.190883 0.675686 0.127277 -0.05681
C_ C_ 0.236698 0.668157 0.144727 -0.08735
C_ C_ 0.230714 0.665473 0.175356 -0.08735
C_ C_ 0.181551 0.670351 0.187729 -0.05681
C_ C_ 0.174719 0.66468 0.217448 0.44287
C_ C_ 0.0892547 0.676621 0.21296 0.44287
C_ C_ 0.118757 0.652632 0.258602 0.18498
C_ C_ 0.0958617 0.60382 0.265175 -0.08735
C_ C_ 0.0847635 0.591527 0.292837 -0.08735
C_ C_ 0.0966444 0.623664 0.316269 -0.08735
C_ C_ 0.12681 0.668006 0.309713 0.18498
C_ C_ 0.136211 0.684828 0.281264 -0.05681
C_ C_ 0.162701 0.730777 0.276139 -0.08735
C_ C_ 0.179128 0.760382 0.298793 -0.08735
C_ C_ 0.166611 0.743138 0.326955 0.1947
C_ C_ 0.266545 0.810735 0.155601 0.68181
C_ C_ 0.212168 0.817795 0.151365 -0.05681
C_ C_ 0.178308 0.803511 0.172773 -0.08735
C_ C_ 0.12629 0.808201 0.168942 -0.05681
C_ C_ 0.106462 0.822124 0.14174 -0.05681
C_ C_ 0.141291 0.841646 0.121288 -0.08735
C_ C_ 0.192662 0.83644 0.12587 -0.08735
C_ C_ 0.0918083 0.800082 0.192569 -0.08735
C_ C_ 0.0420379 0.807529 0.188223 -0.08735
C_ C_ 0.0224027 0.817935 0.161011 -0.05681
C_ C_ 0.0550844 0.828183 0.138144 -0.08735
C_ C_ 0.373471 0.717007 0.165254 0.68181
C_ C_ 0.35869 0.912864 0.150641 0.68181
C_ C_ 0.365906 0.969315 0.149496 -0.05681
C_ C_ 0.380616 0.50079 0.17864 -0.08735
C_ C_ 0.382497 0.553746 0.175657 -0.05681
C_ C_ 0.385765 0.575039 0.147624 -0.05681
C_ C_ 0.389963 0.543391 0.123412 -0.08735
C_ C_ 0.377567 -0.005847000000000047 0.123348 -0.08735
C_ C_ 0.377081 0.586164 0.198896 -0.08735
C_ C_ 0.375021 0.637979 0.194797 -0.08735
C_ C_ 0.379502 0.659379 0.167955 -0.05681
C_ C_ 0.382018 0.627866 0.14429 -0.08735
C_ C_ 0.462955 0.819482 0.15743 0.68181
C_ C_ 0.392733 0.87931 0.233009 0.1947
C_ C_ 0.392978 0.897717 0.262105 -0.08735
C_ C_ 0.372994 0.868828 0.283684 -0.08735
C_ C_ 0.363253 0.818335 0.279369 -0.05681
C_ C_ 0.354208 0.803647 0.251174 0.18498
C_ C_ 0.325983 0.759316 0.245361 -0.08735
C_ C_ 0.311781 0.725472 0.267278 -0.08735
C_ C_ 0.326577 0.73767 0.294765 -0.08735
C_ C_ 0.349432 0.784651 0.301665 0.18498
C_ C_ 0.313449 0.810831 0.347278 0.44287
C_ C_ 0.401624 0.792785 0.34443 0.44287
C_ C_ 0.41073 0.807773 0.373498 -0.05681
C_ C_ 0.459608 0.804302 0.38622 -0.08735
C_ C_ 0.464136 0.807999 0.415671 -0.08735
C_ C_ 0.420151 0.810372 0.434078 -0.05681
C_ C_ 0.37224 0.819558 0.420233 -0.05681
C_ C_ 0.367196 0.814988 0.39074 -0.05681
C_ C_ 0.319743 0.819169 0.377716 -0.05681
C_ C_ 0.27764 0.832883 0.394901 -0.08735
C_ C_ 0.282261 0.836695 0.42432 -0.08735
C_ C_ 0.33011 0.829345 0.437661 -0.05681
C_ C_ 0.336406 0.834836 0.467719 0.44287
C_ C_ 0.423938 0.81506 0.464391 0.44287
C_ C_ 0.389063 0.851345 0.00813046 0.18498
C_ C_ 0.421278 0.892176 0.0128702 -0.08735
C_ C_ 0.443012 0.896139 0.0400082 -0.08735
C_ C_ 0.416042 0.876576 0.0634995 -0.08735
C_ C_ 0.380398 0.837679 0.0601892 0.18498
C_ C_ 0.366862 0.823626 0.0307078 -0.05681
C_ C_ 0.340301 0.778638 0.0263687 -0.08735
C_ C_ 0.323619 0.750908 0.0506358 -0.08735
C_ C_ 0.340696 0.761612 0.0783005 0.1947
N_ N_ 0.12745 0.668529 0.476542 -0.29468
N_ N_ 0.156245 0.696863 0.0800743 -0.17154
N_ N_ 0.12852 0.664802 0.229035 -0.17154
N_ N_ 0.142873 0.697537 0.33279 -0.29468
N_ N_ 0.372469 0.83294 0.228526 -0.29468
N_ N_ 0.354645 0.797792 0.33194 -0.17154
N_ N_ 0.383092 0.830505 0.480202 -0.17154
N_ N_ 0.366293 0.806482 0.0821791 -0.29468
O_ O_ 0.21432 0.689022 0.433626 -0.58347
O_ O_ 0.204727 0.691428 0.387012 -0.58347
O_ O_ 0.119061 0.749487 0.430353 -0.58347
O_ O_ 0.12151 0.762452 0.384541 -0.58347
O_ O_ 0.158477 0.604665 0.425589 -0.58347
O_ O_ 0.139787 0.613495 0.379136 -0.58347
O_ O_ 0.0695582 0.657084 0.423365 -0.58347
O_ O_ 0.054249 0.68158 0.379154 -0.58347
O_ O_ 0.0701459 0.715868 0.0777731 -0.46727
O_ O_ 0.2367 0.661362 0.0826839 -0.46727
O_ O_ 0.0465969 0.693365 0.224898 -0.46727
O_ O_ 0.213196 0.649369 0.23386 -0.46727
O_ O_ 0.286686 0.809526 0.180326 -0.58347
O_ O_ 0.293331 0.811224 0.133462 -0.58347
O_ O_ 0.376019 0.747747 0.186146 -0.58347
O_ O_ 0.370496 0.734624 0.140288 -0.58347
O_ O_ 0.351668 0.891447 0.174938 -0.58347
O_ O_ 0.370378 0.886522 0.128372 -0.58347
O_ O_ 0.435898 0.83256 0.178525 -0.58347
O_ O_ 0.444579 0.814133 0.132082 -0.58347
O_ O_ 0.439117 0.774704 0.328451 -0.46727
O_ O_ 0.267974 0.811994 0.335426 -0.46727
O_ O_ 0.470308 0.812899 0.475767 -0.46727
O_ O_ 0.294941 0.846532 0.482757 -0.46727
Zn Zn 0.11856 0.690659 0.879058 0.90689
Zn Zn 0.129987 0.682985 0.927798 0.90689
Zn Zn 0.365299 0.817958 0.632745 0.90689
Zn Zn 0.354382 0.823529 0.678907 0.90689
H_ H_ 0.297627 0.705107 0.940871 0.11455
H_ H_ 0.375478 0.677917 0.844878 0.11455
H_ H_ 0.27897 0.685348 0.848797 0.11455
H_ H_ 0.384981 0.698579 0.961277 0.11455
H_ H_ 0.472538 0.670832 0.957729 0.11455
H_ H_ 0.456404 0.670373 0.865482 0.11455
H_ H_ 0.135792 0.519082 0.937397 0.11455
H_ H_ 0.150392 0.934065 0.845159 0.11455
H_ H_ 0.129498 0.535536 0.84707 0.11455
H_ H_ 0.107124 0.934097 0.962156 0.11455
H_ H_ 0.133513 0.845256 0.959947 0.11455
H_ H_ 0.126015 0.852136 0.86892 0.11455
H_ H_ 0.0942487 0.599974 0.9652 0.11455
H_ H_ 0.0675194 0.57654 0.513248 0.11455
H_ H_ 0.0907795 0.63336 0.556039 0.11455
H_ H_ 0.193405 0.741015 0.970951 0.11455
H_ H_ 0.216077 0.801476 0.511247 0.11455
H_ H_ 0.196641 0.783738 0.560086 0.11455
H_ H_ 1.00358987 0.73494 0.622179 0.11455
H_ H_ 0.995275 0.731952 0.673228 0.11455
H_ H_ 0.250109 0.674189 0.636301 0.11455
H_ H_ 0.238907 0.666649 0.687364 0.11455
H_ H_ 0.0663895 0.595095 0.747036 0.11455
H_ H_ 0.0322982 0.574906 0.796632 0.11455
H_ H_ 0.0509797 0.633701 0.83639 0.11455
H_ H_ 0.131491 0.762968 0.755048 0.11455
H_ H_ 0.173017 0.803697 0.79467 0.11455
H_ H_ 0.171067 0.77247 0.841878 0.11455
H_ H_ 0.189402 0.810776 0.697147 0.11455
H_ H_ 0.123527 0.82781 0.599685 0.11455
H_ H_ 0.21358 0.80954 0.607311 0.11455
H_ H_ 0.101673 0.81084 0.717764 0.11455
H_ H_ 0.0106715 0.823361 0.709276 0.11455
H_ H_ 0.0365587 0.833824 0.616906 0.11455
H_ H_ 0.334602 0.989491 0.691415 0.11455
H_ H_ 0.375256 0.568726 0.59829 0.11455
H_ H_ 0.394495 0.974154 0.605264 0.11455
H_ H_ 0.348339 0.570108 0.7168 0.11455
H_ H_ 0.344343 0.665075 0.712363 0.11455
H_ H_ 0.360341 0.653367 0.620156 0.11455
H_ H_ 0.414686 0.896605 0.7148 0.11455
H_ H_ 0.434441 0.918574 0.764165 0.11455
H_ H_ 0.3727 0.893932 0.800548 0.11455
H_ H_ 0.289265 0.762744 0.721918 0.11455
H_ H_ 0.249557 0.720131 0.76127 0.11455
H_ H_ 0.263727 0.744132 0.80959 0.11455
H_ H_ 0.473118 0.799286 0.870117 0.11455
H_ H_ 0.480829 0.79988 0.9221 0.11455
H_ H_ 0.220896 0.834441 0.886188 0.11455
H_ H_ 0.236595 0.850865 0.942232 0.11455
H_ H_ 0.440026 0.908651 0.994443 0.11455
H_ H_ 0.451966 0.935602 0.548091 0.11455
H_ H_ 0.422976 0.880064 0.590351 0.11455
H_ H_ 0.335942 0.75386 0.507922 0.11455
H_ H_ 0.308234 0.702123 0.547766 0.11455
H_ H_ 0.314748 0.735543 0.597801 0.11455
C_ C_ 0.223652 0.693534 0.898428 0.68181
C_ C_ 0.280899 0.693551 0.894736 -0.05681
C_ C_ 0.312444 0.696903 0.918456 -0.08735
C_ C_ 0.364764 0.686416 0.916283 -0.05681
C_ C_ 0.386205 0.677011 0.889342 -0.05681
C_ C_ 0.356102 0.678178 0.865768 -0.08735
C_ C_ 0.303659 0.685207 0.868271 -0.08735
C_ C_ 0.397154 0.683611 0.940795 -0.08735
C_ C_ 0.449332 0.676287 0.937478 -0.08735
C_ C_ 0.470417 0.672894 0.910435 -0.05681
C_ C_ 0.43908 0.667337 0.886636 -0.08735
C_ C_ 0.125766 0.784697 0.913761 0.68181
C_ C_ 0.130562 0.589373 0.893848 0.68181
C_ C_ 0.12863 0.534101 0.892988 -0.05681
C_ C_ 0.128433 1.000461215 0.917674 -0.08735
C_ C_ 0.130899 0.948459 0.917378 -0.05681
C_ C_ 0.137443 0.922582 0.890992 -0.05681
C_ C_ 0.145358 0.953558 0.866555 -0.08735
C_ C_ 0.155263 0.0042449 0.86858 -0.08735
C_ C_ 0.121572 0.918869 0.942766 -0.08735
C_ C_ 0.128838 0.866838 0.941297 -0.08735
C_ C_ 0.126052 0.841288 0.915131 -0.05681
C_ C_ 0.12982 0.87032 0.888917 -0.08735
C_ C_ 0.0249745 0.683336 0.911306 0.68181
C_ C_ 0.108917 0.62192 0.981997 0.1947
C_ C_ 0.0866137 0.613708 0.511327 -0.08735
C_ C_ 0.0961375 0.645464 0.533765 -0.08735
C_ C_ 0.127012 0.689288 0.527505 -0.05681
C_ C_ 0.141524 0.700912 0.498195 0.18498
C_ C_ 0.177806 0.737774 0.99218 -0.08735
C_ C_ 0.18545 0.774256 0.514954 -0.08735
C_ C_ 0.180178 0.759088 0.543326 -0.08735
C_ C_ 0.14923 0.716852 0.549902 0.18498
C_ C_ 0.174997 0.688835 0.596786 0.44287
C_ C_ 0.0928102 0.71648 0.592287 0.44287
C_ C_ 0.0795455 0.704792 0.621454 -0.05681
C_ C_ 0.0310908 0.71584 0.634361 -0.08735
C_ C_ 0.0278312 0.714978 0.663915 -0.08735
C_ C_ 0.067271 0.696769 0.681863 -0.05681
C_ C_ 0.115442 0.684194 0.669608 -0.05681
C_ C_ 0.120031 0.689242 0.638627 -0.05681
C_ C_ 0.168947 0.683056 0.626869 -0.05681
C_ C_ 0.21154 0.675625 0.645385 -0.08735
C_ C_ 0.203829 0.67102 0.674291 -0.08735
C_ C_ 0.156241 0.675173 0.686961 -0.05681
C_ C_ 0.149742 0.67588 0.717489 0.44287
C_ C_ 0.0625236 0.693987 0.712667 0.44287
C_ C_ 0.0969717 0.665313 0.758884 0.18498
C_ C_ 0.0753362 0.619265 0.764658 -0.08735
C_ C_ 0.0581101 0.606728 0.792738 -0.08735
C_ C_ 0.0681901 0.639993 0.815473 -0.08735
C_ C_ 0.0989717 0.683355 0.810141 0.18498
C_ C_ 0.10543 0.701231 0.781337 -0.05681
C_ C_ 0.12582 0.748525 0.776341 -0.08735
C_ C_ 0.142996 0.776722 0.799917 -0.08735
C_ C_ 0.145356 0.755286 0.826567 0.1947
C_ C_ 0.261748 0.810909 0.657993 0.68181
C_ C_ 0.206907 0.814632 0.653833 -0.05681
C_ C_ 0.175059 0.824286 0.677368 -0.08735
C_ C_ 0.122002 0.822126 0.672502 -0.05681
C_ C_ 0.102663 0.832837 0.644183 -0.05681
C_ C_ 0.135812 0.824345 0.621619 -0.08735
C_ C_ 0.18725 0.815357 0.625809 -0.08735
C_ C_ 0.0885274 0.82104 0.696095 -0.08735
C_ C_ 0.0347171 0.822478 0.690601 -0.08735
C_ C_ 0.0165718 0.831714 0.662513 -0.05681
C_ C_ 0.050014 0.83734 0.639125 -0.08735
C_ C_ 0.363674 0.722593 0.664097 0.68181
C_ C_ 0.361975 0.919052 0.649778 0.68181
C_ C_ 0.365986 0.976001 0.648865 -0.05681
C_ C_ 0.354683 0.504249 0.671786 -0.08735
C_ C_ 0.352962 0.557166 0.67032 -0.05681
C_ C_ 0.360811 0.58111 0.643651 -0.05681
C_ C_ 0.374741 0.551916 0.619727 -0.08735
C_ C_ 0.387421 0.99744 0.624408 -0.08735
C_ C_ 0.347904 0.586047 0.695466 -0.08735
C_ C_ 0.347656 0.640534 0.692704 -0.08735
C_ C_ 0.357738 0.664146 0.666617 -0.05681
C_ C_ 0.362138 0.634508 0.641499 -0.08735
C_ C_ 0.456835 0.821378 0.655328 0.68181
C_ C_ 0.394273 0.876332 0.731969 0.1947
C_ C_ 0.40369 0.892102 0.760493 -0.08735
C_ C_ 0.371795 0.874529 0.781319 -0.08735
C_ C_ 0.343217 0.830593 0.776539 -0.05681
C_ C_ 0.338034 0.811202 0.748275 0.18498
C_ C_ 0.30061 0.775154 0.74348 -0.08735
C_ C_ 0.277854 0.749383 0.765284 -0.08735
C_ C_ 0.28894 0.760223 0.793433 -0.08735
C_ C_ 0.321179 0.802484 0.799867 0.18498
C_ C_ 0.29408 0.834222 0.846093 0.44287
C_ C_ 0.37938 0.806785 0.840483 0.44287
C_ C_ 0.390705 0.817178 0.870452 -0.05681
C_ C_ 0.438829 0.808802 0.882267 -0.08735
C_ C_ 0.442922 0.806228 0.911686 -0.08735
C_ C_ 0.405046 0.820714 0.930188 -0.05681
C_ C_ 0.358555 0.832191 0.9184 -0.05681
C_ C_ 0.350211 0.827902 0.888695 -0.05681
C_ C_ 0.301818 0.835738 0.876845 -0.05681
C_ C_ 0.259716 0.83524 0.896063 -0.08735
C_ C_ 0.268292 0.842472 0.926466 -0.08735
C_ C_ 0.318795 0.843107 0.936921 -0.05681
C_ C_ 0.328389 0.849835 0.966946 0.44287
C_ C_ 0.415125 0.82323 0.960257 0.44287
C_ C_ 0.389306 0.844756 0.510081 0.18498
C_ C_ 0.408471 0.895307 0.517025 -0.08735
C_ C_ 0.422178 0.905295 0.545865 -0.08735
C_ C_ 0.410177 0.871254 0.567976 -0.08735
C_ C_ 0.37833 0.83003 0.562486 0.18498
C_ C_ 0.370956 0.813514 0.533395 -0.05681
C_ C_ 0.3441 0.767193 0.529421 -0.08735
C_ C_ 0.327958 0.738679 0.551915 -0.08735
C_ C_ 0.328265 0.760441 0.579979 0.1947
N_ N_ 0.131166 0.668173 0.975728 -0.29468
N_ N_ 0.136335 0.706014 0.580013 -0.17154
N_ N_ 0.103222 0.682162 0.729849 -0.17154
N_ N_ 0.119635 0.711334 0.831969 -0.29468
N_ N_ 0.362799 0.836879 0.726337 -0.29468
N_ N_ 0.332625 0.817454 0.829561 -0.17154
N_ N_ 0.376356 0.842536 0.977993 -0.17154
N_ N_ 0.358676 0.802403 0.585817 -0.29468
O_ O_ 0.203193 0.693112 0.924323 -0.58347
O_ O_ 0.197404 0.689686 0.876531 -0.58347
O_ O_ 0.120791 0.757658 0.93644 -0.58347
O_ O_ 0.119124 0.764284 0.889112 -0.58347
O_ O_ 0.137574 0.611079 0.917888 -0.58347
O_ O_ 0.116264 0.615387 0.872628 -0.58347
O_ O_ 0.0546012 0.677539 0.931984 -0.58347
O_ O_ 0.0428427 0.68724 0.887238 -0.58347
O_ O_ 0.0600077 0.740879 0.576843 -0.46727
O_ O_ 0.217901 0.67222 0.58538 -0.46727
O_ O_ 0.0187861 0.701715 0.725025 -0.46727
O_ O_ 0.188998 0.671626 0.73433 -0.46727
O_ O_ 0.280701 0.821521 0.682395 -0.58347
O_ O_ 0.289953 0.820905 0.63649 -0.58347
O_ O_ 0.359062 0.749111 0.686545 -0.58347
O_ O_ 0.364895 0.743825 0.639039 -0.58347
O_ O_ 0.355714 0.900467 0.673671 -0.58347
O_ O_ 0.364747 0.890992 0.627576 -0.58347
O_ O_ 0.427493 0.822477 0.676362 -0.58347
O_ O_ 0.43879 0.81685 0.630201 -0.58347
O_ O_ 0.415772 0.787443 0.824167 -0.46727
O_ O_ 0.24991 0.844896 0.834958 -0.46727
O_ O_ 0.46125 0.825452 0.968684 -0.46727
O_ O_ 0.295134 0.868764 0.98456 -0.46727
Zn Zn 0.638797 0.183507 0.381363 0.90689
Zn Zn 0.645028 0.178128 0.431191 0.90689
Zn Zn 0.87106 0.309196 0.130357 0.90689
Zn Zn 0.861046 0.316662 0.176437 0.90689
H_ H_ 0.813046 0.192692 0.444103 0.11455
H_ H_ 0.882604 0.152423 0.348151 0.11455
H_ H_ 0.79051 0.157028 0.354021 0.11455
H_ H_ 0.900747 0.214563 0.459441 0.11455
H_ H_ 0.990792 0.207056 0.45463 0.11455
H_ H_ 0.96733 0.151689 0.367859 0.11455
H_ H_ 0.609667 0.0139418 0.442948 0.11455
H_ H_ 0.636953 0.435242 0.351526 0.11455
H_ H_ 0.677113 0.0203951 0.360162 0.11455
H_ H_ 0.650163 0.429258 0.467885 0.11455
H_ H_ 0.637717 0.336198 0.465695 0.11455
H_ H_ 0.640397 0.347934 0.373723 0.11455
H_ H_ 0.581654 0.10001 0.465588 0.11455
H_ H_ 0.569478 0.0759148 0.0149404 0.11455
H_ H_ 0.611716 0.117009 0.0571445 0.11455
H_ H_ 0.70757 0.231704 0.474461 0.11455
H_ H_ 0.716382 0.30311 0.0144034 0.11455
H_ H_ 0.671621 0.293162 0.0617156 0.11455
H_ H_ 0.507515 0.199721 0.123719 0.11455
H_ H_ 0.497397 0.178848 0.176517 0.11455
H_ H_ 0.755447 0.160267 0.133013 0.11455
H_ H_ 0.745443 0.145564 0.188112 0.11455
H_ H_ 0.57288 0.0667319 0.255583 0.11455
H_ H_ 0.548541 0.0551881 0.304735 0.11455
H_ H_ 0.580768 0.115572 0.343118 0.11455
H_ H_ 0.662768 0.232032 0.255005 0.11455
H_ H_ 0.697692 0.282671 0.293532 0.11455
H_ H_ 0.689628 0.255023 0.341658 0.11455
H_ H_ 0.69686 0.298384 0.195742 0.11455
H_ H_ 0.624241 0.328722 0.0988503 0.11455
H_ H_ 0.718105 0.337888 0.106279 0.11455
H_ H_ 0.611049 0.283795 0.214861 0.11455
H_ H_ 0.518832 0.276762 0.207834 0.11455
H_ H_ 0.538781 0.328606 0.120522 0.11455
H_ H_ 0.83835 0.477948 0.188071 0.11455
H_ H_ 0.865733 0.057506 0.095146 0.11455
H_ H_ 0.894539 0.470286 0.102338 0.11455
H_ H_ 0.876908 0.06531 0.210649 0.11455
H_ H_ 0.889937 0.157994 0.204271 0.11455
H_ H_ 0.844697 0.140951 0.115088 0.11455
H_ H_ 0.923031 0.387045 0.211803 0.11455
H_ H_ 0.953007 0.405924 0.261556 0.11455
H_ H_ 0.908758 0.359924 0.302907 0.11455
H_ H_ 0.809162 0.246362 0.219188 0.11455
H_ H_ 0.772808 0.196768 0.258449 0.11455
H_ H_ 0.795831 0.215874 0.30957 0.11455
H_ H_ 0.98625 0.30036 0.370524 0.11455
H_ H_ -0.0020059999999999523 0.304413 0.420506 0.11455
H_ H_ 0.735752 0.315733 0.385473 0.11455
H_ H_ 0.748718 0.333438 0.438858 0.11455
H_ H_ 0.922917 0.425329 0.500311 0.11455
H_ H_ 0.959424 0.429776 0.0461556 0.11455
H_ H_ 0.936071 0.371823 0.0847782 0.11455
H_ H_ 0.834663 0.253431 0.00618424 0.11455
H_ H_ 0.792894 0.214678 0.0473286 0.11455
H_ H_ 0.814709 0.242262 0.0962987 0.11455
C_ C_ 0.738676 0.175747 0.402677 0.68181
C_ C_ 0.7943 0.173615 0.400315 -0.05681
C_ C_ 0.829572 0.185957 0.422709 -0.08735
C_ C_ 0.882542 0.187995 0.417645 -0.05681
C_ C_ 0.902919 0.175273 0.390194 -0.05681
C_ C_ 0.867564 0.163264 0.36815 -0.08735
C_ C_ 0.814305 0.165861 0.373282 -0.08735
C_ C_ 0.915484 0.197555 0.440115 -0.08735
C_ C_ 0.966912 0.193091 0.437143 -0.08735
C_ C_ 0.98833 0.183038 0.40936 -0.05681
C_ C_ 0.955828 0.17216 0.386396 -0.08735
C_ C_ 0.638804 0.278828 0.41602 0.68181
C_ C_ 0.644769 0.0798085 0.403445 0.68181
C_ C_ 0.642928 0.0232742 0.401701 -0.05681
C_ C_ 0.647339 0.494077 0.426632 -0.08735
C_ C_ 0.649623 0.441687 0.424039 -0.05681
C_ C_ 0.648796 0.418963 0.396169 -0.05681
C_ C_ 0.648767 0.450223 0.372861 -0.08735
C_ C_ 0.650875 0.502708 0.375502 -0.08735
C_ C_ 0.643974 0.412469 0.447567 -0.08735
C_ C_ 0.643703 0.358368 0.445888 -0.08735
C_ C_ 0.641425 0.335555 0.419199 -0.05681
C_ C_ 0.642822 0.365799 0.394256 -0.08735
C_ C_ 0.543267 0.176836 0.410791 0.68181
C_ C_ 0.606645 0.115696 0.482135 0.1947
C_ C_ 0.592704 0.107854 0.0114419 -0.08735
C_ C_ 0.612145 0.134774 0.0346897 -0.08735
C_ C_ 0.636515 0.180981 0.0299635 -0.05681
C_ C_ 0.651375 0.191992 1.00161776 0.18498
C_ C_ 0.693903 0.222926 0.49645 -0.08735
C_ C_ 0.693656 0.269726 0.0180739 -0.08735
C_ C_ 0.672253 0.261822 0.0455413 -0.08735
C_ C_ 0.646343 0.215638 0.0525204 0.18498
C_ C_ 0.682988 0.193431 0.0986011 0.44287
C_ C_ 0.592969 0.200263 0.0958542 0.44287
C_ C_ 0.5868 0.193408 0.125098 -0.05681
C_ C_ 0.537996 0.186851 0.13719 -0.08735
C_ C_ 0.534853 0.17385 0.166999 -0.08735
C_ C_ 0.577824 0.171558 0.184558 -0.05681
C_ C_ 0.625189 0.171275 0.171956 -0.05681
C_ C_ 0.629071 0.178814 0.141302 -0.05681
C_ C_ 0.675872 0.176482 0.127683 -0.05681
C_ C_ 0.719228 0.167062 0.145065 -0.08735
C_ C_ 0.714728 0.157876 0.174673 -0.08735
C_ C_ 0.668223 0.158059 0.187839 -0.05681
C_ C_ 0.661442 0.148292 0.217306 0.44287
C_ C_ 0.572286 0.159972 0.213902 0.44287
C_ C_ 0.609214 0.141082 0.260657 0.18498
C_ C_ 0.581563 0.0977536 0.2704 -0.08735
C_ C_ 0.570699 0.0883388 0.299032 -0.08735
C_ C_ 0.589349 0.121186 0.320436 -0.08735
C_ C_ 0.617978 0.163781 0.31187 0.18498
C_ C_ 0.627176 0.175172 0.283031 -0.05681
C_ C_ 0.649538 0.221316 0.27595 -0.08735
C_ C_ 0.672998 0.249925 0.297851 -0.08735
C_ C_ 0.667077 0.23617 0.325899 0.1947
C_ C_ 0.767449 0.30751 0.154133 0.68181
C_ C_ 0.713566 0.312495 0.150641 -0.05681
C_ C_ 0.680789 0.305477 0.174488 -0.08735
C_ C_ 0.627061 0.305183 0.17016 -0.05681
C_ C_ 0.606947 0.314043 0.143009 -0.05681
C_ C_ 0.641247 0.32402 0.120176 -0.08735
C_ C_ 0.693782 0.323376 0.12342 -0.08735
C_ C_ 0.593354 0.293301 0.193236 -0.08735
C_ C_ 0.54174 0.293263 0.190867 -0.08735
C_ C_ 0.520724 0.311017 0.165593 -0.05681
C_ C_ 0.553788 0.317363 0.140835 -0.08735
C_ C_ 0.865599 0.214662 0.155547 0.68181
C_ C_ 0.860831 0.411504 0.1498 0.68181
C_ C_ 0.867929 0.467231 0.146591 -0.05681
C_ C_ 0.869935 -0.004379000000000022 0.169056 -0.08735
C_ C_ 0.871072 0.049955 0.166629 -0.05681
C_ C_ 0.858278 0.0715472 0.138969 -0.05681
C_ C_ 0.857121 0.0402678 0.114777 -0.08735
C_ C_ 0.884424 0.490122 0.121455 -0.08735
C_ C_ 0.876469 0.0829492 0.189919 -0.08735
C_ C_ 0.874189 0.135192 0.186893 -0.08735
C_ C_ 0.865919 0.157241 0.159036 -0.05681
C_ C_ 0.856904 0.124874 0.135668 -0.08735
C_ C_ 0.967092 0.316535 0.155426 0.68181
C_ C_ 0.905455 0.367214 0.230536 0.1947
C_ C_ 0.923382 0.376176 0.257702 -0.08735
C_ C_ 0.896451 0.354859 0.281052 -0.08735
C_ C_ 0.863053 0.314098 0.276076 -0.05681
C_ C_ 0.85123 0.300866 0.247199 0.18498
C_ C_ 0.817515 0.259205 0.241584 -0.08735
C_ C_ 0.797605 0.22937 0.263352 -0.08735
C_ C_ 0.811983 0.240314 0.291584 -0.08735
C_ C_ 0.841867 0.284413 0.298433 0.18498
C_ C_ 0.807499 0.308115 0.345373 0.44287
C_ C_ 0.894528 0.285652 0.342097 0.44287
C_ C_ 0.904634 0.300263 0.370837 -0.05681
C_ C_ 0.95305 0.302957 0.38314 -0.08735
C_ C_ 0.959685 0.312343 0.412317 -0.08735
C_ C_ 0.918182 0.319263 0.430594 -0.05681
C_ C_ 0.868918 0.319178 0.419083 -0.05681
C_ C_ 0.863132 0.312811 0.388038 -0.05681
C_ C_ 0.814046 0.314934 0.375903 -0.05681
C_ C_ 0.772591 0.321461 0.394153 -0.08735
C_ C_ 0.779903 0.327712 0.424308 -0.08735
C_ C_ 0.828896 0.32665 0.4367 -0.05681
C_ C_ 0.836918 0.32955 0.467501 0.44287
C_ C_ 0.926687 0.331103 0.460469 0.44287
C_ C_ 0.886687 0.346136 0.00762174 0.18498
C_ C_ 0.920312 0.387307 0.0132626 -0.08735
C_ C_ 0.935552 0.397008 0.0412713 -0.08735
C_ C_ 0.92128 0.363877 0.0638062 -0.08735
C_ C_ 0.884073 0.326368 0.0589315 0.18498
C_ C_ 0.868129 0.316449 0.0303242 -0.05681
C_ C_ 0.835447 0.273626 0.0266707 -0.08735
C_ C_ 0.815271 0.248188 0.0498169 -0.08735
C_ C_ 0.833133 0.259219 0.078231 0.1947
N_ N_ 0.637262 0.156618 0.478088 -0.29468
N_ N_ 0.64066 0.201522 0.0823628 -0.17154
N_ N_ 0.613785 0.152478 0.230738 -0.17154
N_ N_ 0.638524 0.195211 0.332744 -0.29468
N_ N_ 0.872251 0.326596 0.224717 -0.29468
N_ N_ 0.848557 0.295859 0.328907 -0.17154
N_ N_ 0.885947 0.331363 0.478469 -0.17154
N_ N_ 0.863974 0.300799 0.0821835 -0.29468
O_ O_ 0.717708 0.16927 0.427366 -0.58347
O_ O_ 0.713241 0.189821 0.380728 -0.58347
O_ O_ 0.647536 0.252329 0.437716 -0.58347
O_ O_ 0.631499 0.258252 0.390974 -0.58347
O_ O_ 0.647755 0.103099 0.427233 -0.58347
O_ O_ 0.647073 0.106803 0.38105 -0.58347
O_ O_ 0.570532 0.17475 0.432638 -0.58347
O_ O_ 0.562426 0.179896 0.385676 -0.58347
O_ O_ 0.553218 0.209743 0.0802307 -0.46727
O_ O_ 0.727606 0.187195 0.087188 -0.46727
O_ O_ 0.526808 0.152975 0.224892 -0.46727
O_ O_ 0.701446 0.14613 0.23408 -0.46727
O_ O_ 0.788519 0.320455 0.17782 -0.58347
O_ O_ 0.795588 0.300387 0.132127 -0.58347
O_ O_ 0.857085 0.242028 0.178135 -0.58347
O_ O_ 0.884941 0.235091 0.132678 -0.58347
O_ O_ 0.859383 0.391629 0.174801 -0.58347
O_ O_ 0.862547 0.383538 0.127803 -0.58347
O_ O_ 0.937234 0.31661 0.176504 -0.58347
O_ O_ 0.9498 0.318972 0.130376 -0.58347
O_ O_ 0.93266 0.271582 0.325191 -0.46727
O_ O_ 0.76342 0.315159 0.332972 -0.46727
O_ O_ 0.972838 0.327559 0.472004 -0.46727
O_ O_ 0.7974 0.330142 0.483773 -0.46727
Zn Zn 0.630678 0.187218 0.883136 0.90689
Zn Zn 0.637188 0.18391 0.932333 0.90689
Zn Zn 0.878831 0.313469 0.632028 0.90689
Zn Zn 0.869146 0.323976 0.67989 0.90689
H_ H_ 0.814205 0.189255 0.944899 0.11455
H_ H_ 0.871065 0.158687 0.845196 0.11455
H_ H_ 0.779562 0.169153 0.854192 0.11455
H_ H_ 0.897543 0.181074 0.964087 0.11455
H_ H_ 0.990521 0.178136 0.952586 0.11455
H_ H_ 0.964211 0.156829 0.863367 0.11455
H_ H_ 0.586822 0.0228706 0.931385 0.11455
H_ H_ 0.590415 0.43666 0.854517 0.11455
H_ H_ 0.691063 0.0284077 0.861786 0.11455
H_ H_ 0.682237 0.435726 0.961837 0.11455
H_ H_ 0.670276 0.339848 0.959616 0.11455
H_ H_ 0.588824 0.355433 0.88181 0.11455
H_ H_ 0.580878 0.105884 0.966387 0.11455
H_ H_ 0.568296 0.0690389 0.51278 0.11455
H_ H_ 0.606031 0.110393 0.554492 0.11455
H_ H_ 0.701143 0.241301 0.975212 0.11455
H_ H_ 0.729279 0.289245 0.515119 0.11455
H_ H_ 0.690454 0.273726 0.561806 0.11455
H_ H_ 0.511568 0.195524 0.621471 0.11455
H_ H_ 0.497642 0.184808 0.671529 0.11455
H_ H_ 0.760954 0.179176 0.642855 0.11455
H_ H_ 0.753515 0.154207 0.69258 0.11455
H_ H_ 0.547514 0.106632 0.750529 0.11455
H_ H_ 0.526978 0.0864672 0.80242 0.11455
H_ H_ 0.57337 0.131164 0.841072 0.11455
H_ H_ 0.664852 0.247832 0.758796 0.11455
H_ H_ 0.685791 0.302347 0.798313 0.11455
H_ H_ 0.674519 0.274162 0.84827 0.11455
H_ H_ 0.695257 0.328586 0.694866 0.11455
H_ H_ 0.631502 0.29342 0.597898 0.11455
H_ H_ 0.72096 0.290739 0.607019 0.11455
H_ H_ 0.614501 0.333507 0.713965 0.11455
H_ H_ 0.521519 0.33605 0.706184 0.11455
H_ H_ 0.544046 0.313314 0.617235 0.11455
H_ H_ 0.897409 0.487441 0.688906 0.11455
H_ H_ 0.888136 0.0641755 0.596648 0.11455
H_ H_ 0.855029 0.47752 0.60052 0.11455
H_ H_ 0.886216 0.0661447 0.714394 0.11455
H_ H_ 0.886802 0.159343 0.711765 0.11455
H_ H_ 0.883803 0.153581 0.619338 0.11455
H_ H_ 0.919211 0.401034 0.71398 0.11455
H_ H_ 0.939451 0.426055 0.763826 0.11455
H_ H_ 0.898292 0.385179 0.804611 0.11455
H_ H_ 0.807413 0.259508 0.723588 0.11455
H_ H_ 0.783446 0.202341 0.761613 0.11455
H_ H_ 0.788587 0.235226 0.809886 0.11455
H_ H_ 0.987696 0.296865 0.873479 0.11455
H_ H_ -0.011494000000000004 0.285693 0.926147 0.11455
H_ H_ 0.746554 0.372033 0.879853 0.11455
H_ H_ 0.757268 0.385641 0.932881 0.11455
H_ H_ 0.937865 0.411632 0.995587 0.11455
H_ H_ 0.954926 0.434353 0.547447 0.11455
H_ H_ 0.931167 0.381496 0.585875 0.11455
H_ H_ 0.861892 0.24761 0.504407 0.11455
H_ H_ 0.813734 0.206252 0.543054 0.11455
H_ H_ 0.823994 0.239345 0.592949 0.11455
C_ C_ 0.734953 0.186284 0.905449 0.68181
C_ C_ 0.791561 0.179208 0.900916 -0.05681
C_ C_ 0.827186 0.18053 0.923125 -0.08735
C_ C_ 0.87712 0.167696 0.918605 -0.05681
C_ C_ 0.894554 0.163212 0.889832 -0.05681
C_ C_ 0.857528 0.160901 0.867817 -0.08735
C_ C_ 0.806567 0.167471 0.873239 -0.08735
C_ C_ 0.909844 0.172638 0.941529 -0.08735
C_ C_ 0.962715 0.176925 0.936255 -0.08735
C_ C_ 0.981651 0.17382 0.907221 -0.05681
C_ C_ 0.947608 0.162686 0.884899 -0.08735
C_ C_ 0.62859 0.28527 0.917346 0.68181
C_ C_ 0.640456 0.0864621 0.90045 0.68181
C_ C_ 0.643365 0.0312148 0.899473 -0.05681
C_ C_ 0.641449 0.50214 0.924078 -0.08735
C_ C_ 0.640456 0.449027 0.922699 -0.05681
C_ C_ 0.615921 0.424814 0.898572 -0.05681
C_ C_ 0.598597 0.454623 0.876246 -0.08735
C_ C_ 0.601149 0.50693 0.877121 -0.08735
C_ C_ 0.659464 0.418866 0.945397 -0.08735
C_ C_ 0.656071 0.365805 0.943802 -0.08735
C_ C_ 0.633593 0.342397 0.919571 -0.05681
C_ C_ 0.612354 0.372968 0.897663 -0.08735
C_ C_ 0.535984 0.189014 0.910809 0.68181
C_ C_ 0.601502 0.124134 0.983294 0.1947
C_ C_ 0.596795 0.097382 0.509894 -0.08735
C_ C_ 0.614608 0.125465 0.533307 -0.08735
C_ C_ 0.647315 0.166535 0.53026 -0.05681
C_ C_ 0.657011 0.183953 0.500788 0.18498
C_ C_ 0.683435 0.236326 0.995602 -0.08735
C_ C_ 0.705776 0.25536 0.518579 -0.08735
C_ C_ 0.688502 0.243293 0.545872 -0.08735
C_ C_ 0.662423 0.196411 0.553122 0.18498
C_ C_ 0.692673 0.183145 0.601339 0.44287
C_ C_ 0.605645 0.192902 0.593836 0.44287
C_ C_ 0.594743 0.186767 0.622717 -0.05681
C_ C_ 0.545207 0.189401 0.634189 -0.08735
C_ C_ 0.538012 0.185509 0.664219 -0.08735
C_ C_ 0.579067 0.182036 0.683306 -0.05681
C_ C_ 0.62607 0.168442 0.671398 -0.05681
C_ C_ 0.635478 0.176835 0.642101 -0.05681
C_ C_ 0.685474 0.177096 0.631566 -0.05681
C_ C_ 0.724939 0.173519 0.650742 -0.08735
C_ C_ 0.71807 0.161156 0.679432 -0.08735
C_ C_ 0.667505 0.163475 0.691139 -0.05681
C_ C_ 0.658338 0.162662 0.721216 0.44287
C_ C_ 0.572567 0.186 0.713242 0.44287
C_ C_ 0.601444 0.166381 0.761969 0.18498
C_ C_ 0.568087 0.124122 0.767929 -0.08735
C_ C_ 0.558009 0.113535 0.797546 -0.08735
C_ C_ 0.583101 0.139751 0.819692 -0.08735
C_ C_ 0.616446 0.178938 0.813831 0.18498
C_ C_ 0.622245 0.194637 0.785208 -0.05681
C_ C_ 0.650984 0.238453 0.780034 -0.08735
C_ C_ 0.665158 0.268771 0.803059 -0.08735
C_ C_ 0.659917 0.251818 0.82954 0.1947
C_ C_ 0.773767 0.312546 0.653813 0.68181
C_ C_ 0.71577 0.314929 0.649812 -0.05681
C_ C_ 0.683279 0.322273 0.672594 -0.08735
C_ C_ 0.631359 0.327894 0.669005 -0.05681
C_ C_ 0.611373 0.317788 0.641748 -0.05681
C_ C_ 0.646212 0.304507 0.619303 -0.08735
C_ C_ 0.696776 0.298409 0.62455 -0.08735
C_ C_ 0.59992 0.336793 0.691951 -0.08735
C_ C_ 0.54843 0.328448 0.689141 -0.08735
C_ C_ 0.527334 0.329447 0.661137 -0.05681
C_ C_ 0.559107 0.320854 0.637684 -0.08735
C_ C_ 0.880838 0.220674 0.663507 0.68181
C_ C_ 0.866191 0.418534 0.648878 0.68181
C_ C_ 0.873724 0.475865 0.645284 -0.05681
C_ C_ 0.871661 0.00425932 0.672129 -0.08735
C_ C_ 0.876949 0.0555646 0.669284 -0.05681
C_ C_ 0.876819 0.0804822 0.642663 -0.05681
C_ C_ 0.873729 0.0503873 0.618072 -0.08735
C_ C_ 0.860977 0.498987 0.620083 -0.08735
C_ C_ 0.883543 0.0856286 0.693485 -0.08735
C_ C_ 0.885243 0.138128 0.691712 -0.08735
C_ C_ 0.882253 0.164852 0.66512 -0.05681
C_ C_ 0.87674 0.134512 0.640674 -0.08735
C_ C_ 0.972315 0.328254 0.656353 0.68181
C_ C_ 0.903977 0.377044 0.731127 0.1947
C_ C_ 0.918001 0.392552 0.759487 -0.08735
C_ C_ 0.895836 0.367085 0.782971 -0.08735
C_ C_ 0.867688 0.320883 0.778518 -0.05681
C_ C_ 0.856823 0.307182 0.748848 0.18498
C_ C_ 0.82681 0.263298 0.743471 -0.08735
C_ C_ 0.806599 0.234537 0.765832 -0.08735
C_ C_ 0.814057 0.251791 0.794617 -0.08735
C_ C_ 0.845211 0.292997 0.800908 0.18498
C_ C_ 0.815951 0.327829 0.845486 0.44287
C_ C_ 0.902707 0.299399 0.842686 0.44287
C_ C_ 0.90968 0.310257 0.871615 -0.05681
C_ C_ 0.955243 0.302044 0.885731 -0.08735
C_ C_ 0.95426 0.295047 0.916442 -0.08735
C_ C_ 0.910528 0.307182 0.931261 -0.05681
C_ C_ 0.870573 0.331079 0.918861 -0.05681
C_ C_ 0.866281 0.323029 0.888246 -0.05681
C_ C_ 0.821051 0.336051 0.874816 -0.05681
C_ C_ 0.781518 0.358161 0.891613 -0.08735
C_ C_ 0.788654 0.366692 0.920897 -0.08735
C_ C_ 0.828772 0.347726 0.935721 -0.05681
C_ C_ 0.832925 0.350029 0.96604 0.44287
C_ C_ 0.913543 0.310989 0.962077 0.44287
C_ C_ 0.896444 0.344639 0.508228 0.18498
C_ C_ 0.912551 0.395895 0.515679 -0.08735
C_ C_ 0.929882 0.404503 0.543502 -0.08735
C_ C_ 0.922868 0.369345 0.565397 -0.08735
C_ C_ 0.897238 0.323639 0.56071 0.18498
C_ C_ 0.885867 0.310418 0.531793 -0.05681
C_ C_ 0.86618 0.261826 0.527187 -0.08735
C_ C_ 0.838495 0.239258 0.549041 -0.08735
C_ C_ 0.844579 0.257109 0.576147 0.1947
N_ N_ 0.632941 0.162182 0.978405 -0.29468
N_ N_ 0.652481 0.187425 0.583063 -0.17154
N_ N_ 0.612816 0.178244 0.732218 -0.17154
N_ N_ 0.637508 0.208234 0.835748 -0.29468
N_ N_ 0.873874 0.335628 0.726621 -0.29468
N_ N_ 0.855339 0.304999 0.83082 -0.17154
N_ N_ 0.876057 0.333323 0.978442 -0.17154
N_ N_ 0.876376 0.296942 0.583037 -0.29468
O_ O_ 0.714786 0.180294 0.930161 -0.58347
O_ O_ 0.707508 0.192245 0.883996 -0.58347
O_ O_ 0.640198 0.259135 0.938828 -0.58347
O_ O_ 0.622953 0.263806 0.892313 -0.58347
O_ O_ 0.637593 0.107396 0.924471 -0.58347
O_ O_ 0.638432 0.111616 0.878845 -0.58347
O_ O_ 0.563782 0.188661 0.933011 -0.58347
O_ O_ 0.555493 0.178984 0.885876 -0.58347
O_ O_ 0.566773 0.20081 0.576403 -0.46727
O_ O_ 0.738082 0.188049 0.591204 -0.46727
O_ O_ 0.531263 0.209799 0.72278 -0.46727
O_ O_ 0.699383 0.159133 0.737675 -0.46727
O_ O_ 0.793868 0.317697 0.677652 -0.58347
O_ O_ 0.803157 0.309758 0.632349 -0.58347
O_ O_ 0.868968 0.246561 0.685671 -0.58347
O_ O_ 0.881076 0.24048 0.638976 -0.58347
O_ O_ 0.864207 0.400889 0.674202 -0.58347
O_ O_ 0.875102 0.389932 0.628759 -0.58347
O_ O_ 0.943474 0.32994 0.67764 -0.58347
O_ O_ 0.954967 0.316036 0.632568 -0.58347
O_ O_ 0.937983 0.283969 0.82578 -0.46727
O_ O_ 0.775205 0.340738 0.831803 -0.46727
O_ O_ 0.954692 0.293051 0.97564 -0.46727
O_ O_ 0.793141 0.360161 0.981091 -0.46727
Zn Zn 0.628031 0.681576 0.383493 0.90689
Zn Zn 0.639079 0.678727 0.430011 0.90689
Zn Zn 0.867749 0.80537 0.131201 0.90689
Zn Zn 0.863764 0.815318 0.179821 0.90689
H_ H_ 0.813088 0.679628 0.446603 0.11455
H_ H_ 0.873923 0.65905 0.346946 0.11455
H_ H_ 0.778601 0.663058 0.356097 0.11455
H_ H_ 0.89664 0.66729 0.464168 0.11455
H_ H_ 0.990089 0.657079 0.45423 0.11455
H_ H_ 0.961132 0.66968 0.363402 0.11455
H_ H_ 0.650851 0.511837 0.44841 0.11455
H_ H_ 0.686442 0.929178 0.358871 0.11455
H_ H_ 0.657618 0.523697 0.356347 0.11455
H_ H_ 0.592146 0.925822 0.464351 0.11455
H_ H_ 0.589866 0.834536 0.458412 0.11455
H_ H_ 0.659271 0.846385 0.377078 0.11455
H_ H_ 0.586535 0.601035 0.4632 0.11455
H_ H_ 0.544854 0.592891 0.0141122 0.11455
H_ H_ 0.583011 0.631927 0.0541082 0.11455
H_ H_ 0.692416 0.743054 0.474267 0.11455
H_ H_ 0.712886 0.806542 0.0153834 0.11455
H_ H_ 0.685196 0.788174 0.0621018 0.11455
H_ H_ 0.50293 0.709005 0.125943 0.11455
H_ H_ 0.488857 0.680949 0.174673 0.11455
H_ H_ 0.753613 0.663755 0.137584 0.11455
H_ H_ 0.743043 0.653867 0.18633 0.11455
H_ H_ 0.564155 0.57725 0.251868 0.11455
H_ H_ 0.54941 0.554701 0.30096 0.11455
H_ H_ 0.573404 0.612757 0.340937 0.11455
H_ H_ 0.650897 0.737028 0.255503 0.11455
H_ H_ 0.694481 0.781025 0.295318 0.11455
H_ H_ 0.685006 0.751978 0.344994 0.11455
H_ H_ 0.688196 0.793941 0.192888 0.11455
H_ H_ 0.623397 0.834101 0.0991699 0.11455
H_ H_ 0.713902 0.838046 0.1046 0.11455
H_ H_ 0.606922 0.78885 0.212934 0.11455
H_ H_ 0.512042 0.802297 0.207081 0.11455
H_ H_ 0.538375 0.844531 0.11824 0.11455
H_ H_ 0.877318 0.978301 0.190219 0.11455
H_ H_ 0.906437 0.560182 0.102227 0.11455
H_ H_ 0.860754 0.966085 0.0985617 0.11455
H_ H_ 0.825833 0.564757 0.213914 0.11455
H_ H_ 0.825801 0.65793 0.208503 0.11455
H_ H_ 0.906425 0.643433 0.128141 0.11455
H_ H_ 0.911383 0.893315 0.215884 0.11455
H_ H_ 0.923029 0.92324 0.264177 0.11455
H_ H_ 0.886837 0.87965 0.306213 0.11455
H_ H_ 0.796463 0.759448 0.225288 0.11455
H_ H_ 0.773593 0.699886 0.263676 0.11455
H_ H_ 0.787406 0.722273 0.313834 0.11455
H_ H_ 0.979505 0.778025 0.373145 0.11455
H_ H_ -0.005403999999999964 0.786405 0.42427 0.11455
H_ H_ 0.742258 0.862156 0.387177 0.11455
H_ H_ 0.746371 0.859233 0.43963 0.11455
H_ H_ 0.926648 0.903004 0.497338 0.11455
H_ H_ 0.933626 0.927219 0.0431585 0.11455
H_ H_ 0.922951 0.870558 0.0847309 0.11455
H_ H_ 0.834986 0.73598 0.00735283 0.11455
H_ H_ 0.800473 0.691804 0.0517218 0.11455
H_ H_ 0.827767 0.721504 0.0996372 0.11455
C_ C_ 0.73224 0.674702 0.405471 0.68181
C_ C_ 0.788629 0.673535 0.40146 -0.05681
C_ C_ 0.823524 0.674295 0.424425 -0.08735
C_ C_ 0.876024 0.666798 0.419414 -0.05681
C_ C_ 0.894843 0.665563 0.391178 -0.05681
C_ C_ 0.861503 0.663832 0.368054 -0.08735
C_ C_ 0.808734 0.666587 0.373359 -0.08735
C_ C_ 0.910409 0.665407 0.442887 -0.08735
C_ C_ 0.963913 0.663819 0.437995 -0.08735
C_ C_ 0.983159 0.664731 0.409236 -0.05681
C_ C_ 0.948502 0.662862 0.386052 -0.08735
C_ C_ 0.631188 0.777653 0.413717 0.68181
C_ C_ 0.639239 0.580245 0.403569 0.68181
C_ C_ 0.642531 0.524187 0.401868 -0.05681
C_ C_ 0.625853 0.993817 0.424949 -0.08735
C_ C_ 0.622926 0.940582 0.422424 -0.05681
C_ C_ 0.64373 0.917551 0.397359 -0.05681
C_ C_ 0.664501 0.948057 0.376283 -0.08735
C_ C_ 0.660772 0.99938498 0.37782 -0.08735
C_ C_ 0.606591 0.910325 0.44476 -0.08735
C_ C_ 0.605896 0.85673 0.440993 -0.08735
C_ C_ 0.626212 0.834509 0.417037 -0.05681
C_ C_ 0.645113 0.865171 0.395582 -0.08735
C_ C_ 0.534835 0.680402 0.407399 0.68181
C_ C_ 0.602858 0.621956 0.481679 0.1947
C_ C_ 0.572313 0.624494 0.0111726 -0.08735
C_ C_ 0.598171 0.6433 0.0344948 -0.08735
C_ C_ 0.628832 0.685382 0.0301325 -0.05681
C_ C_ 0.644783 0.699073 1.0010662 0.18498
C_ C_ 0.680675 0.732149 0.495927 -0.08735
C_ C_ 0.68872 0.773237 0.0194 -0.08735
C_ C_ 0.676335 0.759785 0.0473454 -0.08735
C_ C_ 0.645307 0.716648 0.0532121 0.18498
C_ C_ 0.677935 0.683535 0.098463 0.44287
C_ C_ 0.591401 0.701954 0.094982 0.44287
C_ C_ 0.583539 0.698094 0.124324 -0.05681
C_ C_ 0.534529 0.697313 0.136593 -0.08735
C_ C_ 0.527702 0.682735 0.165488 -0.08735
C_ C_ 0.572065 0.675502 0.183535 -0.05681
C_ C_ 0.621065 0.678964 0.171423 -0.05681
C_ C_ 0.625778 0.685085 0.141309 -0.05681
C_ C_ 0.671997 0.675664 0.12796 -0.05681
C_ C_ 0.713764 0.667038 0.14496 -0.08735
C_ C_ 0.7102 0.665103 0.174167 -0.08735
C_ C_ 0.661977 0.666871 0.187443 -0.05681
C_ C_ 0.655517 0.65461 0.21637 0.44287
C_ C_ 0.567826 0.666279 0.212781 0.44287
C_ C_ 0.603571 0.644861 0.259703 0.18498
C_ C_ 0.584367 0.597498 0.267832 -0.08735
C_ C_ 0.566846 0.589831 0.296267 -0.08735
C_ C_ 0.582662 0.621001 0.319086 -0.08735
C_ C_ 0.614803 0.663896 0.312277 0.18498
C_ C_ 0.625174 0.675463 0.282215 -0.05681
C_ C_ 0.651291 0.721039 0.27684 -0.08735
C_ C_ 0.672363 0.748674 0.29955 -0.08735
C_ C_ 0.66915 0.730509 0.327283 0.1947
C_ C_ 0.766833 0.809147 0.153568 0.68181
C_ C_ 0.710591 0.812087 0.149963 -0.05681
C_ C_ 0.676356 0.801648 0.172607 -0.08735
C_ C_ 0.623072 0.810831 0.168834 -0.05681
C_ C_ 0.605184 0.825879 0.142703 -0.05681
C_ C_ 0.639384 0.830234 0.119825 -0.08735
C_ C_ 0.690714 0.826545 0.123123 -0.08735
C_ C_ 0.591592 0.803647 0.192929 -0.08735
C_ C_ 0.53874 0.8097 0.189742 -0.08735
C_ C_ 0.518752 0.818789 0.161798 -0.05681
C_ C_ 0.552514 0.829722 0.139072 -0.08735
C_ C_ 0.866887 0.712613 0.164981 0.68181
C_ C_ 0.865828 0.910233 0.149425 0.68181
C_ C_ 0.866373 0.965284 0.144616 -0.05681
C_ C_ 0.849802 0.497324 0.169468 -0.08735
C_ C_ 0.85731 0.550627 0.169827 -0.05681
C_ C_ 0.883771 0.57258 0.146501 -0.05681
C_ C_ 0.892663 0.541784 0.121767 -0.08735
C_ C_ 0.858884 0.987869 0.117301 -0.08735
C_ C_ 0.841314 0.580312 0.194543 -0.08735
C_ C_ 0.845958 0.634951 0.193603 -0.08735
C_ C_ 0.870021 0.657539 0.16908 -0.05681
C_ C_ 0.887883 0.626263 0.146384 -0.08735
C_ C_ 0.965216 0.81353 0.158034 0.68181
C_ C_ 0.896117 0.871079 0.233492 0.1947
C_ C_ 0.900126 0.890503 0.260957 -0.08735
C_ C_ 0.881436 0.865041 0.284074 -0.08735
C_ C_ 0.853851 0.821151 0.279884 -0.05681
C_ C_ 0.840914 0.80956 0.250723 0.18498
C_ C_ 0.809922 0.766785 0.245916 -0.08735
C_ C_ 0.795826 0.733871 0.267628 -0.08735
C_ C_ 0.804738 0.746655 0.295944 -0.08735
C_ C_ 0.833996 0.790344 0.302382 0.18498
C_ C_ 0.807468 0.81597 0.349341 0.44287
C_ C_ 0.89463 0.795997 0.342967 0.44287
C_ C_ 0.901313 0.801038 0.37304 -0.05681
C_ C_ 0.948201 0.7883 0.386952 -0.08735
C_ C_ 0.955048 0.791854 0.416517 -0.08735
C_ C_ 0.911378 0.800393 0.43481 -0.05681
C_ C_ 0.865192 0.814848 0.42144 -0.05681
C_ C_ 0.861041 0.816753 0.390328 -0.05681
C_ C_ 0.81531 0.831254 0.377641 -0.05681
C_ C_ 0.775141 0.848652 0.39583 -0.08735
C_ C_ 0.779205 0.848631 0.425523 -0.08735
C_ C_ 0.825025 0.834191 0.438828 -0.05681
C_ C_ 0.828024 0.831212 0.468535 0.44287
C_ C_ 0.915084 0.805089 0.465441 0.44287
C_ C_ 0.880693 0.829529 0.00865512 0.18498
C_ C_ 0.904278 0.877166 0.0133379 -0.08735
C_ C_ 0.915192 0.890423 0.0406772 -0.08735
C_ C_ 0.906942 0.859706 0.0641024 -0.08735
C_ C_ 0.881905 0.812924 0.0607847 0.18498
C_ C_ 0.868647 0.797272 0.0325093 -0.05681
C_ C_ 0.842804 0.751305 0.0296228 -0.08735
C_ C_ 0.82542 0.723877 0.054081 -0.08735
C_ C_ 0.839971 0.740679 0.0809802 0.1947
N_ N_ 0.635575 0.660798 0.477003 -0.29468
N_ N_ 0.638244 0.700708 0.0827857 -0.17154
N_ N_ 0.60987 0.65187 0.228599 -0.17154
N_ N_ 0.639033 0.689509 0.333692 -0.29468
N_ N_ 0.864166 0.831292 0.22785 -0.29468
N_ N_ 0.846596 0.80173 0.332143 -0.17154
N_ N_ 0.87311 0.81857 0.481631 -0.17154
N_ N_ 0.863324 0.786928 0.0843035 -0.29468
O_ O_ 0.714271 0.683175 0.430277 -0.58347
O_ O_ 0.703616 0.677613 0.384394 -0.58347
O_ O_ 0.633043 0.75303 0.436676 -0.58347
O_ O_ 0.62752 0.756715 0.389445 -0.58347
O_ O_ 0.645102 0.603545 0.426284 -0.58347
O_ O_ 0.62931 0.605677 0.381007 -0.58347
O_ O_ 0.564805 0.679858 0.429717 -0.58347
O_ O_ 0.552827 0.690649 0.383237 -0.58347
O_ O_ 0.552396 0.713042 0.0776606 -0.46727
O_ O_ 0.722656 0.677449 0.0872354 -0.46727
O_ O_ 0.523782 0.668661 0.224481 -0.46727
O_ O_ 0.697878 0.648548 0.230491 -0.46727
O_ O_ 0.787162 0.809441 0.177901 -0.58347
O_ O_ 0.793645 0.798735 0.131952 -0.58347
O_ O_ 0.869238 0.739552 0.186843 -0.58347
O_ O_ 0.867633 0.734428 0.139891 -0.58347
O_ O_ 0.861807 0.89305 0.174391 -0.58347
O_ O_ 0.866274 0.879652 0.127501 -0.58347
O_ O_ 0.937313 0.819083 0.180308 -0.58347
O_ O_ 0.94346 0.808613 0.13383 -0.58347
O_ O_ 0.93358 0.784153 0.326646 -0.46727
O_ O_ 0.759734 0.815594 0.338947 -0.46727
O_ O_ 0.95444 0.78527 0.479287 -0.46727
O_ O_ 0.789359 0.837948 0.48524 -0.46727
Zn Zn 0.618232 0.687064 0.881971 0.90689
Zn Zn 0.628488 0.68791 0.929304 0.90689
Zn Zn 0.865919 0.817359 0.63377 0.90689
Zn Zn 0.85735 0.821547 0.679935 0.90689
H_ H_ 0.793912 0.683599 0.94738 0.11455
H_ H_ 0.864467 0.674105 0.850367 0.11455
H_ H_ 0.774713 0.69767 0.85739 0.11455
H_ H_ 0.881415 0.673558 0.969984 0.11455
H_ H_ 0.971951 0.678985 0.960564 0.11455
H_ H_ 0.95107 0.671474 0.871162 0.11455
H_ H_ 0.666022 0.519935 0.939925 0.11455
H_ H_ 0.676716 0.93822 0.852469 0.11455
H_ H_ 0.591555 0.528682 0.857919 0.11455
H_ H_ 0.580314 0.936661 0.96065 0.11455
H_ H_ 0.570605 0.844296 0.955994 0.11455
H_ H_ 0.642713 0.852911 0.873999 0.11455
H_ H_ 0.569984 0.616431 0.965918 0.11455
H_ H_ 0.565482 0.576058 0.514221 0.11455
H_ H_ 0.603141 0.617585 0.554668 0.11455
H_ H_ 0.685519 0.7528 0.97626 0.11455
H_ H_ 0.718975 0.797936 0.513716 0.11455
H_ H_ 0.683933 0.781207 0.561238 0.11455
H_ H_ 0.501276 0.711159 0.618785 0.11455
H_ H_ 0.490244 0.696901 0.671895 0.11455
H_ H_ 0.754331 0.678872 0.640737 0.11455
H_ H_ 0.737855 0.669281 0.69141 0.11455
H_ H_ 0.547915 0.59517 0.750225 0.11455
H_ H_ 0.54137 0.564395 0.79796 0.11455
H_ H_ 0.567093 0.620253 0.83913 0.11455
H_ H_ 0.645942 0.75289 0.755877 0.11455
H_ H_ 0.688915 0.794522 0.794824 0.11455
H_ H_ 0.676295 0.762205 0.846078 0.11455
H_ H_ 0.685405 0.820415 0.699183 0.11455
H_ H_ 0.623796 0.813288 0.601142 0.11455
H_ H_ 0.710757 0.818833 0.607495 0.11455
H_ H_ 0.59308 0.813838 0.716206 0.11455
H_ H_ 0.506198 0.806209 0.706451 0.11455
H_ H_ 0.534891 0.835408 0.619193 0.11455
H_ H_ 0.865592 0.987066 0.693568 0.11455
H_ H_ 0.843102 0.567952 0.599312 0.11455
H_ H_ 0.872063 0.973636 0.601388 0.11455
H_ H_ 0.918542 0.57119 0.709682 0.11455
H_ H_ 0.905689 0.658899 0.709687 0.11455
H_ H_ 0.855912 0.656512 0.62103 0.11455
H_ H_ 0.926309 0.882893 0.716687 0.11455
H_ H_ 0.941461 0.913371 0.766318 0.11455
H_ H_ 0.8878 0.880375 0.805647 0.11455
H_ H_ 0.810356 0.7496 0.723889 0.11455
H_ H_ 0.75158 0.721545 0.760795 0.11455
H_ H_ 0.779118 0.731787 0.812382 0.11455
H_ H_ 0.975641 0.789149 0.871692 0.11455
H_ H_ 0.986609 0.805173 0.922916 0.11455
H_ H_ 0.728566 0.85291 0.886601 0.11455
H_ H_ 0.744946 0.87138 0.938225 0.11455
H_ H_ 0.904412 0.906983 0.997774 0.11455
H_ H_ 0.950767 0.923086 0.546593 0.11455
H_ H_ 0.926259 0.870399 0.587457 0.11455
H_ H_ 0.823614 0.753219 0.510869 0.11455
H_ H_ 0.792882 0.711281 0.554094 0.11455
H_ H_ 0.813671 0.740968 0.601787 0.11455
C_ C_ 0.722193 0.68798 0.906627 0.68181
C_ C_ 0.778607 0.693455 0.903575 -0.05681
C_ C_ 0.809391 0.682236 0.926532 -0.08735
C_ C_ 0.863185 0.682615 0.923613 -0.05681
C_ C_ 0.883358 0.683298 0.896499 -0.05681
C_ C_ 0.850349 0.684235 0.872725 -0.08735
C_ C_ 0.798104 0.691079 0.875717 -0.08735
C_ C_ 0.895791 0.673694 0.947411 -0.08735
C_ C_ 0.947395 0.674577 0.94361 -0.08735
C_ C_ 0.969664 0.67255 0.916681 -0.05681
C_ C_ 0.937056 0.678716 0.892671 -0.08735
C_ C_ 0.612084 0.785858 0.912181 0.68181
C_ C_ 0.628313 0.587524 0.901985 0.68181
C_ C_ 0.622925 0.531593 0.900463 -0.05681
C_ C_ 0.612051 0.00297776 0.918592 -0.08735
C_ C_ 0.612376 0.951316 0.917832 -0.05681
C_ C_ 0.632965 0.926324 0.892796 -0.05681
C_ C_ 0.660441 0.956207 0.87163 -0.08735
C_ C_ 0.66585 0.00718192 0.875351 -0.08735
C_ C_ 0.596441 0.919797 0.941614 -0.08735
C_ C_ 0.590472 0.866537 0.93884 -0.08735
C_ C_ 0.609808 0.843112 0.913836 -0.05681
C_ C_ 0.62864 0.8733 0.891645 -0.08735
C_ C_ 0.526454 0.676968 0.906911 0.68181
C_ C_ 0.589078 0.636052 0.982807 0.1947
C_ C_ 0.589772 0.608025 0.509918 -0.08735
C_ C_ 0.613017 0.632049 0.532961 -0.08735
C_ C_ 0.637486 0.676461 0.528609 -0.05681
C_ C_ 0.648467 0.691043 0.499521 0.18498
C_ C_ 0.673242 0.741171 0.996699 -0.08735
C_ C_ 0.691102 0.766992 0.517463 -0.08735
C_ C_ 0.675795 0.753998 0.544513 -0.08735
C_ C_ 0.651253 0.710419 0.551282 0.18498
C_ C_ 0.679563 0.689543 0.599195 0.44287
C_ C_ 0.592071 0.707297 0.592388 0.44287
C_ C_ 0.582406 0.695333 0.621143 -0.05681
C_ C_ 0.533848 0.699153 0.632282 -0.08735
C_ C_ 0.526088 0.69046 0.661843 -0.08735
C_ C_ 0.567456 0.687471 0.680877 -0.05681
C_ C_ 0.615248 0.684147 0.670237 -0.05681
C_ C_ 0.622795 0.688474 0.640074 -0.05681
C_ C_ 0.673177 0.68989 0.629126 -0.05681
C_ C_ 0.713416 0.678095 0.648284 -0.08735
C_ C_ 0.705925 0.671196 0.677009 -0.08735
C_ C_ 0.656741 0.675284 0.688276 -0.05681
C_ C_ 0.648604 0.668947 0.71757 0.44287
C_ C_ 0.560668 0.684941 0.711337 0.44287
C_ C_ 0.59117 0.662358 0.760026 0.18498
C_ C_ 0.563158 0.617961 0.766557 -0.08735
C_ C_ 0.557952 0.601449 0.794515 -0.08735
C_ C_ 0.572366 0.633954 0.817981 -0.08735
C_ C_ 0.600866 0.678817 0.81157 0.18498
C_ C_ 0.609405 0.693745 0.783127 -0.05681
C_ C_ 0.63874 0.737627 0.777699 -0.08735
C_ C_ 0.663879 0.761936 0.799748 -0.08735
C_ C_ 0.655235 0.74551 0.828283 0.1947
C_ C_ 0.761007 0.815568 0.658539 0.68181
C_ C_ 0.704954 0.81373 0.65393 -0.05681
C_ C_ 0.671203 0.815514 0.677479 -0.08735
C_ C_ 0.619126 0.823108 0.672212 -0.05681
C_ C_ 0.601808 0.821123 0.644059 -0.05681
C_ C_ 0.636281 0.814692 0.622249 -0.08735
C_ C_ 0.686303 0.82187 0.625948 -0.08735
C_ C_ 0.581715 0.81925 0.694078 -0.08735
C_ C_ 0.530666 0.816447 0.688732 -0.08735
C_ C_ 0.512902 0.821193 0.661015 -0.05681
C_ C_ 0.548744 0.824953 0.639615 -0.08735
C_ C_ 0.874433 0.722388 0.663365 0.68181
C_ C_ 0.862276 0.916764 0.651258 0.68181
C_ C_ 0.868245 0.972687 0.648762 -0.05681
C_ C_ 0.891346 0.504784 0.668832 -0.08735
C_ C_ 0.892018 0.558773 0.66655 -0.05681
C_ C_ 0.875422 0.582711 0.641362 -0.05681
C_ C_ 0.85897 0.55199 0.618546 -0.08735
C_ C_ 0.868685 0.996328 0.621361 -0.08735
C_ C_ 0.906054 0.589348 0.690249 -0.08735
C_ C_ 0.895571 0.63989 0.690247 -0.08735
C_ C_ 0.877001 0.665011 0.665207 -0.05681
C_ C_ 0.872041 0.635726 0.639623 -0.08735
C_ C_ 0.961103 0.826832 0.657062 0.68181
C_ C_ 0.902607 0.868924 0.733392 0.1947
C_ C_ 0.91103 0.886307 0.761463 -0.08735
C_ C_ 0.880254 0.866859 0.783954 -0.08735
C_ C_ 0.848283 0.823556 0.778383 -0.05681
C_ C_ 0.84277 0.808174 0.749855 0.18498
C_ C_ 0.809426 0.767754 0.743822 -0.08735
C_ C_ 0.787873 0.740636 0.767234 -0.08735
C_ C_ 0.799436 0.751256 0.795723 -0.08735
C_ C_ 0.830608 0.793523 0.802459 0.18498
C_ C_ 0.798683 0.825295 0.848118 0.44287
C_ C_ 0.884508 0.800081 0.842727 0.44287
C_ C_ 0.894758 0.808543 0.872383 -0.05681
C_ C_ 0.942503 0.802692 0.884075 -0.08735
C_ C_ 0.948344 0.802517 0.912895 -0.08735
C_ C_ 0.908006 0.812791 0.931451 -0.05681
C_ C_ 0.86028 0.822901 0.920261 -0.05681
C_ C_ 0.853922 0.822108 0.889745 -0.05681
C_ C_ 0.806457 0.83288 0.877544 -0.05681
C_ C_ 0.767394 0.848708 0.896253 -0.08735
C_ C_ 0.774838 0.853381 0.925546 -0.08735
C_ C_ 0.821127 0.835965 0.937302 -0.05681
C_ C_ 0.827504 0.83212 0.967637 0.44287
C_ C_ 0.911336 0.807325 0.961997 0.44287
C_ C_ 0.88165 0.836299 0.510968 0.18498
C_ C_ 0.912169 0.879836 0.51551 -0.08735
C_ C_ 0.927289 0.890907 0.54326 -0.08735
C_ C_ 0.914067 0.861494 0.565974 -0.08735
C_ C_ 0.881537 0.821363 0.562624 0.18498
C_ C_ 0.864759 0.809074 0.535065 -0.05681
C_ C_ 0.833932 0.766705 0.530921 -0.08735
C_ C_ 0.817668 0.741972 0.555626 -0.08735
C_ C_ 0.828257 0.759254 0.582672 0.1947
N_ N_ 0.623591 0.674196 0.977377 -0.29468
N_ N_ 0.640558 0.698977 0.581517 -0.17154
N_ N_ 0.60133 0.674849 0.729409 -0.17154
N_ N_ 0.623967 0.706286 0.833846 -0.29468
N_ N_ 0.870396 0.830071 0.727918 -0.29468
N_ N_ 0.837179 0.804674 0.832174 -0.17154
N_ N_ 0.871866 0.816216 0.979877 -0.17154
N_ N_ 0.859377 0.799441 0.586292 -0.29468
O_ O_ 0.703458 0.685679 0.930956 -0.58347
O_ O_ 0.694136 0.692798 0.884435 -0.58347
O_ O_ 0.620579 0.761741 0.934694 -0.58347
O_ O_ 0.612071 0.76354 0.887462 -0.58347
O_ O_ 0.634239 0.607788 0.925945 -0.58347
O_ O_ 0.626084 0.614082 0.879375 -0.58347
O_ O_ 0.553891 0.679164 0.928812 -0.58347
O_ O_ 0.543543 0.686577 0.882932 -0.58347
O_ O_ 0.555895 0.718221 0.574362 -0.46727
O_ O_ 0.725028 0.685771 0.589491 -0.46727
O_ O_ 0.516731 0.693942 0.72178 -0.46727
O_ O_ 0.688866 0.659103 0.733953 -0.46727
O_ O_ 0.778751 0.820741 0.683576 -0.58347
O_ O_ 0.791614 0.80466 0.637885 -0.58347
O_ O_ 0.860049 0.746477 0.685264 -0.58347
O_ O_ 0.881201 0.744108 0.641172 -0.58347
O_ O_ 0.858512 0.897308 0.675257 -0.58347
O_ O_ 0.856101 0.891156 0.629208 -0.58347
O_ O_ 0.93171 0.828208 0.678345 -0.58347
O_ O_ 0.944344 0.823553 0.631912 -0.58347
O_ O_ 0.919946 0.783735 0.825787 -0.46727
O_ O_ 0.757141 0.83471 0.835401 -0.46727
O_ O_ 0.954345 0.792772 0.972724 -0.46727
O_ O_ 0.787566 0.83857 0.984075 -0.46727
