_cell_length_a 26.376
_cell_length_b 26.400000238300095
_cell_length_c 46.67800035477134
_cell_angle_alpha 90.00700052986613
_cell_angle_beta 89.99899961309502
_cell_angle_gamma 90.45000003183146
_symmetry_space_group_name_H-M         'P 1'
_symmetry_Int_Tables_number            1
loop_
_symmetry_equiv_pos_as_xyz
   'x, y, z'
                         
loop_
_atom_site_label
_atom_site_type_symbol
_atom_site_fract_x 
_atom_site_fract_y
_atom_site_fract_z
_atom_site_charge
Zn Zn 0.12026 0.179979 0.3795 0.90689
Zn Zn 0.127194 0.169392 0.429377 0.90689
Zn Zn 0.37537 0.315751 0.131163 0.90689
Zn Zn 0.372637 0.329509 0.18035 0.90689
H_ H_ 0.298697 0.166261 0.445364 0.11455
H_ H_ 0.368716 0.182089 0.348105 0.11455
H_ H_ 0.278559 0.185397 0.354837 0.11455
H_ H_ 0.38644 0.165941 0.466002 0.11455
H_ H_ 0.475793 0.177596 0.459057 0.11455
H_ H_ 0.448823 0.191189 0.367876 0.11455
H_ H_ 0.121757 0.0032045 0.448486 0.11455
H_ H_ 0.0933253 0.432564 0.348044 0.11455
H_ H_ 0.135873 0.0204927 0.357089 0.11455
H_ H_ 0.140626 0.416419 0.462947 0.11455
H_ H_ 0.122784 0.32635 0.457709 0.11455
H_ H_ 0.0910352 0.349726 0.367141 0.11455
H_ H_ 0.0559183 0.112366 0.465113 0.11455
H_ H_ 0.0896594 0.0583884 0.0156283 0.11455
H_ H_ 0.104555 0.115812 0.0537669 0.11455
H_ H_ 0.174807 0.242962 0.472029 0.11455
H_ H_ 0.222055 0.290251 0.00797636 0.11455
H_ H_ 0.197997 0.276973 0.0596691 0.11455
H_ H_ 0.00618699 0.202095 0.123689 0.11455
H_ H_ -0.009143000000000012 0.174865 0.172117 0.11455
H_ H_ 0.259323 0.167858 0.140746 0.11455
H_ H_ 0.24247 0.152031 0.190872 0.11455
H_ H_ 0.0665831 0.0772675 0.248438 0.11455
H_ H_ 0.0383778 0.0582375 0.299883 0.11455
H_ H_ 0.0698347 0.111473 0.338825 0.11455
H_ H_ 0.158971 0.236873 0.257008 0.11455
H_ H_ 0.180129 0.290738 0.296405 0.11455
H_ H_ 0.169014 0.256131 0.347699 0.11455
H_ H_ 0.198519 0.325365 0.195599 0.11455
H_ H_ 0.127325 0.318804 0.0988485 0.11455
H_ H_ 0.218594 0.317516 0.104474 0.11455
H_ H_ 0.115306 0.319086 0.216305 0.11455
H_ H_ 0.0212774 0.322061 0.211299 0.11455
H_ H_ 0.0413543 0.324147 0.119644 0.11455
H_ H_ 0.386277 0.4881 0.187105 0.11455
H_ H_ 0.422744 0.0703163 0.102971 0.11455
H_ H_ 0.352246 0.479105 0.100144 0.11455
H_ H_ 0.347132 0.0758476 0.214045 0.11455
H_ H_ 0.352905 0.169067 0.20975 0.11455
H_ H_ 0.410284 0.153787 0.123632 0.11455
H_ H_ 0.423588 0.3949 0.213005 0.11455
H_ H_ 0.458392 0.41519 0.258671 0.11455
H_ H_ 0.420883 0.375763 0.304086 0.11455
H_ H_ 0.310172 0.262817 0.223495 0.11455
H_ H_ 0.275348 0.213052 0.264741 0.11455
H_ H_ 0.29026 0.237028 0.310907 0.11455
H_ H_ 0.48301 0.300075 0.375891 0.11455
H_ H_ 0.488987 0.292989 0.428419 0.11455
H_ H_ 0.239156 0.347598 0.385328 0.11455
H_ H_ 0.244574 0.364419 0.43759 0.11455
H_ H_ 0.423912 0.416651 0.504423 0.11455
H_ H_ 0.427215 0.447383 0.0475469 0.11455
H_ H_ 0.42584 0.382143 0.0861337 0.11455
H_ H_ 0.321654 0.264025 0.00844977 0.11455
H_ H_ 0.303622 0.207582 0.0475297 0.11455
H_ H_ 0.336813 0.230485 0.095516 0.11455
C_ C_ 0.223166 0.177766 0.40595 0.68181
C_ C_ 0.279077 0.180085 0.401538 -0.05681
C_ C_ 0.311967 0.173755 0.424592 -0.08735
C_ C_ 0.365836 0.174173 0.421319 -0.05681
C_ C_ 0.385445 0.1797 0.39392 -0.05681
C_ C_ 0.353337 0.177069 0.370198 -0.08735
C_ C_ 0.300712 0.183406 0.374274 -0.08735
C_ C_ 0.399964 0.171617 0.44459 -0.08735
C_ C_ 0.451861 0.176914 0.439794 -0.08735
C_ C_ 0.472426 0.17844 0.4124 -0.05681
C_ C_ 0.43718 0.182125 0.389472 -0.08735
C_ C_ 0.114412 0.273606 0.407399 0.68181
C_ C_ 0.125342 0.076306 0.402964 0.68181
C_ C_ 0.127261 0.0184102 0.402181 -0.05681
C_ C_ 0.139538 0.486914 0.421271 -0.08735
C_ C_ 0.12897 0.433278 0.417987 -0.05681
C_ C_ 0.112879 0.415751 0.391247 -0.05681
C_ C_ 0.0999454 0.449173 0.369815 -0.08735
C_ C_ 0.110549 0.500437 0.37179 -0.08735
C_ C_ 0.131729 0.40169 0.441966 -0.08735
C_ C_ 0.122022 0.349538 0.438686 -0.08735
C_ C_ 0.110592 0.328697 0.411096 -0.05681
C_ C_ 0.105513 0.362185 0.387286 -0.08735
C_ C_ 0.0260818 0.169154 0.404258 0.68181
C_ C_ 0.0771574 0.127553 0.482999 0.1947
C_ C_ 0.10279 0.0949589 0.00972231 -0.08735
C_ C_ 0.11856 0.12498 0.0325595 -0.08735
C_ C_ 0.137434 0.174196 0.0284741 -0.05681
C_ C_ 0.147529 0.187483 0.998816 0.18498
C_ C_ 0.169935 0.230847 0.494165 -0.08735
C_ C_ 0.195762 0.258559 0.0143684 -0.08735
C_ C_ 0.182766 0.24889 0.0439839 -0.08735
C_ C_ 0.154243 0.207011 0.0521434 0.18498
C_ C_ 0.184602 0.185745 0.100064 0.44287
C_ C_ 0.0963116 0.201038 0.0941204 0.44287
C_ C_ 0.0878774 0.190766 0.123368 -0.05681
C_ C_ 0.038286 0.187843 0.135342 -0.08735
C_ C_ 0.0305162 0.180991 0.165026 -0.08735
C_ C_ 0.0733617 0.17514 0.183571 -0.05681
C_ C_ 0.121221 0.168067 0.170734 -0.05681
C_ C_ 0.13004 0.180064 0.141764 -0.05681
C_ C_ 0.18016 0.178962 0.130269 -0.05681
C_ C_ 0.221024 0.164414 0.148279 -0.08735
C_ C_ 0.210537 0.155287 0.176921 -0.08735
C_ C_ 0.163335 0.158668 0.188703 -0.05681
C_ C_ 0.158272 0.157823 0.218127 0.44287
C_ C_ 0.0674584 0.168293 0.213175 0.44287
C_ C_ 0.102274 0.149326 0.260102 0.18498
C_ C_ 0.0772993 0.103481 0.26626 -0.08735
C_ C_ 0.0661133 0.0880025 0.29456 -0.08735
C_ C_ 0.077158 0.120309 0.317403 -0.08735
C_ C_ 0.111215 0.162033 0.311564 0.18498
C_ C_ 0.122399 0.177248 0.282609 -0.05681
C_ C_ 0.15033 0.223315 0.278092 -0.08735
C_ C_ 0.165272 0.253133 0.301357 -0.08735
C_ C_ 0.156661 0.234843 0.329275 0.1947
C_ C_ 0.274271 0.314825 0.154483 0.68181
C_ C_ 0.218425 0.319372 0.150373 -0.05681
C_ C_ 0.183162 0.321998 0.174381 -0.08735
C_ C_ 0.130979 0.320822 0.170929 -0.05681
C_ C_ 0.110281 0.317786 0.144021 -0.05681
C_ C_ 0.141152 0.317141 0.120496 -0.08735
C_ C_ 0.196762 0.318658 0.1234 -0.08735
C_ C_ 0.0997191 0.324784 0.195471 -0.08735
C_ C_ 0.0476511 0.326979 0.192491 -0.08735
C_ C_ 0.0278081 0.321941 0.163922 -0.05681
C_ C_ 0.0589933 0.32337 0.139554 -0.08735
C_ C_ 0.38024 0.225029 0.162429 0.68181
C_ C_ 0.368309 0.422363 0.147741 0.68181
C_ C_ 0.377356 0.478713 0.144751 -0.05681
C_ C_ 0.352909 0.0112225 0.169499 -0.08735
C_ C_ 0.370398 0.0637951 0.170011 -0.05681
C_ C_ 0.393675 0.0845247 0.14547 -0.05681
C_ C_ 0.406339 0.0526297 0.122657 -0.08735
C_ C_ 0.364352 0.502041 0.118655 -0.08735
C_ C_ 0.357774 0.0931747 0.193709 -0.08735
C_ C_ 0.362301 0.146243 0.192307 -0.08735
C_ C_ 0.379178 0.169485 0.165837 -0.05681
C_ C_ 0.397824 0.138533 0.143878 -0.08735
C_ C_ 0.472939 0.325708 0.155497 0.68181
C_ C_ 0.41104 0.373205 0.23116 0.1947
C_ C_ 0.427685 0.388323 0.257731 -0.08735
C_ C_ 0.408257 0.363772 0.282294 -0.08735
C_ C_ 0.370844 0.322996 0.278423 -0.05681
C_ C_ 0.357187 0.308939 0.249647 0.18498
C_ C_ 0.320061 0.272001 0.245765 -0.08735
C_ C_ 0.306884 0.240218 0.267479 -0.08735
C_ C_ 0.315727 0.255624 0.295825 -0.08735
C_ C_ 0.348435 0.29756 0.302702 0.18498
C_ C_ 0.311139 0.319412 0.349587 0.44287
C_ C_ 0.397453 0.298165 0.346683 0.44287
C_ C_ 0.403975 0.30495 0.376658 -0.05681
C_ C_ 0.450675 0.303106 0.390048 -0.08735
C_ C_ 0.452807 0.301108 0.4195 -0.08735
C_ C_ 0.410676 0.30976 0.436683 -0.05681
C_ C_ 0.364438 0.317903 0.423358 -0.05681
C_ C_ 0.36064 0.316303 0.392945 -0.05681
C_ C_ 0.314009 0.325288 0.379458 -0.05681
C_ C_ 0.273247 0.338247 0.39596 -0.08735
C_ C_ 0.276726 0.347005 0.425531 -0.08735
C_ C_ 0.321587 0.331467 0.439795 -0.05681
C_ C_ 0.328811 0.339089 0.469673 0.44287
C_ C_ 0.413934 0.310729 0.466411 0.44287
C_ C_ 0.375215 0.351743 0.00859234 0.18498
C_ C_ 0.397293 0.399147 0.0150846 -0.08735
C_ C_ 0.409682 0.411352 0.043557 -0.08735
C_ C_ 0.412833 0.372998 0.0643015 -0.08735
C_ C_ 0.383598 0.328294 0.0603402 0.18498
C_ C_ 0.367002 0.316837 0.0311096 -0.05681
C_ C_ 0.339789 0.271247 0.0280168 -0.08735
C_ C_ 0.32737 0.241789 0.0515896 -0.08735
C_ C_ 0.345501 0.254776 0.0789415 0.1947
N_ N_ 0.113392 0.164133 0.477601 -0.29468
N_ N_ 0.144465 0.197525 0.0828413 -0.17154
N_ N_ 0.109172 0.160843 0.230067 -0.17154
N_ N_ 0.130871 0.190221 0.333502 -0.29468
N_ N_ 0.378181 0.336124 0.226971 -0.29468
N_ N_ 0.35343 0.309664 0.332675 -0.17154
N_ N_ 0.374687 0.328897 0.482436 -0.17154
N_ N_ 0.365818 0.300866 0.0832103 -0.29468
O_ O_ 0.206237 0.166557 0.430498 -0.58347
O_ O_ 0.19289 0.190743 0.385444 -0.58347
O_ O_ 0.13174 0.244448 0.427038 -0.58347
O_ O_ 0.105528 0.254975 0.383008 -0.58347
O_ O_ 0.114816 0.0974249 0.426517 -0.58347
O_ O_ 0.13284 0.104751 0.379573 -0.58347
O_ O_ 0.0535946 0.173859 0.426153 -0.58347
O_ O_ 0.0459567 0.172163 0.378844 -0.58347
O_ O_ 0.0569443 0.207757 0.0772768 -0.46727
O_ O_ 0.227362 0.172406 0.0877057 -0.46727
O_ O_ 0.0231292 0.169539 0.22532 -0.46727
O_ O_ 0.19487 0.138024 0.233973 -0.46727
O_ O_ 0.295679 0.332409 0.176901 -0.58347
O_ O_ 0.301485 0.300632 0.134048 -0.58347
O_ O_ 0.365229 0.254255 0.182866 -0.58347
O_ O_ 0.388163 0.242754 0.137936 -0.58347
O_ O_ 0.371731 0.404151 0.172909 -0.58347
O_ O_ 0.364459 0.393112 0.126532 -0.58347
O_ O_ 0.446504 0.318033 0.177259 -0.58347
O_ O_ 0.450107 0.331426 0.131571 -0.58347
O_ O_ 0.433667 0.276842 0.331299 -0.46727
O_ O_ 0.268978 0.330064 0.336181 -0.46727
O_ O_ 0.452958 0.291759 0.479585 -0.46727
O_ O_ 0.290749 0.355742 0.485535 -0.46727
Zn Zn 0.121247 0.189923 0.881869 0.90689
Zn Zn 0.127795 0.175327 0.929473 0.90689
Zn Zn 0.369168 0.304722 0.631796 0.90689
Zn Zn 0.352783 0.310501 0.678541 0.90689
H_ H_ 0.291138 0.194541 0.94562 0.11455
H_ H_ 0.364119 0.168553 0.848875 0.11455
H_ H_ 0.272874 0.162919 0.855169 0.11455
H_ H_ 0.380167 0.199698 0.962698 0.11455
H_ H_ 0.469577 0.21275 0.955225 0.11455
H_ H_ 0.448072 0.170297 0.867143 0.11455
H_ H_ 0.169797 0.0121103 0.93377 0.11455
H_ H_ 0.134012 0.433815 0.853413 0.11455
H_ H_ 0.137785 0.0231452 0.844269 0.11455
H_ H_ 0.104994 0.42277 0.971243 0.11455
H_ H_ 0.111799 0.330716 0.965195 0.11455
H_ H_ 0.112633 0.351391 0.874513 0.11455
H_ H_ 0.0831186 0.0965991 0.965144 0.11455
H_ H_ 0.0417638 0.0798651 0.515226 0.11455
H_ H_ 0.084313 0.125078 0.554484 0.11455
H_ H_ 0.185281 0.240863 0.97031 0.11455
H_ H_ 0.204669 0.298878 0.508601 0.11455
H_ H_ 0.198954 0.269916 0.5602 0.11455
H_ H_ -0.0011250000000000426 0.205732 0.621368 0.11455
H_ H_ -0.014492999999999978 0.194298 0.671243 0.11455
H_ H_ 0.249563 0.161969 0.641569 0.11455
H_ H_ 0.235803 0.148094 0.692364 0.11455
H_ H_ 0.0564318 0.0851569 0.752498 0.11455
H_ H_ 0.0401131 0.0654227 0.802529 0.11455
H_ H_ 0.0617044 0.119159 0.840184 0.11455
H_ H_ 0.141323 0.247568 0.755618 0.11455
H_ H_ 0.183989 0.294534 0.795298 0.11455
H_ H_ 0.166001 0.267488 0.845629 0.11455
H_ H_ 0.187256 0.279841 0.68931 0.11455
H_ H_ 0.123767 0.332796 0.593691 0.11455
H_ H_ 0.214693 0.332462 0.603189 0.11455
H_ H_ 0.103607 0.298648 0.712596 0.11455
H_ H_ 0.0134061 0.309415 0.705828 0.11455
H_ H_ 0.033729 0.328333 0.613984 0.11455
H_ H_ 0.345242 0.484675 0.693986 0.11455
H_ H_ 0.40911 0.0497322 0.597818 0.11455
H_ H_ 0.351554 0.465525 0.602159 0.11455
H_ H_ 0.367978 0.0584869 0.716483 0.11455
H_ H_ 0.366164 0.155706 0.708821 0.11455
H_ H_ 0.389071 0.135805 0.618963 0.11455
H_ H_ 0.396088 0.393345 0.712331 0.11455
H_ H_ 0.422386 0.415669 0.759314 0.11455
H_ H_ 0.390653 0.365805 0.80222 0.11455
H_ H_ 0.306003 0.240871 0.721838 0.11455
H_ H_ 0.251058 0.208941 0.761091 0.11455
H_ H_ 0.286654 0.215047 0.809203 0.11455
H_ H_ 0.475369 0.30139 0.870604 0.11455
H_ H_ 0.484851 0.313611 0.920767 0.11455
H_ H_ 0.225395 0.327409 0.886046 0.11455
H_ H_ 0.23289 0.324568 0.938551 0.11455
H_ H_ 0.40752 0.429462 -0.00016799999999994597 0.11455
H_ H_ 0.447548 0.430954 0.554695 0.11455
H_ H_ 0.415718 0.372213 0.591456 0.11455
H_ H_ 0.321497 0.260553 0.508391 0.11455
H_ H_ 0.290553 0.209541 0.548612 0.11455
H_ H_ 0.315074 0.229384 0.595994 0.11455
C_ C_ 0.220038 0.187274 0.904486 0.68181
C_ C_ 0.274228 0.180269 0.901337 -0.05681
C_ C_ 0.307443 0.186036 0.924904 -0.08735
C_ C_ 0.361209 0.186939 0.920354 -0.05681
C_ C_ 0.38058 0.176775 0.892676 -0.05681
C_ C_ 0.34889 0.175447 0.869935 -0.08735
C_ C_ 0.296028 0.175801 0.873492 -0.08735
C_ C_ 0.394962 0.195329 0.942597 -0.08735
C_ C_ 0.446511 0.193893 0.937697 -0.08735
C_ C_ 0.467767 0.183126 0.91121 -0.05681
C_ C_ 0.434242 0.17256 0.889059 -0.08735
C_ C_ 0.11546 0.276429 0.915269 0.68181
C_ C_ 0.141064 0.0845434 0.894652 0.68181
C_ C_ 0.139067 0.0261458 0.890554 -0.05681
C_ C_ 0.1307 0.494988 0.930829 -0.08735
C_ C_ 0.125304 0.441012 0.927777 -0.05681
C_ C_ 0.12782 0.418628 0.899339 -0.05681
C_ C_ 0.137304 0.448955 0.874593 -0.08735
C_ C_ 0.146962 0.502075 0.87896 -0.08735
C_ C_ 0.112485 0.408385 0.950473 -0.08735
C_ C_ 0.117252 0.355391 0.946872 -0.08735
C_ C_ 0.115175 0.333112 0.919496 -0.05681
C_ C_ 0.119523 0.367549 0.895974 -0.08735
C_ C_ 0.026471 0.171015 0.907505 0.68181
C_ C_ 0.100466 0.115012 0.982482 0.1947
C_ C_ 0.0674414 0.111057 0.510306 -0.08735
C_ C_ 0.0927617 0.135243 0.533163 -0.08735
C_ C_ 0.125973 0.178539 0.528738 -0.05681
C_ C_ 0.136285 0.190921 0.499242 0.18498
C_ C_ 0.176674 0.228834 0.9916 -0.08735
C_ C_ 0.187668 0.261581 0.515481 -0.08735
C_ C_ 0.178711 0.248165 0.544124 -0.08735
C_ C_ 0.147434 0.20829 0.551782 0.18498
C_ C_ 0.177947 0.186885 0.600143 0.44287
C_ C_ 0.0904557 0.209346 0.593423 0.44287
C_ C_ 0.0818629 0.196857 0.623164 -0.05681
C_ C_ 0.0322437 0.197633 0.634393 -0.08735
C_ C_ 0.0248536 0.19121 0.664133 -0.08735
C_ C_ 0.0644712 0.179475 0.683527 -0.05681
C_ C_ 0.111878 0.175443 0.672135 -0.05681
C_ C_ 0.120869 0.183589 0.642114 -0.05681
C_ C_ 0.169653 0.180212 0.63017 -0.05681
C_ C_ 0.210127 0.169227 0.649248 -0.08735
C_ C_ 0.20314 0.159084 0.678246 -0.08735
C_ C_ 0.15472 0.168785 0.69131 -0.05681
C_ C_ 0.145523 0.162334 0.720362 0.44287
C_ C_ 0.0575129 0.177469 0.713064 0.44287
C_ C_ 0.0896147 0.159053 0.760983 0.18498
C_ C_ 0.0703192 0.111032 0.769002 -0.08735
C_ C_ 0.0584624 0.100419 0.797799 -0.08735
C_ C_ 0.0736067 0.13216 0.819102 -0.08735
C_ C_ 0.100941 0.175427 0.81304 0.18498
C_ C_ 0.112662 0.188084 0.783242 -0.05681
C_ C_ 0.135226 0.236857 0.777458 -0.08735
C_ C_ 0.155891 0.264379 0.799702 -0.08735
C_ C_ 0.145552 0.246898 0.828353 0.1947
C_ C_ 0.263111 0.305063 0.65253 0.68181
C_ C_ 0.207588 0.309062 0.647318 -0.05681
C_ C_ 0.173887 0.300642 0.670478 -0.08735
C_ C_ 0.12314 0.308851 0.667283 -0.05681
C_ C_ 0.102716 0.320355 0.639351 -0.05681
C_ C_ 0.136809 0.329713 0.616554 -0.08735
C_ C_ 0.187637 0.325178 0.621169 -0.08735
C_ C_ 0.0892819 0.30767 0.690361 -0.08735
C_ C_ 0.0371898 0.313445 0.686503 -0.08735
C_ C_ 0.0159733 0.319237 0.658927 -0.05681
C_ C_ 0.0492289 0.32415 0.635217 -0.08735
C_ C_ 0.376276 0.208041 0.65986 0.68181
C_ C_ 0.357472 0.408243 0.65084 0.68181
C_ C_ 0.359287 0.464629 0.646951 -0.05681
C_ C_ 0.36557 -0.008511000000000046 0.670956 -0.08735
C_ C_ 0.374582 0.0439601 0.670243 -0.05681
C_ C_ 0.383971 0.0668971 0.643744 -0.05681
C_ C_ 0.397774 0.0346948 0.619596 -0.08735
C_ C_ 0.361255 0.487963 0.619514 -0.08735
C_ C_ 0.370104 0.0761709 0.694642 -0.08735
C_ C_ 0.370844 0.130375 0.690946 -0.08735
C_ C_ 0.376471 0.152005 0.663867 -0.05681
C_ C_ 0.383252 0.119456 0.639372 -0.08735
C_ C_ 0.460376 0.308785 0.656425 0.68181
C_ C_ 0.385239 0.367886 0.728634 0.1947
C_ C_ 0.398547 0.382021 0.756642 -0.08735
C_ C_ 0.381026 0.354926 0.779984 -0.08735
C_ C_ 0.353647 0.308154 0.775988 -0.05681
C_ C_ 0.341848 0.295312 0.747417 0.18498
C_ C_ 0.309642 0.254667 0.742159 -0.08735
C_ C_ 0.286068 0.229956 0.765059 -0.08735
C_ C_ 0.299637 0.24098 0.793553 -0.08735
C_ C_ 0.330897 0.280914 0.800457 0.18498
C_ C_ 0.298911 0.314862 0.846614 0.44287
C_ C_ 0.385622 0.291005 0.841256 0.44287
C_ C_ 0.392556 0.298991 0.871419 -0.05681
C_ C_ 0.441058 0.308381 0.88286 -0.08735
C_ C_ 0.448143 0.318821 0.911948 -0.08735
C_ C_ 0.404287 0.323075 0.930929 -0.05681
C_ C_ 0.357072 0.318674 0.919024 -0.05681
C_ C_ 0.34935 0.311225 0.888928 -0.05681
C_ C_ 0.302168 0.31767 0.876831 -0.05681
C_ C_ 0.25962 0.321785 0.895015 -0.08735
C_ C_ 0.266818 0.328539 0.924351 -0.08735
C_ C_ 0.315282 0.328787 0.936437 -0.05681
C_ C_ 0.323272 0.340068 0.965508 0.44287
C_ C_ 0.409243 0.331234 0.96112 0.44287
C_ C_ 0.382227 0.345794 0.511314 0.18498
C_ C_ 0.412042 0.389018 0.520071 -0.08735
C_ C_ 0.423898 0.398182 0.548793 -0.08735
C_ C_ 0.403405 0.368388 0.570485 -0.08735
C_ C_ 0.373779 0.326435 0.564657 0.18498
C_ C_ 0.361428 0.31591 0.53488 -0.05681
C_ C_ 0.330945 0.274203 0.529668 -0.08735
C_ C_ 0.311468 0.245824 0.551527 -0.08735
C_ C_ 0.327528 0.254174 0.579326 0.1947
N_ N_ 0.125931 0.15953 0.976961 -0.29468
N_ N_ 0.13874 0.200254 0.582189 -0.17154
N_ N_ 0.0977238 0.170041 0.731637 -0.17154
N_ N_ 0.120014 0.20364 0.834619 -0.29468
N_ N_ 0.358339 0.324429 0.724815 -0.29468
N_ N_ 0.33871 0.294991 0.830422 -0.17154
N_ N_ 0.368584 0.339428 0.977898 -0.17154
N_ N_ 0.354662 0.297451 0.585587 -0.29468
O_ O_ 0.199225 0.187902 0.929394 -0.58347
O_ O_ 0.193369 0.19234 0.881721 -0.58347
O_ O_ 0.114531 0.245138 0.937179 -0.58347
O_ O_ 0.117799 0.260462 0.890091 -0.58347
O_ O_ 0.137402 0.101591 0.920544 -0.58347
O_ O_ 0.128458 0.113267 0.874567 -0.58347
O_ O_ 0.055154 0.165346 0.929279 -0.58347
O_ O_ 0.0447327 0.181038 0.882326 -0.58347
O_ O_ 0.0534552 0.223282 0.57713 -0.46727
O_ O_ 0.224212 0.191455 0.590524 -0.46727
O_ O_ 0.0124104 0.184534 0.724548 -0.46727
O_ O_ 0.182441 0.15316 0.737617 -0.46727
O_ O_ 0.280065 0.299513 0.677358 -0.58347
O_ O_ 0.294192 0.312787 0.632715 -0.58347
O_ O_ 0.373763 0.234518 0.68219 -0.58347
O_ O_ 0.3645 0.227484 0.636026 -0.58347
O_ O_ 0.336073 0.388607 0.672741 -0.58347
O_ O_ 0.373059 0.381554 0.630379 -0.58347
O_ O_ 0.428757 0.325498 0.674443 -0.58347
O_ O_ 0.444294 0.297116 0.631578 -0.58347
O_ O_ 0.422565 0.274579 0.825891 -0.46727
O_ O_ 0.255557 0.325344 0.833692 -0.46727
O_ O_ 0.454159 0.323829 0.97379 -0.46727
O_ O_ 0.283833 0.346651 0.981481 -0.46727
Zn Zn 0.133119 0.679933 0.385887 0.90689
Zn Zn 0.140857 0.673143 0.43288 0.90689
Zn Zn 0.375613 0.821537 0.13279 0.90689
Zn Zn 0.368447 0.825328 0.180555 0.90689
H_ H_ 0.316739 0.677331 0.446824 0.11455
H_ H_ 0.377631 0.678973 0.3464 0.11455
H_ H_ 0.285856 0.669739 0.354504 0.11455
H_ H_ 0.398218 0.689343 0.464731 0.11455
H_ H_ 0.492018 0.696095 0.45613 0.11455
H_ H_ 0.463609 0.699503 0.364487 0.11455
H_ H_ 0.149344 0.502139 0.443041 0.11455
H_ H_ 0.147252 0.926204 0.353366 0.11455
H_ H_ 0.1036 0.524679 0.35461 0.11455
H_ H_ 0.104527 0.922423 0.468052 0.11455
H_ H_ 0.105746 0.825952 0.464404 0.11455
H_ H_ 0.117099 0.845138 0.372654 0.11455
H_ H_ 0.088958 0.59735 0.467797 0.11455
H_ H_ 0.0667939 0.593257 0.0205306 0.11455
H_ H_ 0.0926562 0.645493 0.0612175 0.11455
H_ H_ 0.192984 0.738052 0.475683 0.11455
H_ H_ 0.232607 0.802679 0.0181927 0.11455
H_ H_ 0.2078 0.785677 0.068459 0.11455
H_ H_ 0.0150569 0.720486 0.122884 0.11455
H_ H_ 0.00011999999999989797 0.721654 0.173956 0.11455
H_ H_ 0.262649 0.67828 0.148842 0.11455
H_ H_ 0.243202 0.660299 0.198145 0.11455
H_ H_ 0.0387483 0.613741 0.253191 0.11455
H_ H_ 0.02847 0.582953 0.302086 0.11455
H_ H_ 0.0590761 0.633028 0.341513 0.11455
H_ H_ 0.161049 0.75437 0.262775 0.11455
H_ H_ 0.208839 0.782683 0.30113 0.11455
H_ H_ 0.207323 0.736512 0.347793 0.11455
H_ H_ 0.201242 0.838467 0.195499 0.11455
H_ H_ 0.130683 0.843894 0.0951242 0.11455
H_ H_ 0.226139 0.8466 0.103813 0.11455
H_ H_ 0.112306 0.843274 0.214351 0.11455
H_ H_ 0.0253016 0.830207 0.206894 0.11455
H_ H_ 0.0440124 0.838817 0.114878 0.11455
H_ H_ 0.327658 0.998523 0.185198 0.11455
H_ H_ 0.34009 0.572315 0.0980118 0.11455
H_ H_ 0.399961 0.983802 0.1034 0.11455
H_ H_ 0.39876 0.573371 0.21321 0.11455
H_ H_ 0.408707 0.662858 0.210019 0.11455
H_ H_ 0.352857 0.662559 0.124183 0.11455
H_ H_ 0.412254 0.907703 0.215726 0.11455
H_ H_ 0.423778 0.93113 0.26468 0.11455
H_ H_ 0.370988 0.893772 0.303063 0.11455
H_ H_ 0.315946 0.759877 0.219977 0.11455
H_ H_ 0.286098 0.702515 0.258702 0.11455
H_ H_ 0.303261 0.723721 0.308472 0.11455
H_ H_ 0.487175 0.802556 0.36821 0.11455
H_ H_ 0.501112 0.822137 0.419047 0.11455
H_ H_ 0.236281 0.821297 0.385175 0.11455
H_ H_ 0.246475 0.830827 0.437853 0.11455
H_ H_ 0.411293 0.920687 0.499137 0.11455
H_ H_ 0.451871 0.931748 0.043921 0.11455
H_ H_ 0.426902 0.880934 0.0858866 0.11455
H_ H_ 0.331581 0.749961 0.00984356 0.11455
H_ H_ 0.294431 0.71087 0.0540917 0.11455
H_ H_ 0.321257 0.738432 0.0996169 0.11455
C_ C_ 0.23706 0.676775 0.405882 0.68181
C_ C_ 0.29232 0.681435 0.401432 -0.05681
C_ C_ 0.32753 0.676657 0.423677 -0.08735
C_ C_ 0.378443 0.68234 0.418877 -0.05681
C_ C_ 0.398396 0.68211 0.390185 -0.05681
C_ C_ 0.364292 0.684636 0.36798 -0.08735
C_ C_ 0.311162 0.680512 0.372548 -0.08735
C_ C_ 0.41263 0.684021 0.442031 -0.08735
C_ C_ 0.465761 0.690416 0.437122 -0.08735
C_ C_ 0.48486 0.683765 0.409626 -0.05681
C_ C_ 0.450515 0.688008 0.386088 -0.08735
C_ C_ 0.127885 0.773016 0.415645 0.68181
C_ C_ 0.133885 0.577077 0.400547 0.68181
C_ C_ 0.125923 0.521707 0.398934 -0.05681
C_ C_ 0.122174 0.98635 0.427277 -0.08735
C_ C_ 0.121006 0.933464 0.42415 -0.05681
C_ C_ 0.130289 0.91264 0.397483 -0.05681
C_ C_ 0.139638 0.94251 0.373833 -0.08735
C_ C_ 0.135803 0.996455 0.375773 -0.08735
C_ C_ 0.112338 0.903948 0.44868 -0.08735
C_ C_ 0.111182 0.851093 0.446309 -0.08735
C_ C_ 0.124077 0.829522 0.419867 -0.05681
C_ C_ 0.125184 0.859101 0.39467 -0.08735
C_ C_ 0.0388007 0.680489 0.412996 0.68181
C_ C_ 0.111419 0.612856 0.484593 0.1947
C_ C_ 0.093976 0.623265 0.017666 -0.08735
C_ C_ 0.106848 0.652656 0.0402416 -0.08735
C_ C_ 0.144439 0.690296 0.034831 -0.05681
C_ C_ 0.155196 0.703743 1.00546853 0.18498
C_ C_ 0.184484 0.72765 0.496889 -0.08735
C_ C_ 0.211102 0.769222 0.0226896 -0.08735
C_ C_ 0.193062 0.762287 0.051091 -0.08735
C_ C_ 0.164355 0.720229 0.0578939 0.18498
C_ C_ 0.194791 0.699355 0.105196 0.44287
C_ C_ 0.106709 0.717282 0.0977978 0.44287
C_ C_ 0.0973865 0.716843 0.12698 -0.05681
C_ C_ 0.0471233 0.716736 0.137249 -0.08735
C_ C_ 0.0373095 0.712769 0.166091 -0.08735
C_ C_ 0.0782502 0.706114 0.18515 -0.05681
C_ C_ 0.126347 0.700266 0.17513 -0.05681
C_ C_ 0.137272 0.705022 0.145049 -0.05681
C_ C_ 0.186095 0.694942 0.134815 -0.05681
C_ C_ 0.223364 0.68079 0.15514 -0.08735
C_ C_ 0.213631 0.674464 0.183989 -0.08735
C_ C_ 0.164041 0.681493 0.19345 -0.05681
C_ C_ 0.151809 0.674162 0.222124 0.44287
C_ C_ 0.0664438 0.699234 0.214586 0.44287
C_ C_ 0.0937956 0.673812 0.262345 0.18498
C_ C_ 0.0644432 0.630969 0.269668 -0.08735
C_ C_ 0.0535339 0.61563 0.297743 -0.08735
C_ C_ 0.0703017 0.644271 0.319694 -0.08735
C_ C_ 0.107664 0.680651 0.315064 0.18498
C_ C_ 0.117481 0.698812 0.285665 -0.05681
C_ C_ 0.153312 0.734964 0.281939 -0.08735
C_ C_ 0.18424 0.750144 0.303822 -0.08735
C_ C_ 0.176313 0.731652 0.33144 0.1947
C_ C_ 0.273809 0.824227 0.15372 0.68181
C_ C_ 0.219049 0.836318 0.148677 -0.05681
C_ C_ 0.186859 0.841335 0.172804 -0.08735
C_ C_ 0.133448 0.842701 0.168283 -0.05681
C_ C_ 0.112427 0.839695 0.140255 -0.05681
C_ C_ 0.148035 0.838417 0.116926 -0.08735
C_ C_ 0.200137 0.838282 0.120874 -0.08735
C_ C_ 0.0993481 0.840955 0.191922 -0.08735
C_ C_ 0.048243 0.830884 0.187456 -0.08735
C_ C_ 0.0261798 0.835182 0.160257 -0.05681
C_ C_ 0.0589318 0.840987 0.135958 -0.08735
C_ C_ 0.385305 0.725116 0.163711 0.68181
C_ C_ 0.365862 0.921531 0.147555 0.68181
C_ C_ 0.373157 0.978784 0.147004 -0.05681
C_ C_ 0.386711 0.508605 0.168015 -0.08735
C_ C_ 0.380932 0.56089 0.168186 -0.05681
C_ C_ 0.367516 0.586314 0.14173 -0.05681
C_ C_ 0.357246 0.55609 0.117156 -0.08735
C_ C_ 0.400464 0.000173126 0.12479 -0.08735
C_ C_ 0.391595 0.589276 0.19262 -0.08735
C_ C_ 0.396591 0.642956 0.19092 -0.08735
C_ C_ 0.38661 0.668408 0.165298 -0.05681
C_ C_ 0.369798 0.641182 0.141391 -0.08735
C_ C_ 0.471677 0.829683 0.158548 0.68181
C_ C_ 0.394946 0.884606 0.231815 0.1947
C_ C_ 0.397401 0.901746 0.260241 -0.08735
C_ C_ 0.373553 0.875627 0.28214 -0.08735
C_ C_ 0.357091 0.825893 0.277011 -0.05681
C_ C_ 0.352599 0.810767 0.24674 0.18498
C_ C_ 0.328527 0.765995 0.240759 -0.08735
C_ C_ 0.31236 0.731827 0.262838 -0.08735
C_ C_ 0.316877 0.747839 0.291506 -0.08735
C_ C_ 0.341886 0.792631 0.298661 0.18498
C_ C_ 0.309913 0.815897 0.345644 0.44287
C_ C_ 0.39682 0.800058 0.339008 0.44287
C_ C_ 0.406366 0.807206 0.369476 -0.05681
C_ C_ 0.455011 0.813294 0.381451 -0.08735
C_ C_ 0.46194 0.818543 0.411894 -0.08735
C_ C_ 0.419387 0.819656 0.430342 -0.05681
C_ C_ 0.370766 0.817 0.418275 -0.05681
C_ C_ 0.364889 0.812329 0.388028 -0.05681
C_ C_ 0.315685 0.812559 0.375851 -0.05681
C_ C_ 0.272826 0.817846 0.394241 -0.08735
C_ C_ 0.278754 0.828559 0.423507 -0.08735
C_ C_ 0.328034 0.826002 0.43591 -0.05681
C_ C_ 0.335864 0.830959 0.466061 0.44287
C_ C_ 0.424252 0.822604 0.460802 0.44287
C_ C_ 0.397967 0.833493 0.00843933 0.18498
C_ C_ 0.433581 0.872077 0.0143141 -0.08735
C_ C_ 0.438027 0.892136 0.0420776 -0.08735
C_ C_ 0.419566 0.866475 0.0649328 -0.08735
C_ C_ 0.390793 0.823851 0.0615081 0.18498
C_ C_ 0.379077 0.806311 0.0331594 -0.05681
C_ C_ 0.342729 0.766806 0.0302602 -0.08735
C_ C_ 0.320803 0.743738 0.0555827 -0.08735
C_ C_ 0.337063 0.758987 0.0815063 0.1947
N_ N_ 0.141435 0.655334 0.479902 -0.29468
N_ N_ 0.154841 0.709092 0.0874159 -0.17154
N_ N_ 0.103594 0.686763 0.233407 -0.17154
N_ N_ 0.137788 0.697838 0.337183 -0.29468
N_ N_ 0.370424 0.839782 0.224836 -0.29468
N_ N_ 0.349677 0.805621 0.32805 -0.17154
N_ N_ 0.382571 0.82996 0.478288 -0.17154
N_ N_ 0.367112 0.800999 0.0852827 -0.29468
O_ O_ 0.2199 0.681107 0.431002 -0.58347
O_ O_ 0.208124 0.667718 0.385144 -0.58347
O_ O_ 0.136581 0.745389 0.4368 -0.58347
O_ O_ 0.138699 0.754119 0.390821 -0.58347
O_ O_ 0.150296 0.597798 0.423636 -0.58347
O_ O_ 0.123156 0.604494 0.379651 -0.58347
O_ O_ 0.0641175 0.66104 0.434459 -0.58347
O_ O_ 0.0604796 0.689288 0.389928 -0.58347
O_ O_ 0.0724993 0.732023 0.079895 -0.46727
O_ O_ 0.240551 0.68695 0.0951889 -0.46727
O_ O_ 0.0199405 0.701874 0.223787 -0.46727
O_ O_ 0.188362 0.658265 0.239823 -0.46727
O_ O_ 0.293168 0.815048 0.179138 -0.58347
O_ O_ 0.304333 0.822 0.131986 -0.58347
O_ O_ 0.38658 0.751696 0.186696 -0.58347
O_ O_ 0.379993 0.746808 0.139699 -0.58347
O_ O_ 0.354869 0.899104 0.170816 -0.58347
O_ O_ 0.375596 0.895536 0.124494 -0.58347
O_ O_ 0.443336 0.840703 0.179049 -0.58347
O_ O_ 0.454069 0.821674 0.134705 -0.58347
O_ O_ 0.437053 0.789641 0.32212 -0.46727
O_ O_ 0.262928 0.823508 0.335899 -0.46727
O_ O_ 0.469708 0.817117 0.472699 -0.46727
O_ O_ 0.296644 0.836515 0.482852 -0.46727
Zn Zn 0.134086 0.68519 0.885847 0.90689
Zn Zn 0.146907 0.679117 0.935352 0.90689
Zn Zn 0.377895 0.806103 0.632068 0.90689
Zn Zn 0.367376 0.807912 0.679441 0.90689
H_ H_ 0.314268 0.686093 0.949353 0.11455
H_ H_ 0.37311 0.673035 0.850139 0.11455
H_ H_ 0.284039 0.663264 0.862494 0.11455
H_ H_ 0.397795 0.679857 0.967957 0.11455
H_ H_ 0.490356 0.69195 0.955481 0.11455
H_ H_ 0.463773 0.658545 0.867107 0.11455
H_ H_ 0.136003 0.508481 0.953965 0.11455
H_ H_ 0.14608 0.935595 0.842747 0.11455
H_ H_ 0.155489 0.52777 0.860359 0.11455
H_ H_ 0.134751 0.932094 0.96141 0.11455
H_ H_ 0.129615 0.841731 0.959371 0.11455
H_ H_ 0.132613 0.846261 0.865182 0.11455
H_ H_ 0.090096 0.613459 0.972159 0.11455
H_ H_ 0.0762487 0.567031 0.515904 0.11455
H_ H_ 0.100321 0.622499 0.556235 0.11455
H_ H_ 0.197284 0.754821 0.976644 0.11455
H_ H_ 0.215777 0.799284 0.516234 0.11455
H_ H_ 0.20118 0.766602 0.566704 0.11455
H_ H_ 1.0187874 0.704094 0.629556 0.11455
H_ H_ 1.0163807 0.701253 0.681208 0.11455
H_ H_ 0.271651 0.655508 0.637644 0.11455
H_ H_ 0.262586 0.648426 0.689949 0.11455
H_ H_ 0.0733064 0.586088 0.752233 0.11455
H_ H_ 0.0683876 0.553962 0.801803 0.11455
H_ H_ 0.0937449 0.608116 0.841999 0.11455
H_ H_ 0.174592 0.737547 0.75959 0.11455
H_ H_ 0.202286 0.789309 0.799424 0.11455
H_ H_ 0.185262 0.756598 0.850701 0.11455
H_ H_ 0.201288 0.808253 0.696326 0.11455
H_ H_ 0.141637 0.850887 0.600645 0.11455
H_ H_ 0.226873 0.834027 0.608194 0.11455
H_ H_ 0.116277 0.788938 0.711776 0.11455
H_ H_ 0.0240205 0.803357 0.70758 0.11455
H_ H_ 0.0481626 0.831575 0.614905 0.11455
H_ H_ 0.343987 0.975383 0.687578 0.11455
H_ H_ 0.360127 0.55896 0.596831 0.11455
H_ H_ 0.410639 0.960786 0.605433 0.11455
H_ H_ 0.382483 0.562899 0.716113 0.11455
H_ H_ 0.397189 0.651491 0.709206 0.11455
H_ H_ 0.386087 0.639933 0.618765 0.11455
H_ H_ 0.425927 0.880858 0.714492 0.11455
H_ H_ 0.438297 0.913323 0.763568 0.11455
H_ H_ 0.406822 0.865029 0.804764 0.11455
H_ H_ 0.306038 0.752541 0.722259 0.11455
H_ H_ 0.266128 0.70078 0.764564 0.11455
H_ H_ 0.287063 0.725574 0.813214 0.11455
H_ H_ 0.484407 0.778672 0.871004 0.11455
H_ H_ 0.493749 0.793191 0.92209 0.11455
H_ H_ 0.239367 0.843922 0.88635 0.11455
H_ H_ 0.252865 0.854668 0.936949 0.11455
H_ H_ 0.449278 0.895461 0.997168 0.11455
H_ H_ 0.44478 0.936577 0.547377 0.11455
H_ H_ 0.442667 0.860042 0.582562 0.11455
H_ H_ 0.340329 0.751628 0.505791 0.11455
H_ H_ 0.314785 0.701072 0.545388 0.11455
H_ H_ 0.334766 0.723199 0.596077 0.11455
C_ C_ 0.236184 0.682912 0.911374 0.68181
C_ C_ 0.292989 0.678604 0.906735 -0.05681
C_ C_ 0.327656 0.683123 0.928587 -0.08735
C_ C_ 0.380257 0.677593 0.92345 -0.05681
C_ C_ 0.397701 0.674193 0.895106 -0.05681
C_ C_ 0.360985 0.670606 0.87304 -0.08735
C_ C_ 0.310532 0.673612 0.878791 -0.08735
C_ C_ 0.414086 0.677247 0.946103 -0.08735
C_ C_ 0.465933 0.676499 0.940595 -0.08735
C_ C_ 0.483314 0.668192 0.912338 -0.05681
C_ C_ 0.449307 0.667776 0.889119 -0.08735
C_ C_ 0.133499 0.781074 0.91189 0.68181
C_ C_ 0.140447 0.581185 0.90869 0.68181
C_ C_ 0.139583 0.524956 0.906327 -0.05681
C_ C_ 0.14861 0.996628 0.915504 -0.08735
C_ C_ 0.13722 0.943806 0.914702 -0.05681
C_ C_ 0.135312 0.919423 0.887715 -0.05681
C_ C_ 0.139746 0.94984 0.863074 -0.08735
C_ C_ 0.138177 0.00267244 0.864007 -0.08735
C_ C_ 0.129337 0.915965 0.939875 -0.08735
C_ C_ 0.130088 0.863752 0.938785 -0.08735
C_ C_ 0.129847 0.837916 0.912271 -0.05681
C_ C_ 0.13512 0.866356 0.88624 -0.08735
C_ C_ 0.0405725 0.675075 0.911675 0.68181
C_ C_ 0.103439 0.637551 0.989085 0.1947
C_ C_ 0.101 0.597116 0.512108 -0.08735
C_ C_ 0.116581 0.626981 0.535425 -0.08735
C_ C_ 0.144244 0.670594 0.530493 -0.05681
C_ C_ 0.155641 0.686095 0.501907 0.18498
C_ C_ 0.18918 0.742965 0.999695 -0.08735
C_ C_ 0.197251 0.761192 0.519721 -0.08735
C_ C_ 0.192204 0.743115 0.547951 -0.08735
C_ C_ 0.160488 0.702495 0.554103 0.18498
C_ C_ 0.197844 0.6724 0.599622 0.44287
C_ C_ 0.109187 0.699894 0.596915 0.44287
C_ C_ 0.10379 0.692465 0.626935 -0.05681
C_ C_ 0.0566136 0.700127 0.640698 -0.08735
C_ C_ 0.0535267 0.698476 0.671205 -0.08735
C_ C_ 0.0945439 0.684942 0.687825 -0.05681
C_ C_ 0.14043 0.671024 0.674083 -0.05681
C_ C_ 0.144396 0.673636 0.643007 -0.05681
C_ C_ 0.193595 0.668058 0.6294 -0.05681
C_ C_ 0.233755 0.654 0.646992 -0.08735
C_ C_ 0.230509 0.653532 0.678244 -0.08735
C_ C_ 0.182588 0.659326 0.691709 -0.05681
C_ C_ 0.175125 0.654222 0.72146 0.44287
C_ C_ 0.0886076 0.678897 0.71694 0.44287
C_ C_ 0.120049 0.649097 0.763694 0.18498
C_ C_ 0.094188 0.603985 0.769512 -0.08735
C_ C_ 0.0866693 0.589099 0.796899 -0.08735
C_ C_ 0.103042 0.618925 0.820141 -0.08735
C_ C_ 0.127716 0.663114 0.815191 0.18498
C_ C_ 0.137992 0.678385 0.786562 -0.05681
C_ C_ 0.161436 0.726672 0.780698 -0.08735
C_ C_ 0.179661 0.755484 0.804057 -0.08735
C_ C_ 0.167523 0.738131 0.832579 0.1947
C_ C_ 0.276675 0.809676 0.656526 0.68181
C_ C_ 0.222001 0.820926 0.652416 -0.05681
C_ C_ 0.186366 0.814223 0.674774 -0.08735
C_ C_ 0.134957 0.811699 0.67008 -0.05681
C_ C_ 0.115853 0.822317 0.642088 -0.05681
C_ C_ 0.151303 0.83226 0.619815 -0.08735
C_ C_ 0.202625 0.8334 0.624877 -0.08735
C_ C_ 0.101958 0.801153 0.692492 -0.08735
C_ C_ 0.048154 0.806836 0.68865 -0.08735
C_ C_ 0.0295458 0.819362 0.660832 -0.05681
C_ C_ 0.0615329 0.826837 0.636745 -0.08735
C_ C_ 0.382422 0.708944 0.661639 0.68181
C_ C_ 0.371937 0.904723 0.648929 0.68181
C_ C_ 0.376463 0.961073 0.647235 -0.05681
C_ C_ 0.358179 0.496459 0.672118 -0.08735
C_ C_ 0.369429 0.549031 0.668642 -0.05681
C_ C_ 0.370427 0.571393 0.642544 -0.05681
C_ C_ 0.359871 0.540069 0.617762 -0.08735
C_ C_ 0.396099 0.983679 0.622428 -0.08735
C_ C_ 0.381434 0.577762 0.694016 -0.08735
C_ C_ 0.385095 0.63096 0.691181 -0.08735
C_ C_ 0.386061 0.652984 0.664309 -0.05681
C_ C_ 0.384716 0.62265 0.6399 -0.08735
C_ C_ 0.471295 0.810816 0.654908 0.68181
C_ C_ 0.408726 0.860534 0.732485 0.1947
C_ C_ 0.418083 0.878058 0.759233 -0.08735
C_ C_ 0.395914 0.852576 0.782306 -0.08735
C_ C_ 0.364488 0.810673 0.778372 -0.05681
C_ C_ 0.353521 0.795716 0.749386 0.18498
C_ C_ 0.317159 0.759246 0.743488 -0.08735
C_ C_ 0.294827 0.730472 0.765977 -0.08735
C_ C_ 0.306141 0.745938 0.795063 -0.08735
C_ C_ 0.340196 0.786246 0.800789 0.18498
C_ C_ 0.310134 0.816425 0.846634 0.44287
C_ C_ 0.396589 0.787793 0.842776 0.44287
C_ C_ 0.406377 0.802377 0.871554 -0.05681
C_ C_ 0.45174 0.789869 0.883774 -0.08735
C_ C_ 0.457905 0.790789 0.913257 -0.08735
C_ C_ 0.419563 0.806228 0.931797 -0.05681
C_ C_ 0.371763 0.815155 0.920076 -0.05681
C_ C_ 0.36552 0.812625 0.889226 -0.05681
C_ C_ 0.316971 0.823357 0.877089 -0.05681
C_ C_ 0.276792 0.834952 0.895726 -0.08735
C_ C_ 0.284409 0.840785 0.925876 -0.08735
C_ C_ 0.332275 0.830626 0.93817 -0.05681
C_ C_ 0.341346 0.83277 0.968116 0.44287
C_ C_ 0.425112 0.807225 0.961984 0.44287
C_ C_ 0.389037 0.843088 0.508252 0.18498
C_ C_ 0.409634 0.890412 0.515633 -0.08735
C_ C_ 0.427678 0.901404 0.543272 -0.08735
C_ C_ 0.416551 0.865363 0.565855 -0.08735
C_ C_ 0.385475 0.825104 0.56114 0.18498
C_ C_ 0.37432 0.810781 0.532151 -0.05681
C_ C_ 0.344753 0.766442 0.527368 -0.08735
C_ C_ 0.328193 0.7381 0.54988 -0.08735
C_ C_ 0.34584 0.748255 0.578157 0.1947
N_ N_ 0.136197 0.675888 0.98338 -0.29468
N_ N_ 0.15469 0.687475 0.584161 -0.17154
N_ N_ 0.128848 0.663233 0.733342 -0.17154
N_ N_ 0.139857 0.696548 0.837712 -0.29468
N_ N_ 0.373867 0.82439 0.727989 -0.29468
N_ N_ 0.350742 0.800491 0.829865 -0.17154
N_ N_ 0.386675 0.817819 0.979578 -0.17154
N_ N_ 0.371862 0.792815 0.583402 -0.29468
O_ O_ 0.221323 0.681143 0.936891 -0.58347
O_ O_ 0.206224 0.694536 0.891243 -0.58347
O_ O_ 0.144741 0.754443 0.934597 -0.58347
O_ O_ 0.122453 0.757864 0.888961 -0.58347
O_ O_ 0.142753 0.600608 0.933667 -0.58347
O_ O_ 0.142236 0.608545 0.886656 -0.58347
O_ O_ 0.0723886 0.672071 0.933082 -0.58347
O_ O_ 0.057851 0.673922 0.886979 -0.58347
O_ O_ 0.0765562 0.727716 0.584133 -0.46727
O_ O_ 0.240145 0.662927 0.585467 -0.46727
O_ O_ 0.0426564 0.681558 0.728465 -0.46727
O_ O_ 0.213479 0.637502 0.736943 -0.46727
O_ O_ 0.294627 0.803467 0.681704 -0.58347
O_ O_ 0.304339 0.798424 0.635061 -0.58347
O_ O_ 0.36545 0.734161 0.68236 -0.58347
O_ O_ 0.394526 0.730047 0.638414 -0.58347
O_ O_ 0.366985 0.882869 0.673011 -0.58347
O_ O_ 0.364495 0.878826 0.626618 -0.58347
O_ O_ 0.442181 0.808349 0.675847 -0.58347
O_ O_ 0.45179 0.814427 0.629352 -0.58347
O_ O_ 0.43549 0.780162 0.826143 -0.46727
O_ O_ 0.266282 0.826917 0.834947 -0.46727
O_ O_ 0.469549 0.796487 0.974183 -0.46727
O_ O_ 0.302489 0.84248 0.985441 -0.46727
Zn Zn 0.619303 0.194301 0.380179 0.90689
Zn Zn 0.630729 0.185817 0.429004 0.90689
Zn Zn 0.875978 0.322902 0.133734 0.90689
Zn Zn 0.868672 0.327348 0.182599 0.90689
H_ H_ 0.801754 0.215398 0.438695 0.11455
H_ H_ 0.85663 0.147382 0.345948 0.11455
H_ H_ 0.765968 0.1607 0.353528 0.11455
H_ H_ 0.887427 0.204258 0.45993 0.11455
H_ H_ 0.975074 0.185896 0.453521 0.11455
H_ H_ 0.948802 0.149318 0.364755 0.11455
H_ H_ 0.587857 0.0180861 0.434591 0.11455
H_ H_ 0.631627 0.43928 0.349077 0.11455
H_ H_ 0.678378 0.0271542 0.357664 0.11455
H_ H_ 0.638977 0.440231 0.467228 0.11455
H_ H_ 0.634811 0.347746 0.463616 0.11455
H_ H_ 0.614668 0.357893 0.372926 0.11455
H_ H_ 0.573577 0.109375 0.463058 0.11455
H_ H_ 0.559177 0.0898116 0.0118767 0.11455
H_ H_ 0.603646 0.131597 0.0502896 0.11455
H_ H_ 0.687197 0.245843 0.471938 0.11455
H_ H_ 0.719573 0.311306 0.00982942 0.11455
H_ H_ 0.701136 0.282098 0.0605034 0.11455
H_ H_ 0.515045 0.207148 0.121219 0.11455
H_ H_ 0.506368 0.188936 0.170438 0.11455
H_ H_ 0.766619 0.168413 0.131539 0.11455
H_ H_ 0.753961 0.161218 0.184837 0.11455
H_ H_ 0.587896 0.0878295 0.245616 0.11455
H_ H_ 0.560541 0.0653125 0.297032 0.11455
H_ H_ 0.563057 0.132423 0.33469 0.11455
H_ H_ 0.673039 0.249446 0.257599 0.11455
H_ H_ 0.687163 0.305167 0.299043 0.11455
H_ H_ 0.663068 0.275262 0.348467 0.11455
H_ H_ 0.700456 0.331504 0.192846 0.11455
H_ H_ 0.636069 0.319112 0.0937887 0.11455
H_ H_ 0.728783 0.32932 0.102633 0.11455
H_ H_ 0.614819 0.323229 0.212192 0.11455
H_ H_ 0.522253 0.321158 0.205032 0.11455
H_ H_ 0.544487 0.32091 0.113677 0.11455
H_ H_ 0.860225 0.492409 0.191945 0.11455
H_ H_ 0.844988 0.0730703 0.0946719 0.11455
H_ H_ 0.891973 0.482498 0.100061 0.11455
H_ H_ 0.848246 0.0763403 0.211846 0.11455
H_ H_ 0.858127 0.16645 0.208627 0.11455
H_ H_ 0.8854 0.159733 0.118849 0.11455
H_ H_ 0.913338 0.403015 0.216361 0.11455
H_ H_ 0.930754 0.428293 0.268269 0.11455
H_ H_ 0.891761 0.383105 0.307777 0.11455
H_ H_ 0.803534 0.263248 0.222333 0.11455
H_ H_ 0.772249 0.208354 0.26129 0.11455
H_ H_ 0.795605 0.225667 0.31425 0.11455
H_ H_ 0.994089 0.298463 0.371057 0.11455
H_ H_ 0.00493241 0.292494 0.423335 0.11455
H_ H_ 0.73988 0.328944 0.390325 0.11455
H_ H_ 0.756902 0.337018 0.441541 0.11455
H_ H_ 0.951232 0.390112 0.502919 0.11455
H_ H_ 0.971468 0.429902 0.05282 0.11455
H_ H_ 0.949731 0.365133 0.0898287 0.11455
H_ H_ 0.838205 0.267896 0.00691896 0.11455
H_ H_ 0.800764 0.218767 0.0492621 0.11455
H_ H_ 0.810776 0.253344 0.0974212 0.11455
C_ C_ 0.720792 0.190528 0.403425 0.68181
C_ C_ 0.77603 0.187845 0.39747 -0.05681
C_ C_ 0.813793 0.195671 0.419529 -0.08735
C_ C_ 0.86557 0.185861 0.416392 -0.05681
C_ C_ 0.882708 0.167088 0.390003 -0.05681
C_ C_ 0.846162 0.159746 0.367078 -0.08735
C_ C_ 0.795151 0.170255 0.370592 -0.08735
C_ C_ 0.899979 0.194861 0.438513 -0.08735
C_ C_ 0.951706 0.183607 0.435126 -0.08735
C_ C_ 0.970736 0.170518 0.408136 -0.05681
C_ C_ 0.934763 0.159808 0.385547 -0.08735
C_ C_ 0.61936 0.287945 0.414538 0.68181
C_ C_ 0.628974 0.08873 0.398038 0.68181
C_ C_ 0.634276 0.0318959 0.396384 -0.05681
C_ C_ 0.644655 0.507028 0.421687 -0.08735
C_ C_ 0.632103 0.453941 0.421099 -0.05681
C_ C_ 0.628481 0.429066 0.393993 -0.05681
C_ C_ 0.629072 0.458213 0.369039 -0.08735
C_ C_ 0.632766 0.511165 0.37064 -0.08735
C_ C_ 0.633296 0.422724 0.445655 -0.08735
C_ C_ 0.625852 0.369357 0.444968 -0.08735
C_ C_ 0.62345 0.345506 0.417739 -0.05681
C_ C_ 0.61828 0.37493 0.393158 -0.08735
C_ C_ 0.526531 0.184347 0.406865 0.68181
C_ C_ 0.592813 0.128162 0.480998 0.1947
C_ C_ 0.582892 0.123955 0.00756357 -0.08735
C_ C_ 0.608276 0.147275 0.0306539 -0.08735
C_ C_ 0.642521 0.186782 0.0257395 -0.05681
C_ C_ 0.651134 0.202651 0.99638 0.18498
C_ C_ 0.680746 0.233212 0.493509 -0.08735
C_ C_ 0.701092 0.275423 0.0131142 -0.08735
C_ C_ 0.686048 0.262264 0.041465 -0.08735
C_ C_ 0.658071 0.219196 0.0477589 0.18498
C_ C_ 0.688944 0.18972 0.0926908 0.44287
C_ C_ 0.603008 0.210152 0.0892638 0.44287
C_ C_ 0.595771 0.196446 0.118657 -0.05681
C_ C_ 0.548955 0.196596 0.132428 -0.08735
C_ C_ 0.5432 0.19206 0.161553 -0.08735
C_ C_ 0.586286 0.188125 0.179884 -0.05681
C_ C_ 0.634375 0.1895 0.166746 -0.05681
C_ C_ 0.639842 0.19053 0.135933 -0.05681
C_ C_ 0.68455 0.183378 0.123414 -0.05681
C_ C_ 0.729173 0.173968 0.141428 -0.08735
C_ C_ 0.724151 0.176266 0.171045 -0.08735
C_ C_ 0.676296 0.179013 0.184242 -0.05681
C_ C_ 0.669853 0.175531 0.214961 0.44287
C_ C_ 0.580727 0.179939 0.210221 0.44287
C_ C_ 0.616985 0.160726 0.257286 0.18498
C_ C_ 0.596709 0.112576 0.263591 -0.08735
C_ C_ 0.577692 0.102122 0.292081 -0.08735
C_ C_ 0.582995 0.137775 0.313615 -0.08735
C_ C_ 0.612511 0.180517 0.309967 0.18498
C_ C_ 0.626338 0.195085 0.280846 -0.05681
C_ C_ 0.65198 0.240929 0.277735 -0.08735
C_ C_ 0.6669 0.268052 0.30343 -0.08735
C_ C_ 0.652983 0.25091 0.331411 0.1947
C_ C_ 0.775556 0.326928 0.154126 0.68181
C_ C_ 0.720229 0.324713 0.149087 -0.05681
C_ C_ 0.685042 0.327977 0.171729 -0.08735
C_ C_ 0.632893 0.323554 0.168104 -0.05681
C_ C_ 0.614211 0.323689 0.139714 -0.05681
C_ C_ 0.649502 0.320157 0.116109 -0.08735
C_ C_ 0.70131 0.327704 0.12101 -0.08735
C_ C_ 0.598384 0.325146 0.19116 -0.08735
C_ C_ 0.547656 0.320251 0.187038 -0.08735
C_ C_ 0.527753 0.323429 0.159145 -0.05681
C_ C_ 0.560775 0.321253 0.136293 -0.08735
C_ C_ 0.873066 0.225665 0.164073 0.68181
C_ C_ 0.872569 0.424226 0.146772 0.68181
C_ C_ 0.872436 0.48016 0.14487 -0.05681
C_ C_ 0.859767 0.0105622 0.16913 -0.08735
C_ C_ 0.864044 0.0652019 0.166556 -0.05681
C_ C_ 0.865359 0.0878324 0.139113 -0.05681
C_ C_ 0.858788 0.0562671 0.114466 -0.08735
C_ C_ 0.883756 0.505138 0.119341 -0.08735
C_ C_ 0.860808 0.0933854 0.191608 -0.08735
C_ C_ 0.862202 0.14453 0.189995 -0.08735
C_ C_ 0.866752 0.170498 0.164358 -0.05681
C_ C_ 0.871508 0.142043 0.137928 -0.08735
C_ C_ 0.971429 0.319047 0.160085 0.68181
C_ C_ 0.901674 0.380155 0.235094 0.1947
C_ C_ 0.912389 0.394743 0.263914 -0.08735
C_ C_ 0.892709 0.366229 0.286208 -0.08735
C_ C_ 0.862073 0.320985 0.280942 -0.05681
C_ C_ 0.849639 0.310222 0.25176 0.18498
C_ C_ 0.814976 0.271558 0.245142 -0.08735
C_ C_ 0.797545 0.238461 0.26702 -0.08735
C_ C_ 0.812011 0.24772 0.296206 -0.08735
C_ C_ 0.847032 0.28607 0.303255 0.18498
C_ C_ 0.815677 0.309652 0.350531 0.44287
C_ C_ 0.905048 0.304877 0.343999 0.44287
C_ C_ 0.912617 0.30907 0.37359 -0.05681
C_ C_ 0.961549 0.304082 0.385807 -0.08735
C_ C_ 0.967986 0.305804 0.415266 -0.08735
C_ C_ 0.927196 0.310235 0.433584 -0.05681
C_ C_ 0.878727 0.316009 0.421396 -0.05681
C_ C_ 0.870089 0.311392 0.391755 -0.05681
C_ C_ 0.820862 0.313189 0.380522 -0.05681
C_ C_ 0.779817 0.32542 0.397996 -0.08735
C_ C_ 0.789583 0.331948 0.427728 -0.08735
C_ C_ 0.837116 0.327533 0.439595 -0.05681
C_ C_ 0.846982 0.332196 0.469561 0.44287
C_ C_ 0.934257 0.311793 0.463667 0.44287
C_ C_ 0.895958 0.352922 0.013313 0.18498
C_ C_ 0.924151 0.395178 0.0195942 -0.08735
C_ C_ 0.942972 0.401443 0.0477992 -0.08735
C_ C_ 0.926371 0.367476 0.0696905 -0.08735
C_ C_ 0.891962 0.328923 0.063229 0.18498
C_ C_ 0.880902 0.31663 0.0346269 -0.05681
C_ C_ 0.849422 0.275284 0.0294659 -0.08735
C_ C_ 0.822447 0.255146 0.0521481 -0.08735
C_ C_ 0.831807 0.270619 0.0799076 0.1947
N_ N_ 0.623137 0.168483 0.476524 -0.29468
N_ N_ 0.650074 0.205912 0.0766579 -0.17154
N_ N_ 0.621641 0.177027 0.227758 -0.17154
N_ N_ 0.621314 0.210549 0.333094 -0.29468
N_ N_ 0.869104 0.340732 0.229993 -0.29468
N_ N_ 0.856497 0.300766 0.333078 -0.17154
N_ N_ 0.893562 0.320878 0.481419 -0.17154
N_ N_ 0.869026 0.304661 0.0858486 -0.29468
O_ O_ 0.704064 0.185854 0.427697 -0.58347
O_ O_ 0.692962 0.202661 0.382121 -0.58347
O_ O_ 0.626442 0.258501 0.436186 -0.58347
O_ O_ 0.612281 0.269343 0.389922 -0.58347
O_ O_ 0.636446 0.109302 0.422433 -0.58347
O_ O_ 0.625704 0.117301 0.375565 -0.58347
O_ O_ 0.55559 0.180053 0.427961 -0.58347
O_ O_ 0.544781 0.191007 0.381608 -0.58347
O_ O_ 0.566211 0.230769 0.074183 -0.46727
O_ O_ 0.734018 0.18367 0.0798618 -0.46727
O_ O_ 0.534591 0.178808 0.221633 -0.46727
O_ O_ 0.70942 0.161178 0.230624 -0.46727
O_ O_ 0.793446 0.322236 0.178867 -0.58347
O_ O_ 0.803895 0.332672 0.132857 -0.58347
O_ O_ 0.870614 0.2516 0.187383 -0.58347
O_ O_ 0.868245 0.249375 0.13952 -0.58347
O_ O_ 0.865528 0.403672 0.170995 -0.58347
O_ O_ 0.879273 0.397028 0.125017 -0.58347
O_ O_ 0.942995 0.328219 0.182255 -0.58347
O_ O_ 0.952588 0.313598 0.135325 -0.58347
O_ O_ 0.941731 0.287093 0.327994 -0.46727
O_ O_ 0.770993 0.315745 0.338992 -0.46727
O_ O_ 0.979865 0.302714 0.475795 -0.46727
O_ O_ 0.808349 0.33952 0.486558 -0.46727
Zn Zn 0.617794 0.191333 0.879809 0.90689
Zn Zn 0.627804 0.18603 0.927423 0.90689
Zn Zn 0.865174 0.30487 0.632378 0.90689
Zn Zn 0.858222 0.306127 0.679399 0.90689
H_ H_ 0.792758 0.185508 0.941594 0.11455
H_ H_ 0.865034 0.159908 0.844834 0.11455
H_ H_ 0.778465 0.170099 0.85001 0.11455
H_ H_ 0.879516 0.181814 0.962993 0.11455
H_ H_ 0.973941 0.175265 0.95788 0.11455
H_ H_ 0.950131 0.161982 0.865325 0.11455
H_ H_ 0.634698 0.0206345 0.942483 0.11455
H_ H_ 0.663702 0.44237 0.847984 0.11455
H_ H_ 0.622753 0.0384876 0.849413 0.11455
H_ H_ 0.622458 0.4345 0.964028 0.11455
H_ H_ 0.607139 0.345926 0.957439 0.11455
H_ H_ 0.644393 0.356532 0.867252 0.11455
H_ H_ 0.573097 0.119635 0.962214 0.11455
H_ H_ 0.562934 0.0750366 0.513213 0.11455
H_ H_ 0.599283 0.118145 0.553073 0.11455
H_ H_ 0.690256 0.254663 0.968667 0.11455
H_ H_ 0.724584 0.293149 0.513957 0.11455
H_ H_ 0.703533 0.269659 0.561839 0.11455
H_ H_ 0.506248 0.212168 0.618372 0.11455
H_ H_ 0.491008 0.182303 0.666885 0.11455
H_ H_ 0.754158 0.173296 0.640027 0.11455
H_ H_ 0.739412 0.160666 0.691412 0.11455
H_ H_ 0.544328 0.0904486 0.748563 0.11455
H_ H_ 0.514347 0.0799641 0.799283 0.11455
H_ H_ 0.544108 0.130895 0.836323 0.11455
H_ H_ 0.644888 0.248175 0.754454 0.11455
H_ H_ 0.673647 0.295005 0.796285 0.11455
H_ H_ 0.672057 0.25901 0.845761 0.11455
H_ H_ 0.686609 0.285651 0.697119 0.11455
H_ H_ 0.622339 0.326944 0.600749 0.11455
H_ H_ 0.711612 0.312274 0.60519 0.11455
H_ H_ 0.601514 0.321147 0.716005 0.11455
H_ H_ 0.509207 0.310381 0.707872 0.11455
H_ H_ 0.536694 0.332783 0.61657 0.11455
H_ H_ 0.851985 0.479151 0.695978 0.11455
H_ H_ 0.854199 0.0504927 0.592818 0.11455
H_ H_ 0.867708 0.462406 0.604469 0.11455
H_ H_ 0.833614 0.057151 0.710307 0.11455
H_ H_ 0.841754 0.151035 0.707173 0.11455
H_ H_ 0.866997 0.137679 0.616303 0.11455
H_ H_ 0.921379 0.372007 0.713241 0.11455
H_ H_ 0.933236 0.410329 0.757867 0.11455
H_ H_ 0.892347 0.371188 0.802259 0.11455
H_ H_ 0.808028 0.236156 0.727473 0.11455
H_ H_ 0.755086 0.212803 0.766893 0.11455
H_ H_ 0.772917 0.23914 0.817353 0.11455
H_ H_ 0.990116 0.289905 0.874434 0.11455
H_ H_ 0.00167053 0.30482 0.926411 0.11455
H_ H_ 0.738208 0.335876 0.88949 0.11455
H_ H_ 0.760105 0.377262 0.937385 0.11455
H_ H_ 0.933759 0.419732 1.00343778 0.11455
H_ H_ 0.96681 0.414368 0.554466 0.11455
H_ H_ 0.916698 0.369533 0.590936 0.11455
H_ H_ 0.847212 0.244119 0.506591 0.11455
H_ H_ 0.805296 0.198261 0.546583 0.11455
H_ H_ 0.815671 0.225831 0.596256 0.11455
C_ C_ 0.722968 0.1901 0.899453 0.68181
C_ C_ 0.779199 0.186469 0.896165 -0.05681
C_ C_ 0.809423 0.188144 0.920595 -0.08735
C_ C_ 0.8634 0.179304 0.916924 -0.05681
C_ C_ 0.883736 0.170096 0.890336 -0.05681
C_ C_ 0.852707 0.164826 0.867264 -0.08735
C_ C_ 0.799654 0.174735 0.869243 -0.08735
C_ C_ 0.896084 0.18239 0.941371 -0.08735
C_ C_ 0.948208 0.172706 0.938479 -0.08735
C_ C_ 0.969217 0.169084 0.91102 -0.05681
C_ C_ 0.936538 0.166939 0.886445 -0.08735
C_ C_ 0.622483 0.289263 0.909085 0.68181
C_ C_ 0.632512 0.0887497 0.89838 0.68181
C_ C_ 0.634104 0.0348827 0.896156 -0.05681
C_ C_ 0.644726 0.503503 0.922083 -0.08735
C_ C_ 0.642044 0.450796 0.918783 -0.05681
C_ C_ 0.647748 0.428071 0.891791 -0.05681
C_ C_ 0.659032 0.458655 0.867975 -0.08735
C_ C_ 0.662734 0.510741 0.870748 -0.08735
C_ C_ 0.629173 0.419451 0.942498 -0.08735
C_ C_ 0.623411 0.366804 0.939125 -0.08735
C_ C_ 0.626042 0.343299 0.911745 -0.05681
C_ C_ 0.63548 0.374758 0.887794 -0.08735
C_ C_ 0.522142 0.188161 0.907294 0.68181
C_ C_ 0.593906 0.138943 0.979611 0.1947
C_ C_ 0.591529 0.10477 0.508543 -0.08735
C_ C_ 0.611619 0.129169 0.5321 -0.08735
C_ C_ 0.636157 0.17835 0.527444 -0.05681
C_ C_ 0.645424 0.19328 0.498639 0.18498
C_ C_ 0.679998 0.245955 0.990109 -0.08735
C_ C_ 0.700443 0.260318 0.517076 -0.08735
C_ C_ 0.6894 0.246888 0.544685 -0.08735
C_ C_ 0.658591 0.204982 0.551125 0.18498
C_ C_ 0.683326 0.176105 0.598274 0.44287
C_ C_ 0.598165 0.205743 0.59221 0.44287
C_ C_ 0.58619 0.192942 0.620688 -0.05681
C_ C_ 0.536956 0.198073 0.63143 -0.08735
C_ C_ 0.528629 0.189018 0.660425 -0.08735
C_ C_ 0.568097 0.17666 0.679759 -0.05681
C_ C_ 0.617506 0.173369 0.669328 -0.05681
C_ C_ 0.625383 0.178378 0.63955 -0.05681
C_ C_ 0.675046 0.173653 0.628095 -0.05681
C_ C_ 0.717496 0.168391 0.647279 -0.08735
C_ C_ 0.707196 0.168113 0.676545 -0.08735
C_ C_ 0.658412 0.166531 0.687687 -0.05681
C_ C_ 0.650706 0.164351 0.717818 0.44287
C_ C_ 0.562287 0.17849 0.70987 0.44287
C_ C_ 0.592974 0.152418 0.758096 0.18498
C_ C_ 0.559478 0.113565 0.766373 -0.08735
C_ C_ 0.539927 0.109698 0.793684 -0.08735
C_ C_ 0.560465 0.139048 0.815239 -0.08735
C_ C_ 0.599665 0.173862 0.810252 0.18498
C_ C_ 0.612663 0.183138 0.780871 -0.05681
C_ C_ 0.638458 0.229635 0.776008 -0.08735
C_ C_ 0.657916 0.256645 0.798595 -0.08735
C_ C_ 0.653548 0.238273 0.827033 0.1947
C_ C_ 0.761837 0.294678 0.65913 0.68181
C_ C_ 0.706331 0.302227 0.653359 -0.05681
C_ C_ 0.674385 0.303788 0.677477 -0.08735
C_ C_ 0.622333 0.309435 0.671685 -0.05681
C_ C_ 0.605133 0.316078 0.64332 -0.05681
C_ C_ 0.638175 0.322153 0.621454 -0.08735
C_ C_ 0.688293 0.30922 0.625367 -0.08735
C_ C_ 0.587569 0.317081 0.69438 -0.08735
C_ C_ 0.5352 0.318165 0.69029 -0.08735
C_ C_ 0.516677 0.317487 0.661614 -0.05681
C_ C_ 0.551732 0.322169 0.638467 -0.08735
C_ C_ 0.86643 0.209592 0.661475 0.68181
C_ C_ 0.855694 0.405687 0.65165 0.68181
C_ C_ 0.857996 0.461832 0.649696 -0.05681
C_ C_ 0.862001 -0.008468000000000031 0.670322 -0.08735
C_ C_ 0.854572 0.0452202 0.666469 -0.05681
C_ C_ 0.856748 0.0678999 0.639149 -0.05681
C_ C_ 0.859947 0.0375819 0.614646 -0.08735
C_ C_ 0.867441 0.485971 0.622987 -0.08735
C_ C_ 0.841081 0.0755817 0.689887 -0.08735
C_ C_ 0.843813 0.129197 0.687789 -0.08735
C_ C_ 0.85542 0.154953 0.662007 -0.05681
C_ C_ 0.858729 0.121996 0.636634 -0.08735
C_ C_ 0.959112 0.321559 0.656137 0.68181
C_ C_ 0.907408 0.350621 0.731186 0.1947
C_ C_ 0.914854 0.372208 0.758062 -0.08735
C_ C_ 0.892661 0.351069 0.782862 -0.08735
C_ C_ 0.866611 0.305489 0.780713 -0.05681
C_ C_ 0.854885 0.286911 0.752726 0.18498
C_ C_ 0.815242 0.252026 0.748767 -0.08735
C_ C_ 0.789121 0.234121 0.771943 -0.08735
C_ C_ 0.798387 0.25148 0.799933 -0.08735
C_ C_ 0.840866 0.283872 0.80465 0.18498
C_ C_ 0.814158 0.31428 0.851165 0.44287
C_ C_ 0.897645 0.289101 0.846439 0.44287
C_ C_ 0.908524 0.305193 0.874522 -0.05681
C_ C_ 0.956324 0.30133 0.888104 -0.08735
C_ C_ 0.962715 0.310955 0.916938 -0.08735
C_ C_ 0.921222 0.324671 0.935031 -0.05681
C_ C_ 0.871903 0.323504 0.923126 -0.05681
C_ C_ 0.865558 0.321162 0.892622 -0.05681
C_ C_ 0.817905 0.324402 0.880711 -0.05681
C_ C_ 0.777003 0.336011 0.897999 -0.08735
C_ C_ 0.784751 0.352829 0.927039 -0.08735
C_ C_ 0.831479 0.341232 0.940895 -0.05681
C_ C_ 0.841058 0.353651 0.970632 0.44287
C_ C_ 0.925171 0.326716 0.965516 0.44287
C_ C_ 0.902904 0.330158 0.512467 0.18498
C_ C_ 0.933632 0.368584 0.52002 -0.08735
C_ C_ 0.935114 0.387056 0.547908 -0.08735
C_ C_ 0.908963 0.359917 0.569601 -0.08735
C_ C_ 0.882252 0.316715 0.563002 0.18498
C_ C_ 0.878231 0.300534 0.533805 -0.05681
C_ C_ 0.849808 0.257467 0.527466 -0.08735
C_ C_ 0.827816 0.231584 0.549731 -0.08735
C_ C_ 0.832423 0.246547 0.578333 0.1947
N_ N_ 0.630492 0.176516 0.974571 -0.29468
N_ N_ 0.645348 0.193619 0.581141 -0.17154
N_ N_ 0.602613 0.164947 0.727761 -0.17154
N_ N_ 0.623687 0.19685 0.832361 -0.29468
N_ N_ 0.875747 0.310651 0.729048 -0.29468
N_ N_ 0.851896 0.299918 0.833719 -0.17154
N_ N_ 0.887835 0.342906 0.982312 -0.17154
N_ N_ 0.859531 0.289189 0.584487 -0.29468
O_ O_ 0.703299 0.196131 0.924455 -0.58347
O_ O_ 0.695953 0.187529 0.876693 -0.58347
O_ O_ 0.621931 0.262953 0.932247 -0.58347
O_ O_ 0.619275 0.26783 0.884924 -0.58347
O_ O_ 0.633932 0.108269 0.923819 -0.58347
O_ O_ 0.620276 0.116209 0.87697 -0.58347
O_ O_ 0.552489 0.180934 0.92724 -0.58347
O_ O_ 0.539693 0.195475 0.882964 -0.58347
O_ O_ 0.564508 0.227677 0.575861 -0.46727
O_ O_ 0.730507 0.17418 0.58867 -0.46727
O_ O_ 0.516991 0.170428 0.719344 -0.46727
O_ O_ 0.690274 0.165591 0.734593 -0.46727
O_ O_ 0.783677 0.30841 0.683338 -0.58347
O_ O_ 0.789501 0.290137 0.637471 -0.58347
O_ O_ 0.854678 0.234393 0.683236 -0.58347
O_ O_ 0.878536 0.232607 0.639548 -0.58347
O_ O_ 0.861662 0.383063 0.675457 -0.58347
O_ O_ 0.849624 0.379462 0.629432 -0.58347
O_ O_ 0.930927 0.31003 0.677295 -0.58347
O_ O_ 0.938141 0.321725 0.631527 -0.58347
O_ O_ 0.930938 0.260541 0.833317 -0.46727
O_ O_ 0.769807 0.327294 0.838968 -0.46727
O_ O_ 0.970584 0.320164 0.976485 -0.46727
O_ O_ 0.806315 0.369032 0.98835 -0.46727
Zn Zn 0.636263 0.692078 0.381891 0.90689
Zn Zn 0.641918 0.690672 0.428847 0.90689
Zn Zn 0.875031 0.81949 0.13174 0.90689
Zn Zn 0.867123 0.829205 0.179888 0.90689
H_ H_ 0.808643 0.697823 0.447688 0.11455
H_ H_ 0.878493 0.664614 0.349286 0.11455
H_ H_ 0.787888 0.660646 0.357852 0.11455
H_ H_ 0.890777 0.691484 0.468239 0.11455
H_ H_ 0.983932 0.682624 0.462948 0.11455
H_ H_ 0.965041 0.675887 0.370652 0.11455
H_ H_ 0.650263 0.52337 0.441836 0.11455
H_ H_ 0.684294 0.936843 0.35616 0.11455
H_ H_ 0.621909 0.53176 0.351108 0.11455
H_ H_ 0.575201 0.935519 0.456949 0.11455
H_ H_ 0.605372 0.846391 0.459922 0.11455
H_ H_ 0.665169 0.855407 0.374643 0.11455
H_ H_ 0.594044 0.609702 0.46318 0.11455
H_ H_ 0.578373 0.580358 0.014373 0.11455
H_ H_ 0.622809 0.619948 0.055421 0.11455
H_ H_ 0.691719 0.755903 0.474953 0.11455
H_ H_ 0.713029 0.813517 0.00947305 0.11455
H_ H_ 0.688085 0.794108 0.06139 0.11455
H_ H_ 0.508106 0.719361 0.119142 0.11455
H_ H_ 0.496441 0.704966 0.17059 0.11455
H_ H_ 0.757435 0.668919 0.136508 0.11455
H_ H_ 0.742853 0.652355 0.187819 0.11455
H_ H_ 0.561209 0.601302 0.24855 0.11455
H_ H_ 0.550242 0.572453 0.299104 0.11455
H_ H_ 0.579271 0.62849 0.338746 0.11455
H_ H_ 0.647244 0.763311 0.255962 0.11455
H_ H_ 0.684615 0.808783 0.296567 0.11455
H_ H_ 0.690036 0.769562 0.346822 0.11455
H_ H_ 0.700597 0.818459 0.197364 0.11455
H_ H_ 0.631037 0.85406 0.100231 0.11455
H_ H_ 0.720561 0.845973 0.107207 0.11455
H_ H_ 0.613238 0.80107 0.21433 0.11455
H_ H_ 0.518128 0.800998 0.205133 0.11455
H_ H_ 0.5471 0.844675 0.119416 0.11455
H_ H_ 0.860121 0.993149 0.190428 0.11455
H_ H_ 0.887383 0.575328 0.0979706 0.11455
H_ H_ 0.85234 0.977799 0.099052 0.11455
H_ H_ 0.842432 0.578324 0.214269 0.11455
H_ H_ 0.858659 0.671708 0.211572 0.11455
H_ H_ 0.867602 0.658703 0.119791 0.11455
H_ H_ 0.91902 0.903528 0.214178 0.11455
H_ H_ 0.937381 0.933526 0.263005 0.11455
H_ H_ 0.908687 0.877232 0.303343 0.11455
H_ H_ 0.813068 0.765189 0.221146 0.11455
H_ H_ 0.778188 0.710895 0.262825 0.11455
H_ H_ 0.794553 0.731234 0.311805 0.11455
H_ H_ 0.995057 0.802117 0.369721 0.11455
H_ H_ 0.00779288 0.806416 0.423859 0.11455
H_ H_ 0.748904 0.854121 0.388119 0.11455
H_ H_ 0.759401 0.847793 0.438171 0.11455
H_ H_ 0.939545 0.90384 0.500634 0.11455
H_ H_ 0.982353 0.914558 0.0447961 0.11455
H_ H_ 0.943584 0.872944 0.0873456 0.11455
H_ H_ 0.829529 0.761822 0.0105632 0.11455
H_ H_ 0.792594 0.72335 0.0485973 0.11455
H_ H_ 0.817845 0.748214 0.100304 0.11455
C_ C_ 0.735079 0.688318 0.405753 0.68181
C_ C_ 0.792125 0.689027 0.401578 -0.05681
C_ C_ 0.824782 0.691691 0.426284 -0.08735
C_ C_ 0.87631 0.682309 0.422515 -0.05681
C_ C_ 0.897967 0.678025 0.394887 -0.05681
C_ C_ 0.865093 0.67473 0.370989 -0.08735
C_ C_ 0.810729 0.67871 0.374293 -0.08735
C_ C_ 0.907384 0.688827 0.446387 -0.08735
C_ C_ 0.961006 0.687674 0.442716 -0.08735
C_ C_ 0.983283 0.684589 0.41567 -0.05681
C_ C_ 0.951954 0.680869 0.391395 -0.08735
C_ C_ 0.632948 0.78777 0.414573 0.68181
C_ C_ 0.640265 0.592638 0.397661 0.68181
C_ C_ 0.64018 0.535882 0.396618 -0.05681
C_ C_ 0.611029 1.00146107 0.417167 -0.08735
C_ C_ 0.618491 0.948204 0.417676 -0.05681
C_ C_ 0.641692 0.925354 0.39406 -0.05681
C_ C_ 0.669094 0.954987 0.374613 -0.08735
C_ C_ 0.667372 1.00669377 0.376611 -0.08735
C_ C_ 0.601524 0.918032 0.440652 -0.08735
C_ C_ 0.613054 0.867334 0.440948 -0.08735
C_ C_ 0.631809 0.842953 0.416558 -0.05681
C_ C_ 0.644242 0.872049 0.392805 -0.08735
C_ C_ 0.541892 0.684766 0.405144 0.68181
C_ C_ 0.608026 0.630563 0.482387 0.1947
C_ C_ 0.601726 0.612983 0.0111861 -0.08735
C_ C_ 0.623695 0.637988 0.0343551 -0.08735
C_ C_ 0.651853 0.68382 0.0300454 -0.05681
C_ C_ 0.66153 0.698156 1.00076 0.18498
C_ C_ 0.678499 0.747032 0.49601 -0.08735
C_ C_ 0.693998 0.778759 0.0163123 -0.08735
C_ C_ 0.679897 0.767827 0.0445299 -0.08735
C_ C_ 0.660883 0.719751 0.0520266 0.18498
C_ C_ 0.68602 0.694323 0.0988568 0.44287
C_ C_ 0.601652 0.724854 0.0935876 0.44287
C_ C_ 0.591288 0.708536 0.122388 -0.05681
C_ C_ 0.54138 0.711235 0.134221 -0.08735
C_ C_ 0.534773 0.702743 0.163236 -0.08735
C_ C_ 0.575725 0.693167 0.18133 -0.05681
C_ C_ 0.622425 0.686238 0.168974 -0.05681
C_ C_ 0.62931 0.692415 0.139848 -0.05681
C_ C_ 0.680253 0.690261 0.127761 -0.05681
C_ C_ 0.720694 0.680398 0.146291 -0.08735
C_ C_ 0.71168 0.670213 0.175366 -0.08735
C_ C_ 0.665436 0.679365 0.187799 -0.05681
C_ C_ 0.656915 0.673931 0.217841 0.44287
C_ C_ 0.569208 0.691381 0.21236 0.44287
C_ C_ 0.602541 0.669985 0.259996 0.18498
C_ C_ 0.572587 0.62725 0.266011 -0.08735
C_ C_ 0.564516 0.611546 0.295008 -0.08735
C_ C_ 0.581386 0.642235 0.317762 -0.08735
C_ C_ 0.615648 0.683794 0.312194 0.18498
C_ C_ 0.620861 0.699819 0.283236 -0.05681
C_ C_ 0.648102 0.743503 0.27781 -0.08735
C_ C_ 0.672751 0.770662 0.299979 -0.08735
C_ C_ 0.671733 0.750998 0.328549 0.1947
C_ C_ 0.77193 0.823082 0.154958 0.68181
C_ C_ 0.716917 0.832159 0.152099 -0.05681
C_ C_ 0.683586 0.828194 0.175742 -0.08735
C_ C_ 0.631722 0.827854 0.171908 -0.05681
C_ C_ 0.613154 0.84312 0.144791 -0.05681
C_ C_ 0.645686 0.853332 0.122473 -0.08735
C_ C_ 0.697413 0.847065 0.125321 -0.08735
C_ C_ 0.597734 0.815923 0.195171 -0.08735
C_ C_ 0.545258 0.816219 0.189496 -0.08735
C_ C_ 0.527591 0.830047 0.162977 -0.05681
C_ C_ 0.560243 0.841838 0.14001 -0.08735
C_ C_ 0.881326 0.7242 0.163285 0.68181
C_ C_ 0.855941 0.923677 0.147758 0.68181
C_ C_ 0.860306 0.978905 0.145013 -0.05681
C_ C_ 0.86207 0.510334 0.17036 -0.08735
C_ C_ 0.862896 0.56381 0.168992 -0.05681
C_ C_ 0.874064 0.587085 0.142699 -0.05681
C_ C_ 0.881496 0.556794 0.118384 -0.08735
C_ C_ 0.857315 1.00240849 0.118116 -0.08735
C_ C_ 0.856341 0.594991 0.193966 -0.08735
C_ C_ 0.858482 0.647785 0.191985 -0.08735
C_ C_ 0.86851 0.671127 0.165084 -0.05681
C_ C_ 0.87071 0.641826 0.140274 -0.08735
C_ C_ 0.968398 0.834308 0.157308 0.68181
C_ C_ 0.903099 0.884322 0.232826 0.1947
C_ C_ 0.916213 0.897798 0.259923 -0.08735
C_ C_ 0.899355 0.86636 0.282718 -0.08735
C_ C_ 0.863144 0.828702 0.278543 -0.05681
C_ C_ 0.855136 0.8132 0.249399 0.18498
C_ C_ 0.822586 0.77378 0.243688 -0.08735
C_ C_ 0.804882 0.743315 0.266183 -0.08735
C_ C_ 0.813605 0.757273 0.295088 -0.08735
C_ C_ 0.846389 0.797294 0.30189 0.18498
C_ C_ 0.815988 0.825422 0.348768 0.44287
C_ C_ 0.904226 0.802561 0.34233 0.44287
C_ C_ 0.913696 0.809431 0.37251 -0.05681
C_ C_ 0.964017 0.810357 0.384292 -0.08735
C_ C_ 0.971394 0.810403 0.414237 -0.08735
C_ C_ 0.928474 0.816007 0.43176 -0.05681
C_ C_ 0.878586 0.824325 0.420173 -0.05681
C_ C_ 0.871143 0.820831 0.390447 -0.05681
C_ C_ 0.823695 0.827626 0.378852 -0.05681
C_ C_ 0.784829 0.842581 0.395473 -0.08735
C_ C_ 0.791892 0.844334 0.425246 -0.08735
C_ C_ 0.837811 0.836965 0.438352 -0.05681
C_ C_ 0.844145 0.832338 0.468778 0.44287
C_ C_ 0.932377 0.813398 0.461491 0.44287
C_ C_ 0.902496 0.836449 0.00993454 0.18498
C_ C_ 0.93527 0.876581 0.0149218 -0.08735
C_ C_ 0.950509 0.889056 0.0422425 -0.08735
C_ C_ 0.928442 0.864375 0.0657382 -0.08735
C_ C_ 0.89143 0.827168 0.0626563 0.18498
C_ C_ 0.878142 0.811602 0.0338892 -0.05681
C_ C_ 0.840721 0.775449 0.0304519 -0.08735
C_ C_ 0.817473 0.755929 0.0538034 -0.08735
C_ C_ 0.833175 0.766786 0.0813319 0.1947
N_ N_ 0.636693 0.673015 0.478119 -0.29468
N_ N_ 0.648487 0.70984 0.0818052 -0.17154
N_ N_ 0.611167 0.682624 0.229896 -0.17154
N_ N_ 0.638002 0.711384 0.334755 -0.29468
N_ N_ 0.874744 0.840999 0.228113 -0.29468
N_ N_ 0.856368 0.810441 0.331361 -0.17154
N_ N_ 0.891687 0.822079 0.479531 -0.17154
N_ N_ 0.869783 0.803724 0.0858481 -0.29468
O_ O_ 0.716002 0.692972 0.43028 -0.58347
O_ O_ 0.709454 0.697769 0.383126 -0.58347
O_ O_ 0.633764 0.762453 0.437172 -0.58347
O_ O_ 0.631281 0.766044 0.390014 -0.58347
O_ O_ 0.643743 0.617936 0.421085 -0.58347
O_ O_ 0.637621 0.617191 0.374349 -0.58347
O_ O_ 0.56834 0.686275 0.42688 -0.58347
O_ O_ 0.561814 0.687821 0.380674 -0.58347
O_ O_ 0.563398 0.739044 0.0782203 -0.46727
O_ O_ 0.730222 0.682332 0.0878521 -0.46727
O_ O_ 0.52206 0.68648 0.223151 -0.46727
O_ O_ 0.69317 0.659151 0.235211 -0.46727
O_ O_ 0.790034 0.820723 0.179806 -0.58347
O_ O_ 0.798815 0.813621 0.133261 -0.58347
O_ O_ 0.877889 0.753137 0.185217 -0.58347
O_ O_ 0.881213 0.743213 0.138467 -0.58347
O_ O_ 0.856705 0.904334 0.173614 -0.58347
O_ O_ 0.872127 0.89471 0.127076 -0.58347
O_ O_ 0.942301 0.837927 0.1795 -0.58347
O_ O_ 0.947154 0.822723 0.132386 -0.58347
O_ O_ 0.940362 0.793588 0.324137 -0.46727
O_ O_ 0.769509 0.827297 0.338723 -0.46727
O_ O_ 0.974751 0.800706 0.473465 -0.46727
O_ O_ 0.805538 0.839582 0.486352 -0.46727
Zn Zn 0.633517 0.692374 0.881676 0.90689
Zn Zn 0.642243 0.684109 0.930498 0.90689
Zn Zn 0.878958 0.804166 0.632073 0.90689
Zn Zn 0.868997 0.811195 0.678815 0.90689
H_ H_ 0.809034 0.698459 0.944797 0.11455
H_ H_ 0.88267 0.66364 0.850251 0.11455
H_ H_ 0.794069 0.690849 0.854295 0.11455
H_ H_ 0.893232 0.684686 0.967101 0.11455
H_ H_ 0.988727 0.677063 0.961869 0.11455
H_ H_ 0.968814 0.662059 0.871264 0.11455
H_ H_ 0.649395 0.519438 0.943063 0.11455
H_ H_ 0.633685 0.947078 0.843197 0.11455
H_ H_ 0.670419 0.531599 0.850934 0.11455
H_ H_ 0.609935 0.935293 0.959475 0.11455
H_ H_ 0.605949 0.843814 0.956129 0.11455
H_ H_ 0.630449 0.856709 0.864448 0.11455
H_ H_ 0.59411 0.611089 0.966409 0.11455
H_ H_ 0.575171 0.576469 0.512278 0.11455
H_ H_ 0.601755 0.626203 0.553223 0.11455
H_ H_ 0.691568 0.755964 0.973696 0.11455
H_ H_ 0.71559 0.81119 0.517792 0.11455
H_ H_ 0.693195 0.787794 0.565285 0.11455
H_ H_ 0.514142 0.69442 0.626424 0.11455
H_ H_ 0.507215 0.692204 0.676094 0.11455
H_ H_ 0.763831 0.675138 0.634632 0.11455
H_ H_ 0.76194 0.660364 0.685642 0.11455
H_ H_ 0.594405 0.575393 0.74954 0.11455
H_ H_ 0.577122 0.552634 0.800304 0.11455
H_ H_ 0.582624 0.61962 0.838961 0.11455
H_ H_ 0.676044 0.739292 0.756553 0.11455
H_ H_ 0.703426 0.789915 0.796363 0.11455
H_ H_ 0.681954 0.768489 0.843113 0.11455
H_ H_ 0.699336 0.783607 0.692667 0.11455
H_ H_ 0.63872 0.830029 0.596824 0.11455
H_ H_ 0.727571 0.838999 0.606684 0.11455
H_ H_ 0.612387 0.785759 0.712299 0.11455
H_ H_ 0.520079 0.785237 0.703398 0.11455
H_ H_ 0.548849 0.82817 0.615575 0.11455
H_ H_ 0.866545 0.974786 0.691104 0.11455
H_ H_ 0.884435 0.550408 0.597953 0.11455
H_ H_ 0.854416 0.961124 0.598734 0.11455
H_ H_ 0.860835 0.564653 0.716729 0.11455
H_ H_ 0.864053 0.653665 0.71207 0.11455
H_ H_ 0.891991 0.641454 0.622227 0.11455
H_ H_ 0.91264 0.891798 0.713235 0.11455
H_ H_ 0.926245 0.923209 0.761571 0.11455
H_ H_ 0.90573 0.869633 0.803746 0.11455
H_ H_ 0.804719 0.75343 0.72362 0.11455
H_ H_ 0.772413 0.702149 0.763746 0.11455
H_ H_ 0.795238 0.724658 0.813054 0.11455
H_ H_ 0.992 0.788079 0.872659 0.11455
H_ H_ 0.999689285 0.791924 0.924138 0.11455
H_ H_ 0.747659 0.843593 0.885538 0.11455
H_ H_ 0.755321 0.845064 0.940172 0.11455
H_ H_ 0.953257 0.894577 0.995806 0.11455
H_ H_ 0.94442 0.930655 0.549311 0.11455
H_ H_ 0.928748 0.872312 0.588775 0.11455
H_ H_ 0.859485 0.738556 0.504021 0.11455
H_ H_ 0.8177 0.692628 0.544992 0.11455
H_ H_ 0.835554 0.719004 0.595343 0.11455
C_ C_ 0.739478 0.695064 0.902893 0.68181
C_ C_ 0.795105 0.690254 0.899066 -0.05681
C_ C_ 0.826644 0.694665 0.923193 -0.08735
C_ C_ 0.879991 0.684487 0.921254 -0.05681
C_ C_ 0.901212 0.673212 0.894881 -0.05681
C_ C_ 0.869599 0.673679 0.870405 -0.08735
C_ C_ 0.817955 0.683081 0.872842 -0.08735
C_ C_ 0.910281 0.683922 0.94598 -0.08735
C_ C_ 0.962231 0.674737 0.943052 -0.08735
C_ C_ 0.985179 0.66959 0.916492 -0.05681
C_ C_ 0.952212 0.663162 0.892299 -0.08735
C_ C_ 0.627021 0.788322 0.909072 0.68181
C_ C_ 0.65463 0.590945 0.900311 0.68181
C_ C_ 0.653999 0.533935 0.897486 -0.05681
C_ C_ 0.632885 0.003292 0.920282 -0.08735
C_ C_ 0.628568 0.950643 0.915772 -0.05681
C_ C_ 0.630516 0.9297 0.888234 -0.05681
C_ C_ 0.628465 0.961582 0.86444 -0.08735
C_ C_ 0.627673 0.0129801 0.868399 -0.08735
C_ C_ 0.620133 0.917805 0.939299 -0.08735
C_ C_ 0.616346 0.86473 0.937528 -0.08735
C_ C_ 0.620472 0.843763 0.91125 -0.05681
C_ C_ 0.626615 0.875693 0.885522 -0.08735
C_ C_ 0.539577 0.675315 0.907159 0.68181
C_ C_ 0.611686 0.629901 0.984169 0.1947
C_ C_ 0.596357 0.611532 0.509364 -0.08735
C_ C_ 0.614149 0.639223 0.533072 -0.08735
C_ C_ 0.642579 0.683994 0.529747 -0.05681
C_ C_ 0.652788 0.702153 0.501313 0.18498
C_ C_ 0.682956 0.744773 0.994567 -0.08735
C_ C_ 0.690588 0.778909 0.52084 -0.08735
C_ C_ 0.678152 0.763896 0.54834 -0.08735
C_ C_ 0.652801 0.716958 0.553605 0.18498
C_ C_ 0.688483 0.686903 0.597657 0.44287
C_ C_ 0.600328 0.70268 0.595248 0.44287
C_ C_ 0.594503 0.688147 0.624474 -0.05681
C_ C_ 0.54709 0.683167 0.637511 -0.08735
C_ C_ 0.542983 0.679934 0.666531 -0.08735
C_ C_ 0.587915 0.67213 0.683445 -0.05681
C_ C_ 0.636016 0.670162 0.670208 -0.05681
C_ C_ 0.638301 0.676241 0.640306 -0.05681
C_ C_ 0.684585 0.679174 0.627466 -0.05681
C_ C_ 0.72906 0.677808 0.645105 -0.08735
C_ C_ 0.726329 0.672739 0.674703 -0.08735
C_ C_ 0.678468 0.671723 0.687375 -0.05681
C_ C_ 0.674647 0.664403 0.716809 0.44287
C_ C_ 0.585351 0.670931 0.713609 0.44287
C_ C_ 0.621213 0.649952 0.759274 0.18498
C_ C_ 0.605915 0.601837 0.76704 -0.08735
C_ C_ 0.595244 0.589025 0.795727 -0.08735
C_ C_ 0.600942 0.626946 0.817288 -0.08735
C_ C_ 0.622012 0.672543 0.811376 0.18498
C_ C_ 0.631462 0.686788 0.78183 -0.05681
C_ C_ 0.661366 0.730064 0.776984 -0.08735
C_ C_ 0.67624 0.76057 0.799465 -0.08735
C_ C_ 0.661621 0.746625 0.827269 0.1947
C_ C_ 0.778137 0.79917 0.653938 0.68181
C_ C_ 0.723585 0.809751 0.649711 -0.05681
C_ C_ 0.686738 0.799234 0.672835 -0.08735
C_ C_ 0.635126 0.807553 0.668838 -0.05681
C_ C_ 0.615961 0.817835 0.641191 -0.05681
C_ C_ 0.651247 0.826656 0.618998 -0.08735
C_ C_ 0.702247 0.82146 0.622609 -0.08735
C_ C_ 0.599105 0.797771 0.6913 -0.08735
C_ C_ 0.545977 0.797413 0.686259 -0.08735
C_ C_ 0.528314 0.808523 0.659392 -0.05681
C_ C_ 0.562326 0.819001 0.6366 -0.08735
C_ C_ 0.882536 0.709281 0.663299 0.68181
C_ C_ 0.861092 0.904168 0.650246 0.68181
C_ C_ 0.863646 0.960018 0.645681 -0.05681
C_ C_ 0.859263 0.494195 0.673818 -0.08735
C_ C_ 0.8698 0.547646 0.672243 -0.05681
C_ C_ 0.878867 0.569567 0.644721 -0.05681
C_ C_ 0.877989 0.537848 0.620366 -0.08735
C_ C_ 0.856123 0.98299 0.617917 -0.08735
C_ C_ 0.869836 0.579878 0.696272 -0.08735
C_ C_ 0.872473 0.629592 0.693672 -0.08735
C_ C_ 0.879772 0.653309 0.666743 -0.05681
C_ C_ 0.879293 0.6222 0.641899 -0.08735
C_ C_ 0.973834 0.821981 0.657031 0.68181
C_ C_ 0.897064 0.871979 0.731605 0.1947
C_ C_ 0.913099 0.884853 0.759133 -0.08735
C_ C_ 0.895363 0.857845 0.782554 -0.08735
C_ C_ 0.863545 0.816091 0.778258 -0.05681
C_ C_ 0.852543 0.799192 0.749084 0.18498
C_ C_ 0.823697 0.757674 0.744607 -0.08735
C_ C_ 0.805424 0.727771 0.767027 -0.08735
C_ C_ 0.815965 0.741782 0.794835 -0.08735
C_ C_ 0.847458 0.78415 0.80166 0.18498
C_ C_ 0.81298 0.81152 0.84832 0.44287
C_ C_ 0.901417 0.791166 0.842266 0.44287
C_ C_ 0.910268 0.800472 0.871502 -0.05681
C_ C_ 0.958853 0.795225 0.884056 -0.08735
C_ C_ 0.965309 0.799918 0.914474 -0.08735
C_ C_ 0.923501 0.803424 0.932894 -0.05681
C_ C_ 0.877785 0.812417 0.920641 -0.05681
C_ C_ 0.869369 0.81041 0.890184 -0.05681
C_ C_ 0.820247 0.817508 0.878003 -0.05681
C_ C_ 0.782946 0.831875 0.897082 -0.08735
C_ C_ 0.78842 0.832934 0.926116 -0.08735
C_ C_ 0.837728 0.827342 0.938083 -0.05681
C_ C_ 0.847105 0.836728 0.967472 0.44287
C_ C_ 0.931578 0.807516 0.963028 0.44287
C_ C_ 0.901126 0.834225 0.509153 0.18498
C_ C_ 0.921717 0.880781 0.516367 -0.08735
C_ C_ 0.929716 0.891947 0.545095 -0.08735
C_ C_ 0.916107 0.860863 0.566374 -0.08735
C_ C_ 0.898237 0.812161 0.56134 0.18498
C_ C_ 0.884161 0.801968 0.531878 -0.05681
C_ C_ 0.858162 0.75714 0.52559 -0.08735
C_ C_ 0.841963 0.72702 0.54888 -0.08735
C_ C_ 0.849767 0.741186 0.577455 0.1947
N_ N_ 0.638454 0.672133 0.979041 -0.29468
N_ N_ 0.646465 0.700084 0.582869 -0.17154
N_ N_ 0.626902 0.664128 0.729573 -0.17154
N_ N_ 0.634917 0.703854 0.832999 -0.29468
N_ N_ 0.870266 0.828058 0.726537 -0.29468
N_ N_ 0.853068 0.80006 0.831245 -0.17154
N_ N_ 0.891286 0.819331 0.980203 -0.17154
N_ N_ 0.879685 0.783465 0.582902 -0.29468
O_ O_ 0.718971 0.680323 0.926956 -0.58347
O_ O_ 0.713177 0.711806 0.881674 -0.58347
O_ O_ 0.635689 0.763203 0.932153 -0.58347
O_ O_ 0.617109 0.76564 0.885356 -0.58347
O_ O_ 0.64763 0.60998 0.925546 -0.58347
O_ O_ 0.651342 0.618243 0.8779 -0.58347
O_ O_ 0.568503 0.680212 0.928297 -0.58347
O_ O_ 0.558336 0.673449 0.881817 -0.58347
O_ O_ 0.562825 0.72573 0.582142 -0.46727
O_ O_ 0.731982 0.688564 0.585234 -0.46727
O_ O_ 0.541569 0.678573 0.726363 -0.46727
O_ O_ 0.71501 0.663921 0.733766 -0.46727
O_ O_ 0.79479 0.802223 0.679533 -0.58347
O_ O_ 0.807454 0.794769 0.633422 -0.58347
O_ O_ 0.875575 0.73836 0.684504 -0.58347
O_ O_ 0.886685 0.727566 0.638168 -0.58347
O_ O_ 0.857108 0.884001 0.674576 -0.58347
O_ O_ 0.865959 0.877494 0.628031 -0.58347
O_ O_ 0.943577 0.826385 0.678615 -0.58347
O_ O_ 0.955927 0.815625 0.632486 -0.58347
O_ O_ 0.936938 0.771668 0.825628 -0.46727
O_ O_ 0.76654 0.815015 0.837295 -0.46727
O_ O_ 0.975259 0.795357 0.974555 -0.46727
O_ O_ 0.811298 0.852806 0.984684 -0.46727
_cell_length_a 26.376
_cell_length_b 26.400000238300095
_cell_length_c 46.67800035477134
_cell_angle_alpha 90.00700052986613
_cell_angle_beta 89.99899961309502
_cell_angle_gamma 90.45000003183146
_symmetry_space_group_name_H-M         'P 1'
_symmetry_Int_Tables_number            1
loop_
_symmetry_equiv_pos_as_xyz
   'x, y, z'
                         
loop_
_atom_site_label
_atom_site_type_symbol
_atom_site_fract_x 
_atom_site_fract_y
_atom_site_fract_z
_atom_site_charge
Zn Zn 0.12026 0.179979 0.3795 0.90689
Zn Zn 0.127194 0.169392 0.429377 0.90689
Zn Zn 0.37537 0.315751 0.131163 0.90689
Zn Zn 0.372637 0.329509 0.18035 0.90689
H_ H_ 0.298697 0.166261 0.445364 0.11455
H_ H_ 0.368716 0.182089 0.348105 0.11455
H_ H_ 0.278559 0.185397 0.354837 0.11455
H_ H_ 0.38644 0.165941 0.466002 0.11455
H_ H_ 0.475793 0.177596 0.459057 0.11455
H_ H_ 0.448823 0.191189 0.367876 0.11455
H_ H_ 0.121757 0.0032045 0.448486 0.11455
H_ H_ 0.0933253 0.432564 0.348044 0.11455
H_ H_ 0.135873 0.0204927 0.357089 0.11455
H_ H_ 0.140626 0.416419 0.462947 0.11455
H_ H_ 0.122784 0.32635 0.457709 0.11455
H_ H_ 0.0910352 0.349726 0.367141 0.11455
H_ H_ 0.0559183 0.112366 0.465113 0.11455
H_ H_ 0.0896594 0.0583884 0.0156283 0.11455
H_ H_ 0.104555 0.115812 0.0537669 0.11455
H_ H_ 0.174807 0.242962 0.472029 0.11455
H_ H_ 0.222055 0.290251 0.00797636 0.11455
H_ H_ 0.197997 0.276973 0.0596691 0.11455
H_ H_ 0.00618699 0.202095 0.123689 0.11455
H_ H_ -0.009143000000000012 0.174865 0.172117 0.11455
H_ H_ 0.259323 0.167858 0.140746 0.11455
H_ H_ 0.24247 0.152031 0.190872 0.11455
H_ H_ 0.0665831 0.0772675 0.248438 0.11455
H_ H_ 0.0383778 0.0582375 0.299883 0.11455
H_ H_ 0.0698347 0.111473 0.338825 0.11455
H_ H_ 0.158971 0.236873 0.257008 0.11455
H_ H_ 0.180129 0.290738 0.296405 0.11455
H_ H_ 0.169014 0.256131 0.347699 0.11455
H_ H_ 0.198519 0.325365 0.195599 0.11455
H_ H_ 0.127325 0.318804 0.0988485 0.11455
H_ H_ 0.218594 0.317516 0.104474 0.11455
H_ H_ 0.115306 0.319086 0.216305 0.11455
H_ H_ 0.0212774 0.322061 0.211299 0.11455
H_ H_ 0.0413543 0.324147 0.119644 0.11455
H_ H_ 0.386277 0.4881 0.187105 0.11455
H_ H_ 0.422744 0.0703163 0.102971 0.11455
H_ H_ 0.352246 0.479105 0.100144 0.11455
H_ H_ 0.347132 0.0758476 0.214045 0.11455
H_ H_ 0.352905 0.169067 0.20975 0.11455
H_ H_ 0.410284 0.153787 0.123632 0.11455
H_ H_ 0.423588 0.3949 0.213005 0.11455
H_ H_ 0.458392 0.41519 0.258671 0.11455
H_ H_ 0.420883 0.375763 0.304086 0.11455
H_ H_ 0.310172 0.262817 0.223495 0.11455
H_ H_ 0.275348 0.213052 0.264741 0.11455
H_ H_ 0.29026 0.237028 0.310907 0.11455
H_ H_ 0.48301 0.300075 0.375891 0.11455
H_ H_ 0.488987 0.292989 0.428419 0.11455
H_ H_ 0.239156 0.347598 0.385328 0.11455
H_ H_ 0.244574 0.364419 0.43759 0.11455
H_ H_ 0.423912 0.416651 0.504423 0.11455
H_ H_ 0.427215 0.447383 0.0475469 0.11455
H_ H_ 0.42584 0.382143 0.0861337 0.11455
H_ H_ 0.321654 0.264025 0.00844977 0.11455
H_ H_ 0.303622 0.207582 0.0475297 0.11455
H_ H_ 0.336813 0.230485 0.095516 0.11455
C_ C_ 0.223166 0.177766 0.40595 0.68181
C_ C_ 0.279077 0.180085 0.401538 -0.05681
C_ C_ 0.311967 0.173755 0.424592 -0.08735
C_ C_ 0.365836 0.174173 0.421319 -0.05681
C_ C_ 0.385445 0.1797 0.39392 -0.05681
C_ C_ 0.353337 0.177069 0.370198 -0.08735
C_ C_ 0.300712 0.183406 0.374274 -0.08735
C_ C_ 0.399964 0.171617 0.44459 -0.08735
C_ C_ 0.451861 0.176914 0.439794 -0.08735
C_ C_ 0.472426 0.17844 0.4124 -0.05681
C_ C_ 0.43718 0.182125 0.389472 -0.08735
C_ C_ 0.114412 0.273606 0.407399 0.68181
C_ C_ 0.125342 0.076306 0.402964 0.68181
C_ C_ 0.127261 0.0184102 0.402181 -0.05681
C_ C_ 0.139538 0.486914 0.421271 -0.08735
C_ C_ 0.12897 0.433278 0.417987 -0.05681
C_ C_ 0.112879 0.415751 0.391247 -0.05681
C_ C_ 0.0999454 0.449173 0.369815 -0.08735
C_ C_ 0.110549 0.500437 0.37179 -0.08735
C_ C_ 0.131729 0.40169 0.441966 -0.08735
C_ C_ 0.122022 0.349538 0.438686 -0.08735
C_ C_ 0.110592 0.328697 0.411096 -0.05681
C_ C_ 0.105513 0.362185 0.387286 -0.08735
C_ C_ 0.0260818 0.169154 0.404258 0.68181
C_ C_ 0.0771574 0.127553 0.482999 0.1947
C_ C_ 0.10279 0.0949589 0.00972231 -0.08735
C_ C_ 0.11856 0.12498 0.0325595 -0.08735
C_ C_ 0.137434 0.174196 0.0284741 -0.05681
C_ C_ 0.147529 0.187483 0.998816 0.18498
C_ C_ 0.169935 0.230847 0.494165 -0.08735
C_ C_ 0.195762 0.258559 0.0143684 -0.08735
C_ C_ 0.182766 0.24889 0.0439839 -0.08735
C_ C_ 0.154243 0.207011 0.0521434 0.18498
C_ C_ 0.184602 0.185745 0.100064 0.44287
C_ C_ 0.0963116 0.201038 0.0941204 0.44287
C_ C_ 0.0878774 0.190766 0.123368 -0.05681
C_ C_ 0.038286 0.187843 0.135342 -0.08735
C_ C_ 0.0305162 0.180991 0.165026 -0.08735
C_ C_ 0.0733617 0.17514 0.183571 -0.05681
C_ C_ 0.121221 0.168067 0.170734 -0.05681
C_ C_ 0.13004 0.180064 0.141764 -0.05681
C_ C_ 0.18016 0.178962 0.130269 -0.05681
C_ C_ 0.221024 0.164414 0.148279 -0.08735
C_ C_ 0.210537 0.155287 0.176921 -0.08735
C_ C_ 0.163335 0.158668 0.188703 -0.05681
C_ C_ 0.158272 0.157823 0.218127 0.44287
C_ C_ 0.0674584 0.168293 0.213175 0.44287
C_ C_ 0.102274 0.149326 0.260102 0.18498
C_ C_ 0.0772993 0.103481 0.26626 -0.08735
C_ C_ 0.0661133 0.0880025 0.29456 -0.08735
C_ C_ 0.077158 0.120309 0.317403 -0.08735
C_ C_ 0.111215 0.162033 0.311564 0.18498
C_ C_ 0.122399 0.177248 0.282609 -0.05681
C_ C_ 0.15033 0.223315 0.278092 -0.08735
C_ C_ 0.165272 0.253133 0.301357 -0.08735
C_ C_ 0.156661 0.234843 0.329275 0.1947
C_ C_ 0.274271 0.314825 0.154483 0.68181
C_ C_ 0.218425 0.319372 0.150373 -0.05681
C_ C_ 0.183162 0.321998 0.174381 -0.08735
C_ C_ 0.130979 0.320822 0.170929 -0.05681
C_ C_ 0.110281 0.317786 0.144021 -0.05681
C_ C_ 0.141152 0.317141 0.120496 -0.08735
C_ C_ 0.196762 0.318658 0.1234 -0.08735
C_ C_ 0.0997191 0.324784 0.195471 -0.08735
C_ C_ 0.0476511 0.326979 0.192491 -0.08735
C_ C_ 0.0278081 0.321941 0.163922 -0.05681
C_ C_ 0.0589933 0.32337 0.139554 -0.08735
C_ C_ 0.38024 0.225029 0.162429 0.68181
C_ C_ 0.368309 0.422363 0.147741 0.68181
C_ C_ 0.377356 0.478713 0.144751 -0.05681
C_ C_ 0.352909 0.0112225 0.169499 -0.08735
C_ C_ 0.370398 0.0637951 0.170011 -0.05681
C_ C_ 0.393675 0.0845247 0.14547 -0.05681
C_ C_ 0.406339 0.0526297 0.122657 -0.08735
C_ C_ 0.364352 0.502041 0.118655 -0.08735
C_ C_ 0.357774 0.0931747 0.193709 -0.08735
C_ C_ 0.362301 0.146243 0.192307 -0.08735
C_ C_ 0.379178 0.169485 0.165837 -0.05681
C_ C_ 0.397824 0.138533 0.143878 -0.08735
C_ C_ 0.472939 0.325708 0.155497 0.68181
C_ C_ 0.41104 0.373205 0.23116 0.1947
C_ C_ 0.427685 0.388323 0.257731 -0.08735
C_ C_ 0.408257 0.363772 0.282294 -0.08735
C_ C_ 0.370844 0.322996 0.278423 -0.05681
C_ C_ 0.357187 0.308939 0.249647 0.18498
C_ C_ 0.320061 0.272001 0.245765 -0.08735
C_ C_ 0.306884 0.240218 0.267479 -0.08735
C_ C_ 0.315727 0.255624 0.295825 -0.08735
C_ C_ 0.348435 0.29756 0.302702 0.18498
C_ C_ 0.311139 0.319412 0.349587 0.44287
C_ C_ 0.397453 0.298165 0.346683 0.44287
C_ C_ 0.403975 0.30495 0.376658 -0.05681
C_ C_ 0.450675 0.303106 0.390048 -0.08735
C_ C_ 0.452807 0.301108 0.4195 -0.08735
C_ C_ 0.410676 0.30976 0.436683 -0.05681
C_ C_ 0.364438 0.317903 0.423358 -0.05681
C_ C_ 0.36064 0.316303 0.392945 -0.05681
C_ C_ 0.314009 0.325288 0.379458 -0.05681
C_ C_ 0.273247 0.338247 0.39596 -0.08735
C_ C_ 0.276726 0.347005 0.425531 -0.08735
C_ C_ 0.321587 0.331467 0.439795 -0.05681
C_ C_ 0.328811 0.339089 0.469673 0.44287
C_ C_ 0.413934 0.310729 0.466411 0.44287
C_ C_ 0.375215 0.351743 0.00859234 0.18498
C_ C_ 0.397293 0.399147 0.0150846 -0.08735
C_ C_ 0.409682 0.411352 0.043557 -0.08735
C_ C_ 0.412833 0.372998 0.0643015 -0.08735
C_ C_ 0.383598 0.328294 0.0603402 0.18498
C_ C_ 0.367002 0.316837 0.0311096 -0.05681
C_ C_ 0.339789 0.271247 0.0280168 -0.08735
C_ C_ 0.32737 0.241789 0.0515896 -0.08735
C_ C_ 0.345501 0.254776 0.0789415 0.1947
N_ N_ 0.113392 0.164133 0.477601 -0.29468
N_ N_ 0.144465 0.197525 0.0828413 -0.17154
N_ N_ 0.109172 0.160843 0.230067 -0.17154
N_ N_ 0.130871 0.190221 0.333502 -0.29468
N_ N_ 0.378181 0.336124 0.226971 -0.29468
N_ N_ 0.35343 0.309664 0.332675 -0.17154
N_ N_ 0.374687 0.328897 0.482436 -0.17154
N_ N_ 0.365818 0.300866 0.0832103 -0.29468
O_ O_ 0.206237 0.166557 0.430498 -0.58347
O_ O_ 0.19289 0.190743 0.385444 -0.58347
O_ O_ 0.13174 0.244448 0.427038 -0.58347
O_ O_ 0.105528 0.254975 0.383008 -0.58347
O_ O_ 0.114816 0.0974249 0.426517 -0.58347
O_ O_ 0.13284 0.104751 0.379573 -0.58347
O_ O_ 0.0535946 0.173859 0.426153 -0.58347
O_ O_ 0.0459567 0.172163 0.378844 -0.58347
O_ O_ 0.0569443 0.207757 0.0772768 -0.46727
O_ O_ 0.227362 0.172406 0.0877057 -0.46727
O_ O_ 0.0231292 0.169539 0.22532 -0.46727
O_ O_ 0.19487 0.138024 0.233973 -0.46727
O_ O_ 0.295679 0.332409 0.176901 -0.58347
O_ O_ 0.301485 0.300632 0.134048 -0.58347
O_ O_ 0.365229 0.254255 0.182866 -0.58347
O_ O_ 0.388163 0.242754 0.137936 -0.58347
O_ O_ 0.371731 0.404151 0.172909 -0.58347
O_ O_ 0.364459 0.393112 0.126532 -0.58347
O_ O_ 0.446504 0.318033 0.177259 -0.58347
O_ O_ 0.450107 0.331426 0.131571 -0.58347
O_ O_ 0.433667 0.276842 0.331299 -0.46727
O_ O_ 0.268978 0.330064 0.336181 -0.46727
O_ O_ 0.452958 0.291759 0.479585 -0.46727
O_ O_ 0.290749 0.355742 0.485535 -0.46727
Zn Zn 0.121247 0.189923 0.881869 0.90689
Zn Zn 0.127795 0.175327 0.929473 0.90689
Zn Zn 0.369168 0.304722 0.631796 0.90689
Zn Zn 0.352783 0.310501 0.678541 0.90689
H_ H_ 0.291138 0.194541 0.94562 0.11455
H_ H_ 0.364119 0.168553 0.848875 0.11455
H_ H_ 0.272874 0.162919 0.855169 0.11455
H_ H_ 0.380167 0.199698 0.962698 0.11455
H_ H_ 0.469577 0.21275 0.955225 0.11455
H_ H_ 0.448072 0.170297 0.867143 0.11455
H_ H_ 0.169797 0.0121103 0.93377 0.11455
H_ H_ 0.134012 0.433815 0.853413 0.11455
H_ H_ 0.137785 0.0231452 0.844269 0.11455
H_ H_ 0.104994 0.42277 0.971243 0.11455
H_ H_ 0.111799 0.330716 0.965195 0.11455
H_ H_ 0.112633 0.351391 0.874513 0.11455
H_ H_ 0.0831186 0.0965991 0.965144 0.11455
H_ H_ 0.0417638 0.0798651 0.515226 0.11455
H_ H_ 0.084313 0.125078 0.554484 0.11455
H_ H_ 0.185281 0.240863 0.97031 0.11455
H_ H_ 0.204669 0.298878 0.508601 0.11455
H_ H_ 0.198954 0.269916 0.5602 0.11455
H_ H_ -0.0011250000000000426 0.205732 0.621368 0.11455
H_ H_ -0.014492999999999978 0.194298 0.671243 0.11455
H_ H_ 0.249563 0.161969 0.641569 0.11455
H_ H_ 0.235803 0.148094 0.692364 0.11455
H_ H_ 0.0564318 0.0851569 0.752498 0.11455
H_ H_ 0.0401131 0.0654227 0.802529 0.11455
H_ H_ 0.0617044 0.119159 0.840184 0.11455
H_ H_ 0.141323 0.247568 0.755618 0.11455
H_ H_ 0.183989 0.294534 0.795298 0.11455
H_ H_ 0.166001 0.267488 0.845629 0.11455
H_ H_ 0.187256 0.279841 0.68931 0.11455
H_ H_ 0.123767 0.332796 0.593691 0.11455
H_ H_ 0.214693 0.332462 0.603189 0.11455
H_ H_ 0.103607 0.298648 0.712596 0.11455
H_ H_ 0.0134061 0.309415 0.705828 0.11455
H_ H_ 0.033729 0.328333 0.613984 0.11455
H_ H_ 0.345242 0.484675 0.693986 0.11455
H_ H_ 0.40911 0.0497322 0.597818 0.11455
H_ H_ 0.351554 0.465525 0.602159 0.11455
H_ H_ 0.367978 0.0584869 0.716483 0.11455
H_ H_ 0.366164 0.155706 0.708821 0.11455
H_ H_ 0.389071 0.135805 0.618963 0.11455
H_ H_ 0.396088 0.393345 0.712331 0.11455
H_ H_ 0.422386 0.415669 0.759314 0.11455
H_ H_ 0.390653 0.365805 0.80222 0.11455
H_ H_ 0.306003 0.240871 0.721838 0.11455
H_ H_ 0.251058 0.208941 0.761091 0.11455
H_ H_ 0.286654 0.215047 0.809203 0.11455
H_ H_ 0.475369 0.30139 0.870604 0.11455
H_ H_ 0.484851 0.313611 0.920767 0.11455
H_ H_ 0.225395 0.327409 0.886046 0.11455
H_ H_ 0.23289 0.324568 0.938551 0.11455
H_ H_ 0.40752 0.429462 -0.00016799999999994597 0.11455
H_ H_ 0.447548 0.430954 0.554695 0.11455
H_ H_ 0.415718 0.372213 0.591456 0.11455
H_ H_ 0.321497 0.260553 0.508391 0.11455
H_ H_ 0.290553 0.209541 0.548612 0.11455
H_ H_ 0.315074 0.229384 0.595994 0.11455
C_ C_ 0.220038 0.187274 0.904486 0.68181
C_ C_ 0.274228 0.180269 0.901337 -0.05681
C_ C_ 0.307443 0.186036 0.924904 -0.08735
C_ C_ 0.361209 0.186939 0.920354 -0.05681
C_ C_ 0.38058 0.176775 0.892676 -0.05681
C_ C_ 0.34889 0.175447 0.869935 -0.08735
C_ C_ 0.296028 0.175801 0.873492 -0.08735
C_ C_ 0.394962 0.195329 0.942597 -0.08735
C_ C_ 0.446511 0.193893 0.937697 -0.08735
C_ C_ 0.467767 0.183126 0.91121 -0.05681
C_ C_ 0.434242 0.17256 0.889059 -0.08735
C_ C_ 0.11546 0.276429 0.915269 0.68181
C_ C_ 0.141064 0.0845434 0.894652 0.68181
C_ C_ 0.139067 0.0261458 0.890554 -0.05681
C_ C_ 0.1307 0.494988 0.930829 -0.08735
C_ C_ 0.125304 0.441012 0.927777 -0.05681
C_ C_ 0.12782 0.418628 0.899339 -0.05681
C_ C_ 0.137304 0.448955 0.874593 -0.08735
C_ C_ 0.146962 0.502075 0.87896 -0.08735
C_ C_ 0.112485 0.408385 0.950473 -0.08735
C_ C_ 0.117252 0.355391 0.946872 -0.08735
C_ C_ 0.115175 0.333112 0.919496 -0.05681
C_ C_ 0.119523 0.367549 0.895974 -0.08735
C_ C_ 0.026471 0.171015 0.907505 0.68181
C_ C_ 0.100466 0.115012 0.982482 0.1947
C_ C_ 0.0674414 0.111057 0.510306 -0.08735
C_ C_ 0.0927617 0.135243 0.533163 -0.08735
C_ C_ 0.125973 0.178539 0.528738 -0.05681
C_ C_ 0.136285 0.190921 0.499242 0.18498
C_ C_ 0.176674 0.228834 0.9916 -0.08735
C_ C_ 0.187668 0.261581 0.515481 -0.08735
C_ C_ 0.178711 0.248165 0.544124 -0.08735
C_ C_ 0.147434 0.20829 0.551782 0.18498
C_ C_ 0.177947 0.186885 0.600143 0.44287
C_ C_ 0.0904557 0.209346 0.593423 0.44287
C_ C_ 0.0818629 0.196857 0.623164 -0.05681
C_ C_ 0.0322437 0.197633 0.634393 -0.08735
C_ C_ 0.0248536 0.19121 0.664133 -0.08735
C_ C_ 0.0644712 0.179475 0.683527 -0.05681
C_ C_ 0.111878 0.175443 0.672135 -0.05681
C_ C_ 0.120869 0.183589 0.642114 -0.05681
C_ C_ 0.169653 0.180212 0.63017 -0.05681
C_ C_ 0.210127 0.169227 0.649248 -0.08735
C_ C_ 0.20314 0.159084 0.678246 -0.08735
C_ C_ 0.15472 0.168785 0.69131 -0.05681
C_ C_ 0.145523 0.162334 0.720362 0.44287
C_ C_ 0.0575129 0.177469 0.713064 0.44287
C_ C_ 0.0896147 0.159053 0.760983 0.18498
C_ C_ 0.0703192 0.111032 0.769002 -0.08735
C_ C_ 0.0584624 0.100419 0.797799 -0.08735
C_ C_ 0.0736067 0.13216 0.819102 -0.08735
C_ C_ 0.100941 0.175427 0.81304 0.18498
C_ C_ 0.112662 0.188084 0.783242 -0.05681
C_ C_ 0.135226 0.236857 0.777458 -0.08735
C_ C_ 0.155891 0.264379 0.799702 -0.08735
C_ C_ 0.145552 0.246898 0.828353 0.1947
C_ C_ 0.263111 0.305063 0.65253 0.68181
C_ C_ 0.207588 0.309062 0.647318 -0.05681
C_ C_ 0.173887 0.300642 0.670478 -0.08735
C_ C_ 0.12314 0.308851 0.667283 -0.05681
C_ C_ 0.102716 0.320355 0.639351 -0.05681
C_ C_ 0.136809 0.329713 0.616554 -0.08735
C_ C_ 0.187637 0.325178 0.621169 -0.08735
C_ C_ 0.0892819 0.30767 0.690361 -0.08735
C_ C_ 0.0371898 0.313445 0.686503 -0.08735
C_ C_ 0.0159733 0.319237 0.658927 -0.05681
C_ C_ 0.0492289 0.32415 0.635217 -0.08735
C_ C_ 0.376276 0.208041 0.65986 0.68181
C_ C_ 0.357472 0.408243 0.65084 0.68181
C_ C_ 0.359287 0.464629 0.646951 -0.05681
C_ C_ 0.36557 -0.008511000000000046 0.670956 -0.08735
C_ C_ 0.374582 0.0439601 0.670243 -0.05681
C_ C_ 0.383971 0.0668971 0.643744 -0.05681
C_ C_ 0.397774 0.0346948 0.619596 -0.08735
C_ C_ 0.361255 0.487963 0.619514 -0.08735
C_ C_ 0.370104 0.0761709 0.694642 -0.08735
C_ C_ 0.370844 0.130375 0.690946 -0.08735
C_ C_ 0.376471 0.152005 0.663867 -0.05681
C_ C_ 0.383252 0.119456 0.639372 -0.08735
C_ C_ 0.460376 0.308785 0.656425 0.68181
C_ C_ 0.385239 0.367886 0.728634 0.1947
C_ C_ 0.398547 0.382021 0.756642 -0.08735
C_ C_ 0.381026 0.354926 0.779984 -0.08735
C_ C_ 0.353647 0.308154 0.775988 -0.05681
C_ C_ 0.341848 0.295312 0.747417 0.18498
C_ C_ 0.309642 0.254667 0.742159 -0.08735
C_ C_ 0.286068 0.229956 0.765059 -0.08735
C_ C_ 0.299637 0.24098 0.793553 -0.08735
C_ C_ 0.330897 0.280914 0.800457 0.18498
C_ C_ 0.298911 0.314862 0.846614 0.44287
C_ C_ 0.385622 0.291005 0.841256 0.44287
C_ C_ 0.392556 0.298991 0.871419 -0.05681
C_ C_ 0.441058 0.308381 0.88286 -0.08735
C_ C_ 0.448143 0.318821 0.911948 -0.08735
C_ C_ 0.404287 0.323075 0.930929 -0.05681
C_ C_ 0.357072 0.318674 0.919024 -0.05681
C_ C_ 0.34935 0.311225 0.888928 -0.05681
C_ C_ 0.302168 0.31767 0.876831 -0.05681
C_ C_ 0.25962 0.321785 0.895015 -0.08735
C_ C_ 0.266818 0.328539 0.924351 -0.08735
C_ C_ 0.315282 0.328787 0.936437 -0.05681
C_ C_ 0.323272 0.340068 0.965508 0.44287
C_ C_ 0.409243 0.331234 0.96112 0.44287
C_ C_ 0.382227 0.345794 0.511314 0.18498
C_ C_ 0.412042 0.389018 0.520071 -0.08735
C_ C_ 0.423898 0.398182 0.548793 -0.08735
C_ C_ 0.403405 0.368388 0.570485 -0.08735
C_ C_ 0.373779 0.326435 0.564657 0.18498
C_ C_ 0.361428 0.31591 0.53488 -0.05681
C_ C_ 0.330945 0.274203 0.529668 -0.08735
C_ C_ 0.311468 0.245824 0.551527 -0.08735
C_ C_ 0.327528 0.254174 0.579326 0.1947
N_ N_ 0.125931 0.15953 0.976961 -0.29468
N_ N_ 0.13874 0.200254 0.582189 -0.17154
N_ N_ 0.0977238 0.170041 0.731637 -0.17154
N_ N_ 0.120014 0.20364 0.834619 -0.29468
N_ N_ 0.358339 0.324429 0.724815 -0.29468
N_ N_ 0.33871 0.294991 0.830422 -0.17154
N_ N_ 0.368584 0.339428 0.977898 -0.17154
N_ N_ 0.354662 0.297451 0.585587 -0.29468
O_ O_ 0.199225 0.187902 0.929394 -0.58347
O_ O_ 0.193369 0.19234 0.881721 -0.58347
O_ O_ 0.114531 0.245138 0.937179 -0.58347
O_ O_ 0.117799 0.260462 0.890091 -0.58347
O_ O_ 0.137402 0.101591 0.920544 -0.58347
O_ O_ 0.128458 0.113267 0.874567 -0.58347
O_ O_ 0.055154 0.165346 0.929279 -0.58347
O_ O_ 0.0447327 0.181038 0.882326 -0.58347
O_ O_ 0.0534552 0.223282 0.57713 -0.46727
O_ O_ 0.224212 0.191455 0.590524 -0.46727
O_ O_ 0.0124104 0.184534 0.724548 -0.46727
O_ O_ 0.182441 0.15316 0.737617 -0.46727
O_ O_ 0.280065 0.299513 0.677358 -0.58347
O_ O_ 0.294192 0.312787 0.632715 -0.58347
O_ O_ 0.373763 0.234518 0.68219 -0.58347
O_ O_ 0.3645 0.227484 0.636026 -0.58347
O_ O_ 0.336073 0.388607 0.672741 -0.58347
O_ O_ 0.373059 0.381554 0.630379 -0.58347
O_ O_ 0.428757 0.325498 0.674443 -0.58347
O_ O_ 0.444294 0.297116 0.631578 -0.58347
O_ O_ 0.422565 0.274579 0.825891 -0.46727
O_ O_ 0.255557 0.325344 0.833692 -0.46727
O_ O_ 0.454159 0.323829 0.97379 -0.46727
O_ O_ 0.283833 0.346651 0.981481 -0.46727
Zn Zn 0.133119 0.679933 0.385887 0.90689
Zn Zn 0.140857 0.673143 0.43288 0.90689
Zn Zn 0.375613 0.821537 0.13279 0.90689
Zn Zn 0.368447 0.825328 0.180555 0.90689
H_ H_ 0.316739 0.677331 0.446824 0.11455
H_ H_ 0.377631 0.678973 0.3464 0.11455
H_ H_ 0.285856 0.669739 0.354504 0.11455
H_ H_ 0.398218 0.689343 0.464731 0.11455
H_ H_ 0.492018 0.696095 0.45613 0.11455
H_ H_ 0.463609 0.699503 0.364487 0.11455
H_ H_ 0.149344 0.502139 0.443041 0.11455
H_ H_ 0.147252 0.926204 0.353366 0.11455
H_ H_ 0.1036 0.524679 0.35461 0.11455
H_ H_ 0.104527 0.922423 0.468052 0.11455
H_ H_ 0.105746 0.825952 0.464404 0.11455
H_ H_ 0.117099 0.845138 0.372654 0.11455
H_ H_ 0.088958 0.59735 0.467797 0.11455
H_ H_ 0.0667939 0.593257 0.0205306 0.11455
H_ H_ 0.0926562 0.645493 0.0612175 0.11455
H_ H_ 0.192984 0.738052 0.475683 0.11455
H_ H_ 0.232607 0.802679 0.0181927 0.11455
H_ H_ 0.2078 0.785677 0.068459 0.11455
H_ H_ 0.0150569 0.720486 0.122884 0.11455
H_ H_ 0.00011999999999989797 0.721654 0.173956 0.11455
H_ H_ 0.262649 0.67828 0.148842 0.11455
H_ H_ 0.243202 0.660299 0.198145 0.11455
H_ H_ 0.0387483 0.613741 0.253191 0.11455
H_ H_ 0.02847 0.582953 0.302086 0.11455
H_ H_ 0.0590761 0.633028 0.341513 0.11455
H_ H_ 0.161049 0.75437 0.262775 0.11455
H_ H_ 0.208839 0.782683 0.30113 0.11455
H_ H_ 0.207323 0.736512 0.347793 0.11455
H_ H_ 0.201242 0.838467 0.195499 0.11455
H_ H_ 0.130683 0.843894 0.0951242 0.11455
H_ H_ 0.226139 0.8466 0.103813 0.11455
H_ H_ 0.112306 0.843274 0.214351 0.11455
H_ H_ 0.0253016 0.830207 0.206894 0.11455
H_ H_ 0.0440124 0.838817 0.114878 0.11455
H_ H_ 0.327658 0.998523 0.185198 0.11455
H_ H_ 0.34009 0.572315 0.0980118 0.11455
H_ H_ 0.399961 0.983802 0.1034 0.11455
H_ H_ 0.39876 0.573371 0.21321 0.11455
H_ H_ 0.408707 0.662858 0.210019 0.11455
H_ H_ 0.352857 0.662559 0.124183 0.11455
H_ H_ 0.412254 0.907703 0.215726 0.11455
H_ H_ 0.423778 0.93113 0.26468 0.11455
H_ H_ 0.370988 0.893772 0.303063 0.11455
H_ H_ 0.315946 0.759877 0.219977 0.11455
H_ H_ 0.286098 0.702515 0.258702 0.11455
H_ H_ 0.303261 0.723721 0.308472 0.11455
H_ H_ 0.487175 0.802556 0.36821 0.11455
H_ H_ 0.501112 0.822137 0.419047 0.11455
H_ H_ 0.236281 0.821297 0.385175 0.11455
H_ H_ 0.246475 0.830827 0.437853 0.11455
H_ H_ 0.411293 0.920687 0.499137 0.11455
H_ H_ 0.451871 0.931748 0.043921 0.11455
H_ H_ 0.426902 0.880934 0.0858866 0.11455
H_ H_ 0.331581 0.749961 0.00984356 0.11455
H_ H_ 0.294431 0.71087 0.0540917 0.11455
H_ H_ 0.321257 0.738432 0.0996169 0.11455
C_ C_ 0.23706 0.676775 0.405882 0.68181
C_ C_ 0.29232 0.681435 0.401432 -0.05681
C_ C_ 0.32753 0.676657 0.423677 -0.08735
C_ C_ 0.378443 0.68234 0.418877 -0.05681
C_ C_ 0.398396 0.68211 0.390185 -0.05681
C_ C_ 0.364292 0.684636 0.36798 -0.08735
C_ C_ 0.311162 0.680512 0.372548 -0.08735
C_ C_ 0.41263 0.684021 0.442031 -0.08735
C_ C_ 0.465761 0.690416 0.437122 -0.08735
C_ C_ 0.48486 0.683765 0.409626 -0.05681
C_ C_ 0.450515 0.688008 0.386088 -0.08735
C_ C_ 0.127885 0.773016 0.415645 0.68181
C_ C_ 0.133885 0.577077 0.400547 0.68181
C_ C_ 0.125923 0.521707 0.398934 -0.05681
C_ C_ 0.122174 0.98635 0.427277 -0.08735
C_ C_ 0.121006 0.933464 0.42415 -0.05681
C_ C_ 0.130289 0.91264 0.397483 -0.05681
C_ C_ 0.139638 0.94251 0.373833 -0.08735
C_ C_ 0.135803 0.996455 0.375773 -0.08735
C_ C_ 0.112338 0.903948 0.44868 -0.08735
C_ C_ 0.111182 0.851093 0.446309 -0.08735
C_ C_ 0.124077 0.829522 0.419867 -0.05681
C_ C_ 0.125184 0.859101 0.39467 -0.08735
C_ C_ 0.0388007 0.680489 0.412996 0.68181
C_ C_ 0.111419 0.612856 0.484593 0.1947
C_ C_ 0.093976 0.623265 0.017666 -0.08735
C_ C_ 0.106848 0.652656 0.0402416 -0.08735
C_ C_ 0.144439 0.690296 0.034831 -0.05681
C_ C_ 0.155196 0.703743 1.00546853 0.18498
C_ C_ 0.184484 0.72765 0.496889 -0.08735
C_ C_ 0.211102 0.769222 0.0226896 -0.08735
C_ C_ 0.193062 0.762287 0.051091 -0.08735
C_ C_ 0.164355 0.720229 0.0578939 0.18498
C_ C_ 0.194791 0.699355 0.105196 0.44287
C_ C_ 0.106709 0.717282 0.0977978 0.44287
C_ C_ 0.0973865 0.716843 0.12698 -0.05681
C_ C_ 0.0471233 0.716736 0.137249 -0.08735
C_ C_ 0.0373095 0.712769 0.166091 -0.08735
C_ C_ 0.0782502 0.706114 0.18515 -0.05681
C_ C_ 0.126347 0.700266 0.17513 -0.05681
C_ C_ 0.137272 0.705022 0.145049 -0.05681
C_ C_ 0.186095 0.694942 0.134815 -0.05681
C_ C_ 0.223364 0.68079 0.15514 -0.08735
C_ C_ 0.213631 0.674464 0.183989 -0.08735
C_ C_ 0.164041 0.681493 0.19345 -0.05681
C_ C_ 0.151809 0.674162 0.222124 0.44287
C_ C_ 0.0664438 0.699234 0.214586 0.44287
C_ C_ 0.0937956 0.673812 0.262345 0.18498
C_ C_ 0.0644432 0.630969 0.269668 -0.08735
C_ C_ 0.0535339 0.61563 0.297743 -0.08735
C_ C_ 0.0703017 0.644271 0.319694 -0.08735
C_ C_ 0.107664 0.680651 0.315064 0.18498
C_ C_ 0.117481 0.698812 0.285665 -0.05681
C_ C_ 0.153312 0.734964 0.281939 -0.08735
C_ C_ 0.18424 0.750144 0.303822 -0.08735
C_ C_ 0.176313 0.731652 0.33144 0.1947
C_ C_ 0.273809 0.824227 0.15372 0.68181
C_ C_ 0.219049 0.836318 0.148677 -0.05681
C_ C_ 0.186859 0.841335 0.172804 -0.08735
C_ C_ 0.133448 0.842701 0.168283 -0.05681
C_ C_ 0.112427 0.839695 0.140255 -0.05681
C_ C_ 0.148035 0.838417 0.116926 -0.08735
C_ C_ 0.200137 0.838282 0.120874 -0.08735
C_ C_ 0.0993481 0.840955 0.191922 -0.08735
C_ C_ 0.048243 0.830884 0.187456 -0.08735
C_ C_ 0.0261798 0.835182 0.160257 -0.05681
C_ C_ 0.0589318 0.840987 0.135958 -0.08735
C_ C_ 0.385305 0.725116 0.163711 0.68181
C_ C_ 0.365862 0.921531 0.147555 0.68181
C_ C_ 0.373157 0.978784 0.147004 -0.05681
C_ C_ 0.386711 0.508605 0.168015 -0.08735
C_ C_ 0.380932 0.56089 0.168186 -0.05681
C_ C_ 0.367516 0.586314 0.14173 -0.05681
C_ C_ 0.357246 0.55609 0.117156 -0.08735
C_ C_ 0.400464 0.000173126 0.12479 -0.08735
C_ C_ 0.391595 0.589276 0.19262 -0.08735
C_ C_ 0.396591 0.642956 0.19092 -0.08735
C_ C_ 0.38661 0.668408 0.165298 -0.05681
C_ C_ 0.369798 0.641182 0.141391 -0.08735
C_ C_ 0.471677 0.829683 0.158548 0.68181
C_ C_ 0.394946 0.884606 0.231815 0.1947
C_ C_ 0.397401 0.901746 0.260241 -0.08735
C_ C_ 0.373553 0.875627 0.28214 -0.08735
C_ C_ 0.357091 0.825893 0.277011 -0.05681
C_ C_ 0.352599 0.810767 0.24674 0.18498
C_ C_ 0.328527 0.765995 0.240759 -0.08735
C_ C_ 0.31236 0.731827 0.262838 -0.08735
C_ C_ 0.316877 0.747839 0.291506 -0.08735
C_ C_ 0.341886 0.792631 0.298661 0.18498
C_ C_ 0.309913 0.815897 0.345644 0.44287
C_ C_ 0.39682 0.800058 0.339008 0.44287
C_ C_ 0.406366 0.807206 0.369476 -0.05681
C_ C_ 0.455011 0.813294 0.381451 -0.08735
C_ C_ 0.46194 0.818543 0.411894 -0.08735
C_ C_ 0.419387 0.819656 0.430342 -0.05681
C_ C_ 0.370766 0.817 0.418275 -0.05681
C_ C_ 0.364889 0.812329 0.388028 -0.05681
C_ C_ 0.315685 0.812559 0.375851 -0.05681
C_ C_ 0.272826 0.817846 0.394241 -0.08735
C_ C_ 0.278754 0.828559 0.423507 -0.08735
C_ C_ 0.328034 0.826002 0.43591 -0.05681
C_ C_ 0.335864 0.830959 0.466061 0.44287
C_ C_ 0.424252 0.822604 0.460802 0.44287
C_ C_ 0.397967 0.833493 0.00843933 0.18498
C_ C_ 0.433581 0.872077 0.0143141 -0.08735
C_ C_ 0.438027 0.892136 0.0420776 -0.08735
C_ C_ 0.419566 0.866475 0.0649328 -0.08735
C_ C_ 0.390793 0.823851 0.0615081 0.18498
C_ C_ 0.379077 0.806311 0.0331594 -0.05681
C_ C_ 0.342729 0.766806 0.0302602 -0.08735
C_ C_ 0.320803 0.743738 0.0555827 -0.08735
C_ C_ 0.337063 0.758987 0.0815063 0.1947
N_ N_ 0.141435 0.655334 0.479902 -0.29468
N_ N_ 0.154841 0.709092 0.0874159 -0.17154
N_ N_ 0.103594 0.686763 0.233407 -0.17154
N_ N_ 0.137788 0.697838 0.337183 -0.29468
N_ N_ 0.370424 0.839782 0.224836 -0.29468
N_ N_ 0.349677 0.805621 0.32805 -0.17154
N_ N_ 0.382571 0.82996 0.478288 -0.17154
N_ N_ 0.367112 0.800999 0.0852827 -0.29468
O_ O_ 0.2199 0.681107 0.431002 -0.58347
O_ O_ 0.208124 0.667718 0.385144 -0.58347
O_ O_ 0.136581 0.745389 0.4368 -0.58347
O_ O_ 0.138699 0.754119 0.390821 -0.58347
O_ O_ 0.150296 0.597798 0.423636 -0.58347
O_ O_ 0.123156 0.604494 0.379651 -0.58347
O_ O_ 0.0641175 0.66104 0.434459 -0.58347
O_ O_ 0.0604796 0.689288 0.389928 -0.58347
O_ O_ 0.0724993 0.732023 0.079895 -0.46727
O_ O_ 0.240551 0.68695 0.0951889 -0.46727
O_ O_ 0.0199405 0.701874 0.223787 -0.46727
O_ O_ 0.188362 0.658265 0.239823 -0.46727
O_ O_ 0.293168 0.815048 0.179138 -0.58347
O_ O_ 0.304333 0.822 0.131986 -0.58347
O_ O_ 0.38658 0.751696 0.186696 -0.58347
O_ O_ 0.379993 0.746808 0.139699 -0.58347
O_ O_ 0.354869 0.899104 0.170816 -0.58347
O_ O_ 0.375596 0.895536 0.124494 -0.58347
O_ O_ 0.443336 0.840703 0.179049 -0.58347
O_ O_ 0.454069 0.821674 0.134705 -0.58347
O_ O_ 0.437053 0.789641 0.32212 -0.46727
O_ O_ 0.262928 0.823508 0.335899 -0.46727
O_ O_ 0.469708 0.817117 0.472699 -0.46727
O_ O_ 0.296644 0.836515 0.482852 -0.46727
Zn Zn 0.134086 0.68519 0.885847 0.90689
Zn Zn 0.146907 0.679117 0.935352 0.90689
Zn Zn 0.377895 0.806103 0.632068 0.90689
Zn Zn 0.367376 0.807912 0.679441 0.90689
H_ H_ 0.314268 0.686093 0.949353 0.11455
H_ H_ 0.37311 0.673035 0.850139 0.11455
H_ H_ 0.284039 0.663264 0.862494 0.11455
H_ H_ 0.397795 0.679857 0.967957 0.11455
H_ H_ 0.490356 0.69195 0.955481 0.11455
H_ H_ 0.463773 0.658545 0.867107 0.11455
H_ H_ 0.136003 0.508481 0.953965 0.11455
H_ H_ 0.14608 0.935595 0.842747 0.11455
H_ H_ 0.155489 0.52777 0.860359 0.11455
H_ H_ 0.134751 0.932094 0.96141 0.11455
H_ H_ 0.129615 0.841731 0.959371 0.11455
H_ H_ 0.132613 0.846261 0.865182 0.11455
H_ H_ 0.090096 0.613459 0.972159 0.11455
H_ H_ 0.0762487 0.567031 0.515904 0.11455
H_ H_ 0.100321 0.622499 0.556235 0.11455
H_ H_ 0.197284 0.754821 0.976644 0.11455
H_ H_ 0.215777 0.799284 0.516234 0.11455
H_ H_ 0.20118 0.766602 0.566704 0.11455
H_ H_ 1.0187874 0.704094 0.629556 0.11455
H_ H_ 1.0163807 0.701253 0.681208 0.11455
H_ H_ 0.271651 0.655508 0.637644 0.11455
H_ H_ 0.262586 0.648426 0.689949 0.11455
H_ H_ 0.0733064 0.586088 0.752233 0.11455
H_ H_ 0.0683876 0.553962 0.801803 0.11455
H_ H_ 0.0937449 0.608116 0.841999 0.11455
H_ H_ 0.174592 0.737547 0.75959 0.11455
H_ H_ 0.202286 0.789309 0.799424 0.11455
H_ H_ 0.185262 0.756598 0.850701 0.11455
H_ H_ 0.201288 0.808253 0.696326 0.11455
H_ H_ 0.141637 0.850887 0.600645 0.11455
H_ H_ 0.226873 0.834027 0.608194 0.11455
H_ H_ 0.116277 0.788938 0.711776 0.11455
H_ H_ 0.0240205 0.803357 0.70758 0.11455
H_ H_ 0.0481626 0.831575 0.614905 0.11455
H_ H_ 0.343987 0.975383 0.687578 0.11455
H_ H_ 0.360127 0.55896 0.596831 0.11455
H_ H_ 0.410639 0.960786 0.605433 0.11455
H_ H_ 0.382483 0.562899 0.716113 0.11455
H_ H_ 0.397189 0.651491 0.709206 0.11455
H_ H_ 0.386087 0.639933 0.618765 0.11455
H_ H_ 0.425927 0.880858 0.714492 0.11455
H_ H_ 0.438297 0.913323 0.763568 0.11455
H_ H_ 0.406822 0.865029 0.804764 0.11455
H_ H_ 0.306038 0.752541 0.722259 0.11455
H_ H_ 0.266128 0.70078 0.764564 0.11455
H_ H_ 0.287063 0.725574 0.813214 0.11455
H_ H_ 0.484407 0.778672 0.871004 0.11455
H_ H_ 0.493749 0.793191 0.92209 0.11455
H_ H_ 0.239367 0.843922 0.88635 0.11455
H_ H_ 0.252865 0.854668 0.936949 0.11455
H_ H_ 0.449278 0.895461 0.997168 0.11455
H_ H_ 0.44478 0.936577 0.547377 0.11455
H_ H_ 0.442667 0.860042 0.582562 0.11455
H_ H_ 0.340329 0.751628 0.505791 0.11455
H_ H_ 0.314785 0.701072 0.545388 0.11455
H_ H_ 0.334766 0.723199 0.596077 0.11455
C_ C_ 0.236184 0.682912 0.911374 0.68181
C_ C_ 0.292989 0.678604 0.906735 -0.05681
C_ C_ 0.327656 0.683123 0.928587 -0.08735
C_ C_ 0.380257 0.677593 0.92345 -0.05681
C_ C_ 0.397701 0.674193 0.895106 -0.05681
C_ C_ 0.360985 0.670606 0.87304 -0.08735
C_ C_ 0.310532 0.673612 0.878791 -0.08735
C_ C_ 0.414086 0.677247 0.946103 -0.08735
C_ C_ 0.465933 0.676499 0.940595 -0.08735
C_ C_ 0.483314 0.668192 0.912338 -0.05681
C_ C_ 0.449307 0.667776 0.889119 -0.08735
C_ C_ 0.133499 0.781074 0.91189 0.68181
C_ C_ 0.140447 0.581185 0.90869 0.68181
C_ C_ 0.139583 0.524956 0.906327 -0.05681
C_ C_ 0.14861 0.996628 0.915504 -0.08735
C_ C_ 0.13722 0.943806 0.914702 -0.05681
C_ C_ 0.135312 0.919423 0.887715 -0.05681
C_ C_ 0.139746 0.94984 0.863074 -0.08735
C_ C_ 0.138177 0.00267244 0.864007 -0.08735
C_ C_ 0.129337 0.915965 0.939875 -0.08735
C_ C_ 0.130088 0.863752 0.938785 -0.08735
C_ C_ 0.129847 0.837916 0.912271 -0.05681
C_ C_ 0.13512 0.866356 0.88624 -0.08735
C_ C_ 0.0405725 0.675075 0.911675 0.68181
C_ C_ 0.103439 0.637551 0.989085 0.1947
C_ C_ 0.101 0.597116 0.512108 -0.08735
C_ C_ 0.116581 0.626981 0.535425 -0.08735
C_ C_ 0.144244 0.670594 0.530493 -0.05681
C_ C_ 0.155641 0.686095 0.501907 0.18498
C_ C_ 0.18918 0.742965 0.999695 -0.08735
C_ C_ 0.197251 0.761192 0.519721 -0.08735
C_ C_ 0.192204 0.743115 0.547951 -0.08735
C_ C_ 0.160488 0.702495 0.554103 0.18498
C_ C_ 0.197844 0.6724 0.599622 0.44287
C_ C_ 0.109187 0.699894 0.596915 0.44287
C_ C_ 0.10379 0.692465 0.626935 -0.05681
C_ C_ 0.0566136 0.700127 0.640698 -0.08735
C_ C_ 0.0535267 0.698476 0.671205 -0.08735
C_ C_ 0.0945439 0.684942 0.687825 -0.05681
C_ C_ 0.14043 0.671024 0.674083 -0.05681
C_ C_ 0.144396 0.673636 0.643007 -0.05681
C_ C_ 0.193595 0.668058 0.6294 -0.05681
C_ C_ 0.233755 0.654 0.646992 -0.08735
C_ C_ 0.230509 0.653532 0.678244 -0.08735
C_ C_ 0.182588 0.659326 0.691709 -0.05681
C_ C_ 0.175125 0.654222 0.72146 0.44287
C_ C_ 0.0886076 0.678897 0.71694 0.44287
C_ C_ 0.120049 0.649097 0.763694 0.18498
C_ C_ 0.094188 0.603985 0.769512 -0.08735
C_ C_ 0.0866693 0.589099 0.796899 -0.08735
C_ C_ 0.103042 0.618925 0.820141 -0.08735
C_ C_ 0.127716 0.663114 0.815191 0.18498
C_ C_ 0.137992 0.678385 0.786562 -0.05681
C_ C_ 0.161436 0.726672 0.780698 -0.08735
C_ C_ 0.179661 0.755484 0.804057 -0.08735
C_ C_ 0.167523 0.738131 0.832579 0.1947
C_ C_ 0.276675 0.809676 0.656526 0.68181
C_ C_ 0.222001 0.820926 0.652416 -0.05681
C_ C_ 0.186366 0.814223 0.674774 -0.08735
C_ C_ 0.134957 0.811699 0.67008 -0.05681
C_ C_ 0.115853 0.822317 0.642088 -0.05681
C_ C_ 0.151303 0.83226 0.619815 -0.08735
C_ C_ 0.202625 0.8334 0.624877 -0.08735
C_ C_ 0.101958 0.801153 0.692492 -0.08735
C_ C_ 0.048154 0.806836 0.68865 -0.08735
C_ C_ 0.0295458 0.819362 0.660832 -0.05681
C_ C_ 0.0615329 0.826837 0.636745 -0.08735
C_ C_ 0.382422 0.708944 0.661639 0.68181
C_ C_ 0.371937 0.904723 0.648929 0.68181
C_ C_ 0.376463 0.961073 0.647235 -0.05681
C_ C_ 0.358179 0.496459 0.672118 -0.08735
C_ C_ 0.369429 0.549031 0.668642 -0.05681
C_ C_ 0.370427 0.571393 0.642544 -0.05681
C_ C_ 0.359871 0.540069 0.617762 -0.08735
C_ C_ 0.396099 0.983679 0.622428 -0.08735
C_ C_ 0.381434 0.577762 0.694016 -0.08735
C_ C_ 0.385095 0.63096 0.691181 -0.08735
C_ C_ 0.386061 0.652984 0.664309 -0.05681
C_ C_ 0.384716 0.62265 0.6399 -0.08735
C_ C_ 0.471295 0.810816 0.654908 0.68181
C_ C_ 0.408726 0.860534 0.732485 0.1947
C_ C_ 0.418083 0.878058 0.759233 -0.08735
C_ C_ 0.395914 0.852576 0.782306 -0.08735
C_ C_ 0.364488 0.810673 0.778372 -0.05681
C_ C_ 0.353521 0.795716 0.749386 0.18498
C_ C_ 0.317159 0.759246 0.743488 -0.08735
C_ C_ 0.294827 0.730472 0.765977 -0.08735
C_ C_ 0.306141 0.745938 0.795063 -0.08735
C_ C_ 0.340196 0.786246 0.800789 0.18498
C_ C_ 0.310134 0.816425 0.846634 0.44287
C_ C_ 0.396589 0.787793 0.842776 0.44287
C_ C_ 0.406377 0.802377 0.871554 -0.05681
C_ C_ 0.45174 0.789869 0.883774 -0.08735
C_ C_ 0.457905 0.790789 0.913257 -0.08735
C_ C_ 0.419563 0.806228 0.931797 -0.05681
C_ C_ 0.371763 0.815155 0.920076 -0.05681
C_ C_ 0.36552 0.812625 0.889226 -0.05681
C_ C_ 0.316971 0.823357 0.877089 -0.05681
C_ C_ 0.276792 0.834952 0.895726 -0.08735
C_ C_ 0.284409 0.840785 0.925876 -0.08735
C_ C_ 0.332275 0.830626 0.93817 -0.05681
C_ C_ 0.341346 0.83277 0.968116 0.44287
C_ C_ 0.425112 0.807225 0.961984 0.44287
C_ C_ 0.389037 0.843088 0.508252 0.18498
C_ C_ 0.409634 0.890412 0.515633 -0.08735
C_ C_ 0.427678 0.901404 0.543272 -0.08735
C_ C_ 0.416551 0.865363 0.565855 -0.08735
C_ C_ 0.385475 0.825104 0.56114 0.18498
C_ C_ 0.37432 0.810781 0.532151 -0.05681
C_ C_ 0.344753 0.766442 0.527368 -0.08735
C_ C_ 0.328193 0.7381 0.54988 -0.08735
C_ C_ 0.34584 0.748255 0.578157 0.1947
N_ N_ 0.136197 0.675888 0.98338 -0.29468
N_ N_ 0.15469 0.687475 0.584161 -0.17154
N_ N_ 0.128848 0.663233 0.733342 -0.17154
N_ N_ 0.139857 0.696548 0.837712 -0.29468
N_ N_ 0.373867 0.82439 0.727989 -0.29468
N_ N_ 0.350742 0.800491 0.829865 -0.17154
N_ N_ 0.386675 0.817819 0.979578 -0.17154
N_ N_ 0.371862 0.792815 0.583402 -0.29468
O_ O_ 0.221323 0.681143 0.936891 -0.58347
O_ O_ 0.206224 0.694536 0.891243 -0.58347
O_ O_ 0.144741 0.754443 0.934597 -0.58347
O_ O_ 0.122453 0.757864 0.888961 -0.58347
O_ O_ 0.142753 0.600608 0.933667 -0.58347
O_ O_ 0.142236 0.608545 0.886656 -0.58347
O_ O_ 0.0723886 0.672071 0.933082 -0.58347
O_ O_ 0.057851 0.673922 0.886979 -0.58347
O_ O_ 0.0765562 0.727716 0.584133 -0.46727
O_ O_ 0.240145 0.662927 0.585467 -0.46727
O_ O_ 0.0426564 0.681558 0.728465 -0.46727
O_ O_ 0.213479 0.637502 0.736943 -0.46727
O_ O_ 0.294627 0.803467 0.681704 -0.58347
O_ O_ 0.304339 0.798424 0.635061 -0.58347
O_ O_ 0.36545 0.734161 0.68236 -0.58347
O_ O_ 0.394526 0.730047 0.638414 -0.58347
O_ O_ 0.366985 0.882869 0.673011 -0.58347
O_ O_ 0.364495 0.878826 0.626618 -0.58347
O_ O_ 0.442181 0.808349 0.675847 -0.58347
O_ O_ 0.45179 0.814427 0.629352 -0.58347
O_ O_ 0.43549 0.780162 0.826143 -0.46727
O_ O_ 0.266282 0.826917 0.834947 -0.46727
O_ O_ 0.469549 0.796487 0.974183 -0.46727
O_ O_ 0.302489 0.84248 0.985441 -0.46727
Zn Zn 0.619303 0.194301 0.380179 0.90689
Zn Zn 0.630729 0.185817 0.429004 0.90689
Zn Zn 0.875978 0.322902 0.133734 0.90689
Zn Zn 0.868672 0.327348 0.182599 0.90689
H_ H_ 0.801754 0.215398 0.438695 0.11455
H_ H_ 0.85663 0.147382 0.345948 0.11455
H_ H_ 0.765968 0.1607 0.353528 0.11455
H_ H_ 0.887427 0.204258 0.45993 0.11455
H_ H_ 0.975074 0.185896 0.453521 0.11455
H_ H_ 0.948802 0.149318 0.364755 0.11455
H_ H_ 0.587857 0.0180861 0.434591 0.11455
H_ H_ 0.631627 0.43928 0.349077 0.11455
H_ H_ 0.678378 0.0271542 0.357664 0.11455
H_ H_ 0.638977 0.440231 0.467228 0.11455
H_ H_ 0.634811 0.347746 0.463616 0.11455
H_ H_ 0.614668 0.357893 0.372926 0.11455
H_ H_ 0.573577 0.109375 0.463058 0.11455
H_ H_ 0.559177 0.0898116 0.0118767 0.11455
H_ H_ 0.603646 0.131597 0.0502896 0.11455
H_ H_ 0.687197 0.245843 0.471938 0.11455
H_ H_ 0.719573 0.311306 0.00982942 0.11455
H_ H_ 0.701136 0.282098 0.0605034 0.11455
H_ H_ 0.515045 0.207148 0.121219 0.11455
H_ H_ 0.506368 0.188936 0.170438 0.11455
H_ H_ 0.766619 0.168413 0.131539 0.11455
H_ H_ 0.753961 0.161218 0.184837 0.11455
H_ H_ 0.587896 0.0878295 0.245616 0.11455
H_ H_ 0.560541 0.0653125 0.297032 0.11455
H_ H_ 0.563057 0.132423 0.33469 0.11455
H_ H_ 0.673039 0.249446 0.257599 0.11455
H_ H_ 0.687163 0.305167 0.299043 0.11455
H_ H_ 0.663068 0.275262 0.348467 0.11455
H_ H_ 0.700456 0.331504 0.192846 0.11455
H_ H_ 0.636069 0.319112 0.0937887 0.11455
H_ H_ 0.728783 0.32932 0.102633 0.11455
H_ H_ 0.614819 0.323229 0.212192 0.11455
H_ H_ 0.522253 0.321158 0.205032 0.11455
H_ H_ 0.544487 0.32091 0.113677 0.11455
H_ H_ 0.860225 0.492409 0.191945 0.11455
H_ H_ 0.844988 0.0730703 0.0946719 0.11455
H_ H_ 0.891973 0.482498 0.100061 0.11455
H_ H_ 0.848246 0.0763403 0.211846 0.11455
H_ H_ 0.858127 0.16645 0.208627 0.11455
H_ H_ 0.8854 0.159733 0.118849 0.11455
H_ H_ 0.913338 0.403015 0.216361 0.11455
H_ H_ 0.930754 0.428293 0.268269 0.11455
H_ H_ 0.891761 0.383105 0.307777 0.11455
H_ H_ 0.803534 0.263248 0.222333 0.11455
H_ H_ 0.772249 0.208354 0.26129 0.11455
H_ H_ 0.795605 0.225667 0.31425 0.11455
H_ H_ 0.994089 0.298463 0.371057 0.11455
H_ H_ 0.00493241 0.292494 0.423335 0.11455
H_ H_ 0.73988 0.328944 0.390325 0.11455
H_ H_ 0.756902 0.337018 0.441541 0.11455
H_ H_ 0.951232 0.390112 0.502919 0.11455
H_ H_ 0.971468 0.429902 0.05282 0.11455
H_ H_ 0.949731 0.365133 0.0898287 0.11455
H_ H_ 0.838205 0.267896 0.00691896 0.11455
H_ H_ 0.800764 0.218767 0.0492621 0.11455
H_ H_ 0.810776 0.253344 0.0974212 0.11455
C_ C_ 0.720792 0.190528 0.403425 0.68181
C_ C_ 0.77603 0.187845 0.39747 -0.05681
C_ C_ 0.813793 0.195671 0.419529 -0.08735
C_ C_ 0.86557 0.185861 0.416392 -0.05681
C_ C_ 0.882708 0.167088 0.390003 -0.05681
C_ C_ 0.846162 0.159746 0.367078 -0.08735
C_ C_ 0.795151 0.170255 0.370592 -0.08735
C_ C_ 0.899979 0.194861 0.438513 -0.08735
C_ C_ 0.951706 0.183607 0.435126 -0.08735
C_ C_ 0.970736 0.170518 0.408136 -0.05681
C_ C_ 0.934763 0.159808 0.385547 -0.08735
C_ C_ 0.61936 0.287945 0.414538 0.68181
C_ C_ 0.628974 0.08873 0.398038 0.68181
C_ C_ 0.634276 0.0318959 0.396384 -0.05681
C_ C_ 0.644655 0.507028 0.421687 -0.08735
C_ C_ 0.632103 0.453941 0.421099 -0.05681
C_ C_ 0.628481 0.429066 0.393993 -0.05681
C_ C_ 0.629072 0.458213 0.369039 -0.08735
C_ C_ 0.632766 0.511165 0.37064 -0.08735
C_ C_ 0.633296 0.422724 0.445655 -0.08735
C_ C_ 0.625852 0.369357 0.444968 -0.08735
C_ C_ 0.62345 0.345506 0.417739 -0.05681
C_ C_ 0.61828 0.37493 0.393158 -0.08735
C_ C_ 0.526531 0.184347 0.406865 0.68181
C_ C_ 0.592813 0.128162 0.480998 0.1947
C_ C_ 0.582892 0.123955 0.00756357 -0.08735
C_ C_ 0.608276 0.147275 0.0306539 -0.08735
C_ C_ 0.642521 0.186782 0.0257395 -0.05681
C_ C_ 0.651134 0.202651 0.99638 0.18498
C_ C_ 0.680746 0.233212 0.493509 -0.08735
C_ C_ 0.701092 0.275423 0.0131142 -0.08735
C_ C_ 0.686048 0.262264 0.041465 -0.08735
C_ C_ 0.658071 0.219196 0.0477589 0.18498
C_ C_ 0.688944 0.18972 0.0926908 0.44287
C_ C_ 0.603008 0.210152 0.0892638 0.44287
C_ C_ 0.595771 0.196446 0.118657 -0.05681
C_ C_ 0.548955 0.196596 0.132428 -0.08735
C_ C_ 0.5432 0.19206 0.161553 -0.08735
C_ C_ 0.586286 0.188125 0.179884 -0.05681
C_ C_ 0.634375 0.1895 0.166746 -0.05681
C_ C_ 0.639842 0.19053 0.135933 -0.05681
C_ C_ 0.68455 0.183378 0.123414 -0.05681
C_ C_ 0.729173 0.173968 0.141428 -0.08735
C_ C_ 0.724151 0.176266 0.171045 -0.08735
C_ C_ 0.676296 0.179013 0.184242 -0.05681
C_ C_ 0.669853 0.175531 0.214961 0.44287
C_ C_ 0.580727 0.179939 0.210221 0.44287
C_ C_ 0.616985 0.160726 0.257286 0.18498
C_ C_ 0.596709 0.112576 0.263591 -0.08735
C_ C_ 0.577692 0.102122 0.292081 -0.08735
C_ C_ 0.582995 0.137775 0.313615 -0.08735
C_ C_ 0.612511 0.180517 0.309967 0.18498
C_ C_ 0.626338 0.195085 0.280846 -0.05681
C_ C_ 0.65198 0.240929 0.277735 -0.08735
C_ C_ 0.6669 0.268052 0.30343 -0.08735
C_ C_ 0.652983 0.25091 0.331411 0.1947
C_ C_ 0.775556 0.326928 0.154126 0.68181
C_ C_ 0.720229 0.324713 0.149087 -0.05681
C_ C_ 0.685042 0.327977 0.171729 -0.08735
C_ C_ 0.632893 0.323554 0.168104 -0.05681
C_ C_ 0.614211 0.323689 0.139714 -0.05681
C_ C_ 0.649502 0.320157 0.116109 -0.08735
C_ C_ 0.70131 0.327704 0.12101 -0.08735
C_ C_ 0.598384 0.325146 0.19116 -0.08735
C_ C_ 0.547656 0.320251 0.187038 -0.08735
C_ C_ 0.527753 0.323429 0.159145 -0.05681
C_ C_ 0.560775 0.321253 0.136293 -0.08735
C_ C_ 0.873066 0.225665 0.164073 0.68181
C_ C_ 0.872569 0.424226 0.146772 0.68181
C_ C_ 0.872436 0.48016 0.14487 -0.05681
C_ C_ 0.859767 0.0105622 0.16913 -0.08735
C_ C_ 0.864044 0.0652019 0.166556 -0.05681
C_ C_ 0.865359 0.0878324 0.139113 -0.05681
C_ C_ 0.858788 0.0562671 0.114466 -0.08735
C_ C_ 0.883756 0.505138 0.119341 -0.08735
C_ C_ 0.860808 0.0933854 0.191608 -0.08735
C_ C_ 0.862202 0.14453 0.189995 -0.08735
C_ C_ 0.866752 0.170498 0.164358 -0.05681
C_ C_ 0.871508 0.142043 0.137928 -0.08735
C_ C_ 0.971429 0.319047 0.160085 0.68181
C_ C_ 0.901674 0.380155 0.235094 0.1947
C_ C_ 0.912389 0.394743 0.263914 -0.08735
C_ C_ 0.892709 0.366229 0.286208 -0.08735
C_ C_ 0.862073 0.320985 0.280942 -0.05681
C_ C_ 0.849639 0.310222 0.25176 0.18498
C_ C_ 0.814976 0.271558 0.245142 -0.08735
C_ C_ 0.797545 0.238461 0.26702 -0.08735
C_ C_ 0.812011 0.24772 0.296206 -0.08735
C_ C_ 0.847032 0.28607 0.303255 0.18498
C_ C_ 0.815677 0.309652 0.350531 0.44287
C_ C_ 0.905048 0.304877 0.343999 0.44287
C_ C_ 0.912617 0.30907 0.37359 -0.05681
C_ C_ 0.961549 0.304082 0.385807 -0.08735
C_ C_ 0.967986 0.305804 0.415266 -0.08735
C_ C_ 0.927196 0.310235 0.433584 -0.05681
C_ C_ 0.878727 0.316009 0.421396 -0.05681
C_ C_ 0.870089 0.311392 0.391755 -0.05681
C_ C_ 0.820862 0.313189 0.380522 -0.05681
C_ C_ 0.779817 0.32542 0.397996 -0.08735
C_ C_ 0.789583 0.331948 0.427728 -0.08735
C_ C_ 0.837116 0.327533 0.439595 -0.05681
C_ C_ 0.846982 0.332196 0.469561 0.44287
C_ C_ 0.934257 0.311793 0.463667 0.44287
C_ C_ 0.895958 0.352922 0.013313 0.18498
C_ C_ 0.924151 0.395178 0.0195942 -0.08735
C_ C_ 0.942972 0.401443 0.0477992 -0.08735
C_ C_ 0.926371 0.367476 0.0696905 -0.08735
C_ C_ 0.891962 0.328923 0.063229 0.18498
C_ C_ 0.880902 0.31663 0.0346269 -0.05681
C_ C_ 0.849422 0.275284 0.0294659 -0.08735
C_ C_ 0.822447 0.255146 0.0521481 -0.08735
C_ C_ 0.831807 0.270619 0.0799076 0.1947
N_ N_ 0.623137 0.168483 0.476524 -0.29468
N_ N_ 0.650074 0.205912 0.0766579 -0.17154
N_ N_ 0.621641 0.177027 0.227758 -0.17154
N_ N_ 0.621314 0.210549 0.333094 -0.29468
N_ N_ 0.869104 0.340732 0.229993 -0.29468
N_ N_ 0.856497 0.300766 0.333078 -0.17154
N_ N_ 0.893562 0.320878 0.481419 -0.17154
N_ N_ 0.869026 0.304661 0.0858486 -0.29468
O_ O_ 0.704064 0.185854 0.427697 -0.58347
O_ O_ 0.692962 0.202661 0.382121 -0.58347
O_ O_ 0.626442 0.258501 0.436186 -0.58347
O_ O_ 0.612281 0.269343 0.389922 -0.58347
O_ O_ 0.636446 0.109302 0.422433 -0.58347
O_ O_ 0.625704 0.117301 0.375565 -0.58347
O_ O_ 0.55559 0.180053 0.427961 -0.58347
O_ O_ 0.544781 0.191007 0.381608 -0.58347
O_ O_ 0.566211 0.230769 0.074183 -0.46727
O_ O_ 0.734018 0.18367 0.0798618 -0.46727
O_ O_ 0.534591 0.178808 0.221633 -0.46727
O_ O_ 0.70942 0.161178 0.230624 -0.46727
O_ O_ 0.793446 0.322236 0.178867 -0.58347
O_ O_ 0.803895 0.332672 0.132857 -0.58347
O_ O_ 0.870614 0.2516 0.187383 -0.58347
O_ O_ 0.868245 0.249375 0.13952 -0.58347
O_ O_ 0.865528 0.403672 0.170995 -0.58347
O_ O_ 0.879273 0.397028 0.125017 -0.58347
O_ O_ 0.942995 0.328219 0.182255 -0.58347
O_ O_ 0.952588 0.313598 0.135325 -0.58347
O_ O_ 0.941731 0.287093 0.327994 -0.46727
O_ O_ 0.770993 0.315745 0.338992 -0.46727
O_ O_ 0.979865 0.302714 0.475795 -0.46727
O_ O_ 0.808349 0.33952 0.486558 -0.46727
Zn Zn 0.617794 0.191333 0.879809 0.90689
Zn Zn 0.627804 0.18603 0.927423 0.90689
Zn Zn 0.865174 0.30487 0.632378 0.90689
Zn Zn 0.858222 0.306127 0.679399 0.90689
H_ H_ 0.792758 0.185508 0.941594 0.11455
H_ H_ 0.865034 0.159908 0.844834 0.11455
H_ H_ 0.778465 0.170099 0.85001 0.11455
H_ H_ 0.879516 0.181814 0.962993 0.11455
H_ H_ 0.973941 0.175265 0.95788 0.11455
H_ H_ 0.950131 0.161982 0.865325 0.11455
H_ H_ 0.634698 0.0206345 0.942483 0.11455
H_ H_ 0.663702 0.44237 0.847984 0.11455
H_ H_ 0.622753 0.0384876 0.849413 0.11455
H_ H_ 0.622458 0.4345 0.964028 0.11455
H_ H_ 0.607139 0.345926 0.957439 0.11455
H_ H_ 0.644393 0.356532 0.867252 0.11455
H_ H_ 0.573097 0.119635 0.962214 0.11455
H_ H_ 0.562934 0.0750366 0.513213 0.11455
H_ H_ 0.599283 0.118145 0.553073 0.11455
H_ H_ 0.690256 0.254663 0.968667 0.11455
H_ H_ 0.724584 0.293149 0.513957 0.11455
H_ H_ 0.703533 0.269659 0.561839 0.11455
H_ H_ 0.506248 0.212168 0.618372 0.11455
H_ H_ 0.491008 0.182303 0.666885 0.11455
H_ H_ 0.754158 0.173296 0.640027 0.11455
H_ H_ 0.739412 0.160666 0.691412 0.11455
H_ H_ 0.544328 0.0904486 0.748563 0.11455
H_ H_ 0.514347 0.0799641 0.799283 0.11455
H_ H_ 0.544108 0.130895 0.836323 0.11455
H_ H_ 0.644888 0.248175 0.754454 0.11455
H_ H_ 0.673647 0.295005 0.796285 0.11455
H_ H_ 0.672057 0.25901 0.845761 0.11455
H_ H_ 0.686609 0.285651 0.697119 0.11455
H_ H_ 0.622339 0.326944 0.600749 0.11455
H_ H_ 0.711612 0.312274 0.60519 0.11455
H_ H_ 0.601514 0.321147 0.716005 0.11455
H_ H_ 0.509207 0.310381 0.707872 0.11455
H_ H_ 0.536694 0.332783 0.61657 0.11455
H_ H_ 0.851985 0.479151 0.695978 0.11455
H_ H_ 0.854199 0.0504927 0.592818 0.11455
H_ H_ 0.867708 0.462406 0.604469 0.11455
H_ H_ 0.833614 0.057151 0.710307 0.11455
H_ H_ 0.841754 0.151035 0.707173 0.11455
H_ H_ 0.866997 0.137679 0.616303 0.11455
H_ H_ 0.921379 0.372007 0.713241 0.11455
H_ H_ 0.933236 0.410329 0.757867 0.11455
H_ H_ 0.892347 0.371188 0.802259 0.11455
H_ H_ 0.808028 0.236156 0.727473 0.11455
H_ H_ 0.755086 0.212803 0.766893 0.11455
H_ H_ 0.772917 0.23914 0.817353 0.11455
H_ H_ 0.990116 0.289905 0.874434 0.11455
H_ H_ 0.00167053 0.30482 0.926411 0.11455
H_ H_ 0.738208 0.335876 0.88949 0.11455
H_ H_ 0.760105 0.377262 0.937385 0.11455
H_ H_ 0.933759 0.419732 1.00343778 0.11455
H_ H_ 0.96681 0.414368 0.554466 0.11455
H_ H_ 0.916698 0.369533 0.590936 0.11455
H_ H_ 0.847212 0.244119 0.506591 0.11455
H_ H_ 0.805296 0.198261 0.546583 0.11455
H_ H_ 0.815671 0.225831 0.596256 0.11455
C_ C_ 0.722968 0.1901 0.899453 0.68181
C_ C_ 0.779199 0.186469 0.896165 -0.05681
C_ C_ 0.809423 0.188144 0.920595 -0.08735
C_ C_ 0.8634 0.179304 0.916924 -0.05681
C_ C_ 0.883736 0.170096 0.890336 -0.05681
C_ C_ 0.852707 0.164826 0.867264 -0.08735
C_ C_ 0.799654 0.174735 0.869243 -0.08735
C_ C_ 0.896084 0.18239 0.941371 -0.08735
C_ C_ 0.948208 0.172706 0.938479 -0.08735
C_ C_ 0.969217 0.169084 0.91102 -0.05681
C_ C_ 0.936538 0.166939 0.886445 -0.08735
C_ C_ 0.622483 0.289263 0.909085 0.68181
C_ C_ 0.632512 0.0887497 0.89838 0.68181
C_ C_ 0.634104 0.0348827 0.896156 -0.05681
C_ C_ 0.644726 0.503503 0.922083 -0.08735
C_ C_ 0.642044 0.450796 0.918783 -0.05681
C_ C_ 0.647748 0.428071 0.891791 -0.05681
C_ C_ 0.659032 0.458655 0.867975 -0.08735
C_ C_ 0.662734 0.510741 0.870748 -0.08735
C_ C_ 0.629173 0.419451 0.942498 -0.08735
C_ C_ 0.623411 0.366804 0.939125 -0.08735
C_ C_ 0.626042 0.343299 0.911745 -0.05681
C_ C_ 0.63548 0.374758 0.887794 -0.08735
C_ C_ 0.522142 0.188161 0.907294 0.68181
C_ C_ 0.593906 0.138943 0.979611 0.1947
C_ C_ 0.591529 0.10477 0.508543 -0.08735
C_ C_ 0.611619 0.129169 0.5321 -0.08735
C_ C_ 0.636157 0.17835 0.527444 -0.05681
C_ C_ 0.645424 0.19328 0.498639 0.18498
C_ C_ 0.679998 0.245955 0.990109 -0.08735
C_ C_ 0.700443 0.260318 0.517076 -0.08735
C_ C_ 0.6894 0.246888 0.544685 -0.08735
C_ C_ 0.658591 0.204982 0.551125 0.18498
C_ C_ 0.683326 0.176105 0.598274 0.44287
C_ C_ 0.598165 0.205743 0.59221 0.44287
C_ C_ 0.58619 0.192942 0.620688 -0.05681
C_ C_ 0.536956 0.198073 0.63143 -0.08735
C_ C_ 0.528629 0.189018 0.660425 -0.08735
C_ C_ 0.568097 0.17666 0.679759 -0.05681
C_ C_ 0.617506 0.173369 0.669328 -0.05681
C_ C_ 0.625383 0.178378 0.63955 -0.05681
C_ C_ 0.675046 0.173653 0.628095 -0.05681
C_ C_ 0.717496 0.168391 0.647279 -0.08735
C_ C_ 0.707196 0.168113 0.676545 -0.08735
C_ C_ 0.658412 0.166531 0.687687 -0.05681
C_ C_ 0.650706 0.164351 0.717818 0.44287
C_ C_ 0.562287 0.17849 0.70987 0.44287
C_ C_ 0.592974 0.152418 0.758096 0.18498
C_ C_ 0.559478 0.113565 0.766373 -0.08735
C_ C_ 0.539927 0.109698 0.793684 -0.08735
C_ C_ 0.560465 0.139048 0.815239 -0.08735
C_ C_ 0.599665 0.173862 0.810252 0.18498
C_ C_ 0.612663 0.183138 0.780871 -0.05681
C_ C_ 0.638458 0.229635 0.776008 -0.08735
C_ C_ 0.657916 0.256645 0.798595 -0.08735
C_ C_ 0.653548 0.238273 0.827033 0.1947
C_ C_ 0.761837 0.294678 0.65913 0.68181
C_ C_ 0.706331 0.302227 0.653359 -0.05681
C_ C_ 0.674385 0.303788 0.677477 -0.08735
C_ C_ 0.622333 0.309435 0.671685 -0.05681
C_ C_ 0.605133 0.316078 0.64332 -0.05681
C_ C_ 0.638175 0.322153 0.621454 -0.08735
C_ C_ 0.688293 0.30922 0.625367 -0.08735
C_ C_ 0.587569 0.317081 0.69438 -0.08735
C_ C_ 0.5352 0.318165 0.69029 -0.08735
C_ C_ 0.516677 0.317487 0.661614 -0.05681
C_ C_ 0.551732 0.322169 0.638467 -0.08735
C_ C_ 0.86643 0.209592 0.661475 0.68181
C_ C_ 0.855694 0.405687 0.65165 0.68181
C_ C_ 0.857996 0.461832 0.649696 -0.05681
C_ C_ 0.862001 -0.008468000000000031 0.670322 -0.08735
C_ C_ 0.854572 0.0452202 0.666469 -0.05681
C_ C_ 0.856748 0.0678999 0.639149 -0.05681
C_ C_ 0.859947 0.0375819 0.614646 -0.08735
C_ C_ 0.867441 0.485971 0.622987 -0.08735
C_ C_ 0.841081 0.0755817 0.689887 -0.08735
C_ C_ 0.843813 0.129197 0.687789 -0.08735
C_ C_ 0.85542 0.154953 0.662007 -0.05681
C_ C_ 0.858729 0.121996 0.636634 -0.08735
C_ C_ 0.959112 0.321559 0.656137 0.68181
C_ C_ 0.907408 0.350621 0.731186 0.1947
C_ C_ 0.914854 0.372208 0.758062 -0.08735
C_ C_ 0.892661 0.351069 0.782862 -0.08735
C_ C_ 0.866611 0.305489 0.780713 -0.05681
C_ C_ 0.854885 0.286911 0.752726 0.18498
C_ C_ 0.815242 0.252026 0.748767 -0.08735
C_ C_ 0.789121 0.234121 0.771943 -0.08735
C_ C_ 0.798387 0.25148 0.799933 -0.08735
C_ C_ 0.840866 0.283872 0.80465 0.18498
C_ C_ 0.814158 0.31428 0.851165 0.44287
C_ C_ 0.897645 0.289101 0.846439 0.44287
C_ C_ 0.908524 0.305193 0.874522 -0.05681
C_ C_ 0.956324 0.30133 0.888104 -0.08735
C_ C_ 0.962715 0.310955 0.916938 -0.08735
C_ C_ 0.921222 0.324671 0.935031 -0.05681
C_ C_ 0.871903 0.323504 0.923126 -0.05681
C_ C_ 0.865558 0.321162 0.892622 -0.05681
C_ C_ 0.817905 0.324402 0.880711 -0.05681
C_ C_ 0.777003 0.336011 0.897999 -0.08735
C_ C_ 0.784751 0.352829 0.927039 -0.08735
C_ C_ 0.831479 0.341232 0.940895 -0.05681
C_ C_ 0.841058 0.353651 0.970632 0.44287
C_ C_ 0.925171 0.326716 0.965516 0.44287
C_ C_ 0.902904 0.330158 0.512467 0.18498
C_ C_ 0.933632 0.368584 0.52002 -0.08735
C_ C_ 0.935114 0.387056 0.547908 -0.08735
C_ C_ 0.908963 0.359917 0.569601 -0.08735
C_ C_ 0.882252 0.316715 0.563002 0.18498
C_ C_ 0.878231 0.300534 0.533805 -0.05681
C_ C_ 0.849808 0.257467 0.527466 -0.08735
C_ C_ 0.827816 0.231584 0.549731 -0.08735
C_ C_ 0.832423 0.246547 0.578333 0.1947
N_ N_ 0.630492 0.176516 0.974571 -0.29468
N_ N_ 0.645348 0.193619 0.581141 -0.17154
N_ N_ 0.602613 0.164947 0.727761 -0.17154
N_ N_ 0.623687 0.19685 0.832361 -0.29468
N_ N_ 0.875747 0.310651 0.729048 -0.29468
N_ N_ 0.851896 0.299918 0.833719 -0.17154
N_ N_ 0.887835 0.342906 0.982312 -0.17154
N_ N_ 0.859531 0.289189 0.584487 -0.29468
O_ O_ 0.703299 0.196131 0.924455 -0.58347
O_ O_ 0.695953 0.187529 0.876693 -0.58347
O_ O_ 0.621931 0.262953 0.932247 -0.58347
O_ O_ 0.619275 0.26783 0.884924 -0.58347
O_ O_ 0.633932 0.108269 0.923819 -0.58347
O_ O_ 0.620276 0.116209 0.87697 -0.58347
O_ O_ 0.552489 0.180934 0.92724 -0.58347
O_ O_ 0.539693 0.195475 0.882964 -0.58347
O_ O_ 0.564508 0.227677 0.575861 -0.46727
O_ O_ 0.730507 0.17418 0.58867 -0.46727
O_ O_ 0.516991 0.170428 0.719344 -0.46727
O_ O_ 0.690274 0.165591 0.734593 -0.46727
O_ O_ 0.783677 0.30841 0.683338 -0.58347
O_ O_ 0.789501 0.290137 0.637471 -0.58347
O_ O_ 0.854678 0.234393 0.683236 -0.58347
O_ O_ 0.878536 0.232607 0.639548 -0.58347
O_ O_ 0.861662 0.383063 0.675457 -0.58347
O_ O_ 0.849624 0.379462 0.629432 -0.58347
O_ O_ 0.930927 0.31003 0.677295 -0.58347
O_ O_ 0.938141 0.321725 0.631527 -0.58347
O_ O_ 0.930938 0.260541 0.833317 -0.46727
O_ O_ 0.769807 0.327294 0.838968 -0.46727
O_ O_ 0.970584 0.320164 0.976485 -0.46727
O_ O_ 0.806315 0.369032 0.98835 -0.46727
Zn Zn 0.636263 0.692078 0.381891 0.90689
Zn Zn 0.641918 0.690672 0.428847 0.90689
Zn Zn 0.875031 0.81949 0.13174 0.90689
Zn Zn 0.867123 0.829205 0.179888 0.90689
H_ H_ 0.808643 0.697823 0.447688 0.11455
H_ H_ 0.878493 0.664614 0.349286 0.11455
H_ H_ 0.787888 0.660646 0.357852 0.11455
H_ H_ 0.890777 0.691484 0.468239 0.11455
H_ H_ 0.983932 0.682624 0.462948 0.11455
H_ H_ 0.965041 0.675887 0.370652 0.11455
H_ H_ 0.650263 0.52337 0.441836 0.11455
H_ H_ 0.684294 0.936843 0.35616 0.11455
H_ H_ 0.621909 0.53176 0.351108 0.11455
H_ H_ 0.575201 0.935519 0.456949 0.11455
H_ H_ 0.605372 0.846391 0.459922 0.11455
H_ H_ 0.665169 0.855407 0.374643 0.11455
H_ H_ 0.594044 0.609702 0.46318 0.11455
H_ H_ 0.578373 0.580358 0.014373 0.11455
H_ H_ 0.622809 0.619948 0.055421 0.11455
H_ H_ 0.691719 0.755903 0.474953 0.11455
H_ H_ 0.713029 0.813517 0.00947305 0.11455
H_ H_ 0.688085 0.794108 0.06139 0.11455
H_ H_ 0.508106 0.719361 0.119142 0.11455
H_ H_ 0.496441 0.704966 0.17059 0.11455
H_ H_ 0.757435 0.668919 0.136508 0.11455
H_ H_ 0.742853 0.652355 0.187819 0.11455
H_ H_ 0.561209 0.601302 0.24855 0.11455
H_ H_ 0.550242 0.572453 0.299104 0.11455
H_ H_ 0.579271 0.62849 0.338746 0.11455
H_ H_ 0.647244 0.763311 0.255962 0.11455
H_ H_ 0.684615 0.808783 0.296567 0.11455
H_ H_ 0.690036 0.769562 0.346822 0.11455
H_ H_ 0.700597 0.818459 0.197364 0.11455
H_ H_ 0.631037 0.85406 0.100231 0.11455
H_ H_ 0.720561 0.845973 0.107207 0.11455
H_ H_ 0.613238 0.80107 0.21433 0.11455
H_ H_ 0.518128 0.800998 0.205133 0.11455
H_ H_ 0.5471 0.844675 0.119416 0.11455
H_ H_ 0.860121 0.993149 0.190428 0.11455
H_ H_ 0.887383 0.575328 0.0979706 0.11455
H_ H_ 0.85234 0.977799 0.099052 0.11455
H_ H_ 0.842432 0.578324 0.214269 0.11455
H_ H_ 0.858659 0.671708 0.211572 0.11455
H_ H_ 0.867602 0.658703 0.119791 0.11455
H_ H_ 0.91902 0.903528 0.214178 0.11455
H_ H_ 0.937381 0.933526 0.263005 0.11455
H_ H_ 0.908687 0.877232 0.303343 0.11455
H_ H_ 0.813068 0.765189 0.221146 0.11455
H_ H_ 0.778188 0.710895 0.262825 0.11455
H_ H_ 0.794553 0.731234 0.311805 0.11455
H_ H_ 0.995057 0.802117 0.369721 0.11455
H_ H_ 0.00779288 0.806416 0.423859 0.11455
H_ H_ 0.748904 0.854121 0.388119 0.11455
H_ H_ 0.759401 0.847793 0.438171 0.11455
H_ H_ 0.939545 0.90384 0.500634 0.11455
H_ H_ 0.982353 0.914558 0.0447961 0.11455
H_ H_ 0.943584 0.872944 0.0873456 0.11455
H_ H_ 0.829529 0.761822 0.0105632 0.11455
H_ H_ 0.792594 0.72335 0.0485973 0.11455
H_ H_ 0.817845 0.748214 0.100304 0.11455
C_ C_ 0.735079 0.688318 0.405753 0.68181
C_ C_ 0.792125 0.689027 0.401578 -0.05681
C_ C_ 0.824782 0.691691 0.426284 -0.08735
C_ C_ 0.87631 0.682309 0.422515 -0.05681
C_ C_ 0.897967 0.678025 0.394887 -0.05681
C_ C_ 0.865093 0.67473 0.370989 -0.08735
C_ C_ 0.810729 0.67871 0.374293 -0.08735
C_ C_ 0.907384 0.688827 0.446387 -0.08735
C_ C_ 0.961006 0.687674 0.442716 -0.08735
C_ C_ 0.983283 0.684589 0.41567 -0.05681
C_ C_ 0.951954 0.680869 0.391395 -0.08735
C_ C_ 0.632948 0.78777 0.414573 0.68181
C_ C_ 0.640265 0.592638 0.397661 0.68181
C_ C_ 0.64018 0.535882 0.396618 -0.05681
C_ C_ 0.611029 1.00146107 0.417167 -0.08735
C_ C_ 0.618491 0.948204 0.417676 -0.05681
C_ C_ 0.641692 0.925354 0.39406 -0.05681
C_ C_ 0.669094 0.954987 0.374613 -0.08735
C_ C_ 0.667372 1.00669377 0.376611 -0.08735
C_ C_ 0.601524 0.918032 0.440652 -0.08735
C_ C_ 0.613054 0.867334 0.440948 -0.08735
C_ C_ 0.631809 0.842953 0.416558 -0.05681
C_ C_ 0.644242 0.872049 0.392805 -0.08735
C_ C_ 0.541892 0.684766 0.405144 0.68181
C_ C_ 0.608026 0.630563 0.482387 0.1947
C_ C_ 0.601726 0.612983 0.0111861 -0.08735
C_ C_ 0.623695 0.637988 0.0343551 -0.08735
C_ C_ 0.651853 0.68382 0.0300454 -0.05681
C_ C_ 0.66153 0.698156 1.00076 0.18498
C_ C_ 0.678499 0.747032 0.49601 -0.08735
C_ C_ 0.693998 0.778759 0.0163123 -0.08735
C_ C_ 0.679897 0.767827 0.0445299 -0.08735
C_ C_ 0.660883 0.719751 0.0520266 0.18498
C_ C_ 0.68602 0.694323 0.0988568 0.44287
C_ C_ 0.601652 0.724854 0.0935876 0.44287
C_ C_ 0.591288 0.708536 0.122388 -0.05681
C_ C_ 0.54138 0.711235 0.134221 -0.08735
C_ C_ 0.534773 0.702743 0.163236 -0.08735
C_ C_ 0.575725 0.693167 0.18133 -0.05681
C_ C_ 0.622425 0.686238 0.168974 -0.05681
C_ C_ 0.62931 0.692415 0.139848 -0.05681
C_ C_ 0.680253 0.690261 0.127761 -0.05681
C_ C_ 0.720694 0.680398 0.146291 -0.08735
C_ C_ 0.71168 0.670213 0.175366 -0.08735
C_ C_ 0.665436 0.679365 0.187799 -0.05681
C_ C_ 0.656915 0.673931 0.217841 0.44287
C_ C_ 0.569208 0.691381 0.21236 0.44287
C_ C_ 0.602541 0.669985 0.259996 0.18498
C_ C_ 0.572587 0.62725 0.266011 -0.08735
C_ C_ 0.564516 0.611546 0.295008 -0.08735
C_ C_ 0.581386 0.642235 0.317762 -0.08735
C_ C_ 0.615648 0.683794 0.312194 0.18498
C_ C_ 0.620861 0.699819 0.283236 -0.05681
C_ C_ 0.648102 0.743503 0.27781 -0.08735
C_ C_ 0.672751 0.770662 0.299979 -0.08735
C_ C_ 0.671733 0.750998 0.328549 0.1947
C_ C_ 0.77193 0.823082 0.154958 0.68181
C_ C_ 0.716917 0.832159 0.152099 -0.05681
C_ C_ 0.683586 0.828194 0.175742 -0.08735
C_ C_ 0.631722 0.827854 0.171908 -0.05681
C_ C_ 0.613154 0.84312 0.144791 -0.05681
C_ C_ 0.645686 0.853332 0.122473 -0.08735
C_ C_ 0.697413 0.847065 0.125321 -0.08735
C_ C_ 0.597734 0.815923 0.195171 -0.08735
C_ C_ 0.545258 0.816219 0.189496 -0.08735
C_ C_ 0.527591 0.830047 0.162977 -0.05681
C_ C_ 0.560243 0.841838 0.14001 -0.08735
C_ C_ 0.881326 0.7242 0.163285 0.68181
C_ C_ 0.855941 0.923677 0.147758 0.68181
C_ C_ 0.860306 0.978905 0.145013 -0.05681
C_ C_ 0.86207 0.510334 0.17036 -0.08735
C_ C_ 0.862896 0.56381 0.168992 -0.05681
C_ C_ 0.874064 0.587085 0.142699 -0.05681
C_ C_ 0.881496 0.556794 0.118384 -0.08735
C_ C_ 0.857315 1.00240849 0.118116 -0.08735
C_ C_ 0.856341 0.594991 0.193966 -0.08735
C_ C_ 0.858482 0.647785 0.191985 -0.08735
C_ C_ 0.86851 0.671127 0.165084 -0.05681
C_ C_ 0.87071 0.641826 0.140274 -0.08735
C_ C_ 0.968398 0.834308 0.157308 0.68181
C_ C_ 0.903099 0.884322 0.232826 0.1947
C_ C_ 0.916213 0.897798 0.259923 -0.08735
C_ C_ 0.899355 0.86636 0.282718 -0.08735
C_ C_ 0.863144 0.828702 0.278543 -0.05681
C_ C_ 0.855136 0.8132 0.249399 0.18498
C_ C_ 0.822586 0.77378 0.243688 -0.08735
C_ C_ 0.804882 0.743315 0.266183 -0.08735
C_ C_ 0.813605 0.757273 0.295088 -0.08735
C_ C_ 0.846389 0.797294 0.30189 0.18498
C_ C_ 0.815988 0.825422 0.348768 0.44287
C_ C_ 0.904226 0.802561 0.34233 0.44287
C_ C_ 0.913696 0.809431 0.37251 -0.05681
C_ C_ 0.964017 0.810357 0.384292 -0.08735
C_ C_ 0.971394 0.810403 0.414237 -0.08735
C_ C_ 0.928474 0.816007 0.43176 -0.05681
C_ C_ 0.878586 0.824325 0.420173 -0.05681
C_ C_ 0.871143 0.820831 0.390447 -0.05681
C_ C_ 0.823695 0.827626 0.378852 -0.05681
C_ C_ 0.784829 0.842581 0.395473 -0.08735
C_ C_ 0.791892 0.844334 0.425246 -0.08735
C_ C_ 0.837811 0.836965 0.438352 -0.05681
C_ C_ 0.844145 0.832338 0.468778 0.44287
C_ C_ 0.932377 0.813398 0.461491 0.44287
C_ C_ 0.902496 0.836449 0.00993454 0.18498
C_ C_ 0.93527 0.876581 0.0149218 -0.08735
C_ C_ 0.950509 0.889056 0.0422425 -0.08735
C_ C_ 0.928442 0.864375 0.0657382 -0.08735
C_ C_ 0.89143 0.827168 0.0626563 0.18498
C_ C_ 0.878142 0.811602 0.0338892 -0.05681
C_ C_ 0.840721 0.775449 0.0304519 -0.08735
C_ C_ 0.817473 0.755929 0.0538034 -0.08735
C_ C_ 0.833175 0.766786 0.0813319 0.1947
N_ N_ 0.636693 0.673015 0.478119 -0.29468
N_ N_ 0.648487 0.70984 0.0818052 -0.17154
N_ N_ 0.611167 0.682624 0.229896 -0.17154
N_ N_ 0.638002 0.711384 0.334755 -0.29468
N_ N_ 0.874744 0.840999 0.228113 -0.29468
N_ N_ 0.856368 0.810441 0.331361 -0.17154
N_ N_ 0.891687 0.822079 0.479531 -0.17154
N_ N_ 0.869783 0.803724 0.0858481 -0.29468
O_ O_ 0.716002 0.692972 0.43028 -0.58347
O_ O_ 0.709454 0.697769 0.383126 -0.58347
O_ O_ 0.633764 0.762453 0.437172 -0.58347
O_ O_ 0.631281 0.766044 0.390014 -0.58347
O_ O_ 0.643743 0.617936 0.421085 -0.58347
O_ O_ 0.637621 0.617191 0.374349 -0.58347
O_ O_ 0.56834 0.686275 0.42688 -0.58347
O_ O_ 0.561814 0.687821 0.380674 -0.58347
O_ O_ 0.563398 0.739044 0.0782203 -0.46727
O_ O_ 0.730222 0.682332 0.0878521 -0.46727
O_ O_ 0.52206 0.68648 0.223151 -0.46727
O_ O_ 0.69317 0.659151 0.235211 -0.46727
O_ O_ 0.790034 0.820723 0.179806 -0.58347
O_ O_ 0.798815 0.813621 0.133261 -0.58347
O_ O_ 0.877889 0.753137 0.185217 -0.58347
O_ O_ 0.881213 0.743213 0.138467 -0.58347
O_ O_ 0.856705 0.904334 0.173614 -0.58347
O_ O_ 0.872127 0.89471 0.127076 -0.58347
O_ O_ 0.942301 0.837927 0.1795 -0.58347
O_ O_ 0.947154 0.822723 0.132386 -0.58347
O_ O_ 0.940362 0.793588 0.324137 -0.46727
O_ O_ 0.769509 0.827297 0.338723 -0.46727
O_ O_ 0.974751 0.800706 0.473465 -0.46727
O_ O_ 0.805538 0.839582 0.486352 -0.46727
Zn Zn 0.633517 0.692374 0.881676 0.90689
Zn Zn 0.642243 0.684109 0.930498 0.90689
Zn Zn 0.878958 0.804166 0.632073 0.90689
Zn Zn 0.868997 0.811195 0.678815 0.90689
H_ H_ 0.809034 0.698459 0.944797 0.11455
H_ H_ 0.88267 0.66364 0.850251 0.11455
H_ H_ 0.794069 0.690849 0.854295 0.11455
H_ H_ 0.893232 0.684686 0.967101 0.11455
H_ H_ 0.988727 0.677063 0.961869 0.11455
H_ H_ 0.968814 0.662059 0.871264 0.11455
H_ H_ 0.649395 0.519438 0.943063 0.11455
H_ H_ 0.633685 0.947078 0.843197 0.11455
H_ H_ 0.670419 0.531599 0.850934 0.11455
H_ H_ 0.609935 0.935293 0.959475 0.11455
H_ H_ 0.605949 0.843814 0.956129 0.11455
H_ H_ 0.630449 0.856709 0.864448 0.11455
H_ H_ 0.59411 0.611089 0.966409 0.11455
H_ H_ 0.575171 0.576469 0.512278 0.11455
H_ H_ 0.601755 0.626203 0.553223 0.11455
H_ H_ 0.691568 0.755964 0.973696 0.11455
H_ H_ 0.71559 0.81119 0.517792 0.11455
H_ H_ 0.693195 0.787794 0.565285 0.11455
H_ H_ 0.514142 0.69442 0.626424 0.11455
H_ H_ 0.507215 0.692204 0.676094 0.11455
H_ H_ 0.763831 0.675138 0.634632 0.11455
H_ H_ 0.76194 0.660364 0.685642 0.11455
H_ H_ 0.594405 0.575393 0.74954 0.11455
H_ H_ 0.577122 0.552634 0.800304 0.11455
H_ H_ 0.582624 0.61962 0.838961 0.11455
H_ H_ 0.676044 0.739292 0.756553 0.11455
H_ H_ 0.703426 0.789915 0.796363 0.11455
H_ H_ 0.681954 0.768489 0.843113 0.11455
H_ H_ 0.699336 0.783607 0.692667 0.11455
H_ H_ 0.63872 0.830029 0.596824 0.11455
H_ H_ 0.727571 0.838999 0.606684 0.11455
H_ H_ 0.612387 0.785759 0.712299 0.11455
H_ H_ 0.520079 0.785237 0.703398 0.11455
H_ H_ 0.548849 0.82817 0.615575 0.11455
H_ H_ 0.866545 0.974786 0.691104 0.11455
H_ H_ 0.884435 0.550408 0.597953 0.11455
H_ H_ 0.854416 0.961124 0.598734 0.11455
H_ H_ 0.860835 0.564653 0.716729 0.11455
H_ H_ 0.864053 0.653665 0.71207 0.11455
H_ H_ 0.891991 0.641454 0.622227 0.11455
H_ H_ 0.91264 0.891798 0.713235 0.11455
H_ H_ 0.926245 0.923209 0.761571 0.11455
H_ H_ 0.90573 0.869633 0.803746 0.11455
H_ H_ 0.804719 0.75343 0.72362 0.11455
H_ H_ 0.772413 0.702149 0.763746 0.11455
H_ H_ 0.795238 0.724658 0.813054 0.11455
H_ H_ 0.992 0.788079 0.872659 0.11455
H_ H_ 0.999689285 0.791924 0.924138 0.11455
H_ H_ 0.747659 0.843593 0.885538 0.11455
H_ H_ 0.755321 0.845064 0.940172 0.11455
H_ H_ 0.953257 0.894577 0.995806 0.11455
H_ H_ 0.94442 0.930655 0.549311 0.11455
H_ H_ 0.928748 0.872312 0.588775 0.11455
H_ H_ 0.859485 0.738556 0.504021 0.11455
H_ H_ 0.8177 0.692628 0.544992 0.11455
H_ H_ 0.835554 0.719004 0.595343 0.11455
C_ C_ 0.739478 0.695064 0.902893 0.68181
C_ C_ 0.795105 0.690254 0.899066 -0.05681
C_ C_ 0.826644 0.694665 0.923193 -0.08735
C_ C_ 0.879991 0.684487 0.921254 -0.05681
C_ C_ 0.901212 0.673212 0.894881 -0.05681
C_ C_ 0.869599 0.673679 0.870405 -0.08735
C_ C_ 0.817955 0.683081 0.872842 -0.08735
C_ C_ 0.910281 0.683922 0.94598 -0.08735
C_ C_ 0.962231 0.674737 0.943052 -0.08735
C_ C_ 0.985179 0.66959 0.916492 -0.05681
C_ C_ 0.952212 0.663162 0.892299 -0.08735
C_ C_ 0.627021 0.788322 0.909072 0.68181
C_ C_ 0.65463 0.590945 0.900311 0.68181
C_ C_ 0.653999 0.533935 0.897486 -0.05681
C_ C_ 0.632885 0.003292 0.920282 -0.08735
C_ C_ 0.628568 0.950643 0.915772 -0.05681
C_ C_ 0.630516 0.9297 0.888234 -0.05681
C_ C_ 0.628465 0.961582 0.86444 -0.08735
C_ C_ 0.627673 0.0129801 0.868399 -0.08735
C_ C_ 0.620133 0.917805 0.939299 -0.08735
C_ C_ 0.616346 0.86473 0.937528 -0.08735
C_ C_ 0.620472 0.843763 0.91125 -0.05681
C_ C_ 0.626615 0.875693 0.885522 -0.08735
C_ C_ 0.539577 0.675315 0.907159 0.68181
C_ C_ 0.611686 0.629901 0.984169 0.1947
C_ C_ 0.596357 0.611532 0.509364 -0.08735
C_ C_ 0.614149 0.639223 0.533072 -0.08735
C_ C_ 0.642579 0.683994 0.529747 -0.05681
C_ C_ 0.652788 0.702153 0.501313 0.18498
C_ C_ 0.682956 0.744773 0.994567 -0.08735
C_ C_ 0.690588 0.778909 0.52084 -0.08735
C_ C_ 0.678152 0.763896 0.54834 -0.08735
C_ C_ 0.652801 0.716958 0.553605 0.18498
C_ C_ 0.688483 0.686903 0.597657 0.44287
C_ C_ 0.600328 0.70268 0.595248 0.44287
C_ C_ 0.594503 0.688147 0.624474 -0.05681
C_ C_ 0.54709 0.683167 0.637511 -0.08735
C_ C_ 0.542983 0.679934 0.666531 -0.08735
C_ C_ 0.587915 0.67213 0.683445 -0.05681
C_ C_ 0.636016 0.670162 0.670208 -0.05681
C_ C_ 0.638301 0.676241 0.640306 -0.05681
C_ C_ 0.684585 0.679174 0.627466 -0.05681
C_ C_ 0.72906 0.677808 0.645105 -0.08735
C_ C_ 0.726329 0.672739 0.674703 -0.08735
C_ C_ 0.678468 0.671723 0.687375 -0.05681
C_ C_ 0.674647 0.664403 0.716809 0.44287
C_ C_ 0.585351 0.670931 0.713609 0.44287
C_ C_ 0.621213 0.649952 0.759274 0.18498
C_ C_ 0.605915 0.601837 0.76704 -0.08735
C_ C_ 0.595244 0.589025 0.795727 -0.08735
C_ C_ 0.600942 0.626946 0.817288 -0.08735
C_ C_ 0.622012 0.672543 0.811376 0.18498
C_ C_ 0.631462 0.686788 0.78183 -0.05681
C_ C_ 0.661366 0.730064 0.776984 -0.08735
C_ C_ 0.67624 0.76057 0.799465 -0.08735
C_ C_ 0.661621 0.746625 0.827269 0.1947
C_ C_ 0.778137 0.79917 0.653938 0.68181
C_ C_ 0.723585 0.809751 0.649711 -0.05681
C_ C_ 0.686738 0.799234 0.672835 -0.08735
C_ C_ 0.635126 0.807553 0.668838 -0.05681
C_ C_ 0.615961 0.817835 0.641191 -0.05681
C_ C_ 0.651247 0.826656 0.618998 -0.08735
C_ C_ 0.702247 0.82146 0.622609 -0.08735
C_ C_ 0.599105 0.797771 0.6913 -0.08735
C_ C_ 0.545977 0.797413 0.686259 -0.08735
C_ C_ 0.528314 0.808523 0.659392 -0.05681
C_ C_ 0.562326 0.819001 0.6366 -0.08735
C_ C_ 0.882536 0.709281 0.663299 0.68181
C_ C_ 0.861092 0.904168 0.650246 0.68181
C_ C_ 0.863646 0.960018 0.645681 -0.05681
C_ C_ 0.859263 0.494195 0.673818 -0.08735
C_ C_ 0.8698 0.547646 0.672243 -0.05681
C_ C_ 0.878867 0.569567 0.644721 -0.05681
C_ C_ 0.877989 0.537848 0.620366 -0.08735
C_ C_ 0.856123 0.98299 0.617917 -0.08735
C_ C_ 0.869836 0.579878 0.696272 -0.08735
C_ C_ 0.872473 0.629592 0.693672 -0.08735
C_ C_ 0.879772 0.653309 0.666743 -0.05681
C_ C_ 0.879293 0.6222 0.641899 -0.08735
C_ C_ 0.973834 0.821981 0.657031 0.68181
C_ C_ 0.897064 0.871979 0.731605 0.1947
C_ C_ 0.913099 0.884853 0.759133 -0.08735
C_ C_ 0.895363 0.857845 0.782554 -0.08735
C_ C_ 0.863545 0.816091 0.778258 -0.05681
C_ C_ 0.852543 0.799192 0.749084 0.18498
C_ C_ 0.823697 0.757674 0.744607 -0.08735
C_ C_ 0.805424 0.727771 0.767027 -0.08735
C_ C_ 0.815965 0.741782 0.794835 -0.08735
C_ C_ 0.847458 0.78415 0.80166 0.18498
C_ C_ 0.81298 0.81152 0.84832 0.44287
C_ C_ 0.901417 0.791166 0.842266 0.44287
C_ C_ 0.910268 0.800472 0.871502 -0.05681
C_ C_ 0.958853 0.795225 0.884056 -0.08735
C_ C_ 0.965309 0.799918 0.914474 -0.08735
C_ C_ 0.923501 0.803424 0.932894 -0.05681
C_ C_ 0.877785 0.812417 0.920641 -0.05681
C_ C_ 0.869369 0.81041 0.890184 -0.05681
C_ C_ 0.820247 0.817508 0.878003 -0.05681
C_ C_ 0.782946 0.831875 0.897082 -0.08735
C_ C_ 0.78842 0.832934 0.926116 -0.08735
C_ C_ 0.837728 0.827342 0.938083 -0.05681
C_ C_ 0.847105 0.836728 0.967472 0.44287
C_ C_ 0.931578 0.807516 0.963028 0.44287
C_ C_ 0.901126 0.834225 0.509153 0.18498
C_ C_ 0.921717 0.880781 0.516367 -0.08735
C_ C_ 0.929716 0.891947 0.545095 -0.08735
C_ C_ 0.916107 0.860863 0.566374 -0.08735
C_ C_ 0.898237 0.812161 0.56134 0.18498
C_ C_ 0.884161 0.801968 0.531878 -0.05681
C_ C_ 0.858162 0.75714 0.52559 -0.08735
C_ C_ 0.841963 0.72702 0.54888 -0.08735
C_ C_ 0.849767 0.741186 0.577455 0.1947
N_ N_ 0.638454 0.672133 0.979041 -0.29468
N_ N_ 0.646465 0.700084 0.582869 -0.17154
N_ N_ 0.626902 0.664128 0.729573 -0.17154
N_ N_ 0.634917 0.703854 0.832999 -0.29468
N_ N_ 0.870266 0.828058 0.726537 -0.29468
N_ N_ 0.853068 0.80006 0.831245 -0.17154
N_ N_ 0.891286 0.819331 0.980203 -0.17154
N_ N_ 0.879685 0.783465 0.582902 -0.29468
O_ O_ 0.718971 0.680323 0.926956 -0.58347
O_ O_ 0.713177 0.711806 0.881674 -0.58347
O_ O_ 0.635689 0.763203 0.932153 -0.58347
O_ O_ 0.617109 0.76564 0.885356 -0.58347
O_ O_ 0.64763 0.60998 0.925546 -0.58347
O_ O_ 0.651342 0.618243 0.8779 -0.58347
O_ O_ 0.568503 0.680212 0.928297 -0.58347
O_ O_ 0.558336 0.673449 0.881817 -0.58347
O_ O_ 0.562825 0.72573 0.582142 -0.46727
O_ O_ 0.731982 0.688564 0.585234 -0.46727
O_ O_ 0.541569 0.678573 0.726363 -0.46727
O_ O_ 0.71501 0.663921 0.733766 -0.46727
O_ O_ 0.79479 0.802223 0.679533 -0.58347
O_ O_ 0.807454 0.794769 0.633422 -0.58347
O_ O_ 0.875575 0.73836 0.684504 -0.58347
O_ O_ 0.886685 0.727566 0.638168 -0.58347
O_ O_ 0.857108 0.884001 0.674576 -0.58347
O_ O_ 0.865959 0.877494 0.628031 -0.58347
O_ O_ 0.943577 0.826385 0.678615 -0.58347
O_ O_ 0.955927 0.815625 0.632486 -0.58347
O_ O_ 0.936938 0.771668 0.825628 -0.46727
O_ O_ 0.76654 0.815015 0.837295 -0.46727
O_ O_ 0.975259 0.795357 0.974555 -0.46727
O_ O_ 0.811298 0.852806 0.984684 -0.46727
