_cell_length_a 26.376
_cell_length_b 26.400000238300095
_cell_length_c 46.67800035477134
_cell_angle_alpha 90.00700052986613
_cell_angle_beta 89.99899961309502
_cell_angle_gamma 90.45000003183146
_symmetry_space_group_name_H-M         'P 1'
_symmetry_Int_Tables_number            1
loop_
_symmetry_equiv_pos_as_xyz
   'x, y, z'
                         
loop_
_atom_site_label
_atom_site_type_symbol
_atom_site_fract_x 
_atom_site_fract_y
_atom_site_fract_z
_atom_site_charge
Zn Zn 0.115502 0.193798 0.381467 0.90689
Zn Zn 0.117228 0.183582 0.429998 0.90689
Zn Zn 0.359228 0.308495 0.131032 0.90689
Zn Zn 0.352154 0.318618 0.17873 0.90689
H_ H_ 0.292085 0.192454 0.446929 0.11455
H_ H_ 0.36333 0.175492 0.349393 0.11455
H_ H_ 0.26611 0.159819 0.356424 0.11455
H_ H_ 0.374347 0.176526 0.465825 0.11455
H_ H_ 0.463088 0.1627 0.460155 0.11455
H_ H_ 0.443681 0.171196 0.368946 0.11455
H_ H_ 0.139911 0.0179504 0.440278 0.11455
H_ H_ 0.131478 0.44202 0.348425 0.11455
H_ H_ 0.132417 0.0322936 0.348444 0.11455
H_ H_ 0.133946 0.437147 0.466864 0.11455
H_ H_ 0.132094 0.345719 0.461594 0.11455
H_ H_ 0.1309 0.357354 0.369444 0.11455
H_ H_ 0.0775384 0.102033 0.466816 0.11455
H_ H_ 0.0666067 0.0755713 0.00962798 0.11455
H_ H_ 0.0947503 0.124353 0.0530443 0.11455
H_ H_ 0.189083 0.239516 0.472139 0.11455
H_ H_ 0.218599 0.301707 0.0153681 0.11455
H_ H_ 0.183619 0.284222 0.0614888 0.11455
H_ H_ 0.000185 0.215464 0.118508 0.11455
H_ H_ -0.008743999999999974 0.213076 0.172834 0.11455
H_ H_ 0.251987 0.175191 0.139798 0.11455
H_ H_ 0.238204 0.17491 0.189511 0.11455
H_ H_ 0.0488341 0.103022 0.249682 0.11455
H_ H_ 0.0271473 0.0795793 0.295215 0.11455
H_ H_ 0.0497972 0.137406 0.335641 0.11455
H_ H_ 0.142836 0.261313 0.257155 0.11455
H_ H_ 0.182339 0.30443 0.298435 0.11455
H_ H_ 0.176051 0.266826 0.345902 0.11455
H_ H_ 0.184192 0.322616 0.194567 0.11455
H_ H_ 0.115001 0.333832 0.09666 0.11455
H_ H_ 0.209662 0.325911 0.103861 0.11455
H_ H_ 0.0955083 0.320381 0.21489 0.11455
H_ H_ 0.00732152 0.331146 0.207913 0.11455
H_ H_ 0.0267683 0.326717 0.117029 0.11455
H_ H_ 0.367394 0.476905 0.193772 0.11455
H_ H_ 0.315583 0.0551971 0.104007 0.11455
H_ H_ 0.344386 0.468593 0.101773 0.11455
H_ H_ 0.381836 0.0685381 0.216236 0.11455
H_ H_ 0.366322 0.161219 0.211774 0.11455
H_ H_ 0.345184 0.14466 0.120239 0.11455
H_ H_ 0.407005 0.392406 0.210352 0.11455
H_ H_ 0.438235 0.416982 0.258731 0.11455
H_ H_ 0.397671 0.37547 0.30086 0.11455
H_ H_ 0.293141 0.262961 0.221721 0.11455
H_ H_ 0.267567 0.207303 0.260122 0.11455
H_ H_ 0.281235 0.236628 0.310726 0.11455
H_ H_ 0.473602 0.282816 0.367945 0.11455
H_ H_ 0.492126 0.299782 0.41803 0.11455
H_ H_ 0.23152 0.346417 0.389987 0.11455
H_ H_ 0.245472 0.348413 0.440378 0.11455
H_ H_ 0.422768 0.420707 0.495185 0.11455
H_ H_ 0.456137 0.425347 0.0498532 0.11455
H_ H_ 0.426947 0.367235 0.087662 0.11455
H_ H_ 0.332627 0.251603 0.00572072 0.11455
H_ H_ 0.297236 0.207106 0.0458128 0.11455
H_ H_ 0.308276 0.234616 0.0944091 0.11455
C_ C_ 0.215767 0.186282 0.40421 0.68181
C_ C_ 0.271033 0.181342 0.40082 -0.05681
C_ C_ 0.305328 0.183694 0.424899 -0.08735
C_ C_ 0.357357 0.178528 0.421872 -0.05681
C_ C_ 0.376089 0.17002 0.394213 -0.05681
C_ C_ 0.344796 0.171445 0.369106 -0.08735
C_ C_ 0.29181 0.173303 0.373268 -0.08735
C_ C_ 0.389116 0.174796 0.444645 -0.08735
C_ C_ 0.440279 0.166401 0.441679 -0.08735
C_ C_ 0.46255 0.168245 0.413336 -0.05681
C_ C_ 0.428735 0.168127 0.39046 -0.08735
C_ C_ 0.115564 0.28936 0.413173 0.68181
C_ C_ 0.121427 0.0898742 0.398808 0.68181
C_ C_ 0.132731 0.0329575 0.394476 -0.05681
C_ C_ 0.142649 0.502835 0.422188 -0.08735
C_ C_ 0.132682 0.451389 0.420546 -0.05681
C_ C_ 0.130929 0.427475 0.39331 -0.05681
C_ C_ 0.139233 0.457384 0.36814 -0.08735
C_ C_ 0.144089 0.510812 0.370689 -0.08735
C_ C_ 0.125576 0.421287 0.445809 -0.08735
C_ C_ 0.126884 0.367062 0.442971 -0.08735
C_ C_ 0.124647 0.344267 0.416424 -0.05681
C_ C_ 0.127392 0.373865 0.391746 -0.08735
C_ C_ 0.0193815 0.190244 0.406406 0.68181
C_ C_ 0.0893146 0.127552 0.483908 0.1947
C_ C_ 0.089841 0.110974 0.00911684 -0.08735
C_ C_ 0.106854 0.135845 0.0326479 -0.08735
C_ C_ 0.13411 0.181155 0.0281089 -0.05681
C_ C_ 0.151453 0.193156 0.999776 0.18498
C_ C_ 0.170689 0.237011 0.492716 -0.08735
C_ C_ 0.194368 0.268546 0.018707 -0.08735
C_ C_ 0.174221 0.257152 0.0449787 -0.08735
C_ C_ 0.148926 0.211133 0.0508564 0.18498
C_ C_ 0.179878 0.189647 0.0979358 0.44287
C_ C_ 0.0906123 0.197768 0.0907248 0.44287
C_ C_ 0.0831056 0.199559 0.120586 -0.05681
C_ C_ 0.0335471 0.205201 0.132127 -0.08735
C_ C_ 0.0266775 0.206845 0.162462 -0.08735
C_ C_ 0.0677152 0.195698 0.181389 -0.05681
C_ C_ 0.115916 0.188272 0.16949 -0.05681
C_ C_ 0.123907 0.190303 0.139527 -0.05681
C_ C_ 0.173046 0.187382 0.127984 -0.05681
C_ C_ 0.213856 0.176547 0.147483 -0.08735
C_ C_ 0.204547 0.175553 0.17602 -0.08735
C_ C_ 0.155888 0.179051 0.187748 -0.05681
C_ C_ 0.147453 0.177408 0.217502 0.44287
C_ C_ 0.0612677 0.193679 0.211524 0.44287
C_ C_ 0.0882526 0.173261 0.258728 0.18498
C_ C_ 0.0605186 0.128497 0.265515 -0.08735
C_ C_ 0.0508547 0.114166 0.29351 -0.08735
C_ C_ 0.0673771 0.143494 0.315133 -0.08735
C_ C_ 0.0985854 0.186584 0.310843 0.18498
C_ C_ 0.107686 0.20277 0.282472 -0.05681
C_ C_ 0.139208 0.243346 0.277989 -0.08735
C_ C_ 0.158962 0.270242 0.300953 -0.08735
C_ C_ 0.157154 0.248073 0.328068 0.1947
C_ C_ 0.256551 0.310907 0.154236 0.68181
C_ C_ 0.202117 0.319587 0.150518 -0.05681
C_ C_ 0.169238 0.322598 0.173654 -0.08735
C_ C_ 0.115208 0.32523 0.169621 -0.05681
C_ C_ 0.095846 0.331724 0.141684 -0.05681
C_ C_ 0.129472 0.327027 0.118399 -0.08735
C_ C_ 0.18333 0.323864 0.122655 -0.08735
C_ C_ 0.0833436 0.32343 0.193331 -0.08735
C_ C_ 0.0316486 0.327598 0.189699 -0.08735
C_ C_ 0.0113526 0.332211 0.162735 -0.05681
C_ C_ 0.0436621 0.330238 0.138406 -0.08735
C_ C_ 0.357286 0.213617 0.163846 0.68181
C_ C_ 0.354405 0.41335 0.149979 0.68181
C_ C_ 0.353751 0.469152 0.147449 -0.05681
C_ C_ 0.379082 0.0005299999999999194 0.172411 -0.08735
C_ C_ 0.365795 0.051502 0.171297 -0.05681
C_ C_ 0.347847 0.0723186 0.145364 -0.05681
C_ C_ 0.33738 0.0410439 0.121569 -0.08735
C_ C_ 0.352437 0.493936 0.120019 -0.08735
C_ C_ 0.369336 0.084718 0.195823 -0.08735
C_ C_ 0.363538 0.136066 0.192248 -0.08735
C_ C_ 0.358074 0.159225 0.165592 -0.05681
C_ C_ 0.349213 0.126733 0.141579 -0.08735
C_ C_ 0.455692 0.322386 0.156771 0.68181
C_ C_ 0.387942 0.377676 0.228338 0.1947
C_ C_ 0.4059 0.389848 0.256106 -0.08735
C_ C_ 0.383996 0.365852 0.280248 -0.08735
C_ C_ 0.349508 0.326221 0.276325 -0.05681
C_ C_ 0.339085 0.310204 0.247619 0.18498
C_ C_ 0.309313 0.269473 0.242958 -0.08735
C_ C_ 0.290592 0.239407 0.265191 -0.08735
C_ C_ 0.300292 0.254671 0.292997 -0.08735
C_ C_ 0.329138 0.296343 0.299289 0.18498
C_ C_ 0.299718 0.320842 0.34738 0.44287
C_ C_ 0.38595 0.298226 0.340826 0.44287
C_ C_ 0.393942 0.299763 0.371224 -0.05681
C_ C_ 0.443829 0.295701 0.382659 -0.08735
C_ C_ 0.452279 0.305206 0.411455 -0.08735
C_ C_ 0.4125 0.313519 0.43106 -0.05681
C_ C_ 0.36318 0.31594 0.420265 -0.05681
C_ C_ 0.353916 0.3117 0.389479 -0.05681
C_ C_ 0.306504 0.320681 0.377039 -0.05681
C_ C_ 0.265945 0.330859 0.397294 -0.08735
C_ C_ 0.275482 0.336524 0.427047 -0.08735
C_ C_ 0.324271 0.330577 0.438778 -0.05681
C_ C_ 0.334362 0.338756 0.4678 0.44287
C_ C_ 0.421104 0.318159 0.460557 0.44287
C_ C_ 0.395339 0.33451 0.00854095 0.18498
C_ C_ 0.423659 0.379159 0.0157959 -0.08735
C_ C_ 0.433468 0.3904 0.0445673 -0.08735
C_ C_ 0.415345 0.358845 0.0668607 -0.08735
C_ C_ 0.384509 0.316733 0.0607973 0.18498
C_ C_ 0.373598 0.304728 0.0316222 -0.05681
C_ C_ 0.340022 0.265473 0.027311 -0.08735
C_ C_ 0.313864 0.242543 0.050072 -0.08735
C_ C_ 0.323872 0.257043 0.0776091 0.1947
N_ N_ 0.119365 0.169755 0.477844 -0.29468
N_ N_ 0.139365 0.196361 0.0796949 -0.17154
N_ N_ 0.101006 0.185717 0.229481 -0.17154
N_ N_ 0.121723 0.21054 0.333446 -0.29468
N_ N_ 0.354258 0.337983 0.225461 -0.29468
N_ N_ 0.338796 0.309132 0.329139 -0.17154
N_ N_ 0.382459 0.334947 0.477996 -0.17154
N_ N_ 0.359509 0.293697 0.0818575 -0.29468
O_ O_ 0.196658 0.183807 0.429 -0.58347
O_ O_ 0.1891 0.199126 0.383299 -0.58347
O_ O_ 0.121882 0.259496 0.434226 -0.58347
O_ O_ 0.110972 0.270738 0.387719 -0.58347
O_ O_ 0.114199 0.10919 0.423295 -0.58347
O_ O_ 0.119261 0.117767 0.375953 -0.58347
O_ O_ 0.0450458 0.188703 0.42868 -0.58347
O_ O_ 0.0409394 0.187041 0.382543 -0.58347
O_ O_ 0.0537421 0.212482 0.0732633 -0.46727
O_ O_ 0.226505 0.183431 0.0885183 -0.46727
O_ O_ 0.0156423 0.203186 0.221945 -0.46727
O_ O_ 0.18559 0.166603 0.234657 -0.46727
O_ O_ 0.275893 0.307344 0.178885 -0.58347
O_ O_ 0.286282 0.316999 0.132662 -0.58347
O_ O_ 0.364558 0.24394 0.184825 -0.58347
O_ O_ 0.353896 0.232622 0.137837 -0.58347
O_ O_ 0.338743 0.39159 0.171933 -0.58347
O_ O_ 0.359589 0.386435 0.12767 -0.58347
O_ O_ 0.42556 0.329519 0.177377 -0.58347
O_ O_ 0.43746 0.310067 0.132544 -0.58347
O_ O_ 0.420025 0.279009 0.323893 -0.46727
O_ O_ 0.257659 0.338589 0.336801 -0.46727
O_ O_ 0.467993 0.316843 0.471092 -0.46727
O_ O_ 0.301317 0.362621 0.483492 -0.46727
Zn Zn 0.13317 0.184252 0.881801 0.90689
Zn Zn 0.14489 0.173801 0.929569 0.90689
Zn Zn 0.368742 0.320704 0.629153 0.90689
Zn Zn 0.362427 0.327179 0.676718 0.90689
H_ H_ 0.311565 0.169871 0.944841 0.11455
H_ H_ 0.377729 0.164197 0.847201 0.11455
H_ H_ 0.291446 0.189811 0.855725 0.11455
H_ H_ 0.398421 0.17952 0.966469 0.11455
H_ H_ 0.485521 0.17301 0.957744 0.11455
H_ H_ 0.467053 0.178525 0.867689 0.11455
H_ H_ 0.0917821 0.0110003 0.935725 0.11455
H_ H_ 0.119651 0.432197 0.843135 0.11455
H_ H_ 0.185771 0.0208921 0.859843 0.11455
H_ H_ 0.140455 0.431847 0.963666 0.11455
H_ H_ 0.132774 0.338125 0.959548 0.11455
H_ H_ 0.1232 0.347381 0.867956 0.11455
H_ H_ 0.081245 0.110693 0.963191 0.11455
H_ H_ 0.0632407 0.0768212 0.516118 0.11455
H_ H_ 0.100822 0.124169 0.557788 0.11455
H_ H_ 0.205575 0.237823 0.974832 0.11455
H_ H_ 0.226949 0.292426 0.507267 0.11455
H_ H_ 0.201748 0.281316 0.559257 0.11455
H_ H_ 0.0168129 0.227341 0.628111 0.11455
H_ H_ 0.0173808 0.226511 0.680737 0.11455
H_ H_ 0.260683 0.159856 0.628911 0.11455
H_ H_ 0.253881 0.136967 0.68022 0.11455
H_ H_ 0.0864612 0.0881495 0.745848 0.11455
H_ H_ 0.0719213 0.0582765 0.793753 0.11455
H_ H_ 0.089854 0.113365 0.835331 0.11455
H_ H_ 0.1872 0.238872 0.757864 0.11455
H_ H_ 0.20661 0.293104 0.801242 0.11455
H_ H_ 0.17869 0.271634 0.847713 0.11455
H_ H_ 0.196232 0.330693 0.694121 0.11455
H_ H_ 0.121842 0.3363 0.597835 0.11455
H_ H_ 0.213994 0.333461 0.603232 0.11455
H_ H_ 0.111971 0.323284 0.714968 0.11455
H_ H_ 0.0216389 0.317078 0.709486 0.11455
H_ H_ 0.037863 0.346145 0.616653 0.11455
H_ H_ 0.375405 0.489353 0.690186 0.11455
H_ H_ 0.371435 0.0656967 0.596787 0.11455
H_ H_ 0.329472 0.47886 0.60292 0.11455
H_ H_ 0.403606 0.0822138 0.713224 0.11455
H_ H_ 0.406807 0.175858 0.706561 0.11455
H_ H_ 0.378587 0.154649 0.616559 0.11455
H_ H_ 0.393775 0.408201 0.715271 0.11455
H_ H_ 0.40948 0.433663 0.766423 0.11455
H_ H_ 0.395025 0.371699 0.803043 0.11455
H_ H_ 0.31739 0.247107 0.718222 0.11455
H_ H_ 0.310571 0.181638 0.756493 0.11455
H_ H_ 0.319913 0.203424 0.807861 0.11455
H_ H_ 0.494828 0.281415 0.871744 0.11455
H_ H_ 0.502704 0.297056 0.925565 0.11455
H_ H_ 0.248653 0.352362 0.881114 0.11455
H_ H_ 0.259211 0.364511 0.933294 0.11455
H_ H_ 0.449492 0.394385 0.000208404 0.11455
H_ H_ 0.442871 0.449302 0.541826 0.11455
H_ H_ 0.409703 0.399767 0.585334 0.11455
H_ H_ 0.337922 0.2649 0.505616 0.11455
H_ H_ 0.295428 0.225037 0.543815 0.11455
H_ H_ 0.31535 0.248765 0.595323 0.11455
C_ C_ 0.236627 0.188751 0.907656 0.68181
C_ C_ 0.292189 0.183563 0.90237 -0.05681
C_ C_ 0.326719 0.174607 0.924533 -0.08735
C_ C_ 0.37885 0.170867 0.920408 -0.05681
C_ C_ 0.398692 0.168238 0.892036 -0.05681
C_ C_ 0.364756 0.170007 0.869253 -0.08735
C_ C_ 0.313247 0.182298 0.8746 -0.08735
C_ C_ 0.411849 0.173677 0.943647 -0.08735
C_ C_ 0.463217 0.172882 0.939489 -0.08735
C_ C_ 0.485017 0.17017 0.912005 -0.05681
C_ C_ 0.451829 0.169135 0.888291 -0.08735
C_ C_ 0.13097 0.278382 0.910313 0.68181
C_ C_ 0.142869 0.0805713 0.902393 0.68181
C_ C_ 0.138424 0.0241738 0.897697 -0.05681
C_ C_ 0.14906 0.494158 0.918127 -0.08735
C_ C_ 0.135812 0.442472 0.917555 -0.05681
C_ C_ 0.126171 0.419131 0.889978 -0.05681
C_ C_ 0.123032 0.449694 0.865272 -0.08735
C_ C_ 0.125309 0.502607 0.868738 -0.08735
C_ C_ 0.136641 0.412186 0.942431 -0.08735
C_ C_ 0.128366 0.360081 0.940409 -0.08735
C_ C_ 0.128403 0.335543 0.913707 -0.05681
C_ C_ 0.126181 0.366869 0.888245 -0.08735
C_ C_ 0.0403414 0.172476 0.903586 0.68181
C_ C_ 0.101992 0.12538 0.981051 0.1947
C_ C_ 0.0823054 0.112541 0.512654 -0.08735
C_ C_ 0.104425 0.139166 0.535476 -0.08735
C_ C_ 0.129451 0.185135 0.529202 -0.05681
C_ C_ 0.137747 0.197507 0.499814 0.18498
C_ C_ 0.182589 0.236621 0.995152 -0.08735
C_ C_ 0.194655 0.266659 0.513211 -0.08735
C_ C_ 0.181815 0.258411 0.542362 -0.08735
C_ C_ 0.150658 0.217399 0.550502 0.18498
C_ C_ 0.188044 0.194655 0.595034 0.44287
C_ C_ 0.100559 0.211828 0.594052 0.44287
C_ C_ 0.0953075 0.202945 0.623916 -0.05681
C_ C_ 0.0501667 0.213743 0.639685 -0.08735
C_ C_ 0.0497824 0.209348 0.669052 -0.08735
C_ C_ 0.0943849 0.197331 0.684018 -0.05681
C_ C_ 0.139171 0.185299 0.669324 -0.05681
C_ C_ 0.141284 0.191752 0.639258 -0.05681
C_ C_ 0.185595 0.184815 0.624507 -0.05681
C_ C_ 0.226915 0.164913 0.639204 -0.08735
C_ C_ 0.225462 0.154217 0.669973 -0.08735
C_ C_ 0.179163 0.165796 0.684911 -0.05681
C_ C_ 0.175569 0.157719 0.715077 0.44287
C_ C_ 0.0921768 0.195201 0.714025 0.44287
C_ C_ 0.121844 0.158677 0.758117 0.18498
C_ C_ 0.093492 0.113119 0.76345 -0.08735
C_ C_ 0.0854904 0.0963071 0.79121 -0.08735
C_ C_ 0.102561 0.125622 0.814767 -0.08735
C_ C_ 0.124263 0.173667 0.81027 0.18498
C_ C_ 0.137602 0.189155 0.782012 -0.05681
C_ C_ 0.169027 0.231595 0.778966 -0.08735
C_ C_ 0.180439 0.260511 0.802285 -0.08735
C_ C_ 0.165339 0.246372 0.829583 0.1947
C_ C_ 0.266608 0.31819 0.652229 0.68181
C_ C_ 0.211017 0.319971 0.649364 -0.05681
C_ C_ 0.178804 0.323026 0.673247 -0.08735
C_ C_ 0.127075 0.329747 0.669831 -0.05681
C_ C_ 0.105106 0.332147 0.641943 -0.05681
C_ C_ 0.137664 0.332946 0.618295 -0.08735
C_ C_ 0.19016 0.329758 0.621649 -0.08735
C_ C_ 0.0972448 0.324412 0.693694 -0.08735
C_ C_ 0.0441979 0.327268 0.690492 -0.08735
C_ C_ 0.0217822 0.337837 0.663126 -0.05681
C_ C_ 0.0534336 0.338274 0.638625 -0.08735
C_ C_ 0.379464 0.226791 0.657008 0.68181
C_ C_ 0.352035 0.42291 0.64892 0.68181
C_ C_ 0.356225 0.4779 0.646717 -0.05681
C_ C_ 0.383738 0.0141251 0.674492 -0.08735
C_ C_ 0.387331 0.0651616 0.669845 -0.05681
C_ C_ 0.381834 0.0851273 0.641474 -0.05681
C_ C_ 0.373238 0.0512683 0.618659 -0.08735
C_ C_ 0.34452 0.501923 0.621166 -0.08735
C_ C_ 0.400869 0.0996362 0.692467 -0.08735
C_ C_ 0.396058 0.15066 0.688953 -0.08735
C_ C_ 0.384414 0.171668 0.661581 -0.05681
C_ C_ 0.383587 0.138155 0.637871 -0.08735
C_ C_ 0.463232 0.332157 0.655107 0.68181
C_ C_ 0.38486 0.380944 0.730981 0.1947
C_ C_ 0.3912 0.397452 0.760505 -0.08735
C_ C_ 0.387366 0.361301 0.781812 -0.08735
C_ C_ 0.361473 0.314635 0.776536 -0.05681
C_ C_ 0.34881 0.302205 0.747121 0.18498
C_ C_ 0.327057 0.255492 0.741417 -0.08735
C_ C_ 0.324166 0.21716 0.762842 -0.08735
C_ C_ 0.328755 0.232428 0.791212 -0.08735
C_ C_ 0.351849 0.278463 0.79882 0.18498
C_ C_ 0.322464 0.317533 0.843544 0.44287
C_ C_ 0.403347 0.279715 0.841436 0.44287
C_ C_ 0.412095 0.291039 0.870368 -0.05681
C_ C_ 0.46011 0.282879 0.884371 -0.08735
C_ C_ 0.464359 0.292686 0.914472 -0.08735
C_ C_ 0.421756 0.299357 0.931759 -0.05681
C_ C_ 0.378574 0.318287 0.917652 -0.05681
C_ C_ 0.370361 0.308394 0.887453 -0.05681
C_ C_ 0.322597 0.318724 0.874454 -0.05681
C_ C_ 0.283577 0.343013 0.891866 -0.08735
C_ C_ 0.288999 0.348747 0.921221 -0.08735
C_ C_ 0.336501 0.335284 0.934111 -0.05681
C_ C_ 0.340385 0.334489 0.965639 0.44287
C_ C_ 0.425499 0.303254 0.962631 0.44287
C_ C_ 0.393889 0.349921 0.507647 0.18498
C_ C_ 0.415971 0.396657 0.512751 -0.08735
C_ C_ 0.424855 0.413704 0.540255 -0.08735
C_ C_ 0.404846 0.388088 0.564147 -0.08735
C_ C_ 0.383906 0.336575 0.559782 0.18498
C_ C_ 0.37627 0.321166 0.530895 -0.05681
C_ C_ 0.342845 0.280558 0.52641 -0.08735
C_ C_ 0.322424 0.253518 0.549915 -0.08735
C_ C_ 0.334435 0.267327 0.577585 0.1947
N_ N_ 0.136193 0.163525 0.976181 -0.29468
N_ N_ 0.145679 0.207699 0.580698 -0.17154
N_ N_ 0.13079 0.171178 0.729142 -0.17154
N_ N_ 0.140746 0.201243 0.833635 -0.29468
N_ N_ 0.363458 0.334759 0.726131 -0.29468
N_ N_ 0.358539 0.291978 0.828528 -0.17154
N_ N_ 0.38687 0.322172 0.978204 -0.17154
N_ N_ 0.363979 0.307953 0.58244 -0.29468
O_ O_ 0.217476 0.175128 0.931921 -0.58347
O_ O_ 0.208782 0.203209 0.886977 -0.58347
O_ O_ 0.1493 0.252423 0.930405 -0.58347
O_ O_ 0.11931 0.256288 0.887504 -0.58347
O_ O_ 0.146591 0.0966924 0.927822 -0.58347
O_ O_ 0.146434 0.110213 0.881053 -0.58347
O_ O_ 0.0692921 0.174031 0.925848 -0.58347
O_ O_ 0.0608606 0.165487 0.879699 -0.58347
O_ O_ 0.0612094 0.226663 0.578975 -0.46727
O_ O_ 0.2302 0.184735 0.580831 -0.46727
O_ O_ 0.0505994 0.212496 0.72821 -0.46727
O_ O_ 0.212516 0.137545 0.730843 -0.46727
O_ O_ 0.287817 0.320764 0.677063 -0.58347
O_ O_ 0.294564 0.310028 0.630107 -0.58347
O_ O_ 0.369269 0.254686 0.67852 -0.58347
O_ O_ 0.381257 0.245503 0.632384 -0.58347
O_ O_ 0.35449 0.403415 0.673109 -0.58347
O_ O_ 0.354489 0.396203 0.627298 -0.58347
O_ O_ 0.435029 0.338375 0.675984 -0.58347
O_ O_ 0.442864 0.326115 0.630388 -0.58347
O_ O_ 0.434051 0.249864 0.829371 -0.46727
O_ O_ 0.278461 0.327884 0.830563 -0.46727
O_ O_ 0.46539 0.285666 0.975771 -0.46727
O_ O_ 0.301291 0.338244 0.982169 -0.46727
Zn Zn 0.12509 0.68929 0.380513 0.90689
Zn Zn 0.136895 0.688149 0.429607 0.90689
Zn Zn 0.377257 0.807616 0.134699 0.90689
Zn Zn 0.369588 0.813535 0.181891 0.90689
H_ H_ 0.306289 0.699497 0.442211 0.11455
H_ H_ 0.371875 0.661364 0.344068 0.11455
H_ H_ 0.278166 0.673842 0.351711 0.11455
H_ H_ 0.385947 0.694421 0.461493 0.11455
H_ H_ 0.478462 0.682237 0.454551 0.11455
H_ H_ 0.457448 0.655987 0.366572 0.11455
H_ H_ 0.149997 0.520567 0.442689 0.11455
H_ H_ 0.124898 0.939179 0.344142 0.11455
H_ H_ 0.143286 0.532759 0.350349 0.11455
H_ H_ 0.152383 0.931346 0.462119 0.11455
H_ H_ 0.138246 0.841964 0.458585 0.11455
H_ H_ 0.114094 0.857167 0.367512 0.11455
H_ H_ 0.0910576 0.617536 0.466924 0.11455
H_ H_ 0.0520982 0.583267 0.013004 0.11455
H_ H_ 0.0947552 0.623203 0.053082 0.11455
H_ H_ 0.19826 0.762986 0.470746 0.11455
H_ H_ 0.240898 0.780311 0.0145027 0.11455
H_ H_ 0.213964 0.758355 0.0631476 0.11455
H_ H_ 0.0222266 0.712756 0.123511 0.11455
H_ H_ 0.0123842 0.701926 0.176866 0.11455
H_ H_ 0.265431 0.640259 0.138395 0.11455
H_ H_ 0.256294 0.647738 0.19038 0.11455
H_ H_ 0.0823176 0.579078 0.251743 0.11455
H_ H_ 0.0404739 0.570276 0.297887 0.11455
H_ H_ 0.067338 0.630189 0.337654 0.11455
H_ H_ 0.162 0.737569 0.252509 0.11455
H_ H_ 0.191303 0.794021 0.293834 0.11455
H_ H_ 0.180286 0.765952 0.34242 0.11455
H_ H_ 0.206988 0.812043 0.195671 0.11455
H_ H_ 0.130896 0.840879 0.100522 0.11455
H_ H_ 0.221541 0.832637 0.10707 0.11455
H_ H_ 0.118356 0.816886 0.217802 0.11455
H_ H_ 0.021498 0.82283 0.211076 0.11455
H_ H_ 0.0432238 0.835421 0.120987 0.11455
H_ H_ 0.388082 0.981274 0.193099 0.11455
H_ H_ 0.361387 0.559306 0.0977416 0.11455
H_ H_ 0.330219 0.9645 0.108002 0.11455
H_ H_ 0.344033 0.563726 0.216428 0.11455
H_ H_ 0.349354 0.655372 0.211913 0.11455
H_ H_ 0.388172 0.641249 0.123805 0.11455
H_ H_ 0.429224 0.878772 0.214965 0.11455
H_ H_ 0.433283 0.923972 0.265389 0.11455
H_ H_ 0.392735 0.879555 0.30358 0.11455
H_ H_ 0.30996 0.746966 0.226406 0.11455
H_ H_ 0.29623 0.692189 0.26612 0.11455
H_ H_ 0.317438 0.715143 0.313794 0.11455
H_ H_ 0.49956 0.802828 0.371001 0.11455
H_ H_ 0.508578 0.805642 0.424009 0.11455
H_ H_ 0.245307 0.818687 0.390732 0.11455
H_ H_ 0.259796 0.831049 0.441658 0.11455
H_ H_ 0.444333 0.912622 0.497352 0.11455
H_ H_ 0.447035 0.929668 0.0529636 0.11455
H_ H_ 0.423759 0.881967 0.0913061 0.11455
H_ H_ 0.351526 0.746032 0.0107703 0.11455
H_ H_ 0.313915 0.702438 0.0507409 0.11455
H_ H_ 0.332936 0.729618 0.100152 0.11455
C_ C_ 0.228962 0.693317 0.402851 0.68181
C_ C_ 0.283429 0.685497 0.398559 -0.05681
C_ C_ 0.3174 0.689749 0.42082 -0.08735
C_ C_ 0.369887 0.682354 0.417007 -0.05681
C_ C_ 0.38754 0.6684 0.390066 -0.05681
C_ C_ 0.354736 0.668257 0.365792 -0.08735
C_ C_ 0.30217 0.673421 0.37034 -0.08735
C_ C_ 0.401242 0.682674 0.441016 -0.08735
C_ C_ 0.45331 0.674157 0.437546 -0.08735
C_ C_ 0.473302 0.661273 0.41033 -0.05681
C_ C_ 0.439799 0.657708 0.387577 -0.08735
C_ C_ 0.128976 0.785847 0.410813 0.68181
C_ C_ 0.142154 0.590256 0.399937 0.68181
C_ C_ 0.141451 0.534084 0.398045 -0.05681
C_ C_ 0.135884 1.0019202 0.419371 -0.08735
C_ C_ 0.134427 0.947912 0.416969 -0.05681
C_ C_ 0.128483 0.925776 0.390387 -0.05681
C_ C_ 0.127994 0.954993 0.365164 -0.08735
C_ C_ 0.133012 1.00842948 0.367393 -0.08735
C_ C_ 0.142505 0.916529 0.440931 -0.08735
C_ C_ 0.136746 0.863738 0.438777 -0.08735
C_ C_ 0.12231 0.841339 0.412695 -0.05681
C_ C_ 0.122193 0.872927 0.388508 -0.08735
C_ C_ 0.0335504 0.686202 0.407592 0.68181
C_ C_ 0.109537 0.636612 0.483891 0.1947
C_ C_ 0.0840604 0.60869 0.008244 -0.08735
C_ C_ 0.107072 0.634492 0.0311778 -0.08735
C_ C_ 0.144329 0.671784 0.0272622 -0.05681
C_ C_ 0.154982 0.687361 0.999019 0.18498
C_ C_ 0.183607 0.753106 0.492788 -0.08735
C_ C_ 0.2119 0.752283 0.0175712 -0.08735
C_ C_ 0.202248 0.736081 0.0453763 -0.08735
C_ C_ 0.16621 0.698307 0.0509882 0.18498
C_ C_ 0.19683 0.668533 0.0988885 0.44287
C_ C_ 0.109702 0.696266 0.093965 0.44287
C_ C_ 0.100377 0.688484 0.123836 -0.05681
C_ C_ 0.0559585 0.703014 0.135689 -0.08735
C_ C_ 0.0489588 0.695828 0.166593 -0.08735
C_ C_ 0.0881592 0.680033 0.18416 -0.05681
C_ C_ 0.134969 0.670915 0.17145 -0.05681
C_ C_ 0.14095 0.667954 0.14071 -0.05681
C_ C_ 0.186675 0.656018 0.127807 -0.05681
C_ C_ 0.227516 0.644474 0.146458 -0.08735
C_ C_ 0.223034 0.648362 0.1761 -0.08735
C_ C_ 0.175278 0.656805 0.188634 -0.05681
C_ C_ 0.169118 0.64916 0.218389 0.44287
C_ C_ 0.0842553 0.679699 0.213855 0.44287
C_ C_ 0.116729 0.648809 0.260972 0.18498
C_ C_ 0.0880195 0.606878 0.267491 -0.08735
C_ C_ 0.0658782 0.601524 0.29498 -0.08735
C_ C_ 0.0772524 0.637959 0.316142 -0.08735
C_ C_ 0.114235 0.676568 0.311091 0.18498
C_ C_ 0.131751 0.681834 0.282857 -0.05681
C_ C_ 0.156934 0.726986 0.275411 -0.08735
C_ C_ 0.169035 0.760721 0.297849 -0.08735
C_ C_ 0.16019 0.747047 0.325873 0.1947
C_ C_ 0.275539 0.81564 0.156099 0.68181
C_ C_ 0.219152 0.816902 0.152901 -0.05681
C_ C_ 0.188724 0.81813 0.177101 -0.08735
C_ C_ 0.135847 0.821072 0.17368 -0.05681
C_ C_ 0.11459 0.829113 0.145209 -0.05681
C_ C_ 0.146921 0.827512 0.121304 -0.08735
C_ C_ 0.198331 0.825004 0.12541 -0.08735
C_ C_ 0.101428 0.820615 0.196788 -0.08735
C_ C_ 0.0480817 0.817956 0.193013 -0.08735
C_ C_ 0.0303855 0.818834 0.164319 -0.05681
C_ C_ 0.0606277 0.828521 0.140929 -0.08735
C_ C_ 0.368947 0.711312 0.165054 0.68181
C_ C_ 0.373839 0.911866 0.152214 0.68181
C_ C_ 0.366313 0.96812 0.149159 -0.05681
C_ C_ 0.358659 0.497006 0.172907 -0.08735
C_ C_ 0.354284 0.550526 0.170897 -0.05681
C_ C_ 0.358892 0.574629 0.143215 -0.05681
C_ C_ 0.353426 0.546235 0.118304 -0.08735
C_ C_ 0.340101 -0.011382000000000003 0.12591 -0.08735
C_ C_ 0.351011 0.580451 0.195809 -0.08735
C_ C_ 0.36132 0.632545 0.193486 -0.08735
C_ C_ 0.373333 0.656939 0.16732 -0.05681
C_ C_ 0.369383 0.627099 0.142286 -0.08735
C_ C_ 0.470513 0.809554 0.157102 0.68181
C_ C_ 0.406017 0.86783 0.231442 0.1947
C_ C_ 0.4137 0.888313 0.259436 -0.08735
C_ C_ 0.385339 0.86624 0.281858 -0.08735
C_ C_ 0.363926 0.818684 0.278866 -0.05681
C_ C_ 0.353974 0.802786 0.250632 0.18498
C_ C_ 0.322124 0.759209 0.247295 -0.08735
C_ C_ 0.30985 0.729265 0.269942 -0.08735
C_ C_ 0.328472 0.739658 0.297296 -0.08735
C_ C_ 0.351998 0.787092 0.302273 0.18498
C_ C_ 0.320301 0.80745 0.349712 0.44287
C_ C_ 0.410227 0.798082 0.34311 0.44287
C_ C_ 0.417202 0.805133 0.373199 -0.05681
C_ C_ 0.467205 0.808806 0.385189 -0.08735
C_ C_ 0.472002 0.812549 0.41465 -0.08735
C_ C_ 0.431467 0.817367 0.433186 -0.05681
C_ C_ 0.382239 0.816215 0.421181 -0.05681
C_ C_ 0.375743 0.811484 0.39059 -0.05681
C_ C_ 0.327488 0.812484 0.379113 -0.05681
C_ C_ 0.28576 0.82107 0.397467 -0.08735
C_ C_ 0.292009 0.827315 0.427562 -0.08735
C_ C_ 0.34056 0.824115 0.438941 -0.05681
C_ C_ 0.349617 0.833177 0.468467 0.44287
C_ C_ 0.437757 0.820257 0.463471 0.44287
C_ C_ 0.398148 0.835151 0.012253 0.18498
C_ C_ 0.419748 0.883023 0.0179835 -0.08735
C_ C_ 0.424408 0.898404 0.0461549 -0.08735
C_ C_ 0.416405 0.866858 0.0695363 -0.08735
C_ C_ 0.397028 0.817569 0.0652909 0.18498
C_ C_ 0.382956 0.803524 0.0367547 -0.05681
C_ C_ 0.360602 0.757929 0.0318664 -0.08735
C_ C_ 0.339049 0.73245 0.0549017 -0.08735
C_ C_ 0.353671 0.747574 0.0824627 0.1947
N_ N_ 0.135916 0.678719 0.478567 -0.29468
N_ N_ 0.157377 0.685678 0.0815679 -0.17154
N_ N_ 0.123699 0.664542 0.230969 -0.17154
N_ N_ 0.137649 0.702434 0.333142 -0.29468
N_ N_ 0.373151 0.828992 0.227852 -0.29468
N_ N_ 0.361878 0.80327 0.331403 -0.17154
N_ N_ 0.397241 0.830816 0.480348 -0.17154
N_ N_ 0.383975 0.787456 0.0879233 -0.29468
O_ O_ 0.211658 0.694315 0.428692 -0.58347
O_ O_ 0.201456 0.691836 0.380801 -0.58347
O_ O_ 0.131174 0.759555 0.434213 -0.58347
O_ O_ 0.123166 0.762758 0.387148 -0.58347
O_ O_ 0.14604 0.613403 0.42396 -0.58347
O_ O_ 0.128688 0.612475 0.376125 -0.58347
O_ O_ 0.0628359 0.683644 0.429155 -0.58347
O_ O_ 0.052037 0.689907 0.382423 -0.58347
O_ O_ 0.0797771 0.726183 0.0798757 -0.46727
O_ O_ 0.239943 0.657796 0.0872687 -0.46727
O_ O_ 0.0462658 0.701978 0.226797 -0.46727
O_ O_ 0.207691 0.639088 0.235604 -0.46727
O_ O_ 0.297346 0.822007 0.180366 -0.58347
O_ O_ 0.301277 0.799183 0.135083 -0.58347
O_ O_ 0.364189 0.737515 0.188144 -0.58347
O_ O_ 0.384183 0.732601 0.141446 -0.58347
O_ O_ 0.370504 0.892315 0.175895 -0.58347
O_ O_ 0.371236 0.883618 0.130871 -0.58347
O_ O_ 0.443938 0.809232 0.179925 -0.58347
O_ O_ 0.452238 0.81814 0.132738 -0.58347
O_ O_ 0.449857 0.787104 0.326171 -0.46727
O_ O_ 0.272895 0.801523 0.339898 -0.46727
O_ O_ 0.483501 0.819287 0.475899 -0.46727
O_ O_ 0.314187 0.856531 0.48357 -0.46727
Zn Zn 0.136307 0.680063 0.881824 0.90689
Zn Zn 0.145031 0.681943 0.929058 0.90689
Zn Zn 0.381776 0.822192 0.632846 0.90689
Zn Zn 0.371449 0.82303 0.680888 0.90689
H_ H_ 0.313728 0.704735 0.943196 0.11455
H_ H_ 0.380196 0.655917 0.847435 0.11455
H_ H_ 0.2848 0.665206 0.856219 0.11455
H_ H_ 0.398504 0.698603 0.963332 0.11455
H_ H_ 0.49064 0.692806 0.955396 0.11455
H_ H_ 0.466948 0.655972 0.868724 0.11455
H_ H_ 0.161483 0.506573 0.939382 0.11455
H_ H_ 0.190123 0.931122 0.856018 0.11455
H_ H_ 0.119024 0.525927 0.85044 0.11455
H_ H_ 0.0652413 0.922184 0.951835 0.11455
H_ H_ 0.085377 0.835472 0.955743 0.11455
H_ H_ 0.154993 0.844873 0.870812 0.11455
H_ H_ 0.0817395 0.603769 0.962057 0.11455
H_ H_ 0.0928581 0.578413 0.51641 0.11455
H_ H_ 0.131687 0.629049 0.5551 0.11455
H_ H_ 0.201047 0.73824 0.974256 0.11455
H_ H_ 0.219233 0.821647 0.508729 0.11455
H_ H_ 0.21066 0.792997 0.558745 0.11455
H_ H_ 1.0241435 0.732109 0.620108 0.11455
H_ H_ 1.0103408 0.719778 0.667917 0.11455
H_ H_ 0.272022 0.691386 0.636808 0.11455
H_ H_ 0.261559 0.668523 0.686049 0.11455
H_ H_ 0.0720324 0.595757 0.743193 0.11455
H_ H_ 0.0639732 0.563096 0.791817 0.11455
H_ H_ 0.0874978 0.608822 0.833397 0.11455
H_ H_ 0.154462 0.760619 0.757656 0.11455
H_ H_ 0.188847 0.804368 0.800676 0.11455
H_ H_ 0.181961 0.763338 0.846722 0.11455
H_ H_ 0.20242 0.832017 0.692878 0.11455
H_ H_ 0.132461 0.855493 0.597777 0.11455
H_ H_ 0.229453 0.847103 0.604124 0.11455
H_ H_ 0.118473 0.830483 0.714816 0.11455
H_ H_ 0.027733 0.831892 0.706423 0.11455
H_ H_ 0.0477106 0.847335 0.614588 0.11455
H_ H_ 0.380494 1.00099 0.696379 0.11455
H_ H_ 0.337993 0.571026 0.599607 0.11455
H_ H_ 0.356012 0.97396 0.605982 0.11455
H_ H_ 0.391171 0.576682 0.714116 0.11455
H_ H_ 0.385732 0.669647 0.710452 0.11455
H_ H_ 0.35718 0.657013 0.619645 0.11455
H_ H_ 0.43125 0.889896 0.71763 0.11455
H_ H_ 0.458181 0.903375 0.764017 0.11455
H_ H_ 0.417063 0.864561 0.804554 0.11455
H_ H_ 0.30933 0.756438 0.724777 0.11455
H_ H_ 0.284587 0.698133 0.765064 0.11455
H_ H_ 0.316387 0.715209 0.81383 0.11455
H_ H_ 0.495238 0.783359 0.875662 0.11455
H_ H_ 0.504367 0.78453 0.929109 0.11455
H_ H_ 0.251598 0.841899 0.887997 0.11455
H_ H_ 0.253656 0.833978 0.94063 0.11455
H_ H_ 0.425239 0.908566 1.000384415 0.11455
H_ H_ 0.470553 0.94038 0.547459 0.11455
H_ H_ 0.436605 0.892698 0.590586 0.11455
H_ H_ 0.36344 0.756482 0.508981 0.11455
H_ H_ 0.324147 0.711783 0.549153 0.11455
H_ H_ 0.337114 0.744051 0.598622 0.11455
C_ C_ 0.237359 0.682881 0.906909 0.68181
C_ C_ 0.293113 0.681297 0.900843 -0.05681
C_ C_ 0.328117 0.689812 0.922795 -0.08735
C_ C_ 0.379208 0.680181 0.919079 -0.05681
C_ C_ 0.398353 0.666449 0.891792 -0.05681
C_ C_ 0.364388 0.666171 0.867749 -0.08735
C_ C_ 0.312589 0.673635 0.872715 -0.08735
C_ C_ 0.414175 0.687032 0.94254 -0.08735
C_ C_ 0.464021 0.676184 0.93899 -0.08735
C_ C_ 0.483888 0.666811 0.912408 -0.05681
C_ C_ 0.450205 0.655537 0.888831 -0.08735
C_ C_ 0.13267 0.779443 0.914447 0.68181
C_ C_ 0.147431 0.581107 0.896038 0.68181
C_ C_ 0.142279 0.524999 0.894514 -0.05681
C_ C_ 0.112309 0.993759 0.917429 -0.08735
C_ C_ 0.11396 0.93967 0.916105 -0.05681
C_ C_ 0.140964 0.916788 0.892927 -0.05681
C_ C_ 0.167793 0.94681 0.873476 -0.08735
C_ C_ 0.165791 9.2549e-05 0.876829 -0.08735
C_ C_ 0.0896612 0.908384 0.936041 -0.08735
C_ C_ 0.0961842 0.856736 0.936143 -0.08735
C_ C_ 0.122612 0.833672 0.913083 -0.05681
C_ C_ 0.140776 0.863407 0.88981 -0.08735
C_ C_ 0.0432842 0.663763 0.906078 0.68181
C_ C_ 0.0991037 0.622146 0.980586 0.1947
C_ C_ 0.106821 0.61851 0.511563 -0.08735
C_ C_ 0.129998 0.647142 0.533722 -0.08735
C_ C_ 0.14984 0.695637 0.528872 -0.05681
C_ C_ 0.157196 0.707846 0.49995 0.18498
C_ C_ 0.19027 0.725372 0.994711 -0.08735
C_ C_ 0.205493 0.781538 0.513807 -0.08735
C_ C_ 0.197362 0.769485 0.542773 -0.08735
C_ C_ 0.170315 0.725093 0.550828 0.18498
C_ C_ 0.199809 0.696554 0.59707 0.44287
C_ C_ 0.114009 0.72364 0.590183 0.44287
C_ C_ 0.103907 0.71661 0.619882 -0.05681
C_ C_ 0.0571111 0.721775 0.631642 -0.08735
C_ C_ 0.0488153 0.716517 0.660392 -0.08735
C_ C_ 0.0886934 0.705723 0.679677 -0.05681
C_ C_ 0.136058 0.696262 0.667008 -0.05681
C_ C_ 0.143131 0.699855 0.637614 -0.05681
C_ C_ 0.193919 0.696517 0.626612 -0.05681
C_ C_ 0.233494 0.685671 0.645541 -0.08735
C_ C_ 0.228412 0.683282 0.675264 -0.08735
C_ C_ 0.176741 0.684219 0.685751 -0.05681
C_ C_ 0.166201 0.676476 0.716047 0.44287
C_ C_ 0.0797062 0.696431 0.709143 0.44287
C_ C_ 0.106427 0.669771 0.755904 0.18498
C_ C_ 0.0819323 0.621007 0.760377 -0.08735
C_ C_ 0.0803328 0.600745 0.787836 -0.08735
C_ C_ 0.089278 0.630032 0.812675 -0.08735
C_ C_ 0.112545 0.678725 0.809497 0.18498
C_ C_ 0.120605 0.699796 0.780996 -0.05681
C_ C_ 0.146518 0.744805 0.777981 -0.08735
C_ C_ 0.166615 0.769368 0.802297 -0.08735
C_ C_ 0.161621 0.746622 0.828807 0.1947
C_ C_ 0.276599 0.824433 0.656243 0.68181
C_ C_ 0.221291 0.82866 0.649407 -0.05681
C_ C_ 0.187062 0.830501 0.672751 -0.08735
C_ C_ 0.134677 0.839832 0.669445 -0.05681
C_ C_ 0.114349 0.840621 0.640947 -0.05681
C_ C_ 0.148011 0.841782 0.618146 -0.08735
C_ C_ 0.202193 0.838354 0.622206 -0.08735
C_ C_ 0.101666 0.832496 0.693329 -0.08735
C_ C_ 0.051445 0.832823 0.687845 -0.08735
C_ C_ 0.0299719 0.836053 0.660238 -0.05681
C_ C_ 0.0618602 0.842157 0.636732 -0.08735
C_ C_ 0.375464 0.724532 0.661159 0.68181
C_ C_ 0.373044 0.9228 0.654189 0.68181
C_ C_ 0.372169 0.979987 0.651099 -0.05681
C_ C_ 0.371148 0.507954 0.670501 -0.08735
C_ C_ 0.37431 0.560834 0.667849 -0.05681
C_ C_ 0.361231 0.584244 0.641966 -0.05681
C_ C_ 0.352168 0.552934 0.618534 -0.08735
C_ C_ 0.367038 0.999498365 0.623552 -0.08735
C_ C_ 0.383224 0.591448 0.693071 -0.08735
C_ C_ 0.382451 0.644457 0.691272 -0.08735
C_ C_ 0.373929 0.668545 0.664151 -0.05681
C_ C_ 0.364922 0.637761 0.639447 -0.08735
C_ C_ 0.474 0.821843 0.657896 0.68181
C_ C_ 0.410574 0.8688 0.734139 0.1947
C_ C_ 0.424646 0.88044 0.762091 -0.08735
C_ C_ 0.402739 0.856169 0.78494 -0.08735
C_ C_ 0.369732 0.815488 0.77956 -0.05681
C_ C_ 0.355584 0.803508 0.750602 0.18498
C_ C_ 0.321524 0.763087 0.746198 -0.08735
C_ C_ 0.308653 0.72985 0.768269 -0.08735
C_ C_ 0.323044 0.739859 0.796022 -0.08735
C_ C_ 0.353591 0.782216 0.802913 0.18498
C_ C_ 0.320068 0.808027 0.84961 0.44287
C_ C_ 0.406283 0.788682 0.845793 0.44287
C_ C_ 0.413534 0.795198 0.875603 -0.05681
C_ C_ 0.460645 0.785353 0.888409 -0.08735
C_ C_ 0.467575 0.792223 0.918364 -0.08735
C_ C_ 0.425476 0.804737 0.935467 -0.05681
C_ C_ 0.37574 0.808898 0.923843 -0.05681
C_ C_ 0.371608 0.808024 0.892789 -0.05681
C_ C_ 0.324572 0.815609 0.879503 -0.05681
C_ C_ 0.283877 0.829284 0.897963 -0.08735
C_ C_ 0.2879 0.828221 0.927654 -0.08735
C_ C_ 0.334279 0.818779 0.940835 -0.05681
C_ C_ 0.341095 0.825806 0.970554 0.44287
C_ C_ 0.429252 0.807039 0.965195 0.44287
C_ C_ 0.404633 0.84886 0.509529 0.18498
C_ C_ 0.428992 0.894081 0.515378 -0.08735
C_ C_ 0.441085 0.909203 0.543812 -0.08735
C_ C_ 0.426828 0.879307 0.567793 -0.08735
C_ C_ 0.392822 0.838853 0.561945 0.18498
C_ C_ 0.388084 0.820865 0.532764 -0.05681
C_ C_ 0.361747 0.775397 0.529494 -0.08735
C_ C_ 0.343892 0.746913 0.553362 -0.08735
C_ C_ 0.351989 0.765234 0.580542 0.1947
N_ N_ 0.133329 0.659969 0.976246 -0.29468
N_ N_ 0.160888 0.713927 0.580394 -0.17154
N_ N_ 0.119347 0.68525 0.727212 -0.17154
N_ N_ 0.131809 0.703664 0.832312 -0.29468
N_ N_ 0.376904 0.830061 0.728052 -0.29468
N_ N_ 0.359855 0.795232 0.833444 -0.17154
N_ N_ 0.389723 0.820122 0.982417 -0.17154
N_ N_ 0.377291 0.809139 0.584499 -0.29468
O_ O_ 0.219256 0.678254 0.932458 -0.58347
O_ O_ 0.208677 0.694316 0.88569 -0.58347
O_ O_ 0.137869 0.758016 0.938728 -0.58347
O_ O_ 0.120587 0.752373 0.892519 -0.58347
O_ O_ 0.144855 0.602143 0.92023 -0.58347
O_ O_ 0.151567 0.607958 0.873161 -0.58347
O_ O_ 0.0693057 0.678771 0.927211 -0.58347
O_ O_ 0.0679546 0.659992 0.881609 -0.58347
O_ O_ 0.0755154 0.733705 0.573328 -0.46727
O_ O_ 0.245951 0.693525 0.585478 -0.46727
O_ O_ 0.0369085 0.706205 0.720724 -0.46727
O_ O_ 0.20285 0.670691 0.733356 -0.46727
O_ O_ 0.296241 0.832879 0.681365 -0.58347
O_ O_ 0.305361 0.80668 0.636667 -0.58347
O_ O_ 0.364889 0.750918 0.683322 -0.58347
O_ O_ 0.393611 0.742861 0.63786 -0.58347
O_ O_ 0.374656 0.899647 0.678896 -0.58347
O_ O_ 0.371813 0.895302 0.632013 -0.58347
O_ O_ 0.446819 0.813846 0.679501 -0.58347
O_ O_ 0.45409 0.832992 0.634913 -0.58347
O_ O_ 0.445736 0.777354 0.829679 -0.46727
O_ O_ 0.275776 0.819476 0.835725 -0.46727
O_ O_ 0.47353 0.802748 0.977066 -0.46727
O_ O_ 0.302888 0.83306 0.987799 -0.46727
Zn Zn 0.611068 0.177766 0.38354 0.90689
Zn Zn 0.621008 0.175414 0.431255 0.90689
Zn Zn 0.863658 0.314067 0.133991 0.90689
Zn Zn 0.850568 0.311456 0.182686 0.90689
H_ H_ 0.789275 0.208206 0.440858 0.11455
H_ H_ 0.859839 0.189447 0.342927 0.11455
H_ H_ 0.766488 0.169413 0.353508 0.11455
H_ H_ 0.879394 0.206446 0.462938 0.11455
H_ H_ 0.9696 0.217445 0.453692 0.11455
H_ H_ 0.944787 0.186763 0.364119 0.11455
H_ H_ 0.62519 0.00777122 0.443734 0.11455
H_ H_ 0.641715 0.42517 0.352408 0.11455
H_ H_ 0.66095 0.0239749 0.35342 0.11455
H_ H_ 0.594532 0.427273 0.467637 0.11455
H_ H_ 0.581547 0.336375 0.463775 0.11455
H_ H_ 0.620161 0.345946 0.374195 0.11455
H_ H_ 0.565259 0.112013 0.47278 0.11455
H_ H_ 0.571285 0.0637419 0.00957782 0.11455
H_ H_ 0.609326 0.09828 0.0508454 0.11455
H_ H_ 0.672905 0.25063 0.471288 0.11455
H_ H_ 0.706317 0.29674 0.0198442 0.11455
H_ H_ 0.680843 0.272275 0.0638697 0.11455
H_ H_ 0.501086 0.193019 0.119915 0.11455
H_ H_ 0.48677 0.196293 0.172036 0.11455
H_ H_ 0.753188 0.15906 0.141845 0.11455
H_ H_ 0.737136 0.145261 0.19162 0.11455
H_ H_ 0.547776 0.0750995 0.251616 0.11455
H_ H_ 0.52851 0.0554155 0.301035 0.11455
H_ H_ 0.559275 0.105305 0.339584 0.11455
H_ H_ 0.629524 0.245264 0.259245 0.11455
H_ H_ 0.67157 0.284286 0.298603 0.11455
H_ H_ 0.661364 0.255007 0.34514 0.11455
H_ H_ 0.686773 0.290794 0.198882 0.11455
H_ H_ 0.617788 0.331246 0.10308 0.11455
H_ H_ 0.706386 0.317424 0.108442 0.11455
H_ H_ 0.595328 0.302363 0.217409 0.11455
H_ H_ 0.50618 0.313937 0.209386 0.11455
H_ H_ 0.533396 0.323872 0.119082 0.11455
H_ H_ 0.862441 0.4814 0.199335 0.11455
H_ H_ 0.877094 0.0610708 0.0955317 0.11455
H_ H_ 0.850079 0.467687 0.10928 0.11455
H_ H_ 0.898166 0.0697295 0.215922 0.11455
H_ H_ 0.896332 0.157467 0.211451 0.11455
H_ H_ 0.875027 0.14679 0.120536 0.11455
H_ H_ 0.896414 0.398271 0.216367 0.11455
H_ H_ 0.901107 0.435132 0.264354 0.11455
H_ H_ 0.883966 0.379033 0.3043 0.11455
H_ H_ 0.810737 0.239479 0.225832 0.11455
H_ H_ 0.774526 0.196941 0.26827 0.11455
H_ H_ 0.767258 0.235283 0.315039 0.11455
H_ H_ 0.97466 0.311119 0.370028 0.11455
H_ H_ -0.010514000000000023 0.325911 0.421176 0.11455
H_ H_ 0.724231 0.347799 0.39296 0.11455
H_ H_ 0.743545 0.360704 0.444269 0.11455
H_ H_ 0.940376 0.422619 0.500551 0.11455
H_ H_ 0.952873 0.433008 0.0498085 0.11455
H_ H_ 0.915421 0.390025 0.0889985 0.11455
H_ H_ 0.823911 0.267011 0.00821349 0.11455
H_ H_ 0.799028 0.212953 0.0494203 0.11455
H_ H_ 0.810704 0.242616 0.0988906 0.11455
C_ C_ 0.714416 0.183469 0.403725 0.68181
C_ C_ 0.771213 0.191307 0.397888 -0.05681
C_ C_ 0.805125 0.198919 0.421075 -0.08735
C_ C_ 0.857436 0.19735 0.416204 -0.05681
C_ C_ 0.876827 0.187862 0.389361 -0.05681
C_ C_ 0.844347 0.185697 0.365454 -0.08735
C_ C_ 0.791729 0.183987 0.369796 -0.08735
C_ C_ 0.891897 0.203883 0.440511 -0.08735
C_ C_ 0.942446 0.208758 0.43564 -0.08735
C_ C_ 0.963888 0.197743 0.408762 -0.05681
C_ C_ 0.929177 0.187529 0.385727 -0.08735
C_ C_ 0.605023 0.274072 0.416081 0.68181
C_ C_ 0.632402 0.0801527 0.401267 0.68181
C_ C_ 0.639376 0.0245488 0.398294 -0.05681
C_ C_ 0.616139 0.492387 0.425214 -0.08735
C_ C_ 0.619456 0.438063 0.424237 -0.05681
C_ C_ 0.627243 0.413795 0.397735 -0.05681
C_ C_ 0.638604 0.444305 0.373142 -0.08735
C_ C_ 0.639017 0.496439 0.374741 -0.08735
C_ C_ 0.60399 0.409231 0.44826 -0.08735
C_ C_ 0.600572 0.357302 0.446063 -0.08735
C_ C_ 0.608584 0.331573 0.419363 -0.05681
C_ C_ 0.62041 0.361293 0.395465 -0.08735
C_ C_ 0.518447 0.165724 0.408734 0.68181
C_ C_ 0.586278 0.133148 0.488631 0.1947
C_ C_ 0.595154 0.0957731 0.00703313 -0.08735
C_ C_ 0.617822 0.118682 0.02965 -0.08735
C_ C_ 0.640224 0.165584 0.0280022 -0.05681
C_ C_ 0.65407 0.182504 0.999753323 0.18498
C_ C_ 0.673053 0.238663 0.493571 -0.08735
C_ C_ 0.683297 0.26234 0.0199658 -0.08735
C_ C_ 0.670637 0.246213 0.046618 -0.08735
C_ C_ 0.649303 0.197349 0.0519123 0.18498
C_ C_ 0.67797 0.170006 0.0991522 0.44287
C_ C_ 0.590969 0.188444 0.0930759 0.44287
C_ C_ 0.583045 0.185452 0.123583 -0.05681
C_ C_ 0.534591 0.195958 0.134404 -0.08735
C_ C_ 0.526199 0.192657 0.164711 -0.08735
C_ C_ 0.566318 0.17473 0.182753 -0.05681
C_ C_ 0.613679 0.167879 0.171073 -0.05681
C_ C_ 0.621951 0.170334 0.140675 -0.05681
C_ C_ 0.671668 0.167371 0.12988 -0.05681
C_ C_ 0.713705 0.156214 0.148727 -0.08735
C_ C_ 0.704208 0.152688 0.178224 -0.08735
C_ C_ 0.655513 0.159957 0.190012 -0.05681
C_ C_ 0.647051 0.151474 0.219387 0.44287
C_ C_ 0.56056 0.169301 0.212597 0.44287
C_ C_ 0.589541 0.146533 0.260594 0.18498
C_ C_ 0.561673 0.102352 0.267653 -0.08735
C_ C_ 0.551268 0.0888745 0.296393 -0.08735
C_ C_ 0.564871 0.119142 0.318351 -0.08735
C_ C_ 0.594549 0.162987 0.313265 0.18498
C_ C_ 0.60269 0.178211 0.284157 -0.05681
C_ C_ 0.627138 0.22617 0.279966 -0.08735
C_ C_ 0.648546 0.251815 0.300715 -0.08735
C_ C_ 0.641027 0.235915 0.329118 0.1947
C_ C_ 0.759004 0.300451 0.157647 0.68181
C_ C_ 0.702767 0.298575 0.152854 -0.05681
C_ C_ 0.669637 0.294734 0.176821 -0.08735
C_ C_ 0.615994 0.299922 0.172682 -0.05681
C_ C_ 0.598308 0.313025 0.145229 -0.05681
C_ C_ 0.632328 0.318263 0.122349 -0.08735
C_ C_ 0.683137 0.31231 0.126589 -0.08735
C_ C_ 0.582317 0.307069 0.195376 -0.08735
C_ C_ 0.529618 0.30951 0.190751 -0.08735
C_ C_ 0.511499 0.3165 0.162548 -0.05681
C_ C_ 0.547713 0.321195 0.139759 -0.08735
C_ C_ 0.877375 0.213877 0.162866 0.68181
C_ C_ 0.845781 0.412178 0.15601 0.68181
C_ C_ 0.850476 0.468629 0.155014 -0.05681
C_ C_ 0.889531 -0.003263000000000016 0.171251 -0.08735
C_ C_ 0.888102 0.0500159 0.170015 -0.05681
C_ C_ 0.882549 0.0732941 0.142522 -0.05681
C_ C_ 0.880109 0.0431523 0.117043 -0.08735
C_ C_ 0.855889 0.491526 0.127676 -0.08735
C_ C_ 0.889667 0.0824221 0.194341 -0.08735
C_ C_ 0.889135 0.134493 0.191269 -0.08735
C_ C_ 0.881408 0.157508 0.164698 -0.05681
C_ C_ 0.876038 0.12639 0.140868 -0.08735
C_ C_ 0.956194 0.32611 0.160941 0.68181
C_ C_ 0.879152 0.376869 0.233857 0.1947
C_ C_ 0.882283 0.396459 0.260763 -0.08735
C_ C_ 0.870294 0.365848 0.284425 -0.08735
C_ C_ 0.844763 0.321433 0.281101 -0.05681
C_ C_ 0.835827 0.30437 0.252086 0.18498
C_ C_ 0.813742 0.256649 0.247084 -0.08735
C_ C_ 0.792808 0.232387 0.270966 -0.08735
C_ C_ 0.79216 0.254693 0.298278 -0.08735
C_ C_ 0.823995 0.29492 0.304933 0.18498
C_ C_ 0.796589 0.324883 0.351709 0.44287
C_ C_ 0.882583 0.306847 0.345371 0.44287
C_ C_ 0.893837 0.322677 0.373087 -0.05681
C_ C_ 0.943759 0.323269 0.383293 -0.08735
C_ C_ 0.95308 0.331289 0.413145 -0.08735
C_ C_ 0.913801 0.339519 0.43215 -0.05681
C_ C_ 0.865056 0.342115 0.421678 -0.05681
C_ C_ 0.854184 0.334542 0.391827 -0.05681
C_ C_ 0.803824 0.33749 0.381158 -0.05681
C_ C_ 0.763815 0.350108 0.40016 -0.08735
C_ C_ 0.774238 0.354978 0.428941 -0.08735
C_ C_ 0.825906 0.351551 0.44042 -0.05681
C_ C_ 0.835915 0.352294 0.470892 0.44287
C_ C_ 0.920901 0.336074 0.46213 0.44287
C_ C_ 0.878283 0.350225 0.0110459 0.18498
C_ C_ 0.906077 0.395738 0.0175149 -0.08735
C_ C_ 0.925403 0.403405 0.0452436 -0.08735
C_ C_ 0.910184 0.37407 0.0685561 -0.08735
C_ C_ 0.878361 0.333396 0.0637995 0.18498
C_ C_ 0.865063 0.320208 0.0343551 -0.05681
C_ C_ 0.838022 0.274981 0.0289055 -0.08735
C_ C_ 0.816937 0.248536 0.0530123 -0.08735
C_ C_ 0.825849 0.267624 0.0813912 0.1947
N_ N_ 0.620233 0.169946 0.481312 -0.29468
N_ N_ 0.639053 0.180814 0.0815967 -0.17154
N_ N_ 0.599903 0.156997 0.23006 -0.17154
N_ N_ 0.61545 0.191993 0.334849 -0.29468
N_ N_ 0.854121 0.332632 0.229065 -0.29468
N_ N_ 0.835255 0.30965 0.33423 -0.17154
N_ N_ 0.883465 0.347966 0.480856 -0.17154
N_ N_ 0.85678 0.308513 0.086382 -0.29468
O_ O_ 0.696037 0.191779 0.42883 -0.58347
O_ O_ 0.686415 0.172463 0.383604 -0.58347
O_ O_ 0.603287 0.245754 0.436535 -0.58347
O_ O_ 0.610135 0.253925 0.391384 -0.58347
O_ O_ 0.643208 0.101236 0.424952 -0.58347
O_ O_ 0.614891 0.104086 0.379455 -0.58347
O_ O_ 0.549181 0.155939 0.42947 -0.58347
O_ O_ 0.535028 0.177437 0.384593 -0.58347
O_ O_ 0.551026 0.197987 0.0758207 -0.46727
O_ O_ 0.723345 0.166417 0.0881186 -0.46727
O_ O_ 0.515673 0.174233 0.224145 -0.46727
O_ O_ 0.686387 0.149168 0.236525 -0.46727
O_ O_ 0.775294 0.294959 0.182026 -0.58347
O_ O_ 0.787316 0.309511 0.136816 -0.58347
O_ O_ 0.871634 0.239818 0.186069 -0.58347
O_ O_ 0.870679 0.236872 0.13909 -0.58347
O_ O_ 0.835801 0.388247 0.178367 -0.58347
O_ O_ 0.861823 0.389188 0.134349 -0.58347
O_ O_ 0.924984 0.329366 0.181503 -0.58347
O_ O_ 0.938458 0.3196 0.136163 -0.58347
O_ O_ 0.919126 0.29055 0.329415 -0.46727
O_ O_ 0.74913 0.323274 0.340664 -0.46727
O_ O_ 0.962879 0.317081 0.471102 -0.46727
O_ O_ 0.799185 0.367064 0.488511 -0.46727
Zn Zn 0.634204 0.18083 0.882531 0.90689
Zn Zn 0.644847 0.173303 0.929352 0.90689
Zn Zn 0.875491 0.322965 0.632886 0.90689
Zn Zn 0.862847 0.332664 0.680657 0.90689
H_ H_ 0.815774 0.184355 0.943474 0.11455
H_ H_ 0.876856 0.162976 0.844182 0.11455
H_ H_ 0.782047 0.163667 0.852512 0.11455
H_ H_ 0.90324 0.187269 0.96002 0.11455
H_ H_ 0.990322 0.184408 0.95135 0.11455
H_ H_ 0.967307 0.167612 0.862169 0.11455
H_ H_ 0.665729 0.00684052 0.942467 0.11455
H_ H_ 0.648847 0.425222 0.851469 0.11455
H_ H_ 0.618073 0.0203657 0.854913 0.11455
H_ H_ 0.613534 0.420822 0.966917 0.11455
H_ H_ 0.632539 0.330795 0.961582 0.11455
H_ H_ 0.626438 0.346939 0.870064 0.11455
H_ H_ 0.586911 0.0966956 0.961095 0.11455
H_ H_ 0.553982 0.0889398 0.522371 0.11455
H_ H_ 0.604602 0.124927 0.560359 0.11455
H_ H_ 0.687039 0.243054 0.975191 0.11455
H_ H_ 0.717027 0.302832 0.509648 0.11455
H_ H_ 0.69794 0.283468 0.561314 0.11455
H_ H_ 0.515531 0.219674 0.625816 0.11455
H_ H_ 0.502414 0.210332 0.675986 0.11455
H_ H_ 0.762093 0.158385 0.636139 0.11455
H_ H_ 0.75347 0.157346 0.687273 0.11455
H_ H_ 0.56606 0.0873981 0.748977 0.11455
H_ H_ 0.545879 0.0622324 0.794667 0.11455
H_ H_ 0.583454 0.114614 0.838637 0.11455
H_ H_ 0.655284 0.24181 0.757469 0.11455
H_ H_ 0.688227 0.291775 0.797501 0.11455
H_ H_ 0.693001 0.251407 0.846795 0.11455
H_ H_ 0.697456 0.300672 0.690109 0.11455
H_ H_ 0.624164 0.341448 0.595085 0.11455
H_ H_ 0.716483 0.325609 0.602808 0.11455
H_ H_ 0.613657 0.318255 0.71194 0.11455
H_ H_ 0.518524 0.314124 0.704175 0.11455
H_ H_ 0.534617 0.319666 0.617372 0.11455
H_ H_ 0.853688 0.495249 0.691442 0.11455
H_ H_ 0.855635 0.0727533 0.599467 0.11455
H_ H_ 0.89355 0.480203 0.602066 0.11455
H_ H_ 0.87681 0.0778326 0.716852 0.11455
H_ H_ 0.885988 0.169907 0.713185 0.11455
H_ H_ 0.870311 0.159367 0.620795 0.11455
H_ H_ 0.900457 0.408171 0.71978 0.11455
H_ H_ 0.914217 0.434844 0.766822 0.11455
H_ H_ 0.882125 0.38543 0.808545 0.11455
H_ H_ 0.802403 0.256997 0.72467 0.11455
H_ H_ 0.775487 0.198413 0.762086 0.11455
H_ H_ 0.791184 0.225891 0.814518 0.11455
H_ H_ 0.969018 0.291837 0.87532 0.11455
H_ H_ -0.022942000000000018 0.30077 0.92677 0.11455
H_ H_ 0.729952 0.366236 0.88597 0.11455
H_ H_ 0.737551 0.369985 0.935518 0.11455
H_ H_ 0.927222 0.417885 1.0000714498 0.11455
H_ H_ 0.94498 0.448417 0.551847 0.11455
H_ H_ 0.935803 0.388826 0.590733 0.11455
H_ H_ 0.842597 0.270976 0.506517 0.11455
H_ H_ 0.808187 0.217535 0.546436 0.11455
H_ H_ 0.831761 0.242808 0.596748 0.11455
C_ C_ 0.737852 0.177939 0.903445 0.68181
C_ C_ 0.791585 0.170598 0.898594 -0.05681
C_ C_ 0.82649 0.177109 0.921471 -0.08735
C_ C_ 0.878479 0.176555 0.916365 -0.05681
C_ C_ 0.897154 0.167201 0.888709 -0.05681
C_ C_ 0.861634 0.162151 0.864872 -0.08735
C_ C_ 0.809387 0.168486 0.870109 -0.08735
C_ C_ 0.913243 0.184919 0.938683 -0.08735
C_ C_ 0.96502 0.18575 0.934009 -0.08735
C_ C_ 0.983403 0.175427 0.906873 -0.05681
C_ C_ 0.949922 0.172934 0.883248 -0.08735
C_ C_ 0.633161 0.277252 0.910819 0.68181
C_ C_ 0.644966 0.0762962 0.901637 0.68181
C_ C_ 0.63743 0.0209938 0.899502 -0.05681
C_ C_ 0.629626 0.489832 0.925426 -0.08735
C_ C_ 0.620247 0.437127 0.922582 -0.05681
C_ C_ 0.627738 0.41505 0.895257 -0.05681
C_ C_ 0.640144 0.444578 0.871375 -0.08735
C_ C_ 0.645424 0.495363 0.873595 -0.08735
C_ C_ 0.616891 0.405025 0.946213 -0.08735
C_ C_ 0.621034 0.35125 0.942565 -0.08735
C_ C_ 0.621327 0.330293 0.914306 -0.05681
C_ C_ 0.620784 0.363331 0.89152 -0.08735
C_ C_ 0.539916 0.170895 0.90778 0.68181
C_ C_ 0.602192 0.11719 0.979822 0.1947
C_ C_ 0.579484 0.115454 0.516784 -0.08735
C_ C_ 0.60484 0.141487 0.538293 -0.08735
C_ C_ 0.631655 0.186928 0.532457 -0.05681
C_ C_ 0.642429 0.197494 0.502347 0.18498
C_ C_ 0.676556 0.230408 0.997035 -0.08735
C_ C_ 0.69452 0.270014 0.515348 -0.08735
C_ C_ 0.690026 0.255881 0.54443 -0.08735
C_ C_ 0.655027 0.217714 0.553315 0.18498
C_ C_ 0.687946 0.188672 0.599143 0.44287
C_ C_ 0.599944 0.216087 0.595677 0.44287
C_ C_ 0.59379 0.20626 0.625206 -0.05681
C_ C_ 0.546875 0.206129 0.638645 -0.08735
C_ C_ 0.541132 0.206103 0.66734 -0.08735
C_ C_ 0.583447 0.1932 0.684539 -0.05681
C_ C_ 0.632942 0.189554 0.671963 -0.05681
C_ C_ 0.636302 0.190744 0.641762 -0.05681
C_ C_ 0.683218 0.183349 0.628391 -0.05681
C_ C_ 0.725337 0.169686 0.645086 -0.08735
C_ C_ 0.720476 0.162522 0.674959 -0.08735
C_ C_ 0.67259 0.171356 0.688915 -0.05681
C_ C_ 0.662506 0.158938 0.717825 0.44287
C_ C_ 0.576377 0.183598 0.713418 0.44287
C_ C_ 0.606716 0.155187 0.75997 0.18498
C_ C_ 0.578515 0.1126 0.765526 -0.08735
C_ C_ 0.571289 0.0960774 0.792998 -0.08735
C_ C_ 0.59322 0.122845 0.816297 -0.08735
C_ C_ 0.621724 0.165909 0.811479 0.18498
C_ C_ 0.625528 0.184845 0.783553 -0.05681
C_ C_ 0.651927 0.230129 0.778781 -0.08735
C_ C_ 0.670926 0.256889 0.802235 -0.08735
C_ C_ 0.668602 0.235849 0.829264 0.1947
C_ C_ 0.769411 0.326285 0.651716 0.68181
C_ C_ 0.713566 0.325289 0.648349 -0.05681
C_ C_ 0.680308 0.317093 0.6704 -0.08735
C_ C_ 0.627525 0.324172 0.667792 -0.05681
C_ C_ 0.605773 0.327898 0.639963 -0.05681
C_ C_ 0.639944 0.330056 0.616073 -0.08735
C_ C_ 0.693039 0.329976 0.62087 -0.08735
C_ C_ 0.595604 0.317226 0.690877 -0.08735
C_ C_ 0.54343 0.324668 0.686843 -0.08735
C_ C_ 0.520606 0.328937 0.659429 -0.05681
C_ C_ 0.553279 0.327989 0.636864 -0.08735
C_ C_ 0.874501 0.228599 0.664393 0.68181
C_ C_ 0.867282 0.427071 0.649765 0.68181
C_ C_ 0.874584 0.48162 0.647502 -0.05681
C_ C_ 0.868336 0.0127688 0.673911 -0.08735
C_ C_ 0.867776 0.064901 0.671455 -0.05681
C_ C_ 0.861657 0.0887123 0.644792 -0.05681
C_ C_ 0.857586 0.0581285 0.620265 -0.08735
C_ C_ 0.886686 0.503911 0.621364 -0.08735
C_ C_ 0.869631 0.0947744 0.696529 -0.08735
C_ C_ 0.875272 0.147954 0.694211 -0.08735
C_ C_ 0.872039 0.172422 0.66683 -0.05681
C_ C_ 0.867098 0.141696 0.641552 -0.08735
C_ C_ 0.967227 0.333917 0.659925 0.68181
C_ C_ 0.88886 0.381508 0.735269 0.1947
C_ C_ 0.898514 0.398134 0.762998 -0.08735
C_ C_ 0.876376 0.370195 0.786438 -0.08735
C_ C_ 0.847518 0.325599 0.78041 -0.05681
C_ C_ 0.838599 0.312492 0.751518 0.18498
C_ C_ 0.809913 0.268097 0.746767 -0.08735
C_ C_ 0.791106 0.235771 0.768603 -0.08735
C_ C_ 0.805922 0.24811 0.797083 -0.08735
C_ C_ 0.83056 0.295352 0.803798 0.18498
C_ C_ 0.799055 0.32278 0.849672 0.44287
C_ C_ 0.884168 0.294301 0.84537 0.44287
C_ C_ 0.891137 0.309323 0.873877 -0.05681
C_ C_ 0.938048 0.301423 0.886669 -0.08735
C_ C_ 0.942165 0.305736 0.916862 -0.08735
C_ C_ 0.901749 0.322476 0.933963 -0.05681
C_ C_ 0.856629 0.333046 0.921199 -0.05681
C_ C_ 0.848841 0.326413 0.891263 -0.05681
C_ C_ 0.80262 0.332155 0.878269 -0.05681
C_ C_ 0.762694 0.349537 0.895567 -0.08735
C_ C_ 0.76793 0.357129 0.924021 -0.08735
C_ C_ 0.81581 0.347915 0.937999 -0.05681
C_ C_ 0.822677 0.349959 0.968375 0.44287
C_ C_ 0.907673 0.324397 0.964273 0.44287
C_ C_ 0.895663 0.355892 0.510678 0.18498
C_ C_ 0.927914 0.397576 0.517375 -0.08735
C_ C_ 0.936821 0.411066 0.546375 -0.08735
C_ C_ 0.920313 0.37982 0.568813 -0.08735
C_ C_ 0.888797 0.338519 0.563187 0.18498
C_ C_ 0.876797 0.327235 0.534443 -0.05681
C_ C_ 0.851053 0.281107 0.528972 -0.08735
C_ C_ 0.83116 0.251046 0.55095 -0.08735
C_ C_ 0.841796 0.267085 0.579275 0.1947
N_ N_ 0.634807 0.157374 0.975939 -0.29468
N_ N_ 0.647491 0.206438 0.58333 -0.17154
N_ N_ 0.615064 0.167059 0.7298 -0.17154
N_ N_ 0.640786 0.191809 0.834093 -0.29468
N_ N_ 0.859669 0.340039 0.729672 -0.29468
N_ N_ 0.840058 0.308591 0.832853 -0.17154
N_ N_ 0.867911 0.335746 0.981112 -0.17154
N_ N_ 0.875563 0.306011 0.585304 -0.29468
O_ O_ 0.721339 0.18572 0.928467 -0.58347
O_ O_ 0.709429 0.179837 0.881625 -0.58347
O_ O_ 0.633667 0.249037 0.932372 -0.58347
O_ O_ 0.635873 0.256555 0.885689 -0.58347
O_ O_ 0.653156 0.0970419 0.925634 -0.58347
O_ O_ 0.63314 0.105526 0.88008 -0.58347
O_ O_ 0.568864 0.165048 0.929223 -0.58347
O_ O_ 0.557986 0.185031 0.884088 -0.58347
O_ O_ 0.561914 0.231661 0.578852 -0.46727
O_ O_ 0.732823 0.180058 0.586545 -0.46727
O_ O_ 0.529358 0.18578 0.724643 -0.46727
O_ O_ 0.699862 0.149459 0.734156 -0.46727
O_ O_ 0.788041 0.329683 0.676488 -0.58347
O_ O_ 0.798292 0.31817 0.630518 -0.58347
O_ O_ 0.869931 0.255594 0.686593 -0.58347
O_ O_ 0.872948 0.25044 0.640415 -0.58347
O_ O_ 0.855575 0.406675 0.673499 -0.58347
O_ O_ 0.878798 0.398389 0.628963 -0.58347
O_ O_ 0.937855 0.338269 0.681505 -0.58347
O_ O_ 0.948197 0.328033 0.634958 -0.58347
O_ O_ 0.915561 0.263028 0.831306 -0.46727
O_ O_ 0.754734 0.32457 0.836583 -0.46727
O_ O_ 0.954828 0.323735 0.975677 -0.46727
O_ O_ 0.787534 0.372007 0.983803 -0.46727
Zn Zn 0.622861 0.680516 0.383216 0.90689
Zn Zn 0.633403 0.673143 0.430281 0.90689
Zn Zn 0.881132 0.808336 0.133639 0.90689
Zn Zn 0.871006 0.816227 0.181091 0.90689
H_ H_ 0.801784 0.691273 0.447398 0.11455
H_ H_ 0.871698 0.668284 0.349398 0.11455
H_ H_ 0.775162 0.662306 0.358409 0.11455
H_ H_ 0.890363 0.689622 0.465868 0.11455
H_ H_ 0.983431 0.689342 0.45696 0.11455
H_ H_ 0.958325 0.66671 0.367416 0.11455
H_ H_ 0.60857 0.509891 0.445554 0.11455
H_ H_ 0.674731 0.931736 0.350773 0.11455
H_ H_ 0.665685 0.516002 0.360877 0.11455
H_ H_ 0.579545 0.928317 0.45653 0.11455
H_ H_ 0.581349 0.835754 0.453866 0.11455
H_ H_ 0.644291 0.849208 0.36857 0.11455
H_ H_ 0.58941 0.59937 0.468236 0.11455
H_ H_ 0.567645 0.575425 0.012972 0.11455
H_ H_ 0.605308 0.618636 0.0550712 0.11455
H_ H_ 0.683401 0.754629 0.473302 0.11455
H_ H_ 0.741168 0.783653 0.0137624 0.11455
H_ H_ 0.723009 0.757692 0.0636024 0.11455
H_ H_ 0.521888 0.701659 0.12285 0.11455
H_ H_ 0.508325 0.693406 0.175152 0.11455
H_ H_ 0.763296 0.634864 0.137727 0.11455
H_ H_ 0.748875 0.621067 0.187838 0.11455
H_ H_ 0.579837 0.569855 0.248843 0.11455
H_ H_ 0.543863 0.553735 0.296265 0.11455
H_ H_ 0.560302 0.610055 0.335315 0.11455
H_ H_ 0.65639 0.738958 0.259513 0.11455
H_ H_ 0.695138 0.779968 0.30021 0.11455
H_ H_ 0.676725 0.745177 0.348222 0.11455
H_ H_ 0.699805 0.783523 0.186976 0.11455
H_ H_ 0.631395 0.840994 0.096223 0.11455
H_ H_ 0.726987 0.838474 0.103288 0.11455
H_ H_ 0.622303 0.80888 0.212183 0.11455
H_ H_ 0.527892 0.801512 0.206377 0.11455
H_ H_ 0.541047 0.815737 0.11221 0.11455
H_ H_ 0.893921 0.977922 0.191593 0.11455
H_ H_ 0.861088 0.556469 0.10281 0.11455
H_ H_ 0.87778 0.97085 0.0987381 0.11455
H_ H_ 0.85267 0.567005 0.222168 0.11455
H_ H_ 0.877449 0.655963 0.218318 0.11455
H_ H_ 0.869348 0.647702 0.124676 0.11455
H_ H_ 0.902802 0.8991 0.216704 0.11455
H_ H_ 0.927496 0.922725 0.267297 0.11455
H_ H_ 0.895701 0.875765 0.307018 0.11455
H_ H_ 0.808783 0.75037 0.223057 0.11455
H_ H_ 0.791324 0.691804 0.261064 0.11455
H_ H_ 0.813651 0.710524 0.313167 0.11455
H_ H_ 1.00164917 0.790819 0.375292 0.11455
H_ H_ 0.0127028 0.813214 0.42371 0.11455
H_ H_ 0.749457 0.831387 0.383354 0.11455
H_ H_ 0.760999 0.836935 0.43846 0.11455
H_ H_ 0.935591 0.924464 0.497924 0.11455
H_ H_ 0.98271 0.912067 0.0473167 0.11455
H_ H_ 0.951166 0.857987 0.0884371 0.11455
H_ H_ 0.863771 0.728945 0.0103587 0.11455
H_ H_ 0.820855 0.692112 0.0519549 0.11455
H_ H_ 0.825518 0.731439 0.0985612 0.11455
C_ C_ 0.726276 0.687552 0.406763 0.68181
C_ C_ 0.783287 0.682533 0.402725 -0.05681
C_ C_ 0.816235 0.688607 0.425096 -0.08735
C_ C_ 0.870379 0.688299 0.421497 -0.05681
C_ C_ 0.89059 0.681776 0.392865 -0.05681
C_ C_ 0.856095 0.669296 0.371079 -0.08735
C_ C_ 0.803554 0.673097 0.375263 -0.08735
C_ C_ 0.905109 0.686023 0.444045 -0.08735
C_ C_ 0.95869 0.690167 0.439471 -0.08735
C_ C_ 0.978039 0.689322 0.411534 -0.05681
C_ C_ 0.943181 0.680169 0.388762 -0.08735
C_ C_ 0.615334 0.779618 0.410736 0.68181
C_ C_ 0.629429 0.578374 0.401317 0.68181
C_ C_ 0.624299 0.521985 0.399928 -0.05681
C_ C_ 0.631465 0.992576 0.422441 -0.08735
C_ C_ 0.626888 0.940405 0.418764 -0.05681
C_ C_ 0.639386 0.918735 0.392675 -0.05681
C_ C_ 0.66062 0.949228 0.370849 -0.08735
C_ C_ 0.654424 1.000300369 0.372289 -0.08735
C_ C_ 0.603309 0.911431 0.440518 -0.08735
C_ C_ 0.598246 0.859515 0.437215 -0.08735
C_ C_ 0.619471 0.835622 0.413291 -0.05681
C_ C_ 0.636969 0.865688 0.390019 -0.08735
C_ C_ 0.530396 0.660569 0.406866 0.68181
C_ C_ 0.604827 0.622247 0.484972 0.1947
C_ C_ 0.596488 0.603283 0.00874929 -0.08735
C_ C_ 0.617754 0.629807 0.0332875 -0.08735
C_ C_ 0.648576 0.670953 0.0289195 -0.05681
C_ C_ 0.662054 0.681765 1.00108 0.18498
C_ C_ 0.664338 0.74816 0.493711 -0.08735
C_ C_ 0.713482 0.75248 0.0181331 -0.08735
C_ C_ 0.702786 0.739398 0.0469725 -0.08735
C_ C_ 0.665891 0.701562 0.0522418 0.18498
C_ C_ 0.693866 0.670511 0.0990119 0.44287
C_ C_ 0.609684 0.701797 0.0929555 0.44287
C_ C_ 0.601767 0.694179 0.123931 -0.05681
C_ C_ 0.553302 0.696063 0.136145 -0.08735
C_ C_ 0.545558 0.689147 0.16552 -0.08735
C_ C_ 0.586865 0.681792 0.18371 -0.05681
C_ C_ 0.635733 0.674125 0.170986 -0.05681
C_ C_ 0.64382 0.68432 0.142177 -0.05681
C_ C_ 0.689901 0.672486 0.128791 -0.05681
C_ C_ 0.728886 0.652103 0.146207 -0.08735
C_ C_ 0.724342 0.646502 0.176052 -0.08735
C_ C_ 0.67632 0.661214 0.188411 -0.05681
C_ C_ 0.668452 0.655774 0.218428 0.44287
C_ C_ 0.580857 0.670427 0.213288 0.44287
C_ C_ 0.606553 0.643285 0.25944 0.18498
C_ C_ 0.586417 0.59478 0.265807 -0.08735
C_ C_ 0.568335 0.585159 0.292499 -0.08735
C_ C_ 0.581665 0.616606 0.315317 -0.08735
C_ C_ 0.610831 0.660694 0.311566 0.18498
C_ C_ 0.618926 0.677393 0.283 -0.05681
C_ C_ 0.649159 0.722754 0.279787 -0.08735
C_ C_ 0.664814 0.749458 0.303836 -0.08735
C_ C_ 0.659762 0.727702 0.330147 0.1947
C_ C_ 0.775797 0.816347 0.151545 0.68181
C_ C_ 0.720305 0.821278 0.14745 -0.05681
C_ C_ 0.686436 0.806864 0.169698 -0.08735
C_ C_ 0.635795 0.809343 0.165952 -0.05681
C_ C_ 0.613984 0.819903 0.13886 -0.05681
C_ C_ 0.647821 0.832654 0.116478 -0.08735
C_ C_ 0.699802 0.827131 0.120119 -0.08735
C_ C_ 0.603283 0.809441 0.189822 -0.08735
C_ C_ 0.550437 0.808888 0.187075 -0.08735
C_ C_ 0.528273 0.812916 0.159171 -0.05681
C_ C_ 0.560711 0.816547 0.134719 -0.08735
C_ C_ 0.876915 0.714439 0.167743 0.68181
C_ C_ 0.880944 0.9133 0.147022 0.68181
C_ C_ 0.887762 0.967489 0.145586 -0.05681
C_ C_ 0.856936 0.499935 0.179268 -0.08735
C_ C_ 0.857171 0.5531 0.176219 -0.05681
C_ C_ 0.862981 0.575073 0.148563 -0.05681
C_ C_ 0.862258 0.543101 0.124621 -0.08735
C_ C_ 0.885896 0.991542 0.11816 -0.08735
C_ C_ 0.859217 0.583993 0.201359 -0.08735
C_ C_ 0.868494 0.635822 0.199201 -0.08735
C_ C_ 0.872334 0.657189 0.172091 -0.05681
C_ C_ 0.869344 0.627874 0.146623 -0.08735
C_ C_ 0.973605 0.814369 0.159946 0.68181
C_ C_ 0.895718 0.872977 0.23378 0.1947
C_ C_ 0.907145 0.888553 0.262152 -0.08735
C_ C_ 0.888866 0.859879 0.285069 -0.08735
C_ C_ 0.86644 0.812027 0.279352 -0.05681
C_ C_ 0.857245 0.798261 0.249999 0.18498
C_ C_ 0.82638 0.754719 0.244796 -0.08735
C_ C_ 0.815105 0.722253 0.267734 -0.08735
C_ C_ 0.825133 0.73478 0.295812 -0.08735
C_ C_ 0.853624 0.778381 0.301653 0.18498
C_ C_ 0.823473 0.798153 0.349384 0.44287
C_ C_ 0.912503 0.793872 0.343083 0.44287
C_ C_ 0.919489 0.801676 0.373537 -0.05681
C_ C_ 0.967133 0.798819 0.386754 -0.08735
C_ C_ 0.973802 0.80975 0.415443 -0.08735
C_ C_ 0.931187 0.822707 0.431453 -0.05681
C_ C_ 0.88397 0.824183 0.419969 -0.05681
C_ C_ 0.876062 0.811852 0.390703 -0.05681
C_ C_ 0.827302 0.810308 0.378923 -0.05681
C_ C_ 0.786682 0.82711 0.394672 -0.08735
C_ C_ 0.792417 0.832622 0.424049 -0.08735
C_ C_ 0.841312 0.832293 0.43743 -0.05681
C_ C_ 0.849021 0.84757 0.466056 0.44287
C_ C_ 0.935344 0.826978 0.461587 0.44287
C_ C_ 0.912021 0.824824 0.0116266 0.18498
C_ C_ 0.946792 0.865715 0.0164552 -0.08735
C_ C_ 0.958041 0.880037 0.0446001 -0.08735
C_ C_ 0.939397 0.8503 0.0669661 -0.08735
C_ C_ 0.90436 0.810237 0.0628135 0.18498
C_ C_ 0.892285 0.794665 0.0345456 -0.05681
C_ C_ 0.864316 0.750274 0.0308246 -0.08735
C_ C_ 0.842195 0.72632 0.0542281 -0.08735
C_ C_ 0.850933 0.745567 0.0814464 0.1947
N_ N_ 0.628401 0.667473 0.478743 -0.29468
N_ N_ 0.654906 0.688888 0.0813398 -0.17154
N_ N_ 0.61933 0.658337 0.229783 -0.17154
N_ N_ 0.627928 0.686747 0.335247 -0.29468
N_ N_ 0.869314 0.830448 0.228013 -0.29468
N_ N_ 0.864478 0.790975 0.332336 -0.17154
N_ N_ 0.893948 0.83872 0.478616 -0.17154
N_ N_ 0.881985 0.786805 0.0866758 -0.29468
O_ O_ 0.708678 0.685205 0.431578 -0.58347
O_ O_ 0.698541 0.689035 0.384832 -0.58347
O_ O_ 0.624435 0.75194 0.43251 -0.58347
O_ O_ 0.613082 0.758909 0.386012 -0.58347
O_ O_ 0.636038 0.598685 0.425959 -0.58347
O_ O_ 0.635184 0.605578 0.378829 -0.58347
O_ O_ 0.558451 0.656715 0.427789 -0.58347
O_ O_ 0.548063 0.662177 0.3813 -0.58347
O_ O_ 0.57108 0.715094 0.0768556 -0.46727
O_ O_ 0.736935 0.65692 0.0866882 -0.46727
O_ O_ 0.534804 0.670087 0.223429 -0.46727
O_ O_ 0.70554 0.644493 0.236244 -0.46727
O_ O_ 0.795381 0.812245 0.175851 -0.58347
O_ O_ 0.804874 0.815291 0.130292 -0.58347
O_ O_ 0.87668 0.743835 0.18913 -0.58347
O_ O_ 0.877552 0.731903 0.142258 -0.58347
O_ O_ 0.868218 0.892338 0.170535 -0.58347
O_ O_ 0.889293 0.884171 0.125787 -0.58347
O_ O_ 0.946717 0.817094 0.18225 -0.58347
O_ O_ 0.954493 0.806229 0.135822 -0.58347
O_ O_ 0.95222 0.796329 0.324421 -0.46727
O_ O_ 0.77827 0.788285 0.339359 -0.46727
O_ O_ 0.980701 0.834723 0.471469 -0.46727
O_ O_ 0.809397 0.855769 0.481569 -0.46727
Zn Zn 0.635173 0.673596 0.8823 0.90689
Zn Zn 0.640952 0.674899 0.930293 0.90689
Zn Zn 0.875213 0.822274 0.633405 0.90689
Zn Zn 0.868567 0.830238 0.681349 0.90689
H_ H_ 0.812818 0.680673 0.941741 0.11455
H_ H_ 0.884243 0.663121 0.843964 0.11455
H_ H_ 0.792052 0.678558 0.849562 0.11455
H_ H_ 0.899925 0.684627 0.961509 0.11455
H_ H_ 0.985826 0.670494 0.957495 0.11455
H_ H_ 0.972463 0.663156 0.865544 0.11455
H_ H_ 0.630901 0.506983 0.947161 0.11455
H_ H_ 0.610265 0.931314 0.850613 0.11455
H_ H_ 0.665202 0.515823 0.857392 0.11455
H_ H_ 0.665892 0.921132 0.964068 0.11455
H_ H_ 0.652182 0.826904 0.960603 0.11455
H_ H_ 0.619165 0.843193 0.870825 0.11455
H_ H_ 0.582889 0.604426 0.963018 0.11455
H_ H_ 0.587942 0.567561 0.519674 0.11455
H_ H_ 0.603482 0.624871 0.557891 0.11455
H_ H_ 0.707037 0.735168 0.974151 0.11455
H_ H_ 0.696334 0.817021 0.510995 0.11455
H_ H_ 0.684855 0.796042 0.560219 0.11455
H_ H_ 0.502986 0.704851 0.622378 0.11455
H_ H_ 0.496853 0.687609 0.675587 0.11455
H_ H_ 0.755628 0.670376 0.636087 0.11455
H_ H_ 0.746787 0.657516 0.687593 0.11455
H_ H_ 0.562119 0.588757 0.748824 0.11455
H_ H_ 0.552247 0.558994 0.799201 0.11455
H_ H_ 0.583281 0.609671 0.839931 0.11455
H_ H_ 0.646551 0.748277 0.757446 0.11455
H_ H_ 0.687539 0.792854 0.79678 0.11455
H_ H_ 0.681335 0.760854 0.846849 0.11455
H_ H_ 0.701254 0.814165 0.696137 0.11455
H_ H_ 0.634008 0.824917 0.595956 0.11455
H_ H_ 0.72498 0.817537 0.603739 0.11455
H_ H_ 0.614522 0.821557 0.715094 0.11455
H_ H_ 0.52467 0.822462 0.708141 0.11455
H_ H_ 0.545933 0.8228 0.61545 0.11455
H_ H_ 0.872471 0.996803 0.694615 0.11455
H_ H_ 0.912678 0.570286 0.599304 0.11455
H_ H_ 0.858014 0.977166 0.604477 0.11455
H_ H_ 0.843006 0.583754 0.712142 0.11455
H_ H_ 0.848098 0.672964 0.706608 0.11455
H_ H_ 0.900429 0.659444 0.618988 0.11455
H_ H_ 0.917194 0.898286 0.717734 0.11455
H_ H_ 0.93838 0.922555 0.769589 0.11455
H_ H_ 0.892005 0.874497 0.808213 0.11455
H_ H_ 0.796405 0.770388 0.724299 0.11455
H_ H_ 0.761896 0.713665 0.758615 0.11455
H_ H_ 0.776573 0.731727 0.809491 0.11455
H_ H_ 0.991157 0.797637 0.867144 0.11455
H_ H_ 1.00948847 0.790959 0.919447 0.11455
H_ H_ 0.741443 0.819925 0.894546 0.11455
H_ H_ 0.758453 0.834894 0.944272 0.11455
H_ H_ 0.965133 0.886491 0.99975 0.11455
H_ H_ 0.955749 0.947112 0.547946 0.11455
H_ H_ 0.920887 0.89431 0.589099 0.11455
H_ H_ 0.851717 0.758799 0.505483 0.11455
H_ H_ 0.817114 0.713376 0.547549 0.11455
H_ H_ 0.836091 0.739439 0.593965 0.11455
C_ C_ 0.738508 0.681676 0.902093 0.68181
C_ C_ 0.795775 0.678257 0.897124 -0.05681
C_ C_ 0.829175 0.680001 0.921315 -0.08735
C_ C_ 0.879864 0.677503 0.917924 -0.05681
C_ C_ 0.900103 0.666189 0.889757 -0.05681
C_ C_ 0.868949 0.66763 0.865247 -0.08735
C_ C_ 0.816178 0.676952 0.868695 -0.08735
C_ C_ 0.913459 0.674856 0.941921 -0.08735
C_ C_ 0.965174 0.667621 0.93823 -0.08735
C_ C_ 0.986489 0.660942 0.909446 -0.05681
C_ C_ 0.95349 0.664571 0.885849 -0.08735
C_ C_ 0.632942 0.771716 0.91258 0.68181
C_ C_ 0.649146 0.575616 0.902067 0.68181
C_ C_ 0.638017 0.519694 0.900236 -0.05681
C_ C_ 0.651565 -0.010141999999999984 0.922702 -0.08735
C_ C_ 0.644663 0.935164 0.920604 -0.05681
C_ C_ 0.631519 0.9138 0.89419 -0.05681
C_ C_ 0.62287 0.946262 0.870566 -0.08735
C_ C_ 0.6251 -0.001831000000000027 0.872798 -0.08735
C_ C_ 0.656118 0.903159 0.943892 -0.08735
C_ C_ 0.646724 0.85069 0.941715 -0.08735
C_ C_ 0.634666 0.827281 0.915318 -0.05681
C_ C_ 0.62606 0.859538 0.892362 -0.08735
C_ C_ 0.539715 0.666201 0.908508 0.68181
C_ C_ 0.604049 0.620253 0.981331 0.1947
C_ C_ 0.601911 0.604625 0.513589 -0.08735
C_ C_ 0.617641 0.636068 0.536058 -0.08735
C_ C_ 0.636503 0.685925 0.529301 -0.05681
C_ C_ 0.64268 0.700337 0.499893 0.18498
C_ C_ 0.695758 0.723189 0.995786 -0.08735
C_ C_ 0.679407 0.782056 0.515693 -0.08735
C_ C_ 0.673387 0.768052 0.544014 -0.08735
C_ C_ 0.651297 0.721815 0.551263 0.18498
C_ C_ 0.682 0.697999 0.597579 0.44287
C_ C_ 0.595235 0.716502 0.593266 0.44287
C_ C_ 0.587315 0.702765 0.622949 -0.05681
C_ C_ 0.538246 0.698171 0.635075 -0.08735
C_ C_ 0.533535 0.691961 0.665279 -0.08735
C_ C_ 0.577781 0.690491 0.683741 -0.05681
C_ C_ 0.625113 0.689956 0.671477 -0.05681
C_ C_ 0.629189 0.694254 0.640735 -0.05681
C_ C_ 0.677747 0.689805 0.62752 -0.05681
C_ C_ 0.719467 0.674401 0.644439 -0.08735
C_ C_ 0.714602 0.667047 0.674724 -0.08735
C_ C_ 0.668125 0.67774 0.687953 -0.05681
C_ C_ 0.660936 0.665758 0.717641 0.44287
C_ C_ 0.572469 0.679377 0.714019 0.44287
C_ C_ 0.605969 0.656782 0.760013 0.18498
C_ C_ 0.577323 0.610876 0.765846 -0.08735
C_ C_ 0.572893 0.594047 0.79432 -0.08735
C_ C_ 0.589674 0.624706 0.817403 -0.08735
C_ C_ 0.616624 0.666979 0.812026 0.18498
C_ C_ 0.624845 0.683827 0.783188 -0.05681
C_ C_ 0.64609 0.730952 0.778581 -0.08735
C_ C_ 0.665536 0.757456 0.801729 -0.08735
C_ C_ 0.662301 0.738026 0.830426 0.1947
C_ C_ 0.776282 0.8212 0.655785 0.68181
C_ C_ 0.72071 0.816851 0.651416 -0.05681
C_ C_ 0.685977 0.822294 0.674817 -0.08735
C_ C_ 0.633563 0.823572 0.669471 -0.05681
C_ C_ 0.614914 0.823752 0.641446 -0.05681
C_ C_ 0.648545 0.824259 0.618345 -0.08735
C_ C_ 0.701259 0.821908 0.622884 -0.08735
C_ C_ 0.600073 0.819624 0.693607 -0.08735
C_ C_ 0.54839 0.821922 0.688844 -0.08735
C_ C_ 0.528938 0.825123 0.661001 -0.05681
C_ C_ 0.561152 0.823304 0.637727 -0.08735
C_ C_ 0.878052 0.727378 0.661856 0.68181
C_ C_ 0.867281 0.924816 0.651249 0.68181
C_ C_ 0.865369 0.98122 0.649943 -0.05681
C_ C_ 0.868179 0.511918 0.671755 -0.08735
C_ C_ 0.872145 0.566356 0.669318 -0.05681
C_ C_ 0.88561 0.588736 0.642278 -0.05681
C_ C_ 0.89643 0.556001 0.618715 -0.08735
C_ C_ 0.863042 1.00401391 0.62292 -0.08735
C_ C_ 0.857674 0.59799 0.691614 -0.08735
C_ C_ 0.858228 0.64972 0.688624 -0.08735
C_ C_ 0.872556 0.672033 0.66362 -0.05681
C_ C_ 0.887557 0.641885 0.639044 -0.08735
C_ C_ 0.973803 0.831282 0.658042 0.68181
C_ C_ 0.907029 0.874081 0.735529 0.1947
C_ C_ 0.914447 0.890075 0.764096 -0.08735
C_ C_ 0.894016 0.859351 0.78666 -0.08735
C_ C_ 0.862959 0.817481 0.780097 -0.05681
C_ C_ 0.85147 0.808687 0.751616 0.18498
C_ C_ 0.812523 0.773726 0.744502 -0.08735
C_ C_ 0.791603 0.74244 0.765105 -0.08735
C_ C_ 0.799969 0.752636 0.7942 -0.08735
C_ C_ 0.836894 0.78847 0.802917 0.18498
C_ C_ 0.809562 0.810122 0.852061 0.44287
C_ C_ 0.895802 0.789191 0.843279 0.44287
C_ C_ 0.908095 0.795201 0.87253 -0.05681
C_ C_ 0.958832 0.793873 0.882512 -0.08735
C_ C_ 0.968603 0.791672 0.9123 -0.08735
C_ C_ 0.928572 0.801934 0.932514 -0.05681
C_ C_ 0.878995 0.808843 0.922698 -0.05681
C_ C_ 0.869506 0.805336 0.892544 -0.05681
C_ C_ 0.819721 0.810474 0.88274 -0.05681
C_ C_ 0.780892 0.822029 0.902054 -0.08735
C_ C_ 0.78992 0.828884 0.930437 -0.08735
C_ C_ 0.839866 0.818177 0.941333 -0.05681
C_ C_ 0.851502 0.824776 0.970091 0.44287
C_ C_ 0.934981 0.799925 0.962891 0.44287
C_ C_ 0.900426 0.851214 0.5087 0.18498
C_ C_ 0.925134 0.89782 0.51581 -0.08735
C_ C_ 0.934258 0.91347 0.544676 -0.08735
C_ C_ 0.918347 0.88159 0.567567 -0.08735
C_ C_ 0.893139 0.835478 0.561566 0.18498
C_ C_ 0.885203 0.818668 0.531893 -0.05681
C_ C_ 0.855825 0.773682 0.527184 -0.08735
C_ C_ 0.839553 0.746721 0.550265 -0.08735
C_ C_ 0.85113 0.761671 0.57715 0.1947
N_ N_ 0.640113 0.657167 0.977941 -0.29468
N_ N_ 0.642303 0.70945 0.58061 -0.17154
N_ N_ 0.614489 0.669341 0.730663 -0.17154
N_ N_ 0.639159 0.693666 0.835136 -0.29468
N_ N_ 0.873941 0.835662 0.730016 -0.29468
N_ N_ 0.84802 0.799817 0.832682 -0.17154
N_ N_ 0.897673 0.813653 0.981784 -0.17154
N_ N_ 0.873884 0.805957 0.583808 -0.29468
O_ O_ 0.717866 0.67784 0.92675 -0.58347
O_ O_ 0.711178 0.690629 0.881059 -0.58347
O_ O_ 0.63522 0.746441 0.936251 -0.58347
O_ O_ 0.625192 0.747924 0.888574 -0.58347
O_ O_ 0.64628 0.597796 0.926217 -0.58347
O_ O_ 0.651638 0.601821 0.878307 -0.58347
O_ O_ 0.568575 0.667994 0.929672 -0.58347
O_ O_ 0.559135 0.660614 0.884925 -0.58347
O_ O_ 0.555406 0.726234 0.577139 -0.46727
O_ O_ 0.728266 0.703884 0.588494 -0.46727
O_ O_ 0.527546 0.670466 0.725331 -0.46727
O_ O_ 0.701962 0.659559 0.734359 -0.46727
O_ O_ 0.793812 0.828205 0.680299 -0.58347
O_ O_ 0.804356 0.813869 0.634047 -0.58347
O_ O_ 0.876716 0.756166 0.683254 -0.58347
O_ O_ 0.885418 0.747291 0.636356 -0.58347
O_ O_ 0.869921 0.903928 0.675467 -0.58347
O_ O_ 0.862798 0.897709 0.628642 -0.58347
O_ O_ 0.94723 0.831356 0.680604 -0.58347
O_ O_ 0.951831 0.8348 0.634461 -0.58347
O_ O_ 0.932516 0.778306 0.82544 -0.46727
O_ O_ 0.764412 0.822438 0.843146 -0.46727
O_ O_ 0.978906 0.783126 0.973108 -0.46727
O_ O_ 0.811942 0.829282 0.987565 -0.46727
_cell_length_a 26.376
_cell_length_b 26.400000238300095
_cell_length_c 46.67800035477134
_cell_angle_alpha 90.00700052986613
_cell_angle_beta 89.99899961309502
_cell_angle_gamma 90.45000003183146
_symmetry_space_group_name_H-M         'P 1'
_symmetry_Int_Tables_number            1
loop_
_symmetry_equiv_pos_as_xyz
   'x, y, z'
                         
loop_
_atom_site_label
_atom_site_type_symbol
_atom_site_fract_x 
_atom_site_fract_y
_atom_site_fract_z
_atom_site_charge
Zn Zn 0.115502 0.193798 0.381467 0.90689
Zn Zn 0.117228 0.183582 0.429998 0.90689
Zn Zn 0.359228 0.308495 0.131032 0.90689
Zn Zn 0.352154 0.318618 0.17873 0.90689
H_ H_ 0.292085 0.192454 0.446929 0.11455
H_ H_ 0.36333 0.175492 0.349393 0.11455
H_ H_ 0.26611 0.159819 0.356424 0.11455
H_ H_ 0.374347 0.176526 0.465825 0.11455
H_ H_ 0.463088 0.1627 0.460155 0.11455
H_ H_ 0.443681 0.171196 0.368946 0.11455
H_ H_ 0.139911 0.0179504 0.440278 0.11455
H_ H_ 0.131478 0.44202 0.348425 0.11455
H_ H_ 0.132417 0.0322936 0.348444 0.11455
H_ H_ 0.133946 0.437147 0.466864 0.11455
H_ H_ 0.132094 0.345719 0.461594 0.11455
H_ H_ 0.1309 0.357354 0.369444 0.11455
H_ H_ 0.0775384 0.102033 0.466816 0.11455
H_ H_ 0.0666067 0.0755713 0.00962798 0.11455
H_ H_ 0.0947503 0.124353 0.0530443 0.11455
H_ H_ 0.189083 0.239516 0.472139 0.11455
H_ H_ 0.218599 0.301707 0.0153681 0.11455
H_ H_ 0.183619 0.284222 0.0614888 0.11455
H_ H_ 0.000185 0.215464 0.118508 0.11455
H_ H_ -0.008743999999999974 0.213076 0.172834 0.11455
H_ H_ 0.251987 0.175191 0.139798 0.11455
H_ H_ 0.238204 0.17491 0.189511 0.11455
H_ H_ 0.0488341 0.103022 0.249682 0.11455
H_ H_ 0.0271473 0.0795793 0.295215 0.11455
H_ H_ 0.0497972 0.137406 0.335641 0.11455
H_ H_ 0.142836 0.261313 0.257155 0.11455
H_ H_ 0.182339 0.30443 0.298435 0.11455
H_ H_ 0.176051 0.266826 0.345902 0.11455
H_ H_ 0.184192 0.322616 0.194567 0.11455
H_ H_ 0.115001 0.333832 0.09666 0.11455
H_ H_ 0.209662 0.325911 0.103861 0.11455
H_ H_ 0.0955083 0.320381 0.21489 0.11455
H_ H_ 0.00732152 0.331146 0.207913 0.11455
H_ H_ 0.0267683 0.326717 0.117029 0.11455
H_ H_ 0.367394 0.476905 0.193772 0.11455
H_ H_ 0.315583 0.0551971 0.104007 0.11455
H_ H_ 0.344386 0.468593 0.101773 0.11455
H_ H_ 0.381836 0.0685381 0.216236 0.11455
H_ H_ 0.366322 0.161219 0.211774 0.11455
H_ H_ 0.345184 0.14466 0.120239 0.11455
H_ H_ 0.407005 0.392406 0.210352 0.11455
H_ H_ 0.438235 0.416982 0.258731 0.11455
H_ H_ 0.397671 0.37547 0.30086 0.11455
H_ H_ 0.293141 0.262961 0.221721 0.11455
H_ H_ 0.267567 0.207303 0.260122 0.11455
H_ H_ 0.281235 0.236628 0.310726 0.11455
H_ H_ 0.473602 0.282816 0.367945 0.11455
H_ H_ 0.492126 0.299782 0.41803 0.11455
H_ H_ 0.23152 0.346417 0.389987 0.11455
H_ H_ 0.245472 0.348413 0.440378 0.11455
H_ H_ 0.422768 0.420707 0.495185 0.11455
H_ H_ 0.456137 0.425347 0.0498532 0.11455
H_ H_ 0.426947 0.367235 0.087662 0.11455
H_ H_ 0.332627 0.251603 0.00572072 0.11455
H_ H_ 0.297236 0.207106 0.0458128 0.11455
H_ H_ 0.308276 0.234616 0.0944091 0.11455
C_ C_ 0.215767 0.186282 0.40421 0.68181
C_ C_ 0.271033 0.181342 0.40082 -0.05681
C_ C_ 0.305328 0.183694 0.424899 -0.08735
C_ C_ 0.357357 0.178528 0.421872 -0.05681
C_ C_ 0.376089 0.17002 0.394213 -0.05681
C_ C_ 0.344796 0.171445 0.369106 -0.08735
C_ C_ 0.29181 0.173303 0.373268 -0.08735
C_ C_ 0.389116 0.174796 0.444645 -0.08735
C_ C_ 0.440279 0.166401 0.441679 -0.08735
C_ C_ 0.46255 0.168245 0.413336 -0.05681
C_ C_ 0.428735 0.168127 0.39046 -0.08735
C_ C_ 0.115564 0.28936 0.413173 0.68181
C_ C_ 0.121427 0.0898742 0.398808 0.68181
C_ C_ 0.132731 0.0329575 0.394476 -0.05681
C_ C_ 0.142649 0.502835 0.422188 -0.08735
C_ C_ 0.132682 0.451389 0.420546 -0.05681
C_ C_ 0.130929 0.427475 0.39331 -0.05681
C_ C_ 0.139233 0.457384 0.36814 -0.08735
C_ C_ 0.144089 0.510812 0.370689 -0.08735
C_ C_ 0.125576 0.421287 0.445809 -0.08735
C_ C_ 0.126884 0.367062 0.442971 -0.08735
C_ C_ 0.124647 0.344267 0.416424 -0.05681
C_ C_ 0.127392 0.373865 0.391746 -0.08735
C_ C_ 0.0193815 0.190244 0.406406 0.68181
C_ C_ 0.0893146 0.127552 0.483908 0.1947
C_ C_ 0.089841 0.110974 0.00911684 -0.08735
C_ C_ 0.106854 0.135845 0.0326479 -0.08735
C_ C_ 0.13411 0.181155 0.0281089 -0.05681
C_ C_ 0.151453 0.193156 0.999776 0.18498
C_ C_ 0.170689 0.237011 0.492716 -0.08735
C_ C_ 0.194368 0.268546 0.018707 -0.08735
C_ C_ 0.174221 0.257152 0.0449787 -0.08735
C_ C_ 0.148926 0.211133 0.0508564 0.18498
C_ C_ 0.179878 0.189647 0.0979358 0.44287
C_ C_ 0.0906123 0.197768 0.0907248 0.44287
C_ C_ 0.0831056 0.199559 0.120586 -0.05681
C_ C_ 0.0335471 0.205201 0.132127 -0.08735
C_ C_ 0.0266775 0.206845 0.162462 -0.08735
C_ C_ 0.0677152 0.195698 0.181389 -0.05681
C_ C_ 0.115916 0.188272 0.16949 -0.05681
C_ C_ 0.123907 0.190303 0.139527 -0.05681
C_ C_ 0.173046 0.187382 0.127984 -0.05681
C_ C_ 0.213856 0.176547 0.147483 -0.08735
C_ C_ 0.204547 0.175553 0.17602 -0.08735
C_ C_ 0.155888 0.179051 0.187748 -0.05681
C_ C_ 0.147453 0.177408 0.217502 0.44287
C_ C_ 0.0612677 0.193679 0.211524 0.44287
C_ C_ 0.0882526 0.173261 0.258728 0.18498
C_ C_ 0.0605186 0.128497 0.265515 -0.08735
C_ C_ 0.0508547 0.114166 0.29351 -0.08735
C_ C_ 0.0673771 0.143494 0.315133 -0.08735
C_ C_ 0.0985854 0.186584 0.310843 0.18498
C_ C_ 0.107686 0.20277 0.282472 -0.05681
C_ C_ 0.139208 0.243346 0.277989 -0.08735
C_ C_ 0.158962 0.270242 0.300953 -0.08735
C_ C_ 0.157154 0.248073 0.328068 0.1947
C_ C_ 0.256551 0.310907 0.154236 0.68181
C_ C_ 0.202117 0.319587 0.150518 -0.05681
C_ C_ 0.169238 0.322598 0.173654 -0.08735
C_ C_ 0.115208 0.32523 0.169621 -0.05681
C_ C_ 0.095846 0.331724 0.141684 -0.05681
C_ C_ 0.129472 0.327027 0.118399 -0.08735
C_ C_ 0.18333 0.323864 0.122655 -0.08735
C_ C_ 0.0833436 0.32343 0.193331 -0.08735
C_ C_ 0.0316486 0.327598 0.189699 -0.08735
C_ C_ 0.0113526 0.332211 0.162735 -0.05681
C_ C_ 0.0436621 0.330238 0.138406 -0.08735
C_ C_ 0.357286 0.213617 0.163846 0.68181
C_ C_ 0.354405 0.41335 0.149979 0.68181
C_ C_ 0.353751 0.469152 0.147449 -0.05681
C_ C_ 0.379082 0.0005299999999999194 0.172411 -0.08735
C_ C_ 0.365795 0.051502 0.171297 -0.05681
C_ C_ 0.347847 0.0723186 0.145364 -0.05681
C_ C_ 0.33738 0.0410439 0.121569 -0.08735
C_ C_ 0.352437 0.493936 0.120019 -0.08735
C_ C_ 0.369336 0.084718 0.195823 -0.08735
C_ C_ 0.363538 0.136066 0.192248 -0.08735
C_ C_ 0.358074 0.159225 0.165592 -0.05681
C_ C_ 0.349213 0.126733 0.141579 -0.08735
C_ C_ 0.455692 0.322386 0.156771 0.68181
C_ C_ 0.387942 0.377676 0.228338 0.1947
C_ C_ 0.4059 0.389848 0.256106 -0.08735
C_ C_ 0.383996 0.365852 0.280248 -0.08735
C_ C_ 0.349508 0.326221 0.276325 -0.05681
C_ C_ 0.339085 0.310204 0.247619 0.18498
C_ C_ 0.309313 0.269473 0.242958 -0.08735
C_ C_ 0.290592 0.239407 0.265191 -0.08735
C_ C_ 0.300292 0.254671 0.292997 -0.08735
C_ C_ 0.329138 0.296343 0.299289 0.18498
C_ C_ 0.299718 0.320842 0.34738 0.44287
C_ C_ 0.38595 0.298226 0.340826 0.44287
C_ C_ 0.393942 0.299763 0.371224 -0.05681
C_ C_ 0.443829 0.295701 0.382659 -0.08735
C_ C_ 0.452279 0.305206 0.411455 -0.08735
C_ C_ 0.4125 0.313519 0.43106 -0.05681
C_ C_ 0.36318 0.31594 0.420265 -0.05681
C_ C_ 0.353916 0.3117 0.389479 -0.05681
C_ C_ 0.306504 0.320681 0.377039 -0.05681
C_ C_ 0.265945 0.330859 0.397294 -0.08735
C_ C_ 0.275482 0.336524 0.427047 -0.08735
C_ C_ 0.324271 0.330577 0.438778 -0.05681
C_ C_ 0.334362 0.338756 0.4678 0.44287
C_ C_ 0.421104 0.318159 0.460557 0.44287
C_ C_ 0.395339 0.33451 0.00854095 0.18498
C_ C_ 0.423659 0.379159 0.0157959 -0.08735
C_ C_ 0.433468 0.3904 0.0445673 -0.08735
C_ C_ 0.415345 0.358845 0.0668607 -0.08735
C_ C_ 0.384509 0.316733 0.0607973 0.18498
C_ C_ 0.373598 0.304728 0.0316222 -0.05681
C_ C_ 0.340022 0.265473 0.027311 -0.08735
C_ C_ 0.313864 0.242543 0.050072 -0.08735
C_ C_ 0.323872 0.257043 0.0776091 0.1947
N_ N_ 0.119365 0.169755 0.477844 -0.29468
N_ N_ 0.139365 0.196361 0.0796949 -0.17154
N_ N_ 0.101006 0.185717 0.229481 -0.17154
N_ N_ 0.121723 0.21054 0.333446 -0.29468
N_ N_ 0.354258 0.337983 0.225461 -0.29468
N_ N_ 0.338796 0.309132 0.329139 -0.17154
N_ N_ 0.382459 0.334947 0.477996 -0.17154
N_ N_ 0.359509 0.293697 0.0818575 -0.29468
O_ O_ 0.196658 0.183807 0.429 -0.58347
O_ O_ 0.1891 0.199126 0.383299 -0.58347
O_ O_ 0.121882 0.259496 0.434226 -0.58347
O_ O_ 0.110972 0.270738 0.387719 -0.58347
O_ O_ 0.114199 0.10919 0.423295 -0.58347
O_ O_ 0.119261 0.117767 0.375953 -0.58347
O_ O_ 0.0450458 0.188703 0.42868 -0.58347
O_ O_ 0.0409394 0.187041 0.382543 -0.58347
O_ O_ 0.0537421 0.212482 0.0732633 -0.46727
O_ O_ 0.226505 0.183431 0.0885183 -0.46727
O_ O_ 0.0156423 0.203186 0.221945 -0.46727
O_ O_ 0.18559 0.166603 0.234657 -0.46727
O_ O_ 0.275893 0.307344 0.178885 -0.58347
O_ O_ 0.286282 0.316999 0.132662 -0.58347
O_ O_ 0.364558 0.24394 0.184825 -0.58347
O_ O_ 0.353896 0.232622 0.137837 -0.58347
O_ O_ 0.338743 0.39159 0.171933 -0.58347
O_ O_ 0.359589 0.386435 0.12767 -0.58347
O_ O_ 0.42556 0.329519 0.177377 -0.58347
O_ O_ 0.43746 0.310067 0.132544 -0.58347
O_ O_ 0.420025 0.279009 0.323893 -0.46727
O_ O_ 0.257659 0.338589 0.336801 -0.46727
O_ O_ 0.467993 0.316843 0.471092 -0.46727
O_ O_ 0.301317 0.362621 0.483492 -0.46727
Zn Zn 0.13317 0.184252 0.881801 0.90689
Zn Zn 0.14489 0.173801 0.929569 0.90689
Zn Zn 0.368742 0.320704 0.629153 0.90689
Zn Zn 0.362427 0.327179 0.676718 0.90689
H_ H_ 0.311565 0.169871 0.944841 0.11455
H_ H_ 0.377729 0.164197 0.847201 0.11455
H_ H_ 0.291446 0.189811 0.855725 0.11455
H_ H_ 0.398421 0.17952 0.966469 0.11455
H_ H_ 0.485521 0.17301 0.957744 0.11455
H_ H_ 0.467053 0.178525 0.867689 0.11455
H_ H_ 0.0917821 0.0110003 0.935725 0.11455
H_ H_ 0.119651 0.432197 0.843135 0.11455
H_ H_ 0.185771 0.0208921 0.859843 0.11455
H_ H_ 0.140455 0.431847 0.963666 0.11455
H_ H_ 0.132774 0.338125 0.959548 0.11455
H_ H_ 0.1232 0.347381 0.867956 0.11455
H_ H_ 0.081245 0.110693 0.963191 0.11455
H_ H_ 0.0632407 0.0768212 0.516118 0.11455
H_ H_ 0.100822 0.124169 0.557788 0.11455
H_ H_ 0.205575 0.237823 0.974832 0.11455
H_ H_ 0.226949 0.292426 0.507267 0.11455
H_ H_ 0.201748 0.281316 0.559257 0.11455
H_ H_ 0.0168129 0.227341 0.628111 0.11455
H_ H_ 0.0173808 0.226511 0.680737 0.11455
H_ H_ 0.260683 0.159856 0.628911 0.11455
H_ H_ 0.253881 0.136967 0.68022 0.11455
H_ H_ 0.0864612 0.0881495 0.745848 0.11455
H_ H_ 0.0719213 0.0582765 0.793753 0.11455
H_ H_ 0.089854 0.113365 0.835331 0.11455
H_ H_ 0.1872 0.238872 0.757864 0.11455
H_ H_ 0.20661 0.293104 0.801242 0.11455
H_ H_ 0.17869 0.271634 0.847713 0.11455
H_ H_ 0.196232 0.330693 0.694121 0.11455
H_ H_ 0.121842 0.3363 0.597835 0.11455
H_ H_ 0.213994 0.333461 0.603232 0.11455
H_ H_ 0.111971 0.323284 0.714968 0.11455
H_ H_ 0.0216389 0.317078 0.709486 0.11455
H_ H_ 0.037863 0.346145 0.616653 0.11455
H_ H_ 0.375405 0.489353 0.690186 0.11455
H_ H_ 0.371435 0.0656967 0.596787 0.11455
H_ H_ 0.329472 0.47886 0.60292 0.11455
H_ H_ 0.403606 0.0822138 0.713224 0.11455
H_ H_ 0.406807 0.175858 0.706561 0.11455
H_ H_ 0.378587 0.154649 0.616559 0.11455
H_ H_ 0.393775 0.408201 0.715271 0.11455
H_ H_ 0.40948 0.433663 0.766423 0.11455
H_ H_ 0.395025 0.371699 0.803043 0.11455
H_ H_ 0.31739 0.247107 0.718222 0.11455
H_ H_ 0.310571 0.181638 0.756493 0.11455
H_ H_ 0.319913 0.203424 0.807861 0.11455
H_ H_ 0.494828 0.281415 0.871744 0.11455
H_ H_ 0.502704 0.297056 0.925565 0.11455
H_ H_ 0.248653 0.352362 0.881114 0.11455
H_ H_ 0.259211 0.364511 0.933294 0.11455
H_ H_ 0.449492 0.394385 0.000208404 0.11455
H_ H_ 0.442871 0.449302 0.541826 0.11455
H_ H_ 0.409703 0.399767 0.585334 0.11455
H_ H_ 0.337922 0.2649 0.505616 0.11455
H_ H_ 0.295428 0.225037 0.543815 0.11455
H_ H_ 0.31535 0.248765 0.595323 0.11455
C_ C_ 0.236627 0.188751 0.907656 0.68181
C_ C_ 0.292189 0.183563 0.90237 -0.05681
C_ C_ 0.326719 0.174607 0.924533 -0.08735
C_ C_ 0.37885 0.170867 0.920408 -0.05681
C_ C_ 0.398692 0.168238 0.892036 -0.05681
C_ C_ 0.364756 0.170007 0.869253 -0.08735
C_ C_ 0.313247 0.182298 0.8746 -0.08735
C_ C_ 0.411849 0.173677 0.943647 -0.08735
C_ C_ 0.463217 0.172882 0.939489 -0.08735
C_ C_ 0.485017 0.17017 0.912005 -0.05681
C_ C_ 0.451829 0.169135 0.888291 -0.08735
C_ C_ 0.13097 0.278382 0.910313 0.68181
C_ C_ 0.142869 0.0805713 0.902393 0.68181
C_ C_ 0.138424 0.0241738 0.897697 -0.05681
C_ C_ 0.14906 0.494158 0.918127 -0.08735
C_ C_ 0.135812 0.442472 0.917555 -0.05681
C_ C_ 0.126171 0.419131 0.889978 -0.05681
C_ C_ 0.123032 0.449694 0.865272 -0.08735
C_ C_ 0.125309 0.502607 0.868738 -0.08735
C_ C_ 0.136641 0.412186 0.942431 -0.08735
C_ C_ 0.128366 0.360081 0.940409 -0.08735
C_ C_ 0.128403 0.335543 0.913707 -0.05681
C_ C_ 0.126181 0.366869 0.888245 -0.08735
C_ C_ 0.0403414 0.172476 0.903586 0.68181
C_ C_ 0.101992 0.12538 0.981051 0.1947
C_ C_ 0.0823054 0.112541 0.512654 -0.08735
C_ C_ 0.104425 0.139166 0.535476 -0.08735
C_ C_ 0.129451 0.185135 0.529202 -0.05681
C_ C_ 0.137747 0.197507 0.499814 0.18498
C_ C_ 0.182589 0.236621 0.995152 -0.08735
C_ C_ 0.194655 0.266659 0.513211 -0.08735
C_ C_ 0.181815 0.258411 0.542362 -0.08735
C_ C_ 0.150658 0.217399 0.550502 0.18498
C_ C_ 0.188044 0.194655 0.595034 0.44287
C_ C_ 0.100559 0.211828 0.594052 0.44287
C_ C_ 0.0953075 0.202945 0.623916 -0.05681
C_ C_ 0.0501667 0.213743 0.639685 -0.08735
C_ C_ 0.0497824 0.209348 0.669052 -0.08735
C_ C_ 0.0943849 0.197331 0.684018 -0.05681
C_ C_ 0.139171 0.185299 0.669324 -0.05681
C_ C_ 0.141284 0.191752 0.639258 -0.05681
C_ C_ 0.185595 0.184815 0.624507 -0.05681
C_ C_ 0.226915 0.164913 0.639204 -0.08735
C_ C_ 0.225462 0.154217 0.669973 -0.08735
C_ C_ 0.179163 0.165796 0.684911 -0.05681
C_ C_ 0.175569 0.157719 0.715077 0.44287
C_ C_ 0.0921768 0.195201 0.714025 0.44287
C_ C_ 0.121844 0.158677 0.758117 0.18498
C_ C_ 0.093492 0.113119 0.76345 -0.08735
C_ C_ 0.0854904 0.0963071 0.79121 -0.08735
C_ C_ 0.102561 0.125622 0.814767 -0.08735
C_ C_ 0.124263 0.173667 0.81027 0.18498
C_ C_ 0.137602 0.189155 0.782012 -0.05681
C_ C_ 0.169027 0.231595 0.778966 -0.08735
C_ C_ 0.180439 0.260511 0.802285 -0.08735
C_ C_ 0.165339 0.246372 0.829583 0.1947
C_ C_ 0.266608 0.31819 0.652229 0.68181
C_ C_ 0.211017 0.319971 0.649364 -0.05681
C_ C_ 0.178804 0.323026 0.673247 -0.08735
C_ C_ 0.127075 0.329747 0.669831 -0.05681
C_ C_ 0.105106 0.332147 0.641943 -0.05681
C_ C_ 0.137664 0.332946 0.618295 -0.08735
C_ C_ 0.19016 0.329758 0.621649 -0.08735
C_ C_ 0.0972448 0.324412 0.693694 -0.08735
C_ C_ 0.0441979 0.327268 0.690492 -0.08735
C_ C_ 0.0217822 0.337837 0.663126 -0.05681
C_ C_ 0.0534336 0.338274 0.638625 -0.08735
C_ C_ 0.379464 0.226791 0.657008 0.68181
C_ C_ 0.352035 0.42291 0.64892 0.68181
C_ C_ 0.356225 0.4779 0.646717 -0.05681
C_ C_ 0.383738 0.0141251 0.674492 -0.08735
C_ C_ 0.387331 0.0651616 0.669845 -0.05681
C_ C_ 0.381834 0.0851273 0.641474 -0.05681
C_ C_ 0.373238 0.0512683 0.618659 -0.08735
C_ C_ 0.34452 0.501923 0.621166 -0.08735
C_ C_ 0.400869 0.0996362 0.692467 -0.08735
C_ C_ 0.396058 0.15066 0.688953 -0.08735
C_ C_ 0.384414 0.171668 0.661581 -0.05681
C_ C_ 0.383587 0.138155 0.637871 -0.08735
C_ C_ 0.463232 0.332157 0.655107 0.68181
C_ C_ 0.38486 0.380944 0.730981 0.1947
C_ C_ 0.3912 0.397452 0.760505 -0.08735
C_ C_ 0.387366 0.361301 0.781812 -0.08735
C_ C_ 0.361473 0.314635 0.776536 -0.05681
C_ C_ 0.34881 0.302205 0.747121 0.18498
C_ C_ 0.327057 0.255492 0.741417 -0.08735
C_ C_ 0.324166 0.21716 0.762842 -0.08735
C_ C_ 0.328755 0.232428 0.791212 -0.08735
C_ C_ 0.351849 0.278463 0.79882 0.18498
C_ C_ 0.322464 0.317533 0.843544 0.44287
C_ C_ 0.403347 0.279715 0.841436 0.44287
C_ C_ 0.412095 0.291039 0.870368 -0.05681
C_ C_ 0.46011 0.282879 0.884371 -0.08735
C_ C_ 0.464359 0.292686 0.914472 -0.08735
C_ C_ 0.421756 0.299357 0.931759 -0.05681
C_ C_ 0.378574 0.318287 0.917652 -0.05681
C_ C_ 0.370361 0.308394 0.887453 -0.05681
C_ C_ 0.322597 0.318724 0.874454 -0.05681
C_ C_ 0.283577 0.343013 0.891866 -0.08735
C_ C_ 0.288999 0.348747 0.921221 -0.08735
C_ C_ 0.336501 0.335284 0.934111 -0.05681
C_ C_ 0.340385 0.334489 0.965639 0.44287
C_ C_ 0.425499 0.303254 0.962631 0.44287
C_ C_ 0.393889 0.349921 0.507647 0.18498
C_ C_ 0.415971 0.396657 0.512751 -0.08735
C_ C_ 0.424855 0.413704 0.540255 -0.08735
C_ C_ 0.404846 0.388088 0.564147 -0.08735
C_ C_ 0.383906 0.336575 0.559782 0.18498
C_ C_ 0.37627 0.321166 0.530895 -0.05681
C_ C_ 0.342845 0.280558 0.52641 -0.08735
C_ C_ 0.322424 0.253518 0.549915 -0.08735
C_ C_ 0.334435 0.267327 0.577585 0.1947
N_ N_ 0.136193 0.163525 0.976181 -0.29468
N_ N_ 0.145679 0.207699 0.580698 -0.17154
N_ N_ 0.13079 0.171178 0.729142 -0.17154
N_ N_ 0.140746 0.201243 0.833635 -0.29468
N_ N_ 0.363458 0.334759 0.726131 -0.29468
N_ N_ 0.358539 0.291978 0.828528 -0.17154
N_ N_ 0.38687 0.322172 0.978204 -0.17154
N_ N_ 0.363979 0.307953 0.58244 -0.29468
O_ O_ 0.217476 0.175128 0.931921 -0.58347
O_ O_ 0.208782 0.203209 0.886977 -0.58347
O_ O_ 0.1493 0.252423 0.930405 -0.58347
O_ O_ 0.11931 0.256288 0.887504 -0.58347
O_ O_ 0.146591 0.0966924 0.927822 -0.58347
O_ O_ 0.146434 0.110213 0.881053 -0.58347
O_ O_ 0.0692921 0.174031 0.925848 -0.58347
O_ O_ 0.0608606 0.165487 0.879699 -0.58347
O_ O_ 0.0612094 0.226663 0.578975 -0.46727
O_ O_ 0.2302 0.184735 0.580831 -0.46727
O_ O_ 0.0505994 0.212496 0.72821 -0.46727
O_ O_ 0.212516 0.137545 0.730843 -0.46727
O_ O_ 0.287817 0.320764 0.677063 -0.58347
O_ O_ 0.294564 0.310028 0.630107 -0.58347
O_ O_ 0.369269 0.254686 0.67852 -0.58347
O_ O_ 0.381257 0.245503 0.632384 -0.58347
O_ O_ 0.35449 0.403415 0.673109 -0.58347
O_ O_ 0.354489 0.396203 0.627298 -0.58347
O_ O_ 0.435029 0.338375 0.675984 -0.58347
O_ O_ 0.442864 0.326115 0.630388 -0.58347
O_ O_ 0.434051 0.249864 0.829371 -0.46727
O_ O_ 0.278461 0.327884 0.830563 -0.46727
O_ O_ 0.46539 0.285666 0.975771 -0.46727
O_ O_ 0.301291 0.338244 0.982169 -0.46727
Zn Zn 0.12509 0.68929 0.380513 0.90689
Zn Zn 0.136895 0.688149 0.429607 0.90689
Zn Zn 0.377257 0.807616 0.134699 0.90689
Zn Zn 0.369588 0.813535 0.181891 0.90689
H_ H_ 0.306289 0.699497 0.442211 0.11455
H_ H_ 0.371875 0.661364 0.344068 0.11455
H_ H_ 0.278166 0.673842 0.351711 0.11455
H_ H_ 0.385947 0.694421 0.461493 0.11455
H_ H_ 0.478462 0.682237 0.454551 0.11455
H_ H_ 0.457448 0.655987 0.366572 0.11455
H_ H_ 0.149997 0.520567 0.442689 0.11455
H_ H_ 0.124898 0.939179 0.344142 0.11455
H_ H_ 0.143286 0.532759 0.350349 0.11455
H_ H_ 0.152383 0.931346 0.462119 0.11455
H_ H_ 0.138246 0.841964 0.458585 0.11455
H_ H_ 0.114094 0.857167 0.367512 0.11455
H_ H_ 0.0910576 0.617536 0.466924 0.11455
H_ H_ 0.0520982 0.583267 0.013004 0.11455
H_ H_ 0.0947552 0.623203 0.053082 0.11455
H_ H_ 0.19826 0.762986 0.470746 0.11455
H_ H_ 0.240898 0.780311 0.0145027 0.11455
H_ H_ 0.213964 0.758355 0.0631476 0.11455
H_ H_ 0.0222266 0.712756 0.123511 0.11455
H_ H_ 0.0123842 0.701926 0.176866 0.11455
H_ H_ 0.265431 0.640259 0.138395 0.11455
H_ H_ 0.256294 0.647738 0.19038 0.11455
H_ H_ 0.0823176 0.579078 0.251743 0.11455
H_ H_ 0.0404739 0.570276 0.297887 0.11455
H_ H_ 0.067338 0.630189 0.337654 0.11455
H_ H_ 0.162 0.737569 0.252509 0.11455
H_ H_ 0.191303 0.794021 0.293834 0.11455
H_ H_ 0.180286 0.765952 0.34242 0.11455
H_ H_ 0.206988 0.812043 0.195671 0.11455
H_ H_ 0.130896 0.840879 0.100522 0.11455
H_ H_ 0.221541 0.832637 0.10707 0.11455
H_ H_ 0.118356 0.816886 0.217802 0.11455
H_ H_ 0.021498 0.82283 0.211076 0.11455
H_ H_ 0.0432238 0.835421 0.120987 0.11455
H_ H_ 0.388082 0.981274 0.193099 0.11455
H_ H_ 0.361387 0.559306 0.0977416 0.11455
H_ H_ 0.330219 0.9645 0.108002 0.11455
H_ H_ 0.344033 0.563726 0.216428 0.11455
H_ H_ 0.349354 0.655372 0.211913 0.11455
H_ H_ 0.388172 0.641249 0.123805 0.11455
H_ H_ 0.429224 0.878772 0.214965 0.11455
H_ H_ 0.433283 0.923972 0.265389 0.11455
H_ H_ 0.392735 0.879555 0.30358 0.11455
H_ H_ 0.30996 0.746966 0.226406 0.11455
H_ H_ 0.29623 0.692189 0.26612 0.11455
H_ H_ 0.317438 0.715143 0.313794 0.11455
H_ H_ 0.49956 0.802828 0.371001 0.11455
H_ H_ 0.508578 0.805642 0.424009 0.11455
H_ H_ 0.245307 0.818687 0.390732 0.11455
H_ H_ 0.259796 0.831049 0.441658 0.11455
H_ H_ 0.444333 0.912622 0.497352 0.11455
H_ H_ 0.447035 0.929668 0.0529636 0.11455
H_ H_ 0.423759 0.881967 0.0913061 0.11455
H_ H_ 0.351526 0.746032 0.0107703 0.11455
H_ H_ 0.313915 0.702438 0.0507409 0.11455
H_ H_ 0.332936 0.729618 0.100152 0.11455
C_ C_ 0.228962 0.693317 0.402851 0.68181
C_ C_ 0.283429 0.685497 0.398559 -0.05681
C_ C_ 0.3174 0.689749 0.42082 -0.08735
C_ C_ 0.369887 0.682354 0.417007 -0.05681
C_ C_ 0.38754 0.6684 0.390066 -0.05681
C_ C_ 0.354736 0.668257 0.365792 -0.08735
C_ C_ 0.30217 0.673421 0.37034 -0.08735
C_ C_ 0.401242 0.682674 0.441016 -0.08735
C_ C_ 0.45331 0.674157 0.437546 -0.08735
C_ C_ 0.473302 0.661273 0.41033 -0.05681
C_ C_ 0.439799 0.657708 0.387577 -0.08735
C_ C_ 0.128976 0.785847 0.410813 0.68181
C_ C_ 0.142154 0.590256 0.399937 0.68181
C_ C_ 0.141451 0.534084 0.398045 -0.05681
C_ C_ 0.135884 1.0019202 0.419371 -0.08735
C_ C_ 0.134427 0.947912 0.416969 -0.05681
C_ C_ 0.128483 0.925776 0.390387 -0.05681
C_ C_ 0.127994 0.954993 0.365164 -0.08735
C_ C_ 0.133012 1.00842948 0.367393 -0.08735
C_ C_ 0.142505 0.916529 0.440931 -0.08735
C_ C_ 0.136746 0.863738 0.438777 -0.08735
C_ C_ 0.12231 0.841339 0.412695 -0.05681
C_ C_ 0.122193 0.872927 0.388508 -0.08735
C_ C_ 0.0335504 0.686202 0.407592 0.68181
C_ C_ 0.109537 0.636612 0.483891 0.1947
C_ C_ 0.0840604 0.60869 0.008244 -0.08735
C_ C_ 0.107072 0.634492 0.0311778 -0.08735
C_ C_ 0.144329 0.671784 0.0272622 -0.05681
C_ C_ 0.154982 0.687361 0.999019 0.18498
C_ C_ 0.183607 0.753106 0.492788 -0.08735
C_ C_ 0.2119 0.752283 0.0175712 -0.08735
C_ C_ 0.202248 0.736081 0.0453763 -0.08735
C_ C_ 0.16621 0.698307 0.0509882 0.18498
C_ C_ 0.19683 0.668533 0.0988885 0.44287
C_ C_ 0.109702 0.696266 0.093965 0.44287
C_ C_ 0.100377 0.688484 0.123836 -0.05681
C_ C_ 0.0559585 0.703014 0.135689 -0.08735
C_ C_ 0.0489588 0.695828 0.166593 -0.08735
C_ C_ 0.0881592 0.680033 0.18416 -0.05681
C_ C_ 0.134969 0.670915 0.17145 -0.05681
C_ C_ 0.14095 0.667954 0.14071 -0.05681
C_ C_ 0.186675 0.656018 0.127807 -0.05681
C_ C_ 0.227516 0.644474 0.146458 -0.08735
C_ C_ 0.223034 0.648362 0.1761 -0.08735
C_ C_ 0.175278 0.656805 0.188634 -0.05681
C_ C_ 0.169118 0.64916 0.218389 0.44287
C_ C_ 0.0842553 0.679699 0.213855 0.44287
C_ C_ 0.116729 0.648809 0.260972 0.18498
C_ C_ 0.0880195 0.606878 0.267491 -0.08735
C_ C_ 0.0658782 0.601524 0.29498 -0.08735
C_ C_ 0.0772524 0.637959 0.316142 -0.08735
C_ C_ 0.114235 0.676568 0.311091 0.18498
C_ C_ 0.131751 0.681834 0.282857 -0.05681
C_ C_ 0.156934 0.726986 0.275411 -0.08735
C_ C_ 0.169035 0.760721 0.297849 -0.08735
C_ C_ 0.16019 0.747047 0.325873 0.1947
C_ C_ 0.275539 0.81564 0.156099 0.68181
C_ C_ 0.219152 0.816902 0.152901 -0.05681
C_ C_ 0.188724 0.81813 0.177101 -0.08735
C_ C_ 0.135847 0.821072 0.17368 -0.05681
C_ C_ 0.11459 0.829113 0.145209 -0.05681
C_ C_ 0.146921 0.827512 0.121304 -0.08735
C_ C_ 0.198331 0.825004 0.12541 -0.08735
C_ C_ 0.101428 0.820615 0.196788 -0.08735
C_ C_ 0.0480817 0.817956 0.193013 -0.08735
C_ C_ 0.0303855 0.818834 0.164319 -0.05681
C_ C_ 0.0606277 0.828521 0.140929 -0.08735
C_ C_ 0.368947 0.711312 0.165054 0.68181
C_ C_ 0.373839 0.911866 0.152214 0.68181
C_ C_ 0.366313 0.96812 0.149159 -0.05681
C_ C_ 0.358659 0.497006 0.172907 -0.08735
C_ C_ 0.354284 0.550526 0.170897 -0.05681
C_ C_ 0.358892 0.574629 0.143215 -0.05681
C_ C_ 0.353426 0.546235 0.118304 -0.08735
C_ C_ 0.340101 -0.011382000000000003 0.12591 -0.08735
C_ C_ 0.351011 0.580451 0.195809 -0.08735
C_ C_ 0.36132 0.632545 0.193486 -0.08735
C_ C_ 0.373333 0.656939 0.16732 -0.05681
C_ C_ 0.369383 0.627099 0.142286 -0.08735
C_ C_ 0.470513 0.809554 0.157102 0.68181
C_ C_ 0.406017 0.86783 0.231442 0.1947
C_ C_ 0.4137 0.888313 0.259436 -0.08735
C_ C_ 0.385339 0.86624 0.281858 -0.08735
C_ C_ 0.363926 0.818684 0.278866 -0.05681
C_ C_ 0.353974 0.802786 0.250632 0.18498
C_ C_ 0.322124 0.759209 0.247295 -0.08735
C_ C_ 0.30985 0.729265 0.269942 -0.08735
C_ C_ 0.328472 0.739658 0.297296 -0.08735
C_ C_ 0.351998 0.787092 0.302273 0.18498
C_ C_ 0.320301 0.80745 0.349712 0.44287
C_ C_ 0.410227 0.798082 0.34311 0.44287
C_ C_ 0.417202 0.805133 0.373199 -0.05681
C_ C_ 0.467205 0.808806 0.385189 -0.08735
C_ C_ 0.472002 0.812549 0.41465 -0.08735
C_ C_ 0.431467 0.817367 0.433186 -0.05681
C_ C_ 0.382239 0.816215 0.421181 -0.05681
C_ C_ 0.375743 0.811484 0.39059 -0.05681
C_ C_ 0.327488 0.812484 0.379113 -0.05681
C_ C_ 0.28576 0.82107 0.397467 -0.08735
C_ C_ 0.292009 0.827315 0.427562 -0.08735
C_ C_ 0.34056 0.824115 0.438941 -0.05681
C_ C_ 0.349617 0.833177 0.468467 0.44287
C_ C_ 0.437757 0.820257 0.463471 0.44287
C_ C_ 0.398148 0.835151 0.012253 0.18498
C_ C_ 0.419748 0.883023 0.0179835 -0.08735
C_ C_ 0.424408 0.898404 0.0461549 -0.08735
C_ C_ 0.416405 0.866858 0.0695363 -0.08735
C_ C_ 0.397028 0.817569 0.0652909 0.18498
C_ C_ 0.382956 0.803524 0.0367547 -0.05681
C_ C_ 0.360602 0.757929 0.0318664 -0.08735
C_ C_ 0.339049 0.73245 0.0549017 -0.08735
C_ C_ 0.353671 0.747574 0.0824627 0.1947
N_ N_ 0.135916 0.678719 0.478567 -0.29468
N_ N_ 0.157377 0.685678 0.0815679 -0.17154
N_ N_ 0.123699 0.664542 0.230969 -0.17154
N_ N_ 0.137649 0.702434 0.333142 -0.29468
N_ N_ 0.373151 0.828992 0.227852 -0.29468
N_ N_ 0.361878 0.80327 0.331403 -0.17154
N_ N_ 0.397241 0.830816 0.480348 -0.17154
N_ N_ 0.383975 0.787456 0.0879233 -0.29468
O_ O_ 0.211658 0.694315 0.428692 -0.58347
O_ O_ 0.201456 0.691836 0.380801 -0.58347
O_ O_ 0.131174 0.759555 0.434213 -0.58347
O_ O_ 0.123166 0.762758 0.387148 -0.58347
O_ O_ 0.14604 0.613403 0.42396 -0.58347
O_ O_ 0.128688 0.612475 0.376125 -0.58347
O_ O_ 0.0628359 0.683644 0.429155 -0.58347
O_ O_ 0.052037 0.689907 0.382423 -0.58347
O_ O_ 0.0797771 0.726183 0.0798757 -0.46727
O_ O_ 0.239943 0.657796 0.0872687 -0.46727
O_ O_ 0.0462658 0.701978 0.226797 -0.46727
O_ O_ 0.207691 0.639088 0.235604 -0.46727
O_ O_ 0.297346 0.822007 0.180366 -0.58347
O_ O_ 0.301277 0.799183 0.135083 -0.58347
O_ O_ 0.364189 0.737515 0.188144 -0.58347
O_ O_ 0.384183 0.732601 0.141446 -0.58347
O_ O_ 0.370504 0.892315 0.175895 -0.58347
O_ O_ 0.371236 0.883618 0.130871 -0.58347
O_ O_ 0.443938 0.809232 0.179925 -0.58347
O_ O_ 0.452238 0.81814 0.132738 -0.58347
O_ O_ 0.449857 0.787104 0.326171 -0.46727
O_ O_ 0.272895 0.801523 0.339898 -0.46727
O_ O_ 0.483501 0.819287 0.475899 -0.46727
O_ O_ 0.314187 0.856531 0.48357 -0.46727
Zn Zn 0.136307 0.680063 0.881824 0.90689
Zn Zn 0.145031 0.681943 0.929058 0.90689
Zn Zn 0.381776 0.822192 0.632846 0.90689
Zn Zn 0.371449 0.82303 0.680888 0.90689
H_ H_ 0.313728 0.704735 0.943196 0.11455
H_ H_ 0.380196 0.655917 0.847435 0.11455
H_ H_ 0.2848 0.665206 0.856219 0.11455
H_ H_ 0.398504 0.698603 0.963332 0.11455
H_ H_ 0.49064 0.692806 0.955396 0.11455
H_ H_ 0.466948 0.655972 0.868724 0.11455
H_ H_ 0.161483 0.506573 0.939382 0.11455
H_ H_ 0.190123 0.931122 0.856018 0.11455
H_ H_ 0.119024 0.525927 0.85044 0.11455
H_ H_ 0.0652413 0.922184 0.951835 0.11455
H_ H_ 0.085377 0.835472 0.955743 0.11455
H_ H_ 0.154993 0.844873 0.870812 0.11455
H_ H_ 0.0817395 0.603769 0.962057 0.11455
H_ H_ 0.0928581 0.578413 0.51641 0.11455
H_ H_ 0.131687 0.629049 0.5551 0.11455
H_ H_ 0.201047 0.73824 0.974256 0.11455
H_ H_ 0.219233 0.821647 0.508729 0.11455
H_ H_ 0.21066 0.792997 0.558745 0.11455
H_ H_ 1.0241435 0.732109 0.620108 0.11455
H_ H_ 1.0103408 0.719778 0.667917 0.11455
H_ H_ 0.272022 0.691386 0.636808 0.11455
H_ H_ 0.261559 0.668523 0.686049 0.11455
H_ H_ 0.0720324 0.595757 0.743193 0.11455
H_ H_ 0.0639732 0.563096 0.791817 0.11455
H_ H_ 0.0874978 0.608822 0.833397 0.11455
H_ H_ 0.154462 0.760619 0.757656 0.11455
H_ H_ 0.188847 0.804368 0.800676 0.11455
H_ H_ 0.181961 0.763338 0.846722 0.11455
H_ H_ 0.20242 0.832017 0.692878 0.11455
H_ H_ 0.132461 0.855493 0.597777 0.11455
H_ H_ 0.229453 0.847103 0.604124 0.11455
H_ H_ 0.118473 0.830483 0.714816 0.11455
H_ H_ 0.027733 0.831892 0.706423 0.11455
H_ H_ 0.0477106 0.847335 0.614588 0.11455
H_ H_ 0.380494 1.00099 0.696379 0.11455
H_ H_ 0.337993 0.571026 0.599607 0.11455
H_ H_ 0.356012 0.97396 0.605982 0.11455
H_ H_ 0.391171 0.576682 0.714116 0.11455
H_ H_ 0.385732 0.669647 0.710452 0.11455
H_ H_ 0.35718 0.657013 0.619645 0.11455
H_ H_ 0.43125 0.889896 0.71763 0.11455
H_ H_ 0.458181 0.903375 0.764017 0.11455
H_ H_ 0.417063 0.864561 0.804554 0.11455
H_ H_ 0.30933 0.756438 0.724777 0.11455
H_ H_ 0.284587 0.698133 0.765064 0.11455
H_ H_ 0.316387 0.715209 0.81383 0.11455
H_ H_ 0.495238 0.783359 0.875662 0.11455
H_ H_ 0.504367 0.78453 0.929109 0.11455
H_ H_ 0.251598 0.841899 0.887997 0.11455
H_ H_ 0.253656 0.833978 0.94063 0.11455
H_ H_ 0.425239 0.908566 1.000384415 0.11455
H_ H_ 0.470553 0.94038 0.547459 0.11455
H_ H_ 0.436605 0.892698 0.590586 0.11455
H_ H_ 0.36344 0.756482 0.508981 0.11455
H_ H_ 0.324147 0.711783 0.549153 0.11455
H_ H_ 0.337114 0.744051 0.598622 0.11455
C_ C_ 0.237359 0.682881 0.906909 0.68181
C_ C_ 0.293113 0.681297 0.900843 -0.05681
C_ C_ 0.328117 0.689812 0.922795 -0.08735
C_ C_ 0.379208 0.680181 0.919079 -0.05681
C_ C_ 0.398353 0.666449 0.891792 -0.05681
C_ C_ 0.364388 0.666171 0.867749 -0.08735
C_ C_ 0.312589 0.673635 0.872715 -0.08735
C_ C_ 0.414175 0.687032 0.94254 -0.08735
C_ C_ 0.464021 0.676184 0.93899 -0.08735
C_ C_ 0.483888 0.666811 0.912408 -0.05681
C_ C_ 0.450205 0.655537 0.888831 -0.08735
C_ C_ 0.13267 0.779443 0.914447 0.68181
C_ C_ 0.147431 0.581107 0.896038 0.68181
C_ C_ 0.142279 0.524999 0.894514 -0.05681
C_ C_ 0.112309 0.993759 0.917429 -0.08735
C_ C_ 0.11396 0.93967 0.916105 -0.05681
C_ C_ 0.140964 0.916788 0.892927 -0.05681
C_ C_ 0.167793 0.94681 0.873476 -0.08735
C_ C_ 0.165791 9.2549e-05 0.876829 -0.08735
C_ C_ 0.0896612 0.908384 0.936041 -0.08735
C_ C_ 0.0961842 0.856736 0.936143 -0.08735
C_ C_ 0.122612 0.833672 0.913083 -0.05681
C_ C_ 0.140776 0.863407 0.88981 -0.08735
C_ C_ 0.0432842 0.663763 0.906078 0.68181
C_ C_ 0.0991037 0.622146 0.980586 0.1947
C_ C_ 0.106821 0.61851 0.511563 -0.08735
C_ C_ 0.129998 0.647142 0.533722 -0.08735
C_ C_ 0.14984 0.695637 0.528872 -0.05681
C_ C_ 0.157196 0.707846 0.49995 0.18498
C_ C_ 0.19027 0.725372 0.994711 -0.08735
C_ C_ 0.205493 0.781538 0.513807 -0.08735
C_ C_ 0.197362 0.769485 0.542773 -0.08735
C_ C_ 0.170315 0.725093 0.550828 0.18498
C_ C_ 0.199809 0.696554 0.59707 0.44287
C_ C_ 0.114009 0.72364 0.590183 0.44287
C_ C_ 0.103907 0.71661 0.619882 -0.05681
C_ C_ 0.0571111 0.721775 0.631642 -0.08735
C_ C_ 0.0488153 0.716517 0.660392 -0.08735
C_ C_ 0.0886934 0.705723 0.679677 -0.05681
C_ C_ 0.136058 0.696262 0.667008 -0.05681
C_ C_ 0.143131 0.699855 0.637614 -0.05681
C_ C_ 0.193919 0.696517 0.626612 -0.05681
C_ C_ 0.233494 0.685671 0.645541 -0.08735
C_ C_ 0.228412 0.683282 0.675264 -0.08735
C_ C_ 0.176741 0.684219 0.685751 -0.05681
C_ C_ 0.166201 0.676476 0.716047 0.44287
C_ C_ 0.0797062 0.696431 0.709143 0.44287
C_ C_ 0.106427 0.669771 0.755904 0.18498
C_ C_ 0.0819323 0.621007 0.760377 -0.08735
C_ C_ 0.0803328 0.600745 0.787836 -0.08735
C_ C_ 0.089278 0.630032 0.812675 -0.08735
C_ C_ 0.112545 0.678725 0.809497 0.18498
C_ C_ 0.120605 0.699796 0.780996 -0.05681
C_ C_ 0.146518 0.744805 0.777981 -0.08735
C_ C_ 0.166615 0.769368 0.802297 -0.08735
C_ C_ 0.161621 0.746622 0.828807 0.1947
C_ C_ 0.276599 0.824433 0.656243 0.68181
C_ C_ 0.221291 0.82866 0.649407 -0.05681
C_ C_ 0.187062 0.830501 0.672751 -0.08735
C_ C_ 0.134677 0.839832 0.669445 -0.05681
C_ C_ 0.114349 0.840621 0.640947 -0.05681
C_ C_ 0.148011 0.841782 0.618146 -0.08735
C_ C_ 0.202193 0.838354 0.622206 -0.08735
C_ C_ 0.101666 0.832496 0.693329 -0.08735
C_ C_ 0.051445 0.832823 0.687845 -0.08735
C_ C_ 0.0299719 0.836053 0.660238 -0.05681
C_ C_ 0.0618602 0.842157 0.636732 -0.08735
C_ C_ 0.375464 0.724532 0.661159 0.68181
C_ C_ 0.373044 0.9228 0.654189 0.68181
C_ C_ 0.372169 0.979987 0.651099 -0.05681
C_ C_ 0.371148 0.507954 0.670501 -0.08735
C_ C_ 0.37431 0.560834 0.667849 -0.05681
C_ C_ 0.361231 0.584244 0.641966 -0.05681
C_ C_ 0.352168 0.552934 0.618534 -0.08735
C_ C_ 0.367038 0.999498365 0.623552 -0.08735
C_ C_ 0.383224 0.591448 0.693071 -0.08735
C_ C_ 0.382451 0.644457 0.691272 -0.08735
C_ C_ 0.373929 0.668545 0.664151 -0.05681
C_ C_ 0.364922 0.637761 0.639447 -0.08735
C_ C_ 0.474 0.821843 0.657896 0.68181
C_ C_ 0.410574 0.8688 0.734139 0.1947
C_ C_ 0.424646 0.88044 0.762091 -0.08735
C_ C_ 0.402739 0.856169 0.78494 -0.08735
C_ C_ 0.369732 0.815488 0.77956 -0.05681
C_ C_ 0.355584 0.803508 0.750602 0.18498
C_ C_ 0.321524 0.763087 0.746198 -0.08735
C_ C_ 0.308653 0.72985 0.768269 -0.08735
C_ C_ 0.323044 0.739859 0.796022 -0.08735
C_ C_ 0.353591 0.782216 0.802913 0.18498
C_ C_ 0.320068 0.808027 0.84961 0.44287
C_ C_ 0.406283 0.788682 0.845793 0.44287
C_ C_ 0.413534 0.795198 0.875603 -0.05681
C_ C_ 0.460645 0.785353 0.888409 -0.08735
C_ C_ 0.467575 0.792223 0.918364 -0.08735
C_ C_ 0.425476 0.804737 0.935467 -0.05681
C_ C_ 0.37574 0.808898 0.923843 -0.05681
C_ C_ 0.371608 0.808024 0.892789 -0.05681
C_ C_ 0.324572 0.815609 0.879503 -0.05681
C_ C_ 0.283877 0.829284 0.897963 -0.08735
C_ C_ 0.2879 0.828221 0.927654 -0.08735
C_ C_ 0.334279 0.818779 0.940835 -0.05681
C_ C_ 0.341095 0.825806 0.970554 0.44287
C_ C_ 0.429252 0.807039 0.965195 0.44287
C_ C_ 0.404633 0.84886 0.509529 0.18498
C_ C_ 0.428992 0.894081 0.515378 -0.08735
C_ C_ 0.441085 0.909203 0.543812 -0.08735
C_ C_ 0.426828 0.879307 0.567793 -0.08735
C_ C_ 0.392822 0.838853 0.561945 0.18498
C_ C_ 0.388084 0.820865 0.532764 -0.05681
C_ C_ 0.361747 0.775397 0.529494 -0.08735
C_ C_ 0.343892 0.746913 0.553362 -0.08735
C_ C_ 0.351989 0.765234 0.580542 0.1947
N_ N_ 0.133329 0.659969 0.976246 -0.29468
N_ N_ 0.160888 0.713927 0.580394 -0.17154
N_ N_ 0.119347 0.68525 0.727212 -0.17154
N_ N_ 0.131809 0.703664 0.832312 -0.29468
N_ N_ 0.376904 0.830061 0.728052 -0.29468
N_ N_ 0.359855 0.795232 0.833444 -0.17154
N_ N_ 0.389723 0.820122 0.982417 -0.17154
N_ N_ 0.377291 0.809139 0.584499 -0.29468
O_ O_ 0.219256 0.678254 0.932458 -0.58347
O_ O_ 0.208677 0.694316 0.88569 -0.58347
O_ O_ 0.137869 0.758016 0.938728 -0.58347
O_ O_ 0.120587 0.752373 0.892519 -0.58347
O_ O_ 0.144855 0.602143 0.92023 -0.58347
O_ O_ 0.151567 0.607958 0.873161 -0.58347
O_ O_ 0.0693057 0.678771 0.927211 -0.58347
O_ O_ 0.0679546 0.659992 0.881609 -0.58347
O_ O_ 0.0755154 0.733705 0.573328 -0.46727
O_ O_ 0.245951 0.693525 0.585478 -0.46727
O_ O_ 0.0369085 0.706205 0.720724 -0.46727
O_ O_ 0.20285 0.670691 0.733356 -0.46727
O_ O_ 0.296241 0.832879 0.681365 -0.58347
O_ O_ 0.305361 0.80668 0.636667 -0.58347
O_ O_ 0.364889 0.750918 0.683322 -0.58347
O_ O_ 0.393611 0.742861 0.63786 -0.58347
O_ O_ 0.374656 0.899647 0.678896 -0.58347
O_ O_ 0.371813 0.895302 0.632013 -0.58347
O_ O_ 0.446819 0.813846 0.679501 -0.58347
O_ O_ 0.45409 0.832992 0.634913 -0.58347
O_ O_ 0.445736 0.777354 0.829679 -0.46727
O_ O_ 0.275776 0.819476 0.835725 -0.46727
O_ O_ 0.47353 0.802748 0.977066 -0.46727
O_ O_ 0.302888 0.83306 0.987799 -0.46727
Zn Zn 0.611068 0.177766 0.38354 0.90689
Zn Zn 0.621008 0.175414 0.431255 0.90689
Zn Zn 0.863658 0.314067 0.133991 0.90689
Zn Zn 0.850568 0.311456 0.182686 0.90689
H_ H_ 0.789275 0.208206 0.440858 0.11455
H_ H_ 0.859839 0.189447 0.342927 0.11455
H_ H_ 0.766488 0.169413 0.353508 0.11455
H_ H_ 0.879394 0.206446 0.462938 0.11455
H_ H_ 0.9696 0.217445 0.453692 0.11455
H_ H_ 0.944787 0.186763 0.364119 0.11455
H_ H_ 0.62519 0.00777122 0.443734 0.11455
H_ H_ 0.641715 0.42517 0.352408 0.11455
H_ H_ 0.66095 0.0239749 0.35342 0.11455
H_ H_ 0.594532 0.427273 0.467637 0.11455
H_ H_ 0.581547 0.336375 0.463775 0.11455
H_ H_ 0.620161 0.345946 0.374195 0.11455
H_ H_ 0.565259 0.112013 0.47278 0.11455
H_ H_ 0.571285 0.0637419 0.00957782 0.11455
H_ H_ 0.609326 0.09828 0.0508454 0.11455
H_ H_ 0.672905 0.25063 0.471288 0.11455
H_ H_ 0.706317 0.29674 0.0198442 0.11455
H_ H_ 0.680843 0.272275 0.0638697 0.11455
H_ H_ 0.501086 0.193019 0.119915 0.11455
H_ H_ 0.48677 0.196293 0.172036 0.11455
H_ H_ 0.753188 0.15906 0.141845 0.11455
H_ H_ 0.737136 0.145261 0.19162 0.11455
H_ H_ 0.547776 0.0750995 0.251616 0.11455
H_ H_ 0.52851 0.0554155 0.301035 0.11455
H_ H_ 0.559275 0.105305 0.339584 0.11455
H_ H_ 0.629524 0.245264 0.259245 0.11455
H_ H_ 0.67157 0.284286 0.298603 0.11455
H_ H_ 0.661364 0.255007 0.34514 0.11455
H_ H_ 0.686773 0.290794 0.198882 0.11455
H_ H_ 0.617788 0.331246 0.10308 0.11455
H_ H_ 0.706386 0.317424 0.108442 0.11455
H_ H_ 0.595328 0.302363 0.217409 0.11455
H_ H_ 0.50618 0.313937 0.209386 0.11455
H_ H_ 0.533396 0.323872 0.119082 0.11455
H_ H_ 0.862441 0.4814 0.199335 0.11455
H_ H_ 0.877094 0.0610708 0.0955317 0.11455
H_ H_ 0.850079 0.467687 0.10928 0.11455
H_ H_ 0.898166 0.0697295 0.215922 0.11455
H_ H_ 0.896332 0.157467 0.211451 0.11455
H_ H_ 0.875027 0.14679 0.120536 0.11455
H_ H_ 0.896414 0.398271 0.216367 0.11455
H_ H_ 0.901107 0.435132 0.264354 0.11455
H_ H_ 0.883966 0.379033 0.3043 0.11455
H_ H_ 0.810737 0.239479 0.225832 0.11455
H_ H_ 0.774526 0.196941 0.26827 0.11455
H_ H_ 0.767258 0.235283 0.315039 0.11455
H_ H_ 0.97466 0.311119 0.370028 0.11455
H_ H_ -0.010514000000000023 0.325911 0.421176 0.11455
H_ H_ 0.724231 0.347799 0.39296 0.11455
H_ H_ 0.743545 0.360704 0.444269 0.11455
H_ H_ 0.940376 0.422619 0.500551 0.11455
H_ H_ 0.952873 0.433008 0.0498085 0.11455
H_ H_ 0.915421 0.390025 0.0889985 0.11455
H_ H_ 0.823911 0.267011 0.00821349 0.11455
H_ H_ 0.799028 0.212953 0.0494203 0.11455
H_ H_ 0.810704 0.242616 0.0988906 0.11455
C_ C_ 0.714416 0.183469 0.403725 0.68181
C_ C_ 0.771213 0.191307 0.397888 -0.05681
C_ C_ 0.805125 0.198919 0.421075 -0.08735
C_ C_ 0.857436 0.19735 0.416204 -0.05681
C_ C_ 0.876827 0.187862 0.389361 -0.05681
C_ C_ 0.844347 0.185697 0.365454 -0.08735
C_ C_ 0.791729 0.183987 0.369796 -0.08735
C_ C_ 0.891897 0.203883 0.440511 -0.08735
C_ C_ 0.942446 0.208758 0.43564 -0.08735
C_ C_ 0.963888 0.197743 0.408762 -0.05681
C_ C_ 0.929177 0.187529 0.385727 -0.08735
C_ C_ 0.605023 0.274072 0.416081 0.68181
C_ C_ 0.632402 0.0801527 0.401267 0.68181
C_ C_ 0.639376 0.0245488 0.398294 -0.05681
C_ C_ 0.616139 0.492387 0.425214 -0.08735
C_ C_ 0.619456 0.438063 0.424237 -0.05681
C_ C_ 0.627243 0.413795 0.397735 -0.05681
C_ C_ 0.638604 0.444305 0.373142 -0.08735
C_ C_ 0.639017 0.496439 0.374741 -0.08735
C_ C_ 0.60399 0.409231 0.44826 -0.08735
C_ C_ 0.600572 0.357302 0.446063 -0.08735
C_ C_ 0.608584 0.331573 0.419363 -0.05681
C_ C_ 0.62041 0.361293 0.395465 -0.08735
C_ C_ 0.518447 0.165724 0.408734 0.68181
C_ C_ 0.586278 0.133148 0.488631 0.1947
C_ C_ 0.595154 0.0957731 0.00703313 -0.08735
C_ C_ 0.617822 0.118682 0.02965 -0.08735
C_ C_ 0.640224 0.165584 0.0280022 -0.05681
C_ C_ 0.65407 0.182504 0.999753323 0.18498
C_ C_ 0.673053 0.238663 0.493571 -0.08735
C_ C_ 0.683297 0.26234 0.0199658 -0.08735
C_ C_ 0.670637 0.246213 0.046618 -0.08735
C_ C_ 0.649303 0.197349 0.0519123 0.18498
C_ C_ 0.67797 0.170006 0.0991522 0.44287
C_ C_ 0.590969 0.188444 0.0930759 0.44287
C_ C_ 0.583045 0.185452 0.123583 -0.05681
C_ C_ 0.534591 0.195958 0.134404 -0.08735
C_ C_ 0.526199 0.192657 0.164711 -0.08735
C_ C_ 0.566318 0.17473 0.182753 -0.05681
C_ C_ 0.613679 0.167879 0.171073 -0.05681
C_ C_ 0.621951 0.170334 0.140675 -0.05681
C_ C_ 0.671668 0.167371 0.12988 -0.05681
C_ C_ 0.713705 0.156214 0.148727 -0.08735
C_ C_ 0.704208 0.152688 0.178224 -0.08735
C_ C_ 0.655513 0.159957 0.190012 -0.05681
C_ C_ 0.647051 0.151474 0.219387 0.44287
C_ C_ 0.56056 0.169301 0.212597 0.44287
C_ C_ 0.589541 0.146533 0.260594 0.18498
C_ C_ 0.561673 0.102352 0.267653 -0.08735
C_ C_ 0.551268 0.0888745 0.296393 -0.08735
C_ C_ 0.564871 0.119142 0.318351 -0.08735
C_ C_ 0.594549 0.162987 0.313265 0.18498
C_ C_ 0.60269 0.178211 0.284157 -0.05681
C_ C_ 0.627138 0.22617 0.279966 -0.08735
C_ C_ 0.648546 0.251815 0.300715 -0.08735
C_ C_ 0.641027 0.235915 0.329118 0.1947
C_ C_ 0.759004 0.300451 0.157647 0.68181
C_ C_ 0.702767 0.298575 0.152854 -0.05681
C_ C_ 0.669637 0.294734 0.176821 -0.08735
C_ C_ 0.615994 0.299922 0.172682 -0.05681
C_ C_ 0.598308 0.313025 0.145229 -0.05681
C_ C_ 0.632328 0.318263 0.122349 -0.08735
C_ C_ 0.683137 0.31231 0.126589 -0.08735
C_ C_ 0.582317 0.307069 0.195376 -0.08735
C_ C_ 0.529618 0.30951 0.190751 -0.08735
C_ C_ 0.511499 0.3165 0.162548 -0.05681
C_ C_ 0.547713 0.321195 0.139759 -0.08735
C_ C_ 0.877375 0.213877 0.162866 0.68181
C_ C_ 0.845781 0.412178 0.15601 0.68181
C_ C_ 0.850476 0.468629 0.155014 -0.05681
C_ C_ 0.889531 -0.003263000000000016 0.171251 -0.08735
C_ C_ 0.888102 0.0500159 0.170015 -0.05681
C_ C_ 0.882549 0.0732941 0.142522 -0.05681
C_ C_ 0.880109 0.0431523 0.117043 -0.08735
C_ C_ 0.855889 0.491526 0.127676 -0.08735
C_ C_ 0.889667 0.0824221 0.194341 -0.08735
C_ C_ 0.889135 0.134493 0.191269 -0.08735
C_ C_ 0.881408 0.157508 0.164698 -0.05681
C_ C_ 0.876038 0.12639 0.140868 -0.08735
C_ C_ 0.956194 0.32611 0.160941 0.68181
C_ C_ 0.879152 0.376869 0.233857 0.1947
C_ C_ 0.882283 0.396459 0.260763 -0.08735
C_ C_ 0.870294 0.365848 0.284425 -0.08735
C_ C_ 0.844763 0.321433 0.281101 -0.05681
C_ C_ 0.835827 0.30437 0.252086 0.18498
C_ C_ 0.813742 0.256649 0.247084 -0.08735
C_ C_ 0.792808 0.232387 0.270966 -0.08735
C_ C_ 0.79216 0.254693 0.298278 -0.08735
C_ C_ 0.823995 0.29492 0.304933 0.18498
C_ C_ 0.796589 0.324883 0.351709 0.44287
C_ C_ 0.882583 0.306847 0.345371 0.44287
C_ C_ 0.893837 0.322677 0.373087 -0.05681
C_ C_ 0.943759 0.323269 0.383293 -0.08735
C_ C_ 0.95308 0.331289 0.413145 -0.08735
C_ C_ 0.913801 0.339519 0.43215 -0.05681
C_ C_ 0.865056 0.342115 0.421678 -0.05681
C_ C_ 0.854184 0.334542 0.391827 -0.05681
C_ C_ 0.803824 0.33749 0.381158 -0.05681
C_ C_ 0.763815 0.350108 0.40016 -0.08735
C_ C_ 0.774238 0.354978 0.428941 -0.08735
C_ C_ 0.825906 0.351551 0.44042 -0.05681
C_ C_ 0.835915 0.352294 0.470892 0.44287
C_ C_ 0.920901 0.336074 0.46213 0.44287
C_ C_ 0.878283 0.350225 0.0110459 0.18498
C_ C_ 0.906077 0.395738 0.0175149 -0.08735
C_ C_ 0.925403 0.403405 0.0452436 -0.08735
C_ C_ 0.910184 0.37407 0.0685561 -0.08735
C_ C_ 0.878361 0.333396 0.0637995 0.18498
C_ C_ 0.865063 0.320208 0.0343551 -0.05681
C_ C_ 0.838022 0.274981 0.0289055 -0.08735
C_ C_ 0.816937 0.248536 0.0530123 -0.08735
C_ C_ 0.825849 0.267624 0.0813912 0.1947
N_ N_ 0.620233 0.169946 0.481312 -0.29468
N_ N_ 0.639053 0.180814 0.0815967 -0.17154
N_ N_ 0.599903 0.156997 0.23006 -0.17154
N_ N_ 0.61545 0.191993 0.334849 -0.29468
N_ N_ 0.854121 0.332632 0.229065 -0.29468
N_ N_ 0.835255 0.30965 0.33423 -0.17154
N_ N_ 0.883465 0.347966 0.480856 -0.17154
N_ N_ 0.85678 0.308513 0.086382 -0.29468
O_ O_ 0.696037 0.191779 0.42883 -0.58347
O_ O_ 0.686415 0.172463 0.383604 -0.58347
O_ O_ 0.603287 0.245754 0.436535 -0.58347
O_ O_ 0.610135 0.253925 0.391384 -0.58347
O_ O_ 0.643208 0.101236 0.424952 -0.58347
O_ O_ 0.614891 0.104086 0.379455 -0.58347
O_ O_ 0.549181 0.155939 0.42947 -0.58347
O_ O_ 0.535028 0.177437 0.384593 -0.58347
O_ O_ 0.551026 0.197987 0.0758207 -0.46727
O_ O_ 0.723345 0.166417 0.0881186 -0.46727
O_ O_ 0.515673 0.174233 0.224145 -0.46727
O_ O_ 0.686387 0.149168 0.236525 -0.46727
O_ O_ 0.775294 0.294959 0.182026 -0.58347
O_ O_ 0.787316 0.309511 0.136816 -0.58347
O_ O_ 0.871634 0.239818 0.186069 -0.58347
O_ O_ 0.870679 0.236872 0.13909 -0.58347
O_ O_ 0.835801 0.388247 0.178367 -0.58347
O_ O_ 0.861823 0.389188 0.134349 -0.58347
O_ O_ 0.924984 0.329366 0.181503 -0.58347
O_ O_ 0.938458 0.3196 0.136163 -0.58347
O_ O_ 0.919126 0.29055 0.329415 -0.46727
O_ O_ 0.74913 0.323274 0.340664 -0.46727
O_ O_ 0.962879 0.317081 0.471102 -0.46727
O_ O_ 0.799185 0.367064 0.488511 -0.46727
Zn Zn 0.634204 0.18083 0.882531 0.90689
Zn Zn 0.644847 0.173303 0.929352 0.90689
Zn Zn 0.875491 0.322965 0.632886 0.90689
Zn Zn 0.862847 0.332664 0.680657 0.90689
H_ H_ 0.815774 0.184355 0.943474 0.11455
H_ H_ 0.876856 0.162976 0.844182 0.11455
H_ H_ 0.782047 0.163667 0.852512 0.11455
H_ H_ 0.90324 0.187269 0.96002 0.11455
H_ H_ 0.990322 0.184408 0.95135 0.11455
H_ H_ 0.967307 0.167612 0.862169 0.11455
H_ H_ 0.665729 0.00684052 0.942467 0.11455
H_ H_ 0.648847 0.425222 0.851469 0.11455
H_ H_ 0.618073 0.0203657 0.854913 0.11455
H_ H_ 0.613534 0.420822 0.966917 0.11455
H_ H_ 0.632539 0.330795 0.961582 0.11455
H_ H_ 0.626438 0.346939 0.870064 0.11455
H_ H_ 0.586911 0.0966956 0.961095 0.11455
H_ H_ 0.553982 0.0889398 0.522371 0.11455
H_ H_ 0.604602 0.124927 0.560359 0.11455
H_ H_ 0.687039 0.243054 0.975191 0.11455
H_ H_ 0.717027 0.302832 0.509648 0.11455
H_ H_ 0.69794 0.283468 0.561314 0.11455
H_ H_ 0.515531 0.219674 0.625816 0.11455
H_ H_ 0.502414 0.210332 0.675986 0.11455
H_ H_ 0.762093 0.158385 0.636139 0.11455
H_ H_ 0.75347 0.157346 0.687273 0.11455
H_ H_ 0.56606 0.0873981 0.748977 0.11455
H_ H_ 0.545879 0.0622324 0.794667 0.11455
H_ H_ 0.583454 0.114614 0.838637 0.11455
H_ H_ 0.655284 0.24181 0.757469 0.11455
H_ H_ 0.688227 0.291775 0.797501 0.11455
H_ H_ 0.693001 0.251407 0.846795 0.11455
H_ H_ 0.697456 0.300672 0.690109 0.11455
H_ H_ 0.624164 0.341448 0.595085 0.11455
H_ H_ 0.716483 0.325609 0.602808 0.11455
H_ H_ 0.613657 0.318255 0.71194 0.11455
H_ H_ 0.518524 0.314124 0.704175 0.11455
H_ H_ 0.534617 0.319666 0.617372 0.11455
H_ H_ 0.853688 0.495249 0.691442 0.11455
H_ H_ 0.855635 0.0727533 0.599467 0.11455
H_ H_ 0.89355 0.480203 0.602066 0.11455
H_ H_ 0.87681 0.0778326 0.716852 0.11455
H_ H_ 0.885988 0.169907 0.713185 0.11455
H_ H_ 0.870311 0.159367 0.620795 0.11455
H_ H_ 0.900457 0.408171 0.71978 0.11455
H_ H_ 0.914217 0.434844 0.766822 0.11455
H_ H_ 0.882125 0.38543 0.808545 0.11455
H_ H_ 0.802403 0.256997 0.72467 0.11455
H_ H_ 0.775487 0.198413 0.762086 0.11455
H_ H_ 0.791184 0.225891 0.814518 0.11455
H_ H_ 0.969018 0.291837 0.87532 0.11455
H_ H_ -0.022942000000000018 0.30077 0.92677 0.11455
H_ H_ 0.729952 0.366236 0.88597 0.11455
H_ H_ 0.737551 0.369985 0.935518 0.11455
H_ H_ 0.927222 0.417885 1.0000714498 0.11455
H_ H_ 0.94498 0.448417 0.551847 0.11455
H_ H_ 0.935803 0.388826 0.590733 0.11455
H_ H_ 0.842597 0.270976 0.506517 0.11455
H_ H_ 0.808187 0.217535 0.546436 0.11455
H_ H_ 0.831761 0.242808 0.596748 0.11455
C_ C_ 0.737852 0.177939 0.903445 0.68181
C_ C_ 0.791585 0.170598 0.898594 -0.05681
C_ C_ 0.82649 0.177109 0.921471 -0.08735
C_ C_ 0.878479 0.176555 0.916365 -0.05681
C_ C_ 0.897154 0.167201 0.888709 -0.05681
C_ C_ 0.861634 0.162151 0.864872 -0.08735
C_ C_ 0.809387 0.168486 0.870109 -0.08735
C_ C_ 0.913243 0.184919 0.938683 -0.08735
C_ C_ 0.96502 0.18575 0.934009 -0.08735
C_ C_ 0.983403 0.175427 0.906873 -0.05681
C_ C_ 0.949922 0.172934 0.883248 -0.08735
C_ C_ 0.633161 0.277252 0.910819 0.68181
C_ C_ 0.644966 0.0762962 0.901637 0.68181
C_ C_ 0.63743 0.0209938 0.899502 -0.05681
C_ C_ 0.629626 0.489832 0.925426 -0.08735
C_ C_ 0.620247 0.437127 0.922582 -0.05681
C_ C_ 0.627738 0.41505 0.895257 -0.05681
C_ C_ 0.640144 0.444578 0.871375 -0.08735
C_ C_ 0.645424 0.495363 0.873595 -0.08735
C_ C_ 0.616891 0.405025 0.946213 -0.08735
C_ C_ 0.621034 0.35125 0.942565 -0.08735
C_ C_ 0.621327 0.330293 0.914306 -0.05681
C_ C_ 0.620784 0.363331 0.89152 -0.08735
C_ C_ 0.539916 0.170895 0.90778 0.68181
C_ C_ 0.602192 0.11719 0.979822 0.1947
C_ C_ 0.579484 0.115454 0.516784 -0.08735
C_ C_ 0.60484 0.141487 0.538293 -0.08735
C_ C_ 0.631655 0.186928 0.532457 -0.05681
C_ C_ 0.642429 0.197494 0.502347 0.18498
C_ C_ 0.676556 0.230408 0.997035 -0.08735
C_ C_ 0.69452 0.270014 0.515348 -0.08735
C_ C_ 0.690026 0.255881 0.54443 -0.08735
C_ C_ 0.655027 0.217714 0.553315 0.18498
C_ C_ 0.687946 0.188672 0.599143 0.44287
C_ C_ 0.599944 0.216087 0.595677 0.44287
C_ C_ 0.59379 0.20626 0.625206 -0.05681
C_ C_ 0.546875 0.206129 0.638645 -0.08735
C_ C_ 0.541132 0.206103 0.66734 -0.08735
C_ C_ 0.583447 0.1932 0.684539 -0.05681
C_ C_ 0.632942 0.189554 0.671963 -0.05681
C_ C_ 0.636302 0.190744 0.641762 -0.05681
C_ C_ 0.683218 0.183349 0.628391 -0.05681
C_ C_ 0.725337 0.169686 0.645086 -0.08735
C_ C_ 0.720476 0.162522 0.674959 -0.08735
C_ C_ 0.67259 0.171356 0.688915 -0.05681
C_ C_ 0.662506 0.158938 0.717825 0.44287
C_ C_ 0.576377 0.183598 0.713418 0.44287
C_ C_ 0.606716 0.155187 0.75997 0.18498
C_ C_ 0.578515 0.1126 0.765526 -0.08735
C_ C_ 0.571289 0.0960774 0.792998 -0.08735
C_ C_ 0.59322 0.122845 0.816297 -0.08735
C_ C_ 0.621724 0.165909 0.811479 0.18498
C_ C_ 0.625528 0.184845 0.783553 -0.05681
C_ C_ 0.651927 0.230129 0.778781 -0.08735
C_ C_ 0.670926 0.256889 0.802235 -0.08735
C_ C_ 0.668602 0.235849 0.829264 0.1947
C_ C_ 0.769411 0.326285 0.651716 0.68181
C_ C_ 0.713566 0.325289 0.648349 -0.05681
C_ C_ 0.680308 0.317093 0.6704 -0.08735
C_ C_ 0.627525 0.324172 0.667792 -0.05681
C_ C_ 0.605773 0.327898 0.639963 -0.05681
C_ C_ 0.639944 0.330056 0.616073 -0.08735
C_ C_ 0.693039 0.329976 0.62087 -0.08735
C_ C_ 0.595604 0.317226 0.690877 -0.08735
C_ C_ 0.54343 0.324668 0.686843 -0.08735
C_ C_ 0.520606 0.328937 0.659429 -0.05681
C_ C_ 0.553279 0.327989 0.636864 -0.08735
C_ C_ 0.874501 0.228599 0.664393 0.68181
C_ C_ 0.867282 0.427071 0.649765 0.68181
C_ C_ 0.874584 0.48162 0.647502 -0.05681
C_ C_ 0.868336 0.0127688 0.673911 -0.08735
C_ C_ 0.867776 0.064901 0.671455 -0.05681
C_ C_ 0.861657 0.0887123 0.644792 -0.05681
C_ C_ 0.857586 0.0581285 0.620265 -0.08735
C_ C_ 0.886686 0.503911 0.621364 -0.08735
C_ C_ 0.869631 0.0947744 0.696529 -0.08735
C_ C_ 0.875272 0.147954 0.694211 -0.08735
C_ C_ 0.872039 0.172422 0.66683 -0.05681
C_ C_ 0.867098 0.141696 0.641552 -0.08735
C_ C_ 0.967227 0.333917 0.659925 0.68181
C_ C_ 0.88886 0.381508 0.735269 0.1947
C_ C_ 0.898514 0.398134 0.762998 -0.08735
C_ C_ 0.876376 0.370195 0.786438 -0.08735
C_ C_ 0.847518 0.325599 0.78041 -0.05681
C_ C_ 0.838599 0.312492 0.751518 0.18498
C_ C_ 0.809913 0.268097 0.746767 -0.08735
C_ C_ 0.791106 0.235771 0.768603 -0.08735
C_ C_ 0.805922 0.24811 0.797083 -0.08735
C_ C_ 0.83056 0.295352 0.803798 0.18498
C_ C_ 0.799055 0.32278 0.849672 0.44287
C_ C_ 0.884168 0.294301 0.84537 0.44287
C_ C_ 0.891137 0.309323 0.873877 -0.05681
C_ C_ 0.938048 0.301423 0.886669 -0.08735
C_ C_ 0.942165 0.305736 0.916862 -0.08735
C_ C_ 0.901749 0.322476 0.933963 -0.05681
C_ C_ 0.856629 0.333046 0.921199 -0.05681
C_ C_ 0.848841 0.326413 0.891263 -0.05681
C_ C_ 0.80262 0.332155 0.878269 -0.05681
C_ C_ 0.762694 0.349537 0.895567 -0.08735
C_ C_ 0.76793 0.357129 0.924021 -0.08735
C_ C_ 0.81581 0.347915 0.937999 -0.05681
C_ C_ 0.822677 0.349959 0.968375 0.44287
C_ C_ 0.907673 0.324397 0.964273 0.44287
C_ C_ 0.895663 0.355892 0.510678 0.18498
C_ C_ 0.927914 0.397576 0.517375 -0.08735
C_ C_ 0.936821 0.411066 0.546375 -0.08735
C_ C_ 0.920313 0.37982 0.568813 -0.08735
C_ C_ 0.888797 0.338519 0.563187 0.18498
C_ C_ 0.876797 0.327235 0.534443 -0.05681
C_ C_ 0.851053 0.281107 0.528972 -0.08735
C_ C_ 0.83116 0.251046 0.55095 -0.08735
C_ C_ 0.841796 0.267085 0.579275 0.1947
N_ N_ 0.634807 0.157374 0.975939 -0.29468
N_ N_ 0.647491 0.206438 0.58333 -0.17154
N_ N_ 0.615064 0.167059 0.7298 -0.17154
N_ N_ 0.640786 0.191809 0.834093 -0.29468
N_ N_ 0.859669 0.340039 0.729672 -0.29468
N_ N_ 0.840058 0.308591 0.832853 -0.17154
N_ N_ 0.867911 0.335746 0.981112 -0.17154
N_ N_ 0.875563 0.306011 0.585304 -0.29468
O_ O_ 0.721339 0.18572 0.928467 -0.58347
O_ O_ 0.709429 0.179837 0.881625 -0.58347
O_ O_ 0.633667 0.249037 0.932372 -0.58347
O_ O_ 0.635873 0.256555 0.885689 -0.58347
O_ O_ 0.653156 0.0970419 0.925634 -0.58347
O_ O_ 0.63314 0.105526 0.88008 -0.58347
O_ O_ 0.568864 0.165048 0.929223 -0.58347
O_ O_ 0.557986 0.185031 0.884088 -0.58347
O_ O_ 0.561914 0.231661 0.578852 -0.46727
O_ O_ 0.732823 0.180058 0.586545 -0.46727
O_ O_ 0.529358 0.18578 0.724643 -0.46727
O_ O_ 0.699862 0.149459 0.734156 -0.46727
O_ O_ 0.788041 0.329683 0.676488 -0.58347
O_ O_ 0.798292 0.31817 0.630518 -0.58347
O_ O_ 0.869931 0.255594 0.686593 -0.58347
O_ O_ 0.872948 0.25044 0.640415 -0.58347
O_ O_ 0.855575 0.406675 0.673499 -0.58347
O_ O_ 0.878798 0.398389 0.628963 -0.58347
O_ O_ 0.937855 0.338269 0.681505 -0.58347
O_ O_ 0.948197 0.328033 0.634958 -0.58347
O_ O_ 0.915561 0.263028 0.831306 -0.46727
O_ O_ 0.754734 0.32457 0.836583 -0.46727
O_ O_ 0.954828 0.323735 0.975677 -0.46727
O_ O_ 0.787534 0.372007 0.983803 -0.46727
Zn Zn 0.622861 0.680516 0.383216 0.90689
Zn Zn 0.633403 0.673143 0.430281 0.90689
Zn Zn 0.881132 0.808336 0.133639 0.90689
Zn Zn 0.871006 0.816227 0.181091 0.90689
H_ H_ 0.801784 0.691273 0.447398 0.11455
H_ H_ 0.871698 0.668284 0.349398 0.11455
H_ H_ 0.775162 0.662306 0.358409 0.11455
H_ H_ 0.890363 0.689622 0.465868 0.11455
H_ H_ 0.983431 0.689342 0.45696 0.11455
H_ H_ 0.958325 0.66671 0.367416 0.11455
H_ H_ 0.60857 0.509891 0.445554 0.11455
H_ H_ 0.674731 0.931736 0.350773 0.11455
H_ H_ 0.665685 0.516002 0.360877 0.11455
H_ H_ 0.579545 0.928317 0.45653 0.11455
H_ H_ 0.581349 0.835754 0.453866 0.11455
H_ H_ 0.644291 0.849208 0.36857 0.11455
H_ H_ 0.58941 0.59937 0.468236 0.11455
H_ H_ 0.567645 0.575425 0.012972 0.11455
H_ H_ 0.605308 0.618636 0.0550712 0.11455
H_ H_ 0.683401 0.754629 0.473302 0.11455
H_ H_ 0.741168 0.783653 0.0137624 0.11455
H_ H_ 0.723009 0.757692 0.0636024 0.11455
H_ H_ 0.521888 0.701659 0.12285 0.11455
H_ H_ 0.508325 0.693406 0.175152 0.11455
H_ H_ 0.763296 0.634864 0.137727 0.11455
H_ H_ 0.748875 0.621067 0.187838 0.11455
H_ H_ 0.579837 0.569855 0.248843 0.11455
H_ H_ 0.543863 0.553735 0.296265 0.11455
H_ H_ 0.560302 0.610055 0.335315 0.11455
H_ H_ 0.65639 0.738958 0.259513 0.11455
H_ H_ 0.695138 0.779968 0.30021 0.11455
H_ H_ 0.676725 0.745177 0.348222 0.11455
H_ H_ 0.699805 0.783523 0.186976 0.11455
H_ H_ 0.631395 0.840994 0.096223 0.11455
H_ H_ 0.726987 0.838474 0.103288 0.11455
H_ H_ 0.622303 0.80888 0.212183 0.11455
H_ H_ 0.527892 0.801512 0.206377 0.11455
H_ H_ 0.541047 0.815737 0.11221 0.11455
H_ H_ 0.893921 0.977922 0.191593 0.11455
H_ H_ 0.861088 0.556469 0.10281 0.11455
H_ H_ 0.87778 0.97085 0.0987381 0.11455
H_ H_ 0.85267 0.567005 0.222168 0.11455
H_ H_ 0.877449 0.655963 0.218318 0.11455
H_ H_ 0.869348 0.647702 0.124676 0.11455
H_ H_ 0.902802 0.8991 0.216704 0.11455
H_ H_ 0.927496 0.922725 0.267297 0.11455
H_ H_ 0.895701 0.875765 0.307018 0.11455
H_ H_ 0.808783 0.75037 0.223057 0.11455
H_ H_ 0.791324 0.691804 0.261064 0.11455
H_ H_ 0.813651 0.710524 0.313167 0.11455
H_ H_ 1.00164917 0.790819 0.375292 0.11455
H_ H_ 0.0127028 0.813214 0.42371 0.11455
H_ H_ 0.749457 0.831387 0.383354 0.11455
H_ H_ 0.760999 0.836935 0.43846 0.11455
H_ H_ 0.935591 0.924464 0.497924 0.11455
H_ H_ 0.98271 0.912067 0.0473167 0.11455
H_ H_ 0.951166 0.857987 0.0884371 0.11455
H_ H_ 0.863771 0.728945 0.0103587 0.11455
H_ H_ 0.820855 0.692112 0.0519549 0.11455
H_ H_ 0.825518 0.731439 0.0985612 0.11455
C_ C_ 0.726276 0.687552 0.406763 0.68181
C_ C_ 0.783287 0.682533 0.402725 -0.05681
C_ C_ 0.816235 0.688607 0.425096 -0.08735
C_ C_ 0.870379 0.688299 0.421497 -0.05681
C_ C_ 0.89059 0.681776 0.392865 -0.05681
C_ C_ 0.856095 0.669296 0.371079 -0.08735
C_ C_ 0.803554 0.673097 0.375263 -0.08735
C_ C_ 0.905109 0.686023 0.444045 -0.08735
C_ C_ 0.95869 0.690167 0.439471 -0.08735
C_ C_ 0.978039 0.689322 0.411534 -0.05681
C_ C_ 0.943181 0.680169 0.388762 -0.08735
C_ C_ 0.615334 0.779618 0.410736 0.68181
C_ C_ 0.629429 0.578374 0.401317 0.68181
C_ C_ 0.624299 0.521985 0.399928 -0.05681
C_ C_ 0.631465 0.992576 0.422441 -0.08735
C_ C_ 0.626888 0.940405 0.418764 -0.05681
C_ C_ 0.639386 0.918735 0.392675 -0.05681
C_ C_ 0.66062 0.949228 0.370849 -0.08735
C_ C_ 0.654424 1.000300369 0.372289 -0.08735
C_ C_ 0.603309 0.911431 0.440518 -0.08735
C_ C_ 0.598246 0.859515 0.437215 -0.08735
C_ C_ 0.619471 0.835622 0.413291 -0.05681
C_ C_ 0.636969 0.865688 0.390019 -0.08735
C_ C_ 0.530396 0.660569 0.406866 0.68181
C_ C_ 0.604827 0.622247 0.484972 0.1947
C_ C_ 0.596488 0.603283 0.00874929 -0.08735
C_ C_ 0.617754 0.629807 0.0332875 -0.08735
C_ C_ 0.648576 0.670953 0.0289195 -0.05681
C_ C_ 0.662054 0.681765 1.00108 0.18498
C_ C_ 0.664338 0.74816 0.493711 -0.08735
C_ C_ 0.713482 0.75248 0.0181331 -0.08735
C_ C_ 0.702786 0.739398 0.0469725 -0.08735
C_ C_ 0.665891 0.701562 0.0522418 0.18498
C_ C_ 0.693866 0.670511 0.0990119 0.44287
C_ C_ 0.609684 0.701797 0.0929555 0.44287
C_ C_ 0.601767 0.694179 0.123931 -0.05681
C_ C_ 0.553302 0.696063 0.136145 -0.08735
C_ C_ 0.545558 0.689147 0.16552 -0.08735
C_ C_ 0.586865 0.681792 0.18371 -0.05681
C_ C_ 0.635733 0.674125 0.170986 -0.05681
C_ C_ 0.64382 0.68432 0.142177 -0.05681
C_ C_ 0.689901 0.672486 0.128791 -0.05681
C_ C_ 0.728886 0.652103 0.146207 -0.08735
C_ C_ 0.724342 0.646502 0.176052 -0.08735
C_ C_ 0.67632 0.661214 0.188411 -0.05681
C_ C_ 0.668452 0.655774 0.218428 0.44287
C_ C_ 0.580857 0.670427 0.213288 0.44287
C_ C_ 0.606553 0.643285 0.25944 0.18498
C_ C_ 0.586417 0.59478 0.265807 -0.08735
C_ C_ 0.568335 0.585159 0.292499 -0.08735
C_ C_ 0.581665 0.616606 0.315317 -0.08735
C_ C_ 0.610831 0.660694 0.311566 0.18498
C_ C_ 0.618926 0.677393 0.283 -0.05681
C_ C_ 0.649159 0.722754 0.279787 -0.08735
C_ C_ 0.664814 0.749458 0.303836 -0.08735
C_ C_ 0.659762 0.727702 0.330147 0.1947
C_ C_ 0.775797 0.816347 0.151545 0.68181
C_ C_ 0.720305 0.821278 0.14745 -0.05681
C_ C_ 0.686436 0.806864 0.169698 -0.08735
C_ C_ 0.635795 0.809343 0.165952 -0.05681
C_ C_ 0.613984 0.819903 0.13886 -0.05681
C_ C_ 0.647821 0.832654 0.116478 -0.08735
C_ C_ 0.699802 0.827131 0.120119 -0.08735
C_ C_ 0.603283 0.809441 0.189822 -0.08735
C_ C_ 0.550437 0.808888 0.187075 -0.08735
C_ C_ 0.528273 0.812916 0.159171 -0.05681
C_ C_ 0.560711 0.816547 0.134719 -0.08735
C_ C_ 0.876915 0.714439 0.167743 0.68181
C_ C_ 0.880944 0.9133 0.147022 0.68181
C_ C_ 0.887762 0.967489 0.145586 -0.05681
C_ C_ 0.856936 0.499935 0.179268 -0.08735
C_ C_ 0.857171 0.5531 0.176219 -0.05681
C_ C_ 0.862981 0.575073 0.148563 -0.05681
C_ C_ 0.862258 0.543101 0.124621 -0.08735
C_ C_ 0.885896 0.991542 0.11816 -0.08735
C_ C_ 0.859217 0.583993 0.201359 -0.08735
C_ C_ 0.868494 0.635822 0.199201 -0.08735
C_ C_ 0.872334 0.657189 0.172091 -0.05681
C_ C_ 0.869344 0.627874 0.146623 -0.08735
C_ C_ 0.973605 0.814369 0.159946 0.68181
C_ C_ 0.895718 0.872977 0.23378 0.1947
C_ C_ 0.907145 0.888553 0.262152 -0.08735
C_ C_ 0.888866 0.859879 0.285069 -0.08735
C_ C_ 0.86644 0.812027 0.279352 -0.05681
C_ C_ 0.857245 0.798261 0.249999 0.18498
C_ C_ 0.82638 0.754719 0.244796 -0.08735
C_ C_ 0.815105 0.722253 0.267734 -0.08735
C_ C_ 0.825133 0.73478 0.295812 -0.08735
C_ C_ 0.853624 0.778381 0.301653 0.18498
C_ C_ 0.823473 0.798153 0.349384 0.44287
C_ C_ 0.912503 0.793872 0.343083 0.44287
C_ C_ 0.919489 0.801676 0.373537 -0.05681
C_ C_ 0.967133 0.798819 0.386754 -0.08735
C_ C_ 0.973802 0.80975 0.415443 -0.08735
C_ C_ 0.931187 0.822707 0.431453 -0.05681
C_ C_ 0.88397 0.824183 0.419969 -0.05681
C_ C_ 0.876062 0.811852 0.390703 -0.05681
C_ C_ 0.827302 0.810308 0.378923 -0.05681
C_ C_ 0.786682 0.82711 0.394672 -0.08735
C_ C_ 0.792417 0.832622 0.424049 -0.08735
C_ C_ 0.841312 0.832293 0.43743 -0.05681
C_ C_ 0.849021 0.84757 0.466056 0.44287
C_ C_ 0.935344 0.826978 0.461587 0.44287
C_ C_ 0.912021 0.824824 0.0116266 0.18498
C_ C_ 0.946792 0.865715 0.0164552 -0.08735
C_ C_ 0.958041 0.880037 0.0446001 -0.08735
C_ C_ 0.939397 0.8503 0.0669661 -0.08735
C_ C_ 0.90436 0.810237 0.0628135 0.18498
C_ C_ 0.892285 0.794665 0.0345456 -0.05681
C_ C_ 0.864316 0.750274 0.0308246 -0.08735
C_ C_ 0.842195 0.72632 0.0542281 -0.08735
C_ C_ 0.850933 0.745567 0.0814464 0.1947
N_ N_ 0.628401 0.667473 0.478743 -0.29468
N_ N_ 0.654906 0.688888 0.0813398 -0.17154
N_ N_ 0.61933 0.658337 0.229783 -0.17154
N_ N_ 0.627928 0.686747 0.335247 -0.29468
N_ N_ 0.869314 0.830448 0.228013 -0.29468
N_ N_ 0.864478 0.790975 0.332336 -0.17154
N_ N_ 0.893948 0.83872 0.478616 -0.17154
N_ N_ 0.881985 0.786805 0.0866758 -0.29468
O_ O_ 0.708678 0.685205 0.431578 -0.58347
O_ O_ 0.698541 0.689035 0.384832 -0.58347
O_ O_ 0.624435 0.75194 0.43251 -0.58347
O_ O_ 0.613082 0.758909 0.386012 -0.58347
O_ O_ 0.636038 0.598685 0.425959 -0.58347
O_ O_ 0.635184 0.605578 0.378829 -0.58347
O_ O_ 0.558451 0.656715 0.427789 -0.58347
O_ O_ 0.548063 0.662177 0.3813 -0.58347
O_ O_ 0.57108 0.715094 0.0768556 -0.46727
O_ O_ 0.736935 0.65692 0.0866882 -0.46727
O_ O_ 0.534804 0.670087 0.223429 -0.46727
O_ O_ 0.70554 0.644493 0.236244 -0.46727
O_ O_ 0.795381 0.812245 0.175851 -0.58347
O_ O_ 0.804874 0.815291 0.130292 -0.58347
O_ O_ 0.87668 0.743835 0.18913 -0.58347
O_ O_ 0.877552 0.731903 0.142258 -0.58347
O_ O_ 0.868218 0.892338 0.170535 -0.58347
O_ O_ 0.889293 0.884171 0.125787 -0.58347
O_ O_ 0.946717 0.817094 0.18225 -0.58347
O_ O_ 0.954493 0.806229 0.135822 -0.58347
O_ O_ 0.95222 0.796329 0.324421 -0.46727
O_ O_ 0.77827 0.788285 0.339359 -0.46727
O_ O_ 0.980701 0.834723 0.471469 -0.46727
O_ O_ 0.809397 0.855769 0.481569 -0.46727
Zn Zn 0.635173 0.673596 0.8823 0.90689
Zn Zn 0.640952 0.674899 0.930293 0.90689
Zn Zn 0.875213 0.822274 0.633405 0.90689
Zn Zn 0.868567 0.830238 0.681349 0.90689
H_ H_ 0.812818 0.680673 0.941741 0.11455
H_ H_ 0.884243 0.663121 0.843964 0.11455
H_ H_ 0.792052 0.678558 0.849562 0.11455
H_ H_ 0.899925 0.684627 0.961509 0.11455
H_ H_ 0.985826 0.670494 0.957495 0.11455
H_ H_ 0.972463 0.663156 0.865544 0.11455
H_ H_ 0.630901 0.506983 0.947161 0.11455
H_ H_ 0.610265 0.931314 0.850613 0.11455
H_ H_ 0.665202 0.515823 0.857392 0.11455
H_ H_ 0.665892 0.921132 0.964068 0.11455
H_ H_ 0.652182 0.826904 0.960603 0.11455
H_ H_ 0.619165 0.843193 0.870825 0.11455
H_ H_ 0.582889 0.604426 0.963018 0.11455
H_ H_ 0.587942 0.567561 0.519674 0.11455
H_ H_ 0.603482 0.624871 0.557891 0.11455
H_ H_ 0.707037 0.735168 0.974151 0.11455
H_ H_ 0.696334 0.817021 0.510995 0.11455
H_ H_ 0.684855 0.796042 0.560219 0.11455
H_ H_ 0.502986 0.704851 0.622378 0.11455
H_ H_ 0.496853 0.687609 0.675587 0.11455
H_ H_ 0.755628 0.670376 0.636087 0.11455
H_ H_ 0.746787 0.657516 0.687593 0.11455
H_ H_ 0.562119 0.588757 0.748824 0.11455
H_ H_ 0.552247 0.558994 0.799201 0.11455
H_ H_ 0.583281 0.609671 0.839931 0.11455
H_ H_ 0.646551 0.748277 0.757446 0.11455
H_ H_ 0.687539 0.792854 0.79678 0.11455
H_ H_ 0.681335 0.760854 0.846849 0.11455
H_ H_ 0.701254 0.814165 0.696137 0.11455
H_ H_ 0.634008 0.824917 0.595956 0.11455
H_ H_ 0.72498 0.817537 0.603739 0.11455
H_ H_ 0.614522 0.821557 0.715094 0.11455
H_ H_ 0.52467 0.822462 0.708141 0.11455
H_ H_ 0.545933 0.8228 0.61545 0.11455
H_ H_ 0.872471 0.996803 0.694615 0.11455
H_ H_ 0.912678 0.570286 0.599304 0.11455
H_ H_ 0.858014 0.977166 0.604477 0.11455
H_ H_ 0.843006 0.583754 0.712142 0.11455
H_ H_ 0.848098 0.672964 0.706608 0.11455
H_ H_ 0.900429 0.659444 0.618988 0.11455
H_ H_ 0.917194 0.898286 0.717734 0.11455
H_ H_ 0.93838 0.922555 0.769589 0.11455
H_ H_ 0.892005 0.874497 0.808213 0.11455
H_ H_ 0.796405 0.770388 0.724299 0.11455
H_ H_ 0.761896 0.713665 0.758615 0.11455
H_ H_ 0.776573 0.731727 0.809491 0.11455
H_ H_ 0.991157 0.797637 0.867144 0.11455
H_ H_ 1.00948847 0.790959 0.919447 0.11455
H_ H_ 0.741443 0.819925 0.894546 0.11455
H_ H_ 0.758453 0.834894 0.944272 0.11455
H_ H_ 0.965133 0.886491 0.99975 0.11455
H_ H_ 0.955749 0.947112 0.547946 0.11455
H_ H_ 0.920887 0.89431 0.589099 0.11455
H_ H_ 0.851717 0.758799 0.505483 0.11455
H_ H_ 0.817114 0.713376 0.547549 0.11455
H_ H_ 0.836091 0.739439 0.593965 0.11455
C_ C_ 0.738508 0.681676 0.902093 0.68181
C_ C_ 0.795775 0.678257 0.897124 -0.05681
C_ C_ 0.829175 0.680001 0.921315 -0.08735
C_ C_ 0.879864 0.677503 0.917924 -0.05681
C_ C_ 0.900103 0.666189 0.889757 -0.05681
C_ C_ 0.868949 0.66763 0.865247 -0.08735
C_ C_ 0.816178 0.676952 0.868695 -0.08735
C_ C_ 0.913459 0.674856 0.941921 -0.08735
C_ C_ 0.965174 0.667621 0.93823 -0.08735
C_ C_ 0.986489 0.660942 0.909446 -0.05681
C_ C_ 0.95349 0.664571 0.885849 -0.08735
C_ C_ 0.632942 0.771716 0.91258 0.68181
C_ C_ 0.649146 0.575616 0.902067 0.68181
C_ C_ 0.638017 0.519694 0.900236 -0.05681
C_ C_ 0.651565 -0.010141999999999984 0.922702 -0.08735
C_ C_ 0.644663 0.935164 0.920604 -0.05681
C_ C_ 0.631519 0.9138 0.89419 -0.05681
C_ C_ 0.62287 0.946262 0.870566 -0.08735
C_ C_ 0.6251 -0.001831000000000027 0.872798 -0.08735
C_ C_ 0.656118 0.903159 0.943892 -0.08735
C_ C_ 0.646724 0.85069 0.941715 -0.08735
C_ C_ 0.634666 0.827281 0.915318 -0.05681
C_ C_ 0.62606 0.859538 0.892362 -0.08735
C_ C_ 0.539715 0.666201 0.908508 0.68181
C_ C_ 0.604049 0.620253 0.981331 0.1947
C_ C_ 0.601911 0.604625 0.513589 -0.08735
C_ C_ 0.617641 0.636068 0.536058 -0.08735
C_ C_ 0.636503 0.685925 0.529301 -0.05681
C_ C_ 0.64268 0.700337 0.499893 0.18498
C_ C_ 0.695758 0.723189 0.995786 -0.08735
C_ C_ 0.679407 0.782056 0.515693 -0.08735
C_ C_ 0.673387 0.768052 0.544014 -0.08735
C_ C_ 0.651297 0.721815 0.551263 0.18498
C_ C_ 0.682 0.697999 0.597579 0.44287
C_ C_ 0.595235 0.716502 0.593266 0.44287
C_ C_ 0.587315 0.702765 0.622949 -0.05681
C_ C_ 0.538246 0.698171 0.635075 -0.08735
C_ C_ 0.533535 0.691961 0.665279 -0.08735
C_ C_ 0.577781 0.690491 0.683741 -0.05681
C_ C_ 0.625113 0.689956 0.671477 -0.05681
C_ C_ 0.629189 0.694254 0.640735 -0.05681
C_ C_ 0.677747 0.689805 0.62752 -0.05681
C_ C_ 0.719467 0.674401 0.644439 -0.08735
C_ C_ 0.714602 0.667047 0.674724 -0.08735
C_ C_ 0.668125 0.67774 0.687953 -0.05681
C_ C_ 0.660936 0.665758 0.717641 0.44287
C_ C_ 0.572469 0.679377 0.714019 0.44287
C_ C_ 0.605969 0.656782 0.760013 0.18498
C_ C_ 0.577323 0.610876 0.765846 -0.08735
C_ C_ 0.572893 0.594047 0.79432 -0.08735
C_ C_ 0.589674 0.624706 0.817403 -0.08735
C_ C_ 0.616624 0.666979 0.812026 0.18498
C_ C_ 0.624845 0.683827 0.783188 -0.05681
C_ C_ 0.64609 0.730952 0.778581 -0.08735
C_ C_ 0.665536 0.757456 0.801729 -0.08735
C_ C_ 0.662301 0.738026 0.830426 0.1947
C_ C_ 0.776282 0.8212 0.655785 0.68181
C_ C_ 0.72071 0.816851 0.651416 -0.05681
C_ C_ 0.685977 0.822294 0.674817 -0.08735
C_ C_ 0.633563 0.823572 0.669471 -0.05681
C_ C_ 0.614914 0.823752 0.641446 -0.05681
C_ C_ 0.648545 0.824259 0.618345 -0.08735
C_ C_ 0.701259 0.821908 0.622884 -0.08735
C_ C_ 0.600073 0.819624 0.693607 -0.08735
C_ C_ 0.54839 0.821922 0.688844 -0.08735
C_ C_ 0.528938 0.825123 0.661001 -0.05681
C_ C_ 0.561152 0.823304 0.637727 -0.08735
C_ C_ 0.878052 0.727378 0.661856 0.68181
C_ C_ 0.867281 0.924816 0.651249 0.68181
C_ C_ 0.865369 0.98122 0.649943 -0.05681
C_ C_ 0.868179 0.511918 0.671755 -0.08735
C_ C_ 0.872145 0.566356 0.669318 -0.05681
C_ C_ 0.88561 0.588736 0.642278 -0.05681
C_ C_ 0.89643 0.556001 0.618715 -0.08735
C_ C_ 0.863042 1.00401391 0.62292 -0.08735
C_ C_ 0.857674 0.59799 0.691614 -0.08735
C_ C_ 0.858228 0.64972 0.688624 -0.08735
C_ C_ 0.872556 0.672033 0.66362 -0.05681
C_ C_ 0.887557 0.641885 0.639044 -0.08735
C_ C_ 0.973803 0.831282 0.658042 0.68181
C_ C_ 0.907029 0.874081 0.735529 0.1947
C_ C_ 0.914447 0.890075 0.764096 -0.08735
C_ C_ 0.894016 0.859351 0.78666 -0.08735
C_ C_ 0.862959 0.817481 0.780097 -0.05681
C_ C_ 0.85147 0.808687 0.751616 0.18498
C_ C_ 0.812523 0.773726 0.744502 -0.08735
C_ C_ 0.791603 0.74244 0.765105 -0.08735
C_ C_ 0.799969 0.752636 0.7942 -0.08735
C_ C_ 0.836894 0.78847 0.802917 0.18498
C_ C_ 0.809562 0.810122 0.852061 0.44287
C_ C_ 0.895802 0.789191 0.843279 0.44287
C_ C_ 0.908095 0.795201 0.87253 -0.05681
C_ C_ 0.958832 0.793873 0.882512 -0.08735
C_ C_ 0.968603 0.791672 0.9123 -0.08735
C_ C_ 0.928572 0.801934 0.932514 -0.05681
C_ C_ 0.878995 0.808843 0.922698 -0.05681
C_ C_ 0.869506 0.805336 0.892544 -0.05681
C_ C_ 0.819721 0.810474 0.88274 -0.05681
C_ C_ 0.780892 0.822029 0.902054 -0.08735
C_ C_ 0.78992 0.828884 0.930437 -0.08735
C_ C_ 0.839866 0.818177 0.941333 -0.05681
C_ C_ 0.851502 0.824776 0.970091 0.44287
C_ C_ 0.934981 0.799925 0.962891 0.44287
C_ C_ 0.900426 0.851214 0.5087 0.18498
C_ C_ 0.925134 0.89782 0.51581 -0.08735
C_ C_ 0.934258 0.91347 0.544676 -0.08735
C_ C_ 0.918347 0.88159 0.567567 -0.08735
C_ C_ 0.893139 0.835478 0.561566 0.18498
C_ C_ 0.885203 0.818668 0.531893 -0.05681
C_ C_ 0.855825 0.773682 0.527184 -0.08735
C_ C_ 0.839553 0.746721 0.550265 -0.08735
C_ C_ 0.85113 0.761671 0.57715 0.1947
N_ N_ 0.640113 0.657167 0.977941 -0.29468
N_ N_ 0.642303 0.70945 0.58061 -0.17154
N_ N_ 0.614489 0.669341 0.730663 -0.17154
N_ N_ 0.639159 0.693666 0.835136 -0.29468
N_ N_ 0.873941 0.835662 0.730016 -0.29468
N_ N_ 0.84802 0.799817 0.832682 -0.17154
N_ N_ 0.897673 0.813653 0.981784 -0.17154
N_ N_ 0.873884 0.805957 0.583808 -0.29468
O_ O_ 0.717866 0.67784 0.92675 -0.58347
O_ O_ 0.711178 0.690629 0.881059 -0.58347
O_ O_ 0.63522 0.746441 0.936251 -0.58347
O_ O_ 0.625192 0.747924 0.888574 -0.58347
O_ O_ 0.64628 0.597796 0.926217 -0.58347
O_ O_ 0.651638 0.601821 0.878307 -0.58347
O_ O_ 0.568575 0.667994 0.929672 -0.58347
O_ O_ 0.559135 0.660614 0.884925 -0.58347
O_ O_ 0.555406 0.726234 0.577139 -0.46727
O_ O_ 0.728266 0.703884 0.588494 -0.46727
O_ O_ 0.527546 0.670466 0.725331 -0.46727
O_ O_ 0.701962 0.659559 0.734359 -0.46727
O_ O_ 0.793812 0.828205 0.680299 -0.58347
O_ O_ 0.804356 0.813869 0.634047 -0.58347
O_ O_ 0.876716 0.756166 0.683254 -0.58347
O_ O_ 0.885418 0.747291 0.636356 -0.58347
O_ O_ 0.869921 0.903928 0.675467 -0.58347
O_ O_ 0.862798 0.897709 0.628642 -0.58347
O_ O_ 0.94723 0.831356 0.680604 -0.58347
O_ O_ 0.951831 0.8348 0.634461 -0.58347
O_ O_ 0.932516 0.778306 0.82544 -0.46727
O_ O_ 0.764412 0.822438 0.843146 -0.46727
O_ O_ 0.978906 0.783126 0.973108 -0.46727
O_ O_ 0.811942 0.829282 0.987565 -0.46727
