_cell_length_a 26.376
_cell_length_b 26.400000238300095
_cell_length_c 46.67800035477134
_cell_angle_alpha 90.00700052986613
_cell_angle_beta 89.99899961309502
_cell_angle_gamma 90.45000003183146
_symmetry_space_group_name_H-M         'P 1'
_symmetry_Int_Tables_number            1
loop_
_symmetry_equiv_pos_as_xyz
   'x, y, z'
                         
loop_
_atom_site_label
_atom_site_type_symbol
_atom_site_fract_x 
_atom_site_fract_y
_atom_site_fract_z
_atom_site_charge
Zn Zn 0.144469 0.173488 0.380208 0.90689
Zn Zn 0.154767 0.172798 0.428134 0.90689
Zn Zn 0.384242 0.319842 0.133821 0.90689
Zn Zn 0.375062 0.323666 0.181132 0.90689
H_ H_ 0.31939 0.196997 0.445856 0.11455
H_ H_ 0.39422 0.173134 0.348169 0.11455
H_ H_ 0.303142 0.164527 0.356292 0.11455
H_ H_ 0.405344 0.173535 0.46588 0.11455
H_ H_ 0.499486 0.178416 0.461279 0.11455
H_ H_ 0.475642 0.166995 0.369185 0.11455
H_ H_ 0.141623 0.00625592 0.447213 0.11455
H_ H_ 0.16205 0.427014 0.347287 0.11455
H_ H_ 0.143229 0.0191672 0.356672 0.11455
H_ H_ 0.0956375 0.413768 0.46057 0.11455
H_ H_ 0.101583 0.320954 0.455863 0.11455
H_ H_ 0.165355 0.343746 0.370885 0.11455
H_ H_ 0.0988444 0.104892 0.464574 0.11455
H_ H_ 0.0861325 0.0716961 0.0211261 0.11455
H_ H_ 0.120207 0.122639 0.0579856 0.11455
H_ H_ 0.210631 0.239706 0.475085 0.11455
H_ H_ 0.228378 0.301211 0.0094036 0.11455
H_ H_ 0.216303 0.275723 0.0608292 0.11455
H_ H_ 0.0316104 0.21675 0.124083 0.11455
H_ H_ 0.0239363 0.211093 0.173904 0.11455
H_ H_ 0.276894 0.164868 0.134704 0.11455
H_ H_ 0.268087 0.153365 0.187734 0.11455
H_ H_ 0.0804213 0.0836163 0.246984 0.11455
H_ H_ 0.0569549 0.0666419 0.297317 0.11455
H_ H_ 0.0904524 0.120216 0.339443 0.11455
H_ H_ 0.191903 0.229509 0.255571 0.11455
H_ H_ 0.221338 0.276602 0.295712 0.11455
H_ H_ 0.2011 0.253564 0.343802 0.11455
H_ H_ 0.211053 0.296085 0.192791 0.11455
H_ H_ 0.140841 0.335477 0.0964902 0.11455
H_ H_ 0.233712 0.331463 0.104086 0.11455
H_ H_ 0.119727 0.296841 0.213103 0.11455
H_ H_ 0.0282216 0.299383 0.20609 0.11455
H_ H_ 0.0523873 0.32886 0.115484 0.11455
H_ H_ 0.384583 0.490685 0.192531 0.11455
H_ H_ 0.353056 0.0720545 0.10198 0.11455
H_ H_ 0.337637 0.471759 0.104886 0.11455
H_ H_ 0.393774 0.0722819 0.218387 0.11455
H_ H_ 0.406941 0.166018 0.211699 0.11455
H_ H_ 0.361004 0.152541 0.125342 0.11455
H_ H_ 0.422919 0.403583 0.218661 0.11455
H_ H_ 0.428771 0.437382 0.265353 0.11455
H_ H_ 0.401584 0.393606 0.306653 0.11455
H_ H_ 0.31538 0.259229 0.227688 0.11455
H_ H_ 0.296661 0.201676 0.271674 0.11455
H_ H_ 0.339948 0.218202 0.317559 0.11455
H_ H_ 0.509466 0.307326 0.377099 0.11455
H_ H_ 0.516907 0.311198 0.429728 0.11455
H_ H_ 0.254001 0.317142 0.389858 0.11455
H_ H_ 0.266216 0.325827 0.44222 0.11455
H_ H_ 0.446264 0.404196 0.501888 0.11455
H_ H_ 0.45921 0.438414 0.0470308 0.11455
H_ H_ 0.433756 0.389258 0.0881555 0.11455
H_ H_ 0.342666 0.254418 0.0137153 0.11455
H_ H_ 0.318477 0.206774 0.0584902 0.11455
H_ H_ 0.336917 0.239675 0.103162 0.11455
C_ C_ 0.247876 0.17452 0.4056 0.68181
C_ C_ 0.304013 0.182212 0.401486 -0.05681
C_ C_ 0.337058 0.187834 0.425251 -0.08735
C_ C_ 0.390126 0.182142 0.421515 -0.05681
C_ C_ 0.410203 0.180131 0.393504 -0.05681
C_ C_ 0.37749 0.180691 0.36965 -0.08735
C_ C_ 0.326068 0.172244 0.374565 -0.08735
C_ C_ 0.422389 0.174073 0.445104 -0.08735
C_ C_ 0.475219 0.177637 0.441943 -0.08735
C_ C_ 0.496161 0.178049 0.414459 -0.05681
C_ C_ 0.461136 0.17415 0.391076 -0.08735
C_ C_ 0.141614 0.269725 0.410528 0.68181
C_ C_ 0.143723 0.0773444 0.401743 0.68181
C_ C_ 0.136528 0.0199737 0.402082 -0.05681
C_ C_ 0.113193 0.484731 0.418537 -0.08735
C_ C_ 0.120494 0.43277 0.417568 -0.05681
C_ C_ 0.141863 0.40928 0.391918 -0.05681
C_ C_ 0.154102 0.442084 0.369274 -0.08735
C_ C_ 0.150514 0.494025 0.371211 -0.08735
C_ C_ 0.103144 0.399896 0.439447 -0.08735
C_ C_ 0.111608 0.34615 0.437019 -0.08735
C_ C_ 0.132001 0.324423 0.411916 -0.05681
C_ C_ 0.147047 0.355645 0.389579 -0.08735
C_ C_ 0.0525799 0.174188 0.405169 0.68181
C_ C_ 0.119376 0.120336 0.482555 0.1947
C_ C_ 0.106874 0.103507 0.0132832 -0.08735
C_ C_ 0.125587 0.135277 0.0350834 -0.08735
C_ C_ 0.148556 0.183001 0.0291991 -0.05681
C_ C_ 0.155153 0.195539 0.999661 0.18498
C_ C_ 0.193465 0.237005 0.495354 -0.08735
C_ C_ 0.208934 0.26789 0.0140249 -0.08735
C_ C_ 0.198288 0.255668 0.0422919 -0.08735
C_ C_ 0.172196 0.21206 0.0501927 0.18498
C_ C_ 0.204413 0.179892 0.0973498 0.44287
C_ C_ 0.118639 0.203628 0.0927393 0.44287
C_ C_ 0.111018 0.195903 0.121573 -0.05681
C_ C_ 0.0646594 0.205026 0.134956 -0.08735
C_ C_ 0.0593206 0.198998 0.163546 -0.08735
C_ C_ 0.0984413 0.181045 0.181477 -0.05681
C_ C_ 0.143812 0.168204 0.168318 -0.05681
C_ C_ 0.151051 0.177317 0.138413 -0.05681
C_ C_ 0.199015 0.169788 0.126637 -0.05681
C_ C_ 0.240323 0.159041 0.144263 -0.08735
C_ C_ 0.23543 0.154748 0.17401 -0.08735
C_ C_ 0.186163 0.160467 0.186033 -0.05681
C_ C_ 0.179499 0.157386 0.216144 0.44287
C_ C_ 0.0940833 0.180016 0.211637 0.44287
C_ C_ 0.12217 0.151866 0.258244 0.18498
C_ C_ 0.0950862 0.10723 0.265252 -0.08735
C_ C_ 0.0821376 0.0975844 0.294158 -0.08735
C_ C_ 0.102316 0.128095 0.316914 -0.08735
C_ C_ 0.128043 0.170347 0.310957 0.18498
C_ C_ 0.141389 0.180971 0.281094 -0.05681
C_ C_ 0.177119 0.218664 0.276319 -0.08735
C_ C_ 0.199487 0.243599 0.299938 -0.08735
C_ C_ 0.191975 0.226535 0.327378 0.1947
C_ C_ 0.281033 0.317747 0.155061 0.68181
C_ C_ 0.226135 0.317742 0.148935 -0.05681
C_ C_ 0.193498 0.306502 0.171787 -0.08735
C_ C_ 0.140735 0.311344 0.168891 -0.05681
C_ C_ 0.122386 0.325058 0.141321 -0.05681
C_ C_ 0.156306 0.333537 0.117914 -0.08735
C_ C_ 0.208257 0.334927 0.12224 -0.08735
C_ C_ 0.10621 0.308433 0.191553 -0.08735
C_ C_ 0.0531237 0.310442 0.188026 -0.08735
C_ C_ 0.0349504 0.320175 0.160835 -0.05681
C_ C_ 0.069166 0.325501 0.136941 -0.08735
C_ C_ 0.387501 0.220341 0.164668 0.68181
C_ C_ 0.362416 0.416576 0.150668 0.68181
C_ C_ 0.369167 0.471333 0.147707 -0.05681
C_ C_ 0.382495 0.00457296 0.173976 -0.08735
C_ C_ 0.384078 0.0587584 0.172654 -0.05681
C_ C_ 0.376519 0.0837235 0.145527 -0.05681
C_ C_ 0.368041 0.0531309 0.121208 -0.08735
C_ C_ 0.356803 0.494801 0.12062 -0.08735
C_ C_ 0.392731 0.0888354 0.197674 -0.08735
C_ C_ 0.398045 0.1418 0.194431 -0.08735
C_ C_ 0.388823 0.165248 0.167594 -0.05681
C_ C_ 0.377451 0.135139 0.143898 -0.08735
C_ C_ 0.477678 0.328148 0.160111 0.68181
C_ C_ 0.406391 0.382005 0.234768 0.1947
C_ C_ 0.405153 0.405545 0.261618 -0.08735
C_ C_ 0.391917 0.377372 0.28507 -0.08735
C_ C_ 0.374517 0.326589 0.281039 -0.05681
C_ C_ 0.367938 0.308571 0.252583 0.18498
C_ C_ 0.335142 0.264651 0.248117 -0.08735
C_ C_ 0.322783 0.233326 0.272826 -0.08735
C_ C_ 0.343729 0.245295 0.299356 -0.08735
C_ C_ 0.366865 0.291504 0.303953 0.18498
C_ C_ 0.330891 0.314968 0.351438 0.44287
C_ C_ 0.419792 0.307213 0.345787 0.44287
C_ C_ 0.427031 0.306796 0.37647 -0.05681
C_ C_ 0.475227 0.309129 0.389569 -0.08735
C_ C_ 0.480227 0.308733 0.419703 -0.08735
C_ C_ 0.436406 0.313399 0.437858 -0.05681
C_ C_ 0.389047 0.315431 0.424899 -0.05681
C_ C_ 0.385169 0.309857 0.39457 -0.05681
C_ C_ 0.336989 0.317309 0.381566 -0.05681
C_ C_ 0.294003 0.31812 0.399073 -0.08735
C_ C_ 0.297093 0.319626 0.428759 -0.08735
C_ C_ 0.344813 0.318524 0.441444 -0.05681
C_ C_ 0.350982 0.326007 0.471688 0.44287
C_ C_ 0.440668 0.313878 0.468111 0.44287
C_ C_ 0.393924 0.347982 0.0113518 0.18498
C_ C_ 0.42935 0.38634 0.0162336 -0.08735
C_ C_ 0.437298 0.405337 0.0440203 -0.08735
C_ C_ 0.423334 0.376928 0.0670967 -0.08735
C_ C_ 0.395628 0.332544 0.064163 0.18498
C_ C_ 0.381186 0.317052 0.0361018 -0.05681
C_ C_ 0.356159 0.269897 0.0340995 -0.08735
C_ C_ 0.338146 0.243898 0.0585335 -0.08735
C_ C_ 0.347352 0.264107 0.0856038 0.1947
N_ N_ 0.148588 0.16293 0.478282 -0.29468
N_ N_ 0.165824 0.197758 0.0808433 -0.17154
N_ N_ 0.132742 0.165165 0.228222 -0.17154
N_ N_ 0.154883 0.191856 0.333056 -0.29468
N_ N_ 0.380897 0.338491 0.229408 -0.29468
N_ N_ 0.372764 0.307887 0.333766 -0.17154
N_ N_ 0.397731 0.320613 0.484227 -0.17154
N_ N_ 0.378423 0.303776 0.089055 -0.29468
O_ O_ 0.228258 0.17843 0.42956 -0.58347
O_ O_ 0.220336 0.168529 0.382779 -0.58347
O_ O_ 0.147124 0.24374 0.433333 -0.58347
O_ O_ 0.147303 0.248933 0.386252 -0.58347
O_ O_ 0.154284 0.0978202 0.425388 -0.58347
O_ O_ 0.140599 0.101065 0.378295 -0.58347
O_ O_ 0.0818237 0.168304 0.426505 -0.58347
O_ O_ 0.0710358 0.174114 0.379478 -0.58347
O_ O_ 0.0791771 0.216623 0.0762165 -0.46727
O_ O_ 0.247763 0.171441 0.0849015 -0.46727
O_ O_ 0.0549196 0.202098 0.223077 -0.46727
O_ O_ 0.217584 0.145888 0.233229 -0.46727
O_ O_ 0.298978 0.322111 0.179812 -0.58347
O_ O_ 0.310239 0.30273 0.135677 -0.58347
O_ O_ 0.375909 0.247101 0.186076 -0.58347
O_ O_ 0.398999 0.243768 0.141294 -0.58347
O_ O_ 0.374777 0.397157 0.174795 -0.58347
O_ O_ 0.36494 0.388992 0.128914 -0.58347
O_ O_ 0.449269 0.331377 0.181743 -0.58347
O_ O_ 0.457652 0.330252 0.135401 -0.58347
O_ O_ 0.460467 0.304796 0.329766 -0.46727
O_ O_ 0.28514 0.314313 0.339375 -0.46727
O_ O_ 0.485973 0.314552 0.480349 -0.46727
O_ O_ 0.311925 0.33696 0.487613 -0.46727
Zn Zn 0.118796 0.185174 0.882605 0.90689
Zn Zn 0.129521 0.179135 0.930141 0.90689
Zn Zn 0.372979 0.322728 0.634932 0.90689
Zn Zn 0.359883 0.324803 0.682479 0.90689
H_ H_ 0.295538 0.213678 0.947404 0.11455
H_ H_ 0.36185 0.177299 0.848464 0.11455
H_ H_ 0.271548 0.174738 0.856957 0.11455
H_ H_ 0.379735 0.18531 0.967143 0.11455
H_ H_ 0.473726 0.185532 0.959318 0.11455
H_ H_ 0.449378 0.202292 0.868612 0.11455
H_ H_ 0.141603 0.0174717 0.941339 0.11455
H_ H_ 0.104312 0.435864 0.851112 0.11455
H_ H_ 0.138258 0.0276667 0.850721 0.11455
H_ H_ 0.127584 0.432621 0.966788 0.11455
H_ H_ 0.112728 0.339222 0.962951 0.11455
H_ H_ 0.109452 0.353506 0.871671 0.11455
H_ H_ 0.0789536 0.109266 0.970067 0.11455
H_ H_ 0.0814185 0.0720156 0.513729 0.11455
H_ H_ 0.116993 0.120426 0.554549 0.11455
H_ H_ 0.198242 0.24437 0.969459 0.11455
H_ H_ 0.229599 0.299728 0.514146 0.11455
H_ H_ 0.199245 0.285155 0.562906 0.11455
H_ H_ 0.0117938 0.210961 0.615053 0.11455
H_ H_ -0.004238999999999993 0.210877 0.665473 0.11455
H_ H_ 0.260575 0.180661 0.642885 0.11455
H_ H_ 0.244522 0.173571 0.69561 0.11455
H_ H_ 0.0411956 0.103535 0.74565 0.11455
H_ H_ 0.0316794 0.0687801 0.797418 0.11455
H_ H_ 0.0667676 0.116187 0.837874 0.11455
H_ H_ 0.147822 0.246727 0.756856 0.11455
H_ H_ 0.177378 0.296651 0.796482 0.11455
H_ H_ 0.1629 0.27306 0.846826 0.11455
H_ H_ 0.194306 0.313211 0.699747 0.11455
H_ H_ 0.12767 0.325218 0.602242 0.11455
H_ H_ 0.217381 0.340602 0.609831 0.11455
H_ H_ 0.102876 0.312257 0.717965 0.11455
H_ H_ 0.0122356 0.318308 0.707919 0.11455
H_ H_ 0.0436173 0.321995 0.618741 0.11455
H_ H_ 0.352525 0.492305 0.698627 0.11455
H_ H_ 0.382744 0.0651938 0.599205 0.11455
H_ H_ 0.332187 0.47991 0.606957 0.11455
H_ H_ 0.342368 0.0740709 0.712503 0.11455
H_ H_ 0.340511 0.164736 0.707274 0.11455
H_ H_ 0.378857 0.151743 0.61872 0.11455
H_ H_ 0.433943 0.384899 0.718846 0.11455
H_ H_ 0.449392 0.415673 0.765647 0.11455
H_ H_ 0.412137 0.374426 0.807212 0.11455
H_ H_ 0.312011 0.255741 0.724326 0.11455
H_ H_ 0.279144 0.204495 0.766675 0.11455
H_ H_ 0.286694 0.232245 0.813959 0.11455
H_ H_ 0.486141 0.308927 0.874982 0.11455
H_ H_ 0.493813 0.306604 0.926112 0.11455
H_ H_ 0.236139 0.345353 0.888245 0.11455
H_ H_ 0.246845 0.354254 0.941105 0.11455
H_ H_ 0.445442 0.404609 -0.0027894 0.11455
H_ H_ 0.435183 0.448881 0.548946 0.11455
H_ H_ 0.420164 0.395627 0.591067 0.11455
H_ H_ 0.352224 0.243682 0.515111 0.11455
H_ H_ 0.317206 0.204869 0.559139 0.11455
H_ H_ 0.312795 0.248548 0.602705 0.11455
C_ C_ 0.219123 0.193718 0.906246 0.68181
C_ C_ 0.276314 0.194768 0.90163 -0.05681
C_ C_ 0.309699 0.200858 0.925468 -0.08735
C_ C_ 0.362471 0.194131 0.921565 -0.05681
C_ C_ 0.381571 0.186145 0.894486 -0.05681
C_ C_ 0.348179 0.177374 0.87117 -0.08735
C_ C_ 0.297809 0.182271 0.875042 -0.08735
C_ C_ 0.394196 0.192515 0.94529 -0.08735
C_ C_ 0.447532 0.19042 0.94063 -0.08735
C_ C_ 0.467297 0.186898 0.912065 -0.05681
C_ C_ 0.4335 0.189688 0.888524 -0.08735
C_ C_ 0.121637 0.281899 0.913727 0.68181
C_ C_ 0.130005 0.0865696 0.899682 0.68181
C_ C_ 0.131119 0.0295301 0.897379 -0.05681
C_ C_ 0.13624 0.499658 0.924191 -0.08735
C_ C_ 0.130103 0.44559 0.921843 -0.05681
C_ C_ 0.121916 0.423421 0.89541 -0.05681
C_ C_ 0.117143 0.453354 0.870973 -0.08735
C_ C_ 0.11851 0.504875 0.87233 -0.08735
C_ C_ 0.124484 0.413798 0.945754 -0.08735
C_ C_ 0.120734 0.360771 0.943317 -0.08735
C_ C_ 0.117499 0.338126 0.916592 -0.05681
C_ C_ 0.118741 0.370598 0.89235 -0.08735
C_ C_ 0.0287482 0.179655 0.907035 0.68181
C_ C_ 0.103299 0.124568 0.985845 0.1947
C_ C_ 0.106382 0.104776 0.51087 -0.08735
C_ C_ 0.1275 0.13134 0.533912 -0.08735
C_ C_ 0.149738 0.178958 0.529294 -0.05681
C_ C_ 0.164406 0.193908 0.501083 0.18498
C_ C_ 0.185219 0.238739 0.991876 -0.08735
C_ C_ 0.205026 0.268704 0.518268 -0.08735
C_ C_ 0.187174 0.2585 0.545528 -0.08735
C_ C_ 0.161844 0.212008 0.551479 0.18498
C_ C_ 0.188244 0.186262 0.599505 0.44287
C_ C_ 0.102177 0.20544 0.590864 0.44287
C_ C_ 0.0900215 0.196456 0.619863 -0.05681
C_ C_ 0.041147 0.198697 0.629587 -0.08735
C_ C_ 0.03122 0.196787 0.659085 -0.08735
C_ C_ 0.070243 0.186414 0.67913 -0.05681
C_ C_ 0.119999 0.183563 0.669256 -0.05681
C_ C_ 0.129869 0.18596 0.63964 -0.05681
C_ C_ 0.181408 0.18573 0.629884 -0.05681
C_ C_ 0.221819 0.179356 0.649951 -0.08735
C_ C_ 0.211864 0.175664 0.678898 -0.08735
C_ C_ 0.162487 0.179425 0.689161 -0.05681
C_ C_ 0.148098 0.173046 0.717842 0.44287
C_ C_ 0.0621101 0.18478 0.710111 0.44287
C_ C_ 0.0885117 0.164908 0.759085 0.18498
C_ C_ 0.0537397 0.12474 0.765105 -0.08735
C_ C_ 0.0460319 0.107826 0.793481 -0.08735
C_ C_ 0.070482 0.131985 0.816206 -0.08735
C_ C_ 0.0968874 0.177502 0.810734 0.18498
C_ C_ 0.108031 0.192148 0.78243 -0.05681
C_ C_ 0.138536 0.235594 0.777984 -0.08735
C_ C_ 0.152756 0.266127 0.801432 -0.08735
C_ C_ 0.147115 0.248252 0.829464 0.1947
C_ C_ 0.267847 0.329849 0.660879 0.68181
C_ C_ 0.211931 0.328332 0.656281 -0.05681
C_ C_ 0.178403 0.313488 0.678468 -0.08735
C_ C_ 0.12549 0.310727 0.673754 -0.05681
C_ C_ 0.108385 0.319122 0.645744 -0.05681
C_ C_ 0.143045 0.319822 0.623282 -0.08735
C_ C_ 0.19347 0.331692 0.628438 -0.08735
C_ C_ 0.0912076 0.309362 0.696751 -0.08735
C_ C_ 0.0382331 0.31407 0.690799 -0.08735
C_ C_ 0.021161 0.316074 0.662163 -0.05681
C_ C_ 0.0567245 0.317041 0.639893 -0.08735
C_ C_ 0.366773 0.22367 0.66035 0.68181
C_ C_ 0.35698 0.421975 0.654978 0.68181
C_ C_ 0.35616 0.478174 0.652383 -0.05681
C_ C_ 0.34833 0.00654345 0.671095 -0.08735
C_ C_ 0.356681 0.0603483 0.669058 -0.05681
C_ C_ 0.36845 0.082028 0.642013 -0.05681
C_ C_ 0.372573 0.0495432 0.618582 -0.08735
C_ C_ 0.343359 0.50026 0.626035 -0.08735
C_ C_ 0.35055 0.0925598 0.692625 -0.08735
C_ C_ 0.356469 0.143923 0.690182 -0.08735
C_ C_ 0.365892 0.165865 0.66357 -0.05681
C_ C_ 0.374844 0.13407 0.639944 -0.08735
C_ C_ 0.462758 0.321173 0.65472 0.68181
C_ C_ 0.411853 0.36903 0.735752 0.1947
C_ C_ 0.426134 0.383022 0.762783 -0.08735
C_ C_ 0.398935 0.362027 0.785865 -0.08735
C_ C_ 0.364834 0.32198 0.782467 -0.05681
C_ C_ 0.352252 0.308341 0.753345 0.18498
C_ C_ 0.317233 0.268982 0.747836 -0.08735
C_ C_ 0.2996 0.238685 0.770587 -0.08735
C_ C_ 0.311972 0.250689 0.798562 -0.08735
C_ C_ 0.341322 0.294287 0.805267 0.18498
C_ C_ 0.307915 0.317373 0.85238 0.44287
C_ C_ 0.397244 0.3022 0.848162 0.44287
C_ C_ 0.405588 0.313586 0.876393 -0.05681
C_ C_ 0.454228 0.315318 0.888267 -0.08735
C_ C_ 0.459336 0.316904 0.917418 -0.08735
C_ C_ 0.416668 0.318762 0.93507 -0.05681
C_ C_ 0.368013 0.322084 0.924282 -0.05681
C_ C_ 0.361624 0.323051 0.893752 -0.05681
C_ C_ 0.313541 0.328906 0.880939 -0.05681
C_ C_ 0.271126 0.338225 0.898237 -0.08735
C_ C_ 0.277898 0.344725 0.928271 -0.08735
C_ C_ 0.327283 0.335274 0.941575 -0.05681
C_ C_ 0.33604 0.347381 0.97005 0.44287
C_ C_ 0.421158 0.315674 0.965348 0.44287
C_ C_ 0.405157 0.335533 0.514678 0.18498
C_ C_ 0.428479 0.38272 0.520064 -0.08735
C_ C_ 0.424159 0.408258 0.545955 -0.08735
C_ C_ 0.410855 0.380549 0.570706 -0.08735
C_ C_ 0.38779 0.331285 0.567787 0.18498
C_ C_ 0.386095 0.307583 0.539174 -0.05681
C_ C_ 0.360641 0.261631 0.536403 -0.08735
C_ C_ 0.341472 0.238349 0.560094 -0.08735
C_ C_ 0.337815 0.264458 0.585892 0.1947
N_ N_ 0.128614 0.168467 0.979767 -0.29468
N_ N_ 0.150237 0.200316 0.581508 -0.17154
N_ N_ 0.100267 0.177858 0.729104 -0.17154
N_ N_ 0.11902 0.20599 0.833942 -0.29468
N_ N_ 0.374113 0.333961 0.730502 -0.29468
N_ N_ 0.348967 0.304739 0.83585 -0.17154
N_ N_ 0.381097 0.33249 0.982078 -0.17154
N_ N_ 0.366703 0.308385 0.59039 -0.29468
O_ O_ 0.203149 0.174629 0.928999 -0.58347
O_ O_ 0.190007 0.201376 0.885059 -0.58347
O_ O_ 0.140732 0.255021 0.933571 -0.58347
O_ O_ 0.108392 0.261869 0.889869 -0.58347
O_ O_ 0.122967 0.106249 0.924102 -0.58347
O_ O_ 0.128758 0.115125 0.876827 -0.58347
O_ O_ 0.0574681 0.190105 0.927747 -0.58347
O_ O_ 0.0465887 0.169186 0.883251 -0.58347
O_ O_ 0.0646952 0.216587 0.572204 -0.46727
O_ O_ 0.23437 0.178946 0.589557 -0.46727
O_ O_ 0.0152204 0.186686 0.719947 -0.46727
O_ O_ 0.186241 0.16475 0.73565 -0.46727
O_ O_ 0.288312 0.33397 0.685906 -0.58347
O_ O_ 0.294678 0.316227 0.639306 -0.58347
O_ O_ 0.356852 0.250378 0.682836 -0.58347
O_ O_ 0.383668 0.246083 0.637827 -0.58347
O_ O_ 0.362227 0.401075 0.678852 -0.58347
O_ O_ 0.363013 0.396846 0.632045 -0.58347
O_ O_ 0.433954 0.321665 0.67687 -0.58347
O_ O_ 0.446151 0.326721 0.629996 -0.58347
O_ O_ 0.432703 0.28141 0.831612 -0.46727
O_ O_ 0.264371 0.323726 0.839712 -0.46727
O_ O_ 0.467573 0.315143 0.977287 -0.46727
O_ O_ 0.297718 0.359753 0.986612 -0.46727
Zn Zn 0.121438 0.676989 0.382243 0.90689
Zn Zn 0.13532 0.671307 0.427982 0.90689
Zn Zn 0.365581 0.822024 0.132993 0.90689
Zn Zn 0.354663 0.821268 0.180992 0.90689
H_ H_ 0.30122 0.702987 0.441587 0.11455
H_ H_ 0.364451 0.656057 0.345601 0.11455
H_ H_ 0.274602 0.654574 0.356544 0.11455
H_ H_ 0.379528 0.691566 0.46051 0.11455
H_ H_ 0.472131 0.678245 0.4556 0.11455
H_ H_ 0.451149 0.654411 0.364063 0.11455
H_ H_ 0.0926078 0.501946 0.435467 0.11455
H_ H_ 0.140872 0.92739 0.350313 0.11455
H_ H_ 0.162916 0.517831 0.354379 0.11455
H_ H_ 0.126153 0.915915 0.46914 0.11455
H_ H_ 0.112225 0.828471 0.463117 0.11455
H_ H_ 0.120288 0.845307 0.371376 0.11455
H_ H_ 0.0720751 0.602662 0.464343 0.11455
H_ H_ 0.0645865 0.574476 0.013384 0.11455
H_ H_ 0.090492 0.622814 0.0565396 0.11455
H_ H_ 0.190564 0.733965 0.471163 0.11455
H_ H_ 0.23234 0.789838 0.0188449 0.11455
H_ H_ 0.201192 0.772685 0.0675678 0.11455
H_ H_ 0.0114537 0.705404 0.125559 0.11455
H_ H_ 0.000729382 0.693137 0.17941 0.11455
H_ H_ 0.255258 0.649865 0.134486 0.11455
H_ H_ 0.244068 0.620469 0.18494 0.11455
H_ H_ 0.0970585 0.56895 0.246528 0.11455
H_ H_ 0.07197 0.542365 0.299876 0.11455
H_ H_ 0.0860607 0.602634 0.339517 0.11455
H_ H_ 0.161173 0.738917 0.258395 0.11455
H_ H_ 0.186414 0.79264 0.299596 0.11455
H_ H_ 0.154801 0.76642 0.347475 0.11455
H_ H_ 0.188653 0.803162 0.1984 0.11455
H_ H_ 0.126714 0.83345 0.100954 0.11455
H_ H_ 0.216398 0.848298 0.110398 0.11455
H_ H_ 0.103316 0.8171 0.216199 0.11455
H_ H_ 0.0102676 0.813271 0.207274 0.11455
H_ H_ 0.0339536 0.820844 0.117579 0.11455
H_ H_ 0.384962 0.983747 0.19367 0.11455
H_ H_ 0.340521 0.5654 0.0975831 0.11455
H_ H_ 0.35744 0.980786 0.104524 0.11455
H_ H_ 0.399714 0.570979 0.211252 0.11455
H_ H_ 0.389407 0.664951 0.207973 0.11455
H_ H_ 0.346567 0.650405 0.119557 0.11455
H_ H_ 0.420151 0.87893 0.216455 0.11455
H_ H_ 0.443812 0.902958 0.263057 0.11455
H_ H_ 0.392482 0.87281 0.303414 0.11455
H_ H_ 0.292862 0.756671 0.223082 0.11455
H_ H_ 0.266158 0.700042 0.263141 0.11455
H_ H_ 0.291827 0.723605 0.314347 0.11455
H_ H_ 0.476892 0.78554 0.370759 0.11455
H_ H_ 0.489434 0.794307 0.423411 0.11455
H_ H_ 0.227492 0.827597 0.389562 0.11455
H_ H_ 0.23903 0.833196 0.440911 0.11455
H_ H_ 0.423039 0.91501 0.497643 0.11455
H_ H_ 0.440399 0.948768 0.042505 0.11455
H_ H_ 0.410476 0.901496 0.0868612 0.11455
H_ H_ 0.334366 0.753576 0.0103403 0.11455
H_ H_ 0.301588 0.711991 0.052896 0.11455
H_ H_ 0.316615 0.749395 0.101021 0.11455
C_ C_ 0.224704 0.683118 0.405059 0.68181
C_ C_ 0.280051 0.681136 0.399283 -0.05681
C_ C_ 0.314133 0.689728 0.421228 -0.08735
C_ C_ 0.367108 0.685606 0.415986 -0.05681
C_ C_ 0.384903 0.674265 0.388579 -0.05681
C_ C_ 0.3507 0.665671 0.366235 -0.08735
C_ C_ 0.298302 0.666628 0.372999 -0.08735
C_ C_ 0.397906 0.686457 0.439852 -0.08735
C_ C_ 0.44899 0.674984 0.436738 -0.08735
C_ C_ 0.471354 0.670324 0.408168 -0.05681
C_ C_ 0.438445 0.669458 0.383468 -0.08735
C_ C_ 0.118447 0.772173 0.411952 0.68181
C_ C_ 0.139079 0.57159 0.40028 0.68181
C_ C_ 0.13081 0.51593 0.395647 -0.05681
C_ C_ 0.133614 0.98904 0.42642 -0.08735
C_ C_ 0.128915 0.935412 0.423342 -0.05681
C_ C_ 0.125831 0.913358 0.395268 -0.05681
C_ C_ 0.132065 0.944704 0.371721 -0.08735
C_ C_ 0.137193 0.995776 0.375608 -0.08735
C_ C_ 0.123317 0.903158 0.446448 -0.08735
C_ C_ 0.115694 0.850384 0.443209 -0.08735
C_ C_ 0.11612 0.827093 0.415826 -0.05681
C_ C_ 0.117213 0.860435 0.392287 -0.08735
C_ C_ 0.0283224 0.667509 0.40417 0.68181
C_ C_ 0.0938602 0.619939 0.481304 0.1947
C_ C_ 0.0892019 0.607042 0.0114723 -0.08735
C_ C_ 0.105238 0.634428 0.035927 -0.08735
C_ C_ 0.135686 0.676901 0.0310092 -0.05681
C_ C_ 0.148265 0.691681 1.00271508 0.18498
C_ C_ 0.182458 0.724624 0.493081 -0.08735
C_ C_ 0.199775 0.764113 0.0214004 -0.08735
C_ C_ 0.183109 0.752776 0.0487724 -0.08735
C_ C_ 0.152059 0.708793 0.0543285 0.18498
C_ C_ 0.183064 0.676828 0.098497 0.44287
C_ C_ 0.0974288 0.703719 0.0960826 0.44287
C_ C_ 0.0893015 0.689509 0.126062 -0.05681
C_ C_ 0.0411949 0.692161 0.140446 -0.08735
C_ C_ 0.0361572 0.686446 0.168861 -0.08735
C_ C_ 0.0802886 0.679249 0.186796 -0.05681
C_ C_ 0.126016 0.668328 0.172091 -0.05681
C_ C_ 0.131308 0.675534 0.141738 -0.05681
C_ C_ 0.178207 0.666499 0.128173 -0.05681
C_ C_ 0.219307 0.652885 0.144563 -0.08735
C_ C_ 0.212534 0.637575 0.172843 -0.08735
C_ C_ 0.168471 0.6498 0.186533 -0.05681
C_ C_ 0.164738 0.651984 0.217554 0.44287
C_ C_ 0.0759995 0.67056 0.215608 0.44287
C_ C_ 0.115298 0.646083 0.2603 0.18498
C_ C_ 0.102585 0.593375 0.265998 -0.08735
C_ C_ 0.088802 0.580111 0.294841 -0.08735
C_ C_ 0.0962388 0.613934 0.317754 -0.08735
C_ C_ 0.117681 0.662997 0.312629 0.18498
C_ C_ 0.131124 0.67855 0.283647 -0.05681
C_ C_ 0.15895 0.722955 0.279463 -0.08735
C_ C_ 0.170855 0.755004 0.302449 -0.08735
C_ C_ 0.153655 0.740915 0.330483 0.1947
C_ C_ 0.262409 0.823418 0.157872 0.68181
C_ C_ 0.20745 0.823521 0.153721 -0.05681
C_ C_ 0.173661 0.814487 0.176923 -0.08735
C_ C_ 0.121771 0.818301 0.172133 -0.05681
C_ C_ 0.103833 0.822806 0.143775 -0.05681
C_ C_ 0.13854 0.83161 0.121242 -0.08735
C_ C_ 0.188591 0.83913 0.127216 -0.08735
C_ C_ 0.08989 0.811347 0.195046 -0.08735
C_ C_ 0.0362678 0.810639 0.189711 -0.08735
C_ C_ 0.0167945 0.819285 0.162625 -0.05681
C_ C_ 0.0494412 0.824313 0.139486 -0.08735
C_ C_ 0.362463 0.720211 0.163056 0.68181
C_ C_ 0.356108 0.920632 0.151114 0.68181
C_ C_ 0.371349 0.975522 0.149784 -0.05681
C_ C_ 0.374048 0.504372 0.172114 -0.08735
C_ C_ 0.379436 0.557373 0.168072 -0.05681
C_ C_ 0.365763 0.579631 0.141316 -0.05681
C_ C_ 0.349111 0.547852 0.118054 -0.08735
C_ C_ 0.368222 0.0006900000000000794 0.123183 -0.08735
C_ C_ 0.390343 0.589965 0.191226 -0.08735
C_ C_ 0.389048 0.641555 0.188866 -0.08735
C_ C_ 0.366115 0.664471 0.16441 -0.05681
C_ C_ 0.360429 0.634996 0.139416 -0.08735
C_ C_ 0.459601 0.821246 0.157216 0.68181
C_ C_ 0.395983 0.86725 0.232297 0.1947
C_ C_ 0.40749 0.884169 0.258746 -0.08735
C_ C_ 0.384241 0.859321 0.282076 -0.08735
C_ C_ 0.352475 0.818591 0.277365 -0.05681
C_ C_ 0.337847 0.804266 0.250196 0.18498
C_ C_ 0.306113 0.763175 0.245711 -0.08735
C_ C_ 0.292168 0.732186 0.268032 -0.08735
C_ C_ 0.303955 0.745362 0.296467 -0.08735
C_ C_ 0.33249 0.78994 0.301505 0.18498
C_ C_ 0.302855 0.81931 0.348807 0.44287
C_ C_ 0.389306 0.79686 0.342591 0.44287
C_ C_ 0.399814 0.806993 0.372468 -0.05681
C_ C_ 0.446313 0.799795 0.38463 -0.08735
C_ C_ 0.453125 0.80535 0.414775 -0.08735
C_ C_ 0.412884 0.8188 0.432314 -0.05681
C_ C_ 0.364618 0.822099 0.420005 -0.05681
C_ C_ 0.357035 0.815457 0.389973 -0.05681
C_ C_ 0.307728 0.817893 0.378338 -0.05681
C_ C_ 0.26668 0.825517 0.397532 -0.08735
C_ C_ 0.27243 0.827424 0.426716 -0.08735
C_ C_ 0.322745 0.828115 0.438331 -0.05681
C_ C_ 0.331042 0.833807 0.466929 0.44287
C_ C_ 0.419135 0.821756 0.461881 0.44287
C_ C_ 0.381954 0.846598 0.00891818 0.18498
C_ C_ 0.405911 0.892436 0.0120025 -0.08735
C_ C_ 0.416436 0.913804 0.0396511 -0.08735
C_ C_ 0.399515 0.886781 0.0645986 -0.08735
C_ C_ 0.373612 0.840033 0.0610231 0.18498
C_ C_ 0.367076 0.819115 0.0335113 -0.05681
C_ C_ 0.344085 0.77022 0.0310322 -0.08735
C_ C_ 0.326824 0.746144 0.0553269 -0.08735
C_ C_ 0.337438 0.765324 0.0825432 0.1947
N_ N_ 0.12649 0.659622 0.475838 -0.29468
N_ N_ 0.143965 0.692778 0.0833034 -0.17154
N_ N_ 0.119096 0.660902 0.231001 -0.17154
N_ N_ 0.132444 0.692064 0.334908 -0.29468
N_ N_ 0.36122 0.828876 0.227402 -0.29468
N_ N_ 0.342577 0.805049 0.331106 -0.17154
N_ N_ 0.378318 0.830153 0.479738 -0.17154
N_ N_ 0.358218 0.812621 0.0843273 -0.29468
O_ O_ 0.20841 0.67034 0.430024 -0.58347
O_ O_ 0.195608 0.69847 0.385843 -0.58347
O_ O_ 0.130853 0.745346 0.433462 -0.58347
O_ O_ 0.10699 0.751426 0.38894 -0.58347
O_ O_ 0.133473 0.592807 0.424764 -0.58347
O_ O_ 0.140924 0.599649 0.37855 -0.58347
O_ O_ 0.0594508 0.674178 0.424911 -0.58347
O_ O_ 0.0458674 0.661908 0.378742 -0.58347
O_ O_ 0.0620204 0.726119 0.0814607 -0.46727
O_ O_ 0.228827 0.675489 0.0876786 -0.46727
O_ O_ 0.0307213 0.672366 0.229325 -0.46727
O_ O_ 0.204194 0.644698 0.233303 -0.46727
O_ O_ 0.281066 0.825575 0.182753 -0.58347
O_ O_ 0.292062 0.81874 0.136266 -0.58347
O_ O_ 0.346941 0.746182 0.184532 -0.58347
O_ O_ 0.370442 0.744755 0.13987 -0.58347
O_ O_ 0.365383 0.8973 0.174447 -0.58347
O_ O_ 0.355698 0.896717 0.128212 -0.58347
O_ O_ 0.43048 0.808896 0.1773 -0.58347
O_ O_ 0.442233 0.830004 0.132435 -0.58347
O_ O_ 0.425398 0.777976 0.326617 -0.46727
O_ O_ 0.257868 0.826566 0.337723 -0.46727
O_ O_ 0.462783 0.818775 0.473121 -0.46727
O_ O_ 0.290663 0.836748 0.483042 -0.46727
Zn Zn 0.123658 0.684845 0.881973 0.90689
Zn Zn 0.135587 0.681706 0.931046 0.90689
Zn Zn 0.366761 0.81948 0.632244 0.90689
Zn Zn 0.35791 0.826354 0.680159 0.90689
H_ H_ 0.302224 0.688276 0.948262 0.11455
H_ H_ 0.365356 0.670785 0.849433 0.11455
H_ H_ 0.278089 0.681603 0.856503 0.11455
H_ H_ 0.389697 0.686603 0.965913 0.11455
H_ H_ 0.477699 0.684274 0.95859 0.11455
H_ H_ 0.456657 0.656874 0.869048 0.11455
H_ H_ 0.141504 0.51369 0.944872 0.11455
H_ H_ 0.135407 0.931152 0.847584 0.11455
H_ H_ 0.115305 0.522255 0.851283 0.11455
H_ H_ 0.130617 0.933264 0.965259 0.11455
H_ H_ 0.129529 0.84055 0.960281 0.11455
H_ H_ 0.135522 0.849871 0.871129 0.11455
H_ H_ 0.0701248 0.613798 0.966674 0.11455
H_ H_ 0.0555701 0.577726 0.513132 0.11455
H_ H_ 0.100547 0.615858 0.553479 0.11455
H_ H_ 0.200671 0.735901 0.979045 0.11455
H_ H_ 0.218053 0.79413 0.508519 0.11455
H_ H_ 0.200449 0.768112 0.559918 0.11455
H_ H_ 1.00721016 0.685019 0.620609 0.11455
H_ H_ 0.9955 0.687455 0.671934 0.11455
H_ H_ 0.262254 0.685865 0.643996 0.11455
H_ H_ 0.244364 0.667347 0.693811 0.11455
H_ H_ 0.0527404 0.598056 0.746745 0.11455
H_ H_ 0.0346072 0.57259 0.796445 0.11455
H_ H_ 0.0750558 0.61865 0.837243 0.11455
H_ H_ 0.155945 0.75115 0.756771 0.11455
H_ H_ 0.192214 0.791383 0.799329 0.11455
H_ H_ 0.175452 0.761367 0.847513 0.11455
H_ H_ 0.192372 0.817877 0.697044 0.11455
H_ H_ 0.11842 0.805877 0.599097 0.11455
H_ H_ 0.208516 0.818281 0.605764 0.11455
H_ H_ 0.104173 0.825079 0.714238 0.11455
H_ H_ 0.0134823 0.810207 0.708074 0.11455
H_ H_ 0.0365948 0.793074 0.616873 0.11455
H_ H_ 0.34027 0.988661 0.692114 0.11455
H_ H_ 0.349276 0.568302 0.602348 0.11455
H_ H_ 0.365034 0.974742 0.601168 0.11455
H_ H_ 0.385477 0.57525 0.718585 0.11455
H_ H_ 0.405972 0.670016 0.711157 0.11455
H_ H_ 0.361814 0.654886 0.623396 0.11455
H_ H_ 0.413011 0.894035 0.720419 0.11455
H_ H_ 0.413775 0.925276 0.771869 0.11455
H_ H_ 0.385994 0.870993 0.810223 0.11455
H_ H_ 0.283995 0.767143 0.722887 0.11455
H_ H_ 0.272945 0.699662 0.757413 0.11455
H_ H_ 0.293414 0.712111 0.807862 0.11455
H_ H_ 0.473629 0.787204 0.871547 0.11455
H_ H_ 0.487403 0.806293 0.923661 0.11455
H_ H_ 0.228716 0.842486 0.885962 0.11455
H_ H_ 0.237829 0.856943 0.937927 0.11455
H_ H_ 0.419321 0.91118 0.993693 0.11455
H_ H_ 0.437087 0.941747 0.548236 0.11455
H_ H_ 0.407889 0.89406 0.587065 0.11455
H_ H_ 0.335942 0.756172 0.508019 0.11455
H_ H_ 0.304113 0.70749 0.548867 0.11455
H_ H_ 0.320352 0.738492 0.598539 0.11455
C_ C_ 0.226482 0.684184 0.906629 0.68181
C_ C_ 0.282046 0.684365 0.902247 -0.05681
C_ C_ 0.315408 0.683023 0.92673 -0.08735
C_ C_ 0.368563 0.682709 0.921578 -0.05681
C_ C_ 0.388151 0.672601 0.893918 -0.05681
C_ C_ 0.353634 0.669733 0.871223 -0.08735
C_ C_ 0.302703 0.682645 0.87468 -0.08735
C_ C_ 0.401639 0.680874 0.944963 -0.08735
C_ C_ 0.453492 0.679373 0.941254 -0.08735
C_ C_ 0.473782 0.676504 0.912669 -0.05681
C_ C_ 0.440821 0.670403 0.889601 -0.08735
C_ C_ 0.125449 0.782983 0.913792 0.68181
C_ C_ 0.131921 0.584963 0.9009 0.68181
C_ C_ 0.125913 0.529229 0.899286 -0.05681
C_ C_ 0.135675 0.999457 0.921911 -0.08735
C_ C_ 0.131374 0.944499 0.920141 -0.05681
C_ C_ 0.134737 0.920326 0.893101 -0.05681
C_ C_ 0.138207 0.951233 0.868191 -0.08735
C_ C_ 0.130836 0.00428912 0.869873 -0.08735
C_ C_ 0.128419 0.91436 0.94436 -0.08735
C_ C_ 0.125702 0.862353 0.941878 -0.08735
C_ C_ 0.126578 0.837106 0.915448 -0.05681
C_ C_ 0.131842 0.867668 0.891403 -0.08735
C_ C_ 0.028875 0.678745 0.907356 0.68181
C_ C_ 0.0957639 0.627122 0.984016 0.1947
C_ C_ 0.0802557 0.607867 0.509946 -0.08735
C_ C_ 0.104771 0.63038 0.532874 -0.08735
C_ C_ 0.136255 0.672514 0.527223 -0.05681
C_ C_ 0.149146 0.685786 0.498519 0.18498
C_ C_ 0.179421 0.733929 0.998127 -0.08735
C_ C_ 0.196956 0.757344 0.515402 -0.08735
C_ C_ 0.18456 0.744713 0.542813 -0.08735
C_ C_ 0.157539 0.699724 0.549819 0.18498
C_ C_ 0.187683 0.685597 0.59982 0.44287
C_ C_ 0.0989171 0.695407 0.592418 0.44287
C_ C_ 0.0903356 0.691372 0.622274 -0.05681
C_ C_ 0.0410263 0.686557 0.634312 -0.08735
C_ C_ 0.0344868 0.688462 0.664576 -0.08735
C_ C_ 0.0742122 0.693498 0.682448 -0.05681
C_ C_ 0.12316 0.686556 0.670928 -0.05681
C_ C_ 0.130395 0.689426 0.642113 -0.05681
C_ C_ 0.18036 0.687757 0.630305 -0.05681
C_ C_ 0.221687 0.678618 0.64902 -0.08735
C_ C_ 0.212295 0.673372 0.678227 -0.08735
C_ C_ 0.163371 0.676504 0.689687 -0.05681
C_ C_ 0.154164 0.672692 0.719089 0.44287
C_ C_ 0.0679015 0.687424 0.71224 0.44287
C_ C_ 0.0953479 0.664341 0.759293 0.18498
C_ C_ 0.0700811 0.62007 0.764259 -0.08735
C_ C_ 0.0607808 0.603658 0.792312 -0.08735
C_ C_ 0.0794161 0.63228 0.815251 -0.08735
C_ C_ 0.10725 0.676765 0.810303 0.18498
C_ C_ 0.114533 0.692878 0.781912 -0.05681
C_ C_ 0.145389 0.737059 0.778647 -0.08735
C_ C_ 0.163938 0.762725 0.802892 -0.08735
C_ C_ 0.154516 0.745524 0.830422 0.1947
C_ C_ 0.26537 0.815875 0.655194 0.68181
C_ C_ 0.210286 0.816503 0.651748 -0.05681
C_ C_ 0.175605 0.818105 0.674558 -0.08735
C_ C_ 0.121418 0.813997 0.670206 -0.05681
C_ C_ 0.10185 0.810647 0.642664 -0.05681
C_ C_ 0.136077 0.804157 0.620419 -0.08735
C_ C_ 0.188312 0.809894 0.623968 -0.08735
C_ C_ 0.0882892 0.815681 0.693422 -0.08735
C_ C_ 0.0363005 0.81342 0.689312 -0.08735
C_ C_ 0.0159793 0.809203 0.661539 -0.05681
C_ C_ 0.0496521 0.80416 0.637703 -0.08735
C_ C_ 0.378493 0.725453 0.665418 0.68181
C_ C_ 0.351625 0.918733 0.651113 0.68181
C_ C_ 0.350895 0.973812 0.647558 -0.05681
C_ C_ 0.361788 0.51076 0.677858 -0.08735
C_ C_ 0.367988 0.562377 0.675028 -0.05681
C_ C_ 0.364129 0.584406 0.647311 -0.05681
C_ C_ 0.349005 0.552583 0.623826 -0.08735
C_ C_ 0.363694 0.99632279 0.620604 -0.08735
C_ C_ 0.379325 0.592998 0.698348 -0.08735
C_ C_ 0.388667 0.64517 0.694968 -0.08735
C_ C_ 0.379866 0.667956 0.667831 -0.05681
C_ C_ 0.368278 0.637984 0.644056 -0.08735
C_ C_ 0.458719 0.827902 0.658904 0.68181
C_ C_ 0.383723 0.879485 0.735679 0.1947
C_ C_ 0.389214 0.894968 0.76525 -0.08735
C_ C_ 0.370469 0.865482 0.787102 -0.08735
C_ C_ 0.342402 0.821792 0.780209 -0.05681
C_ C_ 0.335606 0.808977 0.750531 0.18498
C_ C_ 0.30425 0.767749 0.743694 -0.08735
C_ C_ 0.29484 0.731862 0.763631 -0.08735
C_ C_ 0.304664 0.739708 0.792347 -0.08735
C_ C_ 0.327275 0.786685 0.801684 0.18498
C_ C_ 0.295873 0.812875 0.848627 0.44287
C_ C_ 0.382944 0.786306 0.843433 0.44287
C_ C_ 0.393311 0.800912 0.872526 -0.05681
C_ C_ 0.44304 0.799939 0.884623 -0.08735
C_ C_ 0.450176 0.807953 0.913977 -0.08735
C_ C_ 0.407121 0.81489 0.932942 -0.05681
C_ C_ 0.359035 0.816328 0.920917 -0.05681
C_ C_ 0.351427 0.813056 0.890168 -0.05681
C_ C_ 0.302253 0.81668 0.878433 -0.05681
C_ C_ 0.262143 0.830794 0.896423 -0.08735
C_ C_ 0.2709 0.840379 0.925444 -0.08735
C_ C_ 0.317826 0.832697 0.938497 -0.05681
C_ C_ 0.325485 0.82924 0.968522 0.44287
C_ C_ 0.413917 0.821556 0.961986 0.44287
C_ C_ 0.386766 0.844182 0.509453 0.18498
C_ C_ 0.405994 0.892886 0.515223 -0.08735
C_ C_ 0.421703 0.90716 0.54327 -0.08735
C_ C_ 0.403241 0.880053 0.56533 -0.08735
C_ C_ 0.37764 0.833371 0.561616 0.18498
C_ C_ 0.371199 0.813216 0.533417 -0.05681
C_ C_ 0.343081 0.769163 0.52917 -0.08735
C_ C_ 0.325308 0.743247 0.552606 -0.08735
C_ C_ 0.33451 0.760114 0.580513 0.1947
N_ N_ 0.126911 0.66637 0.97924 -0.29468
N_ N_ 0.146313 0.689276 0.581332 -0.17154
N_ N_ 0.107075 0.676596 0.7299 -0.17154
N_ N_ 0.122732 0.705557 0.833882 -0.29468
N_ N_ 0.356519 0.837594 0.729516 -0.29468
N_ N_ 0.336647 0.796107 0.831587 -0.17154
N_ N_ 0.37288 0.829152 0.979815 -0.17154
N_ N_ 0.359082 0.806255 0.584856 -0.29468
O_ O_ 0.207894 0.67143 0.930344 -0.58347
O_ O_ 0.196774 0.699631 0.887365 -0.58347
O_ O_ 0.14027 0.75832 0.935193 -0.58347
O_ O_ 0.111916 0.760273 0.890728 -0.58347
O_ O_ 0.127414 0.606907 0.925186 -0.58347
O_ O_ 0.135914 0.610911 0.877786 -0.58347
O_ O_ 0.0597422 0.69027 0.926193 -0.58347
O_ O_ 0.0486791 0.667924 0.882801 -0.58347
O_ O_ 0.0637697 0.71191 0.575987 -0.46727
O_ O_ 0.23233 0.674781 0.588834 -0.46727
O_ O_ 0.0184524 0.689167 0.722215 -0.46727
O_ O_ 0.189065 0.653918 0.735839 -0.46727
O_ O_ 0.285834 0.819138 0.679714 -0.58347
O_ O_ 0.292155 0.815118 0.633151 -0.58347
O_ O_ 0.368625 0.752938 0.686289 -0.58347
O_ O_ 0.377923 0.744988 0.639803 -0.58347
O_ O_ 0.350711 0.898722 0.675163 -0.58347
O_ O_ 0.350944 0.890053 0.629547 -0.58347
O_ O_ 0.429271 0.833008 0.6797 -0.58347
O_ O_ 0.442174 0.826513 0.633844 -0.58347
O_ O_ 0.416448 0.76287 0.828179 -0.46727
O_ O_ 0.255914 0.827311 0.835922 -0.46727
O_ O_ 0.460956 0.818561 0.972691 -0.46727
O_ O_ 0.285667 0.834087 0.986531 -0.46727
Zn Zn 0.644088 0.188176 0.384827 0.90689
Zn Zn 0.65384 0.179882 0.431289 0.90689
Zn Zn 0.885622 0.31329 0.127988 0.90689
Zn Zn 0.875998 0.317474 0.174695 0.90689
H_ H_ 0.821685 0.170701 0.447723 0.11455
H_ H_ 0.888062 0.186948 0.348712 0.11455
H_ H_ 0.796287 0.183913 0.355991 0.11455
H_ H_ 0.908513 0.172835 0.465061 0.11455
H_ H_ 1.000922433 0.176224 0.45533 0.11455
H_ H_ 0.974381 0.181098 0.366252 0.11455
H_ H_ 0.640385 0.012799 0.441855 0.11455
H_ H_ 0.644403 0.435261 0.351405 0.11455
H_ H_ 0.646637 0.0313853 0.349681 0.11455
H_ H_ 0.623818 0.430108 0.468488 0.11455
H_ H_ 0.624904 0.340811 0.464205 0.11455
H_ H_ 0.628969 0.35074 0.370757 0.11455
H_ H_ 0.603589 0.101943 0.465303 0.11455
H_ H_ 0.569828 0.0872461 0.0228879 0.11455
H_ H_ 0.60776 0.135089 0.0610238 0.11455
H_ H_ 0.704461 0.250738 0.475459 0.11455
H_ H_ 0.734094 0.306342 0.0201444 0.11455
H_ H_ 0.709497 0.283831 0.0685044 0.11455
H_ H_ 0.515448 0.215171 0.125417 0.11455
H_ H_ 0.499714 0.189513 0.175354 0.11455
H_ H_ 0.766666 0.168659 0.144835 0.11455
H_ H_ 0.748 0.159326 0.194878 0.11455
H_ H_ 0.552751 0.103044 0.25331 0.11455
H_ H_ 0.532763 0.0793019 0.303356 0.11455
H_ H_ 0.576784 0.131733 0.343206 0.11455
H_ H_ 0.649325 0.256631 0.260626 0.11455
H_ H_ 0.710522 0.288159 0.297893 0.11455
H_ H_ 0.702286 0.251848 0.347134 0.11455
H_ H_ 0.706396 0.288032 0.18651 0.11455
H_ H_ 0.634439 0.356705 0.0977695 0.11455
H_ H_ 0.730346 0.354727 0.104144 0.11455
H_ H_ 0.622709 0.295368 0.212516 0.11455
H_ H_ 0.535494 0.282929 0.201912 0.11455
H_ H_ 0.549841 0.363231 0.122319 0.11455
H_ H_ 0.880018 0.476578 0.188825 0.11455
H_ H_ 0.815492 0.0645037 0.104351 0.11455
H_ H_ 0.867994 0.469088 0.0976806 0.11455
H_ H_ 0.916553 0.0658691 0.208173 0.11455
H_ H_ 0.922528 0.15789 0.2032 0.11455
H_ H_ 0.849274 0.150174 0.121973 0.11455
H_ H_ 0.930763 0.392642 0.208351 0.11455
H_ H_ 0.956756 0.415122 0.255362 0.11455
H_ H_ 0.920491 0.385121 0.296751 0.11455
H_ H_ 0.816259 0.250075 0.223299 0.11455
H_ H_ 0.801823 0.196785 0.265914 0.11455
H_ H_ 0.837966 0.223702 0.313261 0.11455
H_ H_ 1.00268154 0.295628 0.370244 0.11455
H_ H_ 0.0123848 0.301351 0.423373 0.11455
H_ H_ 0.75339 0.334848 0.383742 0.11455
H_ H_ 0.76133 0.332789 0.43714 0.11455
H_ H_ 0.965266 0.382959 0.498086 0.11455
H_ H_ 0.970363 0.4285 0.0498086 0.11455
H_ H_ 0.942403 0.36864 0.0873128 0.11455
H_ H_ 0.858104 0.244347 0.00652955 0.11455
H_ H_ 0.807435 0.212721 0.0476044 0.11455
H_ H_ 0.828083 0.236189 0.0966363 0.11455
C_ C_ 0.745823 0.183021 0.407272 0.68181
C_ C_ 0.803892 0.187058 0.402566 -0.05681
C_ C_ 0.837898 0.17799 0.425208 -0.08735
C_ C_ 0.890789 0.177844 0.420313 -0.05681
C_ C_ 0.908026 0.178007 0.392615 -0.05681
C_ C_ 0.87381 0.185585 0.369605 -0.08735
C_ C_ 0.822475 0.189818 0.374329 -0.08735
C_ C_ 0.924327 0.169222 0.44297 -0.08735
C_ C_ 0.976579 0.170089 0.438419 -0.08735
C_ C_ 0.99556 0.174163 0.410067 -0.05681
C_ C_ 0.960884 0.176836 0.387436 -0.08735
C_ C_ 0.645867 0.281852 0.41494 0.68181
C_ C_ 0.642612 0.0862484 0.401829 0.68181
C_ C_ 0.640269 0.0292647 0.396965 -0.05681
C_ C_ 0.621626 0.497989 0.425408 -0.08735
C_ C_ 0.622194 0.445007 0.423208 -0.05681
C_ C_ 0.624125 0.421971 0.395129 -0.05681
C_ C_ 0.627904 0.452707 0.370055 -0.08735
C_ C_ 0.632463 0.505404 0.373168 -0.08735
C_ C_ 0.626916 0.413664 0.447394 -0.08735
C_ C_ 0.624146 0.36127 0.444867 -0.08735
C_ C_ 0.629753 0.337053 0.41777 -0.05681
C_ C_ 0.627312 0.368575 0.392111 -0.08735
C_ C_ 0.55373 0.177584 0.409893 0.68181
C_ C_ 0.618115 0.123239 0.48415 0.1947
C_ C_ 0.589678 0.123579 0.0176824 -0.08735
C_ C_ 0.614697 0.148996 0.0407917 -0.08735
C_ C_ 0.645656 0.192323 0.0350598 -0.05681
C_ C_ 0.655028 0.204486 1.00581479 0.18498
C_ C_ 0.692786 0.240086 0.497066 -0.08735
C_ C_ 0.705591 0.275859 0.0227369 -0.08735
C_ C_ 0.693208 0.264099 0.0516519 -0.08735
C_ C_ 0.66293 0.223474 0.0571463 0.18498
C_ C_ 0.694317 0.18894 0.102992 0.44287
C_ C_ 0.607605 0.217479 0.0982457 0.44287
C_ C_ 0.59655 0.198468 0.127025 -0.05681
C_ C_ 0.54495 0.200468 0.138368 -0.08735
C_ C_ 0.537303 0.189267 0.166774 -0.08735
C_ C_ 0.577345 0.183666 0.185212 -0.05681
C_ C_ 0.626729 0.175046 0.173097 -0.05681
C_ C_ 0.637225 0.182995 0.144691 -0.05681
C_ C_ 0.685773 0.178132 0.132255 -0.05681
C_ C_ 0.727577 0.166835 0.150496 -0.08735
C_ C_ 0.717642 0.161846 0.180446 -0.08735
C_ C_ 0.668455 0.165944 0.19139 -0.05681
C_ C_ 0.661085 0.174272 0.221892 0.44287
C_ C_ 0.571223 0.18575 0.215855 0.44287
C_ C_ 0.604644 0.16455 0.263228 0.18498
C_ C_ 0.576478 0.11921 0.270372 -0.08735
C_ C_ 0.564244 0.105256 0.29923 -0.08735
C_ C_ 0.587491 0.134146 0.321373 -0.08735
C_ C_ 0.615968 0.178651 0.315401 0.18498
C_ C_ 0.620743 0.196669 0.286763 -0.05681
C_ C_ 0.653246 0.238152 0.281072 -0.08735
C_ C_ 0.68608 0.25508 0.303189 -0.08735
C_ C_ 0.681232 0.234073 0.33069 0.1947
C_ C_ 0.782047 0.31317 0.149289 0.68181
C_ C_ 0.724145 0.317656 0.145686 -0.05681
C_ C_ 0.692579 0.306609 0.168917 -0.08735
C_ C_ 0.640258 0.318477 0.168139 -0.05681
C_ C_ 0.618031 0.334329 0.142568 -0.05681
C_ C_ 0.650861 0.34303 0.11826 -0.08735
C_ C_ 0.704071 0.34015 0.120508 -0.08735
C_ C_ 0.608822 0.308866 0.191977 -0.08735
C_ C_ 0.557959 0.307378 0.18778 -0.08735
C_ C_ 0.533052 0.32512 0.162998 -0.05681
C_ C_ 0.564701 0.341285 0.140764 -0.08735
C_ C_ 0.888119 0.217389 0.159754 0.68181
C_ C_ 0.876172 0.412532 0.144537 0.68181
C_ C_ 0.869913 0.468452 0.143724 -0.05681
C_ C_ 0.878854 0.0032000000000000917 0.168443 -0.08735
C_ C_ 0.880364 0.0539458 0.166673 -0.05681
C_ C_ 0.855664 0.0790729 0.143024 -0.05681
C_ C_ 0.832641 0.0503379 0.122946 -0.08735
C_ C_ 0.867127 0.491763 0.116976 -0.08735
C_ C_ 0.90187 0.0835874 0.188697 -0.08735
C_ C_ 0.906893 0.1361 0.186456 -0.08735
C_ C_ 0.888189 0.160749 0.161838 -0.05681
C_ C_ 0.862654 0.130786 0.141112 -0.08735
C_ C_ 0.979686 0.316528 0.156016 0.68181
C_ C_ 0.91196 0.373192 0.225861 0.1947
C_ C_ 0.926462 0.39036 0.252818 -0.08735
C_ C_ 0.905894 0.368307 0.276302 -0.08735
C_ C_ 0.874109 0.32631 0.273832 -0.05681
C_ C_ 0.860154 0.307649 0.245469 0.18498
C_ C_ 0.832077 0.262797 0.243549 -0.08735
C_ C_ 0.825403 0.231549 0.268328 -0.08735
C_ C_ 0.838437 0.24982 0.295105 -0.08735
C_ C_ 0.86191 0.297159 0.299107 0.18498
C_ C_ 0.830149 0.325406 0.345455 0.44287
C_ C_ 0.915983 0.302038 0.340774 0.44287
C_ C_ 0.923135 0.309799 0.370739 -0.05681
C_ C_ 0.969225 0.29649 0.384244 -0.08735
C_ C_ 0.973535 0.30271 0.413844 -0.08735
C_ C_ 0.931606 0.313663 0.431504 -0.05681
C_ C_ 0.884952 0.31647 0.418462 -0.05681
C_ C_ 0.880586 0.319333 0.388711 -0.05681
C_ C_ 0.834055 0.327846 0.375629 -0.05681
C_ C_ 0.789682 0.332946 0.393117 -0.08735
C_ C_ 0.794874 0.330687 0.423916 -0.08735
C_ C_ 0.842896 0.326101 0.436772 -0.05681
C_ C_ 0.848473 0.328012 0.466824 0.44287
C_ C_ 0.934947 0.309112 0.461625 0.44287
C_ C_ 0.910779 0.338916 0.00911436 0.18498
C_ C_ 0.943979 0.379647 0.0159202 -0.08735
C_ C_ 0.94872 0.394429 0.0443565 -0.08735
C_ C_ 0.931609 0.362874 0.0659229 -0.08735
C_ C_ 0.904058 0.319195 0.0602358 0.18498
C_ C_ 0.892561 0.307644 0.0317745 -0.05681
C_ C_ 0.86192 0.26361 0.0270158 -0.08735
C_ C_ 0.841047 0.236274 0.0505098 -0.08735
C_ C_ 0.852547 0.251796 0.0780906 0.1947
N_ N_ 0.644191 0.167773 0.479347 -0.29468
N_ N_ 0.655362 0.210457 0.0874483 -0.17154
N_ N_ 0.612524 0.175898 0.232686 -0.17154
N_ N_ 0.642568 0.202028 0.336373 -0.29468
N_ N_ 0.878424 0.333644 0.221975 -0.29468
N_ N_ 0.871289 0.312799 0.328391 -0.17154
N_ N_ 0.894965 0.316423 0.478831 -0.17154
N_ N_ 0.882073 0.293171 0.0818598 -0.29468
O_ O_ 0.727723 0.184234 0.431974 -0.58347
O_ O_ 0.716818 0.189154 0.386875 -0.58347
O_ O_ 0.645011 0.254494 0.436552 -0.58347
O_ O_ 0.64534 0.262147 0.389876 -0.58347
O_ O_ 0.660863 0.103261 0.424216 -0.58347
O_ O_ 0.640869 0.113422 0.380786 -0.58347
O_ O_ 0.581597 0.171765 0.431785 -0.58347
O_ O_ 0.571078 0.185828 0.385288 -0.58347
O_ O_ 0.570868 0.240031 0.0824508 -0.46727
O_ O_ 0.736402 0.173773 0.0906472 -0.46727
O_ O_ 0.525125 0.188788 0.226408 -0.46727
O_ O_ 0.700077 0.172027 0.240324 -0.46727
O_ O_ 0.801608 0.312472 0.174144 -0.58347
O_ O_ 0.809586 0.30909 0.127614 -0.58347
O_ O_ 0.874507 0.243014 0.180882 -0.58347
O_ O_ 0.897899 0.239679 0.136039 -0.58347
O_ O_ 0.874042 0.391017 0.168406 -0.58347
O_ O_ 0.876303 0.385986 0.122638 -0.58347
O_ O_ 0.949869 0.319789 0.177085 -0.58347
O_ O_ 0.960649 0.316477 0.130441 -0.58347
O_ O_ 0.954595 0.289504 0.324329 -0.46727
O_ O_ 0.785309 0.329664 0.332934 -0.46727
O_ O_ 0.979856 0.299444 0.472855 -0.46727
O_ O_ 0.820016 0.359695 0.480844 -0.46727
Zn Zn 0.621046 0.193054 0.884968 0.90689
Zn Zn 0.630426 0.189648 0.934143 0.90689
Zn Zn 0.874701 0.306958 0.629642 0.90689
Zn Zn 0.861029 0.31158 0.678025 0.90689
H_ H_ 0.799424 0.192772 0.94721 0.11455
H_ H_ 0.864173 0.165581 0.848791 0.11455
H_ H_ 0.770882 0.163518 0.860314 0.11455
H_ H_ 0.888238 0.198868 0.964646 0.11455
H_ H_ 0.980186 0.193049 0.957214 0.11455
H_ H_ 0.952257 0.176054 0.868042 0.11455
H_ H_ 0.625161 0.0180709 0.946502 0.11455
H_ H_ 0.606906 0.445412 0.848994 0.11455
H_ H_ 0.629011 0.0353103 0.854672 0.11455
H_ H_ 0.672774 0.438452 0.961236 0.11455
H_ H_ 0.657127 0.346165 0.958646 0.11455
H_ H_ 0.600118 0.36253 0.873614 0.11455
H_ H_ 0.577127 0.123631 0.970758 0.11455
H_ H_ 0.563757 0.0834933 0.512163 0.11455
H_ H_ 0.602363 0.128939 0.555623 0.11455
H_ H_ 0.692327 0.256808 0.977373 0.11455
H_ H_ 0.742888 0.295209 0.518373 0.11455
H_ H_ 0.700607 0.284638 0.563377 0.11455
H_ H_ 0.520555 0.225593 0.628122 0.11455
H_ H_ 0.510164 0.211546 0.680009 0.11455
H_ H_ 0.767588 0.171761 0.641069 0.11455
H_ H_ 0.754111 0.15021 0.693284 0.11455
H_ H_ 0.56605 0.0867232 0.752935 0.11455
H_ H_ 0.555039 0.0639276 0.803115 0.11455
H_ H_ 0.567828 0.130832 0.8406 0.11455
H_ H_ 0.667448 0.239585 0.759203 0.11455
H_ H_ 0.688057 0.300012 0.800829 0.11455
H_ H_ 0.679483 0.26402 0.850006 0.11455
H_ H_ 0.69263 0.29819 0.690747 0.11455
H_ H_ 0.620495 0.347135 0.59869 0.11455
H_ H_ 0.714741 0.336025 0.603399 0.11455
H_ H_ 0.60365 0.296991 0.712056 0.11455
H_ H_ 0.514305 0.301205 0.702983 0.11455
H_ H_ 0.535896 0.343993 0.615378 0.11455
H_ H_ 0.851879 0.470443 0.688483 0.11455
H_ H_ 0.825185 0.0607827 0.598486 0.11455
H_ H_ 0.876783 0.471135 0.59882 0.11455
H_ H_ 0.888072 0.0588917 0.711904 0.11455
H_ H_ 0.875173 0.151546 0.709173 0.11455
H_ H_ 0.857365 0.14361 0.61833 0.11455
H_ H_ 0.913515 0.393271 0.712108 0.11455
H_ H_ 0.930256 0.419872 0.759922 0.11455
H_ H_ 0.897424 0.379163 0.799921 0.11455
H_ H_ 0.810768 0.246316 0.72224 0.11455
H_ H_ 0.774129 0.203178 0.761543 0.11455
H_ H_ 0.80217 0.221806 0.812247 0.11455
H_ H_ 0.99605685 0.282024 0.866783 0.11455
H_ H_ 0.0132321 0.295023 0.919319 0.11455
H_ H_ 0.75042 0.340654 0.887224 0.11455
H_ H_ 0.758179 0.337276 0.938763 0.11455
H_ H_ 0.956695 0.405874 1.00102 0.11455
H_ H_ 0.975199 0.414026 0.546735 0.11455
H_ H_ 0.93442 0.366875 0.586007 0.11455
H_ H_ 0.857424 0.240017 0.504603 0.11455
H_ H_ 0.816616 0.19416 0.544404 0.11455
H_ H_ 0.824271 0.23069 0.593887 0.11455
C_ C_ 0.725036 0.187366 0.907973 0.68181
C_ C_ 0.779232 0.183629 0.903409 -0.05681
C_ C_ 0.814 0.185632 0.926399 -0.08735
C_ C_ 0.866918 0.179874 0.921718 -0.05681
C_ C_ 0.885061 0.17418 0.893462 -0.05681
C_ C_ 0.850288 0.166212 0.870604 -0.08735
C_ C_ 0.797538 0.174143 0.876198 -0.08735
C_ C_ 0.901585 0.189523 0.944408 -0.08735
C_ C_ 0.952934 0.189703 0.939601 -0.08735
C_ C_ 0.971722 0.179479 0.912468 -0.05681
C_ C_ 0.936596 0.173709 0.889303 -0.08735
C_ C_ 0.6208 0.290608 0.914433 0.68181
C_ C_ 0.626048 0.0935434 0.90437 0.68181
C_ C_ 0.625535 0.0354407 0.901252 -0.05681
C_ C_ 0.652424 0.504955 0.920951 -0.08735
C_ C_ 0.644603 0.453184 0.919108 -0.05681
C_ C_ 0.628408 0.430693 0.892452 -0.05681
C_ C_ 0.618678 0.462333 0.869724 -0.08735
C_ C_ 0.624132 0.515551 0.872516 -0.08735
C_ C_ 0.654538 0.421442 0.942053 -0.08735
C_ C_ 0.648378 0.368993 0.940058 -0.08735
C_ C_ 0.631487 0.346245 0.915368 -0.05681
C_ C_ 0.619379 0.378654 0.891535 -0.08735
C_ C_ 0.525094 0.186188 0.908476 0.68181
C_ C_ 0.600503 0.13805 0.98865 0.1947
C_ C_ 0.596836 0.113388 0.511159 -0.08735
C_ C_ 0.612274 0.140941 0.534738 -0.08735
C_ C_ 0.645745 0.182238 0.530631 -0.05681
C_ C_ 0.659302 0.198306 0.501955 0.18498
C_ C_ 0.685232 0.248055 0.999248 -0.08735
C_ C_ 0.713315 0.266675 0.520334 -0.08735
C_ C_ 0.697296 0.252258 0.548681 -0.08735
C_ C_ 0.661903 0.210855 0.554535 0.18498
C_ C_ 0.690013 0.174017 0.601742 0.44287
C_ C_ 0.60727 0.208361 0.59736 0.44287
C_ C_ 0.598817 0.199802 0.626631 -0.05681
C_ C_ 0.54845 0.203959 0.638797 -0.08735
C_ C_ 0.543057 0.198384 0.668272 -0.08735
C_ C_ 0.585761 0.188097 0.686013 -0.05681
C_ C_ 0.631419 0.173548 0.673105 -0.05681
C_ C_ 0.639097 0.179497 0.64301 -0.05681
C_ C_ 0.686844 0.169218 0.631301 -0.05681
C_ C_ 0.728393 0.162959 0.649665 -0.08735
C_ C_ 0.720995 0.156152 0.679021 -0.08735
C_ C_ 0.673454 0.159517 0.691305 -0.05681
C_ C_ 0.664907 0.158022 0.721976 0.44287
C_ C_ 0.579904 0.183228 0.717086 0.44287
C_ C_ 0.608395 0.156666 0.763863 0.18498
C_ C_ 0.585253 0.108955 0.769978 -0.08735
C_ C_ 0.576487 0.0966265 0.798412 -0.08735
C_ C_ 0.586014 0.133022 0.820248 -0.08735
C_ C_ 0.614317 0.176698 0.815103 0.18498
C_ C_ 0.624025 0.188715 0.78591 -0.05681
C_ C_ 0.655307 0.230664 0.781272 -0.08735
C_ C_ 0.670197 0.262722 0.802724 -0.08735
C_ C_ 0.661791 0.24566 0.83109 0.1947
C_ C_ 0.768205 0.310495 0.652305 0.68181
C_ C_ 0.711411 0.31352 0.647357 -0.05681
C_ C_ 0.676563 0.305848 0.670584 -0.08735
C_ C_ 0.62386 0.310211 0.667116 -0.05681
C_ C_ 0.605922 0.325098 0.640668 -0.05681
C_ C_ 0.637642 0.327243 0.617016 -0.08735
C_ C_ 0.691106 0.326479 0.621292 -0.08735
C_ C_ 0.592241 0.308754 0.690501 -0.08735
C_ C_ 0.539552 0.305522 0.685407 -0.08735
C_ C_ 0.51904 0.324473 0.659697 -0.05681
C_ C_ 0.553129 0.332036 0.636151 -0.08735
C_ C_ 0.866841 0.211994 0.661345 0.68181
C_ C_ 0.859316 0.407959 0.646538 0.68181
C_ C_ 0.857575 0.466109 0.644208 -0.05681
C_ C_ 0.869454 -0.005519000000000052 0.669895 -0.08735
C_ C_ 0.873525 0.0480883 0.667019 -0.05681
C_ C_ 0.857036 0.0718194 0.641707 -0.05681
C_ C_ 0.837976 0.0418428 0.618754 -0.08735
C_ C_ 0.864753 0.489158 0.617924 -0.08735
C_ C_ 0.88051 0.0763655 0.691099 -0.08735
C_ C_ 0.872333 0.129546 0.689965 -0.08735
C_ C_ 0.868651 0.15379 0.662964 -0.05681
C_ C_ 0.859539 0.123247 0.639103 -0.08735
C_ C_ 0.967325 0.320634 0.655177 0.68181
C_ C_ 0.892701 0.374589 0.728272 0.1947
C_ C_ 0.901895 0.390565 0.756218 -0.08735
C_ C_ 0.882996 0.365868 0.779643 -0.08735
C_ C_ 0.860319 0.318277 0.775289 -0.05681
C_ C_ 0.851202 0.301772 0.747107 0.18498
C_ C_ 0.82303 0.256519 0.74338 -0.08735
C_ C_ 0.802757 0.231171 0.766806 -0.08735
C_ C_ 0.816866 0.243166 0.79496 -0.08735
C_ C_ 0.844166 0.288381 0.800023 0.18498
C_ C_ 0.816056 0.315248 0.84813 0.44287
C_ C_ 0.900545 0.288245 0.840605 0.44287
C_ C_ 0.913315 0.299422 0.870219 -0.05681
C_ C_ 0.963248 0.291174 0.882223 -0.08735
C_ C_ 0.974277 0.30208 0.91112 -0.08735
C_ C_ 0.932395 0.313571 0.930169 -0.05681
C_ C_ 0.884951 0.319798 0.919046 -0.05681
C_ C_ 0.875415 0.318661 0.888809 -0.05681
C_ C_ 0.826555 0.324073 0.876981 -0.05681
C_ C_ 0.785901 0.330443 0.896619 -0.08735
C_ C_ 0.792509 0.328186 0.926264 -0.08735
C_ C_ 0.842043 0.326385 0.938104 -0.05681
C_ C_ 0.849818 0.326835 0.968349 0.44287
C_ C_ 0.939444 0.320472 0.960281 0.44287
C_ C_ 0.904669 0.330708 0.50823 0.18498
C_ C_ 0.938812 0.371101 0.51432 -0.08735
C_ C_ 0.945632 0.386703 0.542341 -0.08735
C_ C_ 0.923627 0.358007 0.565157 -0.08735
C_ C_ 0.892871 0.31728 0.559429 0.18498
C_ C_ 0.884132 0.302062 0.530891 -0.05681
C_ C_ 0.858754 0.255715 0.525969 -0.08735
C_ C_ 0.837235 0.229623 0.548643 -0.08735
C_ C_ 0.842741 0.246947 0.576124 0.1947
N_ N_ 0.630851 0.178494 0.983889 -0.29468
N_ N_ 0.651956 0.195098 0.584695 -0.17154
N_ N_ 0.618695 0.167064 0.733808 -0.17154
N_ N_ 0.631079 0.206251 0.83662 -0.29468
N_ N_ 0.870748 0.329167 0.724319 -0.29468
N_ N_ 0.85389 0.300653 0.82944 -0.17154
N_ N_ 0.899119 0.32957 0.978713 -0.17154
N_ N_ 0.872733 0.289246 0.580747 -0.29468
O_ O_ 0.708052 0.193319 0.932226 -0.58347
O_ O_ 0.695809 0.190002 0.885944 -0.58347
O_ O_ 0.624455 0.26445 0.937505 -0.58347
O_ O_ 0.620887 0.26681 0.890248 -0.58347
O_ O_ 0.632577 0.113671 0.928981 -0.58347
O_ O_ 0.619418 0.120127 0.882111 -0.58347
O_ O_ 0.552775 0.189056 0.930428 -0.58347
O_ O_ 0.544789 0.189674 0.883614 -0.58347
O_ O_ 0.570023 0.226889 0.581431 -0.46727
O_ O_ 0.734402 0.169345 0.589635 -0.46727
O_ O_ 0.535682 0.19043 0.728822 -0.46727
O_ O_ 0.702534 0.150109 0.739674 -0.46727
O_ O_ 0.785756 0.309571 0.677601 -0.58347
O_ O_ 0.797196 0.308539 0.62997 -0.58347
O_ O_ 0.866466 0.239698 0.684288 -0.58347
O_ O_ 0.873188 0.231891 0.637153 -0.58347
O_ O_ 0.85431 0.387737 0.671622 -0.58347
O_ O_ 0.873091 0.380503 0.625268 -0.58347
O_ O_ 0.937781 0.32607 0.67598 -0.58347
O_ O_ 0.950404 0.307883 0.631205 -0.58347
O_ O_ 0.934503 0.267346 0.824801 -0.46727
O_ O_ 0.769454 0.319022 0.837854 -0.46727
O_ O_ 0.985115 0.315952 0.970998 -0.46727
O_ O_ 0.810984 0.328352 0.985684 -0.46727
Zn Zn 0.625366 0.684988 0.380413 0.90689
Zn Zn 0.629832 0.679995 0.42907 0.90689
Zn Zn 0.867086 0.813392 0.129484 0.90689
Zn Zn 0.859788 0.816987 0.177981 0.90689
H_ H_ 0.80461 0.688646 0.447083 0.11455
H_ H_ 0.866323 0.656217 0.347626 0.11455
H_ H_ 0.776783 0.668595 0.356234 0.11455
H_ H_ 0.887739 0.711046 0.458859 0.11455
H_ H_ 0.980638 0.694659 0.454312 0.11455
H_ H_ 0.953474 0.660488 0.364274 0.11455
H_ H_ 0.612117 0.516354 0.446398 0.11455
H_ H_ 0.632782 0.941158 0.345123 0.11455
H_ H_ 0.629295 0.52809 0.354736 0.11455
H_ H_ 0.633165 0.925544 0.462815 0.11455
H_ H_ 0.615034 0.835756 0.456627 0.11455
H_ H_ 0.627656 0.853313 0.366357 0.11455
H_ H_ 0.56774 0.622916 0.466326 0.11455
H_ H_ 0.562841 0.573982 0.0100777 0.11455
H_ H_ 0.604855 0.616637 0.0517499 0.11455
H_ H_ 0.69751 0.741972 0.469539 0.11455
H_ H_ 0.699715 0.811017 0.0113461 0.11455
H_ H_ 0.67736 0.78625 0.0615934 0.11455
H_ H_ 0.506374 0.715201 0.12588 0.11455
H_ H_ 0.496534 0.688172 0.175518 0.11455
H_ H_ 0.760031 0.67109 0.134267 0.11455
H_ H_ 0.752554 0.662578 0.183137 0.11455
H_ H_ 0.578593 0.578071 0.248566 0.11455
H_ H_ 0.547075 0.565949 0.299057 0.11455
H_ H_ 0.575979 0.624564 0.337474 0.11455
H_ H_ 0.673042 0.737874 0.253691 0.11455
H_ H_ 0.693233 0.790663 0.294624 0.11455
H_ H_ 0.667633 0.771135 0.343873 0.11455
H_ H_ 0.692105 0.804361 0.19479 0.11455
H_ H_ 0.620195 0.84899 0.099079 0.11455
H_ H_ 0.710773 0.841373 0.105378 0.11455
H_ H_ 0.604331 0.792471 0.21289 0.11455
H_ H_ 0.50868 0.79699 0.205827 0.11455
H_ H_ 0.538275 0.835493 0.119268 0.11455
H_ H_ 0.899012 0.98357 0.185683 0.11455
H_ H_ 0.873693 0.560533 0.0935932 0.11455
H_ H_ 0.813555 0.976503 0.107862 0.11455
H_ H_ 0.876362 0.565402 0.211708 0.11455
H_ H_ 0.862722 0.657467 0.206141 0.11455
H_ H_ 0.872187 0.646727 0.116937 0.11455
H_ H_ 0.919316 0.890691 0.216295 0.11455
H_ H_ 0.935352 0.912144 0.266315 0.11455
H_ H_ 0.89934 0.861923 0.305517 0.11455
H_ H_ 0.802477 0.751449 0.221426 0.11455
H_ H_ 0.757412 0.710522 0.258877 0.11455
H_ H_ 0.788473 0.716065 0.308276 0.11455
H_ H_ 0.981686 0.769673 0.372259 0.11455
H_ H_ -0.00897598 0.789386 0.423508 0.11455
H_ H_ 0.732151 0.836229 0.384992 0.11455
H_ H_ 0.753247 0.865798 0.434712 0.11455
H_ H_ 0.93761 0.903223 0.498719 0.11455
H_ H_ 0.949022 0.938483 0.0496068 0.11455
H_ H_ 0.923991 0.878078 0.0868097 0.11455
H_ H_ 0.833834 0.76099 0.00180685 0.11455
H_ H_ 0.811406 0.704731 0.0421157 0.11455
H_ H_ 0.820052 0.734066 0.0916377 0.11455
C_ C_ 0.724077 0.681073 0.405851 0.68181
C_ C_ 0.780394 0.673763 0.40221 -0.05681
C_ C_ 0.815866 0.680872 0.424586 -0.08735
C_ C_ 0.86907 0.67962 0.418846 -0.05681
C_ C_ 0.885958 0.666433 0.39129 -0.05681
C_ C_ 0.85022 0.658116 0.369068 -0.08735
C_ C_ 0.798535 0.667811 0.37433 -0.08735
C_ C_ 0.903066 0.691768 0.440552 -0.08735
C_ C_ 0.954935 0.686 0.435987 -0.08735
C_ C_ 0.973899 0.67114 0.408833 -0.05681
C_ C_ 0.938626 0.664002 0.386434 -0.08735
C_ C_ 0.621241 0.782791 0.407884 0.68181
C_ C_ 0.631527 0.585999 0.402407 0.68181
C_ C_ 0.627552 0.530056 0.400393 -0.05681
C_ C_ 0.641121 0.996687 0.420893 -0.08735
C_ C_ 0.636029 0.94484 0.416795 -0.05681
C_ C_ 0.631883 0.923741 0.389098 -0.05681
C_ C_ 0.631154 0.956293 0.366703 -0.08735
C_ C_ 0.639349 1.0091487 0.369247 -0.08735
C_ C_ 0.629405 0.913195 0.441095 -0.08735
C_ C_ 0.61945 0.860561 0.437811 -0.08735
C_ C_ 0.622662 0.83918 0.410455 -0.05681
C_ C_ 0.627909 0.870829 0.386057 -0.08735
C_ C_ 0.527055 0.678232 0.404329 0.68181
C_ C_ 0.588917 0.639286 0.482435 0.1947
C_ C_ 0.589388 0.606001 0.00686536 -0.08735
C_ C_ 0.613002 0.632144 0.0309429 -0.08735
C_ C_ 0.6337 0.681238 0.0261774 -0.05681
C_ C_ 0.647096 0.69538 0.997595 0.18498
C_ C_ 0.684316 0.738166 0.492004 -0.08735
C_ C_ 0.686075 0.772909 0.0167367 -0.08735
C_ C_ 0.670744 0.760209 0.0436735 -0.08735
C_ C_ 0.645911 0.713983 0.049314 0.18498
C_ C_ 0.68043 0.689504 0.0952197 0.44287
C_ C_ 0.594009 0.707151 0.0921878 0.44287
C_ C_ 0.586555 0.694013 0.121951 -0.05681
C_ C_ 0.540094 0.698753 0.136513 -0.08735
C_ C_ 0.534869 0.684684 0.165869 -0.08735
C_ C_ 0.58006 0.67887 0.182521 -0.05681
C_ C_ 0.627702 0.680725 0.169829 -0.05681
C_ C_ 0.631654 0.686502 0.139107 -0.05681
C_ C_ 0.67828 0.683486 0.124492 -0.05681
C_ C_ 0.721199 0.669128 0.142008 -0.08735
C_ C_ 0.717528 0.664962 0.17188 -0.08735
C_ C_ 0.671337 0.666047 0.185804 -0.05681
C_ C_ 0.666639 0.658066 0.214837 0.44287
C_ C_ 0.577156 0.669269 0.21213 0.44287
C_ C_ 0.615018 0.652352 0.258239 0.18498
C_ C_ 0.588678 0.606726 0.265095 -0.08735
C_ C_ 0.572207 0.598045 0.294016 -0.08735
C_ C_ 0.587564 0.6329 0.315885 -0.08735
C_ C_ 0.618978 0.672586 0.309172 0.18498
C_ C_ 0.628195 0.686363 0.280566 -0.05681
C_ C_ 0.654198 0.730697 0.27464 -0.08735
C_ C_ 0.672059 0.75883 0.298255 -0.08735
C_ C_ 0.657318 0.748161 0.326163 0.1947
C_ C_ 0.764486 0.814073 0.153243 0.68181
C_ C_ 0.710179 0.825944 0.150901 -0.05681
C_ C_ 0.67604 0.812916 0.173281 -0.08735
C_ C_ 0.62237 0.81883 0.170607 -0.05681
C_ C_ 0.602245 0.831268 0.144273 -0.05681
C_ C_ 0.635824 0.836959 0.12065 -0.08735
C_ C_ 0.688577 0.836079 0.12349 -0.08735
C_ C_ 0.588233 0.806171 0.193674 -0.08735
C_ C_ 0.535052 0.804817 0.188744 -0.08735
C_ C_ 0.515381 0.820974 0.162455 -0.05681
C_ C_ 0.55053 0.835669 0.14047 -0.08735
C_ C_ 0.872495 0.715276 0.158205 0.68181
C_ C_ 0.854249 0.917179 0.150592 0.68181
C_ C_ 0.849383 0.973523 0.14899 -0.05681
C_ C_ 0.88146 0.49687 0.167656 -0.08735
C_ C_ 0.882686 0.551081 0.16576 -0.05681
C_ C_ 0.877371 0.574601 0.138887 -0.05681
C_ C_ 0.871098 0.544953 0.114635 -0.08735
C_ C_ 0.827837 0.998316 0.126206 -0.08735
C_ C_ 0.874229 0.581114 0.190716 -0.08735
C_ C_ 0.868503 0.634102 0.187444 -0.08735
C_ C_ 0.868452 0.657337 0.161091 -0.05681
C_ C_ 0.874936 0.627801 0.136957 -0.08735
C_ C_ 0.960363 0.821613 0.159179 0.68181
C_ C_ 0.900637 0.86859 0.233032 0.1947
C_ C_ 0.912131 0.87865 0.261229 -0.08735
C_ C_ 0.890869 0.851201 0.284003 -0.08735
C_ C_ 0.858702 0.809863 0.277677 -0.05681
C_ C_ 0.849653 0.7967 0.248494 0.18498
C_ C_ 0.8132 0.757568 0.242623 -0.08735
C_ C_ 0.790279 0.732578 0.2645 -0.08735
C_ C_ 0.803972 0.741491 0.292178 -0.08735
C_ C_ 0.835119 0.781367 0.300278 0.18498
C_ C_ 0.806515 0.805917 0.34741 0.44287
C_ C_ 0.893819 0.786827 0.341285 0.44287
C_ C_ 0.902209 0.796286 0.370219 -0.05681
C_ C_ 0.95047 0.787596 0.383869 -0.08735
C_ C_ 0.956499 0.800341 0.413032 -0.08735
C_ C_ 0.916715 0.816893 0.430367 -0.05681
C_ C_ 0.869601 0.820531 0.418512 -0.05681
C_ C_ 0.861599 0.813566 0.387691 -0.05681
C_ C_ 0.812602 0.81835 0.376475 -0.05681
C_ C_ 0.770288 0.82812 0.395073 -0.08735
C_ C_ 0.782519 0.842219 0.423965 -0.08735
C_ C_ 0.829807 0.83416 0.436498 -0.05681
C_ C_ 0.83638 0.841801 0.466573 0.44287
C_ C_ 0.923011 0.827513 0.459591 0.44287
C_ C_ 0.880626 0.853036 0.00770505 0.18498
C_ C_ 0.904639 0.899616 0.0156096 -0.08735
C_ C_ 0.924543 0.905859 0.0435071 -0.08735
C_ C_ 0.913798 0.870986 0.0652011 -0.08735
C_ C_ 0.881836 0.830496 0.0592593 0.18498
C_ C_ 0.867491 0.818628 0.0300083 -0.05681
C_ C_ 0.841754 0.773185 0.0235541 -0.08735
C_ C_ 0.826317 0.741297 0.0465219 -0.08735
C_ C_ 0.837377 0.756616 0.0745483 0.1947
N_ N_ 0.622126 0.676894 0.476429 -0.29468
N_ N_ 0.638153 0.699097 0.0788131 -0.17154
N_ N_ 0.619926 0.663535 0.228037 -0.17154
N_ N_ 0.632847 0.70383 0.331764 -0.29468
N_ N_ 0.868141 0.827799 0.227092 -0.29468
N_ N_ 0.845169 0.792147 0.330198 -0.17154
N_ N_ 0.882069 0.83141 0.478078 -0.17154
N_ N_ 0.864532 0.799197 0.0800067 -0.29468
O_ O_ 0.704335 0.669223 0.430163 -0.58347
O_ O_ 0.698375 0.696382 0.385132 -0.58347
O_ O_ 0.633093 0.755306 0.429102 -0.58347
O_ O_ 0.614401 0.762437 0.383364 -0.58347
O_ O_ 0.62361 0.606105 0.426375 -0.58347
O_ O_ 0.637571 0.612551 0.379735 -0.58347
O_ O_ 0.555335 0.684319 0.425944 -0.58347
O_ O_ 0.545569 0.671746 0.379804 -0.58347
O_ O_ 0.552376 0.717194 0.0770337 -0.46727
O_ O_ 0.724081 0.679837 0.0820356 -0.46727
O_ O_ 0.532957 0.666099 0.22472 -0.46727
O_ O_ 0.707192 0.644026 0.231183 -0.46727
O_ O_ 0.786408 0.825023 0.17741 -0.58347
O_ O_ 0.791902 0.80849 0.131166 -0.58347
O_ O_ 0.858181 0.742318 0.178871 -0.58347
O_ O_ 0.877047 0.736178 0.134449 -0.58347
O_ O_ 0.861385 0.896057 0.174303 -0.58347
O_ O_ 0.859596 0.89035 0.127674 -0.58347
O_ O_ 0.934227 0.814088 0.181805 -0.58347
O_ O_ 0.941909 0.825206 0.133757 -0.58347
O_ O_ 0.93001 0.768967 0.324959 -0.46727
O_ O_ 0.760277 0.805862 0.337221 -0.46727
O_ O_ 0.969813 0.822621 0.470435 -0.46727
O_ O_ 0.798042 0.857661 0.48292 -0.46727
Zn Zn 0.619917 0.697606 0.880841 0.90689
Zn Zn 0.631843 0.687706 0.928625 0.90689
Zn Zn 0.865054 0.806339 0.631353 0.90689
Zn Zn 0.858287 0.815044 0.679708 0.90689
H_ H_ 0.794092 0.689863 0.94395 0.11455
H_ H_ 0.872036 0.682586 0.847152 0.11455
H_ H_ 0.780895 0.686446 0.85242 0.11455
H_ H_ 0.878712 0.69558 0.965263 0.11455
H_ H_ 0.973692 0.688246 0.959769 0.11455
H_ H_ 0.953806 0.682485 0.867445 0.11455
H_ H_ 0.667343 0.522001 0.94023 0.11455
H_ H_ 0.60729 0.945026 0.849788 0.11455
H_ H_ 0.625346 0.538327 0.853027 0.11455
H_ H_ 0.618467 0.93405 0.968536 0.11455
H_ H_ 0.608844 0.841825 0.962536 0.11455
H_ H_ 0.613036 0.860535 0.871213 0.11455
H_ H_ 0.575512 0.608652 0.960989 0.11455
H_ H_ 0.553947 0.591628 0.515103 0.11455
H_ H_ 0.612496 0.621783 0.551979 0.11455
H_ H_ 0.679652 0.755491 0.971891 0.11455
H_ H_ 0.739716 0.789759 0.507463 0.11455
H_ H_ 0.721161 0.765594 0.559549 0.11455
H_ H_ 0.51477 0.714198 0.618789 0.11455
H_ H_ 0.500525 0.696334 0.670997 0.11455
H_ H_ 0.758087 0.654992 0.63645 0.11455
H_ H_ 0.748395 0.645105 0.689033 0.11455
H_ H_ 0.592648 0.5825 0.748325 0.11455
H_ H_ 0.577405 0.554969 0.800158 0.11455
H_ H_ 0.575408 0.615401 0.836378 0.11455
H_ H_ 0.652369 0.749598 0.755103 0.11455
H_ H_ 0.674626 0.808541 0.795681 0.11455
H_ H_ 0.652111 0.787842 0.84371 0.11455
H_ H_ 0.690116 0.796728 0.693398 0.11455
H_ H_ 0.613478 0.82478 0.596652 0.11455
H_ H_ 0.708233 0.818892 0.60294 0.11455
H_ H_ 0.60661 0.808476 0.714773 0.11455
H_ H_ 0.510123 0.808053 0.707755 0.11455
H_ H_ 0.531834 0.830246 0.616686 0.11455
H_ H_ 0.880787 0.976363 0.69092 0.11455
H_ H_ 0.884634 0.558681 0.596286 0.11455
H_ H_ 0.813265 0.965293 0.607064 0.11455
H_ H_ 0.861958 0.563508 0.713989 0.11455
H_ H_ 0.856118 0.649477 0.711112 0.11455
H_ H_ 0.870238 0.641632 0.617073 0.11455
H_ H_ 0.916592 0.881232 0.714246 0.11455
H_ H_ 0.92682 0.915862 0.762788 0.11455
H_ H_ 0.888371 0.877543 0.804321 0.11455
H_ H_ 0.791962 0.761207 0.721873 0.11455
H_ H_ 0.755303 0.708291 0.76363 0.11455
H_ H_ 0.758653 0.74658 0.813687 0.11455
H_ H_ 0.969949 0.799205 0.869692 0.11455
H_ H_ 0.982326 0.79626 0.91937 0.11455
H_ H_ 0.723142 0.842497 0.888661 0.11455
H_ H_ 0.737876 0.849219 0.937642 0.11455
H_ H_ 0.909047 0.929398 0.998806 0.11455
H_ H_ 0.963706 0.925984 0.547381 0.11455
H_ H_ 0.919259 0.884186 0.585035 0.11455
H_ H_ 0.836249 0.754822 0.504127 0.11455
H_ H_ 0.801538 0.704282 0.5447 0.11455
H_ H_ 0.818288 0.734356 0.595399 0.11455
C_ C_ 0.725579 0.702038 0.901769 0.68181
C_ C_ 0.781408 0.69903 0.899826 -0.05681
C_ C_ 0.812786 0.696912 0.923876 -0.08735
C_ C_ 0.865792 0.695795 0.920063 -0.05681
C_ C_ 0.887719 0.6897 0.891591 -0.05681
C_ C_ 0.855463 0.688623 0.868399 -0.08735
C_ C_ 0.803557 0.693219 0.871267 -0.08735
C_ C_ 0.896817 0.691056 0.94314 -0.08735
C_ C_ 0.950181 0.68976 0.940379 -0.08735
C_ C_ 0.972698 0.683678 0.912211 -0.05681
C_ C_ 0.939308 0.686734 0.888476 -0.08735
C_ C_ 0.614282 0.787384 0.912496 0.68181
C_ C_ 0.640975 0.595298 0.899617 0.68181
C_ C_ 0.637414 0.537951 0.898607 -0.05681
C_ C_ 0.625585 0.00355364 0.925749 -0.08735
C_ C_ 0.619708 0.95184 0.92335 -0.05681
C_ C_ 0.617949 0.93012 0.894215 -0.05681
C_ C_ 0.619836 0.960771 0.870769 -0.08735
C_ C_ 0.621783 0.0124238 0.874502 -0.08735
C_ C_ 0.61219 0.919842 0.947325 -0.08735
C_ C_ 0.613741 0.867148 0.94378 -0.08735
C_ C_ 0.613831 0.844016 0.915661 -0.05681
C_ C_ 0.617231 0.875958 0.891344 -0.08735
C_ C_ 0.526969 0.681924 0.907028 0.68181
C_ C_ 0.595811 0.626129 0.979034 0.1947
C_ C_ 0.583443 0.62109 0.510456 -0.08735
C_ C_ 0.61402 0.641496 0.532321 -0.08735
C_ C_ 0.643668 0.683649 0.527609 -0.05681
C_ C_ 0.650706 0.700591 0.498629 0.18498
C_ C_ 0.673688 0.74164 0.993618 -0.08735
C_ C_ 0.71073 0.762167 0.513623 -0.08735
C_ C_ 0.698019 0.750002 0.5424 -0.08735
C_ C_ 0.664421 0.710687 0.550536 0.18498
C_ C_ 0.69095 0.682177 0.597895 0.44287
C_ C_ 0.605079 0.706019 0.590421 0.44287
C_ C_ 0.593847 0.697649 0.620824 -0.05681
C_ C_ 0.544872 0.700305 0.632093 -0.08735
C_ C_ 0.538295 0.694512 0.662374 -0.08735
C_ C_ 0.578278 0.686292 0.681306 -0.05681
C_ C_ 0.626708 0.678987 0.669177 -0.05681
C_ C_ 0.635216 0.684784 0.639642 -0.05681
C_ C_ 0.684018 0.679087 0.628389 -0.05681
C_ C_ 0.723616 0.663928 0.645551 -0.08735
C_ C_ 0.716289 0.656954 0.674963 -0.08735
C_ C_ 0.667576 0.66708 0.686893 -0.05681
C_ C_ 0.660265 0.665587 0.716835 0.44287
C_ C_ 0.572066 0.681393 0.711055 0.44287
C_ C_ 0.606442 0.659319 0.758768 0.18498
C_ C_ 0.594645 0.608976 0.766246 -0.08735
C_ C_ 0.585522 0.593645 0.794768 -0.08735
C_ C_ 0.590588 0.628466 0.816426 -0.08735
C_ C_ 0.608046 0.679173 0.810684 0.18498
C_ C_ 0.618878 0.693838 0.782024 -0.05681
C_ C_ 0.641255 0.740844 0.777014 -0.08735
C_ C_ 0.651359 0.775336 0.79892 -0.08735
C_ C_ 0.636935 0.761282 0.82691 0.1947
C_ C_ 0.762423 0.806633 0.652752 0.68181
C_ C_ 0.705127 0.808346 0.648438 -0.05681
C_ C_ 0.672978 0.805955 0.672016 -0.08735
C_ C_ 0.618779 0.808457 0.668775 -0.05681
C_ C_ 0.600049 0.820697 0.641198 -0.05681
C_ C_ 0.630465 0.819581 0.617528 -0.08735
C_ C_ 0.683411 0.810163 0.620686 -0.08735
C_ C_ 0.588307 0.808563 0.693256 -0.08735
C_ C_ 0.534568 0.812886 0.690372 -0.08735
C_ C_ 0.513095 0.821148 0.663047 -0.05681
C_ C_ 0.546723 0.824725 0.638382 -0.08735
C_ C_ 0.866097 0.710802 0.661662 0.68181
C_ C_ 0.854754 0.908489 0.649107 0.68181
C_ C_ 0.851413 0.965038 0.647355 -0.05681
C_ C_ 0.853452 0.49418 0.669776 -0.08735
C_ C_ 0.862595 0.54745 0.668365 -0.05681
C_ C_ 0.865019 0.571442 0.640449 -0.05681
C_ C_ 0.872507 0.540524 0.616528 -0.08735
C_ C_ 0.831707 0.988872 0.622368 -0.08735
C_ C_ 0.865777 0.577647 0.692618 -0.08735
C_ C_ 0.863873 0.63021 0.690694 -0.08735
C_ C_ 0.865426 0.65483 0.662319 -0.05681
C_ C_ 0.866095 0.6256 0.638053 -0.08735
C_ C_ 0.959917 0.810461 0.656543 0.68181
C_ C_ 0.895406 0.86612 0.732349 0.1947
C_ C_ 0.903226 0.883023 0.759333 -0.08735
C_ C_ 0.876009 0.864712 0.78265 -0.08735
C_ C_ 0.842826 0.822569 0.778826 -0.05681
C_ C_ 0.835437 0.805696 0.749589 0.18498
C_ C_ 0.800471 0.768793 0.744396 -0.08735
C_ C_ 0.777706 0.743183 0.768248 -0.08735
C_ C_ 0.78449 0.757817 0.796093 -0.08735
C_ C_ 0.823463 0.793738 0.801928 0.18498
C_ C_ 0.794223 0.826868 0.84655 0.44287
C_ C_ 0.877543 0.798794 0.842143 0.44287
C_ C_ 0.890916 0.812911 0.870115 -0.05681
C_ C_ 0.940152 0.812233 0.882007 -0.08735
C_ C_ 0.948304 0.812839 0.911179 -0.08735
C_ C_ 0.905369 0.822576 0.929029 -0.05681
C_ C_ 0.857637 0.83462 0.91765 -0.05681
C_ C_ 0.850591 0.828013 0.88824 -0.05681
C_ C_ 0.801104 0.83129 0.876691 -0.05681
C_ C_ 0.759985 0.835991 0.894502 -0.08735
C_ C_ 0.768937 0.844449 0.924025 -0.08735
C_ C_ 0.81737 0.844432 0.935178 -0.05681
C_ C_ 0.8247 0.846429 0.96606 0.44287
C_ C_ 0.912982 0.829891 0.959637 0.44287
C_ C_ 0.893143 0.839676 0.508316 0.18498
C_ C_ 0.924516 0.882203 0.515826 -0.08735
C_ C_ 0.937803 0.893055 0.543163 -0.08735
C_ C_ 0.914751 0.866588 0.565301 -0.08735
C_ C_ 0.885877 0.821881 0.559725 0.18498
C_ C_ 0.871102 0.811278 0.530833 -0.05681
C_ C_ 0.843555 0.766224 0.525915 -0.08735
C_ C_ 0.823149 0.738942 0.548617 -0.08735
C_ C_ 0.833535 0.754448 0.577298 0.1947
N_ N_ 0.625158 0.670062 0.975297 -0.29468
N_ N_ 0.653251 0.698655 0.580131 -0.17154
N_ N_ 0.61319 0.673334 0.728894 -0.17154
N_ N_ 0.620492 0.712433 0.832823 -0.29468
N_ N_ 0.861971 0.828418 0.727254 -0.29468
N_ N_ 0.832143 0.808359 0.830467 -0.17154
N_ N_ 0.872721 0.841242 0.97769 -0.17154
N_ N_ 0.863739 0.796153 0.582381 -0.29468
O_ O_ 0.707377 0.699775 0.927211 -0.58347
O_ O_ 0.697464 0.705608 0.879632 -0.58347
O_ O_ 0.618675 0.759576 0.934897 -0.58347
O_ O_ 0.611922 0.769019 0.887409 -0.58347
O_ O_ 0.644932 0.616979 0.923618 -0.58347
O_ O_ 0.626139 0.621656 0.878203 -0.58347
O_ O_ 0.556734 0.673822 0.927453 -0.58347
O_ O_ 0.543821 0.685964 0.882378 -0.58347
O_ O_ 0.567935 0.720247 0.57297 -0.46727
O_ O_ 0.732375 0.663555 0.586956 -0.46727
O_ O_ 0.525285 0.673485 0.722149 -0.46727
O_ O_ 0.700493 0.660852 0.734273 -0.46727
O_ O_ 0.78179 0.81777 0.676738 -0.58347
O_ O_ 0.79006 0.797843 0.630657 -0.58347
O_ O_ 0.854285 0.736685 0.68397 -0.58347
O_ O_ 0.874087 0.732208 0.63764 -0.58347
O_ O_ 0.861821 0.887542 0.673601 -0.58347
O_ O_ 0.851989 0.882084 0.627121 -0.58347
O_ O_ 0.931349 0.804326 0.676697 -0.58347
O_ O_ 0.941465 0.82102 0.633015 -0.58347
O_ O_ 0.912144 0.776375 0.82629 -0.46727
O_ O_ 0.750871 0.837177 0.833986 -0.46727
O_ O_ 0.957272 0.819784 0.970446 -0.46727
O_ O_ 0.784995 0.851819 0.982586 -0.46727
_cell_length_a 26.376
_cell_length_b 26.400000238300095
_cell_length_c 46.67800035477134
_cell_angle_alpha 90.00700052986613
_cell_angle_beta 89.99899961309502
_cell_angle_gamma 90.45000003183146
_symmetry_space_group_name_H-M         'P 1'
_symmetry_Int_Tables_number            1
loop_
_symmetry_equiv_pos_as_xyz
   'x, y, z'
                         
loop_
_atom_site_label
_atom_site_type_symbol
_atom_site_fract_x 
_atom_site_fract_y
_atom_site_fract_z
_atom_site_charge
Zn Zn 0.144469 0.173488 0.380208 0.90689
Zn Zn 0.154767 0.172798 0.428134 0.90689
Zn Zn 0.384242 0.319842 0.133821 0.90689
Zn Zn 0.375062 0.323666 0.181132 0.90689
H_ H_ 0.31939 0.196997 0.445856 0.11455
H_ H_ 0.39422 0.173134 0.348169 0.11455
H_ H_ 0.303142 0.164527 0.356292 0.11455
H_ H_ 0.405344 0.173535 0.46588 0.11455
H_ H_ 0.499486 0.178416 0.461279 0.11455
H_ H_ 0.475642 0.166995 0.369185 0.11455
H_ H_ 0.141623 0.00625592 0.447213 0.11455
H_ H_ 0.16205 0.427014 0.347287 0.11455
H_ H_ 0.143229 0.0191672 0.356672 0.11455
H_ H_ 0.0956375 0.413768 0.46057 0.11455
H_ H_ 0.101583 0.320954 0.455863 0.11455
H_ H_ 0.165355 0.343746 0.370885 0.11455
H_ H_ 0.0988444 0.104892 0.464574 0.11455
H_ H_ 0.0861325 0.0716961 0.0211261 0.11455
H_ H_ 0.120207 0.122639 0.0579856 0.11455
H_ H_ 0.210631 0.239706 0.475085 0.11455
H_ H_ 0.228378 0.301211 0.0094036 0.11455
H_ H_ 0.216303 0.275723 0.0608292 0.11455
H_ H_ 0.0316104 0.21675 0.124083 0.11455
H_ H_ 0.0239363 0.211093 0.173904 0.11455
H_ H_ 0.276894 0.164868 0.134704 0.11455
H_ H_ 0.268087 0.153365 0.187734 0.11455
H_ H_ 0.0804213 0.0836163 0.246984 0.11455
H_ H_ 0.0569549 0.0666419 0.297317 0.11455
H_ H_ 0.0904524 0.120216 0.339443 0.11455
H_ H_ 0.191903 0.229509 0.255571 0.11455
H_ H_ 0.221338 0.276602 0.295712 0.11455
H_ H_ 0.2011 0.253564 0.343802 0.11455
H_ H_ 0.211053 0.296085 0.192791 0.11455
H_ H_ 0.140841 0.335477 0.0964902 0.11455
H_ H_ 0.233712 0.331463 0.104086 0.11455
H_ H_ 0.119727 0.296841 0.213103 0.11455
H_ H_ 0.0282216 0.299383 0.20609 0.11455
H_ H_ 0.0523873 0.32886 0.115484 0.11455
H_ H_ 0.384583 0.490685 0.192531 0.11455
H_ H_ 0.353056 0.0720545 0.10198 0.11455
H_ H_ 0.337637 0.471759 0.104886 0.11455
H_ H_ 0.393774 0.0722819 0.218387 0.11455
H_ H_ 0.406941 0.166018 0.211699 0.11455
H_ H_ 0.361004 0.152541 0.125342 0.11455
H_ H_ 0.422919 0.403583 0.218661 0.11455
H_ H_ 0.428771 0.437382 0.265353 0.11455
H_ H_ 0.401584 0.393606 0.306653 0.11455
H_ H_ 0.31538 0.259229 0.227688 0.11455
H_ H_ 0.296661 0.201676 0.271674 0.11455
H_ H_ 0.339948 0.218202 0.317559 0.11455
H_ H_ 0.509466 0.307326 0.377099 0.11455
H_ H_ 0.516907 0.311198 0.429728 0.11455
H_ H_ 0.254001 0.317142 0.389858 0.11455
H_ H_ 0.266216 0.325827 0.44222 0.11455
H_ H_ 0.446264 0.404196 0.501888 0.11455
H_ H_ 0.45921 0.438414 0.0470308 0.11455
H_ H_ 0.433756 0.389258 0.0881555 0.11455
H_ H_ 0.342666 0.254418 0.0137153 0.11455
H_ H_ 0.318477 0.206774 0.0584902 0.11455
H_ H_ 0.336917 0.239675 0.103162 0.11455
C_ C_ 0.247876 0.17452 0.4056 0.68181
C_ C_ 0.304013 0.182212 0.401486 -0.05681
C_ C_ 0.337058 0.187834 0.425251 -0.08735
C_ C_ 0.390126 0.182142 0.421515 -0.05681
C_ C_ 0.410203 0.180131 0.393504 -0.05681
C_ C_ 0.37749 0.180691 0.36965 -0.08735
C_ C_ 0.326068 0.172244 0.374565 -0.08735
C_ C_ 0.422389 0.174073 0.445104 -0.08735
C_ C_ 0.475219 0.177637 0.441943 -0.08735
C_ C_ 0.496161 0.178049 0.414459 -0.05681
C_ C_ 0.461136 0.17415 0.391076 -0.08735
C_ C_ 0.141614 0.269725 0.410528 0.68181
C_ C_ 0.143723 0.0773444 0.401743 0.68181
C_ C_ 0.136528 0.0199737 0.402082 -0.05681
C_ C_ 0.113193 0.484731 0.418537 -0.08735
C_ C_ 0.120494 0.43277 0.417568 -0.05681
C_ C_ 0.141863 0.40928 0.391918 -0.05681
C_ C_ 0.154102 0.442084 0.369274 -0.08735
C_ C_ 0.150514 0.494025 0.371211 -0.08735
C_ C_ 0.103144 0.399896 0.439447 -0.08735
C_ C_ 0.111608 0.34615 0.437019 -0.08735
C_ C_ 0.132001 0.324423 0.411916 -0.05681
C_ C_ 0.147047 0.355645 0.389579 -0.08735
C_ C_ 0.0525799 0.174188 0.405169 0.68181
C_ C_ 0.119376 0.120336 0.482555 0.1947
C_ C_ 0.106874 0.103507 0.0132832 -0.08735
C_ C_ 0.125587 0.135277 0.0350834 -0.08735
C_ C_ 0.148556 0.183001 0.0291991 -0.05681
C_ C_ 0.155153 0.195539 0.999661 0.18498
C_ C_ 0.193465 0.237005 0.495354 -0.08735
C_ C_ 0.208934 0.26789 0.0140249 -0.08735
C_ C_ 0.198288 0.255668 0.0422919 -0.08735
C_ C_ 0.172196 0.21206 0.0501927 0.18498
C_ C_ 0.204413 0.179892 0.0973498 0.44287
C_ C_ 0.118639 0.203628 0.0927393 0.44287
C_ C_ 0.111018 0.195903 0.121573 -0.05681
C_ C_ 0.0646594 0.205026 0.134956 -0.08735
C_ C_ 0.0593206 0.198998 0.163546 -0.08735
C_ C_ 0.0984413 0.181045 0.181477 -0.05681
C_ C_ 0.143812 0.168204 0.168318 -0.05681
C_ C_ 0.151051 0.177317 0.138413 -0.05681
C_ C_ 0.199015 0.169788 0.126637 -0.05681
C_ C_ 0.240323 0.159041 0.144263 -0.08735
C_ C_ 0.23543 0.154748 0.17401 -0.08735
C_ C_ 0.186163 0.160467 0.186033 -0.05681
C_ C_ 0.179499 0.157386 0.216144 0.44287
C_ C_ 0.0940833 0.180016 0.211637 0.44287
C_ C_ 0.12217 0.151866 0.258244 0.18498
C_ C_ 0.0950862 0.10723 0.265252 -0.08735
C_ C_ 0.0821376 0.0975844 0.294158 -0.08735
C_ C_ 0.102316 0.128095 0.316914 -0.08735
C_ C_ 0.128043 0.170347 0.310957 0.18498
C_ C_ 0.141389 0.180971 0.281094 -0.05681
C_ C_ 0.177119 0.218664 0.276319 -0.08735
C_ C_ 0.199487 0.243599 0.299938 -0.08735
C_ C_ 0.191975 0.226535 0.327378 0.1947
C_ C_ 0.281033 0.317747 0.155061 0.68181
C_ C_ 0.226135 0.317742 0.148935 -0.05681
C_ C_ 0.193498 0.306502 0.171787 -0.08735
C_ C_ 0.140735 0.311344 0.168891 -0.05681
C_ C_ 0.122386 0.325058 0.141321 -0.05681
C_ C_ 0.156306 0.333537 0.117914 -0.08735
C_ C_ 0.208257 0.334927 0.12224 -0.08735
C_ C_ 0.10621 0.308433 0.191553 -0.08735
C_ C_ 0.0531237 0.310442 0.188026 -0.08735
C_ C_ 0.0349504 0.320175 0.160835 -0.05681
C_ C_ 0.069166 0.325501 0.136941 -0.08735
C_ C_ 0.387501 0.220341 0.164668 0.68181
C_ C_ 0.362416 0.416576 0.150668 0.68181
C_ C_ 0.369167 0.471333 0.147707 -0.05681
C_ C_ 0.382495 0.00457296 0.173976 -0.08735
C_ C_ 0.384078 0.0587584 0.172654 -0.05681
C_ C_ 0.376519 0.0837235 0.145527 -0.05681
C_ C_ 0.368041 0.0531309 0.121208 -0.08735
C_ C_ 0.356803 0.494801 0.12062 -0.08735
C_ C_ 0.392731 0.0888354 0.197674 -0.08735
C_ C_ 0.398045 0.1418 0.194431 -0.08735
C_ C_ 0.388823 0.165248 0.167594 -0.05681
C_ C_ 0.377451 0.135139 0.143898 -0.08735
C_ C_ 0.477678 0.328148 0.160111 0.68181
C_ C_ 0.406391 0.382005 0.234768 0.1947
C_ C_ 0.405153 0.405545 0.261618 -0.08735
C_ C_ 0.391917 0.377372 0.28507 -0.08735
C_ C_ 0.374517 0.326589 0.281039 -0.05681
C_ C_ 0.367938 0.308571 0.252583 0.18498
C_ C_ 0.335142 0.264651 0.248117 -0.08735
C_ C_ 0.322783 0.233326 0.272826 -0.08735
C_ C_ 0.343729 0.245295 0.299356 -0.08735
C_ C_ 0.366865 0.291504 0.303953 0.18498
C_ C_ 0.330891 0.314968 0.351438 0.44287
C_ C_ 0.419792 0.307213 0.345787 0.44287
C_ C_ 0.427031 0.306796 0.37647 -0.05681
C_ C_ 0.475227 0.309129 0.389569 -0.08735
C_ C_ 0.480227 0.308733 0.419703 -0.08735
C_ C_ 0.436406 0.313399 0.437858 -0.05681
C_ C_ 0.389047 0.315431 0.424899 -0.05681
C_ C_ 0.385169 0.309857 0.39457 -0.05681
C_ C_ 0.336989 0.317309 0.381566 -0.05681
C_ C_ 0.294003 0.31812 0.399073 -0.08735
C_ C_ 0.297093 0.319626 0.428759 -0.08735
C_ C_ 0.344813 0.318524 0.441444 -0.05681
C_ C_ 0.350982 0.326007 0.471688 0.44287
C_ C_ 0.440668 0.313878 0.468111 0.44287
C_ C_ 0.393924 0.347982 0.0113518 0.18498
C_ C_ 0.42935 0.38634 0.0162336 -0.08735
C_ C_ 0.437298 0.405337 0.0440203 -0.08735
C_ C_ 0.423334 0.376928 0.0670967 -0.08735
C_ C_ 0.395628 0.332544 0.064163 0.18498
C_ C_ 0.381186 0.317052 0.0361018 -0.05681
C_ C_ 0.356159 0.269897 0.0340995 -0.08735
C_ C_ 0.338146 0.243898 0.0585335 -0.08735
C_ C_ 0.347352 0.264107 0.0856038 0.1947
N_ N_ 0.148588 0.16293 0.478282 -0.29468
N_ N_ 0.165824 0.197758 0.0808433 -0.17154
N_ N_ 0.132742 0.165165 0.228222 -0.17154
N_ N_ 0.154883 0.191856 0.333056 -0.29468
N_ N_ 0.380897 0.338491 0.229408 -0.29468
N_ N_ 0.372764 0.307887 0.333766 -0.17154
N_ N_ 0.397731 0.320613 0.484227 -0.17154
N_ N_ 0.378423 0.303776 0.089055 -0.29468
O_ O_ 0.228258 0.17843 0.42956 -0.58347
O_ O_ 0.220336 0.168529 0.382779 -0.58347
O_ O_ 0.147124 0.24374 0.433333 -0.58347
O_ O_ 0.147303 0.248933 0.386252 -0.58347
O_ O_ 0.154284 0.0978202 0.425388 -0.58347
O_ O_ 0.140599 0.101065 0.378295 -0.58347
O_ O_ 0.0818237 0.168304 0.426505 -0.58347
O_ O_ 0.0710358 0.174114 0.379478 -0.58347
O_ O_ 0.0791771 0.216623 0.0762165 -0.46727
O_ O_ 0.247763 0.171441 0.0849015 -0.46727
O_ O_ 0.0549196 0.202098 0.223077 -0.46727
O_ O_ 0.217584 0.145888 0.233229 -0.46727
O_ O_ 0.298978 0.322111 0.179812 -0.58347
O_ O_ 0.310239 0.30273 0.135677 -0.58347
O_ O_ 0.375909 0.247101 0.186076 -0.58347
O_ O_ 0.398999 0.243768 0.141294 -0.58347
O_ O_ 0.374777 0.397157 0.174795 -0.58347
O_ O_ 0.36494 0.388992 0.128914 -0.58347
O_ O_ 0.449269 0.331377 0.181743 -0.58347
O_ O_ 0.457652 0.330252 0.135401 -0.58347
O_ O_ 0.460467 0.304796 0.329766 -0.46727
O_ O_ 0.28514 0.314313 0.339375 -0.46727
O_ O_ 0.485973 0.314552 0.480349 -0.46727
O_ O_ 0.311925 0.33696 0.487613 -0.46727
Zn Zn 0.118796 0.185174 0.882605 0.90689
Zn Zn 0.129521 0.179135 0.930141 0.90689
Zn Zn 0.372979 0.322728 0.634932 0.90689
Zn Zn 0.359883 0.324803 0.682479 0.90689
H_ H_ 0.295538 0.213678 0.947404 0.11455
H_ H_ 0.36185 0.177299 0.848464 0.11455
H_ H_ 0.271548 0.174738 0.856957 0.11455
H_ H_ 0.379735 0.18531 0.967143 0.11455
H_ H_ 0.473726 0.185532 0.959318 0.11455
H_ H_ 0.449378 0.202292 0.868612 0.11455
H_ H_ 0.141603 0.0174717 0.941339 0.11455
H_ H_ 0.104312 0.435864 0.851112 0.11455
H_ H_ 0.138258 0.0276667 0.850721 0.11455
H_ H_ 0.127584 0.432621 0.966788 0.11455
H_ H_ 0.112728 0.339222 0.962951 0.11455
H_ H_ 0.109452 0.353506 0.871671 0.11455
H_ H_ 0.0789536 0.109266 0.970067 0.11455
H_ H_ 0.0814185 0.0720156 0.513729 0.11455
H_ H_ 0.116993 0.120426 0.554549 0.11455
H_ H_ 0.198242 0.24437 0.969459 0.11455
H_ H_ 0.229599 0.299728 0.514146 0.11455
H_ H_ 0.199245 0.285155 0.562906 0.11455
H_ H_ 0.0117938 0.210961 0.615053 0.11455
H_ H_ -0.004238999999999993 0.210877 0.665473 0.11455
H_ H_ 0.260575 0.180661 0.642885 0.11455
H_ H_ 0.244522 0.173571 0.69561 0.11455
H_ H_ 0.0411956 0.103535 0.74565 0.11455
H_ H_ 0.0316794 0.0687801 0.797418 0.11455
H_ H_ 0.0667676 0.116187 0.837874 0.11455
H_ H_ 0.147822 0.246727 0.756856 0.11455
H_ H_ 0.177378 0.296651 0.796482 0.11455
H_ H_ 0.1629 0.27306 0.846826 0.11455
H_ H_ 0.194306 0.313211 0.699747 0.11455
H_ H_ 0.12767 0.325218 0.602242 0.11455
H_ H_ 0.217381 0.340602 0.609831 0.11455
H_ H_ 0.102876 0.312257 0.717965 0.11455
H_ H_ 0.0122356 0.318308 0.707919 0.11455
H_ H_ 0.0436173 0.321995 0.618741 0.11455
H_ H_ 0.352525 0.492305 0.698627 0.11455
H_ H_ 0.382744 0.0651938 0.599205 0.11455
H_ H_ 0.332187 0.47991 0.606957 0.11455
H_ H_ 0.342368 0.0740709 0.712503 0.11455
H_ H_ 0.340511 0.164736 0.707274 0.11455
H_ H_ 0.378857 0.151743 0.61872 0.11455
H_ H_ 0.433943 0.384899 0.718846 0.11455
H_ H_ 0.449392 0.415673 0.765647 0.11455
H_ H_ 0.412137 0.374426 0.807212 0.11455
H_ H_ 0.312011 0.255741 0.724326 0.11455
H_ H_ 0.279144 0.204495 0.766675 0.11455
H_ H_ 0.286694 0.232245 0.813959 0.11455
H_ H_ 0.486141 0.308927 0.874982 0.11455
H_ H_ 0.493813 0.306604 0.926112 0.11455
H_ H_ 0.236139 0.345353 0.888245 0.11455
H_ H_ 0.246845 0.354254 0.941105 0.11455
H_ H_ 0.445442 0.404609 -0.0027894 0.11455
H_ H_ 0.435183 0.448881 0.548946 0.11455
H_ H_ 0.420164 0.395627 0.591067 0.11455
H_ H_ 0.352224 0.243682 0.515111 0.11455
H_ H_ 0.317206 0.204869 0.559139 0.11455
H_ H_ 0.312795 0.248548 0.602705 0.11455
C_ C_ 0.219123 0.193718 0.906246 0.68181
C_ C_ 0.276314 0.194768 0.90163 -0.05681
C_ C_ 0.309699 0.200858 0.925468 -0.08735
C_ C_ 0.362471 0.194131 0.921565 -0.05681
C_ C_ 0.381571 0.186145 0.894486 -0.05681
C_ C_ 0.348179 0.177374 0.87117 -0.08735
C_ C_ 0.297809 0.182271 0.875042 -0.08735
C_ C_ 0.394196 0.192515 0.94529 -0.08735
C_ C_ 0.447532 0.19042 0.94063 -0.08735
C_ C_ 0.467297 0.186898 0.912065 -0.05681
C_ C_ 0.4335 0.189688 0.888524 -0.08735
C_ C_ 0.121637 0.281899 0.913727 0.68181
C_ C_ 0.130005 0.0865696 0.899682 0.68181
C_ C_ 0.131119 0.0295301 0.897379 -0.05681
C_ C_ 0.13624 0.499658 0.924191 -0.08735
C_ C_ 0.130103 0.44559 0.921843 -0.05681
C_ C_ 0.121916 0.423421 0.89541 -0.05681
C_ C_ 0.117143 0.453354 0.870973 -0.08735
C_ C_ 0.11851 0.504875 0.87233 -0.08735
C_ C_ 0.124484 0.413798 0.945754 -0.08735
C_ C_ 0.120734 0.360771 0.943317 -0.08735
C_ C_ 0.117499 0.338126 0.916592 -0.05681
C_ C_ 0.118741 0.370598 0.89235 -0.08735
C_ C_ 0.0287482 0.179655 0.907035 0.68181
C_ C_ 0.103299 0.124568 0.985845 0.1947
C_ C_ 0.106382 0.104776 0.51087 -0.08735
C_ C_ 0.1275 0.13134 0.533912 -0.08735
C_ C_ 0.149738 0.178958 0.529294 -0.05681
C_ C_ 0.164406 0.193908 0.501083 0.18498
C_ C_ 0.185219 0.238739 0.991876 -0.08735
C_ C_ 0.205026 0.268704 0.518268 -0.08735
C_ C_ 0.187174 0.2585 0.545528 -0.08735
C_ C_ 0.161844 0.212008 0.551479 0.18498
C_ C_ 0.188244 0.186262 0.599505 0.44287
C_ C_ 0.102177 0.20544 0.590864 0.44287
C_ C_ 0.0900215 0.196456 0.619863 -0.05681
C_ C_ 0.041147 0.198697 0.629587 -0.08735
C_ C_ 0.03122 0.196787 0.659085 -0.08735
C_ C_ 0.070243 0.186414 0.67913 -0.05681
C_ C_ 0.119999 0.183563 0.669256 -0.05681
C_ C_ 0.129869 0.18596 0.63964 -0.05681
C_ C_ 0.181408 0.18573 0.629884 -0.05681
C_ C_ 0.221819 0.179356 0.649951 -0.08735
C_ C_ 0.211864 0.175664 0.678898 -0.08735
C_ C_ 0.162487 0.179425 0.689161 -0.05681
C_ C_ 0.148098 0.173046 0.717842 0.44287
C_ C_ 0.0621101 0.18478 0.710111 0.44287
C_ C_ 0.0885117 0.164908 0.759085 0.18498
C_ C_ 0.0537397 0.12474 0.765105 -0.08735
C_ C_ 0.0460319 0.107826 0.793481 -0.08735
C_ C_ 0.070482 0.131985 0.816206 -0.08735
C_ C_ 0.0968874 0.177502 0.810734 0.18498
C_ C_ 0.108031 0.192148 0.78243 -0.05681
C_ C_ 0.138536 0.235594 0.777984 -0.08735
C_ C_ 0.152756 0.266127 0.801432 -0.08735
C_ C_ 0.147115 0.248252 0.829464 0.1947
C_ C_ 0.267847 0.329849 0.660879 0.68181
C_ C_ 0.211931 0.328332 0.656281 -0.05681
C_ C_ 0.178403 0.313488 0.678468 -0.08735
C_ C_ 0.12549 0.310727 0.673754 -0.05681
C_ C_ 0.108385 0.319122 0.645744 -0.05681
C_ C_ 0.143045 0.319822 0.623282 -0.08735
C_ C_ 0.19347 0.331692 0.628438 -0.08735
C_ C_ 0.0912076 0.309362 0.696751 -0.08735
C_ C_ 0.0382331 0.31407 0.690799 -0.08735
C_ C_ 0.021161 0.316074 0.662163 -0.05681
C_ C_ 0.0567245 0.317041 0.639893 -0.08735
C_ C_ 0.366773 0.22367 0.66035 0.68181
C_ C_ 0.35698 0.421975 0.654978 0.68181
C_ C_ 0.35616 0.478174 0.652383 -0.05681
C_ C_ 0.34833 0.00654345 0.671095 -0.08735
C_ C_ 0.356681 0.0603483 0.669058 -0.05681
C_ C_ 0.36845 0.082028 0.642013 -0.05681
C_ C_ 0.372573 0.0495432 0.618582 -0.08735
C_ C_ 0.343359 0.50026 0.626035 -0.08735
C_ C_ 0.35055 0.0925598 0.692625 -0.08735
C_ C_ 0.356469 0.143923 0.690182 -0.08735
C_ C_ 0.365892 0.165865 0.66357 -0.05681
C_ C_ 0.374844 0.13407 0.639944 -0.08735
C_ C_ 0.462758 0.321173 0.65472 0.68181
C_ C_ 0.411853 0.36903 0.735752 0.1947
C_ C_ 0.426134 0.383022 0.762783 -0.08735
C_ C_ 0.398935 0.362027 0.785865 -0.08735
C_ C_ 0.364834 0.32198 0.782467 -0.05681
C_ C_ 0.352252 0.308341 0.753345 0.18498
C_ C_ 0.317233 0.268982 0.747836 -0.08735
C_ C_ 0.2996 0.238685 0.770587 -0.08735
C_ C_ 0.311972 0.250689 0.798562 -0.08735
C_ C_ 0.341322 0.294287 0.805267 0.18498
C_ C_ 0.307915 0.317373 0.85238 0.44287
C_ C_ 0.397244 0.3022 0.848162 0.44287
C_ C_ 0.405588 0.313586 0.876393 -0.05681
C_ C_ 0.454228 0.315318 0.888267 -0.08735
C_ C_ 0.459336 0.316904 0.917418 -0.08735
C_ C_ 0.416668 0.318762 0.93507 -0.05681
C_ C_ 0.368013 0.322084 0.924282 -0.05681
C_ C_ 0.361624 0.323051 0.893752 -0.05681
C_ C_ 0.313541 0.328906 0.880939 -0.05681
C_ C_ 0.271126 0.338225 0.898237 -0.08735
C_ C_ 0.277898 0.344725 0.928271 -0.08735
C_ C_ 0.327283 0.335274 0.941575 -0.05681
C_ C_ 0.33604 0.347381 0.97005 0.44287
C_ C_ 0.421158 0.315674 0.965348 0.44287
C_ C_ 0.405157 0.335533 0.514678 0.18498
C_ C_ 0.428479 0.38272 0.520064 -0.08735
C_ C_ 0.424159 0.408258 0.545955 -0.08735
C_ C_ 0.410855 0.380549 0.570706 -0.08735
C_ C_ 0.38779 0.331285 0.567787 0.18498
C_ C_ 0.386095 0.307583 0.539174 -0.05681
C_ C_ 0.360641 0.261631 0.536403 -0.08735
C_ C_ 0.341472 0.238349 0.560094 -0.08735
C_ C_ 0.337815 0.264458 0.585892 0.1947
N_ N_ 0.128614 0.168467 0.979767 -0.29468
N_ N_ 0.150237 0.200316 0.581508 -0.17154
N_ N_ 0.100267 0.177858 0.729104 -0.17154
N_ N_ 0.11902 0.20599 0.833942 -0.29468
N_ N_ 0.374113 0.333961 0.730502 -0.29468
N_ N_ 0.348967 0.304739 0.83585 -0.17154
N_ N_ 0.381097 0.33249 0.982078 -0.17154
N_ N_ 0.366703 0.308385 0.59039 -0.29468
O_ O_ 0.203149 0.174629 0.928999 -0.58347
O_ O_ 0.190007 0.201376 0.885059 -0.58347
O_ O_ 0.140732 0.255021 0.933571 -0.58347
O_ O_ 0.108392 0.261869 0.889869 -0.58347
O_ O_ 0.122967 0.106249 0.924102 -0.58347
O_ O_ 0.128758 0.115125 0.876827 -0.58347
O_ O_ 0.0574681 0.190105 0.927747 -0.58347
O_ O_ 0.0465887 0.169186 0.883251 -0.58347
O_ O_ 0.0646952 0.216587 0.572204 -0.46727
O_ O_ 0.23437 0.178946 0.589557 -0.46727
O_ O_ 0.0152204 0.186686 0.719947 -0.46727
O_ O_ 0.186241 0.16475 0.73565 -0.46727
O_ O_ 0.288312 0.33397 0.685906 -0.58347
O_ O_ 0.294678 0.316227 0.639306 -0.58347
O_ O_ 0.356852 0.250378 0.682836 -0.58347
O_ O_ 0.383668 0.246083 0.637827 -0.58347
O_ O_ 0.362227 0.401075 0.678852 -0.58347
O_ O_ 0.363013 0.396846 0.632045 -0.58347
O_ O_ 0.433954 0.321665 0.67687 -0.58347
O_ O_ 0.446151 0.326721 0.629996 -0.58347
O_ O_ 0.432703 0.28141 0.831612 -0.46727
O_ O_ 0.264371 0.323726 0.839712 -0.46727
O_ O_ 0.467573 0.315143 0.977287 -0.46727
O_ O_ 0.297718 0.359753 0.986612 -0.46727
Zn Zn 0.121438 0.676989 0.382243 0.90689
Zn Zn 0.13532 0.671307 0.427982 0.90689
Zn Zn 0.365581 0.822024 0.132993 0.90689
Zn Zn 0.354663 0.821268 0.180992 0.90689
H_ H_ 0.30122 0.702987 0.441587 0.11455
H_ H_ 0.364451 0.656057 0.345601 0.11455
H_ H_ 0.274602 0.654574 0.356544 0.11455
H_ H_ 0.379528 0.691566 0.46051 0.11455
H_ H_ 0.472131 0.678245 0.4556 0.11455
H_ H_ 0.451149 0.654411 0.364063 0.11455
H_ H_ 0.0926078 0.501946 0.435467 0.11455
H_ H_ 0.140872 0.92739 0.350313 0.11455
H_ H_ 0.162916 0.517831 0.354379 0.11455
H_ H_ 0.126153 0.915915 0.46914 0.11455
H_ H_ 0.112225 0.828471 0.463117 0.11455
H_ H_ 0.120288 0.845307 0.371376 0.11455
H_ H_ 0.0720751 0.602662 0.464343 0.11455
H_ H_ 0.0645865 0.574476 0.013384 0.11455
H_ H_ 0.090492 0.622814 0.0565396 0.11455
H_ H_ 0.190564 0.733965 0.471163 0.11455
H_ H_ 0.23234 0.789838 0.0188449 0.11455
H_ H_ 0.201192 0.772685 0.0675678 0.11455
H_ H_ 0.0114537 0.705404 0.125559 0.11455
H_ H_ 0.000729382 0.693137 0.17941 0.11455
H_ H_ 0.255258 0.649865 0.134486 0.11455
H_ H_ 0.244068 0.620469 0.18494 0.11455
H_ H_ 0.0970585 0.56895 0.246528 0.11455
H_ H_ 0.07197 0.542365 0.299876 0.11455
H_ H_ 0.0860607 0.602634 0.339517 0.11455
H_ H_ 0.161173 0.738917 0.258395 0.11455
H_ H_ 0.186414 0.79264 0.299596 0.11455
H_ H_ 0.154801 0.76642 0.347475 0.11455
H_ H_ 0.188653 0.803162 0.1984 0.11455
H_ H_ 0.126714 0.83345 0.100954 0.11455
H_ H_ 0.216398 0.848298 0.110398 0.11455
H_ H_ 0.103316 0.8171 0.216199 0.11455
H_ H_ 0.0102676 0.813271 0.207274 0.11455
H_ H_ 0.0339536 0.820844 0.117579 0.11455
H_ H_ 0.384962 0.983747 0.19367 0.11455
H_ H_ 0.340521 0.5654 0.0975831 0.11455
H_ H_ 0.35744 0.980786 0.104524 0.11455
H_ H_ 0.399714 0.570979 0.211252 0.11455
H_ H_ 0.389407 0.664951 0.207973 0.11455
H_ H_ 0.346567 0.650405 0.119557 0.11455
H_ H_ 0.420151 0.87893 0.216455 0.11455
H_ H_ 0.443812 0.902958 0.263057 0.11455
H_ H_ 0.392482 0.87281 0.303414 0.11455
H_ H_ 0.292862 0.756671 0.223082 0.11455
H_ H_ 0.266158 0.700042 0.263141 0.11455
H_ H_ 0.291827 0.723605 0.314347 0.11455
H_ H_ 0.476892 0.78554 0.370759 0.11455
H_ H_ 0.489434 0.794307 0.423411 0.11455
H_ H_ 0.227492 0.827597 0.389562 0.11455
H_ H_ 0.23903 0.833196 0.440911 0.11455
H_ H_ 0.423039 0.91501 0.497643 0.11455
H_ H_ 0.440399 0.948768 0.042505 0.11455
H_ H_ 0.410476 0.901496 0.0868612 0.11455
H_ H_ 0.334366 0.753576 0.0103403 0.11455
H_ H_ 0.301588 0.711991 0.052896 0.11455
H_ H_ 0.316615 0.749395 0.101021 0.11455
C_ C_ 0.224704 0.683118 0.405059 0.68181
C_ C_ 0.280051 0.681136 0.399283 -0.05681
C_ C_ 0.314133 0.689728 0.421228 -0.08735
C_ C_ 0.367108 0.685606 0.415986 -0.05681
C_ C_ 0.384903 0.674265 0.388579 -0.05681
C_ C_ 0.3507 0.665671 0.366235 -0.08735
C_ C_ 0.298302 0.666628 0.372999 -0.08735
C_ C_ 0.397906 0.686457 0.439852 -0.08735
C_ C_ 0.44899 0.674984 0.436738 -0.08735
C_ C_ 0.471354 0.670324 0.408168 -0.05681
C_ C_ 0.438445 0.669458 0.383468 -0.08735
C_ C_ 0.118447 0.772173 0.411952 0.68181
C_ C_ 0.139079 0.57159 0.40028 0.68181
C_ C_ 0.13081 0.51593 0.395647 -0.05681
C_ C_ 0.133614 0.98904 0.42642 -0.08735
C_ C_ 0.128915 0.935412 0.423342 -0.05681
C_ C_ 0.125831 0.913358 0.395268 -0.05681
C_ C_ 0.132065 0.944704 0.371721 -0.08735
C_ C_ 0.137193 0.995776 0.375608 -0.08735
C_ C_ 0.123317 0.903158 0.446448 -0.08735
C_ C_ 0.115694 0.850384 0.443209 -0.08735
C_ C_ 0.11612 0.827093 0.415826 -0.05681
C_ C_ 0.117213 0.860435 0.392287 -0.08735
C_ C_ 0.0283224 0.667509 0.40417 0.68181
C_ C_ 0.0938602 0.619939 0.481304 0.1947
C_ C_ 0.0892019 0.607042 0.0114723 -0.08735
C_ C_ 0.105238 0.634428 0.035927 -0.08735
C_ C_ 0.135686 0.676901 0.0310092 -0.05681
C_ C_ 0.148265 0.691681 1.00271508 0.18498
C_ C_ 0.182458 0.724624 0.493081 -0.08735
C_ C_ 0.199775 0.764113 0.0214004 -0.08735
C_ C_ 0.183109 0.752776 0.0487724 -0.08735
C_ C_ 0.152059 0.708793 0.0543285 0.18498
C_ C_ 0.183064 0.676828 0.098497 0.44287
C_ C_ 0.0974288 0.703719 0.0960826 0.44287
C_ C_ 0.0893015 0.689509 0.126062 -0.05681
C_ C_ 0.0411949 0.692161 0.140446 -0.08735
C_ C_ 0.0361572 0.686446 0.168861 -0.08735
C_ C_ 0.0802886 0.679249 0.186796 -0.05681
C_ C_ 0.126016 0.668328 0.172091 -0.05681
C_ C_ 0.131308 0.675534 0.141738 -0.05681
C_ C_ 0.178207 0.666499 0.128173 -0.05681
C_ C_ 0.219307 0.652885 0.144563 -0.08735
C_ C_ 0.212534 0.637575 0.172843 -0.08735
C_ C_ 0.168471 0.6498 0.186533 -0.05681
C_ C_ 0.164738 0.651984 0.217554 0.44287
C_ C_ 0.0759995 0.67056 0.215608 0.44287
C_ C_ 0.115298 0.646083 0.2603 0.18498
C_ C_ 0.102585 0.593375 0.265998 -0.08735
C_ C_ 0.088802 0.580111 0.294841 -0.08735
C_ C_ 0.0962388 0.613934 0.317754 -0.08735
C_ C_ 0.117681 0.662997 0.312629 0.18498
C_ C_ 0.131124 0.67855 0.283647 -0.05681
C_ C_ 0.15895 0.722955 0.279463 -0.08735
C_ C_ 0.170855 0.755004 0.302449 -0.08735
C_ C_ 0.153655 0.740915 0.330483 0.1947
C_ C_ 0.262409 0.823418 0.157872 0.68181
C_ C_ 0.20745 0.823521 0.153721 -0.05681
C_ C_ 0.173661 0.814487 0.176923 -0.08735
C_ C_ 0.121771 0.818301 0.172133 -0.05681
C_ C_ 0.103833 0.822806 0.143775 -0.05681
C_ C_ 0.13854 0.83161 0.121242 -0.08735
C_ C_ 0.188591 0.83913 0.127216 -0.08735
C_ C_ 0.08989 0.811347 0.195046 -0.08735
C_ C_ 0.0362678 0.810639 0.189711 -0.08735
C_ C_ 0.0167945 0.819285 0.162625 -0.05681
C_ C_ 0.0494412 0.824313 0.139486 -0.08735
C_ C_ 0.362463 0.720211 0.163056 0.68181
C_ C_ 0.356108 0.920632 0.151114 0.68181
C_ C_ 0.371349 0.975522 0.149784 -0.05681
C_ C_ 0.374048 0.504372 0.172114 -0.08735
C_ C_ 0.379436 0.557373 0.168072 -0.05681
C_ C_ 0.365763 0.579631 0.141316 -0.05681
C_ C_ 0.349111 0.547852 0.118054 -0.08735
C_ C_ 0.368222 0.0006900000000000794 0.123183 -0.08735
C_ C_ 0.390343 0.589965 0.191226 -0.08735
C_ C_ 0.389048 0.641555 0.188866 -0.08735
C_ C_ 0.366115 0.664471 0.16441 -0.05681
C_ C_ 0.360429 0.634996 0.139416 -0.08735
C_ C_ 0.459601 0.821246 0.157216 0.68181
C_ C_ 0.395983 0.86725 0.232297 0.1947
C_ C_ 0.40749 0.884169 0.258746 -0.08735
C_ C_ 0.384241 0.859321 0.282076 -0.08735
C_ C_ 0.352475 0.818591 0.277365 -0.05681
C_ C_ 0.337847 0.804266 0.250196 0.18498
C_ C_ 0.306113 0.763175 0.245711 -0.08735
C_ C_ 0.292168 0.732186 0.268032 -0.08735
C_ C_ 0.303955 0.745362 0.296467 -0.08735
C_ C_ 0.33249 0.78994 0.301505 0.18498
C_ C_ 0.302855 0.81931 0.348807 0.44287
C_ C_ 0.389306 0.79686 0.342591 0.44287
C_ C_ 0.399814 0.806993 0.372468 -0.05681
C_ C_ 0.446313 0.799795 0.38463 -0.08735
C_ C_ 0.453125 0.80535 0.414775 -0.08735
C_ C_ 0.412884 0.8188 0.432314 -0.05681
C_ C_ 0.364618 0.822099 0.420005 -0.05681
C_ C_ 0.357035 0.815457 0.389973 -0.05681
C_ C_ 0.307728 0.817893 0.378338 -0.05681
C_ C_ 0.26668 0.825517 0.397532 -0.08735
C_ C_ 0.27243 0.827424 0.426716 -0.08735
C_ C_ 0.322745 0.828115 0.438331 -0.05681
C_ C_ 0.331042 0.833807 0.466929 0.44287
C_ C_ 0.419135 0.821756 0.461881 0.44287
C_ C_ 0.381954 0.846598 0.00891818 0.18498
C_ C_ 0.405911 0.892436 0.0120025 -0.08735
C_ C_ 0.416436 0.913804 0.0396511 -0.08735
C_ C_ 0.399515 0.886781 0.0645986 -0.08735
C_ C_ 0.373612 0.840033 0.0610231 0.18498
C_ C_ 0.367076 0.819115 0.0335113 -0.05681
C_ C_ 0.344085 0.77022 0.0310322 -0.08735
C_ C_ 0.326824 0.746144 0.0553269 -0.08735
C_ C_ 0.337438 0.765324 0.0825432 0.1947
N_ N_ 0.12649 0.659622 0.475838 -0.29468
N_ N_ 0.143965 0.692778 0.0833034 -0.17154
N_ N_ 0.119096 0.660902 0.231001 -0.17154
N_ N_ 0.132444 0.692064 0.334908 -0.29468
N_ N_ 0.36122 0.828876 0.227402 -0.29468
N_ N_ 0.342577 0.805049 0.331106 -0.17154
N_ N_ 0.378318 0.830153 0.479738 -0.17154
N_ N_ 0.358218 0.812621 0.0843273 -0.29468
O_ O_ 0.20841 0.67034 0.430024 -0.58347
O_ O_ 0.195608 0.69847 0.385843 -0.58347
O_ O_ 0.130853 0.745346 0.433462 -0.58347
O_ O_ 0.10699 0.751426 0.38894 -0.58347
O_ O_ 0.133473 0.592807 0.424764 -0.58347
O_ O_ 0.140924 0.599649 0.37855 -0.58347
O_ O_ 0.0594508 0.674178 0.424911 -0.58347
O_ O_ 0.0458674 0.661908 0.378742 -0.58347
O_ O_ 0.0620204 0.726119 0.0814607 -0.46727
O_ O_ 0.228827 0.675489 0.0876786 -0.46727
O_ O_ 0.0307213 0.672366 0.229325 -0.46727
O_ O_ 0.204194 0.644698 0.233303 -0.46727
O_ O_ 0.281066 0.825575 0.182753 -0.58347
O_ O_ 0.292062 0.81874 0.136266 -0.58347
O_ O_ 0.346941 0.746182 0.184532 -0.58347
O_ O_ 0.370442 0.744755 0.13987 -0.58347
O_ O_ 0.365383 0.8973 0.174447 -0.58347
O_ O_ 0.355698 0.896717 0.128212 -0.58347
O_ O_ 0.43048 0.808896 0.1773 -0.58347
O_ O_ 0.442233 0.830004 0.132435 -0.58347
O_ O_ 0.425398 0.777976 0.326617 -0.46727
O_ O_ 0.257868 0.826566 0.337723 -0.46727
O_ O_ 0.462783 0.818775 0.473121 -0.46727
O_ O_ 0.290663 0.836748 0.483042 -0.46727
Zn Zn 0.123658 0.684845 0.881973 0.90689
Zn Zn 0.135587 0.681706 0.931046 0.90689
Zn Zn 0.366761 0.81948 0.632244 0.90689
Zn Zn 0.35791 0.826354 0.680159 0.90689
H_ H_ 0.302224 0.688276 0.948262 0.11455
H_ H_ 0.365356 0.670785 0.849433 0.11455
H_ H_ 0.278089 0.681603 0.856503 0.11455
H_ H_ 0.389697 0.686603 0.965913 0.11455
H_ H_ 0.477699 0.684274 0.95859 0.11455
H_ H_ 0.456657 0.656874 0.869048 0.11455
H_ H_ 0.141504 0.51369 0.944872 0.11455
H_ H_ 0.135407 0.931152 0.847584 0.11455
H_ H_ 0.115305 0.522255 0.851283 0.11455
H_ H_ 0.130617 0.933264 0.965259 0.11455
H_ H_ 0.129529 0.84055 0.960281 0.11455
H_ H_ 0.135522 0.849871 0.871129 0.11455
H_ H_ 0.0701248 0.613798 0.966674 0.11455
H_ H_ 0.0555701 0.577726 0.513132 0.11455
H_ H_ 0.100547 0.615858 0.553479 0.11455
H_ H_ 0.200671 0.735901 0.979045 0.11455
H_ H_ 0.218053 0.79413 0.508519 0.11455
H_ H_ 0.200449 0.768112 0.559918 0.11455
H_ H_ 1.00721016 0.685019 0.620609 0.11455
H_ H_ 0.9955 0.687455 0.671934 0.11455
H_ H_ 0.262254 0.685865 0.643996 0.11455
H_ H_ 0.244364 0.667347 0.693811 0.11455
H_ H_ 0.0527404 0.598056 0.746745 0.11455
H_ H_ 0.0346072 0.57259 0.796445 0.11455
H_ H_ 0.0750558 0.61865 0.837243 0.11455
H_ H_ 0.155945 0.75115 0.756771 0.11455
H_ H_ 0.192214 0.791383 0.799329 0.11455
H_ H_ 0.175452 0.761367 0.847513 0.11455
H_ H_ 0.192372 0.817877 0.697044 0.11455
H_ H_ 0.11842 0.805877 0.599097 0.11455
H_ H_ 0.208516 0.818281 0.605764 0.11455
H_ H_ 0.104173 0.825079 0.714238 0.11455
H_ H_ 0.0134823 0.810207 0.708074 0.11455
H_ H_ 0.0365948 0.793074 0.616873 0.11455
H_ H_ 0.34027 0.988661 0.692114 0.11455
H_ H_ 0.349276 0.568302 0.602348 0.11455
H_ H_ 0.365034 0.974742 0.601168 0.11455
H_ H_ 0.385477 0.57525 0.718585 0.11455
H_ H_ 0.405972 0.670016 0.711157 0.11455
H_ H_ 0.361814 0.654886 0.623396 0.11455
H_ H_ 0.413011 0.894035 0.720419 0.11455
H_ H_ 0.413775 0.925276 0.771869 0.11455
H_ H_ 0.385994 0.870993 0.810223 0.11455
H_ H_ 0.283995 0.767143 0.722887 0.11455
H_ H_ 0.272945 0.699662 0.757413 0.11455
H_ H_ 0.293414 0.712111 0.807862 0.11455
H_ H_ 0.473629 0.787204 0.871547 0.11455
H_ H_ 0.487403 0.806293 0.923661 0.11455
H_ H_ 0.228716 0.842486 0.885962 0.11455
H_ H_ 0.237829 0.856943 0.937927 0.11455
H_ H_ 0.419321 0.91118 0.993693 0.11455
H_ H_ 0.437087 0.941747 0.548236 0.11455
H_ H_ 0.407889 0.89406 0.587065 0.11455
H_ H_ 0.335942 0.756172 0.508019 0.11455
H_ H_ 0.304113 0.70749 0.548867 0.11455
H_ H_ 0.320352 0.738492 0.598539 0.11455
C_ C_ 0.226482 0.684184 0.906629 0.68181
C_ C_ 0.282046 0.684365 0.902247 -0.05681
C_ C_ 0.315408 0.683023 0.92673 -0.08735
C_ C_ 0.368563 0.682709 0.921578 -0.05681
C_ C_ 0.388151 0.672601 0.893918 -0.05681
C_ C_ 0.353634 0.669733 0.871223 -0.08735
C_ C_ 0.302703 0.682645 0.87468 -0.08735
C_ C_ 0.401639 0.680874 0.944963 -0.08735
C_ C_ 0.453492 0.679373 0.941254 -0.08735
C_ C_ 0.473782 0.676504 0.912669 -0.05681
C_ C_ 0.440821 0.670403 0.889601 -0.08735
C_ C_ 0.125449 0.782983 0.913792 0.68181
C_ C_ 0.131921 0.584963 0.9009 0.68181
C_ C_ 0.125913 0.529229 0.899286 -0.05681
C_ C_ 0.135675 0.999457 0.921911 -0.08735
C_ C_ 0.131374 0.944499 0.920141 -0.05681
C_ C_ 0.134737 0.920326 0.893101 -0.05681
C_ C_ 0.138207 0.951233 0.868191 -0.08735
C_ C_ 0.130836 0.00428912 0.869873 -0.08735
C_ C_ 0.128419 0.91436 0.94436 -0.08735
C_ C_ 0.125702 0.862353 0.941878 -0.08735
C_ C_ 0.126578 0.837106 0.915448 -0.05681
C_ C_ 0.131842 0.867668 0.891403 -0.08735
C_ C_ 0.028875 0.678745 0.907356 0.68181
C_ C_ 0.0957639 0.627122 0.984016 0.1947
C_ C_ 0.0802557 0.607867 0.509946 -0.08735
C_ C_ 0.104771 0.63038 0.532874 -0.08735
C_ C_ 0.136255 0.672514 0.527223 -0.05681
C_ C_ 0.149146 0.685786 0.498519 0.18498
C_ C_ 0.179421 0.733929 0.998127 -0.08735
C_ C_ 0.196956 0.757344 0.515402 -0.08735
C_ C_ 0.18456 0.744713 0.542813 -0.08735
C_ C_ 0.157539 0.699724 0.549819 0.18498
C_ C_ 0.187683 0.685597 0.59982 0.44287
C_ C_ 0.0989171 0.695407 0.592418 0.44287
C_ C_ 0.0903356 0.691372 0.622274 -0.05681
C_ C_ 0.0410263 0.686557 0.634312 -0.08735
C_ C_ 0.0344868 0.688462 0.664576 -0.08735
C_ C_ 0.0742122 0.693498 0.682448 -0.05681
C_ C_ 0.12316 0.686556 0.670928 -0.05681
C_ C_ 0.130395 0.689426 0.642113 -0.05681
C_ C_ 0.18036 0.687757 0.630305 -0.05681
C_ C_ 0.221687 0.678618 0.64902 -0.08735
C_ C_ 0.212295 0.673372 0.678227 -0.08735
C_ C_ 0.163371 0.676504 0.689687 -0.05681
C_ C_ 0.154164 0.672692 0.719089 0.44287
C_ C_ 0.0679015 0.687424 0.71224 0.44287
C_ C_ 0.0953479 0.664341 0.759293 0.18498
C_ C_ 0.0700811 0.62007 0.764259 -0.08735
C_ C_ 0.0607808 0.603658 0.792312 -0.08735
C_ C_ 0.0794161 0.63228 0.815251 -0.08735
C_ C_ 0.10725 0.676765 0.810303 0.18498
C_ C_ 0.114533 0.692878 0.781912 -0.05681
C_ C_ 0.145389 0.737059 0.778647 -0.08735
C_ C_ 0.163938 0.762725 0.802892 -0.08735
C_ C_ 0.154516 0.745524 0.830422 0.1947
C_ C_ 0.26537 0.815875 0.655194 0.68181
C_ C_ 0.210286 0.816503 0.651748 -0.05681
C_ C_ 0.175605 0.818105 0.674558 -0.08735
C_ C_ 0.121418 0.813997 0.670206 -0.05681
C_ C_ 0.10185 0.810647 0.642664 -0.05681
C_ C_ 0.136077 0.804157 0.620419 -0.08735
C_ C_ 0.188312 0.809894 0.623968 -0.08735
C_ C_ 0.0882892 0.815681 0.693422 -0.08735
C_ C_ 0.0363005 0.81342 0.689312 -0.08735
C_ C_ 0.0159793 0.809203 0.661539 -0.05681
C_ C_ 0.0496521 0.80416 0.637703 -0.08735
C_ C_ 0.378493 0.725453 0.665418 0.68181
C_ C_ 0.351625 0.918733 0.651113 0.68181
C_ C_ 0.350895 0.973812 0.647558 -0.05681
C_ C_ 0.361788 0.51076 0.677858 -0.08735
C_ C_ 0.367988 0.562377 0.675028 -0.05681
C_ C_ 0.364129 0.584406 0.647311 -0.05681
C_ C_ 0.349005 0.552583 0.623826 -0.08735
C_ C_ 0.363694 0.99632279 0.620604 -0.08735
C_ C_ 0.379325 0.592998 0.698348 -0.08735
C_ C_ 0.388667 0.64517 0.694968 -0.08735
C_ C_ 0.379866 0.667956 0.667831 -0.05681
C_ C_ 0.368278 0.637984 0.644056 -0.08735
C_ C_ 0.458719 0.827902 0.658904 0.68181
C_ C_ 0.383723 0.879485 0.735679 0.1947
C_ C_ 0.389214 0.894968 0.76525 -0.08735
C_ C_ 0.370469 0.865482 0.787102 -0.08735
C_ C_ 0.342402 0.821792 0.780209 -0.05681
C_ C_ 0.335606 0.808977 0.750531 0.18498
C_ C_ 0.30425 0.767749 0.743694 -0.08735
C_ C_ 0.29484 0.731862 0.763631 -0.08735
C_ C_ 0.304664 0.739708 0.792347 -0.08735
C_ C_ 0.327275 0.786685 0.801684 0.18498
C_ C_ 0.295873 0.812875 0.848627 0.44287
C_ C_ 0.382944 0.786306 0.843433 0.44287
C_ C_ 0.393311 0.800912 0.872526 -0.05681
C_ C_ 0.44304 0.799939 0.884623 -0.08735
C_ C_ 0.450176 0.807953 0.913977 -0.08735
C_ C_ 0.407121 0.81489 0.932942 -0.05681
C_ C_ 0.359035 0.816328 0.920917 -0.05681
C_ C_ 0.351427 0.813056 0.890168 -0.05681
C_ C_ 0.302253 0.81668 0.878433 -0.05681
C_ C_ 0.262143 0.830794 0.896423 -0.08735
C_ C_ 0.2709 0.840379 0.925444 -0.08735
C_ C_ 0.317826 0.832697 0.938497 -0.05681
C_ C_ 0.325485 0.82924 0.968522 0.44287
C_ C_ 0.413917 0.821556 0.961986 0.44287
C_ C_ 0.386766 0.844182 0.509453 0.18498
C_ C_ 0.405994 0.892886 0.515223 -0.08735
C_ C_ 0.421703 0.90716 0.54327 -0.08735
C_ C_ 0.403241 0.880053 0.56533 -0.08735
C_ C_ 0.37764 0.833371 0.561616 0.18498
C_ C_ 0.371199 0.813216 0.533417 -0.05681
C_ C_ 0.343081 0.769163 0.52917 -0.08735
C_ C_ 0.325308 0.743247 0.552606 -0.08735
C_ C_ 0.33451 0.760114 0.580513 0.1947
N_ N_ 0.126911 0.66637 0.97924 -0.29468
N_ N_ 0.146313 0.689276 0.581332 -0.17154
N_ N_ 0.107075 0.676596 0.7299 -0.17154
N_ N_ 0.122732 0.705557 0.833882 -0.29468
N_ N_ 0.356519 0.837594 0.729516 -0.29468
N_ N_ 0.336647 0.796107 0.831587 -0.17154
N_ N_ 0.37288 0.829152 0.979815 -0.17154
N_ N_ 0.359082 0.806255 0.584856 -0.29468
O_ O_ 0.207894 0.67143 0.930344 -0.58347
O_ O_ 0.196774 0.699631 0.887365 -0.58347
O_ O_ 0.14027 0.75832 0.935193 -0.58347
O_ O_ 0.111916 0.760273 0.890728 -0.58347
O_ O_ 0.127414 0.606907 0.925186 -0.58347
O_ O_ 0.135914 0.610911 0.877786 -0.58347
O_ O_ 0.0597422 0.69027 0.926193 -0.58347
O_ O_ 0.0486791 0.667924 0.882801 -0.58347
O_ O_ 0.0637697 0.71191 0.575987 -0.46727
O_ O_ 0.23233 0.674781 0.588834 -0.46727
O_ O_ 0.0184524 0.689167 0.722215 -0.46727
O_ O_ 0.189065 0.653918 0.735839 -0.46727
O_ O_ 0.285834 0.819138 0.679714 -0.58347
O_ O_ 0.292155 0.815118 0.633151 -0.58347
O_ O_ 0.368625 0.752938 0.686289 -0.58347
O_ O_ 0.377923 0.744988 0.639803 -0.58347
O_ O_ 0.350711 0.898722 0.675163 -0.58347
O_ O_ 0.350944 0.890053 0.629547 -0.58347
O_ O_ 0.429271 0.833008 0.6797 -0.58347
O_ O_ 0.442174 0.826513 0.633844 -0.58347
O_ O_ 0.416448 0.76287 0.828179 -0.46727
O_ O_ 0.255914 0.827311 0.835922 -0.46727
O_ O_ 0.460956 0.818561 0.972691 -0.46727
O_ O_ 0.285667 0.834087 0.986531 -0.46727
Zn Zn 0.644088 0.188176 0.384827 0.90689
Zn Zn 0.65384 0.179882 0.431289 0.90689
Zn Zn 0.885622 0.31329 0.127988 0.90689
Zn Zn 0.875998 0.317474 0.174695 0.90689
H_ H_ 0.821685 0.170701 0.447723 0.11455
H_ H_ 0.888062 0.186948 0.348712 0.11455
H_ H_ 0.796287 0.183913 0.355991 0.11455
H_ H_ 0.908513 0.172835 0.465061 0.11455
H_ H_ 1.000922433 0.176224 0.45533 0.11455
H_ H_ 0.974381 0.181098 0.366252 0.11455
H_ H_ 0.640385 0.012799 0.441855 0.11455
H_ H_ 0.644403 0.435261 0.351405 0.11455
H_ H_ 0.646637 0.0313853 0.349681 0.11455
H_ H_ 0.623818 0.430108 0.468488 0.11455
H_ H_ 0.624904 0.340811 0.464205 0.11455
H_ H_ 0.628969 0.35074 0.370757 0.11455
H_ H_ 0.603589 0.101943 0.465303 0.11455
H_ H_ 0.569828 0.0872461 0.0228879 0.11455
H_ H_ 0.60776 0.135089 0.0610238 0.11455
H_ H_ 0.704461 0.250738 0.475459 0.11455
H_ H_ 0.734094 0.306342 0.0201444 0.11455
H_ H_ 0.709497 0.283831 0.0685044 0.11455
H_ H_ 0.515448 0.215171 0.125417 0.11455
H_ H_ 0.499714 0.189513 0.175354 0.11455
H_ H_ 0.766666 0.168659 0.144835 0.11455
H_ H_ 0.748 0.159326 0.194878 0.11455
H_ H_ 0.552751 0.103044 0.25331 0.11455
H_ H_ 0.532763 0.0793019 0.303356 0.11455
H_ H_ 0.576784 0.131733 0.343206 0.11455
H_ H_ 0.649325 0.256631 0.260626 0.11455
H_ H_ 0.710522 0.288159 0.297893 0.11455
H_ H_ 0.702286 0.251848 0.347134 0.11455
H_ H_ 0.706396 0.288032 0.18651 0.11455
H_ H_ 0.634439 0.356705 0.0977695 0.11455
H_ H_ 0.730346 0.354727 0.104144 0.11455
H_ H_ 0.622709 0.295368 0.212516 0.11455
H_ H_ 0.535494 0.282929 0.201912 0.11455
H_ H_ 0.549841 0.363231 0.122319 0.11455
H_ H_ 0.880018 0.476578 0.188825 0.11455
H_ H_ 0.815492 0.0645037 0.104351 0.11455
H_ H_ 0.867994 0.469088 0.0976806 0.11455
H_ H_ 0.916553 0.0658691 0.208173 0.11455
H_ H_ 0.922528 0.15789 0.2032 0.11455
H_ H_ 0.849274 0.150174 0.121973 0.11455
H_ H_ 0.930763 0.392642 0.208351 0.11455
H_ H_ 0.956756 0.415122 0.255362 0.11455
H_ H_ 0.920491 0.385121 0.296751 0.11455
H_ H_ 0.816259 0.250075 0.223299 0.11455
H_ H_ 0.801823 0.196785 0.265914 0.11455
H_ H_ 0.837966 0.223702 0.313261 0.11455
H_ H_ 1.00268154 0.295628 0.370244 0.11455
H_ H_ 0.0123848 0.301351 0.423373 0.11455
H_ H_ 0.75339 0.334848 0.383742 0.11455
H_ H_ 0.76133 0.332789 0.43714 0.11455
H_ H_ 0.965266 0.382959 0.498086 0.11455
H_ H_ 0.970363 0.4285 0.0498086 0.11455
H_ H_ 0.942403 0.36864 0.0873128 0.11455
H_ H_ 0.858104 0.244347 0.00652955 0.11455
H_ H_ 0.807435 0.212721 0.0476044 0.11455
H_ H_ 0.828083 0.236189 0.0966363 0.11455
C_ C_ 0.745823 0.183021 0.407272 0.68181
C_ C_ 0.803892 0.187058 0.402566 -0.05681
C_ C_ 0.837898 0.17799 0.425208 -0.08735
C_ C_ 0.890789 0.177844 0.420313 -0.05681
C_ C_ 0.908026 0.178007 0.392615 -0.05681
C_ C_ 0.87381 0.185585 0.369605 -0.08735
C_ C_ 0.822475 0.189818 0.374329 -0.08735
C_ C_ 0.924327 0.169222 0.44297 -0.08735
C_ C_ 0.976579 0.170089 0.438419 -0.08735
C_ C_ 0.99556 0.174163 0.410067 -0.05681
C_ C_ 0.960884 0.176836 0.387436 -0.08735
C_ C_ 0.645867 0.281852 0.41494 0.68181
C_ C_ 0.642612 0.0862484 0.401829 0.68181
C_ C_ 0.640269 0.0292647 0.396965 -0.05681
C_ C_ 0.621626 0.497989 0.425408 -0.08735
C_ C_ 0.622194 0.445007 0.423208 -0.05681
C_ C_ 0.624125 0.421971 0.395129 -0.05681
C_ C_ 0.627904 0.452707 0.370055 -0.08735
C_ C_ 0.632463 0.505404 0.373168 -0.08735
C_ C_ 0.626916 0.413664 0.447394 -0.08735
C_ C_ 0.624146 0.36127 0.444867 -0.08735
C_ C_ 0.629753 0.337053 0.41777 -0.05681
C_ C_ 0.627312 0.368575 0.392111 -0.08735
C_ C_ 0.55373 0.177584 0.409893 0.68181
C_ C_ 0.618115 0.123239 0.48415 0.1947
C_ C_ 0.589678 0.123579 0.0176824 -0.08735
C_ C_ 0.614697 0.148996 0.0407917 -0.08735
C_ C_ 0.645656 0.192323 0.0350598 -0.05681
C_ C_ 0.655028 0.204486 1.00581479 0.18498
C_ C_ 0.692786 0.240086 0.497066 -0.08735
C_ C_ 0.705591 0.275859 0.0227369 -0.08735
C_ C_ 0.693208 0.264099 0.0516519 -0.08735
C_ C_ 0.66293 0.223474 0.0571463 0.18498
C_ C_ 0.694317 0.18894 0.102992 0.44287
C_ C_ 0.607605 0.217479 0.0982457 0.44287
C_ C_ 0.59655 0.198468 0.127025 -0.05681
C_ C_ 0.54495 0.200468 0.138368 -0.08735
C_ C_ 0.537303 0.189267 0.166774 -0.08735
C_ C_ 0.577345 0.183666 0.185212 -0.05681
C_ C_ 0.626729 0.175046 0.173097 -0.05681
C_ C_ 0.637225 0.182995 0.144691 -0.05681
C_ C_ 0.685773 0.178132 0.132255 -0.05681
C_ C_ 0.727577 0.166835 0.150496 -0.08735
C_ C_ 0.717642 0.161846 0.180446 -0.08735
C_ C_ 0.668455 0.165944 0.19139 -0.05681
C_ C_ 0.661085 0.174272 0.221892 0.44287
C_ C_ 0.571223 0.18575 0.215855 0.44287
C_ C_ 0.604644 0.16455 0.263228 0.18498
C_ C_ 0.576478 0.11921 0.270372 -0.08735
C_ C_ 0.564244 0.105256 0.29923 -0.08735
C_ C_ 0.587491 0.134146 0.321373 -0.08735
C_ C_ 0.615968 0.178651 0.315401 0.18498
C_ C_ 0.620743 0.196669 0.286763 -0.05681
C_ C_ 0.653246 0.238152 0.281072 -0.08735
C_ C_ 0.68608 0.25508 0.303189 -0.08735
C_ C_ 0.681232 0.234073 0.33069 0.1947
C_ C_ 0.782047 0.31317 0.149289 0.68181
C_ C_ 0.724145 0.317656 0.145686 -0.05681
C_ C_ 0.692579 0.306609 0.168917 -0.08735
C_ C_ 0.640258 0.318477 0.168139 -0.05681
C_ C_ 0.618031 0.334329 0.142568 -0.05681
C_ C_ 0.650861 0.34303 0.11826 -0.08735
C_ C_ 0.704071 0.34015 0.120508 -0.08735
C_ C_ 0.608822 0.308866 0.191977 -0.08735
C_ C_ 0.557959 0.307378 0.18778 -0.08735
C_ C_ 0.533052 0.32512 0.162998 -0.05681
C_ C_ 0.564701 0.341285 0.140764 -0.08735
C_ C_ 0.888119 0.217389 0.159754 0.68181
C_ C_ 0.876172 0.412532 0.144537 0.68181
C_ C_ 0.869913 0.468452 0.143724 -0.05681
C_ C_ 0.878854 0.0032000000000000917 0.168443 -0.08735
C_ C_ 0.880364 0.0539458 0.166673 -0.05681
C_ C_ 0.855664 0.0790729 0.143024 -0.05681
C_ C_ 0.832641 0.0503379 0.122946 -0.08735
C_ C_ 0.867127 0.491763 0.116976 -0.08735
C_ C_ 0.90187 0.0835874 0.188697 -0.08735
C_ C_ 0.906893 0.1361 0.186456 -0.08735
C_ C_ 0.888189 0.160749 0.161838 -0.05681
C_ C_ 0.862654 0.130786 0.141112 -0.08735
C_ C_ 0.979686 0.316528 0.156016 0.68181
C_ C_ 0.91196 0.373192 0.225861 0.1947
C_ C_ 0.926462 0.39036 0.252818 -0.08735
C_ C_ 0.905894 0.368307 0.276302 -0.08735
C_ C_ 0.874109 0.32631 0.273832 -0.05681
C_ C_ 0.860154 0.307649 0.245469 0.18498
C_ C_ 0.832077 0.262797 0.243549 -0.08735
C_ C_ 0.825403 0.231549 0.268328 -0.08735
C_ C_ 0.838437 0.24982 0.295105 -0.08735
C_ C_ 0.86191 0.297159 0.299107 0.18498
C_ C_ 0.830149 0.325406 0.345455 0.44287
C_ C_ 0.915983 0.302038 0.340774 0.44287
C_ C_ 0.923135 0.309799 0.370739 -0.05681
C_ C_ 0.969225 0.29649 0.384244 -0.08735
C_ C_ 0.973535 0.30271 0.413844 -0.08735
C_ C_ 0.931606 0.313663 0.431504 -0.05681
C_ C_ 0.884952 0.31647 0.418462 -0.05681
C_ C_ 0.880586 0.319333 0.388711 -0.05681
C_ C_ 0.834055 0.327846 0.375629 -0.05681
C_ C_ 0.789682 0.332946 0.393117 -0.08735
C_ C_ 0.794874 0.330687 0.423916 -0.08735
C_ C_ 0.842896 0.326101 0.436772 -0.05681
C_ C_ 0.848473 0.328012 0.466824 0.44287
C_ C_ 0.934947 0.309112 0.461625 0.44287
C_ C_ 0.910779 0.338916 0.00911436 0.18498
C_ C_ 0.943979 0.379647 0.0159202 -0.08735
C_ C_ 0.94872 0.394429 0.0443565 -0.08735
C_ C_ 0.931609 0.362874 0.0659229 -0.08735
C_ C_ 0.904058 0.319195 0.0602358 0.18498
C_ C_ 0.892561 0.307644 0.0317745 -0.05681
C_ C_ 0.86192 0.26361 0.0270158 -0.08735
C_ C_ 0.841047 0.236274 0.0505098 -0.08735
C_ C_ 0.852547 0.251796 0.0780906 0.1947
N_ N_ 0.644191 0.167773 0.479347 -0.29468
N_ N_ 0.655362 0.210457 0.0874483 -0.17154
N_ N_ 0.612524 0.175898 0.232686 -0.17154
N_ N_ 0.642568 0.202028 0.336373 -0.29468
N_ N_ 0.878424 0.333644 0.221975 -0.29468
N_ N_ 0.871289 0.312799 0.328391 -0.17154
N_ N_ 0.894965 0.316423 0.478831 -0.17154
N_ N_ 0.882073 0.293171 0.0818598 -0.29468
O_ O_ 0.727723 0.184234 0.431974 -0.58347
O_ O_ 0.716818 0.189154 0.386875 -0.58347
O_ O_ 0.645011 0.254494 0.436552 -0.58347
O_ O_ 0.64534 0.262147 0.389876 -0.58347
O_ O_ 0.660863 0.103261 0.424216 -0.58347
O_ O_ 0.640869 0.113422 0.380786 -0.58347
O_ O_ 0.581597 0.171765 0.431785 -0.58347
O_ O_ 0.571078 0.185828 0.385288 -0.58347
O_ O_ 0.570868 0.240031 0.0824508 -0.46727
O_ O_ 0.736402 0.173773 0.0906472 -0.46727
O_ O_ 0.525125 0.188788 0.226408 -0.46727
O_ O_ 0.700077 0.172027 0.240324 -0.46727
O_ O_ 0.801608 0.312472 0.174144 -0.58347
O_ O_ 0.809586 0.30909 0.127614 -0.58347
O_ O_ 0.874507 0.243014 0.180882 -0.58347
O_ O_ 0.897899 0.239679 0.136039 -0.58347
O_ O_ 0.874042 0.391017 0.168406 -0.58347
O_ O_ 0.876303 0.385986 0.122638 -0.58347
O_ O_ 0.949869 0.319789 0.177085 -0.58347
O_ O_ 0.960649 0.316477 0.130441 -0.58347
O_ O_ 0.954595 0.289504 0.324329 -0.46727
O_ O_ 0.785309 0.329664 0.332934 -0.46727
O_ O_ 0.979856 0.299444 0.472855 -0.46727
O_ O_ 0.820016 0.359695 0.480844 -0.46727
Zn Zn 0.621046 0.193054 0.884968 0.90689
Zn Zn 0.630426 0.189648 0.934143 0.90689
Zn Zn 0.874701 0.306958 0.629642 0.90689
Zn Zn 0.861029 0.31158 0.678025 0.90689
H_ H_ 0.799424 0.192772 0.94721 0.11455
H_ H_ 0.864173 0.165581 0.848791 0.11455
H_ H_ 0.770882 0.163518 0.860314 0.11455
H_ H_ 0.888238 0.198868 0.964646 0.11455
H_ H_ 0.980186 0.193049 0.957214 0.11455
H_ H_ 0.952257 0.176054 0.868042 0.11455
H_ H_ 0.625161 0.0180709 0.946502 0.11455
H_ H_ 0.606906 0.445412 0.848994 0.11455
H_ H_ 0.629011 0.0353103 0.854672 0.11455
H_ H_ 0.672774 0.438452 0.961236 0.11455
H_ H_ 0.657127 0.346165 0.958646 0.11455
H_ H_ 0.600118 0.36253 0.873614 0.11455
H_ H_ 0.577127 0.123631 0.970758 0.11455
H_ H_ 0.563757 0.0834933 0.512163 0.11455
H_ H_ 0.602363 0.128939 0.555623 0.11455
H_ H_ 0.692327 0.256808 0.977373 0.11455
H_ H_ 0.742888 0.295209 0.518373 0.11455
H_ H_ 0.700607 0.284638 0.563377 0.11455
H_ H_ 0.520555 0.225593 0.628122 0.11455
H_ H_ 0.510164 0.211546 0.680009 0.11455
H_ H_ 0.767588 0.171761 0.641069 0.11455
H_ H_ 0.754111 0.15021 0.693284 0.11455
H_ H_ 0.56605 0.0867232 0.752935 0.11455
H_ H_ 0.555039 0.0639276 0.803115 0.11455
H_ H_ 0.567828 0.130832 0.8406 0.11455
H_ H_ 0.667448 0.239585 0.759203 0.11455
H_ H_ 0.688057 0.300012 0.800829 0.11455
H_ H_ 0.679483 0.26402 0.850006 0.11455
H_ H_ 0.69263 0.29819 0.690747 0.11455
H_ H_ 0.620495 0.347135 0.59869 0.11455
H_ H_ 0.714741 0.336025 0.603399 0.11455
H_ H_ 0.60365 0.296991 0.712056 0.11455
H_ H_ 0.514305 0.301205 0.702983 0.11455
H_ H_ 0.535896 0.343993 0.615378 0.11455
H_ H_ 0.851879 0.470443 0.688483 0.11455
H_ H_ 0.825185 0.0607827 0.598486 0.11455
H_ H_ 0.876783 0.471135 0.59882 0.11455
H_ H_ 0.888072 0.0588917 0.711904 0.11455
H_ H_ 0.875173 0.151546 0.709173 0.11455
H_ H_ 0.857365 0.14361 0.61833 0.11455
H_ H_ 0.913515 0.393271 0.712108 0.11455
H_ H_ 0.930256 0.419872 0.759922 0.11455
H_ H_ 0.897424 0.379163 0.799921 0.11455
H_ H_ 0.810768 0.246316 0.72224 0.11455
H_ H_ 0.774129 0.203178 0.761543 0.11455
H_ H_ 0.80217 0.221806 0.812247 0.11455
H_ H_ 0.99605685 0.282024 0.866783 0.11455
H_ H_ 0.0132321 0.295023 0.919319 0.11455
H_ H_ 0.75042 0.340654 0.887224 0.11455
H_ H_ 0.758179 0.337276 0.938763 0.11455
H_ H_ 0.956695 0.405874 1.00102 0.11455
H_ H_ 0.975199 0.414026 0.546735 0.11455
H_ H_ 0.93442 0.366875 0.586007 0.11455
H_ H_ 0.857424 0.240017 0.504603 0.11455
H_ H_ 0.816616 0.19416 0.544404 0.11455
H_ H_ 0.824271 0.23069 0.593887 0.11455
C_ C_ 0.725036 0.187366 0.907973 0.68181
C_ C_ 0.779232 0.183629 0.903409 -0.05681
C_ C_ 0.814 0.185632 0.926399 -0.08735
C_ C_ 0.866918 0.179874 0.921718 -0.05681
C_ C_ 0.885061 0.17418 0.893462 -0.05681
C_ C_ 0.850288 0.166212 0.870604 -0.08735
C_ C_ 0.797538 0.174143 0.876198 -0.08735
C_ C_ 0.901585 0.189523 0.944408 -0.08735
C_ C_ 0.952934 0.189703 0.939601 -0.08735
C_ C_ 0.971722 0.179479 0.912468 -0.05681
C_ C_ 0.936596 0.173709 0.889303 -0.08735
C_ C_ 0.6208 0.290608 0.914433 0.68181
C_ C_ 0.626048 0.0935434 0.90437 0.68181
C_ C_ 0.625535 0.0354407 0.901252 -0.05681
C_ C_ 0.652424 0.504955 0.920951 -0.08735
C_ C_ 0.644603 0.453184 0.919108 -0.05681
C_ C_ 0.628408 0.430693 0.892452 -0.05681
C_ C_ 0.618678 0.462333 0.869724 -0.08735
C_ C_ 0.624132 0.515551 0.872516 -0.08735
C_ C_ 0.654538 0.421442 0.942053 -0.08735
C_ C_ 0.648378 0.368993 0.940058 -0.08735
C_ C_ 0.631487 0.346245 0.915368 -0.05681
C_ C_ 0.619379 0.378654 0.891535 -0.08735
C_ C_ 0.525094 0.186188 0.908476 0.68181
C_ C_ 0.600503 0.13805 0.98865 0.1947
C_ C_ 0.596836 0.113388 0.511159 -0.08735
C_ C_ 0.612274 0.140941 0.534738 -0.08735
C_ C_ 0.645745 0.182238 0.530631 -0.05681
C_ C_ 0.659302 0.198306 0.501955 0.18498
C_ C_ 0.685232 0.248055 0.999248 -0.08735
C_ C_ 0.713315 0.266675 0.520334 -0.08735
C_ C_ 0.697296 0.252258 0.548681 -0.08735
C_ C_ 0.661903 0.210855 0.554535 0.18498
C_ C_ 0.690013 0.174017 0.601742 0.44287
C_ C_ 0.60727 0.208361 0.59736 0.44287
C_ C_ 0.598817 0.199802 0.626631 -0.05681
C_ C_ 0.54845 0.203959 0.638797 -0.08735
C_ C_ 0.543057 0.198384 0.668272 -0.08735
C_ C_ 0.585761 0.188097 0.686013 -0.05681
C_ C_ 0.631419 0.173548 0.673105 -0.05681
C_ C_ 0.639097 0.179497 0.64301 -0.05681
C_ C_ 0.686844 0.169218 0.631301 -0.05681
C_ C_ 0.728393 0.162959 0.649665 -0.08735
C_ C_ 0.720995 0.156152 0.679021 -0.08735
C_ C_ 0.673454 0.159517 0.691305 -0.05681
C_ C_ 0.664907 0.158022 0.721976 0.44287
C_ C_ 0.579904 0.183228 0.717086 0.44287
C_ C_ 0.608395 0.156666 0.763863 0.18498
C_ C_ 0.585253 0.108955 0.769978 -0.08735
C_ C_ 0.576487 0.0966265 0.798412 -0.08735
C_ C_ 0.586014 0.133022 0.820248 -0.08735
C_ C_ 0.614317 0.176698 0.815103 0.18498
C_ C_ 0.624025 0.188715 0.78591 -0.05681
C_ C_ 0.655307 0.230664 0.781272 -0.08735
C_ C_ 0.670197 0.262722 0.802724 -0.08735
C_ C_ 0.661791 0.24566 0.83109 0.1947
C_ C_ 0.768205 0.310495 0.652305 0.68181
C_ C_ 0.711411 0.31352 0.647357 -0.05681
C_ C_ 0.676563 0.305848 0.670584 -0.08735
C_ C_ 0.62386 0.310211 0.667116 -0.05681
C_ C_ 0.605922 0.325098 0.640668 -0.05681
C_ C_ 0.637642 0.327243 0.617016 -0.08735
C_ C_ 0.691106 0.326479 0.621292 -0.08735
C_ C_ 0.592241 0.308754 0.690501 -0.08735
C_ C_ 0.539552 0.305522 0.685407 -0.08735
C_ C_ 0.51904 0.324473 0.659697 -0.05681
C_ C_ 0.553129 0.332036 0.636151 -0.08735
C_ C_ 0.866841 0.211994 0.661345 0.68181
C_ C_ 0.859316 0.407959 0.646538 0.68181
C_ C_ 0.857575 0.466109 0.644208 -0.05681
C_ C_ 0.869454 -0.005519000000000052 0.669895 -0.08735
C_ C_ 0.873525 0.0480883 0.667019 -0.05681
C_ C_ 0.857036 0.0718194 0.641707 -0.05681
C_ C_ 0.837976 0.0418428 0.618754 -0.08735
C_ C_ 0.864753 0.489158 0.617924 -0.08735
C_ C_ 0.88051 0.0763655 0.691099 -0.08735
C_ C_ 0.872333 0.129546 0.689965 -0.08735
C_ C_ 0.868651 0.15379 0.662964 -0.05681
C_ C_ 0.859539 0.123247 0.639103 -0.08735
C_ C_ 0.967325 0.320634 0.655177 0.68181
C_ C_ 0.892701 0.374589 0.728272 0.1947
C_ C_ 0.901895 0.390565 0.756218 -0.08735
C_ C_ 0.882996 0.365868 0.779643 -0.08735
C_ C_ 0.860319 0.318277 0.775289 -0.05681
C_ C_ 0.851202 0.301772 0.747107 0.18498
C_ C_ 0.82303 0.256519 0.74338 -0.08735
C_ C_ 0.802757 0.231171 0.766806 -0.08735
C_ C_ 0.816866 0.243166 0.79496 -0.08735
C_ C_ 0.844166 0.288381 0.800023 0.18498
C_ C_ 0.816056 0.315248 0.84813 0.44287
C_ C_ 0.900545 0.288245 0.840605 0.44287
C_ C_ 0.913315 0.299422 0.870219 -0.05681
C_ C_ 0.963248 0.291174 0.882223 -0.08735
C_ C_ 0.974277 0.30208 0.91112 -0.08735
C_ C_ 0.932395 0.313571 0.930169 -0.05681
C_ C_ 0.884951 0.319798 0.919046 -0.05681
C_ C_ 0.875415 0.318661 0.888809 -0.05681
C_ C_ 0.826555 0.324073 0.876981 -0.05681
C_ C_ 0.785901 0.330443 0.896619 -0.08735
C_ C_ 0.792509 0.328186 0.926264 -0.08735
C_ C_ 0.842043 0.326385 0.938104 -0.05681
C_ C_ 0.849818 0.326835 0.968349 0.44287
C_ C_ 0.939444 0.320472 0.960281 0.44287
C_ C_ 0.904669 0.330708 0.50823 0.18498
C_ C_ 0.938812 0.371101 0.51432 -0.08735
C_ C_ 0.945632 0.386703 0.542341 -0.08735
C_ C_ 0.923627 0.358007 0.565157 -0.08735
C_ C_ 0.892871 0.31728 0.559429 0.18498
C_ C_ 0.884132 0.302062 0.530891 -0.05681
C_ C_ 0.858754 0.255715 0.525969 -0.08735
C_ C_ 0.837235 0.229623 0.548643 -0.08735
C_ C_ 0.842741 0.246947 0.576124 0.1947
N_ N_ 0.630851 0.178494 0.983889 -0.29468
N_ N_ 0.651956 0.195098 0.584695 -0.17154
N_ N_ 0.618695 0.167064 0.733808 -0.17154
N_ N_ 0.631079 0.206251 0.83662 -0.29468
N_ N_ 0.870748 0.329167 0.724319 -0.29468
N_ N_ 0.85389 0.300653 0.82944 -0.17154
N_ N_ 0.899119 0.32957 0.978713 -0.17154
N_ N_ 0.872733 0.289246 0.580747 -0.29468
O_ O_ 0.708052 0.193319 0.932226 -0.58347
O_ O_ 0.695809 0.190002 0.885944 -0.58347
O_ O_ 0.624455 0.26445 0.937505 -0.58347
O_ O_ 0.620887 0.26681 0.890248 -0.58347
O_ O_ 0.632577 0.113671 0.928981 -0.58347
O_ O_ 0.619418 0.120127 0.882111 -0.58347
O_ O_ 0.552775 0.189056 0.930428 -0.58347
O_ O_ 0.544789 0.189674 0.883614 -0.58347
O_ O_ 0.570023 0.226889 0.581431 -0.46727
O_ O_ 0.734402 0.169345 0.589635 -0.46727
O_ O_ 0.535682 0.19043 0.728822 -0.46727
O_ O_ 0.702534 0.150109 0.739674 -0.46727
O_ O_ 0.785756 0.309571 0.677601 -0.58347
O_ O_ 0.797196 0.308539 0.62997 -0.58347
O_ O_ 0.866466 0.239698 0.684288 -0.58347
O_ O_ 0.873188 0.231891 0.637153 -0.58347
O_ O_ 0.85431 0.387737 0.671622 -0.58347
O_ O_ 0.873091 0.380503 0.625268 -0.58347
O_ O_ 0.937781 0.32607 0.67598 -0.58347
O_ O_ 0.950404 0.307883 0.631205 -0.58347
O_ O_ 0.934503 0.267346 0.824801 -0.46727
O_ O_ 0.769454 0.319022 0.837854 -0.46727
O_ O_ 0.985115 0.315952 0.970998 -0.46727
O_ O_ 0.810984 0.328352 0.985684 -0.46727
Zn Zn 0.625366 0.684988 0.380413 0.90689
Zn Zn 0.629832 0.679995 0.42907 0.90689
Zn Zn 0.867086 0.813392 0.129484 0.90689
Zn Zn 0.859788 0.816987 0.177981 0.90689
H_ H_ 0.80461 0.688646 0.447083 0.11455
H_ H_ 0.866323 0.656217 0.347626 0.11455
H_ H_ 0.776783 0.668595 0.356234 0.11455
H_ H_ 0.887739 0.711046 0.458859 0.11455
H_ H_ 0.980638 0.694659 0.454312 0.11455
H_ H_ 0.953474 0.660488 0.364274 0.11455
H_ H_ 0.612117 0.516354 0.446398 0.11455
H_ H_ 0.632782 0.941158 0.345123 0.11455
H_ H_ 0.629295 0.52809 0.354736 0.11455
H_ H_ 0.633165 0.925544 0.462815 0.11455
H_ H_ 0.615034 0.835756 0.456627 0.11455
H_ H_ 0.627656 0.853313 0.366357 0.11455
H_ H_ 0.56774 0.622916 0.466326 0.11455
H_ H_ 0.562841 0.573982 0.0100777 0.11455
H_ H_ 0.604855 0.616637 0.0517499 0.11455
H_ H_ 0.69751 0.741972 0.469539 0.11455
H_ H_ 0.699715 0.811017 0.0113461 0.11455
H_ H_ 0.67736 0.78625 0.0615934 0.11455
H_ H_ 0.506374 0.715201 0.12588 0.11455
H_ H_ 0.496534 0.688172 0.175518 0.11455
H_ H_ 0.760031 0.67109 0.134267 0.11455
H_ H_ 0.752554 0.662578 0.183137 0.11455
H_ H_ 0.578593 0.578071 0.248566 0.11455
H_ H_ 0.547075 0.565949 0.299057 0.11455
H_ H_ 0.575979 0.624564 0.337474 0.11455
H_ H_ 0.673042 0.737874 0.253691 0.11455
H_ H_ 0.693233 0.790663 0.294624 0.11455
H_ H_ 0.667633 0.771135 0.343873 0.11455
H_ H_ 0.692105 0.804361 0.19479 0.11455
H_ H_ 0.620195 0.84899 0.099079 0.11455
H_ H_ 0.710773 0.841373 0.105378 0.11455
H_ H_ 0.604331 0.792471 0.21289 0.11455
H_ H_ 0.50868 0.79699 0.205827 0.11455
H_ H_ 0.538275 0.835493 0.119268 0.11455
H_ H_ 0.899012 0.98357 0.185683 0.11455
H_ H_ 0.873693 0.560533 0.0935932 0.11455
H_ H_ 0.813555 0.976503 0.107862 0.11455
H_ H_ 0.876362 0.565402 0.211708 0.11455
H_ H_ 0.862722 0.657467 0.206141 0.11455
H_ H_ 0.872187 0.646727 0.116937 0.11455
H_ H_ 0.919316 0.890691 0.216295 0.11455
H_ H_ 0.935352 0.912144 0.266315 0.11455
H_ H_ 0.89934 0.861923 0.305517 0.11455
H_ H_ 0.802477 0.751449 0.221426 0.11455
H_ H_ 0.757412 0.710522 0.258877 0.11455
H_ H_ 0.788473 0.716065 0.308276 0.11455
H_ H_ 0.981686 0.769673 0.372259 0.11455
H_ H_ -0.00897598 0.789386 0.423508 0.11455
H_ H_ 0.732151 0.836229 0.384992 0.11455
H_ H_ 0.753247 0.865798 0.434712 0.11455
H_ H_ 0.93761 0.903223 0.498719 0.11455
H_ H_ 0.949022 0.938483 0.0496068 0.11455
H_ H_ 0.923991 0.878078 0.0868097 0.11455
H_ H_ 0.833834 0.76099 0.00180685 0.11455
H_ H_ 0.811406 0.704731 0.0421157 0.11455
H_ H_ 0.820052 0.734066 0.0916377 0.11455
C_ C_ 0.724077 0.681073 0.405851 0.68181
C_ C_ 0.780394 0.673763 0.40221 -0.05681
C_ C_ 0.815866 0.680872 0.424586 -0.08735
C_ C_ 0.86907 0.67962 0.418846 -0.05681
C_ C_ 0.885958 0.666433 0.39129 -0.05681
C_ C_ 0.85022 0.658116 0.369068 -0.08735
C_ C_ 0.798535 0.667811 0.37433 -0.08735
C_ C_ 0.903066 0.691768 0.440552 -0.08735
C_ C_ 0.954935 0.686 0.435987 -0.08735
C_ C_ 0.973899 0.67114 0.408833 -0.05681
C_ C_ 0.938626 0.664002 0.386434 -0.08735
C_ C_ 0.621241 0.782791 0.407884 0.68181
C_ C_ 0.631527 0.585999 0.402407 0.68181
C_ C_ 0.627552 0.530056 0.400393 -0.05681
C_ C_ 0.641121 0.996687 0.420893 -0.08735
C_ C_ 0.636029 0.94484 0.416795 -0.05681
C_ C_ 0.631883 0.923741 0.389098 -0.05681
C_ C_ 0.631154 0.956293 0.366703 -0.08735
C_ C_ 0.639349 1.0091487 0.369247 -0.08735
C_ C_ 0.629405 0.913195 0.441095 -0.08735
C_ C_ 0.61945 0.860561 0.437811 -0.08735
C_ C_ 0.622662 0.83918 0.410455 -0.05681
C_ C_ 0.627909 0.870829 0.386057 -0.08735
C_ C_ 0.527055 0.678232 0.404329 0.68181
C_ C_ 0.588917 0.639286 0.482435 0.1947
C_ C_ 0.589388 0.606001 0.00686536 -0.08735
C_ C_ 0.613002 0.632144 0.0309429 -0.08735
C_ C_ 0.6337 0.681238 0.0261774 -0.05681
C_ C_ 0.647096 0.69538 0.997595 0.18498
C_ C_ 0.684316 0.738166 0.492004 -0.08735
C_ C_ 0.686075 0.772909 0.0167367 -0.08735
C_ C_ 0.670744 0.760209 0.0436735 -0.08735
C_ C_ 0.645911 0.713983 0.049314 0.18498
C_ C_ 0.68043 0.689504 0.0952197 0.44287
C_ C_ 0.594009 0.707151 0.0921878 0.44287
C_ C_ 0.586555 0.694013 0.121951 -0.05681
C_ C_ 0.540094 0.698753 0.136513 -0.08735
C_ C_ 0.534869 0.684684 0.165869 -0.08735
C_ C_ 0.58006 0.67887 0.182521 -0.05681
C_ C_ 0.627702 0.680725 0.169829 -0.05681
C_ C_ 0.631654 0.686502 0.139107 -0.05681
C_ C_ 0.67828 0.683486 0.124492 -0.05681
C_ C_ 0.721199 0.669128 0.142008 -0.08735
C_ C_ 0.717528 0.664962 0.17188 -0.08735
C_ C_ 0.671337 0.666047 0.185804 -0.05681
C_ C_ 0.666639 0.658066 0.214837 0.44287
C_ C_ 0.577156 0.669269 0.21213 0.44287
C_ C_ 0.615018 0.652352 0.258239 0.18498
C_ C_ 0.588678 0.606726 0.265095 -0.08735
C_ C_ 0.572207 0.598045 0.294016 -0.08735
C_ C_ 0.587564 0.6329 0.315885 -0.08735
C_ C_ 0.618978 0.672586 0.309172 0.18498
C_ C_ 0.628195 0.686363 0.280566 -0.05681
C_ C_ 0.654198 0.730697 0.27464 -0.08735
C_ C_ 0.672059 0.75883 0.298255 -0.08735
C_ C_ 0.657318 0.748161 0.326163 0.1947
C_ C_ 0.764486 0.814073 0.153243 0.68181
C_ C_ 0.710179 0.825944 0.150901 -0.05681
C_ C_ 0.67604 0.812916 0.173281 -0.08735
C_ C_ 0.62237 0.81883 0.170607 -0.05681
C_ C_ 0.602245 0.831268 0.144273 -0.05681
C_ C_ 0.635824 0.836959 0.12065 -0.08735
C_ C_ 0.688577 0.836079 0.12349 -0.08735
C_ C_ 0.588233 0.806171 0.193674 -0.08735
C_ C_ 0.535052 0.804817 0.188744 -0.08735
C_ C_ 0.515381 0.820974 0.162455 -0.05681
C_ C_ 0.55053 0.835669 0.14047 -0.08735
C_ C_ 0.872495 0.715276 0.158205 0.68181
C_ C_ 0.854249 0.917179 0.150592 0.68181
C_ C_ 0.849383 0.973523 0.14899 -0.05681
C_ C_ 0.88146 0.49687 0.167656 -0.08735
C_ C_ 0.882686 0.551081 0.16576 -0.05681
C_ C_ 0.877371 0.574601 0.138887 -0.05681
C_ C_ 0.871098 0.544953 0.114635 -0.08735
C_ C_ 0.827837 0.998316 0.126206 -0.08735
C_ C_ 0.874229 0.581114 0.190716 -0.08735
C_ C_ 0.868503 0.634102 0.187444 -0.08735
C_ C_ 0.868452 0.657337 0.161091 -0.05681
C_ C_ 0.874936 0.627801 0.136957 -0.08735
C_ C_ 0.960363 0.821613 0.159179 0.68181
C_ C_ 0.900637 0.86859 0.233032 0.1947
C_ C_ 0.912131 0.87865 0.261229 -0.08735
C_ C_ 0.890869 0.851201 0.284003 -0.08735
C_ C_ 0.858702 0.809863 0.277677 -0.05681
C_ C_ 0.849653 0.7967 0.248494 0.18498
C_ C_ 0.8132 0.757568 0.242623 -0.08735
C_ C_ 0.790279 0.732578 0.2645 -0.08735
C_ C_ 0.803972 0.741491 0.292178 -0.08735
C_ C_ 0.835119 0.781367 0.300278 0.18498
C_ C_ 0.806515 0.805917 0.34741 0.44287
C_ C_ 0.893819 0.786827 0.341285 0.44287
C_ C_ 0.902209 0.796286 0.370219 -0.05681
C_ C_ 0.95047 0.787596 0.383869 -0.08735
C_ C_ 0.956499 0.800341 0.413032 -0.08735
C_ C_ 0.916715 0.816893 0.430367 -0.05681
C_ C_ 0.869601 0.820531 0.418512 -0.05681
C_ C_ 0.861599 0.813566 0.387691 -0.05681
C_ C_ 0.812602 0.81835 0.376475 -0.05681
C_ C_ 0.770288 0.82812 0.395073 -0.08735
C_ C_ 0.782519 0.842219 0.423965 -0.08735
C_ C_ 0.829807 0.83416 0.436498 -0.05681
C_ C_ 0.83638 0.841801 0.466573 0.44287
C_ C_ 0.923011 0.827513 0.459591 0.44287
C_ C_ 0.880626 0.853036 0.00770505 0.18498
C_ C_ 0.904639 0.899616 0.0156096 -0.08735
C_ C_ 0.924543 0.905859 0.0435071 -0.08735
C_ C_ 0.913798 0.870986 0.0652011 -0.08735
C_ C_ 0.881836 0.830496 0.0592593 0.18498
C_ C_ 0.867491 0.818628 0.0300083 -0.05681
C_ C_ 0.841754 0.773185 0.0235541 -0.08735
C_ C_ 0.826317 0.741297 0.0465219 -0.08735
C_ C_ 0.837377 0.756616 0.0745483 0.1947
N_ N_ 0.622126 0.676894 0.476429 -0.29468
N_ N_ 0.638153 0.699097 0.0788131 -0.17154
N_ N_ 0.619926 0.663535 0.228037 -0.17154
N_ N_ 0.632847 0.70383 0.331764 -0.29468
N_ N_ 0.868141 0.827799 0.227092 -0.29468
N_ N_ 0.845169 0.792147 0.330198 -0.17154
N_ N_ 0.882069 0.83141 0.478078 -0.17154
N_ N_ 0.864532 0.799197 0.0800067 -0.29468
O_ O_ 0.704335 0.669223 0.430163 -0.58347
O_ O_ 0.698375 0.696382 0.385132 -0.58347
O_ O_ 0.633093 0.755306 0.429102 -0.58347
O_ O_ 0.614401 0.762437 0.383364 -0.58347
O_ O_ 0.62361 0.606105 0.426375 -0.58347
O_ O_ 0.637571 0.612551 0.379735 -0.58347
O_ O_ 0.555335 0.684319 0.425944 -0.58347
O_ O_ 0.545569 0.671746 0.379804 -0.58347
O_ O_ 0.552376 0.717194 0.0770337 -0.46727
O_ O_ 0.724081 0.679837 0.0820356 -0.46727
O_ O_ 0.532957 0.666099 0.22472 -0.46727
O_ O_ 0.707192 0.644026 0.231183 -0.46727
O_ O_ 0.786408 0.825023 0.17741 -0.58347
O_ O_ 0.791902 0.80849 0.131166 -0.58347
O_ O_ 0.858181 0.742318 0.178871 -0.58347
O_ O_ 0.877047 0.736178 0.134449 -0.58347
O_ O_ 0.861385 0.896057 0.174303 -0.58347
O_ O_ 0.859596 0.89035 0.127674 -0.58347
O_ O_ 0.934227 0.814088 0.181805 -0.58347
O_ O_ 0.941909 0.825206 0.133757 -0.58347
O_ O_ 0.93001 0.768967 0.324959 -0.46727
O_ O_ 0.760277 0.805862 0.337221 -0.46727
O_ O_ 0.969813 0.822621 0.470435 -0.46727
O_ O_ 0.798042 0.857661 0.48292 -0.46727
Zn Zn 0.619917 0.697606 0.880841 0.90689
Zn Zn 0.631843 0.687706 0.928625 0.90689
Zn Zn 0.865054 0.806339 0.631353 0.90689
Zn Zn 0.858287 0.815044 0.679708 0.90689
H_ H_ 0.794092 0.689863 0.94395 0.11455
H_ H_ 0.872036 0.682586 0.847152 0.11455
H_ H_ 0.780895 0.686446 0.85242 0.11455
H_ H_ 0.878712 0.69558 0.965263 0.11455
H_ H_ 0.973692 0.688246 0.959769 0.11455
H_ H_ 0.953806 0.682485 0.867445 0.11455
H_ H_ 0.667343 0.522001 0.94023 0.11455
H_ H_ 0.60729 0.945026 0.849788 0.11455
H_ H_ 0.625346 0.538327 0.853027 0.11455
H_ H_ 0.618467 0.93405 0.968536 0.11455
H_ H_ 0.608844 0.841825 0.962536 0.11455
H_ H_ 0.613036 0.860535 0.871213 0.11455
H_ H_ 0.575512 0.608652 0.960989 0.11455
H_ H_ 0.553947 0.591628 0.515103 0.11455
H_ H_ 0.612496 0.621783 0.551979 0.11455
H_ H_ 0.679652 0.755491 0.971891 0.11455
H_ H_ 0.739716 0.789759 0.507463 0.11455
H_ H_ 0.721161 0.765594 0.559549 0.11455
H_ H_ 0.51477 0.714198 0.618789 0.11455
H_ H_ 0.500525 0.696334 0.670997 0.11455
H_ H_ 0.758087 0.654992 0.63645 0.11455
H_ H_ 0.748395 0.645105 0.689033 0.11455
H_ H_ 0.592648 0.5825 0.748325 0.11455
H_ H_ 0.577405 0.554969 0.800158 0.11455
H_ H_ 0.575408 0.615401 0.836378 0.11455
H_ H_ 0.652369 0.749598 0.755103 0.11455
H_ H_ 0.674626 0.808541 0.795681 0.11455
H_ H_ 0.652111 0.787842 0.84371 0.11455
H_ H_ 0.690116 0.796728 0.693398 0.11455
H_ H_ 0.613478 0.82478 0.596652 0.11455
H_ H_ 0.708233 0.818892 0.60294 0.11455
H_ H_ 0.60661 0.808476 0.714773 0.11455
H_ H_ 0.510123 0.808053 0.707755 0.11455
H_ H_ 0.531834 0.830246 0.616686 0.11455
H_ H_ 0.880787 0.976363 0.69092 0.11455
H_ H_ 0.884634 0.558681 0.596286 0.11455
H_ H_ 0.813265 0.965293 0.607064 0.11455
H_ H_ 0.861958 0.563508 0.713989 0.11455
H_ H_ 0.856118 0.649477 0.711112 0.11455
H_ H_ 0.870238 0.641632 0.617073 0.11455
H_ H_ 0.916592 0.881232 0.714246 0.11455
H_ H_ 0.92682 0.915862 0.762788 0.11455
H_ H_ 0.888371 0.877543 0.804321 0.11455
H_ H_ 0.791962 0.761207 0.721873 0.11455
H_ H_ 0.755303 0.708291 0.76363 0.11455
H_ H_ 0.758653 0.74658 0.813687 0.11455
H_ H_ 0.969949 0.799205 0.869692 0.11455
H_ H_ 0.982326 0.79626 0.91937 0.11455
H_ H_ 0.723142 0.842497 0.888661 0.11455
H_ H_ 0.737876 0.849219 0.937642 0.11455
H_ H_ 0.909047 0.929398 0.998806 0.11455
H_ H_ 0.963706 0.925984 0.547381 0.11455
H_ H_ 0.919259 0.884186 0.585035 0.11455
H_ H_ 0.836249 0.754822 0.504127 0.11455
H_ H_ 0.801538 0.704282 0.5447 0.11455
H_ H_ 0.818288 0.734356 0.595399 0.11455
C_ C_ 0.725579 0.702038 0.901769 0.68181
C_ C_ 0.781408 0.69903 0.899826 -0.05681
C_ C_ 0.812786 0.696912 0.923876 -0.08735
C_ C_ 0.865792 0.695795 0.920063 -0.05681
C_ C_ 0.887719 0.6897 0.891591 -0.05681
C_ C_ 0.855463 0.688623 0.868399 -0.08735
C_ C_ 0.803557 0.693219 0.871267 -0.08735
C_ C_ 0.896817 0.691056 0.94314 -0.08735
C_ C_ 0.950181 0.68976 0.940379 -0.08735
C_ C_ 0.972698 0.683678 0.912211 -0.05681
C_ C_ 0.939308 0.686734 0.888476 -0.08735
C_ C_ 0.614282 0.787384 0.912496 0.68181
C_ C_ 0.640975 0.595298 0.899617 0.68181
C_ C_ 0.637414 0.537951 0.898607 -0.05681
C_ C_ 0.625585 0.00355364 0.925749 -0.08735
C_ C_ 0.619708 0.95184 0.92335 -0.05681
C_ C_ 0.617949 0.93012 0.894215 -0.05681
C_ C_ 0.619836 0.960771 0.870769 -0.08735
C_ C_ 0.621783 0.0124238 0.874502 -0.08735
C_ C_ 0.61219 0.919842 0.947325 -0.08735
C_ C_ 0.613741 0.867148 0.94378 -0.08735
C_ C_ 0.613831 0.844016 0.915661 -0.05681
C_ C_ 0.617231 0.875958 0.891344 -0.08735
C_ C_ 0.526969 0.681924 0.907028 0.68181
C_ C_ 0.595811 0.626129 0.979034 0.1947
C_ C_ 0.583443 0.62109 0.510456 -0.08735
C_ C_ 0.61402 0.641496 0.532321 -0.08735
C_ C_ 0.643668 0.683649 0.527609 -0.05681
C_ C_ 0.650706 0.700591 0.498629 0.18498
C_ C_ 0.673688 0.74164 0.993618 -0.08735
C_ C_ 0.71073 0.762167 0.513623 -0.08735
C_ C_ 0.698019 0.750002 0.5424 -0.08735
C_ C_ 0.664421 0.710687 0.550536 0.18498
C_ C_ 0.69095 0.682177 0.597895 0.44287
C_ C_ 0.605079 0.706019 0.590421 0.44287
C_ C_ 0.593847 0.697649 0.620824 -0.05681
C_ C_ 0.544872 0.700305 0.632093 -0.08735
C_ C_ 0.538295 0.694512 0.662374 -0.08735
C_ C_ 0.578278 0.686292 0.681306 -0.05681
C_ C_ 0.626708 0.678987 0.669177 -0.05681
C_ C_ 0.635216 0.684784 0.639642 -0.05681
C_ C_ 0.684018 0.679087 0.628389 -0.05681
C_ C_ 0.723616 0.663928 0.645551 -0.08735
C_ C_ 0.716289 0.656954 0.674963 -0.08735
C_ C_ 0.667576 0.66708 0.686893 -0.05681
C_ C_ 0.660265 0.665587 0.716835 0.44287
C_ C_ 0.572066 0.681393 0.711055 0.44287
C_ C_ 0.606442 0.659319 0.758768 0.18498
C_ C_ 0.594645 0.608976 0.766246 -0.08735
C_ C_ 0.585522 0.593645 0.794768 -0.08735
C_ C_ 0.590588 0.628466 0.816426 -0.08735
C_ C_ 0.608046 0.679173 0.810684 0.18498
C_ C_ 0.618878 0.693838 0.782024 -0.05681
C_ C_ 0.641255 0.740844 0.777014 -0.08735
C_ C_ 0.651359 0.775336 0.79892 -0.08735
C_ C_ 0.636935 0.761282 0.82691 0.1947
C_ C_ 0.762423 0.806633 0.652752 0.68181
C_ C_ 0.705127 0.808346 0.648438 -0.05681
C_ C_ 0.672978 0.805955 0.672016 -0.08735
C_ C_ 0.618779 0.808457 0.668775 -0.05681
C_ C_ 0.600049 0.820697 0.641198 -0.05681
C_ C_ 0.630465 0.819581 0.617528 -0.08735
C_ C_ 0.683411 0.810163 0.620686 -0.08735
C_ C_ 0.588307 0.808563 0.693256 -0.08735
C_ C_ 0.534568 0.812886 0.690372 -0.08735
C_ C_ 0.513095 0.821148 0.663047 -0.05681
C_ C_ 0.546723 0.824725 0.638382 -0.08735
C_ C_ 0.866097 0.710802 0.661662 0.68181
C_ C_ 0.854754 0.908489 0.649107 0.68181
C_ C_ 0.851413 0.965038 0.647355 -0.05681
C_ C_ 0.853452 0.49418 0.669776 -0.08735
C_ C_ 0.862595 0.54745 0.668365 -0.05681
C_ C_ 0.865019 0.571442 0.640449 -0.05681
C_ C_ 0.872507 0.540524 0.616528 -0.08735
C_ C_ 0.831707 0.988872 0.622368 -0.08735
C_ C_ 0.865777 0.577647 0.692618 -0.08735
C_ C_ 0.863873 0.63021 0.690694 -0.08735
C_ C_ 0.865426 0.65483 0.662319 -0.05681
C_ C_ 0.866095 0.6256 0.638053 -0.08735
C_ C_ 0.959917 0.810461 0.656543 0.68181
C_ C_ 0.895406 0.86612 0.732349 0.1947
C_ C_ 0.903226 0.883023 0.759333 -0.08735
C_ C_ 0.876009 0.864712 0.78265 -0.08735
C_ C_ 0.842826 0.822569 0.778826 -0.05681
C_ C_ 0.835437 0.805696 0.749589 0.18498
C_ C_ 0.800471 0.768793 0.744396 -0.08735
C_ C_ 0.777706 0.743183 0.768248 -0.08735
C_ C_ 0.78449 0.757817 0.796093 -0.08735
C_ C_ 0.823463 0.793738 0.801928 0.18498
C_ C_ 0.794223 0.826868 0.84655 0.44287
C_ C_ 0.877543 0.798794 0.842143 0.44287
C_ C_ 0.890916 0.812911 0.870115 -0.05681
C_ C_ 0.940152 0.812233 0.882007 -0.08735
C_ C_ 0.948304 0.812839 0.911179 -0.08735
C_ C_ 0.905369 0.822576 0.929029 -0.05681
C_ C_ 0.857637 0.83462 0.91765 -0.05681
C_ C_ 0.850591 0.828013 0.88824 -0.05681
C_ C_ 0.801104 0.83129 0.876691 -0.05681
C_ C_ 0.759985 0.835991 0.894502 -0.08735
C_ C_ 0.768937 0.844449 0.924025 -0.08735
C_ C_ 0.81737 0.844432 0.935178 -0.05681
C_ C_ 0.8247 0.846429 0.96606 0.44287
C_ C_ 0.912982 0.829891 0.959637 0.44287
C_ C_ 0.893143 0.839676 0.508316 0.18498
C_ C_ 0.924516 0.882203 0.515826 -0.08735
C_ C_ 0.937803 0.893055 0.543163 -0.08735
C_ C_ 0.914751 0.866588 0.565301 -0.08735
C_ C_ 0.885877 0.821881 0.559725 0.18498
C_ C_ 0.871102 0.811278 0.530833 -0.05681
C_ C_ 0.843555 0.766224 0.525915 -0.08735
C_ C_ 0.823149 0.738942 0.548617 -0.08735
C_ C_ 0.833535 0.754448 0.577298 0.1947
N_ N_ 0.625158 0.670062 0.975297 -0.29468
N_ N_ 0.653251 0.698655 0.580131 -0.17154
N_ N_ 0.61319 0.673334 0.728894 -0.17154
N_ N_ 0.620492 0.712433 0.832823 -0.29468
N_ N_ 0.861971 0.828418 0.727254 -0.29468
N_ N_ 0.832143 0.808359 0.830467 -0.17154
N_ N_ 0.872721 0.841242 0.97769 -0.17154
N_ N_ 0.863739 0.796153 0.582381 -0.29468
O_ O_ 0.707377 0.699775 0.927211 -0.58347
O_ O_ 0.697464 0.705608 0.879632 -0.58347
O_ O_ 0.618675 0.759576 0.934897 -0.58347
O_ O_ 0.611922 0.769019 0.887409 -0.58347
O_ O_ 0.644932 0.616979 0.923618 -0.58347
O_ O_ 0.626139 0.621656 0.878203 -0.58347
O_ O_ 0.556734 0.673822 0.927453 -0.58347
O_ O_ 0.543821 0.685964 0.882378 -0.58347
O_ O_ 0.567935 0.720247 0.57297 -0.46727
O_ O_ 0.732375 0.663555 0.586956 -0.46727
O_ O_ 0.525285 0.673485 0.722149 -0.46727
O_ O_ 0.700493 0.660852 0.734273 -0.46727
O_ O_ 0.78179 0.81777 0.676738 -0.58347
O_ O_ 0.79006 0.797843 0.630657 -0.58347
O_ O_ 0.854285 0.736685 0.68397 -0.58347
O_ O_ 0.874087 0.732208 0.63764 -0.58347
O_ O_ 0.861821 0.887542 0.673601 -0.58347
O_ O_ 0.851989 0.882084 0.627121 -0.58347
O_ O_ 0.931349 0.804326 0.676697 -0.58347
O_ O_ 0.941465 0.82102 0.633015 -0.58347
O_ O_ 0.912144 0.776375 0.82629 -0.46727
O_ O_ 0.750871 0.837177 0.833986 -0.46727
O_ O_ 0.957272 0.819784 0.970446 -0.46727
O_ O_ 0.784995 0.851819 0.982586 -0.46727
