_cell_length_a 26.376
_cell_length_b 26.400000238300095
_cell_length_c 46.67800035477134
_cell_angle_alpha 90.00700052986613
_cell_angle_beta 89.99899961309502
_cell_angle_gamma 90.45000003183146
_symmetry_space_group_name_H-M         'P 1'
_symmetry_Int_Tables_number            1
loop_
_symmetry_equiv_pos_as_xyz
   'x, y, z'
                         
loop_
_atom_site_label
_atom_site_type_symbol
_atom_site_fract_x 
_atom_site_fract_y
_atom_site_fract_z
_atom_site_charge
Zn Zn 0.122003 0.187324 0.382783 0.90689
Zn Zn 0.133968 0.181145 0.429999 0.90689
Zn Zn 0.369364 0.32147 0.129646 0.90689
Zn Zn 0.358513 0.324912 0.17711 0.90689
H_ H_ 0.302869 0.199783 0.442057 0.11455
H_ H_ 0.367964 0.169187 0.344351 0.11455
H_ H_ 0.271669 0.168233 0.353747 0.11455
H_ H_ 0.389439 0.199104 0.461772 0.11455
H_ H_ 0.483125 0.203107 0.450279 0.11455
H_ H_ 0.454211 0.184224 0.361044 0.11455
H_ H_ 0.161027 0.0184356 0.440048 0.11455
H_ H_ 0.101833 0.435069 0.349633 0.11455
H_ H_ 0.121522 0.0280252 0.35374 0.11455
H_ H_ 0.149544 0.435205 0.465218 0.11455
H_ H_ 0.148533 0.343537 0.461176 0.11455
H_ H_ 0.0992769 0.352731 0.371398 0.11455
H_ H_ 0.0741735 0.105778 0.468448 0.11455
H_ H_ 0.0519127 0.0826493 0.0137203 0.11455
H_ H_ 0.0901669 0.126591 0.0534006 0.11455
H_ H_ 0.200241 0.236321 0.473568 0.11455
H_ H_ 0.229353 0.287857 0.0118441 0.11455
H_ H_ 0.2088 0.271456 0.0594609 0.11455
H_ H_ 0.0129059 0.218271 0.122887 0.11455
H_ H_ 0.0011900000000000244 0.202801 0.173298 0.11455
H_ H_ 0.260401 0.156364 0.139167 0.11455
H_ H_ 0.247298 0.148534 0.18974 0.11455
H_ H_ 0.0586227 0.0957788 0.249338 0.11455
H_ H_ 0.0164777 0.0870489 0.294078 0.11455
H_ H_ 0.0591458 0.125311 0.335409 0.11455
H_ H_ 0.156591 0.249543 0.257446 0.11455
H_ H_ 0.181876 0.299193 0.297794 0.11455
H_ H_ 0.169646 0.264805 0.347139 0.11455
H_ H_ 0.193434 0.305507 0.19405 0.11455
H_ H_ 0.123015 0.339443 0.097327 0.11455
H_ H_ 0.213258 0.335652 0.104058 0.11455
H_ H_ 0.103688 0.31485 0.214853 0.11455
H_ H_ 0.011305 0.317464 0.208634 0.11455
H_ H_ 0.0364836 0.355447 0.119303 0.11455
H_ H_ 0.35141 0.485431 0.187293 0.11455
H_ H_ 0.388125 0.0734487 0.0974143 0.11455
H_ H_ 0.373313 0.483267 0.0965911 0.11455
H_ H_ 0.3731 0.0750299 0.214841 0.11455
H_ H_ 0.364719 0.16276 0.213092 0.11455
H_ H_ 0.375601 0.156911 0.118868 0.11455
H_ H_ 0.424058 0.384783 0.213298 0.11455
H_ H_ 0.430621 0.429316 0.260608 0.11455
H_ H_ 0.379455 0.393684 0.300104 0.11455
H_ H_ 0.307168 0.256943 0.221769 0.11455
H_ H_ 0.279485 0.204518 0.262034 0.11455
H_ H_ 0.297266 0.225914 0.311186 0.11455
H_ H_ 0.486775 0.305138 0.365724 0.11455
H_ H_ 0.503984 0.318802 0.417355 0.11455
H_ H_ 0.233355 0.317772 0.389664 0.11455
H_ H_ 0.247736 0.326417 0.440944 0.11455
H_ H_ 0.454548 0.399722 0.500108 0.11455
H_ H_ 0.471561 0.41991 0.0443739 0.11455
H_ H_ 0.430962 0.37919 0.0852739 0.11455
H_ H_ 0.3662 0.232109 0.0112494 0.11455
H_ H_ 0.322966 0.192448 0.0494285 0.11455
H_ H_ 0.317072 0.23556 0.0968489 0.11455
C_ C_ 0.227548 0.192133 0.403452 0.68181
C_ C_ 0.282283 0.192495 0.397732 -0.05681
C_ C_ 0.316922 0.193276 0.420774 -0.08735
C_ C_ 0.369196 0.188232 0.416408 -0.05681
C_ C_ 0.387878 0.185774 0.388282 -0.05681
C_ C_ 0.353153 0.178417 0.365581 -0.08735
C_ C_ 0.300479 0.17715 0.371039 -0.08735
C_ C_ 0.404649 0.196251 0.438976 -0.08735
C_ C_ 0.456226 0.193036 0.434393 -0.08735
C_ C_ 0.4757 0.185324 0.406603 -0.05681
C_ C_ 0.441536 0.18575 0.382608 -0.08735
C_ C_ 0.125954 0.2825 0.413827 0.68181
C_ C_ 0.130478 0.0864138 0.399863 0.68181
C_ C_ 0.129616 0.0286873 0.39816 -0.05681
C_ C_ 0.14559 0.497941 0.419179 -0.08735
C_ C_ 0.133703 0.446061 0.419458 -0.05681
C_ C_ 0.120785 0.421856 0.392992 -0.05681
C_ C_ 0.11061 0.453268 0.369687 -0.08735
C_ C_ 0.114205 0.504588 0.371406 -0.08735
C_ C_ 0.141966 0.416872 0.444394 -0.08735
C_ C_ 0.138334 0.36442 0.442556 -0.08735
C_ C_ 0.126372 0.33877 0.415271 -0.05681
C_ C_ 0.115646 0.368691 0.390849 -0.08735
C_ C_ 0.0281213 0.176878 0.40915 0.68181
C_ C_ 0.0945738 0.125783 0.485179 0.1947
C_ C_ 0.0765533 0.116125 0.0088659 -0.08735
C_ C_ 0.0969198 0.139527 0.0327385 -0.08735
C_ C_ 0.133959 0.179542 0.0281481 -0.05681
C_ C_ 0.149316 0.190178 0.999728 0.18498
C_ C_ 0.191884 0.22226 0.49482 -0.08735
C_ C_ 0.200558 0.26055 0.0150027 -0.08735
C_ C_ 0.188562 0.250217 0.0432627 -0.08735
C_ C_ 0.158354 0.208395 0.0513528 0.18498
C_ C_ 0.189765 0.184691 0.0991416 0.44287
C_ C_ 0.103026 0.204014 0.0930216 0.44287
C_ C_ 0.0943209 0.203227 0.123226 -0.05681
C_ C_ 0.0469796 0.209808 0.135693 -0.08735
C_ C_ 0.0388807 0.200873 0.16427 -0.08735
C_ C_ 0.0801513 0.201748 0.182969 -0.05681
C_ C_ 0.130189 0.195164 0.172063 -0.05681
C_ C_ 0.135251 0.192537 0.141316 -0.05681
C_ C_ 0.183698 0.18217 0.129513 -0.05681
C_ C_ 0.222513 0.16495 0.148301 -0.08735
C_ C_ 0.215148 0.163389 0.17785 -0.08735
C_ C_ 0.169116 0.178281 0.190339 -0.05681
C_ C_ 0.158382 0.167222 0.219198 0.44287
C_ C_ 0.0729186 0.192744 0.211812 0.44287
C_ C_ 0.0994427 0.162953 0.25886 0.18498
C_ C_ 0.0638041 0.124263 0.264936 -0.08735
C_ C_ 0.0501726 0.113027 0.292258 -0.08735
C_ C_ 0.0742145 0.134753 0.315675 -0.08735
C_ C_ 0.106762 0.177181 0.311188 0.18498
C_ C_ 0.11908 0.192793 0.282373 -0.05681
C_ C_ 0.152039 0.232102 0.278736 -0.08735
C_ C_ 0.165165 0.262318 0.301503 -0.08735
C_ C_ 0.153088 0.247252 0.329247 0.1947
C_ C_ 0.264261 0.321547 0.152792 0.68181
C_ C_ 0.207185 0.324033 0.149563 -0.05681
C_ C_ 0.174779 0.313882 0.173353 -0.08735
C_ C_ 0.122782 0.326359 0.170475 -0.05681
C_ C_ 0.103075 0.336364 0.143267 -0.05681
C_ C_ 0.137077 0.337691 0.119513 -0.08735
C_ C_ 0.189034 0.334367 0.123606 -0.08735
C_ C_ 0.0884532 0.321674 0.193806 -0.08735
C_ C_ 0.0374463 0.328873 0.191516 -0.08735
C_ C_ 0.0158755 0.338126 0.163678 -0.05681
C_ C_ 0.0485231 0.340301 0.140007 -0.08735
C_ C_ 0.365058 0.226163 0.163179 0.68181
C_ C_ 0.359486 0.422645 0.14185 0.68181
C_ C_ 0.363998 0.478688 0.141762 -0.05681
C_ C_ 0.36351 0.00978057 0.170407 -0.08735
C_ C_ 0.368805 0.0621028 0.16843 -0.05681
C_ C_ 0.374615 0.086473 0.141714 -0.05681
C_ C_ 0.383557 0.0553123 0.117611 -0.08735
C_ C_ 0.367526 0.504642 0.115804 -0.08735
C_ C_ 0.372381 0.0915995 0.192907 -0.08735
C_ C_ 0.370107 0.144885 0.19178 -0.08735
C_ C_ 0.369664 0.169815 0.165165 -0.05681
C_ C_ 0.371628 0.140243 0.139884 -0.08735
C_ C_ 0.463047 0.317724 0.152468 0.68181
C_ C_ 0.397457 0.376204 0.228926 0.1947
C_ C_ 0.403057 0.397506 0.255689 -0.08735
C_ C_ 0.378548 0.375078 0.279681 -0.08735
C_ C_ 0.351355 0.329674 0.276671 -0.05681
C_ C_ 0.342027 0.313834 0.247882 0.18498
C_ C_ 0.31503 0.270331 0.244146 -0.08735
C_ C_ 0.302649 0.237921 0.266257 -0.08735
C_ C_ 0.30647 0.252985 0.293984 -0.08735
C_ C_ 0.333891 0.300397 0.300217 0.18498
C_ C_ 0.305373 0.319634 0.347478 0.44287
C_ C_ 0.392234 0.309073 0.339654 0.44287
C_ C_ 0.404054 0.317118 0.369803 -0.05681
C_ C_ 0.454335 0.311403 0.380376 -0.08735
C_ C_ 0.464002 0.319949 0.410092 -0.08735
C_ C_ 0.422676 0.323947 0.428774 -0.05681
C_ C_ 0.371304 0.328305 0.417033 -0.05681
C_ C_ 0.362723 0.327856 0.387937 -0.05681
C_ C_ 0.312951 0.327136 0.377548 -0.05681
C_ C_ 0.272551 0.325438 0.397036 -0.08735
C_ C_ 0.281016 0.334498 0.426533 -0.08735
C_ C_ 0.330765 0.331852 0.437378 -0.05681
C_ C_ 0.342803 0.332329 0.466937 0.44287
C_ C_ 0.43115 0.324209 0.458636 0.44287
C_ C_ 0.402628 0.327549 0.0100209 0.18498
C_ C_ 0.435846 0.370147 0.0138978 -0.08735
C_ C_ 0.44073 0.390551 0.0415116 -0.08735
C_ C_ 0.413726 0.368992 0.0646946 -0.08735
C_ C_ 0.387585 0.322332 0.0608077 0.18498
C_ C_ 0.381222 0.301721 0.0330713 -0.05681
C_ C_ 0.357467 0.255256 0.0294615 -0.08735
C_ C_ 0.33171 0.233764 0.0526486 -0.08735
C_ C_ 0.336645 0.254641 0.0797201 0.1947
N_ N_ 0.129907 0.16024 0.478663 -0.29468
N_ N_ 0.149808 0.196815 0.0815258 -0.17154
N_ N_ 0.110749 0.174157 0.229178 -0.17154
N_ N_ 0.126187 0.204273 0.334344 -0.29468
N_ N_ 0.361411 0.340086 0.224898 -0.29468
N_ N_ 0.344202 0.310496 0.329294 -0.17154
N_ N_ 0.391864 0.328635 0.477271 -0.17154
N_ N_ 0.365166 0.29748 0.0833459 -0.29468
O_ O_ 0.211473 0.180295 0.428279 -0.58347
O_ O_ 0.194739 0.195449 0.383347 -0.58347
O_ O_ 0.138035 0.256633 0.434988 -0.58347
O_ O_ 0.116787 0.259721 0.389556 -0.58347
O_ O_ 0.125604 0.108375 0.423855 -0.58347
O_ O_ 0.131872 0.112125 0.377198 -0.58347
O_ O_ 0.0585442 0.178413 0.430068 -0.58347
O_ O_ 0.0467239 0.175519 0.383274 -0.58347
O_ O_ 0.064317 0.215757 0.075508 -0.46727
O_ O_ 0.233525 0.175022 0.0882916 -0.46727
O_ O_ 0.0281801 0.201456 0.222932 -0.46727
O_ O_ 0.193587 0.149852 0.23617 -0.46727
O_ O_ 0.282875 0.319837 0.177252 -0.58347
O_ O_ 0.292167 0.319152 0.13165 -0.58347
O_ O_ 0.370027 0.251878 0.186147 -0.58347
O_ O_ 0.368421 0.247085 0.139004 -0.58347
O_ O_ 0.355911 0.399802 0.165892 -0.58347
O_ O_ 0.369333 0.394296 0.120831 -0.58347
O_ O_ 0.432517 0.328626 0.173478 -0.58347
O_ O_ 0.446339 0.321828 0.126654 -0.58347
O_ O_ 0.43178 0.30342 0.323287 -0.46727
O_ O_ 0.258322 0.320696 0.338128 -0.46727
O_ O_ 0.478134 0.316057 0.468961 -0.46727
O_ O_ 0.304423 0.328735 0.484012 -0.46727
Zn Zn 0.140384 0.186972 0.881229 0.90689
Zn Zn 0.145326 0.178476 0.928284 0.90689
Zn Zn 0.379258 0.3085 0.630554 0.90689
Zn Zn 0.370464 0.311407 0.679238 0.90689
H_ H_ 0.317743 0.18901 0.945773 0.11455
H_ H_ 0.384142 0.148264 0.849789 0.11455
H_ H_ 0.287605 0.14112 0.859904 0.11455
H_ H_ 0.401598 0.170267 0.964629 0.11455
H_ H_ 0.49599 0.180523 0.957523 0.11455
H_ H_ 0.471899 0.153507 0.867471 0.11455
H_ H_ 0.136159 0.0162096 0.941414 0.11455
H_ H_ 0.0739103 0.431651 0.864521 0.11455
H_ H_ 0.130471 0.0289104 0.851057 0.11455
H_ H_ 0.192715 0.430895 0.957768 0.11455
H_ H_ 0.180747 0.334935 0.958462 0.11455
H_ H_ 0.0995287 0.346608 0.879827 0.11455
H_ H_ 0.0765863 0.109392 0.964278 0.11455
H_ H_ 0.0545885 0.0816814 0.517827 0.11455
H_ H_ 0.108029 0.111442 0.556941 0.11455
H_ H_ 0.20016 0.231822 0.974104 0.11455
H_ H_ 0.225527 0.290969 0.51331 0.11455
H_ H_ 0.211397 0.268867 0.56113 0.11455
H_ H_ 0.0239025 0.200711 0.620205 0.11455
H_ H_ 0.0102159 0.190869 0.672611 0.11455
H_ H_ 0.274826 0.155474 0.637721 0.11455
H_ H_ 0.2612 0.143559 0.688076 0.11455
H_ H_ 0.0712885 0.0871087 0.749712 0.11455
H_ H_ 0.0506285 0.0699399 0.803017 0.11455
H_ H_ 0.0852714 0.12016 0.839735 0.11455
H_ H_ 0.176746 0.23464 0.753844 0.11455
H_ H_ 0.202385 0.292918 0.794276 0.11455
H_ H_ 0.186217 0.267481 0.843725 0.11455
H_ H_ 0.196913 0.286279 0.691147 0.11455
H_ H_ 0.135195 0.324209 0.595442 0.11455
H_ H_ 0.226292 0.314658 0.601837 0.11455
H_ H_ 0.119736 0.296044 0.713879 0.11455
H_ H_ 0.0230661 0.308178 0.708374 0.11455
H_ H_ 0.0424066 0.306991 0.61724 0.11455
H_ H_ 0.351013 0.478246 0.688251 0.11455
H_ H_ 0.379108 0.0605057 0.594683 0.11455
H_ H_ 0.366534 0.475289 0.596703 0.11455
H_ H_ 0.381526 0.0653799 0.713136 0.11455
H_ H_ 0.384974 0.154832 0.708764 0.11455
H_ H_ 0.375843 0.143258 0.616413 0.11455
H_ H_ 0.407234 0.388024 0.715846 0.11455
H_ H_ 0.414588 0.42092 0.761183 0.11455
H_ H_ 0.38952 0.369124 0.802692 0.11455
H_ H_ 0.32307 0.232412 0.722686 0.11455
H_ H_ 0.298379 0.172446 0.762047 0.11455
H_ H_ 0.313065 0.203163 0.812511 0.11455
H_ H_ 0.497137 0.294087 0.869713 0.11455
H_ H_ 0.50961 0.297169 0.921084 0.11455
H_ H_ 0.240993 0.310871 0.886299 0.11455
H_ H_ 0.254406 0.322682 0.940004 0.11455
H_ H_ 0.459086 0.38791 -0.0023239999999999927 0.11455
H_ H_ 0.472955 0.420618 0.547993 0.11455
H_ H_ 0.437991 0.370305 0.588557 0.11455
H_ H_ 0.358376 0.246187 0.505207 0.11455
H_ H_ 0.31763 0.199025 0.542973 0.11455
H_ H_ 0.331578 0.22664 0.593654 0.11455
C_ C_ 0.241556 0.178333 0.905989 0.68181
C_ C_ 0.298406 0.171049 0.902147 -0.05681
C_ C_ 0.331904 0.177002 0.925156 -0.08735
C_ C_ 0.382881 0.175456 0.919341 -0.05681
C_ C_ 0.401437 0.163297 0.892993 -0.05681
C_ C_ 0.369281 0.154177 0.869944 -0.08735
C_ C_ 0.314981 0.157069 0.874657 -0.08735
C_ C_ 0.415761 0.171753 0.943412 -0.08735
C_ C_ 0.468816 0.172569 0.94027 -0.08735
C_ C_ 0.488564 0.173334 0.911989 -0.05681
C_ C_ 0.454802 0.164389 0.889202 -0.08735
C_ C_ 0.141056 0.278467 0.914085 0.68181
C_ C_ 0.150145 0.0834049 0.897929 0.68181
C_ C_ 0.133484 0.0294252 0.895572 -0.05681
C_ C_ 0.151256 0.495595 0.92387 -0.08735
C_ C_ 0.143894 0.443545 0.92331 -0.05681
C_ C_ 0.121112 0.419842 0.899315 -0.05681
C_ C_ 0.0966536 0.449736 0.879652 -0.08735
C_ C_ 0.0974916 0.502178 0.8813 -0.08735
C_ C_ 0.171928 0.412768 0.942621 -0.08735
C_ C_ 0.165067 0.359756 0.942686 -0.08735
C_ C_ 0.139646 0.334674 0.919453 -0.05681
C_ C_ 0.119154 0.365348 0.897603 -0.08735
C_ C_ 0.0453193 0.181749 0.902064 0.68181
C_ C_ 0.0933989 0.127545 0.981561 0.1947
C_ C_ 0.0872512 0.106118 0.512506 -0.08735
C_ C_ 0.115569 0.126905 0.535198 -0.08735
C_ C_ 0.147447 0.168891 0.529795 -0.05681
C_ C_ 0.156197 0.181273 0.499706 0.18498
C_ C_ 0.186293 0.226486 0.993937 -0.08735
C_ C_ 0.203937 0.257146 0.516401 -0.08735
C_ C_ 0.192494 0.245856 0.544443 -0.08735
C_ C_ 0.167425 0.202591 0.551805 0.18498
C_ C_ 0.199875 0.173471 0.597436 0.44287
C_ C_ 0.11246 0.195801 0.592977 0.44287
C_ C_ 0.103495 0.187054 0.621859 -0.05681
C_ C_ 0.0551497 0.188721 0.633748 -0.08735
C_ C_ 0.0493298 0.185722 0.663411 -0.08735
C_ C_ 0.0904237 0.178283 0.68114 -0.05681
C_ C_ 0.139158 0.169678 0.669392 -0.05681
C_ C_ 0.145594 0.175814 0.639603 -0.05681
C_ C_ 0.194662 0.167216 0.627596 -0.05681
C_ C_ 0.235296 0.158423 0.645705 -0.08735
C_ C_ 0.228159 0.155345 0.675451 -0.08735
C_ C_ 0.178979 0.158209 0.687116 -0.05681
C_ C_ 0.171647 0.157243 0.716408 0.44287
C_ C_ 0.0832151 0.172758 0.71135 0.44287
C_ C_ 0.116246 0.150338 0.758777 0.18498
C_ C_ 0.0849813 0.111081 0.766553 -0.08735
C_ C_ 0.0734164 0.100596 0.796008 -0.08735
C_ C_ 0.0941689 0.131364 0.81774 -0.08735
C_ C_ 0.126723 0.169994 0.811909 0.18498
C_ C_ 0.139897 0.179641 0.782293 -0.05681
C_ C_ 0.163726 0.225206 0.775516 -0.08735
C_ C_ 0.180326 0.258522 0.797704 -0.08735
C_ C_ 0.168625 0.243496 0.826635 0.1947
C_ C_ 0.277088 0.304469 0.652206 0.68181
C_ C_ 0.219852 0.302031 0.647969 -0.05681
C_ C_ 0.185606 0.297881 0.670983 -0.08735
C_ C_ 0.134131 0.304357 0.66788 -0.05681
C_ C_ 0.114409 0.313188 0.64072 -0.05681
C_ C_ 0.147515 0.312859 0.616921 -0.08735
C_ C_ 0.200006 0.309692 0.620659 -0.08735
C_ C_ 0.102027 0.300999 0.691812 -0.08735
C_ C_ 0.0494419 0.308974 0.689346 -0.08735
C_ C_ 0.0277223 0.311022 0.661638 -0.05681
C_ C_ 0.0593679 0.313933 0.63766 -0.08735
C_ C_ 0.381469 0.212524 0.660034 0.68181
C_ C_ 0.364942 0.411888 0.647076 0.68181
C_ C_ 0.363105 0.468886 0.644369 -0.05681
C_ C_ 0.371525 -0.003414999999999946 0.669936 -0.08735
C_ C_ 0.378551 0.0507009 0.667606 -0.05681
C_ C_ 0.378462 0.0730096 0.640341 -0.05681
C_ C_ 0.378725 0.042 0.616334 -0.08735
C_ C_ 0.370566 0.491856 0.61758 -0.08735
C_ C_ 0.38407 0.0815481 0.691915 -0.08735
C_ C_ 0.379769 0.132893 0.688927 -0.08735
C_ C_ 0.382509 0.155661 0.662779 -0.05681
C_ C_ 0.378359 0.126396 0.637555 -0.08735
C_ C_ 0.471958 0.315187 0.659409 0.68181
C_ C_ 0.382558 0.369392 0.731981 0.1947
C_ C_ 0.392793 0.384716 0.758586 -0.08735
C_ C_ 0.388329 0.35243 0.78206 -0.08735
C_ C_ 0.370517 0.303601 0.777304 -0.05681
C_ C_ 0.357572 0.28877 0.749016 0.18498
C_ C_ 0.330649 0.241924 0.74333 -0.08735
C_ C_ 0.322484 0.207175 0.766162 -0.08735
C_ C_ 0.329603 0.224364 0.794609 -0.08735
C_ C_ 0.352018 0.271312 0.801188 0.18498
C_ C_ 0.317392 0.294129 0.846449 0.44287
C_ C_ 0.405701 0.283901 0.841745 0.44287
C_ C_ 0.413303 0.29581 0.871532 -0.05681
C_ C_ 0.462226 0.294464 0.883955 -0.08735
C_ C_ 0.470781 0.297269 0.913655 -0.08735
C_ C_ 0.428181 0.29476 0.9328 -0.05681
C_ C_ 0.379679 0.30096 0.920205 -0.05681
C_ C_ 0.370936 0.298137 0.890352 -0.05681
C_ C_ 0.321409 0.301418 0.877543 -0.05681
C_ C_ 0.277927 0.307893 0.89491 -0.08735
C_ C_ 0.287004 0.313548 0.92492 -0.08735
C_ C_ 0.335744 0.313211 0.937533 -0.05681
C_ C_ 0.34318 0.315163 0.96821 0.44287
C_ C_ 0.432809 0.305149 0.962554 0.44287
C_ C_ 0.401393 0.337573 0.508398 0.18498
C_ C_ 0.432579 0.378272 0.514647 -0.08735
C_ C_ 0.447304 0.389359 0.543836 -0.08735
C_ C_ 0.425815 0.362736 0.566054 -0.08735
C_ C_ 0.396856 0.318408 0.560398 0.18498
C_ C_ 0.381958 0.307551 0.530929 -0.05681
C_ C_ 0.357587 0.262128 0.525778 -0.08735
C_ C_ 0.334267 0.235509 0.548442 -0.08735
C_ C_ 0.346266 0.249225 0.575911 0.1947
N_ N_ 0.126021 0.167095 0.976672 -0.29468
N_ N_ 0.161407 0.19218 0.582126 -0.17154
N_ N_ 0.123731 0.15954 0.728626 -0.17154
N_ N_ 0.144975 0.198791 0.832816 -0.29468
N_ N_ 0.367795 0.321685 0.727091 -0.29468
N_ N_ 0.359137 0.283819 0.829813 -0.17154
N_ N_ 0.391684 0.313254 0.980462 -0.17154
N_ N_ 0.377481 0.288027 0.582412 -0.29468
O_ O_ 0.220707 0.170956 0.930437 -0.58347
O_ O_ 0.214508 0.185531 0.884279 -0.58347
O_ O_ 0.148197 0.250268 0.935894 -0.58347
O_ O_ 0.144347 0.25972 0.888733 -0.58347
O_ O_ 0.145958 0.105122 0.922792 -0.58347
O_ O_ 0.150285 0.111474 0.875496 -0.58347
O_ O_ 0.072642 0.178896 0.924171 -0.58347
O_ O_ 0.0638555 0.182103 0.877199 -0.58347
O_ O_ 0.0775111 0.217739 0.57802 -0.46727
O_ O_ 0.246347 0.174307 0.587351 -0.46727
O_ O_ 0.0371681 0.181146 0.722162 -0.46727
O_ O_ 0.21042 0.147444 0.733555 -0.46727
O_ O_ 0.296348 0.311428 0.676903 -0.58347
O_ O_ 0.305057 0.30372 0.629876 -0.58347
O_ O_ 0.373833 0.239094 0.682703 -0.58347
O_ O_ 0.386159 0.234614 0.635538 -0.58347
O_ O_ 0.365078 0.390514 0.671408 -0.58347
O_ O_ 0.369069 0.384436 0.624176 -0.58347
O_ O_ 0.442237 0.318378 0.6807 -0.58347
O_ O_ 0.455357 0.310921 0.634026 -0.58347
O_ O_ 0.446661 0.275061 0.82502 -0.46727
O_ O_ 0.272473 0.301364 0.834618 -0.46727
O_ O_ 0.477266 0.298945 0.974205 -0.46727
O_ O_ 0.30625 0.333167 0.984715 -0.46727
Zn Zn 0.12159 0.687234 0.382222 0.90689
Zn Zn 0.133522 0.679287 0.431342 0.90689
Zn Zn 0.375678 0.821177 0.132997 0.90689
Zn Zn 0.364105 0.821537 0.180198 0.90689
H_ H_ 0.305209 0.680471 0.450413 0.11455
H_ H_ 0.367666 0.673166 0.349929 0.11455
H_ H_ 0.276374 0.688715 0.357305 0.11455
H_ H_ 0.388072 0.661986 0.466541 0.11455
H_ H_ 0.478935 0.676662 0.459588 0.11455
H_ H_ 0.452224 0.681234 0.366011 0.11455
H_ H_ 0.167753 0.516052 0.435791 0.11455
H_ H_ 0.105184 0.936529 0.348224 0.11455
H_ H_ 0.104614 0.527983 0.352622 0.11455
H_ H_ 0.159694 0.932871 0.463296 0.11455
H_ H_ 0.139793 0.838855 0.460406 0.11455
H_ H_ 0.121902 0.850241 0.368609 0.11455
H_ H_ 0.0797417 0.60243 0.465228 0.11455
H_ H_ 0.0596465 0.587143 0.0196381 0.11455
H_ H_ 0.0990726 0.636688 0.0557359 0.11455
H_ H_ 0.191865 0.746668 0.474647 0.11455
H_ H_ 0.213098 0.809647 0.00756912 0.11455
H_ H_ 0.196646 0.797468 0.0567943 0.11455
H_ H_ 0.0142898 0.728576 0.121589 0.11455
H_ H_ -0.004530000000000034 0.71423 0.170386 0.11455
H_ H_ 0.260413 0.683979 0.137617 0.11455
H_ H_ 0.243829 0.678502 0.193293 0.11455
H_ H_ 0.0665955 0.599216 0.247023 0.11455
H_ H_ 0.0426988 0.576589 0.296759 0.11455
H_ H_ 0.0723997 0.625955 0.335743 0.11455
H_ H_ 0.155871 0.759057 0.258165 0.11455
H_ H_ 0.195199 0.798564 0.29869 0.11455
H_ H_ 0.185186 0.75819 0.34737 0.11455
H_ H_ 0.197383 0.822018 0.198841 0.11455
H_ H_ 0.128612 0.848166 0.101042 0.11455
H_ H_ 0.214749 0.831586 0.10575 0.11455
H_ H_ 0.1094 0.818404 0.220609 0.11455
H_ H_ 0.0202648 0.813076 0.212175 0.11455
H_ H_ 0.0417949 0.855236 0.122253 0.11455
H_ H_ 0.358277 0.996188 0.191328 0.11455
H_ H_ 0.390534 0.574454 0.0948413 0.11455
H_ H_ 0.387082 0.978088 0.0995515 0.11455
H_ H_ 0.358496 0.569551 0.21148 0.11455
H_ H_ 0.355498 0.664455 0.211855 0.11455
H_ H_ 0.38489 0.6566 0.119797 0.11455
H_ H_ 0.393103 0.905983 0.217003 0.11455
H_ H_ 0.410152 0.929571 0.262644 0.11455
H_ H_ 0.396279 0.87677 0.30567 0.11455
H_ H_ 0.289648 0.75546 0.22297 0.11455
H_ H_ 0.276233 0.692452 0.260316 0.11455
H_ H_ 0.305561 0.712965 0.31237 0.11455
H_ H_ 0.479582 0.780338 0.375128 0.11455
H_ H_ 0.495103 0.804934 0.425127 0.11455
H_ H_ 0.234833 0.842807 0.386324 0.11455
H_ H_ 0.249642 0.856149 0.438825 0.11455
H_ H_ 0.412963 0.916274 0.500402 0.11455
H_ H_ 0.445072 0.938866 0.0438963 0.11455
H_ H_ 0.4303 0.879007 0.0865467 0.11455
H_ H_ 0.329678 0.756263 0.00861614 0.11455
H_ H_ 0.299726 0.712283 0.0523114 0.11455
H_ H_ 0.317849 0.745789 0.0981909 0.11455
C_ C_ 0.225717 0.684209 0.408686 0.68181
C_ C_ 0.283185 0.687214 0.404302 -0.05681
C_ C_ 0.317325 0.679837 0.427641 -0.08735
C_ C_ 0.369226 0.672381 0.423063 -0.05681
C_ C_ 0.389967 0.675906 0.394295 -0.05681
C_ C_ 0.353962 0.676037 0.371481 -0.08735
C_ C_ 0.303282 0.685956 0.375791 -0.08735
C_ C_ 0.403127 0.663445 0.445574 -0.08735
C_ C_ 0.454335 0.672044 0.440613 -0.08735
C_ C_ 0.4755 0.67414 0.412204 -0.05681
C_ C_ 0.441087 0.671203 0.388009 -0.08735
C_ C_ 0.121966 0.781317 0.413149 0.68181
C_ C_ 0.125839 0.583422 0.39994 0.68181
C_ C_ 0.127724 0.528884 0.39703 -0.05681
C_ C_ 0.145492 0.999296 0.421759 -0.08735
C_ C_ 0.144866 0.946016 0.419296 -0.05681
C_ C_ 0.133085 0.922096 0.391998 -0.05681
C_ C_ 0.120507 0.951715 0.367852 -0.08735
C_ C_ 0.121678 1.00414887 0.371305 -0.08735
C_ C_ 0.150877 0.914724 0.443201 -0.08735
C_ C_ 0.139629 0.861965 0.441159 -0.08735
C_ C_ 0.127828 0.836864 0.415054 -0.05681
C_ C_ 0.130515 0.868756 0.389791 -0.08735
C_ C_ 0.0302412 0.687571 0.403954 0.68181
C_ C_ 0.099419 0.622132 0.482524 0.1947
C_ C_ 0.0848259 0.618332 0.0135493 -0.08735
C_ C_ 0.105385 0.64843 0.0342673 -0.08735
C_ C_ 0.135037 0.6896 0.0285669 -0.05681
C_ C_ 0.142641 0.703402 0.999412 0.18498
C_ C_ 0.179811 0.734186 0.495613 -0.08735
C_ C_ 0.188319 0.777706 0.0118306 -0.08735
C_ C_ 0.184365 0.766204 0.040825 -0.08735
C_ C_ 0.157958 0.722992 0.0494946 0.18498
C_ C_ 0.188311 0.705426 0.0980477 0.44287
C_ C_ 0.101273 0.717714 0.0910386 0.44287
C_ C_ 0.092474 0.710803 0.122142 -0.05681
C_ C_ 0.0443668 0.714344 0.134417 -0.08735
C_ C_ 0.0345242 0.704862 0.163669 -0.08735
C_ C_ 0.077427 0.69413 0.181449 -0.05681
C_ C_ 0.126108 0.69336 0.170336 -0.05681
C_ C_ 0.133529 0.700167 0.140072 -0.05681
C_ C_ 0.181302 0.698563 0.128146 -0.05681
C_ C_ 0.223236 0.690343 0.146811 -0.08735
C_ C_ 0.215416 0.684482 0.176508 -0.08735
C_ C_ 0.1673 0.686274 0.187672 -0.05681
C_ C_ 0.15807 0.679071 0.217946 0.44287
C_ C_ 0.07161 0.693814 0.211189 0.44287
C_ C_ 0.102819 0.670294 0.258879 0.18498
C_ C_ 0.0784254 0.623309 0.26388 -0.08735
C_ C_ 0.0640721 0.609246 0.291733 -0.08735
C_ C_ 0.0824959 0.636957 0.31446 -0.08735
C_ C_ 0.10991 0.681037 0.310831 0.18498
C_ C_ 0.119164 0.699929 0.28234 -0.05681
C_ C_ 0.145025 0.74601 0.278519 -0.08735
C_ C_ 0.172484 0.764209 0.30253 -0.08735
C_ C_ 0.166065 0.744291 0.330156 0.1947
C_ C_ 0.269967 0.814214 0.154139 0.68181
C_ C_ 0.215543 0.82533 0.152474 -0.05681
C_ C_ 0.183671 0.8286 0.176538 -0.08735
C_ C_ 0.130142 0.83203 0.173838 -0.05681
C_ C_ 0.109724 0.839632 0.147017 -0.05681
C_ C_ 0.141209 0.839033 0.123725 -0.08735
C_ C_ 0.193321 0.833109 0.126314 -0.08735
C_ C_ 0.0967737 0.824009 0.198873 -0.08735
C_ C_ 0.0438732 0.824169 0.193816 -0.08735
C_ C_ 0.0232872 0.834274 0.166009 -0.05681
C_ C_ 0.0564721 0.840879 0.142764 -0.08735
C_ C_ 0.371616 0.723598 0.164759 0.68181
C_ C_ 0.364826 0.92016 0.148666 0.68181
C_ C_ 0.372202 0.977352 0.145931 -0.05681
C_ C_ 0.362159 0.50507 0.167499 -0.08735
C_ C_ 0.364846 0.558757 0.166596 -0.05681
C_ C_ 0.371403 0.585534 0.140094 -0.05681
C_ C_ 0.382771 0.557287 0.11636 -0.08735
C_ C_ 0.381966 0.00135586 0.118784 -0.08735
C_ C_ 0.353101 0.58712 0.192012 -0.08735
C_ C_ 0.359005 0.642618 0.192649 -0.08735
C_ C_ 0.366924 0.668568 0.165424 -0.05681
C_ C_ 0.369179 0.639114 0.139531 -0.08735
C_ C_ 0.468968 0.82519 0.158967 0.68181
C_ C_ 0.377872 0.881673 0.232908 0.1947
C_ C_ 0.388909 0.893783 0.261022 -0.08735
C_ C_ 0.380871 0.861951 0.285133 -0.08735
C_ C_ 0.354726 0.816394 0.279331 -0.05681
C_ C_ 0.340618 0.804147 0.249196 0.18498
C_ C_ 0.306555 0.762471 0.244859 -0.08735
C_ C_ 0.296867 0.727032 0.266947 -0.08735
C_ C_ 0.313741 0.738348 0.29594 -0.08735
C_ C_ 0.343819 0.782489 0.301888 0.18498
C_ C_ 0.30885 0.809273 0.347328 0.44287
C_ C_ 0.397199 0.794718 0.344266 0.44287
C_ C_ 0.402652 0.804841 0.374214 -0.05681
C_ C_ 0.450658 0.799778 0.386984 -0.08735
C_ C_ 0.457337 0.804044 0.415611 -0.08735
C_ C_ 0.414241 0.810795 0.432947 -0.05681
C_ C_ 0.366059 0.817787 0.42034 -0.05681
C_ C_ 0.361076 0.811436 0.390524 -0.05681
C_ C_ 0.312615 0.81567 0.377634 -0.05681
C_ C_ 0.270918 0.832224 0.394754 -0.08735
C_ C_ 0.278167 0.841437 0.424746 -0.08735
C_ C_ 0.32384 0.829575 0.437569 -0.05681
C_ C_ 0.331244 0.8395 0.466798 0.44287
C_ C_ 0.417231 0.815109 0.463239 0.44287
C_ C_ 0.391572 0.837815 0.00827464 0.18498
C_ C_ 0.417056 0.88414 0.0132229 -0.08735
C_ C_ 0.433208 0.900194 0.0406209 -0.08735
C_ C_ 0.421931 0.867642 0.0642619 -0.08735
C_ C_ 0.388802 0.826809 0.0607006 0.18498
C_ C_ 0.374605 0.810062 0.0320572 -0.05681
C_ C_ 0.341914 0.768282 0.0290145 -0.08735
C_ C_ 0.323791 0.744553 0.0537194 -0.08735
C_ C_ 0.339497 0.760321 0.0804438 0.1947
N_ N_ 0.129376 0.664192 0.479119 -0.29468
N_ N_ 0.149766 0.716094 0.0801193 -0.17154
N_ N_ 0.111959 0.684409 0.229453 -0.17154
N_ N_ 0.132634 0.704998 0.33396 -0.29468
N_ N_ 0.359123 0.834409 0.227312 -0.29468
N_ N_ 0.350562 0.800067 0.330703 -0.17154
N_ N_ 0.377065 0.830723 0.479529 -0.17154
N_ N_ 0.368724 0.803105 0.0844553 -0.29468
O_ O_ 0.205731 0.679276 0.433089 -0.58347
O_ O_ 0.198385 0.688232 0.386891 -0.58347
O_ O_ 0.130293 0.754116 0.43494 -0.58347
O_ O_ 0.118936 0.759603 0.388391 -0.58347
O_ O_ 0.135196 0.60368 0.424139 -0.58347
O_ O_ 0.124806 0.610096 0.377196 -0.58347
O_ O_ 0.0593787 0.675701 0.424445 -0.58347
O_ O_ 0.0474161 0.68749 0.378577 -0.58347
O_ O_ 0.0617874 0.728422 0.073931 -0.46727
O_ O_ 0.231358 0.691127 0.0867864 -0.46727
O_ O_ 0.024572 0.690158 0.221103 -0.46727
O_ O_ 0.19778 0.66839 0.235403 -0.46727
O_ O_ 0.289515 0.812629 0.17863 -0.58347
O_ O_ 0.297504 0.820105 0.132146 -0.58347
O_ O_ 0.369476 0.749674 0.186064 -0.58347
O_ O_ 0.381581 0.74448 0.141169 -0.58347
O_ O_ 0.360337 0.899617 0.172986 -0.58347
O_ O_ 0.370433 0.893806 0.127087 -0.58347
O_ O_ 0.441666 0.826525 0.181793 -0.58347
O_ O_ 0.449418 0.825177 0.133385 -0.58347
O_ O_ 0.438572 0.787356 0.329432 -0.46727
O_ O_ 0.264729 0.814134 0.334503 -0.46727
O_ O_ 0.45675 0.795673 0.476363 -0.46727
O_ O_ 0.291803 0.851912 0.483128 -0.46727
Zn Zn 0.11991 0.686703 0.882643 0.90689
Zn Zn 0.128848 0.681632 0.930671 0.90689
Zn Zn 0.364126 0.809625 0.628893 0.90689
Zn Zn 0.357817 0.815619 0.675495 0.90689
H_ H_ 0.295139 0.682757 0.945082 0.11455
H_ H_ 0.358153 0.671222 0.845165 0.11455
H_ H_ 0.272208 0.684662 0.854035 0.11455
H_ H_ 0.385259 0.675021 0.963631 0.11455
H_ H_ 0.474004 0.65017 0.954037 0.11455
H_ H_ 0.447176 0.673293 0.864435 0.11455
H_ H_ 0.168178 0.514794 0.94391 0.11455
H_ H_ 0.127969 0.933343 0.846044 0.11455
H_ H_ 0.0692852 0.522374 0.869399 0.11455
H_ H_ 0.119292 0.934087 0.962335 0.11455
H_ H_ 0.113083 0.840014 0.961343 0.11455
H_ H_ 0.104867 0.849804 0.868985 0.11455
H_ H_ 0.0807437 0.604222 0.967933 0.11455
H_ H_ 0.0725295 0.566441 0.514527 0.11455
H_ H_ 0.121636 0.604509 0.553617 0.11455
H_ H_ 0.182254 0.750013 0.96983 0.11455
H_ H_ 0.216481 0.796421 0.514267 0.11455
H_ H_ 0.199567 0.768052 0.564665 0.11455
H_ H_ 1.012679 0.70477 0.620136 0.11455
H_ H_ 0.998208 0.706522 0.67067 0.11455
H_ H_ 0.25693 0.648926 0.639598 0.11455
H_ H_ 0.23864 0.626642 0.689828 0.11455
H_ H_ 0.0640094 0.583608 0.748132 0.11455
H_ H_ 0.0430788 0.562008 0.800464 0.11455
H_ H_ 0.0645127 0.619697 0.837292 0.11455
H_ H_ 0.150382 0.745315 0.756455 0.11455
H_ H_ 0.188604 0.787845 0.798143 0.11455
H_ H_ 0.171687 0.758794 0.845791 0.11455
H_ H_ 0.187308 0.809606 0.696735 0.11455
H_ H_ 0.112685 0.818385 0.60006 0.11455
H_ H_ 0.205408 0.815741 0.605409 0.11455
H_ H_ 0.106736 0.838764 0.717242 0.11455
H_ H_ 0.0136298 0.835841 0.712611 0.11455
H_ H_ 0.0299363 0.825697 0.619777 0.11455
H_ H_ 0.359477 0.984462 0.690596 0.11455
H_ H_ 0.393747 0.562469 0.595906 0.11455
H_ H_ 0.371534 0.965861 0.599687 0.11455
H_ H_ 0.351491 0.565981 0.713142 0.11455
H_ H_ 0.348578 0.659516 0.705039 0.11455
H_ H_ 0.396033 0.641124 0.617676 0.11455
H_ H_ 0.414501 0.885833 0.715014 0.11455
H_ H_ 0.440484 0.903537 0.76489 0.11455
H_ H_ 0.397264 0.858624 0.803687 0.11455
H_ H_ 0.297555 0.752949 0.721588 0.11455
H_ H_ 0.257658 0.703155 0.763748 0.11455
H_ H_ 0.27129 0.729126 0.809097 0.11455
H_ H_ 0.476582 0.793667 0.868875 0.11455
H_ H_ 0.485035 0.787274 0.920277 0.11455
H_ H_ 0.229239 0.848241 0.8881 0.11455
H_ H_ 0.24245 0.847703 0.938875 0.11455
H_ H_ 0.43061 0.910879 0.995828 0.11455
H_ H_ 0.451894 0.931194 0.549518 0.11455
H_ H_ 0.420018 0.876038 0.586916 0.11455
H_ H_ 0.329994 0.75176 0.503951 0.11455
H_ H_ 0.303024 0.700311 0.549694 0.11455
H_ H_ 0.311172 0.735509 0.595493 0.11455
C_ C_ 0.220973 0.684044 0.9055 0.68181
C_ C_ 0.275336 0.671793 0.900654 -0.05681
C_ C_ 0.309045 0.674076 0.923509 -0.08735
C_ C_ 0.361504 0.670817 0.919036 -0.05681
C_ C_ 0.379738 0.665943 0.890622 -0.05681
C_ C_ 0.345661 0.663716 0.867096 -0.08735
C_ C_ 0.294945 0.672061 0.872226 -0.08735
C_ C_ 0.395881 0.668818 0.941556 -0.08735
C_ C_ 0.446843 0.662061 0.936349 -0.08735
C_ C_ 0.466718 0.668099 0.909027 -0.05681
C_ C_ 0.432731 0.665508 0.885876 -0.08735
C_ C_ 0.120375 0.782056 0.912402 0.68181
C_ C_ 0.128672 0.581386 0.904904 0.68181
C_ C_ 0.124708 0.52593 0.903042 -0.05681
C_ C_ 0.128446 1.00031 0.920144 -0.08735
C_ C_ 0.122579 0.947455 0.917387 -0.05681
C_ C_ 0.119162 0.923407 0.890477 -0.05681
C_ C_ 0.11937 0.952132 0.865433 -0.08735
C_ C_ 0.130881 0.00438146 0.868939 -0.08735
C_ C_ 0.116013 0.916021 0.94159 -0.08735
C_ C_ 0.113771 0.863025 0.940813 -0.08735
C_ C_ 0.11434 0.838539 0.914528 -0.05681
C_ C_ 0.111823 0.869952 0.888924 -0.08735
C_ C_ 0.0270072 0.685878 0.909033 0.68181
C_ C_ 0.0973177 0.628551 0.985235 0.1947
C_ C_ 0.0905703 0.605439 0.50981 -0.08735
C_ C_ 0.113695 0.627367 0.533491 -0.08735
C_ C_ 0.139921 0.673749 0.53029 -0.05681
C_ C_ 0.149734 0.689426 0.501657 0.18498
C_ C_ 0.169413 0.745193 0.991857 -0.08735
C_ C_ 0.198597 0.761945 0.519551 -0.08735
C_ C_ 0.186929 0.74548 0.548291 -0.08735
C_ C_ 0.161541 0.701079 0.553094 0.18498
C_ C_ 0.188719 0.673629 0.59906 0.44287
C_ C_ 0.103736 0.693767 0.592005 0.44287
C_ C_ 0.0913837 0.68464 0.620561 -0.05681
C_ C_ 0.0433179 0.694346 0.633753 -0.08735
C_ C_ 0.0362208 0.695364 0.662842 -0.08735
C_ C_ 0.0758093 0.682212 0.681331 -0.05681
C_ C_ 0.12201 0.66848 0.669224 -0.05681
C_ C_ 0.131268 0.671982 0.639629 -0.05681
C_ C_ 0.18136 0.661161 0.628783 -0.05681
C_ C_ 0.218569 0.645097 0.646852 -0.08735
C_ C_ 0.205995 0.636083 0.67577 -0.08735
C_ C_ 0.158775 0.650746 0.687649 -0.05681
C_ C_ 0.152551 0.652868 0.717136 0.44287
C_ C_ 0.0683086 0.681717 0.711201 0.44287
C_ C_ 0.0979476 0.657066 0.758759 0.18498
C_ C_ 0.0717374 0.610467 0.764974 -0.08735
C_ C_ 0.0588101 0.598371 0.793422 -0.08735
C_ C_ 0.0743743 0.629526 0.815874 -0.08735
C_ C_ 0.107194 0.670116 0.810756 0.18498
C_ C_ 0.109968 0.689375 0.7822 -0.05681
C_ C_ 0.135777 0.736248 0.778274 -0.08735
C_ C_ 0.1576 0.761609 0.80152 -0.08735
C_ C_ 0.149722 0.742911 0.829049 0.1947
C_ C_ 0.262522 0.806571 0.654287 0.68181
C_ C_ 0.205717 0.810357 0.651814 -0.05681
C_ C_ 0.173428 0.817445 0.675387 -0.08735
C_ C_ 0.12019 0.819028 0.672708 -0.05681
C_ C_ 0.0985337 0.821909 0.645481 -0.05681
C_ C_ 0.129022 0.814078 0.621053 -0.08735
C_ C_ 0.181619 0.811991 0.625184 -0.08735
C_ C_ 0.0888177 0.822932 0.696687 -0.08735
C_ C_ 0.036699 0.827497 0.693296 -0.08735
C_ C_ 0.0153737 0.828007 0.665626 -0.05681
C_ C_ 0.046115 0.827184 0.642219 -0.08735
C_ C_ 0.3664 0.713896 0.659105 0.68181
C_ C_ 0.355737 0.911522 0.648044 0.68181
C_ C_ 0.36904 0.96493 0.645695 -0.05681
C_ C_ 0.363344 0.497612 0.668912 -0.08735
C_ C_ 0.366736 0.551445 0.666723 -0.05681
C_ C_ 0.375814 0.573241 0.639948 -0.05681
C_ C_ 0.38212 0.544056 0.616013 -0.08735
C_ C_ 0.37529 0.988852 0.61891 -0.08735
C_ C_ 0.360749 0.582796 0.691692 -0.08735
C_ C_ 0.361126 0.635071 0.688574 -0.08735
C_ C_ 0.36991 0.657474 0.661361 -0.05681
C_ C_ 0.376947 0.625812 0.637304 -0.08735
C_ C_ 0.458433 0.816183 0.651001 0.68181
C_ C_ 0.396819 0.862762 0.731784 0.1947
C_ C_ 0.409838 0.876268 0.759545 -0.08735
C_ C_ 0.383675 0.852523 0.782556 -0.08735
C_ C_ 0.352021 0.810511 0.777373 -0.05681
C_ C_ 0.342918 0.798059 0.748135 0.18498
C_ C_ 0.304687 0.763558 0.743714 -0.08735
C_ C_ 0.282653 0.735868 0.766112 -0.08735
C_ C_ 0.296472 0.746305 0.794002 -0.08735
C_ C_ 0.328832 0.786956 0.800744 0.18498
C_ C_ 0.300261 0.813514 0.847592 0.44287
C_ C_ 0.385787 0.792208 0.841365 0.44287
C_ C_ 0.393549 0.799515 0.870826 -0.05681
C_ C_ 0.44206 0.793656 0.882816 -0.08735
C_ C_ 0.449958 0.799221 0.912115 -0.08735
C_ C_ 0.409722 0.804796 0.931391 -0.05681
C_ C_ 0.360136 0.811631 0.91985 -0.05681
C_ C_ 0.352109 0.806139 0.890283 -0.05681
C_ C_ 0.305144 0.817321 0.877915 -0.05681
C_ C_ 0.265734 0.83686 0.895505 -0.08735
C_ C_ 0.271737 0.836386 0.925712 -0.08735
C_ C_ 0.321665 0.828151 0.938007 -0.05681
C_ C_ 0.331447 0.838343 0.967791 0.44287
C_ C_ 0.418191 0.808061 0.961964 0.44287
C_ C_ 0.381909 0.843264 0.510032 0.18498
C_ C_ 0.406252 0.889029 0.51675 -0.08735
C_ C_ 0.422091 0.899956 0.544549 -0.08735
C_ C_ 0.406095 0.869074 0.566842 -0.08735
C_ C_ 0.376167 0.824909 0.561524 0.18498
C_ C_ 0.364204 0.811639 0.532273 -0.05681
C_ C_ 0.335467 0.76648 0.525967 -0.08735
C_ C_ 0.320053 0.736642 0.550487 -0.08735
C_ C_ 0.323592 0.757467 0.577789 0.1947
N_ N_ 0.123471 0.672634 0.978492 -0.29468
N_ N_ 0.150058 0.687372 0.581863 -0.17154
N_ N_ 0.108522 0.66934 0.728626 -0.17154
N_ N_ 0.12809 0.696111 0.833495 -0.29468
N_ N_ 0.367148 0.82307 0.726235 -0.29468
N_ N_ 0.339431 0.801446 0.830202 -0.17154
N_ N_ 0.379191 0.825078 0.979287 -0.17154
N_ N_ 0.353119 0.798133 0.582667 -0.29468
O_ O_ 0.202705 0.694536 0.929712 -0.58347
O_ O_ 0.190611 0.67876 0.884915 -0.58347
O_ O_ 0.1099 0.7532 0.933865 -0.58347
O_ O_ 0.130195 0.762541 0.888025 -0.58347
O_ O_ 0.142762 0.603386 0.927672 -0.58347
O_ O_ 0.11355 0.608748 0.884037 -0.58347
O_ O_ 0.055137 0.664729 0.92757 -0.58347
O_ O_ 0.0461477 0.694778 0.884689 -0.58347
O_ O_ 0.0718123 0.719464 0.575878 -0.46727
O_ O_ 0.235831 0.6696 0.589248 -0.46727
O_ O_ 0.0260337 0.697469 0.723866 -0.46727
O_ O_ 0.193913 0.64985 0.733461 -0.46727
O_ O_ 0.283462 0.810255 0.678974 -0.58347
O_ O_ 0.286861 0.80879 0.631059 -0.58347
O_ O_ 0.36002 0.742207 0.680597 -0.58347
O_ O_ 0.370588 0.734843 0.634686 -0.58347
O_ O_ 0.357888 0.891318 0.672863 -0.58347
O_ O_ 0.356508 0.883826 0.625789 -0.58347
O_ O_ 0.428959 0.825262 0.672137 -0.58347
O_ O_ 0.438997 0.812498 0.627532 -0.58347
O_ O_ 0.420046 0.765222 0.827341 -0.46727
O_ O_ 0.25869 0.831425 0.835071 -0.46727
O_ O_ 0.461194 0.789659 0.973413 -0.46727
O_ O_ 0.294739 0.847594 0.985203 -0.46727
Zn Zn 0.626743 0.183464 0.378916 0.90689
Zn Zn 0.631485 0.181498 0.4281 0.90689
Zn Zn 0.868335 0.318427 0.136043 0.90689
Zn Zn 0.858968 0.325499 0.183378 0.90689
H_ H_ 0.799855 0.192986 0.44551 0.11455
H_ H_ 0.869744 0.170324 0.350109 0.11455
H_ H_ 0.779275 0.159204 0.358316 0.11455
H_ H_ 0.883141 0.165477 0.466159 0.11455
H_ H_ 0.977868 0.16265 0.459563 0.11455
H_ H_ 0.956104 0.186078 0.368136 0.11455
H_ H_ 0.660121 0.0147796 0.44061 0.11455
H_ H_ 0.60877 0.434702 0.345487 0.11455
H_ H_ 0.624799 0.0154787 0.348935 0.11455
H_ H_ 0.652676 0.427328 0.462261 0.11455
H_ H_ 0.64231 0.33712 0.458951 0.11455
H_ H_ 0.619985 0.3466 0.368011 0.11455
H_ H_ 0.592196 0.0938791 0.459629 0.11455
H_ H_ 0.567895 0.0883772 0.00791247 0.11455
H_ H_ 0.60979 0.124164 0.0531895 0.11455
H_ H_ 0.689287 0.246772 0.472257 0.11455
H_ H_ 0.75013 0.290804 0.0185446 0.11455
H_ H_ 0.714345 0.27074 0.0674565 0.11455
H_ H_ 0.522179 0.199211 0.117764 0.11455
H_ H_ 0.507578 0.172727 0.169416 0.11455
H_ H_ 0.770892 0.146674 0.139904 0.11455
H_ H_ 0.759078 0.159239 0.189676 0.11455
H_ H_ 0.582597 0.0820552 0.24438 0.11455
H_ H_ 0.563466 0.0556785 0.295097 0.11455
H_ H_ 0.571058 0.115753 0.335487 0.11455
H_ H_ 0.645529 0.257084 0.256128 0.11455
H_ H_ 0.677716 0.302999 0.299845 0.11455
H_ H_ 0.680936 0.263739 0.34362 0.11455
H_ H_ 0.691581 0.297472 0.199189 0.11455
H_ H_ 0.635477 0.344539 0.100228 0.11455
H_ H_ 0.721352 0.345785 0.115413 0.11455
H_ H_ 0.597956 0.297811 0.215193 0.11455
H_ H_ 0.507821 0.281662 0.20122 0.11455
H_ H_ 0.547005 0.33638 0.115296 0.11455
H_ H_ 0.871157 0.494104 0.195997 0.11455
H_ H_ 0.852842 0.0664698 0.0950043 0.11455
H_ H_ 0.831315 0.478575 0.105902 0.11455
H_ H_ 0.895681 0.0706843 0.211261 0.11455
H_ H_ 0.890887 0.162983 0.209729 0.11455
H_ H_ 0.86282 0.14951 0.118299 0.11455
H_ H_ 0.903204 0.409526 0.222283 0.11455
H_ H_ 0.906779 0.445026 0.271323 0.11455
H_ H_ 0.87362 0.391823 0.310393 0.11455
H_ H_ 0.808272 0.25998 0.22686 0.11455
H_ H_ 0.800661 0.192476 0.263903 0.11455
H_ H_ 0.823207 0.212522 0.312928 0.11455
H_ H_ 0.994216 0.301346 0.373209 0.11455
H_ H_ 0.00481693 0.296974 0.424659 0.11455
H_ H_ 0.739912 0.315051 0.394742 0.11455
H_ H_ 0.753934 0.317027 0.445148 0.11455
H_ H_ 0.954097 0.410193 0.505489 0.11455
H_ H_ 0.953838 0.439514 0.0563092 0.11455
H_ H_ 0.911664 0.389888 0.0945722 0.11455
H_ H_ 0.856819 0.25363 0.00914504 0.11455
H_ H_ 0.816734 0.206364 0.0471784 0.11455
H_ H_ 0.819611 0.238056 0.0983102 0.11455
C_ C_ 0.727329 0.186062 0.40454 0.68181
C_ C_ 0.781843 0.179042 0.401444 -0.05681
C_ C_ 0.813447 0.184383 0.4249 -0.08735
C_ C_ 0.865031 0.178368 0.422132 -0.05681
C_ C_ 0.885553 0.177796 0.394372 -0.05681
C_ C_ 0.853954 0.175215 0.371505 -0.08735
C_ C_ 0.802391 0.173015 0.3752 -0.08735
C_ C_ 0.898362 0.171043 0.445849 -0.08735
C_ C_ 0.952323 0.167003 0.441033 -0.08735
C_ C_ 0.971984 0.175185 0.414042 -0.05681
C_ C_ 0.938994 0.179676 0.390382 -0.08735
C_ C_ 0.623916 0.280767 0.41117 0.68181
C_ C_ 0.63809 0.0826814 0.396049 0.68181
C_ C_ 0.640922 0.02379 0.395498 -0.05681
C_ C_ 0.645499 0.497375 0.419789 -0.08735
C_ C_ 0.641618 0.443681 0.41738 -0.05681
C_ C_ 0.629227 0.419994 0.390381 -0.05681
C_ C_ 0.624614 0.450846 0.365121 -0.08735
C_ C_ 0.629556 0.503853 0.367546 -0.08735
C_ C_ 0.640346 0.412516 0.441091 -0.08735
C_ C_ 0.639218 0.358775 0.438815 -0.08735
C_ C_ 0.624242 0.336193 0.412841 -0.05681
C_ C_ 0.623867 0.366707 0.38888 -0.08735
C_ C_ 0.530584 0.178493 0.401618 0.68181
C_ C_ 0.6053 0.11636 0.478238 0.1947
C_ C_ 0.593729 0.119508 0.00695023 -0.08735
C_ C_ 0.621179 0.138269 0.0313598 -0.08735
C_ C_ 0.652051 0.179543 0.0287808 -0.05681
C_ C_ 0.668623 0.19171 0.999754 0.18498
C_ C_ 0.6824 0.230294 0.493053 -0.08735
C_ C_ 0.720875 0.260542 0.0208166 -0.08735
C_ C_ 0.70202 0.250449 0.0481034 -0.08735
C_ C_ 0.670074 0.209338 0.052354 0.18498
C_ C_ 0.700379 0.176772 0.0989955 0.44287
C_ C_ 0.614897 0.196539 0.0930688 0.44287
C_ C_ 0.604465 0.187578 0.12279 -0.05681
C_ C_ 0.554402 0.191574 0.133333 -0.08735
C_ C_ 0.545562 0.177677 0.162803 -0.08735
C_ C_ 0.587632 0.174061 0.18245 -0.05681
C_ C_ 0.637891 0.173428 0.169926 -0.05681
C_ C_ 0.646108 0.173394 0.139903 -0.05681
C_ C_ 0.696334 0.166253 0.128308 -0.05681
C_ C_ 0.735145 0.154225 0.147652 -0.08735
C_ C_ 0.727248 0.16318 0.176542 -0.08735
C_ C_ 0.679076 0.168387 0.188323 -0.05681
C_ C_ 0.670754 0.167809 0.217509 0.44287
C_ C_ 0.581773 0.175488 0.211934 0.44287
C_ C_ 0.612132 0.155393 0.257199 0.18498
C_ C_ 0.593655 0.10556 0.262742 -0.08735
C_ C_ 0.581157 0.0914079 0.291245 -0.08735
C_ C_ 0.592341 0.123788 0.314764 -0.08735
C_ C_ 0.615251 0.171064 0.310051 0.18498
C_ C_ 0.618568 0.189144 0.28032 -0.05681
C_ C_ 0.641975 0.237631 0.2766 -0.08735
C_ C_ 0.660502 0.265703 0.300571 -0.08735
C_ C_ 0.65919 0.244268 0.327837 0.1947
C_ C_ 0.76814 0.307554 0.159087 0.68181
C_ C_ 0.710896 0.311003 0.154064 -0.05681
C_ C_ 0.676334 0.307596 0.177393 -0.08735
C_ C_ 0.623579 0.307911 0.1718 -0.05681
C_ C_ 0.606898 0.317557 0.143096 -0.05681
C_ C_ 0.643754 0.330611 0.122097 -0.08735
C_ C_ 0.695038 0.331823 0.129612 -0.08735
C_ C_ 0.586247 0.29943 0.193209 -0.08735
C_ C_ 0.534819 0.29357 0.185113 -0.08735
C_ C_ 0.518342 0.307702 0.157608 -0.05681
C_ C_ 0.554895 0.323348 0.136464 -0.08735
C_ C_ 0.876276 0.21961 0.161824 0.68181
C_ C_ 0.854873 0.422448 0.154463 0.68181
C_ C_ 0.846458 0.477571 0.151874 -0.05681
C_ C_ 0.872501 0.0056344 0.169917 -0.08735
C_ C_ 0.877904 0.0583031 0.166712 -0.05681
C_ C_ 0.870636 0.0796781 0.140461 -0.05681
C_ C_ 0.856155 0.0500189 0.116496 -0.08735
C_ C_ 0.835384 0.5015 0.125701 -0.08735
C_ C_ 0.890846 0.0871227 0.191182 -0.08735
C_ C_ 0.888585 0.139349 0.189641 -0.08735
C_ C_ 0.877064 0.163117 0.164271 -0.05681
C_ C_ 0.872759 0.133587 0.138937 -0.08735
C_ C_ 0.958434 0.334526 0.158854 0.68181
C_ C_ 0.881486 0.389449 0.237897 0.1947
C_ C_ 0.886402 0.407445 0.266298 -0.08735
C_ C_ 0.867371 0.377219 0.289507 -0.08735
C_ C_ 0.848321 0.328025 0.283655 -0.05681
C_ C_ 0.843276 0.313668 0.255168 0.18498
C_ C_ 0.821485 0.265179 0.248116 -0.08735
C_ C_ 0.813168 0.230214 0.269172 -0.08735
C_ C_ 0.827665 0.240946 0.297759 -0.08735
C_ C_ 0.842247 0.291277 0.306217 0.18498
C_ C_ 0.814233 0.307825 0.354008 0.44287
C_ C_ 0.90331 0.304674 0.345516 0.44287
C_ C_ 0.913082 0.309269 0.375181 -0.05681
C_ C_ 0.961436 0.305752 0.386943 -0.08735
C_ C_ 0.968385 0.304908 0.416677 -0.08735
C_ C_ 0.927784 0.317029 0.434746 -0.05681
C_ C_ 0.879306 0.323881 0.423106 -0.05681
C_ C_ 0.871742 0.316739 0.393212 -0.05681
C_ C_ 0.821877 0.315532 0.382416 -0.05681
C_ C_ 0.779313 0.317397 0.401654 -0.08735
C_ C_ 0.786906 0.321254 0.431134 -0.08735
C_ C_ 0.836672 0.327045 0.442953 -0.05681
C_ C_ 0.84894 0.336035 0.472407 0.44287
C_ C_ 0.936719 0.32093 0.4649 0.44287
C_ C_ 0.908496 0.343346 0.0136789 0.18498
C_ C_ 0.931986 0.389409 0.0210273 -0.08735
C_ C_ 0.93657 0.403735 0.0507401 -0.08735
C_ C_ 0.916962 0.374492 0.072959 -0.08735
C_ C_ 0.89157 0.328645 0.066075 0.18498
C_ C_ 0.888787 0.311256 0.0366091 -0.05681
C_ C_ 0.861973 0.26766 0.0301486 -0.08735
C_ C_ 0.836392 0.242281 0.0521464 -0.08735
C_ C_ 0.839461 0.26087 0.0804279 0.1947
N_ N_ 0.629348 0.161508 0.474307 -0.29468
N_ N_ 0.661312 0.191424 0.0818753 -0.17154
N_ N_ 0.623072 0.172144 0.228816 -0.17154
N_ N_ 0.633199 0.199008 0.33269 -0.29468
N_ N_ 0.860329 0.34383 0.233387 -0.29468
N_ N_ 0.853672 0.304814 0.335475 -0.17154
N_ N_ 0.898196 0.33361 0.482922 -0.17154
N_ N_ 0.870703 0.300864 0.0876998 -0.29468
O_ O_ 0.706667 0.188633 0.428367 -0.58347
O_ O_ 0.700457 0.190993 0.382285 -0.58347
O_ O_ 0.62406 0.254629 0.434549 -0.58347
O_ O_ 0.621329 0.258644 0.387834 -0.58347
O_ O_ 0.638879 0.105506 0.420016 -0.58347
O_ O_ 0.636174 0.108353 0.372993 -0.58347
O_ O_ 0.557829 0.166988 0.422454 -0.58347
O_ O_ 0.549077 0.174653 0.376381 -0.58347
O_ O_ 0.577165 0.201169 0.0754328 -0.46727
O_ O_ 0.744175 0.172119 0.0873877 -0.46727
O_ O_ 0.537578 0.177422 0.222908 -0.46727
O_ O_ 0.709661 0.170314 0.235359 -0.46727
O_ O_ 0.785485 0.319537 0.183624 -0.58347
O_ O_ 0.797263 0.297825 0.138185 -0.58347
O_ O_ 0.867847 0.246628 0.184018 -0.58347
O_ O_ 0.881415 0.242501 0.138635 -0.58347
O_ O_ 0.852718 0.401481 0.178527 -0.58347
O_ O_ 0.851003 0.394929 0.132388 -0.58347
O_ O_ 0.928876 0.336153 0.180527 -0.58347
O_ O_ 0.940863 0.334634 0.133495 -0.58347
O_ O_ 0.939765 0.292221 0.327456 -0.46727
O_ O_ 0.768493 0.31386 0.34308 -0.46727
O_ O_ 0.982737 0.317083 0.474826 -0.46727
O_ O_ 0.813379 0.34912 0.490031 -0.46727
Zn Zn 0.638197 0.193261 0.880055 0.90689
Zn Zn 0.648273 0.186576 0.928082 0.90689
Zn Zn 0.876308 0.311899 0.635017 0.90689
Zn Zn 0.868591 0.31745 0.682971 0.90689
H_ H_ 0.815856 0.177972 0.944276 0.11455
H_ H_ 0.886935 0.174795 0.843473 0.11455
H_ H_ 0.792502 0.157524 0.853014 0.11455
H_ H_ 0.901115 0.19066 0.961689 0.11455
H_ H_ 0.99437 0.200302 0.95235 0.11455
H_ H_ 0.965845 0.183394 0.860702 0.11455
H_ H_ 0.658372 0.018057 0.938366 0.11455
H_ H_ 0.63264 0.437685 0.850846 0.11455
H_ H_ 0.61795 0.0348427 0.847328 0.11455
H_ H_ 0.624337 0.431865 0.96901 0.11455
H_ H_ 0.614786 0.340065 0.963373 0.11455
H_ H_ 0.650693 0.35727 0.873452 0.11455
H_ H_ 0.59102 0.111745 0.962175 0.11455
H_ H_ 0.579448 0.0659567 0.509533 0.11455
H_ H_ 0.599099 0.117282 0.551657 0.11455
H_ H_ 0.720996 0.235254 0.974992 0.11455
H_ H_ 0.715546 0.294106 0.514841 0.11455
H_ H_ 0.671657 0.272682 0.562353 0.11455
H_ H_ 0.507001 0.205417 0.620819 0.11455
H_ H_ 0.502336 0.198718 0.67463 0.11455
H_ H_ 0.762569 0.169029 0.631452 0.11455
H_ H_ 0.757713 0.168973 0.683253 0.11455
H_ H_ 0.58622 0.0898349 0.74799 0.11455
H_ H_ 0.575852 0.059795 0.798427 0.11455
H_ H_ 0.587733 0.122243 0.837041 0.11455
H_ H_ 0.665689 0.257374 0.75619 0.11455
H_ H_ 0.685404 0.310879 0.796444 0.11455
H_ H_ 0.679201 0.275073 0.847198 0.11455
H_ H_ 0.70387 0.319541 0.702923 0.11455
H_ H_ 0.636146 0.312732 0.601313 0.11455
H_ H_ 0.726291 0.289782 0.610895 0.11455
H_ H_ 0.610873 0.305996 0.719182 0.11455
H_ H_ 0.521586 0.294309 0.708462 0.11455
H_ H_ 0.552536 0.330001 0.61903 0.11455
H_ H_ 0.882384 0.482851 0.697511 0.11455
H_ H_ 0.935441 0.0532259 0.614287 0.11455
H_ H_ 0.830499 0.467407 0.612339 0.11455
H_ H_ 0.832148 0.0706779 0.717614 0.11455
H_ H_ 0.853298 0.163238 0.712609 0.11455
H_ H_ 0.921367 0.137457 0.62892 0.11455
H_ H_ 0.927648 0.389996 0.717019 0.11455
H_ H_ 0.945733 0.424643 0.764636 0.11455
H_ H_ 0.909376 0.381626 0.806872 0.11455
H_ H_ 0.808239 0.259348 0.728361 0.11455
H_ H_ 0.782837 0.203908 0.769503 0.11455
H_ H_ 0.793941 0.236387 0.816763 0.11455
H_ H_ 0.993865 0.293992 0.878033 0.11455
H_ H_ 0.0125692 0.310298 0.926883 0.11455
H_ H_ 0.746782 0.339539 0.892529 0.11455
H_ H_ 0.759239 0.337597 0.944101 0.11455
H_ H_ 0.94044 0.417375 1.00312645 0.11455
H_ H_ 0.982371 0.421456 0.554533 0.11455
H_ H_ 0.930753 0.386086 0.593029 0.11455
H_ H_ 0.861796 0.250308 0.511509 0.11455
H_ H_ 0.811995 0.21451 0.551374 0.11455
H_ H_ 0.815151 0.250117 0.598819 0.11455
C_ C_ 0.742215 0.18703 0.902672 0.68181
C_ C_ 0.79678 0.178586 0.898121 -0.05681
C_ C_ 0.830731 0.183463 0.921956 -0.08735
C_ C_ 0.883812 0.189216 0.916864 -0.05681
C_ C_ 0.901714 0.183223 0.888852 -0.05681
C_ C_ 0.869451 0.177168 0.865497 -0.08735
C_ C_ 0.817228 0.174089 0.869413 -0.08735
C_ C_ 0.918598 0.191975 0.939237 -0.08735
C_ C_ 0.969268 0.193011 0.933579 -0.08735
C_ C_ 0.989084 0.186415 0.905742 -0.05681
C_ C_ 0.953321 0.183219 0.883051 -0.08735
C_ C_ 0.630508 0.285858 0.914118 0.68181
C_ C_ 0.644621 0.0905328 0.896249 0.68181
C_ C_ 0.637467 0.033435 0.893107 -0.05681
C_ C_ 0.632403 0.49804 0.926575 -0.08735
C_ C_ 0.630244 0.446126 0.923318 -0.05681
C_ C_ 0.636909 0.423781 0.896873 -0.05681
C_ C_ 0.635741 0.453592 0.872049 -0.08735
C_ C_ 0.630169 0.505253 0.875107 -0.08735
C_ C_ 0.624502 0.41428 0.947595 -0.08735
C_ C_ 0.626946 0.363181 0.945072 -0.08735
C_ C_ 0.631289 0.341103 0.917763 -0.05681
C_ C_ 0.63979 0.372966 0.894441 -0.08735
C_ C_ 0.544599 0.181938 0.907241 0.68181
C_ C_ 0.609658 0.131312 0.98006 0.1947
C_ C_ 0.600974 0.0960657 0.505935 -0.08735
C_ C_ 0.614596 0.125305 0.530033 -0.08735
C_ C_ 0.640583 0.170398 0.525555 -0.05681
C_ C_ 0.652127 0.186564 0.496834 0.18498
C_ C_ 0.706539 0.229827 0.997233 -0.08735
C_ C_ 0.693455 0.259938 0.517418 -0.08735
C_ C_ 0.67529 0.24615 0.545245 -0.08735
C_ C_ 0.65217 0.201306 0.54968 0.18498
C_ C_ 0.683112 0.178764 0.595987 0.44287
C_ C_ 0.59467 0.194554 0.591626 0.44287
C_ C_ 0.589469 0.191514 0.622097 -0.05681
C_ C_ 0.541057 0.196405 0.634386 -0.08735
C_ C_ 0.538738 0.198458 0.664562 -0.08735
C_ C_ 0.582906 0.188216 0.681782 -0.05681
C_ C_ 0.629912 0.18301 0.669187 -0.05681
C_ C_ 0.635461 0.183505 0.639013 -0.05681
C_ C_ 0.682301 0.181426 0.626152 -0.05681
C_ C_ 0.724456 0.171156 0.642509 -0.08735
C_ C_ 0.722181 0.174388 0.671642 -0.08735
C_ C_ 0.675017 0.180124 0.686206 -0.05681
C_ C_ 0.671562 0.174047 0.715835 0.44287
C_ C_ 0.582009 0.186431 0.713155 0.44287
C_ C_ 0.616853 0.16321 0.758511 0.18498
C_ C_ 0.595555 0.115447 0.764688 -0.08735
C_ C_ 0.589758 0.0990934 0.793534 -0.08735
C_ C_ 0.597787 0.131832 0.815626 -0.08735
C_ C_ 0.623582 0.179004 0.811094 0.18498
C_ C_ 0.627939 0.197111 0.781824 -0.05681
C_ C_ 0.65573 0.245254 0.776922 -0.08735
C_ C_ 0.669074 0.272976 0.80112 -0.08735
C_ C_ 0.662354 0.253899 0.828871 0.1947
C_ C_ 0.776088 0.312813 0.660077 0.68181
C_ C_ 0.721781 0.314937 0.65574 -0.05681
C_ C_ 0.688712 0.313837 0.680086 -0.08735
C_ C_ 0.635031 0.316249 0.674432 -0.05681
C_ C_ 0.616976 0.32116 0.646322 -0.05681
C_ C_ 0.65084 0.315632 0.622588 -0.08735
C_ C_ 0.70209 0.306885 0.627804 -0.08735
C_ C_ 0.600595 0.306586 0.696267 -0.08735
C_ C_ 0.549159 0.308408 0.691845 -0.08735
C_ C_ 0.528829 0.317594 0.663718 -0.05681
C_ C_ 0.563201 0.323716 0.640917 -0.08735
C_ C_ 0.88323 0.217102 0.66525 0.68181
C_ C_ 0.868751 0.414215 0.654393 0.68181
C_ C_ 0.867889 0.472106 0.651752 -0.05681
C_ C_ 0.853601 0.000942432 0.676529 -0.08735
C_ C_ 0.867024 0.0525335 0.676462 -0.05681
C_ C_ 0.894269 0.0714218 0.65235 -0.05681
C_ C_ 0.915073 0.0376959 0.632265 -0.08735
C_ C_ 0.845557 0.494153 0.628584 -0.08735
C_ C_ 0.849862 0.0866616 0.697898 -0.08735
C_ C_ 0.863376 0.137807 0.695053 -0.08735
C_ C_ 0.883527 0.158808 0.669334 -0.05681
C_ C_ 0.904292 0.123178 0.648442 -0.08735
C_ C_ 0.971293 0.320478 0.65849 0.68181
C_ C_ 0.907122 0.37424 0.734229 0.1947
C_ C_ 0.917889 0.394643 0.761669 -0.08735
C_ C_ 0.89836 0.36732 0.785609 -0.08735
C_ C_ 0.868431 0.324133 0.782012 -0.05681
C_ C_ 0.856481 0.306984 0.753829 0.18498
C_ C_ 0.82446 0.264319 0.749153 -0.08735
C_ C_ 0.807819 0.235798 0.772828 -0.08735
C_ C_ 0.816025 0.254458 0.800723 -0.08735
C_ C_ 0.850425 0.29489 0.806288 0.18498
C_ C_ 0.820481 0.322359 0.853631 0.44287
C_ C_ 0.907568 0.303833 0.847111 0.44287
C_ C_ 0.917119 0.313045 0.876891 -0.05681
C_ C_ 0.964444 0.305149 0.889736 -0.08735
C_ C_ 0.973378 0.311943 0.918584 -0.08735
C_ C_ 0.931918 0.320023 0.936019 -0.05681
C_ C_ 0.882429 0.325775 0.924879 -0.05681
C_ C_ 0.875211 0.324499 0.895184 -0.05681
C_ C_ 0.826921 0.330021 0.883359 -0.05681
C_ C_ 0.783566 0.337147 0.90095 -0.08735
C_ C_ 0.790844 0.330889 0.930826 -0.08735
C_ C_ 0.83926 0.330826 0.943045 -0.05681
C_ C_ 0.848782 0.336683 0.973275 0.44287
C_ C_ 0.937518 0.320396 0.966271 0.44287
C_ C_ 0.909886 0.342785 0.513312 0.18498
C_ C_ 0.941661 0.382089 0.521109 -0.08735
C_ C_ 0.949279 0.396634 0.549567 -0.08735
C_ C_ 0.925037 0.371424 0.570498 -0.08735
C_ C_ 0.891642 0.331267 0.564169 0.18498
C_ C_ 0.885382 0.316155 0.535832 -0.05681
C_ C_ 0.85693 0.271721 0.531153 -0.08735
C_ C_ 0.829778 0.250206 0.553602 -0.08735
C_ C_ 0.836002 0.266288 0.581853 0.1947
N_ N_ 0.645032 0.170807 0.976172 -0.29468
N_ N_ 0.641275 0.186443 0.579253 -0.17154
N_ N_ 0.625513 0.179096 0.728732 -0.17154
N_ N_ 0.637684 0.208747 0.833244 -0.29468
N_ N_ 0.875322 0.333509 0.731063 -0.29468
N_ N_ 0.859736 0.308662 0.836295 -0.17154
N_ N_ 0.897524 0.330838 0.983177 -0.17154
N_ N_ 0.870425 0.304294 0.587171 -0.29468
O_ O_ 0.722393 0.182163 0.92715 -0.58347
O_ O_ 0.713451 0.197651 0.880778 -0.58347
O_ O_ 0.651921 0.258964 0.933907 -0.58347
O_ O_ 0.619846 0.265811 0.8896 -0.58347
O_ O_ 0.644257 0.110807 0.921005 -0.58347
O_ O_ 0.648998 0.117563 0.873936 -0.58347
O_ O_ 0.572247 0.186543 0.927807 -0.58347
O_ O_ 0.562996 0.183579 0.882217 -0.58347
O_ O_ 0.558183 0.216049 0.576266 -0.46727
O_ O_ 0.72781 0.17413 0.582732 -0.46727
O_ O_ 0.5383 0.185487 0.725984 -0.46727
O_ O_ 0.712544 0.182283 0.731505 -0.46727
O_ O_ 0.795864 0.309816 0.685086 -0.58347
O_ O_ 0.804352 0.320355 0.637885 -0.58347
O_ O_ 0.878082 0.242417 0.687697 -0.58347
O_ O_ 0.876797 0.236654 0.640676 -0.58347
O_ O_ 0.863754 0.391843 0.678425 -0.58347
O_ O_ 0.877412 0.386649 0.631847 -0.58347
O_ O_ 0.943717 0.326759 0.68028 -0.58347
O_ O_ 0.950145 0.30721 0.635354 -0.58347
O_ O_ 0.943855 0.286035 0.831422 -0.46727
O_ O_ 0.774694 0.328243 0.840903 -0.46727
O_ O_ 0.983315 0.315161 0.978309 -0.46727
O_ O_ 0.810401 0.346377 0.990842 -0.46727
Zn Zn 0.621838 0.685211 0.380217 0.90689
Zn Zn 0.630008 0.683853 0.429523 0.90689
Zn Zn 0.870759 0.813286 0.134325 0.90689
Zn Zn 0.863821 0.822361 0.183071 0.90689
H_ H_ 0.805878 0.728062 0.438788 0.11455
H_ H_ 0.870423 0.672993 0.344701 0.11455
H_ H_ 0.776743 0.668975 0.351965 0.11455
H_ H_ 0.886779 0.710869 0.460562 0.11455
H_ H_ 0.978232 0.698846 0.452594 0.11455
H_ H_ 0.952619 0.681895 0.364282 0.11455
H_ H_ 0.644977 0.517984 0.439194 0.11455
H_ H_ 0.62341 0.926163 0.34928 0.11455
H_ H_ 0.627353 0.526271 0.347585 0.11455
H_ H_ 0.656391 0.931156 0.466282 0.11455
H_ H_ 0.644495 0.835757 0.461499 0.11455
H_ H_ 0.595134 0.847416 0.374885 0.11455
H_ H_ 0.579921 0.605464 0.462349 0.11455
H_ H_ 0.563369 0.581047 0.0183223 0.11455
H_ H_ 0.609674 0.62262 0.056294 0.11455
H_ H_ 0.698841 0.740271 0.472487 0.11455
H_ H_ 0.706916 0.809468 0.0131507 0.11455
H_ H_ 0.689839 0.785884 0.0604398 0.11455
H_ H_ 0.5106 0.704083 0.124438 0.11455
H_ H_ 0.497864 0.679911 0.174647 0.11455
H_ H_ 0.761756 0.687148 0.138113 0.11455
H_ H_ 0.755256 0.668918 0.188407 0.11455
H_ H_ 0.583873 0.585711 0.249375 0.11455
H_ H_ 0.552366 0.565671 0.299246 0.11455
H_ H_ 0.562363 0.623791 0.338709 0.11455
H_ H_ 0.660383 0.746674 0.25838 0.11455
H_ H_ 0.680961 0.797892 0.300307 0.11455
H_ H_ 0.652903 0.778514 0.345373 0.11455
H_ H_ 0.694073 0.813769 0.196519 0.11455
H_ H_ 0.628264 0.856431 0.101838 0.11455
H_ H_ 0.721164 0.844538 0.105806 0.11455
H_ H_ 0.61192 0.794417 0.215603 0.11455
H_ H_ 0.52095 0.795944 0.20723 0.11455
H_ H_ 0.544049 0.847601 0.119757 0.11455
H_ H_ 0.872176 0.987582 0.19108 0.11455
H_ H_ 0.819524 0.571501 0.104093 0.11455
H_ H_ 0.828516 0.980042 0.102817 0.11455
H_ H_ 0.885011 0.571199 0.216784 0.11455
H_ H_ 0.904912 0.66222 0.210821 0.11455
H_ H_ 0.838908 0.658307 0.125373 0.11455
H_ H_ 0.923901 0.890761 0.214531 0.11455
H_ H_ 0.943683 0.923227 0.262893 0.11455
H_ H_ 0.905594 0.883994 0.306045 0.11455
H_ H_ 0.799615 0.767301 0.227923 0.11455
H_ H_ 0.772555 0.707564 0.267696 0.11455
H_ H_ 0.798748 0.731344 0.316177 0.11455
H_ H_ 0.983881 0.806359 0.375023 0.11455
H_ H_ -0.004750000000000032 0.802525 0.426253 0.11455
H_ H_ 0.738969 0.863015 0.388572 0.11455
H_ H_ 0.753063 0.879115 0.437995 0.11455
H_ H_ 0.942032 0.925603 0.504586 0.11455
H_ H_ 0.968626 0.917267 0.0514325 0.11455
H_ H_ 0.92987 0.876402 0.0902438 0.11455
H_ H_ 0.828168 0.757688 0.00965681 0.11455
H_ H_ 0.804681 0.698966 0.0500743 0.11455
H_ H_ 0.821997 0.73139 0.0985229 0.11455
C_ C_ 0.725514 0.693533 0.402525 0.68181
C_ C_ 0.780913 0.692553 0.398061 -0.05681
C_ C_ 0.81529 0.709232 0.419808 -0.08735
C_ C_ 0.869018 0.700449 0.416454 -0.05681
C_ C_ 0.887281 0.686926 0.389187 -0.05681
C_ C_ 0.854002 0.682315 0.365755 -0.08735
C_ C_ 0.801369 0.678452 0.370716 -0.08735
C_ C_ 0.902701 0.703681 0.439842 -0.08735
C_ C_ 0.952991 0.694136 0.43548 -0.08735
C_ C_ 0.974531 0.683973 0.407856 -0.05681
C_ C_ 0.939973 0.680769 0.384486 -0.08735
C_ C_ 0.615477 0.779837 0.416582 0.68181
C_ C_ 0.638602 0.583193 0.396679 0.68181
C_ C_ 0.642041 0.527034 0.394336 -0.05681
C_ C_ 0.649513 0.994611 0.421169 -0.08735
C_ C_ 0.640678 0.942293 0.42025 -0.05681
C_ C_ 0.623413 0.918125 0.394761 -0.05681
C_ C_ 0.62814 0.944466 0.369128 -0.08735
C_ C_ 0.633368 0.99752089 0.369223 -0.08735
C_ C_ 0.645958 0.913649 0.445084 -0.08735
C_ C_ 0.641408 0.859274 0.443071 -0.08735
C_ C_ 0.62017 0.836454 0.417902 -0.05681
C_ C_ 0.610042 0.866497 0.394566 -0.08735
C_ C_ 0.528077 0.679164 0.406927 0.68181
C_ C_ 0.599591 0.622901 0.479219 0.1947
C_ C_ 0.586027 0.613423 0.0124971 -0.08735
C_ C_ 0.613814 0.637729 0.0341665 -0.08735
C_ C_ 0.634605 0.686494 0.0278919 -0.05681
C_ C_ 0.638558 0.702178 0.999214585 0.18498
C_ C_ 0.684146 0.729687 0.493416 -0.08735
C_ C_ 0.680838 0.778536 0.0173978 -0.08735
C_ C_ 0.674184 0.762223 0.0450335 -0.08735
C_ C_ 0.651186 0.715931 0.0521001 0.18498
C_ C_ 0.68515 0.695238 0.0987535 0.44287
C_ C_ 0.597528 0.705623 0.0948748 0.44287
C_ C_ 0.590884 0.695788 0.124827 -0.05681
C_ C_ 0.542519 0.695168 0.137541 -0.08735
C_ C_ 0.534794 0.680753 0.165816 -0.08735
C_ C_ 0.578222 0.675551 0.18379 -0.05681
C_ C_ 0.627016 0.676267 0.170879 -0.05681
C_ C_ 0.63238 0.682706 0.141269 -0.05681
C_ C_ 0.681875 0.684868 0.128575 -0.05681
C_ C_ 0.724585 0.681497 0.146262 -0.08735
C_ C_ 0.718919 0.672862 0.17559 -0.08735
C_ C_ 0.671869 0.672144 0.188847 -0.05681
C_ C_ 0.664989 0.67241 0.219047 0.44287
C_ C_ 0.575259 0.675994 0.214768 0.44287
C_ C_ 0.609854 0.658152 0.260869 0.18498
C_ C_ 0.592094 0.609533 0.267401 -0.08735
C_ C_ 0.572082 0.600669 0.295472 -0.08735
C_ C_ 0.580974 0.632695 0.319061 -0.08735
C_ C_ 0.605464 0.678336 0.312821 0.18498
C_ C_ 0.618371 0.692205 0.284068 -0.05681
C_ C_ 0.64446 0.736984 0.279717 -0.08735
C_ C_ 0.665537 0.762646 0.302918 -0.08735
C_ C_ 0.651261 0.750875 0.329894 0.1947
C_ C_ 0.770768 0.819459 0.155639 0.68181
C_ C_ 0.715538 0.829758 0.153426 -0.05681
C_ C_ 0.680983 0.826392 0.176802 -0.08735
C_ C_ 0.629246 0.818913 0.171637 -0.05681
C_ C_ 0.6106 0.83683 0.145145 -0.05681
C_ C_ 0.643537 0.847675 0.122163 -0.08735
C_ C_ 0.69636 0.840468 0.12594 -0.08735
C_ C_ 0.597423 0.805756 0.194378 -0.08735
C_ C_ 0.545687 0.81191 0.190898 -0.08735
C_ C_ 0.524554 0.824596 0.163279 -0.05681
C_ C_ 0.558002 0.835264 0.14035 -0.08735
C_ C_ 0.876309 0.720969 0.166942 0.68181
C_ C_ 0.85642 0.91561 0.150232 0.68181
C_ C_ 0.8591 0.97387 0.147202 -0.05681
C_ C_ 0.855322 0.509805 0.177225 -0.08735
C_ C_ 0.854334 0.562354 0.174514 -0.05681
C_ C_ 0.8395 0.585695 0.148719 -0.05681
C_ C_ 0.828952 0.554704 0.124829 -0.08735
C_ C_ 0.848092 0.999088 0.120064 -0.08735
C_ C_ 0.877438 0.590967 0.196209 -0.08735
C_ C_ 0.886544 0.640673 0.193375 -0.08735
C_ C_ 0.867251 0.666268 0.169136 -0.05681
C_ C_ 0.846387 0.639446 0.145576 -0.08735
C_ C_ 0.966864 0.828944 0.16117 0.68181
C_ C_ 0.904575 0.876243 0.233487 0.1947
C_ C_ 0.918061 0.891597 0.260583 -0.08735
C_ C_ 0.897423 0.867333 0.285498 -0.08735
C_ C_ 0.863784 0.825451 0.282084 -0.05681
C_ C_ 0.849448 0.812222 0.252938 0.18498
C_ C_ 0.814953 0.773556 0.248726 -0.08735
C_ C_ 0.797515 0.742294 0.271635 -0.08735
C_ C_ 0.807798 0.757004 0.300701 -0.08735
C_ C_ 0.841724 0.798011 0.305618 0.18498
C_ C_ 0.811103 0.829298 0.35113 0.44287
C_ C_ 0.898781 0.808873 0.346088 0.44287
C_ C_ 0.904809 0.818322 0.375863 -0.05681
C_ C_ 0.951093 0.80985 0.388565 -0.08735
C_ C_ 0.958746 0.812853 0.418058 -0.08735
C_ C_ 0.919536 0.831913 0.436073 -0.05681
C_ C_ 0.870927 0.837693 0.423069 -0.05681
C_ C_ 0.863551 0.832326 0.393641 -0.05681
C_ C_ 0.816533 0.839688 0.380937 -0.05681
C_ C_ 0.776546 0.855938 0.398104 -0.08735
C_ C_ 0.78429 0.861065 0.427304 -0.08735
C_ C_ 0.830065 0.850312 0.440586 -0.05681
C_ C_ 0.83741 0.858297 0.470547 0.44287
C_ C_ 0.926632 0.841439 0.466096 0.44287
C_ C_ 0.896554 0.838097 0.0125519 0.18498
C_ C_ 0.926899 0.879329 0.0185317 -0.08735
C_ C_ 0.940467 0.889797 0.0460396 -0.08735
C_ C_ 0.918943 0.865792 0.0688183 -0.08735
C_ C_ 0.886038 0.823403 0.0641468 0.18498
C_ C_ 0.876718 0.808233 0.0357935 -0.05681
C_ C_ 0.843526 0.766986 0.0308622 -0.08735
C_ C_ 0.825888 0.736169 0.0529304 -0.08735
C_ C_ 0.838036 0.754121 0.0813004 0.1947
N_ N_ 0.632897 0.661781 0.475701 -0.29468
N_ N_ 0.645434 0.702494 0.082164 -0.17154
N_ N_ 0.61739 0.670948 0.230563 -0.17154
N_ N_ 0.62377 0.707545 0.334678 -0.29468
N_ N_ 0.868632 0.83971 0.230317 -0.29468
N_ N_ 0.852277 0.81423 0.334353 -0.17154
N_ N_ 0.884572 0.849857 0.48308 -0.17154
N_ N_ 0.864449 0.797118 0.0864406 -0.29468
O_ O_ 0.706395 0.685686 0.426565 -0.58347
O_ O_ 0.697077 0.694707 0.380934 -0.58347
O_ O_ 0.624525 0.753193 0.438324 -0.58347
O_ O_ 0.616517 0.756178 0.391753 -0.58347
O_ O_ 0.632923 0.605201 0.421011 -0.58347
O_ O_ 0.635473 0.610341 0.373892 -0.58347
O_ O_ 0.555654 0.676493 0.428528 -0.58347
O_ O_ 0.546738 0.67647 0.383265 -0.58347
O_ O_ 0.558759 0.718315 0.0798842 -0.46727
O_ O_ 0.728197 0.690498 0.0863027 -0.46727
O_ O_ 0.52905 0.675703 0.227495 -0.46727
O_ O_ 0.705469 0.673152 0.236459 -0.46727
O_ O_ 0.791923 0.819202 0.179786 -0.58347
O_ O_ 0.795874 0.804482 0.13349 -0.58347
O_ O_ 0.869099 0.748648 0.188913 -0.58347
O_ O_ 0.886164 0.739868 0.142051 -0.58347
O_ O_ 0.85487 0.892342 0.174837 -0.58347
O_ O_ 0.861884 0.888311 0.128164 -0.58347
O_ O_ 0.938353 0.825209 0.182358 -0.58347
O_ O_ 0.948781 0.821796 0.137116 -0.58347
O_ O_ 0.936297 0.790457 0.330401 -0.46727
O_ O_ 0.767241 0.836504 0.338182 -0.46727
O_ O_ 0.968224 0.824651 0.478736 -0.46727
O_ O_ 0.799123 0.874114 0.486922 -0.46727
Zn Zn 0.61631 0.68867 0.879901 0.90689
Zn Zn 0.624201 0.683769 0.92834 0.90689
Zn Zn 0.86272 0.810004 0.632861 0.90689
Zn Zn 0.853758 0.817388 0.682569 0.90689
H_ H_ 0.794927 0.675376 0.946008 0.11455
H_ H_ 0.875033 0.681813 0.847598 0.11455
H_ H_ 0.780231 0.684265 0.853559 0.11455
H_ H_ 0.881689 0.672554 0.966527 0.11455
H_ H_ 0.970657 0.684075 0.959475 0.11455
H_ H_ 0.955303 0.686651 0.868917 0.11455
H_ H_ 0.627466 0.515695 0.946815 0.11455
H_ H_ 0.593865 0.948151 0.845146 0.11455
H_ H_ 0.617459 0.525973 0.856205 0.11455
H_ H_ 0.661242 0.934402 0.959193 0.11455
H_ H_ 0.652252 0.842433 0.950963 0.11455
H_ H_ 0.5951 0.858942 0.866751 0.11455
H_ H_ 0.566534 0.613742 0.966522 0.11455
H_ H_ 0.561916 0.577542 0.511968 0.11455
H_ H_ 0.602308 0.614365 0.552444 0.11455
H_ H_ 0.662428 0.762901 0.972448 0.11455
H_ H_ 0.729669 0.788657 0.514078 0.11455
H_ H_ 0.725954 0.751433 0.562195 0.11455
H_ H_ 0.520447 0.685166 0.622068 0.11455
H_ H_ 0.509513 0.664247 0.673337 0.11455
H_ H_ 0.773625 0.671485 0.638936 0.11455
H_ H_ 0.762867 0.674495 0.691839 0.11455
H_ H_ 0.57217 0.590123 0.744907 0.11455
H_ H_ 0.543052 0.565216 0.793865 0.11455
H_ H_ 0.568382 0.6173 0.833021 0.11455
H_ H_ 0.678878 0.735566 0.756837 0.11455
H_ H_ 0.681477 0.795843 0.796643 0.11455
H_ H_ 0.65994 0.771384 0.843288 0.11455
H_ H_ 0.683372 0.793641 0.693802 0.11455
H_ H_ 0.620621 0.838643 0.596014 0.11455
H_ H_ 0.712956 0.843696 0.606712 0.11455
H_ H_ 0.598881 0.797756 0.711825 0.11455
H_ H_ 0.505679 0.793304 0.702063 0.11455
H_ H_ 0.536491 0.838068 0.612618 0.11455
H_ H_ 0.832461 0.988057 0.695211 0.11455
H_ H_ 0.836557 0.558382 0.603767 0.11455
H_ H_ 0.916903 0.959196 0.617265 0.11455
H_ H_ 0.898336 0.574414 0.716179 0.11455
H_ H_ 0.898988 0.667591 0.708877 0.11455
H_ H_ 0.865689 0.643112 0.618803 0.11455
H_ H_ 0.906481 0.898905 0.712787 0.11455
H_ H_ 0.932416 0.920519 0.762787 0.11455
H_ H_ 0.900548 0.87447 0.804422 0.11455
H_ H_ 0.807117 0.750766 0.724116 0.11455
H_ H_ 0.768066 0.70545 0.764821 0.11455
H_ H_ 0.79374 0.724357 0.812572 0.11455
H_ H_ 0.988474 0.782465 0.874521 0.11455
H_ H_ 1.00241 0.800531 0.92374 0.11455
H_ H_ 0.740164 0.8203 0.889324 0.11455
H_ H_ 0.748301 0.831462 0.942567 0.11455
H_ H_ 0.94741 0.895702 1.00136963 0.11455
H_ H_ 0.961789 0.938605 0.553605 0.11455
H_ H_ 0.933769 0.874242 0.592451 0.11455
H_ H_ 0.841295 0.776346 0.502248 0.11455
H_ H_ 0.809414 0.713445 0.538772 0.11455
H_ H_ 0.823422 0.730501 0.589451 0.11455
C_ C_ 0.721911 0.688295 0.902515 0.68181
C_ C_ 0.779423 0.685163 0.89964 -0.05681
C_ C_ 0.809884 0.674954 0.923501 -0.08735
C_ C_ 0.864153 0.673525 0.920716 -0.05681
C_ C_ 0.884845 0.677421 0.893183 -0.05681
C_ C_ 0.854632 0.682119 0.868998 -0.08735
C_ C_ 0.802807 0.687764 0.873236 -0.08735
C_ C_ 0.895892 0.674293 0.944609 -0.08735
C_ C_ 0.948173 0.679129 0.940411 -0.08735
C_ C_ 0.970579 0.67672 0.913961 -0.05681
C_ C_ 0.938584 0.674633 0.890157 -0.08735
C_ C_ 0.615968 0.784707 0.908002 0.68181
C_ C_ 0.622841 0.585274 0.902968 0.68181
C_ C_ 0.629629 0.529332 0.902212 -0.05681
C_ C_ 0.648167 0.00166919 0.916918 -0.08735
C_ C_ 0.635969 0.949616 0.914919 -0.05681
C_ C_ 0.618376 0.92781 0.888574 -0.05681
C_ C_ 0.610543 0.961527 0.864277 -0.08735
C_ C_ 0.627441 0.0116314 0.865518 -0.08735
C_ C_ 0.647632 0.918862 0.938085 -0.08735
C_ C_ 0.638389 0.86614 0.934814 -0.08735
C_ C_ 0.617665 0.843719 0.910444 -0.05681
C_ C_ 0.607703 0.875435 0.886878 -0.08735
C_ C_ 0.522097 0.674492 0.90503 0.68181
C_ C_ 0.58758 0.634215 0.983815 0.1947
C_ C_ 0.587437 0.608518 0.507401 -0.08735
C_ C_ 0.611451 0.631205 0.531205 -0.08735
C_ C_ 0.645243 0.669109 0.526642 -0.05681
C_ C_ 0.65476 0.686111 0.498116 0.18498
C_ C_ 0.663298 0.748623 0.994086 -0.08735
C_ C_ 0.703534 0.755551 0.517567 -0.08735
C_ C_ 0.698693 0.737515 0.546147 -0.08735
C_ C_ 0.663505 0.698939 0.551153 0.18498
C_ C_ 0.696744 0.677271 0.598664 0.44287
C_ C_ 0.609085 0.693416 0.593364 0.44287
C_ C_ 0.602689 0.685201 0.622956 -0.05681
C_ C_ 0.554203 0.67774 0.635381 -0.08735
C_ C_ 0.547839 0.674799 0.665078 -0.08735
C_ C_ 0.591538 0.676196 0.683019 -0.05681
C_ C_ 0.640886 0.675216 0.670748 -0.05681
C_ C_ 0.645749 0.679872 0.640633 -0.05681
C_ C_ 0.693719 0.677568 0.628259 -0.05681
C_ C_ 0.735833 0.674343 0.647225 -0.08735
C_ C_ 0.731115 0.673531 0.677118 -0.08735
C_ C_ 0.682808 0.670407 0.68815 -0.05681
C_ C_ 0.675081 0.659028 0.717902 0.44287
C_ C_ 0.587068 0.671245 0.712296 0.44287
C_ C_ 0.620126 0.648863 0.758897 0.18498
C_ C_ 0.589866 0.607386 0.763718 -0.08735
C_ C_ 0.573088 0.594421 0.791058 -0.08735
C_ C_ 0.585831 0.625745 0.814093 -0.08735
C_ C_ 0.617495 0.667185 0.810171 0.18498
C_ C_ 0.636432 0.67898 0.781925 -0.05681
C_ C_ 0.662818 0.72467 0.777446 -0.08735
C_ C_ 0.667253 0.758075 0.799419 -0.08735
C_ C_ 0.652075 0.743589 0.826365 0.1947
C_ C_ 0.75964 0.810403 0.653844 0.68181
C_ C_ 0.704202 0.815954 0.650366 -0.05681
C_ C_ 0.669479 0.803171 0.673085 -0.08735
C_ C_ 0.618149 0.808231 0.667719 -0.05681
C_ C_ 0.600082 0.819652 0.639925 -0.05681
C_ C_ 0.635788 0.830487 0.617453 -0.08735
C_ C_ 0.687268 0.831815 0.624115 -0.08735
C_ C_ 0.584608 0.805712 0.69036 -0.08735
C_ C_ 0.532152 0.808193 0.685149 -0.08735
C_ C_ 0.513009 0.818753 0.656223 -0.05681
C_ C_ 0.547772 0.827531 0.634265 -0.08735
C_ C_ 0.87011 0.716647 0.66135 0.68181
C_ C_ 0.858684 0.912028 0.65642 0.68181
C_ C_ 0.870929 0.967304 0.656351 -0.05681
C_ C_ 0.88089 0.501729 0.676381 -0.08735
C_ C_ 0.883307 0.555176 0.672873 -0.05681
C_ C_ 0.868117 0.576216 0.645015 -0.05681
C_ C_ 0.843431 0.545268 0.625083 -0.08735
C_ C_ 0.901125 0.985653 0.633679 -0.08735
C_ C_ 0.895612 0.589261 0.694487 -0.08735
C_ C_ 0.891819 0.641971 0.690944 -0.08735
C_ C_ 0.88184 0.662212 0.663898 -0.05681
C_ C_ 0.873084 0.629827 0.640129 -0.08735
C_ C_ 0.957458 0.826612 0.661603 0.68181
C_ C_ 0.890751 0.876682 0.732167 0.1947
C_ C_ 0.904484 0.891178 0.760337 -0.08735
C_ C_ 0.890001 0.862078 0.78403 -0.08735
C_ C_ 0.858319 0.818358 0.779458 -0.05681
C_ C_ 0.844912 0.805991 0.751102 0.18498
C_ C_ 0.812138 0.76563 0.745945 -0.08735
C_ C_ 0.795488 0.735765 0.768824 -0.08735
C_ C_ 0.811305 0.744359 0.796367 -0.08735
C_ C_ 0.843289 0.78507 0.802993 0.18498
C_ C_ 0.813058 0.809398 0.850868 0.44287
C_ C_ 0.900876 0.790386 0.846397 0.44287
C_ C_ 0.90888 0.80555 0.875377 -0.05681
C_ C_ 0.954762 0.794042 0.888173 -0.08735
C_ C_ 0.963513 0.803777 0.916844 -0.08735
C_ C_ 0.923204 0.814601 0.934875 -0.05681
C_ C_ 0.874029 0.820672 0.922443 -0.05681
C_ C_ 0.868219 0.816335 0.892422 -0.05681
C_ C_ 0.818406 0.81921 0.880269 -0.05681
C_ C_ 0.775859 0.825443 0.89808 -0.08735
C_ C_ 0.78252 0.831991 0.927839 -0.08735
C_ C_ 0.831433 0.826432 0.940115 -0.05681
C_ C_ 0.841112 0.832073 0.969905 0.44287
C_ C_ 0.928366 0.813648 0.964966 0.44287
C_ C_ 0.891734 0.860004 0.512183 0.18498
C_ C_ 0.922646 0.900654 0.521074 -0.08735
C_ C_ 0.932485 0.910749 0.549888 -0.08735
C_ C_ 0.916834 0.872608 0.569939 -0.08735
C_ C_ 0.887752 0.830575 0.562123 0.18498
C_ C_ 0.876958 0.823317 0.532995 -0.05681
C_ C_ 0.849641 0.779299 0.524866 -0.08735
C_ C_ 0.833554 0.745081 0.545269 -0.08735
C_ C_ 0.838334 0.756406 0.574065 0.1947
N_ N_ 0.615543 0.67629 0.976957 -0.29468
N_ N_ 0.654937 0.685049 0.581265 -0.17154
N_ N_ 0.628008 0.66466 0.730375 -0.17154
N_ N_ 0.623712 0.701807 0.831562 -0.29468
N_ N_ 0.859254 0.835266 0.728854 -0.29468
N_ N_ 0.853767 0.797352 0.833518 -0.17154
N_ N_ 0.887745 0.826049 0.98157 -0.17154
N_ N_ 0.865763 0.79815 0.582616 -0.29468
O_ O_ 0.700716 0.686689 0.926311 -0.58347
O_ O_ 0.693991 0.692934 0.880661 -0.58347
O_ O_ 0.620517 0.758113 0.930373 -0.58347
O_ O_ 0.612948 0.76363 0.883494 -0.58347
O_ O_ 0.631164 0.60834 0.926652 -0.58347
O_ O_ 0.62104 0.610025 0.879357 -0.58347
O_ O_ 0.548675 0.680158 0.926401 -0.58347
O_ O_ 0.541756 0.681072 0.880815 -0.58347
O_ O_ 0.57062 0.710107 0.577623 -0.46727
O_ O_ 0.740577 0.670585 0.586679 -0.46727
O_ O_ 0.543488 0.685353 0.724467 -0.46727
O_ O_ 0.714902 0.650573 0.734544 -0.46727
O_ O_ 0.777948 0.803399 0.678952 -0.58347
O_ O_ 0.786445 0.808733 0.631125 -0.58347
O_ O_ 0.865768 0.74425 0.683355 -0.58347
O_ O_ 0.8664 0.736286 0.636901 -0.58347
O_ O_ 0.843145 0.891652 0.678892 -0.58347
O_ O_ 0.86859 0.885119 0.634687 -0.58347
O_ O_ 0.928667 0.831493 0.682769 -0.58347
O_ O_ 0.938477 0.811194 0.638095 -0.58347
O_ O_ 0.935554 0.768379 0.831035 -0.46727
O_ O_ 0.76753 0.814475 0.838889 -0.46727
O_ O_ 0.973736 0.805193 0.977028 -0.46727
O_ O_ 0.802725 0.843974 0.98645 -0.46727
_cell_length_a 26.376
_cell_length_b 26.400000238300095
_cell_length_c 46.67800035477134
_cell_angle_alpha 90.00700052986613
_cell_angle_beta 89.99899961309502
_cell_angle_gamma 90.45000003183146
_symmetry_space_group_name_H-M         'P 1'
_symmetry_Int_Tables_number            1
loop_
_symmetry_equiv_pos_as_xyz
   'x, y, z'
                         
loop_
_atom_site_label
_atom_site_type_symbol
_atom_site_fract_x 
_atom_site_fract_y
_atom_site_fract_z
_atom_site_charge
Zn Zn 0.122003 0.187324 0.382783 0.90689
Zn Zn 0.133968 0.181145 0.429999 0.90689
Zn Zn 0.369364 0.32147 0.129646 0.90689
Zn Zn 0.358513 0.324912 0.17711 0.90689
H_ H_ 0.302869 0.199783 0.442057 0.11455
H_ H_ 0.367964 0.169187 0.344351 0.11455
H_ H_ 0.271669 0.168233 0.353747 0.11455
H_ H_ 0.389439 0.199104 0.461772 0.11455
H_ H_ 0.483125 0.203107 0.450279 0.11455
H_ H_ 0.454211 0.184224 0.361044 0.11455
H_ H_ 0.161027 0.0184356 0.440048 0.11455
H_ H_ 0.101833 0.435069 0.349633 0.11455
H_ H_ 0.121522 0.0280252 0.35374 0.11455
H_ H_ 0.149544 0.435205 0.465218 0.11455
H_ H_ 0.148533 0.343537 0.461176 0.11455
H_ H_ 0.0992769 0.352731 0.371398 0.11455
H_ H_ 0.0741735 0.105778 0.468448 0.11455
H_ H_ 0.0519127 0.0826493 0.0137203 0.11455
H_ H_ 0.0901669 0.126591 0.0534006 0.11455
H_ H_ 0.200241 0.236321 0.473568 0.11455
H_ H_ 0.229353 0.287857 0.0118441 0.11455
H_ H_ 0.2088 0.271456 0.0594609 0.11455
H_ H_ 0.0129059 0.218271 0.122887 0.11455
H_ H_ 0.0011900000000000244 0.202801 0.173298 0.11455
H_ H_ 0.260401 0.156364 0.139167 0.11455
H_ H_ 0.247298 0.148534 0.18974 0.11455
H_ H_ 0.0586227 0.0957788 0.249338 0.11455
H_ H_ 0.0164777 0.0870489 0.294078 0.11455
H_ H_ 0.0591458 0.125311 0.335409 0.11455
H_ H_ 0.156591 0.249543 0.257446 0.11455
H_ H_ 0.181876 0.299193 0.297794 0.11455
H_ H_ 0.169646 0.264805 0.347139 0.11455
H_ H_ 0.193434 0.305507 0.19405 0.11455
H_ H_ 0.123015 0.339443 0.097327 0.11455
H_ H_ 0.213258 0.335652 0.104058 0.11455
H_ H_ 0.103688 0.31485 0.214853 0.11455
H_ H_ 0.011305 0.317464 0.208634 0.11455
H_ H_ 0.0364836 0.355447 0.119303 0.11455
H_ H_ 0.35141 0.485431 0.187293 0.11455
H_ H_ 0.388125 0.0734487 0.0974143 0.11455
H_ H_ 0.373313 0.483267 0.0965911 0.11455
H_ H_ 0.3731 0.0750299 0.214841 0.11455
H_ H_ 0.364719 0.16276 0.213092 0.11455
H_ H_ 0.375601 0.156911 0.118868 0.11455
H_ H_ 0.424058 0.384783 0.213298 0.11455
H_ H_ 0.430621 0.429316 0.260608 0.11455
H_ H_ 0.379455 0.393684 0.300104 0.11455
H_ H_ 0.307168 0.256943 0.221769 0.11455
H_ H_ 0.279485 0.204518 0.262034 0.11455
H_ H_ 0.297266 0.225914 0.311186 0.11455
H_ H_ 0.486775 0.305138 0.365724 0.11455
H_ H_ 0.503984 0.318802 0.417355 0.11455
H_ H_ 0.233355 0.317772 0.389664 0.11455
H_ H_ 0.247736 0.326417 0.440944 0.11455
H_ H_ 0.454548 0.399722 0.500108 0.11455
H_ H_ 0.471561 0.41991 0.0443739 0.11455
H_ H_ 0.430962 0.37919 0.0852739 0.11455
H_ H_ 0.3662 0.232109 0.0112494 0.11455
H_ H_ 0.322966 0.192448 0.0494285 0.11455
H_ H_ 0.317072 0.23556 0.0968489 0.11455
C_ C_ 0.227548 0.192133 0.403452 0.68181
C_ C_ 0.282283 0.192495 0.397732 -0.05681
C_ C_ 0.316922 0.193276 0.420774 -0.08735
C_ C_ 0.369196 0.188232 0.416408 -0.05681
C_ C_ 0.387878 0.185774 0.388282 -0.05681
C_ C_ 0.353153 0.178417 0.365581 -0.08735
C_ C_ 0.300479 0.17715 0.371039 -0.08735
C_ C_ 0.404649 0.196251 0.438976 -0.08735
C_ C_ 0.456226 0.193036 0.434393 -0.08735
C_ C_ 0.4757 0.185324 0.406603 -0.05681
C_ C_ 0.441536 0.18575 0.382608 -0.08735
C_ C_ 0.125954 0.2825 0.413827 0.68181
C_ C_ 0.130478 0.0864138 0.399863 0.68181
C_ C_ 0.129616 0.0286873 0.39816 -0.05681
C_ C_ 0.14559 0.497941 0.419179 -0.08735
C_ C_ 0.133703 0.446061 0.419458 -0.05681
C_ C_ 0.120785 0.421856 0.392992 -0.05681
C_ C_ 0.11061 0.453268 0.369687 -0.08735
C_ C_ 0.114205 0.504588 0.371406 -0.08735
C_ C_ 0.141966 0.416872 0.444394 -0.08735
C_ C_ 0.138334 0.36442 0.442556 -0.08735
C_ C_ 0.126372 0.33877 0.415271 -0.05681
C_ C_ 0.115646 0.368691 0.390849 -0.08735
C_ C_ 0.0281213 0.176878 0.40915 0.68181
C_ C_ 0.0945738 0.125783 0.485179 0.1947
C_ C_ 0.0765533 0.116125 0.0088659 -0.08735
C_ C_ 0.0969198 0.139527 0.0327385 -0.08735
C_ C_ 0.133959 0.179542 0.0281481 -0.05681
C_ C_ 0.149316 0.190178 0.999728 0.18498
C_ C_ 0.191884 0.22226 0.49482 -0.08735
C_ C_ 0.200558 0.26055 0.0150027 -0.08735
C_ C_ 0.188562 0.250217 0.0432627 -0.08735
C_ C_ 0.158354 0.208395 0.0513528 0.18498
C_ C_ 0.189765 0.184691 0.0991416 0.44287
C_ C_ 0.103026 0.204014 0.0930216 0.44287
C_ C_ 0.0943209 0.203227 0.123226 -0.05681
C_ C_ 0.0469796 0.209808 0.135693 -0.08735
C_ C_ 0.0388807 0.200873 0.16427 -0.08735
C_ C_ 0.0801513 0.201748 0.182969 -0.05681
C_ C_ 0.130189 0.195164 0.172063 -0.05681
C_ C_ 0.135251 0.192537 0.141316 -0.05681
C_ C_ 0.183698 0.18217 0.129513 -0.05681
C_ C_ 0.222513 0.16495 0.148301 -0.08735
C_ C_ 0.215148 0.163389 0.17785 -0.08735
C_ C_ 0.169116 0.178281 0.190339 -0.05681
C_ C_ 0.158382 0.167222 0.219198 0.44287
C_ C_ 0.0729186 0.192744 0.211812 0.44287
C_ C_ 0.0994427 0.162953 0.25886 0.18498
C_ C_ 0.0638041 0.124263 0.264936 -0.08735
C_ C_ 0.0501726 0.113027 0.292258 -0.08735
C_ C_ 0.0742145 0.134753 0.315675 -0.08735
C_ C_ 0.106762 0.177181 0.311188 0.18498
C_ C_ 0.11908 0.192793 0.282373 -0.05681
C_ C_ 0.152039 0.232102 0.278736 -0.08735
C_ C_ 0.165165 0.262318 0.301503 -0.08735
C_ C_ 0.153088 0.247252 0.329247 0.1947
C_ C_ 0.264261 0.321547 0.152792 0.68181
C_ C_ 0.207185 0.324033 0.149563 -0.05681
C_ C_ 0.174779 0.313882 0.173353 -0.08735
C_ C_ 0.122782 0.326359 0.170475 -0.05681
C_ C_ 0.103075 0.336364 0.143267 -0.05681
C_ C_ 0.137077 0.337691 0.119513 -0.08735
C_ C_ 0.189034 0.334367 0.123606 -0.08735
C_ C_ 0.0884532 0.321674 0.193806 -0.08735
C_ C_ 0.0374463 0.328873 0.191516 -0.08735
C_ C_ 0.0158755 0.338126 0.163678 -0.05681
C_ C_ 0.0485231 0.340301 0.140007 -0.08735
C_ C_ 0.365058 0.226163 0.163179 0.68181
C_ C_ 0.359486 0.422645 0.14185 0.68181
C_ C_ 0.363998 0.478688 0.141762 -0.05681
C_ C_ 0.36351 0.00978057 0.170407 -0.08735
C_ C_ 0.368805 0.0621028 0.16843 -0.05681
C_ C_ 0.374615 0.086473 0.141714 -0.05681
C_ C_ 0.383557 0.0553123 0.117611 -0.08735
C_ C_ 0.367526 0.504642 0.115804 -0.08735
C_ C_ 0.372381 0.0915995 0.192907 -0.08735
C_ C_ 0.370107 0.144885 0.19178 -0.08735
C_ C_ 0.369664 0.169815 0.165165 -0.05681
C_ C_ 0.371628 0.140243 0.139884 -0.08735
C_ C_ 0.463047 0.317724 0.152468 0.68181
C_ C_ 0.397457 0.376204 0.228926 0.1947
C_ C_ 0.403057 0.397506 0.255689 -0.08735
C_ C_ 0.378548 0.375078 0.279681 -0.08735
C_ C_ 0.351355 0.329674 0.276671 -0.05681
C_ C_ 0.342027 0.313834 0.247882 0.18498
C_ C_ 0.31503 0.270331 0.244146 -0.08735
C_ C_ 0.302649 0.237921 0.266257 -0.08735
C_ C_ 0.30647 0.252985 0.293984 -0.08735
C_ C_ 0.333891 0.300397 0.300217 0.18498
C_ C_ 0.305373 0.319634 0.347478 0.44287
C_ C_ 0.392234 0.309073 0.339654 0.44287
C_ C_ 0.404054 0.317118 0.369803 -0.05681
C_ C_ 0.454335 0.311403 0.380376 -0.08735
C_ C_ 0.464002 0.319949 0.410092 -0.08735
C_ C_ 0.422676 0.323947 0.428774 -0.05681
C_ C_ 0.371304 0.328305 0.417033 -0.05681
C_ C_ 0.362723 0.327856 0.387937 -0.05681
C_ C_ 0.312951 0.327136 0.377548 -0.05681
C_ C_ 0.272551 0.325438 0.397036 -0.08735
C_ C_ 0.281016 0.334498 0.426533 -0.08735
C_ C_ 0.330765 0.331852 0.437378 -0.05681
C_ C_ 0.342803 0.332329 0.466937 0.44287
C_ C_ 0.43115 0.324209 0.458636 0.44287
C_ C_ 0.402628 0.327549 0.0100209 0.18498
C_ C_ 0.435846 0.370147 0.0138978 -0.08735
C_ C_ 0.44073 0.390551 0.0415116 -0.08735
C_ C_ 0.413726 0.368992 0.0646946 -0.08735
C_ C_ 0.387585 0.322332 0.0608077 0.18498
C_ C_ 0.381222 0.301721 0.0330713 -0.05681
C_ C_ 0.357467 0.255256 0.0294615 -0.08735
C_ C_ 0.33171 0.233764 0.0526486 -0.08735
C_ C_ 0.336645 0.254641 0.0797201 0.1947
N_ N_ 0.129907 0.16024 0.478663 -0.29468
N_ N_ 0.149808 0.196815 0.0815258 -0.17154
N_ N_ 0.110749 0.174157 0.229178 -0.17154
N_ N_ 0.126187 0.204273 0.334344 -0.29468
N_ N_ 0.361411 0.340086 0.224898 -0.29468
N_ N_ 0.344202 0.310496 0.329294 -0.17154
N_ N_ 0.391864 0.328635 0.477271 -0.17154
N_ N_ 0.365166 0.29748 0.0833459 -0.29468
O_ O_ 0.211473 0.180295 0.428279 -0.58347
O_ O_ 0.194739 0.195449 0.383347 -0.58347
O_ O_ 0.138035 0.256633 0.434988 -0.58347
O_ O_ 0.116787 0.259721 0.389556 -0.58347
O_ O_ 0.125604 0.108375 0.423855 -0.58347
O_ O_ 0.131872 0.112125 0.377198 -0.58347
O_ O_ 0.0585442 0.178413 0.430068 -0.58347
O_ O_ 0.0467239 0.175519 0.383274 -0.58347
O_ O_ 0.064317 0.215757 0.075508 -0.46727
O_ O_ 0.233525 0.175022 0.0882916 -0.46727
O_ O_ 0.0281801 0.201456 0.222932 -0.46727
O_ O_ 0.193587 0.149852 0.23617 -0.46727
O_ O_ 0.282875 0.319837 0.177252 -0.58347
O_ O_ 0.292167 0.319152 0.13165 -0.58347
O_ O_ 0.370027 0.251878 0.186147 -0.58347
O_ O_ 0.368421 0.247085 0.139004 -0.58347
O_ O_ 0.355911 0.399802 0.165892 -0.58347
O_ O_ 0.369333 0.394296 0.120831 -0.58347
O_ O_ 0.432517 0.328626 0.173478 -0.58347
O_ O_ 0.446339 0.321828 0.126654 -0.58347
O_ O_ 0.43178 0.30342 0.323287 -0.46727
O_ O_ 0.258322 0.320696 0.338128 -0.46727
O_ O_ 0.478134 0.316057 0.468961 -0.46727
O_ O_ 0.304423 0.328735 0.484012 -0.46727
Zn Zn 0.140384 0.186972 0.881229 0.90689
Zn Zn 0.145326 0.178476 0.928284 0.90689
Zn Zn 0.379258 0.3085 0.630554 0.90689
Zn Zn 0.370464 0.311407 0.679238 0.90689
H_ H_ 0.317743 0.18901 0.945773 0.11455
H_ H_ 0.384142 0.148264 0.849789 0.11455
H_ H_ 0.287605 0.14112 0.859904 0.11455
H_ H_ 0.401598 0.170267 0.964629 0.11455
H_ H_ 0.49599 0.180523 0.957523 0.11455
H_ H_ 0.471899 0.153507 0.867471 0.11455
H_ H_ 0.136159 0.0162096 0.941414 0.11455
H_ H_ 0.0739103 0.431651 0.864521 0.11455
H_ H_ 0.130471 0.0289104 0.851057 0.11455
H_ H_ 0.192715 0.430895 0.957768 0.11455
H_ H_ 0.180747 0.334935 0.958462 0.11455
H_ H_ 0.0995287 0.346608 0.879827 0.11455
H_ H_ 0.0765863 0.109392 0.964278 0.11455
H_ H_ 0.0545885 0.0816814 0.517827 0.11455
H_ H_ 0.108029 0.111442 0.556941 0.11455
H_ H_ 0.20016 0.231822 0.974104 0.11455
H_ H_ 0.225527 0.290969 0.51331 0.11455
H_ H_ 0.211397 0.268867 0.56113 0.11455
H_ H_ 0.0239025 0.200711 0.620205 0.11455
H_ H_ 0.0102159 0.190869 0.672611 0.11455
H_ H_ 0.274826 0.155474 0.637721 0.11455
H_ H_ 0.2612 0.143559 0.688076 0.11455
H_ H_ 0.0712885 0.0871087 0.749712 0.11455
H_ H_ 0.0506285 0.0699399 0.803017 0.11455
H_ H_ 0.0852714 0.12016 0.839735 0.11455
H_ H_ 0.176746 0.23464 0.753844 0.11455
H_ H_ 0.202385 0.292918 0.794276 0.11455
H_ H_ 0.186217 0.267481 0.843725 0.11455
H_ H_ 0.196913 0.286279 0.691147 0.11455
H_ H_ 0.135195 0.324209 0.595442 0.11455
H_ H_ 0.226292 0.314658 0.601837 0.11455
H_ H_ 0.119736 0.296044 0.713879 0.11455
H_ H_ 0.0230661 0.308178 0.708374 0.11455
H_ H_ 0.0424066 0.306991 0.61724 0.11455
H_ H_ 0.351013 0.478246 0.688251 0.11455
H_ H_ 0.379108 0.0605057 0.594683 0.11455
H_ H_ 0.366534 0.475289 0.596703 0.11455
H_ H_ 0.381526 0.0653799 0.713136 0.11455
H_ H_ 0.384974 0.154832 0.708764 0.11455
H_ H_ 0.375843 0.143258 0.616413 0.11455
H_ H_ 0.407234 0.388024 0.715846 0.11455
H_ H_ 0.414588 0.42092 0.761183 0.11455
H_ H_ 0.38952 0.369124 0.802692 0.11455
H_ H_ 0.32307 0.232412 0.722686 0.11455
H_ H_ 0.298379 0.172446 0.762047 0.11455
H_ H_ 0.313065 0.203163 0.812511 0.11455
H_ H_ 0.497137 0.294087 0.869713 0.11455
H_ H_ 0.50961 0.297169 0.921084 0.11455
H_ H_ 0.240993 0.310871 0.886299 0.11455
H_ H_ 0.254406 0.322682 0.940004 0.11455
H_ H_ 0.459086 0.38791 -0.0023239999999999927 0.11455
H_ H_ 0.472955 0.420618 0.547993 0.11455
H_ H_ 0.437991 0.370305 0.588557 0.11455
H_ H_ 0.358376 0.246187 0.505207 0.11455
H_ H_ 0.31763 0.199025 0.542973 0.11455
H_ H_ 0.331578 0.22664 0.593654 0.11455
C_ C_ 0.241556 0.178333 0.905989 0.68181
C_ C_ 0.298406 0.171049 0.902147 -0.05681
C_ C_ 0.331904 0.177002 0.925156 -0.08735
C_ C_ 0.382881 0.175456 0.919341 -0.05681
C_ C_ 0.401437 0.163297 0.892993 -0.05681
C_ C_ 0.369281 0.154177 0.869944 -0.08735
C_ C_ 0.314981 0.157069 0.874657 -0.08735
C_ C_ 0.415761 0.171753 0.943412 -0.08735
C_ C_ 0.468816 0.172569 0.94027 -0.08735
C_ C_ 0.488564 0.173334 0.911989 -0.05681
C_ C_ 0.454802 0.164389 0.889202 -0.08735
C_ C_ 0.141056 0.278467 0.914085 0.68181
C_ C_ 0.150145 0.0834049 0.897929 0.68181
C_ C_ 0.133484 0.0294252 0.895572 -0.05681
C_ C_ 0.151256 0.495595 0.92387 -0.08735
C_ C_ 0.143894 0.443545 0.92331 -0.05681
C_ C_ 0.121112 0.419842 0.899315 -0.05681
C_ C_ 0.0966536 0.449736 0.879652 -0.08735
C_ C_ 0.0974916 0.502178 0.8813 -0.08735
C_ C_ 0.171928 0.412768 0.942621 -0.08735
C_ C_ 0.165067 0.359756 0.942686 -0.08735
C_ C_ 0.139646 0.334674 0.919453 -0.05681
C_ C_ 0.119154 0.365348 0.897603 -0.08735
C_ C_ 0.0453193 0.181749 0.902064 0.68181
C_ C_ 0.0933989 0.127545 0.981561 0.1947
C_ C_ 0.0872512 0.106118 0.512506 -0.08735
C_ C_ 0.115569 0.126905 0.535198 -0.08735
C_ C_ 0.147447 0.168891 0.529795 -0.05681
C_ C_ 0.156197 0.181273 0.499706 0.18498
C_ C_ 0.186293 0.226486 0.993937 -0.08735
C_ C_ 0.203937 0.257146 0.516401 -0.08735
C_ C_ 0.192494 0.245856 0.544443 -0.08735
C_ C_ 0.167425 0.202591 0.551805 0.18498
C_ C_ 0.199875 0.173471 0.597436 0.44287
C_ C_ 0.11246 0.195801 0.592977 0.44287
C_ C_ 0.103495 0.187054 0.621859 -0.05681
C_ C_ 0.0551497 0.188721 0.633748 -0.08735
C_ C_ 0.0493298 0.185722 0.663411 -0.08735
C_ C_ 0.0904237 0.178283 0.68114 -0.05681
C_ C_ 0.139158 0.169678 0.669392 -0.05681
C_ C_ 0.145594 0.175814 0.639603 -0.05681
C_ C_ 0.194662 0.167216 0.627596 -0.05681
C_ C_ 0.235296 0.158423 0.645705 -0.08735
C_ C_ 0.228159 0.155345 0.675451 -0.08735
C_ C_ 0.178979 0.158209 0.687116 -0.05681
C_ C_ 0.171647 0.157243 0.716408 0.44287
C_ C_ 0.0832151 0.172758 0.71135 0.44287
C_ C_ 0.116246 0.150338 0.758777 0.18498
C_ C_ 0.0849813 0.111081 0.766553 -0.08735
C_ C_ 0.0734164 0.100596 0.796008 -0.08735
C_ C_ 0.0941689 0.131364 0.81774 -0.08735
C_ C_ 0.126723 0.169994 0.811909 0.18498
C_ C_ 0.139897 0.179641 0.782293 -0.05681
C_ C_ 0.163726 0.225206 0.775516 -0.08735
C_ C_ 0.180326 0.258522 0.797704 -0.08735
C_ C_ 0.168625 0.243496 0.826635 0.1947
C_ C_ 0.277088 0.304469 0.652206 0.68181
C_ C_ 0.219852 0.302031 0.647969 -0.05681
C_ C_ 0.185606 0.297881 0.670983 -0.08735
C_ C_ 0.134131 0.304357 0.66788 -0.05681
C_ C_ 0.114409 0.313188 0.64072 -0.05681
C_ C_ 0.147515 0.312859 0.616921 -0.08735
C_ C_ 0.200006 0.309692 0.620659 -0.08735
C_ C_ 0.102027 0.300999 0.691812 -0.08735
C_ C_ 0.0494419 0.308974 0.689346 -0.08735
C_ C_ 0.0277223 0.311022 0.661638 -0.05681
C_ C_ 0.0593679 0.313933 0.63766 -0.08735
C_ C_ 0.381469 0.212524 0.660034 0.68181
C_ C_ 0.364942 0.411888 0.647076 0.68181
C_ C_ 0.363105 0.468886 0.644369 -0.05681
C_ C_ 0.371525 -0.003414999999999946 0.669936 -0.08735
C_ C_ 0.378551 0.0507009 0.667606 -0.05681
C_ C_ 0.378462 0.0730096 0.640341 -0.05681
C_ C_ 0.378725 0.042 0.616334 -0.08735
C_ C_ 0.370566 0.491856 0.61758 -0.08735
C_ C_ 0.38407 0.0815481 0.691915 -0.08735
C_ C_ 0.379769 0.132893 0.688927 -0.08735
C_ C_ 0.382509 0.155661 0.662779 -0.05681
C_ C_ 0.378359 0.126396 0.637555 -0.08735
C_ C_ 0.471958 0.315187 0.659409 0.68181
C_ C_ 0.382558 0.369392 0.731981 0.1947
C_ C_ 0.392793 0.384716 0.758586 -0.08735
C_ C_ 0.388329 0.35243 0.78206 -0.08735
C_ C_ 0.370517 0.303601 0.777304 -0.05681
C_ C_ 0.357572 0.28877 0.749016 0.18498
C_ C_ 0.330649 0.241924 0.74333 -0.08735
C_ C_ 0.322484 0.207175 0.766162 -0.08735
C_ C_ 0.329603 0.224364 0.794609 -0.08735
C_ C_ 0.352018 0.271312 0.801188 0.18498
C_ C_ 0.317392 0.294129 0.846449 0.44287
C_ C_ 0.405701 0.283901 0.841745 0.44287
C_ C_ 0.413303 0.29581 0.871532 -0.05681
C_ C_ 0.462226 0.294464 0.883955 -0.08735
C_ C_ 0.470781 0.297269 0.913655 -0.08735
C_ C_ 0.428181 0.29476 0.9328 -0.05681
C_ C_ 0.379679 0.30096 0.920205 -0.05681
C_ C_ 0.370936 0.298137 0.890352 -0.05681
C_ C_ 0.321409 0.301418 0.877543 -0.05681
C_ C_ 0.277927 0.307893 0.89491 -0.08735
C_ C_ 0.287004 0.313548 0.92492 -0.08735
C_ C_ 0.335744 0.313211 0.937533 -0.05681
C_ C_ 0.34318 0.315163 0.96821 0.44287
C_ C_ 0.432809 0.305149 0.962554 0.44287
C_ C_ 0.401393 0.337573 0.508398 0.18498
C_ C_ 0.432579 0.378272 0.514647 -0.08735
C_ C_ 0.447304 0.389359 0.543836 -0.08735
C_ C_ 0.425815 0.362736 0.566054 -0.08735
C_ C_ 0.396856 0.318408 0.560398 0.18498
C_ C_ 0.381958 0.307551 0.530929 -0.05681
C_ C_ 0.357587 0.262128 0.525778 -0.08735
C_ C_ 0.334267 0.235509 0.548442 -0.08735
C_ C_ 0.346266 0.249225 0.575911 0.1947
N_ N_ 0.126021 0.167095 0.976672 -0.29468
N_ N_ 0.161407 0.19218 0.582126 -0.17154
N_ N_ 0.123731 0.15954 0.728626 -0.17154
N_ N_ 0.144975 0.198791 0.832816 -0.29468
N_ N_ 0.367795 0.321685 0.727091 -0.29468
N_ N_ 0.359137 0.283819 0.829813 -0.17154
N_ N_ 0.391684 0.313254 0.980462 -0.17154
N_ N_ 0.377481 0.288027 0.582412 -0.29468
O_ O_ 0.220707 0.170956 0.930437 -0.58347
O_ O_ 0.214508 0.185531 0.884279 -0.58347
O_ O_ 0.148197 0.250268 0.935894 -0.58347
O_ O_ 0.144347 0.25972 0.888733 -0.58347
O_ O_ 0.145958 0.105122 0.922792 -0.58347
O_ O_ 0.150285 0.111474 0.875496 -0.58347
O_ O_ 0.072642 0.178896 0.924171 -0.58347
O_ O_ 0.0638555 0.182103 0.877199 -0.58347
O_ O_ 0.0775111 0.217739 0.57802 -0.46727
O_ O_ 0.246347 0.174307 0.587351 -0.46727
O_ O_ 0.0371681 0.181146 0.722162 -0.46727
O_ O_ 0.21042 0.147444 0.733555 -0.46727
O_ O_ 0.296348 0.311428 0.676903 -0.58347
O_ O_ 0.305057 0.30372 0.629876 -0.58347
O_ O_ 0.373833 0.239094 0.682703 -0.58347
O_ O_ 0.386159 0.234614 0.635538 -0.58347
O_ O_ 0.365078 0.390514 0.671408 -0.58347
O_ O_ 0.369069 0.384436 0.624176 -0.58347
O_ O_ 0.442237 0.318378 0.6807 -0.58347
O_ O_ 0.455357 0.310921 0.634026 -0.58347
O_ O_ 0.446661 0.275061 0.82502 -0.46727
O_ O_ 0.272473 0.301364 0.834618 -0.46727
O_ O_ 0.477266 0.298945 0.974205 -0.46727
O_ O_ 0.30625 0.333167 0.984715 -0.46727
Zn Zn 0.12159 0.687234 0.382222 0.90689
Zn Zn 0.133522 0.679287 0.431342 0.90689
Zn Zn 0.375678 0.821177 0.132997 0.90689
Zn Zn 0.364105 0.821537 0.180198 0.90689
H_ H_ 0.305209 0.680471 0.450413 0.11455
H_ H_ 0.367666 0.673166 0.349929 0.11455
H_ H_ 0.276374 0.688715 0.357305 0.11455
H_ H_ 0.388072 0.661986 0.466541 0.11455
H_ H_ 0.478935 0.676662 0.459588 0.11455
H_ H_ 0.452224 0.681234 0.366011 0.11455
H_ H_ 0.167753 0.516052 0.435791 0.11455
H_ H_ 0.105184 0.936529 0.348224 0.11455
H_ H_ 0.104614 0.527983 0.352622 0.11455
H_ H_ 0.159694 0.932871 0.463296 0.11455
H_ H_ 0.139793 0.838855 0.460406 0.11455
H_ H_ 0.121902 0.850241 0.368609 0.11455
H_ H_ 0.0797417 0.60243 0.465228 0.11455
H_ H_ 0.0596465 0.587143 0.0196381 0.11455
H_ H_ 0.0990726 0.636688 0.0557359 0.11455
H_ H_ 0.191865 0.746668 0.474647 0.11455
H_ H_ 0.213098 0.809647 0.00756912 0.11455
H_ H_ 0.196646 0.797468 0.0567943 0.11455
H_ H_ 0.0142898 0.728576 0.121589 0.11455
H_ H_ -0.004530000000000034 0.71423 0.170386 0.11455
H_ H_ 0.260413 0.683979 0.137617 0.11455
H_ H_ 0.243829 0.678502 0.193293 0.11455
H_ H_ 0.0665955 0.599216 0.247023 0.11455
H_ H_ 0.0426988 0.576589 0.296759 0.11455
H_ H_ 0.0723997 0.625955 0.335743 0.11455
H_ H_ 0.155871 0.759057 0.258165 0.11455
H_ H_ 0.195199 0.798564 0.29869 0.11455
H_ H_ 0.185186 0.75819 0.34737 0.11455
H_ H_ 0.197383 0.822018 0.198841 0.11455
H_ H_ 0.128612 0.848166 0.101042 0.11455
H_ H_ 0.214749 0.831586 0.10575 0.11455
H_ H_ 0.1094 0.818404 0.220609 0.11455
H_ H_ 0.0202648 0.813076 0.212175 0.11455
H_ H_ 0.0417949 0.855236 0.122253 0.11455
H_ H_ 0.358277 0.996188 0.191328 0.11455
H_ H_ 0.390534 0.574454 0.0948413 0.11455
H_ H_ 0.387082 0.978088 0.0995515 0.11455
H_ H_ 0.358496 0.569551 0.21148 0.11455
H_ H_ 0.355498 0.664455 0.211855 0.11455
H_ H_ 0.38489 0.6566 0.119797 0.11455
H_ H_ 0.393103 0.905983 0.217003 0.11455
H_ H_ 0.410152 0.929571 0.262644 0.11455
H_ H_ 0.396279 0.87677 0.30567 0.11455
H_ H_ 0.289648 0.75546 0.22297 0.11455
H_ H_ 0.276233 0.692452 0.260316 0.11455
H_ H_ 0.305561 0.712965 0.31237 0.11455
H_ H_ 0.479582 0.780338 0.375128 0.11455
H_ H_ 0.495103 0.804934 0.425127 0.11455
H_ H_ 0.234833 0.842807 0.386324 0.11455
H_ H_ 0.249642 0.856149 0.438825 0.11455
H_ H_ 0.412963 0.916274 0.500402 0.11455
H_ H_ 0.445072 0.938866 0.0438963 0.11455
H_ H_ 0.4303 0.879007 0.0865467 0.11455
H_ H_ 0.329678 0.756263 0.00861614 0.11455
H_ H_ 0.299726 0.712283 0.0523114 0.11455
H_ H_ 0.317849 0.745789 0.0981909 0.11455
C_ C_ 0.225717 0.684209 0.408686 0.68181
C_ C_ 0.283185 0.687214 0.404302 -0.05681
C_ C_ 0.317325 0.679837 0.427641 -0.08735
C_ C_ 0.369226 0.672381 0.423063 -0.05681
C_ C_ 0.389967 0.675906 0.394295 -0.05681
C_ C_ 0.353962 0.676037 0.371481 -0.08735
C_ C_ 0.303282 0.685956 0.375791 -0.08735
C_ C_ 0.403127 0.663445 0.445574 -0.08735
C_ C_ 0.454335 0.672044 0.440613 -0.08735
C_ C_ 0.4755 0.67414 0.412204 -0.05681
C_ C_ 0.441087 0.671203 0.388009 -0.08735
C_ C_ 0.121966 0.781317 0.413149 0.68181
C_ C_ 0.125839 0.583422 0.39994 0.68181
C_ C_ 0.127724 0.528884 0.39703 -0.05681
C_ C_ 0.145492 0.999296 0.421759 -0.08735
C_ C_ 0.144866 0.946016 0.419296 -0.05681
C_ C_ 0.133085 0.922096 0.391998 -0.05681
C_ C_ 0.120507 0.951715 0.367852 -0.08735
C_ C_ 0.121678 1.00414887 0.371305 -0.08735
C_ C_ 0.150877 0.914724 0.443201 -0.08735
C_ C_ 0.139629 0.861965 0.441159 -0.08735
C_ C_ 0.127828 0.836864 0.415054 -0.05681
C_ C_ 0.130515 0.868756 0.389791 -0.08735
C_ C_ 0.0302412 0.687571 0.403954 0.68181
C_ C_ 0.099419 0.622132 0.482524 0.1947
C_ C_ 0.0848259 0.618332 0.0135493 -0.08735
C_ C_ 0.105385 0.64843 0.0342673 -0.08735
C_ C_ 0.135037 0.6896 0.0285669 -0.05681
C_ C_ 0.142641 0.703402 0.999412 0.18498
C_ C_ 0.179811 0.734186 0.495613 -0.08735
C_ C_ 0.188319 0.777706 0.0118306 -0.08735
C_ C_ 0.184365 0.766204 0.040825 -0.08735
C_ C_ 0.157958 0.722992 0.0494946 0.18498
C_ C_ 0.188311 0.705426 0.0980477 0.44287
C_ C_ 0.101273 0.717714 0.0910386 0.44287
C_ C_ 0.092474 0.710803 0.122142 -0.05681
C_ C_ 0.0443668 0.714344 0.134417 -0.08735
C_ C_ 0.0345242 0.704862 0.163669 -0.08735
C_ C_ 0.077427 0.69413 0.181449 -0.05681
C_ C_ 0.126108 0.69336 0.170336 -0.05681
C_ C_ 0.133529 0.700167 0.140072 -0.05681
C_ C_ 0.181302 0.698563 0.128146 -0.05681
C_ C_ 0.223236 0.690343 0.146811 -0.08735
C_ C_ 0.215416 0.684482 0.176508 -0.08735
C_ C_ 0.1673 0.686274 0.187672 -0.05681
C_ C_ 0.15807 0.679071 0.217946 0.44287
C_ C_ 0.07161 0.693814 0.211189 0.44287
C_ C_ 0.102819 0.670294 0.258879 0.18498
C_ C_ 0.0784254 0.623309 0.26388 -0.08735
C_ C_ 0.0640721 0.609246 0.291733 -0.08735
C_ C_ 0.0824959 0.636957 0.31446 -0.08735
C_ C_ 0.10991 0.681037 0.310831 0.18498
C_ C_ 0.119164 0.699929 0.28234 -0.05681
C_ C_ 0.145025 0.74601 0.278519 -0.08735
C_ C_ 0.172484 0.764209 0.30253 -0.08735
C_ C_ 0.166065 0.744291 0.330156 0.1947
C_ C_ 0.269967 0.814214 0.154139 0.68181
C_ C_ 0.215543 0.82533 0.152474 -0.05681
C_ C_ 0.183671 0.8286 0.176538 -0.08735
C_ C_ 0.130142 0.83203 0.173838 -0.05681
C_ C_ 0.109724 0.839632 0.147017 -0.05681
C_ C_ 0.141209 0.839033 0.123725 -0.08735
C_ C_ 0.193321 0.833109 0.126314 -0.08735
C_ C_ 0.0967737 0.824009 0.198873 -0.08735
C_ C_ 0.0438732 0.824169 0.193816 -0.08735
C_ C_ 0.0232872 0.834274 0.166009 -0.05681
C_ C_ 0.0564721 0.840879 0.142764 -0.08735
C_ C_ 0.371616 0.723598 0.164759 0.68181
C_ C_ 0.364826 0.92016 0.148666 0.68181
C_ C_ 0.372202 0.977352 0.145931 -0.05681
C_ C_ 0.362159 0.50507 0.167499 -0.08735
C_ C_ 0.364846 0.558757 0.166596 -0.05681
C_ C_ 0.371403 0.585534 0.140094 -0.05681
C_ C_ 0.382771 0.557287 0.11636 -0.08735
C_ C_ 0.381966 0.00135586 0.118784 -0.08735
C_ C_ 0.353101 0.58712 0.192012 -0.08735
C_ C_ 0.359005 0.642618 0.192649 -0.08735
C_ C_ 0.366924 0.668568 0.165424 -0.05681
C_ C_ 0.369179 0.639114 0.139531 -0.08735
C_ C_ 0.468968 0.82519 0.158967 0.68181
C_ C_ 0.377872 0.881673 0.232908 0.1947
C_ C_ 0.388909 0.893783 0.261022 -0.08735
C_ C_ 0.380871 0.861951 0.285133 -0.08735
C_ C_ 0.354726 0.816394 0.279331 -0.05681
C_ C_ 0.340618 0.804147 0.249196 0.18498
C_ C_ 0.306555 0.762471 0.244859 -0.08735
C_ C_ 0.296867 0.727032 0.266947 -0.08735
C_ C_ 0.313741 0.738348 0.29594 -0.08735
C_ C_ 0.343819 0.782489 0.301888 0.18498
C_ C_ 0.30885 0.809273 0.347328 0.44287
C_ C_ 0.397199 0.794718 0.344266 0.44287
C_ C_ 0.402652 0.804841 0.374214 -0.05681
C_ C_ 0.450658 0.799778 0.386984 -0.08735
C_ C_ 0.457337 0.804044 0.415611 -0.08735
C_ C_ 0.414241 0.810795 0.432947 -0.05681
C_ C_ 0.366059 0.817787 0.42034 -0.05681
C_ C_ 0.361076 0.811436 0.390524 -0.05681
C_ C_ 0.312615 0.81567 0.377634 -0.05681
C_ C_ 0.270918 0.832224 0.394754 -0.08735
C_ C_ 0.278167 0.841437 0.424746 -0.08735
C_ C_ 0.32384 0.829575 0.437569 -0.05681
C_ C_ 0.331244 0.8395 0.466798 0.44287
C_ C_ 0.417231 0.815109 0.463239 0.44287
C_ C_ 0.391572 0.837815 0.00827464 0.18498
C_ C_ 0.417056 0.88414 0.0132229 -0.08735
C_ C_ 0.433208 0.900194 0.0406209 -0.08735
C_ C_ 0.421931 0.867642 0.0642619 -0.08735
C_ C_ 0.388802 0.826809 0.0607006 0.18498
C_ C_ 0.374605 0.810062 0.0320572 -0.05681
C_ C_ 0.341914 0.768282 0.0290145 -0.08735
C_ C_ 0.323791 0.744553 0.0537194 -0.08735
C_ C_ 0.339497 0.760321 0.0804438 0.1947
N_ N_ 0.129376 0.664192 0.479119 -0.29468
N_ N_ 0.149766 0.716094 0.0801193 -0.17154
N_ N_ 0.111959 0.684409 0.229453 -0.17154
N_ N_ 0.132634 0.704998 0.33396 -0.29468
N_ N_ 0.359123 0.834409 0.227312 -0.29468
N_ N_ 0.350562 0.800067 0.330703 -0.17154
N_ N_ 0.377065 0.830723 0.479529 -0.17154
N_ N_ 0.368724 0.803105 0.0844553 -0.29468
O_ O_ 0.205731 0.679276 0.433089 -0.58347
O_ O_ 0.198385 0.688232 0.386891 -0.58347
O_ O_ 0.130293 0.754116 0.43494 -0.58347
O_ O_ 0.118936 0.759603 0.388391 -0.58347
O_ O_ 0.135196 0.60368 0.424139 -0.58347
O_ O_ 0.124806 0.610096 0.377196 -0.58347
O_ O_ 0.0593787 0.675701 0.424445 -0.58347
O_ O_ 0.0474161 0.68749 0.378577 -0.58347
O_ O_ 0.0617874 0.728422 0.073931 -0.46727
O_ O_ 0.231358 0.691127 0.0867864 -0.46727
O_ O_ 0.024572 0.690158 0.221103 -0.46727
O_ O_ 0.19778 0.66839 0.235403 -0.46727
O_ O_ 0.289515 0.812629 0.17863 -0.58347
O_ O_ 0.297504 0.820105 0.132146 -0.58347
O_ O_ 0.369476 0.749674 0.186064 -0.58347
O_ O_ 0.381581 0.74448 0.141169 -0.58347
O_ O_ 0.360337 0.899617 0.172986 -0.58347
O_ O_ 0.370433 0.893806 0.127087 -0.58347
O_ O_ 0.441666 0.826525 0.181793 -0.58347
O_ O_ 0.449418 0.825177 0.133385 -0.58347
O_ O_ 0.438572 0.787356 0.329432 -0.46727
O_ O_ 0.264729 0.814134 0.334503 -0.46727
O_ O_ 0.45675 0.795673 0.476363 -0.46727
O_ O_ 0.291803 0.851912 0.483128 -0.46727
Zn Zn 0.11991 0.686703 0.882643 0.90689
Zn Zn 0.128848 0.681632 0.930671 0.90689
Zn Zn 0.364126 0.809625 0.628893 0.90689
Zn Zn 0.357817 0.815619 0.675495 0.90689
H_ H_ 0.295139 0.682757 0.945082 0.11455
H_ H_ 0.358153 0.671222 0.845165 0.11455
H_ H_ 0.272208 0.684662 0.854035 0.11455
H_ H_ 0.385259 0.675021 0.963631 0.11455
H_ H_ 0.474004 0.65017 0.954037 0.11455
H_ H_ 0.447176 0.673293 0.864435 0.11455
H_ H_ 0.168178 0.514794 0.94391 0.11455
H_ H_ 0.127969 0.933343 0.846044 0.11455
H_ H_ 0.0692852 0.522374 0.869399 0.11455
H_ H_ 0.119292 0.934087 0.962335 0.11455
H_ H_ 0.113083 0.840014 0.961343 0.11455
H_ H_ 0.104867 0.849804 0.868985 0.11455
H_ H_ 0.0807437 0.604222 0.967933 0.11455
H_ H_ 0.0725295 0.566441 0.514527 0.11455
H_ H_ 0.121636 0.604509 0.553617 0.11455
H_ H_ 0.182254 0.750013 0.96983 0.11455
H_ H_ 0.216481 0.796421 0.514267 0.11455
H_ H_ 0.199567 0.768052 0.564665 0.11455
H_ H_ 1.012679 0.70477 0.620136 0.11455
H_ H_ 0.998208 0.706522 0.67067 0.11455
H_ H_ 0.25693 0.648926 0.639598 0.11455
H_ H_ 0.23864 0.626642 0.689828 0.11455
H_ H_ 0.0640094 0.583608 0.748132 0.11455
H_ H_ 0.0430788 0.562008 0.800464 0.11455
H_ H_ 0.0645127 0.619697 0.837292 0.11455
H_ H_ 0.150382 0.745315 0.756455 0.11455
H_ H_ 0.188604 0.787845 0.798143 0.11455
H_ H_ 0.171687 0.758794 0.845791 0.11455
H_ H_ 0.187308 0.809606 0.696735 0.11455
H_ H_ 0.112685 0.818385 0.60006 0.11455
H_ H_ 0.205408 0.815741 0.605409 0.11455
H_ H_ 0.106736 0.838764 0.717242 0.11455
H_ H_ 0.0136298 0.835841 0.712611 0.11455
H_ H_ 0.0299363 0.825697 0.619777 0.11455
H_ H_ 0.359477 0.984462 0.690596 0.11455
H_ H_ 0.393747 0.562469 0.595906 0.11455
H_ H_ 0.371534 0.965861 0.599687 0.11455
H_ H_ 0.351491 0.565981 0.713142 0.11455
H_ H_ 0.348578 0.659516 0.705039 0.11455
H_ H_ 0.396033 0.641124 0.617676 0.11455
H_ H_ 0.414501 0.885833 0.715014 0.11455
H_ H_ 0.440484 0.903537 0.76489 0.11455
H_ H_ 0.397264 0.858624 0.803687 0.11455
H_ H_ 0.297555 0.752949 0.721588 0.11455
H_ H_ 0.257658 0.703155 0.763748 0.11455
H_ H_ 0.27129 0.729126 0.809097 0.11455
H_ H_ 0.476582 0.793667 0.868875 0.11455
H_ H_ 0.485035 0.787274 0.920277 0.11455
H_ H_ 0.229239 0.848241 0.8881 0.11455
H_ H_ 0.24245 0.847703 0.938875 0.11455
H_ H_ 0.43061 0.910879 0.995828 0.11455
H_ H_ 0.451894 0.931194 0.549518 0.11455
H_ H_ 0.420018 0.876038 0.586916 0.11455
H_ H_ 0.329994 0.75176 0.503951 0.11455
H_ H_ 0.303024 0.700311 0.549694 0.11455
H_ H_ 0.311172 0.735509 0.595493 0.11455
C_ C_ 0.220973 0.684044 0.9055 0.68181
C_ C_ 0.275336 0.671793 0.900654 -0.05681
C_ C_ 0.309045 0.674076 0.923509 -0.08735
C_ C_ 0.361504 0.670817 0.919036 -0.05681
C_ C_ 0.379738 0.665943 0.890622 -0.05681
C_ C_ 0.345661 0.663716 0.867096 -0.08735
C_ C_ 0.294945 0.672061 0.872226 -0.08735
C_ C_ 0.395881 0.668818 0.941556 -0.08735
C_ C_ 0.446843 0.662061 0.936349 -0.08735
C_ C_ 0.466718 0.668099 0.909027 -0.05681
C_ C_ 0.432731 0.665508 0.885876 -0.08735
C_ C_ 0.120375 0.782056 0.912402 0.68181
C_ C_ 0.128672 0.581386 0.904904 0.68181
C_ C_ 0.124708 0.52593 0.903042 -0.05681
C_ C_ 0.128446 1.00031 0.920144 -0.08735
C_ C_ 0.122579 0.947455 0.917387 -0.05681
C_ C_ 0.119162 0.923407 0.890477 -0.05681
C_ C_ 0.11937 0.952132 0.865433 -0.08735
C_ C_ 0.130881 0.00438146 0.868939 -0.08735
C_ C_ 0.116013 0.916021 0.94159 -0.08735
C_ C_ 0.113771 0.863025 0.940813 -0.08735
C_ C_ 0.11434 0.838539 0.914528 -0.05681
C_ C_ 0.111823 0.869952 0.888924 -0.08735
C_ C_ 0.0270072 0.685878 0.909033 0.68181
C_ C_ 0.0973177 0.628551 0.985235 0.1947
C_ C_ 0.0905703 0.605439 0.50981 -0.08735
C_ C_ 0.113695 0.627367 0.533491 -0.08735
C_ C_ 0.139921 0.673749 0.53029 -0.05681
C_ C_ 0.149734 0.689426 0.501657 0.18498
C_ C_ 0.169413 0.745193 0.991857 -0.08735
C_ C_ 0.198597 0.761945 0.519551 -0.08735
C_ C_ 0.186929 0.74548 0.548291 -0.08735
C_ C_ 0.161541 0.701079 0.553094 0.18498
C_ C_ 0.188719 0.673629 0.59906 0.44287
C_ C_ 0.103736 0.693767 0.592005 0.44287
C_ C_ 0.0913837 0.68464 0.620561 -0.05681
C_ C_ 0.0433179 0.694346 0.633753 -0.08735
C_ C_ 0.0362208 0.695364 0.662842 -0.08735
C_ C_ 0.0758093 0.682212 0.681331 -0.05681
C_ C_ 0.12201 0.66848 0.669224 -0.05681
C_ C_ 0.131268 0.671982 0.639629 -0.05681
C_ C_ 0.18136 0.661161 0.628783 -0.05681
C_ C_ 0.218569 0.645097 0.646852 -0.08735
C_ C_ 0.205995 0.636083 0.67577 -0.08735
C_ C_ 0.158775 0.650746 0.687649 -0.05681
C_ C_ 0.152551 0.652868 0.717136 0.44287
C_ C_ 0.0683086 0.681717 0.711201 0.44287
C_ C_ 0.0979476 0.657066 0.758759 0.18498
C_ C_ 0.0717374 0.610467 0.764974 -0.08735
C_ C_ 0.0588101 0.598371 0.793422 -0.08735
C_ C_ 0.0743743 0.629526 0.815874 -0.08735
C_ C_ 0.107194 0.670116 0.810756 0.18498
C_ C_ 0.109968 0.689375 0.7822 -0.05681
C_ C_ 0.135777 0.736248 0.778274 -0.08735
C_ C_ 0.1576 0.761609 0.80152 -0.08735
C_ C_ 0.149722 0.742911 0.829049 0.1947
C_ C_ 0.262522 0.806571 0.654287 0.68181
C_ C_ 0.205717 0.810357 0.651814 -0.05681
C_ C_ 0.173428 0.817445 0.675387 -0.08735
C_ C_ 0.12019 0.819028 0.672708 -0.05681
C_ C_ 0.0985337 0.821909 0.645481 -0.05681
C_ C_ 0.129022 0.814078 0.621053 -0.08735
C_ C_ 0.181619 0.811991 0.625184 -0.08735
C_ C_ 0.0888177 0.822932 0.696687 -0.08735
C_ C_ 0.036699 0.827497 0.693296 -0.08735
C_ C_ 0.0153737 0.828007 0.665626 -0.05681
C_ C_ 0.046115 0.827184 0.642219 -0.08735
C_ C_ 0.3664 0.713896 0.659105 0.68181
C_ C_ 0.355737 0.911522 0.648044 0.68181
C_ C_ 0.36904 0.96493 0.645695 -0.05681
C_ C_ 0.363344 0.497612 0.668912 -0.08735
C_ C_ 0.366736 0.551445 0.666723 -0.05681
C_ C_ 0.375814 0.573241 0.639948 -0.05681
C_ C_ 0.38212 0.544056 0.616013 -0.08735
C_ C_ 0.37529 0.988852 0.61891 -0.08735
C_ C_ 0.360749 0.582796 0.691692 -0.08735
C_ C_ 0.361126 0.635071 0.688574 -0.08735
C_ C_ 0.36991 0.657474 0.661361 -0.05681
C_ C_ 0.376947 0.625812 0.637304 -0.08735
C_ C_ 0.458433 0.816183 0.651001 0.68181
C_ C_ 0.396819 0.862762 0.731784 0.1947
C_ C_ 0.409838 0.876268 0.759545 -0.08735
C_ C_ 0.383675 0.852523 0.782556 -0.08735
C_ C_ 0.352021 0.810511 0.777373 -0.05681
C_ C_ 0.342918 0.798059 0.748135 0.18498
C_ C_ 0.304687 0.763558 0.743714 -0.08735
C_ C_ 0.282653 0.735868 0.766112 -0.08735
C_ C_ 0.296472 0.746305 0.794002 -0.08735
C_ C_ 0.328832 0.786956 0.800744 0.18498
C_ C_ 0.300261 0.813514 0.847592 0.44287
C_ C_ 0.385787 0.792208 0.841365 0.44287
C_ C_ 0.393549 0.799515 0.870826 -0.05681
C_ C_ 0.44206 0.793656 0.882816 -0.08735
C_ C_ 0.449958 0.799221 0.912115 -0.08735
C_ C_ 0.409722 0.804796 0.931391 -0.05681
C_ C_ 0.360136 0.811631 0.91985 -0.05681
C_ C_ 0.352109 0.806139 0.890283 -0.05681
C_ C_ 0.305144 0.817321 0.877915 -0.05681
C_ C_ 0.265734 0.83686 0.895505 -0.08735
C_ C_ 0.271737 0.836386 0.925712 -0.08735
C_ C_ 0.321665 0.828151 0.938007 -0.05681
C_ C_ 0.331447 0.838343 0.967791 0.44287
C_ C_ 0.418191 0.808061 0.961964 0.44287
C_ C_ 0.381909 0.843264 0.510032 0.18498
C_ C_ 0.406252 0.889029 0.51675 -0.08735
C_ C_ 0.422091 0.899956 0.544549 -0.08735
C_ C_ 0.406095 0.869074 0.566842 -0.08735
C_ C_ 0.376167 0.824909 0.561524 0.18498
C_ C_ 0.364204 0.811639 0.532273 -0.05681
C_ C_ 0.335467 0.76648 0.525967 -0.08735
C_ C_ 0.320053 0.736642 0.550487 -0.08735
C_ C_ 0.323592 0.757467 0.577789 0.1947
N_ N_ 0.123471 0.672634 0.978492 -0.29468
N_ N_ 0.150058 0.687372 0.581863 -0.17154
N_ N_ 0.108522 0.66934 0.728626 -0.17154
N_ N_ 0.12809 0.696111 0.833495 -0.29468
N_ N_ 0.367148 0.82307 0.726235 -0.29468
N_ N_ 0.339431 0.801446 0.830202 -0.17154
N_ N_ 0.379191 0.825078 0.979287 -0.17154
N_ N_ 0.353119 0.798133 0.582667 -0.29468
O_ O_ 0.202705 0.694536 0.929712 -0.58347
O_ O_ 0.190611 0.67876 0.884915 -0.58347
O_ O_ 0.1099 0.7532 0.933865 -0.58347
O_ O_ 0.130195 0.762541 0.888025 -0.58347
O_ O_ 0.142762 0.603386 0.927672 -0.58347
O_ O_ 0.11355 0.608748 0.884037 -0.58347
O_ O_ 0.055137 0.664729 0.92757 -0.58347
O_ O_ 0.0461477 0.694778 0.884689 -0.58347
O_ O_ 0.0718123 0.719464 0.575878 -0.46727
O_ O_ 0.235831 0.6696 0.589248 -0.46727
O_ O_ 0.0260337 0.697469 0.723866 -0.46727
O_ O_ 0.193913 0.64985 0.733461 -0.46727
O_ O_ 0.283462 0.810255 0.678974 -0.58347
O_ O_ 0.286861 0.80879 0.631059 -0.58347
O_ O_ 0.36002 0.742207 0.680597 -0.58347
O_ O_ 0.370588 0.734843 0.634686 -0.58347
O_ O_ 0.357888 0.891318 0.672863 -0.58347
O_ O_ 0.356508 0.883826 0.625789 -0.58347
O_ O_ 0.428959 0.825262 0.672137 -0.58347
O_ O_ 0.438997 0.812498 0.627532 -0.58347
O_ O_ 0.420046 0.765222 0.827341 -0.46727
O_ O_ 0.25869 0.831425 0.835071 -0.46727
O_ O_ 0.461194 0.789659 0.973413 -0.46727
O_ O_ 0.294739 0.847594 0.985203 -0.46727
Zn Zn 0.626743 0.183464 0.378916 0.90689
Zn Zn 0.631485 0.181498 0.4281 0.90689
Zn Zn 0.868335 0.318427 0.136043 0.90689
Zn Zn 0.858968 0.325499 0.183378 0.90689
H_ H_ 0.799855 0.192986 0.44551 0.11455
H_ H_ 0.869744 0.170324 0.350109 0.11455
H_ H_ 0.779275 0.159204 0.358316 0.11455
H_ H_ 0.883141 0.165477 0.466159 0.11455
H_ H_ 0.977868 0.16265 0.459563 0.11455
H_ H_ 0.956104 0.186078 0.368136 0.11455
H_ H_ 0.660121 0.0147796 0.44061 0.11455
H_ H_ 0.60877 0.434702 0.345487 0.11455
H_ H_ 0.624799 0.0154787 0.348935 0.11455
H_ H_ 0.652676 0.427328 0.462261 0.11455
H_ H_ 0.64231 0.33712 0.458951 0.11455
H_ H_ 0.619985 0.3466 0.368011 0.11455
H_ H_ 0.592196 0.0938791 0.459629 0.11455
H_ H_ 0.567895 0.0883772 0.00791247 0.11455
H_ H_ 0.60979 0.124164 0.0531895 0.11455
H_ H_ 0.689287 0.246772 0.472257 0.11455
H_ H_ 0.75013 0.290804 0.0185446 0.11455
H_ H_ 0.714345 0.27074 0.0674565 0.11455
H_ H_ 0.522179 0.199211 0.117764 0.11455
H_ H_ 0.507578 0.172727 0.169416 0.11455
H_ H_ 0.770892 0.146674 0.139904 0.11455
H_ H_ 0.759078 0.159239 0.189676 0.11455
H_ H_ 0.582597 0.0820552 0.24438 0.11455
H_ H_ 0.563466 0.0556785 0.295097 0.11455
H_ H_ 0.571058 0.115753 0.335487 0.11455
H_ H_ 0.645529 0.257084 0.256128 0.11455
H_ H_ 0.677716 0.302999 0.299845 0.11455
H_ H_ 0.680936 0.263739 0.34362 0.11455
H_ H_ 0.691581 0.297472 0.199189 0.11455
H_ H_ 0.635477 0.344539 0.100228 0.11455
H_ H_ 0.721352 0.345785 0.115413 0.11455
H_ H_ 0.597956 0.297811 0.215193 0.11455
H_ H_ 0.507821 0.281662 0.20122 0.11455
H_ H_ 0.547005 0.33638 0.115296 0.11455
H_ H_ 0.871157 0.494104 0.195997 0.11455
H_ H_ 0.852842 0.0664698 0.0950043 0.11455
H_ H_ 0.831315 0.478575 0.105902 0.11455
H_ H_ 0.895681 0.0706843 0.211261 0.11455
H_ H_ 0.890887 0.162983 0.209729 0.11455
H_ H_ 0.86282 0.14951 0.118299 0.11455
H_ H_ 0.903204 0.409526 0.222283 0.11455
H_ H_ 0.906779 0.445026 0.271323 0.11455
H_ H_ 0.87362 0.391823 0.310393 0.11455
H_ H_ 0.808272 0.25998 0.22686 0.11455
H_ H_ 0.800661 0.192476 0.263903 0.11455
H_ H_ 0.823207 0.212522 0.312928 0.11455
H_ H_ 0.994216 0.301346 0.373209 0.11455
H_ H_ 0.00481693 0.296974 0.424659 0.11455
H_ H_ 0.739912 0.315051 0.394742 0.11455
H_ H_ 0.753934 0.317027 0.445148 0.11455
H_ H_ 0.954097 0.410193 0.505489 0.11455
H_ H_ 0.953838 0.439514 0.0563092 0.11455
H_ H_ 0.911664 0.389888 0.0945722 0.11455
H_ H_ 0.856819 0.25363 0.00914504 0.11455
H_ H_ 0.816734 0.206364 0.0471784 0.11455
H_ H_ 0.819611 0.238056 0.0983102 0.11455
C_ C_ 0.727329 0.186062 0.40454 0.68181
C_ C_ 0.781843 0.179042 0.401444 -0.05681
C_ C_ 0.813447 0.184383 0.4249 -0.08735
C_ C_ 0.865031 0.178368 0.422132 -0.05681
C_ C_ 0.885553 0.177796 0.394372 -0.05681
C_ C_ 0.853954 0.175215 0.371505 -0.08735
C_ C_ 0.802391 0.173015 0.3752 -0.08735
C_ C_ 0.898362 0.171043 0.445849 -0.08735
C_ C_ 0.952323 0.167003 0.441033 -0.08735
C_ C_ 0.971984 0.175185 0.414042 -0.05681
C_ C_ 0.938994 0.179676 0.390382 -0.08735
C_ C_ 0.623916 0.280767 0.41117 0.68181
C_ C_ 0.63809 0.0826814 0.396049 0.68181
C_ C_ 0.640922 0.02379 0.395498 -0.05681
C_ C_ 0.645499 0.497375 0.419789 -0.08735
C_ C_ 0.641618 0.443681 0.41738 -0.05681
C_ C_ 0.629227 0.419994 0.390381 -0.05681
C_ C_ 0.624614 0.450846 0.365121 -0.08735
C_ C_ 0.629556 0.503853 0.367546 -0.08735
C_ C_ 0.640346 0.412516 0.441091 -0.08735
C_ C_ 0.639218 0.358775 0.438815 -0.08735
C_ C_ 0.624242 0.336193 0.412841 -0.05681
C_ C_ 0.623867 0.366707 0.38888 -0.08735
C_ C_ 0.530584 0.178493 0.401618 0.68181
C_ C_ 0.6053 0.11636 0.478238 0.1947
C_ C_ 0.593729 0.119508 0.00695023 -0.08735
C_ C_ 0.621179 0.138269 0.0313598 -0.08735
C_ C_ 0.652051 0.179543 0.0287808 -0.05681
C_ C_ 0.668623 0.19171 0.999754 0.18498
C_ C_ 0.6824 0.230294 0.493053 -0.08735
C_ C_ 0.720875 0.260542 0.0208166 -0.08735
C_ C_ 0.70202 0.250449 0.0481034 -0.08735
C_ C_ 0.670074 0.209338 0.052354 0.18498
C_ C_ 0.700379 0.176772 0.0989955 0.44287
C_ C_ 0.614897 0.196539 0.0930688 0.44287
C_ C_ 0.604465 0.187578 0.12279 -0.05681
C_ C_ 0.554402 0.191574 0.133333 -0.08735
C_ C_ 0.545562 0.177677 0.162803 -0.08735
C_ C_ 0.587632 0.174061 0.18245 -0.05681
C_ C_ 0.637891 0.173428 0.169926 -0.05681
C_ C_ 0.646108 0.173394 0.139903 -0.05681
C_ C_ 0.696334 0.166253 0.128308 -0.05681
C_ C_ 0.735145 0.154225 0.147652 -0.08735
C_ C_ 0.727248 0.16318 0.176542 -0.08735
C_ C_ 0.679076 0.168387 0.188323 -0.05681
C_ C_ 0.670754 0.167809 0.217509 0.44287
C_ C_ 0.581773 0.175488 0.211934 0.44287
C_ C_ 0.612132 0.155393 0.257199 0.18498
C_ C_ 0.593655 0.10556 0.262742 -0.08735
C_ C_ 0.581157 0.0914079 0.291245 -0.08735
C_ C_ 0.592341 0.123788 0.314764 -0.08735
C_ C_ 0.615251 0.171064 0.310051 0.18498
C_ C_ 0.618568 0.189144 0.28032 -0.05681
C_ C_ 0.641975 0.237631 0.2766 -0.08735
C_ C_ 0.660502 0.265703 0.300571 -0.08735
C_ C_ 0.65919 0.244268 0.327837 0.1947
C_ C_ 0.76814 0.307554 0.159087 0.68181
C_ C_ 0.710896 0.311003 0.154064 -0.05681
C_ C_ 0.676334 0.307596 0.177393 -0.08735
C_ C_ 0.623579 0.307911 0.1718 -0.05681
C_ C_ 0.606898 0.317557 0.143096 -0.05681
C_ C_ 0.643754 0.330611 0.122097 -0.08735
C_ C_ 0.695038 0.331823 0.129612 -0.08735
C_ C_ 0.586247 0.29943 0.193209 -0.08735
C_ C_ 0.534819 0.29357 0.185113 -0.08735
C_ C_ 0.518342 0.307702 0.157608 -0.05681
C_ C_ 0.554895 0.323348 0.136464 -0.08735
C_ C_ 0.876276 0.21961 0.161824 0.68181
C_ C_ 0.854873 0.422448 0.154463 0.68181
C_ C_ 0.846458 0.477571 0.151874 -0.05681
C_ C_ 0.872501 0.0056344 0.169917 -0.08735
C_ C_ 0.877904 0.0583031 0.166712 -0.05681
C_ C_ 0.870636 0.0796781 0.140461 -0.05681
C_ C_ 0.856155 0.0500189 0.116496 -0.08735
C_ C_ 0.835384 0.5015 0.125701 -0.08735
C_ C_ 0.890846 0.0871227 0.191182 -0.08735
C_ C_ 0.888585 0.139349 0.189641 -0.08735
C_ C_ 0.877064 0.163117 0.164271 -0.05681
C_ C_ 0.872759 0.133587 0.138937 -0.08735
C_ C_ 0.958434 0.334526 0.158854 0.68181
C_ C_ 0.881486 0.389449 0.237897 0.1947
C_ C_ 0.886402 0.407445 0.266298 -0.08735
C_ C_ 0.867371 0.377219 0.289507 -0.08735
C_ C_ 0.848321 0.328025 0.283655 -0.05681
C_ C_ 0.843276 0.313668 0.255168 0.18498
C_ C_ 0.821485 0.265179 0.248116 -0.08735
C_ C_ 0.813168 0.230214 0.269172 -0.08735
C_ C_ 0.827665 0.240946 0.297759 -0.08735
C_ C_ 0.842247 0.291277 0.306217 0.18498
C_ C_ 0.814233 0.307825 0.354008 0.44287
C_ C_ 0.90331 0.304674 0.345516 0.44287
C_ C_ 0.913082 0.309269 0.375181 -0.05681
C_ C_ 0.961436 0.305752 0.386943 -0.08735
C_ C_ 0.968385 0.304908 0.416677 -0.08735
C_ C_ 0.927784 0.317029 0.434746 -0.05681
C_ C_ 0.879306 0.323881 0.423106 -0.05681
C_ C_ 0.871742 0.316739 0.393212 -0.05681
C_ C_ 0.821877 0.315532 0.382416 -0.05681
C_ C_ 0.779313 0.317397 0.401654 -0.08735
C_ C_ 0.786906 0.321254 0.431134 -0.08735
C_ C_ 0.836672 0.327045 0.442953 -0.05681
C_ C_ 0.84894 0.336035 0.472407 0.44287
C_ C_ 0.936719 0.32093 0.4649 0.44287
C_ C_ 0.908496 0.343346 0.0136789 0.18498
C_ C_ 0.931986 0.389409 0.0210273 -0.08735
C_ C_ 0.93657 0.403735 0.0507401 -0.08735
C_ C_ 0.916962 0.374492 0.072959 -0.08735
C_ C_ 0.89157 0.328645 0.066075 0.18498
C_ C_ 0.888787 0.311256 0.0366091 -0.05681
C_ C_ 0.861973 0.26766 0.0301486 -0.08735
C_ C_ 0.836392 0.242281 0.0521464 -0.08735
C_ C_ 0.839461 0.26087 0.0804279 0.1947
N_ N_ 0.629348 0.161508 0.474307 -0.29468
N_ N_ 0.661312 0.191424 0.0818753 -0.17154
N_ N_ 0.623072 0.172144 0.228816 -0.17154
N_ N_ 0.633199 0.199008 0.33269 -0.29468
N_ N_ 0.860329 0.34383 0.233387 -0.29468
N_ N_ 0.853672 0.304814 0.335475 -0.17154
N_ N_ 0.898196 0.33361 0.482922 -0.17154
N_ N_ 0.870703 0.300864 0.0876998 -0.29468
O_ O_ 0.706667 0.188633 0.428367 -0.58347
O_ O_ 0.700457 0.190993 0.382285 -0.58347
O_ O_ 0.62406 0.254629 0.434549 -0.58347
O_ O_ 0.621329 0.258644 0.387834 -0.58347
O_ O_ 0.638879 0.105506 0.420016 -0.58347
O_ O_ 0.636174 0.108353 0.372993 -0.58347
O_ O_ 0.557829 0.166988 0.422454 -0.58347
O_ O_ 0.549077 0.174653 0.376381 -0.58347
O_ O_ 0.577165 0.201169 0.0754328 -0.46727
O_ O_ 0.744175 0.172119 0.0873877 -0.46727
O_ O_ 0.537578 0.177422 0.222908 -0.46727
O_ O_ 0.709661 0.170314 0.235359 -0.46727
O_ O_ 0.785485 0.319537 0.183624 -0.58347
O_ O_ 0.797263 0.297825 0.138185 -0.58347
O_ O_ 0.867847 0.246628 0.184018 -0.58347
O_ O_ 0.881415 0.242501 0.138635 -0.58347
O_ O_ 0.852718 0.401481 0.178527 -0.58347
O_ O_ 0.851003 0.394929 0.132388 -0.58347
O_ O_ 0.928876 0.336153 0.180527 -0.58347
O_ O_ 0.940863 0.334634 0.133495 -0.58347
O_ O_ 0.939765 0.292221 0.327456 -0.46727
O_ O_ 0.768493 0.31386 0.34308 -0.46727
O_ O_ 0.982737 0.317083 0.474826 -0.46727
O_ O_ 0.813379 0.34912 0.490031 -0.46727
Zn Zn 0.638197 0.193261 0.880055 0.90689
Zn Zn 0.648273 0.186576 0.928082 0.90689
Zn Zn 0.876308 0.311899 0.635017 0.90689
Zn Zn 0.868591 0.31745 0.682971 0.90689
H_ H_ 0.815856 0.177972 0.944276 0.11455
H_ H_ 0.886935 0.174795 0.843473 0.11455
H_ H_ 0.792502 0.157524 0.853014 0.11455
H_ H_ 0.901115 0.19066 0.961689 0.11455
H_ H_ 0.99437 0.200302 0.95235 0.11455
H_ H_ 0.965845 0.183394 0.860702 0.11455
H_ H_ 0.658372 0.018057 0.938366 0.11455
H_ H_ 0.63264 0.437685 0.850846 0.11455
H_ H_ 0.61795 0.0348427 0.847328 0.11455
H_ H_ 0.624337 0.431865 0.96901 0.11455
H_ H_ 0.614786 0.340065 0.963373 0.11455
H_ H_ 0.650693 0.35727 0.873452 0.11455
H_ H_ 0.59102 0.111745 0.962175 0.11455
H_ H_ 0.579448 0.0659567 0.509533 0.11455
H_ H_ 0.599099 0.117282 0.551657 0.11455
H_ H_ 0.720996 0.235254 0.974992 0.11455
H_ H_ 0.715546 0.294106 0.514841 0.11455
H_ H_ 0.671657 0.272682 0.562353 0.11455
H_ H_ 0.507001 0.205417 0.620819 0.11455
H_ H_ 0.502336 0.198718 0.67463 0.11455
H_ H_ 0.762569 0.169029 0.631452 0.11455
H_ H_ 0.757713 0.168973 0.683253 0.11455
H_ H_ 0.58622 0.0898349 0.74799 0.11455
H_ H_ 0.575852 0.059795 0.798427 0.11455
H_ H_ 0.587733 0.122243 0.837041 0.11455
H_ H_ 0.665689 0.257374 0.75619 0.11455
H_ H_ 0.685404 0.310879 0.796444 0.11455
H_ H_ 0.679201 0.275073 0.847198 0.11455
H_ H_ 0.70387 0.319541 0.702923 0.11455
H_ H_ 0.636146 0.312732 0.601313 0.11455
H_ H_ 0.726291 0.289782 0.610895 0.11455
H_ H_ 0.610873 0.305996 0.719182 0.11455
H_ H_ 0.521586 0.294309 0.708462 0.11455
H_ H_ 0.552536 0.330001 0.61903 0.11455
H_ H_ 0.882384 0.482851 0.697511 0.11455
H_ H_ 0.935441 0.0532259 0.614287 0.11455
H_ H_ 0.830499 0.467407 0.612339 0.11455
H_ H_ 0.832148 0.0706779 0.717614 0.11455
H_ H_ 0.853298 0.163238 0.712609 0.11455
H_ H_ 0.921367 0.137457 0.62892 0.11455
H_ H_ 0.927648 0.389996 0.717019 0.11455
H_ H_ 0.945733 0.424643 0.764636 0.11455
H_ H_ 0.909376 0.381626 0.806872 0.11455
H_ H_ 0.808239 0.259348 0.728361 0.11455
H_ H_ 0.782837 0.203908 0.769503 0.11455
H_ H_ 0.793941 0.236387 0.816763 0.11455
H_ H_ 0.993865 0.293992 0.878033 0.11455
H_ H_ 0.0125692 0.310298 0.926883 0.11455
H_ H_ 0.746782 0.339539 0.892529 0.11455
H_ H_ 0.759239 0.337597 0.944101 0.11455
H_ H_ 0.94044 0.417375 1.00312645 0.11455
H_ H_ 0.982371 0.421456 0.554533 0.11455
H_ H_ 0.930753 0.386086 0.593029 0.11455
H_ H_ 0.861796 0.250308 0.511509 0.11455
H_ H_ 0.811995 0.21451 0.551374 0.11455
H_ H_ 0.815151 0.250117 0.598819 0.11455
C_ C_ 0.742215 0.18703 0.902672 0.68181
C_ C_ 0.79678 0.178586 0.898121 -0.05681
C_ C_ 0.830731 0.183463 0.921956 -0.08735
C_ C_ 0.883812 0.189216 0.916864 -0.05681
C_ C_ 0.901714 0.183223 0.888852 -0.05681
C_ C_ 0.869451 0.177168 0.865497 -0.08735
C_ C_ 0.817228 0.174089 0.869413 -0.08735
C_ C_ 0.918598 0.191975 0.939237 -0.08735
C_ C_ 0.969268 0.193011 0.933579 -0.08735
C_ C_ 0.989084 0.186415 0.905742 -0.05681
C_ C_ 0.953321 0.183219 0.883051 -0.08735
C_ C_ 0.630508 0.285858 0.914118 0.68181
C_ C_ 0.644621 0.0905328 0.896249 0.68181
C_ C_ 0.637467 0.033435 0.893107 -0.05681
C_ C_ 0.632403 0.49804 0.926575 -0.08735
C_ C_ 0.630244 0.446126 0.923318 -0.05681
C_ C_ 0.636909 0.423781 0.896873 -0.05681
C_ C_ 0.635741 0.453592 0.872049 -0.08735
C_ C_ 0.630169 0.505253 0.875107 -0.08735
C_ C_ 0.624502 0.41428 0.947595 -0.08735
C_ C_ 0.626946 0.363181 0.945072 -0.08735
C_ C_ 0.631289 0.341103 0.917763 -0.05681
C_ C_ 0.63979 0.372966 0.894441 -0.08735
C_ C_ 0.544599 0.181938 0.907241 0.68181
C_ C_ 0.609658 0.131312 0.98006 0.1947
C_ C_ 0.600974 0.0960657 0.505935 -0.08735
C_ C_ 0.614596 0.125305 0.530033 -0.08735
C_ C_ 0.640583 0.170398 0.525555 -0.05681
C_ C_ 0.652127 0.186564 0.496834 0.18498
C_ C_ 0.706539 0.229827 0.997233 -0.08735
C_ C_ 0.693455 0.259938 0.517418 -0.08735
C_ C_ 0.67529 0.24615 0.545245 -0.08735
C_ C_ 0.65217 0.201306 0.54968 0.18498
C_ C_ 0.683112 0.178764 0.595987 0.44287
C_ C_ 0.59467 0.194554 0.591626 0.44287
C_ C_ 0.589469 0.191514 0.622097 -0.05681
C_ C_ 0.541057 0.196405 0.634386 -0.08735
C_ C_ 0.538738 0.198458 0.664562 -0.08735
C_ C_ 0.582906 0.188216 0.681782 -0.05681
C_ C_ 0.629912 0.18301 0.669187 -0.05681
C_ C_ 0.635461 0.183505 0.639013 -0.05681
C_ C_ 0.682301 0.181426 0.626152 -0.05681
C_ C_ 0.724456 0.171156 0.642509 -0.08735
C_ C_ 0.722181 0.174388 0.671642 -0.08735
C_ C_ 0.675017 0.180124 0.686206 -0.05681
C_ C_ 0.671562 0.174047 0.715835 0.44287
C_ C_ 0.582009 0.186431 0.713155 0.44287
C_ C_ 0.616853 0.16321 0.758511 0.18498
C_ C_ 0.595555 0.115447 0.764688 -0.08735
C_ C_ 0.589758 0.0990934 0.793534 -0.08735
C_ C_ 0.597787 0.131832 0.815626 -0.08735
C_ C_ 0.623582 0.179004 0.811094 0.18498
C_ C_ 0.627939 0.197111 0.781824 -0.05681
C_ C_ 0.65573 0.245254 0.776922 -0.08735
C_ C_ 0.669074 0.272976 0.80112 -0.08735
C_ C_ 0.662354 0.253899 0.828871 0.1947
C_ C_ 0.776088 0.312813 0.660077 0.68181
C_ C_ 0.721781 0.314937 0.65574 -0.05681
C_ C_ 0.688712 0.313837 0.680086 -0.08735
C_ C_ 0.635031 0.316249 0.674432 -0.05681
C_ C_ 0.616976 0.32116 0.646322 -0.05681
C_ C_ 0.65084 0.315632 0.622588 -0.08735
C_ C_ 0.70209 0.306885 0.627804 -0.08735
C_ C_ 0.600595 0.306586 0.696267 -0.08735
C_ C_ 0.549159 0.308408 0.691845 -0.08735
C_ C_ 0.528829 0.317594 0.663718 -0.05681
C_ C_ 0.563201 0.323716 0.640917 -0.08735
C_ C_ 0.88323 0.217102 0.66525 0.68181
C_ C_ 0.868751 0.414215 0.654393 0.68181
C_ C_ 0.867889 0.472106 0.651752 -0.05681
C_ C_ 0.853601 0.000942432 0.676529 -0.08735
C_ C_ 0.867024 0.0525335 0.676462 -0.05681
C_ C_ 0.894269 0.0714218 0.65235 -0.05681
C_ C_ 0.915073 0.0376959 0.632265 -0.08735
C_ C_ 0.845557 0.494153 0.628584 -0.08735
C_ C_ 0.849862 0.0866616 0.697898 -0.08735
C_ C_ 0.863376 0.137807 0.695053 -0.08735
C_ C_ 0.883527 0.158808 0.669334 -0.05681
C_ C_ 0.904292 0.123178 0.648442 -0.08735
C_ C_ 0.971293 0.320478 0.65849 0.68181
C_ C_ 0.907122 0.37424 0.734229 0.1947
C_ C_ 0.917889 0.394643 0.761669 -0.08735
C_ C_ 0.89836 0.36732 0.785609 -0.08735
C_ C_ 0.868431 0.324133 0.782012 -0.05681
C_ C_ 0.856481 0.306984 0.753829 0.18498
C_ C_ 0.82446 0.264319 0.749153 -0.08735
C_ C_ 0.807819 0.235798 0.772828 -0.08735
C_ C_ 0.816025 0.254458 0.800723 -0.08735
C_ C_ 0.850425 0.29489 0.806288 0.18498
C_ C_ 0.820481 0.322359 0.853631 0.44287
C_ C_ 0.907568 0.303833 0.847111 0.44287
C_ C_ 0.917119 0.313045 0.876891 -0.05681
C_ C_ 0.964444 0.305149 0.889736 -0.08735
C_ C_ 0.973378 0.311943 0.918584 -0.08735
C_ C_ 0.931918 0.320023 0.936019 -0.05681
C_ C_ 0.882429 0.325775 0.924879 -0.05681
C_ C_ 0.875211 0.324499 0.895184 -0.05681
C_ C_ 0.826921 0.330021 0.883359 -0.05681
C_ C_ 0.783566 0.337147 0.90095 -0.08735
C_ C_ 0.790844 0.330889 0.930826 -0.08735
C_ C_ 0.83926 0.330826 0.943045 -0.05681
C_ C_ 0.848782 0.336683 0.973275 0.44287
C_ C_ 0.937518 0.320396 0.966271 0.44287
C_ C_ 0.909886 0.342785 0.513312 0.18498
C_ C_ 0.941661 0.382089 0.521109 -0.08735
C_ C_ 0.949279 0.396634 0.549567 -0.08735
C_ C_ 0.925037 0.371424 0.570498 -0.08735
C_ C_ 0.891642 0.331267 0.564169 0.18498
C_ C_ 0.885382 0.316155 0.535832 -0.05681
C_ C_ 0.85693 0.271721 0.531153 -0.08735
C_ C_ 0.829778 0.250206 0.553602 -0.08735
C_ C_ 0.836002 0.266288 0.581853 0.1947
N_ N_ 0.645032 0.170807 0.976172 -0.29468
N_ N_ 0.641275 0.186443 0.579253 -0.17154
N_ N_ 0.625513 0.179096 0.728732 -0.17154
N_ N_ 0.637684 0.208747 0.833244 -0.29468
N_ N_ 0.875322 0.333509 0.731063 -0.29468
N_ N_ 0.859736 0.308662 0.836295 -0.17154
N_ N_ 0.897524 0.330838 0.983177 -0.17154
N_ N_ 0.870425 0.304294 0.587171 -0.29468
O_ O_ 0.722393 0.182163 0.92715 -0.58347
O_ O_ 0.713451 0.197651 0.880778 -0.58347
O_ O_ 0.651921 0.258964 0.933907 -0.58347
O_ O_ 0.619846 0.265811 0.8896 -0.58347
O_ O_ 0.644257 0.110807 0.921005 -0.58347
O_ O_ 0.648998 0.117563 0.873936 -0.58347
O_ O_ 0.572247 0.186543 0.927807 -0.58347
O_ O_ 0.562996 0.183579 0.882217 -0.58347
O_ O_ 0.558183 0.216049 0.576266 -0.46727
O_ O_ 0.72781 0.17413 0.582732 -0.46727
O_ O_ 0.5383 0.185487 0.725984 -0.46727
O_ O_ 0.712544 0.182283 0.731505 -0.46727
O_ O_ 0.795864 0.309816 0.685086 -0.58347
O_ O_ 0.804352 0.320355 0.637885 -0.58347
O_ O_ 0.878082 0.242417 0.687697 -0.58347
O_ O_ 0.876797 0.236654 0.640676 -0.58347
O_ O_ 0.863754 0.391843 0.678425 -0.58347
O_ O_ 0.877412 0.386649 0.631847 -0.58347
O_ O_ 0.943717 0.326759 0.68028 -0.58347
O_ O_ 0.950145 0.30721 0.635354 -0.58347
O_ O_ 0.943855 0.286035 0.831422 -0.46727
O_ O_ 0.774694 0.328243 0.840903 -0.46727
O_ O_ 0.983315 0.315161 0.978309 -0.46727
O_ O_ 0.810401 0.346377 0.990842 -0.46727
Zn Zn 0.621838 0.685211 0.380217 0.90689
Zn Zn 0.630008 0.683853 0.429523 0.90689
Zn Zn 0.870759 0.813286 0.134325 0.90689
Zn Zn 0.863821 0.822361 0.183071 0.90689
H_ H_ 0.805878 0.728062 0.438788 0.11455
H_ H_ 0.870423 0.672993 0.344701 0.11455
H_ H_ 0.776743 0.668975 0.351965 0.11455
H_ H_ 0.886779 0.710869 0.460562 0.11455
H_ H_ 0.978232 0.698846 0.452594 0.11455
H_ H_ 0.952619 0.681895 0.364282 0.11455
H_ H_ 0.644977 0.517984 0.439194 0.11455
H_ H_ 0.62341 0.926163 0.34928 0.11455
H_ H_ 0.627353 0.526271 0.347585 0.11455
H_ H_ 0.656391 0.931156 0.466282 0.11455
H_ H_ 0.644495 0.835757 0.461499 0.11455
H_ H_ 0.595134 0.847416 0.374885 0.11455
H_ H_ 0.579921 0.605464 0.462349 0.11455
H_ H_ 0.563369 0.581047 0.0183223 0.11455
H_ H_ 0.609674 0.62262 0.056294 0.11455
H_ H_ 0.698841 0.740271 0.472487 0.11455
H_ H_ 0.706916 0.809468 0.0131507 0.11455
H_ H_ 0.689839 0.785884 0.0604398 0.11455
H_ H_ 0.5106 0.704083 0.124438 0.11455
H_ H_ 0.497864 0.679911 0.174647 0.11455
H_ H_ 0.761756 0.687148 0.138113 0.11455
H_ H_ 0.755256 0.668918 0.188407 0.11455
H_ H_ 0.583873 0.585711 0.249375 0.11455
H_ H_ 0.552366 0.565671 0.299246 0.11455
H_ H_ 0.562363 0.623791 0.338709 0.11455
H_ H_ 0.660383 0.746674 0.25838 0.11455
H_ H_ 0.680961 0.797892 0.300307 0.11455
H_ H_ 0.652903 0.778514 0.345373 0.11455
H_ H_ 0.694073 0.813769 0.196519 0.11455
H_ H_ 0.628264 0.856431 0.101838 0.11455
H_ H_ 0.721164 0.844538 0.105806 0.11455
H_ H_ 0.61192 0.794417 0.215603 0.11455
H_ H_ 0.52095 0.795944 0.20723 0.11455
H_ H_ 0.544049 0.847601 0.119757 0.11455
H_ H_ 0.872176 0.987582 0.19108 0.11455
H_ H_ 0.819524 0.571501 0.104093 0.11455
H_ H_ 0.828516 0.980042 0.102817 0.11455
H_ H_ 0.885011 0.571199 0.216784 0.11455
H_ H_ 0.904912 0.66222 0.210821 0.11455
H_ H_ 0.838908 0.658307 0.125373 0.11455
H_ H_ 0.923901 0.890761 0.214531 0.11455
H_ H_ 0.943683 0.923227 0.262893 0.11455
H_ H_ 0.905594 0.883994 0.306045 0.11455
H_ H_ 0.799615 0.767301 0.227923 0.11455
H_ H_ 0.772555 0.707564 0.267696 0.11455
H_ H_ 0.798748 0.731344 0.316177 0.11455
H_ H_ 0.983881 0.806359 0.375023 0.11455
H_ H_ -0.004750000000000032 0.802525 0.426253 0.11455
H_ H_ 0.738969 0.863015 0.388572 0.11455
H_ H_ 0.753063 0.879115 0.437995 0.11455
H_ H_ 0.942032 0.925603 0.504586 0.11455
H_ H_ 0.968626 0.917267 0.0514325 0.11455
H_ H_ 0.92987 0.876402 0.0902438 0.11455
H_ H_ 0.828168 0.757688 0.00965681 0.11455
H_ H_ 0.804681 0.698966 0.0500743 0.11455
H_ H_ 0.821997 0.73139 0.0985229 0.11455
C_ C_ 0.725514 0.693533 0.402525 0.68181
C_ C_ 0.780913 0.692553 0.398061 -0.05681
C_ C_ 0.81529 0.709232 0.419808 -0.08735
C_ C_ 0.869018 0.700449 0.416454 -0.05681
C_ C_ 0.887281 0.686926 0.389187 -0.05681
C_ C_ 0.854002 0.682315 0.365755 -0.08735
C_ C_ 0.801369 0.678452 0.370716 -0.08735
C_ C_ 0.902701 0.703681 0.439842 -0.08735
C_ C_ 0.952991 0.694136 0.43548 -0.08735
C_ C_ 0.974531 0.683973 0.407856 -0.05681
C_ C_ 0.939973 0.680769 0.384486 -0.08735
C_ C_ 0.615477 0.779837 0.416582 0.68181
C_ C_ 0.638602 0.583193 0.396679 0.68181
C_ C_ 0.642041 0.527034 0.394336 -0.05681
C_ C_ 0.649513 0.994611 0.421169 -0.08735
C_ C_ 0.640678 0.942293 0.42025 -0.05681
C_ C_ 0.623413 0.918125 0.394761 -0.05681
C_ C_ 0.62814 0.944466 0.369128 -0.08735
C_ C_ 0.633368 0.99752089 0.369223 -0.08735
C_ C_ 0.645958 0.913649 0.445084 -0.08735
C_ C_ 0.641408 0.859274 0.443071 -0.08735
C_ C_ 0.62017 0.836454 0.417902 -0.05681
C_ C_ 0.610042 0.866497 0.394566 -0.08735
C_ C_ 0.528077 0.679164 0.406927 0.68181
C_ C_ 0.599591 0.622901 0.479219 0.1947
C_ C_ 0.586027 0.613423 0.0124971 -0.08735
C_ C_ 0.613814 0.637729 0.0341665 -0.08735
C_ C_ 0.634605 0.686494 0.0278919 -0.05681
C_ C_ 0.638558 0.702178 0.999214585 0.18498
C_ C_ 0.684146 0.729687 0.493416 -0.08735
C_ C_ 0.680838 0.778536 0.0173978 -0.08735
C_ C_ 0.674184 0.762223 0.0450335 -0.08735
C_ C_ 0.651186 0.715931 0.0521001 0.18498
C_ C_ 0.68515 0.695238 0.0987535 0.44287
C_ C_ 0.597528 0.705623 0.0948748 0.44287
C_ C_ 0.590884 0.695788 0.124827 -0.05681
C_ C_ 0.542519 0.695168 0.137541 -0.08735
C_ C_ 0.534794 0.680753 0.165816 -0.08735
C_ C_ 0.578222 0.675551 0.18379 -0.05681
C_ C_ 0.627016 0.676267 0.170879 -0.05681
C_ C_ 0.63238 0.682706 0.141269 -0.05681
C_ C_ 0.681875 0.684868 0.128575 -0.05681
C_ C_ 0.724585 0.681497 0.146262 -0.08735
C_ C_ 0.718919 0.672862 0.17559 -0.08735
C_ C_ 0.671869 0.672144 0.188847 -0.05681
C_ C_ 0.664989 0.67241 0.219047 0.44287
C_ C_ 0.575259 0.675994 0.214768 0.44287
C_ C_ 0.609854 0.658152 0.260869 0.18498
C_ C_ 0.592094 0.609533 0.267401 -0.08735
C_ C_ 0.572082 0.600669 0.295472 -0.08735
C_ C_ 0.580974 0.632695 0.319061 -0.08735
C_ C_ 0.605464 0.678336 0.312821 0.18498
C_ C_ 0.618371 0.692205 0.284068 -0.05681
C_ C_ 0.64446 0.736984 0.279717 -0.08735
C_ C_ 0.665537 0.762646 0.302918 -0.08735
C_ C_ 0.651261 0.750875 0.329894 0.1947
C_ C_ 0.770768 0.819459 0.155639 0.68181
C_ C_ 0.715538 0.829758 0.153426 -0.05681
C_ C_ 0.680983 0.826392 0.176802 -0.08735
C_ C_ 0.629246 0.818913 0.171637 -0.05681
C_ C_ 0.6106 0.83683 0.145145 -0.05681
C_ C_ 0.643537 0.847675 0.122163 -0.08735
C_ C_ 0.69636 0.840468 0.12594 -0.08735
C_ C_ 0.597423 0.805756 0.194378 -0.08735
C_ C_ 0.545687 0.81191 0.190898 -0.08735
C_ C_ 0.524554 0.824596 0.163279 -0.05681
C_ C_ 0.558002 0.835264 0.14035 -0.08735
C_ C_ 0.876309 0.720969 0.166942 0.68181
C_ C_ 0.85642 0.91561 0.150232 0.68181
C_ C_ 0.8591 0.97387 0.147202 -0.05681
C_ C_ 0.855322 0.509805 0.177225 -0.08735
C_ C_ 0.854334 0.562354 0.174514 -0.05681
C_ C_ 0.8395 0.585695 0.148719 -0.05681
C_ C_ 0.828952 0.554704 0.124829 -0.08735
C_ C_ 0.848092 0.999088 0.120064 -0.08735
C_ C_ 0.877438 0.590967 0.196209 -0.08735
C_ C_ 0.886544 0.640673 0.193375 -0.08735
C_ C_ 0.867251 0.666268 0.169136 -0.05681
C_ C_ 0.846387 0.639446 0.145576 -0.08735
C_ C_ 0.966864 0.828944 0.16117 0.68181
C_ C_ 0.904575 0.876243 0.233487 0.1947
C_ C_ 0.918061 0.891597 0.260583 -0.08735
C_ C_ 0.897423 0.867333 0.285498 -0.08735
C_ C_ 0.863784 0.825451 0.282084 -0.05681
C_ C_ 0.849448 0.812222 0.252938 0.18498
C_ C_ 0.814953 0.773556 0.248726 -0.08735
C_ C_ 0.797515 0.742294 0.271635 -0.08735
C_ C_ 0.807798 0.757004 0.300701 -0.08735
C_ C_ 0.841724 0.798011 0.305618 0.18498
C_ C_ 0.811103 0.829298 0.35113 0.44287
C_ C_ 0.898781 0.808873 0.346088 0.44287
C_ C_ 0.904809 0.818322 0.375863 -0.05681
C_ C_ 0.951093 0.80985 0.388565 -0.08735
C_ C_ 0.958746 0.812853 0.418058 -0.08735
C_ C_ 0.919536 0.831913 0.436073 -0.05681
C_ C_ 0.870927 0.837693 0.423069 -0.05681
C_ C_ 0.863551 0.832326 0.393641 -0.05681
C_ C_ 0.816533 0.839688 0.380937 -0.05681
C_ C_ 0.776546 0.855938 0.398104 -0.08735
C_ C_ 0.78429 0.861065 0.427304 -0.08735
C_ C_ 0.830065 0.850312 0.440586 -0.05681
C_ C_ 0.83741 0.858297 0.470547 0.44287
C_ C_ 0.926632 0.841439 0.466096 0.44287
C_ C_ 0.896554 0.838097 0.0125519 0.18498
C_ C_ 0.926899 0.879329 0.0185317 -0.08735
C_ C_ 0.940467 0.889797 0.0460396 -0.08735
C_ C_ 0.918943 0.865792 0.0688183 -0.08735
C_ C_ 0.886038 0.823403 0.0641468 0.18498
C_ C_ 0.876718 0.808233 0.0357935 -0.05681
C_ C_ 0.843526 0.766986 0.0308622 -0.08735
C_ C_ 0.825888 0.736169 0.0529304 -0.08735
C_ C_ 0.838036 0.754121 0.0813004 0.1947
N_ N_ 0.632897 0.661781 0.475701 -0.29468
N_ N_ 0.645434 0.702494 0.082164 -0.17154
N_ N_ 0.61739 0.670948 0.230563 -0.17154
N_ N_ 0.62377 0.707545 0.334678 -0.29468
N_ N_ 0.868632 0.83971 0.230317 -0.29468
N_ N_ 0.852277 0.81423 0.334353 -0.17154
N_ N_ 0.884572 0.849857 0.48308 -0.17154
N_ N_ 0.864449 0.797118 0.0864406 -0.29468
O_ O_ 0.706395 0.685686 0.426565 -0.58347
O_ O_ 0.697077 0.694707 0.380934 -0.58347
O_ O_ 0.624525 0.753193 0.438324 -0.58347
O_ O_ 0.616517 0.756178 0.391753 -0.58347
O_ O_ 0.632923 0.605201 0.421011 -0.58347
O_ O_ 0.635473 0.610341 0.373892 -0.58347
O_ O_ 0.555654 0.676493 0.428528 -0.58347
O_ O_ 0.546738 0.67647 0.383265 -0.58347
O_ O_ 0.558759 0.718315 0.0798842 -0.46727
O_ O_ 0.728197 0.690498 0.0863027 -0.46727
O_ O_ 0.52905 0.675703 0.227495 -0.46727
O_ O_ 0.705469 0.673152 0.236459 -0.46727
O_ O_ 0.791923 0.819202 0.179786 -0.58347
O_ O_ 0.795874 0.804482 0.13349 -0.58347
O_ O_ 0.869099 0.748648 0.188913 -0.58347
O_ O_ 0.886164 0.739868 0.142051 -0.58347
O_ O_ 0.85487 0.892342 0.174837 -0.58347
O_ O_ 0.861884 0.888311 0.128164 -0.58347
O_ O_ 0.938353 0.825209 0.182358 -0.58347
O_ O_ 0.948781 0.821796 0.137116 -0.58347
O_ O_ 0.936297 0.790457 0.330401 -0.46727
O_ O_ 0.767241 0.836504 0.338182 -0.46727
O_ O_ 0.968224 0.824651 0.478736 -0.46727
O_ O_ 0.799123 0.874114 0.486922 -0.46727
Zn Zn 0.61631 0.68867 0.879901 0.90689
Zn Zn 0.624201 0.683769 0.92834 0.90689
Zn Zn 0.86272 0.810004 0.632861 0.90689
Zn Zn 0.853758 0.817388 0.682569 0.90689
H_ H_ 0.794927 0.675376 0.946008 0.11455
H_ H_ 0.875033 0.681813 0.847598 0.11455
H_ H_ 0.780231 0.684265 0.853559 0.11455
H_ H_ 0.881689 0.672554 0.966527 0.11455
H_ H_ 0.970657 0.684075 0.959475 0.11455
H_ H_ 0.955303 0.686651 0.868917 0.11455
H_ H_ 0.627466 0.515695 0.946815 0.11455
H_ H_ 0.593865 0.948151 0.845146 0.11455
H_ H_ 0.617459 0.525973 0.856205 0.11455
H_ H_ 0.661242 0.934402 0.959193 0.11455
H_ H_ 0.652252 0.842433 0.950963 0.11455
H_ H_ 0.5951 0.858942 0.866751 0.11455
H_ H_ 0.566534 0.613742 0.966522 0.11455
H_ H_ 0.561916 0.577542 0.511968 0.11455
H_ H_ 0.602308 0.614365 0.552444 0.11455
H_ H_ 0.662428 0.762901 0.972448 0.11455
H_ H_ 0.729669 0.788657 0.514078 0.11455
H_ H_ 0.725954 0.751433 0.562195 0.11455
H_ H_ 0.520447 0.685166 0.622068 0.11455
H_ H_ 0.509513 0.664247 0.673337 0.11455
H_ H_ 0.773625 0.671485 0.638936 0.11455
H_ H_ 0.762867 0.674495 0.691839 0.11455
H_ H_ 0.57217 0.590123 0.744907 0.11455
H_ H_ 0.543052 0.565216 0.793865 0.11455
H_ H_ 0.568382 0.6173 0.833021 0.11455
H_ H_ 0.678878 0.735566 0.756837 0.11455
H_ H_ 0.681477 0.795843 0.796643 0.11455
H_ H_ 0.65994 0.771384 0.843288 0.11455
H_ H_ 0.683372 0.793641 0.693802 0.11455
H_ H_ 0.620621 0.838643 0.596014 0.11455
H_ H_ 0.712956 0.843696 0.606712 0.11455
H_ H_ 0.598881 0.797756 0.711825 0.11455
H_ H_ 0.505679 0.793304 0.702063 0.11455
H_ H_ 0.536491 0.838068 0.612618 0.11455
H_ H_ 0.832461 0.988057 0.695211 0.11455
H_ H_ 0.836557 0.558382 0.603767 0.11455
H_ H_ 0.916903 0.959196 0.617265 0.11455
H_ H_ 0.898336 0.574414 0.716179 0.11455
H_ H_ 0.898988 0.667591 0.708877 0.11455
H_ H_ 0.865689 0.643112 0.618803 0.11455
H_ H_ 0.906481 0.898905 0.712787 0.11455
H_ H_ 0.932416 0.920519 0.762787 0.11455
H_ H_ 0.900548 0.87447 0.804422 0.11455
H_ H_ 0.807117 0.750766 0.724116 0.11455
H_ H_ 0.768066 0.70545 0.764821 0.11455
H_ H_ 0.79374 0.724357 0.812572 0.11455
H_ H_ 0.988474 0.782465 0.874521 0.11455
H_ H_ 1.00241 0.800531 0.92374 0.11455
H_ H_ 0.740164 0.8203 0.889324 0.11455
H_ H_ 0.748301 0.831462 0.942567 0.11455
H_ H_ 0.94741 0.895702 1.00136963 0.11455
H_ H_ 0.961789 0.938605 0.553605 0.11455
H_ H_ 0.933769 0.874242 0.592451 0.11455
H_ H_ 0.841295 0.776346 0.502248 0.11455
H_ H_ 0.809414 0.713445 0.538772 0.11455
H_ H_ 0.823422 0.730501 0.589451 0.11455
C_ C_ 0.721911 0.688295 0.902515 0.68181
C_ C_ 0.779423 0.685163 0.89964 -0.05681
C_ C_ 0.809884 0.674954 0.923501 -0.08735
C_ C_ 0.864153 0.673525 0.920716 -0.05681
C_ C_ 0.884845 0.677421 0.893183 -0.05681
C_ C_ 0.854632 0.682119 0.868998 -0.08735
C_ C_ 0.802807 0.687764 0.873236 -0.08735
C_ C_ 0.895892 0.674293 0.944609 -0.08735
C_ C_ 0.948173 0.679129 0.940411 -0.08735
C_ C_ 0.970579 0.67672 0.913961 -0.05681
C_ C_ 0.938584 0.674633 0.890157 -0.08735
C_ C_ 0.615968 0.784707 0.908002 0.68181
C_ C_ 0.622841 0.585274 0.902968 0.68181
C_ C_ 0.629629 0.529332 0.902212 -0.05681
C_ C_ 0.648167 0.00166919 0.916918 -0.08735
C_ C_ 0.635969 0.949616 0.914919 -0.05681
C_ C_ 0.618376 0.92781 0.888574 -0.05681
C_ C_ 0.610543 0.961527 0.864277 -0.08735
C_ C_ 0.627441 0.0116314 0.865518 -0.08735
C_ C_ 0.647632 0.918862 0.938085 -0.08735
C_ C_ 0.638389 0.86614 0.934814 -0.08735
C_ C_ 0.617665 0.843719 0.910444 -0.05681
C_ C_ 0.607703 0.875435 0.886878 -0.08735
C_ C_ 0.522097 0.674492 0.90503 0.68181
C_ C_ 0.58758 0.634215 0.983815 0.1947
C_ C_ 0.587437 0.608518 0.507401 -0.08735
C_ C_ 0.611451 0.631205 0.531205 -0.08735
C_ C_ 0.645243 0.669109 0.526642 -0.05681
C_ C_ 0.65476 0.686111 0.498116 0.18498
C_ C_ 0.663298 0.748623 0.994086 -0.08735
C_ C_ 0.703534 0.755551 0.517567 -0.08735
C_ C_ 0.698693 0.737515 0.546147 -0.08735
C_ C_ 0.663505 0.698939 0.551153 0.18498
C_ C_ 0.696744 0.677271 0.598664 0.44287
C_ C_ 0.609085 0.693416 0.593364 0.44287
C_ C_ 0.602689 0.685201 0.622956 -0.05681
C_ C_ 0.554203 0.67774 0.635381 -0.08735
C_ C_ 0.547839 0.674799 0.665078 -0.08735
C_ C_ 0.591538 0.676196 0.683019 -0.05681
C_ C_ 0.640886 0.675216 0.670748 -0.05681
C_ C_ 0.645749 0.679872 0.640633 -0.05681
C_ C_ 0.693719 0.677568 0.628259 -0.05681
C_ C_ 0.735833 0.674343 0.647225 -0.08735
C_ C_ 0.731115 0.673531 0.677118 -0.08735
C_ C_ 0.682808 0.670407 0.68815 -0.05681
C_ C_ 0.675081 0.659028 0.717902 0.44287
C_ C_ 0.587068 0.671245 0.712296 0.44287
C_ C_ 0.620126 0.648863 0.758897 0.18498
C_ C_ 0.589866 0.607386 0.763718 -0.08735
C_ C_ 0.573088 0.594421 0.791058 -0.08735
C_ C_ 0.585831 0.625745 0.814093 -0.08735
C_ C_ 0.617495 0.667185 0.810171 0.18498
C_ C_ 0.636432 0.67898 0.781925 -0.05681
C_ C_ 0.662818 0.72467 0.777446 -0.08735
C_ C_ 0.667253 0.758075 0.799419 -0.08735
C_ C_ 0.652075 0.743589 0.826365 0.1947
C_ C_ 0.75964 0.810403 0.653844 0.68181
C_ C_ 0.704202 0.815954 0.650366 -0.05681
C_ C_ 0.669479 0.803171 0.673085 -0.08735
C_ C_ 0.618149 0.808231 0.667719 -0.05681
C_ C_ 0.600082 0.819652 0.639925 -0.05681
C_ C_ 0.635788 0.830487 0.617453 -0.08735
C_ C_ 0.687268 0.831815 0.624115 -0.08735
C_ C_ 0.584608 0.805712 0.69036 -0.08735
C_ C_ 0.532152 0.808193 0.685149 -0.08735
C_ C_ 0.513009 0.818753 0.656223 -0.05681
C_ C_ 0.547772 0.827531 0.634265 -0.08735
C_ C_ 0.87011 0.716647 0.66135 0.68181
C_ C_ 0.858684 0.912028 0.65642 0.68181
C_ C_ 0.870929 0.967304 0.656351 -0.05681
C_ C_ 0.88089 0.501729 0.676381 -0.08735
C_ C_ 0.883307 0.555176 0.672873 -0.05681
C_ C_ 0.868117 0.576216 0.645015 -0.05681
C_ C_ 0.843431 0.545268 0.625083 -0.08735
C_ C_ 0.901125 0.985653 0.633679 -0.08735
C_ C_ 0.895612 0.589261 0.694487 -0.08735
C_ C_ 0.891819 0.641971 0.690944 -0.08735
C_ C_ 0.88184 0.662212 0.663898 -0.05681
C_ C_ 0.873084 0.629827 0.640129 -0.08735
C_ C_ 0.957458 0.826612 0.661603 0.68181
C_ C_ 0.890751 0.876682 0.732167 0.1947
C_ C_ 0.904484 0.891178 0.760337 -0.08735
C_ C_ 0.890001 0.862078 0.78403 -0.08735
C_ C_ 0.858319 0.818358 0.779458 -0.05681
C_ C_ 0.844912 0.805991 0.751102 0.18498
C_ C_ 0.812138 0.76563 0.745945 -0.08735
C_ C_ 0.795488 0.735765 0.768824 -0.08735
C_ C_ 0.811305 0.744359 0.796367 -0.08735
C_ C_ 0.843289 0.78507 0.802993 0.18498
C_ C_ 0.813058 0.809398 0.850868 0.44287
C_ C_ 0.900876 0.790386 0.846397 0.44287
C_ C_ 0.90888 0.80555 0.875377 -0.05681
C_ C_ 0.954762 0.794042 0.888173 -0.08735
C_ C_ 0.963513 0.803777 0.916844 -0.08735
C_ C_ 0.923204 0.814601 0.934875 -0.05681
C_ C_ 0.874029 0.820672 0.922443 -0.05681
C_ C_ 0.868219 0.816335 0.892422 -0.05681
C_ C_ 0.818406 0.81921 0.880269 -0.05681
C_ C_ 0.775859 0.825443 0.89808 -0.08735
C_ C_ 0.78252 0.831991 0.927839 -0.08735
C_ C_ 0.831433 0.826432 0.940115 -0.05681
C_ C_ 0.841112 0.832073 0.969905 0.44287
C_ C_ 0.928366 0.813648 0.964966 0.44287
C_ C_ 0.891734 0.860004 0.512183 0.18498
C_ C_ 0.922646 0.900654 0.521074 -0.08735
C_ C_ 0.932485 0.910749 0.549888 -0.08735
C_ C_ 0.916834 0.872608 0.569939 -0.08735
C_ C_ 0.887752 0.830575 0.562123 0.18498
C_ C_ 0.876958 0.823317 0.532995 -0.05681
C_ C_ 0.849641 0.779299 0.524866 -0.08735
C_ C_ 0.833554 0.745081 0.545269 -0.08735
C_ C_ 0.838334 0.756406 0.574065 0.1947
N_ N_ 0.615543 0.67629 0.976957 -0.29468
N_ N_ 0.654937 0.685049 0.581265 -0.17154
N_ N_ 0.628008 0.66466 0.730375 -0.17154
N_ N_ 0.623712 0.701807 0.831562 -0.29468
N_ N_ 0.859254 0.835266 0.728854 -0.29468
N_ N_ 0.853767 0.797352 0.833518 -0.17154
N_ N_ 0.887745 0.826049 0.98157 -0.17154
N_ N_ 0.865763 0.79815 0.582616 -0.29468
O_ O_ 0.700716 0.686689 0.926311 -0.58347
O_ O_ 0.693991 0.692934 0.880661 -0.58347
O_ O_ 0.620517 0.758113 0.930373 -0.58347
O_ O_ 0.612948 0.76363 0.883494 -0.58347
O_ O_ 0.631164 0.60834 0.926652 -0.58347
O_ O_ 0.62104 0.610025 0.879357 -0.58347
O_ O_ 0.548675 0.680158 0.926401 -0.58347
O_ O_ 0.541756 0.681072 0.880815 -0.58347
O_ O_ 0.57062 0.710107 0.577623 -0.46727
O_ O_ 0.740577 0.670585 0.586679 -0.46727
O_ O_ 0.543488 0.685353 0.724467 -0.46727
O_ O_ 0.714902 0.650573 0.734544 -0.46727
O_ O_ 0.777948 0.803399 0.678952 -0.58347
O_ O_ 0.786445 0.808733 0.631125 -0.58347
O_ O_ 0.865768 0.74425 0.683355 -0.58347
O_ O_ 0.8664 0.736286 0.636901 -0.58347
O_ O_ 0.843145 0.891652 0.678892 -0.58347
O_ O_ 0.86859 0.885119 0.634687 -0.58347
O_ O_ 0.928667 0.831493 0.682769 -0.58347
O_ O_ 0.938477 0.811194 0.638095 -0.58347
O_ O_ 0.935554 0.768379 0.831035 -0.46727
O_ O_ 0.76753 0.814475 0.838889 -0.46727
O_ O_ 0.973736 0.805193 0.977028 -0.46727
O_ O_ 0.802725 0.843974 0.98645 -0.46727
