_cell_length_a 26.376
_cell_length_b 26.400000238300095
_cell_length_c 46.67800035477134
_cell_angle_alpha 90.00700052986613
_cell_angle_beta 89.99899961309502
_cell_angle_gamma 90.45000003183146
_symmetry_space_group_name_H-M         'P 1'
_symmetry_Int_Tables_number            1
loop_
_symmetry_equiv_pos_as_xyz
   'x, y, z'
                         
loop_
_atom_site_label
_atom_site_type_symbol
_atom_site_fract_x 
_atom_site_fract_y
_atom_site_fract_z
_atom_site_charge
Zn Zn 0.110297 0.192039 0.382288 0.90689
Zn Zn 0.118731 0.189204 0.429591 0.90689
Zn Zn 0.369075 0.320113 0.13524 0.90689
Zn Zn 0.36279 0.327265 0.183002 0.90689
H_ H_ 0.290215 0.20216 0.447631 0.11455
H_ H_ 0.353714 0.160869 0.35342 0.11455
H_ H_ 0.262397 0.191361 0.356964 0.11455
H_ H_ 0.377687 0.198249 0.465918 0.11455
H_ H_ 0.466066 0.185622 0.458087 0.11455
H_ H_ 0.444349 0.166965 0.369711 0.11455
H_ H_ 0.137892 0.0188151 0.441957 0.11455
H_ H_ 0.115334 0.446339 0.341386 0.11455
H_ H_ 0.104072 0.0343994 0.351336 0.11455
H_ H_ 0.107842 0.438438 0.461219 0.11455
H_ H_ 0.101518 0.344829 0.457814 0.11455
H_ H_ 0.117162 0.358822 0.367361 0.11455
H_ H_ 0.0489377 0.133051 0.468991 0.11455
H_ H_ 0.0694917 0.0880867 0.0116793 0.11455
H_ H_ 0.103101 0.128001 0.0541975 0.11455
H_ H_ 0.193887 0.240785 0.473308 0.11455
H_ H_ 0.221002 0.308982 0.018446 0.11455
H_ H_ 0.179997 0.29164 0.0645628 0.11455
H_ H_ 0.0031867 0.22208 0.118822 0.11455
H_ H_ -0.011421000000000014 0.205826 0.172629 0.11455
H_ H_ 0.247954 0.162872 0.138349 0.11455
H_ H_ 0.235573 0.158982 0.190408 0.11455
H_ H_ 0.0532791 0.0901139 0.251675 0.11455
H_ H_ 0.0426867 0.0633715 0.300586 0.11455
H_ H_ 0.0609103 0.127502 0.339078 0.11455
H_ H_ 0.141455 0.254818 0.25863 0.11455
H_ H_ 0.17429 0.301321 0.301991 0.11455
H_ H_ 0.146448 0.272457 0.349494 0.11455
H_ H_ 0.196958 0.30816 0.197232 0.11455
H_ H_ 0.118638 0.328182 0.100767 0.11455
H_ H_ 0.210527 0.3432 0.107392 0.11455
H_ H_ 0.104101 0.295909 0.216595 0.11455
H_ H_ 0.0131705 0.321456 0.211988 0.11455
H_ H_ 0.0340449 0.325049 0.12118 0.11455
H_ H_ 0.382841 0.490446 0.195375 0.11455
H_ H_ 0.397229 0.0652436 0.102431 0.11455
H_ H_ 0.345029 0.480453 0.105489 0.11455
H_ H_ 0.329443 0.0739609 0.214219 0.11455
H_ H_ 0.343252 0.163 0.211559 0.11455
H_ H_ 0.386583 0.152284 0.124619 0.11455
H_ H_ 0.425979 0.39427 0.220659 0.11455
H_ H_ 0.42742 0.432147 0.269649 0.11455
H_ H_ 0.379896 0.391392 0.305686 0.11455
H_ H_ 0.292775 0.272252 0.225889 0.11455
H_ H_ 0.262323 0.219407 0.267356 0.11455
H_ H_ 0.283056 0.242199 0.313021 0.11455
H_ H_ 0.471717 0.289969 0.374345 0.11455
H_ H_ 0.485274 0.29643 0.425481 0.11455
H_ H_ 0.23485 0.370085 0.391114 0.11455
H_ H_ 0.251473 0.387977 0.441705 0.11455
H_ H_ 0.439472 0.403394 0.500997 0.11455
H_ H_ 0.416622 0.454546 0.0481402 0.11455
H_ H_ 0.405074 0.399125 0.0883652 0.11455
H_ H_ 0.315969 0.260263 0.0132441 0.11455
H_ H_ 0.300236 0.209736 0.0561722 0.11455
H_ H_ 0.329196 0.241411 0.105379 0.11455
C_ C_ 0.213467 0.202026 0.405694 0.68181
C_ C_ 0.269352 0.201298 0.402487 -0.05681
C_ C_ 0.30218 0.199787 0.425762 -0.08735
C_ C_ 0.354577 0.188502 0.4214 -0.05681
C_ C_ 0.37512 0.181401 0.394213 -0.05681
C_ C_ 0.341308 0.181053 0.37101 -0.08735
C_ C_ 0.289808 0.192702 0.374629 -0.08735
C_ C_ 0.386655 0.183486 0.444465 -0.08735
C_ C_ 0.438916 0.184095 0.44 -0.08735
C_ C_ 0.461981 0.178216 0.413315 -0.05681
C_ C_ 0.428464 0.172902 0.390385 -0.08735
C_ C_ 0.110081 0.291152 0.411714 0.68181
C_ C_ 0.117405 0.0913815 0.400792 0.68181
C_ C_ 0.119335 0.0353626 0.397708 -0.05681
C_ C_ 0.125581 0.50409 0.417779 -0.08735
C_ C_ 0.118297 0.450678 0.415526 -0.05681
C_ C_ 0.114417 0.429561 0.388595 -0.05681
C_ C_ 0.120405 0.460175 0.362961 -0.08735
C_ C_ 0.125773 0.512799 0.36596 -0.08735
C_ C_ 0.11446 0.421257 0.441163 -0.08735
C_ C_ 0.0992251 0.369935 0.43853 -0.08735
C_ C_ 0.103818 0.347716 0.41127 -0.05681
C_ C_ 0.108878 0.377341 0.387066 -0.08735
C_ C_ 0.0148861 0.191668 0.407293 0.68181
C_ C_ 0.0799923 0.139546 0.483511 0.1947
C_ C_ 0.0995915 0.113462 0.00984109 -0.08735
C_ C_ 0.111476 0.143691 0.0332981 -0.08735
C_ C_ 0.138491 0.186859 0.0291363 -0.05681
C_ C_ 0.150327 0.202881 1.000543608 0.18498
C_ C_ 0.179405 0.232142 0.494206 -0.08735
C_ C_ 0.194029 0.277498 0.0191751 -0.08735
C_ C_ 0.176473 0.265814 0.0462369 -0.08735
C_ C_ 0.151942 0.218903 0.0526287 0.18498
C_ C_ 0.179103 0.190794 0.0985318 0.44287
C_ C_ 0.0935262 0.21204 0.092949 0.44287
C_ C_ 0.0838976 0.204499 0.122033 -0.05681
C_ C_ 0.0348823 0.211787 0.133689 -0.08735
C_ C_ 0.0262446 0.203475 0.163329 -0.08735
C_ C_ 0.0670678 0.191587 0.181664 -0.05681
C_ C_ 0.11597 0.18829 0.170974 -0.05681
C_ C_ 0.122725 0.190234 0.140434 -0.05681
C_ C_ 0.171819 0.182588 0.128917 -0.05681
C_ C_ 0.211589 0.172657 0.146944 -0.08735
C_ C_ 0.202862 0.166782 0.1768 -0.08735
C_ C_ 0.156091 0.176795 0.189846 -0.05681
C_ C_ 0.148856 0.171392 0.219338 0.44287
C_ C_ 0.0602839 0.182941 0.211885 0.44287
C_ C_ 0.0909353 0.160586 0.260476 0.18498
C_ C_ 0.069995 0.111722 0.267805 -0.08735
C_ C_ 0.0625604 0.0997027 0.296105 -0.08735
C_ C_ 0.0716829 0.13473 0.317915 -0.08735
C_ C_ 0.090379 0.182603 0.312129 0.18498
C_ C_ 0.102378 0.196138 0.28281 -0.05681
C_ C_ 0.127357 0.241386 0.278958 -0.08735
C_ C_ 0.144599 0.269854 0.303123 -0.08735
C_ C_ 0.134019 0.252762 0.330797 0.1947
C_ C_ 0.264421 0.321305 0.156149 0.68181
C_ C_ 0.208653 0.326122 0.152529 -0.05681
C_ C_ 0.177122 0.317125 0.177048 -0.08735
C_ C_ 0.123616 0.320389 0.174367 -0.05681
C_ C_ 0.102652 0.328459 0.14669 -0.05681
C_ C_ 0.135541 0.331773 0.121892 -0.08735
C_ C_ 0.187457 0.336755 0.125693 -0.08735
C_ C_ 0.090581 0.315726 0.198373 -0.08735
C_ C_ 0.038391 0.320058 0.193179 -0.08735
C_ C_ 0.0176805 0.327378 0.165387 -0.05681
C_ C_ 0.0491198 0.327579 0.14226 -0.08735
C_ C_ 0.3726 0.222367 0.166101 0.68181
C_ C_ 0.366655 0.420682 0.154808 0.68181
C_ C_ 0.364631 0.477067 0.151528 -0.05681
C_ C_ 0.355574 0.00614995 0.173313 -0.08735
C_ C_ 0.35172 0.059184 0.171394 -0.05681
C_ C_ 0.364278 0.0832173 0.144955 -0.05681
C_ C_ 0.377327 0.052157 0.121567 -0.08735
C_ C_ 0.358452 0.50091 0.124765 -0.08735
C_ C_ 0.333774 0.0899175 0.193433 -0.08735
C_ C_ 0.343344 0.141989 0.192685 -0.08735
C_ C_ 0.362145 0.165225 0.16739 -0.05681
C_ C_ 0.37529 0.134818 0.144659 -0.08735
C_ C_ 0.46692 0.321158 0.161839 0.68181
C_ C_ 0.401061 0.380662 0.2371 0.1947
C_ C_ 0.403586 0.40014 0.263974 -0.08735
C_ C_ 0.381299 0.374708 0.286257 -0.08735
C_ C_ 0.351935 0.331985 0.281576 -0.05681
C_ C_ 0.345578 0.314966 0.252363 0.18498
C_ C_ 0.30779 0.278311 0.246618 -0.08735
C_ C_ 0.286845 0.251969 0.270119 -0.08735
C_ C_ 0.303198 0.263103 0.297188 -0.08735
C_ C_ 0.330491 0.305551 0.304048 0.18498
C_ C_ 0.302708 0.336348 0.350676 0.44287
C_ C_ 0.384719 0.300265 0.347086 0.44287
C_ C_ 0.396478 0.311771 0.375724 -0.05681
C_ C_ 0.442572 0.304573 0.386942 -0.08735
C_ C_ 0.448291 0.302358 0.416703 -0.08735
C_ C_ 0.407761 0.317112 0.435104 -0.05681
C_ C_ 0.360478 0.327215 0.423031 -0.05681
C_ C_ 0.356607 0.329916 0.392914 -0.05681
C_ C_ 0.309415 0.340488 0.380408 -0.05681
C_ C_ 0.270313 0.360573 0.399422 -0.08735
C_ C_ 0.276268 0.365451 0.428162 -0.08735
C_ C_ 0.321525 0.347023 0.441023 -0.05681
C_ C_ 0.327294 0.344692 0.470173 0.44287
C_ C_ 0.413288 0.317811 0.464907 0.44287
C_ C_ 0.373861 0.349589 0.0135234 0.18498
C_ C_ 0.393012 0.397748 0.0177349 -0.08735
C_ C_ 0.400714 0.414868 0.0451745 -0.08735
C_ C_ 0.394513 0.38278 0.0679559 -0.08735
C_ C_ 0.376877 0.335304 0.0645308 0.18498
C_ C_ 0.361387 0.317921 0.0366847 -0.05681
C_ C_ 0.334729 0.272304 0.0334384 -0.08735
C_ C_ 0.323662 0.243635 0.0584102 -0.08735
C_ C_ 0.339971 0.261268 0.0856429 0.1947
N_ N_ 0.119752 0.171515 0.476717 -0.29468
N_ N_ 0.140732 0.206072 0.0818535 -0.17154
N_ N_ 0.10095 0.172322 0.230281 -0.17154
N_ N_ 0.105581 0.210439 0.335182 -0.29468
N_ N_ 0.367146 0.34201 0.230243 -0.29468
N_ N_ 0.341006 0.317537 0.334165 -0.17154
N_ N_ 0.373563 0.332619 0.482127 -0.17154
N_ N_ 0.36457 0.306378 0.0879228 -0.29468
O_ O_ 0.193821 0.18257 0.42736 -0.58347
O_ O_ 0.186782 0.209471 0.383628 -0.58347
O_ O_ 0.128179 0.265257 0.432483 -0.58347
O_ O_ 0.0944481 0.265783 0.389578 -0.58347
O_ O_ 0.112567 0.110352 0.425364 -0.58347
O_ O_ 0.123603 0.118384 0.378171 -0.58347
O_ O_ 0.0418221 0.194314 0.429215 -0.58347
O_ O_ 0.0356808 0.182421 0.383446 -0.58347
O_ O_ 0.05986 0.235187 0.0770913 -0.46727
O_ O_ 0.22156 0.175391 0.0866854 -0.46727
O_ O_ 0.0150033 0.190404 0.222936 -0.46727
O_ O_ 0.189172 0.166341 0.236717 -0.46727
O_ O_ 0.285058 0.332107 0.180827 -0.58347
O_ O_ 0.292377 0.308021 0.135648 -0.58347
O_ O_ 0.354743 0.250562 0.185277 -0.58347
O_ O_ 0.38833 0.243808 0.142982 -0.58347
O_ O_ 0.380359 0.399849 0.17846 -0.58347
O_ O_ 0.352675 0.393768 0.133988 -0.58347
O_ O_ 0.440246 0.32271 0.183976 -0.58347
O_ O_ 0.446578 0.329838 0.137652 -0.58347
O_ O_ 0.419563 0.278819 0.331208 -0.46727
O_ O_ 0.259994 0.350724 0.337529 -0.46727
O_ O_ 0.457714 0.309238 0.476877 -0.46727
O_ O_ 0.28701 0.351108 0.487285 -0.46727
Zn Zn 0.123348 0.182258 0.880432 0.90689
Zn Zn 0.136238 0.175301 0.928635 0.90689
Zn Zn 0.3792 0.311469 0.63329 0.90689
Zn Zn 0.366065 0.320597 0.681384 0.90689
H_ H_ 0.308745 0.184508 0.946082 0.11455
H_ H_ 0.368983 0.179272 0.845617 0.11455
H_ H_ 0.280887 0.179409 0.855611 0.11455
H_ H_ 0.398828 0.178743 0.964781 0.11455
H_ H_ 0.487454 0.181026 0.954467 0.11455
H_ H_ 0.459835 0.172891 0.863656 0.11455
H_ H_ 0.110087 0.00929598 0.942782 0.11455
H_ H_ 0.144253 0.426977 0.846767 0.11455
H_ H_ 0.14788 0.0272963 0.850727 0.11455
H_ H_ 0.127257 0.424724 0.963112 0.11455
H_ H_ 0.127322 0.333456 0.958535 0.11455
H_ H_ 0.130683 0.348669 0.866962 0.11455
H_ H_ 0.0913508 0.10618 0.964412 0.11455
H_ H_ 0.0535673 0.0821899 0.514771 0.11455
H_ H_ 0.111651 0.108947 0.552463 0.11455
H_ H_ 0.193495 0.256553 0.975856 0.11455
H_ H_ 0.20992 0.297816 0.512683 0.11455
H_ H_ 0.186747 0.277994 0.561527 0.11455
H_ H_ 0.0115599 0.195713 0.621864 0.11455
H_ H_ 0.00279591 0.200312 0.675256 0.11455
H_ H_ 0.260985 0.161905 0.635318 0.11455
H_ H_ 0.250007 0.151331 0.68738 0.11455
H_ H_ 0.0625383 0.0932614 0.746369 0.11455
H_ H_ 0.0652032 0.0544332 0.795658 0.11455
H_ H_ 0.0782808 0.111573 0.837511 0.11455
H_ H_ 0.166187 0.242915 0.757272 0.11455
H_ H_ 0.199586 0.287668 0.799565 0.11455
H_ H_ 0.183958 0.257201 0.848157 0.11455
H_ H_ 0.197592 0.329477 0.697002 0.11455
H_ H_ 0.133318 0.31353 0.595957 0.11455
H_ H_ 0.221819 0.30152 0.604466 0.11455
H_ H_ 0.111516 0.333955 0.714251 0.11455
H_ H_ 0.02154 0.318864 0.707907 0.11455
H_ H_ 0.0482372 0.312598 0.614922 0.11455
H_ H_ 0.375865 0.486373 0.692222 0.11455
H_ H_ 0.401312 0.0584342 0.60424 0.11455
H_ H_ 0.385006 0.468424 0.602978 0.11455
H_ H_ 0.336372 0.0755379 0.713819 0.11455
H_ H_ 0.344115 0.162138 0.70859 0.11455
H_ H_ 0.410091 0.144585 0.623711 0.11455
H_ H_ 0.422095 0.382992 0.714921 0.11455
H_ H_ 0.452294 0.403362 0.762107 0.11455
H_ H_ 0.423134 0.355914 0.803067 0.11455
H_ H_ 0.308418 0.254697 0.724095 0.11455
H_ H_ 0.280285 0.201071 0.763793 0.11455
H_ H_ 0.288853 0.223756 0.812371 0.11455
H_ H_ 0.477766 0.280186 0.877179 0.11455
H_ H_ 0.488415 0.295798 0.930643 0.11455
H_ H_ 0.233845 0.358885 0.885185 0.11455
H_ H_ 0.241167 0.361785 0.936417 0.11455
H_ H_ 0.393501 0.425727 -0.0005749999999999922 0.11455
H_ H_ 0.459572 0.426177 0.551107 0.11455
H_ H_ 0.430267 0.373967 0.591313 0.11455
H_ H_ 0.316233 0.269863 0.511996 0.11455
H_ H_ 0.296241 0.214025 0.552009 0.11455
H_ H_ 0.319534 0.235864 0.599718 0.11455
C_ C_ 0.231148 0.188913 0.90741 0.68181
C_ C_ 0.28682 0.183653 0.901956 -0.05681
C_ C_ 0.322783 0.182584 0.924734 -0.08735
C_ C_ 0.375389 0.18291 0.919312 -0.05681
C_ C_ 0.392856 0.180144 0.891329 -0.05681
C_ C_ 0.358995 0.181695 0.868575 -0.08735
C_ C_ 0.307325 0.184142 0.873558 -0.08735
C_ C_ 0.410073 0.182036 0.942161 -0.08735
C_ C_ 0.461117 0.185307 0.936567 -0.08735
C_ C_ 0.479102 0.179413 0.908942 -0.05681
C_ C_ 0.445415 0.178179 0.885503 -0.08735
C_ C_ 0.117892 0.278827 0.909681 0.68181
C_ C_ 0.138554 0.079418 0.900578 0.68181
C_ C_ 0.134446 0.0240538 0.898571 -0.05681
C_ C_ 0.126209 0.494249 0.920757 -0.08735
C_ C_ 0.125563 0.44065 0.918292 -0.05681
C_ C_ 0.124554 0.418485 0.8906 -0.05681
C_ C_ 0.132992 0.447077 0.86664 -0.08735
C_ C_ 0.138104 0.50075 0.868733 -0.08735
C_ C_ 0.120432 0.409237 0.942516 -0.08735
C_ C_ 0.124363 0.356533 0.939099 -0.08735
C_ C_ 0.119341 0.335396 0.912138 -0.05681
C_ C_ 0.12495 0.366324 0.887426 -0.08735
C_ C_ 0.0298151 0.17825 0.907203 0.68181
C_ C_ 0.11133 0.128095 0.981872 0.1947
C_ C_ 0.0761317 0.11644 0.511336 -0.08735
C_ C_ 0.112472 0.129257 0.532529 -0.08735
C_ C_ 0.138111 0.173899 0.528391 -0.05681
C_ C_ 0.145089 0.193594 0.4999 0.18498
C_ C_ 0.178292 0.247818 0.995889 -0.08735
C_ C_ 0.191896 0.263149 0.516715 -0.08735
C_ C_ 0.176591 0.251576 0.54487 -0.08735
C_ C_ 0.152394 0.20443 0.550988 0.18498
C_ C_ 0.187388 0.18169 0.596692 0.44287
C_ C_ 0.0990802 0.192579 0.592468 0.44287
C_ C_ 0.0913456 0.184592 0.622054 -0.05681
C_ C_ 0.0444623 0.195768 0.635568 -0.08735
C_ C_ 0.0397658 0.1986 0.665157 -0.08735
C_ C_ 0.0819876 0.189231 0.683202 -0.05681
C_ C_ 0.13014 0.182349 0.670331 -0.05681
C_ C_ 0.134224 0.178567 0.640308 -0.05681
C_ C_ 0.182628 0.17148 0.627081 -0.05681
C_ C_ 0.223752 0.166113 0.645025 -0.08735
C_ C_ 0.219768 0.16291 0.674494 -0.08735
C_ C_ 0.171957 0.173451 0.687485 -0.05681
C_ C_ 0.163286 0.166605 0.716671 0.44287
C_ C_ 0.0780129 0.189799 0.713362 0.44287
C_ C_ 0.110802 0.154823 0.758884 0.18498
C_ C_ 0.0833537 0.111168 0.76362 -0.08735
C_ C_ 0.0791112 0.0909233 0.79167 -0.08735
C_ C_ 0.0916484 0.120663 0.816617 -0.08735
C_ C_ 0.11772 0.169037 0.81231 0.18498
C_ C_ 0.12759 0.184453 0.782767 -0.05681
C_ C_ 0.15687 0.229141 0.777796 -0.08735
C_ C_ 0.178835 0.252921 0.80194 -0.08735
C_ C_ 0.168696 0.235767 0.830444 0.1947
C_ C_ 0.275038 0.311943 0.656853 0.68181
C_ C_ 0.21853 0.310529 0.651748 -0.05681
C_ C_ 0.184623 0.315873 0.675066 -0.08735
C_ C_ 0.133395 0.315349 0.670944 -0.05681
C_ C_ 0.11528 0.316224 0.642708 -0.05681
C_ C_ 0.14778 0.310495 0.618208 -0.08735
C_ C_ 0.198554 0.30468 0.623643 -0.08735
C_ C_ 0.0993053 0.320777 0.693655 -0.08735
C_ C_ 0.0475013 0.319129 0.689074 -0.08735
C_ C_ 0.0282769 0.319966 0.660674 -0.05681
C_ C_ 0.0628832 0.318914 0.637266 -0.08735
C_ C_ 0.372956 0.220204 0.663268 0.68181
C_ C_ 0.37206 0.414967 0.651001 0.68181
C_ C_ 0.37433 0.471336 0.647971 -0.05681
C_ C_ 0.358863 0.00381834 0.674956 -0.08735
C_ C_ 0.365466 0.0574019 0.671699 -0.05681
C_ C_ 0.3861 0.0773104 0.647356 -0.05681
C_ C_ 0.39692 0.0443334 0.624938 -0.08735
C_ C_ 0.38099 0.493224 0.621622 -0.08735
C_ C_ 0.350483 0.0893299 0.69373 -0.08735
C_ C_ 0.356174 0.141086 0.691071 -0.08735
C_ C_ 0.374033 0.163257 0.666759 -0.05681
C_ C_ 0.388297 0.130569 0.643256 -0.08735
C_ C_ 0.474542 0.317469 0.661637 0.68181
C_ C_ 0.403157 0.367317 0.733097 0.1947
C_ C_ 0.422332 0.375067 0.75957 -0.08735
C_ C_ 0.401075 0.352595 0.784219 -0.08735
C_ C_ 0.362995 0.316 0.780395 -0.05681
C_ C_ 0.345391 0.306492 0.752385 0.18498
C_ C_ 0.315392 0.264324 0.746384 -0.08735
C_ C_ 0.301913 0.233138 0.769099 -0.08735
C_ C_ 0.311538 0.244465 0.796733 -0.08735
C_ C_ 0.338326 0.287449 0.804071 0.18498
C_ C_ 0.305799 0.318293 0.849806 0.44287
C_ C_ 0.392583 0.292057 0.846725 0.44287
C_ C_ 0.399984 0.304189 0.876544 -0.05681
C_ C_ 0.444459 0.299471 0.890635 -0.08735
C_ C_ 0.450419 0.305189 0.921008 -0.08735
C_ C_ 0.40783 0.315097 0.937947 -0.05681
C_ C_ 0.362762 0.325002 0.923866 -0.05681
C_ C_ 0.358237 0.32007 0.893014 -0.05681
C_ C_ 0.309973 0.329329 0.878808 -0.05681
C_ C_ 0.269847 0.347823 0.895206 -0.08735
C_ C_ 0.274264 0.351869 0.924896 -0.08735
C_ C_ 0.320002 0.338395 0.940421 -0.05681
C_ C_ 0.32462 0.344833 0.970133 0.44287
C_ C_ 0.410446 0.321564 0.968057 0.44287
C_ C_ 0.385467 0.346866 0.512931 0.18498
C_ C_ 0.423027 0.384562 0.518072 -0.08735
C_ C_ 0.43549 0.394892 0.546446 -0.08735
C_ C_ 0.421767 0.364274 0.569793 -0.08735
C_ C_ 0.389442 0.322649 0.563866 0.18498
C_ C_ 0.369429 0.314145 0.535788 -0.05681
C_ C_ 0.337208 0.273393 0.531552 -0.08735
C_ C_ 0.318322 0.248096 0.554167 -0.08735
C_ C_ 0.333662 0.259048 0.581795 0.1947
N_ N_ 0.131379 0.17477 0.977446 -0.29468
N_ N_ 0.146476 0.191768 0.580395 -0.17154
N_ N_ 0.117765 0.17225 0.728884 -0.17154
N_ N_ 0.137638 0.19507 0.835017 -0.29468
N_ N_ 0.365455 0.333834 0.729688 -0.29468
N_ N_ 0.345559 0.296864 0.834722 -0.17154
N_ N_ 0.368048 0.333277 0.984138 -0.17154
N_ N_ 0.366703 0.299223 0.586281 -0.29468
O_ O_ 0.212784 0.177454 0.932546 -0.58347
O_ O_ 0.201614 0.190679 0.885759 -0.58347
O_ O_ 0.131114 0.252904 0.930454 -0.58347
O_ O_ 0.115772 0.259046 0.885283 -0.58347
O_ O_ 0.138032 0.100599 0.925272 -0.58347
O_ O_ 0.131778 0.10712 0.878409 -0.58347
O_ O_ 0.0586947 0.178685 0.928639 -0.58347
O_ O_ 0.0473711 0.172682 0.881676 -0.58347
O_ O_ 0.0590874 0.203063 0.575466 -0.46727
O_ O_ 0.233939 0.184078 0.585454 -0.46727
O_ O_ 0.0337245 0.19009 0.725147 -0.46727
O_ O_ 0.202055 0.155203 0.73309 -0.46727
O_ O_ 0.290646 0.31331 0.682484 -0.58347
O_ O_ 0.303913 0.317163 0.636039 -0.58347
O_ O_ 0.371402 0.248767 0.683524 -0.58347
O_ O_ 0.378859 0.238702 0.638864 -0.58347
O_ O_ 0.361844 0.396566 0.674168 -0.58347
O_ O_ 0.384333 0.387207 0.630221 -0.58347
O_ O_ 0.446054 0.322243 0.682314 -0.58347
O_ O_ 0.457495 0.314456 0.636206 -0.58347
O_ O_ 0.427962 0.267108 0.832018 -0.46727
O_ O_ 0.260729 0.316615 0.837919 -0.46727
O_ O_ 0.45009 0.304746 0.981168 -0.46727
O_ O_ 0.284998 0.356847 0.985231 -0.46727
Zn Zn 0.12764 0.692671 0.378948 0.90689
Zn Zn 0.139202 0.6872 0.42772 0.90689
Zn Zn 0.37579 0.817523 0.134217 0.90689
Zn Zn 0.370372 0.822786 0.182739 0.90689
H_ H_ 0.306368 0.696005 0.441366 0.11455
H_ H_ 0.369857 0.646413 0.346592 0.11455
H_ H_ 0.280262 0.658252 0.353785 0.11455
H_ H_ 0.395421 0.698234 0.459802 0.11455
H_ H_ 0.484922 0.695376 0.450707 0.11455
H_ H_ 0.459051 0.662313 0.361701 0.11455
H_ H_ 0.125672 0.521938 0.439304 0.11455
H_ H_ 0.105365 0.945593 0.346667 0.11455
H_ H_ 0.132758 0.535645 0.34796 0.11455
H_ H_ 0.136144 0.935215 0.46424 0.11455
H_ H_ 0.13938 0.842651 0.457927 0.11455
H_ H_ 0.105554 0.863122 0.367505 0.11455
H_ H_ 0.0843268 0.628479 0.464276 0.11455
H_ H_ 0.0685292 0.569124 0.00814298 0.11455
H_ H_ 0.109123 0.616514 0.0492845 0.11455
H_ H_ 0.191413 0.768948 0.473971 0.11455
H_ H_ 0.214397 0.801772 0.00697825 0.11455
H_ H_ 0.191372 0.776286 0.0576953 0.11455
H_ H_ 0.0125702 0.709766 0.119328 0.11455
H_ H_ -0.0031560000000000477 0.687474 0.16787 0.11455
H_ H_ 0.261374 0.670315 0.136131 0.11455
H_ H_ 0.252122 0.674304 0.186004 0.11455
H_ H_ 0.0653813 0.593077 0.245332 0.11455
H_ H_ 0.0642797 0.561104 0.297199 0.11455
H_ H_ 0.0806655 0.61973 0.337087 0.11455
H_ H_ 0.144659 0.754155 0.25492 0.11455
H_ H_ 0.179755 0.806362 0.293623 0.11455
H_ H_ 0.180286 0.770499 0.344161 0.11455
H_ H_ 0.202643 0.823952 0.195938 0.11455
H_ H_ 0.132544 0.814426 0.0952078 0.11455
H_ H_ 0.226346 0.823919 0.103986 0.11455
H_ H_ 0.11852 0.80573 0.213762 0.11455
H_ H_ 0.0278119 0.799091 0.207587 0.11455
H_ H_ 0.0443756 0.830622 0.117403 0.11455
H_ H_ 0.35095 0.989203 0.194009 0.11455
H_ H_ 0.34745 0.569164 0.100766 0.11455
H_ H_ 0.374456 0.978184 0.103152 0.11455
H_ H_ 0.412436 0.572241 0.214418 0.11455
H_ H_ 0.407588 0.664184 0.2121 0.11455
H_ H_ 0.358816 0.659907 0.124628 0.11455
H_ H_ 0.424935 0.884017 0.216127 0.11455
H_ H_ 0.439417 0.925561 0.266782 0.11455
H_ H_ 0.411279 0.881982 0.307838 0.11455
H_ H_ 0.323716 0.751608 0.229348 0.11455
H_ H_ 0.291343 0.697044 0.269282 0.11455
H_ H_ 0.325342 0.718185 0.318961 0.11455
H_ H_ 0.502469 0.802069 0.37846 0.11455
H_ H_ 0.510493 0.819833 0.427705 0.11455
H_ H_ 0.251882 0.853307 0.388698 0.11455
H_ H_ 0.261428 0.869474 0.439834 0.11455
H_ H_ 0.43477 0.929487 0.511866 0.11455
H_ H_ 0.446007 0.936272 0.0532655 0.11455
H_ H_ 0.425574 0.877076 0.0927675 0.11455
H_ H_ 0.345668 0.751234 0.0106692 0.11455
H_ H_ 0.311678 0.698537 0.0506574 0.11455
H_ H_ 0.317985 0.736617 0.101139 0.11455
C_ C_ 0.231624 0.69796 0.402092 0.68181
C_ C_ 0.28784 0.687989 0.39626 -0.05681
C_ C_ 0.322968 0.691354 0.420117 -0.08735
C_ C_ 0.374788 0.683692 0.415327 -0.05681
C_ C_ 0.392295 0.671971 0.38797 -0.05681
C_ C_ 0.357534 0.663192 0.36606 -0.08735
C_ C_ 0.305171 0.673324 0.368917 -0.08735
C_ C_ 0.407989 0.690893 0.438725 -0.08735
C_ C_ 0.459564 0.687776 0.433767 -0.08735
C_ C_ 0.477937 0.679407 0.405249 -0.05681
C_ C_ 0.4446 0.670822 0.382989 -0.08735
C_ C_ 0.130624 0.786973 0.409444 0.68181
C_ C_ 0.140692 0.589147 0.39646 0.68181
C_ C_ 0.132771 0.533678 0.393034 -0.05681
C_ C_ 0.122862 1.00259769 0.422185 -0.08735
C_ C_ 0.125412 0.949756 0.418503 -0.05681
C_ C_ 0.123764 0.92799 0.390823 -0.05681
C_ C_ 0.116324 0.960216 0.36725 -0.08735
C_ C_ 0.115528 1.0130042 0.369363 -0.08735
C_ C_ 0.128947 0.918562 0.443147 -0.08735
C_ C_ 0.132487 0.865238 0.438621 -0.08735
C_ C_ 0.129931 0.842693 0.411665 -0.05681
C_ C_ 0.121385 0.875906 0.38761 -0.08735
C_ C_ 0.0352848 0.683217 0.403534 0.68181
C_ C_ 0.108081 0.641613 0.480467 0.1947
C_ C_ 0.0976283 0.600031 0.00477578 -0.08735
C_ C_ 0.117543 0.627355 0.028844 -0.08735
C_ C_ 0.142961 0.672705 0.0247115 -0.05681
C_ C_ 0.158052 0.687271 0.996067 0.18498
C_ C_ 0.185186 0.751936 0.495082 -0.08735
C_ C_ 0.192864 0.766712 0.0119622 -0.08735
C_ C_ 0.18022 0.752595 0.03995 -0.08735
C_ C_ 0.154954 0.707754 0.0478545 0.18498
C_ C_ 0.186819 0.682493 0.0950746 0.44287
C_ C_ 0.100321 0.70321 0.0897497 0.44287
C_ C_ 0.0938063 0.700245 0.11991 -0.05681
C_ C_ 0.0435022 0.698403 0.132241 -0.08735
C_ C_ 0.0361609 0.690024 0.160746 -0.08735
C_ C_ 0.0773877 0.689331 0.179886 -0.05681
C_ C_ 0.126899 0.687385 0.167619 -0.05681
C_ C_ 0.133626 0.689908 0.137657 -0.05681
C_ C_ 0.180677 0.678644 0.125454 -0.05681
C_ C_ 0.222089 0.672314 0.143887 -0.08735
C_ C_ 0.21559 0.675401 0.173889 -0.08735
C_ C_ 0.168454 0.679997 0.186388 -0.05681
C_ C_ 0.159344 0.671709 0.215611 0.44287
C_ C_ 0.0704783 0.688597 0.210108 0.44287
C_ C_ 0.101267 0.663065 0.256904 0.18498
C_ C_ 0.0781223 0.617194 0.263612 -0.08735
C_ C_ 0.0702341 0.602157 0.292606 -0.08735
C_ C_ 0.0872999 0.632587 0.315195 -0.08735
C_ C_ 0.114683 0.677841 0.309769 0.18498
C_ C_ 0.119731 0.693515 0.280073 -0.05681
C_ C_ 0.142627 0.738279 0.276343 -0.08735
C_ C_ 0.164128 0.767538 0.299249 -0.08735
C_ C_ 0.163388 0.748549 0.326995 0.1947
C_ C_ 0.277303 0.823225 0.155915 0.68181
C_ C_ 0.220799 0.825643 0.150901 -0.05681
C_ C_ 0.187777 0.822395 0.173628 -0.08735
C_ C_ 0.135611 0.816165 0.168386 -0.05681
C_ C_ 0.114297 0.818143 0.140501 -0.05681
C_ C_ 0.148334 0.8244 0.117073 -0.08735
C_ C_ 0.199225 0.821891 0.122511 -0.08735
C_ C_ 0.103558 0.810412 0.192309 -0.08735
C_ C_ 0.0506649 0.804373 0.187931 -0.08735
C_ C_ 0.0278746 0.806932 0.160276 -0.05681
C_ C_ 0.0603206 0.818074 0.137104 -0.08735
C_ C_ 0.379918 0.723782 0.166208 0.68181
C_ C_ 0.362625 0.920325 0.149969 0.68181
C_ C_ 0.359363 0.976257 0.149061 -0.05681
C_ C_ 0.377596 0.508102 0.174284 -0.08735
C_ C_ 0.378749 0.561721 0.172144 -0.05681
C_ C_ 0.372532 0.585475 0.14499 -0.05681
C_ C_ 0.3604 0.554529 0.121048 -0.08735
C_ C_ 0.37287 -0.0007080000000000419 0.122774 -0.08735
C_ C_ 0.394642 0.590286 0.19536 -0.08735
C_ C_ 0.393637 0.643463 0.193832 -0.08735
C_ C_ 0.378315 0.6676 0.168761 -0.05681
C_ C_ 0.372061 0.639622 0.144342 -0.08735
C_ C_ 0.475858 0.820086 0.158436 0.68181
C_ C_ 0.404915 0.872388 0.235188 0.1947
C_ C_ 0.41508 0.892195 0.262553 -0.08735
C_ C_ 0.398264 0.86857 0.28684 -0.08735
C_ C_ 0.368649 0.822475 0.283566 -0.05681
C_ C_ 0.356515 0.804739 0.255642 0.18498
C_ C_ 0.335585 0.758798 0.250783 -0.08735
C_ C_ 0.321733 0.727919 0.273692 -0.08735
C_ C_ 0.335617 0.742094 0.301918 -0.08735
C_ C_ 0.356556 0.790732 0.307235 0.18498
C_ C_ 0.32745 0.82367 0.352634 0.44287
C_ C_ 0.411401 0.796166 0.348578 0.44287
C_ C_ 0.419935 0.813238 0.377937 -0.05681
C_ C_ 0.46772 0.810899 0.390706 -0.08735
C_ C_ 0.472312 0.821943 0.419233 -0.08735
C_ C_ 0.430782 0.827879 0.438184 -0.05681
C_ C_ 0.383765 0.835688 0.425324 -0.05681
C_ C_ 0.378588 0.826536 0.395612 -0.05681
C_ C_ 0.331227 0.832631 0.382287 -0.05681
C_ C_ 0.287542 0.846032 0.398363 -0.08735
C_ C_ 0.294003 0.855708 0.42804 -0.08735
C_ C_ 0.340774 0.850415 0.441506 -0.05681
C_ C_ 0.348382 0.858376 0.470692 0.44287
C_ C_ 0.436466 0.839357 0.468 0.44287
C_ C_ 0.393429 0.842554 0.0138199 0.18498
C_ C_ 0.417999 0.888964 0.0196353 -0.08735
C_ C_ 0.429604 0.899833 0.0479441 -0.08735
C_ C_ 0.418311 0.865405 0.0700907 -0.08735
C_ C_ 0.389317 0.821488 0.0657329 0.18498
C_ C_ 0.379298 0.809182 0.0366098 -0.05681
C_ C_ 0.354092 0.760418 0.0324584 -0.08735
C_ C_ 0.334802 0.733445 0.0554634 -0.08735
C_ C_ 0.338518 0.753665 0.0832985 0.1947
N_ N_ 0.139334 0.683641 0.477029 -0.29468
N_ N_ 0.147014 0.695466 0.0781723 -0.17154
N_ N_ 0.110523 0.677585 0.227368 -0.17154
N_ N_ 0.133216 0.707104 0.332381 -0.29468
N_ N_ 0.372179 0.832437 0.23223 -0.29468
N_ N_ 0.365605 0.807162 0.33602 -0.17154
N_ N_ 0.393693 0.847566 0.483928 -0.17154
N_ N_ 0.365455 0.796653 0.0872338 -0.29468
O_ O_ 0.21272 0.694458 0.427529 -0.58347
O_ O_ 0.202938 0.699676 0.380429 -0.58347
O_ O_ 0.134722 0.759505 0.431493 -0.58347
O_ O_ 0.12462 0.765916 0.385571 -0.58347
O_ O_ 0.147619 0.612494 0.420224 -0.58347
O_ O_ 0.133778 0.616339 0.374225 -0.58347
O_ O_ 0.0640103 0.682824 0.42512 -0.58347
O_ O_ 0.0526456 0.684583 0.37851 -0.58347
O_ O_ 0.0630762 0.714634 0.0731726 -0.46727
O_ O_ 0.231074 0.672508 0.0834393 -0.46727
O_ O_ 0.0245452 0.692985 0.221201 -0.46727
O_ O_ 0.193609 0.647903 0.230899 -0.46727
O_ O_ 0.295783 0.824181 0.180358 -0.58347
O_ O_ 0.303048 0.812508 0.133896 -0.58347
O_ O_ 0.369476 0.75262 0.187278 -0.58347
O_ O_ 0.382696 0.743383 0.140778 -0.58347
O_ O_ 0.363544 0.900175 0.174879 -0.58347
O_ O_ 0.365896 0.891838 0.12697 -0.58347
O_ O_ 0.447303 0.823008 0.181079 -0.58347
O_ O_ 0.45531 0.821187 0.134367 -0.58347
O_ O_ 0.451305 0.791093 0.331637 -0.46727
O_ O_ 0.285165 0.835854 0.340313 -0.46727
O_ O_ 0.478785 0.827832 0.481179 -0.46727
O_ O_ 0.306916 0.863406 0.486806 -0.46727
Zn Zn 0.135345 0.681448 0.87991 0.90689
Zn Zn 0.145885 0.673327 0.92718 0.90689
Zn Zn 0.368416 0.80955 0.634957 0.90689
Zn Zn 0.36123 0.822371 0.68208 0.90689
H_ H_ 0.310895 0.686612 0.943619 0.11455
H_ H_ 0.381696 0.667671 0.847115 0.11455
H_ H_ 0.290284 0.650889 0.856205 0.11455
H_ H_ 0.397268 0.710498 0.96168 0.11455
H_ H_ 0.492959 0.71923 0.951635 0.11455
H_ H_ 0.469752 0.671682 0.867082 0.11455
H_ H_ 0.120218 0.512357 0.941036 0.11455
H_ H_ 0.142857 0.934543 0.845197 0.11455
H_ H_ 0.156773 0.521027 0.852394 0.11455
H_ H_ 0.0859874 0.920008 0.960506 0.11455
H_ H_ 0.100579 0.829952 0.955931 0.11455
H_ H_ 0.130901 0.849982 0.865675 0.11455
H_ H_ 0.0987559 0.59253 0.957503 0.11455
H_ H_ 0.0816804 0.582417 0.510362 0.11455
H_ H_ 0.12042 0.620639 0.551333 0.11455
H_ H_ 0.194721 0.740566 0.968469 0.11455
H_ H_ 0.214909 0.819685 0.515254 0.11455
H_ H_ 0.195903 0.795265 0.563782 0.11455
H_ H_ 1.0168917 0.688291 0.617301 0.11455
H_ H_ 1.00738487 0.686208 0.671397 0.11455
H_ H_ 0.271343 0.680942 0.634466 0.11455
H_ H_ 0.261087 0.681717 0.686426 0.11455
H_ H_ 0.0656257 0.587151 0.748934 0.11455
H_ H_ 0.0485713 0.564469 0.799248 0.11455
H_ H_ 0.0747156 0.619526 0.836539 0.11455
H_ H_ 0.179097 0.737179 0.755961 0.11455
H_ H_ 0.203033 0.787197 0.799408 0.11455
H_ H_ 0.201206 0.742503 0.844525 0.11455
H_ H_ 0.193168 0.791717 0.690078 0.11455
H_ H_ 0.126787 0.866319 0.599681 0.11455
H_ H_ 0.221118 0.861655 0.610153 0.11455
H_ H_ 0.110883 0.782085 0.708142 0.11455
H_ H_ 0.0160765 0.795458 0.70428 0.11455
H_ H_ 0.0410763 0.840816 0.616216 0.11455
H_ H_ 0.350074 0.988637 0.696799 0.11455
H_ H_ 0.388414 0.562951 0.59816 0.11455
H_ H_ 0.393845 0.966437 0.609034 0.11455
H_ H_ 0.384152 0.569731 0.715013 0.11455
H_ H_ 0.368048 0.660194 0.712782 0.11455
H_ H_ 0.379413 0.650705 0.620575 0.11455
H_ H_ 0.413474 0.896321 0.720288 0.11455
H_ H_ 0.41015 0.933404 0.769443 0.11455
H_ H_ 0.373258 0.884678 0.808679 0.11455
H_ H_ 0.302223 0.749799 0.726911 0.11455
H_ H_ 0.275458 0.693505 0.766963 0.11455
H_ H_ 0.306497 0.713577 0.816057 0.11455
H_ H_ 0.482695 0.803435 0.872558 0.11455
H_ H_ 0.498833 0.819277 0.924628 0.11455
H_ H_ 0.236215 0.810709 0.893212 0.11455
H_ H_ 0.249679 0.83576 0.945264 0.11455
H_ H_ 0.423473 0.9135 1.00201845 0.11455
H_ H_ 0.469872 0.932864 0.560968 0.11455
H_ H_ 0.441996 0.866932 0.593962 0.11455
H_ H_ 0.348168 0.766119 0.505276 0.11455
H_ H_ 0.298791 0.717156 0.543582 0.11455
H_ H_ 0.309585 0.743271 0.593851 0.11455
C_ C_ 0.238698 0.673745 0.902147 0.68181
C_ C_ 0.295498 0.674513 0.898785 -0.05681
C_ C_ 0.328421 0.680316 0.922827 -0.08735
C_ C_ 0.381893 0.680656 0.919825 -0.05681
C_ C_ 0.402414 0.673336 0.892732 -0.05681
C_ C_ 0.36925 0.661823 0.869427 -0.08735
C_ C_ 0.316279 0.660302 0.873248 -0.08735
C_ C_ 0.416259 0.693991 0.94249 -0.08735
C_ C_ 0.468588 0.69818 0.936753 -0.08735
C_ C_ 0.488348 0.685544 0.911042 -0.05681
C_ C_ 0.454796 0.681491 0.887731 -0.08735
C_ C_ 0.132303 0.775508 0.907662 0.68181
C_ C_ 0.139543 0.579276 0.900263 0.68181
C_ C_ 0.133806 0.523186 0.897044 -0.05681
C_ C_ 0.121176 0.991326 0.922167 -0.08735
C_ C_ 0.116759 0.939129 0.918302 -0.05681
C_ C_ 0.124584 0.917635 0.89055 -0.05681
C_ C_ 0.136907 0.949734 0.867617 -0.08735
C_ C_ 0.141812 0.00229806 0.871091 -0.08735
C_ C_ 0.101344 0.904994 0.940768 -0.08735
C_ C_ 0.109026 0.852504 0.937907 -0.08735
C_ C_ 0.121171 0.831414 0.910727 -0.05681
C_ C_ 0.126296 0.865241 0.886974 -0.08735
C_ C_ 0.0431858 0.676365 0.904034 0.68181
C_ C_ 0.115199 0.613162 0.977256 0.1947
C_ C_ 0.104819 0.617055 0.507994 -0.08735
C_ C_ 0.127211 0.638924 0.531268 -0.08735
C_ C_ 0.147967 0.689585 0.528312 -0.05681
C_ C_ 0.159766 0.705771 0.500366 0.18498
C_ C_ 0.184436 0.733385 0.990266 -0.08735
C_ C_ 0.197975 0.783175 0.518125 -0.08735
C_ C_ 0.187837 0.768327 0.546638 -0.08735
C_ C_ 0.161237 0.722958 0.551434 0.18498
C_ C_ 0.193239 0.695569 0.596275 0.44287
C_ C_ 0.105124 0.707684 0.592136 0.44287
C_ C_ 0.0985623 0.693838 0.62158 -0.05681
C_ C_ 0.0488893 0.68915 0.632702 -0.08735
C_ C_ 0.0430685 0.682094 0.662891 -0.08735
C_ C_ 0.0863196 0.672706 0.680629 -0.05681
C_ C_ 0.134879 0.67812 0.668647 -0.05681
C_ C_ 0.141349 0.687759 0.639313 -0.05681
C_ C_ 0.189814 0.688386 0.626289 -0.05681
C_ C_ 0.23337 0.686332 0.643453 -0.08735
C_ C_ 0.227278 0.679483 0.672235 -0.08735
C_ C_ 0.178544 0.677704 0.685735 -0.05681
C_ C_ 0.171337 0.663196 0.714972 0.44287
C_ C_ 0.0811086 0.668767 0.710289 0.44287
C_ C_ 0.116485 0.649694 0.75751 0.18498
C_ C_ 0.0852005 0.608198 0.765075 -0.08735
C_ C_ 0.0697708 0.597521 0.79313 -0.08735
C_ C_ 0.0885356 0.626927 0.815238 -0.08735
C_ C_ 0.116377 0.669933 0.810297 0.18498
C_ C_ 0.130058 0.682737 0.780822 -0.05681
C_ C_ 0.159971 0.728941 0.776947 -0.08735
C_ C_ 0.178338 0.754218 0.801143 -0.08735
C_ C_ 0.175776 0.73131 0.828467 0.1947
C_ C_ 0.268996 0.82355 0.653939 0.68181
C_ C_ 0.21364 0.831353 0.650714 -0.05681
C_ C_ 0.179728 0.816821 0.672623 -0.08735
C_ C_ 0.126812 0.820685 0.669211 -0.05681
C_ C_ 0.107888 0.842246 0.643203 -0.05681
C_ C_ 0.141397 0.853781 0.620312 -0.08735
C_ C_ 0.193022 0.848703 0.625359 -0.08735
C_ C_ 0.0931229 0.798588 0.689786 -0.08735
C_ C_ 0.0419782 0.804036 0.685689 -0.08735
C_ C_ 0.0218241 0.823438 0.659481 -0.05681
C_ C_ 0.0555617 0.842652 0.637799 -0.08735
C_ C_ 0.37319 0.718783 0.66262 0.68181
C_ C_ 0.360808 0.915614 0.654752 0.68181
C_ C_ 0.367038 0.971456 0.652235 -0.05681
C_ C_ 0.375646 0.502506 0.671632 -0.08735
C_ C_ 0.381659 0.555856 0.669408 -0.05681
C_ C_ 0.381874 0.578664 0.643215 -0.05681
C_ C_ 0.385013 0.54797 0.618857 -0.08735
C_ C_ 0.385666 0.991375 0.626676 -0.08735
C_ C_ 0.382539 0.587562 0.693815 -0.08735
C_ C_ 0.373399 0.638738 0.692994 -0.08735
C_ C_ 0.37203 0.662893 0.665729 -0.05681
C_ C_ 0.37614 0.631044 0.640924 -0.08735
C_ C_ 0.462284 0.822859 0.660683 0.68181
C_ C_ 0.391403 0.876287 0.73723 0.1947
C_ C_ 0.391167 0.895668 0.764342 -0.08735
C_ C_ 0.374331 0.866719 0.787017 -0.08735
C_ C_ 0.353299 0.819268 0.782327 -0.05681
C_ C_ 0.344964 0.804116 0.753349 0.18498
C_ C_ 0.318587 0.757302 0.748042 -0.08735
C_ C_ 0.302228 0.72608 0.770304 -0.08735
C_ C_ 0.312941 0.740293 0.798691 -0.08735
C_ C_ 0.336397 0.787972 0.805765 0.18498
C_ C_ 0.306418 0.806436 0.853015 0.44287
C_ C_ 0.394605 0.792299 0.846463 0.44287
C_ C_ 0.403262 0.802963 0.875711 -0.05681
C_ C_ 0.452273 0.808541 0.886022 -0.08735
C_ C_ 0.459816 0.818095 0.915995 -0.08735
C_ C_ 0.418202 0.822894 0.935149 -0.05681
C_ C_ 0.368439 0.814758 0.923928 -0.05681
C_ C_ 0.360762 0.806071 0.894854 -0.05681
C_ C_ 0.312211 0.806146 0.882175 -0.05681
C_ C_ 0.271067 0.813133 0.902045 -0.08735
C_ C_ 0.278277 0.821897 0.930984 -0.08735
C_ C_ 0.327274 0.820999 0.942489 -0.05681
C_ C_ 0.337411 0.828624 0.972205 0.44287
C_ C_ 0.425705 0.827263 0.964519 0.44287
C_ C_ 0.399602 0.854182 0.514821 0.18498
C_ C_ 0.429928 0.895825 0.524737 -0.08735
C_ C_ 0.444715 0.899275 0.553553 -0.08735
C_ C_ 0.425839 0.865176 0.573189 -0.08735
C_ C_ 0.391093 0.828132 0.56498 0.18498
C_ C_ 0.380676 0.819604 0.535204 -0.05681
C_ C_ 0.351024 0.777869 0.527549 -0.08735
C_ C_ 0.32366 0.749672 0.549076 -0.08735
C_ C_ 0.331872 0.764528 0.576914 0.1947
N_ N_ 0.140939 0.658509 0.973315 -0.29468
N_ N_ 0.152687 0.708512 0.580573 -0.17154
N_ N_ 0.122105 0.662943 0.727396 -0.17154
N_ N_ 0.144222 0.691184 0.832424 -0.29468
N_ N_ 0.364012 0.833988 0.731322 -0.29468
N_ N_ 0.346806 0.798368 0.836001 -0.17154
N_ N_ 0.384597 0.829928 0.982989 -0.17154
N_ N_ 0.368283 0.797266 0.585144 -0.29468
O_ O_ 0.220074 0.687597 0.925638 -0.58347
O_ O_ 0.209469 0.669833 0.880872 -0.58347
O_ O_ 0.133026 0.746766 0.929593 -0.58347
O_ O_ 0.141463 0.758685 0.882077 -0.58347
O_ O_ 0.160714 0.60064 0.921973 -0.58347
O_ O_ 0.126711 0.607397 0.879488 -0.58347
O_ O_ 0.0701337 0.661407 0.92479 -0.58347
O_ O_ 0.0618078 0.68773 0.880263 -0.58347
O_ O_ 0.0655597 0.717875 0.576391 -0.46727
O_ O_ 0.236291 0.683443 0.581819 -0.46727
O_ O_ 0.035748 0.663451 0.72185 -0.46727
O_ O_ 0.20977 0.648093 0.73026 -0.46727
O_ O_ 0.285865 0.810954 0.678454 -0.58347
O_ O_ 0.294167 0.81488 0.630992 -0.58347
O_ O_ 0.368903 0.745988 0.684213 -0.58347
O_ O_ 0.36775 0.736565 0.638333 -0.58347
O_ O_ 0.350772 0.896186 0.679531 -0.58347
O_ O_ 0.368234 0.88477 0.634063 -0.58347
O_ O_ 0.435361 0.835188 0.681385 -0.58347
O_ O_ 0.441371 0.809281 0.636637 -0.58347
O_ O_ 0.432315 0.781435 0.828662 -0.46727
O_ O_ 0.262724 0.819746 0.841596 -0.46727
O_ O_ 0.47233 0.829879 0.973779 -0.46727
O_ O_ 0.297901 0.832316 0.990617 -0.46727
Zn Zn 0.609605 0.178318 0.381828 0.90689
Zn Zn 0.618054 0.178791 0.43054 0.90689
Zn Zn 0.870589 0.31064 0.133888 0.90689
Zn Zn 0.855884 0.316855 0.181992 0.90689
H_ H_ 0.785908 0.199178 0.446537 0.11455
H_ H_ 0.850877 0.166172 0.350934 0.11455
H_ H_ 0.763149 0.164727 0.359705 0.11455
H_ H_ 0.86817 0.215151 0.464644 0.11455
H_ H_ 0.960139 0.205397 0.458597 0.11455
H_ H_ 0.937995 0.171599 0.368739 0.11455
H_ H_ 0.589878 0.0132877 0.439495 0.11455
H_ H_ 0.644642 0.427251 0.348085 0.11455
H_ H_ 0.638161 0.0190864 0.350866 0.11455
H_ H_ 0.619334 0.426678 0.463276 0.11455
H_ H_ 0.606698 0.334723 0.460313 0.11455
H_ H_ 0.609125 0.345966 0.368397 0.11455
H_ H_ 0.565739 0.106504 0.469094 0.11455
H_ H_ 0.599535 0.0522457 0.0124365 0.11455
H_ H_ 0.627148 0.106386 0.0528463 0.11455
H_ H_ 0.67525 0.245994 0.470388 0.11455
H_ H_ 0.71907 0.296561 0.0137008 0.11455
H_ H_ 0.690101 0.276412 0.0608996 0.11455
H_ H_ 0.520819 0.217956 0.120881 0.11455
H_ H_ 0.504428 0.201537 0.174405 0.11455
H_ H_ 0.757907 0.137353 0.135481 0.11455
H_ H_ 0.736995 0.117868 0.188401 0.11455
H_ H_ 0.567214 0.0814408 0.246875 0.11455
H_ H_ 0.534347 0.0631899 0.294846 0.11455
H_ H_ 0.549883 0.122917 0.335542 0.11455
H_ H_ 0.667502 0.23454 0.25958 0.11455
H_ H_ 0.692755 0.283993 0.301093 0.11455
H_ H_ 0.653197 0.264852 0.346889 0.11455
H_ H_ 0.696533 0.324723 0.195973 0.11455
H_ H_ 0.623112 0.318284 0.0973885 0.11455
H_ H_ 0.713544 0.321145 0.104075 0.11455
H_ H_ 0.611737 0.312128 0.218151 0.11455
H_ H_ 0.520256 0.311278 0.209995 0.11455
H_ H_ 0.53513 0.318931 0.119809 0.11455
H_ H_ 0.881844 0.482099 0.19049 0.11455
H_ H_ 0.885029 0.0617715 0.0961998 0.11455
H_ H_ 0.834806 0.47297 0.101024 0.11455
H_ H_ 0.836797 0.0616999 0.211674 0.11455
H_ H_ 0.834769 0.149683 0.211301 0.11455
H_ H_ 0.901293 0.146287 0.125746 0.11455
H_ H_ 0.913901 0.383478 0.218389 0.11455
H_ H_ 0.923459 0.424017 0.264791 0.11455
H_ H_ 0.871103 0.388536 0.308225 0.11455
H_ H_ 0.803381 0.249078 0.228527 0.11455
H_ H_ 0.753916 0.209104 0.267511 0.11455
H_ H_ 0.783078 0.231246 0.318006 0.11455
H_ H_ 0.967468 0.30283 0.373666 0.11455
H_ H_ -0.014268999999999976 0.321588 0.422729 0.11455
H_ H_ 0.719734 0.346954 0.394687 0.11455
H_ H_ 0.733415 0.346602 0.446839 0.11455
H_ H_ 0.915109 0.428592 0.502834 0.11455
H_ H_ 0.982962 0.402444 0.0462364 0.11455
H_ H_ 0.939005 0.361291 0.0869232 0.11455
H_ H_ 0.845048 0.241617 0.0115091 0.11455
H_ H_ 0.818304 0.191481 0.0530071 0.11455
H_ H_ 0.809951 0.237558 0.0995777 0.11455
C_ C_ 0.709976 0.190235 0.405332 0.68181
C_ C_ 0.766652 0.188528 0.401458 -0.05681
C_ C_ 0.800143 0.197138 0.424281 -0.08735
C_ C_ 0.852232 0.198213 0.42068 -0.05681
C_ C_ 0.87271 0.184121 0.393455 -0.05681
C_ C_ 0.840192 0.173559 0.370824 -0.08735
C_ C_ 0.787518 0.174354 0.375735 -0.08735
C_ C_ 0.884143 0.20584 0.442988 -0.08735
C_ C_ 0.936233 0.204179 0.439233 -0.08735
C_ C_ 0.958327 0.190278 0.412021 -0.05681
C_ C_ 0.924786 0.176864 0.390512 -0.08735
C_ C_ 0.60309 0.275652 0.412378 0.68181
C_ C_ 0.624465 0.0810046 0.39896 0.68181
C_ C_ 0.619074 0.0239012 0.396079 -0.05681
C_ C_ 0.636712 0.489886 0.421613 -0.08735
C_ C_ 0.627487 0.438346 0.41876 -0.05681
C_ C_ 0.627162 0.412727 0.391333 -0.05681
C_ C_ 0.628419 0.445193 0.367337 -0.08735
C_ C_ 0.639936 0.496754 0.37022 -0.08735
C_ C_ 0.616382 0.408726 0.442328 -0.08735
C_ C_ 0.612627 0.356135 0.440191 -0.08735
C_ C_ 0.607537 0.332085 0.413749 -0.05681
C_ C_ 0.613785 0.361474 0.388772 -0.08735
C_ C_ 0.517773 0.17088 0.409101 0.68181
C_ C_ 0.589196 0.124661 0.485971 0.1947
C_ C_ 0.612971 0.0903029 0.00956599 -0.08735
C_ C_ 0.630097 0.119483 0.0315448 -0.08735
C_ C_ 0.654956 0.166755 0.0270542 -0.05681
C_ C_ 0.658972 0.185119 0.998556 0.18498
C_ C_ 0.671591 0.234651 0.492732 -0.08735
C_ C_ 0.698538 0.261122 0.0167041 -0.08735
C_ C_ 0.685765 0.248489 0.0442463 -0.08735
C_ C_ 0.665184 0.199458 0.0504405 0.18498
C_ C_ 0.692557 0.17367 0.0981794 0.44287
C_ C_ 0.60675 0.197981 0.0909643 0.44287
C_ C_ 0.597745 0.194198 0.121038 -0.05681
C_ C_ 0.549998 0.201794 0.133599 -0.08735
C_ C_ 0.540035 0.19235 0.163419 -0.08735
C_ C_ 0.582707 0.185837 0.181864 -0.05681
C_ C_ 0.630716 0.174295 0.168861 -0.05681
C_ C_ 0.637066 0.179863 0.1391 -0.05681
C_ C_ 0.685564 0.168838 0.127658 -0.05681
C_ C_ 0.723726 0.148309 0.145485 -0.08735
C_ C_ 0.711502 0.137453 0.174412 -0.08735
C_ C_ 0.668269 0.158598 0.186977 -0.05681
C_ C_ 0.662569 0.159482 0.217347 0.44287
C_ C_ 0.575238 0.177346 0.212531 0.44287
C_ C_ 0.606722 0.148947 0.259299 0.18498
C_ C_ 0.574841 0.106036 0.264156 -0.08735
C_ C_ 0.552144 0.0984579 0.2899 -0.08735
C_ C_ 0.566808 0.129346 0.314646 -0.08735
C_ C_ 0.603954 0.165718 0.310932 0.18498
C_ C_ 0.6212 0.178759 0.283137 -0.05681
C_ C_ 0.64585 0.226452 0.278709 -0.08735
C_ C_ 0.665641 0.249919 0.304098 -0.08735
C_ C_ 0.650487 0.235084 0.330581 0.1947
C_ C_ 0.76682 0.300543 0.155158 0.68181
C_ C_ 0.711309 0.309901 0.151485 -0.05681
C_ C_ 0.679505 0.319347 0.175332 -0.08735
C_ C_ 0.627301 0.325243 0.17205 -0.05681
C_ C_ 0.605248 0.32704 0.144338 -0.05681
C_ C_ 0.637459 0.319341 0.120301 -0.08735
C_ C_ 0.691218 0.320509 0.123789 -0.08735
C_ C_ 0.596204 0.319893 0.196222 -0.08735
C_ C_ 0.544563 0.322045 0.192737 -0.08735
C_ C_ 0.52334 0.323543 0.164973 -0.05681
C_ C_ 0.553685 0.324912 0.140903 -0.08735
C_ C_ 0.861574 0.215192 0.163462 0.68181
C_ C_ 0.860597 0.411813 0.147071 0.68181
C_ C_ 0.864599 0.467916 0.144685 -0.05681
C_ C_ 0.852618 -0.0028730000000000144 0.168698 -0.08735
C_ C_ 0.856659 0.0504762 0.167824 -0.05681
C_ C_ 0.869265 0.0759928 0.141248 -0.05681
C_ C_ 0.878922 0.045416 0.117325 -0.08735
C_ C_ 0.851659 0.491911 0.117989 -0.08735
C_ C_ 0.850323 0.0808808 0.192336 -0.08735
C_ C_ 0.844917 0.132655 0.190398 -0.08735
C_ C_ 0.860263 0.1575 0.165067 -0.05681
C_ C_ 0.877699 0.129175 0.141985 -0.08735
C_ C_ 0.962305 0.320709 0.160264 0.68181
C_ C_ 0.891811 0.369603 0.236213 0.1947
C_ C_ 0.899294 0.390991 0.263757 -0.08735
C_ C_ 0.869822 0.372929 0.287141 -0.08735
C_ C_ 0.84385 0.325983 0.282794 -0.05681
C_ C_ 0.833728 0.308975 0.25326 0.18498
C_ C_ 0.803968 0.265965 0.248466 -0.08735
C_ C_ 0.782716 0.239089 0.271149 -0.08735
C_ C_ 0.794172 0.255183 0.299704 -0.08735
C_ C_ 0.820188 0.300163 0.30659 0.18498
C_ C_ 0.789725 0.321443 0.355029 0.44287
C_ C_ 0.877538 0.309659 0.347052 0.44287
C_ C_ 0.886585 0.313642 0.375835 -0.05681
C_ C_ 0.936372 0.314536 0.386697 -0.08735
C_ C_ 0.946171 0.323297 0.414887 -0.08735
C_ C_ 0.907199 0.326433 0.435628 -0.05681
C_ C_ 0.855401 0.324562 0.424388 -0.05681
C_ C_ 0.845433 0.324089 0.393971 -0.05681
C_ C_ 0.796581 0.327046 0.383499 -0.05681
C_ C_ 0.756281 0.338143 0.402666 -0.08735
C_ C_ 0.765819 0.338398 0.432995 -0.08735
C_ C_ 0.815891 0.335723 0.443829 -0.05681
C_ C_ 0.825079 0.340356 0.472241 0.44287
C_ C_ 0.915748 0.330631 0.466062 0.44287
C_ C_ 0.900293 0.328214 0.00953002 0.18498
C_ C_ 0.9343 0.367175 0.0155602 -0.08735
C_ C_ 0.953074 0.374398 0.0429495 -0.08735
C_ C_ 0.927699 0.352838 0.0659035 -0.08735
C_ C_ 0.887008 0.31833 0.0627202 0.18498
C_ C_ 0.881115 0.300466 0.0347129 -0.05681
C_ C_ 0.852284 0.256263 0.0321097 -0.08735
C_ C_ 0.830884 0.230431 0.0548462 -0.08735
C_ C_ 0.831887 0.255267 0.0811087 0.1947
N_ N_ 0.618564 0.164564 0.479146 -0.29468
N_ N_ 0.652574 0.186971 0.0800293 -0.17154
N_ N_ 0.615208 0.165404 0.230173 -0.17154
N_ N_ 0.621584 0.193319 0.334076 -0.29468
N_ N_ 0.858248 0.330005 0.230583 -0.29468
N_ N_ 0.829018 0.312025 0.336257 -0.17154
N_ N_ 0.874049 0.344765 0.482673 -0.17154
N_ N_ 0.86455 0.294913 0.0859786 -0.29468
O_ O_ 0.692687 0.177579 0.429318 -0.58347
O_ O_ 0.682513 0.191575 0.383416 -0.58347
O_ O_ 0.612752 0.251721 0.435353 -0.58347
O_ O_ 0.600312 0.251755 0.389024 -0.58347
O_ O_ 0.622051 0.10122 0.424449 -0.58347
O_ O_ 0.614259 0.106198 0.376901 -0.58347
O_ O_ 0.545625 0.175982 0.430768 -0.58347
O_ O_ 0.537064 0.165456 0.384695 -0.58347
O_ O_ 0.572546 0.22349 0.0753482 -0.46727
O_ O_ 0.738202 0.1669 0.085502 -0.46727
O_ O_ 0.533199 0.190014 0.22438 -0.46727
O_ O_ 0.699331 0.140031 0.23255 -0.46727
O_ O_ 0.782318 0.306152 0.18055 -0.58347
O_ O_ 0.796486 0.306837 0.13356 -0.58347
O_ O_ 0.860702 0.24315 0.186344 -0.58347
O_ O_ 0.869083 0.236651 0.13918 -0.58347
O_ O_ 0.853729 0.392067 0.171346 -0.58347
O_ O_ 0.867046 0.382483 0.125317 -0.58347
O_ O_ 0.932121 0.320922 0.181187 -0.58347
O_ O_ 0.947202 0.314314 0.135326 -0.58347
O_ O_ 0.914275 0.297033 0.330295 -0.46727
O_ O_ 0.743025 0.328694 0.345175 -0.46727
O_ O_ 0.96145 0.329841 0.477352 -0.46727
O_ O_ 0.787823 0.346195 0.489593 -0.46727
Zn Zn 0.627517 0.187535 0.880551 0.90689
Zn Zn 0.639141 0.173991 0.930251 0.90689
Zn Zn 0.879848 0.315999 0.633999 0.90689
Zn Zn 0.868124 0.316354 0.681515 0.90689
H_ H_ 0.800914 0.180279 0.946943 0.11455
H_ H_ 0.871529 0.171812 0.850023 0.11455
H_ H_ 0.783574 0.156635 0.858835 0.11455
H_ H_ 0.889099 0.177415 0.966457 0.11455
H_ H_ 0.984551 0.183145 0.957469 0.11455
H_ H_ 0.957667 0.161541 0.868245 0.11455
H_ H_ 0.686036 0.0150315 0.931061 0.11455
H_ H_ 0.63636 0.43397 0.84902 0.11455
H_ H_ 0.60743 0.0318846 0.853286 0.11455
H_ H_ 0.631629 0.428558 0.967661 0.11455
H_ H_ 0.636366 0.336567 0.961979 0.11455
H_ H_ 0.644145 0.351329 0.871161 0.11455
H_ H_ 0.598497 0.0905938 0.964823 0.11455
H_ H_ 0.56993 0.070637 0.51864 0.11455
H_ H_ 0.617922 0.115609 0.556575 0.11455
H_ H_ 0.698113 0.244221 0.973152 0.11455
H_ H_ 0.708215 0.301948 0.508266 0.11455
H_ H_ 0.70019 0.275012 0.561411 0.11455
H_ H_ 0.515289 0.202349 0.620312 0.11455
H_ H_ 0.506864 0.181159 0.672942 0.11455
H_ H_ 0.770037 0.180799 0.638565 0.11455
H_ H_ 0.756967 0.163679 0.689249 0.11455
H_ H_ 0.577306 0.0866374 0.74761 0.11455
H_ H_ 0.544141 0.0681022 0.795701 0.11455
H_ H_ 0.574889 0.125133 0.836198 0.11455
H_ H_ 0.659275 0.248516 0.755233 0.11455
H_ H_ 0.704562 0.290524 0.795626 0.11455
H_ H_ 0.689108 0.256541 0.846544 0.11455
H_ H_ 0.704545 0.307304 0.699739 0.11455
H_ H_ 0.632221 0.315844 0.601557 0.11455
H_ H_ 0.725025 0.317259 0.608466 0.11455
H_ H_ 0.622597 0.305531 0.719338 0.11455
H_ H_ 0.528125 0.30058 0.712387 0.11455
H_ H_ 0.549168 0.330997 0.622931 0.11455
H_ H_ 0.8675 0.494084 0.699353 0.11455
H_ H_ 0.850724 0.0694459 0.595339 0.11455
H_ H_ 0.894002 0.475649 0.608021 0.11455
H_ H_ 0.902023 0.0673649 0.708628 0.11455
H_ H_ 0.886867 0.160087 0.707538 0.11455
H_ H_ 0.865855 0.149842 0.616428 0.11455
H_ H_ 0.93562 0.370845 0.717328 0.11455
H_ H_ 0.93042 0.417745 0.763135 0.11455
H_ H_ 0.882977 0.380966 0.803543 0.11455
H_ H_ 0.807197 0.250618 0.723451 0.11455
H_ H_ 0.773658 0.199265 0.764883 0.11455
H_ H_ 0.794159 0.223281 0.814008 0.11455
H_ H_ 0.989679 0.280035 0.870095 0.11455
H_ H_ 0.00640687 0.289179 0.921242 0.11455
H_ H_ 0.743735 0.32375 0.889231 0.11455
H_ H_ 0.750612 0.308324 0.941811 0.11455
H_ H_ 0.955733 0.385837 0.998347 0.11455
H_ H_ 0.945924 0.445277 0.552426 0.11455
H_ H_ 0.929762 0.385631 0.590564 0.11455
H_ H_ 0.845026 0.260429 0.509162 0.11455
H_ H_ 0.812704 0.211369 0.550094 0.11455
H_ H_ 0.819381 0.239835 0.599235 0.11455
C_ C_ 0.730829 0.184572 0.90675 0.68181
C_ C_ 0.786284 0.17118 0.903396 -0.05681
C_ C_ 0.819308 0.170937 0.925854 -0.08735
C_ C_ 0.870814 0.162912 0.922034 -0.05681
C_ C_ 0.890714 0.159489 0.893967 -0.05681
C_ C_ 0.856918 0.164747 0.871318 -0.08735
C_ C_ 0.805064 0.162669 0.876285 -0.08735
C_ C_ 0.904213 0.169461 0.945341 -0.08735
C_ C_ 0.956356 0.17189 0.940656 -0.08735
C_ C_ 0.975542 0.170039 0.912963 -0.05681
C_ C_ 0.94049 0.165484 0.889267 -0.08735
C_ C_ 0.633178 0.278489 0.913266 0.68181
C_ C_ 0.643748 0.0863724 0.897231 0.68181
C_ C_ 0.637071 0.0290099 0.895869 -0.05681
C_ C_ 0.636665 0.493891 0.924555 -0.08735
C_ C_ 0.63266 0.442325 0.921945 -0.05681
C_ C_ 0.634574 0.419538 0.894743 -0.05681
C_ C_ 0.636271 0.450433 0.870348 -0.08735
C_ C_ 0.638954 0.504406 0.872964 -0.08735
C_ C_ 0.629822 0.41094 0.946603 -0.08735
C_ C_ 0.636437 0.359027 0.943064 -0.08735
C_ C_ 0.639396 0.336112 0.915636 -0.05681
C_ C_ 0.640123 0.367513 0.891669 -0.08735
C_ C_ 0.535039 0.175974 0.905024 0.68181
C_ C_ 0.614073 0.112349 0.982261 0.1947
C_ C_ 0.58499 0.106162 0.514018 -0.08735
C_ C_ 0.612242 0.132679 0.536093 -0.08735
C_ C_ 0.639169 0.176399 0.529475 -0.05681
C_ C_ 0.645708 0.190099 0.500016 0.18498
C_ C_ 0.684 0.231055 0.993372 -0.08735
C_ C_ 0.690396 0.267085 0.514391 -0.08735
C_ C_ 0.686336 0.252281 0.544059 -0.08735
C_ C_ 0.661613 0.206042 0.551625 0.18498
C_ C_ 0.693637 0.182583 0.59793 0.44287
C_ C_ 0.607191 0.198799 0.592865 0.44287
C_ C_ 0.598636 0.193024 0.62289 -0.05681
C_ C_ 0.548314 0.19175 0.634205 -0.08735
C_ C_ 0.54404 0.183392 0.66433 -0.08735
C_ C_ 0.584979 0.181066 0.682584 -0.05681
C_ C_ 0.632762 0.171412 0.669455 -0.05681
C_ C_ 0.639543 0.179415 0.64048 -0.05681
C_ C_ 0.689773 0.173749 0.628188 -0.05681
C_ C_ 0.732789 0.171396 0.646541 -0.08735
C_ C_ 0.724019 0.163305 0.675698 -0.08735
C_ C_ 0.6754 0.159589 0.686788 -0.05681
C_ C_ 0.666897 0.152796 0.716148 0.44287
C_ C_ 0.58061 0.181796 0.712306 0.44287
C_ C_ 0.61139 0.158281 0.758806 0.18498
C_ C_ 0.589559 0.110974 0.76464 -0.08735
C_ C_ 0.571392 0.100289 0.792041 -0.08735
C_ C_ 0.590184 0.129606 0.815531 -0.08735
C_ C_ 0.617646 0.173691 0.810566 0.18498
C_ C_ 0.629208 0.187308 0.781266 -0.05681
C_ C_ 0.660465 0.229865 0.776024 -0.08735
C_ C_ 0.680821 0.256787 0.800084 -0.08735
C_ C_ 0.669631 0.240574 0.828475 0.1947
C_ C_ 0.775293 0.31625 0.657588 0.68181
C_ C_ 0.721569 0.314621 0.653796 -0.05681
C_ C_ 0.689808 0.307912 0.678126 -0.08735
C_ C_ 0.637106 0.312034 0.674696 -0.05681
C_ C_ 0.615204 0.313918 0.647137 -0.05681
C_ C_ 0.646099 0.318742 0.623111 -0.08735
C_ C_ 0.700173 0.323431 0.62668 -0.08735
C_ C_ 0.605565 0.31036 0.698474 -0.08735
C_ C_ 0.553016 0.304988 0.693868 -0.08735
C_ C_ 0.531669 0.315334 0.66751 -0.05681
C_ C_ 0.564026 0.323736 0.645233 -0.08735
C_ C_ 0.875527 0.217913 0.659187 0.68181
C_ C_ 0.876443 0.418862 0.655435 0.68181
C_ C_ 0.88081 0.475806 0.653757 -0.05681
C_ C_ 0.870094 0.00240929 0.668191 -0.08735
C_ C_ 0.878491 0.0554924 0.665615 -0.05681
C_ C_ 0.874409 0.0788716 0.639047 -0.05681
C_ C_ 0.857973 0.0515411 0.615605 -0.08735
C_ C_ 0.890158 0.500831 0.626827 -0.08735
C_ C_ 0.892269 0.0863522 0.689681 -0.08735
C_ C_ 0.889617 0.138927 0.68795 -0.08735
C_ C_ 0.880229 0.162676 0.661615 -0.05681
C_ C_ 0.873876 0.13228 0.637626 -0.08735
C_ C_ 0.971786 0.316983 0.656697 0.68181
C_ C_ 0.910576 0.358701 0.734049 0.1947
C_ C_ 0.91468 0.379608 0.761333 -0.08735
C_ C_ 0.886196 0.360439 0.783337 -0.08735
C_ C_ 0.863458 0.313606 0.779196 -0.05681
C_ C_ 0.856983 0.294643 0.750766 0.18498
C_ C_ 0.817473 0.259877 0.74532 -0.08735
C_ C_ 0.797006 0.231852 0.768233 -0.08735
C_ C_ 0.807647 0.246876 0.797537 -0.08735
C_ C_ 0.842226 0.28632 0.802932 0.18498
C_ C_ 0.815532 0.312449 0.849499 0.44287
C_ C_ 0.900952 0.291754 0.842837 0.44287
C_ C_ 0.910938 0.29794 0.871806 -0.05681
C_ C_ 0.960164 0.2915 0.883701 -0.08735
C_ C_ 0.96642 0.288901 0.913741 -0.08735
C_ C_ 0.924224 0.300454 0.931309 -0.05681
C_ C_ 0.876813 0.310689 0.919669 -0.05681
C_ C_ 0.868742 0.30388 0.890303 -0.05681
C_ C_ 0.82035 0.309557 0.879491 -0.05681
C_ C_ 0.779942 0.318607 0.897922 -0.08735
C_ C_ 0.785192 0.313944 0.927996 -0.08735
C_ C_ 0.834352 0.313736 0.93888 -0.05681
C_ C_ 0.842672 0.310822 0.969392 0.44287
C_ C_ 0.93081 0.304152 0.961559 0.44287
C_ C_ 0.882909 0.356393 0.512446 0.18498
C_ C_ 0.911198 0.401629 0.518964 -0.08735
C_ C_ 0.926245 0.411619 0.54651 -0.08735
C_ C_ 0.913551 0.377088 0.568809 -0.08735
C_ C_ 0.884336 0.333223 0.564261 0.18498
C_ C_ 0.871987 0.320977 0.535317 -0.05681
C_ C_ 0.84756 0.27621 0.530396 -0.08735
C_ C_ 0.82808 0.247343 0.553682 -0.08735
C_ C_ 0.837398 0.263564 0.581928 0.1947
N_ N_ 0.639311 0.156836 0.976912 -0.29468
N_ N_ 0.653283 0.192635 0.581194 -0.17154
N_ N_ 0.621737 0.167311 0.729069 -0.17154
N_ N_ 0.639527 0.200421 0.833613 -0.29468
N_ N_ 0.87677 0.321476 0.728186 -0.29468
N_ N_ 0.853131 0.300129 0.832551 -0.17154
N_ N_ 0.891076 0.314185 0.979428 -0.17154
N_ N_ 0.863768 0.306537 0.587168 -0.29468
O_ O_ 0.711917 0.181997 0.931258 -0.58347
O_ O_ 0.703279 0.188908 0.884613 -0.58347
O_ O_ 0.631635 0.250635 0.935434 -0.58347
O_ O_ 0.632407 0.260024 0.887857 -0.58347
O_ O_ 0.649497 0.105194 0.921923 -0.58347
O_ O_ 0.627507 0.113657 0.877073 -0.58347
O_ O_ 0.56337 0.165088 0.926049 -0.58347
O_ O_ 0.552859 0.18919 0.881333 -0.58347
O_ O_ 0.568543 0.211085 0.57614 -0.46727
O_ O_ 0.740481 0.178706 0.586001 -0.46727
O_ O_ 0.53507 0.181356 0.724527 -0.46727
O_ O_ 0.706031 0.146667 0.732698 -0.46727
O_ O_ 0.795058 0.328399 0.681409 -0.58347
O_ O_ 0.804576 0.305499 0.637206 -0.58347
O_ O_ 0.858753 0.241779 0.680682 -0.58347
O_ O_ 0.887302 0.243818 0.636564 -0.58347
O_ O_ 0.877063 0.395383 0.679332 -0.58347
O_ O_ 0.875711 0.394428 0.63258 -0.58347
O_ O_ 0.943592 0.309133 0.678999 -0.58347
O_ O_ 0.954589 0.319752 0.63109 -0.58347
O_ O_ 0.937721 0.279333 0.824851 -0.46727
O_ O_ 0.769547 0.317703 0.838061 -0.46727
O_ O_ 0.976548 0.296263 0.971958 -0.46727
O_ O_ 0.803349 0.315738 0.988148 -0.46727
Zn Zn 0.631042 0.680679 0.380129 0.90689
Zn Zn 0.638715 0.676908 0.426975 0.90689
Zn Zn 0.876947 0.809704 0.129609 0.90689
Zn Zn 0.871658 0.818032 0.177535 0.90689
H_ H_ 0.804823 0.684714 0.444233 0.11455
H_ H_ 0.877331 0.649284 0.34725 0.11455
H_ H_ 0.785526 0.645808 0.355391 0.11455
H_ H_ 0.893514 0.69134 0.461897 0.11455
H_ H_ 0.985307 0.67818 0.454431 0.11455
H_ H_ 0.959267 0.686833 0.36125 0.11455
H_ H_ 0.65277 0.504916 0.442502 0.11455
H_ H_ 0.653637 0.927659 0.352453 0.11455
H_ H_ 0.649133 0.517856 0.35261 0.11455
H_ H_ 0.586998 0.928882 0.464091 0.11455
H_ H_ 0.609433 0.838203 0.460908 0.11455
H_ H_ 0.624021 0.847939 0.369039 0.11455
H_ H_ 0.573651 0.611667 0.458805 0.11455
H_ H_ 0.558382 0.5888 0.0125366 0.11455
H_ H_ 0.593963 0.639346 0.053387 0.11455
H_ H_ 0.687082 0.744894 0.473649 0.11455
H_ H_ 0.727735 0.80057 0.00654039 0.11455
H_ H_ 0.705358 0.782669 0.0583208 0.11455
H_ H_ 0.520077 0.708661 0.119477 0.11455
H_ H_ 0.508096 0.695003 0.174725 0.11455
H_ H_ 0.772432 0.679643 0.135731 0.11455
H_ H_ 0.762151 0.677606 0.187566 0.11455
H_ H_ 0.56236 0.591781 0.243636 0.11455
H_ H_ 0.555483 0.553911 0.292405 0.11455
H_ H_ 0.583315 0.602379 0.334709 0.11455
H_ H_ 0.672327 0.737556 0.257671 0.11455
H_ H_ 0.692061 0.790583 0.302516 0.11455
H_ H_ 0.681688 0.751694 0.349728 0.11455
H_ H_ 0.708632 0.816975 0.192301 0.11455
H_ H_ 0.63421 0.831856 0.0959237 0.11455
H_ H_ 0.724188 0.824148 0.10173 0.11455
H_ H_ 0.62181 0.809015 0.212325 0.11455
H_ H_ 0.5328 0.806712 0.209294 0.11455
H_ H_ 0.545127 0.823589 0.117814 0.11455
H_ H_ 0.841799 0.977353 0.188055 0.11455
H_ H_ 0.854071 0.559771 0.0934036 0.11455
H_ H_ 0.887864 0.974143 0.098252 0.11455
H_ H_ 0.914391 0.560681 0.208307 0.11455
H_ H_ 0.911326 0.652124 0.205939 0.11455
H_ H_ 0.860687 0.644274 0.118017 0.11455
H_ H_ 0.922543 0.890996 0.210443 0.11455
H_ H_ 0.945412 0.915272 0.2596 0.11455
H_ H_ 0.907256 0.873966 0.302057 0.11455
H_ H_ 0.81131 0.74693 0.223142 0.11455
H_ H_ 0.784033 0.693395 0.26453 0.11455
H_ H_ 0.795416 0.73065 0.313923 0.11455
H_ H_ 0.996033 0.787798 0.370873 0.11455
H_ H_ 0.00538658 0.787787 0.422388 0.11455
H_ H_ 0.741328 0.827188 0.386629 0.11455
H_ H_ 0.756723 0.813027 0.437427 0.11455
H_ H_ 0.945302 0.899342 0.495731 0.11455
H_ H_ 0.970063 0.931914 0.0498147 0.11455
H_ H_ 0.941409 0.873744 0.0877128 0.11455
H_ H_ 0.843454 0.75843 0.00476897 0.11455
H_ H_ 0.821066 0.703167 0.0454329 0.11455
H_ H_ 0.825385 0.738232 0.0944312 0.11455
C_ C_ 0.735205 0.677989 0.402201 0.68181
C_ C_ 0.788382 0.675876 0.398948 -0.05681
C_ C_ 0.821779 0.67788 0.422963 -0.08735
C_ C_ 0.874955 0.6801 0.417932 -0.05681
C_ C_ 0.8947 0.674174 0.389888 -0.05681
C_ C_ 0.861258 0.665287 0.367359 -0.08735
C_ C_ 0.809599 0.661323 0.371927 -0.08735
C_ C_ 0.906969 0.683806 0.441446 -0.08735
C_ C_ 0.96042 0.680645 0.436496 -0.08735
C_ C_ 0.979792 0.677606 0.407969 -0.05681
C_ C_ 0.945903 0.675575 0.383892 -0.08735
C_ C_ 0.622565 0.777001 0.413493 0.68181
C_ C_ 0.643131 0.575807 0.39903 0.68181
C_ C_ 0.637021 0.520036 0.396729 -0.05681
C_ C_ 0.603282 0.993515 0.41946 -0.08735
C_ C_ 0.606236 0.94133 0.418989 -0.05681
C_ C_ 0.620503 0.917111 0.392845 -0.05681
C_ C_ 0.638255 0.946893 0.371051 -0.08735
C_ C_ 0.634694 0.999061 0.370993 -0.08735
C_ C_ 0.600518 0.911672 0.443422 -0.08735
C_ C_ 0.610045 0.860219 0.441626 -0.08735
C_ C_ 0.618225 0.834605 0.415381 -0.05681
C_ C_ 0.620495 0.86339 0.389846 -0.08735
C_ C_ 0.535344 0.679959 0.401385 0.68181
C_ C_ 0.592968 0.628392 0.47781 0.1947
C_ C_ 0.584478 0.618133 0.00985761 -0.08735
C_ C_ 0.610429 0.643996 0.0328889 -0.08735
C_ C_ 0.644631 0.684589 0.0275252 -0.05681
C_ C_ 0.660964 0.690589 0.999153 0.18498
C_ C_ 0.677998 0.735279 0.494869 -0.08735
C_ C_ 0.704452 0.766714 0.0137625 -0.08735
C_ C_ 0.693478 0.758606 0.0425215 -0.08735
C_ C_ 0.66228 0.717094 0.0497598 0.18498
C_ C_ 0.697886 0.692496 0.0965047 0.44287
C_ C_ 0.610107 0.712364 0.0925074 0.44287
C_ C_ 0.60161 0.700683 0.121199 -0.05681
C_ C_ 0.553053 0.697524 0.133195 -0.08735
C_ C_ 0.545466 0.692215 0.162986 -0.08735
C_ C_ 0.588698 0.68064 0.180118 -0.05681
C_ C_ 0.637244 0.687048 0.168988 -0.05681
C_ C_ 0.644345 0.69215 0.138413 -0.05681
C_ C_ 0.692206 0.688242 0.125564 -0.05681
C_ C_ 0.733438 0.680408 0.143433 -0.08735
C_ C_ 0.728818 0.677265 0.174231 -0.08735
C_ C_ 0.679522 0.675825 0.187083 -0.05681
C_ C_ 0.670647 0.660865 0.215493 0.44287
C_ C_ 0.584571 0.681225 0.210557 0.44287
C_ C_ 0.616473 0.649687 0.257497 0.18498
C_ C_ 0.58404 0.607725 0.262087 -0.08735
C_ C_ 0.575866 0.589439 0.290719 -0.08735
C_ C_ 0.594921 0.616269 0.314319 -0.08735
C_ C_ 0.627087 0.65908 0.310318 0.18498
C_ C_ 0.635535 0.678478 0.280927 -0.05681
C_ C_ 0.659574 0.726306 0.278635 -0.08735
C_ C_ 0.673685 0.754593 0.304303 -0.08735
C_ C_ 0.665576 0.73142 0.331017 0.1947
C_ C_ 0.777947 0.811615 0.150976 0.68181
C_ C_ 0.72318 0.817976 0.147456 -0.05681
C_ C_ 0.690425 0.818265 0.171209 -0.08735
C_ C_ 0.637092 0.814377 0.167743 -0.05681
C_ C_ 0.616353 0.820286 0.140184 -0.05681
C_ C_ 0.648309 0.824072 0.116798 -0.08735
C_ C_ 0.701127 0.820601 0.120148 -0.08735
C_ C_ 0.605925 0.816953 0.191637 -0.08735
C_ C_ 0.5555 0.81081 0.18907 -0.08735
C_ C_ 0.532409 0.817368 0.161424 -0.05681
C_ C_ 0.564116 0.817661 0.137184 -0.08735
C_ C_ 0.882393 0.715397 0.159915 0.68181
C_ C_ 0.86894 0.912244 0.146521 0.68181
C_ C_ 0.864392 0.968485 0.143612 -0.05681
C_ C_ 0.879585 0.498009 0.168738 -0.08735
C_ C_ 0.883095 0.550531 0.165792 -0.05681
C_ C_ 0.871698 0.573522 0.139407 -0.05681
C_ C_ 0.859999 0.543742 0.114807 -0.08735
C_ C_ 0.875962 0.99289 0.117686 -0.08735
C_ C_ 0.902915 0.578119 0.187835 -0.08735
C_ C_ 0.896305 0.630455 0.188334 -0.08735
C_ C_ 0.884144 0.657267 0.162078 -0.05681
C_ C_ 0.872918 0.626868 0.137786 -0.08735
C_ C_ 0.97249 0.810238 0.157801 0.68181
C_ C_ 0.907035 0.868849 0.228938 0.1947
C_ C_ 0.91791 0.885249 0.256335 -0.08735
C_ C_ 0.898763 0.85987 0.280832 -0.08735
C_ C_ 0.870491 0.814477 0.276888 -0.05681
C_ C_ 0.857386 0.800543 0.248156 0.18498
C_ C_ 0.818092 0.76248 0.244873 -0.08735
C_ C_ 0.802676 0.733332 0.267911 -0.08735
C_ C_ 0.817268 0.746688 0.295786 -0.08735
C_ C_ 0.848616 0.788861 0.300438 0.18498
C_ C_ 0.820572 0.819993 0.344602 0.44287
C_ C_ 0.906122 0.799141 0.34106 0.44287
C_ C_ 0.915304 0.806712 0.36997 -0.05681
C_ C_ 0.962048 0.797241 0.383749 -0.08735
C_ C_ 0.969114 0.797439 0.413551 -0.08735
C_ C_ 0.92769 0.809619 0.430938 -0.05681
C_ C_ 0.881561 0.821916 0.417958 -0.05681
C_ C_ 0.873716 0.818928 0.387991 -0.05681
C_ C_ 0.824079 0.822524 0.375561 -0.05681
C_ C_ 0.78062 0.827952 0.394546 -0.08735
C_ C_ 0.787968 0.825759 0.423705 -0.08735
C_ C_ 0.837652 0.827674 0.436164 -0.05681
C_ C_ 0.84362 0.833003 0.465277 0.44287
C_ C_ 0.930787 0.8096 0.460878 0.44287
C_ C_ 0.907451 0.844973 0.00880123 0.18498
C_ C_ 0.93251 0.889274 0.0161672 -0.08735
C_ C_ 0.947108 0.899106 0.044376 -0.08735
C_ C_ 0.93068 0.866581 0.0657617 -0.08735
C_ C_ 0.898864 0.825973 0.0607323 0.18498
C_ C_ 0.887367 0.81316 0.0313118 -0.05681
C_ C_ 0.852271 0.772216 0.0261023 -0.08735
C_ C_ 0.836362 0.741169 0.0496936 -0.08735
C_ C_ 0.843544 0.759663 0.0770731 0.1947
N_ N_ 0.625437 0.669167 0.474338 -0.29468
N_ N_ 0.656814 0.706574 0.0802651 -0.17154
N_ N_ 0.624805 0.667468 0.228122 -0.17154
N_ N_ 0.639533 0.688812 0.333863 -0.29468
N_ N_ 0.877218 0.827229 0.225287 -0.29468
N_ N_ 0.860561 0.806549 0.328355 -0.17154
N_ N_ 0.889767 0.822673 0.477532 -0.17154
N_ N_ 0.876331 0.800008 0.0823659 -0.29468
O_ O_ 0.715592 0.676529 0.427734 -0.58347
O_ O_ 0.70801 0.685708 0.380801 -0.58347
O_ O_ 0.638445 0.751062 0.434001 -0.58347
O_ O_ 0.622051 0.755404 0.389338 -0.58347
O_ O_ 0.638677 0.596103 0.422355 -0.58347
O_ O_ 0.644234 0.603738 0.37725 -0.58347
O_ O_ 0.563718 0.672842 0.423756 -0.58347
O_ O_ 0.553804 0.674789 0.376794 -0.58347
O_ O_ 0.575629 0.734269 0.0773333 -0.46727
O_ O_ 0.739897 0.683789 0.0834881 -0.46727
O_ O_ 0.544292 0.697372 0.223134 -0.46727
O_ O_ 0.712048 0.64397 0.229704 -0.46727
O_ O_ 0.79768 0.811395 0.176836 -0.58347
O_ O_ 0.805021 0.808315 0.128745 -0.58347
O_ O_ 0.878272 0.740686 0.181784 -0.58347
O_ O_ 0.880672 0.737128 0.136296 -0.58347
O_ O_ 0.859855 0.891597 0.171259 -0.58347
O_ O_ 0.874434 0.88391 0.124467 -0.58347
O_ O_ 0.944891 0.824815 0.178437 -0.58347
O_ O_ 0.954139 0.808226 0.132921 -0.58347
O_ O_ 0.944606 0.782221 0.325429 -0.46727
O_ O_ 0.775605 0.827078 0.332383 -0.46727
O_ O_ 0.976379 0.800507 0.472302 -0.46727
O_ O_ 0.804372 0.845924 0.479967 -0.46727
Zn Zn 0.63707 0.685674 0.880808 0.90689
Zn Zn 0.648133 0.675577 0.928249 0.90689
Zn Zn 0.873987 0.814129 0.632307 0.90689
Zn Zn 0.86405 0.821063 0.679004 0.90689
H_ H_ 0.81689 0.683446 0.945283 0.11455
H_ H_ 0.880134 0.676395 0.846447 0.11455
H_ H_ 0.790029 0.682165 0.856324 0.11455
H_ H_ 0.90421 0.680205 0.964988 0.11455
H_ H_ 0.989837 0.691469 0.956662 0.11455
H_ H_ 0.964578 0.674713 0.864655 0.11455
H_ H_ 0.627493 0.514381 0.944215 0.11455
H_ H_ 0.606752 0.939933 0.846549 0.11455
H_ H_ 0.639858 0.528992 0.85432 0.11455
H_ H_ 0.679783 0.928356 0.957195 0.11455
H_ H_ 0.669232 0.836144 0.953082 0.11455
H_ H_ 0.600791 0.856114 0.868252 0.11455
H_ H_ 0.582945 0.609389 0.964701 0.11455
H_ H_ 0.551918 0.580579 0.505395 0.11455
H_ H_ 0.584338 0.622708 0.549416 0.11455
H_ H_ 0.707964 0.735743 0.971149 0.11455
H_ H_ 0.71738 0.795657 0.514596 0.11455
H_ H_ 0.701395 0.766421 0.562701 0.11455
H_ H_ 0.502052 0.703102 0.621723 0.11455
H_ H_ 0.496607 0.708032 0.675956 0.11455
H_ H_ 0.745965 0.635605 0.631806 0.11455
H_ H_ 0.746813 0.649573 0.684109 0.11455
H_ H_ 0.575812 0.58615 0.74815 0.11455
H_ H_ 0.548509 0.565075 0.79741 0.11455
H_ H_ 0.581214 0.613161 0.836454 0.11455
H_ H_ 0.64917 0.751698 0.758398 0.11455
H_ H_ 0.699896 0.791649 0.798456 0.11455
H_ H_ 0.691554 0.751232 0.846289 0.11455
H_ H_ 0.693831 0.81535 0.698674 0.11455
H_ H_ 0.623651 0.821427 0.600863 0.11455
H_ H_ 0.70938 0.816973 0.604621 0.11455
H_ H_ 0.607375 0.828485 0.717094 0.11455
H_ H_ 0.515867 0.828702 0.710512 0.11455
H_ H_ 0.535527 0.822615 0.619798 0.11455
H_ H_ 0.872894 0.983394 0.688209 0.11455
H_ H_ 0.908243 0.571615 0.602539 0.11455
H_ H_ 0.8541 0.977944 0.596986 0.11455
H_ H_ 0.874245 0.576734 0.720095 0.11455
H_ H_ 0.876827 0.666371 0.714205 0.11455
H_ H_ 0.908176 0.651907 0.62704 0.11455
H_ H_ 0.904865 0.903931 0.713443 0.11455
H_ H_ 0.922018 0.928605 0.761347 0.11455
H_ H_ 0.898095 0.876024 0.803159 0.11455
H_ H_ 0.792748 0.759224 0.720276 0.11455
H_ H_ 0.771287 0.705225 0.762147 0.11455
H_ H_ 0.815495 0.718797 0.809476 0.11455
H_ H_ 0.996145 0.787815 0.870333 0.11455
H_ H_ 1.00895509 0.797547 0.921507 0.11455
H_ H_ 0.745106 0.824792 0.890171 0.11455
H_ H_ 0.762522 0.846881 0.938091 0.11455
H_ H_ 0.946261 0.91522 0.999516 0.11455
H_ H_ 0.977669 0.91381 0.545655 0.11455
H_ H_ 0.936816 0.870808 0.588872 0.11455
H_ H_ 0.841152 0.752042 0.504977 0.11455
H_ H_ 0.810238 0.702188 0.549328 0.11455
H_ H_ 0.825379 0.735208 0.596537 0.11455
C_ C_ 0.739986 0.684686 0.90476 0.68181
C_ C_ 0.795603 0.690327 0.902136 -0.05681
C_ C_ 0.829202 0.676506 0.923921 -0.08735
C_ C_ 0.882374 0.674548 0.919097 -0.05681
C_ C_ 0.899917 0.672879 0.89104 -0.05681
C_ C_ 0.865927 0.676153 0.867611 -0.08735
C_ C_ 0.815475 0.68625 0.874074 -0.08735
C_ C_ 0.916371 0.674825 0.94237 -0.08735
C_ C_ 0.969862 0.677537 0.938164 -0.08735
C_ C_ 0.988045 0.677538 0.909317 -0.05681
C_ C_ 0.951904 0.67318 0.886582 -0.08735
C_ C_ 0.634562 0.780166 0.907387 0.68181
C_ C_ 0.646253 0.581381 0.902946 0.68181
C_ C_ 0.646228 0.524265 0.899807 -0.05681
C_ C_ 0.657342 -0.002681999999999962 0.916487 -0.08735
C_ C_ 0.653496 0.943621 0.913868 -0.05681
C_ C_ 0.626858 0.922244 0.889649 -0.05681
C_ C_ 0.613684 0.954753 0.867606 -0.08735
C_ C_ 0.619366 0.00666409 0.870375 -0.08735
C_ C_ 0.662591 0.911726 0.93805 -0.08735
C_ C_ 0.660481 0.85845 0.934603 -0.08735
C_ C_ 0.63621 0.836702 0.910592 -0.05681
C_ C_ 0.617973 0.869233 0.888642 -0.08735
C_ C_ 0.544643 0.681248 0.907577 0.68181
C_ C_ 0.599843 0.629533 0.982139 0.1947
C_ C_ 0.580188 0.610267 0.504427 -0.08735
C_ C_ 0.595252 0.636169 0.529418 -0.08735
C_ C_ 0.630525 0.676267 0.52605 -0.05681
C_ C_ 0.641601 0.695705 0.498065 0.18498
C_ C_ 0.69251 0.731808 0.99329 -0.08735
C_ C_ 0.697571 0.760252 0.518013 -0.08735
C_ C_ 0.684305 0.744332 0.545746 -0.08735
C_ C_ 0.65197 0.703147 0.550377 0.18498
C_ C_ 0.679046 0.67415 0.596089 0.44287
C_ C_ 0.593049 0.702093 0.591481 0.44287
C_ C_ 0.585938 0.697306 0.622385 -0.05681
C_ C_ 0.537612 0.700071 0.635841 -0.08735
C_ C_ 0.534723 0.702118 0.665891 -0.08735
C_ C_ 0.578293 0.693375 0.683391 -0.05681
C_ C_ 0.625989 0.680692 0.669748 -0.05681
C_ C_ 0.631121 0.686265 0.638608 -0.05681
C_ C_ 0.673574 0.667235 0.625567 -0.05681
C_ C_ 0.712448 0.652562 0.642651 -0.08735
C_ C_ 0.710782 0.652 0.672199 -0.08735
C_ C_ 0.665213 0.662261 0.686496 -0.05681
C_ C_ 0.660316 0.661301 0.716708 0.44287
C_ C_ 0.573882 0.690952 0.713184 0.44287
C_ C_ 0.606046 0.65807 0.758747 0.18498
C_ C_ 0.57695 0.613901 0.764312 -0.08735
C_ C_ 0.571593 0.597995 0.792129 -0.08735
C_ C_ 0.595002 0.623233 0.815045 -0.08735
C_ C_ 0.622058 0.668568 0.810841 0.18498
C_ C_ 0.630687 0.685133 0.782036 -0.05681
C_ C_ 0.651881 0.734125 0.779249 -0.08735
C_ C_ 0.679352 0.754957 0.802027 -0.08735
C_ C_ 0.66914 0.736171 0.829164 0.1947
C_ C_ 0.767706 0.812559 0.656335 0.68181
C_ C_ 0.711645 0.810004 0.653711 -0.05681
C_ C_ 0.678843 0.817445 0.677486 -0.08735
C_ C_ 0.625492 0.821902 0.672482 -0.05681
C_ C_ 0.603077 0.820701 0.645192 -0.05681
C_ C_ 0.635689 0.812172 0.622174 -0.08735
C_ C_ 0.687692 0.812727 0.624775 -0.08735
C_ C_ 0.591347 0.821832 0.696785 -0.08735
C_ C_ 0.538558 0.823226 0.691974 -0.08735
C_ C_ 0.518307 0.821232 0.664317 -0.05681
C_ C_ 0.550183 0.820682 0.641272 -0.08735
C_ C_ 0.879346 0.723589 0.666845 0.68181
C_ C_ 0.868721 0.913931 0.644627 0.68181
C_ C_ 0.8648 0.972671 0.643727 -0.05681
C_ C_ 0.880085 0.50802 0.678349 -0.08735
C_ C_ 0.877639 0.559529 0.674878 -0.05681
C_ C_ 0.893574 0.583647 0.648392 -0.05681
C_ C_ 0.898263 0.554039 0.62358 -0.08735
C_ C_ 0.858445 0.998949 0.617415 -0.08735
C_ C_ 0.87198 0.591369 0.698947 -0.08735
C_ C_ 0.869758 0.643617 0.69568 -0.08735
C_ C_ 0.87578 0.666993 0.668117 -0.05681
C_ C_ 0.894024 0.635683 0.646603 -0.08735
C_ C_ 0.965995 0.821898 0.656001 0.68181
C_ C_ 0.882541 0.885549 0.730448 0.1947
C_ C_ 0.898609 0.895752 0.758711 -0.08735
C_ C_ 0.881099 0.86839 0.782228 -0.08735
C_ C_ 0.858576 0.821547 0.777314 -0.05681
C_ C_ 0.843773 0.810041 0.747844 0.18498
C_ C_ 0.809802 0.768297 0.742801 -0.08735
C_ C_ 0.797609 0.733597 0.765071 -0.08735
C_ C_ 0.816588 0.74617 0.793291 -0.08735
C_ C_ 0.844404 0.789896 0.799878 0.18498
C_ C_ 0.817013 0.815505 0.848199 0.44287
C_ C_ 0.903374 0.796521 0.841156 0.44287
C_ C_ 0.913478 0.802711 0.871421 -0.05681
C_ C_ 0.964522 0.802201 0.882098 -0.08735
C_ C_ 0.972322 0.806162 0.912086 -0.08735
C_ C_ 0.932306 0.814866 0.931623 -0.05681
C_ C_ 0.882537 0.812968 0.920752 -0.05681
C_ C_ 0.872577 0.809264 0.890433 -0.05681
C_ C_ 0.824317 0.81454 0.878776 -0.05681
C_ C_ 0.784153 0.819783 0.89785 -0.08735
C_ C_ 0.792474 0.829359 0.926559 -0.08735
C_ C_ 0.842112 0.827461 0.938873 -0.05681
C_ C_ 0.852316 0.83517 0.967099 0.44287
C_ C_ 0.940348 0.821615 0.962164 0.44287
C_ C_ 0.896858 0.838151 0.508052 0.18498
C_ C_ 0.929213 0.879085 0.514812 -0.08735
C_ C_ 0.945544 0.88874 0.543424 -0.08735
C_ C_ 0.923475 0.862582 0.567008 -0.08735
C_ C_ 0.888067 0.82428 0.562079 0.18498
C_ C_ 0.878111 0.808001 0.532684 -0.05681
C_ C_ 0.848848 0.76343 0.527478 -0.08735
C_ C_ 0.833351 0.73688 0.551298 -0.08735
C_ C_ 0.841054 0.754807 0.578967 0.1947
N_ N_ 0.639148 0.663726 0.976189 -0.29468
N_ N_ 0.640842 0.691441 0.579572 -0.17154
N_ N_ 0.614642 0.672879 0.729303 -0.17154
N_ N_ 0.644323 0.691494 0.83363 -0.29468
N_ N_ 0.861015 0.839426 0.725456 -0.29468
N_ N_ 0.854401 0.801837 0.830623 -0.17154
N_ N_ 0.900075 0.831463 0.978756 -0.17154
N_ N_ 0.871129 0.79744 0.584836 -0.29468
O_ O_ 0.723214 0.669015 0.928622 -0.58347
O_ O_ 0.710538 0.6982 0.885319 -0.58347
O_ O_ 0.64763 0.754025 0.928201 -0.58347
O_ O_ 0.621045 0.759845 0.884285 -0.58347
O_ O_ 0.644211 0.602261 0.927303 -0.58347
O_ O_ 0.649407 0.60975 0.881024 -0.58347
O_ O_ 0.570845 0.682121 0.929392 -0.58347
O_ O_ 0.564052 0.669367 0.882526 -0.58347
O_ O_ 0.557621 0.721471 0.575863 -0.46727
O_ O_ 0.720822 0.656633 0.584085 -0.46727
O_ O_ 0.531788 0.704332 0.726136 -0.46727
O_ O_ 0.700339 0.646674 0.731593 -0.46727
O_ O_ 0.787789 0.822934 0.680462 -0.58347
O_ O_ 0.79379 0.81391 0.634293 -0.58347
O_ O_ 0.872844 0.749936 0.689546 -0.58347
O_ O_ 0.884906 0.744976 0.643335 -0.58347
O_ O_ 0.866667 0.894527 0.668995 -0.58347
O_ O_ 0.873075 0.886459 0.622856 -0.58347
O_ O_ 0.939032 0.825401 0.678453 -0.58347
O_ O_ 0.947828 0.814129 0.631304 -0.58347
O_ O_ 0.940279 0.783743 0.824358 -0.46727
O_ O_ 0.769211 0.82132 0.838748 -0.46727
O_ O_ 0.986058 0.825514 0.972853 -0.46727
O_ O_ 0.815545 0.853024 0.984485 -0.46727
_cell_length_a 26.376
_cell_length_b 26.400000238300095
_cell_length_c 46.67800035477134
_cell_angle_alpha 90.00700052986613
_cell_angle_beta 89.99899961309502
_cell_angle_gamma 90.45000003183146
_symmetry_space_group_name_H-M         'P 1'
_symmetry_Int_Tables_number            1
loop_
_symmetry_equiv_pos_as_xyz
   'x, y, z'
                         
loop_
_atom_site_label
_atom_site_type_symbol
_atom_site_fract_x 
_atom_site_fract_y
_atom_site_fract_z
_atom_site_charge
Zn Zn 0.110297 0.192039 0.382288 0.90689
Zn Zn 0.118731 0.189204 0.429591 0.90689
Zn Zn 0.369075 0.320113 0.13524 0.90689
Zn Zn 0.36279 0.327265 0.183002 0.90689
H_ H_ 0.290215 0.20216 0.447631 0.11455
H_ H_ 0.353714 0.160869 0.35342 0.11455
H_ H_ 0.262397 0.191361 0.356964 0.11455
H_ H_ 0.377687 0.198249 0.465918 0.11455
H_ H_ 0.466066 0.185622 0.458087 0.11455
H_ H_ 0.444349 0.166965 0.369711 0.11455
H_ H_ 0.137892 0.0188151 0.441957 0.11455
H_ H_ 0.115334 0.446339 0.341386 0.11455
H_ H_ 0.104072 0.0343994 0.351336 0.11455
H_ H_ 0.107842 0.438438 0.461219 0.11455
H_ H_ 0.101518 0.344829 0.457814 0.11455
H_ H_ 0.117162 0.358822 0.367361 0.11455
H_ H_ 0.0489377 0.133051 0.468991 0.11455
H_ H_ 0.0694917 0.0880867 0.0116793 0.11455
H_ H_ 0.103101 0.128001 0.0541975 0.11455
H_ H_ 0.193887 0.240785 0.473308 0.11455
H_ H_ 0.221002 0.308982 0.018446 0.11455
H_ H_ 0.179997 0.29164 0.0645628 0.11455
H_ H_ 0.0031867 0.22208 0.118822 0.11455
H_ H_ -0.011421000000000014 0.205826 0.172629 0.11455
H_ H_ 0.247954 0.162872 0.138349 0.11455
H_ H_ 0.235573 0.158982 0.190408 0.11455
H_ H_ 0.0532791 0.0901139 0.251675 0.11455
H_ H_ 0.0426867 0.0633715 0.300586 0.11455
H_ H_ 0.0609103 0.127502 0.339078 0.11455
H_ H_ 0.141455 0.254818 0.25863 0.11455
H_ H_ 0.17429 0.301321 0.301991 0.11455
H_ H_ 0.146448 0.272457 0.349494 0.11455
H_ H_ 0.196958 0.30816 0.197232 0.11455
H_ H_ 0.118638 0.328182 0.100767 0.11455
H_ H_ 0.210527 0.3432 0.107392 0.11455
H_ H_ 0.104101 0.295909 0.216595 0.11455
H_ H_ 0.0131705 0.321456 0.211988 0.11455
H_ H_ 0.0340449 0.325049 0.12118 0.11455
H_ H_ 0.382841 0.490446 0.195375 0.11455
H_ H_ 0.397229 0.0652436 0.102431 0.11455
H_ H_ 0.345029 0.480453 0.105489 0.11455
H_ H_ 0.329443 0.0739609 0.214219 0.11455
H_ H_ 0.343252 0.163 0.211559 0.11455
H_ H_ 0.386583 0.152284 0.124619 0.11455
H_ H_ 0.425979 0.39427 0.220659 0.11455
H_ H_ 0.42742 0.432147 0.269649 0.11455
H_ H_ 0.379896 0.391392 0.305686 0.11455
H_ H_ 0.292775 0.272252 0.225889 0.11455
H_ H_ 0.262323 0.219407 0.267356 0.11455
H_ H_ 0.283056 0.242199 0.313021 0.11455
H_ H_ 0.471717 0.289969 0.374345 0.11455
H_ H_ 0.485274 0.29643 0.425481 0.11455
H_ H_ 0.23485 0.370085 0.391114 0.11455
H_ H_ 0.251473 0.387977 0.441705 0.11455
H_ H_ 0.439472 0.403394 0.500997 0.11455
H_ H_ 0.416622 0.454546 0.0481402 0.11455
H_ H_ 0.405074 0.399125 0.0883652 0.11455
H_ H_ 0.315969 0.260263 0.0132441 0.11455
H_ H_ 0.300236 0.209736 0.0561722 0.11455
H_ H_ 0.329196 0.241411 0.105379 0.11455
C_ C_ 0.213467 0.202026 0.405694 0.68181
C_ C_ 0.269352 0.201298 0.402487 -0.05681
C_ C_ 0.30218 0.199787 0.425762 -0.08735
C_ C_ 0.354577 0.188502 0.4214 -0.05681
C_ C_ 0.37512 0.181401 0.394213 -0.05681
C_ C_ 0.341308 0.181053 0.37101 -0.08735
C_ C_ 0.289808 0.192702 0.374629 -0.08735
C_ C_ 0.386655 0.183486 0.444465 -0.08735
C_ C_ 0.438916 0.184095 0.44 -0.08735
C_ C_ 0.461981 0.178216 0.413315 -0.05681
C_ C_ 0.428464 0.172902 0.390385 -0.08735
C_ C_ 0.110081 0.291152 0.411714 0.68181
C_ C_ 0.117405 0.0913815 0.400792 0.68181
C_ C_ 0.119335 0.0353626 0.397708 -0.05681
C_ C_ 0.125581 0.50409 0.417779 -0.08735
C_ C_ 0.118297 0.450678 0.415526 -0.05681
C_ C_ 0.114417 0.429561 0.388595 -0.05681
C_ C_ 0.120405 0.460175 0.362961 -0.08735
C_ C_ 0.125773 0.512799 0.36596 -0.08735
C_ C_ 0.11446 0.421257 0.441163 -0.08735
C_ C_ 0.0992251 0.369935 0.43853 -0.08735
C_ C_ 0.103818 0.347716 0.41127 -0.05681
C_ C_ 0.108878 0.377341 0.387066 -0.08735
C_ C_ 0.0148861 0.191668 0.407293 0.68181
C_ C_ 0.0799923 0.139546 0.483511 0.1947
C_ C_ 0.0995915 0.113462 0.00984109 -0.08735
C_ C_ 0.111476 0.143691 0.0332981 -0.08735
C_ C_ 0.138491 0.186859 0.0291363 -0.05681
C_ C_ 0.150327 0.202881 1.000543608 0.18498
C_ C_ 0.179405 0.232142 0.494206 -0.08735
C_ C_ 0.194029 0.277498 0.0191751 -0.08735
C_ C_ 0.176473 0.265814 0.0462369 -0.08735
C_ C_ 0.151942 0.218903 0.0526287 0.18498
C_ C_ 0.179103 0.190794 0.0985318 0.44287
C_ C_ 0.0935262 0.21204 0.092949 0.44287
C_ C_ 0.0838976 0.204499 0.122033 -0.05681
C_ C_ 0.0348823 0.211787 0.133689 -0.08735
C_ C_ 0.0262446 0.203475 0.163329 -0.08735
C_ C_ 0.0670678 0.191587 0.181664 -0.05681
C_ C_ 0.11597 0.18829 0.170974 -0.05681
C_ C_ 0.122725 0.190234 0.140434 -0.05681
C_ C_ 0.171819 0.182588 0.128917 -0.05681
C_ C_ 0.211589 0.172657 0.146944 -0.08735
C_ C_ 0.202862 0.166782 0.1768 -0.08735
C_ C_ 0.156091 0.176795 0.189846 -0.05681
C_ C_ 0.148856 0.171392 0.219338 0.44287
C_ C_ 0.0602839 0.182941 0.211885 0.44287
C_ C_ 0.0909353 0.160586 0.260476 0.18498
C_ C_ 0.069995 0.111722 0.267805 -0.08735
C_ C_ 0.0625604 0.0997027 0.296105 -0.08735
C_ C_ 0.0716829 0.13473 0.317915 -0.08735
C_ C_ 0.090379 0.182603 0.312129 0.18498
C_ C_ 0.102378 0.196138 0.28281 -0.05681
C_ C_ 0.127357 0.241386 0.278958 -0.08735
C_ C_ 0.144599 0.269854 0.303123 -0.08735
C_ C_ 0.134019 0.252762 0.330797 0.1947
C_ C_ 0.264421 0.321305 0.156149 0.68181
C_ C_ 0.208653 0.326122 0.152529 -0.05681
C_ C_ 0.177122 0.317125 0.177048 -0.08735
C_ C_ 0.123616 0.320389 0.174367 -0.05681
C_ C_ 0.102652 0.328459 0.14669 -0.05681
C_ C_ 0.135541 0.331773 0.121892 -0.08735
C_ C_ 0.187457 0.336755 0.125693 -0.08735
C_ C_ 0.090581 0.315726 0.198373 -0.08735
C_ C_ 0.038391 0.320058 0.193179 -0.08735
C_ C_ 0.0176805 0.327378 0.165387 -0.05681
C_ C_ 0.0491198 0.327579 0.14226 -0.08735
C_ C_ 0.3726 0.222367 0.166101 0.68181
C_ C_ 0.366655 0.420682 0.154808 0.68181
C_ C_ 0.364631 0.477067 0.151528 -0.05681
C_ C_ 0.355574 0.00614995 0.173313 -0.08735
C_ C_ 0.35172 0.059184 0.171394 -0.05681
C_ C_ 0.364278 0.0832173 0.144955 -0.05681
C_ C_ 0.377327 0.052157 0.121567 -0.08735
C_ C_ 0.358452 0.50091 0.124765 -0.08735
C_ C_ 0.333774 0.0899175 0.193433 -0.08735
C_ C_ 0.343344 0.141989 0.192685 -0.08735
C_ C_ 0.362145 0.165225 0.16739 -0.05681
C_ C_ 0.37529 0.134818 0.144659 -0.08735
C_ C_ 0.46692 0.321158 0.161839 0.68181
C_ C_ 0.401061 0.380662 0.2371 0.1947
C_ C_ 0.403586 0.40014 0.263974 -0.08735
C_ C_ 0.381299 0.374708 0.286257 -0.08735
C_ C_ 0.351935 0.331985 0.281576 -0.05681
C_ C_ 0.345578 0.314966 0.252363 0.18498
C_ C_ 0.30779 0.278311 0.246618 -0.08735
C_ C_ 0.286845 0.251969 0.270119 -0.08735
C_ C_ 0.303198 0.263103 0.297188 -0.08735
C_ C_ 0.330491 0.305551 0.304048 0.18498
C_ C_ 0.302708 0.336348 0.350676 0.44287
C_ C_ 0.384719 0.300265 0.347086 0.44287
C_ C_ 0.396478 0.311771 0.375724 -0.05681
C_ C_ 0.442572 0.304573 0.386942 -0.08735
C_ C_ 0.448291 0.302358 0.416703 -0.08735
C_ C_ 0.407761 0.317112 0.435104 -0.05681
C_ C_ 0.360478 0.327215 0.423031 -0.05681
C_ C_ 0.356607 0.329916 0.392914 -0.05681
C_ C_ 0.309415 0.340488 0.380408 -0.05681
C_ C_ 0.270313 0.360573 0.399422 -0.08735
C_ C_ 0.276268 0.365451 0.428162 -0.08735
C_ C_ 0.321525 0.347023 0.441023 -0.05681
C_ C_ 0.327294 0.344692 0.470173 0.44287
C_ C_ 0.413288 0.317811 0.464907 0.44287
C_ C_ 0.373861 0.349589 0.0135234 0.18498
C_ C_ 0.393012 0.397748 0.0177349 -0.08735
C_ C_ 0.400714 0.414868 0.0451745 -0.08735
C_ C_ 0.394513 0.38278 0.0679559 -0.08735
C_ C_ 0.376877 0.335304 0.0645308 0.18498
C_ C_ 0.361387 0.317921 0.0366847 -0.05681
C_ C_ 0.334729 0.272304 0.0334384 -0.08735
C_ C_ 0.323662 0.243635 0.0584102 -0.08735
C_ C_ 0.339971 0.261268 0.0856429 0.1947
N_ N_ 0.119752 0.171515 0.476717 -0.29468
N_ N_ 0.140732 0.206072 0.0818535 -0.17154
N_ N_ 0.10095 0.172322 0.230281 -0.17154
N_ N_ 0.105581 0.210439 0.335182 -0.29468
N_ N_ 0.367146 0.34201 0.230243 -0.29468
N_ N_ 0.341006 0.317537 0.334165 -0.17154
N_ N_ 0.373563 0.332619 0.482127 -0.17154
N_ N_ 0.36457 0.306378 0.0879228 -0.29468
O_ O_ 0.193821 0.18257 0.42736 -0.58347
O_ O_ 0.186782 0.209471 0.383628 -0.58347
O_ O_ 0.128179 0.265257 0.432483 -0.58347
O_ O_ 0.0944481 0.265783 0.389578 -0.58347
O_ O_ 0.112567 0.110352 0.425364 -0.58347
O_ O_ 0.123603 0.118384 0.378171 -0.58347
O_ O_ 0.0418221 0.194314 0.429215 -0.58347
O_ O_ 0.0356808 0.182421 0.383446 -0.58347
O_ O_ 0.05986 0.235187 0.0770913 -0.46727
O_ O_ 0.22156 0.175391 0.0866854 -0.46727
O_ O_ 0.0150033 0.190404 0.222936 -0.46727
O_ O_ 0.189172 0.166341 0.236717 -0.46727
O_ O_ 0.285058 0.332107 0.180827 -0.58347
O_ O_ 0.292377 0.308021 0.135648 -0.58347
O_ O_ 0.354743 0.250562 0.185277 -0.58347
O_ O_ 0.38833 0.243808 0.142982 -0.58347
O_ O_ 0.380359 0.399849 0.17846 -0.58347
O_ O_ 0.352675 0.393768 0.133988 -0.58347
O_ O_ 0.440246 0.32271 0.183976 -0.58347
O_ O_ 0.446578 0.329838 0.137652 -0.58347
O_ O_ 0.419563 0.278819 0.331208 -0.46727
O_ O_ 0.259994 0.350724 0.337529 -0.46727
O_ O_ 0.457714 0.309238 0.476877 -0.46727
O_ O_ 0.28701 0.351108 0.487285 -0.46727
Zn Zn 0.123348 0.182258 0.880432 0.90689
Zn Zn 0.136238 0.175301 0.928635 0.90689
Zn Zn 0.3792 0.311469 0.63329 0.90689
Zn Zn 0.366065 0.320597 0.681384 0.90689
H_ H_ 0.308745 0.184508 0.946082 0.11455
H_ H_ 0.368983 0.179272 0.845617 0.11455
H_ H_ 0.280887 0.179409 0.855611 0.11455
H_ H_ 0.398828 0.178743 0.964781 0.11455
H_ H_ 0.487454 0.181026 0.954467 0.11455
H_ H_ 0.459835 0.172891 0.863656 0.11455
H_ H_ 0.110087 0.00929598 0.942782 0.11455
H_ H_ 0.144253 0.426977 0.846767 0.11455
H_ H_ 0.14788 0.0272963 0.850727 0.11455
H_ H_ 0.127257 0.424724 0.963112 0.11455
H_ H_ 0.127322 0.333456 0.958535 0.11455
H_ H_ 0.130683 0.348669 0.866962 0.11455
H_ H_ 0.0913508 0.10618 0.964412 0.11455
H_ H_ 0.0535673 0.0821899 0.514771 0.11455
H_ H_ 0.111651 0.108947 0.552463 0.11455
H_ H_ 0.193495 0.256553 0.975856 0.11455
H_ H_ 0.20992 0.297816 0.512683 0.11455
H_ H_ 0.186747 0.277994 0.561527 0.11455
H_ H_ 0.0115599 0.195713 0.621864 0.11455
H_ H_ 0.00279591 0.200312 0.675256 0.11455
H_ H_ 0.260985 0.161905 0.635318 0.11455
H_ H_ 0.250007 0.151331 0.68738 0.11455
H_ H_ 0.0625383 0.0932614 0.746369 0.11455
H_ H_ 0.0652032 0.0544332 0.795658 0.11455
H_ H_ 0.0782808 0.111573 0.837511 0.11455
H_ H_ 0.166187 0.242915 0.757272 0.11455
H_ H_ 0.199586 0.287668 0.799565 0.11455
H_ H_ 0.183958 0.257201 0.848157 0.11455
H_ H_ 0.197592 0.329477 0.697002 0.11455
H_ H_ 0.133318 0.31353 0.595957 0.11455
H_ H_ 0.221819 0.30152 0.604466 0.11455
H_ H_ 0.111516 0.333955 0.714251 0.11455
H_ H_ 0.02154 0.318864 0.707907 0.11455
H_ H_ 0.0482372 0.312598 0.614922 0.11455
H_ H_ 0.375865 0.486373 0.692222 0.11455
H_ H_ 0.401312 0.0584342 0.60424 0.11455
H_ H_ 0.385006 0.468424 0.602978 0.11455
H_ H_ 0.336372 0.0755379 0.713819 0.11455
H_ H_ 0.344115 0.162138 0.70859 0.11455
H_ H_ 0.410091 0.144585 0.623711 0.11455
H_ H_ 0.422095 0.382992 0.714921 0.11455
H_ H_ 0.452294 0.403362 0.762107 0.11455
H_ H_ 0.423134 0.355914 0.803067 0.11455
H_ H_ 0.308418 0.254697 0.724095 0.11455
H_ H_ 0.280285 0.201071 0.763793 0.11455
H_ H_ 0.288853 0.223756 0.812371 0.11455
H_ H_ 0.477766 0.280186 0.877179 0.11455
H_ H_ 0.488415 0.295798 0.930643 0.11455
H_ H_ 0.233845 0.358885 0.885185 0.11455
H_ H_ 0.241167 0.361785 0.936417 0.11455
H_ H_ 0.393501 0.425727 -0.0005749999999999922 0.11455
H_ H_ 0.459572 0.426177 0.551107 0.11455
H_ H_ 0.430267 0.373967 0.591313 0.11455
H_ H_ 0.316233 0.269863 0.511996 0.11455
H_ H_ 0.296241 0.214025 0.552009 0.11455
H_ H_ 0.319534 0.235864 0.599718 0.11455
C_ C_ 0.231148 0.188913 0.90741 0.68181
C_ C_ 0.28682 0.183653 0.901956 -0.05681
C_ C_ 0.322783 0.182584 0.924734 -0.08735
C_ C_ 0.375389 0.18291 0.919312 -0.05681
C_ C_ 0.392856 0.180144 0.891329 -0.05681
C_ C_ 0.358995 0.181695 0.868575 -0.08735
C_ C_ 0.307325 0.184142 0.873558 -0.08735
C_ C_ 0.410073 0.182036 0.942161 -0.08735
C_ C_ 0.461117 0.185307 0.936567 -0.08735
C_ C_ 0.479102 0.179413 0.908942 -0.05681
C_ C_ 0.445415 0.178179 0.885503 -0.08735
C_ C_ 0.117892 0.278827 0.909681 0.68181
C_ C_ 0.138554 0.079418 0.900578 0.68181
C_ C_ 0.134446 0.0240538 0.898571 -0.05681
C_ C_ 0.126209 0.494249 0.920757 -0.08735
C_ C_ 0.125563 0.44065 0.918292 -0.05681
C_ C_ 0.124554 0.418485 0.8906 -0.05681
C_ C_ 0.132992 0.447077 0.86664 -0.08735
C_ C_ 0.138104 0.50075 0.868733 -0.08735
C_ C_ 0.120432 0.409237 0.942516 -0.08735
C_ C_ 0.124363 0.356533 0.939099 -0.08735
C_ C_ 0.119341 0.335396 0.912138 -0.05681
C_ C_ 0.12495 0.366324 0.887426 -0.08735
C_ C_ 0.0298151 0.17825 0.907203 0.68181
C_ C_ 0.11133 0.128095 0.981872 0.1947
C_ C_ 0.0761317 0.11644 0.511336 -0.08735
C_ C_ 0.112472 0.129257 0.532529 -0.08735
C_ C_ 0.138111 0.173899 0.528391 -0.05681
C_ C_ 0.145089 0.193594 0.4999 0.18498
C_ C_ 0.178292 0.247818 0.995889 -0.08735
C_ C_ 0.191896 0.263149 0.516715 -0.08735
C_ C_ 0.176591 0.251576 0.54487 -0.08735
C_ C_ 0.152394 0.20443 0.550988 0.18498
C_ C_ 0.187388 0.18169 0.596692 0.44287
C_ C_ 0.0990802 0.192579 0.592468 0.44287
C_ C_ 0.0913456 0.184592 0.622054 -0.05681
C_ C_ 0.0444623 0.195768 0.635568 -0.08735
C_ C_ 0.0397658 0.1986 0.665157 -0.08735
C_ C_ 0.0819876 0.189231 0.683202 -0.05681
C_ C_ 0.13014 0.182349 0.670331 -0.05681
C_ C_ 0.134224 0.178567 0.640308 -0.05681
C_ C_ 0.182628 0.17148 0.627081 -0.05681
C_ C_ 0.223752 0.166113 0.645025 -0.08735
C_ C_ 0.219768 0.16291 0.674494 -0.08735
C_ C_ 0.171957 0.173451 0.687485 -0.05681
C_ C_ 0.163286 0.166605 0.716671 0.44287
C_ C_ 0.0780129 0.189799 0.713362 0.44287
C_ C_ 0.110802 0.154823 0.758884 0.18498
C_ C_ 0.0833537 0.111168 0.76362 -0.08735
C_ C_ 0.0791112 0.0909233 0.79167 -0.08735
C_ C_ 0.0916484 0.120663 0.816617 -0.08735
C_ C_ 0.11772 0.169037 0.81231 0.18498
C_ C_ 0.12759 0.184453 0.782767 -0.05681
C_ C_ 0.15687 0.229141 0.777796 -0.08735
C_ C_ 0.178835 0.252921 0.80194 -0.08735
C_ C_ 0.168696 0.235767 0.830444 0.1947
C_ C_ 0.275038 0.311943 0.656853 0.68181
C_ C_ 0.21853 0.310529 0.651748 -0.05681
C_ C_ 0.184623 0.315873 0.675066 -0.08735
C_ C_ 0.133395 0.315349 0.670944 -0.05681
C_ C_ 0.11528 0.316224 0.642708 -0.05681
C_ C_ 0.14778 0.310495 0.618208 -0.08735
C_ C_ 0.198554 0.30468 0.623643 -0.08735
C_ C_ 0.0993053 0.320777 0.693655 -0.08735
C_ C_ 0.0475013 0.319129 0.689074 -0.08735
C_ C_ 0.0282769 0.319966 0.660674 -0.05681
C_ C_ 0.0628832 0.318914 0.637266 -0.08735
C_ C_ 0.372956 0.220204 0.663268 0.68181
C_ C_ 0.37206 0.414967 0.651001 0.68181
C_ C_ 0.37433 0.471336 0.647971 -0.05681
C_ C_ 0.358863 0.00381834 0.674956 -0.08735
C_ C_ 0.365466 0.0574019 0.671699 -0.05681
C_ C_ 0.3861 0.0773104 0.647356 -0.05681
C_ C_ 0.39692 0.0443334 0.624938 -0.08735
C_ C_ 0.38099 0.493224 0.621622 -0.08735
C_ C_ 0.350483 0.0893299 0.69373 -0.08735
C_ C_ 0.356174 0.141086 0.691071 -0.08735
C_ C_ 0.374033 0.163257 0.666759 -0.05681
C_ C_ 0.388297 0.130569 0.643256 -0.08735
C_ C_ 0.474542 0.317469 0.661637 0.68181
C_ C_ 0.403157 0.367317 0.733097 0.1947
C_ C_ 0.422332 0.375067 0.75957 -0.08735
C_ C_ 0.401075 0.352595 0.784219 -0.08735
C_ C_ 0.362995 0.316 0.780395 -0.05681
C_ C_ 0.345391 0.306492 0.752385 0.18498
C_ C_ 0.315392 0.264324 0.746384 -0.08735
C_ C_ 0.301913 0.233138 0.769099 -0.08735
C_ C_ 0.311538 0.244465 0.796733 -0.08735
C_ C_ 0.338326 0.287449 0.804071 0.18498
C_ C_ 0.305799 0.318293 0.849806 0.44287
C_ C_ 0.392583 0.292057 0.846725 0.44287
C_ C_ 0.399984 0.304189 0.876544 -0.05681
C_ C_ 0.444459 0.299471 0.890635 -0.08735
C_ C_ 0.450419 0.305189 0.921008 -0.08735
C_ C_ 0.40783 0.315097 0.937947 -0.05681
C_ C_ 0.362762 0.325002 0.923866 -0.05681
C_ C_ 0.358237 0.32007 0.893014 -0.05681
C_ C_ 0.309973 0.329329 0.878808 -0.05681
C_ C_ 0.269847 0.347823 0.895206 -0.08735
C_ C_ 0.274264 0.351869 0.924896 -0.08735
C_ C_ 0.320002 0.338395 0.940421 -0.05681
C_ C_ 0.32462 0.344833 0.970133 0.44287
C_ C_ 0.410446 0.321564 0.968057 0.44287
C_ C_ 0.385467 0.346866 0.512931 0.18498
C_ C_ 0.423027 0.384562 0.518072 -0.08735
C_ C_ 0.43549 0.394892 0.546446 -0.08735
C_ C_ 0.421767 0.364274 0.569793 -0.08735
C_ C_ 0.389442 0.322649 0.563866 0.18498
C_ C_ 0.369429 0.314145 0.535788 -0.05681
C_ C_ 0.337208 0.273393 0.531552 -0.08735
C_ C_ 0.318322 0.248096 0.554167 -0.08735
C_ C_ 0.333662 0.259048 0.581795 0.1947
N_ N_ 0.131379 0.17477 0.977446 -0.29468
N_ N_ 0.146476 0.191768 0.580395 -0.17154
N_ N_ 0.117765 0.17225 0.728884 -0.17154
N_ N_ 0.137638 0.19507 0.835017 -0.29468
N_ N_ 0.365455 0.333834 0.729688 -0.29468
N_ N_ 0.345559 0.296864 0.834722 -0.17154
N_ N_ 0.368048 0.333277 0.984138 -0.17154
N_ N_ 0.366703 0.299223 0.586281 -0.29468
O_ O_ 0.212784 0.177454 0.932546 -0.58347
O_ O_ 0.201614 0.190679 0.885759 -0.58347
O_ O_ 0.131114 0.252904 0.930454 -0.58347
O_ O_ 0.115772 0.259046 0.885283 -0.58347
O_ O_ 0.138032 0.100599 0.925272 -0.58347
O_ O_ 0.131778 0.10712 0.878409 -0.58347
O_ O_ 0.0586947 0.178685 0.928639 -0.58347
O_ O_ 0.0473711 0.172682 0.881676 -0.58347
O_ O_ 0.0590874 0.203063 0.575466 -0.46727
O_ O_ 0.233939 0.184078 0.585454 -0.46727
O_ O_ 0.0337245 0.19009 0.725147 -0.46727
O_ O_ 0.202055 0.155203 0.73309 -0.46727
O_ O_ 0.290646 0.31331 0.682484 -0.58347
O_ O_ 0.303913 0.317163 0.636039 -0.58347
O_ O_ 0.371402 0.248767 0.683524 -0.58347
O_ O_ 0.378859 0.238702 0.638864 -0.58347
O_ O_ 0.361844 0.396566 0.674168 -0.58347
O_ O_ 0.384333 0.387207 0.630221 -0.58347
O_ O_ 0.446054 0.322243 0.682314 -0.58347
O_ O_ 0.457495 0.314456 0.636206 -0.58347
O_ O_ 0.427962 0.267108 0.832018 -0.46727
O_ O_ 0.260729 0.316615 0.837919 -0.46727
O_ O_ 0.45009 0.304746 0.981168 -0.46727
O_ O_ 0.284998 0.356847 0.985231 -0.46727
Zn Zn 0.12764 0.692671 0.378948 0.90689
Zn Zn 0.139202 0.6872 0.42772 0.90689
Zn Zn 0.37579 0.817523 0.134217 0.90689
Zn Zn 0.370372 0.822786 0.182739 0.90689
H_ H_ 0.306368 0.696005 0.441366 0.11455
H_ H_ 0.369857 0.646413 0.346592 0.11455
H_ H_ 0.280262 0.658252 0.353785 0.11455
H_ H_ 0.395421 0.698234 0.459802 0.11455
H_ H_ 0.484922 0.695376 0.450707 0.11455
H_ H_ 0.459051 0.662313 0.361701 0.11455
H_ H_ 0.125672 0.521938 0.439304 0.11455
H_ H_ 0.105365 0.945593 0.346667 0.11455
H_ H_ 0.132758 0.535645 0.34796 0.11455
H_ H_ 0.136144 0.935215 0.46424 0.11455
H_ H_ 0.13938 0.842651 0.457927 0.11455
H_ H_ 0.105554 0.863122 0.367505 0.11455
H_ H_ 0.0843268 0.628479 0.464276 0.11455
H_ H_ 0.0685292 0.569124 0.00814298 0.11455
H_ H_ 0.109123 0.616514 0.0492845 0.11455
H_ H_ 0.191413 0.768948 0.473971 0.11455
H_ H_ 0.214397 0.801772 0.00697825 0.11455
H_ H_ 0.191372 0.776286 0.0576953 0.11455
H_ H_ 0.0125702 0.709766 0.119328 0.11455
H_ H_ -0.0031560000000000477 0.687474 0.16787 0.11455
H_ H_ 0.261374 0.670315 0.136131 0.11455
H_ H_ 0.252122 0.674304 0.186004 0.11455
H_ H_ 0.0653813 0.593077 0.245332 0.11455
H_ H_ 0.0642797 0.561104 0.297199 0.11455
H_ H_ 0.0806655 0.61973 0.337087 0.11455
H_ H_ 0.144659 0.754155 0.25492 0.11455
H_ H_ 0.179755 0.806362 0.293623 0.11455
H_ H_ 0.180286 0.770499 0.344161 0.11455
H_ H_ 0.202643 0.823952 0.195938 0.11455
H_ H_ 0.132544 0.814426 0.0952078 0.11455
H_ H_ 0.226346 0.823919 0.103986 0.11455
H_ H_ 0.11852 0.80573 0.213762 0.11455
H_ H_ 0.0278119 0.799091 0.207587 0.11455
H_ H_ 0.0443756 0.830622 0.117403 0.11455
H_ H_ 0.35095 0.989203 0.194009 0.11455
H_ H_ 0.34745 0.569164 0.100766 0.11455
H_ H_ 0.374456 0.978184 0.103152 0.11455
H_ H_ 0.412436 0.572241 0.214418 0.11455
H_ H_ 0.407588 0.664184 0.2121 0.11455
H_ H_ 0.358816 0.659907 0.124628 0.11455
H_ H_ 0.424935 0.884017 0.216127 0.11455
H_ H_ 0.439417 0.925561 0.266782 0.11455
H_ H_ 0.411279 0.881982 0.307838 0.11455
H_ H_ 0.323716 0.751608 0.229348 0.11455
H_ H_ 0.291343 0.697044 0.269282 0.11455
H_ H_ 0.325342 0.718185 0.318961 0.11455
H_ H_ 0.502469 0.802069 0.37846 0.11455
H_ H_ 0.510493 0.819833 0.427705 0.11455
H_ H_ 0.251882 0.853307 0.388698 0.11455
H_ H_ 0.261428 0.869474 0.439834 0.11455
H_ H_ 0.43477 0.929487 0.511866 0.11455
H_ H_ 0.446007 0.936272 0.0532655 0.11455
H_ H_ 0.425574 0.877076 0.0927675 0.11455
H_ H_ 0.345668 0.751234 0.0106692 0.11455
H_ H_ 0.311678 0.698537 0.0506574 0.11455
H_ H_ 0.317985 0.736617 0.101139 0.11455
C_ C_ 0.231624 0.69796 0.402092 0.68181
C_ C_ 0.28784 0.687989 0.39626 -0.05681
C_ C_ 0.322968 0.691354 0.420117 -0.08735
C_ C_ 0.374788 0.683692 0.415327 -0.05681
C_ C_ 0.392295 0.671971 0.38797 -0.05681
C_ C_ 0.357534 0.663192 0.36606 -0.08735
C_ C_ 0.305171 0.673324 0.368917 -0.08735
C_ C_ 0.407989 0.690893 0.438725 -0.08735
C_ C_ 0.459564 0.687776 0.433767 -0.08735
C_ C_ 0.477937 0.679407 0.405249 -0.05681
C_ C_ 0.4446 0.670822 0.382989 -0.08735
C_ C_ 0.130624 0.786973 0.409444 0.68181
C_ C_ 0.140692 0.589147 0.39646 0.68181
C_ C_ 0.132771 0.533678 0.393034 -0.05681
C_ C_ 0.122862 1.00259769 0.422185 -0.08735
C_ C_ 0.125412 0.949756 0.418503 -0.05681
C_ C_ 0.123764 0.92799 0.390823 -0.05681
C_ C_ 0.116324 0.960216 0.36725 -0.08735
C_ C_ 0.115528 1.0130042 0.369363 -0.08735
C_ C_ 0.128947 0.918562 0.443147 -0.08735
C_ C_ 0.132487 0.865238 0.438621 -0.08735
C_ C_ 0.129931 0.842693 0.411665 -0.05681
C_ C_ 0.121385 0.875906 0.38761 -0.08735
C_ C_ 0.0352848 0.683217 0.403534 0.68181
C_ C_ 0.108081 0.641613 0.480467 0.1947
C_ C_ 0.0976283 0.600031 0.00477578 -0.08735
C_ C_ 0.117543 0.627355 0.028844 -0.08735
C_ C_ 0.142961 0.672705 0.0247115 -0.05681
C_ C_ 0.158052 0.687271 0.996067 0.18498
C_ C_ 0.185186 0.751936 0.495082 -0.08735
C_ C_ 0.192864 0.766712 0.0119622 -0.08735
C_ C_ 0.18022 0.752595 0.03995 -0.08735
C_ C_ 0.154954 0.707754 0.0478545 0.18498
C_ C_ 0.186819 0.682493 0.0950746 0.44287
C_ C_ 0.100321 0.70321 0.0897497 0.44287
C_ C_ 0.0938063 0.700245 0.11991 -0.05681
C_ C_ 0.0435022 0.698403 0.132241 -0.08735
C_ C_ 0.0361609 0.690024 0.160746 -0.08735
C_ C_ 0.0773877 0.689331 0.179886 -0.05681
C_ C_ 0.126899 0.687385 0.167619 -0.05681
C_ C_ 0.133626 0.689908 0.137657 -0.05681
C_ C_ 0.180677 0.678644 0.125454 -0.05681
C_ C_ 0.222089 0.672314 0.143887 -0.08735
C_ C_ 0.21559 0.675401 0.173889 -0.08735
C_ C_ 0.168454 0.679997 0.186388 -0.05681
C_ C_ 0.159344 0.671709 0.215611 0.44287
C_ C_ 0.0704783 0.688597 0.210108 0.44287
C_ C_ 0.101267 0.663065 0.256904 0.18498
C_ C_ 0.0781223 0.617194 0.263612 -0.08735
C_ C_ 0.0702341 0.602157 0.292606 -0.08735
C_ C_ 0.0872999 0.632587 0.315195 -0.08735
C_ C_ 0.114683 0.677841 0.309769 0.18498
C_ C_ 0.119731 0.693515 0.280073 -0.05681
C_ C_ 0.142627 0.738279 0.276343 -0.08735
C_ C_ 0.164128 0.767538 0.299249 -0.08735
C_ C_ 0.163388 0.748549 0.326995 0.1947
C_ C_ 0.277303 0.823225 0.155915 0.68181
C_ C_ 0.220799 0.825643 0.150901 -0.05681
C_ C_ 0.187777 0.822395 0.173628 -0.08735
C_ C_ 0.135611 0.816165 0.168386 -0.05681
C_ C_ 0.114297 0.818143 0.140501 -0.05681
C_ C_ 0.148334 0.8244 0.117073 -0.08735
C_ C_ 0.199225 0.821891 0.122511 -0.08735
C_ C_ 0.103558 0.810412 0.192309 -0.08735
C_ C_ 0.0506649 0.804373 0.187931 -0.08735
C_ C_ 0.0278746 0.806932 0.160276 -0.05681
C_ C_ 0.0603206 0.818074 0.137104 -0.08735
C_ C_ 0.379918 0.723782 0.166208 0.68181
C_ C_ 0.362625 0.920325 0.149969 0.68181
C_ C_ 0.359363 0.976257 0.149061 -0.05681
C_ C_ 0.377596 0.508102 0.174284 -0.08735
C_ C_ 0.378749 0.561721 0.172144 -0.05681
C_ C_ 0.372532 0.585475 0.14499 -0.05681
C_ C_ 0.3604 0.554529 0.121048 -0.08735
C_ C_ 0.37287 -0.0007080000000000419 0.122774 -0.08735
C_ C_ 0.394642 0.590286 0.19536 -0.08735
C_ C_ 0.393637 0.643463 0.193832 -0.08735
C_ C_ 0.378315 0.6676 0.168761 -0.05681
C_ C_ 0.372061 0.639622 0.144342 -0.08735
C_ C_ 0.475858 0.820086 0.158436 0.68181
C_ C_ 0.404915 0.872388 0.235188 0.1947
C_ C_ 0.41508 0.892195 0.262553 -0.08735
C_ C_ 0.398264 0.86857 0.28684 -0.08735
C_ C_ 0.368649 0.822475 0.283566 -0.05681
C_ C_ 0.356515 0.804739 0.255642 0.18498
C_ C_ 0.335585 0.758798 0.250783 -0.08735
C_ C_ 0.321733 0.727919 0.273692 -0.08735
C_ C_ 0.335617 0.742094 0.301918 -0.08735
C_ C_ 0.356556 0.790732 0.307235 0.18498
C_ C_ 0.32745 0.82367 0.352634 0.44287
C_ C_ 0.411401 0.796166 0.348578 0.44287
C_ C_ 0.419935 0.813238 0.377937 -0.05681
C_ C_ 0.46772 0.810899 0.390706 -0.08735
C_ C_ 0.472312 0.821943 0.419233 -0.08735
C_ C_ 0.430782 0.827879 0.438184 -0.05681
C_ C_ 0.383765 0.835688 0.425324 -0.05681
C_ C_ 0.378588 0.826536 0.395612 -0.05681
C_ C_ 0.331227 0.832631 0.382287 -0.05681
C_ C_ 0.287542 0.846032 0.398363 -0.08735
C_ C_ 0.294003 0.855708 0.42804 -0.08735
C_ C_ 0.340774 0.850415 0.441506 -0.05681
C_ C_ 0.348382 0.858376 0.470692 0.44287
C_ C_ 0.436466 0.839357 0.468 0.44287
C_ C_ 0.393429 0.842554 0.0138199 0.18498
C_ C_ 0.417999 0.888964 0.0196353 -0.08735
C_ C_ 0.429604 0.899833 0.0479441 -0.08735
C_ C_ 0.418311 0.865405 0.0700907 -0.08735
C_ C_ 0.389317 0.821488 0.0657329 0.18498
C_ C_ 0.379298 0.809182 0.0366098 -0.05681
C_ C_ 0.354092 0.760418 0.0324584 -0.08735
C_ C_ 0.334802 0.733445 0.0554634 -0.08735
C_ C_ 0.338518 0.753665 0.0832985 0.1947
N_ N_ 0.139334 0.683641 0.477029 -0.29468
N_ N_ 0.147014 0.695466 0.0781723 -0.17154
N_ N_ 0.110523 0.677585 0.227368 -0.17154
N_ N_ 0.133216 0.707104 0.332381 -0.29468
N_ N_ 0.372179 0.832437 0.23223 -0.29468
N_ N_ 0.365605 0.807162 0.33602 -0.17154
N_ N_ 0.393693 0.847566 0.483928 -0.17154
N_ N_ 0.365455 0.796653 0.0872338 -0.29468
O_ O_ 0.21272 0.694458 0.427529 -0.58347
O_ O_ 0.202938 0.699676 0.380429 -0.58347
O_ O_ 0.134722 0.759505 0.431493 -0.58347
O_ O_ 0.12462 0.765916 0.385571 -0.58347
O_ O_ 0.147619 0.612494 0.420224 -0.58347
O_ O_ 0.133778 0.616339 0.374225 -0.58347
O_ O_ 0.0640103 0.682824 0.42512 -0.58347
O_ O_ 0.0526456 0.684583 0.37851 -0.58347
O_ O_ 0.0630762 0.714634 0.0731726 -0.46727
O_ O_ 0.231074 0.672508 0.0834393 -0.46727
O_ O_ 0.0245452 0.692985 0.221201 -0.46727
O_ O_ 0.193609 0.647903 0.230899 -0.46727
O_ O_ 0.295783 0.824181 0.180358 -0.58347
O_ O_ 0.303048 0.812508 0.133896 -0.58347
O_ O_ 0.369476 0.75262 0.187278 -0.58347
O_ O_ 0.382696 0.743383 0.140778 -0.58347
O_ O_ 0.363544 0.900175 0.174879 -0.58347
O_ O_ 0.365896 0.891838 0.12697 -0.58347
O_ O_ 0.447303 0.823008 0.181079 -0.58347
O_ O_ 0.45531 0.821187 0.134367 -0.58347
O_ O_ 0.451305 0.791093 0.331637 -0.46727
O_ O_ 0.285165 0.835854 0.340313 -0.46727
O_ O_ 0.478785 0.827832 0.481179 -0.46727
O_ O_ 0.306916 0.863406 0.486806 -0.46727
Zn Zn 0.135345 0.681448 0.87991 0.90689
Zn Zn 0.145885 0.673327 0.92718 0.90689
Zn Zn 0.368416 0.80955 0.634957 0.90689
Zn Zn 0.36123 0.822371 0.68208 0.90689
H_ H_ 0.310895 0.686612 0.943619 0.11455
H_ H_ 0.381696 0.667671 0.847115 0.11455
H_ H_ 0.290284 0.650889 0.856205 0.11455
H_ H_ 0.397268 0.710498 0.96168 0.11455
H_ H_ 0.492959 0.71923 0.951635 0.11455
H_ H_ 0.469752 0.671682 0.867082 0.11455
H_ H_ 0.120218 0.512357 0.941036 0.11455
H_ H_ 0.142857 0.934543 0.845197 0.11455
H_ H_ 0.156773 0.521027 0.852394 0.11455
H_ H_ 0.0859874 0.920008 0.960506 0.11455
H_ H_ 0.100579 0.829952 0.955931 0.11455
H_ H_ 0.130901 0.849982 0.865675 0.11455
H_ H_ 0.0987559 0.59253 0.957503 0.11455
H_ H_ 0.0816804 0.582417 0.510362 0.11455
H_ H_ 0.12042 0.620639 0.551333 0.11455
H_ H_ 0.194721 0.740566 0.968469 0.11455
H_ H_ 0.214909 0.819685 0.515254 0.11455
H_ H_ 0.195903 0.795265 0.563782 0.11455
H_ H_ 1.0168917 0.688291 0.617301 0.11455
H_ H_ 1.00738487 0.686208 0.671397 0.11455
H_ H_ 0.271343 0.680942 0.634466 0.11455
H_ H_ 0.261087 0.681717 0.686426 0.11455
H_ H_ 0.0656257 0.587151 0.748934 0.11455
H_ H_ 0.0485713 0.564469 0.799248 0.11455
H_ H_ 0.0747156 0.619526 0.836539 0.11455
H_ H_ 0.179097 0.737179 0.755961 0.11455
H_ H_ 0.203033 0.787197 0.799408 0.11455
H_ H_ 0.201206 0.742503 0.844525 0.11455
H_ H_ 0.193168 0.791717 0.690078 0.11455
H_ H_ 0.126787 0.866319 0.599681 0.11455
H_ H_ 0.221118 0.861655 0.610153 0.11455
H_ H_ 0.110883 0.782085 0.708142 0.11455
H_ H_ 0.0160765 0.795458 0.70428 0.11455
H_ H_ 0.0410763 0.840816 0.616216 0.11455
H_ H_ 0.350074 0.988637 0.696799 0.11455
H_ H_ 0.388414 0.562951 0.59816 0.11455
H_ H_ 0.393845 0.966437 0.609034 0.11455
H_ H_ 0.384152 0.569731 0.715013 0.11455
H_ H_ 0.368048 0.660194 0.712782 0.11455
H_ H_ 0.379413 0.650705 0.620575 0.11455
H_ H_ 0.413474 0.896321 0.720288 0.11455
H_ H_ 0.41015 0.933404 0.769443 0.11455
H_ H_ 0.373258 0.884678 0.808679 0.11455
H_ H_ 0.302223 0.749799 0.726911 0.11455
H_ H_ 0.275458 0.693505 0.766963 0.11455
H_ H_ 0.306497 0.713577 0.816057 0.11455
H_ H_ 0.482695 0.803435 0.872558 0.11455
H_ H_ 0.498833 0.819277 0.924628 0.11455
H_ H_ 0.236215 0.810709 0.893212 0.11455
H_ H_ 0.249679 0.83576 0.945264 0.11455
H_ H_ 0.423473 0.9135 1.00201845 0.11455
H_ H_ 0.469872 0.932864 0.560968 0.11455
H_ H_ 0.441996 0.866932 0.593962 0.11455
H_ H_ 0.348168 0.766119 0.505276 0.11455
H_ H_ 0.298791 0.717156 0.543582 0.11455
H_ H_ 0.309585 0.743271 0.593851 0.11455
C_ C_ 0.238698 0.673745 0.902147 0.68181
C_ C_ 0.295498 0.674513 0.898785 -0.05681
C_ C_ 0.328421 0.680316 0.922827 -0.08735
C_ C_ 0.381893 0.680656 0.919825 -0.05681
C_ C_ 0.402414 0.673336 0.892732 -0.05681
C_ C_ 0.36925 0.661823 0.869427 -0.08735
C_ C_ 0.316279 0.660302 0.873248 -0.08735
C_ C_ 0.416259 0.693991 0.94249 -0.08735
C_ C_ 0.468588 0.69818 0.936753 -0.08735
C_ C_ 0.488348 0.685544 0.911042 -0.05681
C_ C_ 0.454796 0.681491 0.887731 -0.08735
C_ C_ 0.132303 0.775508 0.907662 0.68181
C_ C_ 0.139543 0.579276 0.900263 0.68181
C_ C_ 0.133806 0.523186 0.897044 -0.05681
C_ C_ 0.121176 0.991326 0.922167 -0.08735
C_ C_ 0.116759 0.939129 0.918302 -0.05681
C_ C_ 0.124584 0.917635 0.89055 -0.05681
C_ C_ 0.136907 0.949734 0.867617 -0.08735
C_ C_ 0.141812 0.00229806 0.871091 -0.08735
C_ C_ 0.101344 0.904994 0.940768 -0.08735
C_ C_ 0.109026 0.852504 0.937907 -0.08735
C_ C_ 0.121171 0.831414 0.910727 -0.05681
C_ C_ 0.126296 0.865241 0.886974 -0.08735
C_ C_ 0.0431858 0.676365 0.904034 0.68181
C_ C_ 0.115199 0.613162 0.977256 0.1947
C_ C_ 0.104819 0.617055 0.507994 -0.08735
C_ C_ 0.127211 0.638924 0.531268 -0.08735
C_ C_ 0.147967 0.689585 0.528312 -0.05681
C_ C_ 0.159766 0.705771 0.500366 0.18498
C_ C_ 0.184436 0.733385 0.990266 -0.08735
C_ C_ 0.197975 0.783175 0.518125 -0.08735
C_ C_ 0.187837 0.768327 0.546638 -0.08735
C_ C_ 0.161237 0.722958 0.551434 0.18498
C_ C_ 0.193239 0.695569 0.596275 0.44287
C_ C_ 0.105124 0.707684 0.592136 0.44287
C_ C_ 0.0985623 0.693838 0.62158 -0.05681
C_ C_ 0.0488893 0.68915 0.632702 -0.08735
C_ C_ 0.0430685 0.682094 0.662891 -0.08735
C_ C_ 0.0863196 0.672706 0.680629 -0.05681
C_ C_ 0.134879 0.67812 0.668647 -0.05681
C_ C_ 0.141349 0.687759 0.639313 -0.05681
C_ C_ 0.189814 0.688386 0.626289 -0.05681
C_ C_ 0.23337 0.686332 0.643453 -0.08735
C_ C_ 0.227278 0.679483 0.672235 -0.08735
C_ C_ 0.178544 0.677704 0.685735 -0.05681
C_ C_ 0.171337 0.663196 0.714972 0.44287
C_ C_ 0.0811086 0.668767 0.710289 0.44287
C_ C_ 0.116485 0.649694 0.75751 0.18498
C_ C_ 0.0852005 0.608198 0.765075 -0.08735
C_ C_ 0.0697708 0.597521 0.79313 -0.08735
C_ C_ 0.0885356 0.626927 0.815238 -0.08735
C_ C_ 0.116377 0.669933 0.810297 0.18498
C_ C_ 0.130058 0.682737 0.780822 -0.05681
C_ C_ 0.159971 0.728941 0.776947 -0.08735
C_ C_ 0.178338 0.754218 0.801143 -0.08735
C_ C_ 0.175776 0.73131 0.828467 0.1947
C_ C_ 0.268996 0.82355 0.653939 0.68181
C_ C_ 0.21364 0.831353 0.650714 -0.05681
C_ C_ 0.179728 0.816821 0.672623 -0.08735
C_ C_ 0.126812 0.820685 0.669211 -0.05681
C_ C_ 0.107888 0.842246 0.643203 -0.05681
C_ C_ 0.141397 0.853781 0.620312 -0.08735
C_ C_ 0.193022 0.848703 0.625359 -0.08735
C_ C_ 0.0931229 0.798588 0.689786 -0.08735
C_ C_ 0.0419782 0.804036 0.685689 -0.08735
C_ C_ 0.0218241 0.823438 0.659481 -0.05681
C_ C_ 0.0555617 0.842652 0.637799 -0.08735
C_ C_ 0.37319 0.718783 0.66262 0.68181
C_ C_ 0.360808 0.915614 0.654752 0.68181
C_ C_ 0.367038 0.971456 0.652235 -0.05681
C_ C_ 0.375646 0.502506 0.671632 -0.08735
C_ C_ 0.381659 0.555856 0.669408 -0.05681
C_ C_ 0.381874 0.578664 0.643215 -0.05681
C_ C_ 0.385013 0.54797 0.618857 -0.08735
C_ C_ 0.385666 0.991375 0.626676 -0.08735
C_ C_ 0.382539 0.587562 0.693815 -0.08735
C_ C_ 0.373399 0.638738 0.692994 -0.08735
C_ C_ 0.37203 0.662893 0.665729 -0.05681
C_ C_ 0.37614 0.631044 0.640924 -0.08735
C_ C_ 0.462284 0.822859 0.660683 0.68181
C_ C_ 0.391403 0.876287 0.73723 0.1947
C_ C_ 0.391167 0.895668 0.764342 -0.08735
C_ C_ 0.374331 0.866719 0.787017 -0.08735
C_ C_ 0.353299 0.819268 0.782327 -0.05681
C_ C_ 0.344964 0.804116 0.753349 0.18498
C_ C_ 0.318587 0.757302 0.748042 -0.08735
C_ C_ 0.302228 0.72608 0.770304 -0.08735
C_ C_ 0.312941 0.740293 0.798691 -0.08735
C_ C_ 0.336397 0.787972 0.805765 0.18498
C_ C_ 0.306418 0.806436 0.853015 0.44287
C_ C_ 0.394605 0.792299 0.846463 0.44287
C_ C_ 0.403262 0.802963 0.875711 -0.05681
C_ C_ 0.452273 0.808541 0.886022 -0.08735
C_ C_ 0.459816 0.818095 0.915995 -0.08735
C_ C_ 0.418202 0.822894 0.935149 -0.05681
C_ C_ 0.368439 0.814758 0.923928 -0.05681
C_ C_ 0.360762 0.806071 0.894854 -0.05681
C_ C_ 0.312211 0.806146 0.882175 -0.05681
C_ C_ 0.271067 0.813133 0.902045 -0.08735
C_ C_ 0.278277 0.821897 0.930984 -0.08735
C_ C_ 0.327274 0.820999 0.942489 -0.05681
C_ C_ 0.337411 0.828624 0.972205 0.44287
C_ C_ 0.425705 0.827263 0.964519 0.44287
C_ C_ 0.399602 0.854182 0.514821 0.18498
C_ C_ 0.429928 0.895825 0.524737 -0.08735
C_ C_ 0.444715 0.899275 0.553553 -0.08735
C_ C_ 0.425839 0.865176 0.573189 -0.08735
C_ C_ 0.391093 0.828132 0.56498 0.18498
C_ C_ 0.380676 0.819604 0.535204 -0.05681
C_ C_ 0.351024 0.777869 0.527549 -0.08735
C_ C_ 0.32366 0.749672 0.549076 -0.08735
C_ C_ 0.331872 0.764528 0.576914 0.1947
N_ N_ 0.140939 0.658509 0.973315 -0.29468
N_ N_ 0.152687 0.708512 0.580573 -0.17154
N_ N_ 0.122105 0.662943 0.727396 -0.17154
N_ N_ 0.144222 0.691184 0.832424 -0.29468
N_ N_ 0.364012 0.833988 0.731322 -0.29468
N_ N_ 0.346806 0.798368 0.836001 -0.17154
N_ N_ 0.384597 0.829928 0.982989 -0.17154
N_ N_ 0.368283 0.797266 0.585144 -0.29468
O_ O_ 0.220074 0.687597 0.925638 -0.58347
O_ O_ 0.209469 0.669833 0.880872 -0.58347
O_ O_ 0.133026 0.746766 0.929593 -0.58347
O_ O_ 0.141463 0.758685 0.882077 -0.58347
O_ O_ 0.160714 0.60064 0.921973 -0.58347
O_ O_ 0.126711 0.607397 0.879488 -0.58347
O_ O_ 0.0701337 0.661407 0.92479 -0.58347
O_ O_ 0.0618078 0.68773 0.880263 -0.58347
O_ O_ 0.0655597 0.717875 0.576391 -0.46727
O_ O_ 0.236291 0.683443 0.581819 -0.46727
O_ O_ 0.035748 0.663451 0.72185 -0.46727
O_ O_ 0.20977 0.648093 0.73026 -0.46727
O_ O_ 0.285865 0.810954 0.678454 -0.58347
O_ O_ 0.294167 0.81488 0.630992 -0.58347
O_ O_ 0.368903 0.745988 0.684213 -0.58347
O_ O_ 0.36775 0.736565 0.638333 -0.58347
O_ O_ 0.350772 0.896186 0.679531 -0.58347
O_ O_ 0.368234 0.88477 0.634063 -0.58347
O_ O_ 0.435361 0.835188 0.681385 -0.58347
O_ O_ 0.441371 0.809281 0.636637 -0.58347
O_ O_ 0.432315 0.781435 0.828662 -0.46727
O_ O_ 0.262724 0.819746 0.841596 -0.46727
O_ O_ 0.47233 0.829879 0.973779 -0.46727
O_ O_ 0.297901 0.832316 0.990617 -0.46727
Zn Zn 0.609605 0.178318 0.381828 0.90689
Zn Zn 0.618054 0.178791 0.43054 0.90689
Zn Zn 0.870589 0.31064 0.133888 0.90689
Zn Zn 0.855884 0.316855 0.181992 0.90689
H_ H_ 0.785908 0.199178 0.446537 0.11455
H_ H_ 0.850877 0.166172 0.350934 0.11455
H_ H_ 0.763149 0.164727 0.359705 0.11455
H_ H_ 0.86817 0.215151 0.464644 0.11455
H_ H_ 0.960139 0.205397 0.458597 0.11455
H_ H_ 0.937995 0.171599 0.368739 0.11455
H_ H_ 0.589878 0.0132877 0.439495 0.11455
H_ H_ 0.644642 0.427251 0.348085 0.11455
H_ H_ 0.638161 0.0190864 0.350866 0.11455
H_ H_ 0.619334 0.426678 0.463276 0.11455
H_ H_ 0.606698 0.334723 0.460313 0.11455
H_ H_ 0.609125 0.345966 0.368397 0.11455
H_ H_ 0.565739 0.106504 0.469094 0.11455
H_ H_ 0.599535 0.0522457 0.0124365 0.11455
H_ H_ 0.627148 0.106386 0.0528463 0.11455
H_ H_ 0.67525 0.245994 0.470388 0.11455
H_ H_ 0.71907 0.296561 0.0137008 0.11455
H_ H_ 0.690101 0.276412 0.0608996 0.11455
H_ H_ 0.520819 0.217956 0.120881 0.11455
H_ H_ 0.504428 0.201537 0.174405 0.11455
H_ H_ 0.757907 0.137353 0.135481 0.11455
H_ H_ 0.736995 0.117868 0.188401 0.11455
H_ H_ 0.567214 0.0814408 0.246875 0.11455
H_ H_ 0.534347 0.0631899 0.294846 0.11455
H_ H_ 0.549883 0.122917 0.335542 0.11455
H_ H_ 0.667502 0.23454 0.25958 0.11455
H_ H_ 0.692755 0.283993 0.301093 0.11455
H_ H_ 0.653197 0.264852 0.346889 0.11455
H_ H_ 0.696533 0.324723 0.195973 0.11455
H_ H_ 0.623112 0.318284 0.0973885 0.11455
H_ H_ 0.713544 0.321145 0.104075 0.11455
H_ H_ 0.611737 0.312128 0.218151 0.11455
H_ H_ 0.520256 0.311278 0.209995 0.11455
H_ H_ 0.53513 0.318931 0.119809 0.11455
H_ H_ 0.881844 0.482099 0.19049 0.11455
H_ H_ 0.885029 0.0617715 0.0961998 0.11455
H_ H_ 0.834806 0.47297 0.101024 0.11455
H_ H_ 0.836797 0.0616999 0.211674 0.11455
H_ H_ 0.834769 0.149683 0.211301 0.11455
H_ H_ 0.901293 0.146287 0.125746 0.11455
H_ H_ 0.913901 0.383478 0.218389 0.11455
H_ H_ 0.923459 0.424017 0.264791 0.11455
H_ H_ 0.871103 0.388536 0.308225 0.11455
H_ H_ 0.803381 0.249078 0.228527 0.11455
H_ H_ 0.753916 0.209104 0.267511 0.11455
H_ H_ 0.783078 0.231246 0.318006 0.11455
H_ H_ 0.967468 0.30283 0.373666 0.11455
H_ H_ -0.014268999999999976 0.321588 0.422729 0.11455
H_ H_ 0.719734 0.346954 0.394687 0.11455
H_ H_ 0.733415 0.346602 0.446839 0.11455
H_ H_ 0.915109 0.428592 0.502834 0.11455
H_ H_ 0.982962 0.402444 0.0462364 0.11455
H_ H_ 0.939005 0.361291 0.0869232 0.11455
H_ H_ 0.845048 0.241617 0.0115091 0.11455
H_ H_ 0.818304 0.191481 0.0530071 0.11455
H_ H_ 0.809951 0.237558 0.0995777 0.11455
C_ C_ 0.709976 0.190235 0.405332 0.68181
C_ C_ 0.766652 0.188528 0.401458 -0.05681
C_ C_ 0.800143 0.197138 0.424281 -0.08735
C_ C_ 0.852232 0.198213 0.42068 -0.05681
C_ C_ 0.87271 0.184121 0.393455 -0.05681
C_ C_ 0.840192 0.173559 0.370824 -0.08735
C_ C_ 0.787518 0.174354 0.375735 -0.08735
C_ C_ 0.884143 0.20584 0.442988 -0.08735
C_ C_ 0.936233 0.204179 0.439233 -0.08735
C_ C_ 0.958327 0.190278 0.412021 -0.05681
C_ C_ 0.924786 0.176864 0.390512 -0.08735
C_ C_ 0.60309 0.275652 0.412378 0.68181
C_ C_ 0.624465 0.0810046 0.39896 0.68181
C_ C_ 0.619074 0.0239012 0.396079 -0.05681
C_ C_ 0.636712 0.489886 0.421613 -0.08735
C_ C_ 0.627487 0.438346 0.41876 -0.05681
C_ C_ 0.627162 0.412727 0.391333 -0.05681
C_ C_ 0.628419 0.445193 0.367337 -0.08735
C_ C_ 0.639936 0.496754 0.37022 -0.08735
C_ C_ 0.616382 0.408726 0.442328 -0.08735
C_ C_ 0.612627 0.356135 0.440191 -0.08735
C_ C_ 0.607537 0.332085 0.413749 -0.05681
C_ C_ 0.613785 0.361474 0.388772 -0.08735
C_ C_ 0.517773 0.17088 0.409101 0.68181
C_ C_ 0.589196 0.124661 0.485971 0.1947
C_ C_ 0.612971 0.0903029 0.00956599 -0.08735
C_ C_ 0.630097 0.119483 0.0315448 -0.08735
C_ C_ 0.654956 0.166755 0.0270542 -0.05681
C_ C_ 0.658972 0.185119 0.998556 0.18498
C_ C_ 0.671591 0.234651 0.492732 -0.08735
C_ C_ 0.698538 0.261122 0.0167041 -0.08735
C_ C_ 0.685765 0.248489 0.0442463 -0.08735
C_ C_ 0.665184 0.199458 0.0504405 0.18498
C_ C_ 0.692557 0.17367 0.0981794 0.44287
C_ C_ 0.60675 0.197981 0.0909643 0.44287
C_ C_ 0.597745 0.194198 0.121038 -0.05681
C_ C_ 0.549998 0.201794 0.133599 -0.08735
C_ C_ 0.540035 0.19235 0.163419 -0.08735
C_ C_ 0.582707 0.185837 0.181864 -0.05681
C_ C_ 0.630716 0.174295 0.168861 -0.05681
C_ C_ 0.637066 0.179863 0.1391 -0.05681
C_ C_ 0.685564 0.168838 0.127658 -0.05681
C_ C_ 0.723726 0.148309 0.145485 -0.08735
C_ C_ 0.711502 0.137453 0.174412 -0.08735
C_ C_ 0.668269 0.158598 0.186977 -0.05681
C_ C_ 0.662569 0.159482 0.217347 0.44287
C_ C_ 0.575238 0.177346 0.212531 0.44287
C_ C_ 0.606722 0.148947 0.259299 0.18498
C_ C_ 0.574841 0.106036 0.264156 -0.08735
C_ C_ 0.552144 0.0984579 0.2899 -0.08735
C_ C_ 0.566808 0.129346 0.314646 -0.08735
C_ C_ 0.603954 0.165718 0.310932 0.18498
C_ C_ 0.6212 0.178759 0.283137 -0.05681
C_ C_ 0.64585 0.226452 0.278709 -0.08735
C_ C_ 0.665641 0.249919 0.304098 -0.08735
C_ C_ 0.650487 0.235084 0.330581 0.1947
C_ C_ 0.76682 0.300543 0.155158 0.68181
C_ C_ 0.711309 0.309901 0.151485 -0.05681
C_ C_ 0.679505 0.319347 0.175332 -0.08735
C_ C_ 0.627301 0.325243 0.17205 -0.05681
C_ C_ 0.605248 0.32704 0.144338 -0.05681
C_ C_ 0.637459 0.319341 0.120301 -0.08735
C_ C_ 0.691218 0.320509 0.123789 -0.08735
C_ C_ 0.596204 0.319893 0.196222 -0.08735
C_ C_ 0.544563 0.322045 0.192737 -0.08735
C_ C_ 0.52334 0.323543 0.164973 -0.05681
C_ C_ 0.553685 0.324912 0.140903 -0.08735
C_ C_ 0.861574 0.215192 0.163462 0.68181
C_ C_ 0.860597 0.411813 0.147071 0.68181
C_ C_ 0.864599 0.467916 0.144685 -0.05681
C_ C_ 0.852618 -0.0028730000000000144 0.168698 -0.08735
C_ C_ 0.856659 0.0504762 0.167824 -0.05681
C_ C_ 0.869265 0.0759928 0.141248 -0.05681
C_ C_ 0.878922 0.045416 0.117325 -0.08735
C_ C_ 0.851659 0.491911 0.117989 -0.08735
C_ C_ 0.850323 0.0808808 0.192336 -0.08735
C_ C_ 0.844917 0.132655 0.190398 -0.08735
C_ C_ 0.860263 0.1575 0.165067 -0.05681
C_ C_ 0.877699 0.129175 0.141985 -0.08735
C_ C_ 0.962305 0.320709 0.160264 0.68181
C_ C_ 0.891811 0.369603 0.236213 0.1947
C_ C_ 0.899294 0.390991 0.263757 -0.08735
C_ C_ 0.869822 0.372929 0.287141 -0.08735
C_ C_ 0.84385 0.325983 0.282794 -0.05681
C_ C_ 0.833728 0.308975 0.25326 0.18498
C_ C_ 0.803968 0.265965 0.248466 -0.08735
C_ C_ 0.782716 0.239089 0.271149 -0.08735
C_ C_ 0.794172 0.255183 0.299704 -0.08735
C_ C_ 0.820188 0.300163 0.30659 0.18498
C_ C_ 0.789725 0.321443 0.355029 0.44287
C_ C_ 0.877538 0.309659 0.347052 0.44287
C_ C_ 0.886585 0.313642 0.375835 -0.05681
C_ C_ 0.936372 0.314536 0.386697 -0.08735
C_ C_ 0.946171 0.323297 0.414887 -0.08735
C_ C_ 0.907199 0.326433 0.435628 -0.05681
C_ C_ 0.855401 0.324562 0.424388 -0.05681
C_ C_ 0.845433 0.324089 0.393971 -0.05681
C_ C_ 0.796581 0.327046 0.383499 -0.05681
C_ C_ 0.756281 0.338143 0.402666 -0.08735
C_ C_ 0.765819 0.338398 0.432995 -0.08735
C_ C_ 0.815891 0.335723 0.443829 -0.05681
C_ C_ 0.825079 0.340356 0.472241 0.44287
C_ C_ 0.915748 0.330631 0.466062 0.44287
C_ C_ 0.900293 0.328214 0.00953002 0.18498
C_ C_ 0.9343 0.367175 0.0155602 -0.08735
C_ C_ 0.953074 0.374398 0.0429495 -0.08735
C_ C_ 0.927699 0.352838 0.0659035 -0.08735
C_ C_ 0.887008 0.31833 0.0627202 0.18498
C_ C_ 0.881115 0.300466 0.0347129 -0.05681
C_ C_ 0.852284 0.256263 0.0321097 -0.08735
C_ C_ 0.830884 0.230431 0.0548462 -0.08735
C_ C_ 0.831887 0.255267 0.0811087 0.1947
N_ N_ 0.618564 0.164564 0.479146 -0.29468
N_ N_ 0.652574 0.186971 0.0800293 -0.17154
N_ N_ 0.615208 0.165404 0.230173 -0.17154
N_ N_ 0.621584 0.193319 0.334076 -0.29468
N_ N_ 0.858248 0.330005 0.230583 -0.29468
N_ N_ 0.829018 0.312025 0.336257 -0.17154
N_ N_ 0.874049 0.344765 0.482673 -0.17154
N_ N_ 0.86455 0.294913 0.0859786 -0.29468
O_ O_ 0.692687 0.177579 0.429318 -0.58347
O_ O_ 0.682513 0.191575 0.383416 -0.58347
O_ O_ 0.612752 0.251721 0.435353 -0.58347
O_ O_ 0.600312 0.251755 0.389024 -0.58347
O_ O_ 0.622051 0.10122 0.424449 -0.58347
O_ O_ 0.614259 0.106198 0.376901 -0.58347
O_ O_ 0.545625 0.175982 0.430768 -0.58347
O_ O_ 0.537064 0.165456 0.384695 -0.58347
O_ O_ 0.572546 0.22349 0.0753482 -0.46727
O_ O_ 0.738202 0.1669 0.085502 -0.46727
O_ O_ 0.533199 0.190014 0.22438 -0.46727
O_ O_ 0.699331 0.140031 0.23255 -0.46727
O_ O_ 0.782318 0.306152 0.18055 -0.58347
O_ O_ 0.796486 0.306837 0.13356 -0.58347
O_ O_ 0.860702 0.24315 0.186344 -0.58347
O_ O_ 0.869083 0.236651 0.13918 -0.58347
O_ O_ 0.853729 0.392067 0.171346 -0.58347
O_ O_ 0.867046 0.382483 0.125317 -0.58347
O_ O_ 0.932121 0.320922 0.181187 -0.58347
O_ O_ 0.947202 0.314314 0.135326 -0.58347
O_ O_ 0.914275 0.297033 0.330295 -0.46727
O_ O_ 0.743025 0.328694 0.345175 -0.46727
O_ O_ 0.96145 0.329841 0.477352 -0.46727
O_ O_ 0.787823 0.346195 0.489593 -0.46727
Zn Zn 0.627517 0.187535 0.880551 0.90689
Zn Zn 0.639141 0.173991 0.930251 0.90689
Zn Zn 0.879848 0.315999 0.633999 0.90689
Zn Zn 0.868124 0.316354 0.681515 0.90689
H_ H_ 0.800914 0.180279 0.946943 0.11455
H_ H_ 0.871529 0.171812 0.850023 0.11455
H_ H_ 0.783574 0.156635 0.858835 0.11455
H_ H_ 0.889099 0.177415 0.966457 0.11455
H_ H_ 0.984551 0.183145 0.957469 0.11455
H_ H_ 0.957667 0.161541 0.868245 0.11455
H_ H_ 0.686036 0.0150315 0.931061 0.11455
H_ H_ 0.63636 0.43397 0.84902 0.11455
H_ H_ 0.60743 0.0318846 0.853286 0.11455
H_ H_ 0.631629 0.428558 0.967661 0.11455
H_ H_ 0.636366 0.336567 0.961979 0.11455
H_ H_ 0.644145 0.351329 0.871161 0.11455
H_ H_ 0.598497 0.0905938 0.964823 0.11455
H_ H_ 0.56993 0.070637 0.51864 0.11455
H_ H_ 0.617922 0.115609 0.556575 0.11455
H_ H_ 0.698113 0.244221 0.973152 0.11455
H_ H_ 0.708215 0.301948 0.508266 0.11455
H_ H_ 0.70019 0.275012 0.561411 0.11455
H_ H_ 0.515289 0.202349 0.620312 0.11455
H_ H_ 0.506864 0.181159 0.672942 0.11455
H_ H_ 0.770037 0.180799 0.638565 0.11455
H_ H_ 0.756967 0.163679 0.689249 0.11455
H_ H_ 0.577306 0.0866374 0.74761 0.11455
H_ H_ 0.544141 0.0681022 0.795701 0.11455
H_ H_ 0.574889 0.125133 0.836198 0.11455
H_ H_ 0.659275 0.248516 0.755233 0.11455
H_ H_ 0.704562 0.290524 0.795626 0.11455
H_ H_ 0.689108 0.256541 0.846544 0.11455
H_ H_ 0.704545 0.307304 0.699739 0.11455
H_ H_ 0.632221 0.315844 0.601557 0.11455
H_ H_ 0.725025 0.317259 0.608466 0.11455
H_ H_ 0.622597 0.305531 0.719338 0.11455
H_ H_ 0.528125 0.30058 0.712387 0.11455
H_ H_ 0.549168 0.330997 0.622931 0.11455
H_ H_ 0.8675 0.494084 0.699353 0.11455
H_ H_ 0.850724 0.0694459 0.595339 0.11455
H_ H_ 0.894002 0.475649 0.608021 0.11455
H_ H_ 0.902023 0.0673649 0.708628 0.11455
H_ H_ 0.886867 0.160087 0.707538 0.11455
H_ H_ 0.865855 0.149842 0.616428 0.11455
H_ H_ 0.93562 0.370845 0.717328 0.11455
H_ H_ 0.93042 0.417745 0.763135 0.11455
H_ H_ 0.882977 0.380966 0.803543 0.11455
H_ H_ 0.807197 0.250618 0.723451 0.11455
H_ H_ 0.773658 0.199265 0.764883 0.11455
H_ H_ 0.794159 0.223281 0.814008 0.11455
H_ H_ 0.989679 0.280035 0.870095 0.11455
H_ H_ 0.00640687 0.289179 0.921242 0.11455
H_ H_ 0.743735 0.32375 0.889231 0.11455
H_ H_ 0.750612 0.308324 0.941811 0.11455
H_ H_ 0.955733 0.385837 0.998347 0.11455
H_ H_ 0.945924 0.445277 0.552426 0.11455
H_ H_ 0.929762 0.385631 0.590564 0.11455
H_ H_ 0.845026 0.260429 0.509162 0.11455
H_ H_ 0.812704 0.211369 0.550094 0.11455
H_ H_ 0.819381 0.239835 0.599235 0.11455
C_ C_ 0.730829 0.184572 0.90675 0.68181
C_ C_ 0.786284 0.17118 0.903396 -0.05681
C_ C_ 0.819308 0.170937 0.925854 -0.08735
C_ C_ 0.870814 0.162912 0.922034 -0.05681
C_ C_ 0.890714 0.159489 0.893967 -0.05681
C_ C_ 0.856918 0.164747 0.871318 -0.08735
C_ C_ 0.805064 0.162669 0.876285 -0.08735
C_ C_ 0.904213 0.169461 0.945341 -0.08735
C_ C_ 0.956356 0.17189 0.940656 -0.08735
C_ C_ 0.975542 0.170039 0.912963 -0.05681
C_ C_ 0.94049 0.165484 0.889267 -0.08735
C_ C_ 0.633178 0.278489 0.913266 0.68181
C_ C_ 0.643748 0.0863724 0.897231 0.68181
C_ C_ 0.637071 0.0290099 0.895869 -0.05681
C_ C_ 0.636665 0.493891 0.924555 -0.08735
C_ C_ 0.63266 0.442325 0.921945 -0.05681
C_ C_ 0.634574 0.419538 0.894743 -0.05681
C_ C_ 0.636271 0.450433 0.870348 -0.08735
C_ C_ 0.638954 0.504406 0.872964 -0.08735
C_ C_ 0.629822 0.41094 0.946603 -0.08735
C_ C_ 0.636437 0.359027 0.943064 -0.08735
C_ C_ 0.639396 0.336112 0.915636 -0.05681
C_ C_ 0.640123 0.367513 0.891669 -0.08735
C_ C_ 0.535039 0.175974 0.905024 0.68181
C_ C_ 0.614073 0.112349 0.982261 0.1947
C_ C_ 0.58499 0.106162 0.514018 -0.08735
C_ C_ 0.612242 0.132679 0.536093 -0.08735
C_ C_ 0.639169 0.176399 0.529475 -0.05681
C_ C_ 0.645708 0.190099 0.500016 0.18498
C_ C_ 0.684 0.231055 0.993372 -0.08735
C_ C_ 0.690396 0.267085 0.514391 -0.08735
C_ C_ 0.686336 0.252281 0.544059 -0.08735
C_ C_ 0.661613 0.206042 0.551625 0.18498
C_ C_ 0.693637 0.182583 0.59793 0.44287
C_ C_ 0.607191 0.198799 0.592865 0.44287
C_ C_ 0.598636 0.193024 0.62289 -0.05681
C_ C_ 0.548314 0.19175 0.634205 -0.08735
C_ C_ 0.54404 0.183392 0.66433 -0.08735
C_ C_ 0.584979 0.181066 0.682584 -0.05681
C_ C_ 0.632762 0.171412 0.669455 -0.05681
C_ C_ 0.639543 0.179415 0.64048 -0.05681
C_ C_ 0.689773 0.173749 0.628188 -0.05681
C_ C_ 0.732789 0.171396 0.646541 -0.08735
C_ C_ 0.724019 0.163305 0.675698 -0.08735
C_ C_ 0.6754 0.159589 0.686788 -0.05681
C_ C_ 0.666897 0.152796 0.716148 0.44287
C_ C_ 0.58061 0.181796 0.712306 0.44287
C_ C_ 0.61139 0.158281 0.758806 0.18498
C_ C_ 0.589559 0.110974 0.76464 -0.08735
C_ C_ 0.571392 0.100289 0.792041 -0.08735
C_ C_ 0.590184 0.129606 0.815531 -0.08735
C_ C_ 0.617646 0.173691 0.810566 0.18498
C_ C_ 0.629208 0.187308 0.781266 -0.05681
C_ C_ 0.660465 0.229865 0.776024 -0.08735
C_ C_ 0.680821 0.256787 0.800084 -0.08735
C_ C_ 0.669631 0.240574 0.828475 0.1947
C_ C_ 0.775293 0.31625 0.657588 0.68181
C_ C_ 0.721569 0.314621 0.653796 -0.05681
C_ C_ 0.689808 0.307912 0.678126 -0.08735
C_ C_ 0.637106 0.312034 0.674696 -0.05681
C_ C_ 0.615204 0.313918 0.647137 -0.05681
C_ C_ 0.646099 0.318742 0.623111 -0.08735
C_ C_ 0.700173 0.323431 0.62668 -0.08735
C_ C_ 0.605565 0.31036 0.698474 -0.08735
C_ C_ 0.553016 0.304988 0.693868 -0.08735
C_ C_ 0.531669 0.315334 0.66751 -0.05681
C_ C_ 0.564026 0.323736 0.645233 -0.08735
C_ C_ 0.875527 0.217913 0.659187 0.68181
C_ C_ 0.876443 0.418862 0.655435 0.68181
C_ C_ 0.88081 0.475806 0.653757 -0.05681
C_ C_ 0.870094 0.00240929 0.668191 -0.08735
C_ C_ 0.878491 0.0554924 0.665615 -0.05681
C_ C_ 0.874409 0.0788716 0.639047 -0.05681
C_ C_ 0.857973 0.0515411 0.615605 -0.08735
C_ C_ 0.890158 0.500831 0.626827 -0.08735
C_ C_ 0.892269 0.0863522 0.689681 -0.08735
C_ C_ 0.889617 0.138927 0.68795 -0.08735
C_ C_ 0.880229 0.162676 0.661615 -0.05681
C_ C_ 0.873876 0.13228 0.637626 -0.08735
C_ C_ 0.971786 0.316983 0.656697 0.68181
C_ C_ 0.910576 0.358701 0.734049 0.1947
C_ C_ 0.91468 0.379608 0.761333 -0.08735
C_ C_ 0.886196 0.360439 0.783337 -0.08735
C_ C_ 0.863458 0.313606 0.779196 -0.05681
C_ C_ 0.856983 0.294643 0.750766 0.18498
C_ C_ 0.817473 0.259877 0.74532 -0.08735
C_ C_ 0.797006 0.231852 0.768233 -0.08735
C_ C_ 0.807647 0.246876 0.797537 -0.08735
C_ C_ 0.842226 0.28632 0.802932 0.18498
C_ C_ 0.815532 0.312449 0.849499 0.44287
C_ C_ 0.900952 0.291754 0.842837 0.44287
C_ C_ 0.910938 0.29794 0.871806 -0.05681
C_ C_ 0.960164 0.2915 0.883701 -0.08735
C_ C_ 0.96642 0.288901 0.913741 -0.08735
C_ C_ 0.924224 0.300454 0.931309 -0.05681
C_ C_ 0.876813 0.310689 0.919669 -0.05681
C_ C_ 0.868742 0.30388 0.890303 -0.05681
C_ C_ 0.82035 0.309557 0.879491 -0.05681
C_ C_ 0.779942 0.318607 0.897922 -0.08735
C_ C_ 0.785192 0.313944 0.927996 -0.08735
C_ C_ 0.834352 0.313736 0.93888 -0.05681
C_ C_ 0.842672 0.310822 0.969392 0.44287
C_ C_ 0.93081 0.304152 0.961559 0.44287
C_ C_ 0.882909 0.356393 0.512446 0.18498
C_ C_ 0.911198 0.401629 0.518964 -0.08735
C_ C_ 0.926245 0.411619 0.54651 -0.08735
C_ C_ 0.913551 0.377088 0.568809 -0.08735
C_ C_ 0.884336 0.333223 0.564261 0.18498
C_ C_ 0.871987 0.320977 0.535317 -0.05681
C_ C_ 0.84756 0.27621 0.530396 -0.08735
C_ C_ 0.82808 0.247343 0.553682 -0.08735
C_ C_ 0.837398 0.263564 0.581928 0.1947
N_ N_ 0.639311 0.156836 0.976912 -0.29468
N_ N_ 0.653283 0.192635 0.581194 -0.17154
N_ N_ 0.621737 0.167311 0.729069 -0.17154
N_ N_ 0.639527 0.200421 0.833613 -0.29468
N_ N_ 0.87677 0.321476 0.728186 -0.29468
N_ N_ 0.853131 0.300129 0.832551 -0.17154
N_ N_ 0.891076 0.314185 0.979428 -0.17154
N_ N_ 0.863768 0.306537 0.587168 -0.29468
O_ O_ 0.711917 0.181997 0.931258 -0.58347
O_ O_ 0.703279 0.188908 0.884613 -0.58347
O_ O_ 0.631635 0.250635 0.935434 -0.58347
O_ O_ 0.632407 0.260024 0.887857 -0.58347
O_ O_ 0.649497 0.105194 0.921923 -0.58347
O_ O_ 0.627507 0.113657 0.877073 -0.58347
O_ O_ 0.56337 0.165088 0.926049 -0.58347
O_ O_ 0.552859 0.18919 0.881333 -0.58347
O_ O_ 0.568543 0.211085 0.57614 -0.46727
O_ O_ 0.740481 0.178706 0.586001 -0.46727
O_ O_ 0.53507 0.181356 0.724527 -0.46727
O_ O_ 0.706031 0.146667 0.732698 -0.46727
O_ O_ 0.795058 0.328399 0.681409 -0.58347
O_ O_ 0.804576 0.305499 0.637206 -0.58347
O_ O_ 0.858753 0.241779 0.680682 -0.58347
O_ O_ 0.887302 0.243818 0.636564 -0.58347
O_ O_ 0.877063 0.395383 0.679332 -0.58347
O_ O_ 0.875711 0.394428 0.63258 -0.58347
O_ O_ 0.943592 0.309133 0.678999 -0.58347
O_ O_ 0.954589 0.319752 0.63109 -0.58347
O_ O_ 0.937721 0.279333 0.824851 -0.46727
O_ O_ 0.769547 0.317703 0.838061 -0.46727
O_ O_ 0.976548 0.296263 0.971958 -0.46727
O_ O_ 0.803349 0.315738 0.988148 -0.46727
Zn Zn 0.631042 0.680679 0.380129 0.90689
Zn Zn 0.638715 0.676908 0.426975 0.90689
Zn Zn 0.876947 0.809704 0.129609 0.90689
Zn Zn 0.871658 0.818032 0.177535 0.90689
H_ H_ 0.804823 0.684714 0.444233 0.11455
H_ H_ 0.877331 0.649284 0.34725 0.11455
H_ H_ 0.785526 0.645808 0.355391 0.11455
H_ H_ 0.893514 0.69134 0.461897 0.11455
H_ H_ 0.985307 0.67818 0.454431 0.11455
H_ H_ 0.959267 0.686833 0.36125 0.11455
H_ H_ 0.65277 0.504916 0.442502 0.11455
H_ H_ 0.653637 0.927659 0.352453 0.11455
H_ H_ 0.649133 0.517856 0.35261 0.11455
H_ H_ 0.586998 0.928882 0.464091 0.11455
H_ H_ 0.609433 0.838203 0.460908 0.11455
H_ H_ 0.624021 0.847939 0.369039 0.11455
H_ H_ 0.573651 0.611667 0.458805 0.11455
H_ H_ 0.558382 0.5888 0.0125366 0.11455
H_ H_ 0.593963 0.639346 0.053387 0.11455
H_ H_ 0.687082 0.744894 0.473649 0.11455
H_ H_ 0.727735 0.80057 0.00654039 0.11455
H_ H_ 0.705358 0.782669 0.0583208 0.11455
H_ H_ 0.520077 0.708661 0.119477 0.11455
H_ H_ 0.508096 0.695003 0.174725 0.11455
H_ H_ 0.772432 0.679643 0.135731 0.11455
H_ H_ 0.762151 0.677606 0.187566 0.11455
H_ H_ 0.56236 0.591781 0.243636 0.11455
H_ H_ 0.555483 0.553911 0.292405 0.11455
H_ H_ 0.583315 0.602379 0.334709 0.11455
H_ H_ 0.672327 0.737556 0.257671 0.11455
H_ H_ 0.692061 0.790583 0.302516 0.11455
H_ H_ 0.681688 0.751694 0.349728 0.11455
H_ H_ 0.708632 0.816975 0.192301 0.11455
H_ H_ 0.63421 0.831856 0.0959237 0.11455
H_ H_ 0.724188 0.824148 0.10173 0.11455
H_ H_ 0.62181 0.809015 0.212325 0.11455
H_ H_ 0.5328 0.806712 0.209294 0.11455
H_ H_ 0.545127 0.823589 0.117814 0.11455
H_ H_ 0.841799 0.977353 0.188055 0.11455
H_ H_ 0.854071 0.559771 0.0934036 0.11455
H_ H_ 0.887864 0.974143 0.098252 0.11455
H_ H_ 0.914391 0.560681 0.208307 0.11455
H_ H_ 0.911326 0.652124 0.205939 0.11455
H_ H_ 0.860687 0.644274 0.118017 0.11455
H_ H_ 0.922543 0.890996 0.210443 0.11455
H_ H_ 0.945412 0.915272 0.2596 0.11455
H_ H_ 0.907256 0.873966 0.302057 0.11455
H_ H_ 0.81131 0.74693 0.223142 0.11455
H_ H_ 0.784033 0.693395 0.26453 0.11455
H_ H_ 0.795416 0.73065 0.313923 0.11455
H_ H_ 0.996033 0.787798 0.370873 0.11455
H_ H_ 0.00538658 0.787787 0.422388 0.11455
H_ H_ 0.741328 0.827188 0.386629 0.11455
H_ H_ 0.756723 0.813027 0.437427 0.11455
H_ H_ 0.945302 0.899342 0.495731 0.11455
H_ H_ 0.970063 0.931914 0.0498147 0.11455
H_ H_ 0.941409 0.873744 0.0877128 0.11455
H_ H_ 0.843454 0.75843 0.00476897 0.11455
H_ H_ 0.821066 0.703167 0.0454329 0.11455
H_ H_ 0.825385 0.738232 0.0944312 0.11455
C_ C_ 0.735205 0.677989 0.402201 0.68181
C_ C_ 0.788382 0.675876 0.398948 -0.05681
C_ C_ 0.821779 0.67788 0.422963 -0.08735
C_ C_ 0.874955 0.6801 0.417932 -0.05681
C_ C_ 0.8947 0.674174 0.389888 -0.05681
C_ C_ 0.861258 0.665287 0.367359 -0.08735
C_ C_ 0.809599 0.661323 0.371927 -0.08735
C_ C_ 0.906969 0.683806 0.441446 -0.08735
C_ C_ 0.96042 0.680645 0.436496 -0.08735
C_ C_ 0.979792 0.677606 0.407969 -0.05681
C_ C_ 0.945903 0.675575 0.383892 -0.08735
C_ C_ 0.622565 0.777001 0.413493 0.68181
C_ C_ 0.643131 0.575807 0.39903 0.68181
C_ C_ 0.637021 0.520036 0.396729 -0.05681
C_ C_ 0.603282 0.993515 0.41946 -0.08735
C_ C_ 0.606236 0.94133 0.418989 -0.05681
C_ C_ 0.620503 0.917111 0.392845 -0.05681
C_ C_ 0.638255 0.946893 0.371051 -0.08735
C_ C_ 0.634694 0.999061 0.370993 -0.08735
C_ C_ 0.600518 0.911672 0.443422 -0.08735
C_ C_ 0.610045 0.860219 0.441626 -0.08735
C_ C_ 0.618225 0.834605 0.415381 -0.05681
C_ C_ 0.620495 0.86339 0.389846 -0.08735
C_ C_ 0.535344 0.679959 0.401385 0.68181
C_ C_ 0.592968 0.628392 0.47781 0.1947
C_ C_ 0.584478 0.618133 0.00985761 -0.08735
C_ C_ 0.610429 0.643996 0.0328889 -0.08735
C_ C_ 0.644631 0.684589 0.0275252 -0.05681
C_ C_ 0.660964 0.690589 0.999153 0.18498
C_ C_ 0.677998 0.735279 0.494869 -0.08735
C_ C_ 0.704452 0.766714 0.0137625 -0.08735
C_ C_ 0.693478 0.758606 0.0425215 -0.08735
C_ C_ 0.66228 0.717094 0.0497598 0.18498
C_ C_ 0.697886 0.692496 0.0965047 0.44287
C_ C_ 0.610107 0.712364 0.0925074 0.44287
C_ C_ 0.60161 0.700683 0.121199 -0.05681
C_ C_ 0.553053 0.697524 0.133195 -0.08735
C_ C_ 0.545466 0.692215 0.162986 -0.08735
C_ C_ 0.588698 0.68064 0.180118 -0.05681
C_ C_ 0.637244 0.687048 0.168988 -0.05681
C_ C_ 0.644345 0.69215 0.138413 -0.05681
C_ C_ 0.692206 0.688242 0.125564 -0.05681
C_ C_ 0.733438 0.680408 0.143433 -0.08735
C_ C_ 0.728818 0.677265 0.174231 -0.08735
C_ C_ 0.679522 0.675825 0.187083 -0.05681
C_ C_ 0.670647 0.660865 0.215493 0.44287
C_ C_ 0.584571 0.681225 0.210557 0.44287
C_ C_ 0.616473 0.649687 0.257497 0.18498
C_ C_ 0.58404 0.607725 0.262087 -0.08735
C_ C_ 0.575866 0.589439 0.290719 -0.08735
C_ C_ 0.594921 0.616269 0.314319 -0.08735
C_ C_ 0.627087 0.65908 0.310318 0.18498
C_ C_ 0.635535 0.678478 0.280927 -0.05681
C_ C_ 0.659574 0.726306 0.278635 -0.08735
C_ C_ 0.673685 0.754593 0.304303 -0.08735
C_ C_ 0.665576 0.73142 0.331017 0.1947
C_ C_ 0.777947 0.811615 0.150976 0.68181
C_ C_ 0.72318 0.817976 0.147456 -0.05681
C_ C_ 0.690425 0.818265 0.171209 -0.08735
C_ C_ 0.637092 0.814377 0.167743 -0.05681
C_ C_ 0.616353 0.820286 0.140184 -0.05681
C_ C_ 0.648309 0.824072 0.116798 -0.08735
C_ C_ 0.701127 0.820601 0.120148 -0.08735
C_ C_ 0.605925 0.816953 0.191637 -0.08735
C_ C_ 0.5555 0.81081 0.18907 -0.08735
C_ C_ 0.532409 0.817368 0.161424 -0.05681
C_ C_ 0.564116 0.817661 0.137184 -0.08735
C_ C_ 0.882393 0.715397 0.159915 0.68181
C_ C_ 0.86894 0.912244 0.146521 0.68181
C_ C_ 0.864392 0.968485 0.143612 -0.05681
C_ C_ 0.879585 0.498009 0.168738 -0.08735
C_ C_ 0.883095 0.550531 0.165792 -0.05681
C_ C_ 0.871698 0.573522 0.139407 -0.05681
C_ C_ 0.859999 0.543742 0.114807 -0.08735
C_ C_ 0.875962 0.99289 0.117686 -0.08735
C_ C_ 0.902915 0.578119 0.187835 -0.08735
C_ C_ 0.896305 0.630455 0.188334 -0.08735
C_ C_ 0.884144 0.657267 0.162078 -0.05681
C_ C_ 0.872918 0.626868 0.137786 -0.08735
C_ C_ 0.97249 0.810238 0.157801 0.68181
C_ C_ 0.907035 0.868849 0.228938 0.1947
C_ C_ 0.91791 0.885249 0.256335 -0.08735
C_ C_ 0.898763 0.85987 0.280832 -0.08735
C_ C_ 0.870491 0.814477 0.276888 -0.05681
C_ C_ 0.857386 0.800543 0.248156 0.18498
C_ C_ 0.818092 0.76248 0.244873 -0.08735
C_ C_ 0.802676 0.733332 0.267911 -0.08735
C_ C_ 0.817268 0.746688 0.295786 -0.08735
C_ C_ 0.848616 0.788861 0.300438 0.18498
C_ C_ 0.820572 0.819993 0.344602 0.44287
C_ C_ 0.906122 0.799141 0.34106 0.44287
C_ C_ 0.915304 0.806712 0.36997 -0.05681
C_ C_ 0.962048 0.797241 0.383749 -0.08735
C_ C_ 0.969114 0.797439 0.413551 -0.08735
C_ C_ 0.92769 0.809619 0.430938 -0.05681
C_ C_ 0.881561 0.821916 0.417958 -0.05681
C_ C_ 0.873716 0.818928 0.387991 -0.05681
C_ C_ 0.824079 0.822524 0.375561 -0.05681
C_ C_ 0.78062 0.827952 0.394546 -0.08735
C_ C_ 0.787968 0.825759 0.423705 -0.08735
C_ C_ 0.837652 0.827674 0.436164 -0.05681
C_ C_ 0.84362 0.833003 0.465277 0.44287
C_ C_ 0.930787 0.8096 0.460878 0.44287
C_ C_ 0.907451 0.844973 0.00880123 0.18498
C_ C_ 0.93251 0.889274 0.0161672 -0.08735
C_ C_ 0.947108 0.899106 0.044376 -0.08735
C_ C_ 0.93068 0.866581 0.0657617 -0.08735
C_ C_ 0.898864 0.825973 0.0607323 0.18498
C_ C_ 0.887367 0.81316 0.0313118 -0.05681
C_ C_ 0.852271 0.772216 0.0261023 -0.08735
C_ C_ 0.836362 0.741169 0.0496936 -0.08735
C_ C_ 0.843544 0.759663 0.0770731 0.1947
N_ N_ 0.625437 0.669167 0.474338 -0.29468
N_ N_ 0.656814 0.706574 0.0802651 -0.17154
N_ N_ 0.624805 0.667468 0.228122 -0.17154
N_ N_ 0.639533 0.688812 0.333863 -0.29468
N_ N_ 0.877218 0.827229 0.225287 -0.29468
N_ N_ 0.860561 0.806549 0.328355 -0.17154
N_ N_ 0.889767 0.822673 0.477532 -0.17154
N_ N_ 0.876331 0.800008 0.0823659 -0.29468
O_ O_ 0.715592 0.676529 0.427734 -0.58347
O_ O_ 0.70801 0.685708 0.380801 -0.58347
O_ O_ 0.638445 0.751062 0.434001 -0.58347
O_ O_ 0.622051 0.755404 0.389338 -0.58347
O_ O_ 0.638677 0.596103 0.422355 -0.58347
O_ O_ 0.644234 0.603738 0.37725 -0.58347
O_ O_ 0.563718 0.672842 0.423756 -0.58347
O_ O_ 0.553804 0.674789 0.376794 -0.58347
O_ O_ 0.575629 0.734269 0.0773333 -0.46727
O_ O_ 0.739897 0.683789 0.0834881 -0.46727
O_ O_ 0.544292 0.697372 0.223134 -0.46727
O_ O_ 0.712048 0.64397 0.229704 -0.46727
O_ O_ 0.79768 0.811395 0.176836 -0.58347
O_ O_ 0.805021 0.808315 0.128745 -0.58347
O_ O_ 0.878272 0.740686 0.181784 -0.58347
O_ O_ 0.880672 0.737128 0.136296 -0.58347
O_ O_ 0.859855 0.891597 0.171259 -0.58347
O_ O_ 0.874434 0.88391 0.124467 -0.58347
O_ O_ 0.944891 0.824815 0.178437 -0.58347
O_ O_ 0.954139 0.808226 0.132921 -0.58347
O_ O_ 0.944606 0.782221 0.325429 -0.46727
O_ O_ 0.775605 0.827078 0.332383 -0.46727
O_ O_ 0.976379 0.800507 0.472302 -0.46727
O_ O_ 0.804372 0.845924 0.479967 -0.46727
Zn Zn 0.63707 0.685674 0.880808 0.90689
Zn Zn 0.648133 0.675577 0.928249 0.90689
Zn Zn 0.873987 0.814129 0.632307 0.90689
Zn Zn 0.86405 0.821063 0.679004 0.90689
H_ H_ 0.81689 0.683446 0.945283 0.11455
H_ H_ 0.880134 0.676395 0.846447 0.11455
H_ H_ 0.790029 0.682165 0.856324 0.11455
H_ H_ 0.90421 0.680205 0.964988 0.11455
H_ H_ 0.989837 0.691469 0.956662 0.11455
H_ H_ 0.964578 0.674713 0.864655 0.11455
H_ H_ 0.627493 0.514381 0.944215 0.11455
H_ H_ 0.606752 0.939933 0.846549 0.11455
H_ H_ 0.639858 0.528992 0.85432 0.11455
H_ H_ 0.679783 0.928356 0.957195 0.11455
H_ H_ 0.669232 0.836144 0.953082 0.11455
H_ H_ 0.600791 0.856114 0.868252 0.11455
H_ H_ 0.582945 0.609389 0.964701 0.11455
H_ H_ 0.551918 0.580579 0.505395 0.11455
H_ H_ 0.584338 0.622708 0.549416 0.11455
H_ H_ 0.707964 0.735743 0.971149 0.11455
H_ H_ 0.71738 0.795657 0.514596 0.11455
H_ H_ 0.701395 0.766421 0.562701 0.11455
H_ H_ 0.502052 0.703102 0.621723 0.11455
H_ H_ 0.496607 0.708032 0.675956 0.11455
H_ H_ 0.745965 0.635605 0.631806 0.11455
H_ H_ 0.746813 0.649573 0.684109 0.11455
H_ H_ 0.575812 0.58615 0.74815 0.11455
H_ H_ 0.548509 0.565075 0.79741 0.11455
H_ H_ 0.581214 0.613161 0.836454 0.11455
H_ H_ 0.64917 0.751698 0.758398 0.11455
H_ H_ 0.699896 0.791649 0.798456 0.11455
H_ H_ 0.691554 0.751232 0.846289 0.11455
H_ H_ 0.693831 0.81535 0.698674 0.11455
H_ H_ 0.623651 0.821427 0.600863 0.11455
H_ H_ 0.70938 0.816973 0.604621 0.11455
H_ H_ 0.607375 0.828485 0.717094 0.11455
H_ H_ 0.515867 0.828702 0.710512 0.11455
H_ H_ 0.535527 0.822615 0.619798 0.11455
H_ H_ 0.872894 0.983394 0.688209 0.11455
H_ H_ 0.908243 0.571615 0.602539 0.11455
H_ H_ 0.8541 0.977944 0.596986 0.11455
H_ H_ 0.874245 0.576734 0.720095 0.11455
H_ H_ 0.876827 0.666371 0.714205 0.11455
H_ H_ 0.908176 0.651907 0.62704 0.11455
H_ H_ 0.904865 0.903931 0.713443 0.11455
H_ H_ 0.922018 0.928605 0.761347 0.11455
H_ H_ 0.898095 0.876024 0.803159 0.11455
H_ H_ 0.792748 0.759224 0.720276 0.11455
H_ H_ 0.771287 0.705225 0.762147 0.11455
H_ H_ 0.815495 0.718797 0.809476 0.11455
H_ H_ 0.996145 0.787815 0.870333 0.11455
H_ H_ 1.00895509 0.797547 0.921507 0.11455
H_ H_ 0.745106 0.824792 0.890171 0.11455
H_ H_ 0.762522 0.846881 0.938091 0.11455
H_ H_ 0.946261 0.91522 0.999516 0.11455
H_ H_ 0.977669 0.91381 0.545655 0.11455
H_ H_ 0.936816 0.870808 0.588872 0.11455
H_ H_ 0.841152 0.752042 0.504977 0.11455
H_ H_ 0.810238 0.702188 0.549328 0.11455
H_ H_ 0.825379 0.735208 0.596537 0.11455
C_ C_ 0.739986 0.684686 0.90476 0.68181
C_ C_ 0.795603 0.690327 0.902136 -0.05681
C_ C_ 0.829202 0.676506 0.923921 -0.08735
C_ C_ 0.882374 0.674548 0.919097 -0.05681
C_ C_ 0.899917 0.672879 0.89104 -0.05681
C_ C_ 0.865927 0.676153 0.867611 -0.08735
C_ C_ 0.815475 0.68625 0.874074 -0.08735
C_ C_ 0.916371 0.674825 0.94237 -0.08735
C_ C_ 0.969862 0.677537 0.938164 -0.08735
C_ C_ 0.988045 0.677538 0.909317 -0.05681
C_ C_ 0.951904 0.67318 0.886582 -0.08735
C_ C_ 0.634562 0.780166 0.907387 0.68181
C_ C_ 0.646253 0.581381 0.902946 0.68181
C_ C_ 0.646228 0.524265 0.899807 -0.05681
C_ C_ 0.657342 -0.002681999999999962 0.916487 -0.08735
C_ C_ 0.653496 0.943621 0.913868 -0.05681
C_ C_ 0.626858 0.922244 0.889649 -0.05681
C_ C_ 0.613684 0.954753 0.867606 -0.08735
C_ C_ 0.619366 0.00666409 0.870375 -0.08735
C_ C_ 0.662591 0.911726 0.93805 -0.08735
C_ C_ 0.660481 0.85845 0.934603 -0.08735
C_ C_ 0.63621 0.836702 0.910592 -0.05681
C_ C_ 0.617973 0.869233 0.888642 -0.08735
C_ C_ 0.544643 0.681248 0.907577 0.68181
C_ C_ 0.599843 0.629533 0.982139 0.1947
C_ C_ 0.580188 0.610267 0.504427 -0.08735
C_ C_ 0.595252 0.636169 0.529418 -0.08735
C_ C_ 0.630525 0.676267 0.52605 -0.05681
C_ C_ 0.641601 0.695705 0.498065 0.18498
C_ C_ 0.69251 0.731808 0.99329 -0.08735
C_ C_ 0.697571 0.760252 0.518013 -0.08735
C_ C_ 0.684305 0.744332 0.545746 -0.08735
C_ C_ 0.65197 0.703147 0.550377 0.18498
C_ C_ 0.679046 0.67415 0.596089 0.44287
C_ C_ 0.593049 0.702093 0.591481 0.44287
C_ C_ 0.585938 0.697306 0.622385 -0.05681
C_ C_ 0.537612 0.700071 0.635841 -0.08735
C_ C_ 0.534723 0.702118 0.665891 -0.08735
C_ C_ 0.578293 0.693375 0.683391 -0.05681
C_ C_ 0.625989 0.680692 0.669748 -0.05681
C_ C_ 0.631121 0.686265 0.638608 -0.05681
C_ C_ 0.673574 0.667235 0.625567 -0.05681
C_ C_ 0.712448 0.652562 0.642651 -0.08735
C_ C_ 0.710782 0.652 0.672199 -0.08735
C_ C_ 0.665213 0.662261 0.686496 -0.05681
C_ C_ 0.660316 0.661301 0.716708 0.44287
C_ C_ 0.573882 0.690952 0.713184 0.44287
C_ C_ 0.606046 0.65807 0.758747 0.18498
C_ C_ 0.57695 0.613901 0.764312 -0.08735
C_ C_ 0.571593 0.597995 0.792129 -0.08735
C_ C_ 0.595002 0.623233 0.815045 -0.08735
C_ C_ 0.622058 0.668568 0.810841 0.18498
C_ C_ 0.630687 0.685133 0.782036 -0.05681
C_ C_ 0.651881 0.734125 0.779249 -0.08735
C_ C_ 0.679352 0.754957 0.802027 -0.08735
C_ C_ 0.66914 0.736171 0.829164 0.1947
C_ C_ 0.767706 0.812559 0.656335 0.68181
C_ C_ 0.711645 0.810004 0.653711 -0.05681
C_ C_ 0.678843 0.817445 0.677486 -0.08735
C_ C_ 0.625492 0.821902 0.672482 -0.05681
C_ C_ 0.603077 0.820701 0.645192 -0.05681
C_ C_ 0.635689 0.812172 0.622174 -0.08735
C_ C_ 0.687692 0.812727 0.624775 -0.08735
C_ C_ 0.591347 0.821832 0.696785 -0.08735
C_ C_ 0.538558 0.823226 0.691974 -0.08735
C_ C_ 0.518307 0.821232 0.664317 -0.05681
C_ C_ 0.550183 0.820682 0.641272 -0.08735
C_ C_ 0.879346 0.723589 0.666845 0.68181
C_ C_ 0.868721 0.913931 0.644627 0.68181
C_ C_ 0.8648 0.972671 0.643727 -0.05681
C_ C_ 0.880085 0.50802 0.678349 -0.08735
C_ C_ 0.877639 0.559529 0.674878 -0.05681
C_ C_ 0.893574 0.583647 0.648392 -0.05681
C_ C_ 0.898263 0.554039 0.62358 -0.08735
C_ C_ 0.858445 0.998949 0.617415 -0.08735
C_ C_ 0.87198 0.591369 0.698947 -0.08735
C_ C_ 0.869758 0.643617 0.69568 -0.08735
C_ C_ 0.87578 0.666993 0.668117 -0.05681
C_ C_ 0.894024 0.635683 0.646603 -0.08735
C_ C_ 0.965995 0.821898 0.656001 0.68181
C_ C_ 0.882541 0.885549 0.730448 0.1947
C_ C_ 0.898609 0.895752 0.758711 -0.08735
C_ C_ 0.881099 0.86839 0.782228 -0.08735
C_ C_ 0.858576 0.821547 0.777314 -0.05681
C_ C_ 0.843773 0.810041 0.747844 0.18498
C_ C_ 0.809802 0.768297 0.742801 -0.08735
C_ C_ 0.797609 0.733597 0.765071 -0.08735
C_ C_ 0.816588 0.74617 0.793291 -0.08735
C_ C_ 0.844404 0.789896 0.799878 0.18498
C_ C_ 0.817013 0.815505 0.848199 0.44287
C_ C_ 0.903374 0.796521 0.841156 0.44287
C_ C_ 0.913478 0.802711 0.871421 -0.05681
C_ C_ 0.964522 0.802201 0.882098 -0.08735
C_ C_ 0.972322 0.806162 0.912086 -0.08735
C_ C_ 0.932306 0.814866 0.931623 -0.05681
C_ C_ 0.882537 0.812968 0.920752 -0.05681
C_ C_ 0.872577 0.809264 0.890433 -0.05681
C_ C_ 0.824317 0.81454 0.878776 -0.05681
C_ C_ 0.784153 0.819783 0.89785 -0.08735
C_ C_ 0.792474 0.829359 0.926559 -0.08735
C_ C_ 0.842112 0.827461 0.938873 -0.05681
C_ C_ 0.852316 0.83517 0.967099 0.44287
C_ C_ 0.940348 0.821615 0.962164 0.44287
C_ C_ 0.896858 0.838151 0.508052 0.18498
C_ C_ 0.929213 0.879085 0.514812 -0.08735
C_ C_ 0.945544 0.88874 0.543424 -0.08735
C_ C_ 0.923475 0.862582 0.567008 -0.08735
C_ C_ 0.888067 0.82428 0.562079 0.18498
C_ C_ 0.878111 0.808001 0.532684 -0.05681
C_ C_ 0.848848 0.76343 0.527478 -0.08735
C_ C_ 0.833351 0.73688 0.551298 -0.08735
C_ C_ 0.841054 0.754807 0.578967 0.1947
N_ N_ 0.639148 0.663726 0.976189 -0.29468
N_ N_ 0.640842 0.691441 0.579572 -0.17154
N_ N_ 0.614642 0.672879 0.729303 -0.17154
N_ N_ 0.644323 0.691494 0.83363 -0.29468
N_ N_ 0.861015 0.839426 0.725456 -0.29468
N_ N_ 0.854401 0.801837 0.830623 -0.17154
N_ N_ 0.900075 0.831463 0.978756 -0.17154
N_ N_ 0.871129 0.79744 0.584836 -0.29468
O_ O_ 0.723214 0.669015 0.928622 -0.58347
O_ O_ 0.710538 0.6982 0.885319 -0.58347
O_ O_ 0.64763 0.754025 0.928201 -0.58347
O_ O_ 0.621045 0.759845 0.884285 -0.58347
O_ O_ 0.644211 0.602261 0.927303 -0.58347
O_ O_ 0.649407 0.60975 0.881024 -0.58347
O_ O_ 0.570845 0.682121 0.929392 -0.58347
O_ O_ 0.564052 0.669367 0.882526 -0.58347
O_ O_ 0.557621 0.721471 0.575863 -0.46727
O_ O_ 0.720822 0.656633 0.584085 -0.46727
O_ O_ 0.531788 0.704332 0.726136 -0.46727
O_ O_ 0.700339 0.646674 0.731593 -0.46727
O_ O_ 0.787789 0.822934 0.680462 -0.58347
O_ O_ 0.79379 0.81391 0.634293 -0.58347
O_ O_ 0.872844 0.749936 0.689546 -0.58347
O_ O_ 0.884906 0.744976 0.643335 -0.58347
O_ O_ 0.866667 0.894527 0.668995 -0.58347
O_ O_ 0.873075 0.886459 0.622856 -0.58347
O_ O_ 0.939032 0.825401 0.678453 -0.58347
O_ O_ 0.947828 0.814129 0.631304 -0.58347
O_ O_ 0.940279 0.783743 0.824358 -0.46727
O_ O_ 0.769211 0.82132 0.838748 -0.46727
O_ O_ 0.986058 0.825514 0.972853 -0.46727
O_ O_ 0.815545 0.853024 0.984485 -0.46727
