_cell_length_a 26.376
_cell_length_b 26.400000238300095
_cell_length_c 46.67800035477134
_cell_angle_alpha 90.00700052986613
_cell_angle_beta 89.99899961309502
_cell_angle_gamma 90.45000003183146
_symmetry_space_group_name_H-M         'P 1'
_symmetry_Int_Tables_number            1
loop_
_symmetry_equiv_pos_as_xyz
   'x, y, z'
                         
loop_
_atom_site_label
_atom_site_type_symbol
_atom_site_fract_x 
_atom_site_fract_y
_atom_site_fract_z
_atom_site_charge
Zn Zn 0.114792 0.189285 0.381757 0.90689
Zn Zn 0.12382 0.177171 0.429067 0.90689
Zn Zn 0.367328 0.309032 0.133201 0.90689
Zn Zn 0.356781 0.316863 0.180726 0.90689
H_ H_ 0.294177 0.210112 0.44231 0.11455
H_ H_ 0.35813 0.14525 0.347969 0.11455
H_ H_ 0.269668 0.171501 0.352337 0.11455
H_ H_ 0.381843 0.204769 0.460933 0.11455
H_ H_ 0.471893 0.188844 0.456305 0.11455
H_ H_ 0.451165 0.157847 0.366672 0.11455
H_ H_ 0.122385 0.0161264 0.442872 0.11455
H_ H_ 0.107467 0.433845 0.348565 0.11455
H_ H_ 0.142836 0.0270206 0.35021 0.11455
H_ H_ 0.124869 0.428436 0.465443 0.11455
H_ H_ 0.114468 0.337289 0.460179 0.11455
H_ H_ 0.092368 0.350207 0.369465 0.11455
H_ H_ 0.0634465 0.110173 0.469285 0.11455
H_ H_ 0.0710506 0.0643813 0.0118066 0.11455
H_ H_ 0.109497 0.10696 0.0553541 0.11455
H_ H_ 0.187495 0.232826 0.468424 0.11455
H_ H_ 0.214607 0.296653 0.0167271 0.11455
H_ H_ 0.199826 0.268209 0.066637 0.11455
H_ H_ 0.0141646 0.195495 0.12236 0.11455
H_ H_ 0.00432345 0.197678 0.175606 0.11455
H_ H_ 0.263985 0.160116 0.13969 0.11455
H_ H_ 0.252132 0.157778 0.192606 0.11455
H_ H_ 0.0621889 0.084626 0.25044 0.11455
H_ H_ 0.0359215 0.0632519 0.299735 0.11455
H_ H_ 0.0743995 0.115742 0.339188 0.11455
H_ H_ 0.148963 0.242383 0.253624 0.11455
H_ H_ 0.185262 0.293526 0.293503 0.11455
H_ H_ 0.168549 0.266337 0.344721 0.11455
H_ H_ 0.190941 0.30964 0.197929 0.11455
H_ H_ 0.122724 0.330629 0.0995448 0.11455
H_ H_ 0.214093 0.334137 0.108505 0.11455
H_ H_ 0.102087 0.298264 0.21757 0.11455
H_ H_ 0.0167539 0.278262 0.205282 0.11455
H_ H_ 0.0388742 0.307281 0.116934 0.11455
H_ H_ 0.339028 0.484676 0.191199 0.11455
H_ H_ 0.37282 0.0629927 0.0982254 0.11455
H_ H_ 0.394169 0.472694 0.104526 0.11455
H_ H_ 0.358779 0.0591339 0.21627 0.11455
H_ H_ 0.362961 0.155457 0.215606 0.11455
H_ H_ 0.370519 0.144853 0.121828 0.11455
H_ H_ 0.405736 0.391356 0.218324 0.11455
H_ H_ 0.430885 0.411533 0.265531 0.11455
H_ H_ 0.39102 0.369935 0.307226 0.11455
H_ H_ 0.297289 0.249851 0.228038 0.11455
H_ H_ 0.268178 0.198173 0.266336 0.11455
H_ H_ 0.311554 0.209597 0.315229 0.11455
H_ H_ 0.490356 0.282214 0.379344 0.11455
H_ H_ 0.493108 0.284282 0.429799 0.11455
H_ H_ 0.241397 0.333482 0.388736 0.11455
H_ H_ 0.251221 0.349135 0.438204 0.11455
H_ H_ 0.436841 0.411576 0.49787 0.11455
H_ H_ 0.466136 0.422548 0.0499564 0.11455
H_ H_ 0.434626 0.370817 0.0903656 0.11455
H_ H_ 0.323637 0.264979 0.0094798 0.11455
H_ H_ 0.291107 0.216058 0.0490099 0.11455
H_ H_ 0.310695 0.242041 0.0990345 0.11455
C_ C_ 0.217745 0.191274 0.402099 0.68181
C_ C_ 0.275005 0.189517 0.397845 -0.05681
C_ C_ 0.30778 0.194803 0.422391 -0.08735
C_ C_ 0.360436 0.185506 0.418271 -0.05681
C_ C_ 0.380449 0.170844 0.391532 -0.05681
C_ C_ 0.344637 0.161241 0.368074 -0.08735
C_ C_ 0.29434 0.17463 0.370781 -0.08735
C_ C_ 0.394806 0.192261 0.440941 -0.08735
C_ C_ 0.447024 0.181112 0.437654 -0.08735
C_ C_ 0.465901 0.172008 0.409682 -0.05681
C_ C_ 0.432872 0.164162 0.387197 -0.08735
C_ C_ 0.105054 0.279979 0.412329 0.68181
C_ C_ 0.132894 0.0847169 0.400562 0.68181
C_ C_ 0.125673 0.0276661 0.396998 -0.05681
C_ C_ 0.122191 0.495303 0.423622 -0.08735
C_ C_ 0.11967 0.442486 0.42054 -0.05681
C_ C_ 0.113168 0.42088 0.392966 -0.05681
C_ C_ 0.114558 0.451896 0.368409 -0.08735
C_ C_ 0.124523 0.502872 0.370871 -0.08735
C_ C_ 0.119501 0.411691 0.444368 -0.08735
C_ C_ 0.117755 0.359981 0.441059 -0.08735
C_ C_ 0.11119 0.335893 0.414753 -0.05681
C_ C_ 0.106459 0.366708 0.390337 -0.08735
C_ C_ 0.0205852 0.173009 0.403786 0.68181
C_ C_ 0.089083 0.1261 0.484827 0.1947
C_ C_ 0.0884852 0.101561 0.0114362 -0.08735
C_ C_ 0.113657 0.12445 0.0338016 -0.08735
C_ C_ 0.138916 0.169945 0.0307247 -0.05681
C_ C_ 0.146105 0.188589 1.00165652 0.18498
C_ C_ 0.183827 0.22699 0.491774 -0.08735
C_ C_ 0.194414 0.259269 0.0206219 -0.08735
C_ C_ 0.183261 0.24558 0.048071 -0.08735
C_ C_ 0.156937 0.1995 0.0536595 0.18498
C_ C_ 0.190241 0.177045 0.100939 0.44287
C_ C_ 0.102545 0.192964 0.0950297 0.44287
C_ C_ 0.0959326 0.192028 0.125207 -0.05681
C_ C_ 0.0466779 0.187633 0.13526 -0.08735
C_ C_ 0.0403293 0.185893 0.165691 -0.08735
C_ C_ 0.0809734 0.176944 0.183609 -0.05681
C_ C_ 0.129744 0.172557 0.172944 -0.05681
C_ C_ 0.136606 0.181985 0.143913 -0.05681
C_ C_ 0.184391 0.173679 0.131509 -0.05681
C_ C_ 0.226506 0.166215 0.149485 -0.08735
C_ C_ 0.218149 0.161431 0.179689 -0.08735
C_ C_ 0.170033 0.163866 0.191228 -0.05681
C_ C_ 0.160435 0.15185 0.220202 0.44287
C_ C_ 0.074017 0.171751 0.213354 0.44287
C_ C_ 0.10389 0.148861 0.260924 0.18498
C_ C_ 0.0758196 0.107361 0.268551 -0.08735
C_ C_ 0.0614889 0.0949135 0.29645 -0.08735
C_ C_ 0.0823336 0.125068 0.318449 -0.08735
C_ C_ 0.109401 0.170848 0.311982 0.18498
C_ C_ 0.117975 0.184464 0.282349 -0.05681
C_ C_ 0.145441 0.228446 0.275778 -0.08735
C_ C_ 0.167086 0.257265 0.298597 -0.08735
C_ C_ 0.155746 0.244893 0.327151 0.1947
C_ C_ 0.264544 0.307695 0.155255 0.68181
C_ C_ 0.208123 0.316225 0.152861 -0.05681
C_ C_ 0.176578 0.308621 0.176687 -0.08735
C_ C_ 0.12267 0.308444 0.172258 -0.05681
C_ C_ 0.104088 0.307996 0.143767 -0.05681
C_ C_ 0.137672 0.320602 0.120256 -0.08735
C_ C_ 0.188681 0.321332 0.124558 -0.08735
C_ C_ 0.0890205 0.302926 0.196005 -0.08735
C_ C_ 0.0381313 0.299615 0.190431 -0.08735
C_ C_ 0.0176394 0.308115 0.162802 -0.05681
C_ C_ 0.0510277 0.309796 0.139133 -0.08735
C_ C_ 0.363894 0.215452 0.166292 0.68181
C_ C_ 0.366274 0.413748 0.152223 0.68181
C_ C_ 0.375277 0.469653 0.15128 -0.05681
C_ C_ 0.359931 -0.0029080000000000217 0.173177 -0.08735
C_ C_ 0.365921 0.0511439 0.171058 -0.05681
C_ C_ 0.369046 0.0745459 0.144279 -0.05681
C_ C_ 0.367813 0.0454567 0.119393 -0.08735
C_ C_ 0.384564 0.492828 0.124683 -0.08735
C_ C_ 0.362323 0.0801118 0.19655 -0.08735
C_ C_ 0.361367 0.134572 0.195759 -0.08735
C_ C_ 0.366507 0.158609 0.168634 -0.05681
C_ C_ 0.368723 0.128634 0.143136 -0.08735
C_ C_ 0.461168 0.31916 0.159088 0.68181
C_ C_ 0.387807 0.371269 0.234978 0.1947
C_ C_ 0.399428 0.385869 0.264023 -0.08735
C_ C_ 0.381809 0.358204 0.285856 -0.08735
C_ C_ 0.35574 0.31271 0.281622 -0.05681
C_ C_ 0.345279 0.298927 0.253403 0.18498
C_ C_ 0.317027 0.254177 0.247878 -0.08735
C_ C_ 0.299557 0.225341 0.26973 -0.08735
C_ C_ 0.321623 0.234065 0.297655 -0.08735
C_ C_ 0.345704 0.278844 0.304367 0.18498
C_ C_ 0.313559 0.305407 0.350399 0.44287
C_ C_ 0.400618 0.285509 0.348356 0.44287
C_ C_ 0.407655 0.294992 0.377234 -0.05681
C_ C_ 0.455539 0.289654 0.390345 -0.08735
C_ C_ 0.459259 0.296681 0.419866 -0.08735
C_ C_ 0.418422 0.308629 0.436725 -0.05681
C_ C_ 0.372728 0.316994 0.4232 -0.05681
C_ C_ 0.366081 0.306838 0.394378 -0.05681
C_ C_ 0.319224 0.314885 0.380302 -0.05681
C_ C_ 0.278712 0.333256 0.396859 -0.08735
C_ C_ 0.283674 0.339903 0.425901 -0.08735
C_ C_ 0.331759 0.335801 0.438276 -0.05681
C_ C_ 0.338512 0.346315 0.46782 0.44287
C_ C_ 0.419328 0.309179 0.467264 0.44287
C_ C_ 0.387855 0.344942 0.0124173 0.18498
C_ C_ 0.422191 0.383522 0.0181498 -0.08735
C_ C_ 0.442725 0.391052 0.0455078 -0.08735
C_ C_ 0.426415 0.358771 0.0683828 -0.08735
C_ C_ 0.392604 0.319051 0.0640269 0.18498
C_ C_ 0.372267 0.313735 0.0355162 -0.05681
C_ C_ 0.338127 0.272503 0.0307446 -0.08735
C_ C_ 0.314407 0.248715 0.0531797 -0.08735
C_ C_ 0.330996 0.260638 0.0817832 0.1947
N_ N_ 0.121361 0.165283 0.478293 -0.29468
N_ N_ 0.149005 0.185274 0.0832269 -0.17154
N_ N_ 0.113258 0.157656 0.230663 -0.17154
N_ N_ 0.126061 0.202808 0.332755 -0.29468
N_ N_ 0.359944 0.328165 0.230293 -0.29468
N_ N_ 0.355843 0.294681 0.334373 -0.17154
N_ N_ 0.380731 0.331163 0.481243 -0.17154
N_ N_ 0.370396 0.294317 0.085886 -0.29468
O_ O_ 0.19673 0.186171 0.426665 -0.58347
O_ O_ 0.189779 0.189941 0.380372 -0.58347
O_ O_ 0.109597 0.250791 0.433688 -0.58347
O_ O_ 0.111556 0.262317 0.386727 -0.58347
O_ O_ 0.13175 0.104102 0.42555 -0.58347
O_ O_ 0.123712 0.114265 0.378991 -0.58347
O_ O_ 0.0496769 0.158942 0.424752 -0.58347
O_ O_ 0.0410751 0.187674 0.381972 -0.58347
O_ O_ 0.0678224 0.213107 0.0802562 -0.46727
O_ O_ 0.232936 0.163916 0.0888677 -0.46727
O_ O_ 0.031155 0.178806 0.226216 -0.46727
O_ O_ 0.198111 0.140151 0.23759 -0.46727
O_ O_ 0.284358 0.305871 0.179178 -0.58347
O_ O_ 0.290864 0.318825 0.133657 -0.58347
O_ O_ 0.368591 0.244316 0.187575 -0.58347
O_ O_ 0.366553 0.234988 0.141807 -0.58347
O_ O_ 0.351636 0.390816 0.174011 -0.58347
O_ O_ 0.375465 0.387204 0.129228 -0.58347
O_ O_ 0.431096 0.327013 0.179694 -0.58347
O_ O_ 0.443467 0.312046 0.134924 -0.58347
O_ O_ 0.43681 0.26339 0.333986 -0.46727
O_ O_ 0.268806 0.314751 0.336579 -0.46727
O_ O_ 0.460897 0.296236 0.48054 -0.46727
O_ O_ 0.301587 0.369362 0.482425 -0.46727
Zn Zn 0.116468 0.189568 0.883391 0.90689
Zn Zn 0.124805 0.182212 0.930582 0.90689
Zn Zn 0.367857 0.325155 0.6338 0.90689
Zn Zn 0.356339 0.335211 0.682658 0.90689
H_ H_ 0.293175 0.198563 0.947201 0.11455
H_ H_ 0.362187 0.169036 0.851147 0.11455
H_ H_ 0.270124 0.173526 0.858847 0.11455
H_ H_ 0.384815 0.210465 0.966193 0.11455
H_ H_ 0.47692 0.191693 0.95926 0.11455
H_ H_ 0.447874 0.185864 0.872464 0.11455
H_ H_ 0.132141 0.0138585 0.944729 0.11455
H_ H_ 0.133328 0.440258 0.850814 0.11455
H_ H_ 0.15594 0.0289984 0.850968 0.11455
H_ H_ 0.148546 0.433413 0.969982 0.11455
H_ H_ 0.123096 0.341093 0.965678 0.11455
H_ H_ 0.107484 0.354797 0.875053 0.11455
H_ H_ 0.0819092 0.101843 0.966211 0.11455
H_ H_ 0.0477166 0.0896721 0.518466 0.11455
H_ H_ 0.0986204 0.127194 0.557537 0.11455
H_ H_ 0.181914 0.2455 0.975764 0.11455
H_ H_ 0.225149 0.294031 0.504989 0.11455
H_ H_ 0.207058 0.281722 0.556568 0.11455
H_ H_ 0.015003 0.21878 0.623406 0.11455
H_ H_ 0.00421588 0.214245 0.671687 0.11455
H_ H_ 0.265612 0.185356 0.640274 0.11455
H_ H_ 0.2499 0.177933 0.690511 0.11455
H_ H_ 0.0572191 0.0920775 0.749844 0.11455
H_ H_ 0.0416121 0.0688801 0.799401 0.11455
H_ H_ 0.0697608 0.126637 0.839536 0.11455
H_ H_ 0.157748 0.251771 0.757619 0.11455
H_ H_ 0.176879 0.303804 0.799476 0.11455
H_ H_ 0.158596 0.27853 0.847747 0.11455
H_ H_ 0.189503 0.335612 0.698696 0.11455
H_ H_ 0.121812 0.330945 0.596944 0.11455
H_ H_ 0.211418 0.322192 0.604905 0.11455
H_ H_ 0.103639 0.311014 0.714201 0.11455
H_ H_ 0.0128948 0.329975 0.706939 0.11455
H_ H_ 0.0398043 0.352145 0.616994 0.11455
H_ H_ 0.366521 0.50473 0.694772 0.11455
H_ H_ 0.361944 0.0776121 0.598501 0.11455
H_ H_ 0.357811 0.484508 0.602117 0.11455
H_ H_ 0.351385 0.0862486 0.718563 0.11455
H_ H_ 0.344269 0.17541 0.712381 0.11455
H_ H_ 0.370013 0.16346 0.622225 0.11455
H_ H_ 0.406941 0.407077 0.718665 0.11455
H_ H_ 0.413631 0.437341 0.769098 0.11455
H_ H_ 0.369532 0.392401 0.8077 0.11455
H_ H_ 0.28119 0.269979 0.726187 0.11455
H_ H_ 0.260263 0.212621 0.762645 0.11455
H_ H_ 0.275325 0.236237 0.812886 0.11455
H_ H_ 0.467577 0.331233 0.871098 0.11455
H_ H_ 0.488974 0.311873 0.922488 0.11455
H_ H_ 0.221995 0.349408 0.892665 0.11455
H_ H_ 0.234313 0.344686 0.94206 0.11455
H_ H_ 0.431456 0.410366 0.000979375 0.11455
H_ H_ 0.454665 0.437114 0.550153 0.11455
H_ H_ 0.412838 0.392707 0.588775 0.11455
H_ H_ 0.341507 0.249012 0.510815 0.11455
H_ H_ 0.301846 0.210808 0.552771 0.11455
H_ H_ 0.304016 0.254949 0.6011 0.11455
C_ C_ 0.219543 0.196971 0.905332 0.68181
C_ C_ 0.276356 0.196529 0.902765 -0.05681
C_ C_ 0.309922 0.193499 0.926536 -0.08735
C_ C_ 0.362566 0.189821 0.923519 -0.05681
C_ C_ 0.381919 0.185136 0.896225 -0.05681
C_ C_ 0.347903 0.179737 0.872257 -0.08735
C_ C_ 0.294774 0.186853 0.875407 -0.08735
C_ C_ 0.396232 0.195616 0.945984 -0.08735
C_ C_ 0.450507 0.186712 0.942031 -0.08735
C_ C_ 0.468454 0.185059 0.914694 -0.05681
C_ C_ 0.433616 0.184282 0.892394 -0.08735
C_ C_ 0.113083 0.282849 0.91733 0.68181
C_ C_ 0.133894 0.0877158 0.899717 0.68181
C_ C_ 0.136104 0.0302338 0.897425 -0.05681
C_ C_ 0.148056 0.499847 0.926115 -0.08735
C_ C_ 0.137927 0.447675 0.924403 -0.05681
C_ C_ 0.132678 0.423527 0.897078 -0.05681
C_ C_ 0.131984 0.455374 0.87267 -0.08735
C_ C_ 0.141791 0.505715 0.874628 -0.08735
C_ C_ 0.13377 0.417065 0.948747 -0.08735
C_ C_ 0.122335 0.364734 0.946517 -0.08735
C_ C_ 0.116139 0.340161 0.919621 -0.05681
C_ C_ 0.117818 0.371327 0.895863 -0.08735
C_ C_ 0.0218355 0.170613 0.907867 0.68181
C_ C_ 0.0928212 0.123534 0.983954 0.1947
C_ C_ 0.0759117 0.118335 0.51423 -0.08735
C_ C_ 0.103497 0.142481 0.536326 -0.08735
C_ C_ 0.141217 0.177273 0.529082 -0.05681
C_ C_ 0.14888 0.190722 0.499587 0.18498
C_ C_ 0.172575 0.232905 0.997314 -0.08735
C_ C_ 0.202272 0.262618 0.511609 -0.08735
C_ C_ 0.192003 0.254231 0.541333 -0.08735
C_ C_ 0.163912 0.210606 0.550452 0.18498
C_ C_ 0.19337 0.188906 0.599047 0.44287
C_ C_ 0.106374 0.210013 0.592667 0.44287
C_ C_ 0.0980921 0.205579 0.622625 -0.05681
C_ C_ 0.0497765 0.212772 0.635386 -0.08735
C_ C_ 0.0420115 0.209557 0.664396 -0.08735
C_ C_ 0.0814749 0.19582 0.682892 -0.05681
C_ C_ 0.128889 0.185943 0.670551 -0.05681
C_ C_ 0.137004 0.190635 0.640931 -0.05681
C_ C_ 0.184269 0.18161 0.629168 -0.05681
C_ C_ 0.2264 0.174898 0.648056 -0.08735
C_ C_ 0.220046 0.172203 0.677614 -0.08735
C_ C_ 0.169621 0.171654 0.688792 -0.05681
C_ C_ 0.159718 0.163038 0.717628 0.44287
C_ C_ 0.0742483 0.192474 0.713245 0.44287
C_ C_ 0.102901 0.16008 0.760372 0.18498
C_ C_ 0.0731651 0.116914 0.766938 -0.08735
C_ C_ 0.0649209 0.103623 0.795022 -0.08735
C_ C_ 0.0806892 0.133907 0.817439 -0.08735
C_ C_ 0.10837 0.178563 0.811429 0.18498
C_ C_ 0.120425 0.1925 0.783205 -0.05681
C_ C_ 0.144008 0.238934 0.778462 -0.08735
C_ C_ 0.153388 0.269929 0.802719 -0.08735
C_ C_ 0.144076 0.253008 0.830413 0.1947
C_ C_ 0.266447 0.32935 0.656901 0.68181
C_ C_ 0.20924 0.327655 0.652046 -0.05681
C_ C_ 0.176198 0.333001 0.675382 -0.08735
C_ C_ 0.123285 0.326708 0.670101 -0.05681
C_ C_ 0.103778 0.33125 0.642156 -0.05681
C_ C_ 0.136082 0.330589 0.619058 -0.08735
C_ C_ 0.188273 0.325839 0.623544 -0.08735
C_ C_ 0.0896279 0.32493 0.693766 -0.08735
C_ C_ 0.0370088 0.331121 0.688918 -0.08735
C_ C_ 0.0190826 0.337885 0.661479 -0.05681
C_ C_ 0.0536743 0.337125 0.638011 -0.08735
C_ C_ 0.368482 0.232354 0.664786 0.68181
C_ C_ 0.362323 0.428644 0.652692 0.68181
C_ C_ 0.369461 0.485425 0.648648 -0.05681
C_ C_ 0.363853 0.0171023 0.67322 -0.08735
C_ C_ 0.357954 0.0710422 0.67154 -0.05681
C_ C_ 0.358997 0.0936556 0.644482 -0.05681
C_ C_ 0.361961 0.0622053 0.620323 -0.08735
C_ C_ 0.362147 0.506906 0.622145 -0.08735
C_ C_ 0.355329 0.101421 0.696224 -0.08735
C_ C_ 0.357707 0.154057 0.694458 -0.08735
C_ C_ 0.367947 0.176318 0.667284 -0.05681
C_ C_ 0.368139 0.146038 0.642736 -0.08735
C_ C_ 0.458643 0.327622 0.657198 0.68181
C_ C_ 0.391793 0.384351 0.73616 0.1947
C_ C_ 0.394131 0.403548 0.764674 -0.08735
C_ C_ 0.367463 0.377024 0.786052 -0.08735
C_ C_ 0.343204 0.332521 0.780261 -0.05681
C_ C_ 0.336258 0.318106 0.75142 0.18498
C_ C_ 0.302957 0.276841 0.746334 -0.08735
C_ C_ 0.284319 0.24686 0.768126 -0.08735
C_ C_ 0.294983 0.257366 0.796121 -0.08735
C_ C_ 0.326246 0.30078 0.80295 0.18498
C_ C_ 0.292586 0.323258 0.851105 0.44287
C_ C_ 0.380242 0.306894 0.844682 0.44287
C_ C_ 0.389886 0.312527 0.874481 -0.05681
C_ C_ 0.43913 0.322663 0.885025 -0.08735
C_ C_ 0.449674 0.320331 0.915125 -0.08735
C_ C_ 0.407298 0.32359 0.934015 -0.05681
C_ C_ 0.357326 0.323822 0.922656 -0.05681
C_ C_ 0.348292 0.317124 0.892596 -0.05681
C_ C_ 0.29928 0.326138 0.881453 -0.05681
C_ C_ 0.259281 0.340109 0.900231 -0.08735
C_ C_ 0.266766 0.337874 0.929029 -0.08735
C_ C_ 0.316452 0.333177 0.941426 -0.05681
C_ C_ 0.328318 0.340925 0.971871 0.44287
C_ C_ 0.414327 0.319102 0.96416 0.44287
C_ C_ 0.388415 0.346958 0.510832 0.18498
C_ C_ 0.417288 0.391314 0.516496 -0.08735
C_ C_ 0.427644 0.406545 0.54508 -0.08735
C_ C_ 0.407916 0.378462 0.568304 -0.08735
C_ C_ 0.377991 0.335423 0.563624 0.18498
C_ C_ 0.369661 0.318364 0.535114 -0.05681
C_ C_ 0.341206 0.272836 0.531182 -0.08735
C_ C_ 0.322088 0.245752 0.55488 -0.08735
C_ C_ 0.326167 0.268755 0.582852 0.1947
N_ N_ 0.120581 0.166591 0.979611 -0.29468
N_ N_ 0.153516 0.203402 0.581961 -0.17154
N_ N_ 0.111496 0.171014 0.729505 -0.17154
N_ N_ 0.119395 0.209718 0.834554 -0.29468
N_ N_ 0.358704 0.346805 0.729606 -0.29468
N_ N_ 0.332517 0.31436 0.833331 -0.17154
N_ N_ 0.376239 0.332267 0.982091 -0.17154
N_ N_ 0.357172 0.309781 0.586382 -0.29468
O_ O_ 0.199563 0.190231 0.929595 -0.58347
O_ O_ 0.191898 0.206247 0.884256 -0.58347
O_ O_ 0.125192 0.255535 0.938039 -0.58347
O_ O_ 0.10311 0.262055 0.893991 -0.58347
O_ O_ 0.137548 0.108148 0.924635 -0.58347
O_ O_ 0.134586 0.116409 0.877638 -0.58347
O_ O_ 0.0483811 0.173608 0.930783 -0.58347
O_ O_ 0.0428707 0.170301 0.884112 -0.58347
O_ O_ 0.0694807 0.223005 0.575482 -0.46727
O_ O_ 0.236605 0.184226 0.588103 -0.46727
O_ O_ 0.0286255 0.195358 0.723345 -0.46727
O_ O_ 0.1948 0.149929 0.735709 -0.46727
O_ O_ 0.284134 0.334221 0.682431 -0.58347
O_ O_ 0.295302 0.327974 0.635499 -0.58347
O_ O_ 0.354319 0.258261 0.686104 -0.58347
O_ O_ 0.370319 0.251358 0.640317 -0.58347
O_ O_ 0.356706 0.409537 0.676816 -0.58347
O_ O_ 0.36954 0.399176 0.631414 -0.58347
O_ O_ 0.433218 0.336823 0.678799 -0.58347
O_ O_ 0.43832 0.322732 0.632525 -0.58347
O_ O_ 0.417485 0.301313 0.827156 -0.46727
O_ O_ 0.247841 0.327817 0.838905 -0.46727
O_ O_ 0.46135 0.313638 0.974075 -0.46727
O_ O_ 0.288706 0.347419 0.98978 -0.46727
Zn Zn 0.123442 0.688649 0.384653 0.90689
Zn Zn 0.130989 0.678862 0.430918 0.90689
Zn Zn 0.369186 0.806081 0.132888 0.90689
Zn Zn 0.364425 0.816902 0.180141 0.90689
H_ H_ 0.300452 0.688827 0.447636 0.11455
H_ H_ 0.370716 0.684843 0.348356 0.11455
H_ H_ 0.278236 0.684817 0.358189 0.11455
H_ H_ 0.383544 0.689897 0.467575 0.11455
H_ H_ 0.478127 0.684867 0.459767 0.11455
H_ H_ 0.458397 0.678202 0.368503 0.11455
H_ H_ 0.131172 0.51465 0.44461 0.11455
H_ H_ 0.139397 0.934739 0.347459 0.11455
H_ H_ 0.130457 0.523226 0.352163 0.11455
H_ H_ 0.102793 0.927655 0.462175 0.11455
H_ H_ 0.115001 0.838628 0.45907 0.11455
H_ H_ 0.122397 0.848474 0.36669 0.11455
H_ H_ 0.0802913 0.611005 0.471172 0.11455
H_ H_ 0.0668936 0.586469 0.0181298 0.11455
H_ H_ 0.104534 0.629665 0.0582636 0.11455
H_ H_ 0.202054 0.743182 0.469302 0.11455
H_ H_ 0.241231 0.792878 0.0141001 0.11455
H_ H_ 0.219069 0.774562 0.0642749 0.11455
H_ H_ 0.026097 0.72369 0.121585 0.11455
H_ H_ 0.00866826 0.701438 0.172475 0.11455
H_ H_ 0.269511 0.647267 0.141397 0.11455
H_ H_ 0.249523 0.63401 0.191808 0.11455
H_ H_ 0.073473 0.587024 0.249293 0.11455
H_ H_ 0.0587495 0.55859 0.300319 0.11455
H_ H_ 0.0877097 0.613189 0.339704 0.11455
H_ H_ 0.158824 0.74705 0.25972 0.11455
H_ H_ 0.196786 0.788303 0.302651 0.11455
H_ H_ 0.18509 0.75577 0.349422 0.11455
H_ H_ 0.191459 0.797912 0.194464 0.11455
H_ H_ 0.129105 0.839812 0.0983858 0.11455
H_ H_ 0.216461 0.827484 0.105254 0.11455
H_ H_ 0.106815 0.789873 0.215237 0.11455
H_ H_ 0.0172546 0.793243 0.205813 0.11455
H_ H_ 0.0414272 0.836939 0.117598 0.11455
H_ H_ 0.363583 0.97918 0.195083 0.11455
H_ H_ 0.412603 0.557262 0.104763 0.11455
H_ H_ 0.364952 0.970171 0.101581 0.11455
H_ H_ 0.353764 0.566231 0.218136 0.11455
H_ H_ 0.34715 0.661898 0.210663 0.11455
H_ H_ 0.395046 0.639954 0.121974 0.11455
H_ H_ 0.403668 0.891283 0.213195 0.11455
H_ H_ 0.43078 0.922356 0.263306 0.11455
H_ H_ 0.405891 0.868008 0.304402 0.11455
H_ H_ 0.310967 0.745224 0.224913 0.11455
H_ H_ 0.2811 0.695552 0.261762 0.11455
H_ H_ 0.295958 0.719898 0.315476 0.11455
H_ H_ 0.490288 0.793286 0.371275 0.11455
H_ H_ 0.507631 0.81597 0.420689 0.11455
H_ H_ 0.241793 0.840788 0.388297 0.11455
H_ H_ 0.251153 0.835807 0.440209 0.11455
H_ H_ 0.437828 0.933248 0.500096 0.11455
H_ H_ 0.479366 0.911599 0.0546973 0.11455
H_ H_ 0.437884 0.864022 0.0927685 0.11455
H_ H_ 0.354487 0.74295 0.0057091 0.11455
H_ H_ 0.308236 0.706102 0.0447365 0.11455
H_ H_ 0.312369 0.739044 0.0956043 0.11455
C_ C_ 0.225934 0.685653 0.407094 0.68181
C_ C_ 0.281822 0.684532 0.402571 -0.05681
C_ C_ 0.314451 0.681839 0.425587 -0.08735
C_ C_ 0.366553 0.680377 0.421965 -0.05681
C_ C_ 0.390325 0.678783 0.394192 -0.05681
C_ C_ 0.357154 0.68127 0.370823 -0.08735
C_ C_ 0.303653 0.682167 0.375509 -0.08735
C_ C_ 0.40084 0.684898 0.44562 -0.08735
C_ C_ 0.453689 0.680061 0.441956 -0.08735
C_ C_ 0.475996 0.678134 0.41394 -0.05681
C_ C_ 0.443144 0.678982 0.390555 -0.08735
C_ C_ 0.121826 0.78159 0.410057 0.68181
C_ C_ 0.12712 0.584918 0.402436 0.68181
C_ C_ 0.123266 0.527059 0.398887 -0.05681
C_ C_ 0.121721 0.996781 0.421446 -0.08735
C_ C_ 0.11739 0.943312 0.41772 -0.05681
C_ C_ 0.124759 0.920392 0.391132 -0.05681
C_ C_ 0.128003 0.951533 0.366679 -0.08735
C_ C_ 0.13336 1.00459153 0.369511 -0.08735
C_ C_ 0.105834 0.91141 0.441718 -0.08735
C_ C_ 0.11216 0.859688 0.439296 -0.08735
C_ C_ 0.118638 0.837207 0.41177 -0.05681
C_ C_ 0.1238 0.867489 0.387119 -0.08735
C_ C_ 0.030937 0.677583 0.411508 0.68181
C_ C_ 0.0999053 0.63262 0.487636 0.1947
C_ C_ 0.089847 0.619943 0.014243 -0.08735
C_ C_ 0.112393 0.646642 0.0366618 -0.08735
C_ C_ 0.145792 0.687022 0.0315644 -0.05681
C_ C_ 0.15941 0.697272 1.00163041 0.18498
C_ C_ 0.188951 0.738453 0.491732 -0.08735
C_ C_ 0.215899 0.762129 0.0175293 -0.08735
C_ C_ 0.202109 0.752695 0.0467965 -0.08735
C_ C_ 0.168929 0.713731 0.0543194 0.18498
C_ C_ 0.198213 0.679416 0.0991518 0.44287
C_ C_ 0.113326 0.707947 0.0948247 0.44287
C_ C_ 0.104193 0.696533 0.12405 -0.05681
C_ C_ 0.0558516 0.704807 0.134658 -0.08735
C_ C_ 0.04656 0.69621 0.164608 -0.08735
C_ C_ 0.0866684 0.683605 0.182815 -0.05681
C_ C_ 0.135373 0.677796 0.171952 -0.05681
C_ C_ 0.142978 0.680853 0.141252 -0.05681
C_ C_ 0.188423 0.668561 0.129061 -0.05681
C_ C_ 0.230428 0.652999 0.148098 -0.08735
C_ C_ 0.220025 0.647068 0.177816 -0.08735
C_ C_ 0.173724 0.662429 0.190113 -0.05681
C_ C_ 0.16687 0.659626 0.220461 0.44287
C_ C_ 0.0809545 0.680742 0.212514 0.44287
C_ C_ 0.107192 0.656985 0.260693 0.18498
C_ C_ 0.0872284 0.611282 0.266852 -0.08735
C_ C_ 0.0724735 0.597762 0.295917 -0.08735
C_ C_ 0.0836042 0.630058 0.319223 -0.08735
C_ C_ 0.11039 0.674234 0.314075 0.18498
C_ C_ 0.124183 0.688432 0.284945 -0.05681
C_ C_ 0.145729 0.735763 0.281002 -0.08735
C_ C_ 0.17561 0.753065 0.303411 -0.08735
C_ C_ 0.167367 0.736649 0.331922 0.1947
C_ C_ 0.267053 0.805664 0.155651 0.68181
C_ C_ 0.213127 0.815891 0.151883 -0.05681
C_ C_ 0.178048 0.805927 0.174318 -0.08735
C_ C_ 0.1256 0.810717 0.17092 -0.05681
C_ C_ 0.104781 0.820926 0.143 -0.05681
C_ C_ 0.139472 0.824695 0.11969 -0.08735
C_ C_ 0.19151 0.820578 0.123803 -0.08735
C_ C_ 0.0930947 0.806532 0.194481 -0.08735
C_ C_ 0.0407474 0.812314 0.19032 -0.08735
C_ C_ 0.0205741 0.814132 0.162358 -0.05681
C_ C_ 0.0533969 0.831804 0.140222 -0.08735
C_ C_ 0.375928 0.715352 0.163124 0.68181
C_ C_ 0.353306 0.910626 0.150784 0.68181
C_ C_ 0.355843 0.967368 0.147705 -0.05681
C_ C_ 0.36302 0.50076 0.174792 -0.08735
C_ C_ 0.368957 0.551771 0.173603 -0.05681
C_ C_ 0.379838 0.574143 0.145765 -0.05681
C_ C_ 0.392941 0.543821 0.123394 -0.08735
C_ C_ 0.359754 -0.006655999999999995 0.120764 -0.08735
C_ C_ 0.364396 0.584446 0.196883 -0.08735
C_ C_ 0.365271 0.637376 0.194163 -0.08735
C_ C_ 0.377962 0.658416 0.167363 -0.05681
C_ C_ 0.388617 0.625906 0.143655 -0.08735
C_ C_ 0.465702 0.818007 0.159635 0.68181
C_ C_ 0.388803 0.873335 0.232585 0.1947
C_ C_ 0.404699 0.890667 0.260615 -0.08735
C_ C_ 0.391077 0.859403 0.283607 -0.08735
C_ C_ 0.364816 0.813595 0.279372 -0.05681
C_ C_ 0.352208 0.797553 0.251345 0.18498
C_ C_ 0.322829 0.754763 0.246131 -0.08735
C_ C_ 0.303271 0.72622 0.267916 -0.08735
C_ C_ 0.315444 0.740322 0.297209 -0.08735
C_ C_ 0.342989 0.785462 0.302956 0.18498
C_ C_ 0.313536 0.813895 0.349682 0.44287
C_ C_ 0.400701 0.797032 0.344304 0.44287
C_ C_ 0.410702 0.803718 0.373587 -0.05681
C_ C_ 0.459463 0.805119 0.385357 -0.08735
C_ C_ 0.46756 0.813297 0.414932 -0.08735
C_ C_ 0.427001 0.828116 0.433718 -0.05681
C_ C_ 0.376994 0.823583 0.421817 -0.05681
C_ C_ 0.368716 0.813761 0.390974 -0.05681
C_ C_ 0.320096 0.821143 0.379186 -0.05681
C_ C_ 0.278547 0.834491 0.397255 -0.08735
C_ C_ 0.286204 0.833475 0.427192 -0.08735
C_ C_ 0.335223 0.831885 0.439474 -0.05681
C_ C_ 0.343949 0.847121 0.467563 0.44287
C_ C_ 0.43251 0.83195 0.463651 0.44287
C_ C_ 0.412443 0.828364 0.0130434 0.18498
C_ C_ 0.446636 0.867147 0.0212139 -0.08735
C_ C_ 0.452811 0.882094 0.0491593 -0.08735
C_ C_ 0.433879 0.852707 0.0716559 -0.08735
C_ C_ 0.401878 0.81072 0.0646984 0.18498
C_ C_ 0.393601 0.797473 0.035018 -0.05681
C_ C_ 0.360545 0.757757 0.0285299 -0.08735
C_ C_ 0.332524 0.737577 0.0503813 -0.08735
C_ C_ 0.337346 0.752955 0.0788889 0.1947
N_ N_ 0.13044 0.671051 0.48016 -0.29468
N_ N_ 0.159837 0.700207 0.0833044 -0.17154
N_ N_ 0.118882 0.670354 0.231312 -0.17154
N_ N_ 0.134452 0.697907 0.337159 -0.29468
N_ N_ 0.364832 0.829305 0.22908 -0.29468
N_ N_ 0.352437 0.798758 0.333417 -0.17154
N_ N_ 0.391631 0.847059 0.479499 -0.17154
N_ N_ 0.372663 0.78957 0.0851103 -0.29468
O_ O_ 0.208885 0.674603 0.430214 -0.58347
O_ O_ 0.197434 0.70158 0.386964 -0.58347
O_ O_ 0.13618 0.754369 0.431546 -0.58347
O_ O_ 0.102759 0.758945 0.38846 -0.58347
O_ O_ 0.127197 0.606499 0.426854 -0.58347
O_ O_ 0.140792 0.610547 0.380984 -0.58347
O_ O_ 0.0579569 0.679368 0.433957 -0.58347
O_ O_ 0.0502459 0.669339 0.387969 -0.58347
O_ O_ 0.0782385 0.733473 0.0793012 -0.46727
O_ O_ 0.244096 0.681942 0.089865 -0.46727
O_ O_ 0.0359395 0.686134 0.224366 -0.46727
O_ O_ 0.20098 0.641777 0.238376 -0.46727
O_ O_ 0.286116 0.802194 0.180576 -0.58347
O_ O_ 0.292639 0.805491 0.134595 -0.58347
O_ O_ 0.381267 0.744434 0.185032 -0.58347
O_ O_ 0.364053 0.732668 0.138974 -0.58347
O_ O_ 0.348302 0.890212 0.174785 -0.58347
O_ O_ 0.368271 0.883896 0.129337 -0.58347
O_ O_ 0.436151 0.825651 0.181258 -0.58347
O_ O_ 0.446484 0.807364 0.13599 -0.58347
O_ O_ 0.438918 0.788585 0.326816 -0.46727
O_ O_ 0.269198 0.82437 0.337799 -0.46727
O_ O_ 0.476365 0.823477 0.47584 -0.46727
O_ O_ 0.304783 0.865612 0.481498 -0.46727
Zn Zn 0.14107 0.689813 0.881128 0.90689
Zn Zn 0.150137 0.680902 0.9322 0.90689
Zn Zn 0.386578 0.827559 0.630998 0.90689
Zn Zn 0.378117 0.837027 0.680505 0.90689
H_ H_ 0.314428 0.683361 0.945421 0.11455
H_ H_ 0.386798 0.643546 0.848811 0.11455
H_ H_ 0.292974 0.648093 0.856887 0.11455
H_ H_ 0.399336 0.680969 0.965194 0.11455
H_ H_ 0.486773 0.669708 0.960053 0.11455
H_ H_ 0.475112 0.65839 0.869451 0.11455
H_ H_ 0.150536 0.51809 0.946221 0.11455
H_ H_ 0.130228 0.937864 0.844947 0.11455
H_ H_ 0.14443 0.528278 0.854849 0.11455
H_ H_ 0.124248 0.931592 0.963895 0.11455
H_ H_ 0.127414 0.842901 0.961409 0.11455
H_ H_ 0.13575 0.849989 0.869853 0.11455
H_ H_ 0.0921875 0.607359 0.968145 0.11455
H_ H_ 0.0689404 0.589165 0.521012 0.11455
H_ H_ 0.128916 0.625408 0.55716 0.11455
H_ H_ 0.200404 0.74602 0.973555 0.11455
H_ H_ 0.232179 0.798392 0.504134 0.11455
H_ H_ 0.222108 0.782546 0.556808 0.11455
H_ H_ 1.037116 0.72409 0.625026 0.11455
H_ H_ 1.0290966 0.71333 0.675568 0.11455
H_ H_ 0.275239 0.643658 0.632581 0.11455
H_ H_ 0.273892 0.650921 0.683862 0.11455
H_ H_ 0.100732 0.591042 0.746732 0.11455
H_ H_ 0.0832789 0.56648 0.796185 0.11455
H_ H_ 0.101652 0.616917 0.835525 0.11455
H_ H_ 0.186736 0.752315 0.757689 0.11455
H_ H_ 0.22086 0.800814 0.800521 0.11455
H_ H_ 0.208246 0.763042 0.846384 0.11455
H_ H_ 0.205632 0.825822 0.696076 0.11455
H_ H_ 0.14006 0.844024 0.596203 0.11455
H_ H_ 0.232548 0.840183 0.605315 0.11455
H_ H_ 0.121256 0.838199 0.713624 0.11455
H_ H_ 0.0324823 0.827177 0.706495 0.11455
H_ H_ 0.0535147 0.830388 0.616481 0.11455
H_ H_ 0.367848 1.000956105 0.694506 0.11455
H_ H_ 0.363196 0.578985 0.595944 0.11455
H_ H_ 0.355692 0.989007 0.602102 0.11455
H_ H_ 0.379239 0.583712 0.71452 0.11455
H_ H_ 0.387842 0.677301 0.710288 0.11455
H_ H_ 0.368422 0.663971 0.618928 0.11455
H_ H_ 0.440536 0.904823 0.72112 0.11455
H_ H_ 0.447046 0.930143 0.772515 0.11455
H_ H_ 0.417711 0.874256 0.810334 0.11455
H_ H_ 0.321352 0.771088 0.724439 0.11455
H_ H_ 0.286971 0.715753 0.760738 0.11455
H_ H_ 0.30571 0.730122 0.811986 0.11455
H_ H_ 0.495185 0.778366 0.875281 0.11455
H_ H_ 0.51125 0.775482 0.926682 0.11455
H_ H_ 0.256708 0.854683 0.890933 0.11455
H_ H_ 0.265333 0.8496 0.944055 0.11455
H_ H_ 0.466564 0.884499 1.00521448 0.11455
H_ H_ 0.464992 0.946259 0.551005 0.11455
H_ H_ 0.455717 0.880518 0.585432 0.11455
H_ H_ 0.351285 0.769483 0.505899 0.11455
H_ H_ 0.329626 0.713264 0.546606 0.11455
H_ H_ 0.339406 0.749352 0.596084 0.11455
C_ C_ 0.243643 0.683337 0.904308 0.68181
C_ C_ 0.29891 0.67512 0.9008 -0.05681
C_ C_ 0.330179 0.675405 0.924146 -0.08735
C_ C_ 0.383096 0.667256 0.920459 -0.05681
C_ C_ 0.402529 0.657757 0.892944 -0.05681
C_ C_ 0.370414 0.65534 0.869564 -0.08735
C_ C_ 0.317786 0.663056 0.873501 -0.08735
C_ C_ 0.414858 0.672952 0.943199 -0.08735
C_ C_ 0.466211 0.661764 0.941685 -0.08735
C_ C_ 0.489127 0.660352 0.914531 -0.05681
C_ C_ 0.456532 0.654991 0.889741 -0.08735
C_ C_ 0.135899 0.782797 0.912038 0.68181
C_ C_ 0.1536 0.586071 0.902648 0.68181
C_ C_ 0.148489 0.530087 0.901511 -0.05681
C_ C_ 0.133566 0.99823182 0.922196 -0.08735
C_ C_ 0.12891 0.945792 0.9191 -0.05681
C_ C_ 0.133286 0.922589 0.89208 -0.05681
C_ C_ 0.137629 0.953785 0.866498 -0.08735
C_ C_ 0.14077 0.00720087 0.869406 -0.08735
C_ C_ 0.125543 0.916022 0.943411 -0.08735
C_ C_ 0.126842 0.862329 0.94193 -0.08735
C_ C_ 0.134357 0.840082 0.914983 -0.05681
C_ C_ 0.136753 0.870372 0.890586 -0.08735
C_ C_ 0.0487898 0.67094 0.90406 0.68181
C_ C_ 0.10554 0.632506 0.985743 0.1947
C_ C_ 0.0919825 0.619253 0.515879 -0.08735
C_ C_ 0.123452 0.64124 0.536494 -0.08735
C_ C_ 0.150713 0.685639 0.529301 -0.05681
C_ C_ 0.160625 0.695142 0.499323 0.18498
C_ C_ 0.193909 0.735976 0.99567 -0.08735
C_ C_ 0.207397 0.770941 0.512664 -0.08735
C_ C_ 0.203091 0.757794 0.541069 -0.08735
C_ C_ 0.173898 0.715878 0.550369 0.18498
C_ C_ 0.211699 0.689967 0.595123 0.44287
C_ C_ 0.124981 0.716257 0.594322 0.44287
C_ C_ 0.120992 0.70923 0.623147 -0.05681
C_ C_ 0.0727159 0.715706 0.636196 -0.08735
C_ C_ 0.0654049 0.70804 0.665747 -0.08735
C_ C_ 0.106139 0.696064 0.681889 -0.05681
C_ C_ 0.15468 0.686305 0.66908 -0.05681
C_ C_ 0.160364 0.691156 0.639108 -0.05681
C_ C_ 0.203502 0.678311 0.624717 -0.05681
C_ C_ 0.243928 0.660204 0.64208 -0.08735
C_ C_ 0.241494 0.660648 0.672399 -0.08735
C_ C_ 0.195199 0.671384 0.686582 -0.05681
C_ C_ 0.188382 0.671183 0.716508 0.44287
C_ C_ 0.102447 0.69304 0.712619 0.44287
C_ C_ 0.136928 0.662766 0.758539 0.18498
C_ C_ 0.114131 0.615591 0.763893 -0.08735
C_ C_ 0.104989 0.601478 0.791669 -0.08735
C_ C_ 0.113269 0.631597 0.81456 -0.08735
C_ C_ 0.14052 0.676956 0.810484 0.18498
C_ C_ 0.153222 0.692878 0.782174 -0.05681
C_ C_ 0.176583 0.740398 0.778732 -0.08735
C_ C_ 0.194589 0.767964 0.802473 -0.08735
C_ C_ 0.187736 0.745469 0.829177 0.1947
C_ C_ 0.283778 0.830458 0.654024 0.68181
C_ C_ 0.226979 0.829433 0.650492 -0.05681
C_ C_ 0.193343 0.825349 0.673478 -0.08735
C_ C_ 0.14091 0.828909 0.669294 -0.05681
C_ C_ 0.119932 0.835852 0.641103 -0.05681
C_ C_ 0.153221 0.835621 0.618682 -0.08735
C_ C_ 0.206982 0.832208 0.622455 -0.08735
C_ C_ 0.10734 0.829238 0.693024 -0.08735
C_ C_ 0.055699 0.830684 0.688337 -0.08735
C_ C_ 0.0340507 0.830265 0.661335 -0.05681
C_ C_ 0.0676166 0.834533 0.637616 -0.08735
C_ C_ 0.387161 0.733651 0.660599 0.68181
C_ C_ 0.37251 0.929881 0.65124 0.68181
C_ C_ 0.367367 0.986977 0.64825 -0.05681
C_ C_ 0.37385 0.519847 0.672885 -0.08735
C_ C_ 0.378445 0.57216 0.669276 -0.05681
C_ C_ 0.371951 0.593429 0.641823 -0.05681
C_ C_ 0.36674 0.561316 0.617395 -0.08735
C_ C_ 0.361453 1.0100204 0.622008 -0.08735
C_ C_ 0.380328 0.600049 0.693367 -0.08735
C_ C_ 0.381702 0.652668 0.690617 -0.08735
C_ C_ 0.381211 0.677587 0.663482 -0.05681
C_ C_ 0.373835 0.646799 0.639298 -0.08735
C_ C_ 0.478542 0.833353 0.655067 0.68181
C_ C_ 0.422764 0.883424 0.738327 0.1947
C_ C_ 0.432085 0.894603 0.767191 -0.08735
C_ C_ 0.413424 0.862954 0.788533 -0.08735
C_ C_ 0.376055 0.826726 0.78298 -0.05681
C_ C_ 0.367881 0.815911 0.752873 0.18498
C_ C_ 0.336887 0.77467 0.744545 -0.08735
C_ C_ 0.315959 0.743538 0.766692 -0.08735
C_ C_ 0.327791 0.751034 0.796606 -0.08735
C_ C_ 0.358133 0.792954 0.804085 0.18498
C_ C_ 0.328442 0.824132 0.851382 0.44287
C_ C_ 0.409134 0.786204 0.847139 0.44287
C_ C_ 0.417173 0.790755 0.876871 -0.05681
C_ C_ 0.463677 0.777938 0.888365 -0.08735
C_ C_ 0.472724 0.786287 0.917994 -0.08735
C_ C_ 0.431582 0.796912 0.936039 -0.05681
C_ C_ 0.385381 0.812604 0.924888 -0.05681
C_ C_ 0.377743 0.809857 0.894885 -0.05681
C_ C_ 0.331344 0.823612 0.88182 -0.05681
C_ C_ 0.29322 0.840431 0.899524 -0.08735
C_ C_ 0.297722 0.840699 0.929496 -0.08735
C_ C_ 0.344614 0.82855 0.94262 -0.05681
C_ C_ 0.353518 0.830977 0.972074 0.44287
C_ C_ 0.438827 0.80242 0.965654 0.44287
C_ C_ 0.399515 0.860962 0.509199 0.18498
C_ C_ 0.427439 0.905166 0.516512 -0.08735
C_ C_ 0.444327 0.914935 0.545001 -0.08735
C_ C_ 0.435396 0.878028 0.56539 -0.08735
C_ C_ 0.400406 0.83958 0.5604 0.18498
C_ C_ 0.385152 0.828308 0.532047 -0.05681
C_ C_ 0.357321 0.783315 0.527691 -0.08735
C_ C_ 0.343222 0.752422 0.551307 -0.08735
C_ C_ 0.352847 0.770713 0.57869 0.1947
N_ N_ 0.143227 0.665582 0.980438 -0.29468
N_ N_ 0.170161 0.706345 0.580434 -0.17154
N_ N_ 0.143377 0.677821 0.72892 -0.17154
N_ N_ 0.155612 0.705508 0.832462 -0.29468
N_ N_ 0.392148 0.84359 0.7318 -0.29468
N_ N_ 0.366041 0.803247 0.834353 -0.17154
N_ N_ 0.399357 0.817434 0.982764 -0.17154
N_ N_ 0.377935 0.814607 0.582825 -0.29468
O_ O_ 0.222683 0.680822 0.92874 -0.58347
O_ O_ 0.216279 0.693169 0.883613 -0.58347
O_ O_ 0.142538 0.756901 0.934692 -0.58347
O_ O_ 0.133832 0.761609 0.887399 -0.58347
O_ O_ 0.151993 0.608728 0.926489 -0.58347
O_ O_ 0.148696 0.610519 0.879017 -0.58347
O_ O_ 0.0743084 0.670787 0.927123 -0.58347
O_ O_ 0.0681296 0.684665 0.880467 -0.58347
O_ O_ 0.0855299 0.730269 0.578987 -0.46727
O_ O_ 0.25156 0.673968 0.58141 -0.46727
O_ O_ 0.0586023 0.698332 0.725325 -0.46727
O_ O_ 0.228667 0.658769 0.731057 -0.46727
O_ O_ 0.302126 0.832979 0.679293 -0.58347
O_ O_ 0.311792 0.824068 0.632334 -0.58347
O_ O_ 0.386387 0.762238 0.682705 -0.58347
O_ O_ 0.389171 0.754705 0.636248 -0.58347
O_ O_ 0.369574 0.909431 0.676277 -0.58347
O_ O_ 0.385256 0.904396 0.629368 -0.58347
O_ O_ 0.450213 0.847044 0.675054 -0.58347
O_ O_ 0.461379 0.831832 0.629133 -0.58347
O_ O_ 0.444793 0.766357 0.830926 -0.46727
O_ O_ 0.285787 0.833245 0.839646 -0.46727
O_ O_ 0.485033 0.79897 0.976885 -0.46727
O_ O_ 0.317646 0.844622 0.990287 -0.46727
Zn Zn 0.613888 0.185158 0.381421 0.90689
Zn Zn 0.625895 0.176816 0.4296 0.90689
Zn Zn 0.867442 0.309699 0.130006 0.90689
Zn Zn 0.860293 0.31147 0.178252 0.90689
H_ H_ 0.794081 0.168704 0.443181 0.11455
H_ H_ 0.856163 0.191064 0.345404 0.11455
H_ H_ 0.768654 0.175238 0.353237 0.11455
H_ H_ 0.881622 0.170935 0.463106 0.11455
H_ H_ 0.971484 0.165659 0.455291 0.11455
H_ H_ 0.947783 0.198528 0.366192 0.11455
H_ H_ 0.625561 0.0115027 0.442225 0.11455
H_ H_ 0.55995 0.435159 0.360575 0.11455
H_ H_ 0.629481 0.0218166 0.348809 0.11455
H_ H_ 0.675646 0.42256 0.458776 0.11455
H_ H_ 0.671295 0.330355 0.454306 0.11455
H_ H_ 0.589309 0.349844 0.376269 0.11455
H_ H_ 0.562494 0.105414 0.464852 0.11455
H_ H_ 0.553707 0.0787838 0.0113894 0.11455
H_ H_ 0.592172 0.118583 0.0515108 0.11455
H_ H_ 0.69564 0.228396 0.469872 0.11455
H_ H_ 0.710414 0.303181 0.0149606 0.11455
H_ H_ 0.684489 0.280811 0.0637635 0.11455
H_ H_ 0.511836 0.208103 0.119272 0.11455
H_ H_ 0.494066 0.199577 0.170816 0.11455
H_ H_ 0.754259 0.163596 0.139493 0.11455
H_ H_ 0.743089 0.155773 0.190934 0.11455
H_ H_ 0.549697 0.100516 0.249296 0.11455
H_ H_ 0.525947 0.0792018 0.297507 0.11455
H_ H_ 0.55946 0.132737 0.338606 0.11455
H_ H_ 0.646814 0.256484 0.258566 0.11455
H_ H_ 0.663768 0.309431 0.301175 0.11455
H_ H_ 0.664451 0.270462 0.34777 0.11455
H_ H_ 0.68911 0.300204 0.192721 0.11455
H_ H_ 0.616498 0.325501 0.0981414 0.11455
H_ H_ 0.712748 0.327225 0.102997 0.11455
H_ H_ 0.605333 0.316949 0.217243 0.11455
H_ H_ 0.514093 0.32535 0.211997 0.11455
H_ H_ 0.530929 0.332501 0.117374 0.11455
H_ H_ 0.894321 0.475891 0.186586 0.11455
H_ H_ 0.888383 0.0675979 0.10011 0.11455
H_ H_ 0.839301 0.466215 0.0997335 0.11455
H_ H_ 0.856726 0.0648355 0.216684 0.11455
H_ H_ 0.855211 0.153954 0.211988 0.11455
H_ H_ 0.876495 0.148478 0.120972 0.11455
H_ H_ 0.909483 0.401322 0.213823 0.11455
H_ H_ 0.931439 0.427562 0.261479 0.11455
H_ H_ 0.890518 0.386317 0.304302 0.11455
H_ H_ 0.799568 0.26706 0.223012 0.11455
H_ H_ 0.7634 0.218742 0.261881 0.11455
H_ H_ 0.787598 0.242269 0.312641 0.11455
H_ H_ 0.979568 0.289754 0.369979 0.11455
H_ H_ -0.007797000000000054 0.28876 0.422301 0.11455
H_ H_ 0.737133 0.360547 0.384681 0.11455
H_ H_ 0.749969 0.36792 0.435361 0.11455
H_ H_ 0.938241 0.424362 0.496067 0.11455
H_ H_ 0.956235 0.420273 0.044999 0.11455
H_ H_ 0.924781 0.370182 0.0846263 0.11455
H_ H_ 0.829663 0.242512 0.00559632 0.11455
H_ H_ 0.797928 0.200071 0.0459255 0.11455
H_ H_ 0.810574 0.23202 0.0964672 0.11455
C_ C_ 0.718673 0.180009 0.404017 0.68181
C_ C_ 0.773689 0.183281 0.400117 -0.05681
C_ C_ 0.80724 0.183608 0.423017 -0.08735
C_ C_ 0.860102 0.186538 0.418488 -0.05681
C_ C_ 0.879636 0.193282 0.389927 -0.05681
C_ C_ 0.844434 0.192397 0.367052 -0.08735
C_ C_ 0.792373 0.181862 0.372015 -0.08735
C_ C_ 0.893562 0.17503 0.440845 -0.08735
C_ C_ 0.946347 0.173286 0.436605 -0.08735
C_ C_ 0.966768 0.179865 0.408792 -0.05681
C_ C_ 0.933405 0.190266 0.386302 -0.08735
C_ C_ 0.621537 0.278628 0.413519 0.68181
C_ C_ 0.624554 0.0804922 0.399457 0.68181
C_ C_ 0.626539 0.0253489 0.395947 -0.05681
C_ C_ 0.640491 0.492846 0.423908 -0.08735
C_ C_ 0.63134 0.439917 0.422399 -0.05681
C_ C_ 0.603807 0.418369 0.39895 -0.05681
C_ C_ 0.578586 0.449336 0.38046 -0.08735
C_ C_ 0.589076 0.503003 0.381328 -0.08735
C_ C_ 0.65593 0.40724 0.441013 -0.08735
C_ C_ 0.650877 0.354183 0.439055 -0.08735
C_ C_ 0.625161 0.332682 0.416072 -0.05681
C_ C_ 0.603184 0.364433 0.394969 -0.08735
C_ C_ 0.521388 0.173247 0.405814 0.68181
C_ C_ 0.585943 0.123439 0.482116 0.1947
C_ C_ 0.582476 0.10899 0.00759338 -0.08735
C_ C_ 0.604194 0.132541 0.0309573 -0.08735
C_ C_ 0.633643 0.178569 0.0271056 -0.05681
C_ C_ 0.646605 0.191838 0.998867 0.18498
C_ C_ 0.682985 0.221213 0.492175 -0.08735
C_ C_ 0.687405 0.270137 0.0178481 -0.08735
C_ C_ 0.674943 0.257363 0.0458992 -0.08735
C_ C_ 0.650522 0.209341 0.0503304 0.18498
C_ C_ 0.687352 0.184242 0.0984491 0.44287
C_ C_ 0.600468 0.20182 0.0918358 0.44287
C_ C_ 0.591403 0.192405 0.121346 -0.05681
C_ C_ 0.542443 0.196701 0.132177 -0.08735
C_ C_ 0.532873 0.19564 0.161831 -0.08735
C_ C_ 0.571925 0.185852 0.180576 -0.05681
C_ C_ 0.623295 0.182628 0.169348 -0.05681
C_ C_ 0.630995 0.185849 0.13976 -0.05681
C_ C_ 0.680021 0.183125 0.128172 -0.05681
C_ C_ 0.720441 0.177632 0.147845 -0.08735
C_ C_ 0.711778 0.17132 0.17717 -0.08735
C_ C_ 0.664932 0.174533 0.188655 -0.05681
C_ C_ 0.654923 0.172122 0.218387 0.44287
C_ C_ 0.566711 0.184961 0.210994 0.44287
C_ C_ 0.59685 0.164371 0.260091 0.18498
C_ C_ 0.567551 0.119941 0.266937 -0.08735
C_ C_ 0.558138 0.105202 0.294263 -0.08735
C_ C_ 0.574881 0.137751 0.316869 -0.08735
C_ C_ 0.608647 0.178233 0.31166 0.18498
C_ C_ 0.616847 0.194811 0.28338 -0.05681
C_ C_ 0.636357 0.243895 0.280077 -0.08735
C_ C_ 0.651125 0.271551 0.30319 -0.08735
C_ C_ 0.647921 0.249281 0.330499 0.1947
C_ C_ 0.761813 0.306097 0.152336 0.68181
C_ C_ 0.705453 0.315128 0.149256 -0.05681
C_ C_ 0.674553 0.315078 0.172954 -0.08735
C_ C_ 0.621663 0.326988 0.171087 -0.05681
C_ C_ 0.600153 0.330813 0.142446 -0.05681
C_ C_ 0.633196 0.326808 0.11838 -0.08735
C_ C_ 0.685088 0.323946 0.122082 -0.08735
C_ C_ 0.58941 0.324849 0.194978 -0.08735
C_ C_ 0.535492 0.325127 0.192038 -0.08735
C_ C_ 0.515645 0.321782 0.163508 -0.05681
C_ C_ 0.546066 0.328362 0.139636 -0.08735
C_ C_ 0.871426 0.214031 0.164721 0.68181
C_ C_ 0.861876 0.408628 0.14573 0.68181
C_ C_ 0.863407 0.463986 0.144259 -0.05681
C_ C_ 0.868927 -0.002134999999999998 0.171205 -0.08735
C_ C_ 0.866995 0.0520475 0.169717 -0.05681
C_ C_ 0.871168 0.0752802 0.143269 -0.05681
C_ C_ 0.876517 0.0467988 0.11888 -0.08735
C_ C_ 0.849071 0.487581 0.118279 -0.08735
C_ C_ 0.858238 0.0805819 0.194562 -0.08735
C_ C_ 0.859653 0.132117 0.192983 -0.08735
C_ C_ 0.868806 0.156606 0.166543 -0.05681
C_ C_ 0.871295 0.128995 0.141226 -0.08735
C_ C_ 0.961339 0.306227 0.158611 0.68181
C_ C_ 0.897035 0.376879 0.230926 0.1947
C_ C_ 0.906627 0.396536 0.259026 -0.08735
C_ C_ 0.882544 0.372821 0.282661 -0.08735
C_ C_ 0.852472 0.33193 0.278379 -0.05681
C_ C_ 0.839205 0.318763 0.249599 0.18498
C_ C_ 0.804948 0.278768 0.244969 -0.08735
C_ C_ 0.789458 0.247929 0.267404 -0.08735
C_ C_ 0.80146 0.261037 0.295269 -0.08735
C_ C_ 0.835763 0.301803 0.301091 0.18498
C_ C_ 0.808269 0.334481 0.347411 0.44287
C_ C_ 0.892997 0.308792 0.341492 0.44287
C_ C_ 0.902666 0.314453 0.370998 -0.05681
C_ C_ 0.949404 0.303647 0.383443 -0.08735
C_ C_ 0.955261 0.303292 0.413712 -0.08735
C_ C_ 0.917249 0.323113 0.431609 -0.05681
C_ C_ 0.871482 0.338808 0.418337 -0.05681
C_ C_ 0.863641 0.334917 0.388777 -0.05681
C_ C_ 0.814953 0.340082 0.376725 -0.05681
C_ C_ 0.776428 0.357515 0.393375 -0.08735
C_ C_ 0.782984 0.360033 0.422679 -0.08735
C_ C_ 0.829898 0.350491 0.435066 -0.05681
C_ C_ 0.836266 0.356396 0.464821 0.44287
C_ C_ 0.923298 0.331143 0.46189 0.44287
C_ C_ 0.887329 0.333292 0.00782699 0.18498
C_ C_ 0.920516 0.374417 0.0136655 -0.08735
C_ C_ 0.934053 0.386332 0.0413606 -0.08735
C_ C_ 0.908468 0.363353 0.0635683 -0.08735
C_ C_ 0.877391 0.320546 0.0588203 0.18498
C_ C_ 0.866916 0.30583 0.0303821 -0.05681
C_ C_ 0.8369 0.262226 0.026658 -0.08735
C_ C_ 0.816683 0.234938 0.0499345 -0.08735
C_ C_ 0.830892 0.24999 0.0775463 0.1947
N_ N_ 0.620663 0.15971 0.475501 -0.29468
N_ N_ 0.64659 0.191482 0.0798321 -0.17154
N_ N_ 0.605677 0.175352 0.229569 -0.17154
N_ N_ 0.625338 0.205903 0.334749 -0.29468
N_ N_ 0.861885 0.339194 0.226557 -0.29468
N_ N_ 0.845176 0.314019 0.331093 -0.17154
N_ N_ 0.883191 0.348328 0.477277 -0.17154
N_ N_ 0.859357 0.293079 0.0817654 -0.29468
O_ O_ 0.698177 0.17123 0.428566 -0.58347
O_ O_ 0.689541 0.191076 0.38357 -0.58347
O_ O_ 0.631471 0.250952 0.434897 -0.58347
O_ O_ 0.613143 0.258006 0.388805 -0.58347
O_ O_ 0.619807 0.100234 0.424219 -0.58347
O_ O_ 0.623338 0.109145 0.37817 -0.58347
O_ O_ 0.55113 0.174151 0.427628 -0.58347
O_ O_ 0.539105 0.184424 0.381601 -0.58347
O_ O_ 0.56369 0.224563 0.0769233 -0.46727
O_ O_ 0.730139 0.170809 0.086681 -0.46727
O_ O_ 0.523847 0.19975 0.221884 -0.46727
O_ O_ 0.6947 0.168399 0.237058 -0.46727
O_ O_ 0.782182 0.306153 0.176365 -0.58347
O_ O_ 0.7898 0.311373 0.130512 -0.58347
O_ O_ 0.872299 0.239015 0.187893 -0.58347
O_ O_ 0.862482 0.236335 0.14145 -0.58347
O_ O_ 0.855891 0.388095 0.16984 -0.58347
O_ O_ 0.872666 0.381903 0.124265 -0.58347
O_ O_ 0.93463 0.32351 0.177529 -0.58347
O_ O_ 0.942973 0.300933 0.133515 -0.58347
O_ O_ 0.928728 0.294612 0.32384 -0.46727
O_ O_ 0.763535 0.345292 0.335748 -0.46727
O_ O_ 0.968868 0.325966 0.473122 -0.46727
O_ O_ 0.795578 0.358292 0.481589 -0.46727
Zn Zn 0.617742 0.177205 0.879881 0.90689
Zn Zn 0.631132 0.176123 0.927717 0.90689
Zn Zn 0.86979 0.321461 0.62962 0.90689
Zn Zn 0.857913 0.328706 0.67731 0.90689
H_ H_ 0.795807 0.198481 0.943537 0.11455
H_ H_ 0.865633 0.165623 0.847937 0.11455
H_ H_ 0.773634 0.177759 0.854174 0.11455
H_ H_ 0.875967 0.187106 0.965008 0.11455
H_ H_ 0.963795 0.159309 0.958404 0.11455
H_ H_ 0.947784 0.160073 0.865585 0.11455
H_ H_ 0.643616 0.00953887 0.941456 0.11455
H_ H_ 0.624983 0.424846 0.849009 0.11455
H_ H_ 0.623148 0.0115317 0.849978 0.11455
H_ H_ 0.647333 0.419508 0.964533 0.11455
H_ H_ 0.652269 0.330782 0.959242 0.11455
H_ H_ 0.611405 0.34586 0.871725 0.11455
H_ H_ 0.584495 0.102006 0.961634 0.11455
H_ H_ 0.55414 0.0723505 0.513429 0.11455
H_ H_ 0.592372 0.119591 0.553855 0.11455
H_ H_ 0.686223 0.250892 0.972421 0.11455
H_ H_ 0.729401 0.278656 0.508097 0.11455
H_ H_ 0.708443 0.267032 0.559079 0.11455
H_ H_ 0.509315 0.199699 0.620316 0.11455
H_ H_ 0.494747 0.174576 0.670487 0.11455
H_ H_ 0.75874 0.152995 0.635601 0.11455
H_ H_ 0.747669 0.16086 0.687406 0.11455
H_ H_ 0.570685 0.0720108 0.747188 0.11455
H_ H_ 0.54651 0.0514074 0.797861 0.11455
H_ H_ 0.558221 0.116243 0.83575 0.11455
H_ H_ 0.648636 0.235043 0.752782 0.11455
H_ H_ 0.684513 0.283218 0.795535 0.11455
H_ H_ 0.676126 0.251979 0.842349 0.11455
H_ H_ 0.687734 0.301346 0.691691 0.11455
H_ H_ 0.623598 0.339538 0.592897 0.11455
H_ H_ 0.710489 0.335371 0.60282 0.11455
H_ H_ 0.600611 0.292256 0.710593 0.11455
H_ H_ 0.512142 0.306376 0.704208 0.11455
H_ H_ 0.533235 0.333621 0.613856 0.11455
H_ H_ 0.839061 0.493272 0.689374 0.11455
H_ H_ 0.870117 0.0680311 0.597917 0.11455
H_ H_ 0.838009 0.478283 0.601055 0.11455
H_ H_ 0.891052 0.0751213 0.713602 0.11455
H_ H_ 0.901271 0.172417 0.709984 0.11455
H_ H_ 0.864083 0.152479 0.620891 0.11455
H_ H_ 0.901135 0.4103 0.713144 0.11455
H_ H_ 0.924392 0.434905 0.761811 0.11455
H_ H_ 0.883726 0.388168 0.801882 0.11455
H_ H_ 0.807563 0.254167 0.719745 0.11455
H_ H_ 0.781698 0.199459 0.760286 0.11455
H_ H_ 0.798858 0.226711 0.808947 0.11455
H_ H_ 0.980208 0.295891 0.865948 0.11455
H_ H_ -0.009923000000000015 0.282752 0.920482 0.11455
H_ H_ 0.730168 0.322583 0.88634 0.11455
H_ H_ 0.740408 0.322145 0.93708 0.11455
H_ H_ 0.941544 0.394911 0.997974 0.11455
H_ H_ 0.952897 0.447345 0.544955 0.11455
H_ H_ 0.924626 0.397687 0.584876 0.11455
H_ H_ 0.848125 0.269386 0.501947 0.11455
H_ H_ 0.811246 0.220159 0.541654 0.11455
H_ H_ 0.82518 0.2481 0.591429 0.11455
C_ C_ 0.719166 0.184521 0.901423 0.68181
C_ C_ 0.774308 0.183423 0.899546 -0.05681
C_ C_ 0.80801 0.186231 0.922884 -0.08735
C_ C_ 0.86039 0.178905 0.920517 -0.05681
C_ C_ 0.881636 0.175378 0.892415 -0.05681
C_ C_ 0.848565 0.17165 0.869354 -0.08735
C_ C_ 0.796664 0.180923 0.872878 -0.08735
C_ C_ 0.89314 0.179846 0.943604 -0.08735
C_ C_ 0.945151 0.170314 0.939742 -0.08735
C_ C_ 0.966399 0.16649 0.911629 -0.05681
C_ C_ 0.934107 0.167267 0.887805 -0.08735
C_ C_ 0.618504 0.273249 0.912622 0.68181
C_ C_ 0.626665 0.0751546 0.897387 0.68181
C_ C_ 0.627055 0.0182207 0.895996 -0.05681
C_ C_ 0.653951 0.487377 0.922387 -0.08735
C_ C_ 0.644542 0.435255 0.920722 -0.05681
C_ C_ 0.636259 0.413186 0.893945 -0.05681
C_ C_ 0.634113 0.441638 0.869651 -0.08735
C_ C_ 0.640879 0.494385 0.871132 -0.08735
C_ C_ 0.645749 0.403492 0.944378 -0.08735
C_ C_ 0.63955 0.351632 0.941245 -0.08735
C_ C_ 0.625521 0.328952 0.915167 -0.05681
C_ C_ 0.623349 0.360622 0.891774 -0.08735
C_ C_ 0.524758 0.180613 0.908218 0.68181
C_ C_ 0.598668 0.122042 0.980379 0.1947
C_ C_ 0.577934 0.108826 0.509494 -0.08735
C_ C_ 0.601034 0.133238 0.532319 -0.08735
C_ C_ 0.632366 0.175584 0.526946 -0.05681
C_ C_ 0.645192 0.18447 0.497964 0.18498
C_ C_ 0.675418 0.238419 0.994783 -0.08735
C_ C_ 0.701414 0.251051 0.51429 -0.08735
C_ C_ 0.688176 0.244913 0.542317 -0.08735
C_ C_ 0.652332 0.207227 0.549231 0.18498
C_ C_ 0.685908 0.182265 0.596597 0.44287
C_ C_ 0.597038 0.190709 0.589106 0.44287
C_ C_ 0.58926 0.182816 0.619134 -0.05681
C_ C_ 0.539663 0.185282 0.631964 -0.08735
C_ C_ 0.533116 0.175369 0.661085 -0.08735
C_ C_ 0.575466 0.16803 0.679664 -0.05681
C_ C_ 0.62357 0.170055 0.668431 -0.05681
C_ C_ 0.630004 0.177334 0.637636 -0.05681
C_ C_ 0.679404 0.18014 0.626844 -0.05681
C_ C_ 0.722112 0.169392 0.644555 -0.08735
C_ C_ 0.716061 0.16387 0.67463 -0.08735
C_ C_ 0.665798 0.166458 0.687524 -0.05681
C_ C_ 0.656476 0.159435 0.717112 0.44287
C_ C_ 0.568695 0.16117 0.709878 0.44287
C_ C_ 0.600544 0.146047 0.757992 0.18498
C_ C_ 0.580653 0.0981477 0.764703 -0.08735
C_ C_ 0.56537 0.0860071 0.792599 -0.08735
C_ C_ 0.574042 0.121902 0.814388 -0.08735
C_ C_ 0.60427 0.165519 0.8089 0.18498
C_ C_ 0.6147 0.179763 0.780014 -0.05681
C_ C_ 0.64084 0.224363 0.775167 -0.08735
C_ C_ 0.663332 0.249794 0.798071 -0.08735
C_ C_ 0.65401 0.233517 0.825414 0.1947
C_ C_ 0.76509 0.314468 0.651264 0.68181
C_ C_ 0.70775 0.316127 0.647787 -0.05681
C_ C_ 0.672448 0.306329 0.67101 -0.08735
C_ C_ 0.62021 0.305081 0.665952 -0.05681
C_ C_ 0.600059 0.316949 0.638062 -0.05681
C_ C_ 0.635511 0.329004 0.615185 -0.08735
C_ C_ 0.687653 0.321869 0.620197 -0.08735
C_ C_ 0.587017 0.299779 0.689143 -0.08735
C_ C_ 0.53591 0.31405 0.68664 -0.08735
C_ C_ 0.515694 0.323389 0.65989 -0.05681
C_ C_ 0.548277 0.326876 0.63557 -0.08735
C_ C_ 0.880309 0.227899 0.661306 0.68181
C_ C_ 0.851589 0.421491 0.647807 0.68181
C_ C_ 0.851052 0.477629 0.645053 -0.05681
C_ C_ 0.873384 0.0108104 0.674611 -0.08735
C_ C_ 0.875847 0.0638367 0.671525 -0.05681
C_ C_ 0.876277 0.0851939 0.644209 -0.05681
C_ C_ 0.871689 0.054091 0.619756 -0.08735
C_ C_ 0.847986 0.501886 0.618058 -0.08735
C_ C_ 0.88798 0.0948972 0.694578 -0.08735
C_ C_ 0.89188 0.148007 0.69195 -0.08735
C_ C_ 0.884066 0.171351 0.664515 -0.05681
C_ C_ 0.875735 0.137914 0.64069 -0.08735
C_ C_ 0.962861 0.336346 0.656195 0.68181
C_ C_ 0.885539 0.387012 0.729632 0.1947
C_ C_ 0.898896 0.401877 0.757979 -0.08735
C_ C_ 0.878473 0.372626 0.781072 -0.08735
C_ C_ 0.853485 0.327307 0.776097 -0.05681
C_ C_ 0.844504 0.31216 0.747027 0.18498
C_ C_ 0.817417 0.265826 0.741291 -0.08735
C_ C_ 0.801864 0.234125 0.764609 -0.08735
C_ C_ 0.815526 0.248377 0.791573 -0.08735
C_ C_ 0.836411 0.294626 0.79788 0.18498
C_ C_ 0.804156 0.313284 0.845667 0.44287
C_ C_ 0.891192 0.294018 0.839697 0.44287
C_ C_ 0.898263 0.29769 0.868915 -0.05681
C_ C_ 0.94569 0.29089 0.881059 -0.08735
C_ C_ 0.953341 0.290438 0.91162 -0.08735
C_ C_ 0.91217 0.304165 0.929428 -0.05681
C_ C_ 0.864008 0.313917 0.917915 -0.05681
C_ C_ 0.856503 0.305711 0.887296 -0.05681
C_ C_ 0.806842 0.311404 0.875848 -0.05681
C_ C_ 0.765741 0.318384 0.894872 -0.08735
C_ C_ 0.773098 0.324895 0.924056 -0.08735
C_ C_ 0.821827 0.321413 0.936277 -0.05681
C_ C_ 0.830213 0.326747 0.965861 0.44287
C_ C_ 0.918355 0.310057 0.960026 0.44287
C_ C_ 0.8922 0.36021 0.507141 0.18498
C_ C_ 0.919383 0.404794 0.513076 -0.08735
C_ C_ 0.934392 0.413537 0.540517 -0.08735
C_ C_ 0.917088 0.383372 0.564152 -0.08735
C_ C_ 0.885337 0.34069 0.559327 0.18498
C_ C_ 0.879709 0.325988 0.529109 -0.05681
C_ C_ 0.859998 0.277653 0.523266 -0.08735
C_ C_ 0.841077 0.248017 0.545715 -0.08735
C_ C_ 0.848018 0.263385 0.574721 0.1947
N_ N_ 0.627756 0.165007 0.976168 -0.29468
N_ N_ 0.645741 0.191915 0.578411 -0.17154
N_ N_ 0.607973 0.157758 0.727606 -0.17154
N_ N_ 0.62139 0.194764 0.83052 -0.29468
N_ N_ 0.861949 0.340749 0.724408 -0.29468
N_ N_ 0.845787 0.305352 0.827715 -0.17154
N_ N_ 0.877684 0.320051 0.977418 -0.17154
N_ N_ 0.869756 0.309583 0.581123 -0.29468
O_ O_ 0.700261 0.190612 0.926595 -0.58347
O_ O_ 0.692184 0.171774 0.880799 -0.58347
O_ O_ 0.622846 0.24858 0.935502 -0.58347
O_ O_ 0.627329 0.252041 0.888129 -0.58347
O_ O_ 0.643532 0.0991007 0.919247 -0.58347
O_ O_ 0.614219 0.100371 0.874826 -0.58347
O_ O_ 0.556523 0.16745 0.927649 -0.58347
O_ O_ 0.541587 0.185487 0.88267 -0.58347
O_ O_ 0.559033 0.201978 0.571456 -0.46727
O_ O_ 0.73167 0.1829 0.586198 -0.46727
O_ O_ 0.52353 0.150576 0.719172 -0.46727
O_ O_ 0.693636 0.149182 0.734479 -0.46727
O_ O_ 0.783594 0.314146 0.676186 -0.58347
O_ O_ 0.793704 0.313287 0.628417 -0.58347
O_ O_ 0.875561 0.25704 0.682452 -0.58347
O_ O_ 0.879254 0.246261 0.636604 -0.58347
O_ O_ 0.844726 0.400207 0.672123 -0.58347
O_ O_ 0.861305 0.393683 0.626326 -0.58347
O_ O_ 0.933716 0.349474 0.67577 -0.58347
O_ O_ 0.946157 0.330523 0.630671 -0.58347
O_ O_ 0.926832 0.27275 0.823996 -0.46727
O_ O_ 0.758616 0.317196 0.835552 -0.46727
O_ O_ 0.964149 0.30656 0.972088 -0.46727
O_ O_ 0.790971 0.338997 0.980891 -0.46727
Zn Zn 0.624075 0.68363 0.381316 0.90689
Zn Zn 0.635399 0.679931 0.430188 0.90689
Zn Zn 0.872117 0.81008 0.13146 0.90689
Zn Zn 0.862466 0.810728 0.178606 0.90689
H_ H_ 0.800734 0.685515 0.44714 0.11455
H_ H_ 0.867286 0.648012 0.354068 0.11455
H_ H_ 0.780435 0.669866 0.357958 0.11455
H_ H_ 0.886199 0.68746 0.468234 0.11455
H_ H_ 0.975601 0.705593 0.459389 0.11455
H_ H_ 0.956074 0.662815 0.370189 0.11455
H_ H_ 0.660298 0.51109 0.442169 0.11455
H_ H_ 0.639481 0.929593 0.344343 0.11455
H_ H_ 0.570901 0.529056 0.366668 0.11455
H_ H_ 0.626518 0.925187 0.462926 0.11455
H_ H_ 0.62958 0.832339 0.458044 0.11455
H_ H_ 0.632959 0.84505 0.366697 0.11455
H_ H_ 0.597939 0.593288 0.466311 0.11455
H_ H_ 0.565594 0.568742 0.0157236 0.11455
H_ H_ 0.598594 0.613779 0.0541161 0.11455
H_ H_ 0.685783 0.74768 0.472856 0.11455
H_ H_ 0.730129 0.781423 0.0121804 0.11455
H_ H_ 0.691933 0.773574 0.061567 0.11455
H_ H_ 0.507564 0.699198 0.123683 0.11455
H_ H_ 0.494066 0.686515 0.176525 0.11455
H_ H_ 0.758897 0.66198 0.137259 0.11455
H_ H_ 0.750239 0.65692 0.190854 0.11455
H_ H_ 0.581948 0.567768 0.255964 0.11455
H_ H_ 0.546656 0.558744 0.303492 0.11455
H_ H_ 0.55247 0.626317 0.338776 0.11455
H_ H_ 0.663619 0.733866 0.25598 0.11455
H_ H_ 0.705391 0.778507 0.297398 0.11455
H_ H_ 0.684124 0.749387 0.344505 0.11455
H_ H_ 0.695756 0.811477 0.196026 0.11455
H_ H_ 0.62254 0.835358 0.0985313 0.11455
H_ H_ 0.713482 0.827884 0.10541 0.11455
H_ H_ 0.607609 0.801294 0.213066 0.11455
H_ H_ 0.51936 0.822185 0.208512 0.11455
H_ H_ 0.537669 0.809974 0.11665 0.11455
H_ H_ 0.863175 0.980292 0.191544 0.11455
H_ H_ 0.839521 0.556622 0.0954772 0.11455
H_ H_ 0.894918 0.972923 0.102612 0.11455
H_ H_ 0.922745 0.565095 0.205135 0.11455
H_ H_ 0.915105 0.654954 0.202925 0.11455
H_ H_ 0.841068 0.640118 0.119321 0.11455
H_ H_ 0.929785 0.878382 0.211101 0.11455
H_ H_ 0.945338 0.911063 0.260212 0.11455
H_ H_ 0.901023 0.874394 0.301352 0.11455
H_ H_ 0.800278 0.754068 0.220457 0.11455
H_ H_ 0.768964 0.706908 0.26115 0.11455
H_ H_ 0.795314 0.723347 0.309548 0.11455
H_ H_ 0.988084 0.791038 0.368417 0.11455
H_ H_ 0.0040475 0.811713 0.419673 0.11455
H_ H_ 0.739632 0.837802 0.388532 0.11455
H_ H_ 0.752066 0.819255 0.439017 0.11455
H_ H_ 0.935731 0.914515 0.498012 0.11455
H_ H_ 0.96674 0.923077 0.0427031 0.11455
H_ H_ 0.931833 0.873955 0.0858246 0.11455
H_ H_ 0.850687 0.741879 0.00694793 0.11455
H_ H_ 0.800062 0.709028 0.047573 0.11455
H_ H_ 0.812112 0.737461 0.0944535 0.11455
C_ C_ 0.726775 0.679994 0.406462 0.68181
C_ C_ 0.781784 0.67748 0.402664 -0.05681
C_ C_ 0.81459 0.686229 0.425942 -0.08735
C_ C_ 0.867799 0.683226 0.422598 -0.05681
C_ C_ 0.888461 0.673298 0.395139 -0.05681
C_ C_ 0.85418 0.668241 0.371903 -0.08735
C_ C_ 0.802594 0.674428 0.376077 -0.08735
C_ C_ 0.899604 0.684574 0.446828 -0.08735
C_ C_ 0.95032 0.693794 0.441556 -0.08735
C_ C_ 0.972735 0.680369 0.415441 -0.05681
C_ C_ 0.940222 0.672475 0.391331 -0.08735
C_ C_ 0.626051 0.779039 0.410702 0.68181
C_ C_ 0.628484 0.578762 0.402553 0.68181
C_ C_ 0.617905 0.524203 0.403077 -0.05681
C_ C_ 0.629341 0.994048 0.419946 -0.08735
C_ C_ 0.631568 0.940693 0.417158 -0.05681
C_ C_ 0.635292 0.917635 0.389845 -0.05681
C_ C_ 0.635038 0.947929 0.36582 -0.08735
C_ C_ 0.627467 0.999724567 0.368391 -0.08735
C_ C_ 0.629474 0.910346 0.442037 -0.08735
C_ C_ 0.626898 0.857359 0.43888 -0.08735
C_ C_ 0.627761 0.833193 0.41211 -0.05681
C_ C_ 0.636091 0.862857 0.388174 -0.08735
C_ C_ 0.529565 0.6792 0.409932 0.68181
C_ C_ 0.614565 0.61662 0.483211 0.1947
C_ C_ 0.594779 0.598267 0.0118418 -0.08735
C_ C_ 0.614533 0.623699 0.0347823 -0.08735
C_ C_ 0.646056 0.664342 0.0307628 -0.05681
C_ C_ 0.660452 0.676911 1.00195484 0.18498
C_ C_ 0.672772 0.741492 0.493711 -0.08735
C_ C_ 0.706328 0.749892 0.0178498 -0.08735
C_ C_ 0.682748 0.745331 0.0443697 -0.08735
C_ C_ 0.65427 0.703188 0.051621 0.18498
C_ C_ 0.68681 0.684906 0.0994252 0.44287
C_ C_ 0.598455 0.699189 0.0946732 0.44287
C_ C_ 0.590487 0.694383 0.12429 -0.05681
C_ C_ 0.541934 0.697518 0.137064 -0.08735
C_ C_ 0.533235 0.689804 0.167119 -0.08735
C_ C_ 0.575623 0.677951 0.184266 -0.05681
C_ C_ 0.624534 0.673247 0.17204 -0.05681
C_ C_ 0.633726 0.680887 0.142748 -0.05681
C_ C_ 0.681003 0.676981 0.129234 -0.05681
C_ C_ 0.722729 0.666257 0.147132 -0.08735
C_ C_ 0.717412 0.664199 0.177522 -0.08735
C_ C_ 0.666961 0.663782 0.189258 -0.05681
C_ C_ 0.660548 0.656541 0.218757 0.44287
C_ C_ 0.570282 0.672831 0.214088 0.44287
C_ C_ 0.603352 0.647443 0.260641 0.18498
C_ C_ 0.577999 0.60282 0.269733 -0.08735
C_ C_ 0.56352 0.595177 0.297785 -0.08735
C_ C_ 0.574106 0.629541 0.318372 -0.08735
C_ C_ 0.606474 0.671887 0.311728 0.18498
C_ C_ 0.617313 0.682553 0.282138 -0.05681
C_ C_ 0.651466 0.724653 0.276841 -0.08735
C_ C_ 0.67618 0.746509 0.300515 -0.08735
C_ C_ 0.665386 0.731294 0.328037 0.1947
C_ C_ 0.769676 0.812201 0.154453 0.68181
C_ C_ 0.713009 0.813484 0.149552 -0.05681
C_ C_ 0.681226 0.809609 0.17382 -0.08735
C_ C_ 0.627807 0.810271 0.170142 -0.05681
C_ C_ 0.607366 0.812473 0.141555 -0.05681
C_ C_ 0.637946 0.824219 0.118758 -0.08735
C_ C_ 0.690535 0.821461 0.1227 -0.08735
C_ C_ 0.596184 0.811932 0.192612 -0.08735
C_ C_ 0.544154 0.82243 0.189709 -0.08735
C_ C_ 0.522355 0.821397 0.161682 -0.05681
C_ C_ 0.554886 0.813863 0.138142 -0.08735
C_ C_ 0.874023 0.713646 0.161524 0.68181
C_ C_ 0.867842 0.909882 0.147943 0.68181
C_ C_ 0.870549 0.967194 0.145725 -0.05681
C_ C_ 0.883095 0.494542 0.167066 -0.08735
C_ C_ 0.887978 0.548173 0.163734 -0.05681
C_ C_ 0.866531 0.572235 0.138945 -0.05681
C_ C_ 0.853461 0.53983 0.115135 -0.08735
C_ C_ 0.879792 0.994396 0.120301 -0.08735
C_ C_ 0.90403 0.579965 0.186762 -0.08735
C_ C_ 0.898827 0.632309 0.185722 -0.08735
C_ C_ 0.875869 0.656772 0.161683 -0.05681
C_ C_ 0.85763 0.624568 0.138773 -0.08735
C_ C_ 0.964854 0.809675 0.157761 0.68181
C_ C_ 0.903816 0.869413 0.228798 0.1947
C_ C_ 0.911678 0.888076 0.2562 -0.08735
C_ C_ 0.890368 0.861845 0.279105 -0.08735
C_ C_ 0.860146 0.819459 0.275161 -0.05681
C_ C_ 0.847763 0.805316 0.246771 0.18498
C_ C_ 0.809185 0.769367 0.24211 -0.08735
C_ C_ 0.794132 0.739085 0.263927 -0.08735
C_ C_ 0.808842 0.747489 0.292315 -0.08735
C_ C_ 0.840538 0.790098 0.298745 0.18498
C_ C_ 0.811058 0.816046 0.346634 0.44287
C_ C_ 0.897637 0.792205 0.340864 0.44287
C_ C_ 0.906716 0.804249 0.370483 -0.05681
C_ C_ 0.955253 0.799924 0.381799 -0.08735
C_ C_ 0.964678 0.812227 0.41093 -0.08735
C_ C_ 0.922479 0.814465 0.42927 -0.05681
C_ C_ 0.873204 0.817876 0.418379 -0.05681
C_ C_ 0.865846 0.812545 0.388004 -0.05681
C_ C_ 0.816936 0.8194 0.376047 -0.05681
C_ C_ 0.777596 0.82836 0.395524 -0.08735
C_ C_ 0.78323 0.82334 0.424839 -0.08735
C_ C_ 0.831617 0.822848 0.437384 -0.05681
C_ C_ 0.841562 0.827765 0.46705 0.44287
C_ C_ 0.929623 0.821752 0.458929 0.44287
C_ C_ 0.911476 0.82317 0.00876618 0.18498
C_ C_ 0.942742 0.866435 0.0126093 -0.08735
C_ C_ 0.948318 0.885528 0.0402731 -0.08735
C_ C_ 0.924859 0.861052 0.0640033 -0.08735
C_ C_ 0.896486 0.814543 0.0610588 0.18498
C_ C_ 0.891172 0.79505 0.0322242 -0.05681
C_ C_ 0.861064 0.752554 0.0284858 -0.08735
C_ C_ 0.83338 0.731656 0.0517937 -0.08735
C_ C_ 0.84226 0.749947 0.0789385 0.1947
N_ N_ 0.641887 0.659027 0.477534 -0.29468
N_ N_ 0.646014 0.69423 0.0823306 -0.17154
N_ N_ 0.6115 0.658681 0.230112 -0.17154
N_ N_ 0.631696 0.693845 0.333735 -0.29468
N_ N_ 0.870183 0.831471 0.224112 -0.29468
N_ N_ 0.851402 0.801857 0.329417 -0.17154
N_ N_ 0.890094 0.828544 0.478116 -0.17154
N_ N_ 0.872972 0.790919 0.0840721 -0.29468
O_ O_ 0.70786 0.690371 0.43008 -0.58347
O_ O_ 0.699874 0.673734 0.384606 -0.58347
O_ O_ 0.622716 0.752301 0.432676 -0.58347
O_ O_ 0.634737 0.757291 0.386383 -0.58347
O_ O_ 0.646876 0.601029 0.424721 -0.58347
O_ O_ 0.618996 0.606676 0.380157 -0.58347
O_ O_ 0.558175 0.668296 0.431118 -0.58347
O_ O_ 0.548556 0.685293 0.385173 -0.58347
O_ O_ 0.558763 0.709825 0.0784436 -0.46727
O_ O_ 0.732071 0.687337 0.0884604 -0.46727
O_ O_ 0.526498 0.685806 0.225944 -0.46727
O_ O_ 0.698346 0.645519 0.235195 -0.46727
O_ O_ 0.78684 0.817261 0.179191 -0.58347
O_ O_ 0.798453 0.802386 0.132969 -0.58347
O_ O_ 0.863886 0.737051 0.184913 -0.58347
O_ O_ 0.877383 0.736228 0.13797 -0.58347
O_ O_ 0.859828 0.888627 0.171471 -0.58347
O_ O_ 0.870689 0.883596 0.126176 -0.58347
O_ O_ 0.934902 0.8093 0.17835 -0.58347
O_ O_ 0.948037 0.812381 0.132106 -0.58347
O_ O_ 0.933944 0.780557 0.323672 -0.46727
O_ O_ 0.766366 0.820844 0.335199 -0.46727
O_ O_ 0.975609 0.824223 0.467781 -0.46727
O_ O_ 0.803641 0.83719 0.484304 -0.46727
Zn Zn 0.641795 0.676618 0.885614 0.90689
Zn Zn 0.650975 0.670728 0.933282 0.90689
Zn Zn 0.884397 0.818067 0.630314 0.90689
Zn Zn 0.872923 0.824838 0.67952 0.90689
H_ H_ 0.821491 0.66896 0.945309 0.11455
H_ H_ 0.883091 0.668123 0.843327 0.11455
H_ H_ 0.793499 0.668387 0.85497 0.11455
H_ H_ 0.906254 0.663155 0.959893 0.11455
H_ H_ 0.996628 0.651275 0.952866 0.11455
H_ H_ 0.975238 0.676819 0.863643 0.11455
H_ H_ 0.666027 0.502114 0.943281 0.11455
H_ H_ 0.597659 0.91761 0.851686 0.11455
H_ H_ 0.643176 0.515491 0.851825 0.11455
H_ H_ 0.666113 0.925291 0.96379 0.11455
H_ H_ 0.655777 0.832782 0.964608 0.11455
H_ H_ 0.604533 0.839055 0.873806 0.11455
H_ H_ 0.595217 0.588834 0.965588 0.11455
H_ H_ 0.593679 0.56124 0.51623 0.11455
H_ H_ 0.606137 0.624379 0.55455 0.11455
H_ H_ 0.713788 0.719398 0.975816 0.11455
H_ H_ 0.712879 0.808152 0.508464 0.11455
H_ H_ 0.704523 0.776127 0.560025 0.11455
H_ H_ 0.513217 0.719335 0.620461 0.11455
H_ H_ 0.499683 0.708822 0.673721 0.11455
H_ H_ 0.76289 0.675752 0.637386 0.11455
H_ H_ 0.749442 0.671336 0.688439 0.11455
H_ H_ 0.579263 0.589475 0.746953 0.11455
H_ H_ 0.552855 0.56454 0.794286 0.11455
H_ H_ 0.58493 0.608913 0.837057 0.11455
H_ H_ 0.645331 0.758239 0.763519 0.11455
H_ H_ 0.692295 0.793992 0.802547 0.11455
H_ H_ 0.692432 0.751259 0.850159 0.11455
H_ H_ 0.70879 0.839365 0.693079 0.11455
H_ H_ 0.637277 0.84416 0.596414 0.11455
H_ H_ 0.732338 0.83405 0.604231 0.11455
H_ H_ 0.62286 0.836595 0.713129 0.11455
H_ H_ 0.529479 0.833861 0.704587 0.11455
H_ H_ 0.555857 0.833711 0.613588 0.11455
H_ H_ 0.867481 0.996106 0.694748 0.11455
H_ H_ 0.854263 0.568643 0.592344 0.11455
H_ H_ 0.860068 0.980224 0.603675 0.11455
H_ H_ 0.848276 0.577545 0.71112 0.11455
H_ H_ 0.86331 0.663677 0.707657 0.11455
H_ H_ 0.869843 0.654657 0.614149 0.11455
H_ H_ 0.924285 0.894593 0.714344 0.11455
H_ H_ 0.943516 0.919249 0.764288 0.11455
H_ H_ 0.908673 0.870356 0.806221 0.11455
H_ H_ 0.813533 0.754044 0.723237 0.11455
H_ H_ 0.785916 0.699843 0.760896 0.11455
H_ H_ 0.803857 0.722294 0.811751 0.11455
H_ H_ 0.994937 0.775842 0.869464 0.11455
H_ H_ 1.00688571 0.770239 0.921996 0.11455
H_ H_ 0.752625 0.844904 0.890042 0.11455
H_ H_ 0.764424 0.845633 0.940126 0.11455
H_ H_ 0.953189 0.892861 0.995256 0.11455
H_ H_ 0.943513 0.940141 0.546658 0.11455
H_ H_ 0.93339 0.882036 0.585964 0.11455
H_ H_ 0.844728 0.754754 0.508787 0.11455
H_ H_ 0.821503 0.703197 0.548811 0.11455
H_ H_ 0.83061 0.738368 0.596716 0.11455
C_ C_ 0.746172 0.679731 0.906579 0.68181
C_ C_ 0.801075 0.675791 0.89952 -0.05681
C_ C_ 0.834922 0.671422 0.922608 -0.08735
C_ C_ 0.886792 0.661206 0.916067 -0.05681
C_ C_ 0.905539 0.665079 0.888611 -0.05681
C_ C_ 0.871976 0.666649 0.864922 -0.08735
C_ C_ 0.820099 0.668704 0.870668 -0.08735
C_ C_ 0.919686 0.656596 0.938618 -0.08735
C_ C_ 0.971329 0.655464 0.935235 -0.08735
C_ C_ 0.992263 0.662973 0.907195 -0.05681
C_ C_ 0.959141 0.667946 0.884143 -0.08735
C_ C_ 0.636302 0.770837 0.916284 0.68181
C_ C_ 0.655605 0.575715 0.899055 0.68181
C_ C_ 0.655139 0.517979 0.896708 -0.05681
C_ C_ 0.635509 -0.00984700000000005 0.920646 -0.08735
C_ C_ 0.634855 0.936217 0.920271 -0.05681
C_ C_ 0.62497 0.911239 0.895514 -0.05681
C_ C_ 0.619143 0.937611 0.869555 -0.08735
C_ C_ 0.623509 -0.008986999999999967 0.869649 -0.08735
C_ C_ 0.649428 0.906699 0.945826 -0.08735
C_ C_ 0.648899 0.854326 0.944983 -0.08735
C_ C_ 0.629787 0.829228 0.919805 -0.05681
C_ C_ 0.61663 0.858461 0.894904 -0.08735
C_ C_ 0.547185 0.668557 0.911906 0.68181
C_ C_ 0.612442 0.607981 0.984385 0.1947
C_ C_ 0.608924 0.599351 0.511582 -0.08735
C_ C_ 0.616918 0.635473 0.533564 -0.08735
C_ C_ 0.641945 0.681379 0.528562 -0.05681
C_ C_ 0.650929 0.694529 0.498777 0.18498
C_ C_ 0.695939 0.714318 0.996496 -0.08735
C_ C_ 0.693336 0.772223 0.514521 -0.08735
C_ C_ 0.681222 0.760452 0.543319 -0.08735
C_ C_ 0.654041 0.717022 0.5511 0.18498
C_ C_ 0.684623 0.688256 0.596988 0.44287
C_ C_ 0.596842 0.71031 0.591965 0.44287
C_ C_ 0.59089 0.706544 0.622069 -0.05681
C_ C_ 0.543582 0.712466 0.635348 -0.08735
C_ C_ 0.537519 0.709878 0.666113 -0.08735
C_ C_ 0.579972 0.695651 0.683888 -0.05681
C_ C_ 0.626678 0.688037 0.670596 -0.05681
C_ C_ 0.631789 0.692646 0.639626 -0.05681
C_ C_ 0.680215 0.684686 0.626806 -0.05681
C_ C_ 0.722859 0.675683 0.645622 -0.08735
C_ C_ 0.717687 0.679672 0.675558 -0.08735
C_ C_ 0.670348 0.68402 0.688287 -0.05681
C_ C_ 0.664429 0.679532 0.718675 0.44287
C_ C_ 0.576522 0.693907 0.713872 0.44287
C_ C_ 0.611929 0.66136 0.760354 0.18498
C_ C_ 0.587121 0.614034 0.764292 -0.08735
C_ C_ 0.574928 0.597616 0.792208 -0.08735
C_ C_ 0.592633 0.623425 0.816685 -0.08735
C_ C_ 0.622627 0.667288 0.812897 0.18498
C_ C_ 0.628822 0.687864 0.785322 -0.05681
C_ C_ 0.652139 0.734242 0.781902 -0.08735
C_ C_ 0.674281 0.756419 0.805599 -0.08735
C_ C_ 0.672875 0.73332 0.832121 0.1947
C_ C_ 0.780026 0.825931 0.654047 0.68181
C_ C_ 0.725561 0.832191 0.649276 -0.05681
C_ C_ 0.693635 0.832767 0.672329 -0.08735
C_ C_ 0.641619 0.841644 0.669197 -0.05681
C_ C_ 0.620161 0.840047 0.640625 -0.05681
C_ C_ 0.653844 0.841858 0.617328 -0.08735
C_ C_ 0.706539 0.841426 0.621618 -0.08735
C_ C_ 0.607803 0.841382 0.692366 -0.08735
C_ C_ 0.554586 0.835432 0.687042 -0.08735
C_ C_ 0.533881 0.83517 0.658982 -0.05681
C_ C_ 0.569012 0.834348 0.635107 -0.08735
C_ C_ 0.877747 0.724334 0.659283 0.68181
C_ C_ 0.874372 0.922143 0.65287 0.68181
C_ C_ 0.873488 0.978508 0.649883 -0.05681
C_ C_ 0.845677 0.508537 0.668089 -0.08735
C_ C_ 0.849643 0.562737 0.665443 -0.05681
C_ C_ 0.852572 0.586336 0.638532 -0.05681
C_ C_ 0.854204 0.554016 0.614216 -0.08735
C_ C_ 0.871443 1.000679444 0.622486 -0.08735
C_ C_ 0.851735 0.592933 0.689749 -0.08735
C_ C_ 0.865063 0.642577 0.68799 -0.08735
C_ C_ 0.868765 0.667885 0.661889 -0.05681
C_ C_ 0.862105 0.638223 0.635959 -0.08735
C_ C_ 0.977333 0.827206 0.657431 0.68181
C_ C_ 0.907687 0.872591 0.73311 0.1947
C_ C_ 0.923344 0.884169 0.760053 -0.08735
C_ C_ 0.901663 0.85804 0.78375 -0.08735
C_ C_ 0.86888 0.818157 0.779008 -0.05681
C_ C_ 0.857183 0.805459 0.750175 0.18498
C_ C_ 0.826897 0.763337 0.744068 -0.08735
C_ C_ 0.805643 0.733797 0.765684 -0.08735
C_ C_ 0.818915 0.745762 0.794101 -0.08735
C_ C_ 0.848566 0.788525 0.800848 0.18498
C_ C_ 0.821478 0.819683 0.847874 0.44287
C_ C_ 0.904358 0.78569 0.843078 0.44287
C_ C_ 0.915657 0.793221 0.87166 -0.05681
C_ C_ 0.965289 0.7838 0.883332 -0.08735
C_ C_ 0.971541 0.784212 0.913125 -0.08735
C_ C_ 0.931637 0.793377 0.932395 -0.05681
C_ C_ 0.884599 0.808005 0.920189 -0.05681
C_ C_ 0.875838 0.811061 0.890109 -0.05681
C_ C_ 0.827422 0.821078 0.877606 -0.05681
C_ C_ 0.78889 0.83547 0.897229 -0.08735
C_ C_ 0.796204 0.832515 0.926777 -0.08735
C_ C_ 0.844852 0.822132 0.939034 -0.05681
C_ C_ 0.852271 0.823776 0.969351 0.44287
C_ C_ 0.936221 0.791713 0.962016 0.44287
C_ C_ 0.899672 0.84287 0.508407 0.18498
C_ C_ 0.927092 0.887516 0.513688 -0.08735
C_ C_ 0.929198 0.903184 0.541618 -0.08735
C_ C_ 0.918536 0.870538 0.565276 -0.08735
C_ C_ 0.897783 0.824124 0.560586 0.18498
C_ C_ 0.88591 0.810019 0.531942 -0.05681
C_ C_ 0.852846 0.767898 0.528964 -0.08735
C_ C_ 0.836919 0.739509 0.551547 -0.08735
C_ C_ 0.847084 0.756738 0.578895 0.1947
N_ N_ 0.64491 0.647829 0.979481 -0.29468
N_ N_ 0.644976 0.70466 0.581103 -0.17154
N_ N_ 0.618271 0.680002 0.730766 -0.17154
N_ N_ 0.642907 0.69263 0.83675 -0.29468
N_ N_ 0.878842 0.83139 0.727673 -0.29468
N_ N_ 0.860237 0.800808 0.830663 -0.17154
N_ N_ 0.898178 0.810155 0.979754 -0.17154
N_ N_ 0.87805 0.7968 0.583077 -0.29468
O_ O_ 0.72816 0.678273 0.93143 -0.58347
O_ O_ 0.717687 0.681709 0.884567 -0.58347
O_ O_ 0.642834 0.743227 0.93873 -0.58347
O_ O_ 0.636686 0.75148 0.89078 -0.58347
O_ O_ 0.659962 0.596088 0.923943 -0.58347
O_ O_ 0.650374 0.602594 0.876882 -0.58347
O_ O_ 0.575425 0.661541 0.933584 -0.58347
O_ O_ 0.566331 0.673221 0.88654 -0.58347
O_ O_ 0.562033 0.730843 0.576407 -0.46727
O_ O_ 0.725739 0.675831 0.58428 -0.46727
O_ O_ 0.533292 0.702502 0.727139 -0.46727
O_ O_ 0.70592 0.677195 0.734871 -0.46727
O_ O_ 0.796759 0.825561 0.679612 -0.58347
O_ O_ 0.808489 0.816869 0.631826 -0.58347
O_ O_ 0.879144 0.751295 0.68245 -0.58347
O_ O_ 0.889263 0.745642 0.636214 -0.58347
O_ O_ 0.865017 0.900353 0.676416 -0.58347
O_ O_ 0.881887 0.895438 0.630654 -0.58347
O_ O_ 0.948328 0.836784 0.6781 -0.58347
O_ O_ 0.958102 0.823924 0.632646 -0.58347
O_ O_ 0.941869 0.768658 0.82696 -0.46727
O_ O_ 0.777377 0.835114 0.836989 -0.46727
O_ O_ 0.976846 0.770908 0.973328 -0.46727
O_ O_ 0.81731 0.84234 0.986843 -0.46727
_cell_length_a 26.376
_cell_length_b 26.400000238300095
_cell_length_c 46.67800035477134
_cell_angle_alpha 90.00700052986613
_cell_angle_beta 89.99899961309502
_cell_angle_gamma 90.45000003183146
_symmetry_space_group_name_H-M         'P 1'
_symmetry_Int_Tables_number            1
loop_
_symmetry_equiv_pos_as_xyz
   'x, y, z'
                         
loop_
_atom_site_label
_atom_site_type_symbol
_atom_site_fract_x 
_atom_site_fract_y
_atom_site_fract_z
_atom_site_charge
Zn Zn 0.114792 0.189285 0.381757 0.90689
Zn Zn 0.12382 0.177171 0.429067 0.90689
Zn Zn 0.367328 0.309032 0.133201 0.90689
Zn Zn 0.356781 0.316863 0.180726 0.90689
H_ H_ 0.294177 0.210112 0.44231 0.11455
H_ H_ 0.35813 0.14525 0.347969 0.11455
H_ H_ 0.269668 0.171501 0.352337 0.11455
H_ H_ 0.381843 0.204769 0.460933 0.11455
H_ H_ 0.471893 0.188844 0.456305 0.11455
H_ H_ 0.451165 0.157847 0.366672 0.11455
H_ H_ 0.122385 0.0161264 0.442872 0.11455
H_ H_ 0.107467 0.433845 0.348565 0.11455
H_ H_ 0.142836 0.0270206 0.35021 0.11455
H_ H_ 0.124869 0.428436 0.465443 0.11455
H_ H_ 0.114468 0.337289 0.460179 0.11455
H_ H_ 0.092368 0.350207 0.369465 0.11455
H_ H_ 0.0634465 0.110173 0.469285 0.11455
H_ H_ 0.0710506 0.0643813 0.0118066 0.11455
H_ H_ 0.109497 0.10696 0.0553541 0.11455
H_ H_ 0.187495 0.232826 0.468424 0.11455
H_ H_ 0.214607 0.296653 0.0167271 0.11455
H_ H_ 0.199826 0.268209 0.066637 0.11455
H_ H_ 0.0141646 0.195495 0.12236 0.11455
H_ H_ 0.00432345 0.197678 0.175606 0.11455
H_ H_ 0.263985 0.160116 0.13969 0.11455
H_ H_ 0.252132 0.157778 0.192606 0.11455
H_ H_ 0.0621889 0.084626 0.25044 0.11455
H_ H_ 0.0359215 0.0632519 0.299735 0.11455
H_ H_ 0.0743995 0.115742 0.339188 0.11455
H_ H_ 0.148963 0.242383 0.253624 0.11455
H_ H_ 0.185262 0.293526 0.293503 0.11455
H_ H_ 0.168549 0.266337 0.344721 0.11455
H_ H_ 0.190941 0.30964 0.197929 0.11455
H_ H_ 0.122724 0.330629 0.0995448 0.11455
H_ H_ 0.214093 0.334137 0.108505 0.11455
H_ H_ 0.102087 0.298264 0.21757 0.11455
H_ H_ 0.0167539 0.278262 0.205282 0.11455
H_ H_ 0.0388742 0.307281 0.116934 0.11455
H_ H_ 0.339028 0.484676 0.191199 0.11455
H_ H_ 0.37282 0.0629927 0.0982254 0.11455
H_ H_ 0.394169 0.472694 0.104526 0.11455
H_ H_ 0.358779 0.0591339 0.21627 0.11455
H_ H_ 0.362961 0.155457 0.215606 0.11455
H_ H_ 0.370519 0.144853 0.121828 0.11455
H_ H_ 0.405736 0.391356 0.218324 0.11455
H_ H_ 0.430885 0.411533 0.265531 0.11455
H_ H_ 0.39102 0.369935 0.307226 0.11455
H_ H_ 0.297289 0.249851 0.228038 0.11455
H_ H_ 0.268178 0.198173 0.266336 0.11455
H_ H_ 0.311554 0.209597 0.315229 0.11455
H_ H_ 0.490356 0.282214 0.379344 0.11455
H_ H_ 0.493108 0.284282 0.429799 0.11455
H_ H_ 0.241397 0.333482 0.388736 0.11455
H_ H_ 0.251221 0.349135 0.438204 0.11455
H_ H_ 0.436841 0.411576 0.49787 0.11455
H_ H_ 0.466136 0.422548 0.0499564 0.11455
H_ H_ 0.434626 0.370817 0.0903656 0.11455
H_ H_ 0.323637 0.264979 0.0094798 0.11455
H_ H_ 0.291107 0.216058 0.0490099 0.11455
H_ H_ 0.310695 0.242041 0.0990345 0.11455
C_ C_ 0.217745 0.191274 0.402099 0.68181
C_ C_ 0.275005 0.189517 0.397845 -0.05681
C_ C_ 0.30778 0.194803 0.422391 -0.08735
C_ C_ 0.360436 0.185506 0.418271 -0.05681
C_ C_ 0.380449 0.170844 0.391532 -0.05681
C_ C_ 0.344637 0.161241 0.368074 -0.08735
C_ C_ 0.29434 0.17463 0.370781 -0.08735
C_ C_ 0.394806 0.192261 0.440941 -0.08735
C_ C_ 0.447024 0.181112 0.437654 -0.08735
C_ C_ 0.465901 0.172008 0.409682 -0.05681
C_ C_ 0.432872 0.164162 0.387197 -0.08735
C_ C_ 0.105054 0.279979 0.412329 0.68181
C_ C_ 0.132894 0.0847169 0.400562 0.68181
C_ C_ 0.125673 0.0276661 0.396998 -0.05681
C_ C_ 0.122191 0.495303 0.423622 -0.08735
C_ C_ 0.11967 0.442486 0.42054 -0.05681
C_ C_ 0.113168 0.42088 0.392966 -0.05681
C_ C_ 0.114558 0.451896 0.368409 -0.08735
C_ C_ 0.124523 0.502872 0.370871 -0.08735
C_ C_ 0.119501 0.411691 0.444368 -0.08735
C_ C_ 0.117755 0.359981 0.441059 -0.08735
C_ C_ 0.11119 0.335893 0.414753 -0.05681
C_ C_ 0.106459 0.366708 0.390337 -0.08735
C_ C_ 0.0205852 0.173009 0.403786 0.68181
C_ C_ 0.089083 0.1261 0.484827 0.1947
C_ C_ 0.0884852 0.101561 0.0114362 -0.08735
C_ C_ 0.113657 0.12445 0.0338016 -0.08735
C_ C_ 0.138916 0.169945 0.0307247 -0.05681
C_ C_ 0.146105 0.188589 1.00165652 0.18498
C_ C_ 0.183827 0.22699 0.491774 -0.08735
C_ C_ 0.194414 0.259269 0.0206219 -0.08735
C_ C_ 0.183261 0.24558 0.048071 -0.08735
C_ C_ 0.156937 0.1995 0.0536595 0.18498
C_ C_ 0.190241 0.177045 0.100939 0.44287
C_ C_ 0.102545 0.192964 0.0950297 0.44287
C_ C_ 0.0959326 0.192028 0.125207 -0.05681
C_ C_ 0.0466779 0.187633 0.13526 -0.08735
C_ C_ 0.0403293 0.185893 0.165691 -0.08735
C_ C_ 0.0809734 0.176944 0.183609 -0.05681
C_ C_ 0.129744 0.172557 0.172944 -0.05681
C_ C_ 0.136606 0.181985 0.143913 -0.05681
C_ C_ 0.184391 0.173679 0.131509 -0.05681
C_ C_ 0.226506 0.166215 0.149485 -0.08735
C_ C_ 0.218149 0.161431 0.179689 -0.08735
C_ C_ 0.170033 0.163866 0.191228 -0.05681
C_ C_ 0.160435 0.15185 0.220202 0.44287
C_ C_ 0.074017 0.171751 0.213354 0.44287
C_ C_ 0.10389 0.148861 0.260924 0.18498
C_ C_ 0.0758196 0.107361 0.268551 -0.08735
C_ C_ 0.0614889 0.0949135 0.29645 -0.08735
C_ C_ 0.0823336 0.125068 0.318449 -0.08735
C_ C_ 0.109401 0.170848 0.311982 0.18498
C_ C_ 0.117975 0.184464 0.282349 -0.05681
C_ C_ 0.145441 0.228446 0.275778 -0.08735
C_ C_ 0.167086 0.257265 0.298597 -0.08735
C_ C_ 0.155746 0.244893 0.327151 0.1947
C_ C_ 0.264544 0.307695 0.155255 0.68181
C_ C_ 0.208123 0.316225 0.152861 -0.05681
C_ C_ 0.176578 0.308621 0.176687 -0.08735
C_ C_ 0.12267 0.308444 0.172258 -0.05681
C_ C_ 0.104088 0.307996 0.143767 -0.05681
C_ C_ 0.137672 0.320602 0.120256 -0.08735
C_ C_ 0.188681 0.321332 0.124558 -0.08735
C_ C_ 0.0890205 0.302926 0.196005 -0.08735
C_ C_ 0.0381313 0.299615 0.190431 -0.08735
C_ C_ 0.0176394 0.308115 0.162802 -0.05681
C_ C_ 0.0510277 0.309796 0.139133 -0.08735
C_ C_ 0.363894 0.215452 0.166292 0.68181
C_ C_ 0.366274 0.413748 0.152223 0.68181
C_ C_ 0.375277 0.469653 0.15128 -0.05681
C_ C_ 0.359931 -0.0029080000000000217 0.173177 -0.08735
C_ C_ 0.365921 0.0511439 0.171058 -0.05681
C_ C_ 0.369046 0.0745459 0.144279 -0.05681
C_ C_ 0.367813 0.0454567 0.119393 -0.08735
C_ C_ 0.384564 0.492828 0.124683 -0.08735
C_ C_ 0.362323 0.0801118 0.19655 -0.08735
C_ C_ 0.361367 0.134572 0.195759 -0.08735
C_ C_ 0.366507 0.158609 0.168634 -0.05681
C_ C_ 0.368723 0.128634 0.143136 -0.08735
C_ C_ 0.461168 0.31916 0.159088 0.68181
C_ C_ 0.387807 0.371269 0.234978 0.1947
C_ C_ 0.399428 0.385869 0.264023 -0.08735
C_ C_ 0.381809 0.358204 0.285856 -0.08735
C_ C_ 0.35574 0.31271 0.281622 -0.05681
C_ C_ 0.345279 0.298927 0.253403 0.18498
C_ C_ 0.317027 0.254177 0.247878 -0.08735
C_ C_ 0.299557 0.225341 0.26973 -0.08735
C_ C_ 0.321623 0.234065 0.297655 -0.08735
C_ C_ 0.345704 0.278844 0.304367 0.18498
C_ C_ 0.313559 0.305407 0.350399 0.44287
C_ C_ 0.400618 0.285509 0.348356 0.44287
C_ C_ 0.407655 0.294992 0.377234 -0.05681
C_ C_ 0.455539 0.289654 0.390345 -0.08735
C_ C_ 0.459259 0.296681 0.419866 -0.08735
C_ C_ 0.418422 0.308629 0.436725 -0.05681
C_ C_ 0.372728 0.316994 0.4232 -0.05681
C_ C_ 0.366081 0.306838 0.394378 -0.05681
C_ C_ 0.319224 0.314885 0.380302 -0.05681
C_ C_ 0.278712 0.333256 0.396859 -0.08735
C_ C_ 0.283674 0.339903 0.425901 -0.08735
C_ C_ 0.331759 0.335801 0.438276 -0.05681
C_ C_ 0.338512 0.346315 0.46782 0.44287
C_ C_ 0.419328 0.309179 0.467264 0.44287
C_ C_ 0.387855 0.344942 0.0124173 0.18498
C_ C_ 0.422191 0.383522 0.0181498 -0.08735
C_ C_ 0.442725 0.391052 0.0455078 -0.08735
C_ C_ 0.426415 0.358771 0.0683828 -0.08735
C_ C_ 0.392604 0.319051 0.0640269 0.18498
C_ C_ 0.372267 0.313735 0.0355162 -0.05681
C_ C_ 0.338127 0.272503 0.0307446 -0.08735
C_ C_ 0.314407 0.248715 0.0531797 -0.08735
C_ C_ 0.330996 0.260638 0.0817832 0.1947
N_ N_ 0.121361 0.165283 0.478293 -0.29468
N_ N_ 0.149005 0.185274 0.0832269 -0.17154
N_ N_ 0.113258 0.157656 0.230663 -0.17154
N_ N_ 0.126061 0.202808 0.332755 -0.29468
N_ N_ 0.359944 0.328165 0.230293 -0.29468
N_ N_ 0.355843 0.294681 0.334373 -0.17154
N_ N_ 0.380731 0.331163 0.481243 -0.17154
N_ N_ 0.370396 0.294317 0.085886 -0.29468
O_ O_ 0.19673 0.186171 0.426665 -0.58347
O_ O_ 0.189779 0.189941 0.380372 -0.58347
O_ O_ 0.109597 0.250791 0.433688 -0.58347
O_ O_ 0.111556 0.262317 0.386727 -0.58347
O_ O_ 0.13175 0.104102 0.42555 -0.58347
O_ O_ 0.123712 0.114265 0.378991 -0.58347
O_ O_ 0.0496769 0.158942 0.424752 -0.58347
O_ O_ 0.0410751 0.187674 0.381972 -0.58347
O_ O_ 0.0678224 0.213107 0.0802562 -0.46727
O_ O_ 0.232936 0.163916 0.0888677 -0.46727
O_ O_ 0.031155 0.178806 0.226216 -0.46727
O_ O_ 0.198111 0.140151 0.23759 -0.46727
O_ O_ 0.284358 0.305871 0.179178 -0.58347
O_ O_ 0.290864 0.318825 0.133657 -0.58347
O_ O_ 0.368591 0.244316 0.187575 -0.58347
O_ O_ 0.366553 0.234988 0.141807 -0.58347
O_ O_ 0.351636 0.390816 0.174011 -0.58347
O_ O_ 0.375465 0.387204 0.129228 -0.58347
O_ O_ 0.431096 0.327013 0.179694 -0.58347
O_ O_ 0.443467 0.312046 0.134924 -0.58347
O_ O_ 0.43681 0.26339 0.333986 -0.46727
O_ O_ 0.268806 0.314751 0.336579 -0.46727
O_ O_ 0.460897 0.296236 0.48054 -0.46727
O_ O_ 0.301587 0.369362 0.482425 -0.46727
Zn Zn 0.116468 0.189568 0.883391 0.90689
Zn Zn 0.124805 0.182212 0.930582 0.90689
Zn Zn 0.367857 0.325155 0.6338 0.90689
Zn Zn 0.356339 0.335211 0.682658 0.90689
H_ H_ 0.293175 0.198563 0.947201 0.11455
H_ H_ 0.362187 0.169036 0.851147 0.11455
H_ H_ 0.270124 0.173526 0.858847 0.11455
H_ H_ 0.384815 0.210465 0.966193 0.11455
H_ H_ 0.47692 0.191693 0.95926 0.11455
H_ H_ 0.447874 0.185864 0.872464 0.11455
H_ H_ 0.132141 0.0138585 0.944729 0.11455
H_ H_ 0.133328 0.440258 0.850814 0.11455
H_ H_ 0.15594 0.0289984 0.850968 0.11455
H_ H_ 0.148546 0.433413 0.969982 0.11455
H_ H_ 0.123096 0.341093 0.965678 0.11455
H_ H_ 0.107484 0.354797 0.875053 0.11455
H_ H_ 0.0819092 0.101843 0.966211 0.11455
H_ H_ 0.0477166 0.0896721 0.518466 0.11455
H_ H_ 0.0986204 0.127194 0.557537 0.11455
H_ H_ 0.181914 0.2455 0.975764 0.11455
H_ H_ 0.225149 0.294031 0.504989 0.11455
H_ H_ 0.207058 0.281722 0.556568 0.11455
H_ H_ 0.015003 0.21878 0.623406 0.11455
H_ H_ 0.00421588 0.214245 0.671687 0.11455
H_ H_ 0.265612 0.185356 0.640274 0.11455
H_ H_ 0.2499 0.177933 0.690511 0.11455
H_ H_ 0.0572191 0.0920775 0.749844 0.11455
H_ H_ 0.0416121 0.0688801 0.799401 0.11455
H_ H_ 0.0697608 0.126637 0.839536 0.11455
H_ H_ 0.157748 0.251771 0.757619 0.11455
H_ H_ 0.176879 0.303804 0.799476 0.11455
H_ H_ 0.158596 0.27853 0.847747 0.11455
H_ H_ 0.189503 0.335612 0.698696 0.11455
H_ H_ 0.121812 0.330945 0.596944 0.11455
H_ H_ 0.211418 0.322192 0.604905 0.11455
H_ H_ 0.103639 0.311014 0.714201 0.11455
H_ H_ 0.0128948 0.329975 0.706939 0.11455
H_ H_ 0.0398043 0.352145 0.616994 0.11455
H_ H_ 0.366521 0.50473 0.694772 0.11455
H_ H_ 0.361944 0.0776121 0.598501 0.11455
H_ H_ 0.357811 0.484508 0.602117 0.11455
H_ H_ 0.351385 0.0862486 0.718563 0.11455
H_ H_ 0.344269 0.17541 0.712381 0.11455
H_ H_ 0.370013 0.16346 0.622225 0.11455
H_ H_ 0.406941 0.407077 0.718665 0.11455
H_ H_ 0.413631 0.437341 0.769098 0.11455
H_ H_ 0.369532 0.392401 0.8077 0.11455
H_ H_ 0.28119 0.269979 0.726187 0.11455
H_ H_ 0.260263 0.212621 0.762645 0.11455
H_ H_ 0.275325 0.236237 0.812886 0.11455
H_ H_ 0.467577 0.331233 0.871098 0.11455
H_ H_ 0.488974 0.311873 0.922488 0.11455
H_ H_ 0.221995 0.349408 0.892665 0.11455
H_ H_ 0.234313 0.344686 0.94206 0.11455
H_ H_ 0.431456 0.410366 0.000979375 0.11455
H_ H_ 0.454665 0.437114 0.550153 0.11455
H_ H_ 0.412838 0.392707 0.588775 0.11455
H_ H_ 0.341507 0.249012 0.510815 0.11455
H_ H_ 0.301846 0.210808 0.552771 0.11455
H_ H_ 0.304016 0.254949 0.6011 0.11455
C_ C_ 0.219543 0.196971 0.905332 0.68181
C_ C_ 0.276356 0.196529 0.902765 -0.05681
C_ C_ 0.309922 0.193499 0.926536 -0.08735
C_ C_ 0.362566 0.189821 0.923519 -0.05681
C_ C_ 0.381919 0.185136 0.896225 -0.05681
C_ C_ 0.347903 0.179737 0.872257 -0.08735
C_ C_ 0.294774 0.186853 0.875407 -0.08735
C_ C_ 0.396232 0.195616 0.945984 -0.08735
C_ C_ 0.450507 0.186712 0.942031 -0.08735
C_ C_ 0.468454 0.185059 0.914694 -0.05681
C_ C_ 0.433616 0.184282 0.892394 -0.08735
C_ C_ 0.113083 0.282849 0.91733 0.68181
C_ C_ 0.133894 0.0877158 0.899717 0.68181
C_ C_ 0.136104 0.0302338 0.897425 -0.05681
C_ C_ 0.148056 0.499847 0.926115 -0.08735
C_ C_ 0.137927 0.447675 0.924403 -0.05681
C_ C_ 0.132678 0.423527 0.897078 -0.05681
C_ C_ 0.131984 0.455374 0.87267 -0.08735
C_ C_ 0.141791 0.505715 0.874628 -0.08735
C_ C_ 0.13377 0.417065 0.948747 -0.08735
C_ C_ 0.122335 0.364734 0.946517 -0.08735
C_ C_ 0.116139 0.340161 0.919621 -0.05681
C_ C_ 0.117818 0.371327 0.895863 -0.08735
C_ C_ 0.0218355 0.170613 0.907867 0.68181
C_ C_ 0.0928212 0.123534 0.983954 0.1947
C_ C_ 0.0759117 0.118335 0.51423 -0.08735
C_ C_ 0.103497 0.142481 0.536326 -0.08735
C_ C_ 0.141217 0.177273 0.529082 -0.05681
C_ C_ 0.14888 0.190722 0.499587 0.18498
C_ C_ 0.172575 0.232905 0.997314 -0.08735
C_ C_ 0.202272 0.262618 0.511609 -0.08735
C_ C_ 0.192003 0.254231 0.541333 -0.08735
C_ C_ 0.163912 0.210606 0.550452 0.18498
C_ C_ 0.19337 0.188906 0.599047 0.44287
C_ C_ 0.106374 0.210013 0.592667 0.44287
C_ C_ 0.0980921 0.205579 0.622625 -0.05681
C_ C_ 0.0497765 0.212772 0.635386 -0.08735
C_ C_ 0.0420115 0.209557 0.664396 -0.08735
C_ C_ 0.0814749 0.19582 0.682892 -0.05681
C_ C_ 0.128889 0.185943 0.670551 -0.05681
C_ C_ 0.137004 0.190635 0.640931 -0.05681
C_ C_ 0.184269 0.18161 0.629168 -0.05681
C_ C_ 0.2264 0.174898 0.648056 -0.08735
C_ C_ 0.220046 0.172203 0.677614 -0.08735
C_ C_ 0.169621 0.171654 0.688792 -0.05681
C_ C_ 0.159718 0.163038 0.717628 0.44287
C_ C_ 0.0742483 0.192474 0.713245 0.44287
C_ C_ 0.102901 0.16008 0.760372 0.18498
C_ C_ 0.0731651 0.116914 0.766938 -0.08735
C_ C_ 0.0649209 0.103623 0.795022 -0.08735
C_ C_ 0.0806892 0.133907 0.817439 -0.08735
C_ C_ 0.10837 0.178563 0.811429 0.18498
C_ C_ 0.120425 0.1925 0.783205 -0.05681
C_ C_ 0.144008 0.238934 0.778462 -0.08735
C_ C_ 0.153388 0.269929 0.802719 -0.08735
C_ C_ 0.144076 0.253008 0.830413 0.1947
C_ C_ 0.266447 0.32935 0.656901 0.68181
C_ C_ 0.20924 0.327655 0.652046 -0.05681
C_ C_ 0.176198 0.333001 0.675382 -0.08735
C_ C_ 0.123285 0.326708 0.670101 -0.05681
C_ C_ 0.103778 0.33125 0.642156 -0.05681
C_ C_ 0.136082 0.330589 0.619058 -0.08735
C_ C_ 0.188273 0.325839 0.623544 -0.08735
C_ C_ 0.0896279 0.32493 0.693766 -0.08735
C_ C_ 0.0370088 0.331121 0.688918 -0.08735
C_ C_ 0.0190826 0.337885 0.661479 -0.05681
C_ C_ 0.0536743 0.337125 0.638011 -0.08735
C_ C_ 0.368482 0.232354 0.664786 0.68181
C_ C_ 0.362323 0.428644 0.652692 0.68181
C_ C_ 0.369461 0.485425 0.648648 -0.05681
C_ C_ 0.363853 0.0171023 0.67322 -0.08735
C_ C_ 0.357954 0.0710422 0.67154 -0.05681
C_ C_ 0.358997 0.0936556 0.644482 -0.05681
C_ C_ 0.361961 0.0622053 0.620323 -0.08735
C_ C_ 0.362147 0.506906 0.622145 -0.08735
C_ C_ 0.355329 0.101421 0.696224 -0.08735
C_ C_ 0.357707 0.154057 0.694458 -0.08735
C_ C_ 0.367947 0.176318 0.667284 -0.05681
C_ C_ 0.368139 0.146038 0.642736 -0.08735
C_ C_ 0.458643 0.327622 0.657198 0.68181
C_ C_ 0.391793 0.384351 0.73616 0.1947
C_ C_ 0.394131 0.403548 0.764674 -0.08735
C_ C_ 0.367463 0.377024 0.786052 -0.08735
C_ C_ 0.343204 0.332521 0.780261 -0.05681
C_ C_ 0.336258 0.318106 0.75142 0.18498
C_ C_ 0.302957 0.276841 0.746334 -0.08735
C_ C_ 0.284319 0.24686 0.768126 -0.08735
C_ C_ 0.294983 0.257366 0.796121 -0.08735
C_ C_ 0.326246 0.30078 0.80295 0.18498
C_ C_ 0.292586 0.323258 0.851105 0.44287
C_ C_ 0.380242 0.306894 0.844682 0.44287
C_ C_ 0.389886 0.312527 0.874481 -0.05681
C_ C_ 0.43913 0.322663 0.885025 -0.08735
C_ C_ 0.449674 0.320331 0.915125 -0.08735
C_ C_ 0.407298 0.32359 0.934015 -0.05681
C_ C_ 0.357326 0.323822 0.922656 -0.05681
C_ C_ 0.348292 0.317124 0.892596 -0.05681
C_ C_ 0.29928 0.326138 0.881453 -0.05681
C_ C_ 0.259281 0.340109 0.900231 -0.08735
C_ C_ 0.266766 0.337874 0.929029 -0.08735
C_ C_ 0.316452 0.333177 0.941426 -0.05681
C_ C_ 0.328318 0.340925 0.971871 0.44287
C_ C_ 0.414327 0.319102 0.96416 0.44287
C_ C_ 0.388415 0.346958 0.510832 0.18498
C_ C_ 0.417288 0.391314 0.516496 -0.08735
C_ C_ 0.427644 0.406545 0.54508 -0.08735
C_ C_ 0.407916 0.378462 0.568304 -0.08735
C_ C_ 0.377991 0.335423 0.563624 0.18498
C_ C_ 0.369661 0.318364 0.535114 -0.05681
C_ C_ 0.341206 0.272836 0.531182 -0.08735
C_ C_ 0.322088 0.245752 0.55488 -0.08735
C_ C_ 0.326167 0.268755 0.582852 0.1947
N_ N_ 0.120581 0.166591 0.979611 -0.29468
N_ N_ 0.153516 0.203402 0.581961 -0.17154
N_ N_ 0.111496 0.171014 0.729505 -0.17154
N_ N_ 0.119395 0.209718 0.834554 -0.29468
N_ N_ 0.358704 0.346805 0.729606 -0.29468
N_ N_ 0.332517 0.31436 0.833331 -0.17154
N_ N_ 0.376239 0.332267 0.982091 -0.17154
N_ N_ 0.357172 0.309781 0.586382 -0.29468
O_ O_ 0.199563 0.190231 0.929595 -0.58347
O_ O_ 0.191898 0.206247 0.884256 -0.58347
O_ O_ 0.125192 0.255535 0.938039 -0.58347
O_ O_ 0.10311 0.262055 0.893991 -0.58347
O_ O_ 0.137548 0.108148 0.924635 -0.58347
O_ O_ 0.134586 0.116409 0.877638 -0.58347
O_ O_ 0.0483811 0.173608 0.930783 -0.58347
O_ O_ 0.0428707 0.170301 0.884112 -0.58347
O_ O_ 0.0694807 0.223005 0.575482 -0.46727
O_ O_ 0.236605 0.184226 0.588103 -0.46727
O_ O_ 0.0286255 0.195358 0.723345 -0.46727
O_ O_ 0.1948 0.149929 0.735709 -0.46727
O_ O_ 0.284134 0.334221 0.682431 -0.58347
O_ O_ 0.295302 0.327974 0.635499 -0.58347
O_ O_ 0.354319 0.258261 0.686104 -0.58347
O_ O_ 0.370319 0.251358 0.640317 -0.58347
O_ O_ 0.356706 0.409537 0.676816 -0.58347
O_ O_ 0.36954 0.399176 0.631414 -0.58347
O_ O_ 0.433218 0.336823 0.678799 -0.58347
O_ O_ 0.43832 0.322732 0.632525 -0.58347
O_ O_ 0.417485 0.301313 0.827156 -0.46727
O_ O_ 0.247841 0.327817 0.838905 -0.46727
O_ O_ 0.46135 0.313638 0.974075 -0.46727
O_ O_ 0.288706 0.347419 0.98978 -0.46727
Zn Zn 0.123442 0.688649 0.384653 0.90689
Zn Zn 0.130989 0.678862 0.430918 0.90689
Zn Zn 0.369186 0.806081 0.132888 0.90689
Zn Zn 0.364425 0.816902 0.180141 0.90689
H_ H_ 0.300452 0.688827 0.447636 0.11455
H_ H_ 0.370716 0.684843 0.348356 0.11455
H_ H_ 0.278236 0.684817 0.358189 0.11455
H_ H_ 0.383544 0.689897 0.467575 0.11455
H_ H_ 0.478127 0.684867 0.459767 0.11455
H_ H_ 0.458397 0.678202 0.368503 0.11455
H_ H_ 0.131172 0.51465 0.44461 0.11455
H_ H_ 0.139397 0.934739 0.347459 0.11455
H_ H_ 0.130457 0.523226 0.352163 0.11455
H_ H_ 0.102793 0.927655 0.462175 0.11455
H_ H_ 0.115001 0.838628 0.45907 0.11455
H_ H_ 0.122397 0.848474 0.36669 0.11455
H_ H_ 0.0802913 0.611005 0.471172 0.11455
H_ H_ 0.0668936 0.586469 0.0181298 0.11455
H_ H_ 0.104534 0.629665 0.0582636 0.11455
H_ H_ 0.202054 0.743182 0.469302 0.11455
H_ H_ 0.241231 0.792878 0.0141001 0.11455
H_ H_ 0.219069 0.774562 0.0642749 0.11455
H_ H_ 0.026097 0.72369 0.121585 0.11455
H_ H_ 0.00866826 0.701438 0.172475 0.11455
H_ H_ 0.269511 0.647267 0.141397 0.11455
H_ H_ 0.249523 0.63401 0.191808 0.11455
H_ H_ 0.073473 0.587024 0.249293 0.11455
H_ H_ 0.0587495 0.55859 0.300319 0.11455
H_ H_ 0.0877097 0.613189 0.339704 0.11455
H_ H_ 0.158824 0.74705 0.25972 0.11455
H_ H_ 0.196786 0.788303 0.302651 0.11455
H_ H_ 0.18509 0.75577 0.349422 0.11455
H_ H_ 0.191459 0.797912 0.194464 0.11455
H_ H_ 0.129105 0.839812 0.0983858 0.11455
H_ H_ 0.216461 0.827484 0.105254 0.11455
H_ H_ 0.106815 0.789873 0.215237 0.11455
H_ H_ 0.0172546 0.793243 0.205813 0.11455
H_ H_ 0.0414272 0.836939 0.117598 0.11455
H_ H_ 0.363583 0.97918 0.195083 0.11455
H_ H_ 0.412603 0.557262 0.104763 0.11455
H_ H_ 0.364952 0.970171 0.101581 0.11455
H_ H_ 0.353764 0.566231 0.218136 0.11455
H_ H_ 0.34715 0.661898 0.210663 0.11455
H_ H_ 0.395046 0.639954 0.121974 0.11455
H_ H_ 0.403668 0.891283 0.213195 0.11455
H_ H_ 0.43078 0.922356 0.263306 0.11455
H_ H_ 0.405891 0.868008 0.304402 0.11455
H_ H_ 0.310967 0.745224 0.224913 0.11455
H_ H_ 0.2811 0.695552 0.261762 0.11455
H_ H_ 0.295958 0.719898 0.315476 0.11455
H_ H_ 0.490288 0.793286 0.371275 0.11455
H_ H_ 0.507631 0.81597 0.420689 0.11455
H_ H_ 0.241793 0.840788 0.388297 0.11455
H_ H_ 0.251153 0.835807 0.440209 0.11455
H_ H_ 0.437828 0.933248 0.500096 0.11455
H_ H_ 0.479366 0.911599 0.0546973 0.11455
H_ H_ 0.437884 0.864022 0.0927685 0.11455
H_ H_ 0.354487 0.74295 0.0057091 0.11455
H_ H_ 0.308236 0.706102 0.0447365 0.11455
H_ H_ 0.312369 0.739044 0.0956043 0.11455
C_ C_ 0.225934 0.685653 0.407094 0.68181
C_ C_ 0.281822 0.684532 0.402571 -0.05681
C_ C_ 0.314451 0.681839 0.425587 -0.08735
C_ C_ 0.366553 0.680377 0.421965 -0.05681
C_ C_ 0.390325 0.678783 0.394192 -0.05681
C_ C_ 0.357154 0.68127 0.370823 -0.08735
C_ C_ 0.303653 0.682167 0.375509 -0.08735
C_ C_ 0.40084 0.684898 0.44562 -0.08735
C_ C_ 0.453689 0.680061 0.441956 -0.08735
C_ C_ 0.475996 0.678134 0.41394 -0.05681
C_ C_ 0.443144 0.678982 0.390555 -0.08735
C_ C_ 0.121826 0.78159 0.410057 0.68181
C_ C_ 0.12712 0.584918 0.402436 0.68181
C_ C_ 0.123266 0.527059 0.398887 -0.05681
C_ C_ 0.121721 0.996781 0.421446 -0.08735
C_ C_ 0.11739 0.943312 0.41772 -0.05681
C_ C_ 0.124759 0.920392 0.391132 -0.05681
C_ C_ 0.128003 0.951533 0.366679 -0.08735
C_ C_ 0.13336 1.00459153 0.369511 -0.08735
C_ C_ 0.105834 0.91141 0.441718 -0.08735
C_ C_ 0.11216 0.859688 0.439296 -0.08735
C_ C_ 0.118638 0.837207 0.41177 -0.05681
C_ C_ 0.1238 0.867489 0.387119 -0.08735
C_ C_ 0.030937 0.677583 0.411508 0.68181
C_ C_ 0.0999053 0.63262 0.487636 0.1947
C_ C_ 0.089847 0.619943 0.014243 -0.08735
C_ C_ 0.112393 0.646642 0.0366618 -0.08735
C_ C_ 0.145792 0.687022 0.0315644 -0.05681
C_ C_ 0.15941 0.697272 1.00163041 0.18498
C_ C_ 0.188951 0.738453 0.491732 -0.08735
C_ C_ 0.215899 0.762129 0.0175293 -0.08735
C_ C_ 0.202109 0.752695 0.0467965 -0.08735
C_ C_ 0.168929 0.713731 0.0543194 0.18498
C_ C_ 0.198213 0.679416 0.0991518 0.44287
C_ C_ 0.113326 0.707947 0.0948247 0.44287
C_ C_ 0.104193 0.696533 0.12405 -0.05681
C_ C_ 0.0558516 0.704807 0.134658 -0.08735
C_ C_ 0.04656 0.69621 0.164608 -0.08735
C_ C_ 0.0866684 0.683605 0.182815 -0.05681
C_ C_ 0.135373 0.677796 0.171952 -0.05681
C_ C_ 0.142978 0.680853 0.141252 -0.05681
C_ C_ 0.188423 0.668561 0.129061 -0.05681
C_ C_ 0.230428 0.652999 0.148098 -0.08735
C_ C_ 0.220025 0.647068 0.177816 -0.08735
C_ C_ 0.173724 0.662429 0.190113 -0.05681
C_ C_ 0.16687 0.659626 0.220461 0.44287
C_ C_ 0.0809545 0.680742 0.212514 0.44287
C_ C_ 0.107192 0.656985 0.260693 0.18498
C_ C_ 0.0872284 0.611282 0.266852 -0.08735
C_ C_ 0.0724735 0.597762 0.295917 -0.08735
C_ C_ 0.0836042 0.630058 0.319223 -0.08735
C_ C_ 0.11039 0.674234 0.314075 0.18498
C_ C_ 0.124183 0.688432 0.284945 -0.05681
C_ C_ 0.145729 0.735763 0.281002 -0.08735
C_ C_ 0.17561 0.753065 0.303411 -0.08735
C_ C_ 0.167367 0.736649 0.331922 0.1947
C_ C_ 0.267053 0.805664 0.155651 0.68181
C_ C_ 0.213127 0.815891 0.151883 -0.05681
C_ C_ 0.178048 0.805927 0.174318 -0.08735
C_ C_ 0.1256 0.810717 0.17092 -0.05681
C_ C_ 0.104781 0.820926 0.143 -0.05681
C_ C_ 0.139472 0.824695 0.11969 -0.08735
C_ C_ 0.19151 0.820578 0.123803 -0.08735
C_ C_ 0.0930947 0.806532 0.194481 -0.08735
C_ C_ 0.0407474 0.812314 0.19032 -0.08735
C_ C_ 0.0205741 0.814132 0.162358 -0.05681
C_ C_ 0.0533969 0.831804 0.140222 -0.08735
C_ C_ 0.375928 0.715352 0.163124 0.68181
C_ C_ 0.353306 0.910626 0.150784 0.68181
C_ C_ 0.355843 0.967368 0.147705 -0.05681
C_ C_ 0.36302 0.50076 0.174792 -0.08735
C_ C_ 0.368957 0.551771 0.173603 -0.05681
C_ C_ 0.379838 0.574143 0.145765 -0.05681
C_ C_ 0.392941 0.543821 0.123394 -0.08735
C_ C_ 0.359754 -0.006655999999999995 0.120764 -0.08735
C_ C_ 0.364396 0.584446 0.196883 -0.08735
C_ C_ 0.365271 0.637376 0.194163 -0.08735
C_ C_ 0.377962 0.658416 0.167363 -0.05681
C_ C_ 0.388617 0.625906 0.143655 -0.08735
C_ C_ 0.465702 0.818007 0.159635 0.68181
C_ C_ 0.388803 0.873335 0.232585 0.1947
C_ C_ 0.404699 0.890667 0.260615 -0.08735
C_ C_ 0.391077 0.859403 0.283607 -0.08735
C_ C_ 0.364816 0.813595 0.279372 -0.05681
C_ C_ 0.352208 0.797553 0.251345 0.18498
C_ C_ 0.322829 0.754763 0.246131 -0.08735
C_ C_ 0.303271 0.72622 0.267916 -0.08735
C_ C_ 0.315444 0.740322 0.297209 -0.08735
C_ C_ 0.342989 0.785462 0.302956 0.18498
C_ C_ 0.313536 0.813895 0.349682 0.44287
C_ C_ 0.400701 0.797032 0.344304 0.44287
C_ C_ 0.410702 0.803718 0.373587 -0.05681
C_ C_ 0.459463 0.805119 0.385357 -0.08735
C_ C_ 0.46756 0.813297 0.414932 -0.08735
C_ C_ 0.427001 0.828116 0.433718 -0.05681
C_ C_ 0.376994 0.823583 0.421817 -0.05681
C_ C_ 0.368716 0.813761 0.390974 -0.05681
C_ C_ 0.320096 0.821143 0.379186 -0.05681
C_ C_ 0.278547 0.834491 0.397255 -0.08735
C_ C_ 0.286204 0.833475 0.427192 -0.08735
C_ C_ 0.335223 0.831885 0.439474 -0.05681
C_ C_ 0.343949 0.847121 0.467563 0.44287
C_ C_ 0.43251 0.83195 0.463651 0.44287
C_ C_ 0.412443 0.828364 0.0130434 0.18498
C_ C_ 0.446636 0.867147 0.0212139 -0.08735
C_ C_ 0.452811 0.882094 0.0491593 -0.08735
C_ C_ 0.433879 0.852707 0.0716559 -0.08735
C_ C_ 0.401878 0.81072 0.0646984 0.18498
C_ C_ 0.393601 0.797473 0.035018 -0.05681
C_ C_ 0.360545 0.757757 0.0285299 -0.08735
C_ C_ 0.332524 0.737577 0.0503813 -0.08735
C_ C_ 0.337346 0.752955 0.0788889 0.1947
N_ N_ 0.13044 0.671051 0.48016 -0.29468
N_ N_ 0.159837 0.700207 0.0833044 -0.17154
N_ N_ 0.118882 0.670354 0.231312 -0.17154
N_ N_ 0.134452 0.697907 0.337159 -0.29468
N_ N_ 0.364832 0.829305 0.22908 -0.29468
N_ N_ 0.352437 0.798758 0.333417 -0.17154
N_ N_ 0.391631 0.847059 0.479499 -0.17154
N_ N_ 0.372663 0.78957 0.0851103 -0.29468
O_ O_ 0.208885 0.674603 0.430214 -0.58347
O_ O_ 0.197434 0.70158 0.386964 -0.58347
O_ O_ 0.13618 0.754369 0.431546 -0.58347
O_ O_ 0.102759 0.758945 0.38846 -0.58347
O_ O_ 0.127197 0.606499 0.426854 -0.58347
O_ O_ 0.140792 0.610547 0.380984 -0.58347
O_ O_ 0.0579569 0.679368 0.433957 -0.58347
O_ O_ 0.0502459 0.669339 0.387969 -0.58347
O_ O_ 0.0782385 0.733473 0.0793012 -0.46727
O_ O_ 0.244096 0.681942 0.089865 -0.46727
O_ O_ 0.0359395 0.686134 0.224366 -0.46727
O_ O_ 0.20098 0.641777 0.238376 -0.46727
O_ O_ 0.286116 0.802194 0.180576 -0.58347
O_ O_ 0.292639 0.805491 0.134595 -0.58347
O_ O_ 0.381267 0.744434 0.185032 -0.58347
O_ O_ 0.364053 0.732668 0.138974 -0.58347
O_ O_ 0.348302 0.890212 0.174785 -0.58347
O_ O_ 0.368271 0.883896 0.129337 -0.58347
O_ O_ 0.436151 0.825651 0.181258 -0.58347
O_ O_ 0.446484 0.807364 0.13599 -0.58347
O_ O_ 0.438918 0.788585 0.326816 -0.46727
O_ O_ 0.269198 0.82437 0.337799 -0.46727
O_ O_ 0.476365 0.823477 0.47584 -0.46727
O_ O_ 0.304783 0.865612 0.481498 -0.46727
Zn Zn 0.14107 0.689813 0.881128 0.90689
Zn Zn 0.150137 0.680902 0.9322 0.90689
Zn Zn 0.386578 0.827559 0.630998 0.90689
Zn Zn 0.378117 0.837027 0.680505 0.90689
H_ H_ 0.314428 0.683361 0.945421 0.11455
H_ H_ 0.386798 0.643546 0.848811 0.11455
H_ H_ 0.292974 0.648093 0.856887 0.11455
H_ H_ 0.399336 0.680969 0.965194 0.11455
H_ H_ 0.486773 0.669708 0.960053 0.11455
H_ H_ 0.475112 0.65839 0.869451 0.11455
H_ H_ 0.150536 0.51809 0.946221 0.11455
H_ H_ 0.130228 0.937864 0.844947 0.11455
H_ H_ 0.14443 0.528278 0.854849 0.11455
H_ H_ 0.124248 0.931592 0.963895 0.11455
H_ H_ 0.127414 0.842901 0.961409 0.11455
H_ H_ 0.13575 0.849989 0.869853 0.11455
H_ H_ 0.0921875 0.607359 0.968145 0.11455
H_ H_ 0.0689404 0.589165 0.521012 0.11455
H_ H_ 0.128916 0.625408 0.55716 0.11455
H_ H_ 0.200404 0.74602 0.973555 0.11455
H_ H_ 0.232179 0.798392 0.504134 0.11455
H_ H_ 0.222108 0.782546 0.556808 0.11455
H_ H_ 1.037116 0.72409 0.625026 0.11455
H_ H_ 1.0290966 0.71333 0.675568 0.11455
H_ H_ 0.275239 0.643658 0.632581 0.11455
H_ H_ 0.273892 0.650921 0.683862 0.11455
H_ H_ 0.100732 0.591042 0.746732 0.11455
H_ H_ 0.0832789 0.56648 0.796185 0.11455
H_ H_ 0.101652 0.616917 0.835525 0.11455
H_ H_ 0.186736 0.752315 0.757689 0.11455
H_ H_ 0.22086 0.800814 0.800521 0.11455
H_ H_ 0.208246 0.763042 0.846384 0.11455
H_ H_ 0.205632 0.825822 0.696076 0.11455
H_ H_ 0.14006 0.844024 0.596203 0.11455
H_ H_ 0.232548 0.840183 0.605315 0.11455
H_ H_ 0.121256 0.838199 0.713624 0.11455
H_ H_ 0.0324823 0.827177 0.706495 0.11455
H_ H_ 0.0535147 0.830388 0.616481 0.11455
H_ H_ 0.367848 1.000956105 0.694506 0.11455
H_ H_ 0.363196 0.578985 0.595944 0.11455
H_ H_ 0.355692 0.989007 0.602102 0.11455
H_ H_ 0.379239 0.583712 0.71452 0.11455
H_ H_ 0.387842 0.677301 0.710288 0.11455
H_ H_ 0.368422 0.663971 0.618928 0.11455
H_ H_ 0.440536 0.904823 0.72112 0.11455
H_ H_ 0.447046 0.930143 0.772515 0.11455
H_ H_ 0.417711 0.874256 0.810334 0.11455
H_ H_ 0.321352 0.771088 0.724439 0.11455
H_ H_ 0.286971 0.715753 0.760738 0.11455
H_ H_ 0.30571 0.730122 0.811986 0.11455
H_ H_ 0.495185 0.778366 0.875281 0.11455
H_ H_ 0.51125 0.775482 0.926682 0.11455
H_ H_ 0.256708 0.854683 0.890933 0.11455
H_ H_ 0.265333 0.8496 0.944055 0.11455
H_ H_ 0.466564 0.884499 1.00521448 0.11455
H_ H_ 0.464992 0.946259 0.551005 0.11455
H_ H_ 0.455717 0.880518 0.585432 0.11455
H_ H_ 0.351285 0.769483 0.505899 0.11455
H_ H_ 0.329626 0.713264 0.546606 0.11455
H_ H_ 0.339406 0.749352 0.596084 0.11455
C_ C_ 0.243643 0.683337 0.904308 0.68181
C_ C_ 0.29891 0.67512 0.9008 -0.05681
C_ C_ 0.330179 0.675405 0.924146 -0.08735
C_ C_ 0.383096 0.667256 0.920459 -0.05681
C_ C_ 0.402529 0.657757 0.892944 -0.05681
C_ C_ 0.370414 0.65534 0.869564 -0.08735
C_ C_ 0.317786 0.663056 0.873501 -0.08735
C_ C_ 0.414858 0.672952 0.943199 -0.08735
C_ C_ 0.466211 0.661764 0.941685 -0.08735
C_ C_ 0.489127 0.660352 0.914531 -0.05681
C_ C_ 0.456532 0.654991 0.889741 -0.08735
C_ C_ 0.135899 0.782797 0.912038 0.68181
C_ C_ 0.1536 0.586071 0.902648 0.68181
C_ C_ 0.148489 0.530087 0.901511 -0.05681
C_ C_ 0.133566 0.99823182 0.922196 -0.08735
C_ C_ 0.12891 0.945792 0.9191 -0.05681
C_ C_ 0.133286 0.922589 0.89208 -0.05681
C_ C_ 0.137629 0.953785 0.866498 -0.08735
C_ C_ 0.14077 0.00720087 0.869406 -0.08735
C_ C_ 0.125543 0.916022 0.943411 -0.08735
C_ C_ 0.126842 0.862329 0.94193 -0.08735
C_ C_ 0.134357 0.840082 0.914983 -0.05681
C_ C_ 0.136753 0.870372 0.890586 -0.08735
C_ C_ 0.0487898 0.67094 0.90406 0.68181
C_ C_ 0.10554 0.632506 0.985743 0.1947
C_ C_ 0.0919825 0.619253 0.515879 -0.08735
C_ C_ 0.123452 0.64124 0.536494 -0.08735
C_ C_ 0.150713 0.685639 0.529301 -0.05681
C_ C_ 0.160625 0.695142 0.499323 0.18498
C_ C_ 0.193909 0.735976 0.99567 -0.08735
C_ C_ 0.207397 0.770941 0.512664 -0.08735
C_ C_ 0.203091 0.757794 0.541069 -0.08735
C_ C_ 0.173898 0.715878 0.550369 0.18498
C_ C_ 0.211699 0.689967 0.595123 0.44287
C_ C_ 0.124981 0.716257 0.594322 0.44287
C_ C_ 0.120992 0.70923 0.623147 -0.05681
C_ C_ 0.0727159 0.715706 0.636196 -0.08735
C_ C_ 0.0654049 0.70804 0.665747 -0.08735
C_ C_ 0.106139 0.696064 0.681889 -0.05681
C_ C_ 0.15468 0.686305 0.66908 -0.05681
C_ C_ 0.160364 0.691156 0.639108 -0.05681
C_ C_ 0.203502 0.678311 0.624717 -0.05681
C_ C_ 0.243928 0.660204 0.64208 -0.08735
C_ C_ 0.241494 0.660648 0.672399 -0.08735
C_ C_ 0.195199 0.671384 0.686582 -0.05681
C_ C_ 0.188382 0.671183 0.716508 0.44287
C_ C_ 0.102447 0.69304 0.712619 0.44287
C_ C_ 0.136928 0.662766 0.758539 0.18498
C_ C_ 0.114131 0.615591 0.763893 -0.08735
C_ C_ 0.104989 0.601478 0.791669 -0.08735
C_ C_ 0.113269 0.631597 0.81456 -0.08735
C_ C_ 0.14052 0.676956 0.810484 0.18498
C_ C_ 0.153222 0.692878 0.782174 -0.05681
C_ C_ 0.176583 0.740398 0.778732 -0.08735
C_ C_ 0.194589 0.767964 0.802473 -0.08735
C_ C_ 0.187736 0.745469 0.829177 0.1947
C_ C_ 0.283778 0.830458 0.654024 0.68181
C_ C_ 0.226979 0.829433 0.650492 -0.05681
C_ C_ 0.193343 0.825349 0.673478 -0.08735
C_ C_ 0.14091 0.828909 0.669294 -0.05681
C_ C_ 0.119932 0.835852 0.641103 -0.05681
C_ C_ 0.153221 0.835621 0.618682 -0.08735
C_ C_ 0.206982 0.832208 0.622455 -0.08735
C_ C_ 0.10734 0.829238 0.693024 -0.08735
C_ C_ 0.055699 0.830684 0.688337 -0.08735
C_ C_ 0.0340507 0.830265 0.661335 -0.05681
C_ C_ 0.0676166 0.834533 0.637616 -0.08735
C_ C_ 0.387161 0.733651 0.660599 0.68181
C_ C_ 0.37251 0.929881 0.65124 0.68181
C_ C_ 0.367367 0.986977 0.64825 -0.05681
C_ C_ 0.37385 0.519847 0.672885 -0.08735
C_ C_ 0.378445 0.57216 0.669276 -0.05681
C_ C_ 0.371951 0.593429 0.641823 -0.05681
C_ C_ 0.36674 0.561316 0.617395 -0.08735
C_ C_ 0.361453 1.0100204 0.622008 -0.08735
C_ C_ 0.380328 0.600049 0.693367 -0.08735
C_ C_ 0.381702 0.652668 0.690617 -0.08735
C_ C_ 0.381211 0.677587 0.663482 -0.05681
C_ C_ 0.373835 0.646799 0.639298 -0.08735
C_ C_ 0.478542 0.833353 0.655067 0.68181
C_ C_ 0.422764 0.883424 0.738327 0.1947
C_ C_ 0.432085 0.894603 0.767191 -0.08735
C_ C_ 0.413424 0.862954 0.788533 -0.08735
C_ C_ 0.376055 0.826726 0.78298 -0.05681
C_ C_ 0.367881 0.815911 0.752873 0.18498
C_ C_ 0.336887 0.77467 0.744545 -0.08735
C_ C_ 0.315959 0.743538 0.766692 -0.08735
C_ C_ 0.327791 0.751034 0.796606 -0.08735
C_ C_ 0.358133 0.792954 0.804085 0.18498
C_ C_ 0.328442 0.824132 0.851382 0.44287
C_ C_ 0.409134 0.786204 0.847139 0.44287
C_ C_ 0.417173 0.790755 0.876871 -0.05681
C_ C_ 0.463677 0.777938 0.888365 -0.08735
C_ C_ 0.472724 0.786287 0.917994 -0.08735
C_ C_ 0.431582 0.796912 0.936039 -0.05681
C_ C_ 0.385381 0.812604 0.924888 -0.05681
C_ C_ 0.377743 0.809857 0.894885 -0.05681
C_ C_ 0.331344 0.823612 0.88182 -0.05681
C_ C_ 0.29322 0.840431 0.899524 -0.08735
C_ C_ 0.297722 0.840699 0.929496 -0.08735
C_ C_ 0.344614 0.82855 0.94262 -0.05681
C_ C_ 0.353518 0.830977 0.972074 0.44287
C_ C_ 0.438827 0.80242 0.965654 0.44287
C_ C_ 0.399515 0.860962 0.509199 0.18498
C_ C_ 0.427439 0.905166 0.516512 -0.08735
C_ C_ 0.444327 0.914935 0.545001 -0.08735
C_ C_ 0.435396 0.878028 0.56539 -0.08735
C_ C_ 0.400406 0.83958 0.5604 0.18498
C_ C_ 0.385152 0.828308 0.532047 -0.05681
C_ C_ 0.357321 0.783315 0.527691 -0.08735
C_ C_ 0.343222 0.752422 0.551307 -0.08735
C_ C_ 0.352847 0.770713 0.57869 0.1947
N_ N_ 0.143227 0.665582 0.980438 -0.29468
N_ N_ 0.170161 0.706345 0.580434 -0.17154
N_ N_ 0.143377 0.677821 0.72892 -0.17154
N_ N_ 0.155612 0.705508 0.832462 -0.29468
N_ N_ 0.392148 0.84359 0.7318 -0.29468
N_ N_ 0.366041 0.803247 0.834353 -0.17154
N_ N_ 0.399357 0.817434 0.982764 -0.17154
N_ N_ 0.377935 0.814607 0.582825 -0.29468
O_ O_ 0.222683 0.680822 0.92874 -0.58347
O_ O_ 0.216279 0.693169 0.883613 -0.58347
O_ O_ 0.142538 0.756901 0.934692 -0.58347
O_ O_ 0.133832 0.761609 0.887399 -0.58347
O_ O_ 0.151993 0.608728 0.926489 -0.58347
O_ O_ 0.148696 0.610519 0.879017 -0.58347
O_ O_ 0.0743084 0.670787 0.927123 -0.58347
O_ O_ 0.0681296 0.684665 0.880467 -0.58347
O_ O_ 0.0855299 0.730269 0.578987 -0.46727
O_ O_ 0.25156 0.673968 0.58141 -0.46727
O_ O_ 0.0586023 0.698332 0.725325 -0.46727
O_ O_ 0.228667 0.658769 0.731057 -0.46727
O_ O_ 0.302126 0.832979 0.679293 -0.58347
O_ O_ 0.311792 0.824068 0.632334 -0.58347
O_ O_ 0.386387 0.762238 0.682705 -0.58347
O_ O_ 0.389171 0.754705 0.636248 -0.58347
O_ O_ 0.369574 0.909431 0.676277 -0.58347
O_ O_ 0.385256 0.904396 0.629368 -0.58347
O_ O_ 0.450213 0.847044 0.675054 -0.58347
O_ O_ 0.461379 0.831832 0.629133 -0.58347
O_ O_ 0.444793 0.766357 0.830926 -0.46727
O_ O_ 0.285787 0.833245 0.839646 -0.46727
O_ O_ 0.485033 0.79897 0.976885 -0.46727
O_ O_ 0.317646 0.844622 0.990287 -0.46727
Zn Zn 0.613888 0.185158 0.381421 0.90689
Zn Zn 0.625895 0.176816 0.4296 0.90689
Zn Zn 0.867442 0.309699 0.130006 0.90689
Zn Zn 0.860293 0.31147 0.178252 0.90689
H_ H_ 0.794081 0.168704 0.443181 0.11455
H_ H_ 0.856163 0.191064 0.345404 0.11455
H_ H_ 0.768654 0.175238 0.353237 0.11455
H_ H_ 0.881622 0.170935 0.463106 0.11455
H_ H_ 0.971484 0.165659 0.455291 0.11455
H_ H_ 0.947783 0.198528 0.366192 0.11455
H_ H_ 0.625561 0.0115027 0.442225 0.11455
H_ H_ 0.55995 0.435159 0.360575 0.11455
H_ H_ 0.629481 0.0218166 0.348809 0.11455
H_ H_ 0.675646 0.42256 0.458776 0.11455
H_ H_ 0.671295 0.330355 0.454306 0.11455
H_ H_ 0.589309 0.349844 0.376269 0.11455
H_ H_ 0.562494 0.105414 0.464852 0.11455
H_ H_ 0.553707 0.0787838 0.0113894 0.11455
H_ H_ 0.592172 0.118583 0.0515108 0.11455
H_ H_ 0.69564 0.228396 0.469872 0.11455
H_ H_ 0.710414 0.303181 0.0149606 0.11455
H_ H_ 0.684489 0.280811 0.0637635 0.11455
H_ H_ 0.511836 0.208103 0.119272 0.11455
H_ H_ 0.494066 0.199577 0.170816 0.11455
H_ H_ 0.754259 0.163596 0.139493 0.11455
H_ H_ 0.743089 0.155773 0.190934 0.11455
H_ H_ 0.549697 0.100516 0.249296 0.11455
H_ H_ 0.525947 0.0792018 0.297507 0.11455
H_ H_ 0.55946 0.132737 0.338606 0.11455
H_ H_ 0.646814 0.256484 0.258566 0.11455
H_ H_ 0.663768 0.309431 0.301175 0.11455
H_ H_ 0.664451 0.270462 0.34777 0.11455
H_ H_ 0.68911 0.300204 0.192721 0.11455
H_ H_ 0.616498 0.325501 0.0981414 0.11455
H_ H_ 0.712748 0.327225 0.102997 0.11455
H_ H_ 0.605333 0.316949 0.217243 0.11455
H_ H_ 0.514093 0.32535 0.211997 0.11455
H_ H_ 0.530929 0.332501 0.117374 0.11455
H_ H_ 0.894321 0.475891 0.186586 0.11455
H_ H_ 0.888383 0.0675979 0.10011 0.11455
H_ H_ 0.839301 0.466215 0.0997335 0.11455
H_ H_ 0.856726 0.0648355 0.216684 0.11455
H_ H_ 0.855211 0.153954 0.211988 0.11455
H_ H_ 0.876495 0.148478 0.120972 0.11455
H_ H_ 0.909483 0.401322 0.213823 0.11455
H_ H_ 0.931439 0.427562 0.261479 0.11455
H_ H_ 0.890518 0.386317 0.304302 0.11455
H_ H_ 0.799568 0.26706 0.223012 0.11455
H_ H_ 0.7634 0.218742 0.261881 0.11455
H_ H_ 0.787598 0.242269 0.312641 0.11455
H_ H_ 0.979568 0.289754 0.369979 0.11455
H_ H_ -0.007797000000000054 0.28876 0.422301 0.11455
H_ H_ 0.737133 0.360547 0.384681 0.11455
H_ H_ 0.749969 0.36792 0.435361 0.11455
H_ H_ 0.938241 0.424362 0.496067 0.11455
H_ H_ 0.956235 0.420273 0.044999 0.11455
H_ H_ 0.924781 0.370182 0.0846263 0.11455
H_ H_ 0.829663 0.242512 0.00559632 0.11455
H_ H_ 0.797928 0.200071 0.0459255 0.11455
H_ H_ 0.810574 0.23202 0.0964672 0.11455
C_ C_ 0.718673 0.180009 0.404017 0.68181
C_ C_ 0.773689 0.183281 0.400117 -0.05681
C_ C_ 0.80724 0.183608 0.423017 -0.08735
C_ C_ 0.860102 0.186538 0.418488 -0.05681
C_ C_ 0.879636 0.193282 0.389927 -0.05681
C_ C_ 0.844434 0.192397 0.367052 -0.08735
C_ C_ 0.792373 0.181862 0.372015 -0.08735
C_ C_ 0.893562 0.17503 0.440845 -0.08735
C_ C_ 0.946347 0.173286 0.436605 -0.08735
C_ C_ 0.966768 0.179865 0.408792 -0.05681
C_ C_ 0.933405 0.190266 0.386302 -0.08735
C_ C_ 0.621537 0.278628 0.413519 0.68181
C_ C_ 0.624554 0.0804922 0.399457 0.68181
C_ C_ 0.626539 0.0253489 0.395947 -0.05681
C_ C_ 0.640491 0.492846 0.423908 -0.08735
C_ C_ 0.63134 0.439917 0.422399 -0.05681
C_ C_ 0.603807 0.418369 0.39895 -0.05681
C_ C_ 0.578586 0.449336 0.38046 -0.08735
C_ C_ 0.589076 0.503003 0.381328 -0.08735
C_ C_ 0.65593 0.40724 0.441013 -0.08735
C_ C_ 0.650877 0.354183 0.439055 -0.08735
C_ C_ 0.625161 0.332682 0.416072 -0.05681
C_ C_ 0.603184 0.364433 0.394969 -0.08735
C_ C_ 0.521388 0.173247 0.405814 0.68181
C_ C_ 0.585943 0.123439 0.482116 0.1947
C_ C_ 0.582476 0.10899 0.00759338 -0.08735
C_ C_ 0.604194 0.132541 0.0309573 -0.08735
C_ C_ 0.633643 0.178569 0.0271056 -0.05681
C_ C_ 0.646605 0.191838 0.998867 0.18498
C_ C_ 0.682985 0.221213 0.492175 -0.08735
C_ C_ 0.687405 0.270137 0.0178481 -0.08735
C_ C_ 0.674943 0.257363 0.0458992 -0.08735
C_ C_ 0.650522 0.209341 0.0503304 0.18498
C_ C_ 0.687352 0.184242 0.0984491 0.44287
C_ C_ 0.600468 0.20182 0.0918358 0.44287
C_ C_ 0.591403 0.192405 0.121346 -0.05681
C_ C_ 0.542443 0.196701 0.132177 -0.08735
C_ C_ 0.532873 0.19564 0.161831 -0.08735
C_ C_ 0.571925 0.185852 0.180576 -0.05681
C_ C_ 0.623295 0.182628 0.169348 -0.05681
C_ C_ 0.630995 0.185849 0.13976 -0.05681
C_ C_ 0.680021 0.183125 0.128172 -0.05681
C_ C_ 0.720441 0.177632 0.147845 -0.08735
C_ C_ 0.711778 0.17132 0.17717 -0.08735
C_ C_ 0.664932 0.174533 0.188655 -0.05681
C_ C_ 0.654923 0.172122 0.218387 0.44287
C_ C_ 0.566711 0.184961 0.210994 0.44287
C_ C_ 0.59685 0.164371 0.260091 0.18498
C_ C_ 0.567551 0.119941 0.266937 -0.08735
C_ C_ 0.558138 0.105202 0.294263 -0.08735
C_ C_ 0.574881 0.137751 0.316869 -0.08735
C_ C_ 0.608647 0.178233 0.31166 0.18498
C_ C_ 0.616847 0.194811 0.28338 -0.05681
C_ C_ 0.636357 0.243895 0.280077 -0.08735
C_ C_ 0.651125 0.271551 0.30319 -0.08735
C_ C_ 0.647921 0.249281 0.330499 0.1947
C_ C_ 0.761813 0.306097 0.152336 0.68181
C_ C_ 0.705453 0.315128 0.149256 -0.05681
C_ C_ 0.674553 0.315078 0.172954 -0.08735
C_ C_ 0.621663 0.326988 0.171087 -0.05681
C_ C_ 0.600153 0.330813 0.142446 -0.05681
C_ C_ 0.633196 0.326808 0.11838 -0.08735
C_ C_ 0.685088 0.323946 0.122082 -0.08735
C_ C_ 0.58941 0.324849 0.194978 -0.08735
C_ C_ 0.535492 0.325127 0.192038 -0.08735
C_ C_ 0.515645 0.321782 0.163508 -0.05681
C_ C_ 0.546066 0.328362 0.139636 -0.08735
C_ C_ 0.871426 0.214031 0.164721 0.68181
C_ C_ 0.861876 0.408628 0.14573 0.68181
C_ C_ 0.863407 0.463986 0.144259 -0.05681
C_ C_ 0.868927 -0.002134999999999998 0.171205 -0.08735
C_ C_ 0.866995 0.0520475 0.169717 -0.05681
C_ C_ 0.871168 0.0752802 0.143269 -0.05681
C_ C_ 0.876517 0.0467988 0.11888 -0.08735
C_ C_ 0.849071 0.487581 0.118279 -0.08735
C_ C_ 0.858238 0.0805819 0.194562 -0.08735
C_ C_ 0.859653 0.132117 0.192983 -0.08735
C_ C_ 0.868806 0.156606 0.166543 -0.05681
C_ C_ 0.871295 0.128995 0.141226 -0.08735
C_ C_ 0.961339 0.306227 0.158611 0.68181
C_ C_ 0.897035 0.376879 0.230926 0.1947
C_ C_ 0.906627 0.396536 0.259026 -0.08735
C_ C_ 0.882544 0.372821 0.282661 -0.08735
C_ C_ 0.852472 0.33193 0.278379 -0.05681
C_ C_ 0.839205 0.318763 0.249599 0.18498
C_ C_ 0.804948 0.278768 0.244969 -0.08735
C_ C_ 0.789458 0.247929 0.267404 -0.08735
C_ C_ 0.80146 0.261037 0.295269 -0.08735
C_ C_ 0.835763 0.301803 0.301091 0.18498
C_ C_ 0.808269 0.334481 0.347411 0.44287
C_ C_ 0.892997 0.308792 0.341492 0.44287
C_ C_ 0.902666 0.314453 0.370998 -0.05681
C_ C_ 0.949404 0.303647 0.383443 -0.08735
C_ C_ 0.955261 0.303292 0.413712 -0.08735
C_ C_ 0.917249 0.323113 0.431609 -0.05681
C_ C_ 0.871482 0.338808 0.418337 -0.05681
C_ C_ 0.863641 0.334917 0.388777 -0.05681
C_ C_ 0.814953 0.340082 0.376725 -0.05681
C_ C_ 0.776428 0.357515 0.393375 -0.08735
C_ C_ 0.782984 0.360033 0.422679 -0.08735
C_ C_ 0.829898 0.350491 0.435066 -0.05681
C_ C_ 0.836266 0.356396 0.464821 0.44287
C_ C_ 0.923298 0.331143 0.46189 0.44287
C_ C_ 0.887329 0.333292 0.00782699 0.18498
C_ C_ 0.920516 0.374417 0.0136655 -0.08735
C_ C_ 0.934053 0.386332 0.0413606 -0.08735
C_ C_ 0.908468 0.363353 0.0635683 -0.08735
C_ C_ 0.877391 0.320546 0.0588203 0.18498
C_ C_ 0.866916 0.30583 0.0303821 -0.05681
C_ C_ 0.8369 0.262226 0.026658 -0.08735
C_ C_ 0.816683 0.234938 0.0499345 -0.08735
C_ C_ 0.830892 0.24999 0.0775463 0.1947
N_ N_ 0.620663 0.15971 0.475501 -0.29468
N_ N_ 0.64659 0.191482 0.0798321 -0.17154
N_ N_ 0.605677 0.175352 0.229569 -0.17154
N_ N_ 0.625338 0.205903 0.334749 -0.29468
N_ N_ 0.861885 0.339194 0.226557 -0.29468
N_ N_ 0.845176 0.314019 0.331093 -0.17154
N_ N_ 0.883191 0.348328 0.477277 -0.17154
N_ N_ 0.859357 0.293079 0.0817654 -0.29468
O_ O_ 0.698177 0.17123 0.428566 -0.58347
O_ O_ 0.689541 0.191076 0.38357 -0.58347
O_ O_ 0.631471 0.250952 0.434897 -0.58347
O_ O_ 0.613143 0.258006 0.388805 -0.58347
O_ O_ 0.619807 0.100234 0.424219 -0.58347
O_ O_ 0.623338 0.109145 0.37817 -0.58347
O_ O_ 0.55113 0.174151 0.427628 -0.58347
O_ O_ 0.539105 0.184424 0.381601 -0.58347
O_ O_ 0.56369 0.224563 0.0769233 -0.46727
O_ O_ 0.730139 0.170809 0.086681 -0.46727
O_ O_ 0.523847 0.19975 0.221884 -0.46727
O_ O_ 0.6947 0.168399 0.237058 -0.46727
O_ O_ 0.782182 0.306153 0.176365 -0.58347
O_ O_ 0.7898 0.311373 0.130512 -0.58347
O_ O_ 0.872299 0.239015 0.187893 -0.58347
O_ O_ 0.862482 0.236335 0.14145 -0.58347
O_ O_ 0.855891 0.388095 0.16984 -0.58347
O_ O_ 0.872666 0.381903 0.124265 -0.58347
O_ O_ 0.93463 0.32351 0.177529 -0.58347
O_ O_ 0.942973 0.300933 0.133515 -0.58347
O_ O_ 0.928728 0.294612 0.32384 -0.46727
O_ O_ 0.763535 0.345292 0.335748 -0.46727
O_ O_ 0.968868 0.325966 0.473122 -0.46727
O_ O_ 0.795578 0.358292 0.481589 -0.46727
Zn Zn 0.617742 0.177205 0.879881 0.90689
Zn Zn 0.631132 0.176123 0.927717 0.90689
Zn Zn 0.86979 0.321461 0.62962 0.90689
Zn Zn 0.857913 0.328706 0.67731 0.90689
H_ H_ 0.795807 0.198481 0.943537 0.11455
H_ H_ 0.865633 0.165623 0.847937 0.11455
H_ H_ 0.773634 0.177759 0.854174 0.11455
H_ H_ 0.875967 0.187106 0.965008 0.11455
H_ H_ 0.963795 0.159309 0.958404 0.11455
H_ H_ 0.947784 0.160073 0.865585 0.11455
H_ H_ 0.643616 0.00953887 0.941456 0.11455
H_ H_ 0.624983 0.424846 0.849009 0.11455
H_ H_ 0.623148 0.0115317 0.849978 0.11455
H_ H_ 0.647333 0.419508 0.964533 0.11455
H_ H_ 0.652269 0.330782 0.959242 0.11455
H_ H_ 0.611405 0.34586 0.871725 0.11455
H_ H_ 0.584495 0.102006 0.961634 0.11455
H_ H_ 0.55414 0.0723505 0.513429 0.11455
H_ H_ 0.592372 0.119591 0.553855 0.11455
H_ H_ 0.686223 0.250892 0.972421 0.11455
H_ H_ 0.729401 0.278656 0.508097 0.11455
H_ H_ 0.708443 0.267032 0.559079 0.11455
H_ H_ 0.509315 0.199699 0.620316 0.11455
H_ H_ 0.494747 0.174576 0.670487 0.11455
H_ H_ 0.75874 0.152995 0.635601 0.11455
H_ H_ 0.747669 0.16086 0.687406 0.11455
H_ H_ 0.570685 0.0720108 0.747188 0.11455
H_ H_ 0.54651 0.0514074 0.797861 0.11455
H_ H_ 0.558221 0.116243 0.83575 0.11455
H_ H_ 0.648636 0.235043 0.752782 0.11455
H_ H_ 0.684513 0.283218 0.795535 0.11455
H_ H_ 0.676126 0.251979 0.842349 0.11455
H_ H_ 0.687734 0.301346 0.691691 0.11455
H_ H_ 0.623598 0.339538 0.592897 0.11455
H_ H_ 0.710489 0.335371 0.60282 0.11455
H_ H_ 0.600611 0.292256 0.710593 0.11455
H_ H_ 0.512142 0.306376 0.704208 0.11455
H_ H_ 0.533235 0.333621 0.613856 0.11455
H_ H_ 0.839061 0.493272 0.689374 0.11455
H_ H_ 0.870117 0.0680311 0.597917 0.11455
H_ H_ 0.838009 0.478283 0.601055 0.11455
H_ H_ 0.891052 0.0751213 0.713602 0.11455
H_ H_ 0.901271 0.172417 0.709984 0.11455
H_ H_ 0.864083 0.152479 0.620891 0.11455
H_ H_ 0.901135 0.4103 0.713144 0.11455
H_ H_ 0.924392 0.434905 0.761811 0.11455
H_ H_ 0.883726 0.388168 0.801882 0.11455
H_ H_ 0.807563 0.254167 0.719745 0.11455
H_ H_ 0.781698 0.199459 0.760286 0.11455
H_ H_ 0.798858 0.226711 0.808947 0.11455
H_ H_ 0.980208 0.295891 0.865948 0.11455
H_ H_ -0.009923000000000015 0.282752 0.920482 0.11455
H_ H_ 0.730168 0.322583 0.88634 0.11455
H_ H_ 0.740408 0.322145 0.93708 0.11455
H_ H_ 0.941544 0.394911 0.997974 0.11455
H_ H_ 0.952897 0.447345 0.544955 0.11455
H_ H_ 0.924626 0.397687 0.584876 0.11455
H_ H_ 0.848125 0.269386 0.501947 0.11455
H_ H_ 0.811246 0.220159 0.541654 0.11455
H_ H_ 0.82518 0.2481 0.591429 0.11455
C_ C_ 0.719166 0.184521 0.901423 0.68181
C_ C_ 0.774308 0.183423 0.899546 -0.05681
C_ C_ 0.80801 0.186231 0.922884 -0.08735
C_ C_ 0.86039 0.178905 0.920517 -0.05681
C_ C_ 0.881636 0.175378 0.892415 -0.05681
C_ C_ 0.848565 0.17165 0.869354 -0.08735
C_ C_ 0.796664 0.180923 0.872878 -0.08735
C_ C_ 0.89314 0.179846 0.943604 -0.08735
C_ C_ 0.945151 0.170314 0.939742 -0.08735
C_ C_ 0.966399 0.16649 0.911629 -0.05681
C_ C_ 0.934107 0.167267 0.887805 -0.08735
C_ C_ 0.618504 0.273249 0.912622 0.68181
C_ C_ 0.626665 0.0751546 0.897387 0.68181
C_ C_ 0.627055 0.0182207 0.895996 -0.05681
C_ C_ 0.653951 0.487377 0.922387 -0.08735
C_ C_ 0.644542 0.435255 0.920722 -0.05681
C_ C_ 0.636259 0.413186 0.893945 -0.05681
C_ C_ 0.634113 0.441638 0.869651 -0.08735
C_ C_ 0.640879 0.494385 0.871132 -0.08735
C_ C_ 0.645749 0.403492 0.944378 -0.08735
C_ C_ 0.63955 0.351632 0.941245 -0.08735
C_ C_ 0.625521 0.328952 0.915167 -0.05681
C_ C_ 0.623349 0.360622 0.891774 -0.08735
C_ C_ 0.524758 0.180613 0.908218 0.68181
C_ C_ 0.598668 0.122042 0.980379 0.1947
C_ C_ 0.577934 0.108826 0.509494 -0.08735
C_ C_ 0.601034 0.133238 0.532319 -0.08735
C_ C_ 0.632366 0.175584 0.526946 -0.05681
C_ C_ 0.645192 0.18447 0.497964 0.18498
C_ C_ 0.675418 0.238419 0.994783 -0.08735
C_ C_ 0.701414 0.251051 0.51429 -0.08735
C_ C_ 0.688176 0.244913 0.542317 -0.08735
C_ C_ 0.652332 0.207227 0.549231 0.18498
C_ C_ 0.685908 0.182265 0.596597 0.44287
C_ C_ 0.597038 0.190709 0.589106 0.44287
C_ C_ 0.58926 0.182816 0.619134 -0.05681
C_ C_ 0.539663 0.185282 0.631964 -0.08735
C_ C_ 0.533116 0.175369 0.661085 -0.08735
C_ C_ 0.575466 0.16803 0.679664 -0.05681
C_ C_ 0.62357 0.170055 0.668431 -0.05681
C_ C_ 0.630004 0.177334 0.637636 -0.05681
C_ C_ 0.679404 0.18014 0.626844 -0.05681
C_ C_ 0.722112 0.169392 0.644555 -0.08735
C_ C_ 0.716061 0.16387 0.67463 -0.08735
C_ C_ 0.665798 0.166458 0.687524 -0.05681
C_ C_ 0.656476 0.159435 0.717112 0.44287
C_ C_ 0.568695 0.16117 0.709878 0.44287
C_ C_ 0.600544 0.146047 0.757992 0.18498
C_ C_ 0.580653 0.0981477 0.764703 -0.08735
C_ C_ 0.56537 0.0860071 0.792599 -0.08735
C_ C_ 0.574042 0.121902 0.814388 -0.08735
C_ C_ 0.60427 0.165519 0.8089 0.18498
C_ C_ 0.6147 0.179763 0.780014 -0.05681
C_ C_ 0.64084 0.224363 0.775167 -0.08735
C_ C_ 0.663332 0.249794 0.798071 -0.08735
C_ C_ 0.65401 0.233517 0.825414 0.1947
C_ C_ 0.76509 0.314468 0.651264 0.68181
C_ C_ 0.70775 0.316127 0.647787 -0.05681
C_ C_ 0.672448 0.306329 0.67101 -0.08735
C_ C_ 0.62021 0.305081 0.665952 -0.05681
C_ C_ 0.600059 0.316949 0.638062 -0.05681
C_ C_ 0.635511 0.329004 0.615185 -0.08735
C_ C_ 0.687653 0.321869 0.620197 -0.08735
C_ C_ 0.587017 0.299779 0.689143 -0.08735
C_ C_ 0.53591 0.31405 0.68664 -0.08735
C_ C_ 0.515694 0.323389 0.65989 -0.05681
C_ C_ 0.548277 0.326876 0.63557 -0.08735
C_ C_ 0.880309 0.227899 0.661306 0.68181
C_ C_ 0.851589 0.421491 0.647807 0.68181
C_ C_ 0.851052 0.477629 0.645053 -0.05681
C_ C_ 0.873384 0.0108104 0.674611 -0.08735
C_ C_ 0.875847 0.0638367 0.671525 -0.05681
C_ C_ 0.876277 0.0851939 0.644209 -0.05681
C_ C_ 0.871689 0.054091 0.619756 -0.08735
C_ C_ 0.847986 0.501886 0.618058 -0.08735
C_ C_ 0.88798 0.0948972 0.694578 -0.08735
C_ C_ 0.89188 0.148007 0.69195 -0.08735
C_ C_ 0.884066 0.171351 0.664515 -0.05681
C_ C_ 0.875735 0.137914 0.64069 -0.08735
C_ C_ 0.962861 0.336346 0.656195 0.68181
C_ C_ 0.885539 0.387012 0.729632 0.1947
C_ C_ 0.898896 0.401877 0.757979 -0.08735
C_ C_ 0.878473 0.372626 0.781072 -0.08735
C_ C_ 0.853485 0.327307 0.776097 -0.05681
C_ C_ 0.844504 0.31216 0.747027 0.18498
C_ C_ 0.817417 0.265826 0.741291 -0.08735
C_ C_ 0.801864 0.234125 0.764609 -0.08735
C_ C_ 0.815526 0.248377 0.791573 -0.08735
C_ C_ 0.836411 0.294626 0.79788 0.18498
C_ C_ 0.804156 0.313284 0.845667 0.44287
C_ C_ 0.891192 0.294018 0.839697 0.44287
C_ C_ 0.898263 0.29769 0.868915 -0.05681
C_ C_ 0.94569 0.29089 0.881059 -0.08735
C_ C_ 0.953341 0.290438 0.91162 -0.08735
C_ C_ 0.91217 0.304165 0.929428 -0.05681
C_ C_ 0.864008 0.313917 0.917915 -0.05681
C_ C_ 0.856503 0.305711 0.887296 -0.05681
C_ C_ 0.806842 0.311404 0.875848 -0.05681
C_ C_ 0.765741 0.318384 0.894872 -0.08735
C_ C_ 0.773098 0.324895 0.924056 -0.08735
C_ C_ 0.821827 0.321413 0.936277 -0.05681
C_ C_ 0.830213 0.326747 0.965861 0.44287
C_ C_ 0.918355 0.310057 0.960026 0.44287
C_ C_ 0.8922 0.36021 0.507141 0.18498
C_ C_ 0.919383 0.404794 0.513076 -0.08735
C_ C_ 0.934392 0.413537 0.540517 -0.08735
C_ C_ 0.917088 0.383372 0.564152 -0.08735
C_ C_ 0.885337 0.34069 0.559327 0.18498
C_ C_ 0.879709 0.325988 0.529109 -0.05681
C_ C_ 0.859998 0.277653 0.523266 -0.08735
C_ C_ 0.841077 0.248017 0.545715 -0.08735
C_ C_ 0.848018 0.263385 0.574721 0.1947
N_ N_ 0.627756 0.165007 0.976168 -0.29468
N_ N_ 0.645741 0.191915 0.578411 -0.17154
N_ N_ 0.607973 0.157758 0.727606 -0.17154
N_ N_ 0.62139 0.194764 0.83052 -0.29468
N_ N_ 0.861949 0.340749 0.724408 -0.29468
N_ N_ 0.845787 0.305352 0.827715 -0.17154
N_ N_ 0.877684 0.320051 0.977418 -0.17154
N_ N_ 0.869756 0.309583 0.581123 -0.29468
O_ O_ 0.700261 0.190612 0.926595 -0.58347
O_ O_ 0.692184 0.171774 0.880799 -0.58347
O_ O_ 0.622846 0.24858 0.935502 -0.58347
O_ O_ 0.627329 0.252041 0.888129 -0.58347
O_ O_ 0.643532 0.0991007 0.919247 -0.58347
O_ O_ 0.614219 0.100371 0.874826 -0.58347
O_ O_ 0.556523 0.16745 0.927649 -0.58347
O_ O_ 0.541587 0.185487 0.88267 -0.58347
O_ O_ 0.559033 0.201978 0.571456 -0.46727
O_ O_ 0.73167 0.1829 0.586198 -0.46727
O_ O_ 0.52353 0.150576 0.719172 -0.46727
O_ O_ 0.693636 0.149182 0.734479 -0.46727
O_ O_ 0.783594 0.314146 0.676186 -0.58347
O_ O_ 0.793704 0.313287 0.628417 -0.58347
O_ O_ 0.875561 0.25704 0.682452 -0.58347
O_ O_ 0.879254 0.246261 0.636604 -0.58347
O_ O_ 0.844726 0.400207 0.672123 -0.58347
O_ O_ 0.861305 0.393683 0.626326 -0.58347
O_ O_ 0.933716 0.349474 0.67577 -0.58347
O_ O_ 0.946157 0.330523 0.630671 -0.58347
O_ O_ 0.926832 0.27275 0.823996 -0.46727
O_ O_ 0.758616 0.317196 0.835552 -0.46727
O_ O_ 0.964149 0.30656 0.972088 -0.46727
O_ O_ 0.790971 0.338997 0.980891 -0.46727
Zn Zn 0.624075 0.68363 0.381316 0.90689
Zn Zn 0.635399 0.679931 0.430188 0.90689
Zn Zn 0.872117 0.81008 0.13146 0.90689
Zn Zn 0.862466 0.810728 0.178606 0.90689
H_ H_ 0.800734 0.685515 0.44714 0.11455
H_ H_ 0.867286 0.648012 0.354068 0.11455
H_ H_ 0.780435 0.669866 0.357958 0.11455
H_ H_ 0.886199 0.68746 0.468234 0.11455
H_ H_ 0.975601 0.705593 0.459389 0.11455
H_ H_ 0.956074 0.662815 0.370189 0.11455
H_ H_ 0.660298 0.51109 0.442169 0.11455
H_ H_ 0.639481 0.929593 0.344343 0.11455
H_ H_ 0.570901 0.529056 0.366668 0.11455
H_ H_ 0.626518 0.925187 0.462926 0.11455
H_ H_ 0.62958 0.832339 0.458044 0.11455
H_ H_ 0.632959 0.84505 0.366697 0.11455
H_ H_ 0.597939 0.593288 0.466311 0.11455
H_ H_ 0.565594 0.568742 0.0157236 0.11455
H_ H_ 0.598594 0.613779 0.0541161 0.11455
H_ H_ 0.685783 0.74768 0.472856 0.11455
H_ H_ 0.730129 0.781423 0.0121804 0.11455
H_ H_ 0.691933 0.773574 0.061567 0.11455
H_ H_ 0.507564 0.699198 0.123683 0.11455
H_ H_ 0.494066 0.686515 0.176525 0.11455
H_ H_ 0.758897 0.66198 0.137259 0.11455
H_ H_ 0.750239 0.65692 0.190854 0.11455
H_ H_ 0.581948 0.567768 0.255964 0.11455
H_ H_ 0.546656 0.558744 0.303492 0.11455
H_ H_ 0.55247 0.626317 0.338776 0.11455
H_ H_ 0.663619 0.733866 0.25598 0.11455
H_ H_ 0.705391 0.778507 0.297398 0.11455
H_ H_ 0.684124 0.749387 0.344505 0.11455
H_ H_ 0.695756 0.811477 0.196026 0.11455
H_ H_ 0.62254 0.835358 0.0985313 0.11455
H_ H_ 0.713482 0.827884 0.10541 0.11455
H_ H_ 0.607609 0.801294 0.213066 0.11455
H_ H_ 0.51936 0.822185 0.208512 0.11455
H_ H_ 0.537669 0.809974 0.11665 0.11455
H_ H_ 0.863175 0.980292 0.191544 0.11455
H_ H_ 0.839521 0.556622 0.0954772 0.11455
H_ H_ 0.894918 0.972923 0.102612 0.11455
H_ H_ 0.922745 0.565095 0.205135 0.11455
H_ H_ 0.915105 0.654954 0.202925 0.11455
H_ H_ 0.841068 0.640118 0.119321 0.11455
H_ H_ 0.929785 0.878382 0.211101 0.11455
H_ H_ 0.945338 0.911063 0.260212 0.11455
H_ H_ 0.901023 0.874394 0.301352 0.11455
H_ H_ 0.800278 0.754068 0.220457 0.11455
H_ H_ 0.768964 0.706908 0.26115 0.11455
H_ H_ 0.795314 0.723347 0.309548 0.11455
H_ H_ 0.988084 0.791038 0.368417 0.11455
H_ H_ 0.0040475 0.811713 0.419673 0.11455
H_ H_ 0.739632 0.837802 0.388532 0.11455
H_ H_ 0.752066 0.819255 0.439017 0.11455
H_ H_ 0.935731 0.914515 0.498012 0.11455
H_ H_ 0.96674 0.923077 0.0427031 0.11455
H_ H_ 0.931833 0.873955 0.0858246 0.11455
H_ H_ 0.850687 0.741879 0.00694793 0.11455
H_ H_ 0.800062 0.709028 0.047573 0.11455
H_ H_ 0.812112 0.737461 0.0944535 0.11455
C_ C_ 0.726775 0.679994 0.406462 0.68181
C_ C_ 0.781784 0.67748 0.402664 -0.05681
C_ C_ 0.81459 0.686229 0.425942 -0.08735
C_ C_ 0.867799 0.683226 0.422598 -0.05681
C_ C_ 0.888461 0.673298 0.395139 -0.05681
C_ C_ 0.85418 0.668241 0.371903 -0.08735
C_ C_ 0.802594 0.674428 0.376077 -0.08735
C_ C_ 0.899604 0.684574 0.446828 -0.08735
C_ C_ 0.95032 0.693794 0.441556 -0.08735
C_ C_ 0.972735 0.680369 0.415441 -0.05681
C_ C_ 0.940222 0.672475 0.391331 -0.08735
C_ C_ 0.626051 0.779039 0.410702 0.68181
C_ C_ 0.628484 0.578762 0.402553 0.68181
C_ C_ 0.617905 0.524203 0.403077 -0.05681
C_ C_ 0.629341 0.994048 0.419946 -0.08735
C_ C_ 0.631568 0.940693 0.417158 -0.05681
C_ C_ 0.635292 0.917635 0.389845 -0.05681
C_ C_ 0.635038 0.947929 0.36582 -0.08735
C_ C_ 0.627467 0.999724567 0.368391 -0.08735
C_ C_ 0.629474 0.910346 0.442037 -0.08735
C_ C_ 0.626898 0.857359 0.43888 -0.08735
C_ C_ 0.627761 0.833193 0.41211 -0.05681
C_ C_ 0.636091 0.862857 0.388174 -0.08735
C_ C_ 0.529565 0.6792 0.409932 0.68181
C_ C_ 0.614565 0.61662 0.483211 0.1947
C_ C_ 0.594779 0.598267 0.0118418 -0.08735
C_ C_ 0.614533 0.623699 0.0347823 -0.08735
C_ C_ 0.646056 0.664342 0.0307628 -0.05681
C_ C_ 0.660452 0.676911 1.00195484 0.18498
C_ C_ 0.672772 0.741492 0.493711 -0.08735
C_ C_ 0.706328 0.749892 0.0178498 -0.08735
C_ C_ 0.682748 0.745331 0.0443697 -0.08735
C_ C_ 0.65427 0.703188 0.051621 0.18498
C_ C_ 0.68681 0.684906 0.0994252 0.44287
C_ C_ 0.598455 0.699189 0.0946732 0.44287
C_ C_ 0.590487 0.694383 0.12429 -0.05681
C_ C_ 0.541934 0.697518 0.137064 -0.08735
C_ C_ 0.533235 0.689804 0.167119 -0.08735
C_ C_ 0.575623 0.677951 0.184266 -0.05681
C_ C_ 0.624534 0.673247 0.17204 -0.05681
C_ C_ 0.633726 0.680887 0.142748 -0.05681
C_ C_ 0.681003 0.676981 0.129234 -0.05681
C_ C_ 0.722729 0.666257 0.147132 -0.08735
C_ C_ 0.717412 0.664199 0.177522 -0.08735
C_ C_ 0.666961 0.663782 0.189258 -0.05681
C_ C_ 0.660548 0.656541 0.218757 0.44287
C_ C_ 0.570282 0.672831 0.214088 0.44287
C_ C_ 0.603352 0.647443 0.260641 0.18498
C_ C_ 0.577999 0.60282 0.269733 -0.08735
C_ C_ 0.56352 0.595177 0.297785 -0.08735
C_ C_ 0.574106 0.629541 0.318372 -0.08735
C_ C_ 0.606474 0.671887 0.311728 0.18498
C_ C_ 0.617313 0.682553 0.282138 -0.05681
C_ C_ 0.651466 0.724653 0.276841 -0.08735
C_ C_ 0.67618 0.746509 0.300515 -0.08735
C_ C_ 0.665386 0.731294 0.328037 0.1947
C_ C_ 0.769676 0.812201 0.154453 0.68181
C_ C_ 0.713009 0.813484 0.149552 -0.05681
C_ C_ 0.681226 0.809609 0.17382 -0.08735
C_ C_ 0.627807 0.810271 0.170142 -0.05681
C_ C_ 0.607366 0.812473 0.141555 -0.05681
C_ C_ 0.637946 0.824219 0.118758 -0.08735
C_ C_ 0.690535 0.821461 0.1227 -0.08735
C_ C_ 0.596184 0.811932 0.192612 -0.08735
C_ C_ 0.544154 0.82243 0.189709 -0.08735
C_ C_ 0.522355 0.821397 0.161682 -0.05681
C_ C_ 0.554886 0.813863 0.138142 -0.08735
C_ C_ 0.874023 0.713646 0.161524 0.68181
C_ C_ 0.867842 0.909882 0.147943 0.68181
C_ C_ 0.870549 0.967194 0.145725 -0.05681
C_ C_ 0.883095 0.494542 0.167066 -0.08735
C_ C_ 0.887978 0.548173 0.163734 -0.05681
C_ C_ 0.866531 0.572235 0.138945 -0.05681
C_ C_ 0.853461 0.53983 0.115135 -0.08735
C_ C_ 0.879792 0.994396 0.120301 -0.08735
C_ C_ 0.90403 0.579965 0.186762 -0.08735
C_ C_ 0.898827 0.632309 0.185722 -0.08735
C_ C_ 0.875869 0.656772 0.161683 -0.05681
C_ C_ 0.85763 0.624568 0.138773 -0.08735
C_ C_ 0.964854 0.809675 0.157761 0.68181
C_ C_ 0.903816 0.869413 0.228798 0.1947
C_ C_ 0.911678 0.888076 0.2562 -0.08735
C_ C_ 0.890368 0.861845 0.279105 -0.08735
C_ C_ 0.860146 0.819459 0.275161 -0.05681
C_ C_ 0.847763 0.805316 0.246771 0.18498
C_ C_ 0.809185 0.769367 0.24211 -0.08735
C_ C_ 0.794132 0.739085 0.263927 -0.08735
C_ C_ 0.808842 0.747489 0.292315 -0.08735
C_ C_ 0.840538 0.790098 0.298745 0.18498
C_ C_ 0.811058 0.816046 0.346634 0.44287
C_ C_ 0.897637 0.792205 0.340864 0.44287
C_ C_ 0.906716 0.804249 0.370483 -0.05681
C_ C_ 0.955253 0.799924 0.381799 -0.08735
C_ C_ 0.964678 0.812227 0.41093 -0.08735
C_ C_ 0.922479 0.814465 0.42927 -0.05681
C_ C_ 0.873204 0.817876 0.418379 -0.05681
C_ C_ 0.865846 0.812545 0.388004 -0.05681
C_ C_ 0.816936 0.8194 0.376047 -0.05681
C_ C_ 0.777596 0.82836 0.395524 -0.08735
C_ C_ 0.78323 0.82334 0.424839 -0.08735
C_ C_ 0.831617 0.822848 0.437384 -0.05681
C_ C_ 0.841562 0.827765 0.46705 0.44287
C_ C_ 0.929623 0.821752 0.458929 0.44287
C_ C_ 0.911476 0.82317 0.00876618 0.18498
C_ C_ 0.942742 0.866435 0.0126093 -0.08735
C_ C_ 0.948318 0.885528 0.0402731 -0.08735
C_ C_ 0.924859 0.861052 0.0640033 -0.08735
C_ C_ 0.896486 0.814543 0.0610588 0.18498
C_ C_ 0.891172 0.79505 0.0322242 -0.05681
C_ C_ 0.861064 0.752554 0.0284858 -0.08735
C_ C_ 0.83338 0.731656 0.0517937 -0.08735
C_ C_ 0.84226 0.749947 0.0789385 0.1947
N_ N_ 0.641887 0.659027 0.477534 -0.29468
N_ N_ 0.646014 0.69423 0.0823306 -0.17154
N_ N_ 0.6115 0.658681 0.230112 -0.17154
N_ N_ 0.631696 0.693845 0.333735 -0.29468
N_ N_ 0.870183 0.831471 0.224112 -0.29468
N_ N_ 0.851402 0.801857 0.329417 -0.17154
N_ N_ 0.890094 0.828544 0.478116 -0.17154
N_ N_ 0.872972 0.790919 0.0840721 -0.29468
O_ O_ 0.70786 0.690371 0.43008 -0.58347
O_ O_ 0.699874 0.673734 0.384606 -0.58347
O_ O_ 0.622716 0.752301 0.432676 -0.58347
O_ O_ 0.634737 0.757291 0.386383 -0.58347
O_ O_ 0.646876 0.601029 0.424721 -0.58347
O_ O_ 0.618996 0.606676 0.380157 -0.58347
O_ O_ 0.558175 0.668296 0.431118 -0.58347
O_ O_ 0.548556 0.685293 0.385173 -0.58347
O_ O_ 0.558763 0.709825 0.0784436 -0.46727
O_ O_ 0.732071 0.687337 0.0884604 -0.46727
O_ O_ 0.526498 0.685806 0.225944 -0.46727
O_ O_ 0.698346 0.645519 0.235195 -0.46727
O_ O_ 0.78684 0.817261 0.179191 -0.58347
O_ O_ 0.798453 0.802386 0.132969 -0.58347
O_ O_ 0.863886 0.737051 0.184913 -0.58347
O_ O_ 0.877383 0.736228 0.13797 -0.58347
O_ O_ 0.859828 0.888627 0.171471 -0.58347
O_ O_ 0.870689 0.883596 0.126176 -0.58347
O_ O_ 0.934902 0.8093 0.17835 -0.58347
O_ O_ 0.948037 0.812381 0.132106 -0.58347
O_ O_ 0.933944 0.780557 0.323672 -0.46727
O_ O_ 0.766366 0.820844 0.335199 -0.46727
O_ O_ 0.975609 0.824223 0.467781 -0.46727
O_ O_ 0.803641 0.83719 0.484304 -0.46727
Zn Zn 0.641795 0.676618 0.885614 0.90689
Zn Zn 0.650975 0.670728 0.933282 0.90689
Zn Zn 0.884397 0.818067 0.630314 0.90689
Zn Zn 0.872923 0.824838 0.67952 0.90689
H_ H_ 0.821491 0.66896 0.945309 0.11455
H_ H_ 0.883091 0.668123 0.843327 0.11455
H_ H_ 0.793499 0.668387 0.85497 0.11455
H_ H_ 0.906254 0.663155 0.959893 0.11455
H_ H_ 0.996628 0.651275 0.952866 0.11455
H_ H_ 0.975238 0.676819 0.863643 0.11455
H_ H_ 0.666027 0.502114 0.943281 0.11455
H_ H_ 0.597659 0.91761 0.851686 0.11455
H_ H_ 0.643176 0.515491 0.851825 0.11455
H_ H_ 0.666113 0.925291 0.96379 0.11455
H_ H_ 0.655777 0.832782 0.964608 0.11455
H_ H_ 0.604533 0.839055 0.873806 0.11455
H_ H_ 0.595217 0.588834 0.965588 0.11455
H_ H_ 0.593679 0.56124 0.51623 0.11455
H_ H_ 0.606137 0.624379 0.55455 0.11455
H_ H_ 0.713788 0.719398 0.975816 0.11455
H_ H_ 0.712879 0.808152 0.508464 0.11455
H_ H_ 0.704523 0.776127 0.560025 0.11455
H_ H_ 0.513217 0.719335 0.620461 0.11455
H_ H_ 0.499683 0.708822 0.673721 0.11455
H_ H_ 0.76289 0.675752 0.637386 0.11455
H_ H_ 0.749442 0.671336 0.688439 0.11455
H_ H_ 0.579263 0.589475 0.746953 0.11455
H_ H_ 0.552855 0.56454 0.794286 0.11455
H_ H_ 0.58493 0.608913 0.837057 0.11455
H_ H_ 0.645331 0.758239 0.763519 0.11455
H_ H_ 0.692295 0.793992 0.802547 0.11455
H_ H_ 0.692432 0.751259 0.850159 0.11455
H_ H_ 0.70879 0.839365 0.693079 0.11455
H_ H_ 0.637277 0.84416 0.596414 0.11455
H_ H_ 0.732338 0.83405 0.604231 0.11455
H_ H_ 0.62286 0.836595 0.713129 0.11455
H_ H_ 0.529479 0.833861 0.704587 0.11455
H_ H_ 0.555857 0.833711 0.613588 0.11455
H_ H_ 0.867481 0.996106 0.694748 0.11455
H_ H_ 0.854263 0.568643 0.592344 0.11455
H_ H_ 0.860068 0.980224 0.603675 0.11455
H_ H_ 0.848276 0.577545 0.71112 0.11455
H_ H_ 0.86331 0.663677 0.707657 0.11455
H_ H_ 0.869843 0.654657 0.614149 0.11455
H_ H_ 0.924285 0.894593 0.714344 0.11455
H_ H_ 0.943516 0.919249 0.764288 0.11455
H_ H_ 0.908673 0.870356 0.806221 0.11455
H_ H_ 0.813533 0.754044 0.723237 0.11455
H_ H_ 0.785916 0.699843 0.760896 0.11455
H_ H_ 0.803857 0.722294 0.811751 0.11455
H_ H_ 0.994937 0.775842 0.869464 0.11455
H_ H_ 1.00688571 0.770239 0.921996 0.11455
H_ H_ 0.752625 0.844904 0.890042 0.11455
H_ H_ 0.764424 0.845633 0.940126 0.11455
H_ H_ 0.953189 0.892861 0.995256 0.11455
H_ H_ 0.943513 0.940141 0.546658 0.11455
H_ H_ 0.93339 0.882036 0.585964 0.11455
H_ H_ 0.844728 0.754754 0.508787 0.11455
H_ H_ 0.821503 0.703197 0.548811 0.11455
H_ H_ 0.83061 0.738368 0.596716 0.11455
C_ C_ 0.746172 0.679731 0.906579 0.68181
C_ C_ 0.801075 0.675791 0.89952 -0.05681
C_ C_ 0.834922 0.671422 0.922608 -0.08735
C_ C_ 0.886792 0.661206 0.916067 -0.05681
C_ C_ 0.905539 0.665079 0.888611 -0.05681
C_ C_ 0.871976 0.666649 0.864922 -0.08735
C_ C_ 0.820099 0.668704 0.870668 -0.08735
C_ C_ 0.919686 0.656596 0.938618 -0.08735
C_ C_ 0.971329 0.655464 0.935235 -0.08735
C_ C_ 0.992263 0.662973 0.907195 -0.05681
C_ C_ 0.959141 0.667946 0.884143 -0.08735
C_ C_ 0.636302 0.770837 0.916284 0.68181
C_ C_ 0.655605 0.575715 0.899055 0.68181
C_ C_ 0.655139 0.517979 0.896708 -0.05681
C_ C_ 0.635509 -0.00984700000000005 0.920646 -0.08735
C_ C_ 0.634855 0.936217 0.920271 -0.05681
C_ C_ 0.62497 0.911239 0.895514 -0.05681
C_ C_ 0.619143 0.937611 0.869555 -0.08735
C_ C_ 0.623509 -0.008986999999999967 0.869649 -0.08735
C_ C_ 0.649428 0.906699 0.945826 -0.08735
C_ C_ 0.648899 0.854326 0.944983 -0.08735
C_ C_ 0.629787 0.829228 0.919805 -0.05681
C_ C_ 0.61663 0.858461 0.894904 -0.08735
C_ C_ 0.547185 0.668557 0.911906 0.68181
C_ C_ 0.612442 0.607981 0.984385 0.1947
C_ C_ 0.608924 0.599351 0.511582 -0.08735
C_ C_ 0.616918 0.635473 0.533564 -0.08735
C_ C_ 0.641945 0.681379 0.528562 -0.05681
C_ C_ 0.650929 0.694529 0.498777 0.18498
C_ C_ 0.695939 0.714318 0.996496 -0.08735
C_ C_ 0.693336 0.772223 0.514521 -0.08735
C_ C_ 0.681222 0.760452 0.543319 -0.08735
C_ C_ 0.654041 0.717022 0.5511 0.18498
C_ C_ 0.684623 0.688256 0.596988 0.44287
C_ C_ 0.596842 0.71031 0.591965 0.44287
C_ C_ 0.59089 0.706544 0.622069 -0.05681
C_ C_ 0.543582 0.712466 0.635348 -0.08735
C_ C_ 0.537519 0.709878 0.666113 -0.08735
C_ C_ 0.579972 0.695651 0.683888 -0.05681
C_ C_ 0.626678 0.688037 0.670596 -0.05681
C_ C_ 0.631789 0.692646 0.639626 -0.05681
C_ C_ 0.680215 0.684686 0.626806 -0.05681
C_ C_ 0.722859 0.675683 0.645622 -0.08735
C_ C_ 0.717687 0.679672 0.675558 -0.08735
C_ C_ 0.670348 0.68402 0.688287 -0.05681
C_ C_ 0.664429 0.679532 0.718675 0.44287
C_ C_ 0.576522 0.693907 0.713872 0.44287
C_ C_ 0.611929 0.66136 0.760354 0.18498
C_ C_ 0.587121 0.614034 0.764292 -0.08735
C_ C_ 0.574928 0.597616 0.792208 -0.08735
C_ C_ 0.592633 0.623425 0.816685 -0.08735
C_ C_ 0.622627 0.667288 0.812897 0.18498
C_ C_ 0.628822 0.687864 0.785322 -0.05681
C_ C_ 0.652139 0.734242 0.781902 -0.08735
C_ C_ 0.674281 0.756419 0.805599 -0.08735
C_ C_ 0.672875 0.73332 0.832121 0.1947
C_ C_ 0.780026 0.825931 0.654047 0.68181
C_ C_ 0.725561 0.832191 0.649276 -0.05681
C_ C_ 0.693635 0.832767 0.672329 -0.08735
C_ C_ 0.641619 0.841644 0.669197 -0.05681
C_ C_ 0.620161 0.840047 0.640625 -0.05681
C_ C_ 0.653844 0.841858 0.617328 -0.08735
C_ C_ 0.706539 0.841426 0.621618 -0.08735
C_ C_ 0.607803 0.841382 0.692366 -0.08735
C_ C_ 0.554586 0.835432 0.687042 -0.08735
C_ C_ 0.533881 0.83517 0.658982 -0.05681
C_ C_ 0.569012 0.834348 0.635107 -0.08735
C_ C_ 0.877747 0.724334 0.659283 0.68181
C_ C_ 0.874372 0.922143 0.65287 0.68181
C_ C_ 0.873488 0.978508 0.649883 -0.05681
C_ C_ 0.845677 0.508537 0.668089 -0.08735
C_ C_ 0.849643 0.562737 0.665443 -0.05681
C_ C_ 0.852572 0.586336 0.638532 -0.05681
C_ C_ 0.854204 0.554016 0.614216 -0.08735
C_ C_ 0.871443 1.000679444 0.622486 -0.08735
C_ C_ 0.851735 0.592933 0.689749 -0.08735
C_ C_ 0.865063 0.642577 0.68799 -0.08735
C_ C_ 0.868765 0.667885 0.661889 -0.05681
C_ C_ 0.862105 0.638223 0.635959 -0.08735
C_ C_ 0.977333 0.827206 0.657431 0.68181
C_ C_ 0.907687 0.872591 0.73311 0.1947
C_ C_ 0.923344 0.884169 0.760053 -0.08735
C_ C_ 0.901663 0.85804 0.78375 -0.08735
C_ C_ 0.86888 0.818157 0.779008 -0.05681
C_ C_ 0.857183 0.805459 0.750175 0.18498
C_ C_ 0.826897 0.763337 0.744068 -0.08735
C_ C_ 0.805643 0.733797 0.765684 -0.08735
C_ C_ 0.818915 0.745762 0.794101 -0.08735
C_ C_ 0.848566 0.788525 0.800848 0.18498
C_ C_ 0.821478 0.819683 0.847874 0.44287
C_ C_ 0.904358 0.78569 0.843078 0.44287
C_ C_ 0.915657 0.793221 0.87166 -0.05681
C_ C_ 0.965289 0.7838 0.883332 -0.08735
C_ C_ 0.971541 0.784212 0.913125 -0.08735
C_ C_ 0.931637 0.793377 0.932395 -0.05681
C_ C_ 0.884599 0.808005 0.920189 -0.05681
C_ C_ 0.875838 0.811061 0.890109 -0.05681
C_ C_ 0.827422 0.821078 0.877606 -0.05681
C_ C_ 0.78889 0.83547 0.897229 -0.08735
C_ C_ 0.796204 0.832515 0.926777 -0.08735
C_ C_ 0.844852 0.822132 0.939034 -0.05681
C_ C_ 0.852271 0.823776 0.969351 0.44287
C_ C_ 0.936221 0.791713 0.962016 0.44287
C_ C_ 0.899672 0.84287 0.508407 0.18498
C_ C_ 0.927092 0.887516 0.513688 -0.08735
C_ C_ 0.929198 0.903184 0.541618 -0.08735
C_ C_ 0.918536 0.870538 0.565276 -0.08735
C_ C_ 0.897783 0.824124 0.560586 0.18498
C_ C_ 0.88591 0.810019 0.531942 -0.05681
C_ C_ 0.852846 0.767898 0.528964 -0.08735
C_ C_ 0.836919 0.739509 0.551547 -0.08735
C_ C_ 0.847084 0.756738 0.578895 0.1947
N_ N_ 0.64491 0.647829 0.979481 -0.29468
N_ N_ 0.644976 0.70466 0.581103 -0.17154
N_ N_ 0.618271 0.680002 0.730766 -0.17154
N_ N_ 0.642907 0.69263 0.83675 -0.29468
N_ N_ 0.878842 0.83139 0.727673 -0.29468
N_ N_ 0.860237 0.800808 0.830663 -0.17154
N_ N_ 0.898178 0.810155 0.979754 -0.17154
N_ N_ 0.87805 0.7968 0.583077 -0.29468
O_ O_ 0.72816 0.678273 0.93143 -0.58347
O_ O_ 0.717687 0.681709 0.884567 -0.58347
O_ O_ 0.642834 0.743227 0.93873 -0.58347
O_ O_ 0.636686 0.75148 0.89078 -0.58347
O_ O_ 0.659962 0.596088 0.923943 -0.58347
O_ O_ 0.650374 0.602594 0.876882 -0.58347
O_ O_ 0.575425 0.661541 0.933584 -0.58347
O_ O_ 0.566331 0.673221 0.88654 -0.58347
O_ O_ 0.562033 0.730843 0.576407 -0.46727
O_ O_ 0.725739 0.675831 0.58428 -0.46727
O_ O_ 0.533292 0.702502 0.727139 -0.46727
O_ O_ 0.70592 0.677195 0.734871 -0.46727
O_ O_ 0.796759 0.825561 0.679612 -0.58347
O_ O_ 0.808489 0.816869 0.631826 -0.58347
O_ O_ 0.879144 0.751295 0.68245 -0.58347
O_ O_ 0.889263 0.745642 0.636214 -0.58347
O_ O_ 0.865017 0.900353 0.676416 -0.58347
O_ O_ 0.881887 0.895438 0.630654 -0.58347
O_ O_ 0.948328 0.836784 0.6781 -0.58347
O_ O_ 0.958102 0.823924 0.632646 -0.58347
O_ O_ 0.941869 0.768658 0.82696 -0.46727
O_ O_ 0.777377 0.835114 0.836989 -0.46727
O_ O_ 0.976846 0.770908 0.973328 -0.46727
O_ O_ 0.81731 0.84234 0.986843 -0.46727
