_cell_length_a 26.376
_cell_length_b 26.400000238300095
_cell_length_c 46.67800035477134
_cell_angle_alpha 90.00700052986613
_cell_angle_beta 89.99899961309502
_cell_angle_gamma 90.45000003183146
_symmetry_space_group_name_H-M         'P 1'
_symmetry_Int_Tables_number            1
loop_
_symmetry_equiv_pos_as_xyz
   'x, y, z'
                         
loop_
_atom_site_label
_atom_site_type_symbol
_atom_site_fract_x 
_atom_site_fract_y
_atom_site_fract_z
_atom_site_charge
Zn Zn 0.126136 0.182047 0.380955 0.90689
Zn Zn 0.136913 0.173434 0.426939 0.90689
Zn Zn 0.37768 0.318429 0.132431 0.90689
Zn Zn 0.367401 0.320062 0.179075 0.90689
H_ H_ 0.297248 0.212855 0.440673 0.11455
H_ H_ 0.371272 0.179281 0.34578 0.11455
H_ H_ 0.281165 0.164374 0.354908 0.11455
H_ H_ 0.384063 0.192829 0.462558 0.11455
H_ H_ 0.479797 0.192769 0.455338 0.11455
H_ H_ 0.461565 0.184054 0.364946 0.11455
H_ H_ 0.160608 0.00639869 0.438836 0.11455
H_ H_ 0.150739 0.4279 0.346006 0.11455
H_ H_ 0.142327 0.019655 0.348284 0.11455
H_ H_ 0.138363 0.422584 0.464665 0.11455
H_ H_ 0.106974 0.334389 0.459426 0.11455
H_ H_ 0.124866 0.346781 0.368475 0.11455
H_ H_ 0.0850774 0.0956539 0.461723 0.11455
H_ H_ 0.0926799 0.0741698 0.0159901 0.11455
H_ H_ 0.131522 0.123452 0.0520961 0.11455
H_ H_ 0.195843 0.232087 0.471237 0.11455
H_ H_ 0.226955 0.307565 0.0147031 0.11455
H_ H_ 0.197878 0.286491 0.063098 0.11455
H_ H_ 0.0129668 0.195507 0.120237 0.11455
H_ H_ 0.00108253 0.181918 0.17082 0.11455
H_ H_ 0.264739 0.17046 0.136555 0.11455
H_ H_ 0.253756 0.1649 0.188465 0.11455
H_ H_ 0.0484816 0.100117 0.245194 0.11455
H_ H_ 0.0272278 0.07409 0.296506 0.11455
H_ H_ 0.060495 0.126104 0.336117 0.11455
H_ H_ 0.148318 0.253495 0.257769 0.11455
H_ H_ 0.182698 0.295092 0.29967 0.11455
H_ H_ 0.173348 0.25859 0.345522 0.11455
H_ H_ 0.200215 0.312991 0.19433 0.11455
H_ H_ 0.126753 0.332431 0.0961394 0.11455
H_ H_ 0.221633 0.344773 0.102958 0.11455
H_ H_ 0.11288 0.326413 0.214758 0.11455
H_ H_ 0.0251092 0.312539 0.209484 0.11455
H_ H_ 0.0430871 0.327151 0.11661 0.11455
H_ H_ 0.384698 0.490741 0.197074 0.11455
H_ H_ 0.360307 0.0693664 0.0978416 0.11455
H_ H_ 0.368798 0.478381 0.104189 0.11455
H_ H_ 0.367912 0.0713039 0.215512 0.11455
H_ H_ 0.381746 0.166363 0.210564 0.11455
H_ H_ 0.374306 0.153517 0.118323 0.11455
H_ H_ 0.42982 0.384455 0.219806 0.11455
H_ H_ 0.430479 0.423571 0.264374 0.11455
H_ H_ 0.392781 0.378196 0.306847 0.11455
H_ H_ 0.298326 0.25861 0.224142 0.11455
H_ H_ 0.269265 0.206432 0.263663 0.11455
H_ H_ 0.286258 0.232292 0.313787 0.11455
H_ H_ 0.478704 0.304708 0.375325 0.11455
H_ H_ 0.490993 0.319813 0.424892 0.11455
H_ H_ 0.230237 0.349875 0.390163 0.11455
H_ H_ 0.238654 0.356514 0.440673 0.11455
H_ H_ 0.422406 0.419778 0.505246 0.11455
H_ H_ 0.436762 0.453951 0.0519557 0.11455
H_ H_ 0.433617 0.387296 0.0909915 0.11455
H_ H_ 0.351612 0.256845 0.00794437 0.11455
H_ H_ 0.323265 0.209503 0.0505207 0.11455
H_ H_ 0.328523 0.24333 0.0969779 0.11455
C_ C_ 0.228159 0.184496 0.402008 0.68181
C_ C_ 0.284981 0.189656 0.397922 -0.05681
C_ C_ 0.316195 0.198716 0.420416 -0.08735
C_ C_ 0.36752 0.192138 0.417087 -0.05681
C_ C_ 0.390035 0.185298 0.389221 -0.05681
C_ C_ 0.357548 0.179109 0.366879 -0.08735
C_ C_ 0.304481 0.179272 0.371362 -0.08735
C_ C_ 0.400343 0.193343 0.441398 -0.08735
C_ C_ 0.453771 0.190323 0.437641 -0.08735
C_ C_ 0.475504 0.185272 0.410748 -0.05681
C_ C_ 0.443197 0.186919 0.385991 -0.08735
C_ C_ 0.114715 0.276515 0.410725 0.68181
C_ C_ 0.150163 0.0797748 0.396269 0.68181
C_ C_ 0.153311 0.0220527 0.393652 -0.05681
C_ C_ 0.140219 0.489914 0.421675 -0.08735
C_ C_ 0.131811 0.437686 0.418436 -0.05681
C_ C_ 0.13366 0.414673 0.391616 -0.05681
C_ C_ 0.143354 0.445415 0.367787 -0.08735
C_ C_ 0.150841 0.497819 0.371781 -0.08735
C_ C_ 0.127952 0.408894 0.443079 -0.08735
C_ C_ 0.117788 0.357349 0.441078 -0.08735
C_ C_ 0.115792 0.334001 0.413552 -0.05681
C_ C_ 0.122488 0.362878 0.389217 -0.08735
C_ C_ 0.032823 0.170089 0.406058 0.68181
C_ C_ 0.104014 0.113767 0.478761 0.1947
C_ C_ 0.108224 0.111829 0.00952916 -0.08735
C_ C_ 0.129126 0.138936 0.0317643 -0.08735
C_ C_ 0.145608 0.187013 0.0270481 -0.05681
C_ C_ 0.153119 0.202863 0.998198 0.18498
C_ C_ 0.184768 0.221275 0.492493 -0.08735
C_ C_ 0.197719 0.277223 0.0168827 -0.08735
C_ C_ 0.182804 0.265614 0.0457286 -0.08735
C_ C_ 0.159898 0.218877 0.050552 0.18498
C_ C_ 0.192857 0.195126 0.0968952 0.44287
C_ C_ 0.104046 0.204886 0.0910924 0.44287
C_ C_ 0.0964893 0.192123 0.120971 -0.05681
C_ C_ 0.047034 0.195164 0.133787 -0.08735
C_ C_ 0.0387935 0.187869 0.162447 -0.08735
C_ C_ 0.0809835 0.185972 0.180777 -0.05681
C_ C_ 0.131153 0.187318 0.169362 -0.05681
C_ C_ 0.137777 0.186003 0.138618 -0.05681
C_ C_ 0.18757 0.188029 0.127041 -0.05681
C_ C_ 0.227483 0.174555 0.145655 -0.08735
C_ C_ 0.221859 0.174348 0.175321 -0.08735
C_ C_ 0.173277 0.182 0.187368 -0.05681
C_ C_ 0.163368 0.169721 0.217097 0.44287
C_ C_ 0.0739564 0.182723 0.210768 0.44287
C_ C_ 0.104197 0.156755 0.257931 0.18498
C_ C_ 0.0716044 0.113248 0.262343 -0.08735
C_ C_ 0.0563995 0.101316 0.291266 -0.08735
C_ C_ 0.0736117 0.130549 0.314212 -0.08735
C_ C_ 0.106279 0.170757 0.310114 0.18498
C_ C_ 0.119125 0.18618 0.281455 -0.05681
C_ C_ 0.145566 0.234642 0.27857 -0.08735
C_ C_ 0.162468 0.259952 0.302618 -0.08735
C_ C_ 0.155528 0.238485 0.329318 0.1947
C_ C_ 0.274341 0.318763 0.153012 0.68181
C_ C_ 0.217244 0.323847 0.149044 -0.05681
C_ C_ 0.183902 0.318898 0.173009 -0.08735
C_ C_ 0.131945 0.325313 0.170062 -0.05681
C_ C_ 0.111796 0.328709 0.14195 -0.05681
C_ C_ 0.144628 0.332105 0.116645 -0.08735
C_ C_ 0.196703 0.331734 0.121449 -0.08735
C_ C_ 0.100362 0.319915 0.193417 -0.08735
C_ C_ 0.0485961 0.318957 0.189224 -0.08735
C_ C_ 0.0276163 0.318528 0.162213 -0.05681
C_ C_ 0.0590636 0.324616 0.137572 -0.08735
C_ C_ 0.372336 0.221378 0.163596 0.68181
C_ C_ 0.370096 0.417725 0.153039 0.68181
C_ C_ 0.372616 0.474533 0.151004 -0.05681
C_ C_ 0.353396 0.00807649 0.172987 -0.08735
C_ C_ 0.360384 0.0602237 0.170359 -0.05681
C_ C_ 0.364041 0.0821934 0.142525 -0.05681
C_ C_ 0.35586 0.0520243 0.118341 -0.08735
C_ C_ 0.365744 0.497439 0.124409 -0.08735
C_ C_ 0.368007 0.0897195 0.195351 -0.08735
C_ C_ 0.372243 0.142093 0.19201 -0.08735
C_ C_ 0.37005 0.166485 0.165608 -0.05681
C_ C_ 0.368262 0.136901 0.140556 -0.08735
C_ C_ 0.472085 0.318732 0.160489 0.68181
C_ C_ 0.405378 0.369913 0.234967 0.1947
C_ C_ 0.411717 0.387374 0.261783 -0.08735
C_ C_ 0.387166 0.364859 0.285449 -0.08735
C_ C_ 0.356683 0.321174 0.280324 -0.05681
C_ C_ 0.34866 0.305584 0.250806 0.18498
C_ C_ 0.314954 0.267255 0.245068 -0.08735
C_ C_ 0.294539 0.238767 0.268321 -0.08735
C_ C_ 0.304321 0.251934 0.296477 -0.08735
C_ C_ 0.334642 0.294356 0.303341 0.18498
C_ C_ 0.302215 0.322148 0.350157 0.44287
C_ C_ 0.389429 0.30544 0.34603 0.44287
C_ C_ 0.398031 0.322008 0.374121 -0.05681
C_ C_ 0.446187 0.318073 0.387778 -0.08735
C_ C_ 0.452902 0.326531 0.416848 -0.08735
C_ C_ 0.411871 0.334071 0.434932 -0.05681
C_ C_ 0.363641 0.33699 0.421809 -0.05681
C_ C_ 0.356252 0.333086 0.391861 -0.05681
C_ C_ 0.307688 0.329097 0.380602 -0.05681
C_ C_ 0.266052 0.344354 0.398989 -0.08735
C_ C_ 0.273643 0.351133 0.428743 -0.08735
C_ C_ 0.322529 0.34554 0.440559 -0.05681
C_ C_ 0.329095 0.350703 0.469403 0.44287
C_ C_ 0.417367 0.334506 0.464825 0.44287
C_ C_ 0.39878 0.35244 0.0117911 0.18498
C_ C_ 0.411133 0.402461 0.0184712 -0.08735
C_ C_ 0.422462 0.415594 0.0471254 -0.08735
C_ C_ 0.419466 0.380188 0.0694904 -0.08735
C_ C_ 0.393048 0.333028 0.0634044 0.18498
C_ C_ 0.382845 0.320314 0.0346541 -0.05681
C_ C_ 0.360578 0.269894 0.0300624 -0.08735
C_ C_ 0.346222 0.242315 0.053354 -0.08735
C_ C_ 0.351544 0.261259 0.0808634 0.1947
N_ N_ 0.135844 0.153054 0.474879 -0.29468
N_ N_ 0.150794 0.202855 0.0797265 -0.17154
N_ N_ 0.115348 0.17397 0.228738 -0.17154
N_ N_ 0.126401 0.195581 0.333804 -0.29468
N_ N_ 0.371014 0.332668 0.228767 -0.29468
N_ N_ 0.342566 0.307586 0.333608 -0.17154
N_ N_ 0.375789 0.342203 0.481353 -0.17154
N_ N_ 0.380257 0.300951 0.0854295 -0.29468
O_ O_ 0.212204 0.181501 0.426921 -0.58347
O_ O_ 0.198214 0.192553 0.381388 -0.58347
O_ O_ 0.127455 0.250441 0.432919 -0.58347
O_ O_ 0.112279 0.255562 0.386206 -0.58347
O_ O_ 0.147014 0.0998487 0.421191 -0.58347
O_ O_ 0.141258 0.106904 0.375146 -0.58347
O_ O_ 0.0602049 0.164291 0.428067 -0.58347
O_ O_ 0.051646 0.170994 0.380814 -0.58347
O_ O_ 0.0659313 0.216988 0.0749393 -0.46727
O_ O_ 0.239345 0.191196 0.0850308 -0.46727
O_ O_ 0.0284162 0.183692 0.221737 -0.46727
O_ O_ 0.2003 0.155052 0.233409 -0.46727
O_ O_ 0.295193 0.327692 0.177406 -0.58347
O_ O_ 0.299011 0.304092 0.131583 -0.58347
O_ O_ 0.36129 0.246567 0.18595 -0.58347
O_ O_ 0.377364 0.242455 0.139692 -0.58347
O_ O_ 0.376897 0.393559 0.175956 -0.58347
O_ O_ 0.360275 0.392235 0.130629 -0.58347
O_ O_ 0.442233 0.306806 0.180815 -0.58347
O_ O_ 0.454777 0.331414 0.135842 -0.58347
O_ O_ 0.427751 0.285801 0.330642 -0.46727
O_ O_ 0.25569 0.317554 0.339866 -0.46727
O_ O_ 0.456878 0.312859 0.475599 -0.46727
O_ O_ 0.290475 0.361881 0.485213 -0.46727
Zn Zn 0.128996 0.182708 0.87804 0.90689
Zn Zn 0.137274 0.177757 0.927336 0.90689
Zn Zn 0.36299 0.301073 0.634014 0.90689
Zn Zn 0.354985 0.307076 0.680231 0.90689
H_ H_ 0.303369 0.207188 0.943178 0.11455
H_ H_ 0.369231 0.170695 0.849345 0.11455
H_ H_ 0.281906 0.165713 0.855441 0.11455
H_ H_ 0.387776 0.215276 0.963256 0.11455
H_ H_ 0.482292 0.21659 0.957676 0.11455
H_ H_ 0.460117 0.161529 0.869988 0.11455
H_ H_ 0.136135 0.00794459 0.942131 0.11455
H_ H_ 0.121028 0.432632 0.844992 0.11455
H_ H_ 0.127686 0.0173809 0.85025 0.11455
H_ H_ 0.141357 0.424973 0.964035 0.11455
H_ H_ 0.138836 0.336792 0.958661 0.11455
H_ H_ 0.127476 0.347849 0.8668 0.11455
H_ H_ 0.089751 0.110315 0.965522 0.11455
H_ H_ 0.0666748 0.0635668 0.509813 0.11455
H_ H_ 0.10503 0.106563 0.550399 0.11455
H_ H_ 0.196791 0.255774 0.970483 0.11455
H_ H_ 0.226475 0.283929 0.50848 0.11455
H_ H_ 0.200704 0.267343 0.558281 0.11455
H_ H_ 0.0198645 0.206421 0.620864 0.11455
H_ H_ 0.0062753 0.188934 0.673706 0.11455
H_ H_ 0.267646 0.174465 0.633428 0.11455
H_ H_ 0.259283 0.147085 0.682985 0.11455
H_ H_ 0.0756428 0.0732664 0.74888 0.11455
H_ H_ 0.055885 0.0542075 0.796987 0.11455
H_ H_ 0.0709122 0.119041 0.834445 0.11455
H_ H_ 0.168905 0.233701 0.752269 0.11455
H_ H_ 0.201521 0.283425 0.79262 0.11455
H_ H_ 0.178792 0.26399 0.84157 0.11455
H_ H_ 0.183577 0.304326 0.696344 0.11455
H_ H_ 0.117545 0.315137 0.598208 0.11455
H_ H_ 0.208917 0.311094 0.603979 0.11455
H_ H_ 0.101909 0.314741 0.714076 0.11455
H_ H_ 0.012869 0.304798 0.707654 0.11455
H_ H_ 0.0320112 0.314877 0.616572 0.11455
H_ H_ 0.371387 0.476678 0.69106 0.11455
H_ H_ 0.343928 0.054038 0.598261 0.11455
H_ H_ 0.321179 0.462339 0.604379 0.11455
H_ H_ 0.382831 0.0629917 0.713504 0.11455
H_ H_ 0.390585 0.154188 0.708798 0.11455
H_ H_ 0.355391 0.141422 0.618176 0.11455
H_ H_ 0.400182 0.384585 0.716501 0.11455
H_ H_ 0.417827 0.412869 0.764297 0.11455
H_ H_ 0.378162 0.370845 0.80674 0.11455
H_ H_ 0.302196 0.235955 0.725952 0.11455
H_ H_ 0.272598 0.185652 0.767407 0.11455
H_ H_ 0.299119 0.208754 0.815872 0.11455
H_ H_ 0.47971 0.277862 0.874239 0.11455
H_ H_ 0.498575 0.323293 0.919046 0.11455
H_ H_ 0.233905 0.346421 0.892076 0.11455
H_ H_ 0.251692 0.352792 0.943347 0.11455
H_ H_ 0.41977 0.428171 0.00176904 0.11455
H_ H_ 0.438232 0.440297 0.55596 0.11455
H_ H_ 0.411951 0.380965 0.592054 0.11455
H_ H_ 0.340639 0.255837 0.506744 0.11455
H_ H_ 0.308005 0.202265 0.542238 0.11455
H_ H_ 0.320125 0.224421 0.594156 0.11455
C_ C_ 0.231799 0.189231 0.904294 0.68181
C_ C_ 0.285946 0.187098 0.900867 -0.05681
C_ C_ 0.31887 0.191302 0.924206 -0.08735
C_ C_ 0.371608 0.186872 0.920557 -0.05681
C_ C_ 0.391137 0.179467 0.892884 -0.05681
C_ C_ 0.358327 0.168645 0.871087 -0.08735
C_ C_ 0.306327 0.17168 0.874542 -0.08735
C_ C_ 0.404407 0.200648 0.942921 -0.08735
C_ C_ 0.458161 0.20337 0.939464 -0.08735
C_ C_ 0.478335 0.192737 0.911624 -0.05681
C_ C_ 0.444538 0.177919 0.889619 -0.08735
C_ C_ 0.123822 0.27867 0.909632 0.68181
C_ C_ 0.141003 0.0787317 0.898312 0.68181
C_ C_ 0.136251 0.0219166 0.89656 -0.05681
C_ C_ 0.137035 0.493326 0.919123 -0.08735
C_ C_ 0.132174 0.441313 0.918041 -0.05681
C_ C_ 0.129312 0.418824 0.890578 -0.05681
C_ C_ 0.135762 0.449202 0.866204 -0.08735
C_ C_ 0.138256 0.499746 0.868269 -0.08735
C_ C_ 0.135205 0.410981 0.942436 -0.08735
C_ C_ 0.134527 0.358434 0.939082 -0.08735
C_ C_ 0.123993 0.335396 0.912722 -0.05681
C_ C_ 0.125522 0.36537 0.887445 -0.08735
C_ C_ 0.037632 0.176884 0.90175 0.68181
C_ C_ 0.111842 0.129169 0.981573 0.1947
C_ C_ 0.0933757 0.0957965 0.505801 -0.08735
C_ C_ 0.11273 0.12161 0.529738 -0.08735
C_ C_ 0.138879 0.169501 0.52591 -0.05681
C_ C_ 0.150663 0.182168 0.497407 0.18498
C_ C_ 0.184608 0.244977 0.9938 -0.08735
C_ C_ 0.204035 0.249339 0.514231 -0.08735
C_ C_ 0.18967 0.240822 0.542428 -0.08735
C_ C_ 0.15789 0.198386 0.54847 0.18498
C_ C_ 0.190708 0.167194 0.593261 0.44287
C_ C_ 0.106471 0.199498 0.591896 0.44287
C_ C_ 0.0978566 0.186205 0.62063 -0.05681
C_ C_ 0.0512689 0.193025 0.633948 -0.08735
C_ C_ 0.0443172 0.184487 0.663913 -0.08735
C_ C_ 0.0868392 0.174812 0.682134 -0.05681
C_ C_ 0.133486 0.168825 0.66852 -0.05681
C_ C_ 0.139456 0.174507 0.637994 -0.05681
C_ C_ 0.187679 0.16797 0.624619 -0.05681
C_ C_ 0.229377 0.164171 0.64201 -0.08735
C_ C_ 0.224397 0.161052 0.671552 -0.08735
C_ C_ 0.176425 0.158943 0.685941 -0.05681
C_ C_ 0.169519 0.14687 0.71456 0.44287
C_ C_ 0.0822933 0.168056 0.711589 0.44287
C_ C_ 0.116677 0.141699 0.756775 0.18498
C_ C_ 0.0906034 0.0975822 0.7647 -0.08735
C_ C_ 0.0768118 0.0871103 0.792518 -0.08735
C_ C_ 0.0898445 0.122352 0.814558 -0.08735
C_ C_ 0.120342 0.164451 0.80809 0.18498
C_ C_ 0.136323 0.173058 0.778591 -0.05681
C_ C_ 0.161477 0.2185 0.774038 -0.08735
C_ C_ 0.175399 0.252325 0.796361 -0.08735
C_ C_ 0.163216 0.23917 0.824725 0.1947
C_ C_ 0.260217 0.295024 0.654009 0.68181
C_ C_ 0.205547 0.303148 0.650759 -0.05681
C_ C_ 0.171307 0.304095 0.673874 -0.08735
C_ C_ 0.120824 0.310646 0.66932 -0.05681
C_ C_ 0.101271 0.314179 0.641485 -0.05681
C_ C_ 0.134437 0.319809 0.618706 -0.08735
C_ C_ 0.185325 0.313187 0.622936 -0.08735
C_ C_ 0.0874037 0.311004 0.692762 -0.08735
C_ C_ 0.0368296 0.312192 0.688657 -0.08735
C_ C_ 0.0155625 0.311106 0.661265 -0.05681
C_ C_ 0.048446 0.317098 0.638309 -0.08735
C_ C_ 0.373947 0.208766 0.663564 0.68181
C_ C_ 0.346725 0.402326 0.651661 0.68181
C_ C_ 0.348646 0.458342 0.647503 -0.05681
C_ C_ 0.369699 -0.004917999999999978 0.671091 -0.08735
C_ C_ 0.373895 0.0469397 0.668701 -0.05681
C_ C_ 0.36401 0.0698861 0.64142 -0.05681
C_ C_ 0.34681 0.0385831 0.619027 -0.08735
C_ C_ 0.334493 0.484053 0.621696 -0.08735
C_ C_ 0.381482 0.0781918 0.69286 -0.08735
C_ C_ 0.389048 0.129674 0.68959 -0.08735
C_ C_ 0.379872 0.153999 0.663343 -0.05681
C_ C_ 0.366665 0.123594 0.638754 -0.08735
C_ C_ 0.459505 0.312061 0.657015 0.68181
C_ C_ 0.382377 0.363513 0.73421 0.1947
C_ C_ 0.387902 0.383821 0.76075 -0.08735
C_ C_ 0.37111 0.358696 0.784545 -0.08735
C_ C_ 0.347495 0.309835 0.781271 -0.05681
C_ C_ 0.33758 0.293937 0.752377 0.18498
C_ C_ 0.315885 0.246487 0.747542 -0.08735
C_ C_ 0.2999 0.216705 0.769788 -0.08735
C_ C_ 0.310051 0.232181 0.798101 -0.08735
C_ C_ 0.332355 0.279272 0.804127 0.18498
C_ C_ 0.303215 0.314413 0.850709 0.44287
C_ C_ 0.389309 0.288858 0.846562 0.44287
C_ C_ 0.400207 0.305787 0.874593 -0.05681
C_ C_ 0.448856 0.298825 0.88717 -0.08735
C_ C_ 0.460023 0.320866 0.913232 -0.08735
C_ C_ 0.420473 0.323955 0.933112 -0.05681
C_ C_ 0.371124 0.332256 0.922363 -0.05681
C_ C_ 0.362114 0.326356 0.891799 -0.05681
C_ C_ 0.312778 0.326028 0.879613 -0.05681
C_ C_ 0.269448 0.332364 0.899583 -0.08735
C_ C_ 0.281804 0.344605 0.929532 -0.08735
C_ C_ 0.330219 0.334905 0.941341 -0.05681
C_ C_ 0.340193 0.340027 0.971591 0.44287
C_ C_ 0.429361 0.329137 0.963767 0.44287
C_ C_ 0.383839 0.351261 0.512625 0.18498
C_ C_ 0.406363 0.397135 0.521772 -0.08735
C_ C_ 0.415497 0.407622 0.549973 -0.08735
C_ C_ 0.400339 0.37258 0.570494 -0.08735
C_ C_ 0.374477 0.32698 0.563385 0.18498
C_ C_ 0.36866 0.314874 0.534621 -0.05681
C_ C_ 0.345596 0.267975 0.527957 -0.08735
C_ C_ 0.330255 0.234726 0.549861 -0.08735
C_ C_ 0.333995 0.250857 0.578139 0.1947
N_ N_ 0.132743 0.174157 0.975649 -0.29468
N_ N_ 0.149937 0.184616 0.578515 -0.17154
N_ N_ 0.12358 0.153826 0.72707 -0.17154
N_ N_ 0.135144 0.197117 0.829724 -0.29468
N_ N_ 0.357113 0.318721 0.729889 -0.29468
N_ N_ 0.342126 0.294744 0.834443 -0.17154
N_ N_ 0.389232 0.33923 0.981508 -0.17154
N_ N_ 0.359373 0.295701 0.585505 -0.29468
O_ O_ 0.212146 0.189769 0.928448 -0.58347
O_ O_ 0.203203 0.184778 0.882382 -0.58347
O_ O_ 0.131047 0.252369 0.931243 -0.58347
O_ O_ 0.125179 0.258171 0.884957 -0.58347
O_ O_ 0.142876 0.0989083 0.922793 -0.58347
O_ O_ 0.132129 0.1068 0.878219 -0.58347
O_ O_ 0.0672047 0.17121 0.922326 -0.58347
O_ O_ 0.0545907 0.179269 0.876323 -0.58347
O_ O_ 0.0721322 0.227292 0.578267 -0.46727
O_ O_ 0.235251 0.160106 0.580943 -0.46727
O_ O_ 0.0399766 0.178037 0.724814 -0.46727
O_ O_ 0.210398 0.134503 0.730509 -0.46727
O_ O_ 0.278244 0.293304 0.679588 -0.58347
O_ O_ 0.289095 0.289533 0.632194 -0.58347
O_ O_ 0.362483 0.231252 0.685423 -0.58347
O_ O_ 0.37385 0.229391 0.639611 -0.58347
O_ O_ 0.349453 0.380599 0.675339 -0.58347
O_ O_ 0.346622 0.375376 0.628486 -0.58347
O_ O_ 0.431506 0.311319 0.679367 -0.58347
O_ O_ 0.439639 0.314739 0.632546 -0.58347
O_ O_ 0.424898 0.26693 0.831568 -0.46727
O_ O_ 0.254925 0.314268 0.840275 -0.46727
O_ O_ 0.474569 0.327515 0.974363 -0.46727
O_ O_ 0.303321 0.344506 0.9892 -0.46727
Zn Zn 0.13794 0.682948 0.380636 0.90689
Zn Zn 0.146061 0.678909 0.428615 0.90689
Zn Zn 0.376489 0.814223 0.131446 0.90689
Zn Zn 0.369035 0.824714 0.17726 0.90689
H_ H_ 0.318254 0.687746 0.447854 0.11455
H_ H_ 0.386366 0.669445 0.34748 0.11455
H_ H_ 0.290394 0.676441 0.354556 0.11455
H_ H_ 0.404141 0.663529 0.465133 0.11455
H_ H_ 0.494436 0.67745 0.45787 0.11455
H_ H_ 0.470912 0.670335 0.365086 0.11455
H_ H_ 0.137497 0.511136 0.44109 0.11455
H_ H_ 0.136616 0.926333 0.344918 0.11455
H_ H_ 0.152324 0.51995 0.351408 0.11455
H_ H_ 0.154128 0.924894 0.462429 0.11455
H_ H_ 0.133462 0.834788 0.458075 0.11455
H_ H_ 0.13684 0.844246 0.366169 0.11455
H_ H_ 0.091498 0.591468 0.46349 0.11455
H_ H_ 0.0574133 0.588146 0.0142912 0.11455
H_ H_ 0.104673 0.629426 0.0551371 0.11455
H_ H_ 0.194868 0.734334 0.472581 0.11455
H_ H_ 0.222932 0.801 0.0124968 0.11455
H_ H_ 0.189121 0.788157 0.061537 0.11455
H_ H_ 0.0206181 0.698762 0.122968 0.11455
H_ H_ 0.0117042 0.692129 0.176536 0.11455
H_ H_ 0.266889 0.653033 0.13214 0.11455
H_ H_ 0.257591 0.629867 0.181053 0.11455
H_ H_ 0.103733 0.581124 0.247077 0.11455
H_ H_ 0.0600452 0.569132 0.296005 0.11455
H_ H_ 0.0791914 0.633688 0.333823 0.11455
H_ H_ 0.189729 0.735869 0.255457 0.11455
H_ H_ 0.210349 0.793007 0.297419 0.11455
H_ H_ 0.195429 0.763219 0.347229 0.11455
H_ H_ 0.206715 0.810678 0.198908 0.11455
H_ H_ 0.133952 0.844835 0.102756 0.11455
H_ H_ 0.225743 0.844673 0.109647 0.11455
H_ H_ 0.122766 0.806362 0.217879 0.11455
H_ H_ 0.0315094 0.805722 0.212522 0.11455
H_ H_ 0.0519146 0.827658 0.121627 0.11455
H_ H_ 0.352993 0.988202 0.193513 0.11455
H_ H_ 0.369348 0.563206 0.0993514 0.11455
H_ H_ 0.351135 0.977369 0.101569 0.11455
H_ H_ 0.397345 0.57783 0.218405 0.11455
H_ H_ 0.391226 0.665283 0.212189 0.11455
H_ H_ 0.354345 0.649001 0.12353 0.11455
H_ H_ 0.421872 0.911935 0.213531 0.11455
H_ H_ 0.414011 0.944224 0.259105 0.11455
H_ H_ 0.385231 0.889822 0.301183 0.11455
H_ H_ 0.320722 0.756409 0.219007 0.11455
H_ H_ 0.307837 0.699868 0.256659 0.11455
H_ H_ 0.318095 0.721705 0.30519 0.11455
H_ H_ 0.495603 0.807166 0.369976 0.11455
H_ H_ 0.501903 0.81267 0.421846 0.11455
H_ H_ 0.240594 0.820801 0.38101 0.11455
H_ H_ 0.249147 0.827714 0.434558 0.11455
H_ H_ 0.421706 0.907438 0.4988 0.11455
H_ H_ 0.451821 0.935932 0.0448416 0.11455
H_ H_ 0.43005 0.88325 0.0855963 0.11455
H_ H_ 0.34672 0.748843 0.00991629 0.11455
H_ H_ 0.298096 0.713475 0.0501944 0.11455
H_ H_ 0.319441 0.746955 0.0984071 0.11455
C_ C_ 0.240738 0.684478 0.407152 0.68181
C_ C_ 0.298058 0.683212 0.402197 -0.05681
C_ C_ 0.330277 0.676295 0.426191 -0.08735
C_ C_ 0.383444 0.67085 0.420152 -0.05681
C_ C_ 0.403384 0.674319 0.391685 -0.05681
C_ C_ 0.36947 0.672696 0.368038 -0.08735
C_ C_ 0.318249 0.67686 0.372875 -0.08735
C_ C_ 0.417751 0.667081 0.443438 -0.08735
C_ C_ 0.470202 0.675617 0.438402 -0.08735
C_ C_ 0.49024 0.673555 0.410974 -0.05681
C_ C_ 0.456784 0.674772 0.386973 -0.08735
C_ C_ 0.133871 0.777087 0.410373 0.68181
C_ C_ 0.149426 0.580306 0.399895 0.68181
C_ C_ 0.144649 0.521909 0.397531 -0.05681
C_ C_ 0.154573 0.990047 0.418413 -0.08735
C_ C_ 0.150711 0.937252 0.416889 -0.05681
C_ C_ 0.148083 0.913432 0.389301 -0.05681
C_ C_ 0.147272 0.945197 0.365409 -0.08735
C_ C_ 0.146624 0.998305 0.367503 -0.08735
C_ C_ 0.149654 0.90873 0.441 -0.08735
C_ C_ 0.141818 0.856449 0.439098 -0.08735
C_ C_ 0.138799 0.833105 0.412417 -0.05681
C_ C_ 0.146926 0.861043 0.386628 -0.08735
C_ C_ 0.047742 0.676628 0.405448 0.68181
C_ C_ 0.0987452 0.620302 0.480225 0.1947
C_ C_ 0.0879101 0.615313 0.0106873 -0.08735
C_ C_ 0.114244 0.637145 0.033764 -0.08735
C_ C_ 0.142692 0.681528 0.0283494 -0.05681
C_ C_ 0.149877 0.696917 0.999344 0.18498
C_ C_ 0.176314 0.732161 0.492839 -0.08735
C_ C_ 0.195285 0.771067 0.0153388 -0.08735
C_ C_ 0.178012 0.762844 0.0439435 -0.08735
C_ C_ 0.156484 0.716248 0.0510814 0.18498
C_ C_ 0.193791 0.693183 0.0974454 0.44287
C_ C_ 0.10416 0.706086 0.0941315 0.44287
C_ C_ 0.100729 0.695671 0.123563 -0.05681
C_ C_ 0.0517111 0.69204 0.136602 -0.08735
C_ C_ 0.04897 0.693877 0.166117 -0.08735
C_ C_ 0.0910737 0.683595 0.184149 -0.05681
C_ C_ 0.137512 0.675524 0.170603 -0.05681
C_ C_ 0.142407 0.684036 0.140389 -0.05681
C_ C_ 0.189789 0.679758 0.127549 -0.05681
C_ C_ 0.231699 0.662619 0.143777 -0.08735
C_ C_ 0.226662 0.653788 0.173094 -0.08735
C_ C_ 0.180728 0.663938 0.186497 -0.05681
C_ C_ 0.173851 0.654491 0.215711 0.44287
C_ C_ 0.0879669 0.680813 0.21474 0.44287
C_ C_ 0.127965 0.656466 0.258989 0.18498
C_ C_ 0.108094 0.608078 0.265263 -0.08735
C_ C_ 0.0866008 0.599538 0.293001 -0.08735
C_ C_ 0.103768 0.630816 0.316062 -0.08735
C_ C_ 0.130972 0.674361 0.311461 0.18498
C_ C_ 0.147883 0.684748 0.2827 -0.05681
C_ C_ 0.179518 0.727419 0.278611 -0.08735
C_ C_ 0.194802 0.75641 0.302175 -0.08735
C_ C_ 0.183066 0.739915 0.329432 0.1947
C_ C_ 0.276661 0.813902 0.154561 0.68181
C_ C_ 0.221801 0.82276 0.153264 -0.05681
C_ C_ 0.18955 0.814442 0.176734 -0.08735
C_ C_ 0.138302 0.819967 0.173329 -0.05681
C_ C_ 0.117522 0.835053 0.146868 -0.05681
C_ C_ 0.149431 0.842178 0.122924 -0.08735
C_ C_ 0.201619 0.842384 0.127264 -0.08735
C_ C_ 0.105721 0.817345 0.198318 -0.08735
C_ C_ 0.0525908 0.820694 0.194721 -0.08735
C_ C_ 0.0307253 0.829535 0.166832 -0.05681
C_ C_ 0.0657277 0.831692 0.142772 -0.08735
C_ C_ 0.386283 0.721044 0.16136 0.68181
C_ C_ 0.35742 0.918395 0.148967 0.68181
C_ C_ 0.352696 0.976305 0.14817 -0.05681
C_ C_ 0.377786 0.508274 0.175609 -0.08735
C_ C_ 0.385635 0.560699 0.173201 -0.05681
C_ C_ 0.375448 0.581714 0.145534 -0.05681
C_ C_ 0.369835 0.550312 0.121629 -0.08735
C_ C_ 0.35553 -0.0013849999999999696 0.120715 -0.08735
C_ C_ 0.38876 0.590964 0.196728 -0.08735
C_ C_ 0.385207 0.642543 0.193644 -0.08735
C_ C_ 0.382008 0.665344 0.165569 -0.05681
C_ C_ 0.370176 0.634575 0.142789 -0.08735
C_ C_ 0.471727 0.835283 0.152779 0.68181
C_ C_ 0.398313 0.890425 0.229283 0.1947
C_ C_ 0.402265 0.906502 0.255967 -0.08735
C_ C_ 0.383297 0.878327 0.278812 -0.08735
C_ C_ 0.365809 0.828401 0.273855 -0.05681
C_ C_ 0.355351 0.814719 0.245244 0.18498
C_ C_ 0.331115 0.769157 0.24 -0.08735
C_ C_ 0.317764 0.736661 0.261819 -0.08735
C_ C_ 0.327488 0.751096 0.289759 -0.08735
C_ C_ 0.350682 0.79647 0.296542 0.18498
C_ C_ 0.315735 0.810945 0.343661 0.44287
C_ C_ 0.405745 0.806967 0.339729 0.44287
C_ C_ 0.411541 0.809116 0.369652 -0.05681
C_ C_ 0.460199 0.80794 0.382058 -0.08735
C_ C_ 0.464896 0.80763 0.41263 -0.08735
C_ C_ 0.422067 0.807814 0.429884 -0.05681
C_ C_ 0.373617 0.813113 0.416601 -0.05681
C_ C_ 0.368757 0.812522 0.386684 -0.05681
C_ C_ 0.321047 0.814503 0.37404 -0.05681
C_ C_ 0.278034 0.819526 0.391438 -0.08735
C_ C_ 0.282577 0.821456 0.421166 -0.08735
C_ C_ 0.330135 0.81959 0.433944 -0.05681
C_ C_ 0.336558 0.823413 0.465181 0.44287
C_ C_ 0.425526 0.80927 0.461312 0.44287
C_ C_ 0.380595 0.849422 0.00929577 0.18498
C_ C_ 0.403484 0.895726 0.0143106 -0.08735
C_ C_ 0.4265 0.903978 0.0410598 -0.08735
C_ C_ 0.417874 0.8725 0.0642168 -0.08735
C_ C_ 0.388799 0.826867 0.0598878 0.18498
C_ C_ 0.376555 0.813251 0.031622 -0.05681
C_ C_ 0.3497 0.766664 0.0291993 -0.08735
C_ C_ 0.325219 0.744818 0.0524529 -0.08735
C_ C_ 0.334806 0.76542 0.0795021 0.1947
N_ N_ 0.12697 0.66246 0.474683 -0.29468
N_ N_ 0.151511 0.703957 0.0813926 -0.17154
N_ N_ 0.130214 0.669353 0.229855 -0.17154
N_ N_ 0.148838 0.702288 0.33373 -0.29468
N_ N_ 0.373759 0.845484 0.223476 -0.29468
N_ N_ 0.358474 0.809813 0.327239 -0.17154
N_ N_ 0.384208 0.821309 0.477196 -0.17154
N_ N_ 0.37158 0.801141 0.0832834 -0.29468
O_ O_ 0.221457 0.684323 0.432832 -0.58347
O_ O_ 0.21326 0.684132 0.386591 -0.58347
O_ O_ 0.132596 0.750679 0.433989 -0.58347
O_ O_ 0.135017 0.75705 0.385445 -0.58347
O_ O_ 0.153744 0.600883 0.424263 -0.58347
O_ O_ 0.139761 0.607743 0.377989 -0.58347
O_ O_ 0.0754364 0.661731 0.424408 -0.58347
O_ O_ 0.0643176 0.684854 0.380649 -0.58347
O_ O_ 0.0646318 0.7137 0.0781433 -0.46727
O_ O_ 0.236601 0.686557 0.0847965 -0.46727
O_ O_ 0.0438133 0.679425 0.226897 -0.46727
O_ O_ 0.215101 0.641396 0.231133 -0.46727
O_ O_ 0.296319 0.810175 0.179085 -0.58347
O_ O_ 0.302971 0.816091 0.132041 -0.58347
O_ O_ 0.382882 0.750578 0.182745 -0.58347
O_ O_ 0.380781 0.739239 0.136142 -0.58347
O_ O_ 0.355762 0.897627 0.173069 -0.58347
O_ O_ 0.366479 0.890333 0.127604 -0.58347
O_ O_ 0.44445 0.836549 0.174956 -0.58347
O_ O_ 0.450889 0.820361 0.129997 -0.58347
O_ O_ 0.445415 0.804672 0.321719 -0.46727
O_ O_ 0.273747 0.827055 0.33165 -0.46727
O_ O_ 0.468567 0.798435 0.474386 -0.46727
O_ O_ 0.295385 0.8246 0.482019 -0.46727
Zn Zn 0.128294 0.68126 0.880522 0.90689
Zn Zn 0.135052 0.6813 0.928371 0.90689
Zn Zn 0.363336 0.805591 0.630336 0.90689
Zn Zn 0.355631 0.81207 0.679464 0.90689
H_ H_ 0.300256 0.692361 0.942146 0.11455
H_ H_ 0.375591 0.651049 0.84759 0.11455
H_ H_ 0.28514 0.648474 0.853403 0.11455
H_ H_ 0.381812 0.695308 0.960976 0.11455
H_ H_ 0.478334 0.703954 0.957314 0.11455
H_ H_ 0.460355 0.673501 0.865058 0.11455
H_ H_ 0.147114 0.51095 0.939509 0.11455
H_ H_ 0.137209 0.926718 0.846487 0.11455
H_ H_ 0.131016 0.520621 0.849304 0.11455
H_ H_ 0.120478 0.923899 0.966167 0.11455
H_ H_ 0.128887 0.834364 0.960516 0.11455
H_ H_ 0.117502 0.848263 0.868465 0.11455
H_ H_ 0.0766274 0.610626 0.966475 0.11455
H_ H_ 0.0488724 0.578307 0.509853 0.11455
H_ H_ 0.0835493 0.629966 0.553074 0.11455
H_ H_ 0.19818 0.738637 0.972936 0.11455
H_ H_ 0.201192 0.806298 0.508515 0.11455
H_ H_ 0.176084 0.786583 0.558317 0.11455
H_ H_ 1.00176 0.728639 0.62085 0.11455
H_ H_ 0.986256 0.705362 0.668885 0.11455
H_ H_ 0.244078 0.654562 0.631957 0.11455
H_ H_ 0.237386 0.655075 0.686057 0.11455
H_ H_ 0.0588427 0.58219 0.749667 0.11455
H_ H_ 0.0404492 0.561264 0.798443 0.11455
H_ H_ 0.0755459 0.616597 0.837691 0.11455
H_ H_ 0.133714 0.750615 0.752779 0.11455
H_ H_ 0.179117 0.790361 0.793918 0.11455
H_ H_ 0.165319 0.765654 0.842469 0.11455
H_ H_ 0.184334 0.805571 0.692312 0.11455
H_ H_ 0.117534 0.848252 0.598277 0.11455
H_ H_ 0.206244 0.843001 0.602978 0.11455
H_ H_ 0.10237 0.806631 0.711717 0.11455
H_ H_ 0.00968292 0.817987 0.708748 0.11455
H_ H_ 0.0311096 0.843869 0.617249 0.11455
H_ H_ 0.380285 0.975524 0.691107 0.11455
H_ H_ 0.32948 0.552243 0.598693 0.11455
H_ H_ 0.342863 0.964545 0.602549 0.11455
H_ H_ 0.388546 0.563881 0.711042 0.11455
H_ H_ 0.397157 0.651979 0.702611 0.11455
H_ H_ 0.350562 0.635972 0.615776 0.11455
H_ H_ 0.410335 0.88115 0.716616 0.11455
H_ H_ 0.419564 0.916983 0.764341 0.11455
H_ H_ 0.380466 0.871352 0.806078 0.11455
H_ H_ 0.291642 0.747587 0.723179 0.11455
H_ H_ 0.245263 0.705577 0.763562 0.11455
H_ H_ 0.26487 0.733244 0.814935 0.11455
H_ H_ 0.470485 0.793096 0.870507 0.11455
H_ H_ 0.481572 0.801082 0.921263 0.11455
H_ H_ 0.2247 0.860243 0.886819 0.11455
H_ H_ 0.235431 0.860103 0.941238 0.11455
H_ H_ 0.412834 0.922187 0.995335 0.11455
H_ H_ 0.452332 0.9221 0.547725 0.11455
H_ H_ 0.41906 0.865187 0.588078 0.11455
H_ H_ 0.347566 0.734184 0.502887 0.11455
H_ H_ 0.296834 0.699217 0.544527 0.11455
H_ H_ 0.309012 0.73061 0.592547 0.11455
C_ C_ 0.229195 0.682124 0.901734 0.68181
C_ C_ 0.285627 0.681359 0.895841 -0.05681
C_ C_ 0.31694 0.688299 0.920918 -0.08735
C_ C_ 0.369792 0.68562 0.917517 -0.05681
C_ C_ 0.39072 0.674412 0.890507 -0.05681
C_ C_ 0.358651 0.665677 0.867032 -0.08735
C_ C_ 0.30645 0.669431 0.869084 -0.08735
C_ C_ 0.400852 0.689424 0.941099 -0.08735
C_ C_ 0.453292 0.695155 0.937892 -0.08735
C_ C_ 0.475477 0.685625 0.910489 -0.05681
C_ C_ 0.443354 0.677182 0.887237 -0.08735
C_ C_ 0.121461 0.777507 0.912379 0.68181
C_ C_ 0.130587 0.580133 0.895979 0.68181
C_ C_ 0.136553 0.52376 0.894687 -0.05681
C_ C_ 0.133461 0.992666 0.921063 -0.08735
C_ C_ 0.123886 0.940403 0.918646 -0.05681
C_ C_ 0.124776 0.917074 0.891204 -0.05681
C_ C_ 0.132622 0.944251 0.867122 -0.08735
C_ C_ 0.137001 -0.00260087 0.869352 -0.08735
C_ C_ 0.122056 0.90849 0.94348 -0.08735
C_ C_ 0.126503 0.857607 0.940329 -0.08735
C_ C_ 0.121532 0.833108 0.91419 -0.05681
C_ C_ 0.117211 0.864819 0.88981 -0.08735
C_ C_ 0.0335965 0.676429 0.908286 0.68181
C_ C_ 0.0975755 0.630616 0.983156 0.1947
C_ C_ 0.0795635 0.609756 0.508171 -0.08735
C_ C_ 0.0956367 0.639118 0.53118 -0.08735
C_ C_ 0.12741 0.682033 0.525657 -0.05681
C_ C_ 0.143563 0.691298 0.497619 0.18498
C_ C_ 0.181369 0.737661 0.993503 -0.08735
C_ C_ 0.18592 0.769311 0.513171 -0.08735
C_ C_ 0.167305 0.760753 0.540983 -0.08735
C_ C_ 0.142958 0.714393 0.547775 0.18498
C_ C_ 0.172438 0.681855 0.594649 0.44287
C_ C_ 0.0904141 0.715546 0.591342 0.44287
C_ C_ 0.0808063 0.708874 0.620116 -0.05681
C_ C_ 0.033894 0.714722 0.633152 -0.08735
C_ C_ 0.0252452 0.69974 0.660968 -0.08735
C_ C_ 0.0660361 0.688132 0.680229 -0.05681
C_ C_ 0.113702 0.680125 0.667314 -0.05681
C_ C_ 0.121658 0.691957 0.637296 -0.05681
C_ C_ 0.170011 0.682458 0.624884 -0.05681
C_ C_ 0.20983 0.667424 0.642184 -0.08735
C_ C_ 0.202433 0.663714 0.672158 -0.08735
C_ C_ 0.154518 0.672658 0.684865 -0.05681
C_ C_ 0.148301 0.666967 0.714879 0.44287
C_ C_ 0.0597826 0.682651 0.710359 0.44287
C_ C_ 0.0913404 0.655418 0.757593 0.18498
C_ C_ 0.0658102 0.612002 0.765325 -0.08735
C_ C_ 0.0577833 0.596777 0.793914 -0.08735
C_ C_ 0.0808697 0.625243 0.815851 -0.08735
C_ C_ 0.106518 0.670124 0.809816 0.18498
C_ C_ 0.111029 0.685731 0.779754 -0.05681
C_ C_ 0.137329 0.731719 0.773631 -0.08735
C_ C_ 0.157208 0.756935 0.797551 -0.08735
C_ C_ 0.148985 0.742343 0.826627 0.1947
C_ C_ 0.259376 0.812739 0.651201 0.68181
C_ C_ 0.203395 0.827045 0.649132 -0.05681
C_ C_ 0.171365 0.819966 0.672668 -0.08735
C_ C_ 0.119092 0.829497 0.669688 -0.05681
C_ C_ 0.0979532 0.839168 0.6427 -0.05681
C_ C_ 0.129786 0.842841 0.618815 -0.08735
C_ C_ 0.182333 0.837873 0.622262 -0.08735
C_ C_ 0.0866555 0.82149 0.693237 -0.08735
C_ C_ 0.0348392 0.824918 0.689939 -0.08735
C_ C_ 0.0134847 0.828945 0.662426 -0.05681
C_ C_ 0.0456372 0.838405 0.638835 -0.08735
C_ C_ 0.364503 0.709757 0.657946 0.68181
C_ C_ 0.361645 0.9062 0.649458 0.68181
C_ C_ 0.360155 0.964553 0.647151 -0.05681
C_ C_ 0.358553 0.491841 0.671359 -0.08735
C_ C_ 0.361774 0.54523 0.668113 -0.05681
C_ C_ 0.34986 0.567625 0.641495 -0.05681
C_ C_ 0.341027 0.53593 0.618181 -0.08735
C_ C_ 0.348222 0.987412 0.621547 -0.08735
C_ C_ 0.377018 0.576847 0.690326 -0.08735
C_ C_ 0.378577 0.630373 0.687099 -0.08735
C_ C_ 0.363343 0.653374 0.660138 -0.05681
C_ C_ 0.354386 0.619354 0.636746 -0.08735
C_ C_ 0.458053 0.805248 0.658772 0.68181
C_ C_ 0.387422 0.86678 0.734275 0.1947
C_ C_ 0.389586 0.887381 0.761258 -0.08735
C_ C_ 0.366856 0.862725 0.783905 -0.08735
C_ C_ 0.336225 0.821084 0.779381 -0.05681
C_ C_ 0.331781 0.802005 0.751412 0.18498
C_ C_ 0.295455 0.763835 0.746055 -0.08735
C_ C_ 0.272862 0.736175 0.768624 -0.08735
C_ C_ 0.283116 0.750438 0.796409 -0.08735
C_ C_ 0.316042 0.790832 0.802944 0.18498
C_ C_ 0.293664 0.823245 0.848823 0.44287
C_ C_ 0.375224 0.790751 0.843772 0.44287
C_ C_ 0.387879 0.808577 0.871845 -0.05681
C_ C_ 0.436702 0.805515 0.883583 -0.08735
C_ C_ 0.444802 0.809694 0.912785 -0.08735
C_ C_ 0.403873 0.819027 0.9311 -0.05681
C_ C_ 0.355199 0.825396 0.920051 -0.05681
C_ C_ 0.347612 0.82156 0.890096 -0.05681
C_ C_ 0.299292 0.83103 0.879262 -0.05681
C_ C_ 0.260013 0.845546 0.897655 -0.08735
C_ C_ 0.265868 0.843976 0.927763 -0.08735
C_ C_ 0.313767 0.834009 0.939037 -0.05681
C_ C_ 0.324083 0.83658 0.968507 0.44287
C_ C_ 0.412125 0.828657 0.960058 0.44287
C_ C_ 0.391701 0.831691 0.506999 0.18498
C_ C_ 0.415464 0.878382 0.514449 -0.08735
C_ C_ 0.427262 0.888399 0.541845 -0.08735
C_ C_ 0.410421 0.856802 0.564494 -0.08735
C_ C_ 0.378363 0.816542 0.557998 0.18498
C_ C_ 0.369797 0.800308 0.529253 -0.05681
C_ C_ 0.35029 0.751004 0.524077 -0.08735
C_ C_ 0.325588 0.729447 0.547312 -0.08735
C_ C_ 0.330628 0.747549 0.575812 0.1947
N_ N_ 0.131483 0.668104 0.977798 -0.29468
N_ N_ 0.134935 0.70463 0.5791 -0.17154
N_ N_ 0.0999932 0.668254 0.726714 -0.17154
N_ N_ 0.123671 0.69995 0.832452 -0.29468
N_ N_ 0.354 0.826833 0.728887 -0.29468
N_ N_ 0.328755 0.80039 0.832647 -0.17154
N_ N_ 0.37198 0.836813 0.979216 -0.17154
N_ N_ 0.35828 0.789957 0.580485 -0.29468
O_ O_ 0.21314 0.672411 0.927171 -0.58347
O_ O_ 0.198974 0.697588 0.881729 -0.58347
O_ O_ 0.143479 0.752923 0.931071 -0.58347
O_ O_ 0.112993 0.75557 0.888819 -0.58347
O_ O_ 0.130073 0.602464 0.920769 -0.58347
O_ O_ 0.137517 0.605854 0.873262 -0.58347
O_ O_ 0.0590785 0.682888 0.93111 -0.58347
O_ O_ 0.0543605 0.666132 0.884353 -0.58347
O_ O_ 0.0537814 0.729052 0.574165 -0.46727
O_ O_ 0.214323 0.670435 0.581887 -0.46727
O_ O_ 0.0165992 0.693837 0.723268 -0.46727
O_ O_ 0.184273 0.652968 0.730836 -0.46727
O_ O_ 0.279191 0.807828 0.67548 -0.58347
O_ O_ 0.286077 0.806262 0.628625 -0.58347
O_ O_ 0.35982 0.737873 0.680797 -0.58347
O_ O_ 0.362189 0.728666 0.633103 -0.58347
O_ O_ 0.35682 0.885005 0.673447 -0.58347
O_ O_ 0.362944 0.879508 0.626888 -0.58347
O_ O_ 0.431176 0.816985 0.680185 -0.58347
O_ O_ 0.439475 0.806565 0.633559 -0.58347
O_ O_ 0.411064 0.775585 0.82697 -0.46727
O_ O_ 0.253696 0.84308 0.836187 -0.46727
O_ O_ 0.458538 0.831366 0.969671 -0.46727
O_ O_ 0.285715 0.843187 0.986749 -0.46727
Zn Zn 0.623631 0.187372 0.383161 0.90689
Zn Zn 0.63532 0.177021 0.433533 0.90689
Zn Zn 0.878528 0.315434 0.135051 0.90689
Zn Zn 0.865882 0.324223 0.182892 0.90689
H_ H_ 0.805336 0.183492 0.445923 0.11455
H_ H_ 0.871332 0.175982 0.344473 0.11455
H_ H_ 0.782945 0.183212 0.355229 0.11455
H_ H_ 0.892272 0.186993 0.463841 0.11455
H_ H_ 0.981868 0.183984 0.456182 0.11455
H_ H_ 0.956809 0.159442 0.365599 0.11455
H_ H_ 0.654147 0.0139078 0.44107 0.11455
H_ H_ 0.597284 0.434806 0.355563 0.11455
H_ H_ 0.593854 0.0191235 0.354786 0.11455
H_ H_ 0.638357 0.43423 0.469999 0.11455
H_ H_ 0.630016 0.342524 0.468321 0.11455
H_ H_ 0.601766 0.349661 0.376991 0.11455
H_ H_ 0.588718 0.0976612 0.469612 0.11455
H_ H_ 0.555929 0.0827782 0.00806328 0.11455
H_ H_ 0.59163 0.124159 0.0519845 0.11455
H_ H_ 0.703833 0.228669 0.475221 0.11455
H_ H_ 0.720767 0.297789 0.0167011 0.11455
H_ H_ 0.698118 0.270147 0.0666363 0.11455
H_ H_ 0.516831 0.202181 0.126472 0.11455
H_ H_ 0.509891 0.19328 0.177807 0.11455
H_ H_ 0.769978 0.165065 0.135415 0.11455
H_ H_ 0.761454 0.164592 0.187549 0.11455
H_ H_ 0.593789 0.0850364 0.249981 0.11455
H_ H_ 0.562715 0.0651766 0.298644 0.11455
H_ H_ 0.570199 0.127396 0.33725 0.11455
H_ H_ 0.678648 0.245981 0.260263 0.11455
H_ H_ 0.705512 0.297311 0.299775 0.11455
H_ H_ 0.677239 0.270172 0.350109 0.11455
H_ H_ 0.699786 0.294473 0.198696 0.11455
H_ H_ 0.630734 0.313586 0.0997461 0.11455
H_ H_ 0.725801 0.315448 0.109902 0.11455
H_ H_ 0.615163 0.314587 0.21861 0.11455
H_ H_ 0.52436 0.314994 0.210796 0.11455
H_ H_ 0.546617 0.319985 0.11881 0.11455
H_ H_ 0.89751 0.489804 0.195123 0.11455
H_ H_ 0.858702 0.0652227 0.100519 0.11455
H_ H_ 0.84596 0.478658 0.107373 0.11455
H_ H_ 0.866088 0.0713059 0.2175 0.11455
H_ H_ 0.878023 0.164691 0.212496 0.11455
H_ H_ 0.868821 0.154011 0.122382 0.11455
H_ H_ 0.93263 0.38813 0.22017 0.11455
H_ H_ 0.952045 0.412501 0.271172 0.11455
H_ H_ 0.900216 0.377893 0.30951 0.11455
H_ H_ 0.801285 0.267843 0.227035 0.11455
H_ H_ 0.769455 0.209351 0.266221 0.11455
H_ H_ 0.807496 0.215784 0.314724 0.11455
H_ H_ 0.995222 0.283739 0.368889 0.11455
H_ H_ 0.0119878 0.304493 0.419939 0.11455
H_ H_ 0.74493 0.327862 0.393247 0.11455
H_ H_ 0.761325 0.341996 0.444008 0.11455
H_ H_ 0.960565 0.400552 0.501976 0.11455
H_ H_ 0.969506 0.41809 0.0495842 0.11455
H_ H_ 0.927305 0.371831 0.090336 0.11455
H_ H_ 0.841344 0.253504 0.00828027 0.11455
H_ H_ 0.801584 0.207792 0.0503218 0.11455
H_ H_ 0.824027 0.23084 0.100047 0.11455
C_ C_ 0.730934 0.177462 0.405644 0.68181
C_ C_ 0.787426 0.179864 0.400772 -0.05681
C_ C_ 0.821027 0.183924 0.424247 -0.08735
C_ C_ 0.873329 0.184943 0.419239 -0.05681
C_ C_ 0.892042 0.173243 0.391013 -0.05681
C_ C_ 0.859749 0.178036 0.367809 -0.08735
C_ C_ 0.807627 0.181468 0.373068 -0.08735
C_ C_ 0.906139 0.185983 0.441931 -0.08735
C_ C_ 0.95814 0.183953 0.438032 -0.08735
C_ C_ 0.977419 0.174183 0.411024 -0.05681
C_ C_ 0.943545 0.173174 0.386385 -0.08735
C_ C_ 0.627194 0.28292 0.418489 0.68181
C_ C_ 0.620172 0.0813015 0.401336 0.68181
C_ C_ 0.619867 0.0256208 0.399188 -0.05681
C_ C_ 0.642832 0.497601 0.424799 -0.08735
C_ C_ 0.633411 0.443854 0.424229 -0.05681
C_ C_ 0.620589 0.419858 0.398904 -0.05681
C_ C_ 0.614123 0.44859 0.374107 -0.08735
C_ C_ 0.626617 0.500276 0.37416 -0.08735
C_ C_ 0.63273 0.41636 0.4492 -0.08735
C_ C_ 0.629644 0.364182 0.448559 -0.08735
C_ C_ 0.625913 0.338554 0.421868 -0.05681
C_ C_ 0.614365 0.367887 0.397983 -0.08735
C_ C_ 0.531622 0.181767 0.407736 0.68181
C_ C_ 0.602548 0.12301 0.487311 0.1947
C_ C_ 0.577248 0.117597 0.00686212 -0.08735
C_ C_ 0.598587 0.141159 0.0314695 -0.08735
C_ C_ 0.632547 0.180706 0.0284759 -0.05681
C_ C_ 0.6489 0.193279 1.00027 0.18498
C_ C_ 0.68853 0.230807 0.496734 -0.08735
C_ C_ 0.697383 0.265682 0.0199003 -0.08735
C_ C_ 0.681986 0.251069 0.0472012 -0.08735
C_ C_ 0.65438 0.206502 0.0526872 0.18498
C_ C_ 0.68929 0.182924 0.097878 0.44287
C_ C_ 0.601145 0.194923 0.0944639 0.44287
C_ C_ 0.59543 0.188148 0.125025 -0.05681
C_ C_ 0.551137 0.195233 0.139387 -0.08735
C_ C_ 0.546672 0.193725 0.168636 -0.08735
C_ C_ 0.589218 0.184197 0.1864 -0.05681
C_ C_ 0.637177 0.180755 0.172401 -0.05681
C_ C_ 0.63967 0.181733 0.142246 -0.05681
C_ C_ 0.687157 0.179338 0.128276 -0.05681
C_ C_ 0.731092 0.169007 0.145686 -0.08735
C_ C_ 0.72767 0.168791 0.175957 -0.08735
C_ C_ 0.679578 0.175605 0.18958 -0.05681
C_ C_ 0.674605 0.171148 0.218801 0.44287
C_ C_ 0.585608 0.18484 0.216582 0.44287
C_ C_ 0.623952 0.156851 0.260467 0.18498
C_ C_ 0.599841 0.111616 0.267223 -0.08735
C_ C_ 0.58691 0.0975029 0.295098 -0.08735
C_ C_ 0.594276 0.131209 0.318887 -0.08735
C_ C_ 0.623949 0.17509 0.313147 0.18498
C_ C_ 0.64123 0.187077 0.284703 -0.05681
C_ C_ 0.671889 0.232586 0.281443 -0.08735
C_ C_ 0.683445 0.261476 0.304565 -0.08735
C_ C_ 0.663325 0.249032 0.332156 0.1947
C_ C_ 0.776206 0.30829 0.158352 0.68181
C_ C_ 0.720289 0.308013 0.154282 -0.05681
C_ C_ 0.684731 0.308435 0.177866 -0.08735
C_ C_ 0.632777 0.317037 0.173533 -0.05681
C_ C_ 0.61535 0.321799 0.144495 -0.05681
C_ C_ 0.649459 0.315905 0.121938 -0.08735
C_ C_ 0.7023 0.314862 0.127019 -0.08735
C_ C_ 0.600848 0.319557 0.197441 -0.08735
C_ C_ 0.548943 0.314868 0.191603 -0.08735
C_ C_ 0.527811 0.320609 0.164264 -0.05681
C_ C_ 0.561076 0.322153 0.140838 -0.08735
C_ C_ 0.880185 0.222366 0.167194 0.68181
C_ C_ 0.86796 0.42244 0.154982 0.68181
C_ C_ 0.869555 0.478497 0.15178 -0.05681
C_ C_ 0.866641 0.00544871 0.174206 -0.08735
C_ C_ 0.861341 0.0582375 0.172361 -0.05681
C_ C_ 0.861707 0.0829953 0.145718 -0.05681
C_ C_ 0.861836 0.0510426 0.122002 -0.08735
C_ C_ 0.858074 0.502237 0.125468 -0.08735
C_ C_ 0.86339 0.0895792 0.196858 -0.08735
C_ C_ 0.867277 0.141211 0.19403 -0.08735
C_ C_ 0.866825 0.16586 0.167753 -0.05681
C_ C_ 0.865082 0.135223 0.143272 -0.08735
C_ C_ 0.971267 0.315518 0.157993 0.68181
C_ C_ 0.911849 0.370176 0.237834 0.1947
C_ C_ 0.922512 0.38293 0.265975 -0.08735
C_ C_ 0.897466 0.360787 0.288707 -0.08735
C_ C_ 0.864198 0.31863 0.283021 -0.05681
C_ C_ 0.854668 0.305513 0.254015 0.18498
C_ C_ 0.812946 0.272781 0.249536 -0.08735
C_ C_ 0.795469 0.24054 0.270924 -0.08735
C_ C_ 0.818075 0.245623 0.298349 -0.08735
C_ C_ 0.844967 0.289166 0.304757 0.18498
C_ C_ 0.81725 0.317685 0.35137 0.44287
C_ C_ 0.901389 0.291902 0.344513 0.44287
C_ C_ 0.913472 0.298771 0.373177 -0.05681
C_ C_ 0.964882 0.296436 0.383547 -0.08735
C_ C_ 0.974774 0.305042 0.412632 -0.08735
C_ C_ 0.934813 0.308093 0.432036 -0.05681
C_ C_ 0.883655 0.315412 0.421121 -0.05681
C_ C_ 0.874145 0.312872 0.392411 -0.05681
C_ C_ 0.82441 0.321221 0.381543 -0.05681
C_ C_ 0.783188 0.32448 0.401217 -0.08735
C_ C_ 0.792444 0.330406 0.430831 -0.08735
C_ C_ 0.842758 0.327416 0.440401 -0.05681
C_ C_ 0.855554 0.335881 0.469443 0.44287
C_ C_ 0.943102 0.315495 0.462261 0.44287
C_ C_ 0.888485 0.344779 0.0110767 0.18498
C_ C_ 0.923549 0.382634 0.0172606 -0.08735
C_ C_ 0.935305 0.395846 0.0456502 -0.08735
C_ C_ 0.911338 0.370389 0.0702184 -0.08735
C_ C_ 0.880435 0.328157 0.0639146 0.18498
C_ C_ 0.869545 0.313154 0.0342606 -0.05681
C_ C_ 0.843849 0.26813 0.0289178 -0.08735
C_ C_ 0.827142 0.239736 0.0536088 -0.08735
C_ C_ 0.839657 0.254095 0.0812403 0.1947
N_ N_ 0.634018 0.16319 0.481314 -0.29468
N_ N_ 0.647351 0.192968 0.0824843 -0.17154
N_ N_ 0.62743 0.172768 0.231429 -0.17154
N_ N_ 0.633699 0.206928 0.335371 -0.29468
N_ N_ 0.873781 0.335536 0.232518 -0.29468
N_ N_ 0.855654 0.3007 0.333818 -0.17154
N_ N_ 0.903613 0.326414 0.479578 -0.17154
N_ N_ 0.865203 0.297256 0.0868603 -0.29468
O_ O_ 0.712311 0.173889 0.430579 -0.58347
O_ O_ 0.700697 0.189067 0.384816 -0.58347
O_ O_ 0.638815 0.254098 0.439398 -0.58347
O_ O_ 0.616697 0.263028 0.394419 -0.58347
O_ O_ 0.622413 0.100443 0.425155 -0.58347
O_ O_ 0.624946 0.108387 0.378945 -0.58347
O_ O_ 0.557293 0.175195 0.429586 -0.58347
O_ O_ 0.550535 0.186492 0.383773 -0.58347
O_ O_ 0.562873 0.213449 0.0795986 -0.46727
O_ O_ 0.733327 0.178886 0.084947 -0.46727
O_ O_ 0.541455 0.188174 0.229412 -0.46727
O_ O_ 0.71449 0.158181 0.233843 -0.46727
O_ O_ 0.794675 0.317099 0.182703 -0.58347
O_ O_ 0.805966 0.305646 0.136443 -0.58347
O_ O_ 0.869168 0.250081 0.187918 -0.58347
O_ O_ 0.887489 0.241041 0.1426 -0.58347
O_ O_ 0.863026 0.403294 0.17976 -0.58347
O_ O_ 0.872565 0.391976 0.133697 -0.58347
O_ O_ 0.942784 0.323566 0.179011 -0.58347
O_ O_ 0.953166 0.319848 0.13378 -0.58347
O_ O_ 0.937453 0.282558 0.325756 -0.46727
O_ O_ 0.77231 0.324213 0.341066 -0.46727
O_ O_ 0.990499 0.317681 0.471824 -0.46727
O_ O_ 0.817577 0.346037 0.486719 -0.46727
Zn Zn 0.626413 0.194347 0.882905 0.90689
Zn Zn 0.638951 0.18417 0.929494 0.90689
Zn Zn 0.866868 0.310226 0.632849 0.90689
Zn Zn 0.855191 0.317842 0.678921 0.90689
H_ H_ 0.811072 0.197433 0.944496 0.11455
H_ H_ 0.870881 0.171865 0.847248 0.11455
H_ H_ 0.780294 0.168956 0.853873 0.11455
H_ H_ 0.897277 0.198174 0.961362 0.11455
H_ H_ 0.991029 0.186887 0.953925 0.11455
H_ H_ 0.955976 0.166792 0.864725 0.11455
H_ H_ 0.657787 0.0189703 0.940223 0.11455
H_ H_ 0.628903 0.448711 0.847745 0.11455
H_ H_ 0.597988 0.0385016 0.854539 0.11455
H_ H_ 0.602493 0.43846 0.965051 0.11455
H_ H_ 0.603452 0.344315 0.959627 0.11455
H_ H_ 0.634744 0.361848 0.868526 0.11455
H_ H_ 0.580891 0.111623 0.96085 0.11455
H_ H_ 0.57424 0.0770251 0.519959 0.11455
H_ H_ 0.595248 0.131082 0.55868 0.11455
H_ H_ 0.689606 0.247008 0.97648 0.11455
H_ H_ 0.736621 0.293326 0.51205 0.11455
H_ H_ 0.706665 0.285082 0.561615 0.11455
H_ H_ 0.51227 0.206394 0.620637 0.11455
H_ H_ 0.498533 0.202188 0.671739 0.11455
H_ H_ 0.758573 0.156134 0.639898 0.11455
H_ H_ 0.740746 0.140847 0.692011 0.11455
H_ H_ 0.561564 0.0869744 0.75397 0.11455
H_ H_ 0.541203 0.0688501 0.802949 0.11455
H_ H_ 0.567732 0.125462 0.840361 0.11455
H_ H_ 0.647453 0.251115 0.756637 0.11455
H_ H_ 0.688445 0.298522 0.79378 0.11455
H_ H_ 0.672193 0.274859 0.846151 0.11455
H_ H_ 0.689807 0.313623 0.691894 0.11455
H_ H_ 0.615648 0.335973 0.595129 0.11455
H_ H_ 0.709594 0.343364 0.60175 0.11455
H_ H_ 0.601743 0.304571 0.711149 0.11455
H_ H_ 0.510293 0.317826 0.706055 0.11455
H_ H_ 0.533781 0.328537 0.6144 0.11455
H_ H_ 0.827508 0.488417 0.692532 0.11455
H_ H_ 0.873915 0.0615593 0.600538 0.11455
H_ H_ 0.88074 0.46553 0.605135 0.11455
H_ H_ 0.845159 0.0702842 0.716926 0.11455
H_ H_ 0.830341 0.161552 0.709713 0.11455
H_ H_ 0.8866 0.14295 0.621833 0.11455
H_ H_ 0.911289 0.385577 0.715917 0.11455
H_ H_ 0.928947 0.414702 0.765416 0.11455
H_ H_ 0.874752 0.389928 0.804984 0.11455
H_ H_ 0.795606 0.252959 0.724564 0.11455
H_ H_ 0.759957 0.203899 0.766983 0.11455
H_ H_ 0.774187 0.234499 0.815941 0.11455
H_ H_ 0.973591 0.295478 0.873729 0.11455
H_ H_ -0.013264000000000054 0.300587 0.923078 0.11455
H_ H_ 0.731272 0.362631 0.890547 0.11455
H_ H_ 0.745592 0.369065 0.943098 0.11455
H_ H_ 0.949136 0.396412 0.999866936 0.11455
H_ H_ 0.972714 0.425885 0.552428 0.11455
H_ H_ 0.938762 0.364458 0.58991 0.11455
H_ H_ 0.854328 0.250955 0.505899 0.11455
H_ H_ 0.796338 0.220484 0.542202 0.11455
H_ H_ 0.80763 0.245908 0.593592 0.11455
C_ C_ 0.732982 0.18884 0.906357 0.68181
C_ C_ 0.788065 0.183088 0.901024 -0.05681
C_ C_ 0.823993 0.18485 0.923795 -0.08735
C_ C_ 0.876184 0.183758 0.919367 -0.05681
C_ C_ 0.894433 0.180273 0.89134 -0.05681
C_ C_ 0.859499 0.174206 0.86853 -0.08735
C_ C_ 0.80606 0.176947 0.872067 -0.08735
C_ C_ 0.911469 0.186961 0.941568 -0.08735
C_ C_ 0.963666 0.187219 0.935796 -0.08735
C_ C_ 0.982381 0.179363 0.907795 -0.05681
C_ C_ 0.946197 0.175626 0.88605 -0.08735
C_ C_ 0.626554 0.288664 0.912802 0.68181
C_ C_ 0.637072 0.0920465 0.899668 0.68181
C_ C_ 0.626515 0.0365795 0.898166 -0.05681
C_ C_ 0.625094 0.505091 0.923638 -0.08735
C_ C_ 0.612954 0.451822 0.919624 -0.05681
C_ C_ 0.618521 0.430625 0.891542 -0.05681
C_ C_ 0.626185 0.463593 0.868664 -0.08735
C_ C_ 0.634765 0.514817 0.873007 -0.08735
C_ C_ 0.609779 0.421171 0.943427 -0.08735
C_ C_ 0.611616 0.369151 0.940864 -0.08735
C_ C_ 0.620521 0.345964 0.913835 -0.05681
C_ C_ 0.620777 0.376595 0.888614 -0.08735
C_ C_ 0.533902 0.19436 0.905782 0.68181
C_ C_ 0.590216 0.135537 0.979371 0.1947
C_ C_ 0.591854 0.10988 0.515624 -0.08735
C_ C_ 0.610583 0.140144 0.538249 -0.08735
C_ C_ 0.6413 0.184541 0.532666 -0.05681
C_ C_ 0.65385 0.193389 0.503055 0.18498
C_ C_ 0.68169 0.235819 0.996747 -0.08735
C_ C_ 0.709354 0.263632 0.517381 -0.08735
C_ C_ 0.689833 0.261246 0.544862 -0.08735
C_ C_ 0.662744 0.218567 0.554149 0.18498
C_ C_ 0.690004 0.191973 0.602625 0.44287
C_ C_ 0.604161 0.213628 0.595243 0.44287
C_ C_ 0.593573 0.198613 0.62326 -0.05681
C_ C_ 0.545206 0.199762 0.635389 -0.08735
C_ C_ 0.536748 0.199501 0.664699 -0.08735
C_ C_ 0.577072 0.191281 0.683164 -0.05681
C_ C_ 0.62602 0.182839 0.67214 -0.05681
C_ C_ 0.634405 0.188596 0.642687 -0.05681
C_ C_ 0.680779 0.177612 0.631385 -0.05681
C_ C_ 0.720755 0.159349 0.64895 -0.08735
C_ C_ 0.712578 0.159113 0.679135 -0.08735
C_ C_ 0.665833 0.170559 0.691755 -0.05681
C_ C_ 0.655896 0.164782 0.721327 0.44287
C_ C_ 0.567552 0.180872 0.712281 0.44287
C_ C_ 0.597329 0.160739 0.761307 0.18498
C_ C_ 0.57179 0.116517 0.768537 -0.08735
C_ C_ 0.565105 0.102216 0.797746 -0.08735
C_ C_ 0.577902 0.135572 0.818942 -0.08735
C_ C_ 0.610964 0.176418 0.813111 0.18498
C_ C_ 0.621483 0.188905 0.783432 -0.05681
C_ C_ 0.645519 0.236843 0.777602 -0.08735
C_ C_ 0.666521 0.264545 0.799654 -0.08735
C_ C_ 0.65707 0.250276 0.827816 0.1947
C_ C_ 0.761306 0.315764 0.65026 0.68181
C_ C_ 0.706506 0.325925 0.647282 -0.05681
C_ C_ 0.67417 0.323897 0.671016 -0.08735
C_ C_ 0.6226 0.322811 0.667101 -0.05681
C_ C_ 0.601631 0.325449 0.638872 -0.05681
C_ C_ 0.633819 0.333804 0.61551 -0.08735
C_ C_ 0.685615 0.3298 0.619748 -0.08735
C_ C_ 0.58742 0.317302 0.69077 -0.08735
C_ C_ 0.535991 0.31329 0.687156 -0.08735
C_ C_ 0.514616 0.32068 0.659215 -0.05681
C_ C_ 0.548742 0.325466 0.636008 -0.08735
C_ C_ 0.856248 0.216047 0.659877 0.68181
C_ C_ 0.854774 0.412769 0.652107 0.68181
C_ C_ 0.854208 0.469217 0.649286 -0.05681
C_ C_ 0.846806 0.0005999999999999339 0.67397 -0.08735
C_ C_ 0.847539 0.0529645 0.670963 -0.05681
C_ C_ 0.862807 0.0740883 0.644528 -0.05681
C_ C_ 0.871256 0.0445212 0.621381 -0.08735
C_ C_ 0.86545 0.491369 0.621931 -0.08735
C_ C_ 0.843763 0.084687 0.694577 -0.08735
C_ C_ 0.84305 0.137961 0.691735 -0.08735
C_ C_ 0.857531 0.160424 0.663625 -0.05681
C_ C_ 0.870205 0.126409 0.641246 -0.08735
C_ C_ 0.960382 0.310485 0.658419 0.68181
C_ C_ 0.892436 0.367164 0.733152 0.1947
C_ C_ 0.9002 0.386586 0.761206 -0.08735
C_ C_ 0.871922 0.369899 0.784118 -0.08735
C_ C_ 0.842207 0.325939 0.779848 -0.05681
C_ C_ 0.833235 0.309058 0.750929 0.18498
C_ C_ 0.804899 0.265023 0.747053 -0.08735
C_ C_ 0.781002 0.238493 0.771211 -0.08735
C_ C_ 0.792509 0.253523 0.79864 -0.08735
C_ C_ 0.823617 0.296561 0.803782 0.18498
C_ C_ 0.796203 0.326961 0.851036 0.44287
C_ C_ 0.882204 0.306451 0.843945 0.44287
C_ C_ 0.892523 0.315299 0.872646 -0.05681
C_ C_ 0.941088 0.302215 0.884892 -0.08735
C_ C_ 0.948457 0.309183 0.914361 -0.08735
C_ C_ 0.909372 0.318222 0.933546 -0.05681
C_ C_ 0.861951 0.330324 0.921676 -0.05681
C_ C_ 0.852547 0.331337 0.891843 -0.05681
C_ C_ 0.805424 0.340014 0.880486 -0.05681
C_ C_ 0.768434 0.355373 0.898265 -0.08735
C_ C_ 0.774874 0.353776 0.927885 -0.08735
C_ C_ 0.821793 0.341243 0.940239 -0.05681
C_ C_ 0.828469 0.342189 0.970066 0.44287
C_ C_ 0.914381 0.316019 0.963271 0.44287
C_ C_ 0.913375 0.335508 0.509921 0.18498
C_ C_ 0.939114 0.380458 0.51829 -0.08735
C_ C_ 0.949128 0.391287 0.547384 -0.08735
C_ C_ 0.929347 0.359655 0.569152 -0.08735
C_ C_ 0.894123 0.321922 0.561577 0.18498
C_ C_ 0.889205 0.307448 0.532359 -0.05681
C_ C_ 0.857876 0.264428 0.527731 -0.08735
C_ C_ 0.828858 0.243534 0.549033 -0.08735
C_ C_ 0.831504 0.262421 0.576261 0.1947
N_ N_ 0.629395 0.167954 0.976926 -0.29468
N_ N_ 0.652892 0.211869 0.58476 -0.17154
N_ N_ 0.606498 0.169491 0.731049 -0.17154
N_ N_ 0.626146 0.210012 0.834367 -0.29468
N_ N_ 0.858321 0.332573 0.728265 -0.29468
N_ N_ 0.833573 0.311319 0.833252 -0.17154
N_ N_ 0.876246 0.334668 0.980363 -0.17154
N_ N_ 0.870241 0.295282 0.583275 -0.29468
O_ O_ 0.713066 0.184093 0.930995 -0.58347
O_ O_ 0.704306 0.192229 0.884841 -0.58347
O_ O_ 0.633604 0.261924 0.935536 -0.58347
O_ O_ 0.632758 0.269035 0.888855 -0.58347
O_ O_ 0.638682 0.111831 0.924688 -0.58347
O_ O_ 0.625443 0.119013 0.878382 -0.58347
O_ O_ 0.563799 0.191357 0.926735 -0.58347
O_ O_ 0.553136 0.196112 0.881056 -0.58347
O_ O_ 0.567065 0.229248 0.578704 -0.46727
O_ O_ 0.733868 0.18128 0.590873 -0.46727
O_ O_ 0.522841 0.179192 0.722383 -0.46727
O_ O_ 0.691079 0.14273 0.738788 -0.46727
O_ O_ 0.780721 0.311614 0.674786 -0.58347
O_ O_ 0.789541 0.315083 0.628849 -0.58347
O_ O_ 0.861992 0.243784 0.68189 -0.58347
O_ O_ 0.861716 0.235967 0.635207 -0.58347
O_ O_ 0.851267 0.391313 0.676504 -0.58347
O_ O_ 0.86992 0.387521 0.631347 -0.58347
O_ O_ 0.93334 0.316726 0.680926 -0.58347
O_ O_ 0.939969 0.302452 0.634172 -0.58347
O_ O_ 0.916134 0.284335 0.827334 -0.46727
O_ O_ 0.750612 0.335411 0.839838 -0.46727
O_ O_ 0.955163 0.297154 0.973163 -0.46727
O_ O_ 0.795471 0.364712 0.986272 -0.46727
Zn Zn 0.639644 0.68172 0.383094 0.90689
Zn Zn 0.649725 0.679729 0.431212 0.90689
Zn Zn 0.88042 0.821712 0.133701 0.90689
Zn Zn 0.867317 0.82618 0.180746 0.90689
H_ H_ 0.821686 0.669535 0.44879 0.11455
H_ H_ 0.879486 0.680258 0.348304 0.11455
H_ H_ 0.793725 0.686891 0.358154 0.11455
H_ H_ 0.909994 0.662566 0.462468 0.11455
H_ H_ 0.997018 0.661851 0.454893 0.11455
H_ H_ 0.971801 0.691227 0.365366 0.11455
H_ H_ 0.64964 0.51597 0.44471 0.11455
H_ H_ 0.601036 0.927588 0.351727 0.11455
H_ H_ 0.623016 0.518685 0.353435 0.11455
H_ H_ 0.684729 0.934058 0.460185 0.11455
H_ H_ 0.673495 0.842493 0.459585 0.11455
H_ H_ 0.605166 0.844828 0.376797 0.11455
H_ H_ 0.588164 0.605991 0.462846 0.11455
H_ H_ 0.569124 0.593775 0.0179787 0.11455
H_ H_ 0.617327 0.627019 0.0575281 0.11455
H_ H_ 0.71423 0.723862 0.475328 0.11455
H_ H_ 0.730584 0.810103 0.011951 0.11455
H_ H_ 0.707865 0.792468 0.0613549 0.11455
H_ H_ 0.528091 0.720906 0.125132 0.11455
H_ H_ 0.51935 0.707911 0.174453 0.11455
H_ H_ 0.776397 0.661202 0.13543 0.11455
H_ H_ 0.766847 0.658703 0.186268 0.11455
H_ H_ 0.598214 0.591989 0.246593 0.11455
H_ H_ 0.57034 0.564633 0.29375 0.11455
H_ H_ 0.583215 0.619449 0.336073 0.11455
H_ H_ 0.679412 0.749382 0.263288 0.11455
H_ H_ 0.709195 0.796289 0.304079 0.11455
H_ H_ 0.692247 0.75729 0.353919 0.11455
H_ H_ 0.702121 0.801284 0.193298 0.11455
H_ H_ 0.6357 0.838984 0.0938385 0.11455
H_ H_ 0.728555 0.846199 0.102878 0.11455
H_ H_ 0.615225 0.817196 0.212091 0.11455
H_ H_ 0.52587 0.830977 0.204014 0.11455
H_ H_ 0.548001 0.831897 0.113465 0.11455
H_ H_ 0.858312 0.98696 0.194827 0.11455
H_ H_ 0.842432 0.572706 0.103698 0.11455
H_ H_ 0.869033 0.977267 0.10347 0.11455
H_ H_ 0.900202 0.579176 0.217805 0.11455
H_ H_ 0.89817 0.668359 0.211371 0.11455
H_ H_ 0.875842 0.652938 0.120744 0.11455
H_ H_ 0.91027 0.908393 0.216405 0.11455
H_ H_ 0.913805 0.940943 0.262812 0.11455
H_ H_ 0.883246 0.890571 0.304157 0.11455
H_ H_ 0.810544 0.751487 0.226452 0.11455
H_ H_ 0.820141 0.690245 0.265382 0.11455
H_ H_ 0.82593 0.721564 0.315759 0.11455
H_ H_ 0.99594 0.793745 0.373773 0.11455
H_ H_ 0.00405984 0.800042 0.425576 0.11455
H_ H_ 0.743841 0.81342 0.388794 0.11455
H_ H_ 0.753797 0.823988 0.441168 0.11455
H_ H_ 0.939036 0.899576 0.499114 0.11455
H_ H_ 0.965764 0.943431 0.0487962 0.11455
H_ H_ 0.930087 0.891155 0.0891489 0.11455
H_ H_ 0.836933 0.771864 0.00711015 0.11455
H_ H_ 0.812219 0.71917 0.0483502 0.11455
H_ H_ 0.822518 0.746613 0.0980796 0.11455
C_ C_ 0.742356 0.673648 0.408836 0.68181
C_ C_ 0.798579 0.67374 0.403856 -0.05681
C_ C_ 0.83315 0.666785 0.42567 -0.08735
C_ C_ 0.886768 0.666288 0.419854 -0.05681
C_ C_ 0.904991 0.672356 0.392332 -0.05681
C_ C_ 0.869976 0.673435 0.370611 -0.08735
C_ C_ 0.818269 0.673794 0.375864 -0.08735
C_ C_ 0.921261 0.669368 0.441468 -0.08735
C_ C_ 0.972435 0.674155 0.437822 -0.08735
C_ C_ 0.991282 0.680494 0.409793 -0.05681
C_ C_ 0.957499 0.682166 0.387139 -0.08735
C_ C_ 0.640343 0.778759 0.414576 0.68181
C_ C_ 0.649086 0.58223 0.398678 0.68181
C_ C_ 0.643861 0.526918 0.399292 -0.05681
C_ C_ 0.642676 0.996424 0.421827 -0.08735
C_ C_ 0.644526 0.94249 0.419398 -0.05681
C_ C_ 0.626229 0.917157 0.39414 -0.05681
C_ C_ 0.612893 0.946854 0.370536 -0.08735
C_ C_ 0.611128 1.000000584058 0.372751 -0.08735
C_ C_ 0.664712 0.914491 0.442173 -0.08735
C_ C_ 0.661866 0.860922 0.440389 -0.08735
C_ C_ 0.638078 0.834909 0.417702 -0.05681
C_ C_ 0.621178 0.863044 0.394964 -0.08735
C_ C_ 0.547067 0.675559 0.40646 0.68181
C_ C_ 0.602786 0.626932 0.481335 0.1947
C_ C_ 0.594495 0.623266 0.0130058 -0.08735
C_ C_ 0.621348 0.645221 0.0352632 -0.08735
C_ C_ 0.647281 0.691515 0.0289203 -0.05681
C_ C_ 0.655418 0.705578 1.00011 0.18498
C_ C_ 0.694871 0.722455 0.497044 -0.08735
C_ C_ 0.70572 0.778769 0.016817 -0.08735
C_ C_ 0.692203 0.76755 0.0449486 -0.08735
C_ C_ 0.667836 0.721368 0.0511947 0.18498
C_ C_ 0.703442 0.689126 0.0960496 0.44287
C_ C_ 0.617319 0.715328 0.0942613 0.44287
C_ C_ 0.610632 0.704265 0.123577 -0.05681
C_ C_ 0.562564 0.714988 0.136918 -0.08735
C_ C_ 0.5569 0.706802 0.166568 -0.08735
C_ C_ 0.598865 0.696657 0.184549 -0.05681
C_ C_ 0.645934 0.688879 0.170942 -0.05681
C_ C_ 0.653398 0.694635 0.141023 -0.05681
C_ C_ 0.701705 0.686993 0.127878 -0.05681
C_ C_ 0.742858 0.675238 0.145648 -0.08735
C_ C_ 0.736472 0.673199 0.17529 -0.08735
C_ C_ 0.689771 0.678646 0.188174 -0.05681
C_ C_ 0.68254 0.673762 0.218551 0.44287
C_ C_ 0.593982 0.690748 0.214403 0.44287
C_ C_ 0.629475 0.6626 0.260262 0.18498
C_ C_ 0.605348 0.616 0.263657 -0.08735
C_ C_ 0.588341 0.601313 0.291643 -0.08735
C_ C_ 0.599906 0.629691 0.315699 -0.08735
C_ C_ 0.627479 0.674821 0.312491 0.18498
C_ C_ 0.643096 0.691627 0.284526 -0.05681
C_ C_ 0.668996 0.736182 0.28327 -0.08735
C_ C_ 0.685843 0.762791 0.306792 -0.08735
C_ C_ 0.676795 0.740184 0.334184 0.1947
C_ C_ 0.776659 0.818721 0.153626 0.68181
C_ C_ 0.720198 0.816216 0.148591 -0.05681
C_ C_ 0.686372 0.812642 0.172146 -0.08735
C_ C_ 0.634427 0.821494 0.167664 -0.05681
C_ C_ 0.614825 0.825672 0.139385 -0.05681
C_ C_ 0.648933 0.833832 0.115967 -0.08735
C_ C_ 0.702497 0.830954 0.120833 -0.08735
C_ C_ 0.601396 0.822476 0.190589 -0.08735
C_ C_ 0.550506 0.829535 0.185904 -0.08735
C_ C_ 0.52795 0.835065 0.158289 -0.05681
C_ C_ 0.562673 0.831452 0.135133 -0.08735
C_ C_ 0.882287 0.726874 0.163065 0.68181
C_ C_ 0.868463 0.919124 0.149946 0.68181
C_ C_ 0.869018 0.975716 0.148594 -0.05681
C_ C_ 0.884603 0.507812 0.174808 -0.08735
C_ C_ 0.883476 0.560761 0.173225 -0.05681
C_ C_ 0.874465 0.58427 0.145738 -0.05681
C_ C_ 0.854206 0.55492 0.122987 -0.08735
C_ C_ 0.87026 0.999409381 0.123233 -0.08735
C_ C_ 0.888681 0.593196 0.197242 -0.08735
C_ C_ 0.888506 0.646905 0.19311 -0.08735
C_ C_ 0.885839 0.669422 0.165928 -0.05681
C_ C_ 0.881183 0.636911 0.142039 -0.08735
C_ C_ 0.973979 0.822276 0.163666 0.68181
C_ C_ 0.892944 0.88606 0.234127 0.1947
C_ C_ 0.893694 0.905857 0.261074 -0.08735
C_ C_ 0.879367 0.8764 0.283871 -0.08735
C_ C_ 0.861703 0.826857 0.279704 -0.05681
C_ C_ 0.853142 0.809623 0.250261 0.18498
C_ C_ 0.828157 0.763034 0.245872 -0.08735
C_ C_ 0.827458 0.728999 0.268969 -0.08735
C_ C_ 0.836051 0.745467 0.296832 -0.08735
C_ C_ 0.85429 0.792508 0.303701 0.18498
C_ C_ 0.819593 0.812786 0.350203 0.44287
C_ C_ 0.906751 0.798408 0.344526 0.44287
C_ C_ 0.914626 0.79818 0.374676 -0.05681
C_ C_ 0.963165 0.799344 0.38719 -0.08735
C_ C_ 0.967873 0.80091 0.416198 -0.08735
C_ C_ 0.92694 0.80895 0.4337 -0.05681
C_ C_ 0.877758 0.809645 0.4214 -0.05681
C_ C_ 0.872193 0.806945 0.391362 -0.05681
C_ C_ 0.823556 0.814754 0.379842 -0.05681
C_ C_ 0.781112 0.819428 0.397088 -0.08735
C_ C_ 0.788229 0.824265 0.427611 -0.08735
C_ C_ 0.837446 0.820289 0.439495 -0.05681
C_ C_ 0.845766 0.825206 0.469748 0.44287
C_ C_ 0.929949 0.802669 0.463937 0.44287
C_ C_ 0.898295 0.855931 0.0100357 0.18498
C_ C_ 0.930449 0.898426 0.0161001 -0.08735
C_ C_ 0.944655 0.909231 0.044129 -0.08735
C_ C_ 0.925399 0.878011 0.0674113 -0.08735
C_ C_ 0.892005 0.837507 0.0618221 0.18498
C_ C_ 0.877983 0.826354 0.0330247 -0.05681
C_ C_ 0.849807 0.781965 0.0280142 -0.08735
C_ C_ 0.832153 0.752938 0.0511471 -0.08735
C_ C_ 0.84283 0.767992 0.0801724 0.1947
N_ N_ 0.638274 0.662324 0.478378 -0.29468
N_ N_ 0.662838 0.707274 0.0808409 -0.17154
N_ N_ 0.635971 0.679163 0.230597 -0.17154
N_ N_ 0.642901 0.698777 0.336834 -0.29468
N_ N_ 0.867939 0.841051 0.228103 -0.29468
N_ N_ 0.860823 0.80615 0.333427 -0.17154
N_ N_ 0.892009 0.817569 0.481111 -0.17154
N_ N_ 0.875588 0.8077 0.083528 -0.29468
O_ O_ 0.722895 0.673127 0.43389 -0.58347
O_ O_ 0.71526 0.682746 0.388146 -0.58347
O_ O_ 0.65472 0.754487 0.436833 -0.58347
O_ O_ 0.636248 0.757006 0.391019 -0.58347
O_ O_ 0.648649 0.605786 0.422286 -0.58347
O_ O_ 0.645649 0.606455 0.375583 -0.58347
O_ O_ 0.575498 0.679144 0.427946 -0.58347
O_ O_ 0.565378 0.680044 0.381544 -0.58347
O_ O_ 0.580815 0.733267 0.0785068 -0.46727
O_ O_ 0.7448 0.673704 0.0823236 -0.46727
O_ O_ 0.549994 0.689388 0.22824 -0.46727
O_ O_ 0.721549 0.66025 0.235455 -0.46727
O_ O_ 0.794122 0.818766 0.178523 -0.58347
O_ O_ 0.806961 0.825238 0.133578 -0.58347
O_ O_ 0.883375 0.754312 0.184272 -0.58347
O_ O_ 0.878379 0.746848 0.138233 -0.58347
O_ O_ 0.858099 0.898612 0.172745 -0.58347
O_ O_ 0.88205 0.894608 0.127907 -0.58347
O_ O_ 0.945573 0.837819 0.18478 -0.58347
O_ O_ 0.954183 0.816088 0.139156 -0.58347
O_ O_ 0.946324 0.793577 0.328419 -0.46727
O_ O_ 0.77526 0.825011 0.33847 -0.46727
O_ O_ 0.972791 0.788498 0.476305 -0.46727
O_ O_ 0.80902 0.8347 0.488051 -0.46727
Zn Zn 0.624794 0.696812 0.883077 0.90689
Zn Zn 0.634862 0.688551 0.93019 0.90689
Zn Zn 0.866834 0.810864 0.632365 0.90689
Zn Zn 0.856446 0.817285 0.680711 0.90689
H_ H_ 0.799138 0.698242 0.943142 0.11455
H_ H_ 0.865607 0.632119 0.851649 0.11455
H_ H_ 0.776592 0.651319 0.855988 0.11455
H_ H_ 0.886516 0.679785 0.965517 0.11455
H_ H_ 0.978315 0.671277 0.95805 0.11455
H_ H_ 0.954457 0.669142 0.867105 0.11455
H_ H_ 0.620338 0.521405 0.944502 0.11455
H_ H_ 0.599737 0.944616 0.850302 0.11455
H_ H_ 0.646902 0.538817 0.855069 0.11455
H_ H_ 0.661151 0.943166 0.960985 0.11455
H_ H_ 0.653372 0.84844 0.959163 0.11455
H_ H_ 0.60477 0.862681 0.871891 0.11455
H_ H_ 0.581779 0.618539 0.967303 0.11455
H_ H_ 0.564846 0.576458 0.509753 0.11455
H_ H_ 0.598742 0.615676 0.554144 0.11455
H_ H_ 0.698587 0.755992 0.972895 0.11455
H_ H_ 0.742266 0.779798 0.518043 0.11455
H_ H_ 0.715968 0.762706 0.564599 0.11455
H_ H_ 0.511839 0.690288 0.62187 0.11455
H_ H_ 0.496688 0.679928 0.671711 0.11455
H_ H_ 0.763092 0.660175 0.642748 0.11455
H_ H_ 0.748662 0.659288 0.695018 0.11455
H_ H_ 0.55968 0.588404 0.750993 0.11455
H_ H_ 0.534535 0.569563 0.80353 0.11455
H_ H_ 0.55522 0.635058 0.840252 0.11455
H_ H_ 0.64945 0.750381 0.75596 0.11455
H_ H_ 0.689135 0.795124 0.795717 0.11455
H_ H_ 0.681664 0.76375 0.845388 0.11455
H_ H_ 0.692625 0.795744 0.693768 0.11455
H_ H_ 0.617894 0.822664 0.596652 0.11455
H_ H_ 0.711249 0.810641 0.603363 0.11455
H_ H_ 0.610772 0.792843 0.713095 0.11455
H_ H_ 0.515474 0.791146 0.708792 0.11455
H_ H_ 0.530982 0.82748 0.617208 0.11455
H_ H_ 0.83541 0.984475 0.694861 0.11455
H_ H_ 0.889299 0.556715 0.598527 0.11455
H_ H_ 0.880453 0.967713 0.606715 0.11455
H_ H_ 0.835535 0.568377 0.712397 0.11455
H_ H_ 0.839362 0.658139 0.709553 0.11455
H_ H_ 0.884944 0.645884 0.621845 0.11455
H_ H_ 0.903816 0.900077 0.715395 0.11455
H_ H_ 0.91328 0.93566 0.759856 0.11455
H_ H_ 0.894344 0.885596 0.802889 0.11455
H_ H_ 0.797664 0.750738 0.726646 0.11455
H_ H_ 0.766925 0.704444 0.769488 0.11455
H_ H_ 0.795663 0.728273 0.818272 0.11455
H_ H_ 0.985313 0.796571 0.87265 0.11455
H_ H_ 0.996962 0.801504 0.924298 0.11455
H_ H_ 0.733158 0.828459 0.89278 0.11455
H_ H_ 0.751436 0.837663 0.944894 0.11455
H_ H_ 0.948598 0.91899 0.998352 0.11455
H_ H_ 0.946708 0.930664 0.552204 0.11455
H_ H_ 0.901465 0.887295 0.587012 0.11455
H_ H_ 0.843831 0.744418 0.506061 0.11455
H_ H_ 0.804413 0.698579 0.548868 0.11455
H_ H_ 0.819675 0.734619 0.597064 0.11455
C_ C_ 0.730356 0.691088 0.905199 0.68181
C_ C_ 0.783426 0.679811 0.900852 -0.05681
C_ C_ 0.816016 0.686737 0.924022 -0.08735
C_ C_ 0.866945 0.673602 0.920679 -0.05681
C_ C_ 0.888108 0.663234 0.892792 -0.05681
C_ C_ 0.85435 0.646841 0.871993 -0.08735
C_ C_ 0.802609 0.659781 0.875046 -0.08735
C_ C_ 0.900235 0.675587 0.944068 -0.08735
C_ C_ 0.952807 0.668104 0.939414 -0.08735
C_ C_ 0.975435 0.669993 0.912617 -0.05681
C_ C_ 0.940957 0.664568 0.888458 -0.08735
C_ C_ 0.630268 0.792067 0.91138 0.68181
C_ C_ 0.630719 0.594053 0.902886 0.68181
C_ C_ 0.628979 0.536984 0.899981 -0.05681
C_ C_ 0.635342 0.00435531 0.922751 -0.08735
C_ C_ 0.633529 0.952451 0.919774 -0.05681
C_ C_ 0.622412 0.929503 0.893251 -0.05681
C_ C_ 0.60473 0.961032 0.870771 -0.08735
C_ C_ 0.608251 0.0139111 0.872785 -0.08735
C_ C_ 0.643512 0.924297 0.942458 -0.08735
C_ C_ 0.636819 0.872649 0.942062 -0.08735
C_ C_ 0.627032 0.848038 0.91541 -0.05681
C_ C_ 0.614444 0.878093 0.891911 -0.08735
C_ C_ 0.531475 0.689752 0.907047 0.68181
C_ C_ 0.597021 0.642223 0.985096 0.1947
C_ C_ 0.590125 0.60825 0.508385 -0.08735
C_ C_ 0.610579 0.631068 0.532751 -0.08735
C_ C_ 0.644799 0.671897 0.52923 -0.05681
C_ C_ 0.656138 0.688678 0.501194 0.18498
C_ C_ 0.687272 0.747226 0.994566 -0.08735
C_ C_ 0.715303 0.748717 0.520063 -0.08735
C_ C_ 0.699649 0.738745 0.54822 -0.08735
C_ C_ 0.661746 0.700648 0.553557 0.18498
C_ C_ 0.691831 0.678443 0.601578 0.44287
C_ C_ 0.602198 0.687793 0.594672 0.44287
C_ C_ 0.592356 0.675219 0.624348 -0.05681
C_ C_ 0.544253 0.67742 0.634683 -0.08735
C_ C_ 0.536091 0.67462 0.663938 -0.08735
C_ C_ 0.577973 0.67239 0.683713 -0.05681
C_ C_ 0.627101 0.671124 0.67284 -0.05681
C_ C_ 0.634608 0.670947 0.642645 -0.05681
C_ C_ 0.68389 0.669931 0.631186 -0.05681
C_ C_ 0.724529 0.667043 0.650857 -0.08735
C_ C_ 0.716628 0.664442 0.680244 -0.08735
C_ C_ 0.667308 0.668369 0.691284 -0.05681
C_ C_ 0.659153 0.669498 0.721424 0.44287
C_ C_ 0.569635 0.672514 0.713963 0.44287
C_ C_ 0.599802 0.65697 0.761593 0.18498
C_ C_ 0.575529 0.610624 0.769442 -0.08735
C_ C_ 0.55788 0.603564 0.79731 -0.08735
C_ C_ 0.572124 0.63761 0.818456 -0.08735
C_ C_ 0.602796 0.680492 0.812644 0.18498
C_ C_ 0.615318 0.692235 0.783668 -0.05681
C_ C_ 0.637933 0.739364 0.778169 -0.08735
C_ C_ 0.663555 0.765082 0.801314 -0.08735
C_ C_ 0.658964 0.746342 0.829044 0.1947
C_ C_ 0.761912 0.80647 0.652372 0.68181
C_ C_ 0.706997 0.801717 0.648971 -0.05681
C_ C_ 0.674875 0.796735 0.67202 -0.08735
C_ C_ 0.622336 0.803999 0.668703 -0.05681
C_ C_ 0.600367 0.8134 0.641508 -0.05681
C_ C_ 0.633939 0.818596 0.617347 -0.08735
C_ C_ 0.687974 0.813674 0.621758 -0.08735
C_ C_ 0.591173 0.798095 0.692878 -0.08735
C_ C_ 0.538125 0.797584 0.689158 -0.08735
C_ C_ 0.515098 0.806232 0.661514 -0.05681
C_ C_ 0.547553 0.813846 0.63767 -0.08735
C_ C_ 0.863441 0.716712 0.662862 0.68181
C_ C_ 0.855333 0.913619 0.652524 0.68181
C_ C_ 0.854273 0.969275 0.650126 -0.05681
C_ C_ 0.842902 0.501653 0.671845 -0.08735
C_ C_ 0.852876 0.554326 0.669714 -0.05681
C_ C_ 0.868591 0.57562 0.643662 -0.05681
C_ C_ 0.870767 0.544149 0.618573 -0.08735
C_ C_ 0.867176 0.990892 0.624246 -0.08735
C_ C_ 0.842234 0.585985 0.69229 -0.08735
C_ C_ 0.850006 0.636608 0.690739 -0.08735
C_ C_ 0.866167 0.660723 0.665557 -0.05681
C_ C_ 0.871419 0.628057 0.641002 -0.08735
C_ C_ 0.958401 0.831093 0.659398 0.68181
C_ C_ 0.887205 0.877959 0.733102 0.1947
C_ C_ 0.892576 0.900532 0.759419 -0.08735
C_ C_ 0.877865 0.873559 0.782972 -0.08735
C_ C_ 0.852494 0.824699 0.77982 -0.05681
C_ C_ 0.841464 0.806076 0.751418 0.18498
C_ C_ 0.813617 0.760629 0.747836 -0.08735
C_ C_ 0.794451 0.734432 0.77236 -0.08735
C_ C_ 0.806938 0.75111 0.800048 -0.08735
C_ C_ 0.835323 0.797531 0.80445 0.18498
C_ C_ 0.806759 0.820465 0.852397 0.44287
C_ C_ 0.893679 0.803133 0.844384 0.44287
C_ C_ 0.902653 0.809192 0.87459 -0.05681
C_ C_ 0.950598 0.800896 0.886715 -0.08735
C_ C_ 0.959897 0.806369 0.915827 -0.08735
C_ C_ 0.919822 0.816588 0.933909 -0.05681
C_ C_ 0.871018 0.824598 0.921954 -0.05681
C_ C_ 0.863099 0.821825 0.893044 -0.05681
C_ C_ 0.813526 0.82147 0.882267 -0.05681
C_ C_ 0.77356 0.824856 0.900387 -0.08735
C_ C_ 0.780703 0.833636 0.929667 -0.08735
C_ C_ 0.829738 0.834529 0.940739 -0.05681
C_ C_ 0.841352 0.848325 0.969481 0.44287
C_ C_ 0.926145 0.820831 0.963783 0.44287
C_ C_ 0.902606 0.83098 0.511218 0.18498
C_ C_ 0.923669 0.87802 0.517598 -0.08735
C_ C_ 0.922476 0.898333 0.545057 -0.08735
C_ C_ 0.897641 0.871577 0.566845 -0.08735
C_ C_ 0.886765 0.820056 0.562097 0.18498
C_ C_ 0.884262 0.799546 0.533775 -0.05681
C_ C_ 0.850185 0.758595 0.528297 -0.08735
C_ C_ 0.828914 0.733546 0.551674 -0.08735
C_ C_ 0.838863 0.751643 0.579161 0.1947
N_ N_ 0.630066 0.681343 0.978528 -0.29468
N_ N_ 0.650934 0.688779 0.58405 -0.17154
N_ N_ 0.610011 0.669746 0.731942 -0.17154
N_ N_ 0.625187 0.707063 0.834803 -0.29468
N_ N_ 0.863014 0.832577 0.728418 -0.29468
N_ N_ 0.846231 0.811533 0.833588 -0.17154
N_ N_ 0.888405 0.841534 0.980311 -0.17154
N_ N_ 0.867587 0.793838 0.584448 -0.29468
O_ O_ 0.711844 0.689347 0.929909 -0.58347
O_ O_ 0.702047 0.701427 0.883817 -0.58347
O_ O_ 0.633463 0.764797 0.933557 -0.58347
O_ O_ 0.626559 0.772407 0.886902 -0.58347
O_ O_ 0.634374 0.613215 0.927171 -0.58347
O_ O_ 0.629502 0.622833 0.880956 -0.58347
O_ O_ 0.560261 0.683622 0.929064 -0.58347
O_ O_ 0.550874 0.6981 0.881989 -0.58347
O_ O_ 0.56322 0.699996 0.57771 -0.46727
O_ O_ 0.737896 0.668285 0.590806 -0.46727
O_ O_ 0.522278 0.666287 0.7231 -0.46727
O_ O_ 0.697971 0.669175 0.739376 -0.46727
O_ O_ 0.78177 0.805909 0.677385 -0.58347
O_ O_ 0.78874 0.806499 0.630278 -0.58347
O_ O_ 0.870083 0.743259 0.685916 -0.58347
O_ O_ 0.869535 0.735829 0.638175 -0.58347
O_ O_ 0.843416 0.890383 0.675691 -0.58347
O_ O_ 0.862109 0.885888 0.630604 -0.58347
O_ O_ 0.930792 0.834629 0.682155 -0.58347
O_ O_ 0.936656 0.815892 0.637094 -0.58347
O_ O_ 0.930173 0.789978 0.826976 -0.46727
O_ O_ 0.761336 0.827758 0.840708 -0.46727
O_ O_ 0.969828 0.809864 0.97469 -0.46727
O_ O_ 0.807637 0.874258 0.984194 -0.46727
_cell_length_a 26.376
_cell_length_b 26.400000238300095
_cell_length_c 46.67800035477134
_cell_angle_alpha 90.00700052986613
_cell_angle_beta 89.99899961309502
_cell_angle_gamma 90.45000003183146
_symmetry_space_group_name_H-M         'P 1'
_symmetry_Int_Tables_number            1
loop_
_symmetry_equiv_pos_as_xyz
   'x, y, z'
                         
loop_
_atom_site_label
_atom_site_type_symbol
_atom_site_fract_x 
_atom_site_fract_y
_atom_site_fract_z
_atom_site_charge
Zn Zn 0.126136 0.182047 0.380955 0.90689
Zn Zn 0.136913 0.173434 0.426939 0.90689
Zn Zn 0.37768 0.318429 0.132431 0.90689
Zn Zn 0.367401 0.320062 0.179075 0.90689
H_ H_ 0.297248 0.212855 0.440673 0.11455
H_ H_ 0.371272 0.179281 0.34578 0.11455
H_ H_ 0.281165 0.164374 0.354908 0.11455
H_ H_ 0.384063 0.192829 0.462558 0.11455
H_ H_ 0.479797 0.192769 0.455338 0.11455
H_ H_ 0.461565 0.184054 0.364946 0.11455
H_ H_ 0.160608 0.00639869 0.438836 0.11455
H_ H_ 0.150739 0.4279 0.346006 0.11455
H_ H_ 0.142327 0.019655 0.348284 0.11455
H_ H_ 0.138363 0.422584 0.464665 0.11455
H_ H_ 0.106974 0.334389 0.459426 0.11455
H_ H_ 0.124866 0.346781 0.368475 0.11455
H_ H_ 0.0850774 0.0956539 0.461723 0.11455
H_ H_ 0.0926799 0.0741698 0.0159901 0.11455
H_ H_ 0.131522 0.123452 0.0520961 0.11455
H_ H_ 0.195843 0.232087 0.471237 0.11455
H_ H_ 0.226955 0.307565 0.0147031 0.11455
H_ H_ 0.197878 0.286491 0.063098 0.11455
H_ H_ 0.0129668 0.195507 0.120237 0.11455
H_ H_ 0.00108253 0.181918 0.17082 0.11455
H_ H_ 0.264739 0.17046 0.136555 0.11455
H_ H_ 0.253756 0.1649 0.188465 0.11455
H_ H_ 0.0484816 0.100117 0.245194 0.11455
H_ H_ 0.0272278 0.07409 0.296506 0.11455
H_ H_ 0.060495 0.126104 0.336117 0.11455
H_ H_ 0.148318 0.253495 0.257769 0.11455
H_ H_ 0.182698 0.295092 0.29967 0.11455
H_ H_ 0.173348 0.25859 0.345522 0.11455
H_ H_ 0.200215 0.312991 0.19433 0.11455
H_ H_ 0.126753 0.332431 0.0961394 0.11455
H_ H_ 0.221633 0.344773 0.102958 0.11455
H_ H_ 0.11288 0.326413 0.214758 0.11455
H_ H_ 0.0251092 0.312539 0.209484 0.11455
H_ H_ 0.0430871 0.327151 0.11661 0.11455
H_ H_ 0.384698 0.490741 0.197074 0.11455
H_ H_ 0.360307 0.0693664 0.0978416 0.11455
H_ H_ 0.368798 0.478381 0.104189 0.11455
H_ H_ 0.367912 0.0713039 0.215512 0.11455
H_ H_ 0.381746 0.166363 0.210564 0.11455
H_ H_ 0.374306 0.153517 0.118323 0.11455
H_ H_ 0.42982 0.384455 0.219806 0.11455
H_ H_ 0.430479 0.423571 0.264374 0.11455
H_ H_ 0.392781 0.378196 0.306847 0.11455
H_ H_ 0.298326 0.25861 0.224142 0.11455
H_ H_ 0.269265 0.206432 0.263663 0.11455
H_ H_ 0.286258 0.232292 0.313787 0.11455
H_ H_ 0.478704 0.304708 0.375325 0.11455
H_ H_ 0.490993 0.319813 0.424892 0.11455
H_ H_ 0.230237 0.349875 0.390163 0.11455
H_ H_ 0.238654 0.356514 0.440673 0.11455
H_ H_ 0.422406 0.419778 0.505246 0.11455
H_ H_ 0.436762 0.453951 0.0519557 0.11455
H_ H_ 0.433617 0.387296 0.0909915 0.11455
H_ H_ 0.351612 0.256845 0.00794437 0.11455
H_ H_ 0.323265 0.209503 0.0505207 0.11455
H_ H_ 0.328523 0.24333 0.0969779 0.11455
C_ C_ 0.228159 0.184496 0.402008 0.68181
C_ C_ 0.284981 0.189656 0.397922 -0.05681
C_ C_ 0.316195 0.198716 0.420416 -0.08735
C_ C_ 0.36752 0.192138 0.417087 -0.05681
C_ C_ 0.390035 0.185298 0.389221 -0.05681
C_ C_ 0.357548 0.179109 0.366879 -0.08735
C_ C_ 0.304481 0.179272 0.371362 -0.08735
C_ C_ 0.400343 0.193343 0.441398 -0.08735
C_ C_ 0.453771 0.190323 0.437641 -0.08735
C_ C_ 0.475504 0.185272 0.410748 -0.05681
C_ C_ 0.443197 0.186919 0.385991 -0.08735
C_ C_ 0.114715 0.276515 0.410725 0.68181
C_ C_ 0.150163 0.0797748 0.396269 0.68181
C_ C_ 0.153311 0.0220527 0.393652 -0.05681
C_ C_ 0.140219 0.489914 0.421675 -0.08735
C_ C_ 0.131811 0.437686 0.418436 -0.05681
C_ C_ 0.13366 0.414673 0.391616 -0.05681
C_ C_ 0.143354 0.445415 0.367787 -0.08735
C_ C_ 0.150841 0.497819 0.371781 -0.08735
C_ C_ 0.127952 0.408894 0.443079 -0.08735
C_ C_ 0.117788 0.357349 0.441078 -0.08735
C_ C_ 0.115792 0.334001 0.413552 -0.05681
C_ C_ 0.122488 0.362878 0.389217 -0.08735
C_ C_ 0.032823 0.170089 0.406058 0.68181
C_ C_ 0.104014 0.113767 0.478761 0.1947
C_ C_ 0.108224 0.111829 0.00952916 -0.08735
C_ C_ 0.129126 0.138936 0.0317643 -0.08735
C_ C_ 0.145608 0.187013 0.0270481 -0.05681
C_ C_ 0.153119 0.202863 0.998198 0.18498
C_ C_ 0.184768 0.221275 0.492493 -0.08735
C_ C_ 0.197719 0.277223 0.0168827 -0.08735
C_ C_ 0.182804 0.265614 0.0457286 -0.08735
C_ C_ 0.159898 0.218877 0.050552 0.18498
C_ C_ 0.192857 0.195126 0.0968952 0.44287
C_ C_ 0.104046 0.204886 0.0910924 0.44287
C_ C_ 0.0964893 0.192123 0.120971 -0.05681
C_ C_ 0.047034 0.195164 0.133787 -0.08735
C_ C_ 0.0387935 0.187869 0.162447 -0.08735
C_ C_ 0.0809835 0.185972 0.180777 -0.05681
C_ C_ 0.131153 0.187318 0.169362 -0.05681
C_ C_ 0.137777 0.186003 0.138618 -0.05681
C_ C_ 0.18757 0.188029 0.127041 -0.05681
C_ C_ 0.227483 0.174555 0.145655 -0.08735
C_ C_ 0.221859 0.174348 0.175321 -0.08735
C_ C_ 0.173277 0.182 0.187368 -0.05681
C_ C_ 0.163368 0.169721 0.217097 0.44287
C_ C_ 0.0739564 0.182723 0.210768 0.44287
C_ C_ 0.104197 0.156755 0.257931 0.18498
C_ C_ 0.0716044 0.113248 0.262343 -0.08735
C_ C_ 0.0563995 0.101316 0.291266 -0.08735
C_ C_ 0.0736117 0.130549 0.314212 -0.08735
C_ C_ 0.106279 0.170757 0.310114 0.18498
C_ C_ 0.119125 0.18618 0.281455 -0.05681
C_ C_ 0.145566 0.234642 0.27857 -0.08735
C_ C_ 0.162468 0.259952 0.302618 -0.08735
C_ C_ 0.155528 0.238485 0.329318 0.1947
C_ C_ 0.274341 0.318763 0.153012 0.68181
C_ C_ 0.217244 0.323847 0.149044 -0.05681
C_ C_ 0.183902 0.318898 0.173009 -0.08735
C_ C_ 0.131945 0.325313 0.170062 -0.05681
C_ C_ 0.111796 0.328709 0.14195 -0.05681
C_ C_ 0.144628 0.332105 0.116645 -0.08735
C_ C_ 0.196703 0.331734 0.121449 -0.08735
C_ C_ 0.100362 0.319915 0.193417 -0.08735
C_ C_ 0.0485961 0.318957 0.189224 -0.08735
C_ C_ 0.0276163 0.318528 0.162213 -0.05681
C_ C_ 0.0590636 0.324616 0.137572 -0.08735
C_ C_ 0.372336 0.221378 0.163596 0.68181
C_ C_ 0.370096 0.417725 0.153039 0.68181
C_ C_ 0.372616 0.474533 0.151004 -0.05681
C_ C_ 0.353396 0.00807649 0.172987 -0.08735
C_ C_ 0.360384 0.0602237 0.170359 -0.05681
C_ C_ 0.364041 0.0821934 0.142525 -0.05681
C_ C_ 0.35586 0.0520243 0.118341 -0.08735
C_ C_ 0.365744 0.497439 0.124409 -0.08735
C_ C_ 0.368007 0.0897195 0.195351 -0.08735
C_ C_ 0.372243 0.142093 0.19201 -0.08735
C_ C_ 0.37005 0.166485 0.165608 -0.05681
C_ C_ 0.368262 0.136901 0.140556 -0.08735
C_ C_ 0.472085 0.318732 0.160489 0.68181
C_ C_ 0.405378 0.369913 0.234967 0.1947
C_ C_ 0.411717 0.387374 0.261783 -0.08735
C_ C_ 0.387166 0.364859 0.285449 -0.08735
C_ C_ 0.356683 0.321174 0.280324 -0.05681
C_ C_ 0.34866 0.305584 0.250806 0.18498
C_ C_ 0.314954 0.267255 0.245068 -0.08735
C_ C_ 0.294539 0.238767 0.268321 -0.08735
C_ C_ 0.304321 0.251934 0.296477 -0.08735
C_ C_ 0.334642 0.294356 0.303341 0.18498
C_ C_ 0.302215 0.322148 0.350157 0.44287
C_ C_ 0.389429 0.30544 0.34603 0.44287
C_ C_ 0.398031 0.322008 0.374121 -0.05681
C_ C_ 0.446187 0.318073 0.387778 -0.08735
C_ C_ 0.452902 0.326531 0.416848 -0.08735
C_ C_ 0.411871 0.334071 0.434932 -0.05681
C_ C_ 0.363641 0.33699 0.421809 -0.05681
C_ C_ 0.356252 0.333086 0.391861 -0.05681
C_ C_ 0.307688 0.329097 0.380602 -0.05681
C_ C_ 0.266052 0.344354 0.398989 -0.08735
C_ C_ 0.273643 0.351133 0.428743 -0.08735
C_ C_ 0.322529 0.34554 0.440559 -0.05681
C_ C_ 0.329095 0.350703 0.469403 0.44287
C_ C_ 0.417367 0.334506 0.464825 0.44287
C_ C_ 0.39878 0.35244 0.0117911 0.18498
C_ C_ 0.411133 0.402461 0.0184712 -0.08735
C_ C_ 0.422462 0.415594 0.0471254 -0.08735
C_ C_ 0.419466 0.380188 0.0694904 -0.08735
C_ C_ 0.393048 0.333028 0.0634044 0.18498
C_ C_ 0.382845 0.320314 0.0346541 -0.05681
C_ C_ 0.360578 0.269894 0.0300624 -0.08735
C_ C_ 0.346222 0.242315 0.053354 -0.08735
C_ C_ 0.351544 0.261259 0.0808634 0.1947
N_ N_ 0.135844 0.153054 0.474879 -0.29468
N_ N_ 0.150794 0.202855 0.0797265 -0.17154
N_ N_ 0.115348 0.17397 0.228738 -0.17154
N_ N_ 0.126401 0.195581 0.333804 -0.29468
N_ N_ 0.371014 0.332668 0.228767 -0.29468
N_ N_ 0.342566 0.307586 0.333608 -0.17154
N_ N_ 0.375789 0.342203 0.481353 -0.17154
N_ N_ 0.380257 0.300951 0.0854295 -0.29468
O_ O_ 0.212204 0.181501 0.426921 -0.58347
O_ O_ 0.198214 0.192553 0.381388 -0.58347
O_ O_ 0.127455 0.250441 0.432919 -0.58347
O_ O_ 0.112279 0.255562 0.386206 -0.58347
O_ O_ 0.147014 0.0998487 0.421191 -0.58347
O_ O_ 0.141258 0.106904 0.375146 -0.58347
O_ O_ 0.0602049 0.164291 0.428067 -0.58347
O_ O_ 0.051646 0.170994 0.380814 -0.58347
O_ O_ 0.0659313 0.216988 0.0749393 -0.46727
O_ O_ 0.239345 0.191196 0.0850308 -0.46727
O_ O_ 0.0284162 0.183692 0.221737 -0.46727
O_ O_ 0.2003 0.155052 0.233409 -0.46727
O_ O_ 0.295193 0.327692 0.177406 -0.58347
O_ O_ 0.299011 0.304092 0.131583 -0.58347
O_ O_ 0.36129 0.246567 0.18595 -0.58347
O_ O_ 0.377364 0.242455 0.139692 -0.58347
O_ O_ 0.376897 0.393559 0.175956 -0.58347
O_ O_ 0.360275 0.392235 0.130629 -0.58347
O_ O_ 0.442233 0.306806 0.180815 -0.58347
O_ O_ 0.454777 0.331414 0.135842 -0.58347
O_ O_ 0.427751 0.285801 0.330642 -0.46727
O_ O_ 0.25569 0.317554 0.339866 -0.46727
O_ O_ 0.456878 0.312859 0.475599 -0.46727
O_ O_ 0.290475 0.361881 0.485213 -0.46727
Zn Zn 0.128996 0.182708 0.87804 0.90689
Zn Zn 0.137274 0.177757 0.927336 0.90689
Zn Zn 0.36299 0.301073 0.634014 0.90689
Zn Zn 0.354985 0.307076 0.680231 0.90689
H_ H_ 0.303369 0.207188 0.943178 0.11455
H_ H_ 0.369231 0.170695 0.849345 0.11455
H_ H_ 0.281906 0.165713 0.855441 0.11455
H_ H_ 0.387776 0.215276 0.963256 0.11455
H_ H_ 0.482292 0.21659 0.957676 0.11455
H_ H_ 0.460117 0.161529 0.869988 0.11455
H_ H_ 0.136135 0.00794459 0.942131 0.11455
H_ H_ 0.121028 0.432632 0.844992 0.11455
H_ H_ 0.127686 0.0173809 0.85025 0.11455
H_ H_ 0.141357 0.424973 0.964035 0.11455
H_ H_ 0.138836 0.336792 0.958661 0.11455
H_ H_ 0.127476 0.347849 0.8668 0.11455
H_ H_ 0.089751 0.110315 0.965522 0.11455
H_ H_ 0.0666748 0.0635668 0.509813 0.11455
H_ H_ 0.10503 0.106563 0.550399 0.11455
H_ H_ 0.196791 0.255774 0.970483 0.11455
H_ H_ 0.226475 0.283929 0.50848 0.11455
H_ H_ 0.200704 0.267343 0.558281 0.11455
H_ H_ 0.0198645 0.206421 0.620864 0.11455
H_ H_ 0.0062753 0.188934 0.673706 0.11455
H_ H_ 0.267646 0.174465 0.633428 0.11455
H_ H_ 0.259283 0.147085 0.682985 0.11455
H_ H_ 0.0756428 0.0732664 0.74888 0.11455
H_ H_ 0.055885 0.0542075 0.796987 0.11455
H_ H_ 0.0709122 0.119041 0.834445 0.11455
H_ H_ 0.168905 0.233701 0.752269 0.11455
H_ H_ 0.201521 0.283425 0.79262 0.11455
H_ H_ 0.178792 0.26399 0.84157 0.11455
H_ H_ 0.183577 0.304326 0.696344 0.11455
H_ H_ 0.117545 0.315137 0.598208 0.11455
H_ H_ 0.208917 0.311094 0.603979 0.11455
H_ H_ 0.101909 0.314741 0.714076 0.11455
H_ H_ 0.012869 0.304798 0.707654 0.11455
H_ H_ 0.0320112 0.314877 0.616572 0.11455
H_ H_ 0.371387 0.476678 0.69106 0.11455
H_ H_ 0.343928 0.054038 0.598261 0.11455
H_ H_ 0.321179 0.462339 0.604379 0.11455
H_ H_ 0.382831 0.0629917 0.713504 0.11455
H_ H_ 0.390585 0.154188 0.708798 0.11455
H_ H_ 0.355391 0.141422 0.618176 0.11455
H_ H_ 0.400182 0.384585 0.716501 0.11455
H_ H_ 0.417827 0.412869 0.764297 0.11455
H_ H_ 0.378162 0.370845 0.80674 0.11455
H_ H_ 0.302196 0.235955 0.725952 0.11455
H_ H_ 0.272598 0.185652 0.767407 0.11455
H_ H_ 0.299119 0.208754 0.815872 0.11455
H_ H_ 0.47971 0.277862 0.874239 0.11455
H_ H_ 0.498575 0.323293 0.919046 0.11455
H_ H_ 0.233905 0.346421 0.892076 0.11455
H_ H_ 0.251692 0.352792 0.943347 0.11455
H_ H_ 0.41977 0.428171 0.00176904 0.11455
H_ H_ 0.438232 0.440297 0.55596 0.11455
H_ H_ 0.411951 0.380965 0.592054 0.11455
H_ H_ 0.340639 0.255837 0.506744 0.11455
H_ H_ 0.308005 0.202265 0.542238 0.11455
H_ H_ 0.320125 0.224421 0.594156 0.11455
C_ C_ 0.231799 0.189231 0.904294 0.68181
C_ C_ 0.285946 0.187098 0.900867 -0.05681
C_ C_ 0.31887 0.191302 0.924206 -0.08735
C_ C_ 0.371608 0.186872 0.920557 -0.05681
C_ C_ 0.391137 0.179467 0.892884 -0.05681
C_ C_ 0.358327 0.168645 0.871087 -0.08735
C_ C_ 0.306327 0.17168 0.874542 -0.08735
C_ C_ 0.404407 0.200648 0.942921 -0.08735
C_ C_ 0.458161 0.20337 0.939464 -0.08735
C_ C_ 0.478335 0.192737 0.911624 -0.05681
C_ C_ 0.444538 0.177919 0.889619 -0.08735
C_ C_ 0.123822 0.27867 0.909632 0.68181
C_ C_ 0.141003 0.0787317 0.898312 0.68181
C_ C_ 0.136251 0.0219166 0.89656 -0.05681
C_ C_ 0.137035 0.493326 0.919123 -0.08735
C_ C_ 0.132174 0.441313 0.918041 -0.05681
C_ C_ 0.129312 0.418824 0.890578 -0.05681
C_ C_ 0.135762 0.449202 0.866204 -0.08735
C_ C_ 0.138256 0.499746 0.868269 -0.08735
C_ C_ 0.135205 0.410981 0.942436 -0.08735
C_ C_ 0.134527 0.358434 0.939082 -0.08735
C_ C_ 0.123993 0.335396 0.912722 -0.05681
C_ C_ 0.125522 0.36537 0.887445 -0.08735
C_ C_ 0.037632 0.176884 0.90175 0.68181
C_ C_ 0.111842 0.129169 0.981573 0.1947
C_ C_ 0.0933757 0.0957965 0.505801 -0.08735
C_ C_ 0.11273 0.12161 0.529738 -0.08735
C_ C_ 0.138879 0.169501 0.52591 -0.05681
C_ C_ 0.150663 0.182168 0.497407 0.18498
C_ C_ 0.184608 0.244977 0.9938 -0.08735
C_ C_ 0.204035 0.249339 0.514231 -0.08735
C_ C_ 0.18967 0.240822 0.542428 -0.08735
C_ C_ 0.15789 0.198386 0.54847 0.18498
C_ C_ 0.190708 0.167194 0.593261 0.44287
C_ C_ 0.106471 0.199498 0.591896 0.44287
C_ C_ 0.0978566 0.186205 0.62063 -0.05681
C_ C_ 0.0512689 0.193025 0.633948 -0.08735
C_ C_ 0.0443172 0.184487 0.663913 -0.08735
C_ C_ 0.0868392 0.174812 0.682134 -0.05681
C_ C_ 0.133486 0.168825 0.66852 -0.05681
C_ C_ 0.139456 0.174507 0.637994 -0.05681
C_ C_ 0.187679 0.16797 0.624619 -0.05681
C_ C_ 0.229377 0.164171 0.64201 -0.08735
C_ C_ 0.224397 0.161052 0.671552 -0.08735
C_ C_ 0.176425 0.158943 0.685941 -0.05681
C_ C_ 0.169519 0.14687 0.71456 0.44287
C_ C_ 0.0822933 0.168056 0.711589 0.44287
C_ C_ 0.116677 0.141699 0.756775 0.18498
C_ C_ 0.0906034 0.0975822 0.7647 -0.08735
C_ C_ 0.0768118 0.0871103 0.792518 -0.08735
C_ C_ 0.0898445 0.122352 0.814558 -0.08735
C_ C_ 0.120342 0.164451 0.80809 0.18498
C_ C_ 0.136323 0.173058 0.778591 -0.05681
C_ C_ 0.161477 0.2185 0.774038 -0.08735
C_ C_ 0.175399 0.252325 0.796361 -0.08735
C_ C_ 0.163216 0.23917 0.824725 0.1947
C_ C_ 0.260217 0.295024 0.654009 0.68181
C_ C_ 0.205547 0.303148 0.650759 -0.05681
C_ C_ 0.171307 0.304095 0.673874 -0.08735
C_ C_ 0.120824 0.310646 0.66932 -0.05681
C_ C_ 0.101271 0.314179 0.641485 -0.05681
C_ C_ 0.134437 0.319809 0.618706 -0.08735
C_ C_ 0.185325 0.313187 0.622936 -0.08735
C_ C_ 0.0874037 0.311004 0.692762 -0.08735
C_ C_ 0.0368296 0.312192 0.688657 -0.08735
C_ C_ 0.0155625 0.311106 0.661265 -0.05681
C_ C_ 0.048446 0.317098 0.638309 -0.08735
C_ C_ 0.373947 0.208766 0.663564 0.68181
C_ C_ 0.346725 0.402326 0.651661 0.68181
C_ C_ 0.348646 0.458342 0.647503 -0.05681
C_ C_ 0.369699 -0.004917999999999978 0.671091 -0.08735
C_ C_ 0.373895 0.0469397 0.668701 -0.05681
C_ C_ 0.36401 0.0698861 0.64142 -0.05681
C_ C_ 0.34681 0.0385831 0.619027 -0.08735
C_ C_ 0.334493 0.484053 0.621696 -0.08735
C_ C_ 0.381482 0.0781918 0.69286 -0.08735
C_ C_ 0.389048 0.129674 0.68959 -0.08735
C_ C_ 0.379872 0.153999 0.663343 -0.05681
C_ C_ 0.366665 0.123594 0.638754 -0.08735
C_ C_ 0.459505 0.312061 0.657015 0.68181
C_ C_ 0.382377 0.363513 0.73421 0.1947
C_ C_ 0.387902 0.383821 0.76075 -0.08735
C_ C_ 0.37111 0.358696 0.784545 -0.08735
C_ C_ 0.347495 0.309835 0.781271 -0.05681
C_ C_ 0.33758 0.293937 0.752377 0.18498
C_ C_ 0.315885 0.246487 0.747542 -0.08735
C_ C_ 0.2999 0.216705 0.769788 -0.08735
C_ C_ 0.310051 0.232181 0.798101 -0.08735
C_ C_ 0.332355 0.279272 0.804127 0.18498
C_ C_ 0.303215 0.314413 0.850709 0.44287
C_ C_ 0.389309 0.288858 0.846562 0.44287
C_ C_ 0.400207 0.305787 0.874593 -0.05681
C_ C_ 0.448856 0.298825 0.88717 -0.08735
C_ C_ 0.460023 0.320866 0.913232 -0.08735
C_ C_ 0.420473 0.323955 0.933112 -0.05681
C_ C_ 0.371124 0.332256 0.922363 -0.05681
C_ C_ 0.362114 0.326356 0.891799 -0.05681
C_ C_ 0.312778 0.326028 0.879613 -0.05681
C_ C_ 0.269448 0.332364 0.899583 -0.08735
C_ C_ 0.281804 0.344605 0.929532 -0.08735
C_ C_ 0.330219 0.334905 0.941341 -0.05681
C_ C_ 0.340193 0.340027 0.971591 0.44287
C_ C_ 0.429361 0.329137 0.963767 0.44287
C_ C_ 0.383839 0.351261 0.512625 0.18498
C_ C_ 0.406363 0.397135 0.521772 -0.08735
C_ C_ 0.415497 0.407622 0.549973 -0.08735
C_ C_ 0.400339 0.37258 0.570494 -0.08735
C_ C_ 0.374477 0.32698 0.563385 0.18498
C_ C_ 0.36866 0.314874 0.534621 -0.05681
C_ C_ 0.345596 0.267975 0.527957 -0.08735
C_ C_ 0.330255 0.234726 0.549861 -0.08735
C_ C_ 0.333995 0.250857 0.578139 0.1947
N_ N_ 0.132743 0.174157 0.975649 -0.29468
N_ N_ 0.149937 0.184616 0.578515 -0.17154
N_ N_ 0.12358 0.153826 0.72707 -0.17154
N_ N_ 0.135144 0.197117 0.829724 -0.29468
N_ N_ 0.357113 0.318721 0.729889 -0.29468
N_ N_ 0.342126 0.294744 0.834443 -0.17154
N_ N_ 0.389232 0.33923 0.981508 -0.17154
N_ N_ 0.359373 0.295701 0.585505 -0.29468
O_ O_ 0.212146 0.189769 0.928448 -0.58347
O_ O_ 0.203203 0.184778 0.882382 -0.58347
O_ O_ 0.131047 0.252369 0.931243 -0.58347
O_ O_ 0.125179 0.258171 0.884957 -0.58347
O_ O_ 0.142876 0.0989083 0.922793 -0.58347
O_ O_ 0.132129 0.1068 0.878219 -0.58347
O_ O_ 0.0672047 0.17121 0.922326 -0.58347
O_ O_ 0.0545907 0.179269 0.876323 -0.58347
O_ O_ 0.0721322 0.227292 0.578267 -0.46727
O_ O_ 0.235251 0.160106 0.580943 -0.46727
O_ O_ 0.0399766 0.178037 0.724814 -0.46727
O_ O_ 0.210398 0.134503 0.730509 -0.46727
O_ O_ 0.278244 0.293304 0.679588 -0.58347
O_ O_ 0.289095 0.289533 0.632194 -0.58347
O_ O_ 0.362483 0.231252 0.685423 -0.58347
O_ O_ 0.37385 0.229391 0.639611 -0.58347
O_ O_ 0.349453 0.380599 0.675339 -0.58347
O_ O_ 0.346622 0.375376 0.628486 -0.58347
O_ O_ 0.431506 0.311319 0.679367 -0.58347
O_ O_ 0.439639 0.314739 0.632546 -0.58347
O_ O_ 0.424898 0.26693 0.831568 -0.46727
O_ O_ 0.254925 0.314268 0.840275 -0.46727
O_ O_ 0.474569 0.327515 0.974363 -0.46727
O_ O_ 0.303321 0.344506 0.9892 -0.46727
Zn Zn 0.13794 0.682948 0.380636 0.90689
Zn Zn 0.146061 0.678909 0.428615 0.90689
Zn Zn 0.376489 0.814223 0.131446 0.90689
Zn Zn 0.369035 0.824714 0.17726 0.90689
H_ H_ 0.318254 0.687746 0.447854 0.11455
H_ H_ 0.386366 0.669445 0.34748 0.11455
H_ H_ 0.290394 0.676441 0.354556 0.11455
H_ H_ 0.404141 0.663529 0.465133 0.11455
H_ H_ 0.494436 0.67745 0.45787 0.11455
H_ H_ 0.470912 0.670335 0.365086 0.11455
H_ H_ 0.137497 0.511136 0.44109 0.11455
H_ H_ 0.136616 0.926333 0.344918 0.11455
H_ H_ 0.152324 0.51995 0.351408 0.11455
H_ H_ 0.154128 0.924894 0.462429 0.11455
H_ H_ 0.133462 0.834788 0.458075 0.11455
H_ H_ 0.13684 0.844246 0.366169 0.11455
H_ H_ 0.091498 0.591468 0.46349 0.11455
H_ H_ 0.0574133 0.588146 0.0142912 0.11455
H_ H_ 0.104673 0.629426 0.0551371 0.11455
H_ H_ 0.194868 0.734334 0.472581 0.11455
H_ H_ 0.222932 0.801 0.0124968 0.11455
H_ H_ 0.189121 0.788157 0.061537 0.11455
H_ H_ 0.0206181 0.698762 0.122968 0.11455
H_ H_ 0.0117042 0.692129 0.176536 0.11455
H_ H_ 0.266889 0.653033 0.13214 0.11455
H_ H_ 0.257591 0.629867 0.181053 0.11455
H_ H_ 0.103733 0.581124 0.247077 0.11455
H_ H_ 0.0600452 0.569132 0.296005 0.11455
H_ H_ 0.0791914 0.633688 0.333823 0.11455
H_ H_ 0.189729 0.735869 0.255457 0.11455
H_ H_ 0.210349 0.793007 0.297419 0.11455
H_ H_ 0.195429 0.763219 0.347229 0.11455
H_ H_ 0.206715 0.810678 0.198908 0.11455
H_ H_ 0.133952 0.844835 0.102756 0.11455
H_ H_ 0.225743 0.844673 0.109647 0.11455
H_ H_ 0.122766 0.806362 0.217879 0.11455
H_ H_ 0.0315094 0.805722 0.212522 0.11455
H_ H_ 0.0519146 0.827658 0.121627 0.11455
H_ H_ 0.352993 0.988202 0.193513 0.11455
H_ H_ 0.369348 0.563206 0.0993514 0.11455
H_ H_ 0.351135 0.977369 0.101569 0.11455
H_ H_ 0.397345 0.57783 0.218405 0.11455
H_ H_ 0.391226 0.665283 0.212189 0.11455
H_ H_ 0.354345 0.649001 0.12353 0.11455
H_ H_ 0.421872 0.911935 0.213531 0.11455
H_ H_ 0.414011 0.944224 0.259105 0.11455
H_ H_ 0.385231 0.889822 0.301183 0.11455
H_ H_ 0.320722 0.756409 0.219007 0.11455
H_ H_ 0.307837 0.699868 0.256659 0.11455
H_ H_ 0.318095 0.721705 0.30519 0.11455
H_ H_ 0.495603 0.807166 0.369976 0.11455
H_ H_ 0.501903 0.81267 0.421846 0.11455
H_ H_ 0.240594 0.820801 0.38101 0.11455
H_ H_ 0.249147 0.827714 0.434558 0.11455
H_ H_ 0.421706 0.907438 0.4988 0.11455
H_ H_ 0.451821 0.935932 0.0448416 0.11455
H_ H_ 0.43005 0.88325 0.0855963 0.11455
H_ H_ 0.34672 0.748843 0.00991629 0.11455
H_ H_ 0.298096 0.713475 0.0501944 0.11455
H_ H_ 0.319441 0.746955 0.0984071 0.11455
C_ C_ 0.240738 0.684478 0.407152 0.68181
C_ C_ 0.298058 0.683212 0.402197 -0.05681
C_ C_ 0.330277 0.676295 0.426191 -0.08735
C_ C_ 0.383444 0.67085 0.420152 -0.05681
C_ C_ 0.403384 0.674319 0.391685 -0.05681
C_ C_ 0.36947 0.672696 0.368038 -0.08735
C_ C_ 0.318249 0.67686 0.372875 -0.08735
C_ C_ 0.417751 0.667081 0.443438 -0.08735
C_ C_ 0.470202 0.675617 0.438402 -0.08735
C_ C_ 0.49024 0.673555 0.410974 -0.05681
C_ C_ 0.456784 0.674772 0.386973 -0.08735
C_ C_ 0.133871 0.777087 0.410373 0.68181
C_ C_ 0.149426 0.580306 0.399895 0.68181
C_ C_ 0.144649 0.521909 0.397531 -0.05681
C_ C_ 0.154573 0.990047 0.418413 -0.08735
C_ C_ 0.150711 0.937252 0.416889 -0.05681
C_ C_ 0.148083 0.913432 0.389301 -0.05681
C_ C_ 0.147272 0.945197 0.365409 -0.08735
C_ C_ 0.146624 0.998305 0.367503 -0.08735
C_ C_ 0.149654 0.90873 0.441 -0.08735
C_ C_ 0.141818 0.856449 0.439098 -0.08735
C_ C_ 0.138799 0.833105 0.412417 -0.05681
C_ C_ 0.146926 0.861043 0.386628 -0.08735
C_ C_ 0.047742 0.676628 0.405448 0.68181
C_ C_ 0.0987452 0.620302 0.480225 0.1947
C_ C_ 0.0879101 0.615313 0.0106873 -0.08735
C_ C_ 0.114244 0.637145 0.033764 -0.08735
C_ C_ 0.142692 0.681528 0.0283494 -0.05681
C_ C_ 0.149877 0.696917 0.999344 0.18498
C_ C_ 0.176314 0.732161 0.492839 -0.08735
C_ C_ 0.195285 0.771067 0.0153388 -0.08735
C_ C_ 0.178012 0.762844 0.0439435 -0.08735
C_ C_ 0.156484 0.716248 0.0510814 0.18498
C_ C_ 0.193791 0.693183 0.0974454 0.44287
C_ C_ 0.10416 0.706086 0.0941315 0.44287
C_ C_ 0.100729 0.695671 0.123563 -0.05681
C_ C_ 0.0517111 0.69204 0.136602 -0.08735
C_ C_ 0.04897 0.693877 0.166117 -0.08735
C_ C_ 0.0910737 0.683595 0.184149 -0.05681
C_ C_ 0.137512 0.675524 0.170603 -0.05681
C_ C_ 0.142407 0.684036 0.140389 -0.05681
C_ C_ 0.189789 0.679758 0.127549 -0.05681
C_ C_ 0.231699 0.662619 0.143777 -0.08735
C_ C_ 0.226662 0.653788 0.173094 -0.08735
C_ C_ 0.180728 0.663938 0.186497 -0.05681
C_ C_ 0.173851 0.654491 0.215711 0.44287
C_ C_ 0.0879669 0.680813 0.21474 0.44287
C_ C_ 0.127965 0.656466 0.258989 0.18498
C_ C_ 0.108094 0.608078 0.265263 -0.08735
C_ C_ 0.0866008 0.599538 0.293001 -0.08735
C_ C_ 0.103768 0.630816 0.316062 -0.08735
C_ C_ 0.130972 0.674361 0.311461 0.18498
C_ C_ 0.147883 0.684748 0.2827 -0.05681
C_ C_ 0.179518 0.727419 0.278611 -0.08735
C_ C_ 0.194802 0.75641 0.302175 -0.08735
C_ C_ 0.183066 0.739915 0.329432 0.1947
C_ C_ 0.276661 0.813902 0.154561 0.68181
C_ C_ 0.221801 0.82276 0.153264 -0.05681
C_ C_ 0.18955 0.814442 0.176734 -0.08735
C_ C_ 0.138302 0.819967 0.173329 -0.05681
C_ C_ 0.117522 0.835053 0.146868 -0.05681
C_ C_ 0.149431 0.842178 0.122924 -0.08735
C_ C_ 0.201619 0.842384 0.127264 -0.08735
C_ C_ 0.105721 0.817345 0.198318 -0.08735
C_ C_ 0.0525908 0.820694 0.194721 -0.08735
C_ C_ 0.0307253 0.829535 0.166832 -0.05681
C_ C_ 0.0657277 0.831692 0.142772 -0.08735
C_ C_ 0.386283 0.721044 0.16136 0.68181
C_ C_ 0.35742 0.918395 0.148967 0.68181
C_ C_ 0.352696 0.976305 0.14817 -0.05681
C_ C_ 0.377786 0.508274 0.175609 -0.08735
C_ C_ 0.385635 0.560699 0.173201 -0.05681
C_ C_ 0.375448 0.581714 0.145534 -0.05681
C_ C_ 0.369835 0.550312 0.121629 -0.08735
C_ C_ 0.35553 -0.0013849999999999696 0.120715 -0.08735
C_ C_ 0.38876 0.590964 0.196728 -0.08735
C_ C_ 0.385207 0.642543 0.193644 -0.08735
C_ C_ 0.382008 0.665344 0.165569 -0.05681
C_ C_ 0.370176 0.634575 0.142789 -0.08735
C_ C_ 0.471727 0.835283 0.152779 0.68181
C_ C_ 0.398313 0.890425 0.229283 0.1947
C_ C_ 0.402265 0.906502 0.255967 -0.08735
C_ C_ 0.383297 0.878327 0.278812 -0.08735
C_ C_ 0.365809 0.828401 0.273855 -0.05681
C_ C_ 0.355351 0.814719 0.245244 0.18498
C_ C_ 0.331115 0.769157 0.24 -0.08735
C_ C_ 0.317764 0.736661 0.261819 -0.08735
C_ C_ 0.327488 0.751096 0.289759 -0.08735
C_ C_ 0.350682 0.79647 0.296542 0.18498
C_ C_ 0.315735 0.810945 0.343661 0.44287
C_ C_ 0.405745 0.806967 0.339729 0.44287
C_ C_ 0.411541 0.809116 0.369652 -0.05681
C_ C_ 0.460199 0.80794 0.382058 -0.08735
C_ C_ 0.464896 0.80763 0.41263 -0.08735
C_ C_ 0.422067 0.807814 0.429884 -0.05681
C_ C_ 0.373617 0.813113 0.416601 -0.05681
C_ C_ 0.368757 0.812522 0.386684 -0.05681
C_ C_ 0.321047 0.814503 0.37404 -0.05681
C_ C_ 0.278034 0.819526 0.391438 -0.08735
C_ C_ 0.282577 0.821456 0.421166 -0.08735
C_ C_ 0.330135 0.81959 0.433944 -0.05681
C_ C_ 0.336558 0.823413 0.465181 0.44287
C_ C_ 0.425526 0.80927 0.461312 0.44287
C_ C_ 0.380595 0.849422 0.00929577 0.18498
C_ C_ 0.403484 0.895726 0.0143106 -0.08735
C_ C_ 0.4265 0.903978 0.0410598 -0.08735
C_ C_ 0.417874 0.8725 0.0642168 -0.08735
C_ C_ 0.388799 0.826867 0.0598878 0.18498
C_ C_ 0.376555 0.813251 0.031622 -0.05681
C_ C_ 0.3497 0.766664 0.0291993 -0.08735
C_ C_ 0.325219 0.744818 0.0524529 -0.08735
C_ C_ 0.334806 0.76542 0.0795021 0.1947
N_ N_ 0.12697 0.66246 0.474683 -0.29468
N_ N_ 0.151511 0.703957 0.0813926 -0.17154
N_ N_ 0.130214 0.669353 0.229855 -0.17154
N_ N_ 0.148838 0.702288 0.33373 -0.29468
N_ N_ 0.373759 0.845484 0.223476 -0.29468
N_ N_ 0.358474 0.809813 0.327239 -0.17154
N_ N_ 0.384208 0.821309 0.477196 -0.17154
N_ N_ 0.37158 0.801141 0.0832834 -0.29468
O_ O_ 0.221457 0.684323 0.432832 -0.58347
O_ O_ 0.21326 0.684132 0.386591 -0.58347
O_ O_ 0.132596 0.750679 0.433989 -0.58347
O_ O_ 0.135017 0.75705 0.385445 -0.58347
O_ O_ 0.153744 0.600883 0.424263 -0.58347
O_ O_ 0.139761 0.607743 0.377989 -0.58347
O_ O_ 0.0754364 0.661731 0.424408 -0.58347
O_ O_ 0.0643176 0.684854 0.380649 -0.58347
O_ O_ 0.0646318 0.7137 0.0781433 -0.46727
O_ O_ 0.236601 0.686557 0.0847965 -0.46727
O_ O_ 0.0438133 0.679425 0.226897 -0.46727
O_ O_ 0.215101 0.641396 0.231133 -0.46727
O_ O_ 0.296319 0.810175 0.179085 -0.58347
O_ O_ 0.302971 0.816091 0.132041 -0.58347
O_ O_ 0.382882 0.750578 0.182745 -0.58347
O_ O_ 0.380781 0.739239 0.136142 -0.58347
O_ O_ 0.355762 0.897627 0.173069 -0.58347
O_ O_ 0.366479 0.890333 0.127604 -0.58347
O_ O_ 0.44445 0.836549 0.174956 -0.58347
O_ O_ 0.450889 0.820361 0.129997 -0.58347
O_ O_ 0.445415 0.804672 0.321719 -0.46727
O_ O_ 0.273747 0.827055 0.33165 -0.46727
O_ O_ 0.468567 0.798435 0.474386 -0.46727
O_ O_ 0.295385 0.8246 0.482019 -0.46727
Zn Zn 0.128294 0.68126 0.880522 0.90689
Zn Zn 0.135052 0.6813 0.928371 0.90689
Zn Zn 0.363336 0.805591 0.630336 0.90689
Zn Zn 0.355631 0.81207 0.679464 0.90689
H_ H_ 0.300256 0.692361 0.942146 0.11455
H_ H_ 0.375591 0.651049 0.84759 0.11455
H_ H_ 0.28514 0.648474 0.853403 0.11455
H_ H_ 0.381812 0.695308 0.960976 0.11455
H_ H_ 0.478334 0.703954 0.957314 0.11455
H_ H_ 0.460355 0.673501 0.865058 0.11455
H_ H_ 0.147114 0.51095 0.939509 0.11455
H_ H_ 0.137209 0.926718 0.846487 0.11455
H_ H_ 0.131016 0.520621 0.849304 0.11455
H_ H_ 0.120478 0.923899 0.966167 0.11455
H_ H_ 0.128887 0.834364 0.960516 0.11455
H_ H_ 0.117502 0.848263 0.868465 0.11455
H_ H_ 0.0766274 0.610626 0.966475 0.11455
H_ H_ 0.0488724 0.578307 0.509853 0.11455
H_ H_ 0.0835493 0.629966 0.553074 0.11455
H_ H_ 0.19818 0.738637 0.972936 0.11455
H_ H_ 0.201192 0.806298 0.508515 0.11455
H_ H_ 0.176084 0.786583 0.558317 0.11455
H_ H_ 1.00176 0.728639 0.62085 0.11455
H_ H_ 0.986256 0.705362 0.668885 0.11455
H_ H_ 0.244078 0.654562 0.631957 0.11455
H_ H_ 0.237386 0.655075 0.686057 0.11455
H_ H_ 0.0588427 0.58219 0.749667 0.11455
H_ H_ 0.0404492 0.561264 0.798443 0.11455
H_ H_ 0.0755459 0.616597 0.837691 0.11455
H_ H_ 0.133714 0.750615 0.752779 0.11455
H_ H_ 0.179117 0.790361 0.793918 0.11455
H_ H_ 0.165319 0.765654 0.842469 0.11455
H_ H_ 0.184334 0.805571 0.692312 0.11455
H_ H_ 0.117534 0.848252 0.598277 0.11455
H_ H_ 0.206244 0.843001 0.602978 0.11455
H_ H_ 0.10237 0.806631 0.711717 0.11455
H_ H_ 0.00968292 0.817987 0.708748 0.11455
H_ H_ 0.0311096 0.843869 0.617249 0.11455
H_ H_ 0.380285 0.975524 0.691107 0.11455
H_ H_ 0.32948 0.552243 0.598693 0.11455
H_ H_ 0.342863 0.964545 0.602549 0.11455
H_ H_ 0.388546 0.563881 0.711042 0.11455
H_ H_ 0.397157 0.651979 0.702611 0.11455
H_ H_ 0.350562 0.635972 0.615776 0.11455
H_ H_ 0.410335 0.88115 0.716616 0.11455
H_ H_ 0.419564 0.916983 0.764341 0.11455
H_ H_ 0.380466 0.871352 0.806078 0.11455
H_ H_ 0.291642 0.747587 0.723179 0.11455
H_ H_ 0.245263 0.705577 0.763562 0.11455
H_ H_ 0.26487 0.733244 0.814935 0.11455
H_ H_ 0.470485 0.793096 0.870507 0.11455
H_ H_ 0.481572 0.801082 0.921263 0.11455
H_ H_ 0.2247 0.860243 0.886819 0.11455
H_ H_ 0.235431 0.860103 0.941238 0.11455
H_ H_ 0.412834 0.922187 0.995335 0.11455
H_ H_ 0.452332 0.9221 0.547725 0.11455
H_ H_ 0.41906 0.865187 0.588078 0.11455
H_ H_ 0.347566 0.734184 0.502887 0.11455
H_ H_ 0.296834 0.699217 0.544527 0.11455
H_ H_ 0.309012 0.73061 0.592547 0.11455
C_ C_ 0.229195 0.682124 0.901734 0.68181
C_ C_ 0.285627 0.681359 0.895841 -0.05681
C_ C_ 0.31694 0.688299 0.920918 -0.08735
C_ C_ 0.369792 0.68562 0.917517 -0.05681
C_ C_ 0.39072 0.674412 0.890507 -0.05681
C_ C_ 0.358651 0.665677 0.867032 -0.08735
C_ C_ 0.30645 0.669431 0.869084 -0.08735
C_ C_ 0.400852 0.689424 0.941099 -0.08735
C_ C_ 0.453292 0.695155 0.937892 -0.08735
C_ C_ 0.475477 0.685625 0.910489 -0.05681
C_ C_ 0.443354 0.677182 0.887237 -0.08735
C_ C_ 0.121461 0.777507 0.912379 0.68181
C_ C_ 0.130587 0.580133 0.895979 0.68181
C_ C_ 0.136553 0.52376 0.894687 -0.05681
C_ C_ 0.133461 0.992666 0.921063 -0.08735
C_ C_ 0.123886 0.940403 0.918646 -0.05681
C_ C_ 0.124776 0.917074 0.891204 -0.05681
C_ C_ 0.132622 0.944251 0.867122 -0.08735
C_ C_ 0.137001 -0.00260087 0.869352 -0.08735
C_ C_ 0.122056 0.90849 0.94348 -0.08735
C_ C_ 0.126503 0.857607 0.940329 -0.08735
C_ C_ 0.121532 0.833108 0.91419 -0.05681
C_ C_ 0.117211 0.864819 0.88981 -0.08735
C_ C_ 0.0335965 0.676429 0.908286 0.68181
C_ C_ 0.0975755 0.630616 0.983156 0.1947
C_ C_ 0.0795635 0.609756 0.508171 -0.08735
C_ C_ 0.0956367 0.639118 0.53118 -0.08735
C_ C_ 0.12741 0.682033 0.525657 -0.05681
C_ C_ 0.143563 0.691298 0.497619 0.18498
C_ C_ 0.181369 0.737661 0.993503 -0.08735
C_ C_ 0.18592 0.769311 0.513171 -0.08735
C_ C_ 0.167305 0.760753 0.540983 -0.08735
C_ C_ 0.142958 0.714393 0.547775 0.18498
C_ C_ 0.172438 0.681855 0.594649 0.44287
C_ C_ 0.0904141 0.715546 0.591342 0.44287
C_ C_ 0.0808063 0.708874 0.620116 -0.05681
C_ C_ 0.033894 0.714722 0.633152 -0.08735
C_ C_ 0.0252452 0.69974 0.660968 -0.08735
C_ C_ 0.0660361 0.688132 0.680229 -0.05681
C_ C_ 0.113702 0.680125 0.667314 -0.05681
C_ C_ 0.121658 0.691957 0.637296 -0.05681
C_ C_ 0.170011 0.682458 0.624884 -0.05681
C_ C_ 0.20983 0.667424 0.642184 -0.08735
C_ C_ 0.202433 0.663714 0.672158 -0.08735
C_ C_ 0.154518 0.672658 0.684865 -0.05681
C_ C_ 0.148301 0.666967 0.714879 0.44287
C_ C_ 0.0597826 0.682651 0.710359 0.44287
C_ C_ 0.0913404 0.655418 0.757593 0.18498
C_ C_ 0.0658102 0.612002 0.765325 -0.08735
C_ C_ 0.0577833 0.596777 0.793914 -0.08735
C_ C_ 0.0808697 0.625243 0.815851 -0.08735
C_ C_ 0.106518 0.670124 0.809816 0.18498
C_ C_ 0.111029 0.685731 0.779754 -0.05681
C_ C_ 0.137329 0.731719 0.773631 -0.08735
C_ C_ 0.157208 0.756935 0.797551 -0.08735
C_ C_ 0.148985 0.742343 0.826627 0.1947
C_ C_ 0.259376 0.812739 0.651201 0.68181
C_ C_ 0.203395 0.827045 0.649132 -0.05681
C_ C_ 0.171365 0.819966 0.672668 -0.08735
C_ C_ 0.119092 0.829497 0.669688 -0.05681
C_ C_ 0.0979532 0.839168 0.6427 -0.05681
C_ C_ 0.129786 0.842841 0.618815 -0.08735
C_ C_ 0.182333 0.837873 0.622262 -0.08735
C_ C_ 0.0866555 0.82149 0.693237 -0.08735
C_ C_ 0.0348392 0.824918 0.689939 -0.08735
C_ C_ 0.0134847 0.828945 0.662426 -0.05681
C_ C_ 0.0456372 0.838405 0.638835 -0.08735
C_ C_ 0.364503 0.709757 0.657946 0.68181
C_ C_ 0.361645 0.9062 0.649458 0.68181
C_ C_ 0.360155 0.964553 0.647151 -0.05681
C_ C_ 0.358553 0.491841 0.671359 -0.08735
C_ C_ 0.361774 0.54523 0.668113 -0.05681
C_ C_ 0.34986 0.567625 0.641495 -0.05681
C_ C_ 0.341027 0.53593 0.618181 -0.08735
C_ C_ 0.348222 0.987412 0.621547 -0.08735
C_ C_ 0.377018 0.576847 0.690326 -0.08735
C_ C_ 0.378577 0.630373 0.687099 -0.08735
C_ C_ 0.363343 0.653374 0.660138 -0.05681
C_ C_ 0.354386 0.619354 0.636746 -0.08735
C_ C_ 0.458053 0.805248 0.658772 0.68181
C_ C_ 0.387422 0.86678 0.734275 0.1947
C_ C_ 0.389586 0.887381 0.761258 -0.08735
C_ C_ 0.366856 0.862725 0.783905 -0.08735
C_ C_ 0.336225 0.821084 0.779381 -0.05681
C_ C_ 0.331781 0.802005 0.751412 0.18498
C_ C_ 0.295455 0.763835 0.746055 -0.08735
C_ C_ 0.272862 0.736175 0.768624 -0.08735
C_ C_ 0.283116 0.750438 0.796409 -0.08735
C_ C_ 0.316042 0.790832 0.802944 0.18498
C_ C_ 0.293664 0.823245 0.848823 0.44287
C_ C_ 0.375224 0.790751 0.843772 0.44287
C_ C_ 0.387879 0.808577 0.871845 -0.05681
C_ C_ 0.436702 0.805515 0.883583 -0.08735
C_ C_ 0.444802 0.809694 0.912785 -0.08735
C_ C_ 0.403873 0.819027 0.9311 -0.05681
C_ C_ 0.355199 0.825396 0.920051 -0.05681
C_ C_ 0.347612 0.82156 0.890096 -0.05681
C_ C_ 0.299292 0.83103 0.879262 -0.05681
C_ C_ 0.260013 0.845546 0.897655 -0.08735
C_ C_ 0.265868 0.843976 0.927763 -0.08735
C_ C_ 0.313767 0.834009 0.939037 -0.05681
C_ C_ 0.324083 0.83658 0.968507 0.44287
C_ C_ 0.412125 0.828657 0.960058 0.44287
C_ C_ 0.391701 0.831691 0.506999 0.18498
C_ C_ 0.415464 0.878382 0.514449 -0.08735
C_ C_ 0.427262 0.888399 0.541845 -0.08735
C_ C_ 0.410421 0.856802 0.564494 -0.08735
C_ C_ 0.378363 0.816542 0.557998 0.18498
C_ C_ 0.369797 0.800308 0.529253 -0.05681
C_ C_ 0.35029 0.751004 0.524077 -0.08735
C_ C_ 0.325588 0.729447 0.547312 -0.08735
C_ C_ 0.330628 0.747549 0.575812 0.1947
N_ N_ 0.131483 0.668104 0.977798 -0.29468
N_ N_ 0.134935 0.70463 0.5791 -0.17154
N_ N_ 0.0999932 0.668254 0.726714 -0.17154
N_ N_ 0.123671 0.69995 0.832452 -0.29468
N_ N_ 0.354 0.826833 0.728887 -0.29468
N_ N_ 0.328755 0.80039 0.832647 -0.17154
N_ N_ 0.37198 0.836813 0.979216 -0.17154
N_ N_ 0.35828 0.789957 0.580485 -0.29468
O_ O_ 0.21314 0.672411 0.927171 -0.58347
O_ O_ 0.198974 0.697588 0.881729 -0.58347
O_ O_ 0.143479 0.752923 0.931071 -0.58347
O_ O_ 0.112993 0.75557 0.888819 -0.58347
O_ O_ 0.130073 0.602464 0.920769 -0.58347
O_ O_ 0.137517 0.605854 0.873262 -0.58347
O_ O_ 0.0590785 0.682888 0.93111 -0.58347
O_ O_ 0.0543605 0.666132 0.884353 -0.58347
O_ O_ 0.0537814 0.729052 0.574165 -0.46727
O_ O_ 0.214323 0.670435 0.581887 -0.46727
O_ O_ 0.0165992 0.693837 0.723268 -0.46727
O_ O_ 0.184273 0.652968 0.730836 -0.46727
O_ O_ 0.279191 0.807828 0.67548 -0.58347
O_ O_ 0.286077 0.806262 0.628625 -0.58347
O_ O_ 0.35982 0.737873 0.680797 -0.58347
O_ O_ 0.362189 0.728666 0.633103 -0.58347
O_ O_ 0.35682 0.885005 0.673447 -0.58347
O_ O_ 0.362944 0.879508 0.626888 -0.58347
O_ O_ 0.431176 0.816985 0.680185 -0.58347
O_ O_ 0.439475 0.806565 0.633559 -0.58347
O_ O_ 0.411064 0.775585 0.82697 -0.46727
O_ O_ 0.253696 0.84308 0.836187 -0.46727
O_ O_ 0.458538 0.831366 0.969671 -0.46727
O_ O_ 0.285715 0.843187 0.986749 -0.46727
Zn Zn 0.623631 0.187372 0.383161 0.90689
Zn Zn 0.63532 0.177021 0.433533 0.90689
Zn Zn 0.878528 0.315434 0.135051 0.90689
Zn Zn 0.865882 0.324223 0.182892 0.90689
H_ H_ 0.805336 0.183492 0.445923 0.11455
H_ H_ 0.871332 0.175982 0.344473 0.11455
H_ H_ 0.782945 0.183212 0.355229 0.11455
H_ H_ 0.892272 0.186993 0.463841 0.11455
H_ H_ 0.981868 0.183984 0.456182 0.11455
H_ H_ 0.956809 0.159442 0.365599 0.11455
H_ H_ 0.654147 0.0139078 0.44107 0.11455
H_ H_ 0.597284 0.434806 0.355563 0.11455
H_ H_ 0.593854 0.0191235 0.354786 0.11455
H_ H_ 0.638357 0.43423 0.469999 0.11455
H_ H_ 0.630016 0.342524 0.468321 0.11455
H_ H_ 0.601766 0.349661 0.376991 0.11455
H_ H_ 0.588718 0.0976612 0.469612 0.11455
H_ H_ 0.555929 0.0827782 0.00806328 0.11455
H_ H_ 0.59163 0.124159 0.0519845 0.11455
H_ H_ 0.703833 0.228669 0.475221 0.11455
H_ H_ 0.720767 0.297789 0.0167011 0.11455
H_ H_ 0.698118 0.270147 0.0666363 0.11455
H_ H_ 0.516831 0.202181 0.126472 0.11455
H_ H_ 0.509891 0.19328 0.177807 0.11455
H_ H_ 0.769978 0.165065 0.135415 0.11455
H_ H_ 0.761454 0.164592 0.187549 0.11455
H_ H_ 0.593789 0.0850364 0.249981 0.11455
H_ H_ 0.562715 0.0651766 0.298644 0.11455
H_ H_ 0.570199 0.127396 0.33725 0.11455
H_ H_ 0.678648 0.245981 0.260263 0.11455
H_ H_ 0.705512 0.297311 0.299775 0.11455
H_ H_ 0.677239 0.270172 0.350109 0.11455
H_ H_ 0.699786 0.294473 0.198696 0.11455
H_ H_ 0.630734 0.313586 0.0997461 0.11455
H_ H_ 0.725801 0.315448 0.109902 0.11455
H_ H_ 0.615163 0.314587 0.21861 0.11455
H_ H_ 0.52436 0.314994 0.210796 0.11455
H_ H_ 0.546617 0.319985 0.11881 0.11455
H_ H_ 0.89751 0.489804 0.195123 0.11455
H_ H_ 0.858702 0.0652227 0.100519 0.11455
H_ H_ 0.84596 0.478658 0.107373 0.11455
H_ H_ 0.866088 0.0713059 0.2175 0.11455
H_ H_ 0.878023 0.164691 0.212496 0.11455
H_ H_ 0.868821 0.154011 0.122382 0.11455
H_ H_ 0.93263 0.38813 0.22017 0.11455
H_ H_ 0.952045 0.412501 0.271172 0.11455
H_ H_ 0.900216 0.377893 0.30951 0.11455
H_ H_ 0.801285 0.267843 0.227035 0.11455
H_ H_ 0.769455 0.209351 0.266221 0.11455
H_ H_ 0.807496 0.215784 0.314724 0.11455
H_ H_ 0.995222 0.283739 0.368889 0.11455
H_ H_ 0.0119878 0.304493 0.419939 0.11455
H_ H_ 0.74493 0.327862 0.393247 0.11455
H_ H_ 0.761325 0.341996 0.444008 0.11455
H_ H_ 0.960565 0.400552 0.501976 0.11455
H_ H_ 0.969506 0.41809 0.0495842 0.11455
H_ H_ 0.927305 0.371831 0.090336 0.11455
H_ H_ 0.841344 0.253504 0.00828027 0.11455
H_ H_ 0.801584 0.207792 0.0503218 0.11455
H_ H_ 0.824027 0.23084 0.100047 0.11455
C_ C_ 0.730934 0.177462 0.405644 0.68181
C_ C_ 0.787426 0.179864 0.400772 -0.05681
C_ C_ 0.821027 0.183924 0.424247 -0.08735
C_ C_ 0.873329 0.184943 0.419239 -0.05681
C_ C_ 0.892042 0.173243 0.391013 -0.05681
C_ C_ 0.859749 0.178036 0.367809 -0.08735
C_ C_ 0.807627 0.181468 0.373068 -0.08735
C_ C_ 0.906139 0.185983 0.441931 -0.08735
C_ C_ 0.95814 0.183953 0.438032 -0.08735
C_ C_ 0.977419 0.174183 0.411024 -0.05681
C_ C_ 0.943545 0.173174 0.386385 -0.08735
C_ C_ 0.627194 0.28292 0.418489 0.68181
C_ C_ 0.620172 0.0813015 0.401336 0.68181
C_ C_ 0.619867 0.0256208 0.399188 -0.05681
C_ C_ 0.642832 0.497601 0.424799 -0.08735
C_ C_ 0.633411 0.443854 0.424229 -0.05681
C_ C_ 0.620589 0.419858 0.398904 -0.05681
C_ C_ 0.614123 0.44859 0.374107 -0.08735
C_ C_ 0.626617 0.500276 0.37416 -0.08735
C_ C_ 0.63273 0.41636 0.4492 -0.08735
C_ C_ 0.629644 0.364182 0.448559 -0.08735
C_ C_ 0.625913 0.338554 0.421868 -0.05681
C_ C_ 0.614365 0.367887 0.397983 -0.08735
C_ C_ 0.531622 0.181767 0.407736 0.68181
C_ C_ 0.602548 0.12301 0.487311 0.1947
C_ C_ 0.577248 0.117597 0.00686212 -0.08735
C_ C_ 0.598587 0.141159 0.0314695 -0.08735
C_ C_ 0.632547 0.180706 0.0284759 -0.05681
C_ C_ 0.6489 0.193279 1.00027 0.18498
C_ C_ 0.68853 0.230807 0.496734 -0.08735
C_ C_ 0.697383 0.265682 0.0199003 -0.08735
C_ C_ 0.681986 0.251069 0.0472012 -0.08735
C_ C_ 0.65438 0.206502 0.0526872 0.18498
C_ C_ 0.68929 0.182924 0.097878 0.44287
C_ C_ 0.601145 0.194923 0.0944639 0.44287
C_ C_ 0.59543 0.188148 0.125025 -0.05681
C_ C_ 0.551137 0.195233 0.139387 -0.08735
C_ C_ 0.546672 0.193725 0.168636 -0.08735
C_ C_ 0.589218 0.184197 0.1864 -0.05681
C_ C_ 0.637177 0.180755 0.172401 -0.05681
C_ C_ 0.63967 0.181733 0.142246 -0.05681
C_ C_ 0.687157 0.179338 0.128276 -0.05681
C_ C_ 0.731092 0.169007 0.145686 -0.08735
C_ C_ 0.72767 0.168791 0.175957 -0.08735
C_ C_ 0.679578 0.175605 0.18958 -0.05681
C_ C_ 0.674605 0.171148 0.218801 0.44287
C_ C_ 0.585608 0.18484 0.216582 0.44287
C_ C_ 0.623952 0.156851 0.260467 0.18498
C_ C_ 0.599841 0.111616 0.267223 -0.08735
C_ C_ 0.58691 0.0975029 0.295098 -0.08735
C_ C_ 0.594276 0.131209 0.318887 -0.08735
C_ C_ 0.623949 0.17509 0.313147 0.18498
C_ C_ 0.64123 0.187077 0.284703 -0.05681
C_ C_ 0.671889 0.232586 0.281443 -0.08735
C_ C_ 0.683445 0.261476 0.304565 -0.08735
C_ C_ 0.663325 0.249032 0.332156 0.1947
C_ C_ 0.776206 0.30829 0.158352 0.68181
C_ C_ 0.720289 0.308013 0.154282 -0.05681
C_ C_ 0.684731 0.308435 0.177866 -0.08735
C_ C_ 0.632777 0.317037 0.173533 -0.05681
C_ C_ 0.61535 0.321799 0.144495 -0.05681
C_ C_ 0.649459 0.315905 0.121938 -0.08735
C_ C_ 0.7023 0.314862 0.127019 -0.08735
C_ C_ 0.600848 0.319557 0.197441 -0.08735
C_ C_ 0.548943 0.314868 0.191603 -0.08735
C_ C_ 0.527811 0.320609 0.164264 -0.05681
C_ C_ 0.561076 0.322153 0.140838 -0.08735
C_ C_ 0.880185 0.222366 0.167194 0.68181
C_ C_ 0.86796 0.42244 0.154982 0.68181
C_ C_ 0.869555 0.478497 0.15178 -0.05681
C_ C_ 0.866641 0.00544871 0.174206 -0.08735
C_ C_ 0.861341 0.0582375 0.172361 -0.05681
C_ C_ 0.861707 0.0829953 0.145718 -0.05681
C_ C_ 0.861836 0.0510426 0.122002 -0.08735
C_ C_ 0.858074 0.502237 0.125468 -0.08735
C_ C_ 0.86339 0.0895792 0.196858 -0.08735
C_ C_ 0.867277 0.141211 0.19403 -0.08735
C_ C_ 0.866825 0.16586 0.167753 -0.05681
C_ C_ 0.865082 0.135223 0.143272 -0.08735
C_ C_ 0.971267 0.315518 0.157993 0.68181
C_ C_ 0.911849 0.370176 0.237834 0.1947
C_ C_ 0.922512 0.38293 0.265975 -0.08735
C_ C_ 0.897466 0.360787 0.288707 -0.08735
C_ C_ 0.864198 0.31863 0.283021 -0.05681
C_ C_ 0.854668 0.305513 0.254015 0.18498
C_ C_ 0.812946 0.272781 0.249536 -0.08735
C_ C_ 0.795469 0.24054 0.270924 -0.08735
C_ C_ 0.818075 0.245623 0.298349 -0.08735
C_ C_ 0.844967 0.289166 0.304757 0.18498
C_ C_ 0.81725 0.317685 0.35137 0.44287
C_ C_ 0.901389 0.291902 0.344513 0.44287
C_ C_ 0.913472 0.298771 0.373177 -0.05681
C_ C_ 0.964882 0.296436 0.383547 -0.08735
C_ C_ 0.974774 0.305042 0.412632 -0.08735
C_ C_ 0.934813 0.308093 0.432036 -0.05681
C_ C_ 0.883655 0.315412 0.421121 -0.05681
C_ C_ 0.874145 0.312872 0.392411 -0.05681
C_ C_ 0.82441 0.321221 0.381543 -0.05681
C_ C_ 0.783188 0.32448 0.401217 -0.08735
C_ C_ 0.792444 0.330406 0.430831 -0.08735
C_ C_ 0.842758 0.327416 0.440401 -0.05681
C_ C_ 0.855554 0.335881 0.469443 0.44287
C_ C_ 0.943102 0.315495 0.462261 0.44287
C_ C_ 0.888485 0.344779 0.0110767 0.18498
C_ C_ 0.923549 0.382634 0.0172606 -0.08735
C_ C_ 0.935305 0.395846 0.0456502 -0.08735
C_ C_ 0.911338 0.370389 0.0702184 -0.08735
C_ C_ 0.880435 0.328157 0.0639146 0.18498
C_ C_ 0.869545 0.313154 0.0342606 -0.05681
C_ C_ 0.843849 0.26813 0.0289178 -0.08735
C_ C_ 0.827142 0.239736 0.0536088 -0.08735
C_ C_ 0.839657 0.254095 0.0812403 0.1947
N_ N_ 0.634018 0.16319 0.481314 -0.29468
N_ N_ 0.647351 0.192968 0.0824843 -0.17154
N_ N_ 0.62743 0.172768 0.231429 -0.17154
N_ N_ 0.633699 0.206928 0.335371 -0.29468
N_ N_ 0.873781 0.335536 0.232518 -0.29468
N_ N_ 0.855654 0.3007 0.333818 -0.17154
N_ N_ 0.903613 0.326414 0.479578 -0.17154
N_ N_ 0.865203 0.297256 0.0868603 -0.29468
O_ O_ 0.712311 0.173889 0.430579 -0.58347
O_ O_ 0.700697 0.189067 0.384816 -0.58347
O_ O_ 0.638815 0.254098 0.439398 -0.58347
O_ O_ 0.616697 0.263028 0.394419 -0.58347
O_ O_ 0.622413 0.100443 0.425155 -0.58347
O_ O_ 0.624946 0.108387 0.378945 -0.58347
O_ O_ 0.557293 0.175195 0.429586 -0.58347
O_ O_ 0.550535 0.186492 0.383773 -0.58347
O_ O_ 0.562873 0.213449 0.0795986 -0.46727
O_ O_ 0.733327 0.178886 0.084947 -0.46727
O_ O_ 0.541455 0.188174 0.229412 -0.46727
O_ O_ 0.71449 0.158181 0.233843 -0.46727
O_ O_ 0.794675 0.317099 0.182703 -0.58347
O_ O_ 0.805966 0.305646 0.136443 -0.58347
O_ O_ 0.869168 0.250081 0.187918 -0.58347
O_ O_ 0.887489 0.241041 0.1426 -0.58347
O_ O_ 0.863026 0.403294 0.17976 -0.58347
O_ O_ 0.872565 0.391976 0.133697 -0.58347
O_ O_ 0.942784 0.323566 0.179011 -0.58347
O_ O_ 0.953166 0.319848 0.13378 -0.58347
O_ O_ 0.937453 0.282558 0.325756 -0.46727
O_ O_ 0.77231 0.324213 0.341066 -0.46727
O_ O_ 0.990499 0.317681 0.471824 -0.46727
O_ O_ 0.817577 0.346037 0.486719 -0.46727
Zn Zn 0.626413 0.194347 0.882905 0.90689
Zn Zn 0.638951 0.18417 0.929494 0.90689
Zn Zn 0.866868 0.310226 0.632849 0.90689
Zn Zn 0.855191 0.317842 0.678921 0.90689
H_ H_ 0.811072 0.197433 0.944496 0.11455
H_ H_ 0.870881 0.171865 0.847248 0.11455
H_ H_ 0.780294 0.168956 0.853873 0.11455
H_ H_ 0.897277 0.198174 0.961362 0.11455
H_ H_ 0.991029 0.186887 0.953925 0.11455
H_ H_ 0.955976 0.166792 0.864725 0.11455
H_ H_ 0.657787 0.0189703 0.940223 0.11455
H_ H_ 0.628903 0.448711 0.847745 0.11455
H_ H_ 0.597988 0.0385016 0.854539 0.11455
H_ H_ 0.602493 0.43846 0.965051 0.11455
H_ H_ 0.603452 0.344315 0.959627 0.11455
H_ H_ 0.634744 0.361848 0.868526 0.11455
H_ H_ 0.580891 0.111623 0.96085 0.11455
H_ H_ 0.57424 0.0770251 0.519959 0.11455
H_ H_ 0.595248 0.131082 0.55868 0.11455
H_ H_ 0.689606 0.247008 0.97648 0.11455
H_ H_ 0.736621 0.293326 0.51205 0.11455
H_ H_ 0.706665 0.285082 0.561615 0.11455
H_ H_ 0.51227 0.206394 0.620637 0.11455
H_ H_ 0.498533 0.202188 0.671739 0.11455
H_ H_ 0.758573 0.156134 0.639898 0.11455
H_ H_ 0.740746 0.140847 0.692011 0.11455
H_ H_ 0.561564 0.0869744 0.75397 0.11455
H_ H_ 0.541203 0.0688501 0.802949 0.11455
H_ H_ 0.567732 0.125462 0.840361 0.11455
H_ H_ 0.647453 0.251115 0.756637 0.11455
H_ H_ 0.688445 0.298522 0.79378 0.11455
H_ H_ 0.672193 0.274859 0.846151 0.11455
H_ H_ 0.689807 0.313623 0.691894 0.11455
H_ H_ 0.615648 0.335973 0.595129 0.11455
H_ H_ 0.709594 0.343364 0.60175 0.11455
H_ H_ 0.601743 0.304571 0.711149 0.11455
H_ H_ 0.510293 0.317826 0.706055 0.11455
H_ H_ 0.533781 0.328537 0.6144 0.11455
H_ H_ 0.827508 0.488417 0.692532 0.11455
H_ H_ 0.873915 0.0615593 0.600538 0.11455
H_ H_ 0.88074 0.46553 0.605135 0.11455
H_ H_ 0.845159 0.0702842 0.716926 0.11455
H_ H_ 0.830341 0.161552 0.709713 0.11455
H_ H_ 0.8866 0.14295 0.621833 0.11455
H_ H_ 0.911289 0.385577 0.715917 0.11455
H_ H_ 0.928947 0.414702 0.765416 0.11455
H_ H_ 0.874752 0.389928 0.804984 0.11455
H_ H_ 0.795606 0.252959 0.724564 0.11455
H_ H_ 0.759957 0.203899 0.766983 0.11455
H_ H_ 0.774187 0.234499 0.815941 0.11455
H_ H_ 0.973591 0.295478 0.873729 0.11455
H_ H_ -0.013264000000000054 0.300587 0.923078 0.11455
H_ H_ 0.731272 0.362631 0.890547 0.11455
H_ H_ 0.745592 0.369065 0.943098 0.11455
H_ H_ 0.949136 0.396412 0.999866936 0.11455
H_ H_ 0.972714 0.425885 0.552428 0.11455
H_ H_ 0.938762 0.364458 0.58991 0.11455
H_ H_ 0.854328 0.250955 0.505899 0.11455
H_ H_ 0.796338 0.220484 0.542202 0.11455
H_ H_ 0.80763 0.245908 0.593592 0.11455
C_ C_ 0.732982 0.18884 0.906357 0.68181
C_ C_ 0.788065 0.183088 0.901024 -0.05681
C_ C_ 0.823993 0.18485 0.923795 -0.08735
C_ C_ 0.876184 0.183758 0.919367 -0.05681
C_ C_ 0.894433 0.180273 0.89134 -0.05681
C_ C_ 0.859499 0.174206 0.86853 -0.08735
C_ C_ 0.80606 0.176947 0.872067 -0.08735
C_ C_ 0.911469 0.186961 0.941568 -0.08735
C_ C_ 0.963666 0.187219 0.935796 -0.08735
C_ C_ 0.982381 0.179363 0.907795 -0.05681
C_ C_ 0.946197 0.175626 0.88605 -0.08735
C_ C_ 0.626554 0.288664 0.912802 0.68181
C_ C_ 0.637072 0.0920465 0.899668 0.68181
C_ C_ 0.626515 0.0365795 0.898166 -0.05681
C_ C_ 0.625094 0.505091 0.923638 -0.08735
C_ C_ 0.612954 0.451822 0.919624 -0.05681
C_ C_ 0.618521 0.430625 0.891542 -0.05681
C_ C_ 0.626185 0.463593 0.868664 -0.08735
C_ C_ 0.634765 0.514817 0.873007 -0.08735
C_ C_ 0.609779 0.421171 0.943427 -0.08735
C_ C_ 0.611616 0.369151 0.940864 -0.08735
C_ C_ 0.620521 0.345964 0.913835 -0.05681
C_ C_ 0.620777 0.376595 0.888614 -0.08735
C_ C_ 0.533902 0.19436 0.905782 0.68181
C_ C_ 0.590216 0.135537 0.979371 0.1947
C_ C_ 0.591854 0.10988 0.515624 -0.08735
C_ C_ 0.610583 0.140144 0.538249 -0.08735
C_ C_ 0.6413 0.184541 0.532666 -0.05681
C_ C_ 0.65385 0.193389 0.503055 0.18498
C_ C_ 0.68169 0.235819 0.996747 -0.08735
C_ C_ 0.709354 0.263632 0.517381 -0.08735
C_ C_ 0.689833 0.261246 0.544862 -0.08735
C_ C_ 0.662744 0.218567 0.554149 0.18498
C_ C_ 0.690004 0.191973 0.602625 0.44287
C_ C_ 0.604161 0.213628 0.595243 0.44287
C_ C_ 0.593573 0.198613 0.62326 -0.05681
C_ C_ 0.545206 0.199762 0.635389 -0.08735
C_ C_ 0.536748 0.199501 0.664699 -0.08735
C_ C_ 0.577072 0.191281 0.683164 -0.05681
C_ C_ 0.62602 0.182839 0.67214 -0.05681
C_ C_ 0.634405 0.188596 0.642687 -0.05681
C_ C_ 0.680779 0.177612 0.631385 -0.05681
C_ C_ 0.720755 0.159349 0.64895 -0.08735
C_ C_ 0.712578 0.159113 0.679135 -0.08735
C_ C_ 0.665833 0.170559 0.691755 -0.05681
C_ C_ 0.655896 0.164782 0.721327 0.44287
C_ C_ 0.567552 0.180872 0.712281 0.44287
C_ C_ 0.597329 0.160739 0.761307 0.18498
C_ C_ 0.57179 0.116517 0.768537 -0.08735
C_ C_ 0.565105 0.102216 0.797746 -0.08735
C_ C_ 0.577902 0.135572 0.818942 -0.08735
C_ C_ 0.610964 0.176418 0.813111 0.18498
C_ C_ 0.621483 0.188905 0.783432 -0.05681
C_ C_ 0.645519 0.236843 0.777602 -0.08735
C_ C_ 0.666521 0.264545 0.799654 -0.08735
C_ C_ 0.65707 0.250276 0.827816 0.1947
C_ C_ 0.761306 0.315764 0.65026 0.68181
C_ C_ 0.706506 0.325925 0.647282 -0.05681
C_ C_ 0.67417 0.323897 0.671016 -0.08735
C_ C_ 0.6226 0.322811 0.667101 -0.05681
C_ C_ 0.601631 0.325449 0.638872 -0.05681
C_ C_ 0.633819 0.333804 0.61551 -0.08735
C_ C_ 0.685615 0.3298 0.619748 -0.08735
C_ C_ 0.58742 0.317302 0.69077 -0.08735
C_ C_ 0.535991 0.31329 0.687156 -0.08735
C_ C_ 0.514616 0.32068 0.659215 -0.05681
C_ C_ 0.548742 0.325466 0.636008 -0.08735
C_ C_ 0.856248 0.216047 0.659877 0.68181
C_ C_ 0.854774 0.412769 0.652107 0.68181
C_ C_ 0.854208 0.469217 0.649286 -0.05681
C_ C_ 0.846806 0.0005999999999999339 0.67397 -0.08735
C_ C_ 0.847539 0.0529645 0.670963 -0.05681
C_ C_ 0.862807 0.0740883 0.644528 -0.05681
C_ C_ 0.871256 0.0445212 0.621381 -0.08735
C_ C_ 0.86545 0.491369 0.621931 -0.08735
C_ C_ 0.843763 0.084687 0.694577 -0.08735
C_ C_ 0.84305 0.137961 0.691735 -0.08735
C_ C_ 0.857531 0.160424 0.663625 -0.05681
C_ C_ 0.870205 0.126409 0.641246 -0.08735
C_ C_ 0.960382 0.310485 0.658419 0.68181
C_ C_ 0.892436 0.367164 0.733152 0.1947
C_ C_ 0.9002 0.386586 0.761206 -0.08735
C_ C_ 0.871922 0.369899 0.784118 -0.08735
C_ C_ 0.842207 0.325939 0.779848 -0.05681
C_ C_ 0.833235 0.309058 0.750929 0.18498
C_ C_ 0.804899 0.265023 0.747053 -0.08735
C_ C_ 0.781002 0.238493 0.771211 -0.08735
C_ C_ 0.792509 0.253523 0.79864 -0.08735
C_ C_ 0.823617 0.296561 0.803782 0.18498
C_ C_ 0.796203 0.326961 0.851036 0.44287
C_ C_ 0.882204 0.306451 0.843945 0.44287
C_ C_ 0.892523 0.315299 0.872646 -0.05681
C_ C_ 0.941088 0.302215 0.884892 -0.08735
C_ C_ 0.948457 0.309183 0.914361 -0.08735
C_ C_ 0.909372 0.318222 0.933546 -0.05681
C_ C_ 0.861951 0.330324 0.921676 -0.05681
C_ C_ 0.852547 0.331337 0.891843 -0.05681
C_ C_ 0.805424 0.340014 0.880486 -0.05681
C_ C_ 0.768434 0.355373 0.898265 -0.08735
C_ C_ 0.774874 0.353776 0.927885 -0.08735
C_ C_ 0.821793 0.341243 0.940239 -0.05681
C_ C_ 0.828469 0.342189 0.970066 0.44287
C_ C_ 0.914381 0.316019 0.963271 0.44287
C_ C_ 0.913375 0.335508 0.509921 0.18498
C_ C_ 0.939114 0.380458 0.51829 -0.08735
C_ C_ 0.949128 0.391287 0.547384 -0.08735
C_ C_ 0.929347 0.359655 0.569152 -0.08735
C_ C_ 0.894123 0.321922 0.561577 0.18498
C_ C_ 0.889205 0.307448 0.532359 -0.05681
C_ C_ 0.857876 0.264428 0.527731 -0.08735
C_ C_ 0.828858 0.243534 0.549033 -0.08735
C_ C_ 0.831504 0.262421 0.576261 0.1947
N_ N_ 0.629395 0.167954 0.976926 -0.29468
N_ N_ 0.652892 0.211869 0.58476 -0.17154
N_ N_ 0.606498 0.169491 0.731049 -0.17154
N_ N_ 0.626146 0.210012 0.834367 -0.29468
N_ N_ 0.858321 0.332573 0.728265 -0.29468
N_ N_ 0.833573 0.311319 0.833252 -0.17154
N_ N_ 0.876246 0.334668 0.980363 -0.17154
N_ N_ 0.870241 0.295282 0.583275 -0.29468
O_ O_ 0.713066 0.184093 0.930995 -0.58347
O_ O_ 0.704306 0.192229 0.884841 -0.58347
O_ O_ 0.633604 0.261924 0.935536 -0.58347
O_ O_ 0.632758 0.269035 0.888855 -0.58347
O_ O_ 0.638682 0.111831 0.924688 -0.58347
O_ O_ 0.625443 0.119013 0.878382 -0.58347
O_ O_ 0.563799 0.191357 0.926735 -0.58347
O_ O_ 0.553136 0.196112 0.881056 -0.58347
O_ O_ 0.567065 0.229248 0.578704 -0.46727
O_ O_ 0.733868 0.18128 0.590873 -0.46727
O_ O_ 0.522841 0.179192 0.722383 -0.46727
O_ O_ 0.691079 0.14273 0.738788 -0.46727
O_ O_ 0.780721 0.311614 0.674786 -0.58347
O_ O_ 0.789541 0.315083 0.628849 -0.58347
O_ O_ 0.861992 0.243784 0.68189 -0.58347
O_ O_ 0.861716 0.235967 0.635207 -0.58347
O_ O_ 0.851267 0.391313 0.676504 -0.58347
O_ O_ 0.86992 0.387521 0.631347 -0.58347
O_ O_ 0.93334 0.316726 0.680926 -0.58347
O_ O_ 0.939969 0.302452 0.634172 -0.58347
O_ O_ 0.916134 0.284335 0.827334 -0.46727
O_ O_ 0.750612 0.335411 0.839838 -0.46727
O_ O_ 0.955163 0.297154 0.973163 -0.46727
O_ O_ 0.795471 0.364712 0.986272 -0.46727
Zn Zn 0.639644 0.68172 0.383094 0.90689
Zn Zn 0.649725 0.679729 0.431212 0.90689
Zn Zn 0.88042 0.821712 0.133701 0.90689
Zn Zn 0.867317 0.82618 0.180746 0.90689
H_ H_ 0.821686 0.669535 0.44879 0.11455
H_ H_ 0.879486 0.680258 0.348304 0.11455
H_ H_ 0.793725 0.686891 0.358154 0.11455
H_ H_ 0.909994 0.662566 0.462468 0.11455
H_ H_ 0.997018 0.661851 0.454893 0.11455
H_ H_ 0.971801 0.691227 0.365366 0.11455
H_ H_ 0.64964 0.51597 0.44471 0.11455
H_ H_ 0.601036 0.927588 0.351727 0.11455
H_ H_ 0.623016 0.518685 0.353435 0.11455
H_ H_ 0.684729 0.934058 0.460185 0.11455
H_ H_ 0.673495 0.842493 0.459585 0.11455
H_ H_ 0.605166 0.844828 0.376797 0.11455
H_ H_ 0.588164 0.605991 0.462846 0.11455
H_ H_ 0.569124 0.593775 0.0179787 0.11455
H_ H_ 0.617327 0.627019 0.0575281 0.11455
H_ H_ 0.71423 0.723862 0.475328 0.11455
H_ H_ 0.730584 0.810103 0.011951 0.11455
H_ H_ 0.707865 0.792468 0.0613549 0.11455
H_ H_ 0.528091 0.720906 0.125132 0.11455
H_ H_ 0.51935 0.707911 0.174453 0.11455
H_ H_ 0.776397 0.661202 0.13543 0.11455
H_ H_ 0.766847 0.658703 0.186268 0.11455
H_ H_ 0.598214 0.591989 0.246593 0.11455
H_ H_ 0.57034 0.564633 0.29375 0.11455
H_ H_ 0.583215 0.619449 0.336073 0.11455
H_ H_ 0.679412 0.749382 0.263288 0.11455
H_ H_ 0.709195 0.796289 0.304079 0.11455
H_ H_ 0.692247 0.75729 0.353919 0.11455
H_ H_ 0.702121 0.801284 0.193298 0.11455
H_ H_ 0.6357 0.838984 0.0938385 0.11455
H_ H_ 0.728555 0.846199 0.102878 0.11455
H_ H_ 0.615225 0.817196 0.212091 0.11455
H_ H_ 0.52587 0.830977 0.204014 0.11455
H_ H_ 0.548001 0.831897 0.113465 0.11455
H_ H_ 0.858312 0.98696 0.194827 0.11455
H_ H_ 0.842432 0.572706 0.103698 0.11455
H_ H_ 0.869033 0.977267 0.10347 0.11455
H_ H_ 0.900202 0.579176 0.217805 0.11455
H_ H_ 0.89817 0.668359 0.211371 0.11455
H_ H_ 0.875842 0.652938 0.120744 0.11455
H_ H_ 0.91027 0.908393 0.216405 0.11455
H_ H_ 0.913805 0.940943 0.262812 0.11455
H_ H_ 0.883246 0.890571 0.304157 0.11455
H_ H_ 0.810544 0.751487 0.226452 0.11455
H_ H_ 0.820141 0.690245 0.265382 0.11455
H_ H_ 0.82593 0.721564 0.315759 0.11455
H_ H_ 0.99594 0.793745 0.373773 0.11455
H_ H_ 0.00405984 0.800042 0.425576 0.11455
H_ H_ 0.743841 0.81342 0.388794 0.11455
H_ H_ 0.753797 0.823988 0.441168 0.11455
H_ H_ 0.939036 0.899576 0.499114 0.11455
H_ H_ 0.965764 0.943431 0.0487962 0.11455
H_ H_ 0.930087 0.891155 0.0891489 0.11455
H_ H_ 0.836933 0.771864 0.00711015 0.11455
H_ H_ 0.812219 0.71917 0.0483502 0.11455
H_ H_ 0.822518 0.746613 0.0980796 0.11455
C_ C_ 0.742356 0.673648 0.408836 0.68181
C_ C_ 0.798579 0.67374 0.403856 -0.05681
C_ C_ 0.83315 0.666785 0.42567 -0.08735
C_ C_ 0.886768 0.666288 0.419854 -0.05681
C_ C_ 0.904991 0.672356 0.392332 -0.05681
C_ C_ 0.869976 0.673435 0.370611 -0.08735
C_ C_ 0.818269 0.673794 0.375864 -0.08735
C_ C_ 0.921261 0.669368 0.441468 -0.08735
C_ C_ 0.972435 0.674155 0.437822 -0.08735
C_ C_ 0.991282 0.680494 0.409793 -0.05681
C_ C_ 0.957499 0.682166 0.387139 -0.08735
C_ C_ 0.640343 0.778759 0.414576 0.68181
C_ C_ 0.649086 0.58223 0.398678 0.68181
C_ C_ 0.643861 0.526918 0.399292 -0.05681
C_ C_ 0.642676 0.996424 0.421827 -0.08735
C_ C_ 0.644526 0.94249 0.419398 -0.05681
C_ C_ 0.626229 0.917157 0.39414 -0.05681
C_ C_ 0.612893 0.946854 0.370536 -0.08735
C_ C_ 0.611128 1.000000584058 0.372751 -0.08735
C_ C_ 0.664712 0.914491 0.442173 -0.08735
C_ C_ 0.661866 0.860922 0.440389 -0.08735
C_ C_ 0.638078 0.834909 0.417702 -0.05681
C_ C_ 0.621178 0.863044 0.394964 -0.08735
C_ C_ 0.547067 0.675559 0.40646 0.68181
C_ C_ 0.602786 0.626932 0.481335 0.1947
C_ C_ 0.594495 0.623266 0.0130058 -0.08735
C_ C_ 0.621348 0.645221 0.0352632 -0.08735
C_ C_ 0.647281 0.691515 0.0289203 -0.05681
C_ C_ 0.655418 0.705578 1.00011 0.18498
C_ C_ 0.694871 0.722455 0.497044 -0.08735
C_ C_ 0.70572 0.778769 0.016817 -0.08735
C_ C_ 0.692203 0.76755 0.0449486 -0.08735
C_ C_ 0.667836 0.721368 0.0511947 0.18498
C_ C_ 0.703442 0.689126 0.0960496 0.44287
C_ C_ 0.617319 0.715328 0.0942613 0.44287
C_ C_ 0.610632 0.704265 0.123577 -0.05681
C_ C_ 0.562564 0.714988 0.136918 -0.08735
C_ C_ 0.5569 0.706802 0.166568 -0.08735
C_ C_ 0.598865 0.696657 0.184549 -0.05681
C_ C_ 0.645934 0.688879 0.170942 -0.05681
C_ C_ 0.653398 0.694635 0.141023 -0.05681
C_ C_ 0.701705 0.686993 0.127878 -0.05681
C_ C_ 0.742858 0.675238 0.145648 -0.08735
C_ C_ 0.736472 0.673199 0.17529 -0.08735
C_ C_ 0.689771 0.678646 0.188174 -0.05681
C_ C_ 0.68254 0.673762 0.218551 0.44287
C_ C_ 0.593982 0.690748 0.214403 0.44287
C_ C_ 0.629475 0.6626 0.260262 0.18498
C_ C_ 0.605348 0.616 0.263657 -0.08735
C_ C_ 0.588341 0.601313 0.291643 -0.08735
C_ C_ 0.599906 0.629691 0.315699 -0.08735
C_ C_ 0.627479 0.674821 0.312491 0.18498
C_ C_ 0.643096 0.691627 0.284526 -0.05681
C_ C_ 0.668996 0.736182 0.28327 -0.08735
C_ C_ 0.685843 0.762791 0.306792 -0.08735
C_ C_ 0.676795 0.740184 0.334184 0.1947
C_ C_ 0.776659 0.818721 0.153626 0.68181
C_ C_ 0.720198 0.816216 0.148591 -0.05681
C_ C_ 0.686372 0.812642 0.172146 -0.08735
C_ C_ 0.634427 0.821494 0.167664 -0.05681
C_ C_ 0.614825 0.825672 0.139385 -0.05681
C_ C_ 0.648933 0.833832 0.115967 -0.08735
C_ C_ 0.702497 0.830954 0.120833 -0.08735
C_ C_ 0.601396 0.822476 0.190589 -0.08735
C_ C_ 0.550506 0.829535 0.185904 -0.08735
C_ C_ 0.52795 0.835065 0.158289 -0.05681
C_ C_ 0.562673 0.831452 0.135133 -0.08735
C_ C_ 0.882287 0.726874 0.163065 0.68181
C_ C_ 0.868463 0.919124 0.149946 0.68181
C_ C_ 0.869018 0.975716 0.148594 -0.05681
C_ C_ 0.884603 0.507812 0.174808 -0.08735
C_ C_ 0.883476 0.560761 0.173225 -0.05681
C_ C_ 0.874465 0.58427 0.145738 -0.05681
C_ C_ 0.854206 0.55492 0.122987 -0.08735
C_ C_ 0.87026 0.999409381 0.123233 -0.08735
C_ C_ 0.888681 0.593196 0.197242 -0.08735
C_ C_ 0.888506 0.646905 0.19311 -0.08735
C_ C_ 0.885839 0.669422 0.165928 -0.05681
C_ C_ 0.881183 0.636911 0.142039 -0.08735
C_ C_ 0.973979 0.822276 0.163666 0.68181
C_ C_ 0.892944 0.88606 0.234127 0.1947
C_ C_ 0.893694 0.905857 0.261074 -0.08735
C_ C_ 0.879367 0.8764 0.283871 -0.08735
C_ C_ 0.861703 0.826857 0.279704 -0.05681
C_ C_ 0.853142 0.809623 0.250261 0.18498
C_ C_ 0.828157 0.763034 0.245872 -0.08735
C_ C_ 0.827458 0.728999 0.268969 -0.08735
C_ C_ 0.836051 0.745467 0.296832 -0.08735
C_ C_ 0.85429 0.792508 0.303701 0.18498
C_ C_ 0.819593 0.812786 0.350203 0.44287
C_ C_ 0.906751 0.798408 0.344526 0.44287
C_ C_ 0.914626 0.79818 0.374676 -0.05681
C_ C_ 0.963165 0.799344 0.38719 -0.08735
C_ C_ 0.967873 0.80091 0.416198 -0.08735
C_ C_ 0.92694 0.80895 0.4337 -0.05681
C_ C_ 0.877758 0.809645 0.4214 -0.05681
C_ C_ 0.872193 0.806945 0.391362 -0.05681
C_ C_ 0.823556 0.814754 0.379842 -0.05681
C_ C_ 0.781112 0.819428 0.397088 -0.08735
C_ C_ 0.788229 0.824265 0.427611 -0.08735
C_ C_ 0.837446 0.820289 0.439495 -0.05681
C_ C_ 0.845766 0.825206 0.469748 0.44287
C_ C_ 0.929949 0.802669 0.463937 0.44287
C_ C_ 0.898295 0.855931 0.0100357 0.18498
C_ C_ 0.930449 0.898426 0.0161001 -0.08735
C_ C_ 0.944655 0.909231 0.044129 -0.08735
C_ C_ 0.925399 0.878011 0.0674113 -0.08735
C_ C_ 0.892005 0.837507 0.0618221 0.18498
C_ C_ 0.877983 0.826354 0.0330247 -0.05681
C_ C_ 0.849807 0.781965 0.0280142 -0.08735
C_ C_ 0.832153 0.752938 0.0511471 -0.08735
C_ C_ 0.84283 0.767992 0.0801724 0.1947
N_ N_ 0.638274 0.662324 0.478378 -0.29468
N_ N_ 0.662838 0.707274 0.0808409 -0.17154
N_ N_ 0.635971 0.679163 0.230597 -0.17154
N_ N_ 0.642901 0.698777 0.336834 -0.29468
N_ N_ 0.867939 0.841051 0.228103 -0.29468
N_ N_ 0.860823 0.80615 0.333427 -0.17154
N_ N_ 0.892009 0.817569 0.481111 -0.17154
N_ N_ 0.875588 0.8077 0.083528 -0.29468
O_ O_ 0.722895 0.673127 0.43389 -0.58347
O_ O_ 0.71526 0.682746 0.388146 -0.58347
O_ O_ 0.65472 0.754487 0.436833 -0.58347
O_ O_ 0.636248 0.757006 0.391019 -0.58347
O_ O_ 0.648649 0.605786 0.422286 -0.58347
O_ O_ 0.645649 0.606455 0.375583 -0.58347
O_ O_ 0.575498 0.679144 0.427946 -0.58347
O_ O_ 0.565378 0.680044 0.381544 -0.58347
O_ O_ 0.580815 0.733267 0.0785068 -0.46727
O_ O_ 0.7448 0.673704 0.0823236 -0.46727
O_ O_ 0.549994 0.689388 0.22824 -0.46727
O_ O_ 0.721549 0.66025 0.235455 -0.46727
O_ O_ 0.794122 0.818766 0.178523 -0.58347
O_ O_ 0.806961 0.825238 0.133578 -0.58347
O_ O_ 0.883375 0.754312 0.184272 -0.58347
O_ O_ 0.878379 0.746848 0.138233 -0.58347
O_ O_ 0.858099 0.898612 0.172745 -0.58347
O_ O_ 0.88205 0.894608 0.127907 -0.58347
O_ O_ 0.945573 0.837819 0.18478 -0.58347
O_ O_ 0.954183 0.816088 0.139156 -0.58347
O_ O_ 0.946324 0.793577 0.328419 -0.46727
O_ O_ 0.77526 0.825011 0.33847 -0.46727
O_ O_ 0.972791 0.788498 0.476305 -0.46727
O_ O_ 0.80902 0.8347 0.488051 -0.46727
Zn Zn 0.624794 0.696812 0.883077 0.90689
Zn Zn 0.634862 0.688551 0.93019 0.90689
Zn Zn 0.866834 0.810864 0.632365 0.90689
Zn Zn 0.856446 0.817285 0.680711 0.90689
H_ H_ 0.799138 0.698242 0.943142 0.11455
H_ H_ 0.865607 0.632119 0.851649 0.11455
H_ H_ 0.776592 0.651319 0.855988 0.11455
H_ H_ 0.886516 0.679785 0.965517 0.11455
H_ H_ 0.978315 0.671277 0.95805 0.11455
H_ H_ 0.954457 0.669142 0.867105 0.11455
H_ H_ 0.620338 0.521405 0.944502 0.11455
H_ H_ 0.599737 0.944616 0.850302 0.11455
H_ H_ 0.646902 0.538817 0.855069 0.11455
H_ H_ 0.661151 0.943166 0.960985 0.11455
H_ H_ 0.653372 0.84844 0.959163 0.11455
H_ H_ 0.60477 0.862681 0.871891 0.11455
H_ H_ 0.581779 0.618539 0.967303 0.11455
H_ H_ 0.564846 0.576458 0.509753 0.11455
H_ H_ 0.598742 0.615676 0.554144 0.11455
H_ H_ 0.698587 0.755992 0.972895 0.11455
H_ H_ 0.742266 0.779798 0.518043 0.11455
H_ H_ 0.715968 0.762706 0.564599 0.11455
H_ H_ 0.511839 0.690288 0.62187 0.11455
H_ H_ 0.496688 0.679928 0.671711 0.11455
H_ H_ 0.763092 0.660175 0.642748 0.11455
H_ H_ 0.748662 0.659288 0.695018 0.11455
H_ H_ 0.55968 0.588404 0.750993 0.11455
H_ H_ 0.534535 0.569563 0.80353 0.11455
H_ H_ 0.55522 0.635058 0.840252 0.11455
H_ H_ 0.64945 0.750381 0.75596 0.11455
H_ H_ 0.689135 0.795124 0.795717 0.11455
H_ H_ 0.681664 0.76375 0.845388 0.11455
H_ H_ 0.692625 0.795744 0.693768 0.11455
H_ H_ 0.617894 0.822664 0.596652 0.11455
H_ H_ 0.711249 0.810641 0.603363 0.11455
H_ H_ 0.610772 0.792843 0.713095 0.11455
H_ H_ 0.515474 0.791146 0.708792 0.11455
H_ H_ 0.530982 0.82748 0.617208 0.11455
H_ H_ 0.83541 0.984475 0.694861 0.11455
H_ H_ 0.889299 0.556715 0.598527 0.11455
H_ H_ 0.880453 0.967713 0.606715 0.11455
H_ H_ 0.835535 0.568377 0.712397 0.11455
H_ H_ 0.839362 0.658139 0.709553 0.11455
H_ H_ 0.884944 0.645884 0.621845 0.11455
H_ H_ 0.903816 0.900077 0.715395 0.11455
H_ H_ 0.91328 0.93566 0.759856 0.11455
H_ H_ 0.894344 0.885596 0.802889 0.11455
H_ H_ 0.797664 0.750738 0.726646 0.11455
H_ H_ 0.766925 0.704444 0.769488 0.11455
H_ H_ 0.795663 0.728273 0.818272 0.11455
H_ H_ 0.985313 0.796571 0.87265 0.11455
H_ H_ 0.996962 0.801504 0.924298 0.11455
H_ H_ 0.733158 0.828459 0.89278 0.11455
H_ H_ 0.751436 0.837663 0.944894 0.11455
H_ H_ 0.948598 0.91899 0.998352 0.11455
H_ H_ 0.946708 0.930664 0.552204 0.11455
H_ H_ 0.901465 0.887295 0.587012 0.11455
H_ H_ 0.843831 0.744418 0.506061 0.11455
H_ H_ 0.804413 0.698579 0.548868 0.11455
H_ H_ 0.819675 0.734619 0.597064 0.11455
C_ C_ 0.730356 0.691088 0.905199 0.68181
C_ C_ 0.783426 0.679811 0.900852 -0.05681
C_ C_ 0.816016 0.686737 0.924022 -0.08735
C_ C_ 0.866945 0.673602 0.920679 -0.05681
C_ C_ 0.888108 0.663234 0.892792 -0.05681
C_ C_ 0.85435 0.646841 0.871993 -0.08735
C_ C_ 0.802609 0.659781 0.875046 -0.08735
C_ C_ 0.900235 0.675587 0.944068 -0.08735
C_ C_ 0.952807 0.668104 0.939414 -0.08735
C_ C_ 0.975435 0.669993 0.912617 -0.05681
C_ C_ 0.940957 0.664568 0.888458 -0.08735
C_ C_ 0.630268 0.792067 0.91138 0.68181
C_ C_ 0.630719 0.594053 0.902886 0.68181
C_ C_ 0.628979 0.536984 0.899981 -0.05681
C_ C_ 0.635342 0.00435531 0.922751 -0.08735
C_ C_ 0.633529 0.952451 0.919774 -0.05681
C_ C_ 0.622412 0.929503 0.893251 -0.05681
C_ C_ 0.60473 0.961032 0.870771 -0.08735
C_ C_ 0.608251 0.0139111 0.872785 -0.08735
C_ C_ 0.643512 0.924297 0.942458 -0.08735
C_ C_ 0.636819 0.872649 0.942062 -0.08735
C_ C_ 0.627032 0.848038 0.91541 -0.05681
C_ C_ 0.614444 0.878093 0.891911 -0.08735
C_ C_ 0.531475 0.689752 0.907047 0.68181
C_ C_ 0.597021 0.642223 0.985096 0.1947
C_ C_ 0.590125 0.60825 0.508385 -0.08735
C_ C_ 0.610579 0.631068 0.532751 -0.08735
C_ C_ 0.644799 0.671897 0.52923 -0.05681
C_ C_ 0.656138 0.688678 0.501194 0.18498
C_ C_ 0.687272 0.747226 0.994566 -0.08735
C_ C_ 0.715303 0.748717 0.520063 -0.08735
C_ C_ 0.699649 0.738745 0.54822 -0.08735
C_ C_ 0.661746 0.700648 0.553557 0.18498
C_ C_ 0.691831 0.678443 0.601578 0.44287
C_ C_ 0.602198 0.687793 0.594672 0.44287
C_ C_ 0.592356 0.675219 0.624348 -0.05681
C_ C_ 0.544253 0.67742 0.634683 -0.08735
C_ C_ 0.536091 0.67462 0.663938 -0.08735
C_ C_ 0.577973 0.67239 0.683713 -0.05681
C_ C_ 0.627101 0.671124 0.67284 -0.05681
C_ C_ 0.634608 0.670947 0.642645 -0.05681
C_ C_ 0.68389 0.669931 0.631186 -0.05681
C_ C_ 0.724529 0.667043 0.650857 -0.08735
C_ C_ 0.716628 0.664442 0.680244 -0.08735
C_ C_ 0.667308 0.668369 0.691284 -0.05681
C_ C_ 0.659153 0.669498 0.721424 0.44287
C_ C_ 0.569635 0.672514 0.713963 0.44287
C_ C_ 0.599802 0.65697 0.761593 0.18498
C_ C_ 0.575529 0.610624 0.769442 -0.08735
C_ C_ 0.55788 0.603564 0.79731 -0.08735
C_ C_ 0.572124 0.63761 0.818456 -0.08735
C_ C_ 0.602796 0.680492 0.812644 0.18498
C_ C_ 0.615318 0.692235 0.783668 -0.05681
C_ C_ 0.637933 0.739364 0.778169 -0.08735
C_ C_ 0.663555 0.765082 0.801314 -0.08735
C_ C_ 0.658964 0.746342 0.829044 0.1947
C_ C_ 0.761912 0.80647 0.652372 0.68181
C_ C_ 0.706997 0.801717 0.648971 -0.05681
C_ C_ 0.674875 0.796735 0.67202 -0.08735
C_ C_ 0.622336 0.803999 0.668703 -0.05681
C_ C_ 0.600367 0.8134 0.641508 -0.05681
C_ C_ 0.633939 0.818596 0.617347 -0.08735
C_ C_ 0.687974 0.813674 0.621758 -0.08735
C_ C_ 0.591173 0.798095 0.692878 -0.08735
C_ C_ 0.538125 0.797584 0.689158 -0.08735
C_ C_ 0.515098 0.806232 0.661514 -0.05681
C_ C_ 0.547553 0.813846 0.63767 -0.08735
C_ C_ 0.863441 0.716712 0.662862 0.68181
C_ C_ 0.855333 0.913619 0.652524 0.68181
C_ C_ 0.854273 0.969275 0.650126 -0.05681
C_ C_ 0.842902 0.501653 0.671845 -0.08735
C_ C_ 0.852876 0.554326 0.669714 -0.05681
C_ C_ 0.868591 0.57562 0.643662 -0.05681
C_ C_ 0.870767 0.544149 0.618573 -0.08735
C_ C_ 0.867176 0.990892 0.624246 -0.08735
C_ C_ 0.842234 0.585985 0.69229 -0.08735
C_ C_ 0.850006 0.636608 0.690739 -0.08735
C_ C_ 0.866167 0.660723 0.665557 -0.05681
C_ C_ 0.871419 0.628057 0.641002 -0.08735
C_ C_ 0.958401 0.831093 0.659398 0.68181
C_ C_ 0.887205 0.877959 0.733102 0.1947
C_ C_ 0.892576 0.900532 0.759419 -0.08735
C_ C_ 0.877865 0.873559 0.782972 -0.08735
C_ C_ 0.852494 0.824699 0.77982 -0.05681
C_ C_ 0.841464 0.806076 0.751418 0.18498
C_ C_ 0.813617 0.760629 0.747836 -0.08735
C_ C_ 0.794451 0.734432 0.77236 -0.08735
C_ C_ 0.806938 0.75111 0.800048 -0.08735
C_ C_ 0.835323 0.797531 0.80445 0.18498
C_ C_ 0.806759 0.820465 0.852397 0.44287
C_ C_ 0.893679 0.803133 0.844384 0.44287
C_ C_ 0.902653 0.809192 0.87459 -0.05681
C_ C_ 0.950598 0.800896 0.886715 -0.08735
C_ C_ 0.959897 0.806369 0.915827 -0.08735
C_ C_ 0.919822 0.816588 0.933909 -0.05681
C_ C_ 0.871018 0.824598 0.921954 -0.05681
C_ C_ 0.863099 0.821825 0.893044 -0.05681
C_ C_ 0.813526 0.82147 0.882267 -0.05681
C_ C_ 0.77356 0.824856 0.900387 -0.08735
C_ C_ 0.780703 0.833636 0.929667 -0.08735
C_ C_ 0.829738 0.834529 0.940739 -0.05681
C_ C_ 0.841352 0.848325 0.969481 0.44287
C_ C_ 0.926145 0.820831 0.963783 0.44287
C_ C_ 0.902606 0.83098 0.511218 0.18498
C_ C_ 0.923669 0.87802 0.517598 -0.08735
C_ C_ 0.922476 0.898333 0.545057 -0.08735
C_ C_ 0.897641 0.871577 0.566845 -0.08735
C_ C_ 0.886765 0.820056 0.562097 0.18498
C_ C_ 0.884262 0.799546 0.533775 -0.05681
C_ C_ 0.850185 0.758595 0.528297 -0.08735
C_ C_ 0.828914 0.733546 0.551674 -0.08735
C_ C_ 0.838863 0.751643 0.579161 0.1947
N_ N_ 0.630066 0.681343 0.978528 -0.29468
N_ N_ 0.650934 0.688779 0.58405 -0.17154
N_ N_ 0.610011 0.669746 0.731942 -0.17154
N_ N_ 0.625187 0.707063 0.834803 -0.29468
N_ N_ 0.863014 0.832577 0.728418 -0.29468
N_ N_ 0.846231 0.811533 0.833588 -0.17154
N_ N_ 0.888405 0.841534 0.980311 -0.17154
N_ N_ 0.867587 0.793838 0.584448 -0.29468
O_ O_ 0.711844 0.689347 0.929909 -0.58347
O_ O_ 0.702047 0.701427 0.883817 -0.58347
O_ O_ 0.633463 0.764797 0.933557 -0.58347
O_ O_ 0.626559 0.772407 0.886902 -0.58347
O_ O_ 0.634374 0.613215 0.927171 -0.58347
O_ O_ 0.629502 0.622833 0.880956 -0.58347
O_ O_ 0.560261 0.683622 0.929064 -0.58347
O_ O_ 0.550874 0.6981 0.881989 -0.58347
O_ O_ 0.56322 0.699996 0.57771 -0.46727
O_ O_ 0.737896 0.668285 0.590806 -0.46727
O_ O_ 0.522278 0.666287 0.7231 -0.46727
O_ O_ 0.697971 0.669175 0.739376 -0.46727
O_ O_ 0.78177 0.805909 0.677385 -0.58347
O_ O_ 0.78874 0.806499 0.630278 -0.58347
O_ O_ 0.870083 0.743259 0.685916 -0.58347
O_ O_ 0.869535 0.735829 0.638175 -0.58347
O_ O_ 0.843416 0.890383 0.675691 -0.58347
O_ O_ 0.862109 0.885888 0.630604 -0.58347
O_ O_ 0.930792 0.834629 0.682155 -0.58347
O_ O_ 0.936656 0.815892 0.637094 -0.58347
O_ O_ 0.930173 0.789978 0.826976 -0.46727
O_ O_ 0.761336 0.827758 0.840708 -0.46727
O_ O_ 0.969828 0.809864 0.97469 -0.46727
O_ O_ 0.807637 0.874258 0.984194 -0.46727
