_cell_length_a 26.376
_cell_length_b 26.400000238300095
_cell_length_c 46.67800035477134
_cell_angle_alpha 90.00700052986613
_cell_angle_beta 89.99899961309502
_cell_angle_gamma 90.45000003183146
_symmetry_space_group_name_H-M         'P 1'
_symmetry_Int_Tables_number            1
loop_
_symmetry_equiv_pos_as_xyz
   'x, y, z'
                         
loop_
_atom_site_label
_atom_site_type_symbol
_atom_site_fract_x 
_atom_site_fract_y
_atom_site_fract_z
_atom_site_charge
Zn Zn 0.135977 0.185648 0.384984 0.90689
Zn Zn 0.147876 0.179275 0.432998 0.90689
Zn Zn 0.372961 0.309059 0.132662 0.90689
Zn Zn 0.363184 0.313967 0.17912 0.90689
H_ H_ 0.313076 0.18466 0.447264 0.11455
H_ H_ 0.378886 0.146994 0.349052 0.11455
H_ H_ 0.286916 0.157068 0.356218 0.11455
H_ H_ 0.400325 0.20245 0.46404 0.11455
H_ H_ 0.492927 0.187542 0.456832 0.11455
H_ H_ 0.466972 0.144307 0.370255 0.11455
H_ H_ 0.138505 0.00819576 0.448934 0.11455
H_ H_ 0.123658 0.433166 0.351086 0.11455
H_ H_ 0.116599 0.0308784 0.358498 0.11455
H_ H_ 0.117147 0.42784 0.468766 0.11455
H_ H_ 0.12363 0.336867 0.464224 0.11455
H_ H_ 0.152765 0.35384 0.373042 0.11455
H_ H_ 0.0955882 0.112739 0.469745 0.11455
H_ H_ 0.0858373 0.0720646 0.0179374 0.11455
H_ H_ 0.121836 0.119956 0.0602354 0.11455
H_ H_ 0.208403 0.254558 0.478169 0.11455
H_ H_ 0.214898 0.310216 0.017591 0.11455
H_ H_ 0.188111 0.289278 0.0660423 0.11455
H_ H_ 0.0152479 0.20931 0.126148 0.11455
H_ H_ 0.00285946 0.197115 0.180913 0.11455
H_ H_ 0.26307 0.165888 0.138655 0.11455
H_ H_ 0.253454 0.152366 0.191289 0.11455
H_ H_ 0.0721659 0.0871722 0.254508 0.11455
H_ H_ 0.0592368 0.0651171 0.304721 0.11455
H_ H_ 0.0907817 0.116157 0.343213 0.11455
H_ H_ 0.173488 0.244884 0.260146 0.11455
H_ H_ 0.201487 0.296774 0.301929 0.11455
H_ H_ 0.190639 0.263217 0.350743 0.11455
H_ H_ 0.199409 0.310611 0.195836 0.11455
H_ H_ 0.128011 0.332934 0.0974397 0.11455
H_ H_ 0.220105 0.315863 0.106693 0.11455
H_ H_ 0.112032 0.314858 0.216295 0.11455
H_ H_ 0.0245974 0.339375 0.208284 0.11455
H_ H_ 0.0405628 0.323105 0.11663 0.11455
H_ H_ 0.344779 0.479911 0.193123 0.11455
H_ H_ 0.354132 0.0584351 0.0967545 0.11455
H_ H_ 0.35265 0.473094 0.101835 0.11455
H_ H_ 0.389023 0.0593874 0.212967 0.11455
H_ H_ 0.394537 0.153996 0.208832 0.11455
H_ H_ 0.353577 0.145255 0.120847 0.11455
H_ H_ 0.400414 0.391521 0.218367 0.11455
H_ H_ 0.406131 0.42376 0.265235 0.11455
H_ H_ 0.384631 0.367532 0.306529 0.11455
H_ H_ 0.311837 0.228365 0.224326 0.11455
H_ H_ 0.287647 0.177792 0.265669 0.11455
H_ H_ 0.317849 0.202342 0.315229 0.11455
H_ H_ 0.493041 0.26587 0.371999 0.11455
H_ H_ 0.507156 0.276645 0.421582 0.11455
H_ H_ 0.257733 0.358948 0.386613 0.11455
H_ H_ 0.271656 0.365955 0.436496 0.11455
H_ H_ 0.46794 0.401908 0.495941 0.11455
H_ H_ 0.458979 0.424513 0.0470419 0.11455
H_ H_ 0.426535 0.37625 0.0861985 0.11455
H_ H_ 0.340964 0.246454 0.00577162 0.11455
H_ H_ 0.309024 0.201339 0.0502813 0.11455
H_ H_ 0.334942 0.229529 0.0983764 0.11455
C_ C_ 0.239229 0.1787 0.406225 0.68181
C_ C_ 0.293606 0.176897 0.401926 -0.05681
C_ C_ 0.327473 0.182537 0.425729 -0.08735
C_ C_ 0.379301 0.181435 0.420658 -0.05681
C_ C_ 0.398208 0.168431 0.393825 -0.05681
C_ C_ 0.364255 0.156946 0.370453 -0.08735
C_ C_ 0.313852 0.162915 0.373989 -0.08735
C_ C_ 0.413919 0.188931 0.443674 -0.08735
C_ C_ 0.466557 0.183344 0.439317 -0.08735
C_ C_ 0.485963 0.169894 0.412334 -0.05681
C_ C_ 0.452047 0.162331 0.389908 -0.08735
C_ C_ 0.135179 0.280508 0.413968 0.68181
C_ C_ 0.143686 0.0828681 0.405298 0.68181
C_ C_ 0.135923 0.0270637 0.403501 -0.05681
C_ C_ 0.11912 0.495876 0.424937 -0.08735
C_ C_ 0.12439 0.443535 0.422774 -0.05681
C_ C_ 0.133101 0.42099 0.395813 -0.05681
C_ C_ 0.131745 0.450306 0.371599 -0.08735
C_ C_ 0.121613 0.502255 0.372801 -0.08735
C_ C_ 0.122894 0.412718 0.446849 -0.08735
C_ C_ 0.125092 0.361102 0.444546 -0.08735
C_ C_ 0.133346 0.337463 0.41774 -0.05681
C_ C_ 0.143029 0.368258 0.39363 -0.08735
C_ C_ 0.0423581 0.177726 0.409999 0.68181
C_ C_ 0.117446 0.133265 0.486721 0.1947
C_ C_ 0.102545 0.108623 0.0155708 -0.08735
C_ C_ 0.125985 0.134881 0.037799 -0.08735
C_ C_ 0.145396 0.182539 0.0327066 -0.05681
C_ C_ 0.158066 0.197356 1.00404996 0.18498
C_ C_ 0.192766 0.247365 0.498158 -0.08735
C_ C_ 0.201024 0.271743 0.0231895 -0.08735
C_ C_ 0.183952 0.260784 0.0504158 -0.08735
C_ C_ 0.155503 0.217737 0.0561223 0.18498
C_ C_ 0.187417 0.186273 0.100946 0.44287
C_ C_ 0.100409 0.203285 0.0970972 0.44287
C_ C_ 0.093939 0.192916 0.126839 -0.05681
C_ C_ 0.0455384 0.195912 0.139374 -0.08735
C_ C_ 0.0395867 0.192458 0.170199 -0.08735
C_ C_ 0.0829644 0.187111 0.187512 -0.05681
C_ C_ 0.130713 0.184857 0.174469 -0.05681
C_ C_ 0.136583 0.18632 0.144142 -0.05681
C_ C_ 0.185071 0.183251 0.130763 -0.05681
C_ C_ 0.228338 0.177491 0.148875 -0.08735
C_ C_ 0.222826 0.170635 0.179177 -0.08735
C_ C_ 0.174522 0.176163 0.191672 -0.05681
C_ C_ 0.17003 0.172305 0.221715 0.44287
C_ C_ 0.0813929 0.181798 0.21713 0.44287
C_ C_ 0.114401 0.157633 0.263434 0.18498
C_ C_ 0.087561 0.112835 0.270961 -0.08735
C_ C_ 0.0782641 0.100775 0.298732 -0.08735
C_ C_ 0.0992947 0.127851 0.320817 -0.08735
C_ C_ 0.128441 0.173469 0.315564 0.18498
C_ C_ 0.137188 0.188905 0.286296 -0.05681
C_ C_ 0.165373 0.232914 0.281952 -0.08735
C_ C_ 0.187345 0.258184 0.304179 -0.08735
C_ C_ 0.180474 0.240423 0.33298 0.1947
C_ C_ 0.270691 0.308616 0.15423 0.68181
C_ C_ 0.215009 0.307904 0.150412 -0.05681
C_ C_ 0.182792 0.311565 0.174401 -0.08735
C_ C_ 0.129235 0.314381 0.170466 -0.05681
C_ C_ 0.109268 0.31924 0.141692 -0.05681
C_ C_ 0.142084 0.32075 0.118752 -0.08735
C_ C_ 0.195468 0.315772 0.123212 -0.08735
C_ C_ 0.0968672 0.31715 0.194391 -0.08735
C_ C_ 0.0459249 0.327109 0.19139 -0.08735
C_ C_ 0.023226 0.323372 0.162278 -0.05681
C_ C_ 0.0561018 0.320808 0.138609 -0.08735
C_ C_ 0.376159 0.212474 0.162829 0.68181
C_ C_ 0.354361 0.411676 0.151329 0.68181
C_ C_ 0.347858 0.46762 0.14863 -0.05681
C_ C_ 0.358237 -0.0035650000000000404 0.172606 -0.08735
C_ C_ 0.363751 0.0494087 0.16975 -0.05681
C_ C_ 0.358684 0.0734597 0.142963 -0.05681
C_ C_ 0.352744 0.0426559 0.118244 -0.08735
C_ C_ 0.358166 0.491098 0.123302 -0.08735
C_ C_ 0.376083 0.0794796 0.19355 -0.08735
C_ C_ 0.38089 0.133291 0.190967 -0.08735
C_ C_ 0.370881 0.156357 0.164455 -0.05681
C_ C_ 0.358999 0.126183 0.14044 -0.08735
C_ C_ 0.46668 0.308026 0.159747 0.68181
C_ C_ 0.381732 0.369743 0.233645 0.1947
C_ C_ 0.39148 0.385681 0.261412 -0.08735
C_ C_ 0.379003 0.354234 0.284186 -0.08735
C_ C_ 0.358376 0.306632 0.278926 -0.05681
C_ C_ 0.35042 0.290584 0.250667 0.18498
C_ C_ 0.325789 0.242068 0.245294 -0.08735
C_ C_ 0.307539 0.213288 0.269724 -0.08735
C_ C_ 0.325651 0.22585 0.297466 -0.08735
C_ C_ 0.347672 0.274166 0.302176 0.18498
C_ C_ 0.31954 0.311259 0.347375 0.44287
C_ C_ 0.406522 0.282126 0.342459 0.44287
C_ C_ 0.417919 0.297876 0.370271 -0.05681
C_ C_ 0.464329 0.288407 0.383032 -0.08735
C_ C_ 0.472595 0.292674 0.412406 -0.08735
C_ C_ 0.434115 0.309759 0.430284 -0.05681
C_ C_ 0.385767 0.321088 0.418076 -0.05681
C_ C_ 0.378627 0.315108 0.388963 -0.05681
C_ C_ 0.331116 0.328644 0.375544 -0.05681
C_ C_ 0.293376 0.346494 0.393644 -0.08735
C_ C_ 0.302106 0.350403 0.423206 -0.08735
C_ C_ 0.347854 0.340639 0.436156 -0.05681
C_ C_ 0.357793 0.346475 0.46503 0.44287
C_ C_ 0.44053 0.31593 0.460094 0.44287
C_ C_ 0.396576 0.333302 0.00804336 0.18498
C_ C_ 0.427273 0.375217 0.0148236 -0.08735
C_ C_ 0.438332 0.390731 0.0421287 -0.08735
C_ C_ 0.41606 0.364998 0.0647282 -0.08735
C_ C_ 0.389598 0.322381 0.0603248 0.18498
C_ C_ 0.379917 0.30356 0.0308529 -0.05681
C_ C_ 0.34956 0.26027 0.0277248 -0.08735
C_ C_ 0.332904 0.236058 0.0528655 -0.08735
C_ C_ 0.344013 0.254085 0.0798742 0.1947
N_ N_ 0.145646 0.175103 0.481674 -0.29468
N_ N_ 0.146908 0.203929 0.0854895 -0.17154
N_ N_ 0.123649 0.171457 0.233643 -0.17154
N_ N_ 0.147235 0.20127 0.337065 -0.29468
N_ N_ 0.362584 0.322745 0.227664 -0.29468
N_ N_ 0.356425 0.288493 0.331352 -0.17154
N_ N_ 0.402034 0.331248 0.47729 -0.17154
N_ N_ 0.372017 0.29739 0.0831244 -0.29468
O_ O_ 0.220315 0.166818 0.431367 -0.58347
O_ O_ 0.210283 0.192248 0.386362 -0.58347
O_ O_ 0.150842 0.253386 0.434507 -0.58347
O_ O_ 0.126102 0.261045 0.389817 -0.58347
O_ O_ 0.139042 0.105256 0.428779 -0.58347
O_ O_ 0.146159 0.108787 0.381525 -0.58347
O_ O_ 0.0718996 0.189595 0.430039 -0.58347
O_ O_ 0.0614681 0.171534 0.3858 -0.58347
O_ O_ 0.0600334 0.206781 0.0805271 -0.46727
O_ O_ 0.231105 0.179595 0.0881529 -0.46727
O_ O_ 0.0367934 0.192953 0.229573 -0.46727
O_ O_ 0.20976 0.153854 0.236387 -0.46727
O_ O_ 0.28903 0.31462 0.179396 -0.58347
O_ O_ 0.299706 0.297846 0.132797 -0.58347
O_ O_ 0.359231 0.240017 0.182334 -0.58347
O_ O_ 0.388049 0.232238 0.139391 -0.58347
O_ O_ 0.361807 0.390518 0.176215 -0.58347
O_ O_ 0.355425 0.38239 0.129579 -0.58347
O_ O_ 0.438686 0.312165 0.181392 -0.58347
O_ O_ 0.447386 0.317 0.135836 -0.58347
O_ O_ 0.443646 0.263386 0.326233 -0.46727
O_ O_ 0.275506 0.320219 0.336886 -0.46727
O_ O_ 0.484861 0.30995 0.470401 -0.46727
O_ O_ 0.321793 0.362883 0.481248 -0.46727
Zn Zn 0.134026 0.189877 0.882915 0.90689
Zn Zn 0.144363 0.181599 0.932935 0.90689
Zn Zn 0.386724 0.314187 0.629371 0.90689
Zn Zn 0.374173 0.321272 0.677805 0.90689
H_ H_ 0.310991 0.200507 0.949065 0.11455
H_ H_ 0.377377 0.146181 0.851107 0.11455
H_ H_ 0.286122 0.171278 0.857598 0.11455
H_ H_ 0.400781 0.18717 0.967877 0.11455
H_ H_ 0.488095 0.194954 0.955095 0.11455
H_ H_ 0.461583 0.156348 0.868638 0.11455
H_ H_ 0.133299 0.0143156 0.944827 0.11455
H_ H_ 0.107531 0.43645 0.859196 0.11455
H_ H_ 0.131455 0.0311961 0.853282 0.11455
H_ H_ 0.14869 0.425193 0.972985 0.11455
H_ H_ 0.158332 0.335868 0.964945 0.11455
H_ H_ 0.120432 0.354568 0.87574 0.11455
H_ H_ 0.103072 0.0983858 0.969353 0.11455
H_ H_ 0.0716203 0.0968404 0.515484 0.11455
H_ H_ 0.104967 0.143877 0.559067 0.11455
H_ H_ 0.208692 0.243561 0.982535 0.11455
H_ H_ 0.237285 0.309506 0.51581 0.11455
H_ H_ 0.203695 0.294101 0.564809 0.11455
H_ H_ 0.0186383 0.226154 0.625956 0.11455
H_ H_ 0.00224297 0.205308 0.675387 0.11455
H_ H_ 0.267053 0.186048 0.642675 0.11455
H_ H_ 0.252259 0.1603 0.695671 0.11455
H_ H_ 0.0675391 0.0947514 0.751475 0.11455
H_ H_ 0.0480614 0.0720954 0.801198 0.11455
H_ H_ 0.083683 0.123856 0.840271 0.11455
H_ H_ 0.136338 0.264204 0.761177 0.11455
H_ H_ 0.191678 0.30627 0.798177 0.11455
H_ H_ 0.176696 0.275668 0.848452 0.11455
H_ H_ 0.209312 0.32335 0.696094 0.11455
H_ H_ 0.14408 0.340701 0.598208 0.11455
H_ H_ 0.229754 0.339217 0.605575 0.11455
H_ H_ 0.124365 0.329003 0.715753 0.11455
H_ H_ 0.0291008 0.325725 0.706952 0.11455
H_ H_ 0.0560724 0.339563 0.618995 0.11455
H_ H_ 0.347591 0.482984 0.686361 0.11455
H_ H_ 0.359328 0.0603531 0.597858 0.11455
H_ H_ 0.419087 0.473501 0.603474 0.11455
H_ H_ 0.386032 0.0713901 0.715626 0.11455
H_ H_ 0.407717 0.161555 0.704662 0.11455
H_ H_ 0.364411 0.14559 0.618306 0.11455
H_ H_ 0.433956 0.393959 0.714511 0.11455
H_ H_ 0.434739 0.4277 0.764391 0.11455
H_ H_ 0.398347 0.372945 0.803618 0.11455
H_ H_ 0.312079 0.269015 0.718719 0.11455
H_ H_ 0.265037 0.22294 0.756457 0.11455
H_ H_ 0.295716 0.222766 0.805527 0.11455
H_ H_ 0.485879 0.284946 0.868782 0.11455
H_ H_ 0.494074 0.274285 0.919466 0.11455
H_ H_ 0.240954 0.337506 0.881899 0.11455
H_ H_ 0.255266 0.355636 0.934138 0.11455
H_ H_ 0.435057 0.404526 -0.0018380000000000063 0.11455
H_ H_ 0.497141 0.416075 0.543001 0.11455
H_ H_ 0.45118 0.372765 0.587496 0.11455
H_ H_ 0.335256 0.268124 0.505268 0.11455
H_ H_ 0.299972 0.225333 0.549255 0.11455
H_ H_ 0.336513 0.241837 0.595151 0.11455
C_ C_ 0.2364 0.187847 0.907058 0.68181
C_ C_ 0.291321 0.185355 0.903084 -0.05681
C_ C_ 0.324677 0.188262 0.927111 -0.08735
C_ C_ 0.37621 0.179045 0.92241 -0.05681
C_ C_ 0.39305 0.165803 0.895024 -0.05681
C_ C_ 0.361275 0.158798 0.872109 -0.08735
C_ C_ 0.312087 0.173568 0.875522 -0.08735
C_ C_ 0.410896 0.184208 0.94531 -0.08735
C_ C_ 0.46324 0.183547 0.938261 -0.08735
C_ C_ 0.483571 0.173491 0.91125 -0.05681
C_ C_ 0.447063 0.158974 0.89083 -0.08735
C_ C_ 0.132409 0.279125 0.918336 0.68181
C_ C_ 0.137726 0.086662 0.901814 0.68181
C_ C_ 0.131007 0.030371 0.899251 -0.05681
C_ C_ 0.144547 0.4982 0.929999 -0.08735
C_ C_ 0.13751 0.443246 0.928363 -0.05681
C_ C_ 0.130495 0.421827 0.901072 -0.05681
C_ C_ 0.116065 0.452439 0.877853 -0.08735
C_ C_ 0.128148 0.502517 0.878629 -0.08735
C_ C_ 0.140574 0.410984 0.952411 -0.08735
C_ C_ 0.140095 0.35791 0.948457 -0.08735
C_ C_ 0.13436 0.336706 0.920852 -0.05681
C_ C_ 0.128732 0.369413 0.897616 -0.08735
C_ C_ 0.0385945 0.184723 0.911108 0.68181
C_ C_ 0.116254 0.122829 0.987494 0.1947
C_ C_ 0.102226 0.123036 0.514522 -0.08735
C_ C_ 0.117972 0.151906 0.537333 -0.08735
C_ C_ 0.148971 0.194525 0.532531 -0.05681
C_ C_ 0.164051 0.204085 0.503056 0.18498
C_ C_ 0.186498 0.24181 0.999933 -0.08735
C_ C_ 0.210639 0.277829 0.520361 -0.08735
C_ C_ 0.194764 0.269086 0.548523 -0.08735
C_ C_ 0.167294 0.227199 0.555442 0.18498
C_ C_ 0.195317 0.196551 0.602024 0.44287
C_ C_ 0.111578 0.222044 0.597228 0.44287
C_ C_ 0.10026 0.20844 0.625961 -0.05681
C_ C_ 0.0506634 0.213673 0.63806 -0.08735
C_ C_ 0.0408333 0.200509 0.667068 -0.08735
C_ C_ 0.0811766 0.189695 0.685136 -0.05681
C_ C_ 0.132316 0.185197 0.6734 -0.05681
C_ C_ 0.140854 0.194461 0.644616 -0.05681
C_ C_ 0.189382 0.190834 0.632425 -0.05681
C_ C_ 0.228973 0.182835 0.650726 -0.08735
C_ C_ 0.219941 0.176321 0.680512 -0.08735
C_ C_ 0.17153 0.175207 0.692408 -0.05681
C_ C_ 0.161333 0.169975 0.722253 0.44287
C_ C_ 0.0761043 0.189734 0.715719 0.44287
C_ C_ 0.108105 0.165869 0.76253 0.18498
C_ C_ 0.0804353 0.121014 0.768828 -0.08735
C_ C_ 0.0727304 0.105898 0.797259 -0.08735
C_ C_ 0.0947095 0.134076 0.819758 -0.08735
C_ C_ 0.118279 0.180908 0.814138 0.18498
C_ C_ 0.12529 0.19699 0.785823 -0.05681
C_ C_ 0.144004 0.245928 0.781117 -0.08735
C_ C_ 0.164137 0.275328 0.803639 -0.08735
C_ C_ 0.157648 0.254647 0.831758 0.1947
C_ C_ 0.283265 0.32106 0.656219 0.68181
C_ C_ 0.228818 0.324716 0.651633 -0.05681
C_ C_ 0.193787 0.323074 0.67564 -0.08735
C_ C_ 0.141418 0.326166 0.671561 -0.05681
C_ C_ 0.124267 0.334987 0.644071 -0.05681
C_ C_ 0.15608 0.33937 0.620808 -0.08735
C_ C_ 0.207246 0.332655 0.624154 -0.08735
C_ C_ 0.106877 0.32729 0.694625 -0.08735
C_ C_ 0.0551367 0.33351 0.690058 -0.08735
C_ C_ 0.0360087 0.334225 0.662477 -0.05681
C_ C_ 0.0713771 0.335938 0.639399 -0.08735
C_ C_ 0.380679 0.217349 0.658999 0.68181
C_ C_ 0.380953 0.416791 0.646935 0.68181
C_ C_ 0.382192 0.471728 0.645709 -0.05681
C_ C_ 0.369793 0.00128384 0.673582 -0.08735
C_ C_ 0.368415 0.0545468 0.671666 -0.05681
C_ C_ 0.361801 0.0764845 0.644551 -0.05681
C_ C_ 0.359254 0.0433322 0.619307 -0.08735
C_ C_ 0.402199 0.495567 0.621628 -0.08735
C_ C_ 0.383788 0.0863968 0.694156 -0.08735
C_ C_ 0.390494 0.138698 0.689439 -0.08735
C_ C_ 0.377238 0.161774 0.662724 -0.05681
C_ C_ 0.366217 0.129737 0.639824 -0.08735
C_ C_ 0.481183 0.312652 0.655148 0.68181
C_ C_ 0.408173 0.377632 0.731023 0.1947
C_ C_ 0.411903 0.395618 0.759769 -0.08735
C_ C_ 0.392776 0.365446 0.781752 -0.08735
C_ C_ 0.367006 0.320568 0.775892 -0.05681
C_ C_ 0.357159 0.309206 0.747106 0.18498
C_ C_ 0.322616 0.271386 0.7403 -0.08735
C_ C_ 0.296066 0.246202 0.761829 -0.08735
C_ C_ 0.312263 0.250865 0.790016 -0.08735
C_ C_ 0.344983 0.288955 0.798563 0.18498
C_ C_ 0.315606 0.315736 0.845429 0.44287
C_ C_ 0.400268 0.288745 0.839877 0.44287
C_ C_ 0.41062 0.303194 0.868574 -0.05681
C_ C_ 0.456162 0.296181 0.88071 -0.08735
C_ C_ 0.461475 0.295406 0.910126 -0.08735
C_ C_ 0.422135 0.308158 0.929045 -0.05681
C_ C_ 0.374476 0.312928 0.915811 -0.05681
C_ C_ 0.368404 0.31196 0.885944 -0.05681
C_ C_ 0.319209 0.317557 0.87453 -0.05681
C_ C_ 0.279508 0.331868 0.891474 -0.08735
C_ C_ 0.286583 0.339819 0.921062 -0.08735
C_ C_ 0.33243 0.324492 0.934749 -0.05681
C_ C_ 0.342162 0.33459 0.964249 0.44287
C_ C_ 0.4262 0.308302 0.95981 0.44287
C_ C_ 0.410199 0.34511 0.507104 0.18498
C_ C_ 0.447041 0.382685 0.513403 -0.08735
C_ C_ 0.462445 0.393008 0.541584 -0.08735
C_ C_ 0.436511 0.369345 0.564929 -0.08735
C_ C_ 0.402005 0.330501 0.559293 0.18498
C_ C_ 0.387739 0.318439 0.529788 -0.05681
C_ C_ 0.35202 0.277949 0.525689 -0.08735
C_ C_ 0.331956 0.251312 0.549489 -0.08735
C_ C_ 0.348332 0.263338 0.577043 0.1947
N_ N_ 0.142969 0.166844 0.982148 -0.29468
N_ N_ 0.158543 0.216622 0.585681 -0.17154
N_ N_ 0.115341 0.1804 0.733741 -0.17154
N_ N_ 0.135198 0.208991 0.835959 -0.29468
N_ N_ 0.380489 0.334798 0.725126 -0.29468
N_ N_ 0.353571 0.29625 0.828479 -0.17154
N_ N_ 0.388447 0.325541 0.976748 -0.17154
N_ N_ 0.382249 0.299833 0.581272 -0.29468
O_ O_ 0.215524 0.184454 0.931218 -0.58347
O_ O_ 0.209468 0.197314 0.885827 -0.58347
O_ O_ 0.141698 0.25169 0.939152 -0.58347
O_ O_ 0.128472 0.259326 0.893715 -0.58347
O_ O_ 0.148336 0.105427 0.924924 -0.58347
O_ O_ 0.139763 0.113067 0.878835 -0.58347
O_ O_ 0.0665253 0.182502 0.933149 -0.58347
O_ O_ 0.0586763 0.184146 0.88647 -0.58347
O_ O_ 0.0755711 0.245391 0.582529 -0.46727
O_ O_ 0.241938 0.188931 0.591278 -0.46727
O_ O_ 0.0306114 0.203784 0.726866 -0.46727
O_ O_ 0.20158 0.166325 0.740244 -0.46727
O_ O_ 0.302103 0.324349 0.680371 -0.58347
O_ O_ 0.310432 0.3115 0.634992 -0.58347
O_ O_ 0.37734 0.247364 0.679576 -0.58347
O_ O_ 0.385423 0.23537 0.633771 -0.58347
O_ O_ 0.375353 0.39651 0.67207 -0.58347
O_ O_ 0.381933 0.388561 0.625057 -0.58347
O_ O_ 0.450312 0.320842 0.675719 -0.58347
O_ O_ 0.463323 0.310694 0.629373 -0.58347
O_ O_ 0.436483 0.270907 0.823595 -0.46727
O_ O_ 0.274327 0.330118 0.833522 -0.46727
O_ O_ 0.470683 0.297655 0.971803 -0.46727
O_ O_ 0.306249 0.349531 0.979871 -0.46727
Zn Zn 0.107572 0.688674 0.385678 0.90689
Zn Zn 0.119241 0.678972 0.431978 0.90689
Zn Zn 0.357391 0.807263 0.132353 0.90689
Zn Zn 0.348635 0.816949 0.180558 0.90689
H_ H_ 0.289829 0.6827 0.44659 0.11455
H_ H_ 0.349971 0.678091 0.346504 0.11455
H_ H_ 0.262075 0.65399 0.358664 0.11455
H_ H_ 0.379982 0.689816 0.461281 0.11455
H_ H_ 0.470878 0.696232 0.453063 0.11455
H_ H_ 0.440203 0.663308 0.364497 0.11455
H_ H_ 0.110932 0.512444 0.445444 0.11455
H_ H_ 0.108663 0.940304 0.351498 0.11455
H_ H_ 0.125986 0.524017 0.353443 0.11455
H_ H_ 0.140367 0.930371 0.470386 0.11455
H_ H_ 0.1411 0.839109 0.464218 0.11455
H_ H_ 0.101388 0.853186 0.373681 0.11455
H_ H_ 0.0554971 0.615092 0.465883 0.11455
H_ H_ 0.0527333 0.587213 0.0158347 0.11455
H_ H_ 0.0835083 0.635137 0.0589011 0.11455
H_ H_ 0.19046 0.731701 0.474406 0.11455
H_ H_ 0.225397 0.801969 0.0191265 0.11455
H_ H_ 0.192946 0.78306 0.0677925 0.11455
H_ H_ -0.002821999999999991 0.721105 0.125601 0.11455
H_ H_ -0.014654999999999974 0.696117 0.177639 0.11455
H_ H_ 0.245564 0.678582 0.140763 0.11455
H_ H_ 0.235252 0.675756 0.19441 0.11455
H_ H_ 0.0498123 0.596118 0.253544 0.11455
H_ H_ 0.0382644 0.56985 0.302977 0.11455
H_ H_ 0.0584203 0.625875 0.342174 0.11455
H_ H_ 0.152025 0.749412 0.260922 0.11455
H_ H_ 0.186738 0.797011 0.300718 0.11455
H_ H_ 0.158128 0.774232 0.350318 0.11455
H_ H_ 0.181659 0.809218 0.194351 0.11455
H_ H_ 0.114281 0.861365 0.100366 0.11455
H_ H_ 0.211447 0.846864 0.10903 0.11455
H_ H_ 0.0979199 0.824922 0.216079 0.11455
H_ H_ 0.00654251 0.813656 0.205927 0.11455
H_ H_ 0.0323619 0.848509 0.116402 0.11455
H_ H_ 0.364357 0.977435 0.192573 0.11455
H_ H_ 0.373477 0.563649 0.101357 0.11455
H_ H_ 0.335514 0.96787 0.101413 0.11455
H_ H_ 0.34256 0.562144 0.217916 0.11455
H_ H_ 0.354229 0.654834 0.214364 0.11455
H_ H_ 0.386863 0.64281 0.124605 0.11455
H_ H_ 0.412633 0.890093 0.214049 0.11455
H_ H_ 0.43862 0.919653 0.260987 0.11455
H_ H_ 0.385361 0.891422 0.302927 0.11455
H_ H_ 0.277447 0.77066 0.22894 0.11455
H_ H_ 0.253071 0.723779 0.267649 0.11455
H_ H_ 0.284081 0.743579 0.319101 0.11455
H_ H_ 0.475789 0.794955 0.372813 0.11455
H_ H_ 0.487907 0.804014 0.423422 0.11455
H_ H_ 0.231111 0.860944 0.38588 0.11455
H_ H_ 0.241534 0.870378 0.438794 0.11455
H_ H_ 0.42971 0.908164 0.499335 0.11455
H_ H_ 0.440831 0.931654 0.0477549 0.11455
H_ H_ 0.413137 0.875257 0.0898912 0.11455
H_ H_ 0.334644 0.746183 0.0063742 0.11455
H_ H_ 0.296475 0.701522 0.0502869 0.11455
H_ H_ 0.312092 0.729424 0.0988352 0.11455
C_ C_ 0.21358 0.675107 0.407545 0.68181
C_ C_ 0.270854 0.672557 0.404117 -0.05681
C_ C_ 0.305897 0.679387 0.426066 -0.08735
C_ C_ 0.357833 0.678778 0.418878 -0.05681
C_ C_ 0.373865 0.675379 0.390641 -0.05681
C_ C_ 0.339061 0.670256 0.368634 -0.08735
C_ C_ 0.288021 0.663391 0.375902 -0.08735
C_ C_ 0.393381 0.684282 0.440956 -0.08735
C_ C_ 0.444973 0.685432 0.436252 -0.08735
C_ C_ 0.463284 0.681208 0.407553 -0.05681
C_ C_ 0.428582 0.671865 0.385812 -0.08735
C_ C_ 0.11428 0.78188 0.416403 0.68181
C_ C_ 0.119104 0.582495 0.402225 0.68181
C_ C_ 0.115884 0.526285 0.399295 -0.05681
C_ C_ 0.131778 0.995169 0.42735 -0.08735
C_ C_ 0.121757 0.942823 0.424977 -0.05681
C_ C_ 0.116981 0.921326 0.396634 -0.05681
C_ C_ 0.114652 0.954611 0.373241 -0.08735
C_ C_ 0.12292 1.00551523 0.377145 -0.08735
C_ C_ 0.128253 0.912809 0.449402 -0.08735
C_ C_ 0.128915 0.861892 0.445995 -0.08735
C_ C_ 0.114496 0.837974 0.419304 -0.05681
C_ C_ 0.108886 0.868473 0.39485 -0.08735
C_ C_ 0.0166941 0.690431 0.406708 0.68181
C_ C_ 0.0793994 0.629502 0.484281 0.1947
C_ C_ 0.0780263 0.619327 0.0131009 -0.08735
C_ C_ 0.0953813 0.646887 0.036556 -0.08735
C_ C_ 0.131683 0.688302 0.0329049 -0.05681
C_ C_ 0.145194 0.702562 1.00470413 0.18498
C_ C_ 0.179997 0.721581 0.495681 -0.08735
C_ C_ 0.197031 0.771426 0.0229346 -0.08735
C_ C_ 0.178994 0.763588 0.0506438 -0.08735
C_ C_ 0.147328 0.719515 0.0558014 0.18498
C_ C_ 0.175328 0.690029 0.101529 0.44287
C_ C_ 0.0889321 0.711891 0.0970319 0.44287
C_ C_ 0.0781833 0.701845 0.126786 -0.05681
C_ C_ 0.0301082 0.707159 0.138179 -0.08735
C_ C_ 0.0219713 0.69857 0.167544 -0.08735
C_ C_ 0.0637025 0.691377 0.185582 -0.05681
C_ C_ 0.113129 0.68668 0.173309 -0.05681
C_ C_ 0.120131 0.688518 0.143024 -0.05681
C_ C_ 0.169155 0.688722 0.130971 -0.05681
C_ C_ 0.209183 0.686184 0.150437 -0.08735
C_ C_ 0.203039 0.677712 0.180634 -0.08735
C_ C_ 0.154382 0.675602 0.192132 -0.05681
C_ C_ 0.147238 0.67686 0.220873 0.44287
C_ C_ 0.0585509 0.689084 0.216225 0.44287
C_ C_ 0.0938802 0.664895 0.263893 0.18498
C_ C_ 0.0669518 0.619703 0.269958 -0.08735
C_ C_ 0.0542805 0.607117 0.297187 -0.08735
C_ C_ 0.0668928 0.638181 0.320583 -0.08735
C_ C_ 0.099615 0.681421 0.31546 0.18498
C_ C_ 0.115013 0.692245 0.28654 -0.05681
C_ C_ 0.147182 0.735127 0.28186 -0.08735
C_ C_ 0.166827 0.76123 0.305676 -0.08735
C_ C_ 0.151797 0.747465 0.332978 0.1947
C_ C_ 0.25549 0.810133 0.15541 0.68181
C_ C_ 0.200915 0.820205 0.151258 -0.05681
C_ C_ 0.16849 0.814877 0.174003 -0.08735
C_ C_ 0.116364 0.823885 0.170683 -0.05681
C_ C_ 0.0977791 0.839026 0.142865 -0.05681
C_ C_ 0.130757 0.84629 0.119979 -0.08735
C_ C_ 0.183328 0.837725 0.125006 -0.08735
C_ C_ 0.0828891 0.819975 0.193692 -0.08735
C_ C_ 0.0301264 0.82167 0.187566 -0.08735
C_ C_ 0.0110934 0.831396 0.159864 -0.05681
C_ C_ 0.0455893 0.844103 0.138294 -0.08735
C_ C_ 0.361846 0.713503 0.163753 0.68181
C_ C_ 0.348024 0.907803 0.150158 0.68181
C_ C_ 0.347624 0.965816 0.148003 -0.05681
C_ C_ 0.351827 0.498495 0.174018 -0.08735
C_ C_ 0.358749 0.551141 0.172015 -0.05681
C_ C_ 0.370404 0.573967 0.146282 -0.05681
C_ C_ 0.372836 0.543171 0.121645 -0.08735
C_ C_ 0.345323 -0.009726000000000012 0.120988 -0.08735
C_ C_ 0.353207 0.58016 0.197796 -0.08735
C_ C_ 0.357707 0.631892 0.194482 -0.08735
C_ C_ 0.363244 0.657659 0.167487 -0.05681
C_ C_ 0.367973 0.626357 0.143853 -0.08735
C_ C_ 0.45261 0.817709 0.155509 0.68181
C_ C_ 0.395328 0.871709 0.23138 0.1947
C_ C_ 0.405986 0.893608 0.257951 -0.08735
C_ C_ 0.380094 0.87603 0.281534 -0.08735
C_ C_ 0.346909 0.834167 0.279421 -0.05681
C_ C_ 0.332281 0.818166 0.251159 0.18498
C_ C_ 0.298243 0.77869 0.248213 -0.08735
C_ C_ 0.282768 0.752606 0.272347 -0.08735
C_ C_ 0.295295 0.767886 0.300906 -0.08735
C_ C_ 0.330458 0.80756 0.303759 0.18498
C_ C_ 0.304882 0.839825 0.349337 0.44287
C_ C_ 0.38625 0.805647 0.344911 0.44287
C_ C_ 0.393886 0.807645 0.374409 -0.05681
C_ C_ 0.443192 0.803502 0.386021 -0.08735
C_ C_ 0.449039 0.803029 0.415161 -0.08735
C_ C_ 0.408462 0.814057 0.433035 -0.05681
C_ C_ 0.360468 0.827565 0.421334 -0.05681
C_ C_ 0.354269 0.823982 0.39172 -0.05681
C_ C_ 0.308063 0.836281 0.379892 -0.05681
C_ C_ 0.267604 0.850342 0.396599 -0.08735
C_ C_ 0.273654 0.856551 0.427266 -0.08735
C_ C_ 0.321202 0.843925 0.440057 -0.05681
C_ C_ 0.329783 0.842875 0.469844 0.44287
C_ C_ 0.4148 0.816533 0.461788 0.44287
C_ C_ 0.377794 0.838239 0.00965335 0.18498
C_ C_ 0.404775 0.884444 0.0147825 -0.08735
C_ C_ 0.418116 0.898144 0.0436158 -0.08735
C_ C_ 0.404325 0.865973 0.066555 -0.08735
C_ C_ 0.374578 0.822015 0.0630907 0.18498
C_ C_ 0.363985 0.807005 0.0332838 -0.05681
C_ C_ 0.336408 0.761481 0.0292764 -0.08735
C_ C_ 0.321401 0.732469 0.0537518 -0.08735
C_ C_ 0.327843 0.751684 0.0809652 0.1947
N_ N_ 0.114081 0.66741 0.479996 -0.29468
N_ N_ 0.136262 0.705512 0.0850467 -0.17154
N_ N_ 0.100137 0.679239 0.233235 -0.17154
N_ N_ 0.120702 0.707593 0.337575 -0.29468
N_ N_ 0.3567 0.837067 0.227439 -0.29468
N_ N_ 0.342012 0.822824 0.332206 -0.17154
N_ N_ 0.377086 0.829589 0.480227 -0.17154
N_ N_ 0.356498 0.79457 0.0859225 -0.29468
O_ O_ 0.196477 0.669952 0.432458 -0.58347
O_ O_ 0.184835 0.688588 0.387236 -0.58347
O_ O_ 0.123364 0.75357 0.437502 -0.58347
O_ O_ 0.104969 0.763316 0.392135 -0.58347
O_ O_ 0.112282 0.604244 0.425795 -0.58347
O_ O_ 0.110894 0.60952 0.379467 -0.58347
O_ O_ 0.0448058 0.688811 0.428331 -0.58347
O_ O_ 0.0342092 0.687433 0.38108 -0.58347
O_ O_ 0.0518402 0.72935 0.0800497 -0.46727
O_ O_ 0.223349 0.688766 0.0908056 -0.46727
O_ O_ 0.0121011 0.686057 0.226604 -0.46727
O_ O_ 0.186399 0.662784 0.23778 -0.46727
O_ O_ 0.276486 0.822392 0.179315 -0.58347
O_ O_ 0.282249 0.798646 0.133911 -0.58347
O_ O_ 0.342595 0.741101 0.182772 -0.58347
O_ O_ 0.369271 0.733758 0.139357 -0.58347
O_ O_ 0.351639 0.888861 0.174491 -0.58347
O_ O_ 0.34011 0.881258 0.128086 -0.58347
O_ O_ 0.423444 0.812867 0.177257 -0.58347
O_ O_ 0.431153 0.819794 0.130148 -0.58347
O_ O_ 0.420459 0.783618 0.328893 -0.46727
O_ O_ 0.262825 0.85416 0.338319 -0.46727
O_ O_ 0.457466 0.804594 0.472936 -0.46727
O_ O_ 0.292713 0.85022 0.487739 -0.46727
Zn Zn 0.126543 0.683308 0.885035 0.90689
Zn Zn 0.137912 0.680783 0.934532 0.90689
Zn Zn 0.38002 0.811222 0.633025 0.90689
Zn Zn 0.372224 0.820496 0.680638 0.90689
H_ H_ 0.308008 0.692218 0.948641 0.11455
H_ H_ 0.368831 0.665356 0.849828 0.11455
H_ H_ 0.27426 0.669084 0.859283 0.11455
H_ H_ 0.3965 0.694295 0.965921 0.11455
H_ H_ 0.485748 0.683565 0.953736 0.11455
H_ H_ 0.450938 0.648909 0.86842 0.11455
H_ H_ 0.156635 0.514135 0.950424 0.11455
H_ H_ 0.127838 0.941119 0.846604 0.11455
H_ H_ 0.120088 0.526186 0.859866 0.11455
H_ H_ 0.121063 0.933208 0.96385 0.11455
H_ H_ 0.122831 0.839563 0.959116 0.11455
H_ H_ 0.129482 0.854705 0.869824 0.11455
H_ H_ 0.0749383 0.616572 0.968162 0.11455
H_ H_ 0.0400896 0.58802 0.517763 0.11455
H_ H_ 0.0906321 0.618173 0.556278 0.11455
H_ H_ 0.193554 0.75217 0.980633 0.11455
H_ H_ 0.222072 0.783971 0.515424 0.11455
H_ H_ 0.192969 0.773456 0.562327 0.11455
H_ H_ 1.0126107 0.687545 0.625241 0.11455
H_ H_ 1.00501702 0.673978 0.675212 0.11455
H_ H_ 0.267328 0.679068 0.638316 0.11455
H_ H_ 0.257626 0.665268 0.689068 0.11455
H_ H_ 0.0756824 0.573585 0.74941 0.11455
H_ H_ 0.0471906 0.554589 0.798401 0.11455
H_ H_ 0.0661074 0.612467 0.838326 0.11455
H_ H_ 0.15701 0.73986 0.761874 0.11455
H_ H_ 0.175425 0.792151 0.805114 0.11455
H_ H_ 0.171526 0.752909 0.850675 0.11455
H_ H_ 0.203396 0.80713 0.694026 0.11455
H_ H_ 0.134256 0.832333 0.596638 0.11455
H_ H_ 0.229529 0.821285 0.603577 0.11455
H_ H_ 0.11544 0.792929 0.711722 0.11455
H_ H_ 0.0254179 0.805225 0.704656 0.11455
H_ H_ 0.0523159 0.832156 0.615186 0.11455
H_ H_ 0.380248 0.982093 0.69321 0.11455
H_ H_ 0.422112 0.569525 0.603622 0.11455
H_ H_ 0.359372 0.971976 0.603223 0.11455
H_ H_ 0.339009 0.563908 0.710826 0.11455
H_ H_ 0.353221 0.658087 0.711573 0.11455
H_ H_ 0.405711 0.650023 0.623354 0.11455
H_ H_ 0.431471 0.893079 0.715788 0.11455
H_ H_ 0.444856 0.921196 0.766055 0.11455
H_ H_ 0.393775 0.885131 0.804348 0.11455
H_ H_ 0.303809 0.765434 0.72108 0.11455
H_ H_ 0.275326 0.710001 0.760377 0.11455
H_ H_ 0.292738 0.728526 0.809903 0.11455
H_ H_ 0.477345 0.79418 0.874901 0.11455
H_ H_ 0.482741 0.790263 0.927257 0.11455
H_ H_ 0.2329 0.859791 0.884687 0.11455
H_ H_ 0.244321 0.868899 0.935478 0.11455
H_ H_ 0.414045 0.908068 0.998248 0.11455
H_ H_ 0.450703 0.930636 0.547989 0.11455
H_ H_ 0.429273 0.876078 0.58808 0.11455
H_ H_ 0.345739 0.749439 0.506923 0.11455
H_ H_ 0.320241 0.69706 0.545284 0.11455
H_ H_ 0.328389 0.730083 0.594695 0.11455
C_ C_ 0.2303 0.68972 0.909891 0.68181
C_ C_ 0.285802 0.684951 0.90456 -0.05681
C_ C_ 0.320749 0.688852 0.926795 -0.08735
C_ C_ 0.370605 0.678761 0.922202 -0.05681
C_ C_ 0.387485 0.668808 0.893897 -0.05681
C_ C_ 0.351981 0.662428 0.871211 -0.08735
C_ C_ 0.300967 0.674517 0.87669 -0.08735
C_ C_ 0.407774 0.683816 0.944731 -0.08735
C_ C_ 0.459171 0.679813 0.937569 -0.08735
C_ C_ 0.475378 0.670538 0.910429 -0.05681
C_ C_ 0.439191 0.661163 0.888759 -0.08735
C_ C_ 0.124455 0.782125 0.912184 0.68181
C_ C_ 0.142909 0.581806 0.906682 0.68181
C_ C_ 0.1398 0.526104 0.904616 -0.05681
C_ C_ 0.129942 0.999552 0.923589 -0.08735
C_ C_ 0.124012 0.946065 0.920295 -0.05681
C_ C_ 0.127185 0.924769 0.892907 -0.05681
C_ C_ 0.129499 0.956193 0.868778 -0.08735
C_ C_ 0.132036 0.00720794 0.872619 -0.08735
C_ C_ 0.117592 0.915045 0.943659 -0.08735
C_ C_ 0.121865 0.862925 0.940915 -0.08735
C_ C_ 0.120796 0.838344 0.914174 -0.05681
C_ C_ 0.126676 0.870685 0.890272 -0.08735
C_ C_ 0.0324342 0.679697 0.907501 0.68181
C_ C_ 0.0960536 0.632215 0.986148 0.1947
C_ C_ 0.0657872 0.615667 0.512759 -0.08735
C_ C_ 0.0921961 0.636715 0.535482 -0.08735
C_ C_ 0.129246 0.672096 0.530496 -0.05681
C_ C_ 0.140702 0.686961 0.501192 0.18498
C_ C_ 0.179648 0.742995 1.00099 -0.08735
C_ C_ 0.19614 0.752055 0.517876 -0.08735
C_ C_ 0.178204 0.748092 0.545571 -0.08735
C_ C_ 0.148673 0.706033 0.55342 0.18498
C_ C_ 0.187088 0.685943 0.599224 0.44287
C_ C_ 0.0973151 0.698868 0.596157 0.44287
C_ C_ 0.0936576 0.690855 0.625727 -0.05681
C_ C_ 0.0462796 0.687851 0.638257 -0.08735
C_ C_ 0.0424658 0.677034 0.667113 -0.08735
C_ C_ 0.0842524 0.671059 0.685128 -0.05681
C_ C_ 0.132837 0.671707 0.672819 -0.05681
C_ C_ 0.136538 0.682785 0.642864 -0.05681
C_ C_ 0.184832 0.681008 0.629603 -0.05681
C_ C_ 0.229036 0.677188 0.647309 -0.08735
C_ C_ 0.224799 0.673328 0.677 -0.08735
C_ C_ 0.177974 0.667217 0.689929 -0.05681
C_ C_ 0.171186 0.665668 0.719629 0.44287
C_ C_ 0.08184 0.671234 0.714888 0.44287
C_ C_ 0.114787 0.644638 0.761298 0.18498
C_ C_ 0.0868652 0.597966 0.766739 -0.08735
C_ C_ 0.070456 0.587962 0.793892 -0.08735
C_ C_ 0.0806233 0.620428 0.817405 -0.08735
C_ C_ 0.118215 0.657499 0.813478 0.18498
C_ C_ 0.127712 0.676529 0.784796 -0.05681
C_ C_ 0.144679 0.726355 0.782073 -0.08735
C_ C_ 0.157398 0.755222 0.80656 -0.08735
C_ C_ 0.158785 0.730859 0.833236 0.1947
C_ C_ 0.279333 0.811258 0.654594 0.68181
C_ C_ 0.222444 0.808699 0.649103 -0.05681
C_ C_ 0.189194 0.803636 0.672682 -0.08735
C_ C_ 0.136647 0.805749 0.667996 -0.05681
C_ C_ 0.118914 0.813627 0.63991 -0.05681
C_ C_ 0.15176 0.820363 0.61646 -0.08735
C_ C_ 0.202627 0.8145 0.621269 -0.08735
C_ C_ 0.103613 0.805177 0.69082 -0.08735
C_ C_ 0.049777 0.811257 0.686848 -0.08735
C_ C_ 0.0306828 0.819585 0.659538 -0.05681
C_ C_ 0.0654275 0.820038 0.635914 -0.08735
C_ C_ 0.387082 0.717694 0.667344 0.68181
C_ C_ 0.367069 0.912764 0.650135 0.68181
C_ C_ 0.364799 0.970243 0.648995 -0.05681
C_ C_ 0.365824 0.50122 0.667938 -0.08735
C_ C_ 0.371524 0.553851 0.668087 -0.05681
C_ C_ 0.395101 0.579966 0.645073 -0.05681
C_ C_ 0.403845 0.549357 0.620875 -0.08735
C_ C_ 0.358371 0.99345 0.622464 -0.08735
C_ C_ 0.353656 0.5811 0.691413 -0.08735
C_ C_ 0.359749 0.635209 0.691291 -0.08735
C_ C_ 0.381777 0.662213 0.667969 -0.05681
C_ C_ 0.394886 0.632966 0.643435 -0.08735
C_ C_ 0.472739 0.817281 0.657651 0.68181
C_ C_ 0.411914 0.87496 0.733843 0.1947
C_ C_ 0.418114 0.892973 0.761463 -0.08735
C_ C_ 0.391097 0.869151 0.784024 -0.08735
C_ C_ 0.364802 0.822215 0.777467 -0.05681
C_ C_ 0.35097 0.812842 0.748323 0.18498
C_ C_ 0.317386 0.772788 0.742595 -0.08735
C_ C_ 0.296315 0.744375 0.765036 -0.08735
C_ C_ 0.309483 0.751846 0.793062 -0.08735
C_ C_ 0.34032 0.794115 0.800444 0.18498
C_ C_ 0.303515 0.814897 0.846698 0.44287
C_ C_ 0.392804 0.798818 0.842856 0.44287
C_ C_ 0.397011 0.805516 0.872666 -0.05681
C_ C_ 0.443032 0.799497 0.88696 -0.08735
C_ C_ 0.44815 0.799653 0.917043 -0.08735
C_ C_ 0.408391 0.81611 0.93382 -0.05681
C_ C_ 0.361534 0.825651 0.920246 -0.05681
C_ C_ 0.355732 0.818878 0.890229 -0.05681
C_ C_ 0.309314 0.826139 0.876792 -0.05681
C_ C_ 0.269355 0.847083 0.893982 -0.08735
C_ C_ 0.276363 0.854562 0.924157 -0.08735
C_ C_ 0.320316 0.839411 0.937709 -0.05681
C_ C_ 0.323725 0.840705 0.967946 0.44287
C_ C_ 0.408588 0.811759 0.963171 0.44287
C_ C_ 0.390061 0.840742 0.509917 0.18498
C_ C_ 0.419838 0.881638 0.515869 -0.08735
C_ C_ 0.431115 0.896992 0.544038 -0.08735
C_ C_ 0.415293 0.866574 0.567183 -0.08735
C_ C_ 0.389512 0.821119 0.562017 0.18498
C_ C_ 0.379903 0.807009 0.532534 -0.05681
C_ C_ 0.359482 0.758539 0.528029 -0.08735
C_ C_ 0.346397 0.726693 0.551358 -0.08735
C_ C_ 0.350669 0.746739 0.578793 0.1947
N_ N_ 0.130996 0.670463 0.982719 -0.29468
N_ N_ 0.144006 0.69296 0.582751 -0.17154
N_ N_ 0.123887 0.660343 0.731089 -0.17154
N_ N_ 0.136797 0.684381 0.836155 -0.29468
N_ N_ 0.371899 0.843714 0.726774 -0.29468
N_ N_ 0.345739 0.803045 0.830783 -0.17154
N_ N_ 0.368618 0.824953 0.979999 -0.17154
N_ N_ 0.378334 0.789431 0.584219 -0.29468
O_ O_ 0.21186 0.681997 0.934007 -0.58347
O_ O_ 0.201603 0.694084 0.888545 -0.58347
O_ O_ 0.126813 0.754925 0.935186 -0.58347
O_ O_ 0.115942 0.759697 0.888095 -0.58347
O_ O_ 0.146516 0.604603 0.930561 -0.58347
O_ O_ 0.142069 0.607399 0.884765 -0.58347
O_ O_ 0.0594427 0.673087 0.929995 -0.58347
O_ O_ 0.0524919 0.672877 0.88286 -0.58347
O_ O_ 0.0602445 0.716681 0.581719 -0.46727
O_ O_ 0.232732 0.685575 0.586708 -0.46727
O_ O_ 0.0361453 0.676002 0.727007 -0.46727
O_ O_ 0.211416 0.662235 0.735904 -0.46727
O_ O_ 0.297586 0.819071 0.679289 -0.58347
O_ O_ 0.308637 0.80273 0.633432 -0.58347
O_ O_ 0.371484 0.743643 0.687886 -0.58347
O_ O_ 0.3934 0.737978 0.642882 -0.58347
O_ O_ 0.370333 0.890303 0.673925 -0.58347
O_ O_ 0.370542 0.885767 0.627048 -0.58347
O_ O_ 0.445568 0.818452 0.679471 -0.58347
O_ O_ 0.453671 0.823017 0.633326 -0.58347
O_ O_ 0.43264 0.79774 0.826919 -0.46727
O_ O_ 0.258569 0.817489 0.834661 -0.46727
O_ O_ 0.451167 0.794097 0.975488 -0.46727
O_ O_ 0.283835 0.85289 0.984014 -0.46727
Zn Zn 0.629662 0.185649 0.383075 0.90689
Zn Zn 0.645703 0.178354 0.43023 0.90689
Zn Zn 0.874508 0.32197 0.13485 0.90689
Zn Zn 0.859583 0.326464 0.179644 0.90689
H_ H_ 0.812232 0.201162 0.449294 0.11455
H_ H_ 0.881122 0.170528 0.350852 0.11455
H_ H_ 0.786739 0.189504 0.358185 0.11455
H_ H_ 0.898894 0.199984 0.468025 0.11455
H_ H_ 0.987264 0.193049 0.461431 0.11455
H_ H_ 0.967193 0.181925 0.368786 0.11455
H_ H_ 0.652701 0.00978409 0.444314 0.11455
H_ H_ 0.620363 0.434828 0.342524 0.11455
H_ H_ 0.618265 0.0320657 0.354565 0.11455
H_ H_ 0.643686 0.427293 0.459277 0.11455
H_ H_ 0.647013 0.340208 0.453888 0.11455
H_ H_ 0.618893 0.35035 0.364212 0.11455
H_ H_ 0.580932 0.109917 0.469221 0.11455
H_ H_ 0.575206 0.062427 0.0129195 0.11455
H_ H_ 0.603247 0.11388 0.0549687 0.11455
H_ H_ 0.692934 0.248753 0.470775 0.11455
H_ H_ 0.715001 0.297577 0.0140311 0.11455
H_ H_ 0.686439 0.28034 0.0616414 0.11455
H_ H_ 0.517678 0.19906 0.126877 0.11455
H_ H_ 0.502553 0.17934 0.175164 0.11455
H_ H_ 0.770729 0.1577 0.13945 0.11455
H_ H_ 0.758119 0.150137 0.191488 0.11455
H_ H_ 0.585418 0.0636144 0.256902 0.11455
H_ H_ 0.554355 0.0542697 0.30571 0.11455
H_ H_ 0.578393 0.115061 0.341211 0.11455
H_ H_ 0.648111 0.2401 0.255955 0.11455
H_ H_ 0.688363 0.288728 0.297447 0.11455
H_ H_ 0.689409 0.257559 0.344211 0.11455
H_ H_ 0.69765 0.290855 0.193628 0.11455
H_ H_ 0.622892 0.313652 0.097644 0.11455
H_ H_ 0.715734 0.314265 0.101008 0.11455
H_ H_ 0.614751 0.293489 0.214963 0.11455
H_ H_ 0.521212 0.279385 0.206905 0.11455
H_ H_ 0.540187 0.305475 0.117228 0.11455
H_ H_ 0.884385 0.492873 0.189789 0.11455
H_ H_ 0.860905 0.0747319 0.0974888 0.11455
H_ H_ 0.842669 0.477305 0.102086 0.11455
H_ H_ 0.858698 0.0746492 0.215566 0.11455
H_ H_ 0.859956 0.168153 0.211756 0.11455
H_ H_ 0.873481 0.156722 0.120057 0.11455
H_ H_ 0.910092 0.405372 0.217813 0.11455
H_ H_ 0.907165 0.439156 0.268509 0.11455
H_ H_ 0.892142 0.377382 0.306719 0.11455
H_ H_ 0.793534 0.266008 0.221858 0.11455
H_ H_ 0.771887 0.204928 0.259191 0.11455
H_ H_ 0.793204 0.219158 0.309464 0.11455
H_ H_ 0.9848 0.287946 0.36919 0.11455
H_ H_ 0.0005699999999999594 0.298875 0.419753 0.11455
H_ H_ 0.734929 0.332968 0.388345 0.11455
H_ H_ 0.749546 0.349588 0.439735 0.11455
H_ H_ 0.936007 0.420132 0.494539 0.11455
H_ H_ 0.971987 0.425557 0.0466922 0.11455
H_ H_ 0.931745 0.385614 0.0864018 0.11455
H_ H_ 0.849495 0.247086 0.00950158 0.11455
H_ H_ 0.807846 0.208682 0.0515056 0.11455
H_ H_ 0.818561 0.244902 0.100957 0.11455
C_ C_ 0.735942 0.180401 0.408824 0.68181
C_ C_ 0.791916 0.183575 0.404629 -0.05681
C_ C_ 0.826128 0.190375 0.428061 -0.08735
C_ C_ 0.878992 0.183045 0.423913 -0.05681
C_ C_ 0.899506 0.17887 0.396433 -0.05681
C_ C_ 0.867144 0.179783 0.371835 -0.08735
C_ C_ 0.814573 0.183257 0.376152 -0.08735
C_ C_ 0.912488 0.192438 0.446392 -0.08735
C_ C_ 0.963311 0.190618 0.442442 -0.08735
C_ C_ 0.985183 0.180884 0.414181 -0.05681
C_ C_ 0.952244 0.175014 0.391471 -0.08735
C_ C_ 0.630692 0.28179 0.406528 0.68181
C_ C_ 0.63776 0.0866131 0.404867 0.68181
C_ C_ 0.631045 0.030461 0.401574 -0.05681
C_ C_ 0.622064 0.497659 0.417353 -0.08735
C_ C_ 0.622146 0.444952 0.41506 -0.05681
C_ C_ 0.620093 0.422989 0.387541 -0.05681
C_ C_ 0.620959 0.45306 0.363681 -0.08735
C_ C_ 0.619352 0.505999 0.366131 -0.08735
C_ C_ 0.632268 0.413549 0.438753 -0.08735
C_ C_ 0.631698 0.360884 0.43574 -0.08735
C_ C_ 0.62718 0.33807 0.408566 -0.05681
C_ C_ 0.617912 0.369349 0.384816 -0.08735
C_ C_ 0.540698 0.174843 0.406163 0.68181
C_ C_ 0.603704 0.131242 0.486127 0.1947
C_ C_ 0.597594 0.0973331 0.00997493 -0.08735
C_ C_ 0.614195 0.126555 0.0335111 -0.08735
C_ C_ 0.643102 0.170711 0.0289723 -0.05681
C_ C_ 0.650916 0.186789 1.000278234 0.18498
C_ C_ 0.688303 0.23969 0.492819 -0.08735
C_ C_ 0.691166 0.264112 0.0177539 -0.08735
C_ C_ 0.677056 0.252463 0.0462772 -0.08735
C_ C_ 0.65829 0.203034 0.0530285 0.18498
C_ C_ 0.693802 0.173884 0.0989191 0.44287
C_ C_ 0.606448 0.189906 0.0960664 0.44287
C_ C_ 0.598177 0.174447 0.124752 -0.05681
C_ C_ 0.548313 0.181519 0.137066 -0.08735
C_ C_ 0.542402 0.174952 0.166418 -0.08735
C_ C_ 0.585813 0.165513 0.184054 -0.05681
C_ C_ 0.632568 0.160446 0.171322 -0.05681
C_ C_ 0.638056 0.164642 0.141392 -0.05681
C_ C_ 0.687268 0.165658 0.128851 -0.05681
C_ C_ 0.731335 0.161718 0.148152 -0.08735
C_ C_ 0.725524 0.160057 0.177878 -0.08735
C_ C_ 0.676198 0.160647 0.188728 -0.05681
C_ C_ 0.667937 0.149216 0.218043 0.44287
C_ C_ 0.580074 0.156277 0.213511 0.44287
C_ C_ 0.615593 0.139625 0.261873 0.18498
C_ C_ 0.594362 0.0926861 0.271473 -0.08735
C_ C_ 0.575271 0.0883126 0.298793 -0.08735
C_ C_ 0.587275 0.12553 0.318933 -0.08735
C_ C_ 0.620281 0.163509 0.312789 0.18498
C_ C_ 0.628614 0.175384 0.283094 -0.05681
C_ C_ 0.650383 0.222769 0.277296 -0.08735
C_ C_ 0.669407 0.252612 0.299867 -0.08735
C_ C_ 0.670363 0.235622 0.327631 0.1947
C_ C_ 0.768437 0.318591 0.154681 0.68181
C_ C_ 0.716481 0.303293 0.149599 -0.05681
C_ C_ 0.681588 0.296857 0.172754 -0.08735
C_ C_ 0.628115 0.2986 0.169501 -0.05681
C_ C_ 0.606904 0.303343 0.142302 -0.05681
C_ C_ 0.639161 0.306133 0.117793 -0.08735
C_ C_ 0.692682 0.304532 0.120834 -0.08735
C_ C_ 0.596903 0.296844 0.193994 -0.08735
C_ C_ 0.54369 0.296268 0.190621 -0.08735
C_ C_ 0.522109 0.306642 0.16274 -0.05681
C_ C_ 0.554087 0.301229 0.138421 -0.08735
C_ C_ 0.870436 0.224134 0.164152 0.68181
C_ C_ 0.863704 0.421029 0.148749 0.68181
C_ C_ 0.866033 0.477848 0.146197 -0.05681
C_ C_ 0.85342 0.0083291 0.171591 -0.08735
C_ C_ 0.858604 0.0618868 0.169943 -0.05681
C_ C_ 0.861982 0.0852602 0.143067 -0.05681
C_ C_ 0.857358 0.0555032 0.118073 -0.08735
C_ C_ 0.855793 0.500334 0.120169 -0.08735
C_ C_ 0.86076 0.0924033 0.195284 -0.08735
C_ C_ 0.865627 0.145759 0.192922 -0.08735
C_ C_ 0.868767 0.16916 0.166218 -0.05681
C_ C_ 0.87167 0.139051 0.141319 -0.08735
C_ C_ 0.967122 0.320174 0.159569 0.68181
C_ C_ 0.891454 0.385626 0.235633 0.1947
C_ C_ 0.890569 0.404645 0.264133 -0.08735
C_ C_ 0.877032 0.371211 0.28536 -0.08735
C_ C_ 0.852367 0.323718 0.278973 -0.05681
C_ C_ 0.840571 0.314424 0.249335 0.18498
C_ C_ 0.806476 0.272575 0.243678 -0.08735
C_ C_ 0.791872 0.24039 0.264944 -0.08735
C_ C_ 0.8068 0.245594 0.293039 -0.08735
C_ C_ 0.835469 0.289018 0.30063 0.18498
C_ C_ 0.804012 0.310072 0.348639 0.44287
C_ C_ 0.888754 0.285698 0.342633 0.44287
C_ C_ 0.900857 0.296262 0.371123 -0.05681
C_ C_ 0.950852 0.292233 0.381884 -0.08735
C_ C_ 0.960568 0.302423 0.411815 -0.08735
C_ C_ 0.918646 0.31577 0.430177 -0.05681
C_ C_ 0.870846 0.325232 0.418408 -0.05681
C_ C_ 0.861087 0.309209 0.389971 -0.05681
C_ C_ 0.811569 0.311887 0.378997 -0.05681
C_ C_ 0.772922 0.327948 0.397602 -0.08735
C_ C_ 0.781895 0.340361 0.426476 -0.08735
C_ C_ 0.832452 0.338376 0.437562 -0.05681
C_ C_ 0.842497 0.347828 0.466377 0.44287
C_ C_ 0.92544 0.314664 0.459966 0.44287
C_ C_ 0.899618 0.337576 0.0101481 0.18498
C_ C_ 0.931934 0.3795 0.0160908 -0.08735
C_ C_ 0.941467 0.397467 0.0439586 -0.08735
C_ C_ 0.922861 0.369904 0.0667908 -0.08735
C_ C_ 0.889318 0.329371 0.0635217 0.18498
C_ C_ 0.876108 0.313795 0.0346454 -0.05681
C_ C_ 0.852776 0.265351 0.0307808 -0.08735
C_ C_ 0.831591 0.241664 0.0543279 -0.08735
C_ C_ 0.838264 0.263167 0.0815406 0.1947
N_ N_ 0.634402 0.171554 0.479054 -0.29468
N_ N_ 0.652376 0.185452 0.0830642 -0.17154
N_ N_ 0.621183 0.147441 0.230523 -0.17154
N_ N_ 0.640129 0.194037 0.33411 -0.29468
N_ N_ 0.859735 0.345818 0.228085 -0.29468
N_ N_ 0.842722 0.297992 0.330639 -0.17154
N_ N_ 0.887689 0.33574 0.476867 -0.17154
N_ N_ 0.865178 0.307648 0.0861957 -0.29468
O_ O_ 0.718051 0.179139 0.43376 -0.58347
O_ O_ 0.706074 0.187181 0.387103 -0.58347
O_ O_ 0.641204 0.256252 0.428083 -0.58347
O_ O_ 0.624042 0.261274 0.382915 -0.58347
O_ O_ 0.650966 0.106457 0.42801 -0.58347
O_ O_ 0.633827 0.113116 0.3829 -0.58347
O_ O_ 0.572412 0.179648 0.427032 -0.58347
O_ O_ 0.556439 0.182045 0.38104 -0.58347
O_ O_ 0.571049 0.204619 0.0792381 -0.46727
O_ O_ 0.740231 0.173504 0.0882817 -0.46727
O_ O_ 0.533297 0.156051 0.225295 -0.46727
O_ O_ 0.706928 0.139553 0.235416 -0.46727
O_ O_ 0.784904 0.322732 0.180348 -0.58347
O_ O_ 0.798444 0.323281 0.133825 -0.58347
O_ O_ 0.866562 0.251166 0.186249 -0.58347
O_ O_ 0.870195 0.24617 0.140136 -0.58347
O_ O_ 0.852435 0.397232 0.172196 -0.58347
O_ O_ 0.872662 0.395134 0.126562 -0.58347
O_ O_ 0.93883 0.330954 0.180971 -0.58347
O_ O_ 0.948287 0.318096 0.134622 -0.58347
O_ O_ 0.925091 0.269358 0.325839 -0.46727
O_ O_ 0.763859 0.3323 0.337305 -0.46727
O_ O_ 0.967712 0.296677 0.47152 -0.46727
O_ O_ 0.804171 0.352805 0.484304 -0.46727
Zn Zn 0.63417 0.181111 0.881889 0.90689
Zn Zn 0.638351 0.170783 0.929248 0.90689
Zn Zn 0.888758 0.311943 0.631926 0.90689
Zn Zn 0.874254 0.323738 0.679449 0.90689
H_ H_ 0.809067 0.177896 0.945352 0.11455
H_ H_ 0.87673 0.17253 0.847475 0.11455
H_ H_ 0.783976 0.160332 0.855504 0.11455
H_ H_ 0.890789 0.176879 0.964865 0.11455
H_ H_ 0.982152 0.200214 0.956651 0.11455
H_ H_ 0.965916 0.166497 0.86945 0.11455
H_ H_ 0.623639 0.00564724 0.940698 0.11455
H_ H_ 0.666796 0.427192 0.852147 0.11455
H_ H_ 0.660793 0.0200949 0.854166 0.11455
H_ H_ 0.628895 0.420386 0.967732 0.11455
H_ H_ 0.629896 0.326637 0.960004 0.11455
H_ H_ 0.656465 0.342971 0.871284 0.11455
H_ H_ 0.580716 0.0970363 0.965933 0.11455
H_ H_ 0.590152 0.0741081 0.520047 0.11455
H_ H_ 0.640061 0.118783 0.554933 0.11455
H_ H_ 0.700431 0.234675 0.97544 0.11455
H_ H_ 0.738829 0.298374 0.508302 0.11455
H_ H_ 0.735062 0.275291 0.559085 0.11455
H_ H_ 0.538447 0.210261 0.621898 0.11455
H_ H_ 0.521416 0.196934 0.67356 0.11455
H_ H_ 0.787059 0.190492 0.639412 0.11455
H_ H_ 0.77331 0.171495 0.691667 0.11455
H_ H_ 0.591075 0.0792837 0.74685 0.11455
H_ H_ 0.56839 0.0593358 0.797446 0.11455
H_ H_ 0.574912 0.118853 0.834571 0.11455
H_ H_ 0.679068 0.240961 0.758147 0.11455
H_ H_ 0.724028 0.276216 0.800979 0.11455
H_ H_ 0.696914 0.252366 0.849586 0.11455
H_ H_ 0.707521 0.302363 0.693931 0.11455
H_ H_ 0.645922 0.330097 0.594995 0.11455
H_ H_ 0.735116 0.340326 0.604859 0.11455
H_ H_ 0.623837 0.318989 0.712401 0.11455
H_ H_ 0.532315 0.295972 0.703081 0.11455
H_ H_ 0.554554 0.33112 0.615761 0.11455
H_ H_ 0.884935 0.485073 0.691624 0.11455
H_ H_ 0.855892 0.0633827 0.595589 0.11455
H_ H_ 0.875414 0.470467 0.601225 0.11455
H_ H_ 0.880095 0.0745141 0.713678 0.11455
H_ H_ 0.901603 0.161028 0.705258 0.11455
H_ H_ 0.86601 0.149951 0.615937 0.11455
H_ H_ 0.932287 0.394603 0.71674 0.11455
H_ H_ 0.949264 0.421561 0.765964 0.11455
H_ H_ 0.908942 0.376145 0.805592 0.11455
H_ H_ 0.828695 0.245664 0.725674 0.11455
H_ H_ 0.784501 0.207276 0.764011 0.11455
H_ H_ 0.813456 0.220947 0.813202 0.11455
H_ H_ 1.00202 0.291922 0.874071 0.11455
H_ H_ 0.00696446 0.296395 0.925741 0.11455
H_ H_ 0.748183 0.337207 0.883816 0.11455
H_ H_ 0.755105 0.339232 0.936025 0.11455
H_ H_ 0.957037 0.3963 1.00059 0.11455
H_ H_ 0.953986 0.445499 0.543602 0.11455
H_ H_ 0.944123 0.387958 0.583961 0.11455
H_ H_ 0.860332 0.252763 0.504935 0.11455
H_ H_ 0.823081 0.20823 0.546822 0.11455
H_ H_ 0.830455 0.247146 0.59541 0.11455
C_ C_ 0.735671 0.180618 0.904585 0.68181
C_ C_ 0.790467 0.173078 0.901224 -0.05681
C_ C_ 0.823162 0.177984 0.924652 -0.08735
C_ C_ 0.874983 0.180146 0.91988 -0.05681
C_ C_ 0.8957 0.170908 0.89305 -0.05681
C_ C_ 0.863598 0.168682 0.869256 -0.08735
C_ C_ 0.809309 0.169159 0.873362 -0.08735
C_ C_ 0.907813 0.181962 0.944651 -0.08735
C_ C_ 0.960427 0.180189 0.94147 -0.08735
C_ C_ 0.980837 0.176484 0.91412 -0.05681
C_ C_ 0.948336 0.170172 0.890128 -0.08735
C_ C_ 0.632681 0.27287 0.913174 0.68181
C_ C_ 0.646059 0.0767865 0.90034 0.68181
C_ C_ 0.63875 0.0196818 0.897711 -0.05681
C_ C_ 0.636275 0.489804 0.925627 -0.08735
C_ C_ 0.642833 0.436717 0.923589 -0.05681
C_ C_ 0.652662 0.415407 0.896856 -0.05681
C_ C_ 0.665831 0.447081 0.873594 -0.08735
C_ C_ 0.655536 0.49807 0.874109 -0.08735
C_ C_ 0.636824 0.404544 0.947296 -0.08735
C_ C_ 0.639678 0.3528 0.943699 -0.08735
C_ C_ 0.64195 0.32981 0.916719 -0.05681
C_ C_ 0.651955 0.361512 0.892547 -0.08735
C_ C_ 0.539225 0.170569 0.906303 0.68181
C_ C_ 0.605185 0.116354 0.982585 0.1947
C_ C_ 0.60519 0.113627 0.514404 -0.08735
C_ C_ 0.631381 0.138867 0.534481 -0.08735
C_ C_ 0.655971 0.183149 0.528433 -0.05681
C_ C_ 0.655722 0.199697 0.500211 0.18498
C_ C_ 0.67513 0.23246 0.995565 -0.08735
C_ C_ 0.716384 0.265226 0.514014 -0.08735
C_ C_ 0.711678 0.254326 0.543216 -0.08735
C_ C_ 0.677698 0.213499 0.550981 0.18498
C_ C_ 0.711455 0.193829 0.598846 0.44287
C_ C_ 0.622498 0.201151 0.593155 0.44287
C_ C_ 0.616082 0.19563 0.623817 -0.05681
C_ C_ 0.568356 0.202247 0.636056 -0.08735
C_ C_ 0.560294 0.198052 0.666032 -0.08735
C_ C_ 0.601252 0.18489 0.683136 -0.05681
C_ C_ 0.649908 0.180496 0.670521 -0.05681
C_ C_ 0.658046 0.188663 0.641182 -0.05681
C_ C_ 0.706698 0.190236 0.629039 -0.05681
C_ C_ 0.749246 0.187389 0.647792 -0.08735
C_ C_ 0.7407 0.172982 0.676322 -0.08735
C_ C_ 0.691905 0.168765 0.688432 -0.05681
C_ C_ 0.684837 0.164619 0.71917 0.44287
C_ C_ 0.597694 0.180645 0.713436 0.44287
C_ C_ 0.62762 0.150117 0.758426 0.18498
C_ C_ 0.601354 0.104827 0.764616 -0.08735
C_ C_ 0.584564 0.0942761 0.791611 -0.08735
C_ C_ 0.595362 0.125189 0.814665 -0.08735
C_ C_ 0.624578 0.169901 0.809948 0.18498
C_ C_ 0.640143 0.18302 0.781885 -0.05681
C_ C_ 0.671879 0.224612 0.778857 -0.08735
C_ C_ 0.695468 0.24696 0.802593 -0.08735
C_ C_ 0.682969 0.231363 0.829857 0.1947
C_ C_ 0.782508 0.315853 0.655396 0.68181
C_ C_ 0.728527 0.325453 0.650744 -0.05681
C_ C_ 0.693706 0.314799 0.673167 -0.08735
C_ C_ 0.641113 0.323103 0.668559 -0.05681
C_ C_ 0.623355 0.327402 0.640381 -0.05681
C_ C_ 0.658679 0.33019 0.616816 -0.08735
C_ C_ 0.710215 0.331311 0.622497 -0.08735
C_ C_ 0.608285 0.314979 0.691297 -0.08735
C_ C_ 0.555643 0.314199 0.686733 -0.08735
C_ C_ 0.535575 0.319249 0.659372 -0.05681
C_ C_ 0.570057 0.326219 0.63645 -0.08735
C_ C_ 0.88672 0.220059 0.658696 0.68181
C_ C_ 0.879234 0.415121 0.649614 0.68181
C_ C_ 0.883913 0.472954 0.646036 -0.05681
C_ C_ 0.871754 0.00335382 0.670759 -0.08735
C_ C_ 0.873055 0.0576066 0.668587 -0.05681
C_ C_ 0.873105 0.0797004 0.640923 -0.05681
C_ C_ 0.862921 0.0463968 0.617544 -0.08735
C_ C_ 0.886003 0.492787 0.618772 -0.08735
C_ C_ 0.881962 0.0868859 0.691385 -0.08735
C_ C_ 0.887439 0.139953 0.687495 -0.08735
C_ C_ 0.885506 0.163462 0.661076 -0.05681
C_ C_ 0.871811 0.131503 0.637813 -0.08735
C_ C_ 0.981697 0.323421 0.657654 0.68181
C_ C_ 0.913601 0.373093 0.733759 0.1947
C_ C_ 0.925029 0.388328 0.761691 -0.08735
C_ C_ 0.902239 0.363036 0.784095 -0.08735
C_ C_ 0.875014 0.318413 0.779078 -0.05681
C_ C_ 0.864301 0.303731 0.75159 0.18498
C_ C_ 0.833029 0.264048 0.746218 -0.08735
C_ C_ 0.813808 0.236315 0.769344 -0.08735
C_ C_ 0.829499 0.244314 0.796058 -0.08735
C_ C_ 0.858537 0.286469 0.8026 0.18498
C_ C_ 0.823574 0.31797 0.84676 0.44287
C_ C_ 0.908857 0.286286 0.845574 0.44287
C_ C_ 0.917238 0.301885 0.873156 -0.05681
C_ C_ 0.964996 0.295738 0.887593 -0.08735
C_ C_ 0.96997 0.299891 0.917444 -0.08735
C_ C_ 0.926441 0.30997 0.933982 -0.05681
C_ C_ 0.880298 0.319712 0.920774 -0.05681
C_ C_ 0.875693 0.316354 0.889829 -0.05681
C_ C_ 0.828165 0.323436 0.876712 -0.05681
C_ C_ 0.786921 0.333679 0.894418 -0.08735
C_ C_ 0.789499 0.335393 0.924301 -0.08735
C_ C_ 0.838257 0.330379 0.938302 -0.05681
C_ C_ 0.843563 0.330579 0.96844 0.44287
C_ C_ 0.929899 0.313871 0.963476 0.44287
C_ C_ 0.899706 0.346626 0.506315 0.18498
C_ C_ 0.922479 0.395583 0.512129 -0.08735
C_ C_ 0.938173 0.4092 0.539631 -0.08735
C_ C_ 0.930767 0.376123 0.562062 -0.08735
C_ C_ 0.902111 0.330031 0.558999 0.18498
C_ C_ 0.886618 0.314844 0.529399 -0.05681
C_ C_ 0.85642 0.271771 0.525625 -0.08735
C_ C_ 0.844146 0.242514 0.548635 -0.08735
C_ C_ 0.853962 0.262272 0.577426 0.1947
N_ N_ 0.634353 0.158851 0.977335 -0.29468
N_ N_ 0.670408 0.202895 0.581368 -0.17154
N_ N_ 0.638948 0.165011 0.729664 -0.17154
N_ N_ 0.645876 0.194347 0.833252 -0.29468
N_ N_ 0.881027 0.332695 0.728961 -0.29468
N_ N_ 0.865519 0.301973 0.831305 -0.17154
N_ N_ 0.889524 0.325859 0.980701 -0.17154
N_ N_ 0.884362 0.303497 0.582499 -0.29468
O_ O_ 0.716043 0.184975 0.92897 -0.58347
O_ O_ 0.707818 0.179649 0.881951 -0.58347
O_ O_ 0.626277 0.244627 0.935337 -0.58347
O_ O_ 0.635761 0.253319 0.888474 -0.58347
O_ O_ 0.648763 0.0960921 0.924461 -0.58347
O_ O_ 0.63632 0.105288 0.879322 -0.58347
O_ O_ 0.566833 0.161322 0.927908 -0.58347
O_ O_ 0.557988 0.176572 0.881809 -0.58347
O_ O_ 0.58711 0.22435 0.578155 -0.46727
O_ O_ 0.754398 0.179723 0.587155 -0.46727
O_ O_ 0.549745 0.179008 0.723716 -0.46727
O_ O_ 0.722011 0.152014 0.735598 -0.46727
O_ O_ 0.800838 0.318169 0.680726 -0.58347
O_ O_ 0.811919 0.307517 0.634372 -0.58347
O_ O_ 0.879018 0.248921 0.680563 -0.58347
O_ O_ 0.893513 0.239672 0.63377 -0.58347
O_ O_ 0.874919 0.396477 0.674878 -0.58347
O_ O_ 0.882059 0.386098 0.628849 -0.58347
O_ O_ 0.95084 0.329557 0.678336 -0.58347
O_ O_ 0.963946 0.317902 0.632831 -0.58347
O_ O_ 0.945304 0.261679 0.83076 -0.46727
O_ O_ 0.782068 0.32816 0.834363 -0.46727
O_ O_ 0.975437 0.304488 0.975262 -0.46727
O_ O_ 0.803934 0.335825 0.984637 -0.46727
Zn Zn 0.612355 0.68901 0.377223 0.90689
Zn Zn 0.622515 0.683662 0.425688 0.90689
Zn Zn 0.861079 0.821481 0.13155 0.90689
Zn Zn 0.847358 0.822325 0.178881 0.90689
H_ H_ 0.784576 0.714582 0.437771 0.11455
H_ H_ 0.859197 0.680446 0.342764 0.11455
H_ H_ 0.767395 0.683395 0.348223 0.11455
H_ H_ 0.867913 0.700832 0.463281 0.11455
H_ H_ 0.960327 0.686616 0.456363 0.11455
H_ H_ 0.947316 0.688291 0.365051 0.11455
H_ H_ 0.618853 0.512521 0.439834 0.11455
H_ H_ 0.594501 0.940013 0.352038 0.11455
H_ H_ 0.616295 0.527587 0.346689 0.11455
H_ H_ 0.639551 0.927633 0.465857 0.11455
H_ H_ 0.627819 0.836227 0.460678 0.11455
H_ H_ 0.619128 0.855715 0.368912 0.11455
H_ H_ 0.575826 0.604145 0.463365 0.11455
H_ H_ 0.547743 0.57686 0.0118287 0.11455
H_ H_ 0.586804 0.625045 0.0504201 0.11455
H_ H_ 0.682333 0.747894 0.468618 0.11455
H_ H_ 0.708334 0.794083 0.0060177 0.11455
H_ H_ 0.688608 0.778596 0.0582261 0.11455
H_ H_ 0.506877 0.702701 0.117257 0.11455
H_ H_ 0.49113 0.69383 0.169706 0.11455
H_ H_ 0.756937 0.669982 0.135942 0.11455
H_ H_ 0.744107 0.650655 0.189368 0.11455
H_ H_ 0.55091 0.584973 0.24592 0.11455
H_ H_ 0.553046 0.558579 0.295461 0.11455
H_ H_ 0.561678 0.629005 0.333194 0.11455
H_ H_ 0.651381 0.744484 0.246376 0.11455
H_ H_ 0.684859 0.789488 0.289257 0.11455
H_ H_ 0.653378 0.777053 0.33839 0.11455
H_ H_ 0.686822 0.786767 0.1901 0.11455
H_ H_ 0.615121 0.84204 0.0975283 0.11455
H_ H_ 0.707045 0.848013 0.10817 0.11455
H_ H_ 0.598117 0.789889 0.212282 0.11455
H_ H_ 0.50572 0.798346 0.204703 0.11455
H_ H_ 0.530255 0.813903 0.113421 0.11455
H_ H_ 0.844358 0.990468 0.192313 0.11455
H_ H_ 0.844308 0.571151 0.0967316 0.11455
H_ H_ 0.846633 0.982402 0.100097 0.11455
H_ H_ 0.904654 0.57058 0.209085 0.11455
H_ H_ 0.89112 0.666461 0.2089 0.11455
H_ H_ 0.855762 0.655805 0.118347 0.11455
H_ H_ 0.900443 0.897427 0.212376 0.11455
H_ H_ 0.917865 0.928076 0.261907 0.11455
H_ H_ 0.867135 0.893193 0.302691 0.11455
H_ H_ 0.791249 0.761427 0.220471 0.11455
H_ H_ 0.759231 0.710751 0.260378 0.11455
H_ H_ 0.788088 0.725122 0.30994 0.11455
H_ H_ 0.976987 0.803966 0.367731 0.11455
H_ H_ -0.008251000000000008 0.820344 0.415804 0.11455
H_ H_ 0.731584 0.854458 0.386568 0.11455
H_ H_ 0.735253 0.836588 0.438645 0.11455
H_ H_ 0.930213 0.907542 0.496696 0.11455
H_ H_ 0.952077 0.939186 0.0463355 0.11455
H_ H_ 0.916408 0.892881 0.0880518 0.11455
H_ H_ 0.821528 0.765177 0.00703015 0.11455
H_ H_ 0.783045 0.726481 0.0465674 0.11455
H_ H_ 0.803909 0.752931 0.0962979 0.11455
C_ C_ 0.714238 0.69108 0.39815 0.68181
C_ C_ 0.770758 0.699082 0.394424 -0.05681
C_ C_ 0.803058 0.70171 0.418587 -0.08735
C_ C_ 0.85588 0.69715 0.415791 -0.05681
C_ C_ 0.876158 0.687529 0.389346 -0.05681
C_ C_ 0.844015 0.681683 0.36511 -0.08735
C_ C_ 0.790546 0.686655 0.367788 -0.08735
C_ C_ 0.885904 0.699057 0.440167 -0.08735
C_ C_ 0.937513 0.692438 0.437375 -0.08735
C_ C_ 0.960663 0.693327 0.410405 -0.05681
C_ C_ 0.929692 0.69246 0.385876 -0.08735
C_ C_ 0.609018 0.783747 0.410148 0.68181
C_ C_ 0.624746 0.587772 0.395294 0.68181
C_ C_ 0.62265 0.530139 0.392936 -0.05681
C_ C_ 0.640166 0.995838 0.424271 -0.08735
C_ C_ 0.631474 0.944741 0.420672 -0.05681
C_ C_ 0.622176 0.923735 0.393052 -0.05681
C_ C_ 0.610378 0.956615 0.371184 -0.08735
C_ C_ 0.616706 1.00921033 0.374243 -0.08735
C_ C_ 0.630387 0.912457 0.444883 -0.08735
C_ C_ 0.626311 0.859915 0.441048 -0.08735
C_ C_ 0.613634 0.841064 0.414424 -0.05681
C_ C_ 0.615684 0.871556 0.389818 -0.08735
C_ C_ 0.520467 0.678823 0.402755 0.68181
C_ C_ 0.593735 0.627542 0.479705 0.1947
C_ C_ 0.570817 0.611527 0.00769519 -0.08735
C_ C_ 0.593673 0.638011 0.0306406 -0.08735
C_ C_ 0.632067 0.67498 0.0260374 -0.05681
C_ C_ 0.645189 0.686158 0.996779 0.18498
C_ C_ 0.672041 0.740969 0.490225 -0.08735
C_ C_ 0.688652 0.759425 0.0128798 -0.08735
C_ C_ 0.679928 0.749531 0.0413281 -0.08735
C_ C_ 0.651777 0.706124 0.049293 0.18498
C_ C_ 0.68155 0.679118 0.0952922 0.44287
C_ C_ 0.596925 0.704033 0.0910842 0.44287
C_ C_ 0.5864 0.68885 0.11844 -0.05681
C_ C_ 0.539154 0.693914 0.130993 -0.08735
C_ C_ 0.529587 0.684131 0.160829 -0.08735
C_ C_ 0.570884 0.675915 0.17862 -0.05681
C_ C_ 0.619856 0.672334 0.166861 -0.05681
C_ C_ 0.626461 0.674856 0.137186 -0.05681
C_ C_ 0.674959 0.668248 0.125531 -0.05681
C_ C_ 0.718295 0.664423 0.143176 -0.08735
C_ C_ 0.712168 0.657988 0.173117 -0.08735
C_ C_ 0.660439 0.660157 0.18386 -0.05681
C_ C_ 0.652357 0.657675 0.21379 0.44287
C_ C_ 0.566811 0.6802 0.208051 0.44287
C_ C_ 0.597799 0.6545 0.254076 0.18498
C_ C_ 0.568069 0.611937 0.262647 -0.08735
C_ C_ 0.566083 0.596324 0.290217 -0.08735
C_ C_ 0.578763 0.631651 0.312337 -0.08735
C_ C_ 0.607997 0.673126 0.305808 0.18498
C_ C_ 0.614082 0.687514 0.276165 -0.05681
C_ C_ 0.641068 0.733899 0.26989 -0.08735
C_ C_ 0.65574 0.765189 0.2924 -0.08735
C_ C_ 0.645277 0.750164 0.320969 0.1947
C_ C_ 0.75851 0.815055 0.153154 0.68181
C_ C_ 0.704554 0.812906 0.148355 -0.05681
C_ C_ 0.672216 0.802734 0.17116 -0.08735
C_ C_ 0.618279 0.804616 0.167305 -0.05681
C_ C_ 0.59711 0.817429 0.141316 -0.05681
C_ C_ 0.628368 0.832539 0.119105 -0.08735
C_ C_ 0.681288 0.833438 0.12335 -0.08735
C_ C_ 0.582492 0.794767 0.189647 -0.08735
C_ C_ 0.530558 0.800745 0.185742 -0.08735
C_ C_ 0.5097 0.807873 0.158183 -0.05681
C_ C_ 0.545554 0.813043 0.135205 -0.08735
C_ C_ 0.867198 0.725318 0.161941 0.68181
C_ C_ 0.850804 0.922345 0.149252 0.68181
C_ C_ 0.849177 0.97931 0.146934 -0.05681
C_ C_ 0.877649 0.50922 0.169648 -0.08735
C_ C_ 0.884385 0.561993 0.166194 -0.05681
C_ C_ 0.871919 0.585097 0.13994 -0.05681
C_ C_ 0.860351 0.553862 0.11623 -0.08735
C_ C_ 0.849921 1.00371318 0.119499 -0.08735
C_ C_ 0.89561 0.591078 0.18933 -0.08735
C_ C_ 0.889949 0.644277 0.188359 -0.08735
C_ C_ 0.872578 0.667942 0.163107 -0.05681
C_ C_ 0.866629 0.638314 0.138797 -0.08735
C_ C_ 0.955838 0.83366 0.155434 0.68181
C_ C_ 0.880846 0.880039 0.230807 0.1947
C_ C_ 0.895623 0.893792 0.25811 -0.08735
C_ C_ 0.872879 0.871661 0.281488 -0.08735
C_ C_ 0.844749 0.829038 0.276751 -0.05681
C_ C_ 0.831185 0.814459 0.248179 0.18498
C_ C_ 0.79975 0.773498 0.242825 -0.08735
C_ C_ 0.783467 0.742739 0.265492 -0.08735
C_ C_ 0.797779 0.754332 0.293639 -0.08735
C_ C_ 0.825505 0.799781 0.30012 0.18498
C_ C_ 0.796881 0.823911 0.348062 0.44287
C_ C_ 0.885493 0.810069 0.340176 0.44287
C_ C_ 0.894568 0.817911 0.369844 -0.05681
C_ C_ 0.943421 0.815967 0.380064 -0.08735
C_ C_ 0.95236 0.819001 0.408544 -0.08735
C_ C_ 0.911486 0.821148 0.428379 -0.05681
C_ C_ 0.862659 0.820103 0.41867 -0.05681
C_ C_ 0.854544 0.820213 0.38914 -0.05681
C_ C_ 0.805576 0.826977 0.377394 -0.05681
C_ C_ 0.764885 0.83869 0.396378 -0.08735
C_ C_ 0.770704 0.833464 0.426166 -0.08735
C_ C_ 0.820539 0.82405 0.437929 -0.05681
C_ C_ 0.83067 0.828084 0.467121 0.44287
C_ C_ 0.918616 0.821823 0.458394 0.44287
C_ C_ 0.885171 0.851783 0.00943562 0.18498
C_ C_ 0.912883 0.895627 0.014797 -0.08735
C_ C_ 0.923834 0.909593 0.0428732 -0.08735
C_ C_ 0.906512 0.881306 0.0660207 -0.08735
C_ C_ 0.875995 0.838888 0.0609084 0.18498
C_ C_ 0.865411 0.82428 0.0319356 -0.05681
C_ C_ 0.836134 0.777048 0.0280446 -0.08735
C_ C_ 0.817645 0.751518 0.0510583 -0.08735
C_ C_ 0.827422 0.770474 0.0788671 0.1947
N_ N_ 0.620273 0.671537 0.47401 -0.29468
N_ N_ 0.643239 0.695003 0.0790343 -0.17154
N_ N_ 0.605353 0.663153 0.224375 -0.17154
N_ N_ 0.621038 0.705115 0.327584 -0.29468
N_ N_ 0.849547 0.840659 0.225571 -0.29468
N_ N_ 0.837502 0.810403 0.330162 -0.17154
N_ N_ 0.879029 0.824706 0.477747 -0.17154
N_ N_ 0.857456 0.810361 0.0840837 -0.29468
O_ O_ 0.693249 0.694967 0.4232 -0.58347
O_ O_ 0.685697 0.69214 0.376707 -0.58347
O_ O_ 0.613765 0.756356 0.432236 -0.58347
O_ O_ 0.607034 0.763409 0.385844 -0.58347
O_ O_ 0.62914 0.610664 0.418725 -0.58347
O_ O_ 0.618258 0.612616 0.372772 -0.58347
O_ O_ 0.547633 0.676322 0.424759 -0.58347
O_ O_ 0.540044 0.688308 0.377876 -0.58347
O_ O_ 0.560056 0.715411 0.0739084 -0.46727
O_ O_ 0.7263 0.668164 0.0835694 -0.46727
O_ O_ 0.52442 0.692715 0.220554 -0.46727
O_ O_ 0.692197 0.652493 0.230784 -0.46727
O_ O_ 0.774659 0.819259 0.179136 -0.58347
O_ O_ 0.787676 0.819509 0.131197 -0.58347
O_ O_ 0.856902 0.74933 0.185244 -0.58347
O_ O_ 0.862435 0.74899 0.137539 -0.58347
O_ O_ 0.840865 0.899415 0.173089 -0.58347
O_ O_ 0.854496 0.8954 0.126721 -0.58347
O_ O_ 0.927406 0.830616 0.178154 -0.58347
O_ O_ 0.934427 0.831735 0.130563 -0.58347
O_ O_ 0.923944 0.80317 0.32212 -0.46727
O_ O_ 0.750016 0.819085 0.339153 -0.46727
O_ O_ 0.965249 0.812967 0.467492 -0.46727
O_ O_ 0.794376 0.847545 0.482947 -0.46727
Zn Zn 0.625617 0.680677 0.88056 0.90689
Zn Zn 0.629481 0.674555 0.927391 0.90689
Zn Zn 0.879886 0.809555 0.63252 0.90689
Zn Zn 0.870845 0.820163 0.678855 0.90689
H_ H_ 0.802244 0.70647 0.943027 0.11455
H_ H_ 0.869556 0.647993 0.84683 0.11455
H_ H_ 0.780826 0.670387 0.853323 0.11455
H_ H_ 0.886519 0.701046 0.964518 0.11455
H_ H_ 0.975116 0.70787 0.956308 0.11455
H_ H_ 0.958713 0.660734 0.86789 0.11455
H_ H_ 0.642044 0.507711 0.946772 0.11455
H_ H_ 0.643273 0.9302 0.845764 0.11455
H_ H_ 0.660119 0.521445 0.855291 0.11455
H_ H_ 0.632389 0.918696 0.961746 0.11455
H_ H_ 0.61747 0.832337 0.957024 0.11455
H_ H_ 0.630057 0.845845 0.866303 0.11455
H_ H_ 0.568862 0.604686 0.961962 0.11455
H_ H_ 0.563034 0.580339 0.514075 0.11455
H_ H_ 0.581551 0.641692 0.551433 0.11455
H_ H_ 0.67428 0.742815 0.969627 0.11455
H_ H_ 0.719161 0.799941 0.506991 0.11455
H_ H_ 0.693766 0.786321 0.558134 0.11455
H_ H_ 0.498738 0.7009 0.621725 0.11455
H_ H_ 0.493463 0.694492 0.673808 0.11455
H_ H_ 0.754968 0.696389 0.635388 0.11455
H_ H_ 0.743914 0.673274 0.686102 0.11455
H_ H_ 0.582981 0.574842 0.744543 0.11455
H_ H_ 0.563651 0.548301 0.792908 0.11455
H_ H_ 0.587495 0.599283 0.833135 0.11455
H_ H_ 0.635344 0.749987 0.757376 0.11455
H_ H_ 0.67728 0.794341 0.796527 0.11455
H_ H_ 0.678198 0.751657 0.843057 0.11455
H_ H_ 0.703871 0.820102 0.696298 0.11455
H_ H_ 0.630527 0.826097 0.595919 0.11455
H_ H_ 0.72941 0.821369 0.605567 0.11455
H_ H_ 0.62028 0.814822 0.714909 0.11455
H_ H_ 0.528471 0.805205 0.705892 0.11455
H_ H_ 0.548954 0.829633 0.615575 0.11455
H_ H_ 0.876515 0.985984 0.692463 0.11455
H_ H_ 0.881949 0.562535 0.594835 0.11455
H_ H_ 0.863155 0.970968 0.600179 0.11455
H_ H_ 0.872872 0.566077 0.712302 0.11455
H_ H_ 0.883993 0.661482 0.708908 0.11455
H_ H_ 0.871427 0.647937 0.618418 0.11455
H_ H_ 0.939124 0.881811 0.715168 0.11455
H_ H_ 0.947659 0.915313 0.765454 0.11455
H_ H_ 0.90173 0.877942 0.803816 0.11455
H_ H_ 0.802252 0.760661 0.721872 0.11455
H_ H_ 0.767941 0.714005 0.761298 0.11455
H_ H_ 0.782547 0.740287 0.811869 0.11455
H_ H_ 0.97607 0.806637 0.870198 0.11455
H_ H_ 0.992927 0.807342 0.921737 0.11455
H_ H_ 0.7231 0.842563 0.888492 0.11455
H_ H_ 0.742327 0.861128 0.937903 0.11455
H_ H_ 0.933078 0.9167 0.998343 0.11455
H_ H_ 0.966163 0.919587 0.546245 0.11455
H_ H_ 0.922937 0.879894 0.586465 0.11455
H_ H_ 0.841228 0.752984 0.505708 0.11455
H_ H_ 0.804572 0.707969 0.547177 0.11455
H_ H_ 0.819851 0.738486 0.596139 0.11455
C_ C_ 0.726778 0.682906 0.902149 0.68181
C_ C_ 0.781681 0.679041 0.899983 -0.05681
C_ C_ 0.81591 0.688633 0.92342 -0.08735
C_ C_ 0.866988 0.679735 0.919986 -0.05681
C_ C_ 0.888851 0.666842 0.892406 -0.05681
C_ C_ 0.855789 0.660936 0.868724 -0.08735
C_ C_ 0.803346 0.665172 0.87241 -0.08735
C_ C_ 0.900742 0.689256 0.942959 -0.08735
C_ C_ 0.95379 0.694225 0.937998 -0.08735
C_ C_ 0.975683 0.679291 0.910858 -0.05681
C_ C_ 0.943087 0.666958 0.888471 -0.08735
C_ C_ 0.615404 0.774267 0.90825 0.68181
C_ C_ 0.639271 0.577261 0.901828 0.68181
C_ C_ 0.643995 0.520767 0.900771 -0.05681
C_ C_ 0.633922 -0.010943999999999954 0.921043 -0.08735
C_ C_ 0.62748 0.937398 0.917487 -0.05681
C_ C_ 0.634418 0.915035 0.889806 -0.05681
C_ C_ 0.642603 0.946152 0.866442 -0.08735
C_ C_ 0.647647 -0.0025159999999999627 0.871421 -0.08735
C_ C_ 0.629444 0.904754 0.94104 -0.08735
C_ C_ 0.622611 0.852498 0.937616 -0.08735
C_ C_ 0.620265 0.830764 0.910425 -0.05681
C_ C_ 0.627094 0.863393 0.886503 -0.08735
C_ C_ 0.530153 0.670916 0.903772 0.68181
C_ C_ 0.582534 0.627354 0.980474 0.1947
C_ C_ 0.583473 0.615408 0.508652 -0.08735
C_ C_ 0.594774 0.649516 0.531086 -0.08735
C_ C_ 0.624767 0.692567 0.525705 -0.05681
C_ C_ 0.637785 0.701819 0.496032 0.18498
C_ C_ 0.674785 0.728481 0.991611 -0.08735
C_ C_ 0.69384 0.771945 0.511887 -0.08735
C_ C_ 0.679358 0.763954 0.540744 -0.08735
C_ C_ 0.648215 0.722882 0.548484 0.18498
C_ C_ 0.679795 0.699944 0.595494 0.44287
C_ C_ 0.592587 0.714644 0.591241 0.44287
C_ C_ 0.582735 0.700408 0.620287 -0.05681
C_ C_ 0.533086 0.694069 0.632935 -0.08735
C_ C_ 0.528179 0.688559 0.662652 -0.08735
C_ C_ 0.57072 0.681137 0.680085 -0.05681
C_ C_ 0.618555 0.685205 0.667844 -0.05681
C_ C_ 0.625194 0.691044 0.637758 -0.05681
C_ C_ 0.674442 0.695833 0.625374 -0.05681
C_ C_ 0.716373 0.690777 0.643395 -0.08735
C_ C_ 0.710289 0.681323 0.673285 -0.08735
C_ C_ 0.66227 0.681614 0.685196 -0.05681
C_ C_ 0.656624 0.670928 0.714549 0.44287
C_ C_ 0.567943 0.671481 0.70995 0.44287
C_ C_ 0.604709 0.650605 0.756363 0.18498
C_ C_ 0.586875 0.601576 0.761292 -0.08735
C_ C_ 0.577477 0.585209 0.789599 -0.08735
C_ C_ 0.588332 0.616062 0.812688 -0.08735
C_ C_ 0.610429 0.664736 0.809615 0.18498
C_ C_ 0.618603 0.681042 0.78063 -0.05681
C_ C_ 0.634676 0.730814 0.776852 -0.08735
C_ C_ 0.654588 0.758969 0.799323 -0.08735
C_ C_ 0.655373 0.736188 0.826903 0.1947
C_ C_ 0.777112 0.821547 0.653565 0.68181
C_ C_ 0.722281 0.820256 0.650402 -0.05681
C_ C_ 0.689371 0.820865 0.674525 -0.08735
C_ C_ 0.636391 0.822484 0.670525 -0.05681
C_ C_ 0.615159 0.826445 0.642363 -0.05681
C_ C_ 0.647666 0.825668 0.618072 -0.08735
C_ C_ 0.701367 0.8235 0.623116 -0.08735
C_ C_ 0.604479 0.819285 0.693337 -0.08735
C_ C_ 0.552935 0.814287 0.688642 -0.08735
C_ C_ 0.529754 0.822468 0.660982 -0.05681
C_ C_ 0.562482 0.829764 0.638128 -0.08735
C_ C_ 0.88234 0.717432 0.659747 0.68181
C_ C_ 0.8711 0.914169 0.650839 0.68181
C_ C_ 0.86759 0.970839 0.647061 -0.05681
C_ C_ 0.884545 0.502631 0.671274 -0.08735
C_ C_ 0.881039 0.554715 0.668502 -0.05681
C_ C_ 0.879166 0.575776 0.640954 -0.05681
C_ C_ 0.884159 0.547099 0.615812 -0.08735
C_ C_ 0.867428 0.993386 0.619653 -0.08735
C_ C_ 0.883788 0.585918 0.691998 -0.08735
C_ C_ 0.883335 0.638141 0.689842 -0.08735
C_ C_ 0.881813 0.661057 0.662205 -0.05681
C_ C_ 0.879886 0.628491 0.637595 -0.08735
C_ C_ 0.97513 0.815822 0.655663 0.68181
C_ C_ 0.915918 0.864179 0.732006 0.1947
C_ C_ 0.919528 0.886782 0.75933 -0.08735
C_ C_ 0.891434 0.867348 0.781868 -0.08735
C_ C_ 0.860095 0.826872 0.776957 -0.05681
C_ C_ 0.847376 0.814559 0.748625 0.18498
C_ C_ 0.813963 0.772446 0.743604 -0.08735
C_ C_ 0.795623 0.743423 0.765658 -0.08735
C_ C_ 0.804032 0.758913 0.793399 -0.08735
C_ C_ 0.835815 0.799013 0.800571 0.18498
C_ C_ 0.801944 0.822086 0.848251 0.44287
C_ C_ 0.88613 0.794891 0.843252 0.44287
C_ C_ 0.897109 0.808067 0.872365 -0.05681
C_ C_ 0.945822 0.807833 0.884404 -0.08735
C_ C_ 0.952797 0.811501 0.914884 -0.08735
C_ C_ 0.910966 0.820818 0.932606 -0.05681
C_ C_ 0.862954 0.826759 0.920126 -0.05681
C_ C_ 0.855737 0.818647 0.890096 -0.05681
C_ C_ 0.806775 0.826777 0.878216 -0.05681
C_ C_ 0.764513 0.838578 0.895765 -0.08735
C_ C_ 0.774705 0.846571 0.925248 -0.08735
C_ C_ 0.823065 0.840202 0.938487 -0.05681
C_ C_ 0.831452 0.846743 0.967772 0.44287
C_ C_ 0.9184 0.826838 0.962698 0.44287
C_ C_ 0.890659 0.837447 0.50729 0.18498
C_ C_ 0.921173 0.881686 0.513353 -0.08735
C_ C_ 0.938534 0.891281 0.540881 -0.08735
C_ C_ 0.918284 0.864193 0.563403 -0.08735
C_ C_ 0.887066 0.824417 0.559506 0.18498
C_ C_ 0.872653 0.81034 0.531653 -0.05681
C_ C_ 0.843026 0.768261 0.527045 -0.08735
C_ C_ 0.830036 0.737224 0.550725 -0.08735
C_ C_ 0.841536 0.754168 0.578679 0.1947
N_ N_ 0.620141 0.662134 0.97471 -0.29468
N_ N_ 0.639092 0.712014 0.579221 -0.17154
N_ N_ 0.608833 0.667157 0.726706 -0.17154
N_ N_ 0.627382 0.693535 0.832422 -0.29468
N_ N_ 0.87428 0.834 0.726426 -0.29468
N_ N_ 0.841686 0.80749 0.831234 -0.17154
N_ N_ 0.876768 0.836587 0.980258 -0.17154
N_ N_ 0.867168 0.798765 0.583206 -0.29468
O_ O_ 0.705394 0.676656 0.927396 -0.58347
O_ O_ 0.69956 0.681501 0.879782 -0.58347
O_ O_ 0.614255 0.747363 0.930682 -0.58347
O_ O_ 0.624966 0.755497 0.884759 -0.58347
O_ O_ 0.637486 0.599284 0.926321 -0.58347
O_ O_ 0.630133 0.602454 0.878171 -0.58347
O_ O_ 0.559373 0.6657 0.925424 -0.58347
O_ O_ 0.549567 0.671829 0.879058 -0.58347
O_ O_ 0.554606 0.723779 0.575406 -0.46727
O_ O_ 0.724152 0.694687 0.584354 -0.46727
O_ O_ 0.522891 0.662825 0.72018 -0.46727
O_ O_ 0.697647 0.669563 0.732021 -0.46727
O_ O_ 0.794747 0.831995 0.678683 -0.58347
O_ O_ 0.804383 0.800878 0.635209 -0.58347
O_ O_ 0.865418 0.741826 0.680974 -0.58347
O_ O_ 0.892915 0.737981 0.635981 -0.58347
O_ O_ 0.880829 0.896449 0.676072 -0.58347
O_ O_ 0.866066 0.883019 0.629177 -0.58347
O_ O_ 0.945583 0.812675 0.677257 -0.58347
O_ O_ 0.956347 0.824171 0.63124 -0.58347
O_ O_ 0.921652 0.775727 0.826668 -0.46727
O_ O_ 0.756845 0.825534 0.836434 -0.46727
O_ O_ 0.965317 0.829145 0.972745 -0.46727
O_ O_ 0.792054 0.858648 0.983456 -0.46727
_cell_length_a 26.376
_cell_length_b 26.400000238300095
_cell_length_c 46.67800035477134
_cell_angle_alpha 90.00700052986613
_cell_angle_beta 89.99899961309502
_cell_angle_gamma 90.45000003183146
_symmetry_space_group_name_H-M         'P 1'
_symmetry_Int_Tables_number            1
loop_
_symmetry_equiv_pos_as_xyz
   'x, y, z'
                         
loop_
_atom_site_label
_atom_site_type_symbol
_atom_site_fract_x 
_atom_site_fract_y
_atom_site_fract_z
_atom_site_charge
Zn Zn 0.135977 0.185648 0.384984 0.90689
Zn Zn 0.147876 0.179275 0.432998 0.90689
Zn Zn 0.372961 0.309059 0.132662 0.90689
Zn Zn 0.363184 0.313967 0.17912 0.90689
H_ H_ 0.313076 0.18466 0.447264 0.11455
H_ H_ 0.378886 0.146994 0.349052 0.11455
H_ H_ 0.286916 0.157068 0.356218 0.11455
H_ H_ 0.400325 0.20245 0.46404 0.11455
H_ H_ 0.492927 0.187542 0.456832 0.11455
H_ H_ 0.466972 0.144307 0.370255 0.11455
H_ H_ 0.138505 0.00819576 0.448934 0.11455
H_ H_ 0.123658 0.433166 0.351086 0.11455
H_ H_ 0.116599 0.0308784 0.358498 0.11455
H_ H_ 0.117147 0.42784 0.468766 0.11455
H_ H_ 0.12363 0.336867 0.464224 0.11455
H_ H_ 0.152765 0.35384 0.373042 0.11455
H_ H_ 0.0955882 0.112739 0.469745 0.11455
H_ H_ 0.0858373 0.0720646 0.0179374 0.11455
H_ H_ 0.121836 0.119956 0.0602354 0.11455
H_ H_ 0.208403 0.254558 0.478169 0.11455
H_ H_ 0.214898 0.310216 0.017591 0.11455
H_ H_ 0.188111 0.289278 0.0660423 0.11455
H_ H_ 0.0152479 0.20931 0.126148 0.11455
H_ H_ 0.00285946 0.197115 0.180913 0.11455
H_ H_ 0.26307 0.165888 0.138655 0.11455
H_ H_ 0.253454 0.152366 0.191289 0.11455
H_ H_ 0.0721659 0.0871722 0.254508 0.11455
H_ H_ 0.0592368 0.0651171 0.304721 0.11455
H_ H_ 0.0907817 0.116157 0.343213 0.11455
H_ H_ 0.173488 0.244884 0.260146 0.11455
H_ H_ 0.201487 0.296774 0.301929 0.11455
H_ H_ 0.190639 0.263217 0.350743 0.11455
H_ H_ 0.199409 0.310611 0.195836 0.11455
H_ H_ 0.128011 0.332934 0.0974397 0.11455
H_ H_ 0.220105 0.315863 0.106693 0.11455
H_ H_ 0.112032 0.314858 0.216295 0.11455
H_ H_ 0.0245974 0.339375 0.208284 0.11455
H_ H_ 0.0405628 0.323105 0.11663 0.11455
H_ H_ 0.344779 0.479911 0.193123 0.11455
H_ H_ 0.354132 0.0584351 0.0967545 0.11455
H_ H_ 0.35265 0.473094 0.101835 0.11455
H_ H_ 0.389023 0.0593874 0.212967 0.11455
H_ H_ 0.394537 0.153996 0.208832 0.11455
H_ H_ 0.353577 0.145255 0.120847 0.11455
H_ H_ 0.400414 0.391521 0.218367 0.11455
H_ H_ 0.406131 0.42376 0.265235 0.11455
H_ H_ 0.384631 0.367532 0.306529 0.11455
H_ H_ 0.311837 0.228365 0.224326 0.11455
H_ H_ 0.287647 0.177792 0.265669 0.11455
H_ H_ 0.317849 0.202342 0.315229 0.11455
H_ H_ 0.493041 0.26587 0.371999 0.11455
H_ H_ 0.507156 0.276645 0.421582 0.11455
H_ H_ 0.257733 0.358948 0.386613 0.11455
H_ H_ 0.271656 0.365955 0.436496 0.11455
H_ H_ 0.46794 0.401908 0.495941 0.11455
H_ H_ 0.458979 0.424513 0.0470419 0.11455
H_ H_ 0.426535 0.37625 0.0861985 0.11455
H_ H_ 0.340964 0.246454 0.00577162 0.11455
H_ H_ 0.309024 0.201339 0.0502813 0.11455
H_ H_ 0.334942 0.229529 0.0983764 0.11455
C_ C_ 0.239229 0.1787 0.406225 0.68181
C_ C_ 0.293606 0.176897 0.401926 -0.05681
C_ C_ 0.327473 0.182537 0.425729 -0.08735
C_ C_ 0.379301 0.181435 0.420658 -0.05681
C_ C_ 0.398208 0.168431 0.393825 -0.05681
C_ C_ 0.364255 0.156946 0.370453 -0.08735
C_ C_ 0.313852 0.162915 0.373989 -0.08735
C_ C_ 0.413919 0.188931 0.443674 -0.08735
C_ C_ 0.466557 0.183344 0.439317 -0.08735
C_ C_ 0.485963 0.169894 0.412334 -0.05681
C_ C_ 0.452047 0.162331 0.389908 -0.08735
C_ C_ 0.135179 0.280508 0.413968 0.68181
C_ C_ 0.143686 0.0828681 0.405298 0.68181
C_ C_ 0.135923 0.0270637 0.403501 -0.05681
C_ C_ 0.11912 0.495876 0.424937 -0.08735
C_ C_ 0.12439 0.443535 0.422774 -0.05681
C_ C_ 0.133101 0.42099 0.395813 -0.05681
C_ C_ 0.131745 0.450306 0.371599 -0.08735
C_ C_ 0.121613 0.502255 0.372801 -0.08735
C_ C_ 0.122894 0.412718 0.446849 -0.08735
C_ C_ 0.125092 0.361102 0.444546 -0.08735
C_ C_ 0.133346 0.337463 0.41774 -0.05681
C_ C_ 0.143029 0.368258 0.39363 -0.08735
C_ C_ 0.0423581 0.177726 0.409999 0.68181
C_ C_ 0.117446 0.133265 0.486721 0.1947
C_ C_ 0.102545 0.108623 0.0155708 -0.08735
C_ C_ 0.125985 0.134881 0.037799 -0.08735
C_ C_ 0.145396 0.182539 0.0327066 -0.05681
C_ C_ 0.158066 0.197356 1.00404996 0.18498
C_ C_ 0.192766 0.247365 0.498158 -0.08735
C_ C_ 0.201024 0.271743 0.0231895 -0.08735
C_ C_ 0.183952 0.260784 0.0504158 -0.08735
C_ C_ 0.155503 0.217737 0.0561223 0.18498
C_ C_ 0.187417 0.186273 0.100946 0.44287
C_ C_ 0.100409 0.203285 0.0970972 0.44287
C_ C_ 0.093939 0.192916 0.126839 -0.05681
C_ C_ 0.0455384 0.195912 0.139374 -0.08735
C_ C_ 0.0395867 0.192458 0.170199 -0.08735
C_ C_ 0.0829644 0.187111 0.187512 -0.05681
C_ C_ 0.130713 0.184857 0.174469 -0.05681
C_ C_ 0.136583 0.18632 0.144142 -0.05681
C_ C_ 0.185071 0.183251 0.130763 -0.05681
C_ C_ 0.228338 0.177491 0.148875 -0.08735
C_ C_ 0.222826 0.170635 0.179177 -0.08735
C_ C_ 0.174522 0.176163 0.191672 -0.05681
C_ C_ 0.17003 0.172305 0.221715 0.44287
C_ C_ 0.0813929 0.181798 0.21713 0.44287
C_ C_ 0.114401 0.157633 0.263434 0.18498
C_ C_ 0.087561 0.112835 0.270961 -0.08735
C_ C_ 0.0782641 0.100775 0.298732 -0.08735
C_ C_ 0.0992947 0.127851 0.320817 -0.08735
C_ C_ 0.128441 0.173469 0.315564 0.18498
C_ C_ 0.137188 0.188905 0.286296 -0.05681
C_ C_ 0.165373 0.232914 0.281952 -0.08735
C_ C_ 0.187345 0.258184 0.304179 -0.08735
C_ C_ 0.180474 0.240423 0.33298 0.1947
C_ C_ 0.270691 0.308616 0.15423 0.68181
C_ C_ 0.215009 0.307904 0.150412 -0.05681
C_ C_ 0.182792 0.311565 0.174401 -0.08735
C_ C_ 0.129235 0.314381 0.170466 -0.05681
C_ C_ 0.109268 0.31924 0.141692 -0.05681
C_ C_ 0.142084 0.32075 0.118752 -0.08735
C_ C_ 0.195468 0.315772 0.123212 -0.08735
C_ C_ 0.0968672 0.31715 0.194391 -0.08735
C_ C_ 0.0459249 0.327109 0.19139 -0.08735
C_ C_ 0.023226 0.323372 0.162278 -0.05681
C_ C_ 0.0561018 0.320808 0.138609 -0.08735
C_ C_ 0.376159 0.212474 0.162829 0.68181
C_ C_ 0.354361 0.411676 0.151329 0.68181
C_ C_ 0.347858 0.46762 0.14863 -0.05681
C_ C_ 0.358237 -0.0035650000000000404 0.172606 -0.08735
C_ C_ 0.363751 0.0494087 0.16975 -0.05681
C_ C_ 0.358684 0.0734597 0.142963 -0.05681
C_ C_ 0.352744 0.0426559 0.118244 -0.08735
C_ C_ 0.358166 0.491098 0.123302 -0.08735
C_ C_ 0.376083 0.0794796 0.19355 -0.08735
C_ C_ 0.38089 0.133291 0.190967 -0.08735
C_ C_ 0.370881 0.156357 0.164455 -0.05681
C_ C_ 0.358999 0.126183 0.14044 -0.08735
C_ C_ 0.46668 0.308026 0.159747 0.68181
C_ C_ 0.381732 0.369743 0.233645 0.1947
C_ C_ 0.39148 0.385681 0.261412 -0.08735
C_ C_ 0.379003 0.354234 0.284186 -0.08735
C_ C_ 0.358376 0.306632 0.278926 -0.05681
C_ C_ 0.35042 0.290584 0.250667 0.18498
C_ C_ 0.325789 0.242068 0.245294 -0.08735
C_ C_ 0.307539 0.213288 0.269724 -0.08735
C_ C_ 0.325651 0.22585 0.297466 -0.08735
C_ C_ 0.347672 0.274166 0.302176 0.18498
C_ C_ 0.31954 0.311259 0.347375 0.44287
C_ C_ 0.406522 0.282126 0.342459 0.44287
C_ C_ 0.417919 0.297876 0.370271 -0.05681
C_ C_ 0.464329 0.288407 0.383032 -0.08735
C_ C_ 0.472595 0.292674 0.412406 -0.08735
C_ C_ 0.434115 0.309759 0.430284 -0.05681
C_ C_ 0.385767 0.321088 0.418076 -0.05681
C_ C_ 0.378627 0.315108 0.388963 -0.05681
C_ C_ 0.331116 0.328644 0.375544 -0.05681
C_ C_ 0.293376 0.346494 0.393644 -0.08735
C_ C_ 0.302106 0.350403 0.423206 -0.08735
C_ C_ 0.347854 0.340639 0.436156 -0.05681
C_ C_ 0.357793 0.346475 0.46503 0.44287
C_ C_ 0.44053 0.31593 0.460094 0.44287
C_ C_ 0.396576 0.333302 0.00804336 0.18498
C_ C_ 0.427273 0.375217 0.0148236 -0.08735
C_ C_ 0.438332 0.390731 0.0421287 -0.08735
C_ C_ 0.41606 0.364998 0.0647282 -0.08735
C_ C_ 0.389598 0.322381 0.0603248 0.18498
C_ C_ 0.379917 0.30356 0.0308529 -0.05681
C_ C_ 0.34956 0.26027 0.0277248 -0.08735
C_ C_ 0.332904 0.236058 0.0528655 -0.08735
C_ C_ 0.344013 0.254085 0.0798742 0.1947
N_ N_ 0.145646 0.175103 0.481674 -0.29468
N_ N_ 0.146908 0.203929 0.0854895 -0.17154
N_ N_ 0.123649 0.171457 0.233643 -0.17154
N_ N_ 0.147235 0.20127 0.337065 -0.29468
N_ N_ 0.362584 0.322745 0.227664 -0.29468
N_ N_ 0.356425 0.288493 0.331352 -0.17154
N_ N_ 0.402034 0.331248 0.47729 -0.17154
N_ N_ 0.372017 0.29739 0.0831244 -0.29468
O_ O_ 0.220315 0.166818 0.431367 -0.58347
O_ O_ 0.210283 0.192248 0.386362 -0.58347
O_ O_ 0.150842 0.253386 0.434507 -0.58347
O_ O_ 0.126102 0.261045 0.389817 -0.58347
O_ O_ 0.139042 0.105256 0.428779 -0.58347
O_ O_ 0.146159 0.108787 0.381525 -0.58347
O_ O_ 0.0718996 0.189595 0.430039 -0.58347
O_ O_ 0.0614681 0.171534 0.3858 -0.58347
O_ O_ 0.0600334 0.206781 0.0805271 -0.46727
O_ O_ 0.231105 0.179595 0.0881529 -0.46727
O_ O_ 0.0367934 0.192953 0.229573 -0.46727
O_ O_ 0.20976 0.153854 0.236387 -0.46727
O_ O_ 0.28903 0.31462 0.179396 -0.58347
O_ O_ 0.299706 0.297846 0.132797 -0.58347
O_ O_ 0.359231 0.240017 0.182334 -0.58347
O_ O_ 0.388049 0.232238 0.139391 -0.58347
O_ O_ 0.361807 0.390518 0.176215 -0.58347
O_ O_ 0.355425 0.38239 0.129579 -0.58347
O_ O_ 0.438686 0.312165 0.181392 -0.58347
O_ O_ 0.447386 0.317 0.135836 -0.58347
O_ O_ 0.443646 0.263386 0.326233 -0.46727
O_ O_ 0.275506 0.320219 0.336886 -0.46727
O_ O_ 0.484861 0.30995 0.470401 -0.46727
O_ O_ 0.321793 0.362883 0.481248 -0.46727
Zn Zn 0.134026 0.189877 0.882915 0.90689
Zn Zn 0.144363 0.181599 0.932935 0.90689
Zn Zn 0.386724 0.314187 0.629371 0.90689
Zn Zn 0.374173 0.321272 0.677805 0.90689
H_ H_ 0.310991 0.200507 0.949065 0.11455
H_ H_ 0.377377 0.146181 0.851107 0.11455
H_ H_ 0.286122 0.171278 0.857598 0.11455
H_ H_ 0.400781 0.18717 0.967877 0.11455
H_ H_ 0.488095 0.194954 0.955095 0.11455
H_ H_ 0.461583 0.156348 0.868638 0.11455
H_ H_ 0.133299 0.0143156 0.944827 0.11455
H_ H_ 0.107531 0.43645 0.859196 0.11455
H_ H_ 0.131455 0.0311961 0.853282 0.11455
H_ H_ 0.14869 0.425193 0.972985 0.11455
H_ H_ 0.158332 0.335868 0.964945 0.11455
H_ H_ 0.120432 0.354568 0.87574 0.11455
H_ H_ 0.103072 0.0983858 0.969353 0.11455
H_ H_ 0.0716203 0.0968404 0.515484 0.11455
H_ H_ 0.104967 0.143877 0.559067 0.11455
H_ H_ 0.208692 0.243561 0.982535 0.11455
H_ H_ 0.237285 0.309506 0.51581 0.11455
H_ H_ 0.203695 0.294101 0.564809 0.11455
H_ H_ 0.0186383 0.226154 0.625956 0.11455
H_ H_ 0.00224297 0.205308 0.675387 0.11455
H_ H_ 0.267053 0.186048 0.642675 0.11455
H_ H_ 0.252259 0.1603 0.695671 0.11455
H_ H_ 0.0675391 0.0947514 0.751475 0.11455
H_ H_ 0.0480614 0.0720954 0.801198 0.11455
H_ H_ 0.083683 0.123856 0.840271 0.11455
H_ H_ 0.136338 0.264204 0.761177 0.11455
H_ H_ 0.191678 0.30627 0.798177 0.11455
H_ H_ 0.176696 0.275668 0.848452 0.11455
H_ H_ 0.209312 0.32335 0.696094 0.11455
H_ H_ 0.14408 0.340701 0.598208 0.11455
H_ H_ 0.229754 0.339217 0.605575 0.11455
H_ H_ 0.124365 0.329003 0.715753 0.11455
H_ H_ 0.0291008 0.325725 0.706952 0.11455
H_ H_ 0.0560724 0.339563 0.618995 0.11455
H_ H_ 0.347591 0.482984 0.686361 0.11455
H_ H_ 0.359328 0.0603531 0.597858 0.11455
H_ H_ 0.419087 0.473501 0.603474 0.11455
H_ H_ 0.386032 0.0713901 0.715626 0.11455
H_ H_ 0.407717 0.161555 0.704662 0.11455
H_ H_ 0.364411 0.14559 0.618306 0.11455
H_ H_ 0.433956 0.393959 0.714511 0.11455
H_ H_ 0.434739 0.4277 0.764391 0.11455
H_ H_ 0.398347 0.372945 0.803618 0.11455
H_ H_ 0.312079 0.269015 0.718719 0.11455
H_ H_ 0.265037 0.22294 0.756457 0.11455
H_ H_ 0.295716 0.222766 0.805527 0.11455
H_ H_ 0.485879 0.284946 0.868782 0.11455
H_ H_ 0.494074 0.274285 0.919466 0.11455
H_ H_ 0.240954 0.337506 0.881899 0.11455
H_ H_ 0.255266 0.355636 0.934138 0.11455
H_ H_ 0.435057 0.404526 -0.0018380000000000063 0.11455
H_ H_ 0.497141 0.416075 0.543001 0.11455
H_ H_ 0.45118 0.372765 0.587496 0.11455
H_ H_ 0.335256 0.268124 0.505268 0.11455
H_ H_ 0.299972 0.225333 0.549255 0.11455
H_ H_ 0.336513 0.241837 0.595151 0.11455
C_ C_ 0.2364 0.187847 0.907058 0.68181
C_ C_ 0.291321 0.185355 0.903084 -0.05681
C_ C_ 0.324677 0.188262 0.927111 -0.08735
C_ C_ 0.37621 0.179045 0.92241 -0.05681
C_ C_ 0.39305 0.165803 0.895024 -0.05681
C_ C_ 0.361275 0.158798 0.872109 -0.08735
C_ C_ 0.312087 0.173568 0.875522 -0.08735
C_ C_ 0.410896 0.184208 0.94531 -0.08735
C_ C_ 0.46324 0.183547 0.938261 -0.08735
C_ C_ 0.483571 0.173491 0.91125 -0.05681
C_ C_ 0.447063 0.158974 0.89083 -0.08735
C_ C_ 0.132409 0.279125 0.918336 0.68181
C_ C_ 0.137726 0.086662 0.901814 0.68181
C_ C_ 0.131007 0.030371 0.899251 -0.05681
C_ C_ 0.144547 0.4982 0.929999 -0.08735
C_ C_ 0.13751 0.443246 0.928363 -0.05681
C_ C_ 0.130495 0.421827 0.901072 -0.05681
C_ C_ 0.116065 0.452439 0.877853 -0.08735
C_ C_ 0.128148 0.502517 0.878629 -0.08735
C_ C_ 0.140574 0.410984 0.952411 -0.08735
C_ C_ 0.140095 0.35791 0.948457 -0.08735
C_ C_ 0.13436 0.336706 0.920852 -0.05681
C_ C_ 0.128732 0.369413 0.897616 -0.08735
C_ C_ 0.0385945 0.184723 0.911108 0.68181
C_ C_ 0.116254 0.122829 0.987494 0.1947
C_ C_ 0.102226 0.123036 0.514522 -0.08735
C_ C_ 0.117972 0.151906 0.537333 -0.08735
C_ C_ 0.148971 0.194525 0.532531 -0.05681
C_ C_ 0.164051 0.204085 0.503056 0.18498
C_ C_ 0.186498 0.24181 0.999933 -0.08735
C_ C_ 0.210639 0.277829 0.520361 -0.08735
C_ C_ 0.194764 0.269086 0.548523 -0.08735
C_ C_ 0.167294 0.227199 0.555442 0.18498
C_ C_ 0.195317 0.196551 0.602024 0.44287
C_ C_ 0.111578 0.222044 0.597228 0.44287
C_ C_ 0.10026 0.20844 0.625961 -0.05681
C_ C_ 0.0506634 0.213673 0.63806 -0.08735
C_ C_ 0.0408333 0.200509 0.667068 -0.08735
C_ C_ 0.0811766 0.189695 0.685136 -0.05681
C_ C_ 0.132316 0.185197 0.6734 -0.05681
C_ C_ 0.140854 0.194461 0.644616 -0.05681
C_ C_ 0.189382 0.190834 0.632425 -0.05681
C_ C_ 0.228973 0.182835 0.650726 -0.08735
C_ C_ 0.219941 0.176321 0.680512 -0.08735
C_ C_ 0.17153 0.175207 0.692408 -0.05681
C_ C_ 0.161333 0.169975 0.722253 0.44287
C_ C_ 0.0761043 0.189734 0.715719 0.44287
C_ C_ 0.108105 0.165869 0.76253 0.18498
C_ C_ 0.0804353 0.121014 0.768828 -0.08735
C_ C_ 0.0727304 0.105898 0.797259 -0.08735
C_ C_ 0.0947095 0.134076 0.819758 -0.08735
C_ C_ 0.118279 0.180908 0.814138 0.18498
C_ C_ 0.12529 0.19699 0.785823 -0.05681
C_ C_ 0.144004 0.245928 0.781117 -0.08735
C_ C_ 0.164137 0.275328 0.803639 -0.08735
C_ C_ 0.157648 0.254647 0.831758 0.1947
C_ C_ 0.283265 0.32106 0.656219 0.68181
C_ C_ 0.228818 0.324716 0.651633 -0.05681
C_ C_ 0.193787 0.323074 0.67564 -0.08735
C_ C_ 0.141418 0.326166 0.671561 -0.05681
C_ C_ 0.124267 0.334987 0.644071 -0.05681
C_ C_ 0.15608 0.33937 0.620808 -0.08735
C_ C_ 0.207246 0.332655 0.624154 -0.08735
C_ C_ 0.106877 0.32729 0.694625 -0.08735
C_ C_ 0.0551367 0.33351 0.690058 -0.08735
C_ C_ 0.0360087 0.334225 0.662477 -0.05681
C_ C_ 0.0713771 0.335938 0.639399 -0.08735
C_ C_ 0.380679 0.217349 0.658999 0.68181
C_ C_ 0.380953 0.416791 0.646935 0.68181
C_ C_ 0.382192 0.471728 0.645709 -0.05681
C_ C_ 0.369793 0.00128384 0.673582 -0.08735
C_ C_ 0.368415 0.0545468 0.671666 -0.05681
C_ C_ 0.361801 0.0764845 0.644551 -0.05681
C_ C_ 0.359254 0.0433322 0.619307 -0.08735
C_ C_ 0.402199 0.495567 0.621628 -0.08735
C_ C_ 0.383788 0.0863968 0.694156 -0.08735
C_ C_ 0.390494 0.138698 0.689439 -0.08735
C_ C_ 0.377238 0.161774 0.662724 -0.05681
C_ C_ 0.366217 0.129737 0.639824 -0.08735
C_ C_ 0.481183 0.312652 0.655148 0.68181
C_ C_ 0.408173 0.377632 0.731023 0.1947
C_ C_ 0.411903 0.395618 0.759769 -0.08735
C_ C_ 0.392776 0.365446 0.781752 -0.08735
C_ C_ 0.367006 0.320568 0.775892 -0.05681
C_ C_ 0.357159 0.309206 0.747106 0.18498
C_ C_ 0.322616 0.271386 0.7403 -0.08735
C_ C_ 0.296066 0.246202 0.761829 -0.08735
C_ C_ 0.312263 0.250865 0.790016 -0.08735
C_ C_ 0.344983 0.288955 0.798563 0.18498
C_ C_ 0.315606 0.315736 0.845429 0.44287
C_ C_ 0.400268 0.288745 0.839877 0.44287
C_ C_ 0.41062 0.303194 0.868574 -0.05681
C_ C_ 0.456162 0.296181 0.88071 -0.08735
C_ C_ 0.461475 0.295406 0.910126 -0.08735
C_ C_ 0.422135 0.308158 0.929045 -0.05681
C_ C_ 0.374476 0.312928 0.915811 -0.05681
C_ C_ 0.368404 0.31196 0.885944 -0.05681
C_ C_ 0.319209 0.317557 0.87453 -0.05681
C_ C_ 0.279508 0.331868 0.891474 -0.08735
C_ C_ 0.286583 0.339819 0.921062 -0.08735
C_ C_ 0.33243 0.324492 0.934749 -0.05681
C_ C_ 0.342162 0.33459 0.964249 0.44287
C_ C_ 0.4262 0.308302 0.95981 0.44287
C_ C_ 0.410199 0.34511 0.507104 0.18498
C_ C_ 0.447041 0.382685 0.513403 -0.08735
C_ C_ 0.462445 0.393008 0.541584 -0.08735
C_ C_ 0.436511 0.369345 0.564929 -0.08735
C_ C_ 0.402005 0.330501 0.559293 0.18498
C_ C_ 0.387739 0.318439 0.529788 -0.05681
C_ C_ 0.35202 0.277949 0.525689 -0.08735
C_ C_ 0.331956 0.251312 0.549489 -0.08735
C_ C_ 0.348332 0.263338 0.577043 0.1947
N_ N_ 0.142969 0.166844 0.982148 -0.29468
N_ N_ 0.158543 0.216622 0.585681 -0.17154
N_ N_ 0.115341 0.1804 0.733741 -0.17154
N_ N_ 0.135198 0.208991 0.835959 -0.29468
N_ N_ 0.380489 0.334798 0.725126 -0.29468
N_ N_ 0.353571 0.29625 0.828479 -0.17154
N_ N_ 0.388447 0.325541 0.976748 -0.17154
N_ N_ 0.382249 0.299833 0.581272 -0.29468
O_ O_ 0.215524 0.184454 0.931218 -0.58347
O_ O_ 0.209468 0.197314 0.885827 -0.58347
O_ O_ 0.141698 0.25169 0.939152 -0.58347
O_ O_ 0.128472 0.259326 0.893715 -0.58347
O_ O_ 0.148336 0.105427 0.924924 -0.58347
O_ O_ 0.139763 0.113067 0.878835 -0.58347
O_ O_ 0.0665253 0.182502 0.933149 -0.58347
O_ O_ 0.0586763 0.184146 0.88647 -0.58347
O_ O_ 0.0755711 0.245391 0.582529 -0.46727
O_ O_ 0.241938 0.188931 0.591278 -0.46727
O_ O_ 0.0306114 0.203784 0.726866 -0.46727
O_ O_ 0.20158 0.166325 0.740244 -0.46727
O_ O_ 0.302103 0.324349 0.680371 -0.58347
O_ O_ 0.310432 0.3115 0.634992 -0.58347
O_ O_ 0.37734 0.247364 0.679576 -0.58347
O_ O_ 0.385423 0.23537 0.633771 -0.58347
O_ O_ 0.375353 0.39651 0.67207 -0.58347
O_ O_ 0.381933 0.388561 0.625057 -0.58347
O_ O_ 0.450312 0.320842 0.675719 -0.58347
O_ O_ 0.463323 0.310694 0.629373 -0.58347
O_ O_ 0.436483 0.270907 0.823595 -0.46727
O_ O_ 0.274327 0.330118 0.833522 -0.46727
O_ O_ 0.470683 0.297655 0.971803 -0.46727
O_ O_ 0.306249 0.349531 0.979871 -0.46727
Zn Zn 0.107572 0.688674 0.385678 0.90689
Zn Zn 0.119241 0.678972 0.431978 0.90689
Zn Zn 0.357391 0.807263 0.132353 0.90689
Zn Zn 0.348635 0.816949 0.180558 0.90689
H_ H_ 0.289829 0.6827 0.44659 0.11455
H_ H_ 0.349971 0.678091 0.346504 0.11455
H_ H_ 0.262075 0.65399 0.358664 0.11455
H_ H_ 0.379982 0.689816 0.461281 0.11455
H_ H_ 0.470878 0.696232 0.453063 0.11455
H_ H_ 0.440203 0.663308 0.364497 0.11455
H_ H_ 0.110932 0.512444 0.445444 0.11455
H_ H_ 0.108663 0.940304 0.351498 0.11455
H_ H_ 0.125986 0.524017 0.353443 0.11455
H_ H_ 0.140367 0.930371 0.470386 0.11455
H_ H_ 0.1411 0.839109 0.464218 0.11455
H_ H_ 0.101388 0.853186 0.373681 0.11455
H_ H_ 0.0554971 0.615092 0.465883 0.11455
H_ H_ 0.0527333 0.587213 0.0158347 0.11455
H_ H_ 0.0835083 0.635137 0.0589011 0.11455
H_ H_ 0.19046 0.731701 0.474406 0.11455
H_ H_ 0.225397 0.801969 0.0191265 0.11455
H_ H_ 0.192946 0.78306 0.0677925 0.11455
H_ H_ -0.002821999999999991 0.721105 0.125601 0.11455
H_ H_ -0.014654999999999974 0.696117 0.177639 0.11455
H_ H_ 0.245564 0.678582 0.140763 0.11455
H_ H_ 0.235252 0.675756 0.19441 0.11455
H_ H_ 0.0498123 0.596118 0.253544 0.11455
H_ H_ 0.0382644 0.56985 0.302977 0.11455
H_ H_ 0.0584203 0.625875 0.342174 0.11455
H_ H_ 0.152025 0.749412 0.260922 0.11455
H_ H_ 0.186738 0.797011 0.300718 0.11455
H_ H_ 0.158128 0.774232 0.350318 0.11455
H_ H_ 0.181659 0.809218 0.194351 0.11455
H_ H_ 0.114281 0.861365 0.100366 0.11455
H_ H_ 0.211447 0.846864 0.10903 0.11455
H_ H_ 0.0979199 0.824922 0.216079 0.11455
H_ H_ 0.00654251 0.813656 0.205927 0.11455
H_ H_ 0.0323619 0.848509 0.116402 0.11455
H_ H_ 0.364357 0.977435 0.192573 0.11455
H_ H_ 0.373477 0.563649 0.101357 0.11455
H_ H_ 0.335514 0.96787 0.101413 0.11455
H_ H_ 0.34256 0.562144 0.217916 0.11455
H_ H_ 0.354229 0.654834 0.214364 0.11455
H_ H_ 0.386863 0.64281 0.124605 0.11455
H_ H_ 0.412633 0.890093 0.214049 0.11455
H_ H_ 0.43862 0.919653 0.260987 0.11455
H_ H_ 0.385361 0.891422 0.302927 0.11455
H_ H_ 0.277447 0.77066 0.22894 0.11455
H_ H_ 0.253071 0.723779 0.267649 0.11455
H_ H_ 0.284081 0.743579 0.319101 0.11455
H_ H_ 0.475789 0.794955 0.372813 0.11455
H_ H_ 0.487907 0.804014 0.423422 0.11455
H_ H_ 0.231111 0.860944 0.38588 0.11455
H_ H_ 0.241534 0.870378 0.438794 0.11455
H_ H_ 0.42971 0.908164 0.499335 0.11455
H_ H_ 0.440831 0.931654 0.0477549 0.11455
H_ H_ 0.413137 0.875257 0.0898912 0.11455
H_ H_ 0.334644 0.746183 0.0063742 0.11455
H_ H_ 0.296475 0.701522 0.0502869 0.11455
H_ H_ 0.312092 0.729424 0.0988352 0.11455
C_ C_ 0.21358 0.675107 0.407545 0.68181
C_ C_ 0.270854 0.672557 0.404117 -0.05681
C_ C_ 0.305897 0.679387 0.426066 -0.08735
C_ C_ 0.357833 0.678778 0.418878 -0.05681
C_ C_ 0.373865 0.675379 0.390641 -0.05681
C_ C_ 0.339061 0.670256 0.368634 -0.08735
C_ C_ 0.288021 0.663391 0.375902 -0.08735
C_ C_ 0.393381 0.684282 0.440956 -0.08735
C_ C_ 0.444973 0.685432 0.436252 -0.08735
C_ C_ 0.463284 0.681208 0.407553 -0.05681
C_ C_ 0.428582 0.671865 0.385812 -0.08735
C_ C_ 0.11428 0.78188 0.416403 0.68181
C_ C_ 0.119104 0.582495 0.402225 0.68181
C_ C_ 0.115884 0.526285 0.399295 -0.05681
C_ C_ 0.131778 0.995169 0.42735 -0.08735
C_ C_ 0.121757 0.942823 0.424977 -0.05681
C_ C_ 0.116981 0.921326 0.396634 -0.05681
C_ C_ 0.114652 0.954611 0.373241 -0.08735
C_ C_ 0.12292 1.00551523 0.377145 -0.08735
C_ C_ 0.128253 0.912809 0.449402 -0.08735
C_ C_ 0.128915 0.861892 0.445995 -0.08735
C_ C_ 0.114496 0.837974 0.419304 -0.05681
C_ C_ 0.108886 0.868473 0.39485 -0.08735
C_ C_ 0.0166941 0.690431 0.406708 0.68181
C_ C_ 0.0793994 0.629502 0.484281 0.1947
C_ C_ 0.0780263 0.619327 0.0131009 -0.08735
C_ C_ 0.0953813 0.646887 0.036556 -0.08735
C_ C_ 0.131683 0.688302 0.0329049 -0.05681
C_ C_ 0.145194 0.702562 1.00470413 0.18498
C_ C_ 0.179997 0.721581 0.495681 -0.08735
C_ C_ 0.197031 0.771426 0.0229346 -0.08735
C_ C_ 0.178994 0.763588 0.0506438 -0.08735
C_ C_ 0.147328 0.719515 0.0558014 0.18498
C_ C_ 0.175328 0.690029 0.101529 0.44287
C_ C_ 0.0889321 0.711891 0.0970319 0.44287
C_ C_ 0.0781833 0.701845 0.126786 -0.05681
C_ C_ 0.0301082 0.707159 0.138179 -0.08735
C_ C_ 0.0219713 0.69857 0.167544 -0.08735
C_ C_ 0.0637025 0.691377 0.185582 -0.05681
C_ C_ 0.113129 0.68668 0.173309 -0.05681
C_ C_ 0.120131 0.688518 0.143024 -0.05681
C_ C_ 0.169155 0.688722 0.130971 -0.05681
C_ C_ 0.209183 0.686184 0.150437 -0.08735
C_ C_ 0.203039 0.677712 0.180634 -0.08735
C_ C_ 0.154382 0.675602 0.192132 -0.05681
C_ C_ 0.147238 0.67686 0.220873 0.44287
C_ C_ 0.0585509 0.689084 0.216225 0.44287
C_ C_ 0.0938802 0.664895 0.263893 0.18498
C_ C_ 0.0669518 0.619703 0.269958 -0.08735
C_ C_ 0.0542805 0.607117 0.297187 -0.08735
C_ C_ 0.0668928 0.638181 0.320583 -0.08735
C_ C_ 0.099615 0.681421 0.31546 0.18498
C_ C_ 0.115013 0.692245 0.28654 -0.05681
C_ C_ 0.147182 0.735127 0.28186 -0.08735
C_ C_ 0.166827 0.76123 0.305676 -0.08735
C_ C_ 0.151797 0.747465 0.332978 0.1947
C_ C_ 0.25549 0.810133 0.15541 0.68181
C_ C_ 0.200915 0.820205 0.151258 -0.05681
C_ C_ 0.16849 0.814877 0.174003 -0.08735
C_ C_ 0.116364 0.823885 0.170683 -0.05681
C_ C_ 0.0977791 0.839026 0.142865 -0.05681
C_ C_ 0.130757 0.84629 0.119979 -0.08735
C_ C_ 0.183328 0.837725 0.125006 -0.08735
C_ C_ 0.0828891 0.819975 0.193692 -0.08735
C_ C_ 0.0301264 0.82167 0.187566 -0.08735
C_ C_ 0.0110934 0.831396 0.159864 -0.05681
C_ C_ 0.0455893 0.844103 0.138294 -0.08735
C_ C_ 0.361846 0.713503 0.163753 0.68181
C_ C_ 0.348024 0.907803 0.150158 0.68181
C_ C_ 0.347624 0.965816 0.148003 -0.05681
C_ C_ 0.351827 0.498495 0.174018 -0.08735
C_ C_ 0.358749 0.551141 0.172015 -0.05681
C_ C_ 0.370404 0.573967 0.146282 -0.05681
C_ C_ 0.372836 0.543171 0.121645 -0.08735
C_ C_ 0.345323 -0.009726000000000012 0.120988 -0.08735
C_ C_ 0.353207 0.58016 0.197796 -0.08735
C_ C_ 0.357707 0.631892 0.194482 -0.08735
C_ C_ 0.363244 0.657659 0.167487 -0.05681
C_ C_ 0.367973 0.626357 0.143853 -0.08735
C_ C_ 0.45261 0.817709 0.155509 0.68181
C_ C_ 0.395328 0.871709 0.23138 0.1947
C_ C_ 0.405986 0.893608 0.257951 -0.08735
C_ C_ 0.380094 0.87603 0.281534 -0.08735
C_ C_ 0.346909 0.834167 0.279421 -0.05681
C_ C_ 0.332281 0.818166 0.251159 0.18498
C_ C_ 0.298243 0.77869 0.248213 -0.08735
C_ C_ 0.282768 0.752606 0.272347 -0.08735
C_ C_ 0.295295 0.767886 0.300906 -0.08735
C_ C_ 0.330458 0.80756 0.303759 0.18498
C_ C_ 0.304882 0.839825 0.349337 0.44287
C_ C_ 0.38625 0.805647 0.344911 0.44287
C_ C_ 0.393886 0.807645 0.374409 -0.05681
C_ C_ 0.443192 0.803502 0.386021 -0.08735
C_ C_ 0.449039 0.803029 0.415161 -0.08735
C_ C_ 0.408462 0.814057 0.433035 -0.05681
C_ C_ 0.360468 0.827565 0.421334 -0.05681
C_ C_ 0.354269 0.823982 0.39172 -0.05681
C_ C_ 0.308063 0.836281 0.379892 -0.05681
C_ C_ 0.267604 0.850342 0.396599 -0.08735
C_ C_ 0.273654 0.856551 0.427266 -0.08735
C_ C_ 0.321202 0.843925 0.440057 -0.05681
C_ C_ 0.329783 0.842875 0.469844 0.44287
C_ C_ 0.4148 0.816533 0.461788 0.44287
C_ C_ 0.377794 0.838239 0.00965335 0.18498
C_ C_ 0.404775 0.884444 0.0147825 -0.08735
C_ C_ 0.418116 0.898144 0.0436158 -0.08735
C_ C_ 0.404325 0.865973 0.066555 -0.08735
C_ C_ 0.374578 0.822015 0.0630907 0.18498
C_ C_ 0.363985 0.807005 0.0332838 -0.05681
C_ C_ 0.336408 0.761481 0.0292764 -0.08735
C_ C_ 0.321401 0.732469 0.0537518 -0.08735
C_ C_ 0.327843 0.751684 0.0809652 0.1947
N_ N_ 0.114081 0.66741 0.479996 -0.29468
N_ N_ 0.136262 0.705512 0.0850467 -0.17154
N_ N_ 0.100137 0.679239 0.233235 -0.17154
N_ N_ 0.120702 0.707593 0.337575 -0.29468
N_ N_ 0.3567 0.837067 0.227439 -0.29468
N_ N_ 0.342012 0.822824 0.332206 -0.17154
N_ N_ 0.377086 0.829589 0.480227 -0.17154
N_ N_ 0.356498 0.79457 0.0859225 -0.29468
O_ O_ 0.196477 0.669952 0.432458 -0.58347
O_ O_ 0.184835 0.688588 0.387236 -0.58347
O_ O_ 0.123364 0.75357 0.437502 -0.58347
O_ O_ 0.104969 0.763316 0.392135 -0.58347
O_ O_ 0.112282 0.604244 0.425795 -0.58347
O_ O_ 0.110894 0.60952 0.379467 -0.58347
O_ O_ 0.0448058 0.688811 0.428331 -0.58347
O_ O_ 0.0342092 0.687433 0.38108 -0.58347
O_ O_ 0.0518402 0.72935 0.0800497 -0.46727
O_ O_ 0.223349 0.688766 0.0908056 -0.46727
O_ O_ 0.0121011 0.686057 0.226604 -0.46727
O_ O_ 0.186399 0.662784 0.23778 -0.46727
O_ O_ 0.276486 0.822392 0.179315 -0.58347
O_ O_ 0.282249 0.798646 0.133911 -0.58347
O_ O_ 0.342595 0.741101 0.182772 -0.58347
O_ O_ 0.369271 0.733758 0.139357 -0.58347
O_ O_ 0.351639 0.888861 0.174491 -0.58347
O_ O_ 0.34011 0.881258 0.128086 -0.58347
O_ O_ 0.423444 0.812867 0.177257 -0.58347
O_ O_ 0.431153 0.819794 0.130148 -0.58347
O_ O_ 0.420459 0.783618 0.328893 -0.46727
O_ O_ 0.262825 0.85416 0.338319 -0.46727
O_ O_ 0.457466 0.804594 0.472936 -0.46727
O_ O_ 0.292713 0.85022 0.487739 -0.46727
Zn Zn 0.126543 0.683308 0.885035 0.90689
Zn Zn 0.137912 0.680783 0.934532 0.90689
Zn Zn 0.38002 0.811222 0.633025 0.90689
Zn Zn 0.372224 0.820496 0.680638 0.90689
H_ H_ 0.308008 0.692218 0.948641 0.11455
H_ H_ 0.368831 0.665356 0.849828 0.11455
H_ H_ 0.27426 0.669084 0.859283 0.11455
H_ H_ 0.3965 0.694295 0.965921 0.11455
H_ H_ 0.485748 0.683565 0.953736 0.11455
H_ H_ 0.450938 0.648909 0.86842 0.11455
H_ H_ 0.156635 0.514135 0.950424 0.11455
H_ H_ 0.127838 0.941119 0.846604 0.11455
H_ H_ 0.120088 0.526186 0.859866 0.11455
H_ H_ 0.121063 0.933208 0.96385 0.11455
H_ H_ 0.122831 0.839563 0.959116 0.11455
H_ H_ 0.129482 0.854705 0.869824 0.11455
H_ H_ 0.0749383 0.616572 0.968162 0.11455
H_ H_ 0.0400896 0.58802 0.517763 0.11455
H_ H_ 0.0906321 0.618173 0.556278 0.11455
H_ H_ 0.193554 0.75217 0.980633 0.11455
H_ H_ 0.222072 0.783971 0.515424 0.11455
H_ H_ 0.192969 0.773456 0.562327 0.11455
H_ H_ 1.0126107 0.687545 0.625241 0.11455
H_ H_ 1.00501702 0.673978 0.675212 0.11455
H_ H_ 0.267328 0.679068 0.638316 0.11455
H_ H_ 0.257626 0.665268 0.689068 0.11455
H_ H_ 0.0756824 0.573585 0.74941 0.11455
H_ H_ 0.0471906 0.554589 0.798401 0.11455
H_ H_ 0.0661074 0.612467 0.838326 0.11455
H_ H_ 0.15701 0.73986 0.761874 0.11455
H_ H_ 0.175425 0.792151 0.805114 0.11455
H_ H_ 0.171526 0.752909 0.850675 0.11455
H_ H_ 0.203396 0.80713 0.694026 0.11455
H_ H_ 0.134256 0.832333 0.596638 0.11455
H_ H_ 0.229529 0.821285 0.603577 0.11455
H_ H_ 0.11544 0.792929 0.711722 0.11455
H_ H_ 0.0254179 0.805225 0.704656 0.11455
H_ H_ 0.0523159 0.832156 0.615186 0.11455
H_ H_ 0.380248 0.982093 0.69321 0.11455
H_ H_ 0.422112 0.569525 0.603622 0.11455
H_ H_ 0.359372 0.971976 0.603223 0.11455
H_ H_ 0.339009 0.563908 0.710826 0.11455
H_ H_ 0.353221 0.658087 0.711573 0.11455
H_ H_ 0.405711 0.650023 0.623354 0.11455
H_ H_ 0.431471 0.893079 0.715788 0.11455
H_ H_ 0.444856 0.921196 0.766055 0.11455
H_ H_ 0.393775 0.885131 0.804348 0.11455
H_ H_ 0.303809 0.765434 0.72108 0.11455
H_ H_ 0.275326 0.710001 0.760377 0.11455
H_ H_ 0.292738 0.728526 0.809903 0.11455
H_ H_ 0.477345 0.79418 0.874901 0.11455
H_ H_ 0.482741 0.790263 0.927257 0.11455
H_ H_ 0.2329 0.859791 0.884687 0.11455
H_ H_ 0.244321 0.868899 0.935478 0.11455
H_ H_ 0.414045 0.908068 0.998248 0.11455
H_ H_ 0.450703 0.930636 0.547989 0.11455
H_ H_ 0.429273 0.876078 0.58808 0.11455
H_ H_ 0.345739 0.749439 0.506923 0.11455
H_ H_ 0.320241 0.69706 0.545284 0.11455
H_ H_ 0.328389 0.730083 0.594695 0.11455
C_ C_ 0.2303 0.68972 0.909891 0.68181
C_ C_ 0.285802 0.684951 0.90456 -0.05681
C_ C_ 0.320749 0.688852 0.926795 -0.08735
C_ C_ 0.370605 0.678761 0.922202 -0.05681
C_ C_ 0.387485 0.668808 0.893897 -0.05681
C_ C_ 0.351981 0.662428 0.871211 -0.08735
C_ C_ 0.300967 0.674517 0.87669 -0.08735
C_ C_ 0.407774 0.683816 0.944731 -0.08735
C_ C_ 0.459171 0.679813 0.937569 -0.08735
C_ C_ 0.475378 0.670538 0.910429 -0.05681
C_ C_ 0.439191 0.661163 0.888759 -0.08735
C_ C_ 0.124455 0.782125 0.912184 0.68181
C_ C_ 0.142909 0.581806 0.906682 0.68181
C_ C_ 0.1398 0.526104 0.904616 -0.05681
C_ C_ 0.129942 0.999552 0.923589 -0.08735
C_ C_ 0.124012 0.946065 0.920295 -0.05681
C_ C_ 0.127185 0.924769 0.892907 -0.05681
C_ C_ 0.129499 0.956193 0.868778 -0.08735
C_ C_ 0.132036 0.00720794 0.872619 -0.08735
C_ C_ 0.117592 0.915045 0.943659 -0.08735
C_ C_ 0.121865 0.862925 0.940915 -0.08735
C_ C_ 0.120796 0.838344 0.914174 -0.05681
C_ C_ 0.126676 0.870685 0.890272 -0.08735
C_ C_ 0.0324342 0.679697 0.907501 0.68181
C_ C_ 0.0960536 0.632215 0.986148 0.1947
C_ C_ 0.0657872 0.615667 0.512759 -0.08735
C_ C_ 0.0921961 0.636715 0.535482 -0.08735
C_ C_ 0.129246 0.672096 0.530496 -0.05681
C_ C_ 0.140702 0.686961 0.501192 0.18498
C_ C_ 0.179648 0.742995 1.00099 -0.08735
C_ C_ 0.19614 0.752055 0.517876 -0.08735
C_ C_ 0.178204 0.748092 0.545571 -0.08735
C_ C_ 0.148673 0.706033 0.55342 0.18498
C_ C_ 0.187088 0.685943 0.599224 0.44287
C_ C_ 0.0973151 0.698868 0.596157 0.44287
C_ C_ 0.0936576 0.690855 0.625727 -0.05681
C_ C_ 0.0462796 0.687851 0.638257 -0.08735
C_ C_ 0.0424658 0.677034 0.667113 -0.08735
C_ C_ 0.0842524 0.671059 0.685128 -0.05681
C_ C_ 0.132837 0.671707 0.672819 -0.05681
C_ C_ 0.136538 0.682785 0.642864 -0.05681
C_ C_ 0.184832 0.681008 0.629603 -0.05681
C_ C_ 0.229036 0.677188 0.647309 -0.08735
C_ C_ 0.224799 0.673328 0.677 -0.08735
C_ C_ 0.177974 0.667217 0.689929 -0.05681
C_ C_ 0.171186 0.665668 0.719629 0.44287
C_ C_ 0.08184 0.671234 0.714888 0.44287
C_ C_ 0.114787 0.644638 0.761298 0.18498
C_ C_ 0.0868652 0.597966 0.766739 -0.08735
C_ C_ 0.070456 0.587962 0.793892 -0.08735
C_ C_ 0.0806233 0.620428 0.817405 -0.08735
C_ C_ 0.118215 0.657499 0.813478 0.18498
C_ C_ 0.127712 0.676529 0.784796 -0.05681
C_ C_ 0.144679 0.726355 0.782073 -0.08735
C_ C_ 0.157398 0.755222 0.80656 -0.08735
C_ C_ 0.158785 0.730859 0.833236 0.1947
C_ C_ 0.279333 0.811258 0.654594 0.68181
C_ C_ 0.222444 0.808699 0.649103 -0.05681
C_ C_ 0.189194 0.803636 0.672682 -0.08735
C_ C_ 0.136647 0.805749 0.667996 -0.05681
C_ C_ 0.118914 0.813627 0.63991 -0.05681
C_ C_ 0.15176 0.820363 0.61646 -0.08735
C_ C_ 0.202627 0.8145 0.621269 -0.08735
C_ C_ 0.103613 0.805177 0.69082 -0.08735
C_ C_ 0.049777 0.811257 0.686848 -0.08735
C_ C_ 0.0306828 0.819585 0.659538 -0.05681
C_ C_ 0.0654275 0.820038 0.635914 -0.08735
C_ C_ 0.387082 0.717694 0.667344 0.68181
C_ C_ 0.367069 0.912764 0.650135 0.68181
C_ C_ 0.364799 0.970243 0.648995 -0.05681
C_ C_ 0.365824 0.50122 0.667938 -0.08735
C_ C_ 0.371524 0.553851 0.668087 -0.05681
C_ C_ 0.395101 0.579966 0.645073 -0.05681
C_ C_ 0.403845 0.549357 0.620875 -0.08735
C_ C_ 0.358371 0.99345 0.622464 -0.08735
C_ C_ 0.353656 0.5811 0.691413 -0.08735
C_ C_ 0.359749 0.635209 0.691291 -0.08735
C_ C_ 0.381777 0.662213 0.667969 -0.05681
C_ C_ 0.394886 0.632966 0.643435 -0.08735
C_ C_ 0.472739 0.817281 0.657651 0.68181
C_ C_ 0.411914 0.87496 0.733843 0.1947
C_ C_ 0.418114 0.892973 0.761463 -0.08735
C_ C_ 0.391097 0.869151 0.784024 -0.08735
C_ C_ 0.364802 0.822215 0.777467 -0.05681
C_ C_ 0.35097 0.812842 0.748323 0.18498
C_ C_ 0.317386 0.772788 0.742595 -0.08735
C_ C_ 0.296315 0.744375 0.765036 -0.08735
C_ C_ 0.309483 0.751846 0.793062 -0.08735
C_ C_ 0.34032 0.794115 0.800444 0.18498
C_ C_ 0.303515 0.814897 0.846698 0.44287
C_ C_ 0.392804 0.798818 0.842856 0.44287
C_ C_ 0.397011 0.805516 0.872666 -0.05681
C_ C_ 0.443032 0.799497 0.88696 -0.08735
C_ C_ 0.44815 0.799653 0.917043 -0.08735
C_ C_ 0.408391 0.81611 0.93382 -0.05681
C_ C_ 0.361534 0.825651 0.920246 -0.05681
C_ C_ 0.355732 0.818878 0.890229 -0.05681
C_ C_ 0.309314 0.826139 0.876792 -0.05681
C_ C_ 0.269355 0.847083 0.893982 -0.08735
C_ C_ 0.276363 0.854562 0.924157 -0.08735
C_ C_ 0.320316 0.839411 0.937709 -0.05681
C_ C_ 0.323725 0.840705 0.967946 0.44287
C_ C_ 0.408588 0.811759 0.963171 0.44287
C_ C_ 0.390061 0.840742 0.509917 0.18498
C_ C_ 0.419838 0.881638 0.515869 -0.08735
C_ C_ 0.431115 0.896992 0.544038 -0.08735
C_ C_ 0.415293 0.866574 0.567183 -0.08735
C_ C_ 0.389512 0.821119 0.562017 0.18498
C_ C_ 0.379903 0.807009 0.532534 -0.05681
C_ C_ 0.359482 0.758539 0.528029 -0.08735
C_ C_ 0.346397 0.726693 0.551358 -0.08735
C_ C_ 0.350669 0.746739 0.578793 0.1947
N_ N_ 0.130996 0.670463 0.982719 -0.29468
N_ N_ 0.144006 0.69296 0.582751 -0.17154
N_ N_ 0.123887 0.660343 0.731089 -0.17154
N_ N_ 0.136797 0.684381 0.836155 -0.29468
N_ N_ 0.371899 0.843714 0.726774 -0.29468
N_ N_ 0.345739 0.803045 0.830783 -0.17154
N_ N_ 0.368618 0.824953 0.979999 -0.17154
N_ N_ 0.378334 0.789431 0.584219 -0.29468
O_ O_ 0.21186 0.681997 0.934007 -0.58347
O_ O_ 0.201603 0.694084 0.888545 -0.58347
O_ O_ 0.126813 0.754925 0.935186 -0.58347
O_ O_ 0.115942 0.759697 0.888095 -0.58347
O_ O_ 0.146516 0.604603 0.930561 -0.58347
O_ O_ 0.142069 0.607399 0.884765 -0.58347
O_ O_ 0.0594427 0.673087 0.929995 -0.58347
O_ O_ 0.0524919 0.672877 0.88286 -0.58347
O_ O_ 0.0602445 0.716681 0.581719 -0.46727
O_ O_ 0.232732 0.685575 0.586708 -0.46727
O_ O_ 0.0361453 0.676002 0.727007 -0.46727
O_ O_ 0.211416 0.662235 0.735904 -0.46727
O_ O_ 0.297586 0.819071 0.679289 -0.58347
O_ O_ 0.308637 0.80273 0.633432 -0.58347
O_ O_ 0.371484 0.743643 0.687886 -0.58347
O_ O_ 0.3934 0.737978 0.642882 -0.58347
O_ O_ 0.370333 0.890303 0.673925 -0.58347
O_ O_ 0.370542 0.885767 0.627048 -0.58347
O_ O_ 0.445568 0.818452 0.679471 -0.58347
O_ O_ 0.453671 0.823017 0.633326 -0.58347
O_ O_ 0.43264 0.79774 0.826919 -0.46727
O_ O_ 0.258569 0.817489 0.834661 -0.46727
O_ O_ 0.451167 0.794097 0.975488 -0.46727
O_ O_ 0.283835 0.85289 0.984014 -0.46727
Zn Zn 0.629662 0.185649 0.383075 0.90689
Zn Zn 0.645703 0.178354 0.43023 0.90689
Zn Zn 0.874508 0.32197 0.13485 0.90689
Zn Zn 0.859583 0.326464 0.179644 0.90689
H_ H_ 0.812232 0.201162 0.449294 0.11455
H_ H_ 0.881122 0.170528 0.350852 0.11455
H_ H_ 0.786739 0.189504 0.358185 0.11455
H_ H_ 0.898894 0.199984 0.468025 0.11455
H_ H_ 0.987264 0.193049 0.461431 0.11455
H_ H_ 0.967193 0.181925 0.368786 0.11455
H_ H_ 0.652701 0.00978409 0.444314 0.11455
H_ H_ 0.620363 0.434828 0.342524 0.11455
H_ H_ 0.618265 0.0320657 0.354565 0.11455
H_ H_ 0.643686 0.427293 0.459277 0.11455
H_ H_ 0.647013 0.340208 0.453888 0.11455
H_ H_ 0.618893 0.35035 0.364212 0.11455
H_ H_ 0.580932 0.109917 0.469221 0.11455
H_ H_ 0.575206 0.062427 0.0129195 0.11455
H_ H_ 0.603247 0.11388 0.0549687 0.11455
H_ H_ 0.692934 0.248753 0.470775 0.11455
H_ H_ 0.715001 0.297577 0.0140311 0.11455
H_ H_ 0.686439 0.28034 0.0616414 0.11455
H_ H_ 0.517678 0.19906 0.126877 0.11455
H_ H_ 0.502553 0.17934 0.175164 0.11455
H_ H_ 0.770729 0.1577 0.13945 0.11455
H_ H_ 0.758119 0.150137 0.191488 0.11455
H_ H_ 0.585418 0.0636144 0.256902 0.11455
H_ H_ 0.554355 0.0542697 0.30571 0.11455
H_ H_ 0.578393 0.115061 0.341211 0.11455
H_ H_ 0.648111 0.2401 0.255955 0.11455
H_ H_ 0.688363 0.288728 0.297447 0.11455
H_ H_ 0.689409 0.257559 0.344211 0.11455
H_ H_ 0.69765 0.290855 0.193628 0.11455
H_ H_ 0.622892 0.313652 0.097644 0.11455
H_ H_ 0.715734 0.314265 0.101008 0.11455
H_ H_ 0.614751 0.293489 0.214963 0.11455
H_ H_ 0.521212 0.279385 0.206905 0.11455
H_ H_ 0.540187 0.305475 0.117228 0.11455
H_ H_ 0.884385 0.492873 0.189789 0.11455
H_ H_ 0.860905 0.0747319 0.0974888 0.11455
H_ H_ 0.842669 0.477305 0.102086 0.11455
H_ H_ 0.858698 0.0746492 0.215566 0.11455
H_ H_ 0.859956 0.168153 0.211756 0.11455
H_ H_ 0.873481 0.156722 0.120057 0.11455
H_ H_ 0.910092 0.405372 0.217813 0.11455
H_ H_ 0.907165 0.439156 0.268509 0.11455
H_ H_ 0.892142 0.377382 0.306719 0.11455
H_ H_ 0.793534 0.266008 0.221858 0.11455
H_ H_ 0.771887 0.204928 0.259191 0.11455
H_ H_ 0.793204 0.219158 0.309464 0.11455
H_ H_ 0.9848 0.287946 0.36919 0.11455
H_ H_ 0.0005699999999999594 0.298875 0.419753 0.11455
H_ H_ 0.734929 0.332968 0.388345 0.11455
H_ H_ 0.749546 0.349588 0.439735 0.11455
H_ H_ 0.936007 0.420132 0.494539 0.11455
H_ H_ 0.971987 0.425557 0.0466922 0.11455
H_ H_ 0.931745 0.385614 0.0864018 0.11455
H_ H_ 0.849495 0.247086 0.00950158 0.11455
H_ H_ 0.807846 0.208682 0.0515056 0.11455
H_ H_ 0.818561 0.244902 0.100957 0.11455
C_ C_ 0.735942 0.180401 0.408824 0.68181
C_ C_ 0.791916 0.183575 0.404629 -0.05681
C_ C_ 0.826128 0.190375 0.428061 -0.08735
C_ C_ 0.878992 0.183045 0.423913 -0.05681
C_ C_ 0.899506 0.17887 0.396433 -0.05681
C_ C_ 0.867144 0.179783 0.371835 -0.08735
C_ C_ 0.814573 0.183257 0.376152 -0.08735
C_ C_ 0.912488 0.192438 0.446392 -0.08735
C_ C_ 0.963311 0.190618 0.442442 -0.08735
C_ C_ 0.985183 0.180884 0.414181 -0.05681
C_ C_ 0.952244 0.175014 0.391471 -0.08735
C_ C_ 0.630692 0.28179 0.406528 0.68181
C_ C_ 0.63776 0.0866131 0.404867 0.68181
C_ C_ 0.631045 0.030461 0.401574 -0.05681
C_ C_ 0.622064 0.497659 0.417353 -0.08735
C_ C_ 0.622146 0.444952 0.41506 -0.05681
C_ C_ 0.620093 0.422989 0.387541 -0.05681
C_ C_ 0.620959 0.45306 0.363681 -0.08735
C_ C_ 0.619352 0.505999 0.366131 -0.08735
C_ C_ 0.632268 0.413549 0.438753 -0.08735
C_ C_ 0.631698 0.360884 0.43574 -0.08735
C_ C_ 0.62718 0.33807 0.408566 -0.05681
C_ C_ 0.617912 0.369349 0.384816 -0.08735
C_ C_ 0.540698 0.174843 0.406163 0.68181
C_ C_ 0.603704 0.131242 0.486127 0.1947
C_ C_ 0.597594 0.0973331 0.00997493 -0.08735
C_ C_ 0.614195 0.126555 0.0335111 -0.08735
C_ C_ 0.643102 0.170711 0.0289723 -0.05681
C_ C_ 0.650916 0.186789 1.000278234 0.18498
C_ C_ 0.688303 0.23969 0.492819 -0.08735
C_ C_ 0.691166 0.264112 0.0177539 -0.08735
C_ C_ 0.677056 0.252463 0.0462772 -0.08735
C_ C_ 0.65829 0.203034 0.0530285 0.18498
C_ C_ 0.693802 0.173884 0.0989191 0.44287
C_ C_ 0.606448 0.189906 0.0960664 0.44287
C_ C_ 0.598177 0.174447 0.124752 -0.05681
C_ C_ 0.548313 0.181519 0.137066 -0.08735
C_ C_ 0.542402 0.174952 0.166418 -0.08735
C_ C_ 0.585813 0.165513 0.184054 -0.05681
C_ C_ 0.632568 0.160446 0.171322 -0.05681
C_ C_ 0.638056 0.164642 0.141392 -0.05681
C_ C_ 0.687268 0.165658 0.128851 -0.05681
C_ C_ 0.731335 0.161718 0.148152 -0.08735
C_ C_ 0.725524 0.160057 0.177878 -0.08735
C_ C_ 0.676198 0.160647 0.188728 -0.05681
C_ C_ 0.667937 0.149216 0.218043 0.44287
C_ C_ 0.580074 0.156277 0.213511 0.44287
C_ C_ 0.615593 0.139625 0.261873 0.18498
C_ C_ 0.594362 0.0926861 0.271473 -0.08735
C_ C_ 0.575271 0.0883126 0.298793 -0.08735
C_ C_ 0.587275 0.12553 0.318933 -0.08735
C_ C_ 0.620281 0.163509 0.312789 0.18498
C_ C_ 0.628614 0.175384 0.283094 -0.05681
C_ C_ 0.650383 0.222769 0.277296 -0.08735
C_ C_ 0.669407 0.252612 0.299867 -0.08735
C_ C_ 0.670363 0.235622 0.327631 0.1947
C_ C_ 0.768437 0.318591 0.154681 0.68181
C_ C_ 0.716481 0.303293 0.149599 -0.05681
C_ C_ 0.681588 0.296857 0.172754 -0.08735
C_ C_ 0.628115 0.2986 0.169501 -0.05681
C_ C_ 0.606904 0.303343 0.142302 -0.05681
C_ C_ 0.639161 0.306133 0.117793 -0.08735
C_ C_ 0.692682 0.304532 0.120834 -0.08735
C_ C_ 0.596903 0.296844 0.193994 -0.08735
C_ C_ 0.54369 0.296268 0.190621 -0.08735
C_ C_ 0.522109 0.306642 0.16274 -0.05681
C_ C_ 0.554087 0.301229 0.138421 -0.08735
C_ C_ 0.870436 0.224134 0.164152 0.68181
C_ C_ 0.863704 0.421029 0.148749 0.68181
C_ C_ 0.866033 0.477848 0.146197 -0.05681
C_ C_ 0.85342 0.0083291 0.171591 -0.08735
C_ C_ 0.858604 0.0618868 0.169943 -0.05681
C_ C_ 0.861982 0.0852602 0.143067 -0.05681
C_ C_ 0.857358 0.0555032 0.118073 -0.08735
C_ C_ 0.855793 0.500334 0.120169 -0.08735
C_ C_ 0.86076 0.0924033 0.195284 -0.08735
C_ C_ 0.865627 0.145759 0.192922 -0.08735
C_ C_ 0.868767 0.16916 0.166218 -0.05681
C_ C_ 0.87167 0.139051 0.141319 -0.08735
C_ C_ 0.967122 0.320174 0.159569 0.68181
C_ C_ 0.891454 0.385626 0.235633 0.1947
C_ C_ 0.890569 0.404645 0.264133 -0.08735
C_ C_ 0.877032 0.371211 0.28536 -0.08735
C_ C_ 0.852367 0.323718 0.278973 -0.05681
C_ C_ 0.840571 0.314424 0.249335 0.18498
C_ C_ 0.806476 0.272575 0.243678 -0.08735
C_ C_ 0.791872 0.24039 0.264944 -0.08735
C_ C_ 0.8068 0.245594 0.293039 -0.08735
C_ C_ 0.835469 0.289018 0.30063 0.18498
C_ C_ 0.804012 0.310072 0.348639 0.44287
C_ C_ 0.888754 0.285698 0.342633 0.44287
C_ C_ 0.900857 0.296262 0.371123 -0.05681
C_ C_ 0.950852 0.292233 0.381884 -0.08735
C_ C_ 0.960568 0.302423 0.411815 -0.08735
C_ C_ 0.918646 0.31577 0.430177 -0.05681
C_ C_ 0.870846 0.325232 0.418408 -0.05681
C_ C_ 0.861087 0.309209 0.389971 -0.05681
C_ C_ 0.811569 0.311887 0.378997 -0.05681
C_ C_ 0.772922 0.327948 0.397602 -0.08735
C_ C_ 0.781895 0.340361 0.426476 -0.08735
C_ C_ 0.832452 0.338376 0.437562 -0.05681
C_ C_ 0.842497 0.347828 0.466377 0.44287
C_ C_ 0.92544 0.314664 0.459966 0.44287
C_ C_ 0.899618 0.337576 0.0101481 0.18498
C_ C_ 0.931934 0.3795 0.0160908 -0.08735
C_ C_ 0.941467 0.397467 0.0439586 -0.08735
C_ C_ 0.922861 0.369904 0.0667908 -0.08735
C_ C_ 0.889318 0.329371 0.0635217 0.18498
C_ C_ 0.876108 0.313795 0.0346454 -0.05681
C_ C_ 0.852776 0.265351 0.0307808 -0.08735
C_ C_ 0.831591 0.241664 0.0543279 -0.08735
C_ C_ 0.838264 0.263167 0.0815406 0.1947
N_ N_ 0.634402 0.171554 0.479054 -0.29468
N_ N_ 0.652376 0.185452 0.0830642 -0.17154
N_ N_ 0.621183 0.147441 0.230523 -0.17154
N_ N_ 0.640129 0.194037 0.33411 -0.29468
N_ N_ 0.859735 0.345818 0.228085 -0.29468
N_ N_ 0.842722 0.297992 0.330639 -0.17154
N_ N_ 0.887689 0.33574 0.476867 -0.17154
N_ N_ 0.865178 0.307648 0.0861957 -0.29468
O_ O_ 0.718051 0.179139 0.43376 -0.58347
O_ O_ 0.706074 0.187181 0.387103 -0.58347
O_ O_ 0.641204 0.256252 0.428083 -0.58347
O_ O_ 0.624042 0.261274 0.382915 -0.58347
O_ O_ 0.650966 0.106457 0.42801 -0.58347
O_ O_ 0.633827 0.113116 0.3829 -0.58347
O_ O_ 0.572412 0.179648 0.427032 -0.58347
O_ O_ 0.556439 0.182045 0.38104 -0.58347
O_ O_ 0.571049 0.204619 0.0792381 -0.46727
O_ O_ 0.740231 0.173504 0.0882817 -0.46727
O_ O_ 0.533297 0.156051 0.225295 -0.46727
O_ O_ 0.706928 0.139553 0.235416 -0.46727
O_ O_ 0.784904 0.322732 0.180348 -0.58347
O_ O_ 0.798444 0.323281 0.133825 -0.58347
O_ O_ 0.866562 0.251166 0.186249 -0.58347
O_ O_ 0.870195 0.24617 0.140136 -0.58347
O_ O_ 0.852435 0.397232 0.172196 -0.58347
O_ O_ 0.872662 0.395134 0.126562 -0.58347
O_ O_ 0.93883 0.330954 0.180971 -0.58347
O_ O_ 0.948287 0.318096 0.134622 -0.58347
O_ O_ 0.925091 0.269358 0.325839 -0.46727
O_ O_ 0.763859 0.3323 0.337305 -0.46727
O_ O_ 0.967712 0.296677 0.47152 -0.46727
O_ O_ 0.804171 0.352805 0.484304 -0.46727
Zn Zn 0.63417 0.181111 0.881889 0.90689
Zn Zn 0.638351 0.170783 0.929248 0.90689
Zn Zn 0.888758 0.311943 0.631926 0.90689
Zn Zn 0.874254 0.323738 0.679449 0.90689
H_ H_ 0.809067 0.177896 0.945352 0.11455
H_ H_ 0.87673 0.17253 0.847475 0.11455
H_ H_ 0.783976 0.160332 0.855504 0.11455
H_ H_ 0.890789 0.176879 0.964865 0.11455
H_ H_ 0.982152 0.200214 0.956651 0.11455
H_ H_ 0.965916 0.166497 0.86945 0.11455
H_ H_ 0.623639 0.00564724 0.940698 0.11455
H_ H_ 0.666796 0.427192 0.852147 0.11455
H_ H_ 0.660793 0.0200949 0.854166 0.11455
H_ H_ 0.628895 0.420386 0.967732 0.11455
H_ H_ 0.629896 0.326637 0.960004 0.11455
H_ H_ 0.656465 0.342971 0.871284 0.11455
H_ H_ 0.580716 0.0970363 0.965933 0.11455
H_ H_ 0.590152 0.0741081 0.520047 0.11455
H_ H_ 0.640061 0.118783 0.554933 0.11455
H_ H_ 0.700431 0.234675 0.97544 0.11455
H_ H_ 0.738829 0.298374 0.508302 0.11455
H_ H_ 0.735062 0.275291 0.559085 0.11455
H_ H_ 0.538447 0.210261 0.621898 0.11455
H_ H_ 0.521416 0.196934 0.67356 0.11455
H_ H_ 0.787059 0.190492 0.639412 0.11455
H_ H_ 0.77331 0.171495 0.691667 0.11455
H_ H_ 0.591075 0.0792837 0.74685 0.11455
H_ H_ 0.56839 0.0593358 0.797446 0.11455
H_ H_ 0.574912 0.118853 0.834571 0.11455
H_ H_ 0.679068 0.240961 0.758147 0.11455
H_ H_ 0.724028 0.276216 0.800979 0.11455
H_ H_ 0.696914 0.252366 0.849586 0.11455
H_ H_ 0.707521 0.302363 0.693931 0.11455
H_ H_ 0.645922 0.330097 0.594995 0.11455
H_ H_ 0.735116 0.340326 0.604859 0.11455
H_ H_ 0.623837 0.318989 0.712401 0.11455
H_ H_ 0.532315 0.295972 0.703081 0.11455
H_ H_ 0.554554 0.33112 0.615761 0.11455
H_ H_ 0.884935 0.485073 0.691624 0.11455
H_ H_ 0.855892 0.0633827 0.595589 0.11455
H_ H_ 0.875414 0.470467 0.601225 0.11455
H_ H_ 0.880095 0.0745141 0.713678 0.11455
H_ H_ 0.901603 0.161028 0.705258 0.11455
H_ H_ 0.86601 0.149951 0.615937 0.11455
H_ H_ 0.932287 0.394603 0.71674 0.11455
H_ H_ 0.949264 0.421561 0.765964 0.11455
H_ H_ 0.908942 0.376145 0.805592 0.11455
H_ H_ 0.828695 0.245664 0.725674 0.11455
H_ H_ 0.784501 0.207276 0.764011 0.11455
H_ H_ 0.813456 0.220947 0.813202 0.11455
H_ H_ 1.00202 0.291922 0.874071 0.11455
H_ H_ 0.00696446 0.296395 0.925741 0.11455
H_ H_ 0.748183 0.337207 0.883816 0.11455
H_ H_ 0.755105 0.339232 0.936025 0.11455
H_ H_ 0.957037 0.3963 1.00059 0.11455
H_ H_ 0.953986 0.445499 0.543602 0.11455
H_ H_ 0.944123 0.387958 0.583961 0.11455
H_ H_ 0.860332 0.252763 0.504935 0.11455
H_ H_ 0.823081 0.20823 0.546822 0.11455
H_ H_ 0.830455 0.247146 0.59541 0.11455
C_ C_ 0.735671 0.180618 0.904585 0.68181
C_ C_ 0.790467 0.173078 0.901224 -0.05681
C_ C_ 0.823162 0.177984 0.924652 -0.08735
C_ C_ 0.874983 0.180146 0.91988 -0.05681
C_ C_ 0.8957 0.170908 0.89305 -0.05681
C_ C_ 0.863598 0.168682 0.869256 -0.08735
C_ C_ 0.809309 0.169159 0.873362 -0.08735
C_ C_ 0.907813 0.181962 0.944651 -0.08735
C_ C_ 0.960427 0.180189 0.94147 -0.08735
C_ C_ 0.980837 0.176484 0.91412 -0.05681
C_ C_ 0.948336 0.170172 0.890128 -0.08735
C_ C_ 0.632681 0.27287 0.913174 0.68181
C_ C_ 0.646059 0.0767865 0.90034 0.68181
C_ C_ 0.63875 0.0196818 0.897711 -0.05681
C_ C_ 0.636275 0.489804 0.925627 -0.08735
C_ C_ 0.642833 0.436717 0.923589 -0.05681
C_ C_ 0.652662 0.415407 0.896856 -0.05681
C_ C_ 0.665831 0.447081 0.873594 -0.08735
C_ C_ 0.655536 0.49807 0.874109 -0.08735
C_ C_ 0.636824 0.404544 0.947296 -0.08735
C_ C_ 0.639678 0.3528 0.943699 -0.08735
C_ C_ 0.64195 0.32981 0.916719 -0.05681
C_ C_ 0.651955 0.361512 0.892547 -0.08735
C_ C_ 0.539225 0.170569 0.906303 0.68181
C_ C_ 0.605185 0.116354 0.982585 0.1947
C_ C_ 0.60519 0.113627 0.514404 -0.08735
C_ C_ 0.631381 0.138867 0.534481 -0.08735
C_ C_ 0.655971 0.183149 0.528433 -0.05681
C_ C_ 0.655722 0.199697 0.500211 0.18498
C_ C_ 0.67513 0.23246 0.995565 -0.08735
C_ C_ 0.716384 0.265226 0.514014 -0.08735
C_ C_ 0.711678 0.254326 0.543216 -0.08735
C_ C_ 0.677698 0.213499 0.550981 0.18498
C_ C_ 0.711455 0.193829 0.598846 0.44287
C_ C_ 0.622498 0.201151 0.593155 0.44287
C_ C_ 0.616082 0.19563 0.623817 -0.05681
C_ C_ 0.568356 0.202247 0.636056 -0.08735
C_ C_ 0.560294 0.198052 0.666032 -0.08735
C_ C_ 0.601252 0.18489 0.683136 -0.05681
C_ C_ 0.649908 0.180496 0.670521 -0.05681
C_ C_ 0.658046 0.188663 0.641182 -0.05681
C_ C_ 0.706698 0.190236 0.629039 -0.05681
C_ C_ 0.749246 0.187389 0.647792 -0.08735
C_ C_ 0.7407 0.172982 0.676322 -0.08735
C_ C_ 0.691905 0.168765 0.688432 -0.05681
C_ C_ 0.684837 0.164619 0.71917 0.44287
C_ C_ 0.597694 0.180645 0.713436 0.44287
C_ C_ 0.62762 0.150117 0.758426 0.18498
C_ C_ 0.601354 0.104827 0.764616 -0.08735
C_ C_ 0.584564 0.0942761 0.791611 -0.08735
C_ C_ 0.595362 0.125189 0.814665 -0.08735
C_ C_ 0.624578 0.169901 0.809948 0.18498
C_ C_ 0.640143 0.18302 0.781885 -0.05681
C_ C_ 0.671879 0.224612 0.778857 -0.08735
C_ C_ 0.695468 0.24696 0.802593 -0.08735
C_ C_ 0.682969 0.231363 0.829857 0.1947
C_ C_ 0.782508 0.315853 0.655396 0.68181
C_ C_ 0.728527 0.325453 0.650744 -0.05681
C_ C_ 0.693706 0.314799 0.673167 -0.08735
C_ C_ 0.641113 0.323103 0.668559 -0.05681
C_ C_ 0.623355 0.327402 0.640381 -0.05681
C_ C_ 0.658679 0.33019 0.616816 -0.08735
C_ C_ 0.710215 0.331311 0.622497 -0.08735
C_ C_ 0.608285 0.314979 0.691297 -0.08735
C_ C_ 0.555643 0.314199 0.686733 -0.08735
C_ C_ 0.535575 0.319249 0.659372 -0.05681
C_ C_ 0.570057 0.326219 0.63645 -0.08735
C_ C_ 0.88672 0.220059 0.658696 0.68181
C_ C_ 0.879234 0.415121 0.649614 0.68181
C_ C_ 0.883913 0.472954 0.646036 -0.05681
C_ C_ 0.871754 0.00335382 0.670759 -0.08735
C_ C_ 0.873055 0.0576066 0.668587 -0.05681
C_ C_ 0.873105 0.0797004 0.640923 -0.05681
C_ C_ 0.862921 0.0463968 0.617544 -0.08735
C_ C_ 0.886003 0.492787 0.618772 -0.08735
C_ C_ 0.881962 0.0868859 0.691385 -0.08735
C_ C_ 0.887439 0.139953 0.687495 -0.08735
C_ C_ 0.885506 0.163462 0.661076 -0.05681
C_ C_ 0.871811 0.131503 0.637813 -0.08735
C_ C_ 0.981697 0.323421 0.657654 0.68181
C_ C_ 0.913601 0.373093 0.733759 0.1947
C_ C_ 0.925029 0.388328 0.761691 -0.08735
C_ C_ 0.902239 0.363036 0.784095 -0.08735
C_ C_ 0.875014 0.318413 0.779078 -0.05681
C_ C_ 0.864301 0.303731 0.75159 0.18498
C_ C_ 0.833029 0.264048 0.746218 -0.08735
C_ C_ 0.813808 0.236315 0.769344 -0.08735
C_ C_ 0.829499 0.244314 0.796058 -0.08735
C_ C_ 0.858537 0.286469 0.8026 0.18498
C_ C_ 0.823574 0.31797 0.84676 0.44287
C_ C_ 0.908857 0.286286 0.845574 0.44287
C_ C_ 0.917238 0.301885 0.873156 -0.05681
C_ C_ 0.964996 0.295738 0.887593 -0.08735
C_ C_ 0.96997 0.299891 0.917444 -0.08735
C_ C_ 0.926441 0.30997 0.933982 -0.05681
C_ C_ 0.880298 0.319712 0.920774 -0.05681
C_ C_ 0.875693 0.316354 0.889829 -0.05681
C_ C_ 0.828165 0.323436 0.876712 -0.05681
C_ C_ 0.786921 0.333679 0.894418 -0.08735
C_ C_ 0.789499 0.335393 0.924301 -0.08735
C_ C_ 0.838257 0.330379 0.938302 -0.05681
C_ C_ 0.843563 0.330579 0.96844 0.44287
C_ C_ 0.929899 0.313871 0.963476 0.44287
C_ C_ 0.899706 0.346626 0.506315 0.18498
C_ C_ 0.922479 0.395583 0.512129 -0.08735
C_ C_ 0.938173 0.4092 0.539631 -0.08735
C_ C_ 0.930767 0.376123 0.562062 -0.08735
C_ C_ 0.902111 0.330031 0.558999 0.18498
C_ C_ 0.886618 0.314844 0.529399 -0.05681
C_ C_ 0.85642 0.271771 0.525625 -0.08735
C_ C_ 0.844146 0.242514 0.548635 -0.08735
C_ C_ 0.853962 0.262272 0.577426 0.1947
N_ N_ 0.634353 0.158851 0.977335 -0.29468
N_ N_ 0.670408 0.202895 0.581368 -0.17154
N_ N_ 0.638948 0.165011 0.729664 -0.17154
N_ N_ 0.645876 0.194347 0.833252 -0.29468
N_ N_ 0.881027 0.332695 0.728961 -0.29468
N_ N_ 0.865519 0.301973 0.831305 -0.17154
N_ N_ 0.889524 0.325859 0.980701 -0.17154
N_ N_ 0.884362 0.303497 0.582499 -0.29468
O_ O_ 0.716043 0.184975 0.92897 -0.58347
O_ O_ 0.707818 0.179649 0.881951 -0.58347
O_ O_ 0.626277 0.244627 0.935337 -0.58347
O_ O_ 0.635761 0.253319 0.888474 -0.58347
O_ O_ 0.648763 0.0960921 0.924461 -0.58347
O_ O_ 0.63632 0.105288 0.879322 -0.58347
O_ O_ 0.566833 0.161322 0.927908 -0.58347
O_ O_ 0.557988 0.176572 0.881809 -0.58347
O_ O_ 0.58711 0.22435 0.578155 -0.46727
O_ O_ 0.754398 0.179723 0.587155 -0.46727
O_ O_ 0.549745 0.179008 0.723716 -0.46727
O_ O_ 0.722011 0.152014 0.735598 -0.46727
O_ O_ 0.800838 0.318169 0.680726 -0.58347
O_ O_ 0.811919 0.307517 0.634372 -0.58347
O_ O_ 0.879018 0.248921 0.680563 -0.58347
O_ O_ 0.893513 0.239672 0.63377 -0.58347
O_ O_ 0.874919 0.396477 0.674878 -0.58347
O_ O_ 0.882059 0.386098 0.628849 -0.58347
O_ O_ 0.95084 0.329557 0.678336 -0.58347
O_ O_ 0.963946 0.317902 0.632831 -0.58347
O_ O_ 0.945304 0.261679 0.83076 -0.46727
O_ O_ 0.782068 0.32816 0.834363 -0.46727
O_ O_ 0.975437 0.304488 0.975262 -0.46727
O_ O_ 0.803934 0.335825 0.984637 -0.46727
Zn Zn 0.612355 0.68901 0.377223 0.90689
Zn Zn 0.622515 0.683662 0.425688 0.90689
Zn Zn 0.861079 0.821481 0.13155 0.90689
Zn Zn 0.847358 0.822325 0.178881 0.90689
H_ H_ 0.784576 0.714582 0.437771 0.11455
H_ H_ 0.859197 0.680446 0.342764 0.11455
H_ H_ 0.767395 0.683395 0.348223 0.11455
H_ H_ 0.867913 0.700832 0.463281 0.11455
H_ H_ 0.960327 0.686616 0.456363 0.11455
H_ H_ 0.947316 0.688291 0.365051 0.11455
H_ H_ 0.618853 0.512521 0.439834 0.11455
H_ H_ 0.594501 0.940013 0.352038 0.11455
H_ H_ 0.616295 0.527587 0.346689 0.11455
H_ H_ 0.639551 0.927633 0.465857 0.11455
H_ H_ 0.627819 0.836227 0.460678 0.11455
H_ H_ 0.619128 0.855715 0.368912 0.11455
H_ H_ 0.575826 0.604145 0.463365 0.11455
H_ H_ 0.547743 0.57686 0.0118287 0.11455
H_ H_ 0.586804 0.625045 0.0504201 0.11455
H_ H_ 0.682333 0.747894 0.468618 0.11455
H_ H_ 0.708334 0.794083 0.0060177 0.11455
H_ H_ 0.688608 0.778596 0.0582261 0.11455
H_ H_ 0.506877 0.702701 0.117257 0.11455
H_ H_ 0.49113 0.69383 0.169706 0.11455
H_ H_ 0.756937 0.669982 0.135942 0.11455
H_ H_ 0.744107 0.650655 0.189368 0.11455
H_ H_ 0.55091 0.584973 0.24592 0.11455
H_ H_ 0.553046 0.558579 0.295461 0.11455
H_ H_ 0.561678 0.629005 0.333194 0.11455
H_ H_ 0.651381 0.744484 0.246376 0.11455
H_ H_ 0.684859 0.789488 0.289257 0.11455
H_ H_ 0.653378 0.777053 0.33839 0.11455
H_ H_ 0.686822 0.786767 0.1901 0.11455
H_ H_ 0.615121 0.84204 0.0975283 0.11455
H_ H_ 0.707045 0.848013 0.10817 0.11455
H_ H_ 0.598117 0.789889 0.212282 0.11455
H_ H_ 0.50572 0.798346 0.204703 0.11455
H_ H_ 0.530255 0.813903 0.113421 0.11455
H_ H_ 0.844358 0.990468 0.192313 0.11455
H_ H_ 0.844308 0.571151 0.0967316 0.11455
H_ H_ 0.846633 0.982402 0.100097 0.11455
H_ H_ 0.904654 0.57058 0.209085 0.11455
H_ H_ 0.89112 0.666461 0.2089 0.11455
H_ H_ 0.855762 0.655805 0.118347 0.11455
H_ H_ 0.900443 0.897427 0.212376 0.11455
H_ H_ 0.917865 0.928076 0.261907 0.11455
H_ H_ 0.867135 0.893193 0.302691 0.11455
H_ H_ 0.791249 0.761427 0.220471 0.11455
H_ H_ 0.759231 0.710751 0.260378 0.11455
H_ H_ 0.788088 0.725122 0.30994 0.11455
H_ H_ 0.976987 0.803966 0.367731 0.11455
H_ H_ -0.008251000000000008 0.820344 0.415804 0.11455
H_ H_ 0.731584 0.854458 0.386568 0.11455
H_ H_ 0.735253 0.836588 0.438645 0.11455
H_ H_ 0.930213 0.907542 0.496696 0.11455
H_ H_ 0.952077 0.939186 0.0463355 0.11455
H_ H_ 0.916408 0.892881 0.0880518 0.11455
H_ H_ 0.821528 0.765177 0.00703015 0.11455
H_ H_ 0.783045 0.726481 0.0465674 0.11455
H_ H_ 0.803909 0.752931 0.0962979 0.11455
C_ C_ 0.714238 0.69108 0.39815 0.68181
C_ C_ 0.770758 0.699082 0.394424 -0.05681
C_ C_ 0.803058 0.70171 0.418587 -0.08735
C_ C_ 0.85588 0.69715 0.415791 -0.05681
C_ C_ 0.876158 0.687529 0.389346 -0.05681
C_ C_ 0.844015 0.681683 0.36511 -0.08735
C_ C_ 0.790546 0.686655 0.367788 -0.08735
C_ C_ 0.885904 0.699057 0.440167 -0.08735
C_ C_ 0.937513 0.692438 0.437375 -0.08735
C_ C_ 0.960663 0.693327 0.410405 -0.05681
C_ C_ 0.929692 0.69246 0.385876 -0.08735
C_ C_ 0.609018 0.783747 0.410148 0.68181
C_ C_ 0.624746 0.587772 0.395294 0.68181
C_ C_ 0.62265 0.530139 0.392936 -0.05681
C_ C_ 0.640166 0.995838 0.424271 -0.08735
C_ C_ 0.631474 0.944741 0.420672 -0.05681
C_ C_ 0.622176 0.923735 0.393052 -0.05681
C_ C_ 0.610378 0.956615 0.371184 -0.08735
C_ C_ 0.616706 1.00921033 0.374243 -0.08735
C_ C_ 0.630387 0.912457 0.444883 -0.08735
C_ C_ 0.626311 0.859915 0.441048 -0.08735
C_ C_ 0.613634 0.841064 0.414424 -0.05681
C_ C_ 0.615684 0.871556 0.389818 -0.08735
C_ C_ 0.520467 0.678823 0.402755 0.68181
C_ C_ 0.593735 0.627542 0.479705 0.1947
C_ C_ 0.570817 0.611527 0.00769519 -0.08735
C_ C_ 0.593673 0.638011 0.0306406 -0.08735
C_ C_ 0.632067 0.67498 0.0260374 -0.05681
C_ C_ 0.645189 0.686158 0.996779 0.18498
C_ C_ 0.672041 0.740969 0.490225 -0.08735
C_ C_ 0.688652 0.759425 0.0128798 -0.08735
C_ C_ 0.679928 0.749531 0.0413281 -0.08735
C_ C_ 0.651777 0.706124 0.049293 0.18498
C_ C_ 0.68155 0.679118 0.0952922 0.44287
C_ C_ 0.596925 0.704033 0.0910842 0.44287
C_ C_ 0.5864 0.68885 0.11844 -0.05681
C_ C_ 0.539154 0.693914 0.130993 -0.08735
C_ C_ 0.529587 0.684131 0.160829 -0.08735
C_ C_ 0.570884 0.675915 0.17862 -0.05681
C_ C_ 0.619856 0.672334 0.166861 -0.05681
C_ C_ 0.626461 0.674856 0.137186 -0.05681
C_ C_ 0.674959 0.668248 0.125531 -0.05681
C_ C_ 0.718295 0.664423 0.143176 -0.08735
C_ C_ 0.712168 0.657988 0.173117 -0.08735
C_ C_ 0.660439 0.660157 0.18386 -0.05681
C_ C_ 0.652357 0.657675 0.21379 0.44287
C_ C_ 0.566811 0.6802 0.208051 0.44287
C_ C_ 0.597799 0.6545 0.254076 0.18498
C_ C_ 0.568069 0.611937 0.262647 -0.08735
C_ C_ 0.566083 0.596324 0.290217 -0.08735
C_ C_ 0.578763 0.631651 0.312337 -0.08735
C_ C_ 0.607997 0.673126 0.305808 0.18498
C_ C_ 0.614082 0.687514 0.276165 -0.05681
C_ C_ 0.641068 0.733899 0.26989 -0.08735
C_ C_ 0.65574 0.765189 0.2924 -0.08735
C_ C_ 0.645277 0.750164 0.320969 0.1947
C_ C_ 0.75851 0.815055 0.153154 0.68181
C_ C_ 0.704554 0.812906 0.148355 -0.05681
C_ C_ 0.672216 0.802734 0.17116 -0.08735
C_ C_ 0.618279 0.804616 0.167305 -0.05681
C_ C_ 0.59711 0.817429 0.141316 -0.05681
C_ C_ 0.628368 0.832539 0.119105 -0.08735
C_ C_ 0.681288 0.833438 0.12335 -0.08735
C_ C_ 0.582492 0.794767 0.189647 -0.08735
C_ C_ 0.530558 0.800745 0.185742 -0.08735
C_ C_ 0.5097 0.807873 0.158183 -0.05681
C_ C_ 0.545554 0.813043 0.135205 -0.08735
C_ C_ 0.867198 0.725318 0.161941 0.68181
C_ C_ 0.850804 0.922345 0.149252 0.68181
C_ C_ 0.849177 0.97931 0.146934 -0.05681
C_ C_ 0.877649 0.50922 0.169648 -0.08735
C_ C_ 0.884385 0.561993 0.166194 -0.05681
C_ C_ 0.871919 0.585097 0.13994 -0.05681
C_ C_ 0.860351 0.553862 0.11623 -0.08735
C_ C_ 0.849921 1.00371318 0.119499 -0.08735
C_ C_ 0.89561 0.591078 0.18933 -0.08735
C_ C_ 0.889949 0.644277 0.188359 -0.08735
C_ C_ 0.872578 0.667942 0.163107 -0.05681
C_ C_ 0.866629 0.638314 0.138797 -0.08735
C_ C_ 0.955838 0.83366 0.155434 0.68181
C_ C_ 0.880846 0.880039 0.230807 0.1947
C_ C_ 0.895623 0.893792 0.25811 -0.08735
C_ C_ 0.872879 0.871661 0.281488 -0.08735
C_ C_ 0.844749 0.829038 0.276751 -0.05681
C_ C_ 0.831185 0.814459 0.248179 0.18498
C_ C_ 0.79975 0.773498 0.242825 -0.08735
C_ C_ 0.783467 0.742739 0.265492 -0.08735
C_ C_ 0.797779 0.754332 0.293639 -0.08735
C_ C_ 0.825505 0.799781 0.30012 0.18498
C_ C_ 0.796881 0.823911 0.348062 0.44287
C_ C_ 0.885493 0.810069 0.340176 0.44287
C_ C_ 0.894568 0.817911 0.369844 -0.05681
C_ C_ 0.943421 0.815967 0.380064 -0.08735
C_ C_ 0.95236 0.819001 0.408544 -0.08735
C_ C_ 0.911486 0.821148 0.428379 -0.05681
C_ C_ 0.862659 0.820103 0.41867 -0.05681
C_ C_ 0.854544 0.820213 0.38914 -0.05681
C_ C_ 0.805576 0.826977 0.377394 -0.05681
C_ C_ 0.764885 0.83869 0.396378 -0.08735
C_ C_ 0.770704 0.833464 0.426166 -0.08735
C_ C_ 0.820539 0.82405 0.437929 -0.05681
C_ C_ 0.83067 0.828084 0.467121 0.44287
C_ C_ 0.918616 0.821823 0.458394 0.44287
C_ C_ 0.885171 0.851783 0.00943562 0.18498
C_ C_ 0.912883 0.895627 0.014797 -0.08735
C_ C_ 0.923834 0.909593 0.0428732 -0.08735
C_ C_ 0.906512 0.881306 0.0660207 -0.08735
C_ C_ 0.875995 0.838888 0.0609084 0.18498
C_ C_ 0.865411 0.82428 0.0319356 -0.05681
C_ C_ 0.836134 0.777048 0.0280446 -0.08735
C_ C_ 0.817645 0.751518 0.0510583 -0.08735
C_ C_ 0.827422 0.770474 0.0788671 0.1947
N_ N_ 0.620273 0.671537 0.47401 -0.29468
N_ N_ 0.643239 0.695003 0.0790343 -0.17154
N_ N_ 0.605353 0.663153 0.224375 -0.17154
N_ N_ 0.621038 0.705115 0.327584 -0.29468
N_ N_ 0.849547 0.840659 0.225571 -0.29468
N_ N_ 0.837502 0.810403 0.330162 -0.17154
N_ N_ 0.879029 0.824706 0.477747 -0.17154
N_ N_ 0.857456 0.810361 0.0840837 -0.29468
O_ O_ 0.693249 0.694967 0.4232 -0.58347
O_ O_ 0.685697 0.69214 0.376707 -0.58347
O_ O_ 0.613765 0.756356 0.432236 -0.58347
O_ O_ 0.607034 0.763409 0.385844 -0.58347
O_ O_ 0.62914 0.610664 0.418725 -0.58347
O_ O_ 0.618258 0.612616 0.372772 -0.58347
O_ O_ 0.547633 0.676322 0.424759 -0.58347
O_ O_ 0.540044 0.688308 0.377876 -0.58347
O_ O_ 0.560056 0.715411 0.0739084 -0.46727
O_ O_ 0.7263 0.668164 0.0835694 -0.46727
O_ O_ 0.52442 0.692715 0.220554 -0.46727
O_ O_ 0.692197 0.652493 0.230784 -0.46727
O_ O_ 0.774659 0.819259 0.179136 -0.58347
O_ O_ 0.787676 0.819509 0.131197 -0.58347
O_ O_ 0.856902 0.74933 0.185244 -0.58347
O_ O_ 0.862435 0.74899 0.137539 -0.58347
O_ O_ 0.840865 0.899415 0.173089 -0.58347
O_ O_ 0.854496 0.8954 0.126721 -0.58347
O_ O_ 0.927406 0.830616 0.178154 -0.58347
O_ O_ 0.934427 0.831735 0.130563 -0.58347
O_ O_ 0.923944 0.80317 0.32212 -0.46727
O_ O_ 0.750016 0.819085 0.339153 -0.46727
O_ O_ 0.965249 0.812967 0.467492 -0.46727
O_ O_ 0.794376 0.847545 0.482947 -0.46727
Zn Zn 0.625617 0.680677 0.88056 0.90689
Zn Zn 0.629481 0.674555 0.927391 0.90689
Zn Zn 0.879886 0.809555 0.63252 0.90689
Zn Zn 0.870845 0.820163 0.678855 0.90689
H_ H_ 0.802244 0.70647 0.943027 0.11455
H_ H_ 0.869556 0.647993 0.84683 0.11455
H_ H_ 0.780826 0.670387 0.853323 0.11455
H_ H_ 0.886519 0.701046 0.964518 0.11455
H_ H_ 0.975116 0.70787 0.956308 0.11455
H_ H_ 0.958713 0.660734 0.86789 0.11455
H_ H_ 0.642044 0.507711 0.946772 0.11455
H_ H_ 0.643273 0.9302 0.845764 0.11455
H_ H_ 0.660119 0.521445 0.855291 0.11455
H_ H_ 0.632389 0.918696 0.961746 0.11455
H_ H_ 0.61747 0.832337 0.957024 0.11455
H_ H_ 0.630057 0.845845 0.866303 0.11455
H_ H_ 0.568862 0.604686 0.961962 0.11455
H_ H_ 0.563034 0.580339 0.514075 0.11455
H_ H_ 0.581551 0.641692 0.551433 0.11455
H_ H_ 0.67428 0.742815 0.969627 0.11455
H_ H_ 0.719161 0.799941 0.506991 0.11455
H_ H_ 0.693766 0.786321 0.558134 0.11455
H_ H_ 0.498738 0.7009 0.621725 0.11455
H_ H_ 0.493463 0.694492 0.673808 0.11455
H_ H_ 0.754968 0.696389 0.635388 0.11455
H_ H_ 0.743914 0.673274 0.686102 0.11455
H_ H_ 0.582981 0.574842 0.744543 0.11455
H_ H_ 0.563651 0.548301 0.792908 0.11455
H_ H_ 0.587495 0.599283 0.833135 0.11455
H_ H_ 0.635344 0.749987 0.757376 0.11455
H_ H_ 0.67728 0.794341 0.796527 0.11455
H_ H_ 0.678198 0.751657 0.843057 0.11455
H_ H_ 0.703871 0.820102 0.696298 0.11455
H_ H_ 0.630527 0.826097 0.595919 0.11455
H_ H_ 0.72941 0.821369 0.605567 0.11455
H_ H_ 0.62028 0.814822 0.714909 0.11455
H_ H_ 0.528471 0.805205 0.705892 0.11455
H_ H_ 0.548954 0.829633 0.615575 0.11455
H_ H_ 0.876515 0.985984 0.692463 0.11455
H_ H_ 0.881949 0.562535 0.594835 0.11455
H_ H_ 0.863155 0.970968 0.600179 0.11455
H_ H_ 0.872872 0.566077 0.712302 0.11455
H_ H_ 0.883993 0.661482 0.708908 0.11455
H_ H_ 0.871427 0.647937 0.618418 0.11455
H_ H_ 0.939124 0.881811 0.715168 0.11455
H_ H_ 0.947659 0.915313 0.765454 0.11455
H_ H_ 0.90173 0.877942 0.803816 0.11455
H_ H_ 0.802252 0.760661 0.721872 0.11455
H_ H_ 0.767941 0.714005 0.761298 0.11455
H_ H_ 0.782547 0.740287 0.811869 0.11455
H_ H_ 0.97607 0.806637 0.870198 0.11455
H_ H_ 0.992927 0.807342 0.921737 0.11455
H_ H_ 0.7231 0.842563 0.888492 0.11455
H_ H_ 0.742327 0.861128 0.937903 0.11455
H_ H_ 0.933078 0.9167 0.998343 0.11455
H_ H_ 0.966163 0.919587 0.546245 0.11455
H_ H_ 0.922937 0.879894 0.586465 0.11455
H_ H_ 0.841228 0.752984 0.505708 0.11455
H_ H_ 0.804572 0.707969 0.547177 0.11455
H_ H_ 0.819851 0.738486 0.596139 0.11455
C_ C_ 0.726778 0.682906 0.902149 0.68181
C_ C_ 0.781681 0.679041 0.899983 -0.05681
C_ C_ 0.81591 0.688633 0.92342 -0.08735
C_ C_ 0.866988 0.679735 0.919986 -0.05681
C_ C_ 0.888851 0.666842 0.892406 -0.05681
C_ C_ 0.855789 0.660936 0.868724 -0.08735
C_ C_ 0.803346 0.665172 0.87241 -0.08735
C_ C_ 0.900742 0.689256 0.942959 -0.08735
C_ C_ 0.95379 0.694225 0.937998 -0.08735
C_ C_ 0.975683 0.679291 0.910858 -0.05681
C_ C_ 0.943087 0.666958 0.888471 -0.08735
C_ C_ 0.615404 0.774267 0.90825 0.68181
C_ C_ 0.639271 0.577261 0.901828 0.68181
C_ C_ 0.643995 0.520767 0.900771 -0.05681
C_ C_ 0.633922 -0.010943999999999954 0.921043 -0.08735
C_ C_ 0.62748 0.937398 0.917487 -0.05681
C_ C_ 0.634418 0.915035 0.889806 -0.05681
C_ C_ 0.642603 0.946152 0.866442 -0.08735
C_ C_ 0.647647 -0.0025159999999999627 0.871421 -0.08735
C_ C_ 0.629444 0.904754 0.94104 -0.08735
C_ C_ 0.622611 0.852498 0.937616 -0.08735
C_ C_ 0.620265 0.830764 0.910425 -0.05681
C_ C_ 0.627094 0.863393 0.886503 -0.08735
C_ C_ 0.530153 0.670916 0.903772 0.68181
C_ C_ 0.582534 0.627354 0.980474 0.1947
C_ C_ 0.583473 0.615408 0.508652 -0.08735
C_ C_ 0.594774 0.649516 0.531086 -0.08735
C_ C_ 0.624767 0.692567 0.525705 -0.05681
C_ C_ 0.637785 0.701819 0.496032 0.18498
C_ C_ 0.674785 0.728481 0.991611 -0.08735
C_ C_ 0.69384 0.771945 0.511887 -0.08735
C_ C_ 0.679358 0.763954 0.540744 -0.08735
C_ C_ 0.648215 0.722882 0.548484 0.18498
C_ C_ 0.679795 0.699944 0.595494 0.44287
C_ C_ 0.592587 0.714644 0.591241 0.44287
C_ C_ 0.582735 0.700408 0.620287 -0.05681
C_ C_ 0.533086 0.694069 0.632935 -0.08735
C_ C_ 0.528179 0.688559 0.662652 -0.08735
C_ C_ 0.57072 0.681137 0.680085 -0.05681
C_ C_ 0.618555 0.685205 0.667844 -0.05681
C_ C_ 0.625194 0.691044 0.637758 -0.05681
C_ C_ 0.674442 0.695833 0.625374 -0.05681
C_ C_ 0.716373 0.690777 0.643395 -0.08735
C_ C_ 0.710289 0.681323 0.673285 -0.08735
C_ C_ 0.66227 0.681614 0.685196 -0.05681
C_ C_ 0.656624 0.670928 0.714549 0.44287
C_ C_ 0.567943 0.671481 0.70995 0.44287
C_ C_ 0.604709 0.650605 0.756363 0.18498
C_ C_ 0.586875 0.601576 0.761292 -0.08735
C_ C_ 0.577477 0.585209 0.789599 -0.08735
C_ C_ 0.588332 0.616062 0.812688 -0.08735
C_ C_ 0.610429 0.664736 0.809615 0.18498
C_ C_ 0.618603 0.681042 0.78063 -0.05681
C_ C_ 0.634676 0.730814 0.776852 -0.08735
C_ C_ 0.654588 0.758969 0.799323 -0.08735
C_ C_ 0.655373 0.736188 0.826903 0.1947
C_ C_ 0.777112 0.821547 0.653565 0.68181
C_ C_ 0.722281 0.820256 0.650402 -0.05681
C_ C_ 0.689371 0.820865 0.674525 -0.08735
C_ C_ 0.636391 0.822484 0.670525 -0.05681
C_ C_ 0.615159 0.826445 0.642363 -0.05681
C_ C_ 0.647666 0.825668 0.618072 -0.08735
C_ C_ 0.701367 0.8235 0.623116 -0.08735
C_ C_ 0.604479 0.819285 0.693337 -0.08735
C_ C_ 0.552935 0.814287 0.688642 -0.08735
C_ C_ 0.529754 0.822468 0.660982 -0.05681
C_ C_ 0.562482 0.829764 0.638128 -0.08735
C_ C_ 0.88234 0.717432 0.659747 0.68181
C_ C_ 0.8711 0.914169 0.650839 0.68181
C_ C_ 0.86759 0.970839 0.647061 -0.05681
C_ C_ 0.884545 0.502631 0.671274 -0.08735
C_ C_ 0.881039 0.554715 0.668502 -0.05681
C_ C_ 0.879166 0.575776 0.640954 -0.05681
C_ C_ 0.884159 0.547099 0.615812 -0.08735
C_ C_ 0.867428 0.993386 0.619653 -0.08735
C_ C_ 0.883788 0.585918 0.691998 -0.08735
C_ C_ 0.883335 0.638141 0.689842 -0.08735
C_ C_ 0.881813 0.661057 0.662205 -0.05681
C_ C_ 0.879886 0.628491 0.637595 -0.08735
C_ C_ 0.97513 0.815822 0.655663 0.68181
C_ C_ 0.915918 0.864179 0.732006 0.1947
C_ C_ 0.919528 0.886782 0.75933 -0.08735
C_ C_ 0.891434 0.867348 0.781868 -0.08735
C_ C_ 0.860095 0.826872 0.776957 -0.05681
C_ C_ 0.847376 0.814559 0.748625 0.18498
C_ C_ 0.813963 0.772446 0.743604 -0.08735
C_ C_ 0.795623 0.743423 0.765658 -0.08735
C_ C_ 0.804032 0.758913 0.793399 -0.08735
C_ C_ 0.835815 0.799013 0.800571 0.18498
C_ C_ 0.801944 0.822086 0.848251 0.44287
C_ C_ 0.88613 0.794891 0.843252 0.44287
C_ C_ 0.897109 0.808067 0.872365 -0.05681
C_ C_ 0.945822 0.807833 0.884404 -0.08735
C_ C_ 0.952797 0.811501 0.914884 -0.08735
C_ C_ 0.910966 0.820818 0.932606 -0.05681
C_ C_ 0.862954 0.826759 0.920126 -0.05681
C_ C_ 0.855737 0.818647 0.890096 -0.05681
C_ C_ 0.806775 0.826777 0.878216 -0.05681
C_ C_ 0.764513 0.838578 0.895765 -0.08735
C_ C_ 0.774705 0.846571 0.925248 -0.08735
C_ C_ 0.823065 0.840202 0.938487 -0.05681
C_ C_ 0.831452 0.846743 0.967772 0.44287
C_ C_ 0.9184 0.826838 0.962698 0.44287
C_ C_ 0.890659 0.837447 0.50729 0.18498
C_ C_ 0.921173 0.881686 0.513353 -0.08735
C_ C_ 0.938534 0.891281 0.540881 -0.08735
C_ C_ 0.918284 0.864193 0.563403 -0.08735
C_ C_ 0.887066 0.824417 0.559506 0.18498
C_ C_ 0.872653 0.81034 0.531653 -0.05681
C_ C_ 0.843026 0.768261 0.527045 -0.08735
C_ C_ 0.830036 0.737224 0.550725 -0.08735
C_ C_ 0.841536 0.754168 0.578679 0.1947
N_ N_ 0.620141 0.662134 0.97471 -0.29468
N_ N_ 0.639092 0.712014 0.579221 -0.17154
N_ N_ 0.608833 0.667157 0.726706 -0.17154
N_ N_ 0.627382 0.693535 0.832422 -0.29468
N_ N_ 0.87428 0.834 0.726426 -0.29468
N_ N_ 0.841686 0.80749 0.831234 -0.17154
N_ N_ 0.876768 0.836587 0.980258 -0.17154
N_ N_ 0.867168 0.798765 0.583206 -0.29468
O_ O_ 0.705394 0.676656 0.927396 -0.58347
O_ O_ 0.69956 0.681501 0.879782 -0.58347
O_ O_ 0.614255 0.747363 0.930682 -0.58347
O_ O_ 0.624966 0.755497 0.884759 -0.58347
O_ O_ 0.637486 0.599284 0.926321 -0.58347
O_ O_ 0.630133 0.602454 0.878171 -0.58347
O_ O_ 0.559373 0.6657 0.925424 -0.58347
O_ O_ 0.549567 0.671829 0.879058 -0.58347
O_ O_ 0.554606 0.723779 0.575406 -0.46727
O_ O_ 0.724152 0.694687 0.584354 -0.46727
O_ O_ 0.522891 0.662825 0.72018 -0.46727
O_ O_ 0.697647 0.669563 0.732021 -0.46727
O_ O_ 0.794747 0.831995 0.678683 -0.58347
O_ O_ 0.804383 0.800878 0.635209 -0.58347
O_ O_ 0.865418 0.741826 0.680974 -0.58347
O_ O_ 0.892915 0.737981 0.635981 -0.58347
O_ O_ 0.880829 0.896449 0.676072 -0.58347
O_ O_ 0.866066 0.883019 0.629177 -0.58347
O_ O_ 0.945583 0.812675 0.677257 -0.58347
O_ O_ 0.956347 0.824171 0.63124 -0.58347
O_ O_ 0.921652 0.775727 0.826668 -0.46727
O_ O_ 0.756845 0.825534 0.836434 -0.46727
O_ O_ 0.965317 0.829145 0.972745 -0.46727
O_ O_ 0.792054 0.858648 0.983456 -0.46727
