_cell_length_a 26.376
_cell_length_b 26.400000238300095
_cell_length_c 46.67800035477134
_cell_angle_alpha 90.00700052986613
_cell_angle_beta 89.99899961309502
_cell_angle_gamma 90.45000003183146
_symmetry_space_group_name_H-M         'P 1'
_symmetry_Int_Tables_number            1
loop_
_symmetry_equiv_pos_as_xyz
   'x, y, z'
                         
loop_
_atom_site_label
_atom_site_type_symbol
_atom_site_fract_x 
_atom_site_fract_y
_atom_site_fract_z
_atom_site_charge
Zn Zn 0.123267 0.182423 0.378224 0.90689
Zn Zn 0.133499 0.175545 0.428587 0.90689
Zn Zn 0.370333 0.323397 0.13109 0.90689
Zn Zn 0.361126 0.32941 0.177725 0.90689
H_ H_ 0.301269 0.196985 0.441326 0.11455
H_ H_ 0.367533 0.177529 0.342136 0.11455
H_ H_ 0.281499 0.15789 0.352166 0.11455
H_ H_ 0.384543 0.186465 0.4617 0.11455
H_ H_ 0.477415 0.181676 0.45578 0.11455
H_ H_ 0.45739 0.175197 0.364527 0.11455
H_ H_ 0.112719 0.0101576 0.439386 0.11455
H_ H_ 0.132149 0.436646 0.345387 0.11455
H_ H_ 0.151438 0.0203578 0.347838 0.11455
H_ H_ 0.125519 0.428151 0.463341 0.11455
H_ H_ 0.139219 0.338191 0.459939 0.11455
H_ H_ 0.115788 0.350533 0.366949 0.11455
H_ H_ 0.0858325 0.0935663 0.46982 0.11455
H_ H_ 0.061888 0.0834051 0.0139314 0.11455
H_ H_ 0.0992968 0.125806 0.0527268 0.11455
H_ H_ 0.18812 0.245556 0.470897 0.11455
H_ H_ 0.216969 0.304749 0.00815641 0.11455
H_ H_ 0.207405 0.277116 0.0577404 0.11455
H_ H_ 0.0123866 0.193376 0.120372 0.11455
H_ H_ 0.000624201 0.185781 0.170078 0.11455
H_ H_ 0.265794 0.169606 0.136232 0.11455
H_ H_ 0.25248 0.158035 0.188468 0.11455
H_ H_ 0.0893218 0.0798931 0.244351 0.11455
H_ H_ 0.0504994 0.0581801 0.292394 0.11455
H_ H_ 0.0705976 0.116697 0.335772 0.11455
H_ H_ 0.157297 0.246489 0.257162 0.11455
H_ H_ 0.184349 0.296635 0.299963 0.11455
H_ H_ 0.173701 0.256401 0.347229 0.11455
H_ H_ 0.195127 0.302393 0.195628 0.11455
H_ H_ 0.123447 0.331835 0.0970282 0.11455
H_ H_ 0.213574 0.326119 0.102288 0.11455
H_ H_ 0.104797 0.31459 0.214193 0.11455
H_ H_ 0.0123578 0.307457 0.205571 0.11455
H_ H_ 0.0357833 0.31954 0.114733 0.11455
H_ H_ 0.374362 0.495431 0.194577 0.11455
H_ H_ 0.381335 0.0802799 0.0947016 0.11455
H_ H_ 0.361963 0.486198 0.10455 0.11455
H_ H_ 0.360832 0.0866987 0.211296 0.11455
H_ H_ 0.357057 0.179896 0.2061 0.11455
H_ H_ 0.389578 0.16373 0.11591 0.11455
H_ H_ 0.424283 0.389964 0.214092 0.11455
H_ H_ 0.449682 0.414836 0.263876 0.11455
H_ H_ 0.400004 0.375603 0.305033 0.11455
H_ H_ 0.296605 0.262057 0.224237 0.11455
H_ H_ 0.254464 0.22755 0.26613 0.11455
H_ H_ 0.289715 0.232193 0.312461 0.11455
H_ H_ 0.483875 0.30204 0.373763 0.11455
H_ H_ 0.495702 0.299409 0.423456 0.11455
H_ H_ 0.232571 0.329596 0.389362 0.11455
H_ H_ 0.250225 0.348237 0.440081 0.11455
H_ H_ 0.438524 0.412378 0.498553 0.11455
H_ H_ 0.460973 0.438359 0.0434754 0.11455
H_ H_ 0.424195 0.395753 0.0863565 0.11455
H_ H_ 0.34563 0.255811 0.00873188 0.11455
H_ H_ 0.306643 0.215876 0.0526205 0.11455
H_ H_ 0.325595 0.246644 0.0976473 0.11455
C_ C_ 0.225545 0.184549 0.400298 0.68181
C_ C_ 0.280435 0.182408 0.396103 -0.05681
C_ C_ 0.314743 0.189578 0.420378 -0.08735
C_ C_ 0.368003 0.185581 0.415624 -0.05681
C_ C_ 0.387485 0.18254 0.387244 -0.05681
C_ C_ 0.35517 0.175597 0.364371 -0.08735
C_ C_ 0.304041 0.172516 0.369058 -0.08735
C_ C_ 0.4012 0.184925 0.439725 -0.08735
C_ C_ 0.453356 0.179033 0.436074 -0.08735
C_ C_ 0.47335 0.178782 0.408784 -0.05681
C_ C_ 0.440053 0.17555 0.384368 -0.08735
C_ C_ 0.128169 0.27693 0.409223 0.68181
C_ C_ 0.131599 0.0786264 0.397217 0.68181
C_ C_ 0.134383 0.0239542 0.395285 -0.05681
C_ C_ 0.13482 0.494526 0.421165 -0.08735
C_ C_ 0.128723 0.441688 0.418993 -0.05681
C_ C_ 0.125106 0.419341 0.391293 -0.05681
C_ C_ 0.130833 0.450825 0.366645 -0.08735
C_ C_ 0.135403 0.502738 0.369824 -0.08735
C_ C_ 0.126499 0.41155 0.443237 -0.08735
C_ C_ 0.126435 0.35784 0.442315 -0.08735
C_ C_ 0.123117 0.333997 0.414114 -0.05681
C_ C_ 0.118619 0.366285 0.389165 -0.08735
C_ C_ 0.0300096 0.170324 0.404069 0.68181
C_ C_ 0.109189 0.115972 0.485532 0.1947
C_ C_ 0.0895535 0.113091 0.00845724 -0.08735
C_ C_ 0.109858 0.137084 0.0318471 -0.08735
C_ C_ 0.142138 0.180695 0.027072 -0.05681
C_ C_ 0.156367 0.192707 0.997951 0.18498
C_ C_ 0.180125 0.23703 0.493061 -0.08735
C_ C_ 0.202771 0.266819 0.0137255 -0.08735
C_ C_ 0.191412 0.254262 0.0419032 -0.08735
C_ C_ 0.160539 0.212327 0.0495196 0.18498
C_ C_ 0.192492 0.19541 0.0976613 0.44287
C_ C_ 0.104061 0.200073 0.0911337 0.44287
C_ C_ 0.0957325 0.196158 0.121607 -0.05681
C_ C_ 0.0464278 0.192741 0.133738 -0.08735
C_ C_ 0.0387962 0.19191 0.162397 -0.08735
C_ C_ 0.0805713 0.183556 0.180852 -0.05681
C_ C_ 0.130277 0.178089 0.169253 -0.05681
C_ C_ 0.138271 0.19003 0.139445 -0.05681
C_ C_ 0.187514 0.186202 0.12703 -0.05681
C_ C_ 0.228838 0.175556 0.145225 -0.08735
C_ C_ 0.220359 0.165874 0.17439 -0.08735
C_ C_ 0.171766 0.172913 0.186874 -0.05681
C_ C_ 0.164702 0.166658 0.216509 0.44287
C_ C_ 0.0758747 0.179884 0.210633 0.44287
C_ C_ 0.111295 0.154888 0.257298 0.18498
C_ C_ 0.0915527 0.106521 0.26191 -0.08735
C_ C_ 0.0739901 0.091755 0.289724 -0.08735
C_ C_ 0.0874137 0.122835 0.314032 -0.08735
C_ C_ 0.116994 0.165691 0.310493 0.18498
C_ C_ 0.126022 0.184497 0.281652 -0.05681
C_ C_ 0.151863 0.231774 0.27863 -0.08735
C_ C_ 0.16911 0.258814 0.303176 -0.08735
C_ C_ 0.154097 0.240569 0.330234 0.1947
C_ C_ 0.264904 0.315424 0.154227 0.68181
C_ C_ 0.210265 0.315372 0.149661 -0.05681
C_ C_ 0.177584 0.307018 0.174024 -0.08735
C_ C_ 0.125238 0.31155 0.169586 -0.05681
C_ C_ 0.104787 0.313509 0.140923 -0.05681
C_ C_ 0.13733 0.319759 0.117884 -0.08735
C_ C_ 0.189047 0.316614 0.12145 -0.08735
C_ C_ 0.0909568 0.314185 0.192053 -0.08735
C_ C_ 0.0390848 0.31576 0.18721 -0.08735
C_ C_ 0.0198811 0.318044 0.160499 -0.05681
C_ C_ 0.0524582 0.31613 0.136586 -0.08735
C_ C_ 0.376628 0.231171 0.157863 0.68181
C_ C_ 0.358151 0.427701 0.153455 0.68181
C_ C_ 0.365203 0.483099 0.150329 -0.05681
C_ C_ 0.366326 0.0184777 0.169673 -0.08735
C_ C_ 0.371078 0.0711093 0.166331 -0.05681
C_ C_ 0.377568 0.093631 0.139235 -0.05681
C_ C_ 0.382633 0.0627809 0.115473 -0.08735
C_ C_ 0.371359 0.505952 0.12295 -0.08735
C_ C_ 0.364144 0.102974 0.190201 -0.08735
C_ C_ 0.363369 0.15442 0.187162 -0.08735
C_ C_ 0.376492 0.177449 0.160719 -0.05681
C_ C_ 0.381465 0.146489 0.136253 -0.08735
C_ C_ 0.463777 0.333647 0.159186 0.68181
C_ C_ 0.406128 0.37154 0.233207 0.1947
C_ C_ 0.421009 0.385878 0.262034 -0.08735
C_ C_ 0.399815 0.358652 0.284706 -0.08735
C_ C_ 0.362843 0.319678 0.279106 -0.05681
C_ C_ 0.346405 0.310206 0.250658 0.18498
C_ C_ 0.308469 0.275027 0.245671 -0.08735
C_ C_ 0.288659 0.246975 0.268875 -0.08735
C_ C_ 0.311261 0.249766 0.29502 -0.08735
C_ C_ 0.344198 0.289128 0.301422 0.18498
C_ C_ 0.308418 0.314389 0.347972 0.44287
C_ C_ 0.395688 0.29848 0.345049 0.44287
C_ C_ 0.40366 0.302969 0.374121 -0.05681
C_ C_ 0.450092 0.304066 0.386351 -0.08735
C_ C_ 0.457403 0.299257 0.415866 -0.08735
C_ C_ 0.415493 0.308676 0.433918 -0.05681
C_ C_ 0.366823 0.314994 0.42095 -0.05681
C_ C_ 0.360903 0.309188 0.391221 -0.05681
C_ C_ 0.311672 0.313164 0.378534 -0.05681
C_ C_ 0.271825 0.327423 0.39686 -0.08735
C_ C_ 0.280037 0.338563 0.426484 -0.08735
C_ C_ 0.327124 0.333833 0.438748 -0.05681
C_ C_ 0.334419 0.345086 0.467952 0.44287
C_ C_ 0.421389 0.317659 0.46358 0.44287
C_ C_ 0.403082 0.337891 0.00945945 0.18498
C_ C_ 0.433486 0.381173 0.0141606 -0.08735
C_ C_ 0.442569 0.399764 0.0418247 -0.08735
C_ C_ 0.42083 0.377241 0.0651269 -0.08735
C_ C_ 0.386083 0.336412 0.0604607 0.18498
C_ C_ 0.378195 0.314809 0.0325582 -0.05681
C_ C_ 0.348699 0.271863 0.0287917 -0.08735
C_ C_ 0.334438 0.245568 0.0531553 -0.08735
C_ C_ 0.338599 0.269061 0.0798509 0.1947
N_ N_ 0.136155 0.158254 0.478952 -0.29468
N_ N_ 0.152108 0.205122 0.0800081 -0.17154
N_ N_ 0.117706 0.17166 0.228099 -0.17154
N_ N_ 0.132658 0.193489 0.333301 -0.29468
N_ N_ 0.369448 0.336233 0.228676 -0.29468
N_ N_ 0.349752 0.303867 0.331854 -0.17154
N_ N_ 0.380609 0.333348 0.48012 -0.17154
N_ N_ 0.367904 0.311281 0.0843835 -0.29468
O_ O_ 0.208201 0.180408 0.425734 -0.58347
O_ O_ 0.196113 0.187563 0.378332 -0.58347
O_ O_ 0.132172 0.248576 0.430933 -0.58347
O_ O_ 0.114927 0.257181 0.38543 -0.58347
O_ O_ 0.130048 0.101094 0.422165 -0.58347
O_ O_ 0.130475 0.105821 0.374946 -0.58347
O_ O_ 0.0577209 0.171379 0.425905 -0.58347
O_ O_ 0.0486636 0.173955 0.378951 -0.58347
O_ O_ 0.0641291 0.207038 0.0749093 -0.46727
O_ O_ 0.238837 0.194935 0.0858545 -0.46727
O_ O_ 0.0329993 0.187157 0.223825 -0.46727
O_ O_ 0.20504 0.158469 0.233949 -0.46727
O_ O_ 0.284408 0.327891 0.177645 -0.58347
O_ O_ 0.295083 0.305839 0.132915 -0.58347
O_ O_ 0.364951 0.257261 0.178743 -0.58347
O_ O_ 0.386947 0.251814 0.134454 -0.58347
O_ O_ 0.357793 0.40498 0.177373 -0.58347
O_ O_ 0.356657 0.401137 0.130098 -0.58347
O_ O_ 0.43792 0.32293 0.181089 -0.58347
O_ O_ 0.444065 0.339121 0.134951 -0.58347
O_ O_ 0.434082 0.283034 0.329165 -0.46727
O_ O_ 0.264029 0.320533 0.334908 -0.46727
O_ O_ 0.462659 0.303282 0.47479 -0.46727
O_ O_ 0.295102 0.355486 0.484348 -0.46727
Zn Zn 0.132736 0.179657 0.880784 0.90689
Zn Zn 0.141741 0.176307 0.928155 0.90689
Zn Zn 0.372851 0.320639 0.633554 0.90689
Zn Zn 0.36541 0.333689 0.680155 0.90689
H_ H_ 0.309705 0.179685 0.948036 0.11455
H_ H_ 0.377415 0.132228 0.852385 0.11455
H_ H_ 0.289949 0.146416 0.85892 0.11455
H_ H_ 0.393341 0.174873 0.968354 0.11455
H_ H_ 0.487477 0.179215 0.961014 0.11455
H_ H_ 0.465059 0.148124 0.870543 0.11455
H_ H_ 0.160725 0.00401016 0.940479 0.11455
H_ H_ 0.134533 0.432209 0.840534 0.11455
H_ H_ 0.132382 0.0167002 0.85032 0.11455
H_ H_ 0.15326 0.423493 0.958791 0.11455
H_ H_ 0.135099 0.336557 0.9552 0.11455
H_ H_ 0.131109 0.344663 0.865399 0.11455
H_ H_ 0.0848052 0.104181 0.962474 0.11455
H_ H_ 0.0835026 0.065237 0.519575 0.11455
H_ H_ 0.109304 0.123541 0.558496 0.11455
H_ H_ 0.195975 0.24322 0.96908 0.11455
H_ H_ 0.215816 0.302249 0.510495 0.11455
H_ H_ 0.19399 0.284561 0.559795 0.11455
H_ H_ 0.0113892 0.209355 0.62044 0.11455
H_ H_ 0.0008600000000000829 0.202414 0.67191 0.11455
H_ H_ 0.260644 0.161174 0.639348 0.11455
H_ H_ 0.251118 0.174411 0.690085 0.11455
H_ H_ 0.0588651 0.101998 0.747469 0.11455
H_ H_ 0.0387858 0.0768896 0.800274 0.11455
H_ H_ 0.082032 0.117663 0.838998 0.11455
H_ H_ 0.152743 0.258217 0.757696 0.11455
H_ H_ 0.193057 0.297944 0.79966 0.11455
H_ H_ 0.192865 0.260567 0.846205 0.11455
H_ H_ 0.193826 0.311964 0.693322 0.11455
H_ H_ 0.123823 0.320633 0.594345 0.11455
H_ H_ 0.218056 0.32206 0.601678 0.11455
H_ H_ 0.108825 0.314564 0.711788 0.11455
H_ H_ 0.0165701 0.31927 0.706448 0.11455
H_ H_ 0.0347877 0.316445 0.614841 0.11455
H_ H_ 0.346269 0.49318 0.690498 0.11455
H_ H_ 0.376161 0.0737399 0.601071 0.11455
H_ H_ 0.401435 0.477723 0.605652 0.11455
H_ H_ 0.353303 0.0802909 0.718619 0.11455
H_ H_ 0.364992 0.171184 0.715728 0.11455
H_ H_ 0.381673 0.157913 0.623203 0.11455
H_ H_ 0.415904 0.40613 0.718195 0.11455
H_ H_ 0.446282 0.419307 0.768052 0.11455
H_ H_ 0.412963 0.37348 0.807266 0.11455
H_ H_ 0.304886 0.266891 0.721591 0.11455
H_ H_ 0.267689 0.21611 0.758282 0.11455
H_ H_ 0.296921 0.228449 0.809896 0.11455
H_ H_ 0.490396 0.265673 0.872156 0.11455
H_ H_ 0.503051 0.295634 0.924751 0.11455
H_ H_ 0.247584 0.346361 0.88722 0.11455
H_ H_ 0.264971 0.363553 0.937073 0.11455
H_ H_ 0.451171 0.402177 -0.0020820000000000283 0.11455
H_ H_ 0.46549 0.428749 0.547062 0.11455
H_ H_ 0.435587 0.380033 0.58733 0.11455
H_ H_ 0.334023 0.255647 0.507773 0.11455
H_ H_ 0.308578 0.206575 0.548136 0.11455
H_ H_ 0.324318 0.236236 0.599202 0.11455
C_ C_ 0.236426 0.180662 0.906995 0.68181
C_ C_ 0.291615 0.171243 0.904048 -0.05681
C_ C_ 0.326009 0.177505 0.926862 -0.08735
C_ C_ 0.37844 0.171751 0.923098 -0.05681
C_ C_ 0.398705 0.155335 0.89669 -0.05681
C_ C_ 0.364365 0.14524 0.873575 -0.08735
C_ C_ 0.313877 0.156238 0.876993 -0.08735
C_ C_ 0.409211 0.168865 0.946866 -0.08735
C_ C_ 0.461755 0.175637 0.942678 -0.08735
C_ C_ 0.485113 0.165152 0.914879 -0.05681
C_ C_ 0.451494 0.1565 0.89214 -0.08735
C_ C_ 0.134592 0.276935 0.9082 0.68181
C_ C_ 0.146889 0.0774589 0.898461 0.68181
C_ C_ 0.143093 0.0195207 0.895728 -0.05681
C_ C_ 0.138172 0.493821 0.917244 -0.08735
C_ C_ 0.13759 0.441467 0.914185 -0.05681
C_ C_ 0.135453 0.418578 0.886551 -0.05681
C_ C_ 0.139048 0.449903 0.861706 -0.08735
C_ C_ 0.138514 0.502867 0.86486 -0.08735
C_ C_ 0.14541 0.409916 0.937864 -0.08735
C_ C_ 0.14234 0.359135 0.936157 -0.08735
C_ C_ 0.133369 0.335106 0.909549 -0.05681
C_ C_ 0.133226 0.363918 0.885221 -0.08735
C_ C_ 0.0399944 0.17187 0.902764 0.68181
C_ C_ 0.104651 0.123809 0.980708 0.1947
C_ C_ 0.0993312 0.102371 0.514174 -0.08735
C_ C_ 0.116709 0.131842 0.536228 -0.08735
C_ C_ 0.143852 0.177385 0.529352 -0.05681
C_ C_ 0.152518 0.191818 0.500672 0.18498
C_ C_ 0.182748 0.237526 0.992355 -0.08735
C_ C_ 0.191726 0.270204 0.515186 -0.08735
C_ C_ 0.182201 0.258093 0.544182 -0.08735
C_ C_ 0.157092 0.210726 0.550996 0.18498
C_ C_ 0.189479 0.186041 0.597662 0.44287
C_ C_ 0.101592 0.202855 0.592793 0.44287
C_ C_ 0.0935235 0.202532 0.622411 -0.05681
C_ C_ 0.0445689 0.205397 0.634618 -0.08735
C_ C_ 0.0370764 0.194659 0.663015 -0.08735
C_ C_ 0.0791892 0.188997 0.681983 -0.05681
C_ C_ 0.127406 0.186264 0.66994 -0.05681
C_ C_ 0.135845 0.192649 0.640339 -0.05681
C_ C_ 0.184523 0.18518 0.628086 -0.05681
C_ C_ 0.225186 0.175124 0.646599 -0.08735
C_ C_ 0.217734 0.172735 0.676539 -0.08735
C_ C_ 0.168859 0.175954 0.68833 -0.05681
C_ C_ 0.162201 0.171763 0.717902 0.44287
C_ C_ 0.0734353 0.186009 0.711479 0.44287
C_ C_ 0.105636 0.162358 0.760049 0.18498
C_ C_ 0.0757769 0.11874 0.765978 -0.08735
C_ C_ 0.0636107 0.106571 0.794313 -0.08735
C_ C_ 0.0862777 0.133078 0.817008 -0.08735
C_ C_ 0.117155 0.17596 0.811789 0.18498
C_ C_ 0.126183 0.192938 0.783304 -0.05681
C_ C_ 0.149631 0.241709 0.778555 -0.08735
C_ C_ 0.171122 0.263687 0.80244 -0.08735
C_ C_ 0.173867 0.238107 0.829181 0.1947
C_ C_ 0.269405 0.318371 0.650591 0.68181
C_ C_ 0.213292 0.321871 0.647515 -0.05681
C_ C_ 0.179845 0.313134 0.671078 -0.08735
C_ C_ 0.125782 0.31595 0.666598 -0.05681
C_ C_ 0.105532 0.323508 0.638997 -0.05681
C_ C_ 0.139974 0.320459 0.61586 -0.08735
C_ C_ 0.191374 0.323786 0.619187 -0.08735
C_ C_ 0.0930695 0.31308 0.691274 -0.08735
C_ C_ 0.0416263 0.31951 0.687611 -0.08735
C_ C_ 0.0193771 0.319921 0.659929 -0.05681
C_ C_ 0.0527999 0.322559 0.635819 -0.08735
C_ C_ 0.373711 0.229569 0.664113 0.68181
C_ C_ 0.36738 0.42556 0.650615 0.68181
C_ C_ 0.368032 0.479685 0.646652 -0.05681
C_ C_ 0.362025 0.0108475 0.675928 -0.08735
C_ C_ 0.369601 0.064478 0.673559 -0.05681
C_ C_ 0.376041 0.0861758 0.646215 -0.05681
C_ C_ 0.376176 0.055349 0.622109 -0.08735
C_ C_ 0.38603 0.500897 0.621838 -0.08735
C_ C_ 0.360535 0.0972142 0.696964 -0.08735
C_ C_ 0.367265 0.148145 0.695203 -0.08735
C_ C_ 0.371313 0.171514 0.668119 -0.05681
C_ C_ 0.375831 0.139133 0.643201 -0.08735
C_ C_ 0.466873 0.339193 0.656665 0.68181
C_ C_ 0.404635 0.379194 0.734793 0.1947
C_ C_ 0.420586 0.386529 0.76301 -0.08735
C_ C_ 0.401453 0.359902 0.785406 -0.08735
C_ C_ 0.37076 0.318291 0.779304 -0.05681
C_ C_ 0.354126 0.310993 0.749723 0.18498
C_ C_ 0.316655 0.274845 0.743285 -0.08735
C_ C_ 0.297999 0.241574 0.76479 -0.08735
C_ C_ 0.313312 0.250199 0.793361 -0.08735
C_ C_ 0.347485 0.289453 0.801038 0.18498
C_ C_ 0.317959 0.319482 0.84894 0.44287
C_ C_ 0.399281 0.284031 0.84422 0.44287
C_ C_ 0.408541 0.289674 0.873837 -0.05681
C_ C_ 0.458564 0.282405 0.88594 -0.08735
C_ C_ 0.467158 0.289459 0.915372 -0.08735
C_ C_ 0.426098 0.304867 0.932474 -0.05681
C_ C_ 0.37727 0.316116 0.920712 -0.05681
C_ C_ 0.368186 0.309027 0.890912 -0.05681
C_ C_ 0.322337 0.319987 0.878665 -0.05681
C_ C_ 0.285353 0.337893 0.896535 -0.08735
C_ C_ 0.292943 0.340906 0.926557 -0.08735
C_ C_ 0.338965 0.332041 0.938791 -0.05681
C_ C_ 0.346517 0.333636 0.969653 0.44287
C_ C_ 0.430086 0.304511 0.962791 0.44287
C_ C_ 0.390928 0.345337 0.510271 0.18498
C_ C_ 0.421407 0.389626 0.515411 -0.08735
C_ C_ 0.434161 0.40202 0.544927 -0.08735
C_ C_ 0.4147 0.372361 0.566849 -0.08735
C_ C_ 0.3801 0.331315 0.562345 0.18498
C_ C_ 0.369937 0.316871 0.533762 -0.05681
C_ C_ 0.343165 0.270193 0.529371 -0.08735
C_ C_ 0.323968 0.243889 0.552853 -0.08735
C_ C_ 0.336607 0.258336 0.580774 0.1947
N_ N_ 0.136123 0.164167 0.97556 -0.29468
N_ N_ 0.148172 0.200279 0.581344 -0.17154
N_ N_ 0.114584 0.172903 0.729299 -0.17154
N_ N_ 0.139904 0.19978 0.834801 -0.29468
N_ N_ 0.370583 0.343378 0.728696 -0.29468
N_ N_ 0.354827 0.299689 0.831839 -0.17154
N_ N_ 0.39193 0.323412 0.98078 -0.17154
N_ N_ 0.366143 0.30242 0.58461 -0.29468
O_ O_ 0.216537 0.173467 0.930925 -0.58347
O_ O_ 0.210126 0.184301 0.883822 -0.58347
O_ O_ 0.144363 0.251531 0.929964 -0.58347
O_ O_ 0.120158 0.2534 0.885453 -0.58347
O_ O_ 0.13907 0.100408 0.921 -0.58347
O_ O_ 0.142226 0.102331 0.874916 -0.58347
O_ O_ 0.0670976 0.175621 0.925595 -0.58347
O_ O_ 0.059544 0.175131 0.877833 -0.58347
O_ O_ 0.0627267 0.219629 0.576791 -0.46727
O_ O_ 0.234959 0.19079 0.587087 -0.46727
O_ O_ 0.0297438 0.199185 0.723646 -0.46727
O_ O_ 0.200882 0.155561 0.733327 -0.46727
O_ O_ 0.289841 0.322875 0.674345 -0.58347
O_ O_ 0.296859 0.315763 0.628993 -0.58347
O_ O_ 0.372656 0.258741 0.685676 -0.58347
O_ O_ 0.373922 0.249179 0.639637 -0.58347
O_ O_ 0.364934 0.407402 0.676362 -0.58347
O_ O_ 0.365788 0.395687 0.629167 -0.58347
O_ O_ 0.438833 0.342356 0.678714 -0.58347
O_ O_ 0.446373 0.328363 0.632462 -0.58347
O_ O_ 0.434457 0.265162 0.825784 -0.46727
O_ O_ 0.273405 0.331615 0.836373 -0.46727
O_ O_ 0.474309 0.298033 0.974546 -0.46727
O_ O_ 0.308621 0.351728 0.986884 -0.46727
Zn Zn 0.123521 0.681796 0.377861 0.90689
Zn Zn 0.136088 0.675523 0.424645 0.90689
Zn Zn 0.38018 0.826352 0.131066 0.90689
Zn Zn 0.368934 0.831743 0.180796 0.90689
H_ H_ 0.30168 0.684368 0.442788 0.11455
H_ H_ 0.376645 0.662286 0.34619 0.11455
H_ H_ 0.281729 0.656321 0.354209 0.11455
H_ H_ 0.386648 0.694246 0.464072 0.11455
H_ H_ 0.477968 0.682179 0.459692 0.11455
H_ H_ 0.458509 0.653592 0.370164 0.11455
H_ H_ 0.138906 0.511525 0.442946 0.11455
H_ H_ 0.137314 0.931637 0.344005 0.11455
H_ H_ 0.134335 0.525672 0.351217 0.11455
H_ H_ 0.0891652 0.923935 0.456543 0.11455
H_ H_ 0.0805246 0.834532 0.449174 0.11455
H_ H_ 0.147717 0.848002 0.366107 0.11455
H_ H_ 0.0748205 0.606718 0.462934 0.11455
H_ H_ 0.0615177 0.571765 0.0115858 0.11455
H_ H_ 0.107056 0.615341 0.0516696 0.11455
H_ H_ 0.198358 0.738403 0.469475 0.11455
H_ H_ 0.234954 0.777911 0.0032457 0.11455
H_ H_ 0.213548 0.762709 0.0554353 0.11455
H_ H_ 0.0259854 0.680555 0.119962 0.11455
H_ H_ 0.0152125 0.678259 0.171804 0.11455
H_ H_ 0.277411 0.665598 0.129272 0.11455
H_ H_ 0.270694 0.65605 0.182344 0.11455
H_ H_ 0.0964983 0.575218 0.240631 0.11455
H_ H_ 0.0716531 0.54999 0.291492 0.11455
H_ H_ 0.0778218 0.607386 0.329484 0.11455
H_ H_ 0.166621 0.742888 0.253311 0.11455
H_ H_ 0.169222 0.801505 0.297717 0.11455
H_ H_ 0.162405 0.765759 0.34521 0.11455
H_ H_ 0.207632 0.818867 0.199476 0.11455
H_ H_ 0.133214 0.829445 0.100322 0.11455
H_ H_ 0.222539 0.8353 0.10702 0.11455
H_ H_ 0.118796 0.828136 0.215753 0.11455
H_ H_ 0.0250427 0.81767 0.21058 0.11455
H_ H_ 0.0508615 0.807851 0.117529 0.11455
H_ H_ 0.359913 1.00484381 0.19132 0.11455
H_ H_ 0.373006 0.573084 0.0991226 0.11455
H_ H_ 0.385574 0.981572 0.100389 0.11455
H_ H_ 0.37153 0.582418 0.217092 0.11455
H_ H_ 0.394369 0.674072 0.210864 0.11455
H_ H_ 0.384646 0.658846 0.122092 0.11455
H_ H_ 0.41453 0.909852 0.21781 0.11455
H_ H_ 0.425726 0.937215 0.266005 0.11455
H_ H_ 0.382911 0.891992 0.30654 0.11455
H_ H_ 0.308257 0.766697 0.223037 0.11455
H_ H_ 0.28085 0.710459 0.262149 0.11455
H_ H_ 0.30771 0.735575 0.313629 0.11455
H_ H_ 0.48343 0.777638 0.372513 0.11455
H_ H_ 0.497595 0.802554 0.422575 0.11455
H_ H_ 0.235515 0.839333 0.38979 0.11455
H_ H_ 0.253099 0.853326 0.442306 0.11455
H_ H_ 0.452745 0.907703 0.499225 0.11455
H_ H_ 0.479324 0.925163 0.0526755 0.11455
H_ H_ 0.444901 0.871946 0.0901092 0.11455
H_ H_ 0.362016 0.752507 0.00573523 0.11455
H_ H_ 0.308962 0.713616 0.0423756 0.11455
H_ H_ 0.31335 0.745466 0.0925928 0.11455
C_ C_ 0.231988 0.685894 0.401296 0.68181
C_ C_ 0.287123 0.681891 0.396476 -0.05681
C_ C_ 0.318161 0.680788 0.421881 -0.08735
C_ C_ 0.370395 0.67516 0.419405 -0.05681
C_ C_ 0.391312 0.666392 0.391806 -0.05681
C_ C_ 0.360915 0.660248 0.367171 -0.08735
C_ C_ 0.3089 0.669297 0.369933 -0.08735
C_ C_ 0.402195 0.682227 0.442479 -0.08735
C_ C_ 0.45533 0.682662 0.439573 -0.08735
C_ C_ 0.475829 0.676751 0.412884 -0.05681
C_ C_ 0.444086 0.66297 0.390362 -0.08735
C_ C_ 0.117041 0.778108 0.404687 0.68181
C_ C_ 0.143843 0.579587 0.399846 0.68181
C_ C_ 0.135005 0.525109 0.397194 -0.05681
C_ C_ 0.123034 0.993103 0.418429 -0.08735
C_ C_ 0.121617 0.940411 0.415263 -0.05681
C_ C_ 0.135522 0.918389 0.388693 -0.05681
C_ C_ 0.142283 0.948362 0.364838 -0.08735
C_ C_ 0.146284 1.00094 0.368211 -0.08735
C_ C_ 0.0987913 0.908871 0.436415 -0.08735
C_ C_ 0.0999154 0.856046 0.432644 -0.08735
C_ C_ 0.111126 0.833659 0.406532 -0.05681
C_ C_ 0.132527 0.865304 0.385543 -0.08735
C_ C_ 0.0319274 0.676498 0.40227 0.68181
C_ C_ 0.0945022 0.627559 0.480984 0.1947
C_ C_ 0.0872076 0.603335 0.00870772 -0.08735
C_ C_ 0.109683 0.628699 0.0307843 -0.08735
C_ C_ 0.144088 0.669107 0.0248262 -0.05681
C_ C_ 0.155046 0.67967 0.995921 0.18498
C_ C_ 0.187875 0.728505 0.491407 -0.08735
C_ C_ 0.202329 0.755105 0.0104922 -0.08735
C_ C_ 0.190445 0.743381 0.0390077 -0.08735
C_ C_ 0.163151 0.702061 0.0463041 0.18498
C_ C_ 0.198894 0.675765 0.0922559 0.44287
C_ C_ 0.112438 0.697721 0.0899348 0.44287
C_ C_ 0.105798 0.685392 0.119353 -0.05681
C_ C_ 0.0593738 0.679279 0.132446 -0.08735
C_ C_ 0.0525571 0.678449 0.16215 -0.08735
C_ C_ 0.0965981 0.671658 0.179303 -0.05681
C_ C_ 0.145254 0.667212 0.16539 -0.05681
C_ C_ 0.149429 0.67877 0.136029 -0.05681
C_ C_ 0.196022 0.667362 0.121762 -0.05681
C_ C_ 0.24027 0.662957 0.138713 -0.08735
C_ C_ 0.236272 0.659097 0.168856 -0.08735
C_ C_ 0.187708 0.657741 0.182471 -0.05681
C_ C_ 0.182065 0.652646 0.212624 0.44287
C_ C_ 0.0952783 0.672154 0.209328 0.44287
C_ C_ 0.128089 0.645242 0.254133 0.18498
C_ C_ 0.109413 0.59774 0.258898 -0.08735
C_ C_ 0.0945518 0.582124 0.28704 -0.08735
C_ C_ 0.100907 0.615711 0.31035 -0.08735
C_ C_ 0.127524 0.662515 0.306975 0.18498
C_ C_ 0.140882 0.678928 0.278004 -0.05681
C_ C_ 0.15522 0.729894 0.274464 -0.08735
C_ C_ 0.157185 0.762751 0.298358 -0.08735
C_ C_ 0.153708 0.741553 0.327007 0.1947
C_ C_ 0.277917 0.816574 0.157141 0.68181
C_ C_ 0.221051 0.814077 0.153086 -0.05681
C_ C_ 0.189691 0.811817 0.177381 -0.08735
C_ C_ 0.135821 0.817131 0.17426 -0.05681
C_ C_ 0.115774 0.80977 0.14552 -0.05681
C_ C_ 0.147603 0.813918 0.121599 -0.08735
C_ C_ 0.200973 0.818704 0.124804 -0.08735
C_ C_ 0.10249 0.818672 0.196187 -0.08735
C_ C_ 0.0498811 0.81557 0.19105 -0.08735
C_ C_ 0.0295313 0.81247 0.163159 -0.05681
C_ C_ 0.0630522 0.808481 0.140344 -0.08735
C_ C_ 0.380935 0.730085 0.164202 0.68181
C_ C_ 0.367422 0.929095 0.148826 0.68181
C_ C_ 0.368951 0.985374 0.144933 -0.05681
C_ C_ 0.367309 0.514075 0.173911 -0.08735
C_ C_ 0.372493 0.567195 0.172849 -0.05681
C_ C_ 0.374095 0.588836 0.145451 -0.05681
C_ C_ 0.370955 0.557878 0.120766 -0.08735
C_ C_ 0.380205 0.00859062 0.117545 -0.08735
C_ C_ 0.380425 0.597456 0.196619 -0.08735
C_ C_ 0.382654 0.651465 0.192707 -0.08735
C_ C_ 0.379327 0.673465 0.166132 -0.05681
C_ C_ 0.3824 0.642414 0.142261 -0.08735
C_ C_ 0.47165 0.831592 0.158022 0.68181
C_ C_ 0.395043 0.890123 0.233971 0.1947
C_ C_ 0.39776 0.908265 0.262457 -0.08735
C_ C_ 0.376909 0.880574 0.284378 -0.08735
C_ C_ 0.351562 0.835869 0.278352 -0.05681
C_ C_ 0.344414 0.822239 0.249308 0.18498
C_ C_ 0.320334 0.776006 0.243983 -0.08735
C_ C_ 0.307186 0.743611 0.267099 -0.08735
C_ C_ 0.318332 0.756093 0.295265 -0.08735
C_ C_ 0.342199 0.801196 0.30144 0.18498
C_ C_ 0.31222 0.823896 0.34918 0.44287
C_ C_ 0.39857 0.803416 0.342746 0.44287
C_ C_ 0.406293 0.806098 0.372321 -0.05681
C_ C_ 0.450746 0.791163 0.384411 -0.08735
C_ C_ 0.459477 0.800395 0.414137 -0.08735
C_ C_ 0.418641 0.810435 0.432779 -0.05681
C_ C_ 0.370734 0.816781 0.420525 -0.05681
C_ C_ 0.365007 0.818948 0.390977 -0.05681
C_ C_ 0.317756 0.829337 0.379142 -0.05681
C_ C_ 0.275468 0.842586 0.397591 -0.08735
C_ C_ 0.283873 0.846326 0.427604 -0.08735
C_ C_ 0.331607 0.833495 0.439509 -0.05681
C_ C_ 0.341505 0.840766 0.468874 0.44287
C_ C_ 0.428472 0.821254 0.461982 0.44287
C_ C_ 0.408231 0.845992 0.00975165 0.18498
C_ C_ 0.438339 0.887532 0.0181514 -0.08735
C_ C_ 0.449399 0.898127 0.0468192 -0.08735
C_ C_ 0.431328 0.866035 0.0682448 -0.08735
C_ C_ 0.395683 0.826619 0.0615397 0.18498
C_ C_ 0.386819 0.815546 0.0326579 -0.05681
C_ C_ 0.360216 0.770866 0.0256062 -0.08735
C_ C_ 0.332315 0.747573 0.0464805 -0.08735
C_ C_ 0.335857 0.76444 0.0752959 0.1947
N_ N_ 0.129096 0.663708 0.474704 -0.29468
N_ N_ 0.15732 0.691472 0.0766955 -0.17154
N_ N_ 0.135541 0.660461 0.224715 -0.17154
N_ N_ 0.138447 0.691945 0.33035 -0.29468
N_ N_ 0.366579 0.849601 0.227498 -0.29468
N_ N_ 0.352023 0.812213 0.331694 -0.17154
N_ N_ 0.38822 0.832316 0.480087 -0.17154
N_ N_ 0.372247 0.800298 0.0819649 -0.29468
O_ O_ 0.212774 0.671848 0.424919 -0.58347
O_ O_ 0.203285 0.697074 0.379704 -0.58347
O_ O_ 0.137918 0.751959 0.42395 -0.58347
O_ O_ 0.10099 0.755448 0.382374 -0.58347
O_ O_ 0.135356 0.600534 0.424292 -0.58347
O_ O_ 0.144904 0.606191 0.376644 -0.58347
O_ O_ 0.0621464 0.676374 0.424003 -0.58347
O_ O_ 0.0483516 0.665923 0.377769 -0.58347
O_ O_ 0.0720497 0.710445 0.0741832 -0.46727
O_ O_ 0.24085 0.667351 0.0779674 -0.46727
O_ O_ 0.0514953 0.68248 0.220914 -0.46727
O_ O_ 0.221124 0.643029 0.228833 -0.46727
O_ O_ 0.298045 0.825431 0.181669 -0.58347
O_ O_ 0.30509 0.813794 0.133447 -0.58347
O_ O_ 0.37289 0.758508 0.184853 -0.58347
O_ O_ 0.389547 0.751037 0.139316 -0.58347
O_ O_ 0.360868 0.911366 0.17414 -0.58347
O_ O_ 0.370044 0.901558 0.12691 -0.58347
O_ O_ 0.443386 0.837531 0.179437 -0.58347
O_ O_ 0.453806 0.830657 0.133292 -0.58347
O_ O_ 0.435556 0.788685 0.32485 -0.46727
O_ O_ 0.267576 0.829332 0.337291 -0.46727
O_ O_ 0.475525 0.821334 0.471821 -0.46727
O_ O_ 0.308879 0.868578 0.484048 -0.46727
Zn Zn 0.122384 0.680087 0.878679 0.90689
Zn Zn 0.135826 0.674421 0.927198 0.90689
Zn Zn 0.372716 0.820941 0.63383 0.90689
Zn Zn 0.363108 0.826501 0.68292 0.90689
H_ H_ 0.297125 0.711872 0.939766 0.11455
H_ H_ 0.371363 0.67155 0.847183 0.11455
H_ H_ 0.280087 0.665759 0.851641 0.11455
H_ H_ 0.382531 0.726663 0.96055 0.11455
H_ H_ 0.476084 0.719469 0.954751 0.11455
H_ H_ 0.456738 0.664553 0.868287 0.11455
H_ H_ 0.143957 0.510176 0.938265 0.11455
H_ H_ 0.10804 0.92716 0.84985 0.11455
H_ H_ 0.134506 0.524932 0.845973 0.11455
H_ H_ 0.150899 0.920827 0.962058 0.11455
H_ H_ 0.142677 0.826798 0.958224 0.11455
H_ H_ 0.098286 0.842113 0.869754 0.11455
H_ H_ 0.0869073 0.590818 0.963089 0.11455
H_ H_ 0.0569787 0.579878 0.512177 0.11455
H_ H_ 0.0935712 0.627381 0.552013 0.11455
H_ H_ 0.197357 0.729989 0.967928 0.11455
H_ H_ 0.228557 0.792068 0.51166 0.11455
H_ H_ 0.201902 0.776918 0.559317 0.11455
H_ H_ 1.0101743 0.713048 0.618719 0.11455
H_ H_ 1.00216492 0.714251 0.673192 0.11455
H_ H_ 0.257671 0.661426 0.63015 0.11455
H_ H_ 0.25241 0.66121 0.684572 0.11455
H_ H_ 0.0782047 0.585243 0.742371 0.11455
H_ H_ 0.0449427 0.563063 0.790713 0.11455
H_ H_ 0.0618826 0.617692 0.832384 0.11455
H_ H_ 0.150893 0.75152 0.755553 0.11455
H_ H_ 0.183296 0.798789 0.796886 0.11455
H_ H_ 0.180051 0.756708 0.843178 0.11455
H_ H_ 0.195924 0.821927 0.698483 0.11455
H_ H_ 0.12485 0.813417 0.598025 0.11455
H_ H_ 0.217202 0.805909 0.608097 0.11455
H_ H_ 0.108062 0.825534 0.718481 0.11455
H_ H_ 0.0129099 0.8171 0.70977 0.11455
H_ H_ 0.0396451 0.827936 0.618448 0.11455
H_ H_ 0.360454 0.991862 0.696445 0.11455
H_ H_ 0.414148 0.570992 0.602392 0.11455
H_ H_ 0.372718 0.978708 0.606024 0.11455
H_ H_ 0.343181 0.572884 0.715132 0.11455
H_ H_ 0.361462 0.666488 0.711662 0.11455
H_ H_ 0.403748 0.653667 0.624071 0.11455
H_ H_ 0.414668 0.903603 0.71434 0.11455
H_ H_ 0.427425 0.937222 0.763769 0.11455
H_ H_ 0.395465 0.887366 0.805466 0.11455
H_ H_ 0.306542 0.764132 0.724669 0.11455
H_ H_ 0.264334 0.719209 0.761231 0.11455
H_ H_ 0.283454 0.738085 0.813469 0.11455
H_ H_ 0.489661 0.798391 0.869688 0.11455
H_ H_ 0.510068 0.817458 0.917352 0.11455
H_ H_ 0.245324 0.852267 0.890918 0.11455
H_ H_ 0.257448 0.856978 0.941636 0.11455
H_ H_ 0.452363 0.917848 1.00225147 0.11455
H_ H_ 0.464217 0.934824 0.549674 0.11455
H_ H_ 0.436141 0.881525 0.588064 0.11455
H_ H_ 0.331123 0.770326 0.507046 0.11455
H_ H_ 0.295316 0.721492 0.545975 0.11455
H_ H_ 0.317577 0.74911 0.597227 0.11455
C_ C_ 0.225856 0.687371 0.899734 0.68181
C_ C_ 0.281506 0.68722 0.895835 -0.05681
C_ C_ 0.313743 0.701021 0.919018 -0.08735
C_ C_ 0.366825 0.695115 0.917106 -0.05681
C_ C_ 0.388275 0.682388 0.890552 -0.05681
C_ C_ 0.35575 0.671007 0.867703 -0.08735
C_ C_ 0.304425 0.669095 0.870233 -0.08735
C_ C_ 0.397903 0.7088 0.940493 -0.08735
C_ C_ 0.450531 0.710196 0.936104 -0.08735
C_ C_ 0.471727 0.688292 0.911192 -0.05681
C_ C_ 0.439845 0.678566 0.888093 -0.08735
C_ C_ 0.113493 0.774257 0.910488 0.68181
C_ C_ 0.13302 0.579643 0.894756 0.68181
C_ C_ 0.138778 0.523403 0.891885 -0.05681
C_ C_ 0.151304 0.987653 0.919414 -0.08735
C_ C_ 0.142992 0.934786 0.917546 -0.05681
C_ C_ 0.128192 0.91225 0.891685 -0.05681
C_ C_ 0.122195 0.944906 0.867878 -0.08735
C_ C_ 0.130817 -0.0028559999999999697 0.869841 -0.08735
C_ C_ 0.143072 0.90419 0.941709 -0.08735
C_ C_ 0.135077 0.851267 0.939626 -0.08735
C_ C_ 0.119072 0.829733 0.913902 -0.05681
C_ C_ 0.116282 0.859309 0.889426 -0.08735
C_ C_ 0.0302739 0.667718 0.90399 0.68181
C_ C_ 0.0998292 0.615837 0.980196 0.1947
C_ C_ 0.0838771 0.613212 0.508478 -0.08735
C_ C_ 0.106124 0.640804 0.531576 -0.08735
C_ C_ 0.139149 0.681438 0.526688 -0.05681
C_ C_ 0.151684 0.690948 0.497066 0.18498
C_ C_ 0.184179 0.722275 0.989686 -0.08735
C_ C_ 0.202553 0.761031 0.514399 -0.08735
C_ C_ 0.181406 0.759372 0.541055 -0.08735
C_ C_ 0.154267 0.714445 0.54871 0.18498
C_ C_ 0.183863 0.684442 0.594809 0.44287
C_ C_ 0.0991336 0.7108 0.589952 0.44287
C_ C_ 0.0903166 0.703175 0.619794 -0.05681
C_ C_ 0.0428987 0.709175 0.633019 -0.08735
C_ C_ 0.0369648 0.704195 0.662215 -0.08735
C_ C_ 0.078733 0.690313 0.67821 -0.05681
C_ C_ 0.128275 0.690072 0.66705 -0.05681
C_ C_ 0.134536 0.69481 0.637164 -0.05681
C_ C_ 0.180559 0.683834 0.624681 -0.05681
C_ C_ 0.222453 0.671824 0.642404 -0.08735
C_ C_ 0.218184 0.670412 0.672567 -0.08735
C_ C_ 0.170737 0.681112 0.685243 -0.05681
C_ C_ 0.162274 0.677955 0.71547 0.44287
C_ C_ 0.0733145 0.686709 0.708408 0.44287
C_ C_ 0.106128 0.659302 0.755167 0.18498
C_ C_ 0.0856633 0.610783 0.760328 -0.08735
C_ C_ 0.0682687 0.596696 0.787535 -0.08735
C_ C_ 0.0788983 0.627414 0.811228 -0.08735
C_ C_ 0.109593 0.672187 0.808195 0.18498
C_ C_ 0.118806 0.690033 0.780308 -0.05681
C_ C_ 0.146555 0.734344 0.776897 -0.08735
C_ C_ 0.163105 0.761951 0.799829 -0.08735
C_ C_ 0.159024 0.739134 0.82651 0.1947
C_ C_ 0.270597 0.818961 0.656714 0.68181
C_ C_ 0.212897 0.818003 0.653873 -0.05681
C_ C_ 0.1779 0.815451 0.676931 -0.08735
C_ C_ 0.126275 0.822004 0.671971 -0.05681
C_ C_ 0.108517 0.828055 0.643438 -0.05681
C_ C_ 0.141632 0.819556 0.620515 -0.08735
C_ C_ 0.193807 0.814754 0.625576 -0.08735
C_ C_ 0.0929159 0.823957 0.695983 -0.08735
C_ C_ 0.0395967 0.824918 0.691345 -0.08735
C_ C_ 0.0199009 0.826237 0.66258 -0.05681
C_ C_ 0.0547916 0.831115 0.639933 -0.08735
C_ C_ 0.377293 0.724857 0.665764 0.68181
C_ C_ 0.364745 0.924586 0.653251 0.68181
C_ C_ 0.365102 0.980578 0.651051 -0.05681
C_ C_ 0.355098 0.509509 0.669574 -0.08735
C_ C_ 0.358627 0.56161 0.669437 -0.05681
C_ C_ 0.383957 0.584432 0.645241 -0.05681
C_ C_ 0.397447 0.552873 0.621152 -0.08735
C_ C_ 0.368232 1.0036907 0.624614 -0.08735
C_ C_ 0.350964 0.590671 0.69416 -0.08735
C_ C_ 0.363449 0.645167 0.692723 -0.08735
C_ C_ 0.375723 0.667971 0.666686 -0.05681
C_ C_ 0.388513 0.637724 0.643847 -0.08735
C_ C_ 0.46629 0.827074 0.66135 0.68181
C_ C_ 0.394416 0.886397 0.732979 0.1947
C_ C_ 0.405373 0.901317 0.760298 -0.08735
C_ C_ 0.383619 0.874906 0.78287 -0.08735
C_ C_ 0.357924 0.827962 0.778248 -0.05681
C_ C_ 0.351276 0.812833 0.75048 0.18498
C_ C_ 0.316563 0.773768 0.744774 -0.08735
C_ C_ 0.290385 0.748746 0.76637 -0.08735
C_ C_ 0.303377 0.757569 0.795122 -0.08735
C_ C_ 0.339011 0.797975 0.800429 0.18498
C_ C_ 0.31103 0.82186 0.849835 0.44287
C_ C_ 0.397186 0.802366 0.841824 0.44287
C_ C_ 0.408966 0.813065 0.871226 -0.05681
C_ C_ 0.458749 0.810324 0.882702 -0.08735
C_ C_ 0.468901 0.818149 0.910736 -0.08735
C_ C_ 0.428213 0.82778 0.930275 -0.05681
C_ C_ 0.379224 0.830474 0.919848 -0.05681
C_ C_ 0.369893 0.828845 0.890364 -0.05681
C_ C_ 0.321288 0.833884 0.878963 -0.05681
C_ C_ 0.282158 0.843294 0.898417 -0.08735
C_ C_ 0.291202 0.847321 0.927302 -0.08735
C_ C_ 0.339864 0.839573 0.938955 -0.05681
C_ C_ 0.350209 0.842636 0.969047 0.44287
C_ C_ 0.437543 0.831789 0.960178 0.44287
C_ C_ 0.400425 0.844066 0.509366 0.18498
C_ C_ 0.431983 0.886081 0.515254 -0.08735
C_ C_ 0.441082 0.900105 0.544236 -0.08735
C_ C_ 0.426445 0.870677 0.567741 -0.08735
C_ C_ 0.397393 0.826053 0.562919 0.18498
C_ C_ 0.384327 0.813082 0.533065 -0.05681
C_ C_ 0.347398 0.774851 0.527928 -0.08735
C_ C_ 0.322816 0.753429 0.551785 -0.08735
C_ C_ 0.33766 0.766384 0.580409 0.1947
N_ N_ 0.131206 0.655711 0.973688 -0.29468
N_ N_ 0.14483 0.702077 0.57852 -0.17154
N_ N_ 0.114896 0.675652 0.726047 -0.17154
N_ N_ 0.126649 0.698794 0.831233 -0.29468
N_ N_ 0.371951 0.840293 0.729099 -0.29468
N_ N_ 0.350139 0.810436 0.830962 -0.17154
N_ N_ 0.398202 0.838783 0.978852 -0.17154
N_ N_ 0.370985 0.804342 0.585979 -0.29468
O_ O_ 0.209449 0.686624 0.924489 -0.58347
O_ O_ 0.196348 0.687391 0.878289 -0.58347
O_ O_ 0.122804 0.747385 0.932586 -0.58347
O_ O_ 0.117351 0.754492 0.886553 -0.58347
O_ O_ 0.14043 0.597332 0.919003 -0.58347
O_ O_ 0.125154 0.607256 0.872537 -0.58347
O_ O_ 0.0616988 0.665313 0.924341 -0.58347
O_ O_ 0.0460667 0.678683 0.878582 -0.58347
O_ O_ 0.0610785 0.725188 0.573696 -0.46727
O_ O_ 0.226545 0.672852 0.581418 -0.46727
O_ O_ 0.0283864 0.682669 0.719989 -0.46727
O_ O_ 0.20002 0.666071 0.731936 -0.46727
O_ O_ 0.288826 0.815548 0.681853 -0.58347
O_ O_ 0.299122 0.827834 0.634921 -0.58347
O_ O_ 0.378933 0.753763 0.687547 -0.58347
O_ O_ 0.371665 0.744767 0.640547 -0.58347
O_ O_ 0.353082 0.901288 0.676596 -0.58347
O_ O_ 0.378603 0.896775 0.632447 -0.58347
O_ O_ 0.438164 0.841361 0.682395 -0.58347
O_ O_ 0.447923 0.811854 0.638346 -0.58347
O_ O_ 0.43438 0.792309 0.824026 -0.46727
O_ O_ 0.264088 0.827988 0.840023 -0.46727
O_ O_ 0.482704 0.82151 0.969516 -0.46727
O_ O_ 0.314834 0.856543 0.987352 -0.46727
Zn Zn 0.617825 0.187189 0.382002 0.90689
Zn Zn 0.631611 0.178062 0.428439 0.90689
Zn Zn 0.870808 0.308411 0.12999 0.90689
Zn Zn 0.859776 0.317354 0.177655 0.90689
H_ H_ 0.799152 0.184514 0.448492 0.11455
H_ H_ 0.867491 0.154655 0.348648 0.11455
H_ H_ 0.775211 0.17482 0.35852 0.11455
H_ H_ 0.886197 0.169115 0.463949 0.11455
H_ H_ 0.978309 0.171756 0.455866 0.11455
H_ H_ 0.95038 0.155479 0.365502 0.11455
H_ H_ 0.638782 0.0112269 0.444233 0.11455
H_ H_ 0.663618 0.434375 0.350333 0.11455
H_ H_ 0.634028 0.0276137 0.350454 0.11455
H_ H_ 0.628109 0.434446 0.466742 0.11455
H_ H_ 0.615543 0.336139 0.460618 0.11455
H_ H_ 0.638089 0.352431 0.371871 0.11455
H_ H_ 0.577235 0.109168 0.464355 0.11455
H_ H_ 0.562691 0.0843286 0.0136885 0.11455
H_ H_ 0.587757 0.137098 0.0536506 0.11455
H_ H_ 0.675717 0.261265 0.474155 0.11455
H_ H_ 0.734952 0.291734 0.0143927 0.11455
H_ H_ 0.686521 0.2937 0.0606504 0.11455
H_ H_ 0.508347 0.225964 0.122925 0.11455
H_ H_ 0.496558 0.20337 0.174912 0.11455
H_ H_ 0.757374 0.173264 0.137167 0.11455
H_ H_ 0.744592 0.161613 0.190831 0.11455
H_ H_ 0.56895 0.0818412 0.249953 0.11455
H_ H_ 0.544914 0.0643331 0.302621 0.11455
H_ H_ 0.566648 0.124456 0.339813 0.11455
H_ H_ 0.657658 0.243465 0.254235 0.11455
H_ H_ 0.697655 0.286947 0.297443 0.11455
H_ H_ 0.669909 0.268011 0.34603 0.11455
H_ H_ 0.689843 0.31151 0.192568 0.11455
H_ H_ 0.628456 0.352397 0.0957079 0.11455
H_ H_ 0.718784 0.33362 0.104392 0.11455
H_ H_ 0.60819 0.312273 0.21403 0.11455
H_ H_ 0.519708 0.324864 0.20885 0.11455
H_ H_ 0.536221 0.337967 0.115198 0.11455
H_ H_ 0.830814 0.48196 0.190944 0.11455
H_ H_ 0.876112 0.0539936 0.0998087 0.11455
H_ H_ 0.871531 0.473074 0.101048 0.11455
H_ H_ 0.850687 0.0688783 0.216756 0.11455
H_ H_ 0.862861 0.160731 0.209838 0.11455
H_ H_ 0.866218 0.138562 0.1175 0.11455
H_ H_ 0.903505 0.395966 0.215352 0.11455
H_ H_ 0.921125 0.419859 0.265552 0.11455
H_ H_ 0.904121 0.360978 0.306096 0.11455
H_ H_ 0.810618 0.247946 0.222115 0.11455
H_ H_ 0.781434 0.188658 0.260745 0.11455
H_ H_ 0.794355 0.212674 0.313313 0.11455
H_ H_ 0.97781 0.274301 0.374233 0.11455
H_ H_ -0.008298999999999945 0.290405 0.424301 0.11455
H_ H_ 0.732579 0.341874 0.384719 0.11455
H_ H_ 0.750625 0.365545 0.434583 0.11455
H_ H_ 0.933187 0.402966 0.495505 0.11455
H_ H_ 0.983383 0.413684 0.0503934 0.11455
H_ H_ 0.937778 0.374888 0.0887042 0.11455
H_ H_ 0.852861 0.247633 0.00719195 0.11455
H_ H_ 0.803847 0.211766 0.0470979 0.11455
H_ H_ 0.812766 0.248861 0.0961428 0.11455
C_ C_ 0.724564 0.183768 0.406581 0.68181
C_ C_ 0.780278 0.181324 0.402762 -0.05681
C_ C_ 0.814316 0.178382 0.426546 -0.08735
C_ C_ 0.867769 0.171618 0.420054 -0.05681
C_ C_ 0.886566 0.171526 0.391724 -0.05681
C_ C_ 0.851882 0.16705 0.369667 -0.08735
C_ C_ 0.800867 0.177096 0.375231 -0.08735
C_ C_ 0.901749 0.166744 0.442131 -0.08735
C_ C_ 0.953644 0.168571 0.437302 -0.08735
C_ C_ 0.972646 0.166106 0.409457 -0.05681
C_ C_ 0.936778 0.162028 0.386004 -0.08735
C_ C_ 0.620521 0.279905 0.412812 0.68181
C_ C_ 0.635646 0.082502 0.399534 0.68181
C_ C_ 0.637345 0.0260975 0.397131 -0.05681
C_ C_ 0.641029 0.497574 0.424533 -0.08735
C_ C_ 0.64175 0.444076 0.421744 -0.05681
C_ C_ 0.641516 0.421194 0.394432 -0.05681
C_ C_ 0.65348 0.451453 0.37089 -0.08735
C_ C_ 0.645786 0.503494 0.37229 -0.08735
C_ C_ 0.632396 0.415193 0.445824 -0.08735
C_ C_ 0.627315 0.360832 0.443015 -0.08735
C_ C_ 0.630161 0.337079 0.416153 -0.05681
C_ C_ 0.634269 0.369047 0.39203 -0.08735
C_ C_ 0.528387 0.175042 0.405205 0.68181
C_ C_ 0.598703 0.129062 0.481833 0.1947
C_ C_ 0.583246 0.119417 0.0101355 -0.08735
C_ C_ 0.599463 0.148681 0.0330615 -0.08735
C_ C_ 0.632055 0.189602 0.0292462 -0.05681
C_ C_ 0.648295 0.201581 0.999710116 0.18498
C_ C_ 0.670246 0.245435 0.495255 -0.08735
C_ C_ 0.700099 0.270012 0.0167428 -0.08735
C_ C_ 0.682315 0.262787 0.0452311 -0.08735
C_ C_ 0.652239 0.219136 0.0516934 0.18498
C_ C_ 0.682322 0.191924 0.0982817 0.44287
C_ C_ 0.596023 0.215429 0.0944321 0.44287
C_ C_ 0.588035 0.206889 0.123914 -0.05681
C_ C_ 0.539476 0.209842 0.136023 -0.08735
C_ C_ 0.531968 0.197288 0.165276 -0.08735
C_ C_ 0.572108 0.179277 0.182059 -0.05681
C_ C_ 0.62134 0.174757 0.169414 -0.05681
C_ C_ 0.629699 0.186338 0.140468 -0.05681
C_ C_ 0.676188 0.184796 0.128232 -0.05681
C_ C_ 0.717173 0.17395 0.146346 -0.08735
C_ C_ 0.711542 0.161051 0.175851 -0.08735
C_ C_ 0.662377 0.165556 0.187182 -0.05681
C_ C_ 0.656089 0.159665 0.217228 0.44287
C_ C_ 0.566673 0.170646 0.211951 0.44287
C_ C_ 0.606928 0.150307 0.259768 0.18498
C_ C_ 0.582962 0.106373 0.267411 -0.08735
C_ C_ 0.566036 0.0978158 0.296183 -0.08735
C_ C_ 0.577537 0.133087 0.316566 -0.08735
C_ C_ 0.610949 0.172617 0.311483 0.18498
C_ C_ 0.622362 0.185625 0.282722 -0.05681
C_ C_ 0.650159 0.232337 0.27716 -0.08735
C_ C_ 0.669289 0.257749 0.301354 -0.08735
C_ C_ 0.655033 0.242944 0.329474 0.1947
C_ C_ 0.766676 0.309456 0.1524 0.68181
C_ C_ 0.713186 0.31401 0.14815 -0.05681
C_ C_ 0.676961 0.313361 0.170986 -0.08735
C_ C_ 0.625252 0.32185 0.167658 -0.05681
C_ C_ 0.604549 0.334675 0.140228 -0.05681
C_ C_ 0.639201 0.339537 0.116952 -0.08735
C_ C_ 0.693397 0.33034 0.121678 -0.08735
C_ C_ 0.593439 0.322867 0.192683 -0.08735
C_ C_ 0.543133 0.332951 0.189315 -0.08735
C_ C_ 0.521528 0.337666 0.161952 -0.05681
C_ C_ 0.553737 0.339366 0.137188 -0.08735
C_ C_ 0.87196 0.212902 0.158909 0.68181
C_ C_ 0.859688 0.41185 0.149564 0.68181
C_ C_ 0.860371 0.469154 0.148346 -0.05681
C_ C_ 0.859123 -0.002610000000000001 0.17724 -0.08735
C_ C_ 0.862307 0.0497379 0.172342 -0.05681
C_ C_ 0.865887 0.0692689 0.143303 -0.05681
C_ C_ 0.868618 0.036222 0.120069 -0.08735
C_ C_ 0.86633 0.493085 0.121047 -0.08735
C_ C_ 0.860899 0.0838752 0.195004 -0.08735
C_ C_ 0.863221 0.137057 0.19084 -0.08735
C_ C_ 0.86609 0.156837 0.162993 -0.05681
C_ C_ 0.868196 0.122912 0.138815 -0.08735
C_ C_ 0.965392 0.323257 0.15585 0.68181
C_ C_ 0.892022 0.371661 0.233082 0.1947
C_ C_ 0.906584 0.381972 0.26082 -0.08735
C_ C_ 0.888914 0.354005 0.284064 -0.08735
C_ C_ 0.856008 0.311971 0.278819 -0.05681
C_ C_ 0.845065 0.300235 0.249814 0.18498
C_ C_ 0.816867 0.257276 0.243824 -0.08735
C_ C_ 0.800816 0.224325 0.266266 -0.08735
C_ C_ 0.806363 0.236946 0.294838 -0.08735
C_ C_ 0.835995 0.280298 0.301481 0.18498
C_ C_ 0.803977 0.309621 0.347803 0.44287
C_ C_ 0.888277 0.283961 0.343985 0.44287
C_ C_ 0.896598 0.292747 0.373707 -0.05681
C_ C_ 0.946029 0.284542 0.386494 -0.08735
C_ C_ 0.952081 0.291269 0.415037 -0.08735
C_ C_ 0.911987 0.306657 0.433242 -0.05681
C_ C_ 0.86316 0.311301 0.421603 -0.05681
C_ C_ 0.858146 0.307123 0.391645 -0.05681
C_ C_ 0.810733 0.317734 0.377835 -0.05681
C_ C_ 0.768851 0.330362 0.394704 -0.08735
C_ C_ 0.780494 0.345837 0.423264 -0.08735
C_ C_ 0.824393 0.329477 0.438397 -0.05681
C_ C_ 0.833941 0.337313 0.468244 0.44287
C_ C_ 0.916274 0.306963 0.462567 0.44287
C_ C_ 0.905304 0.337392 0.00974502 0.18498
C_ C_ 0.941424 0.376068 0.0159762 -0.08735
C_ C_ 0.952681 0.388905 0.0446783 -0.08735
C_ C_ 0.923736 0.367309 0.066479 -0.08735
C_ C_ 0.89106 0.326414 0.0604212 0.18498
C_ C_ 0.88223 0.309669 0.0321341 -0.05681
C_ C_ 0.854215 0.264476 0.0277563 -0.08735
C_ C_ 0.826824 0.244177 0.0502509 -0.08735
C_ C_ 0.832835 0.265412 0.0768287 0.1947
N_ N_ 0.621425 0.175034 0.476573 -0.29468
N_ N_ 0.643031 0.207822 0.0820123 -0.17154
N_ N_ 0.609137 0.164354 0.229158 -0.17154
N_ N_ 0.628891 0.200185 0.334396 -0.29468
N_ N_ 0.863436 0.328624 0.227838 -0.29468
N_ N_ 0.843418 0.294076 0.330805 -0.17154
N_ N_ 0.879025 0.32547 0.479309 -0.17154
N_ N_ 0.869487 0.299635 0.0824593 -0.29468
O_ O_ 0.70583 0.18416 0.432113 -0.58347
O_ O_ 0.697255 0.18871 0.385362 -0.58347
O_ O_ 0.626773 0.250456 0.433645 -0.58347
O_ O_ 0.614567 0.261367 0.388512 -0.58347
O_ O_ 0.639438 0.104517 0.424027 -0.58347
O_ O_ 0.629597 0.110879 0.378222 -0.58347
O_ O_ 0.555144 0.181008 0.426676 -0.58347
O_ O_ 0.5477 0.181111 0.380144 -0.58347
O_ O_ 0.560296 0.239479 0.0797916 -0.46727
O_ O_ 0.729282 0.187109 0.0883902 -0.46727
O_ O_ 0.523154 0.172353 0.224148 -0.46727
O_ O_ 0.696603 0.162692 0.234015 -0.46727
O_ O_ 0.784674 0.304814 0.177727 -0.58347
O_ O_ 0.793592 0.310143 0.130238 -0.58347
O_ O_ 0.867407 0.241757 0.181226 -0.58347
O_ O_ 0.872424 0.23248 0.134428 -0.58347
O_ O_ 0.851384 0.389842 0.173304 -0.58347
O_ O_ 0.872848 0.385512 0.12731 -0.58347
O_ O_ 0.9356 0.32782 0.177067 -0.58347
O_ O_ 0.946816 0.310453 0.131897 -0.58347
O_ O_ 0.925041 0.265731 0.32879 -0.46727
O_ O_ 0.762393 0.322056 0.336149 -0.46727
O_ O_ 0.959375 0.292266 0.475478 -0.46727
O_ O_ 0.798567 0.355516 0.484624 -0.46727
Zn Zn 0.630153 0.185639 0.884107 0.90689
Zn Zn 0.645806 0.181799 0.930268 0.90689
Zn Zn 0.8656 0.309418 0.630664 0.90689
Zn Zn 0.860435 0.318432 0.67821 0.90689
H_ H_ 0.819873 0.2086 0.944143 0.11455
H_ H_ 0.879922 0.17359 0.844845 0.11455
H_ H_ 0.785619 0.173091 0.854296 0.11455
H_ H_ 0.904759 0.178919 0.963298 0.11455
H_ H_ 0.997517 0.185652 0.953837 0.11455
H_ H_ 0.965868 0.170149 0.863585 0.11455
H_ H_ 0.648613 0.0104606 0.945958 0.11455
H_ H_ 0.697141 0.436891 0.860503 0.11455
H_ H_ 0.652524 0.0243609 0.85563 0.11455
H_ H_ 0.575932 0.432304 0.95827 0.11455
H_ H_ 0.570905 0.337843 0.951572 0.11455
H_ H_ 0.659525 0.347562 0.87383 0.11455
H_ H_ 0.601604 0.0995327 0.966623 0.11455
H_ H_ 0.576819 0.0737669 0.511227 0.11455
H_ H_ 0.608226 0.120933 0.554007 0.11455
H_ H_ 0.701398 0.238614 0.976012 0.11455
H_ H_ 0.709668 0.309359 0.514906 0.11455
H_ H_ 0.685731 0.280675 0.56593 0.11455
H_ H_ 0.502249 0.218025 0.625385 0.11455
H_ H_ 0.495569 0.212658 0.676254 0.11455
H_ H_ 0.750858 0.169395 0.633533 0.11455
H_ H_ 0.746038 0.174589 0.685505 0.11455
H_ H_ 0.562487 0.0958137 0.749734 0.11455
H_ H_ 0.554471 0.063255 0.798446 0.11455
H_ H_ 0.588983 0.113696 0.837787 0.11455
H_ H_ 0.642407 0.257763 0.757992 0.11455
H_ H_ 0.687278 0.296715 0.796834 0.11455
H_ H_ 0.690899 0.252354 0.846759 0.11455
H_ H_ 0.690762 0.314846 0.693444 0.11455
H_ H_ 0.62501 0.341501 0.595755 0.11455
H_ H_ 0.71849 0.34107 0.603171 0.11455
H_ H_ 0.610166 0.341019 0.713391 0.11455
H_ H_ 0.519773 0.335229 0.707269 0.11455
H_ H_ 0.536367 0.339819 0.615331 0.11455
H_ H_ 0.892844 0.480242 0.690757 0.11455
H_ H_ 0.817193 0.0596559 0.606344 0.11455
H_ H_ 0.856042 0.471139 0.602106 0.11455
H_ H_ 0.900168 0.0740023 0.714447 0.11455
H_ H_ 0.87787 0.162259 0.712185 0.11455
H_ H_ 0.847457 0.145111 0.622209 0.11455
H_ H_ 0.913311 0.38505 0.714866 0.11455
H_ H_ 0.934445 0.409253 0.76325 0.11455
H_ H_ 0.903674 0.364779 0.805371 0.11455
H_ H_ 0.794286 0.253924 0.724702 0.11455
H_ H_ 0.768073 0.200602 0.764185 0.11455
H_ H_ 0.777008 0.235695 0.81438 0.11455
H_ H_ 0.987269 0.288106 0.872797 0.11455
H_ H_ 0.00696269 0.291864 0.921785 0.11455
H_ H_ 0.738252 0.325685 0.894406 0.11455
H_ H_ 0.758807 0.339108 0.945039 0.11455
H_ H_ 0.959981 0.393634 0.997766 0.11455
H_ H_ 0.954803 0.428628 0.545185 0.11455
H_ H_ 0.927326 0.373918 0.585757 0.11455
H_ H_ 0.836617 0.251941 0.506645 0.11455
H_ H_ 0.786329 0.215506 0.547905 0.11455
H_ H_ 0.791047 0.25311 0.593608 0.11455
C_ C_ 0.739114 0.186976 0.906107 0.68181
C_ C_ 0.795283 0.185466 0.900422 -0.05681
C_ C_ 0.831589 0.19205 0.923101 -0.08735
C_ C_ 0.881906 0.181642 0.918239 -0.05681
C_ C_ 0.89816 0.173931 0.890103 -0.05681
C_ C_ 0.863886 0.173333 0.86674 -0.08735
C_ C_ 0.812966 0.173859 0.872279 -0.08735
C_ C_ 0.917162 0.179081 0.940771 -0.08735
C_ C_ 0.969806 0.179218 0.935765 -0.08735
C_ C_ 0.98446 0.170998 0.907603 -0.05681
C_ C_ 0.948934 0.167187 0.884746 -0.08735
C_ C_ 0.634358 0.280458 0.913297 0.68181
C_ C_ 0.643869 0.0840127 0.902861 0.68181
C_ C_ 0.640191 0.0259138 0.901476 -0.05681
C_ C_ 0.612547 0.497026 0.918719 -0.08735
C_ C_ 0.618186 0.443972 0.917725 -0.05681
C_ C_ 0.644936 0.419846 0.895393 -0.05681
C_ C_ 0.671379 0.451891 0.875552 -0.08735
C_ C_ 0.670011 0.505791 0.879503 -0.08735
C_ C_ 0.594953 0.414745 0.939512 -0.08735
C_ C_ 0.59501 0.362152 0.937446 -0.08735
C_ C_ 0.622864 0.338211 0.914465 -0.05681
C_ C_ 0.642262 0.367656 0.891903 -0.08735
C_ C_ 0.539901 0.170072 0.908632 0.68181
C_ C_ 0.603162 0.130696 0.982401 0.1947
C_ C_ 0.596953 0.106693 0.508776 -0.08735
C_ C_ 0.611746 0.13557 0.533135 -0.08735
C_ C_ 0.632279 0.184302 0.528966 -0.05681
C_ C_ 0.638779 0.202925 0.49972 0.18498
C_ C_ 0.684029 0.237401 0.995153 -0.08735
C_ C_ 0.687003 0.275149 0.518495 -0.08735
C_ C_ 0.673849 0.259331 0.546892 -0.08735
C_ C_ 0.646051 0.215615 0.551618 0.18498
C_ C_ 0.676506 0.186524 0.59711 0.44287
C_ C_ 0.591369 0.211685 0.593123 0.44287
C_ C_ 0.585035 0.20254 0.623135 -0.05681
C_ C_ 0.537165 0.210569 0.637978 -0.08735
C_ C_ 0.533725 0.213174 0.66776 -0.08735
C_ C_ 0.575252 0.201053 0.684678 -0.05681
C_ C_ 0.622985 0.192985 0.671503 -0.05681
C_ C_ 0.629397 0.195912 0.640698 -0.05681
C_ C_ 0.674613 0.18362 0.626631 -0.05681
C_ C_ 0.716501 0.177152 0.642603 -0.08735
C_ C_ 0.712466 0.178665 0.673714 -0.08735
C_ C_ 0.66519 0.182807 0.687691 -0.05681
C_ C_ 0.65923 0.175413 0.718645 0.44287
C_ C_ 0.571107 0.192637 0.714413 0.44287
C_ C_ 0.603127 0.164015 0.760067 0.18498
C_ C_ 0.579954 0.116418 0.766277 -0.08735
C_ C_ 0.576118 0.0986716 0.793833 -0.08735
C_ C_ 0.589946 0.130154 0.817419 -0.08735
C_ C_ 0.608605 0.179094 0.813421 0.18498
C_ C_ 0.616694 0.193354 0.783874 -0.05681
C_ C_ 0.638028 0.241156 0.780108 -0.08735
C_ C_ 0.666018 0.263477 0.803054 -0.08735
C_ C_ 0.661898 0.244682 0.831118 0.1947
C_ C_ 0.766539 0.321187 0.655067 0.68181
C_ C_ 0.710535 0.324379 0.649662 -0.05681
C_ C_ 0.677427 0.319113 0.672574 -0.08735
C_ C_ 0.626106 0.322892 0.669227 -0.05681
C_ C_ 0.607818 0.329308 0.640844 -0.05681
C_ C_ 0.638751 0.328842 0.616916 -0.08735
C_ C_ 0.691535 0.334512 0.621301 -0.08735
C_ C_ 0.594776 0.333417 0.692542 -0.08735
C_ C_ 0.542876 0.339814 0.688529 -0.08735
C_ C_ 0.522965 0.343949 0.661287 -0.05681
C_ C_ 0.554451 0.338195 0.637006 -0.08735
C_ C_ 0.863794 0.216473 0.662336 0.68181
C_ C_ 0.867596 0.412283 0.648744 0.68181
C_ C_ 0.871169 0.471146 0.647979 -0.05681
C_ C_ 0.867872 0.00139612 0.676163 -0.08735
C_ C_ 0.86997 0.0548152 0.672645 -0.05681
C_ C_ 0.857201 0.0747569 0.645444 -0.05681
C_ C_ 0.836307 0.0446754 0.624032 -0.08735
C_ C_ 0.855982 0.495884 0.62215 -0.08735
C_ C_ 0.881049 0.0857447 0.695505 -0.08735
C_ C_ 0.878124 0.137925 0.692816 -0.08735
C_ C_ 0.869252 0.159349 0.665174 -0.05681
C_ C_ 0.858798 0.127456 0.641326 -0.08735
C_ C_ 0.961915 0.318308 0.655221 0.68181
C_ C_ 0.89234 0.367327 0.732215 0.1947
C_ C_ 0.904917 0.382801 0.760337 -0.08735
C_ C_ 0.888083 0.355058 0.784358 -0.08735
C_ C_ 0.854014 0.314837 0.779935 -0.05681
C_ C_ 0.840315 0.301354 0.750177 0.18498
C_ C_ 0.808067 0.262903 0.744922 -0.08735
C_ C_ 0.791364 0.233885 0.768896 -0.08735
C_ C_ 0.800892 0.249482 0.79771 -0.08735
C_ C_ 0.834684 0.288212 0.803944 0.18498
C_ C_ 0.810332 0.316446 0.851354 0.44287
C_ C_ 0.895492 0.294332 0.845012 0.44287
C_ C_ 0.907857 0.305319 0.873834 -0.05681
C_ C_ 0.958821 0.302925 0.884741 -0.08735
C_ C_ 0.969626 0.30703 0.91375 -0.08735
C_ C_ 0.928423 0.3159 0.93289 -0.05681
C_ C_ 0.87781 0.323487 0.922559 -0.05681
C_ C_ 0.869152 0.319275 0.89278 -0.05681
C_ C_ 0.819837 0.326819 0.881683 -0.05681
C_ C_ 0.778325 0.335593 0.900737 -0.08735
C_ C_ 0.789006 0.341001 0.929961 -0.08735
C_ C_ 0.837807 0.337816 0.940968 -0.05681
C_ C_ 0.847358 0.339631 0.970361 0.44287
C_ C_ 0.933634 0.311183 0.962923 0.44287
C_ C_ 0.88905 0.338015 0.508584 0.18498
C_ C_ 0.916631 0.382211 0.513692 -0.08735
C_ C_ 0.931195 0.393768 0.541943 -0.08735
C_ C_ 0.914325 0.364167 0.565043 -0.08735
C_ C_ 0.878005 0.325282 0.560906 0.18498
C_ C_ 0.869205 0.309777 0.531882 -0.05681
C_ C_ 0.839106 0.266413 0.528264 -0.08735
C_ C_ 0.812627 0.245422 0.55132 -0.08735
C_ C_ 0.822378 0.260528 0.578038 0.1947
N_ N_ 0.630241 0.173076 0.977737 -0.29468
N_ N_ 0.636624 0.20443 0.581401 -0.17154
N_ N_ 0.612037 0.181988 0.730585 -0.17154
N_ N_ 0.630252 0.204982 0.83689 -0.29468
N_ N_ 0.859427 0.330061 0.727504 -0.29468
N_ N_ 0.847541 0.300914 0.833486 -0.17154
N_ N_ 0.893606 0.326369 0.979997 -0.17154
N_ N_ 0.857657 0.297864 0.5831 -0.29468
O_ O_ 0.7211 0.19323 0.931717 -0.58347
O_ O_ 0.707445 0.181433 0.886788 -0.58347
O_ O_ 0.632123 0.254806 0.935149 -0.58347
O_ O_ 0.636681 0.259488 0.888881 -0.58347
O_ O_ 0.660805 0.106746 0.925059 -0.58347
O_ O_ 0.625342 0.109912 0.882131 -0.58347
O_ O_ 0.570141 0.163897 0.929094 -0.58347
O_ O_ 0.554583 0.192767 0.88565 -0.58347
O_ O_ 0.552555 0.228699 0.57648 -0.46727
O_ O_ 0.717839 0.170874 0.584047 -0.46727
O_ O_ 0.527884 0.203122 0.727485 -0.46727
O_ O_ 0.698215 0.166486 0.734053 -0.46727
O_ O_ 0.783223 0.319466 0.680419 -0.58347
O_ O_ 0.795785 0.316659 0.633915 -0.58347
O_ O_ 0.862341 0.24474 0.683832 -0.58347
O_ O_ 0.862503 0.23637 0.63746 -0.58347
O_ O_ 0.863178 0.391835 0.673489 -0.58347
O_ O_ 0.870301 0.384869 0.625882 -0.58347
O_ O_ 0.93397 0.317709 0.677379 -0.58347
O_ O_ 0.942871 0.309229 0.630971 -0.58347
O_ O_ 0.9315 0.276755 0.82762 -0.46727
O_ O_ 0.764126 0.326078 0.839854 -0.46727
O_ O_ 0.977885 0.303313 0.975978 -0.46727
O_ O_ 0.812562 0.352385 0.989408 -0.46727
Zn Zn 0.623994 0.683522 0.384997 0.90689
Zn Zn 0.637551 0.680852 0.430764 0.90689
Zn Zn 0.882427 0.807333 0.137533 0.90689
Zn Zn 0.865871 0.815716 0.18359 0.90689
H_ H_ 0.797334 0.691288 0.444825 0.11455
H_ H_ 0.868713 0.653279 0.346997 0.11455
H_ H_ 0.777124 0.669517 0.355422 0.11455
H_ H_ 0.893107 0.697503 0.461484 0.11455
H_ H_ 0.983585 0.707342 0.451324 0.11455
H_ H_ 0.956903 0.656808 0.365212 0.11455
H_ H_ 0.639318 0.515115 0.445302 0.11455
H_ H_ 0.645933 0.936491 0.345512 0.11455
H_ H_ 0.643512 0.525468 0.352316 0.11455
H_ H_ 0.627183 0.928865 0.462582 0.11455
H_ H_ 0.627753 0.833097 0.457846 0.11455
H_ H_ 0.635474 0.851985 0.366449 0.11455
H_ H_ 0.589335 0.608152 0.467758 0.11455
H_ H_ 0.553985 0.583947 0.020691 0.11455
H_ H_ 0.598751 0.622207 0.0605791 0.11455
H_ H_ 0.683293 0.755875 0.475353 0.11455
H_ H_ 0.710698 0.804403 0.0130451 0.11455
H_ H_ 0.693764 0.779951 0.0620199 0.11455
H_ H_ 0.510328 0.710937 0.126706 0.11455
H_ H_ 0.497523 0.703155 0.176575 0.11455
H_ H_ 0.758176 0.667409 0.142311 0.11455
H_ H_ 0.745633 0.663655 0.194316 0.11455
H_ H_ 0.555026 0.585319 0.254559 0.11455
H_ H_ 0.537085 0.564077 0.306499 0.11455
H_ H_ 0.573061 0.616122 0.343183 0.11455
H_ H_ 0.646032 0.742162 0.259861 0.11455
H_ H_ 0.688579 0.789515 0.29644 0.11455
H_ H_ 0.686448 0.756513 0.345644 0.11455
H_ H_ 0.698993 0.785143 0.196253 0.11455
H_ H_ 0.636151 0.841593 0.0991838 0.11455
H_ H_ 0.72987 0.843191 0.11124 0.11455
H_ H_ 0.614306 0.795501 0.212651 0.11455
H_ H_ 0.527222 0.811485 0.208056 0.11455
H_ H_ 0.5446 0.840821 0.118553 0.11455
H_ H_ 0.856127 0.980911 0.19778 0.11455
H_ H_ 0.890451 0.564947 0.100179 0.11455
H_ H_ 0.869632 0.961253 0.106137 0.11455
H_ H_ 0.845296 0.564722 0.213958 0.11455
H_ H_ 0.859495 0.651552 0.213097 0.11455
H_ H_ 0.90872 0.642227 0.126616 0.11455
H_ H_ 0.917173 0.887227 0.21751 0.11455
H_ H_ 0.917548 0.924302 0.267659 0.11455
H_ H_ 0.879815 0.879657 0.307387 0.11455
H_ H_ 0.8092 0.749932 0.223457 0.11455
H_ H_ 0.779419 0.69156 0.260177 0.11455
H_ H_ 0.792302 0.715356 0.3111 0.11455
H_ H_ 0.988258 0.786004 0.377182 0.11455
H_ H_ -0.0034650000000000514 0.800882 0.428805 0.11455
H_ H_ 0.737645 0.825009 0.387264 0.11455
H_ H_ 0.743497 0.844147 0.437107 0.11455
H_ H_ 0.931192 0.912182 0.501463 0.11455
H_ H_ 0.977521 0.908185 0.0510138 0.11455
H_ H_ 0.939894 0.869248 0.0917944 0.11455
H_ H_ 0.845188 0.739345 0.0129308 0.11455
H_ H_ 0.815003 0.693754 0.0576602 0.11455
H_ H_ 0.825475 0.727824 0.105069 0.11455
C_ C_ 0.729089 0.680052 0.404708 0.68181
C_ C_ 0.784285 0.681053 0.40033 -0.05681
C_ C_ 0.816846 0.686153 0.423791 -0.08735
C_ C_ 0.869975 0.683273 0.419102 -0.05681
C_ C_ 0.888979 0.673524 0.390803 -0.05681
C_ C_ 0.854902 0.662716 0.368508 -0.08735
C_ C_ 0.803269 0.669706 0.372802 -0.08735
C_ C_ 0.905332 0.687095 0.441192 -0.08735
C_ C_ 0.958828 0.688521 0.435951 -0.08735
C_ C_ 0.977254 0.678563 0.407781 -0.05681
C_ C_ 0.941697 0.665778 0.386375 -0.08735
C_ C_ 0.631159 0.777464 0.411635 0.68181
C_ C_ 0.63597 0.583071 0.401518 0.68181
C_ C_ 0.640788 0.525937 0.399449 -0.05681
C_ C_ 0.638013 0.994538 0.421599 -0.08735
C_ C_ 0.637166 0.942105 0.418245 -0.05681
C_ C_ 0.640939 0.919619 0.391237 -0.05681
C_ C_ 0.644022 0.95164 0.367468 -0.08735
C_ C_ 0.638349 1.00411732 0.369428 -0.08735
C_ C_ 0.632978 0.910225 0.442442 -0.08735
C_ C_ 0.628998 0.856625 0.4395 -0.08735
C_ C_ 0.632095 0.835432 0.41255 -0.05681
C_ C_ 0.639008 0.866112 0.388452 -0.08735
C_ C_ 0.53157 0.677695 0.408509 0.68181
C_ C_ 0.608077 0.626929 0.484978 0.1947
C_ C_ 0.584174 0.60937 0.0161709 -0.08735
C_ C_ 0.608311 0.634165 0.0374272 -0.08735
C_ C_ 0.638154 0.67687 0.0324108 -0.05681
C_ C_ 0.644589 0.692764 1.00307219 0.18498
C_ C_ 0.6807 0.741685 0.496562 -0.08735
C_ C_ 0.690676 0.767743 0.0185812 -0.08735
C_ C_ 0.674874 0.756777 0.047137 -0.08735
C_ C_ 0.653453 0.708695 0.0551256 0.18498
C_ C_ 0.685883 0.688586 0.1028 0.44287
C_ C_ 0.597983 0.699793 0.0976754 0.44287
C_ C_ 0.590042 0.694625 0.127476 -0.05681
C_ C_ 0.541527 0.700022 0.140383 -0.08735
C_ C_ 0.533663 0.693586 0.168963 -0.08735
C_ C_ 0.575629 0.685015 0.187257 -0.05681
C_ C_ 0.623861 0.67955 0.175171 -0.05681
C_ C_ 0.63152 0.689669 0.145722 -0.05681
C_ C_ 0.678721 0.683292 0.133156 -0.05681
C_ C_ 0.720232 0.668944 0.151351 -0.08735
C_ C_ 0.713609 0.6633 0.180407 -0.08735
C_ C_ 0.665646 0.665228 0.191954 -0.05681
C_ C_ 0.656129 0.654504 0.220895 0.44287
C_ C_ 0.570597 0.675169 0.216654 0.44287
C_ C_ 0.602035 0.648042 0.262889 0.18498
C_ C_ 0.57272 0.606239 0.270906 -0.08735
C_ C_ 0.560872 0.596708 0.300179 -0.08735
C_ C_ 0.581894 0.625609 0.321123 -0.08735
C_ C_ 0.61691 0.665054 0.31368 0.18498
C_ C_ 0.624311 0.678815 0.284764 -0.05681
C_ C_ 0.654264 0.723258 0.278599 -0.08735
C_ C_ 0.671833 0.751274 0.301271 -0.08735
C_ C_ 0.67028 0.733452 0.328102 0.1947
C_ C_ 0.775582 0.814546 0.159093 0.68181
C_ C_ 0.720189 0.809106 0.15261 -0.05681
C_ C_ 0.684412 0.79818 0.174072 -0.08735
C_ C_ 0.632875 0.810912 0.169579 -0.05681
C_ C_ 0.613687 0.828276 0.142978 -0.05681
C_ C_ 0.649438 0.83608 0.121173 -0.08735
C_ C_ 0.701587 0.829367 0.127119 -0.08735
C_ C_ 0.600763 0.805952 0.192556 -0.08735
C_ C_ 0.549072 0.810947 0.188869 -0.08735
C_ C_ 0.528443 0.82777 0.1628 -0.05681
C_ C_ 0.561454 0.838201 0.139937 -0.08735
C_ C_ 0.88049 0.713657 0.16593 0.68181
C_ C_ 0.863025 0.909083 0.154956 0.68181
C_ C_ 0.86004 0.96489 0.15253 -0.05681
C_ C_ 0.849698 0.499415 0.172101 -0.08735
C_ C_ 0.854354 0.552757 0.169559 -0.05681
C_ C_ 0.871044 0.576401 0.143488 -0.05681
C_ C_ 0.875365 0.546905 0.119596 -0.08735
C_ C_ 0.86515 0.986274 0.124808 -0.08735
C_ C_ 0.848929 0.582867 0.193245 -0.08735
C_ C_ 0.85681 0.633439 0.193286 -0.08735
C_ C_ 0.876134 0.657705 0.167632 -0.05681
C_ C_ 0.885082 0.628004 0.143004 -0.08735
C_ C_ 0.975527 0.819205 0.158695 0.68181
C_ C_ 0.892642 0.872283 0.234857 0.1947
C_ C_ 0.896547 0.89104 0.262667 -0.08735
C_ C_ 0.876176 0.864518 0.286483 -0.08735
C_ C_ 0.854579 0.814633 0.28161 -0.05681
C_ C_ 0.846118 0.800557 0.252458 0.18498
C_ C_ 0.818308 0.758331 0.245955 -0.08735
C_ C_ 0.803623 0.724067 0.266363 -0.08735
C_ C_ 0.81381 0.735136 0.295772 -0.08735
C_ C_ 0.842154 0.779936 0.303851 0.18498
C_ C_ 0.810053 0.8066 0.350346 0.44287
C_ C_ 0.898751 0.792944 0.346022 0.44287
C_ C_ 0.90616 0.801256 0.375515 -0.05681
C_ C_ 0.955435 0.801398 0.38803 -0.08735
C_ C_ 0.960431 0.808851 0.417918 -0.08735
C_ C_ 0.917668 0.820753 0.435405 -0.05681
C_ C_ 0.869259 0.822116 0.422922 -0.05681
C_ C_ 0.863639 0.808664 0.39359 -0.05681
C_ C_ 0.815997 0.816971 0.37995 -0.05681
C_ C_ 0.774101 0.830959 0.396881 -0.08735
C_ C_ 0.778138 0.835699 0.426481 -0.08735
C_ C_ 0.826856 0.830933 0.44004 -0.05681
C_ C_ 0.831254 0.83905 0.469104 0.44287
C_ C_ 0.922052 0.825402 0.465131 0.44287
C_ C_ 0.894942 0.829434 0.0148695 0.18498
C_ C_ 0.930253 0.869116 0.0207318 -0.08735
C_ C_ 0.946295 0.881412 0.0480235 -0.08735
C_ C_ 0.926537 0.855782 0.0714861 -0.08735
C_ C_ 0.892818 0.815555 0.0673161 0.18498
C_ C_ 0.878838 0.799069 0.0385795 -0.05681
C_ C_ 0.848856 0.756471 0.0340084 -0.08735
C_ C_ 0.835763 0.728377 0.0584224 -0.08735
C_ C_ 0.845487 0.747331 0.0868328 0.1947
N_ N_ 0.636321 0.667596 0.480263 -0.29468
N_ N_ 0.644738 0.698468 0.0854789 -0.17154
N_ N_ 0.60925 0.660146 0.232616 -0.17154
N_ N_ 0.638484 0.694331 0.334835 -0.29468
N_ N_ 0.867981 0.827874 0.230799 -0.29468
N_ N_ 0.850234 0.793593 0.334315 -0.17154
N_ N_ 0.8786 0.83639 0.481909 -0.17154
N_ N_ 0.873875 0.790722 0.0897912 -0.29468
O_ O_ 0.71195 0.689228 0.429965 -0.58347
O_ O_ 0.697041 0.678306 0.384388 -0.58347
O_ O_ 0.633766 0.751892 0.433803 -0.58347
O_ O_ 0.626884 0.753797 0.387536 -0.58347
O_ O_ 0.642781 0.603942 0.425764 -0.58347
O_ O_ 0.622287 0.609358 0.380822 -0.58347
O_ O_ 0.561164 0.671249 0.430302 -0.58347
O_ O_ 0.549851 0.693031 0.384805 -0.58347
O_ O_ 0.560625 0.720905 0.0829054 -0.46727
O_ O_ 0.729424 0.684213 0.0906113 -0.46727
O_ O_ 0.52632 0.67632 0.22899 -0.46727
O_ O_ 0.69199 0.636678 0.236143 -0.46727
O_ O_ 0.790648 0.812711 0.185177 -0.58347
O_ O_ 0.804411 0.803274 0.138793 -0.58347
O_ O_ 0.870344 0.740139 0.188716 -0.58347
O_ O_ 0.889217 0.735626 0.142898 -0.58347
O_ O_ 0.857313 0.889957 0.180256 -0.58347
O_ O_ 0.880989 0.882703 0.134501 -0.58347
O_ O_ 0.946024 0.822551 0.180491 -0.58347
O_ O_ 0.956032 0.806196 0.13488 -0.58347
O_ O_ 0.935441 0.775674 0.330103 -0.46727
O_ O_ 0.766326 0.817372 0.336531 -0.46727
O_ O_ 0.966762 0.818892 0.477968 -0.46727
O_ O_ 0.792239 0.853793 0.484134 -0.46727
Zn Zn 0.625228 0.687351 0.884157 0.90689
Zn Zn 0.630377 0.67782 0.93382 0.90689
Zn Zn 0.869308 0.814783 0.635526 0.90689
Zn Zn 0.861065 0.817447 0.684374 0.90689
H_ H_ 0.807076 0.689114 0.948827 0.11455
H_ H_ 0.862451 0.639049 0.851298 0.11455
H_ H_ 0.77625 0.665079 0.85803 0.11455
H_ H_ 0.89144 0.676782 0.965888 0.11455
H_ H_ 0.984844 0.677093 0.955758 0.11455
H_ H_ 0.952588 0.648053 0.865018 0.11455
H_ H_ 0.588093 0.513044 0.935739 0.11455
H_ H_ 0.633846 0.933401 0.850242 0.11455
H_ H_ 0.688572 0.529818 0.863538 0.11455
H_ H_ 0.618793 0.925844 0.968715 0.11455
H_ H_ 0.601682 0.837808 0.962709 0.11455
H_ H_ 0.625789 0.854615 0.870687 0.11455
H_ H_ 0.573321 0.604674 0.970088 0.11455
H_ H_ 0.586967 0.568395 0.513222 0.11455
H_ H_ 0.630835 0.611744 0.554741 0.11455
H_ H_ 0.678314 0.749 0.97425 0.11455
H_ H_ 0.722279 0.803962 0.515341 0.11455
H_ H_ 0.696269 0.783031 0.565772 0.11455
H_ H_ 0.518699 0.696478 0.625552 0.11455
H_ H_ 0.508533 0.674624 0.677185 0.11455
H_ H_ 0.768593 0.672469 0.638094 0.11455
H_ H_ 0.764796 0.673278 0.689404 0.11455
H_ H_ 0.570091 0.59072 0.747936 0.11455
H_ H_ 0.560293 0.558147 0.798075 0.11455
H_ H_ 0.583879 0.615451 0.838131 0.11455
H_ H_ 0.673429 0.746446 0.760743 0.11455
H_ H_ 0.692472 0.798182 0.802924 0.11455
H_ H_ 0.675671 0.767012 0.849678 0.11455
H_ H_ 0.692092 0.789552 0.697661 0.11455
H_ H_ 0.632605 0.860586 0.605053 0.11455
H_ H_ 0.721175 0.849984 0.613973 0.11455
H_ H_ 0.607942 0.794976 0.716648 0.11455
H_ H_ 0.517985 0.787494 0.706881 0.11455
H_ H_ 0.547298 0.850334 0.622472 0.11455
H_ H_ 0.892015 0.986324 0.692172 0.11455
H_ H_ 0.844455 0.567335 0.599665 0.11455
H_ H_ 0.819313 0.969834 0.611219 0.11455
H_ H_ 0.898522 0.567556 0.713366 0.11455
H_ H_ 0.882096 0.662 0.711555 0.11455
H_ H_ 0.871801 0.647206 0.619738 0.11455
H_ H_ 0.911484 0.896192 0.722117 0.11455
H_ H_ 0.917271 0.927818 0.769891 0.11455
H_ H_ 0.882067 0.881911 0.810871 0.11455
H_ H_ 0.814301 0.746122 0.726798 0.11455
H_ H_ 0.775086 0.69672 0.766879 0.11455
H_ H_ 0.804629 0.716904 0.818836 0.11455
H_ H_ 0.977725 0.769395 0.875158 0.11455
H_ H_ 0.98896 0.776534 0.926196 0.11455
H_ H_ 0.736814 0.858517 0.894735 0.11455
H_ H_ 0.747813 0.84774 0.944567 0.11455
H_ H_ 0.944921 0.889842 1.00261072 0.11455
H_ H_ 0.949218 0.934493 0.552506 0.11455
H_ H_ 0.920813 0.882495 0.592266 0.11455
H_ H_ 0.827639 0.761672 0.507687 0.11455
H_ H_ 0.800183 0.709756 0.546181 0.11455
H_ H_ 0.824114 0.730127 0.597709 0.11455
C_ C_ 0.729641 0.686267 0.909433 0.68181
C_ C_ 0.783311 0.676574 0.904524 -0.05681
C_ C_ 0.818308 0.674568 0.927527 -0.08735
C_ C_ 0.87065 0.671677 0.921675 -0.05681
C_ C_ 0.887808 0.663951 0.892957 -0.05681
C_ C_ 0.852914 0.657607 0.870829 -0.08735
C_ C_ 0.802072 0.66378 0.87636 -0.08735
C_ C_ 0.906247 0.673566 0.943504 -0.08735
C_ C_ 0.95974 0.670402 0.937611 -0.08735
C_ C_ 0.97689 0.664779 0.909664 -0.05681
C_ C_ 0.940084 0.659243 0.887445 -0.08735
C_ C_ 0.615026 0.780954 0.911703 0.68181
C_ C_ 0.632051 0.583704 0.902043 0.68181
C_ C_ 0.637293 0.528587 0.898623 -0.05681
C_ C_ 0.633085 -0.004705999999999988 0.926459 -0.08735
C_ C_ 0.629317 0.941811 0.923494 -0.05681
C_ C_ 0.630616 0.92066 0.896238 -0.05681
C_ C_ 0.632668 0.951911 0.871028 -0.08735
C_ C_ 0.646554 0.00174664 0.874946 -0.08735
C_ C_ 0.621639 0.910661 0.947313 -0.08735
C_ C_ 0.613205 0.85929 0.943496 -0.08735
C_ C_ 0.61466 0.837206 0.91649 -0.05681
C_ C_ 0.626423 0.869108 0.892958 -0.08735
C_ C_ 0.52817 0.685958 0.908658 0.68181
C_ C_ 0.5948 0.623242 0.988275 0.1947
C_ C_ 0.599308 0.607219 0.511979 -0.08735
C_ C_ 0.618383 0.633578 0.534944 -0.08735
C_ C_ 0.644369 0.682198 0.531063 -0.05681
C_ C_ 0.652779 0.696769 0.502316 0.18498
C_ C_ 0.673045 0.737315 0.996166 -0.08735
C_ C_ 0.696032 0.771904 0.519429 -0.08735
C_ C_ 0.683156 0.759351 0.547816 -0.08735
C_ C_ 0.657781 0.713759 0.554052 0.18498
C_ C_ 0.694393 0.688787 0.599664 0.44287
C_ C_ 0.604759 0.693651 0.595604 0.44287
C_ C_ 0.598566 0.687312 0.625973 -0.05681
C_ C_ 0.551975 0.68705 0.638304 -0.08735
C_ C_ 0.546352 0.680444 0.668328 -0.08735
C_ C_ 0.589017 0.680582 0.685592 -0.05681
C_ C_ 0.637734 0.681008 0.672959 -0.05681
C_ C_ 0.641814 0.687828 0.643329 -0.05681
C_ C_ 0.689902 0.686307 0.629916 -0.05681
C_ C_ 0.733264 0.681306 0.647392 -0.08735
C_ C_ 0.730275 0.679033 0.677365 -0.08735
C_ C_ 0.680513 0.676355 0.691575 -0.05681
C_ C_ 0.673152 0.667221 0.720176 0.44287
C_ C_ 0.582719 0.676822 0.715164 0.44287
C_ C_ 0.61854 0.654371 0.761439 0.18498
C_ C_ 0.590046 0.609464 0.766295 -0.08735
C_ C_ 0.578046 0.595859 0.794494 -0.08735
C_ C_ 0.596889 0.623109 0.817819 -0.08735
C_ C_ 0.620331 0.671317 0.813253 0.18498
C_ C_ 0.634238 0.687252 0.785144 -0.05681
C_ C_ 0.658805 0.733938 0.782077 -0.08735
C_ C_ 0.67138 0.762928 0.805721 -0.08735
C_ C_ 0.661315 0.744882 0.83265 0.1947
C_ C_ 0.767643 0.802252 0.659504 0.68181
C_ C_ 0.713276 0.814848 0.656317 -0.05681
C_ C_ 0.68079 0.810993 0.679005 -0.08735
C_ C_ 0.629005 0.819632 0.674641 -0.05681
C_ C_ 0.610347 0.835166 0.647809 -0.05681
C_ C_ 0.644521 0.846996 0.625735 -0.08735
C_ C_ 0.69575 0.838665 0.630972 -0.08735
C_ C_ 0.593618 0.807107 0.696 -0.08735
C_ C_ 0.542616 0.804627 0.690407 -0.08735
C_ C_ 0.522324 0.82503 0.665006 -0.05681
C_ C_ 0.558749 0.839105 0.642426 -0.08735
C_ C_ 0.875952 0.718344 0.663391 0.68181
C_ C_ 0.856167 0.912688 0.656712 0.68181
C_ C_ 0.84965 0.968633 0.654537 -0.05681
C_ C_ 0.886075 0.500493 0.671014 -0.08735
C_ C_ 0.881863 0.55431 0.670082 -0.05681
C_ C_ 0.871909 0.577515 0.644043 -0.05681
C_ C_ 0.858706 0.549598 0.619986 -0.08735
C_ C_ 0.830379 0.992467 0.629231 -0.08735
C_ C_ 0.889112 0.585398 0.694161 -0.08735
C_ C_ 0.883793 0.639227 0.692507 -0.08735
C_ C_ 0.879483 0.662856 0.664945 -0.05681
C_ C_ 0.872259 0.629907 0.64103 -0.08735
C_ C_ 0.963178 0.828861 0.65845 0.68181
C_ C_ 0.891164 0.873907 0.739188 0.1947
C_ C_ 0.894262 0.894186 0.767173 -0.08735
C_ C_ 0.87412 0.865927 0.789668 -0.08735
C_ C_ 0.851849 0.818996 0.785149 -0.05681
C_ C_ 0.84596 0.802983 0.755528 0.18498
C_ C_ 0.817176 0.759354 0.748761 -0.08735
C_ C_ 0.799686 0.729238 0.771636 -0.08735
C_ C_ 0.8081 0.743385 0.800891 -0.08735
C_ C_ 0.83011 0.790473 0.807727 0.18498
C_ C_ 0.803204 0.82183 0.853623 0.44287
C_ C_ 0.882343 0.780823 0.848959 0.44287
C_ C_ 0.895266 0.790073 0.877285 -0.05681
C_ C_ 0.944858 0.784751 0.888836 -0.08735
C_ C_ 0.952713 0.786808 0.91838 -0.08735
C_ C_ 0.911821 0.791365 0.938073 -0.05681
C_ C_ 0.863191 0.801655 0.926553 -0.05681
C_ C_ 0.856253 0.804196 0.896064 -0.05681
C_ C_ 0.810039 0.817742 0.883534 -0.05681
C_ C_ 0.77293 0.839289 0.901785 -0.08735
C_ C_ 0.779061 0.835546 0.932179 -0.08735
C_ C_ 0.824871 0.820331 0.945043 -0.05681
C_ C_ 0.834453 0.829866 0.974953 0.44287
C_ C_ 0.918041 0.797518 0.968714 0.44287
C_ C_ 0.88392 0.848622 0.511555 0.18498
C_ C_ 0.909204 0.893214 0.517993 -0.08735
C_ C_ 0.922243 0.90424 0.546574 -0.08735
C_ C_ 0.904401 0.873746 0.570017 -0.08735
C_ C_ 0.874961 0.83166 0.563837 0.18498
C_ C_ 0.870139 0.814597 0.534512 -0.05681
C_ C_ 0.845306 0.768696 0.52848 -0.08735
C_ C_ 0.824828 0.742219 0.551279 -0.08735
C_ C_ 0.837857 0.753607 0.580135 0.1947
N_ N_ 0.625029 0.664553 0.982051 -0.29468
N_ N_ 0.653238 0.700245 0.583828 -0.17154
N_ N_ 0.624966 0.66931 0.731838 -0.17154
N_ N_ 0.635044 0.700326 0.836288 -0.29468
N_ N_ 0.867564 0.830082 0.733289 -0.29468
N_ N_ 0.841778 0.802749 0.837037 -0.17154
N_ N_ 0.881318 0.81731 0.98561 -0.17154
N_ N_ 0.858289 0.800809 0.585572 -0.29468
O_ O_ 0.707409 0.671143 0.931954 -0.58347
O_ O_ 0.702495 0.697805 0.888113 -0.58347
O_ O_ 0.627162 0.753795 0.93269 -0.58347
O_ O_ 0.609964 0.761239 0.886602 -0.58347
O_ O_ 0.625663 0.602626 0.927134 -0.58347
O_ O_ 0.636811 0.611344 0.879903 -0.58347
O_ O_ 0.55477 0.679063 0.931007 -0.58347
O_ O_ 0.548301 0.677396 0.884556 -0.58347
O_ O_ 0.564078 0.70095 0.579162 -0.46727
O_ O_ 0.740044 0.682339 0.587859 -0.46727
O_ O_ 0.538935 0.68219 0.727054 -0.46727
O_ O_ 0.712349 0.655326 0.736901 -0.46727
O_ O_ 0.786401 0.80156 0.683708 -0.58347
O_ O_ 0.7966 0.807624 0.63741 -0.58347
O_ O_ 0.875956 0.744197 0.68729 -0.58347
O_ O_ 0.875022 0.739375 0.639457 -0.58347
O_ O_ 0.856198 0.890767 0.680769 -0.58347
O_ O_ 0.86145 0.887517 0.633667 -0.58347
O_ O_ 0.937148 0.827039 0.681036 -0.58347
O_ O_ 0.943467 0.823952 0.633319 -0.58347
O_ O_ 0.911957 0.753886 0.832368 -0.46727
O_ O_ 0.758588 0.836568 0.842198 -0.46727
O_ O_ 0.961079 0.782209 0.979898 -0.46727
O_ O_ 0.79726 0.843845 0.992075 -0.46727
_cell_length_a 26.376
_cell_length_b 26.400000238300095
_cell_length_c 46.67800035477134
_cell_angle_alpha 90.00700052986613
_cell_angle_beta 89.99899961309502
_cell_angle_gamma 90.45000003183146
_symmetry_space_group_name_H-M         'P 1'
_symmetry_Int_Tables_number            1
loop_
_symmetry_equiv_pos_as_xyz
   'x, y, z'
                         
loop_
_atom_site_label
_atom_site_type_symbol
_atom_site_fract_x 
_atom_site_fract_y
_atom_site_fract_z
_atom_site_charge
Zn Zn 0.123267 0.182423 0.378224 0.90689
Zn Zn 0.133499 0.175545 0.428587 0.90689
Zn Zn 0.370333 0.323397 0.13109 0.90689
Zn Zn 0.361126 0.32941 0.177725 0.90689
H_ H_ 0.301269 0.196985 0.441326 0.11455
H_ H_ 0.367533 0.177529 0.342136 0.11455
H_ H_ 0.281499 0.15789 0.352166 0.11455
H_ H_ 0.384543 0.186465 0.4617 0.11455
H_ H_ 0.477415 0.181676 0.45578 0.11455
H_ H_ 0.45739 0.175197 0.364527 0.11455
H_ H_ 0.112719 0.0101576 0.439386 0.11455
H_ H_ 0.132149 0.436646 0.345387 0.11455
H_ H_ 0.151438 0.0203578 0.347838 0.11455
H_ H_ 0.125519 0.428151 0.463341 0.11455
H_ H_ 0.139219 0.338191 0.459939 0.11455
H_ H_ 0.115788 0.350533 0.366949 0.11455
H_ H_ 0.0858325 0.0935663 0.46982 0.11455
H_ H_ 0.061888 0.0834051 0.0139314 0.11455
H_ H_ 0.0992968 0.125806 0.0527268 0.11455
H_ H_ 0.18812 0.245556 0.470897 0.11455
H_ H_ 0.216969 0.304749 0.00815641 0.11455
H_ H_ 0.207405 0.277116 0.0577404 0.11455
H_ H_ 0.0123866 0.193376 0.120372 0.11455
H_ H_ 0.000624201 0.185781 0.170078 0.11455
H_ H_ 0.265794 0.169606 0.136232 0.11455
H_ H_ 0.25248 0.158035 0.188468 0.11455
H_ H_ 0.0893218 0.0798931 0.244351 0.11455
H_ H_ 0.0504994 0.0581801 0.292394 0.11455
H_ H_ 0.0705976 0.116697 0.335772 0.11455
H_ H_ 0.157297 0.246489 0.257162 0.11455
H_ H_ 0.184349 0.296635 0.299963 0.11455
H_ H_ 0.173701 0.256401 0.347229 0.11455
H_ H_ 0.195127 0.302393 0.195628 0.11455
H_ H_ 0.123447 0.331835 0.0970282 0.11455
H_ H_ 0.213574 0.326119 0.102288 0.11455
H_ H_ 0.104797 0.31459 0.214193 0.11455
H_ H_ 0.0123578 0.307457 0.205571 0.11455
H_ H_ 0.0357833 0.31954 0.114733 0.11455
H_ H_ 0.374362 0.495431 0.194577 0.11455
H_ H_ 0.381335 0.0802799 0.0947016 0.11455
H_ H_ 0.361963 0.486198 0.10455 0.11455
H_ H_ 0.360832 0.0866987 0.211296 0.11455
H_ H_ 0.357057 0.179896 0.2061 0.11455
H_ H_ 0.389578 0.16373 0.11591 0.11455
H_ H_ 0.424283 0.389964 0.214092 0.11455
H_ H_ 0.449682 0.414836 0.263876 0.11455
H_ H_ 0.400004 0.375603 0.305033 0.11455
H_ H_ 0.296605 0.262057 0.224237 0.11455
H_ H_ 0.254464 0.22755 0.26613 0.11455
H_ H_ 0.289715 0.232193 0.312461 0.11455
H_ H_ 0.483875 0.30204 0.373763 0.11455
H_ H_ 0.495702 0.299409 0.423456 0.11455
H_ H_ 0.232571 0.329596 0.389362 0.11455
H_ H_ 0.250225 0.348237 0.440081 0.11455
H_ H_ 0.438524 0.412378 0.498553 0.11455
H_ H_ 0.460973 0.438359 0.0434754 0.11455
H_ H_ 0.424195 0.395753 0.0863565 0.11455
H_ H_ 0.34563 0.255811 0.00873188 0.11455
H_ H_ 0.306643 0.215876 0.0526205 0.11455
H_ H_ 0.325595 0.246644 0.0976473 0.11455
C_ C_ 0.225545 0.184549 0.400298 0.68181
C_ C_ 0.280435 0.182408 0.396103 -0.05681
C_ C_ 0.314743 0.189578 0.420378 -0.08735
C_ C_ 0.368003 0.185581 0.415624 -0.05681
C_ C_ 0.387485 0.18254 0.387244 -0.05681
C_ C_ 0.35517 0.175597 0.364371 -0.08735
C_ C_ 0.304041 0.172516 0.369058 -0.08735
C_ C_ 0.4012 0.184925 0.439725 -0.08735
C_ C_ 0.453356 0.179033 0.436074 -0.08735
C_ C_ 0.47335 0.178782 0.408784 -0.05681
C_ C_ 0.440053 0.17555 0.384368 -0.08735
C_ C_ 0.128169 0.27693 0.409223 0.68181
C_ C_ 0.131599 0.0786264 0.397217 0.68181
C_ C_ 0.134383 0.0239542 0.395285 -0.05681
C_ C_ 0.13482 0.494526 0.421165 -0.08735
C_ C_ 0.128723 0.441688 0.418993 -0.05681
C_ C_ 0.125106 0.419341 0.391293 -0.05681
C_ C_ 0.130833 0.450825 0.366645 -0.08735
C_ C_ 0.135403 0.502738 0.369824 -0.08735
C_ C_ 0.126499 0.41155 0.443237 -0.08735
C_ C_ 0.126435 0.35784 0.442315 -0.08735
C_ C_ 0.123117 0.333997 0.414114 -0.05681
C_ C_ 0.118619 0.366285 0.389165 -0.08735
C_ C_ 0.0300096 0.170324 0.404069 0.68181
C_ C_ 0.109189 0.115972 0.485532 0.1947
C_ C_ 0.0895535 0.113091 0.00845724 -0.08735
C_ C_ 0.109858 0.137084 0.0318471 -0.08735
C_ C_ 0.142138 0.180695 0.027072 -0.05681
C_ C_ 0.156367 0.192707 0.997951 0.18498
C_ C_ 0.180125 0.23703 0.493061 -0.08735
C_ C_ 0.202771 0.266819 0.0137255 -0.08735
C_ C_ 0.191412 0.254262 0.0419032 -0.08735
C_ C_ 0.160539 0.212327 0.0495196 0.18498
C_ C_ 0.192492 0.19541 0.0976613 0.44287
C_ C_ 0.104061 0.200073 0.0911337 0.44287
C_ C_ 0.0957325 0.196158 0.121607 -0.05681
C_ C_ 0.0464278 0.192741 0.133738 -0.08735
C_ C_ 0.0387962 0.19191 0.162397 -0.08735
C_ C_ 0.0805713 0.183556 0.180852 -0.05681
C_ C_ 0.130277 0.178089 0.169253 -0.05681
C_ C_ 0.138271 0.19003 0.139445 -0.05681
C_ C_ 0.187514 0.186202 0.12703 -0.05681
C_ C_ 0.228838 0.175556 0.145225 -0.08735
C_ C_ 0.220359 0.165874 0.17439 -0.08735
C_ C_ 0.171766 0.172913 0.186874 -0.05681
C_ C_ 0.164702 0.166658 0.216509 0.44287
C_ C_ 0.0758747 0.179884 0.210633 0.44287
C_ C_ 0.111295 0.154888 0.257298 0.18498
C_ C_ 0.0915527 0.106521 0.26191 -0.08735
C_ C_ 0.0739901 0.091755 0.289724 -0.08735
C_ C_ 0.0874137 0.122835 0.314032 -0.08735
C_ C_ 0.116994 0.165691 0.310493 0.18498
C_ C_ 0.126022 0.184497 0.281652 -0.05681
C_ C_ 0.151863 0.231774 0.27863 -0.08735
C_ C_ 0.16911 0.258814 0.303176 -0.08735
C_ C_ 0.154097 0.240569 0.330234 0.1947
C_ C_ 0.264904 0.315424 0.154227 0.68181
C_ C_ 0.210265 0.315372 0.149661 -0.05681
C_ C_ 0.177584 0.307018 0.174024 -0.08735
C_ C_ 0.125238 0.31155 0.169586 -0.05681
C_ C_ 0.104787 0.313509 0.140923 -0.05681
C_ C_ 0.13733 0.319759 0.117884 -0.08735
C_ C_ 0.189047 0.316614 0.12145 -0.08735
C_ C_ 0.0909568 0.314185 0.192053 -0.08735
C_ C_ 0.0390848 0.31576 0.18721 -0.08735
C_ C_ 0.0198811 0.318044 0.160499 -0.05681
C_ C_ 0.0524582 0.31613 0.136586 -0.08735
C_ C_ 0.376628 0.231171 0.157863 0.68181
C_ C_ 0.358151 0.427701 0.153455 0.68181
C_ C_ 0.365203 0.483099 0.150329 -0.05681
C_ C_ 0.366326 0.0184777 0.169673 -0.08735
C_ C_ 0.371078 0.0711093 0.166331 -0.05681
C_ C_ 0.377568 0.093631 0.139235 -0.05681
C_ C_ 0.382633 0.0627809 0.115473 -0.08735
C_ C_ 0.371359 0.505952 0.12295 -0.08735
C_ C_ 0.364144 0.102974 0.190201 -0.08735
C_ C_ 0.363369 0.15442 0.187162 -0.08735
C_ C_ 0.376492 0.177449 0.160719 -0.05681
C_ C_ 0.381465 0.146489 0.136253 -0.08735
C_ C_ 0.463777 0.333647 0.159186 0.68181
C_ C_ 0.406128 0.37154 0.233207 0.1947
C_ C_ 0.421009 0.385878 0.262034 -0.08735
C_ C_ 0.399815 0.358652 0.284706 -0.08735
C_ C_ 0.362843 0.319678 0.279106 -0.05681
C_ C_ 0.346405 0.310206 0.250658 0.18498
C_ C_ 0.308469 0.275027 0.245671 -0.08735
C_ C_ 0.288659 0.246975 0.268875 -0.08735
C_ C_ 0.311261 0.249766 0.29502 -0.08735
C_ C_ 0.344198 0.289128 0.301422 0.18498
C_ C_ 0.308418 0.314389 0.347972 0.44287
C_ C_ 0.395688 0.29848 0.345049 0.44287
C_ C_ 0.40366 0.302969 0.374121 -0.05681
C_ C_ 0.450092 0.304066 0.386351 -0.08735
C_ C_ 0.457403 0.299257 0.415866 -0.08735
C_ C_ 0.415493 0.308676 0.433918 -0.05681
C_ C_ 0.366823 0.314994 0.42095 -0.05681
C_ C_ 0.360903 0.309188 0.391221 -0.05681
C_ C_ 0.311672 0.313164 0.378534 -0.05681
C_ C_ 0.271825 0.327423 0.39686 -0.08735
C_ C_ 0.280037 0.338563 0.426484 -0.08735
C_ C_ 0.327124 0.333833 0.438748 -0.05681
C_ C_ 0.334419 0.345086 0.467952 0.44287
C_ C_ 0.421389 0.317659 0.46358 0.44287
C_ C_ 0.403082 0.337891 0.00945945 0.18498
C_ C_ 0.433486 0.381173 0.0141606 -0.08735
C_ C_ 0.442569 0.399764 0.0418247 -0.08735
C_ C_ 0.42083 0.377241 0.0651269 -0.08735
C_ C_ 0.386083 0.336412 0.0604607 0.18498
C_ C_ 0.378195 0.314809 0.0325582 -0.05681
C_ C_ 0.348699 0.271863 0.0287917 -0.08735
C_ C_ 0.334438 0.245568 0.0531553 -0.08735
C_ C_ 0.338599 0.269061 0.0798509 0.1947
N_ N_ 0.136155 0.158254 0.478952 -0.29468
N_ N_ 0.152108 0.205122 0.0800081 -0.17154
N_ N_ 0.117706 0.17166 0.228099 -0.17154
N_ N_ 0.132658 0.193489 0.333301 -0.29468
N_ N_ 0.369448 0.336233 0.228676 -0.29468
N_ N_ 0.349752 0.303867 0.331854 -0.17154
N_ N_ 0.380609 0.333348 0.48012 -0.17154
N_ N_ 0.367904 0.311281 0.0843835 -0.29468
O_ O_ 0.208201 0.180408 0.425734 -0.58347
O_ O_ 0.196113 0.187563 0.378332 -0.58347
O_ O_ 0.132172 0.248576 0.430933 -0.58347
O_ O_ 0.114927 0.257181 0.38543 -0.58347
O_ O_ 0.130048 0.101094 0.422165 -0.58347
O_ O_ 0.130475 0.105821 0.374946 -0.58347
O_ O_ 0.0577209 0.171379 0.425905 -0.58347
O_ O_ 0.0486636 0.173955 0.378951 -0.58347
O_ O_ 0.0641291 0.207038 0.0749093 -0.46727
O_ O_ 0.238837 0.194935 0.0858545 -0.46727
O_ O_ 0.0329993 0.187157 0.223825 -0.46727
O_ O_ 0.20504 0.158469 0.233949 -0.46727
O_ O_ 0.284408 0.327891 0.177645 -0.58347
O_ O_ 0.295083 0.305839 0.132915 -0.58347
O_ O_ 0.364951 0.257261 0.178743 -0.58347
O_ O_ 0.386947 0.251814 0.134454 -0.58347
O_ O_ 0.357793 0.40498 0.177373 -0.58347
O_ O_ 0.356657 0.401137 0.130098 -0.58347
O_ O_ 0.43792 0.32293 0.181089 -0.58347
O_ O_ 0.444065 0.339121 0.134951 -0.58347
O_ O_ 0.434082 0.283034 0.329165 -0.46727
O_ O_ 0.264029 0.320533 0.334908 -0.46727
O_ O_ 0.462659 0.303282 0.47479 -0.46727
O_ O_ 0.295102 0.355486 0.484348 -0.46727
Zn Zn 0.132736 0.179657 0.880784 0.90689
Zn Zn 0.141741 0.176307 0.928155 0.90689
Zn Zn 0.372851 0.320639 0.633554 0.90689
Zn Zn 0.36541 0.333689 0.680155 0.90689
H_ H_ 0.309705 0.179685 0.948036 0.11455
H_ H_ 0.377415 0.132228 0.852385 0.11455
H_ H_ 0.289949 0.146416 0.85892 0.11455
H_ H_ 0.393341 0.174873 0.968354 0.11455
H_ H_ 0.487477 0.179215 0.961014 0.11455
H_ H_ 0.465059 0.148124 0.870543 0.11455
H_ H_ 0.160725 0.00401016 0.940479 0.11455
H_ H_ 0.134533 0.432209 0.840534 0.11455
H_ H_ 0.132382 0.0167002 0.85032 0.11455
H_ H_ 0.15326 0.423493 0.958791 0.11455
H_ H_ 0.135099 0.336557 0.9552 0.11455
H_ H_ 0.131109 0.344663 0.865399 0.11455
H_ H_ 0.0848052 0.104181 0.962474 0.11455
H_ H_ 0.0835026 0.065237 0.519575 0.11455
H_ H_ 0.109304 0.123541 0.558496 0.11455
H_ H_ 0.195975 0.24322 0.96908 0.11455
H_ H_ 0.215816 0.302249 0.510495 0.11455
H_ H_ 0.19399 0.284561 0.559795 0.11455
H_ H_ 0.0113892 0.209355 0.62044 0.11455
H_ H_ 0.0008600000000000829 0.202414 0.67191 0.11455
H_ H_ 0.260644 0.161174 0.639348 0.11455
H_ H_ 0.251118 0.174411 0.690085 0.11455
H_ H_ 0.0588651 0.101998 0.747469 0.11455
H_ H_ 0.0387858 0.0768896 0.800274 0.11455
H_ H_ 0.082032 0.117663 0.838998 0.11455
H_ H_ 0.152743 0.258217 0.757696 0.11455
H_ H_ 0.193057 0.297944 0.79966 0.11455
H_ H_ 0.192865 0.260567 0.846205 0.11455
H_ H_ 0.193826 0.311964 0.693322 0.11455
H_ H_ 0.123823 0.320633 0.594345 0.11455
H_ H_ 0.218056 0.32206 0.601678 0.11455
H_ H_ 0.108825 0.314564 0.711788 0.11455
H_ H_ 0.0165701 0.31927 0.706448 0.11455
H_ H_ 0.0347877 0.316445 0.614841 0.11455
H_ H_ 0.346269 0.49318 0.690498 0.11455
H_ H_ 0.376161 0.0737399 0.601071 0.11455
H_ H_ 0.401435 0.477723 0.605652 0.11455
H_ H_ 0.353303 0.0802909 0.718619 0.11455
H_ H_ 0.364992 0.171184 0.715728 0.11455
H_ H_ 0.381673 0.157913 0.623203 0.11455
H_ H_ 0.415904 0.40613 0.718195 0.11455
H_ H_ 0.446282 0.419307 0.768052 0.11455
H_ H_ 0.412963 0.37348 0.807266 0.11455
H_ H_ 0.304886 0.266891 0.721591 0.11455
H_ H_ 0.267689 0.21611 0.758282 0.11455
H_ H_ 0.296921 0.228449 0.809896 0.11455
H_ H_ 0.490396 0.265673 0.872156 0.11455
H_ H_ 0.503051 0.295634 0.924751 0.11455
H_ H_ 0.247584 0.346361 0.88722 0.11455
H_ H_ 0.264971 0.363553 0.937073 0.11455
H_ H_ 0.451171 0.402177 -0.0020820000000000283 0.11455
H_ H_ 0.46549 0.428749 0.547062 0.11455
H_ H_ 0.435587 0.380033 0.58733 0.11455
H_ H_ 0.334023 0.255647 0.507773 0.11455
H_ H_ 0.308578 0.206575 0.548136 0.11455
H_ H_ 0.324318 0.236236 0.599202 0.11455
C_ C_ 0.236426 0.180662 0.906995 0.68181
C_ C_ 0.291615 0.171243 0.904048 -0.05681
C_ C_ 0.326009 0.177505 0.926862 -0.08735
C_ C_ 0.37844 0.171751 0.923098 -0.05681
C_ C_ 0.398705 0.155335 0.89669 -0.05681
C_ C_ 0.364365 0.14524 0.873575 -0.08735
C_ C_ 0.313877 0.156238 0.876993 -0.08735
C_ C_ 0.409211 0.168865 0.946866 -0.08735
C_ C_ 0.461755 0.175637 0.942678 -0.08735
C_ C_ 0.485113 0.165152 0.914879 -0.05681
C_ C_ 0.451494 0.1565 0.89214 -0.08735
C_ C_ 0.134592 0.276935 0.9082 0.68181
C_ C_ 0.146889 0.0774589 0.898461 0.68181
C_ C_ 0.143093 0.0195207 0.895728 -0.05681
C_ C_ 0.138172 0.493821 0.917244 -0.08735
C_ C_ 0.13759 0.441467 0.914185 -0.05681
C_ C_ 0.135453 0.418578 0.886551 -0.05681
C_ C_ 0.139048 0.449903 0.861706 -0.08735
C_ C_ 0.138514 0.502867 0.86486 -0.08735
C_ C_ 0.14541 0.409916 0.937864 -0.08735
C_ C_ 0.14234 0.359135 0.936157 -0.08735
C_ C_ 0.133369 0.335106 0.909549 -0.05681
C_ C_ 0.133226 0.363918 0.885221 -0.08735
C_ C_ 0.0399944 0.17187 0.902764 0.68181
C_ C_ 0.104651 0.123809 0.980708 0.1947
C_ C_ 0.0993312 0.102371 0.514174 -0.08735
C_ C_ 0.116709 0.131842 0.536228 -0.08735
C_ C_ 0.143852 0.177385 0.529352 -0.05681
C_ C_ 0.152518 0.191818 0.500672 0.18498
C_ C_ 0.182748 0.237526 0.992355 -0.08735
C_ C_ 0.191726 0.270204 0.515186 -0.08735
C_ C_ 0.182201 0.258093 0.544182 -0.08735
C_ C_ 0.157092 0.210726 0.550996 0.18498
C_ C_ 0.189479 0.186041 0.597662 0.44287
C_ C_ 0.101592 0.202855 0.592793 0.44287
C_ C_ 0.0935235 0.202532 0.622411 -0.05681
C_ C_ 0.0445689 0.205397 0.634618 -0.08735
C_ C_ 0.0370764 0.194659 0.663015 -0.08735
C_ C_ 0.0791892 0.188997 0.681983 -0.05681
C_ C_ 0.127406 0.186264 0.66994 -0.05681
C_ C_ 0.135845 0.192649 0.640339 -0.05681
C_ C_ 0.184523 0.18518 0.628086 -0.05681
C_ C_ 0.225186 0.175124 0.646599 -0.08735
C_ C_ 0.217734 0.172735 0.676539 -0.08735
C_ C_ 0.168859 0.175954 0.68833 -0.05681
C_ C_ 0.162201 0.171763 0.717902 0.44287
C_ C_ 0.0734353 0.186009 0.711479 0.44287
C_ C_ 0.105636 0.162358 0.760049 0.18498
C_ C_ 0.0757769 0.11874 0.765978 -0.08735
C_ C_ 0.0636107 0.106571 0.794313 -0.08735
C_ C_ 0.0862777 0.133078 0.817008 -0.08735
C_ C_ 0.117155 0.17596 0.811789 0.18498
C_ C_ 0.126183 0.192938 0.783304 -0.05681
C_ C_ 0.149631 0.241709 0.778555 -0.08735
C_ C_ 0.171122 0.263687 0.80244 -0.08735
C_ C_ 0.173867 0.238107 0.829181 0.1947
C_ C_ 0.269405 0.318371 0.650591 0.68181
C_ C_ 0.213292 0.321871 0.647515 -0.05681
C_ C_ 0.179845 0.313134 0.671078 -0.08735
C_ C_ 0.125782 0.31595 0.666598 -0.05681
C_ C_ 0.105532 0.323508 0.638997 -0.05681
C_ C_ 0.139974 0.320459 0.61586 -0.08735
C_ C_ 0.191374 0.323786 0.619187 -0.08735
C_ C_ 0.0930695 0.31308 0.691274 -0.08735
C_ C_ 0.0416263 0.31951 0.687611 -0.08735
C_ C_ 0.0193771 0.319921 0.659929 -0.05681
C_ C_ 0.0527999 0.322559 0.635819 -0.08735
C_ C_ 0.373711 0.229569 0.664113 0.68181
C_ C_ 0.36738 0.42556 0.650615 0.68181
C_ C_ 0.368032 0.479685 0.646652 -0.05681
C_ C_ 0.362025 0.0108475 0.675928 -0.08735
C_ C_ 0.369601 0.064478 0.673559 -0.05681
C_ C_ 0.376041 0.0861758 0.646215 -0.05681
C_ C_ 0.376176 0.055349 0.622109 -0.08735
C_ C_ 0.38603 0.500897 0.621838 -0.08735
C_ C_ 0.360535 0.0972142 0.696964 -0.08735
C_ C_ 0.367265 0.148145 0.695203 -0.08735
C_ C_ 0.371313 0.171514 0.668119 -0.05681
C_ C_ 0.375831 0.139133 0.643201 -0.08735
C_ C_ 0.466873 0.339193 0.656665 0.68181
C_ C_ 0.404635 0.379194 0.734793 0.1947
C_ C_ 0.420586 0.386529 0.76301 -0.08735
C_ C_ 0.401453 0.359902 0.785406 -0.08735
C_ C_ 0.37076 0.318291 0.779304 -0.05681
C_ C_ 0.354126 0.310993 0.749723 0.18498
C_ C_ 0.316655 0.274845 0.743285 -0.08735
C_ C_ 0.297999 0.241574 0.76479 -0.08735
C_ C_ 0.313312 0.250199 0.793361 -0.08735
C_ C_ 0.347485 0.289453 0.801038 0.18498
C_ C_ 0.317959 0.319482 0.84894 0.44287
C_ C_ 0.399281 0.284031 0.84422 0.44287
C_ C_ 0.408541 0.289674 0.873837 -0.05681
C_ C_ 0.458564 0.282405 0.88594 -0.08735
C_ C_ 0.467158 0.289459 0.915372 -0.08735
C_ C_ 0.426098 0.304867 0.932474 -0.05681
C_ C_ 0.37727 0.316116 0.920712 -0.05681
C_ C_ 0.368186 0.309027 0.890912 -0.05681
C_ C_ 0.322337 0.319987 0.878665 -0.05681
C_ C_ 0.285353 0.337893 0.896535 -0.08735
C_ C_ 0.292943 0.340906 0.926557 -0.08735
C_ C_ 0.338965 0.332041 0.938791 -0.05681
C_ C_ 0.346517 0.333636 0.969653 0.44287
C_ C_ 0.430086 0.304511 0.962791 0.44287
C_ C_ 0.390928 0.345337 0.510271 0.18498
C_ C_ 0.421407 0.389626 0.515411 -0.08735
C_ C_ 0.434161 0.40202 0.544927 -0.08735
C_ C_ 0.4147 0.372361 0.566849 -0.08735
C_ C_ 0.3801 0.331315 0.562345 0.18498
C_ C_ 0.369937 0.316871 0.533762 -0.05681
C_ C_ 0.343165 0.270193 0.529371 -0.08735
C_ C_ 0.323968 0.243889 0.552853 -0.08735
C_ C_ 0.336607 0.258336 0.580774 0.1947
N_ N_ 0.136123 0.164167 0.97556 -0.29468
N_ N_ 0.148172 0.200279 0.581344 -0.17154
N_ N_ 0.114584 0.172903 0.729299 -0.17154
N_ N_ 0.139904 0.19978 0.834801 -0.29468
N_ N_ 0.370583 0.343378 0.728696 -0.29468
N_ N_ 0.354827 0.299689 0.831839 -0.17154
N_ N_ 0.39193 0.323412 0.98078 -0.17154
N_ N_ 0.366143 0.30242 0.58461 -0.29468
O_ O_ 0.216537 0.173467 0.930925 -0.58347
O_ O_ 0.210126 0.184301 0.883822 -0.58347
O_ O_ 0.144363 0.251531 0.929964 -0.58347
O_ O_ 0.120158 0.2534 0.885453 -0.58347
O_ O_ 0.13907 0.100408 0.921 -0.58347
O_ O_ 0.142226 0.102331 0.874916 -0.58347
O_ O_ 0.0670976 0.175621 0.925595 -0.58347
O_ O_ 0.059544 0.175131 0.877833 -0.58347
O_ O_ 0.0627267 0.219629 0.576791 -0.46727
O_ O_ 0.234959 0.19079 0.587087 -0.46727
O_ O_ 0.0297438 0.199185 0.723646 -0.46727
O_ O_ 0.200882 0.155561 0.733327 -0.46727
O_ O_ 0.289841 0.322875 0.674345 -0.58347
O_ O_ 0.296859 0.315763 0.628993 -0.58347
O_ O_ 0.372656 0.258741 0.685676 -0.58347
O_ O_ 0.373922 0.249179 0.639637 -0.58347
O_ O_ 0.364934 0.407402 0.676362 -0.58347
O_ O_ 0.365788 0.395687 0.629167 -0.58347
O_ O_ 0.438833 0.342356 0.678714 -0.58347
O_ O_ 0.446373 0.328363 0.632462 -0.58347
O_ O_ 0.434457 0.265162 0.825784 -0.46727
O_ O_ 0.273405 0.331615 0.836373 -0.46727
O_ O_ 0.474309 0.298033 0.974546 -0.46727
O_ O_ 0.308621 0.351728 0.986884 -0.46727
Zn Zn 0.123521 0.681796 0.377861 0.90689
Zn Zn 0.136088 0.675523 0.424645 0.90689
Zn Zn 0.38018 0.826352 0.131066 0.90689
Zn Zn 0.368934 0.831743 0.180796 0.90689
H_ H_ 0.30168 0.684368 0.442788 0.11455
H_ H_ 0.376645 0.662286 0.34619 0.11455
H_ H_ 0.281729 0.656321 0.354209 0.11455
H_ H_ 0.386648 0.694246 0.464072 0.11455
H_ H_ 0.477968 0.682179 0.459692 0.11455
H_ H_ 0.458509 0.653592 0.370164 0.11455
H_ H_ 0.138906 0.511525 0.442946 0.11455
H_ H_ 0.137314 0.931637 0.344005 0.11455
H_ H_ 0.134335 0.525672 0.351217 0.11455
H_ H_ 0.0891652 0.923935 0.456543 0.11455
H_ H_ 0.0805246 0.834532 0.449174 0.11455
H_ H_ 0.147717 0.848002 0.366107 0.11455
H_ H_ 0.0748205 0.606718 0.462934 0.11455
H_ H_ 0.0615177 0.571765 0.0115858 0.11455
H_ H_ 0.107056 0.615341 0.0516696 0.11455
H_ H_ 0.198358 0.738403 0.469475 0.11455
H_ H_ 0.234954 0.777911 0.0032457 0.11455
H_ H_ 0.213548 0.762709 0.0554353 0.11455
H_ H_ 0.0259854 0.680555 0.119962 0.11455
H_ H_ 0.0152125 0.678259 0.171804 0.11455
H_ H_ 0.277411 0.665598 0.129272 0.11455
H_ H_ 0.270694 0.65605 0.182344 0.11455
H_ H_ 0.0964983 0.575218 0.240631 0.11455
H_ H_ 0.0716531 0.54999 0.291492 0.11455
H_ H_ 0.0778218 0.607386 0.329484 0.11455
H_ H_ 0.166621 0.742888 0.253311 0.11455
H_ H_ 0.169222 0.801505 0.297717 0.11455
H_ H_ 0.162405 0.765759 0.34521 0.11455
H_ H_ 0.207632 0.818867 0.199476 0.11455
H_ H_ 0.133214 0.829445 0.100322 0.11455
H_ H_ 0.222539 0.8353 0.10702 0.11455
H_ H_ 0.118796 0.828136 0.215753 0.11455
H_ H_ 0.0250427 0.81767 0.21058 0.11455
H_ H_ 0.0508615 0.807851 0.117529 0.11455
H_ H_ 0.359913 1.00484381 0.19132 0.11455
H_ H_ 0.373006 0.573084 0.0991226 0.11455
H_ H_ 0.385574 0.981572 0.100389 0.11455
H_ H_ 0.37153 0.582418 0.217092 0.11455
H_ H_ 0.394369 0.674072 0.210864 0.11455
H_ H_ 0.384646 0.658846 0.122092 0.11455
H_ H_ 0.41453 0.909852 0.21781 0.11455
H_ H_ 0.425726 0.937215 0.266005 0.11455
H_ H_ 0.382911 0.891992 0.30654 0.11455
H_ H_ 0.308257 0.766697 0.223037 0.11455
H_ H_ 0.28085 0.710459 0.262149 0.11455
H_ H_ 0.30771 0.735575 0.313629 0.11455
H_ H_ 0.48343 0.777638 0.372513 0.11455
H_ H_ 0.497595 0.802554 0.422575 0.11455
H_ H_ 0.235515 0.839333 0.38979 0.11455
H_ H_ 0.253099 0.853326 0.442306 0.11455
H_ H_ 0.452745 0.907703 0.499225 0.11455
H_ H_ 0.479324 0.925163 0.0526755 0.11455
H_ H_ 0.444901 0.871946 0.0901092 0.11455
H_ H_ 0.362016 0.752507 0.00573523 0.11455
H_ H_ 0.308962 0.713616 0.0423756 0.11455
H_ H_ 0.31335 0.745466 0.0925928 0.11455
C_ C_ 0.231988 0.685894 0.401296 0.68181
C_ C_ 0.287123 0.681891 0.396476 -0.05681
C_ C_ 0.318161 0.680788 0.421881 -0.08735
C_ C_ 0.370395 0.67516 0.419405 -0.05681
C_ C_ 0.391312 0.666392 0.391806 -0.05681
C_ C_ 0.360915 0.660248 0.367171 -0.08735
C_ C_ 0.3089 0.669297 0.369933 -0.08735
C_ C_ 0.402195 0.682227 0.442479 -0.08735
C_ C_ 0.45533 0.682662 0.439573 -0.08735
C_ C_ 0.475829 0.676751 0.412884 -0.05681
C_ C_ 0.444086 0.66297 0.390362 -0.08735
C_ C_ 0.117041 0.778108 0.404687 0.68181
C_ C_ 0.143843 0.579587 0.399846 0.68181
C_ C_ 0.135005 0.525109 0.397194 -0.05681
C_ C_ 0.123034 0.993103 0.418429 -0.08735
C_ C_ 0.121617 0.940411 0.415263 -0.05681
C_ C_ 0.135522 0.918389 0.388693 -0.05681
C_ C_ 0.142283 0.948362 0.364838 -0.08735
C_ C_ 0.146284 1.00094 0.368211 -0.08735
C_ C_ 0.0987913 0.908871 0.436415 -0.08735
C_ C_ 0.0999154 0.856046 0.432644 -0.08735
C_ C_ 0.111126 0.833659 0.406532 -0.05681
C_ C_ 0.132527 0.865304 0.385543 -0.08735
C_ C_ 0.0319274 0.676498 0.40227 0.68181
C_ C_ 0.0945022 0.627559 0.480984 0.1947
C_ C_ 0.0872076 0.603335 0.00870772 -0.08735
C_ C_ 0.109683 0.628699 0.0307843 -0.08735
C_ C_ 0.144088 0.669107 0.0248262 -0.05681
C_ C_ 0.155046 0.67967 0.995921 0.18498
C_ C_ 0.187875 0.728505 0.491407 -0.08735
C_ C_ 0.202329 0.755105 0.0104922 -0.08735
C_ C_ 0.190445 0.743381 0.0390077 -0.08735
C_ C_ 0.163151 0.702061 0.0463041 0.18498
C_ C_ 0.198894 0.675765 0.0922559 0.44287
C_ C_ 0.112438 0.697721 0.0899348 0.44287
C_ C_ 0.105798 0.685392 0.119353 -0.05681
C_ C_ 0.0593738 0.679279 0.132446 -0.08735
C_ C_ 0.0525571 0.678449 0.16215 -0.08735
C_ C_ 0.0965981 0.671658 0.179303 -0.05681
C_ C_ 0.145254 0.667212 0.16539 -0.05681
C_ C_ 0.149429 0.67877 0.136029 -0.05681
C_ C_ 0.196022 0.667362 0.121762 -0.05681
C_ C_ 0.24027 0.662957 0.138713 -0.08735
C_ C_ 0.236272 0.659097 0.168856 -0.08735
C_ C_ 0.187708 0.657741 0.182471 -0.05681
C_ C_ 0.182065 0.652646 0.212624 0.44287
C_ C_ 0.0952783 0.672154 0.209328 0.44287
C_ C_ 0.128089 0.645242 0.254133 0.18498
C_ C_ 0.109413 0.59774 0.258898 -0.08735
C_ C_ 0.0945518 0.582124 0.28704 -0.08735
C_ C_ 0.100907 0.615711 0.31035 -0.08735
C_ C_ 0.127524 0.662515 0.306975 0.18498
C_ C_ 0.140882 0.678928 0.278004 -0.05681
C_ C_ 0.15522 0.729894 0.274464 -0.08735
C_ C_ 0.157185 0.762751 0.298358 -0.08735
C_ C_ 0.153708 0.741553 0.327007 0.1947
C_ C_ 0.277917 0.816574 0.157141 0.68181
C_ C_ 0.221051 0.814077 0.153086 -0.05681
C_ C_ 0.189691 0.811817 0.177381 -0.08735
C_ C_ 0.135821 0.817131 0.17426 -0.05681
C_ C_ 0.115774 0.80977 0.14552 -0.05681
C_ C_ 0.147603 0.813918 0.121599 -0.08735
C_ C_ 0.200973 0.818704 0.124804 -0.08735
C_ C_ 0.10249 0.818672 0.196187 -0.08735
C_ C_ 0.0498811 0.81557 0.19105 -0.08735
C_ C_ 0.0295313 0.81247 0.163159 -0.05681
C_ C_ 0.0630522 0.808481 0.140344 -0.08735
C_ C_ 0.380935 0.730085 0.164202 0.68181
C_ C_ 0.367422 0.929095 0.148826 0.68181
C_ C_ 0.368951 0.985374 0.144933 -0.05681
C_ C_ 0.367309 0.514075 0.173911 -0.08735
C_ C_ 0.372493 0.567195 0.172849 -0.05681
C_ C_ 0.374095 0.588836 0.145451 -0.05681
C_ C_ 0.370955 0.557878 0.120766 -0.08735
C_ C_ 0.380205 0.00859062 0.117545 -0.08735
C_ C_ 0.380425 0.597456 0.196619 -0.08735
C_ C_ 0.382654 0.651465 0.192707 -0.08735
C_ C_ 0.379327 0.673465 0.166132 -0.05681
C_ C_ 0.3824 0.642414 0.142261 -0.08735
C_ C_ 0.47165 0.831592 0.158022 0.68181
C_ C_ 0.395043 0.890123 0.233971 0.1947
C_ C_ 0.39776 0.908265 0.262457 -0.08735
C_ C_ 0.376909 0.880574 0.284378 -0.08735
C_ C_ 0.351562 0.835869 0.278352 -0.05681
C_ C_ 0.344414 0.822239 0.249308 0.18498
C_ C_ 0.320334 0.776006 0.243983 -0.08735
C_ C_ 0.307186 0.743611 0.267099 -0.08735
C_ C_ 0.318332 0.756093 0.295265 -0.08735
C_ C_ 0.342199 0.801196 0.30144 0.18498
C_ C_ 0.31222 0.823896 0.34918 0.44287
C_ C_ 0.39857 0.803416 0.342746 0.44287
C_ C_ 0.406293 0.806098 0.372321 -0.05681
C_ C_ 0.450746 0.791163 0.384411 -0.08735
C_ C_ 0.459477 0.800395 0.414137 -0.08735
C_ C_ 0.418641 0.810435 0.432779 -0.05681
C_ C_ 0.370734 0.816781 0.420525 -0.05681
C_ C_ 0.365007 0.818948 0.390977 -0.05681
C_ C_ 0.317756 0.829337 0.379142 -0.05681
C_ C_ 0.275468 0.842586 0.397591 -0.08735
C_ C_ 0.283873 0.846326 0.427604 -0.08735
C_ C_ 0.331607 0.833495 0.439509 -0.05681
C_ C_ 0.341505 0.840766 0.468874 0.44287
C_ C_ 0.428472 0.821254 0.461982 0.44287
C_ C_ 0.408231 0.845992 0.00975165 0.18498
C_ C_ 0.438339 0.887532 0.0181514 -0.08735
C_ C_ 0.449399 0.898127 0.0468192 -0.08735
C_ C_ 0.431328 0.866035 0.0682448 -0.08735
C_ C_ 0.395683 0.826619 0.0615397 0.18498
C_ C_ 0.386819 0.815546 0.0326579 -0.05681
C_ C_ 0.360216 0.770866 0.0256062 -0.08735
C_ C_ 0.332315 0.747573 0.0464805 -0.08735
C_ C_ 0.335857 0.76444 0.0752959 0.1947
N_ N_ 0.129096 0.663708 0.474704 -0.29468
N_ N_ 0.15732 0.691472 0.0766955 -0.17154
N_ N_ 0.135541 0.660461 0.224715 -0.17154
N_ N_ 0.138447 0.691945 0.33035 -0.29468
N_ N_ 0.366579 0.849601 0.227498 -0.29468
N_ N_ 0.352023 0.812213 0.331694 -0.17154
N_ N_ 0.38822 0.832316 0.480087 -0.17154
N_ N_ 0.372247 0.800298 0.0819649 -0.29468
O_ O_ 0.212774 0.671848 0.424919 -0.58347
O_ O_ 0.203285 0.697074 0.379704 -0.58347
O_ O_ 0.137918 0.751959 0.42395 -0.58347
O_ O_ 0.10099 0.755448 0.382374 -0.58347
O_ O_ 0.135356 0.600534 0.424292 -0.58347
O_ O_ 0.144904 0.606191 0.376644 -0.58347
O_ O_ 0.0621464 0.676374 0.424003 -0.58347
O_ O_ 0.0483516 0.665923 0.377769 -0.58347
O_ O_ 0.0720497 0.710445 0.0741832 -0.46727
O_ O_ 0.24085 0.667351 0.0779674 -0.46727
O_ O_ 0.0514953 0.68248 0.220914 -0.46727
O_ O_ 0.221124 0.643029 0.228833 -0.46727
O_ O_ 0.298045 0.825431 0.181669 -0.58347
O_ O_ 0.30509 0.813794 0.133447 -0.58347
O_ O_ 0.37289 0.758508 0.184853 -0.58347
O_ O_ 0.389547 0.751037 0.139316 -0.58347
O_ O_ 0.360868 0.911366 0.17414 -0.58347
O_ O_ 0.370044 0.901558 0.12691 -0.58347
O_ O_ 0.443386 0.837531 0.179437 -0.58347
O_ O_ 0.453806 0.830657 0.133292 -0.58347
O_ O_ 0.435556 0.788685 0.32485 -0.46727
O_ O_ 0.267576 0.829332 0.337291 -0.46727
O_ O_ 0.475525 0.821334 0.471821 -0.46727
O_ O_ 0.308879 0.868578 0.484048 -0.46727
Zn Zn 0.122384 0.680087 0.878679 0.90689
Zn Zn 0.135826 0.674421 0.927198 0.90689
Zn Zn 0.372716 0.820941 0.63383 0.90689
Zn Zn 0.363108 0.826501 0.68292 0.90689
H_ H_ 0.297125 0.711872 0.939766 0.11455
H_ H_ 0.371363 0.67155 0.847183 0.11455
H_ H_ 0.280087 0.665759 0.851641 0.11455
H_ H_ 0.382531 0.726663 0.96055 0.11455
H_ H_ 0.476084 0.719469 0.954751 0.11455
H_ H_ 0.456738 0.664553 0.868287 0.11455
H_ H_ 0.143957 0.510176 0.938265 0.11455
H_ H_ 0.10804 0.92716 0.84985 0.11455
H_ H_ 0.134506 0.524932 0.845973 0.11455
H_ H_ 0.150899 0.920827 0.962058 0.11455
H_ H_ 0.142677 0.826798 0.958224 0.11455
H_ H_ 0.098286 0.842113 0.869754 0.11455
H_ H_ 0.0869073 0.590818 0.963089 0.11455
H_ H_ 0.0569787 0.579878 0.512177 0.11455
H_ H_ 0.0935712 0.627381 0.552013 0.11455
H_ H_ 0.197357 0.729989 0.967928 0.11455
H_ H_ 0.228557 0.792068 0.51166 0.11455
H_ H_ 0.201902 0.776918 0.559317 0.11455
H_ H_ 1.0101743 0.713048 0.618719 0.11455
H_ H_ 1.00216492 0.714251 0.673192 0.11455
H_ H_ 0.257671 0.661426 0.63015 0.11455
H_ H_ 0.25241 0.66121 0.684572 0.11455
H_ H_ 0.0782047 0.585243 0.742371 0.11455
H_ H_ 0.0449427 0.563063 0.790713 0.11455
H_ H_ 0.0618826 0.617692 0.832384 0.11455
H_ H_ 0.150893 0.75152 0.755553 0.11455
H_ H_ 0.183296 0.798789 0.796886 0.11455
H_ H_ 0.180051 0.756708 0.843178 0.11455
H_ H_ 0.195924 0.821927 0.698483 0.11455
H_ H_ 0.12485 0.813417 0.598025 0.11455
H_ H_ 0.217202 0.805909 0.608097 0.11455
H_ H_ 0.108062 0.825534 0.718481 0.11455
H_ H_ 0.0129099 0.8171 0.70977 0.11455
H_ H_ 0.0396451 0.827936 0.618448 0.11455
H_ H_ 0.360454 0.991862 0.696445 0.11455
H_ H_ 0.414148 0.570992 0.602392 0.11455
H_ H_ 0.372718 0.978708 0.606024 0.11455
H_ H_ 0.343181 0.572884 0.715132 0.11455
H_ H_ 0.361462 0.666488 0.711662 0.11455
H_ H_ 0.403748 0.653667 0.624071 0.11455
H_ H_ 0.414668 0.903603 0.71434 0.11455
H_ H_ 0.427425 0.937222 0.763769 0.11455
H_ H_ 0.395465 0.887366 0.805466 0.11455
H_ H_ 0.306542 0.764132 0.724669 0.11455
H_ H_ 0.264334 0.719209 0.761231 0.11455
H_ H_ 0.283454 0.738085 0.813469 0.11455
H_ H_ 0.489661 0.798391 0.869688 0.11455
H_ H_ 0.510068 0.817458 0.917352 0.11455
H_ H_ 0.245324 0.852267 0.890918 0.11455
H_ H_ 0.257448 0.856978 0.941636 0.11455
H_ H_ 0.452363 0.917848 1.00225147 0.11455
H_ H_ 0.464217 0.934824 0.549674 0.11455
H_ H_ 0.436141 0.881525 0.588064 0.11455
H_ H_ 0.331123 0.770326 0.507046 0.11455
H_ H_ 0.295316 0.721492 0.545975 0.11455
H_ H_ 0.317577 0.74911 0.597227 0.11455
C_ C_ 0.225856 0.687371 0.899734 0.68181
C_ C_ 0.281506 0.68722 0.895835 -0.05681
C_ C_ 0.313743 0.701021 0.919018 -0.08735
C_ C_ 0.366825 0.695115 0.917106 -0.05681
C_ C_ 0.388275 0.682388 0.890552 -0.05681
C_ C_ 0.35575 0.671007 0.867703 -0.08735
C_ C_ 0.304425 0.669095 0.870233 -0.08735
C_ C_ 0.397903 0.7088 0.940493 -0.08735
C_ C_ 0.450531 0.710196 0.936104 -0.08735
C_ C_ 0.471727 0.688292 0.911192 -0.05681
C_ C_ 0.439845 0.678566 0.888093 -0.08735
C_ C_ 0.113493 0.774257 0.910488 0.68181
C_ C_ 0.13302 0.579643 0.894756 0.68181
C_ C_ 0.138778 0.523403 0.891885 -0.05681
C_ C_ 0.151304 0.987653 0.919414 -0.08735
C_ C_ 0.142992 0.934786 0.917546 -0.05681
C_ C_ 0.128192 0.91225 0.891685 -0.05681
C_ C_ 0.122195 0.944906 0.867878 -0.08735
C_ C_ 0.130817 -0.0028559999999999697 0.869841 -0.08735
C_ C_ 0.143072 0.90419 0.941709 -0.08735
C_ C_ 0.135077 0.851267 0.939626 -0.08735
C_ C_ 0.119072 0.829733 0.913902 -0.05681
C_ C_ 0.116282 0.859309 0.889426 -0.08735
C_ C_ 0.0302739 0.667718 0.90399 0.68181
C_ C_ 0.0998292 0.615837 0.980196 0.1947
C_ C_ 0.0838771 0.613212 0.508478 -0.08735
C_ C_ 0.106124 0.640804 0.531576 -0.08735
C_ C_ 0.139149 0.681438 0.526688 -0.05681
C_ C_ 0.151684 0.690948 0.497066 0.18498
C_ C_ 0.184179 0.722275 0.989686 -0.08735
C_ C_ 0.202553 0.761031 0.514399 -0.08735
C_ C_ 0.181406 0.759372 0.541055 -0.08735
C_ C_ 0.154267 0.714445 0.54871 0.18498
C_ C_ 0.183863 0.684442 0.594809 0.44287
C_ C_ 0.0991336 0.7108 0.589952 0.44287
C_ C_ 0.0903166 0.703175 0.619794 -0.05681
C_ C_ 0.0428987 0.709175 0.633019 -0.08735
C_ C_ 0.0369648 0.704195 0.662215 -0.08735
C_ C_ 0.078733 0.690313 0.67821 -0.05681
C_ C_ 0.128275 0.690072 0.66705 -0.05681
C_ C_ 0.134536 0.69481 0.637164 -0.05681
C_ C_ 0.180559 0.683834 0.624681 -0.05681
C_ C_ 0.222453 0.671824 0.642404 -0.08735
C_ C_ 0.218184 0.670412 0.672567 -0.08735
C_ C_ 0.170737 0.681112 0.685243 -0.05681
C_ C_ 0.162274 0.677955 0.71547 0.44287
C_ C_ 0.0733145 0.686709 0.708408 0.44287
C_ C_ 0.106128 0.659302 0.755167 0.18498
C_ C_ 0.0856633 0.610783 0.760328 -0.08735
C_ C_ 0.0682687 0.596696 0.787535 -0.08735
C_ C_ 0.0788983 0.627414 0.811228 -0.08735
C_ C_ 0.109593 0.672187 0.808195 0.18498
C_ C_ 0.118806 0.690033 0.780308 -0.05681
C_ C_ 0.146555 0.734344 0.776897 -0.08735
C_ C_ 0.163105 0.761951 0.799829 -0.08735
C_ C_ 0.159024 0.739134 0.82651 0.1947
C_ C_ 0.270597 0.818961 0.656714 0.68181
C_ C_ 0.212897 0.818003 0.653873 -0.05681
C_ C_ 0.1779 0.815451 0.676931 -0.08735
C_ C_ 0.126275 0.822004 0.671971 -0.05681
C_ C_ 0.108517 0.828055 0.643438 -0.05681
C_ C_ 0.141632 0.819556 0.620515 -0.08735
C_ C_ 0.193807 0.814754 0.625576 -0.08735
C_ C_ 0.0929159 0.823957 0.695983 -0.08735
C_ C_ 0.0395967 0.824918 0.691345 -0.08735
C_ C_ 0.0199009 0.826237 0.66258 -0.05681
C_ C_ 0.0547916 0.831115 0.639933 -0.08735
C_ C_ 0.377293 0.724857 0.665764 0.68181
C_ C_ 0.364745 0.924586 0.653251 0.68181
C_ C_ 0.365102 0.980578 0.651051 -0.05681
C_ C_ 0.355098 0.509509 0.669574 -0.08735
C_ C_ 0.358627 0.56161 0.669437 -0.05681
C_ C_ 0.383957 0.584432 0.645241 -0.05681
C_ C_ 0.397447 0.552873 0.621152 -0.08735
C_ C_ 0.368232 1.0036907 0.624614 -0.08735
C_ C_ 0.350964 0.590671 0.69416 -0.08735
C_ C_ 0.363449 0.645167 0.692723 -0.08735
C_ C_ 0.375723 0.667971 0.666686 -0.05681
C_ C_ 0.388513 0.637724 0.643847 -0.08735
C_ C_ 0.46629 0.827074 0.66135 0.68181
C_ C_ 0.394416 0.886397 0.732979 0.1947
C_ C_ 0.405373 0.901317 0.760298 -0.08735
C_ C_ 0.383619 0.874906 0.78287 -0.08735
C_ C_ 0.357924 0.827962 0.778248 -0.05681
C_ C_ 0.351276 0.812833 0.75048 0.18498
C_ C_ 0.316563 0.773768 0.744774 -0.08735
C_ C_ 0.290385 0.748746 0.76637 -0.08735
C_ C_ 0.303377 0.757569 0.795122 -0.08735
C_ C_ 0.339011 0.797975 0.800429 0.18498
C_ C_ 0.31103 0.82186 0.849835 0.44287
C_ C_ 0.397186 0.802366 0.841824 0.44287
C_ C_ 0.408966 0.813065 0.871226 -0.05681
C_ C_ 0.458749 0.810324 0.882702 -0.08735
C_ C_ 0.468901 0.818149 0.910736 -0.08735
C_ C_ 0.428213 0.82778 0.930275 -0.05681
C_ C_ 0.379224 0.830474 0.919848 -0.05681
C_ C_ 0.369893 0.828845 0.890364 -0.05681
C_ C_ 0.321288 0.833884 0.878963 -0.05681
C_ C_ 0.282158 0.843294 0.898417 -0.08735
C_ C_ 0.291202 0.847321 0.927302 -0.08735
C_ C_ 0.339864 0.839573 0.938955 -0.05681
C_ C_ 0.350209 0.842636 0.969047 0.44287
C_ C_ 0.437543 0.831789 0.960178 0.44287
C_ C_ 0.400425 0.844066 0.509366 0.18498
C_ C_ 0.431983 0.886081 0.515254 -0.08735
C_ C_ 0.441082 0.900105 0.544236 -0.08735
C_ C_ 0.426445 0.870677 0.567741 -0.08735
C_ C_ 0.397393 0.826053 0.562919 0.18498
C_ C_ 0.384327 0.813082 0.533065 -0.05681
C_ C_ 0.347398 0.774851 0.527928 -0.08735
C_ C_ 0.322816 0.753429 0.551785 -0.08735
C_ C_ 0.33766 0.766384 0.580409 0.1947
N_ N_ 0.131206 0.655711 0.973688 -0.29468
N_ N_ 0.14483 0.702077 0.57852 -0.17154
N_ N_ 0.114896 0.675652 0.726047 -0.17154
N_ N_ 0.126649 0.698794 0.831233 -0.29468
N_ N_ 0.371951 0.840293 0.729099 -0.29468
N_ N_ 0.350139 0.810436 0.830962 -0.17154
N_ N_ 0.398202 0.838783 0.978852 -0.17154
N_ N_ 0.370985 0.804342 0.585979 -0.29468
O_ O_ 0.209449 0.686624 0.924489 -0.58347
O_ O_ 0.196348 0.687391 0.878289 -0.58347
O_ O_ 0.122804 0.747385 0.932586 -0.58347
O_ O_ 0.117351 0.754492 0.886553 -0.58347
O_ O_ 0.14043 0.597332 0.919003 -0.58347
O_ O_ 0.125154 0.607256 0.872537 -0.58347
O_ O_ 0.0616988 0.665313 0.924341 -0.58347
O_ O_ 0.0460667 0.678683 0.878582 -0.58347
O_ O_ 0.0610785 0.725188 0.573696 -0.46727
O_ O_ 0.226545 0.672852 0.581418 -0.46727
O_ O_ 0.0283864 0.682669 0.719989 -0.46727
O_ O_ 0.20002 0.666071 0.731936 -0.46727
O_ O_ 0.288826 0.815548 0.681853 -0.58347
O_ O_ 0.299122 0.827834 0.634921 -0.58347
O_ O_ 0.378933 0.753763 0.687547 -0.58347
O_ O_ 0.371665 0.744767 0.640547 -0.58347
O_ O_ 0.353082 0.901288 0.676596 -0.58347
O_ O_ 0.378603 0.896775 0.632447 -0.58347
O_ O_ 0.438164 0.841361 0.682395 -0.58347
O_ O_ 0.447923 0.811854 0.638346 -0.58347
O_ O_ 0.43438 0.792309 0.824026 -0.46727
O_ O_ 0.264088 0.827988 0.840023 -0.46727
O_ O_ 0.482704 0.82151 0.969516 -0.46727
O_ O_ 0.314834 0.856543 0.987352 -0.46727
Zn Zn 0.617825 0.187189 0.382002 0.90689
Zn Zn 0.631611 0.178062 0.428439 0.90689
Zn Zn 0.870808 0.308411 0.12999 0.90689
Zn Zn 0.859776 0.317354 0.177655 0.90689
H_ H_ 0.799152 0.184514 0.448492 0.11455
H_ H_ 0.867491 0.154655 0.348648 0.11455
H_ H_ 0.775211 0.17482 0.35852 0.11455
H_ H_ 0.886197 0.169115 0.463949 0.11455
H_ H_ 0.978309 0.171756 0.455866 0.11455
H_ H_ 0.95038 0.155479 0.365502 0.11455
H_ H_ 0.638782 0.0112269 0.444233 0.11455
H_ H_ 0.663618 0.434375 0.350333 0.11455
H_ H_ 0.634028 0.0276137 0.350454 0.11455
H_ H_ 0.628109 0.434446 0.466742 0.11455
H_ H_ 0.615543 0.336139 0.460618 0.11455
H_ H_ 0.638089 0.352431 0.371871 0.11455
H_ H_ 0.577235 0.109168 0.464355 0.11455
H_ H_ 0.562691 0.0843286 0.0136885 0.11455
H_ H_ 0.587757 0.137098 0.0536506 0.11455
H_ H_ 0.675717 0.261265 0.474155 0.11455
H_ H_ 0.734952 0.291734 0.0143927 0.11455
H_ H_ 0.686521 0.2937 0.0606504 0.11455
H_ H_ 0.508347 0.225964 0.122925 0.11455
H_ H_ 0.496558 0.20337 0.174912 0.11455
H_ H_ 0.757374 0.173264 0.137167 0.11455
H_ H_ 0.744592 0.161613 0.190831 0.11455
H_ H_ 0.56895 0.0818412 0.249953 0.11455
H_ H_ 0.544914 0.0643331 0.302621 0.11455
H_ H_ 0.566648 0.124456 0.339813 0.11455
H_ H_ 0.657658 0.243465 0.254235 0.11455
H_ H_ 0.697655 0.286947 0.297443 0.11455
H_ H_ 0.669909 0.268011 0.34603 0.11455
H_ H_ 0.689843 0.31151 0.192568 0.11455
H_ H_ 0.628456 0.352397 0.0957079 0.11455
H_ H_ 0.718784 0.33362 0.104392 0.11455
H_ H_ 0.60819 0.312273 0.21403 0.11455
H_ H_ 0.519708 0.324864 0.20885 0.11455
H_ H_ 0.536221 0.337967 0.115198 0.11455
H_ H_ 0.830814 0.48196 0.190944 0.11455
H_ H_ 0.876112 0.0539936 0.0998087 0.11455
H_ H_ 0.871531 0.473074 0.101048 0.11455
H_ H_ 0.850687 0.0688783 0.216756 0.11455
H_ H_ 0.862861 0.160731 0.209838 0.11455
H_ H_ 0.866218 0.138562 0.1175 0.11455
H_ H_ 0.903505 0.395966 0.215352 0.11455
H_ H_ 0.921125 0.419859 0.265552 0.11455
H_ H_ 0.904121 0.360978 0.306096 0.11455
H_ H_ 0.810618 0.247946 0.222115 0.11455
H_ H_ 0.781434 0.188658 0.260745 0.11455
H_ H_ 0.794355 0.212674 0.313313 0.11455
H_ H_ 0.97781 0.274301 0.374233 0.11455
H_ H_ -0.008298999999999945 0.290405 0.424301 0.11455
H_ H_ 0.732579 0.341874 0.384719 0.11455
H_ H_ 0.750625 0.365545 0.434583 0.11455
H_ H_ 0.933187 0.402966 0.495505 0.11455
H_ H_ 0.983383 0.413684 0.0503934 0.11455
H_ H_ 0.937778 0.374888 0.0887042 0.11455
H_ H_ 0.852861 0.247633 0.00719195 0.11455
H_ H_ 0.803847 0.211766 0.0470979 0.11455
H_ H_ 0.812766 0.248861 0.0961428 0.11455
C_ C_ 0.724564 0.183768 0.406581 0.68181
C_ C_ 0.780278 0.181324 0.402762 -0.05681
C_ C_ 0.814316 0.178382 0.426546 -0.08735
C_ C_ 0.867769 0.171618 0.420054 -0.05681
C_ C_ 0.886566 0.171526 0.391724 -0.05681
C_ C_ 0.851882 0.16705 0.369667 -0.08735
C_ C_ 0.800867 0.177096 0.375231 -0.08735
C_ C_ 0.901749 0.166744 0.442131 -0.08735
C_ C_ 0.953644 0.168571 0.437302 -0.08735
C_ C_ 0.972646 0.166106 0.409457 -0.05681
C_ C_ 0.936778 0.162028 0.386004 -0.08735
C_ C_ 0.620521 0.279905 0.412812 0.68181
C_ C_ 0.635646 0.082502 0.399534 0.68181
C_ C_ 0.637345 0.0260975 0.397131 -0.05681
C_ C_ 0.641029 0.497574 0.424533 -0.08735
C_ C_ 0.64175 0.444076 0.421744 -0.05681
C_ C_ 0.641516 0.421194 0.394432 -0.05681
C_ C_ 0.65348 0.451453 0.37089 -0.08735
C_ C_ 0.645786 0.503494 0.37229 -0.08735
C_ C_ 0.632396 0.415193 0.445824 -0.08735
C_ C_ 0.627315 0.360832 0.443015 -0.08735
C_ C_ 0.630161 0.337079 0.416153 -0.05681
C_ C_ 0.634269 0.369047 0.39203 -0.08735
C_ C_ 0.528387 0.175042 0.405205 0.68181
C_ C_ 0.598703 0.129062 0.481833 0.1947
C_ C_ 0.583246 0.119417 0.0101355 -0.08735
C_ C_ 0.599463 0.148681 0.0330615 -0.08735
C_ C_ 0.632055 0.189602 0.0292462 -0.05681
C_ C_ 0.648295 0.201581 0.999710116 0.18498
C_ C_ 0.670246 0.245435 0.495255 -0.08735
C_ C_ 0.700099 0.270012 0.0167428 -0.08735
C_ C_ 0.682315 0.262787 0.0452311 -0.08735
C_ C_ 0.652239 0.219136 0.0516934 0.18498
C_ C_ 0.682322 0.191924 0.0982817 0.44287
C_ C_ 0.596023 0.215429 0.0944321 0.44287
C_ C_ 0.588035 0.206889 0.123914 -0.05681
C_ C_ 0.539476 0.209842 0.136023 -0.08735
C_ C_ 0.531968 0.197288 0.165276 -0.08735
C_ C_ 0.572108 0.179277 0.182059 -0.05681
C_ C_ 0.62134 0.174757 0.169414 -0.05681
C_ C_ 0.629699 0.186338 0.140468 -0.05681
C_ C_ 0.676188 0.184796 0.128232 -0.05681
C_ C_ 0.717173 0.17395 0.146346 -0.08735
C_ C_ 0.711542 0.161051 0.175851 -0.08735
C_ C_ 0.662377 0.165556 0.187182 -0.05681
C_ C_ 0.656089 0.159665 0.217228 0.44287
C_ C_ 0.566673 0.170646 0.211951 0.44287
C_ C_ 0.606928 0.150307 0.259768 0.18498
C_ C_ 0.582962 0.106373 0.267411 -0.08735
C_ C_ 0.566036 0.0978158 0.296183 -0.08735
C_ C_ 0.577537 0.133087 0.316566 -0.08735
C_ C_ 0.610949 0.172617 0.311483 0.18498
C_ C_ 0.622362 0.185625 0.282722 -0.05681
C_ C_ 0.650159 0.232337 0.27716 -0.08735
C_ C_ 0.669289 0.257749 0.301354 -0.08735
C_ C_ 0.655033 0.242944 0.329474 0.1947
C_ C_ 0.766676 0.309456 0.1524 0.68181
C_ C_ 0.713186 0.31401 0.14815 -0.05681
C_ C_ 0.676961 0.313361 0.170986 -0.08735
C_ C_ 0.625252 0.32185 0.167658 -0.05681
C_ C_ 0.604549 0.334675 0.140228 -0.05681
C_ C_ 0.639201 0.339537 0.116952 -0.08735
C_ C_ 0.693397 0.33034 0.121678 -0.08735
C_ C_ 0.593439 0.322867 0.192683 -0.08735
C_ C_ 0.543133 0.332951 0.189315 -0.08735
C_ C_ 0.521528 0.337666 0.161952 -0.05681
C_ C_ 0.553737 0.339366 0.137188 -0.08735
C_ C_ 0.87196 0.212902 0.158909 0.68181
C_ C_ 0.859688 0.41185 0.149564 0.68181
C_ C_ 0.860371 0.469154 0.148346 -0.05681
C_ C_ 0.859123 -0.002610000000000001 0.17724 -0.08735
C_ C_ 0.862307 0.0497379 0.172342 -0.05681
C_ C_ 0.865887 0.0692689 0.143303 -0.05681
C_ C_ 0.868618 0.036222 0.120069 -0.08735
C_ C_ 0.86633 0.493085 0.121047 -0.08735
C_ C_ 0.860899 0.0838752 0.195004 -0.08735
C_ C_ 0.863221 0.137057 0.19084 -0.08735
C_ C_ 0.86609 0.156837 0.162993 -0.05681
C_ C_ 0.868196 0.122912 0.138815 -0.08735
C_ C_ 0.965392 0.323257 0.15585 0.68181
C_ C_ 0.892022 0.371661 0.233082 0.1947
C_ C_ 0.906584 0.381972 0.26082 -0.08735
C_ C_ 0.888914 0.354005 0.284064 -0.08735
C_ C_ 0.856008 0.311971 0.278819 -0.05681
C_ C_ 0.845065 0.300235 0.249814 0.18498
C_ C_ 0.816867 0.257276 0.243824 -0.08735
C_ C_ 0.800816 0.224325 0.266266 -0.08735
C_ C_ 0.806363 0.236946 0.294838 -0.08735
C_ C_ 0.835995 0.280298 0.301481 0.18498
C_ C_ 0.803977 0.309621 0.347803 0.44287
C_ C_ 0.888277 0.283961 0.343985 0.44287
C_ C_ 0.896598 0.292747 0.373707 -0.05681
C_ C_ 0.946029 0.284542 0.386494 -0.08735
C_ C_ 0.952081 0.291269 0.415037 -0.08735
C_ C_ 0.911987 0.306657 0.433242 -0.05681
C_ C_ 0.86316 0.311301 0.421603 -0.05681
C_ C_ 0.858146 0.307123 0.391645 -0.05681
C_ C_ 0.810733 0.317734 0.377835 -0.05681
C_ C_ 0.768851 0.330362 0.394704 -0.08735
C_ C_ 0.780494 0.345837 0.423264 -0.08735
C_ C_ 0.824393 0.329477 0.438397 -0.05681
C_ C_ 0.833941 0.337313 0.468244 0.44287
C_ C_ 0.916274 0.306963 0.462567 0.44287
C_ C_ 0.905304 0.337392 0.00974502 0.18498
C_ C_ 0.941424 0.376068 0.0159762 -0.08735
C_ C_ 0.952681 0.388905 0.0446783 -0.08735
C_ C_ 0.923736 0.367309 0.066479 -0.08735
C_ C_ 0.89106 0.326414 0.0604212 0.18498
C_ C_ 0.88223 0.309669 0.0321341 -0.05681
C_ C_ 0.854215 0.264476 0.0277563 -0.08735
C_ C_ 0.826824 0.244177 0.0502509 -0.08735
C_ C_ 0.832835 0.265412 0.0768287 0.1947
N_ N_ 0.621425 0.175034 0.476573 -0.29468
N_ N_ 0.643031 0.207822 0.0820123 -0.17154
N_ N_ 0.609137 0.164354 0.229158 -0.17154
N_ N_ 0.628891 0.200185 0.334396 -0.29468
N_ N_ 0.863436 0.328624 0.227838 -0.29468
N_ N_ 0.843418 0.294076 0.330805 -0.17154
N_ N_ 0.879025 0.32547 0.479309 -0.17154
N_ N_ 0.869487 0.299635 0.0824593 -0.29468
O_ O_ 0.70583 0.18416 0.432113 -0.58347
O_ O_ 0.697255 0.18871 0.385362 -0.58347
O_ O_ 0.626773 0.250456 0.433645 -0.58347
O_ O_ 0.614567 0.261367 0.388512 -0.58347
O_ O_ 0.639438 0.104517 0.424027 -0.58347
O_ O_ 0.629597 0.110879 0.378222 -0.58347
O_ O_ 0.555144 0.181008 0.426676 -0.58347
O_ O_ 0.5477 0.181111 0.380144 -0.58347
O_ O_ 0.560296 0.239479 0.0797916 -0.46727
O_ O_ 0.729282 0.187109 0.0883902 -0.46727
O_ O_ 0.523154 0.172353 0.224148 -0.46727
O_ O_ 0.696603 0.162692 0.234015 -0.46727
O_ O_ 0.784674 0.304814 0.177727 -0.58347
O_ O_ 0.793592 0.310143 0.130238 -0.58347
O_ O_ 0.867407 0.241757 0.181226 -0.58347
O_ O_ 0.872424 0.23248 0.134428 -0.58347
O_ O_ 0.851384 0.389842 0.173304 -0.58347
O_ O_ 0.872848 0.385512 0.12731 -0.58347
O_ O_ 0.9356 0.32782 0.177067 -0.58347
O_ O_ 0.946816 0.310453 0.131897 -0.58347
O_ O_ 0.925041 0.265731 0.32879 -0.46727
O_ O_ 0.762393 0.322056 0.336149 -0.46727
O_ O_ 0.959375 0.292266 0.475478 -0.46727
O_ O_ 0.798567 0.355516 0.484624 -0.46727
Zn Zn 0.630153 0.185639 0.884107 0.90689
Zn Zn 0.645806 0.181799 0.930268 0.90689
Zn Zn 0.8656 0.309418 0.630664 0.90689
Zn Zn 0.860435 0.318432 0.67821 0.90689
H_ H_ 0.819873 0.2086 0.944143 0.11455
H_ H_ 0.879922 0.17359 0.844845 0.11455
H_ H_ 0.785619 0.173091 0.854296 0.11455
H_ H_ 0.904759 0.178919 0.963298 0.11455
H_ H_ 0.997517 0.185652 0.953837 0.11455
H_ H_ 0.965868 0.170149 0.863585 0.11455
H_ H_ 0.648613 0.0104606 0.945958 0.11455
H_ H_ 0.697141 0.436891 0.860503 0.11455
H_ H_ 0.652524 0.0243609 0.85563 0.11455
H_ H_ 0.575932 0.432304 0.95827 0.11455
H_ H_ 0.570905 0.337843 0.951572 0.11455
H_ H_ 0.659525 0.347562 0.87383 0.11455
H_ H_ 0.601604 0.0995327 0.966623 0.11455
H_ H_ 0.576819 0.0737669 0.511227 0.11455
H_ H_ 0.608226 0.120933 0.554007 0.11455
H_ H_ 0.701398 0.238614 0.976012 0.11455
H_ H_ 0.709668 0.309359 0.514906 0.11455
H_ H_ 0.685731 0.280675 0.56593 0.11455
H_ H_ 0.502249 0.218025 0.625385 0.11455
H_ H_ 0.495569 0.212658 0.676254 0.11455
H_ H_ 0.750858 0.169395 0.633533 0.11455
H_ H_ 0.746038 0.174589 0.685505 0.11455
H_ H_ 0.562487 0.0958137 0.749734 0.11455
H_ H_ 0.554471 0.063255 0.798446 0.11455
H_ H_ 0.588983 0.113696 0.837787 0.11455
H_ H_ 0.642407 0.257763 0.757992 0.11455
H_ H_ 0.687278 0.296715 0.796834 0.11455
H_ H_ 0.690899 0.252354 0.846759 0.11455
H_ H_ 0.690762 0.314846 0.693444 0.11455
H_ H_ 0.62501 0.341501 0.595755 0.11455
H_ H_ 0.71849 0.34107 0.603171 0.11455
H_ H_ 0.610166 0.341019 0.713391 0.11455
H_ H_ 0.519773 0.335229 0.707269 0.11455
H_ H_ 0.536367 0.339819 0.615331 0.11455
H_ H_ 0.892844 0.480242 0.690757 0.11455
H_ H_ 0.817193 0.0596559 0.606344 0.11455
H_ H_ 0.856042 0.471139 0.602106 0.11455
H_ H_ 0.900168 0.0740023 0.714447 0.11455
H_ H_ 0.87787 0.162259 0.712185 0.11455
H_ H_ 0.847457 0.145111 0.622209 0.11455
H_ H_ 0.913311 0.38505 0.714866 0.11455
H_ H_ 0.934445 0.409253 0.76325 0.11455
H_ H_ 0.903674 0.364779 0.805371 0.11455
H_ H_ 0.794286 0.253924 0.724702 0.11455
H_ H_ 0.768073 0.200602 0.764185 0.11455
H_ H_ 0.777008 0.235695 0.81438 0.11455
H_ H_ 0.987269 0.288106 0.872797 0.11455
H_ H_ 0.00696269 0.291864 0.921785 0.11455
H_ H_ 0.738252 0.325685 0.894406 0.11455
H_ H_ 0.758807 0.339108 0.945039 0.11455
H_ H_ 0.959981 0.393634 0.997766 0.11455
H_ H_ 0.954803 0.428628 0.545185 0.11455
H_ H_ 0.927326 0.373918 0.585757 0.11455
H_ H_ 0.836617 0.251941 0.506645 0.11455
H_ H_ 0.786329 0.215506 0.547905 0.11455
H_ H_ 0.791047 0.25311 0.593608 0.11455
C_ C_ 0.739114 0.186976 0.906107 0.68181
C_ C_ 0.795283 0.185466 0.900422 -0.05681
C_ C_ 0.831589 0.19205 0.923101 -0.08735
C_ C_ 0.881906 0.181642 0.918239 -0.05681
C_ C_ 0.89816 0.173931 0.890103 -0.05681
C_ C_ 0.863886 0.173333 0.86674 -0.08735
C_ C_ 0.812966 0.173859 0.872279 -0.08735
C_ C_ 0.917162 0.179081 0.940771 -0.08735
C_ C_ 0.969806 0.179218 0.935765 -0.08735
C_ C_ 0.98446 0.170998 0.907603 -0.05681
C_ C_ 0.948934 0.167187 0.884746 -0.08735
C_ C_ 0.634358 0.280458 0.913297 0.68181
C_ C_ 0.643869 0.0840127 0.902861 0.68181
C_ C_ 0.640191 0.0259138 0.901476 -0.05681
C_ C_ 0.612547 0.497026 0.918719 -0.08735
C_ C_ 0.618186 0.443972 0.917725 -0.05681
C_ C_ 0.644936 0.419846 0.895393 -0.05681
C_ C_ 0.671379 0.451891 0.875552 -0.08735
C_ C_ 0.670011 0.505791 0.879503 -0.08735
C_ C_ 0.594953 0.414745 0.939512 -0.08735
C_ C_ 0.59501 0.362152 0.937446 -0.08735
C_ C_ 0.622864 0.338211 0.914465 -0.05681
C_ C_ 0.642262 0.367656 0.891903 -0.08735
C_ C_ 0.539901 0.170072 0.908632 0.68181
C_ C_ 0.603162 0.130696 0.982401 0.1947
C_ C_ 0.596953 0.106693 0.508776 -0.08735
C_ C_ 0.611746 0.13557 0.533135 -0.08735
C_ C_ 0.632279 0.184302 0.528966 -0.05681
C_ C_ 0.638779 0.202925 0.49972 0.18498
C_ C_ 0.684029 0.237401 0.995153 -0.08735
C_ C_ 0.687003 0.275149 0.518495 -0.08735
C_ C_ 0.673849 0.259331 0.546892 -0.08735
C_ C_ 0.646051 0.215615 0.551618 0.18498
C_ C_ 0.676506 0.186524 0.59711 0.44287
C_ C_ 0.591369 0.211685 0.593123 0.44287
C_ C_ 0.585035 0.20254 0.623135 -0.05681
C_ C_ 0.537165 0.210569 0.637978 -0.08735
C_ C_ 0.533725 0.213174 0.66776 -0.08735
C_ C_ 0.575252 0.201053 0.684678 -0.05681
C_ C_ 0.622985 0.192985 0.671503 -0.05681
C_ C_ 0.629397 0.195912 0.640698 -0.05681
C_ C_ 0.674613 0.18362 0.626631 -0.05681
C_ C_ 0.716501 0.177152 0.642603 -0.08735
C_ C_ 0.712466 0.178665 0.673714 -0.08735
C_ C_ 0.66519 0.182807 0.687691 -0.05681
C_ C_ 0.65923 0.175413 0.718645 0.44287
C_ C_ 0.571107 0.192637 0.714413 0.44287
C_ C_ 0.603127 0.164015 0.760067 0.18498
C_ C_ 0.579954 0.116418 0.766277 -0.08735
C_ C_ 0.576118 0.0986716 0.793833 -0.08735
C_ C_ 0.589946 0.130154 0.817419 -0.08735
C_ C_ 0.608605 0.179094 0.813421 0.18498
C_ C_ 0.616694 0.193354 0.783874 -0.05681
C_ C_ 0.638028 0.241156 0.780108 -0.08735
C_ C_ 0.666018 0.263477 0.803054 -0.08735
C_ C_ 0.661898 0.244682 0.831118 0.1947
C_ C_ 0.766539 0.321187 0.655067 0.68181
C_ C_ 0.710535 0.324379 0.649662 -0.05681
C_ C_ 0.677427 0.319113 0.672574 -0.08735
C_ C_ 0.626106 0.322892 0.669227 -0.05681
C_ C_ 0.607818 0.329308 0.640844 -0.05681
C_ C_ 0.638751 0.328842 0.616916 -0.08735
C_ C_ 0.691535 0.334512 0.621301 -0.08735
C_ C_ 0.594776 0.333417 0.692542 -0.08735
C_ C_ 0.542876 0.339814 0.688529 -0.08735
C_ C_ 0.522965 0.343949 0.661287 -0.05681
C_ C_ 0.554451 0.338195 0.637006 -0.08735
C_ C_ 0.863794 0.216473 0.662336 0.68181
C_ C_ 0.867596 0.412283 0.648744 0.68181
C_ C_ 0.871169 0.471146 0.647979 -0.05681
C_ C_ 0.867872 0.00139612 0.676163 -0.08735
C_ C_ 0.86997 0.0548152 0.672645 -0.05681
C_ C_ 0.857201 0.0747569 0.645444 -0.05681
C_ C_ 0.836307 0.0446754 0.624032 -0.08735
C_ C_ 0.855982 0.495884 0.62215 -0.08735
C_ C_ 0.881049 0.0857447 0.695505 -0.08735
C_ C_ 0.878124 0.137925 0.692816 -0.08735
C_ C_ 0.869252 0.159349 0.665174 -0.05681
C_ C_ 0.858798 0.127456 0.641326 -0.08735
C_ C_ 0.961915 0.318308 0.655221 0.68181
C_ C_ 0.89234 0.367327 0.732215 0.1947
C_ C_ 0.904917 0.382801 0.760337 -0.08735
C_ C_ 0.888083 0.355058 0.784358 -0.08735
C_ C_ 0.854014 0.314837 0.779935 -0.05681
C_ C_ 0.840315 0.301354 0.750177 0.18498
C_ C_ 0.808067 0.262903 0.744922 -0.08735
C_ C_ 0.791364 0.233885 0.768896 -0.08735
C_ C_ 0.800892 0.249482 0.79771 -0.08735
C_ C_ 0.834684 0.288212 0.803944 0.18498
C_ C_ 0.810332 0.316446 0.851354 0.44287
C_ C_ 0.895492 0.294332 0.845012 0.44287
C_ C_ 0.907857 0.305319 0.873834 -0.05681
C_ C_ 0.958821 0.302925 0.884741 -0.08735
C_ C_ 0.969626 0.30703 0.91375 -0.08735
C_ C_ 0.928423 0.3159 0.93289 -0.05681
C_ C_ 0.87781 0.323487 0.922559 -0.05681
C_ C_ 0.869152 0.319275 0.89278 -0.05681
C_ C_ 0.819837 0.326819 0.881683 -0.05681
C_ C_ 0.778325 0.335593 0.900737 -0.08735
C_ C_ 0.789006 0.341001 0.929961 -0.08735
C_ C_ 0.837807 0.337816 0.940968 -0.05681
C_ C_ 0.847358 0.339631 0.970361 0.44287
C_ C_ 0.933634 0.311183 0.962923 0.44287
C_ C_ 0.88905 0.338015 0.508584 0.18498
C_ C_ 0.916631 0.382211 0.513692 -0.08735
C_ C_ 0.931195 0.393768 0.541943 -0.08735
C_ C_ 0.914325 0.364167 0.565043 -0.08735
C_ C_ 0.878005 0.325282 0.560906 0.18498
C_ C_ 0.869205 0.309777 0.531882 -0.05681
C_ C_ 0.839106 0.266413 0.528264 -0.08735
C_ C_ 0.812627 0.245422 0.55132 -0.08735
C_ C_ 0.822378 0.260528 0.578038 0.1947
N_ N_ 0.630241 0.173076 0.977737 -0.29468
N_ N_ 0.636624 0.20443 0.581401 -0.17154
N_ N_ 0.612037 0.181988 0.730585 -0.17154
N_ N_ 0.630252 0.204982 0.83689 -0.29468
N_ N_ 0.859427 0.330061 0.727504 -0.29468
N_ N_ 0.847541 0.300914 0.833486 -0.17154
N_ N_ 0.893606 0.326369 0.979997 -0.17154
N_ N_ 0.857657 0.297864 0.5831 -0.29468
O_ O_ 0.7211 0.19323 0.931717 -0.58347
O_ O_ 0.707445 0.181433 0.886788 -0.58347
O_ O_ 0.632123 0.254806 0.935149 -0.58347
O_ O_ 0.636681 0.259488 0.888881 -0.58347
O_ O_ 0.660805 0.106746 0.925059 -0.58347
O_ O_ 0.625342 0.109912 0.882131 -0.58347
O_ O_ 0.570141 0.163897 0.929094 -0.58347
O_ O_ 0.554583 0.192767 0.88565 -0.58347
O_ O_ 0.552555 0.228699 0.57648 -0.46727
O_ O_ 0.717839 0.170874 0.584047 -0.46727
O_ O_ 0.527884 0.203122 0.727485 -0.46727
O_ O_ 0.698215 0.166486 0.734053 -0.46727
O_ O_ 0.783223 0.319466 0.680419 -0.58347
O_ O_ 0.795785 0.316659 0.633915 -0.58347
O_ O_ 0.862341 0.24474 0.683832 -0.58347
O_ O_ 0.862503 0.23637 0.63746 -0.58347
O_ O_ 0.863178 0.391835 0.673489 -0.58347
O_ O_ 0.870301 0.384869 0.625882 -0.58347
O_ O_ 0.93397 0.317709 0.677379 -0.58347
O_ O_ 0.942871 0.309229 0.630971 -0.58347
O_ O_ 0.9315 0.276755 0.82762 -0.46727
O_ O_ 0.764126 0.326078 0.839854 -0.46727
O_ O_ 0.977885 0.303313 0.975978 -0.46727
O_ O_ 0.812562 0.352385 0.989408 -0.46727
Zn Zn 0.623994 0.683522 0.384997 0.90689
Zn Zn 0.637551 0.680852 0.430764 0.90689
Zn Zn 0.882427 0.807333 0.137533 0.90689
Zn Zn 0.865871 0.815716 0.18359 0.90689
H_ H_ 0.797334 0.691288 0.444825 0.11455
H_ H_ 0.868713 0.653279 0.346997 0.11455
H_ H_ 0.777124 0.669517 0.355422 0.11455
H_ H_ 0.893107 0.697503 0.461484 0.11455
H_ H_ 0.983585 0.707342 0.451324 0.11455
H_ H_ 0.956903 0.656808 0.365212 0.11455
H_ H_ 0.639318 0.515115 0.445302 0.11455
H_ H_ 0.645933 0.936491 0.345512 0.11455
H_ H_ 0.643512 0.525468 0.352316 0.11455
H_ H_ 0.627183 0.928865 0.462582 0.11455
H_ H_ 0.627753 0.833097 0.457846 0.11455
H_ H_ 0.635474 0.851985 0.366449 0.11455
H_ H_ 0.589335 0.608152 0.467758 0.11455
H_ H_ 0.553985 0.583947 0.020691 0.11455
H_ H_ 0.598751 0.622207 0.0605791 0.11455
H_ H_ 0.683293 0.755875 0.475353 0.11455
H_ H_ 0.710698 0.804403 0.0130451 0.11455
H_ H_ 0.693764 0.779951 0.0620199 0.11455
H_ H_ 0.510328 0.710937 0.126706 0.11455
H_ H_ 0.497523 0.703155 0.176575 0.11455
H_ H_ 0.758176 0.667409 0.142311 0.11455
H_ H_ 0.745633 0.663655 0.194316 0.11455
H_ H_ 0.555026 0.585319 0.254559 0.11455
H_ H_ 0.537085 0.564077 0.306499 0.11455
H_ H_ 0.573061 0.616122 0.343183 0.11455
H_ H_ 0.646032 0.742162 0.259861 0.11455
H_ H_ 0.688579 0.789515 0.29644 0.11455
H_ H_ 0.686448 0.756513 0.345644 0.11455
H_ H_ 0.698993 0.785143 0.196253 0.11455
H_ H_ 0.636151 0.841593 0.0991838 0.11455
H_ H_ 0.72987 0.843191 0.11124 0.11455
H_ H_ 0.614306 0.795501 0.212651 0.11455
H_ H_ 0.527222 0.811485 0.208056 0.11455
H_ H_ 0.5446 0.840821 0.118553 0.11455
H_ H_ 0.856127 0.980911 0.19778 0.11455
H_ H_ 0.890451 0.564947 0.100179 0.11455
H_ H_ 0.869632 0.961253 0.106137 0.11455
H_ H_ 0.845296 0.564722 0.213958 0.11455
H_ H_ 0.859495 0.651552 0.213097 0.11455
H_ H_ 0.90872 0.642227 0.126616 0.11455
H_ H_ 0.917173 0.887227 0.21751 0.11455
H_ H_ 0.917548 0.924302 0.267659 0.11455
H_ H_ 0.879815 0.879657 0.307387 0.11455
H_ H_ 0.8092 0.749932 0.223457 0.11455
H_ H_ 0.779419 0.69156 0.260177 0.11455
H_ H_ 0.792302 0.715356 0.3111 0.11455
H_ H_ 0.988258 0.786004 0.377182 0.11455
H_ H_ -0.0034650000000000514 0.800882 0.428805 0.11455
H_ H_ 0.737645 0.825009 0.387264 0.11455
H_ H_ 0.743497 0.844147 0.437107 0.11455
H_ H_ 0.931192 0.912182 0.501463 0.11455
H_ H_ 0.977521 0.908185 0.0510138 0.11455
H_ H_ 0.939894 0.869248 0.0917944 0.11455
H_ H_ 0.845188 0.739345 0.0129308 0.11455
H_ H_ 0.815003 0.693754 0.0576602 0.11455
H_ H_ 0.825475 0.727824 0.105069 0.11455
C_ C_ 0.729089 0.680052 0.404708 0.68181
C_ C_ 0.784285 0.681053 0.40033 -0.05681
C_ C_ 0.816846 0.686153 0.423791 -0.08735
C_ C_ 0.869975 0.683273 0.419102 -0.05681
C_ C_ 0.888979 0.673524 0.390803 -0.05681
C_ C_ 0.854902 0.662716 0.368508 -0.08735
C_ C_ 0.803269 0.669706 0.372802 -0.08735
C_ C_ 0.905332 0.687095 0.441192 -0.08735
C_ C_ 0.958828 0.688521 0.435951 -0.08735
C_ C_ 0.977254 0.678563 0.407781 -0.05681
C_ C_ 0.941697 0.665778 0.386375 -0.08735
C_ C_ 0.631159 0.777464 0.411635 0.68181
C_ C_ 0.63597 0.583071 0.401518 0.68181
C_ C_ 0.640788 0.525937 0.399449 -0.05681
C_ C_ 0.638013 0.994538 0.421599 -0.08735
C_ C_ 0.637166 0.942105 0.418245 -0.05681
C_ C_ 0.640939 0.919619 0.391237 -0.05681
C_ C_ 0.644022 0.95164 0.367468 -0.08735
C_ C_ 0.638349 1.00411732 0.369428 -0.08735
C_ C_ 0.632978 0.910225 0.442442 -0.08735
C_ C_ 0.628998 0.856625 0.4395 -0.08735
C_ C_ 0.632095 0.835432 0.41255 -0.05681
C_ C_ 0.639008 0.866112 0.388452 -0.08735
C_ C_ 0.53157 0.677695 0.408509 0.68181
C_ C_ 0.608077 0.626929 0.484978 0.1947
C_ C_ 0.584174 0.60937 0.0161709 -0.08735
C_ C_ 0.608311 0.634165 0.0374272 -0.08735
C_ C_ 0.638154 0.67687 0.0324108 -0.05681
C_ C_ 0.644589 0.692764 1.00307219 0.18498
C_ C_ 0.6807 0.741685 0.496562 -0.08735
C_ C_ 0.690676 0.767743 0.0185812 -0.08735
C_ C_ 0.674874 0.756777 0.047137 -0.08735
C_ C_ 0.653453 0.708695 0.0551256 0.18498
C_ C_ 0.685883 0.688586 0.1028 0.44287
C_ C_ 0.597983 0.699793 0.0976754 0.44287
C_ C_ 0.590042 0.694625 0.127476 -0.05681
C_ C_ 0.541527 0.700022 0.140383 -0.08735
C_ C_ 0.533663 0.693586 0.168963 -0.08735
C_ C_ 0.575629 0.685015 0.187257 -0.05681
C_ C_ 0.623861 0.67955 0.175171 -0.05681
C_ C_ 0.63152 0.689669 0.145722 -0.05681
C_ C_ 0.678721 0.683292 0.133156 -0.05681
C_ C_ 0.720232 0.668944 0.151351 -0.08735
C_ C_ 0.713609 0.6633 0.180407 -0.08735
C_ C_ 0.665646 0.665228 0.191954 -0.05681
C_ C_ 0.656129 0.654504 0.220895 0.44287
C_ C_ 0.570597 0.675169 0.216654 0.44287
C_ C_ 0.602035 0.648042 0.262889 0.18498
C_ C_ 0.57272 0.606239 0.270906 -0.08735
C_ C_ 0.560872 0.596708 0.300179 -0.08735
C_ C_ 0.581894 0.625609 0.321123 -0.08735
C_ C_ 0.61691 0.665054 0.31368 0.18498
C_ C_ 0.624311 0.678815 0.284764 -0.05681
C_ C_ 0.654264 0.723258 0.278599 -0.08735
C_ C_ 0.671833 0.751274 0.301271 -0.08735
C_ C_ 0.67028 0.733452 0.328102 0.1947
C_ C_ 0.775582 0.814546 0.159093 0.68181
C_ C_ 0.720189 0.809106 0.15261 -0.05681
C_ C_ 0.684412 0.79818 0.174072 -0.08735
C_ C_ 0.632875 0.810912 0.169579 -0.05681
C_ C_ 0.613687 0.828276 0.142978 -0.05681
C_ C_ 0.649438 0.83608 0.121173 -0.08735
C_ C_ 0.701587 0.829367 0.127119 -0.08735
C_ C_ 0.600763 0.805952 0.192556 -0.08735
C_ C_ 0.549072 0.810947 0.188869 -0.08735
C_ C_ 0.528443 0.82777 0.1628 -0.05681
C_ C_ 0.561454 0.838201 0.139937 -0.08735
C_ C_ 0.88049 0.713657 0.16593 0.68181
C_ C_ 0.863025 0.909083 0.154956 0.68181
C_ C_ 0.86004 0.96489 0.15253 -0.05681
C_ C_ 0.849698 0.499415 0.172101 -0.08735
C_ C_ 0.854354 0.552757 0.169559 -0.05681
C_ C_ 0.871044 0.576401 0.143488 -0.05681
C_ C_ 0.875365 0.546905 0.119596 -0.08735
C_ C_ 0.86515 0.986274 0.124808 -0.08735
C_ C_ 0.848929 0.582867 0.193245 -0.08735
C_ C_ 0.85681 0.633439 0.193286 -0.08735
C_ C_ 0.876134 0.657705 0.167632 -0.05681
C_ C_ 0.885082 0.628004 0.143004 -0.08735
C_ C_ 0.975527 0.819205 0.158695 0.68181
C_ C_ 0.892642 0.872283 0.234857 0.1947
C_ C_ 0.896547 0.89104 0.262667 -0.08735
C_ C_ 0.876176 0.864518 0.286483 -0.08735
C_ C_ 0.854579 0.814633 0.28161 -0.05681
C_ C_ 0.846118 0.800557 0.252458 0.18498
C_ C_ 0.818308 0.758331 0.245955 -0.08735
C_ C_ 0.803623 0.724067 0.266363 -0.08735
C_ C_ 0.81381 0.735136 0.295772 -0.08735
C_ C_ 0.842154 0.779936 0.303851 0.18498
C_ C_ 0.810053 0.8066 0.350346 0.44287
C_ C_ 0.898751 0.792944 0.346022 0.44287
C_ C_ 0.90616 0.801256 0.375515 -0.05681
C_ C_ 0.955435 0.801398 0.38803 -0.08735
C_ C_ 0.960431 0.808851 0.417918 -0.08735
C_ C_ 0.917668 0.820753 0.435405 -0.05681
C_ C_ 0.869259 0.822116 0.422922 -0.05681
C_ C_ 0.863639 0.808664 0.39359 -0.05681
C_ C_ 0.815997 0.816971 0.37995 -0.05681
C_ C_ 0.774101 0.830959 0.396881 -0.08735
C_ C_ 0.778138 0.835699 0.426481 -0.08735
C_ C_ 0.826856 0.830933 0.44004 -0.05681
C_ C_ 0.831254 0.83905 0.469104 0.44287
C_ C_ 0.922052 0.825402 0.465131 0.44287
C_ C_ 0.894942 0.829434 0.0148695 0.18498
C_ C_ 0.930253 0.869116 0.0207318 -0.08735
C_ C_ 0.946295 0.881412 0.0480235 -0.08735
C_ C_ 0.926537 0.855782 0.0714861 -0.08735
C_ C_ 0.892818 0.815555 0.0673161 0.18498
C_ C_ 0.878838 0.799069 0.0385795 -0.05681
C_ C_ 0.848856 0.756471 0.0340084 -0.08735
C_ C_ 0.835763 0.728377 0.0584224 -0.08735
C_ C_ 0.845487 0.747331 0.0868328 0.1947
N_ N_ 0.636321 0.667596 0.480263 -0.29468
N_ N_ 0.644738 0.698468 0.0854789 -0.17154
N_ N_ 0.60925 0.660146 0.232616 -0.17154
N_ N_ 0.638484 0.694331 0.334835 -0.29468
N_ N_ 0.867981 0.827874 0.230799 -0.29468
N_ N_ 0.850234 0.793593 0.334315 -0.17154
N_ N_ 0.8786 0.83639 0.481909 -0.17154
N_ N_ 0.873875 0.790722 0.0897912 -0.29468
O_ O_ 0.71195 0.689228 0.429965 -0.58347
O_ O_ 0.697041 0.678306 0.384388 -0.58347
O_ O_ 0.633766 0.751892 0.433803 -0.58347
O_ O_ 0.626884 0.753797 0.387536 -0.58347
O_ O_ 0.642781 0.603942 0.425764 -0.58347
O_ O_ 0.622287 0.609358 0.380822 -0.58347
O_ O_ 0.561164 0.671249 0.430302 -0.58347
O_ O_ 0.549851 0.693031 0.384805 -0.58347
O_ O_ 0.560625 0.720905 0.0829054 -0.46727
O_ O_ 0.729424 0.684213 0.0906113 -0.46727
O_ O_ 0.52632 0.67632 0.22899 -0.46727
O_ O_ 0.69199 0.636678 0.236143 -0.46727
O_ O_ 0.790648 0.812711 0.185177 -0.58347
O_ O_ 0.804411 0.803274 0.138793 -0.58347
O_ O_ 0.870344 0.740139 0.188716 -0.58347
O_ O_ 0.889217 0.735626 0.142898 -0.58347
O_ O_ 0.857313 0.889957 0.180256 -0.58347
O_ O_ 0.880989 0.882703 0.134501 -0.58347
O_ O_ 0.946024 0.822551 0.180491 -0.58347
O_ O_ 0.956032 0.806196 0.13488 -0.58347
O_ O_ 0.935441 0.775674 0.330103 -0.46727
O_ O_ 0.766326 0.817372 0.336531 -0.46727
O_ O_ 0.966762 0.818892 0.477968 -0.46727
O_ O_ 0.792239 0.853793 0.484134 -0.46727
Zn Zn 0.625228 0.687351 0.884157 0.90689
Zn Zn 0.630377 0.67782 0.93382 0.90689
Zn Zn 0.869308 0.814783 0.635526 0.90689
Zn Zn 0.861065 0.817447 0.684374 0.90689
H_ H_ 0.807076 0.689114 0.948827 0.11455
H_ H_ 0.862451 0.639049 0.851298 0.11455
H_ H_ 0.77625 0.665079 0.85803 0.11455
H_ H_ 0.89144 0.676782 0.965888 0.11455
H_ H_ 0.984844 0.677093 0.955758 0.11455
H_ H_ 0.952588 0.648053 0.865018 0.11455
H_ H_ 0.588093 0.513044 0.935739 0.11455
H_ H_ 0.633846 0.933401 0.850242 0.11455
H_ H_ 0.688572 0.529818 0.863538 0.11455
H_ H_ 0.618793 0.925844 0.968715 0.11455
H_ H_ 0.601682 0.837808 0.962709 0.11455
H_ H_ 0.625789 0.854615 0.870687 0.11455
H_ H_ 0.573321 0.604674 0.970088 0.11455
H_ H_ 0.586967 0.568395 0.513222 0.11455
H_ H_ 0.630835 0.611744 0.554741 0.11455
H_ H_ 0.678314 0.749 0.97425 0.11455
H_ H_ 0.722279 0.803962 0.515341 0.11455
H_ H_ 0.696269 0.783031 0.565772 0.11455
H_ H_ 0.518699 0.696478 0.625552 0.11455
H_ H_ 0.508533 0.674624 0.677185 0.11455
H_ H_ 0.768593 0.672469 0.638094 0.11455
H_ H_ 0.764796 0.673278 0.689404 0.11455
H_ H_ 0.570091 0.59072 0.747936 0.11455
H_ H_ 0.560293 0.558147 0.798075 0.11455
H_ H_ 0.583879 0.615451 0.838131 0.11455
H_ H_ 0.673429 0.746446 0.760743 0.11455
H_ H_ 0.692472 0.798182 0.802924 0.11455
H_ H_ 0.675671 0.767012 0.849678 0.11455
H_ H_ 0.692092 0.789552 0.697661 0.11455
H_ H_ 0.632605 0.860586 0.605053 0.11455
H_ H_ 0.721175 0.849984 0.613973 0.11455
H_ H_ 0.607942 0.794976 0.716648 0.11455
H_ H_ 0.517985 0.787494 0.706881 0.11455
H_ H_ 0.547298 0.850334 0.622472 0.11455
H_ H_ 0.892015 0.986324 0.692172 0.11455
H_ H_ 0.844455 0.567335 0.599665 0.11455
H_ H_ 0.819313 0.969834 0.611219 0.11455
H_ H_ 0.898522 0.567556 0.713366 0.11455
H_ H_ 0.882096 0.662 0.711555 0.11455
H_ H_ 0.871801 0.647206 0.619738 0.11455
H_ H_ 0.911484 0.896192 0.722117 0.11455
H_ H_ 0.917271 0.927818 0.769891 0.11455
H_ H_ 0.882067 0.881911 0.810871 0.11455
H_ H_ 0.814301 0.746122 0.726798 0.11455
H_ H_ 0.775086 0.69672 0.766879 0.11455
H_ H_ 0.804629 0.716904 0.818836 0.11455
H_ H_ 0.977725 0.769395 0.875158 0.11455
H_ H_ 0.98896 0.776534 0.926196 0.11455
H_ H_ 0.736814 0.858517 0.894735 0.11455
H_ H_ 0.747813 0.84774 0.944567 0.11455
H_ H_ 0.944921 0.889842 1.00261072 0.11455
H_ H_ 0.949218 0.934493 0.552506 0.11455
H_ H_ 0.920813 0.882495 0.592266 0.11455
H_ H_ 0.827639 0.761672 0.507687 0.11455
H_ H_ 0.800183 0.709756 0.546181 0.11455
H_ H_ 0.824114 0.730127 0.597709 0.11455
C_ C_ 0.729641 0.686267 0.909433 0.68181
C_ C_ 0.783311 0.676574 0.904524 -0.05681
C_ C_ 0.818308 0.674568 0.927527 -0.08735
C_ C_ 0.87065 0.671677 0.921675 -0.05681
C_ C_ 0.887808 0.663951 0.892957 -0.05681
C_ C_ 0.852914 0.657607 0.870829 -0.08735
C_ C_ 0.802072 0.66378 0.87636 -0.08735
C_ C_ 0.906247 0.673566 0.943504 -0.08735
C_ C_ 0.95974 0.670402 0.937611 -0.08735
C_ C_ 0.97689 0.664779 0.909664 -0.05681
C_ C_ 0.940084 0.659243 0.887445 -0.08735
C_ C_ 0.615026 0.780954 0.911703 0.68181
C_ C_ 0.632051 0.583704 0.902043 0.68181
C_ C_ 0.637293 0.528587 0.898623 -0.05681
C_ C_ 0.633085 -0.004705999999999988 0.926459 -0.08735
C_ C_ 0.629317 0.941811 0.923494 -0.05681
C_ C_ 0.630616 0.92066 0.896238 -0.05681
C_ C_ 0.632668 0.951911 0.871028 -0.08735
C_ C_ 0.646554 0.00174664 0.874946 -0.08735
C_ C_ 0.621639 0.910661 0.947313 -0.08735
C_ C_ 0.613205 0.85929 0.943496 -0.08735
C_ C_ 0.61466 0.837206 0.91649 -0.05681
C_ C_ 0.626423 0.869108 0.892958 -0.08735
C_ C_ 0.52817 0.685958 0.908658 0.68181
C_ C_ 0.5948 0.623242 0.988275 0.1947
C_ C_ 0.599308 0.607219 0.511979 -0.08735
C_ C_ 0.618383 0.633578 0.534944 -0.08735
C_ C_ 0.644369 0.682198 0.531063 -0.05681
C_ C_ 0.652779 0.696769 0.502316 0.18498
C_ C_ 0.673045 0.737315 0.996166 -0.08735
C_ C_ 0.696032 0.771904 0.519429 -0.08735
C_ C_ 0.683156 0.759351 0.547816 -0.08735
C_ C_ 0.657781 0.713759 0.554052 0.18498
C_ C_ 0.694393 0.688787 0.599664 0.44287
C_ C_ 0.604759 0.693651 0.595604 0.44287
C_ C_ 0.598566 0.687312 0.625973 -0.05681
C_ C_ 0.551975 0.68705 0.638304 -0.08735
C_ C_ 0.546352 0.680444 0.668328 -0.08735
C_ C_ 0.589017 0.680582 0.685592 -0.05681
C_ C_ 0.637734 0.681008 0.672959 -0.05681
C_ C_ 0.641814 0.687828 0.643329 -0.05681
C_ C_ 0.689902 0.686307 0.629916 -0.05681
C_ C_ 0.733264 0.681306 0.647392 -0.08735
C_ C_ 0.730275 0.679033 0.677365 -0.08735
C_ C_ 0.680513 0.676355 0.691575 -0.05681
C_ C_ 0.673152 0.667221 0.720176 0.44287
C_ C_ 0.582719 0.676822 0.715164 0.44287
C_ C_ 0.61854 0.654371 0.761439 0.18498
C_ C_ 0.590046 0.609464 0.766295 -0.08735
C_ C_ 0.578046 0.595859 0.794494 -0.08735
C_ C_ 0.596889 0.623109 0.817819 -0.08735
C_ C_ 0.620331 0.671317 0.813253 0.18498
C_ C_ 0.634238 0.687252 0.785144 -0.05681
C_ C_ 0.658805 0.733938 0.782077 -0.08735
C_ C_ 0.67138 0.762928 0.805721 -0.08735
C_ C_ 0.661315 0.744882 0.83265 0.1947
C_ C_ 0.767643 0.802252 0.659504 0.68181
C_ C_ 0.713276 0.814848 0.656317 -0.05681
C_ C_ 0.68079 0.810993 0.679005 -0.08735
C_ C_ 0.629005 0.819632 0.674641 -0.05681
C_ C_ 0.610347 0.835166 0.647809 -0.05681
C_ C_ 0.644521 0.846996 0.625735 -0.08735
C_ C_ 0.69575 0.838665 0.630972 -0.08735
C_ C_ 0.593618 0.807107 0.696 -0.08735
C_ C_ 0.542616 0.804627 0.690407 -0.08735
C_ C_ 0.522324 0.82503 0.665006 -0.05681
C_ C_ 0.558749 0.839105 0.642426 -0.08735
C_ C_ 0.875952 0.718344 0.663391 0.68181
C_ C_ 0.856167 0.912688 0.656712 0.68181
C_ C_ 0.84965 0.968633 0.654537 -0.05681
C_ C_ 0.886075 0.500493 0.671014 -0.08735
C_ C_ 0.881863 0.55431 0.670082 -0.05681
C_ C_ 0.871909 0.577515 0.644043 -0.05681
C_ C_ 0.858706 0.549598 0.619986 -0.08735
C_ C_ 0.830379 0.992467 0.629231 -0.08735
C_ C_ 0.889112 0.585398 0.694161 -0.08735
C_ C_ 0.883793 0.639227 0.692507 -0.08735
C_ C_ 0.879483 0.662856 0.664945 -0.05681
C_ C_ 0.872259 0.629907 0.64103 -0.08735
C_ C_ 0.963178 0.828861 0.65845 0.68181
C_ C_ 0.891164 0.873907 0.739188 0.1947
C_ C_ 0.894262 0.894186 0.767173 -0.08735
C_ C_ 0.87412 0.865927 0.789668 -0.08735
C_ C_ 0.851849 0.818996 0.785149 -0.05681
C_ C_ 0.84596 0.802983 0.755528 0.18498
C_ C_ 0.817176 0.759354 0.748761 -0.08735
C_ C_ 0.799686 0.729238 0.771636 -0.08735
C_ C_ 0.8081 0.743385 0.800891 -0.08735
C_ C_ 0.83011 0.790473 0.807727 0.18498
C_ C_ 0.803204 0.82183 0.853623 0.44287
C_ C_ 0.882343 0.780823 0.848959 0.44287
C_ C_ 0.895266 0.790073 0.877285 -0.05681
C_ C_ 0.944858 0.784751 0.888836 -0.08735
C_ C_ 0.952713 0.786808 0.91838 -0.08735
C_ C_ 0.911821 0.791365 0.938073 -0.05681
C_ C_ 0.863191 0.801655 0.926553 -0.05681
C_ C_ 0.856253 0.804196 0.896064 -0.05681
C_ C_ 0.810039 0.817742 0.883534 -0.05681
C_ C_ 0.77293 0.839289 0.901785 -0.08735
C_ C_ 0.779061 0.835546 0.932179 -0.08735
C_ C_ 0.824871 0.820331 0.945043 -0.05681
C_ C_ 0.834453 0.829866 0.974953 0.44287
C_ C_ 0.918041 0.797518 0.968714 0.44287
C_ C_ 0.88392 0.848622 0.511555 0.18498
C_ C_ 0.909204 0.893214 0.517993 -0.08735
C_ C_ 0.922243 0.90424 0.546574 -0.08735
C_ C_ 0.904401 0.873746 0.570017 -0.08735
C_ C_ 0.874961 0.83166 0.563837 0.18498
C_ C_ 0.870139 0.814597 0.534512 -0.05681
C_ C_ 0.845306 0.768696 0.52848 -0.08735
C_ C_ 0.824828 0.742219 0.551279 -0.08735
C_ C_ 0.837857 0.753607 0.580135 0.1947
N_ N_ 0.625029 0.664553 0.982051 -0.29468
N_ N_ 0.653238 0.700245 0.583828 -0.17154
N_ N_ 0.624966 0.66931 0.731838 -0.17154
N_ N_ 0.635044 0.700326 0.836288 -0.29468
N_ N_ 0.867564 0.830082 0.733289 -0.29468
N_ N_ 0.841778 0.802749 0.837037 -0.17154
N_ N_ 0.881318 0.81731 0.98561 -0.17154
N_ N_ 0.858289 0.800809 0.585572 -0.29468
O_ O_ 0.707409 0.671143 0.931954 -0.58347
O_ O_ 0.702495 0.697805 0.888113 -0.58347
O_ O_ 0.627162 0.753795 0.93269 -0.58347
O_ O_ 0.609964 0.761239 0.886602 -0.58347
O_ O_ 0.625663 0.602626 0.927134 -0.58347
O_ O_ 0.636811 0.611344 0.879903 -0.58347
O_ O_ 0.55477 0.679063 0.931007 -0.58347
O_ O_ 0.548301 0.677396 0.884556 -0.58347
O_ O_ 0.564078 0.70095 0.579162 -0.46727
O_ O_ 0.740044 0.682339 0.587859 -0.46727
O_ O_ 0.538935 0.68219 0.727054 -0.46727
O_ O_ 0.712349 0.655326 0.736901 -0.46727
O_ O_ 0.786401 0.80156 0.683708 -0.58347
O_ O_ 0.7966 0.807624 0.63741 -0.58347
O_ O_ 0.875956 0.744197 0.68729 -0.58347
O_ O_ 0.875022 0.739375 0.639457 -0.58347
O_ O_ 0.856198 0.890767 0.680769 -0.58347
O_ O_ 0.86145 0.887517 0.633667 -0.58347
O_ O_ 0.937148 0.827039 0.681036 -0.58347
O_ O_ 0.943467 0.823952 0.633319 -0.58347
O_ O_ 0.911957 0.753886 0.832368 -0.46727
O_ O_ 0.758588 0.836568 0.842198 -0.46727
O_ O_ 0.961079 0.782209 0.979898 -0.46727
O_ O_ 0.79726 0.843845 0.992075 -0.46727
