_cell_length_a 26.376
_cell_length_b 26.400000238300095
_cell_length_c 46.67800035477134
_cell_angle_alpha 90.00700052986613
_cell_angle_beta 89.99899961309502
_cell_angle_gamma 90.45000003183146
_symmetry_space_group_name_H-M         'P 1'
_symmetry_Int_Tables_number            1
loop_
_symmetry_equiv_pos_as_xyz
   'x, y, z'
                         
loop_
_atom_site_label
_atom_site_type_symbol
_atom_site_fract_x 
_atom_site_fract_y
_atom_site_fract_z
_atom_site_charge
Zn Zn 0.130959 0.188395 0.382324 0.90689
Zn Zn 0.141996 0.183795 0.430034 0.90689
Zn Zn 0.372339 0.30965 0.1327 0.90689
Zn Zn 0.36697 0.316274 0.179799 0.90689
H_ H_ 0.309722 0.178785 0.446764 0.11455
H_ H_ 0.368018 0.175913 0.345276 0.11455
H_ H_ 0.281889 0.189649 0.354677 0.11455
H_ H_ 0.398485 0.164629 0.462446 0.11455
H_ H_ 0.482853 0.160455 0.452445 0.11455
H_ H_ 0.459498 0.189552 0.364328 0.11455
H_ H_ 0.165092 0.0150062 0.445046 0.11455
H_ H_ 0.15539 0.437672 0.349791 0.11455
H_ H_ 0.13861 0.0324421 0.355305 0.11455
H_ H_ 0.130035 0.430613 0.467614 0.11455
H_ H_ 0.119999 0.339998 0.461926 0.11455
H_ H_ 0.143375 0.352371 0.370246 0.11455
H_ H_ 0.0933923 0.101264 0.462617 0.11455
H_ H_ 0.0478202 0.0897791 0.0182386 0.11455
H_ H_ 0.0925903 0.134097 0.0587162 0.11455
H_ H_ 0.191505 0.250794 0.479395 0.11455
H_ H_ 0.20801 0.304992 0.0131457 0.11455
H_ H_ 0.179411 0.295017 0.0624515 0.11455
H_ H_ 0.00031000000000003247 0.228183 0.124307 0.11455
H_ H_ -0.014699000000000018 0.211504 0.176647 0.11455
H_ H_ 0.248144 0.183351 0.139325 0.11455
H_ H_ 0.232445 0.149482 0.186829 0.11455
H_ H_ 0.0387812 0.102511 0.252026 0.11455
H_ H_ 0.0190937 0.0821298 0.302574 0.11455
H_ H_ 0.0682332 0.126423 0.340952 0.11455
H_ H_ 0.158327 0.238558 0.254223 0.11455
H_ H_ 0.203027 0.28448 0.294612 0.11455
H_ H_ 0.190824 0.255618 0.3425 0.11455
H_ H_ 0.189686 0.306308 0.197842 0.11455
H_ H_ 0.129862 0.34608 0.100403 0.11455
H_ H_ 0.22079 0.328969 0.109914 0.11455
H_ H_ 0.102988 0.310906 0.215444 0.11455
H_ H_ 0.013693 0.30514 0.201854 0.11455
H_ H_ 0.0423853 0.342401 0.11712 0.11455
H_ H_ 0.379899 0.479599 0.188413 0.11455
H_ H_ 0.354505 0.0592646 0.0970476 0.11455
H_ H_ 0.352858 0.468762 0.0977427 0.11455
H_ H_ 0.411867 0.0638245 0.212332 0.11455
H_ H_ 0.417389 0.155894 0.2063 0.11455
H_ H_ 0.352519 0.144879 0.120735 0.11455
H_ H_ 0.423318 0.393757 0.219365 0.11455
H_ H_ 0.418565 0.428119 0.266479 0.11455
H_ H_ 0.38254 0.375253 0.30659 0.11455
H_ H_ 0.304764 0.254438 0.220228 0.11455
H_ H_ 0.270083 0.202437 0.258305 0.11455
H_ H_ 0.308665 0.211864 0.306277 0.11455
H_ H_ 0.474465 0.298665 0.373203 0.11455
H_ H_ 0.482521 0.297035 0.425204 0.11455
H_ H_ 0.221087 0.321384 0.383523 0.11455
H_ H_ 0.227717 0.333417 0.435313 0.11455
H_ H_ 0.419611 0.387047 0.497437 0.11455
H_ H_ 0.44635 0.428208 0.0464505 0.11455
H_ H_ 0.418347 0.379583 0.0868557 0.11455
H_ H_ 0.307034 0.266429 0.0115829 0.11455
H_ H_ 0.296375 0.206089 0.0498394 0.11455
H_ H_ 0.327144 0.228519 0.0988864 0.11455
C_ C_ 0.232758 0.185188 0.406151 0.68181
C_ C_ 0.288405 0.184825 0.402329 -0.05681
C_ C_ 0.322292 0.178973 0.424502 -0.08735
C_ C_ 0.373489 0.173188 0.417973 -0.05681
C_ C_ 0.392189 0.176592 0.389102 -0.05681
C_ C_ 0.358623 0.182145 0.367228 -0.08735
C_ C_ 0.307268 0.184478 0.373067 -0.08735
C_ C_ 0.408606 0.16736 0.440536 -0.08735
C_ C_ 0.458947 0.16987 0.435935 -0.08735
C_ C_ 0.479552 0.178611 0.40858 -0.05681
C_ C_ 0.445221 0.18007 0.385832 -0.08735
C_ C_ 0.131023 0.281646 0.411482 0.68181
C_ C_ 0.146961 0.0863333 0.402576 0.68181
C_ C_ 0.147048 0.0311493 0.40099 -0.05681
C_ C_ 0.136525 0.499316 0.425088 -0.08735
C_ C_ 0.137618 0.445702 0.422839 -0.05681
C_ C_ 0.143079 0.423832 0.394823 -0.05681
C_ C_ 0.149744 0.455294 0.37058 -0.08735
C_ C_ 0.147638 0.508713 0.37313 -0.08735
C_ C_ 0.129158 0.413705 0.445842 -0.08735
C_ C_ 0.122775 0.361896 0.440881 -0.08735
C_ C_ 0.132604 0.338188 0.414764 -0.05681
C_ C_ 0.140647 0.37015 0.391231 -0.08735
C_ C_ 0.0361146 0.177906 0.405715 0.68181
C_ C_ 0.105331 0.123019 0.481106 0.1947
C_ C_ 0.0766569 0.117541 0.0154091 -0.08735
C_ C_ 0.0940244 0.148436 0.0372788 -0.08735
C_ C_ 0.125985 0.190428 0.0315832 -0.05681
C_ C_ 0.137986 0.200265 1.00251199 0.18498
C_ C_ 0.179141 0.234206 0.500118 -0.08735
C_ C_ 0.18625 0.273038 0.0186388 -0.08735
C_ C_ 0.171167 0.265632 0.0459815 -0.08735
C_ C_ 0.142614 0.224084 0.0535387 0.18498
C_ C_ 0.174256 0.198523 0.0998506 0.44287
C_ C_ 0.0862663 0.216503 0.0948893 0.44287
C_ C_ 0.0776856 0.206437 0.124732 -0.05681
C_ C_ 0.030966 0.21499 0.137318 -0.08735
C_ C_ 0.0231231 0.208727 0.167111 -0.08735
C_ C_ 0.0657942 0.196543 0.184381 -0.05681
C_ C_ 0.112746 0.189166 0.171265 -0.05681
C_ C_ 0.118637 0.196072 0.14143 -0.05681
C_ C_ 0.166906 0.190713 0.129472 -0.05681
C_ C_ 0.209155 0.179505 0.147533 -0.08735
C_ C_ 0.201642 0.166861 0.175542 -0.08735
C_ C_ 0.151577 0.170281 0.187612 -0.05681
C_ C_ 0.142426 0.159155 0.216391 0.44287
C_ C_ 0.0613733 0.193749 0.214572 0.44287
C_ C_ 0.0935047 0.161574 0.260795 0.18498
C_ C_ 0.0572939 0.123808 0.26847 -0.08735
C_ C_ 0.0467357 0.110794 0.297059 -0.08735
C_ C_ 0.0697537 0.139874 0.319524 -0.08735
C_ C_ 0.107014 0.177921 0.31202 0.18498
C_ C_ 0.118296 0.187404 0.2825 -0.05681
C_ C_ 0.151886 0.2266 0.276313 -0.08735
C_ C_ 0.178189 0.251466 0.297567 -0.08735
C_ C_ 0.168995 0.238265 0.325977 0.1947
C_ C_ 0.268768 0.308304 0.158164 0.68181
C_ C_ 0.213043 0.315573 0.15418 -0.05681
C_ C_ 0.178174 0.315624 0.176495 -0.08735
C_ C_ 0.126784 0.325078 0.171443 -0.05681
C_ C_ 0.1085 0.338075 0.144224 -0.05681
C_ C_ 0.143745 0.341018 0.121627 -0.08735
C_ C_ 0.193659 0.327713 0.126664 -0.08735
C_ C_ 0.0915176 0.317897 0.193491 -0.08735
C_ C_ 0.0386662 0.323663 0.188043 -0.08735
C_ C_ 0.02161 0.332128 0.160236 -0.05681
C_ C_ 0.0553377 0.340717 0.138442 -0.08735
C_ C_ 0.377206 0.214719 0.163147 0.68181
C_ C_ 0.355266 0.412625 0.146952 0.68181
C_ C_ 0.360009 0.469614 0.143423 -0.05681
C_ C_ 0.382273 -0.002986000000000044 0.1716 -0.08735
C_ C_ 0.384131 0.0514873 0.168127 -0.05681
C_ C_ 0.371924 0.0746722 0.142842 -0.05681
C_ C_ 0.360519 0.0433973 0.118235 -0.08735
C_ C_ 0.357925 0.492989 0.116677 -0.08735
C_ C_ 0.399233 0.0810909 0.19242 -0.08735
C_ C_ 0.398185 0.134838 0.190334 -0.08735
C_ C_ 0.380337 0.15887 0.165309 -0.05681
C_ C_ 0.367391 0.127897 0.141233 -0.08735
C_ C_ 0.466169 0.323357 0.15816 0.68181
C_ C_ 0.394293 0.376022 0.233553 0.1947
C_ C_ 0.398237 0.393053 0.261489 -0.08735
C_ C_ 0.379703 0.364525 0.283564 -0.08735
C_ C_ 0.349439 0.321379 0.277919 -0.05681
C_ C_ 0.344884 0.30539 0.248562 0.18498
C_ C_ 0.312916 0.264885 0.241821 -0.08735
C_ C_ 0.292419 0.23437 0.263881 -0.08735
C_ C_ 0.309143 0.24365 0.292194 -0.08735
C_ C_ 0.33278 0.289924 0.300147 0.18498
C_ C_ 0.301501 0.319078 0.345879 0.44287
C_ C_ 0.387093 0.29821 0.34303 0.44287
C_ C_ 0.392631 0.306316 0.373359 -0.05681
C_ C_ 0.440913 0.30332 0.38616 -0.08735
C_ C_ 0.443831 0.298979 0.415907 -0.08735
C_ C_ 0.400316 0.30328 0.434042 -0.05681
C_ C_ 0.355056 0.314432 0.420452 -0.05681
C_ C_ 0.348922 0.311392 0.390476 -0.05681
C_ C_ 0.304228 0.321741 0.376396 -0.05681
C_ C_ 0.2592 0.324733 0.393623 -0.08735
C_ C_ 0.263248 0.327013 0.423151 -0.08735
C_ C_ 0.311202 0.323518 0.43746 -0.05681
C_ C_ 0.315947 0.323958 0.467953 0.44287
C_ C_ 0.40254 0.304704 0.464227 0.44287
C_ C_ 0.369102 0.350927 0.0106735 0.18498
C_ C_ 0.396823 0.393178 0.0174451 -0.08735
C_ C_ 0.419996 0.39821 0.0435543 -0.08735
C_ C_ 0.402862 0.367837 0.0659091 -0.08735
C_ C_ 0.372095 0.327307 0.0624412 0.18498
C_ C_ 0.358569 0.313602 0.0343925 -0.05681
C_ C_ 0.32977 0.268749 0.030908 -0.08735
C_ C_ 0.32454 0.235123 0.053675 -0.08735
C_ C_ 0.338459 0.250923 0.0811907 0.1947
N_ N_ 0.133045 0.165083 0.478253 -0.29468
N_ N_ 0.133325 0.212522 0.0826808 -0.17154
N_ N_ 0.0994857 0.175663 0.230766 -0.17154
N_ N_ 0.134511 0.202371 0.33315 -0.29468
N_ N_ 0.370861 0.330028 0.227023 -0.29468
N_ N_ 0.339942 0.298357 0.330424 -0.17154
N_ N_ 0.361538 0.315771 0.479708 -0.17154
N_ N_ 0.362525 0.294939 0.0852074 -0.29468
O_ O_ 0.215454 0.187246 0.430339 -0.58347
O_ O_ 0.205913 0.193699 0.384107 -0.58347
O_ O_ 0.135843 0.254356 0.433573 -0.58347
O_ O_ 0.125879 0.260792 0.388091 -0.58347
O_ O_ 0.150169 0.106977 0.427113 -0.58347
O_ O_ 0.134231 0.113156 0.381296 -0.58347
O_ O_ 0.0649057 0.178037 0.426862 -0.58347
O_ O_ 0.0544998 0.179389 0.381041 -0.58347
O_ O_ 0.0496782 0.23326 0.07906 -0.46727
O_ O_ 0.220595 0.196998 0.0894642 -0.46727
O_ O_ 0.0174916 0.20236 0.227359 -0.46727
O_ O_ 0.178366 0.135832 0.229962 -0.46727
O_ O_ 0.290153 0.317747 0.182174 -0.58347
O_ O_ 0.296523 0.299967 0.135704 -0.58347
O_ O_ 0.371322 0.240075 0.186611 -0.58347
O_ O_ 0.384104 0.235971 0.139115 -0.58347
O_ O_ 0.362095 0.39297 0.170776 -0.58347
O_ O_ 0.359732 0.384567 0.125699 -0.58347
O_ O_ 0.439224 0.321846 0.180132 -0.58347
O_ O_ 0.447572 0.324251 0.133753 -0.58347
O_ O_ 0.427296 0.285321 0.327717 -0.46727
O_ O_ 0.256306 0.325724 0.33409 -0.46727
O_ O_ 0.445528 0.289811 0.477768 -0.46727
O_ O_ 0.279037 0.343519 0.484215 -0.46727
Zn Zn 0.115435 0.189929 0.883167 0.90689
Zn Zn 0.124188 0.17956 0.932776 0.90689
Zn Zn 0.361568 0.304063 0.632612 0.90689
Zn Zn 0.351296 0.313934 0.681366 0.90689
H_ H_ 0.294232 0.205317 0.943387 0.11455
H_ H_ 0.360424 0.162197 0.849067 0.11455
H_ H_ 0.269236 0.165728 0.856509 0.11455
H_ H_ 0.381837 0.177604 0.964327 0.11455
H_ H_ 0.470811 0.187646 0.957899 0.11455
H_ H_ 0.449486 0.175827 0.866693 0.11455
H_ H_ 0.135484 0.0141544 0.946881 0.11455
H_ H_ 0.134001 0.440464 0.846246 0.11455
H_ H_ 0.122979 0.0308654 0.854318 0.11455
H_ H_ 0.103303 0.433199 0.961415 0.11455
H_ H_ 0.101521 0.339986 0.956731 0.11455
H_ H_ 0.137359 0.353893 0.86865 0.11455
H_ H_ 0.0866948 0.0964069 0.971172 0.11455
H_ H_ 0.0625951 0.0716735 0.506465 0.11455
H_ H_ 0.0891137 0.119227 0.553897 0.11455
H_ H_ 0.193089 0.237607 0.977183 0.11455
H_ H_ 0.202917 0.303515 0.519791 0.11455
H_ H_ 0.189524 0.269898 0.569444 0.11455
H_ H_ 0.00166059 0.205284 0.626496 0.11455
H_ H_ -0.01256400000000002 0.19278 0.675805 0.11455
H_ H_ 0.250678 0.160309 0.641036 0.11455
H_ H_ 0.23625 0.141988 0.691237 0.11455
H_ H_ 0.0590627 0.080435 0.751201 0.11455
H_ H_ 0.0469631 0.0531241 0.802746 0.11455
H_ H_ 0.0587677 0.11417 0.83928 0.11455
H_ H_ 0.149096 0.241691 0.757637 0.11455
H_ H_ 0.187991 0.284262 0.800409 0.11455
H_ H_ 0.171811 0.25418 0.848808 0.11455
H_ H_ 0.180857 0.318093 0.697944 0.11455
H_ H_ 0.120274 0.330321 0.598397 0.11455
H_ H_ 0.212657 0.332794 0.607799 0.11455
H_ H_ 0.0959269 0.326161 0.716709 0.11455
H_ H_ 0.00320074 0.320261 0.704944 0.11455
H_ H_ 0.0304134 0.321306 0.615274 0.11455
H_ H_ 0.375304 0.47976 0.698217 0.11455
H_ H_ 0.3831 0.0576305 0.595546 0.11455
H_ H_ 0.356569 0.466453 0.606638 0.11455
H_ H_ 0.355189 0.0546785 0.711566 0.11455
H_ H_ 0.357828 0.141881 0.709434 0.11455
H_ H_ 0.379898 0.138547 0.618498 0.11455
H_ H_ 0.420925 0.381414 0.717048 0.11455
H_ H_ 0.451565 0.392971 0.766318 0.11455
H_ H_ 0.400074 0.37035 0.804616 0.11455
H_ H_ 0.294991 0.252691 0.725525 0.11455
H_ H_ 0.275382 0.194317 0.762835 0.11455
H_ H_ 0.287284 0.222893 0.814377 0.11455
H_ H_ 0.470304 0.284515 0.877745 0.11455
H_ H_ 0.47682 0.295278 0.928857 0.11455
H_ H_ 0.227975 0.369884 0.881583 0.11455
H_ H_ 0.231956 0.367811 0.934394 0.11455
H_ H_ 0.391587 0.427916 0.00469179 0.11455
H_ H_ 0.439285 0.417619 0.548255 0.11455
H_ H_ 0.40699 0.366451 0.58969 0.11455
H_ H_ 0.313668 0.239743 0.50854 0.11455
H_ H_ 0.283883 0.19017 0.551742 0.11455
H_ H_ 0.299244 0.226623 0.599378 0.11455
C_ C_ 0.218355 0.184759 0.90634 0.68181
C_ C_ 0.273944 0.184235 0.900919 -0.05681
C_ C_ 0.30881 0.193848 0.923673 -0.08735
C_ C_ 0.359408 0.180676 0.919559 -0.05681
C_ C_ 0.380273 0.173647 0.891624 -0.05681
C_ C_ 0.346607 0.171453 0.869383 -0.08735
C_ C_ 0.293328 0.172596 0.873923 -0.08735
C_ C_ 0.393726 0.178975 0.942768 -0.08735
C_ C_ 0.446717 0.183343 0.938994 -0.08735
C_ C_ 0.467582 0.174955 0.91174 -0.05681
C_ C_ 0.433134 0.173638 0.887689 -0.08735
C_ C_ 0.11613 0.285853 0.912134 0.68181
C_ C_ 0.126225 0.0863242 0.903556 0.68181
C_ C_ 0.124078 0.0295027 0.900828 -0.05681
C_ C_ 0.138066 0.500997 0.922443 -0.08735
C_ C_ 0.134721 0.446782 0.919452 -0.05681
C_ C_ 0.134468 0.425055 0.891713 -0.05681
C_ C_ 0.141814 0.455698 0.868336 -0.08735
C_ C_ 0.142252 0.507053 0.871668 -0.08735
C_ C_ 0.119946 0.416209 0.941947 -0.08735
C_ C_ 0.108747 0.366235 0.938783 -0.08735
C_ C_ 0.116437 0.342017 0.913536 -0.05681
C_ C_ 0.131591 0.372201 0.889298 -0.08735
C_ C_ 0.0199888 0.180942 0.911681 0.68181
C_ C_ 0.0924679 0.126603 0.987277 0.1947
C_ C_ 0.0859412 0.105522 0.50695 -0.08735
C_ C_ 0.101192 0.131734 0.532709 -0.08735
C_ C_ 0.134005 0.174046 0.531194 -0.05681
C_ C_ 0.146992 0.190301 0.50163 0.18498
C_ C_ 0.17466 0.238275 0.996333 -0.08735
C_ C_ 0.188783 0.265597 0.523575 -0.08735
C_ C_ 0.173274 0.251219 0.549936 -0.08735
C_ C_ 0.147353 0.20606 0.554682 0.18498
C_ C_ 0.177128 0.177975 0.601744 0.44287
C_ C_ 0.0898565 0.202114 0.59478 0.44287
C_ C_ 0.0826883 0.192134 0.62499 -0.05681
C_ C_ 0.034976 0.198493 0.638582 -0.08735
C_ C_ 0.0271988 0.190113 0.668101 -0.08735
C_ C_ 0.0686627 0.184664 0.686315 -0.05681
C_ C_ 0.116767 0.177838 0.674104 -0.05681
C_ C_ 0.122843 0.180024 0.643556 -0.05681
C_ C_ 0.170686 0.171856 0.631151 -0.05681
C_ C_ 0.213142 0.159066 0.649592 -0.08735
C_ C_ 0.207456 0.156346 0.679487 -0.08735
C_ C_ 0.158815 0.165862 0.691361 -0.05681
C_ C_ 0.152942 0.163005 0.720956 0.44287
C_ C_ 0.0611985 0.171425 0.714706 0.44287
C_ C_ 0.0996427 0.150121 0.762043 0.18498
C_ C_ 0.070386 0.106528 0.768283 -0.08735
C_ C_ 0.0611163 0.0913976 0.796643 -0.08735
C_ C_ 0.0706539 0.124977 0.817878 -0.08735
C_ C_ 0.101353 0.167984 0.813469 0.18498
C_ C_ 0.110617 0.182753 0.784466 -0.05681
C_ C_ 0.139826 0.228601 0.779752 -0.08735
C_ C_ 0.159262 0.2561 0.803 -0.08735
C_ C_ 0.150053 0.239332 0.829993 0.1947
C_ C_ 0.25773 0.313813 0.659342 0.68181
C_ C_ 0.203047 0.318424 0.653103 -0.05681
C_ C_ 0.168187 0.322378 0.675861 -0.08735
C_ C_ 0.117663 0.324679 0.670384 -0.05681
C_ C_ 0.099478 0.324278 0.642186 -0.05681
C_ C_ 0.13384 0.325143 0.619473 -0.08735
C_ C_ 0.186733 0.322864 0.62471 -0.08735
C_ C_ 0.0812609 0.325532 0.693975 -0.08735
C_ C_ 0.0300172 0.316087 0.688562 -0.08735
C_ C_ 0.0112811 0.316275 0.660924 -0.05681
C_ C_ 0.0457335 0.318917 0.637462 -0.08735
C_ C_ 0.366242 0.208109 0.660303 0.68181
C_ C_ 0.354907 0.411079 0.654469 0.68181
C_ C_ 0.358021 0.466963 0.653049 -0.05681
C_ C_ 0.35276 -0.01033700000000004 0.668699 -0.08735
C_ C_ 0.358392 0.0434283 0.667376 -0.05681
C_ C_ 0.364027 0.0691716 0.639973 -0.05681
C_ C_ 0.37237 0.0395549 0.615784 -0.08735
C_ C_ 0.363119 0.489097 0.625901 -0.08735
C_ C_ 0.35953 0.0727772 0.691331 -0.08735
C_ C_ 0.357019 0.123994 0.689741 -0.08735
C_ C_ 0.360495 0.150226 0.663216 -0.05681
C_ C_ 0.368375 0.121396 0.638709 -0.08735
C_ C_ 0.455128 0.31222 0.655373 0.68181
C_ C_ 0.405874 0.356822 0.7338 0.1947
C_ C_ 0.419196 0.370246 0.760691 -0.08735
C_ C_ 0.38763 0.356323 0.784103 -0.08735
C_ C_ 0.349679 0.319637 0.779711 -0.05681
C_ C_ 0.342191 0.300379 0.752054 0.18498
C_ C_ 0.308603 0.261755 0.746676 -0.08735
C_ C_ 0.295532 0.228717 0.768883 -0.08735
C_ C_ 0.30549 0.24326 0.797444 -0.08735
C_ C_ 0.328915 0.289039 0.803252 0.18498
C_ C_ 0.297175 0.323085 0.847145 0.44287
C_ C_ 0.3799 0.286265 0.845084 0.44287
C_ C_ 0.386097 0.29569 0.875133 -0.05681
C_ C_ 0.435582 0.293885 0.889318 -0.08735
C_ C_ 0.438242 0.299325 0.920477 -0.08735
C_ C_ 0.396329 0.314233 0.936004 -0.05681
C_ C_ 0.351411 0.325593 0.922069 -0.05681
C_ C_ 0.346679 0.319762 0.891977 -0.05681
C_ C_ 0.300276 0.331768 0.877019 -0.05681
C_ C_ 0.259387 0.3537 0.892857 -0.08735
C_ C_ 0.264705 0.360769 0.92351 -0.08735
C_ C_ 0.309281 0.344542 0.938055 -0.05681
C_ C_ 0.313198 0.341248 0.968592 0.44287
C_ C_ 0.398306 0.319466 0.966062 0.44287
C_ C_ 0.368431 0.330459 0.510141 0.18498
C_ C_ 0.401145 0.371135 0.516594 -0.08735
C_ C_ 0.411125 0.38716 0.544896 -0.08735
C_ C_ 0.396407 0.356475 0.567426 -0.08735
C_ C_ 0.361695 0.315855 0.562622 0.18498
C_ C_ 0.353561 0.298282 0.53321 -0.05681
C_ C_ 0.320651 0.255644 0.52878 -0.08735
C_ C_ 0.304426 0.226259 0.553347 -0.08735
C_ C_ 0.313414 0.245826 0.580318 0.1947
N_ N_ 0.11692 0.17048 0.981657 -0.29468
N_ N_ 0.137309 0.19298 0.584478 -0.17154
N_ N_ 0.104783 0.162736 0.73274 -0.17154
N_ N_ 0.119259 0.197685 0.835507 -0.29468
N_ N_ 0.365087 0.324755 0.728777 -0.29468
N_ N_ 0.33689 0.302075 0.831905 -0.17154
N_ N_ 0.359692 0.337394 0.981198 -0.17154
N_ N_ 0.342555 0.289125 0.58502 -0.29468
O_ O_ 0.199161 0.179078 0.930874 -0.58347
O_ O_ 0.190417 0.190545 0.885086 -0.58347
O_ O_ 0.124964 0.257835 0.933881 -0.58347
O_ O_ 0.114991 0.265219 0.887564 -0.58347
O_ O_ 0.126159 0.106365 0.928917 -0.58347
O_ O_ 0.119913 0.114906 0.881711 -0.58347
O_ O_ 0.0477477 0.183577 0.933652 -0.58347
O_ O_ 0.0383256 0.183132 0.886925 -0.58347
O_ O_ 0.0528355 0.208512 0.57764 -0.46727
O_ O_ 0.220564 0.170502 0.58962 -0.46727
O_ O_ 0.0147571 0.161101 0.724517 -0.46727
O_ O_ 0.19279 0.152454 0.737274 -0.46727
O_ O_ 0.274167 0.315969 0.685342 -0.58347
O_ O_ 0.286689 0.304972 0.638799 -0.58347
O_ O_ 0.358406 0.23452 0.682482 -0.58347
O_ O_ 0.37048 0.228154 0.636326 -0.58347
O_ O_ 0.354493 0.390474 0.677847 -0.58347
O_ O_ 0.355259 0.383706 0.63194 -0.58347
O_ O_ 0.425593 0.312453 0.676987 -0.58347
O_ O_ 0.43612 0.310567 0.631005 -0.58347
O_ O_ 0.412282 0.257242 0.831476 -0.46727
O_ O_ 0.25675 0.339979 0.834035 -0.46727
O_ O_ 0.438928 0.305271 0.979977 -0.46727
O_ O_ 0.271775 0.347982 0.984306 -0.46727
Zn Zn 0.137771 0.687008 0.385419 0.90689
Zn Zn 0.149863 0.680204 0.433939 0.90689
Zn Zn 0.377929 0.808865 0.129343 0.90689
Zn Zn 0.372478 0.811529 0.179952 0.90689
H_ H_ 0.316653 0.684567 0.446871 0.11455
H_ H_ 0.389179 0.683505 0.346586 0.11455
H_ H_ 0.295569 0.684951 0.353811 0.11455
H_ H_ 0.400832 0.677944 0.466742 0.11455
H_ H_ 0.489836 0.680189 0.460503 0.11455
H_ H_ 0.4697 0.678252 0.367833 0.11455
H_ H_ 0.127649 0.515524 0.445745 0.11455
H_ H_ 0.130758 0.943287 0.350558 0.11455
H_ H_ 0.152877 0.531895 0.354509 0.11455
H_ H_ 0.165645 0.933468 0.466013 0.11455
H_ H_ 0.153757 0.837726 0.461913 0.11455
H_ H_ 0.111826 0.854667 0.374053 0.11455
H_ H_ 0.0986412 0.603635 0.47061 0.11455
H_ H_ 0.071937 0.573704 0.0150061 0.11455
H_ H_ 0.0926651 0.627395 0.0566669 0.11455
H_ H_ 0.192541 0.754707 0.479043 0.11455
H_ H_ 0.204375 0.804727 0.0202719 0.11455
H_ H_ 0.186076 0.780577 0.0697284 0.11455
H_ H_ 0.0184122 0.720532 0.128411 0.11455
H_ H_ 0.00600617 0.711669 0.180646 0.11455
H_ H_ 0.261402 0.648445 0.139319 0.11455
H_ H_ 0.254478 0.642944 0.188281 0.11455
H_ H_ 0.0767701 0.580909 0.25511 0.11455
H_ H_ 0.0441882 0.566298 0.303634 0.11455
H_ H_ 0.0740398 0.629036 0.342805 0.11455
H_ H_ 0.14029 0.752392 0.258926 0.11455
H_ H_ 0.177651 0.803169 0.297506 0.11455
H_ H_ 0.18942 0.766579 0.345239 0.11455
H_ H_ 0.198407 0.826067 0.192026 0.11455
H_ H_ 0.134641 0.840066 0.0956064 0.11455
H_ H_ 0.222597 0.832166 0.102188 0.11455
H_ H_ 0.111448 0.810669 0.21074 0.11455
H_ H_ 0.0246487 0.80929 0.201157 0.11455
H_ H_ 0.0497843 0.825829 0.108836 0.11455
H_ H_ 0.392715 0.97969 0.192351 0.11455
H_ H_ 0.355496 0.564729 0.095815 0.11455
H_ H_ 0.348075 0.967338 0.102296 0.11455
H_ H_ 0.390874 0.564814 0.212211 0.11455
H_ H_ 0.391871 0.655055 0.206003 0.11455
H_ H_ 0.347063 0.644264 0.119032 0.11455
H_ H_ 0.444452 0.877644 0.217921 0.11455
H_ H_ 0.452747 0.910551 0.268183 0.11455
H_ H_ 0.40174 0.877884 0.305132 0.11455
H_ H_ 0.325381 0.745488 0.224063 0.11455
H_ H_ 0.27431 0.704936 0.262959 0.11455
H_ H_ 0.27445 0.742483 0.309867 0.11455
H_ H_ 0.476083 0.779089 0.37195 0.11455
H_ H_ 0.49697 0.795212 0.421381 0.11455
H_ H_ 0.2337 0.841083 0.393917 0.11455
H_ H_ 0.247428 0.825071 0.443906 0.11455
H_ H_ 0.437694 0.903521 0.499701 0.11455
H_ H_ 0.452743 0.926721 0.0518067 0.11455
H_ H_ 0.439598 0.864009 0.087288 0.11455
H_ H_ 0.349351 0.745781 0.0058537 0.11455
H_ H_ 0.309346 0.700389 0.0458409 0.11455
H_ H_ 0.326026 0.725468 0.0949184 0.11455
C_ C_ 0.243586 0.682991 0.405096 0.68181
C_ C_ 0.298346 0.68171 0.400843 -0.05681
C_ C_ 0.331319 0.68415 0.424501 -0.08735
C_ C_ 0.383428 0.677918 0.420997 -0.05681
C_ C_ 0.403898 0.674257 0.393003 -0.05681
C_ C_ 0.372715 0.686611 0.369175 -0.08735
C_ C_ 0.319744 0.684694 0.372308 -0.08735
C_ C_ 0.414982 0.67551 0.445183 -0.08735
C_ C_ 0.466652 0.676101 0.441968 -0.08735
C_ C_ 0.48865 0.672617 0.413873 -0.05681
C_ C_ 0.45577 0.671814 0.389937 -0.08735
C_ C_ 0.137003 0.784284 0.414059 0.68181
C_ C_ 0.145574 0.585192 0.403055 0.68181
C_ C_ 0.142812 0.529921 0.400593 -0.05681
C_ C_ 0.155962 0.99797 0.424895 -0.08735
C_ C_ 0.144907 0.947111 0.423345 -0.05681
C_ C_ 0.130259 0.925808 0.396331 -0.05681
C_ C_ 0.131492 0.957623 0.372089 -0.08735
C_ C_ 0.138597 1.0101819 0.374664 -0.08735
C_ C_ 0.152334 0.915548 0.446707 -0.08735
C_ C_ 0.14267 0.862073 0.444646 -0.08735
C_ C_ 0.13461 0.840577 0.417046 -0.05681
C_ C_ 0.121762 0.872743 0.394048 -0.08735
C_ C_ 0.0482108 0.679411 0.411787 0.68181
C_ C_ 0.120686 0.622993 0.488263 0.1947
C_ C_ 0.0946032 0.607674 0.0117406 -0.08735
C_ C_ 0.104528 0.637322 0.0346589 -0.08735
C_ C_ 0.133122 0.681337 0.0315345 -0.05681
C_ C_ 0.150666 0.695278 1.00390135 0.18498
C_ C_ 0.194295 0.740434 0.500901 -0.08735
C_ C_ 0.186962 0.77031 0.024442 -0.08735
C_ C_ 0.176765 0.754576 0.051697 -0.08735
C_ C_ 0.149188 0.709428 0.0557897 0.18498
C_ C_ 0.183886 0.676272 0.100253 0.44287
C_ C_ 0.0999425 0.705254 0.0978464 0.44287
C_ C_ 0.0957604 0.699299 0.127838 -0.05681
C_ C_ 0.0503658 0.709086 0.142308 -0.08735
C_ C_ 0.0447229 0.702658 0.172294 -0.08735
C_ C_ 0.0856627 0.686437 0.188325 -0.05681
C_ C_ 0.132329 0.678555 0.174163 -0.05681
C_ C_ 0.134885 0.68345 0.144535 -0.05681
C_ C_ 0.179973 0.672466 0.130232 -0.05681
C_ C_ 0.223358 0.656084 0.147111 -0.08735
C_ C_ 0.218889 0.651666 0.177043 -0.08735
C_ C_ 0.174269 0.664659 0.19053 -0.05681
C_ C_ 0.168456 0.656967 0.221756 0.44287
C_ C_ 0.0818297 0.680662 0.218481 0.44287
C_ C_ 0.114462 0.651982 0.264027 0.18498
C_ C_ 0.0860338 0.608398 0.271276 -0.08735
C_ C_ 0.0711957 0.599458 0.300261 -0.08735
C_ C_ 0.0910177 0.630818 0.322367 -0.08735
C_ C_ 0.120416 0.671732 0.314965 0.18498
C_ C_ 0.128323 0.685796 0.285635 -0.05681
C_ C_ 0.149499 0.734444 0.279427 -0.08735
C_ C_ 0.168962 0.76333 0.302378 -0.08735
C_ C_ 0.16684 0.743874 0.329635 0.1947
C_ C_ 0.274492 0.815706 0.152129 0.68181
C_ C_ 0.21966 0.829204 0.147155 -0.05681
C_ C_ 0.185727 0.831075 0.170725 -0.08735
C_ C_ 0.132005 0.834084 0.167087 -0.05681
C_ C_ 0.113369 0.833498 0.138086 -0.05681
C_ C_ 0.146999 0.83634 0.116185 -0.08735
C_ C_ 0.198943 0.833498 0.12041 -0.08735
C_ C_ 0.0988464 0.826644 0.189009 -0.08735
C_ C_ 0.0472151 0.82169 0.184601 -0.08735
C_ C_ 0.02824 0.822731 0.154426 -0.05681
C_ C_ 0.0628155 0.825627 0.131366 -0.08735
C_ C_ 0.378851 0.714583 0.159544 0.68181
C_ C_ 0.375898 0.910296 0.149294 0.68181
C_ C_ 0.37357 0.965571 0.147468 -0.05681
C_ C_ 0.377129 0.497964 0.167292 -0.08735
C_ C_ 0.376789 0.551759 0.166143 -0.05681
C_ C_ 0.367616 0.576464 0.138894 -0.05681
C_ C_ 0.357506 0.546002 0.11558 -0.08735
C_ C_ 0.361815 -0.010915000000000008 0.120814 -0.08735
C_ C_ 0.383119 0.580515 0.190407 -0.08735
C_ C_ 0.379101 0.633785 0.188687 -0.08735
C_ C_ 0.371389 0.658152 0.161935 -0.05681
C_ C_ 0.367545 0.629786 0.136465 -0.08735
C_ C_ 0.472631 0.80319 0.156056 0.68181
C_ C_ 0.416611 0.865885 0.233965 0.1947
C_ C_ 0.42119 0.885362 0.261498 -0.08735
C_ C_ 0.393349 0.864273 0.283693 -0.08735
C_ C_ 0.358125 0.824727 0.278876 -0.05681
C_ C_ 0.353637 0.806071 0.250418 0.18498
C_ C_ 0.324402 0.7634 0.244915 -0.08735
C_ C_ 0.298084 0.738792 0.26657 -0.08735
C_ C_ 0.300855 0.755784 0.295067 -0.08735
C_ C_ 0.332113 0.798735 0.302461 0.18498
C_ C_ 0.30281 0.818988 0.350885 0.44287
C_ C_ 0.388377 0.79651 0.343434 0.44287
C_ C_ 0.398943 0.805923 0.373043 -0.05681
C_ C_ 0.447918 0.798373 0.384677 -0.08735
C_ C_ 0.458348 0.799263 0.413495 -0.08735
C_ C_ 0.418506 0.809144 0.432819 -0.05681
C_ C_ 0.36945 0.819832 0.420996 -0.05681
C_ C_ 0.361783 0.819816 0.391059 -0.05681
C_ C_ 0.312303 0.828517 0.380347 -0.05681
C_ C_ 0.271981 0.835673 0.400621 -0.08735
C_ C_ 0.279683 0.832452 0.429669 -0.08735
C_ C_ 0.32876 0.827579 0.44017 -0.05681
C_ C_ 0.340077 0.827932 0.469403 0.44287
C_ C_ 0.426415 0.812844 0.461771 0.44287
C_ C_ 0.397366 0.837922 0.00882994 0.18498
C_ C_ 0.423064 0.882548 0.0158911 -0.08735
C_ C_ 0.438429 0.890082 0.0443687 -0.08735
C_ C_ 0.425752 0.857009 0.0670716 -0.08735
C_ C_ 0.39352 0.815561 0.0613299 0.18498
C_ C_ 0.385173 0.803071 0.0313892 -0.05681
C_ C_ 0.352823 0.762189 0.0274929 -0.08735
C_ C_ 0.329475 0.735691 0.0499099 -0.08735
C_ C_ 0.340782 0.749822 0.0777144 0.1947
N_ N_ 0.147993 0.666612 0.482215 -0.29468
N_ N_ 0.143924 0.69267 0.0840434 -0.17154
N_ N_ 0.122971 0.66481 0.234133 -0.17154
N_ N_ 0.142118 0.700664 0.336213 -0.29468
N_ N_ 0.379305 0.829924 0.22792 -0.29468
N_ N_ 0.341934 0.80739 0.332321 -0.17154
N_ N_ 0.388717 0.821234 0.48017 -0.17154
N_ N_ 0.370619 0.790636 0.0839586 -0.29468
O_ O_ 0.225583 0.689571 0.429384 -0.58347
O_ O_ 0.212786 0.683273 0.384602 -0.58347
O_ O_ 0.142011 0.758628 0.43661 -0.58347
O_ O_ 0.142187 0.762647 0.389543 -0.58347
O_ O_ 0.153338 0.605661 0.427632 -0.58347
O_ O_ 0.138595 0.612897 0.381367 -0.58347
O_ O_ 0.0777472 0.667102 0.431829 -0.58347
O_ O_ 0.0659987 0.695252 0.387813 -0.58347
O_ O_ 0.0667904 0.730621 0.0839402 -0.46727
O_ O_ 0.227361 0.666842 0.0879808 -0.46727
O_ O_ 0.0430255 0.694778 0.23308 -0.46727
O_ O_ 0.208021 0.644562 0.237927 -0.46727
O_ O_ 0.293678 0.817008 0.177678 -0.58347
O_ O_ 0.30535 0.810252 0.130802 -0.58347
O_ O_ 0.376381 0.739631 0.182902 -0.58347
O_ O_ 0.376054 0.737131 0.136123 -0.58347
O_ O_ 0.370108 0.887528 0.17195 -0.58347
O_ O_ 0.382878 0.885601 0.12666 -0.58347
O_ O_ 0.444844 0.80577 0.17766 -0.58347
O_ O_ 0.453358 0.802576 0.130974 -0.58347
O_ O_ 0.420875 0.76931 0.328059 -0.46727
O_ O_ 0.25605 0.822769 0.34136 -0.46727
O_ O_ 0.46952 0.794433 0.470765 -0.46727
O_ O_ 0.302249 0.835871 0.48727 -0.46727
Zn Zn 0.129919 0.687587 0.884848 0.90689
Zn Zn 0.137553 0.684326 0.932422 0.90689
Zn Zn 0.367837 0.808217 0.630752 0.90689
Zn Zn 0.360371 0.812649 0.678382 0.90689
H_ H_ 0.312807 0.700353 0.951675 0.11455
H_ H_ 0.374871 0.672666 0.852509 0.11455
H_ H_ 0.284309 0.666927 0.861314 0.11455
H_ H_ 0.404411 0.691994 0.969234 0.11455
H_ H_ 0.492307 0.702377 0.957931 0.11455
H_ H_ 0.463198 0.658407 0.870663 0.11455
H_ H_ 0.129657 0.521551 0.941863 0.11455
H_ H_ 0.130258 0.934275 0.850752 0.11455
H_ H_ 0.13935 0.528497 0.851994 0.11455
H_ H_ 0.111475 0.930182 0.969601 0.11455
H_ H_ 0.120667 0.837798 0.963055 0.11455
H_ H_ 0.123378 0.852383 0.871532 0.11455
H_ H_ 0.0879189 0.605417 0.96727 0.11455
H_ H_ 0.0846121 0.579854 0.52266 0.11455
H_ H_ 0.125787 0.617337 0.559467 0.11455
H_ H_ 0.183527 0.757025 0.979015 0.11455
H_ H_ 0.214406 0.814746 0.517394 0.11455
H_ H_ 0.201469 0.786988 0.568626 0.11455
H_ H_ 1.027478 0.704245 0.628148 0.11455
H_ H_ 1.0194441 0.691933 0.680046 0.11455
H_ H_ 0.279057 0.652128 0.639801 0.11455
H_ H_ 0.269226 0.649222 0.695272 0.11455
H_ H_ 0.0750342 0.590936 0.751934 0.11455
H_ H_ 0.0521256 0.564403 0.803957 0.11455
H_ H_ 0.0742759 0.625246 0.842487 0.11455
H_ H_ 0.182248 0.734875 0.759587 0.11455
H_ H_ 0.203901 0.788514 0.79787 0.11455
H_ H_ 0.184498 0.760886 0.850056 0.11455
H_ H_ 0.189423 0.8138 0.694855 0.11455
H_ H_ 0.131244 0.844502 0.595769 0.11455
H_ H_ 0.223686 0.844393 0.604168 0.11455
H_ H_ 0.103259 0.8022 0.711111 0.11455
H_ H_ 0.0118487 0.810754 0.701913 0.11455
H_ H_ 0.0408759 0.823721 0.611576 0.11455
H_ H_ 0.354718 0.971173 0.688906 0.11455
H_ H_ 0.36656 0.560196 0.60205 0.11455
H_ H_ 0.37951 0.963638 0.59764 0.11455
H_ H_ 0.37112 0.565467 0.720189 0.11455
H_ H_ 0.387919 0.656687 0.71736 0.11455
H_ H_ 0.377044 0.642298 0.622612 0.11455
H_ H_ 0.400345 0.894065 0.710084 0.11455
H_ H_ 0.40877 0.929142 0.759083 0.11455
H_ H_ 0.389678 0.874381 0.801602 0.11455
H_ H_ 0.304578 0.746485 0.724418 0.11455
H_ H_ 0.289533 0.689448 0.765952 0.11455
H_ H_ 0.328394 0.705327 0.811947 0.11455
H_ H_ 0.492656 0.798452 0.870451 0.11455
H_ H_ 0.504558 0.803055 0.921704 0.11455
H_ H_ 0.241789 0.820638 0.887421 0.11455
H_ H_ 0.253907 0.841744 0.937139 0.11455
H_ H_ 0.4309 0.90758 0.999802 0.11455
H_ H_ 0.464543 0.919647 0.549559 0.11455
H_ H_ 0.4274 0.87202 0.588319 0.11455
H_ H_ 0.358418 0.738212 0.508309 0.11455
H_ H_ 0.311245 0.69573 0.549984 0.11455
H_ H_ 0.326521 0.725131 0.597007 0.11455
C_ C_ 0.23498 0.690062 0.910981 0.68181
C_ C_ 0.290608 0.683567 0.907344 -0.05681
C_ C_ 0.327678 0.691652 0.930525 -0.08735
C_ C_ 0.379743 0.687362 0.925408 -0.05681
C_ C_ 0.396588 0.678879 0.897379 -0.05681
C_ C_ 0.362275 0.672721 0.875755 -0.08735
C_ C_ 0.309842 0.671523 0.880248 -0.08735
C_ C_ 0.415234 0.692158 0.947814 -0.08735
C_ C_ 0.467674 0.688494 0.942053 -0.08735
C_ C_ 0.485416 0.678259 0.914286 -0.05681
C_ C_ 0.450275 0.672933 0.891785 -0.08735
C_ C_ 0.130452 0.784335 0.914984 0.68181
C_ C_ 0.146835 0.586749 0.901162 0.68181
C_ C_ 0.142863 0.530525 0.897941 -0.05681
C_ C_ 0.126853 0.997654 0.925601 -0.08735
C_ C_ 0.118308 0.944306 0.922997 -0.05681
C_ C_ 0.120205 0.922018 0.895277 -0.05681
C_ C_ 0.125367 0.95438 0.871768 -0.08735
C_ C_ 0.124129 0.0062579 0.87371 -0.08735
C_ C_ 0.11432 0.914854 0.947898 -0.08735
C_ C_ 0.11977 0.862326 0.94495 -0.08735
C_ C_ 0.122569 0.839634 0.917319 -0.05681
C_ C_ 0.121324 0.870185 0.892382 -0.08735
C_ C_ 0.0378475 0.686775 0.908123 0.68181
C_ C_ 0.110253 0.620383 0.984779 0.1947
C_ C_ 0.109394 0.608552 0.516164 -0.08735
C_ C_ 0.131643 0.635214 0.538409 -0.08735
C_ C_ 0.160601 0.679151 0.534411 -0.05681
C_ C_ 0.167887 0.695476 0.505571 0.18498
C_ C_ 0.177947 0.739633 0.999806 -0.08735
C_ C_ 0.204284 0.774432 0.522772 -0.08735
C_ C_ 0.197916 0.759636 0.550803 -0.08735
C_ C_ 0.175675 0.712969 0.557455 0.18498
C_ C_ 0.203535 0.673828 0.603333 0.44287
C_ C_ 0.120387 0.708794 0.598118 0.44287
C_ C_ 0.111155 0.69514 0.627415 -0.05681
C_ C_ 0.0609605 0.695816 0.640509 -0.08735
C_ C_ 0.0571337 0.691229 0.670679 -0.08735
C_ C_ 0.0978344 0.68275 0.687999 -0.05681
C_ C_ 0.144018 0.674782 0.675796 -0.05681
C_ C_ 0.151308 0.678681 0.645444 -0.05681
C_ C_ 0.19871 0.670115 0.633221 -0.05681
C_ C_ 0.240806 0.658245 0.650546 -0.08735
C_ C_ 0.235861 0.659139 0.680871 -0.08735
C_ C_ 0.186994 0.66483 0.69387 -0.05681
C_ C_ 0.178745 0.655066 0.723145 0.44287
C_ C_ 0.0938196 0.679464 0.717657 0.44287
C_ C_ 0.12142 0.651309 0.763896 0.18498
C_ C_ 0.0908046 0.60957 0.769863 -0.08735
C_ C_ 0.0754881 0.597212 0.798449 -0.08735
C_ C_ 0.0891031 0.631114 0.820677 -0.08735
C_ C_ 0.121898 0.671639 0.81514 0.18498
C_ C_ 0.139363 0.680802 0.786246 -0.05681
C_ C_ 0.170496 0.724811 0.781197 -0.08735
C_ C_ 0.184149 0.754705 0.803441 -0.08735
C_ C_ 0.173367 0.739073 0.832526 0.1947
C_ C_ 0.267086 0.810646 0.652678 0.68181
C_ C_ 0.212748 0.818538 0.649234 -0.05681
C_ C_ 0.177268 0.815634 0.672654 -0.08735
C_ C_ 0.124646 0.815875 0.666627 -0.05681
C_ C_ 0.106616 0.828122 0.639199 -0.05681
C_ C_ 0.141914 0.834562 0.616229 -0.08735
C_ C_ 0.19422 0.834244 0.621769 -0.08735
C_ C_ 0.089443 0.809634 0.689246 -0.08735
C_ C_ 0.0377926 0.815676 0.684846 -0.08735
C_ C_ 0.0215041 0.814303 0.656906 -0.05681
C_ C_ 0.0552818 0.82253 0.634236 -0.08735
C_ C_ 0.374885 0.713137 0.665079 0.68181
C_ C_ 0.361237 0.907506 0.645236 0.68181
C_ C_ 0.363076 0.961868 0.643297 -0.05681
C_ C_ 0.365269 0.498628 0.678244 -0.08735
C_ C_ 0.372233 0.550949 0.675247 -0.05681
C_ C_ 0.374354 0.572731 0.647147 -0.05681
C_ C_ 0.366534 0.542533 0.623175 -0.08735
C_ C_ 0.373525 0.986796 0.616765 -0.08735
C_ C_ 0.379469 0.581517 0.699556 -0.08735
C_ C_ 0.381667 0.634104 0.697054 -0.08735
C_ C_ 0.380074 0.657659 0.668692 -0.05681
C_ C_ 0.377241 0.626342 0.644557 -0.08735
C_ C_ 0.465167 0.816369 0.658667 0.68181
C_ C_ 0.385433 0.87417 0.72944 0.1947
C_ C_ 0.392845 0.893123 0.756772 -0.08735
C_ C_ 0.380247 0.864684 0.781447 -0.08735
C_ C_ 0.3597 0.815368 0.77716 -0.05681
C_ C_ 0.344959 0.802043 0.749359 0.18498
C_ C_ 0.315864 0.757809 0.745757 -0.08735
C_ C_ 0.311856 0.721987 0.767577 -0.08735
C_ C_ 0.333803 0.73339 0.794708 -0.08735
C_ C_ 0.352019 0.781161 0.800537 0.18498
C_ C_ 0.319997 0.815042 0.845933 0.44287
C_ C_ 0.405397 0.792964 0.842249 0.44287
C_ C_ 0.410569 0.797525 0.87182 -0.05681
C_ C_ 0.458866 0.794472 0.884636 -0.08735
C_ C_ 0.46658 0.804322 0.914894 -0.08735
C_ C_ 0.426859 0.818669 0.931533 -0.05681
C_ C_ 0.378214 0.822096 0.918523 -0.05681
C_ C_ 0.369927 0.81346 0.888806 -0.05681
C_ C_ 0.322678 0.820072 0.876019 -0.05681
C_ C_ 0.279229 0.82861 0.894349 -0.08735
C_ C_ 0.285537 0.833732 0.923893 -0.08735
C_ C_ 0.333658 0.832126 0.937052 -0.05681
C_ C_ 0.341337 0.834469 0.966691 0.44287
C_ C_ 0.430407 0.819587 0.962018 0.44287
C_ C_ 0.401944 0.831126 0.510356 0.18498
C_ C_ 0.428415 0.876417 0.516328 -0.08735
C_ C_ 0.439645 0.888518 0.544456 -0.08735
C_ C_ 0.417035 0.862975 0.567728 -0.08735
C_ C_ 0.391449 0.817798 0.562796 0.18498
C_ C_ 0.381974 0.802471 0.534342 -0.05681
C_ C_ 0.358901 0.756223 0.52943 -0.08735
C_ C_ 0.335741 0.730134 0.552082 -0.08735
C_ C_ 0.339117 0.74888 0.579679 0.1947
N_ N_ 0.134268 0.666708 0.980468 -0.29468
N_ N_ 0.166121 0.696104 0.586445 -0.17154
N_ N_ 0.131792 0.663426 0.734554 -0.17154
N_ N_ 0.141729 0.698779 0.837854 -0.29468
N_ N_ 0.358637 0.829505 0.726025 -0.29468
N_ N_ 0.359259 0.796695 0.830272 -0.17154
N_ N_ 0.388622 0.826975 0.978062 -0.17154
N_ N_ 0.371181 0.790288 0.583852 -0.29468
O_ O_ 0.215139 0.68741 0.93616 -0.58347
O_ O_ 0.206483 0.692393 0.890353 -0.58347
O_ O_ 0.124336 0.759991 0.937254 -0.58347
O_ O_ 0.131244 0.763043 0.890777 -0.58347
O_ O_ 0.144784 0.606992 0.925271 -0.58347
O_ O_ 0.136345 0.612328 0.879461 -0.58347
O_ O_ 0.06483 0.676897 0.929803 -0.58347
O_ O_ 0.0562197 0.688854 0.883875 -0.58347
O_ O_ 0.0869823 0.728636 0.582657 -0.46727
O_ O_ 0.242823 0.652951 0.590726 -0.46727
O_ O_ 0.0490447 0.691899 0.729526 -0.46727
O_ O_ 0.21228 0.628485 0.737671 -0.46727
O_ O_ 0.285587 0.804899 0.677249 -0.58347
O_ O_ 0.294112 0.804466 0.631059 -0.58347
O_ O_ 0.368252 0.741325 0.686801 -0.58347
O_ O_ 0.371605 0.732115 0.640846 -0.58347
O_ O_ 0.352358 0.88834 0.669293 -0.58347
O_ O_ 0.364518 0.880493 0.622686 -0.58347
O_ O_ 0.438303 0.814838 0.6805 -0.58347
O_ O_ 0.447034 0.816519 0.634055 -0.58347
O_ O_ 0.445988 0.783542 0.826188 -0.46727
O_ O_ 0.277087 0.825164 0.83283 -0.46727
O_ O_ 0.471789 0.801613 0.974826 -0.46727
O_ O_ 0.305122 0.85094 0.983847 -0.46727
Zn Zn 0.630254 0.187501 0.382422 0.90689
Zn Zn 0.640711 0.175093 0.429046 0.90689
Zn Zn 0.877465 0.316717 0.130705 0.90689
Zn Zn 0.864583 0.32456 0.181296 0.90689
H_ H_ 0.807627 0.188513 0.443239 0.11455
H_ H_ 0.877492 0.186317 0.346709 0.11455
H_ H_ 0.780261 0.17758 0.354318 0.11455
H_ H_ 0.892313 0.192894 0.463515 0.11455
H_ H_ 0.983999 0.181492 0.455695 0.11455
H_ H_ 0.961947 0.171705 0.365015 0.11455
H_ H_ 0.647868 0.0126501 0.442084 0.11455
H_ H_ 0.60881 0.42981 0.34834 0.11455
H_ H_ 0.64671 0.0272319 0.352012 0.11455
H_ H_ 0.656523 0.433854 0.46216 0.11455
H_ H_ 0.636696 0.337841 0.46099 0.11455
H_ H_ 0.617583 0.347636 0.368967 0.11455
H_ H_ 0.577982 0.112686 0.463655 0.11455
H_ H_ 0.561012 0.0873324 0.0143765 0.11455
H_ H_ 0.599328 0.135715 0.0549093 0.11455
H_ H_ 0.696184 0.246918 0.47676 0.11455
H_ H_ 0.720317 0.309895 0.0137807 0.11455
H_ H_ 0.702968 0.283151 0.0619702 0.11455
H_ H_ 0.515519 0.220233 0.121746 0.11455
H_ H_ 0.50069 0.190433 0.171645 0.11455
H_ H_ 0.762179 0.168542 0.136908 0.11455
H_ H_ 0.749411 0.16386 0.189255 0.11455
H_ H_ 0.584153 0.0928303 0.246295 0.11455
H_ H_ 0.549875 0.0701913 0.295088 0.11455
H_ H_ 0.574953 0.115979 0.335073 0.11455
H_ H_ 0.64937 0.258359 0.258844 0.11455
H_ H_ 0.692571 0.301265 0.299507 0.11455
H_ H_ 0.689947 0.259842 0.345787 0.11455
H_ H_ 0.69263 0.332919 0.195902 0.11455
H_ H_ 0.625131 0.335981 0.0963334 0.11455
H_ H_ 0.719274 0.315809 0.103963 0.11455
H_ H_ 0.608815 0.301955 0.215018 0.11455
H_ H_ 0.521148 0.308911 0.206371 0.11455
H_ H_ 0.543795 0.338697 0.117313 0.11455
H_ H_ 0.899732 0.49084 0.187275 0.11455
H_ H_ 0.897398 0.0747121 0.0951031 0.11455
H_ H_ 0.86712 0.476528 0.0966578 0.11455
H_ H_ 0.861744 0.0734697 0.213856 0.11455
H_ H_ 0.859144 0.16589 0.210696 0.11455
H_ H_ 0.887886 0.159027 0.12041 0.11455
H_ H_ 0.9311 0.396036 0.209877 0.11455
H_ H_ 0.962696 0.421051 0.256185 0.11455
H_ H_ 0.918775 0.385359 0.300513 0.11455
H_ H_ 0.799882 0.283294 0.225041 0.11455
H_ H_ 0.779106 0.223294 0.263104 0.11455
H_ H_ 0.807163 0.245307 0.311373 0.11455
H_ H_ 0.988843 0.285263 0.373486 0.11455
H_ H_ -0.000217749 0.30823 0.424359 0.11455
H_ H_ 0.743934 0.326584 0.385586 0.11455
H_ H_ 0.752545 0.318703 0.437952 0.11455
H_ H_ 0.927271 0.415255 0.499355 0.11455
H_ H_ 0.959729 0.430159 0.0506149 0.11455
H_ H_ 0.934773 0.374128 0.0886411 0.11455
H_ H_ 0.835109 0.257571 0.00543882 0.11455
H_ H_ 0.818926 0.199499 0.0466809 0.11455
H_ H_ 0.828353 0.231194 0.0962654 0.11455
C_ C_ 0.73441 0.184294 0.405177 0.68181
C_ C_ 0.790499 0.1905 0.400905 -0.05681
C_ C_ 0.822762 0.190265 0.423345 -0.08735
C_ C_ 0.874463 0.187639 0.419658 -0.05681
C_ C_ 0.894076 0.181706 0.391494 -0.05681
C_ C_ 0.860938 0.183313 0.367622 -0.08735
C_ C_ 0.808691 0.187132 0.371701 -0.08735
C_ C_ 0.907448 0.182555 0.442663 -0.08735
C_ C_ 0.958583 0.176258 0.437861 -0.08735
C_ C_ 0.979237 0.172106 0.409678 -0.05681
C_ C_ 0.945855 0.174036 0.386822 -0.08735
C_ C_ 0.629168 0.281248 0.411231 0.68181
C_ C_ 0.649212 0.082577 0.399692 0.68181
C_ C_ 0.65123 0.0268638 0.397706 -0.05681
C_ C_ 0.653635 0.494973 0.417818 -0.08735
C_ C_ 0.648607 0.443066 0.416602 -0.05681
C_ C_ 0.631823 0.420345 0.392274 -0.05681
C_ C_ 0.621397 0.449116 0.367423 -0.08735
C_ C_ 0.624565 0.501757 0.368472 -0.08735
C_ C_ 0.649674 0.41301 0.4419 -0.08735
C_ C_ 0.637043 0.360248 0.44152 -0.08735
C_ C_ 0.62639 0.336975 0.415402 -0.05681
C_ C_ 0.623193 0.366291 0.390511 -0.08735
C_ C_ 0.536431 0.180297 0.404562 0.68181
C_ C_ 0.59942 0.125911 0.482085 0.1947
C_ C_ 0.5818 0.123151 0.0109559 -0.08735
C_ C_ 0.607726 0.147772 0.0330163 -0.08735
C_ C_ 0.634549 0.192825 0.0281228 -0.05681
C_ C_ 0.64301 0.207369 0.999561 0.18498
C_ C_ 0.678698 0.23742 0.497322 -0.08735
C_ C_ 0.694887 0.276769 0.0165054 -0.08735
C_ C_ 0.683367 0.264533 0.0446741 -0.08735
C_ C_ 0.652672 0.223299 0.0512976 0.18498
C_ C_ 0.688288 0.191401 0.0952741 0.44287
C_ C_ 0.603205 0.218571 0.0933362 0.44287
C_ C_ 0.594098 0.202972 0.121779 -0.05681
C_ C_ 0.546776 0.206556 0.134482 -0.08735
C_ C_ 0.540082 0.191386 0.162713 -0.08735
C_ C_ 0.582334 0.187956 0.181028 -0.05681
C_ C_ 0.630736 0.189527 0.169382 -0.05681
C_ C_ 0.636386 0.195326 0.139337 -0.05681
C_ C_ 0.685245 0.186344 0.1272 -0.05681
C_ C_ 0.727636 0.177603 0.145424 -0.08735
C_ C_ 0.720735 0.176592 0.174834 -0.08735
C_ C_ 0.673023 0.179207 0.186378 -0.05681
C_ C_ 0.665246 0.185757 0.216657 0.44287
C_ C_ 0.576311 0.184041 0.211035 0.44287
C_ C_ 0.610963 0.164794 0.258396 0.18498
C_ C_ 0.590299 0.117536 0.263366 -0.08735
C_ C_ 0.576499 0.101732 0.291423 -0.08735
C_ C_ 0.588577 0.129596 0.314868 -0.08735
C_ C_ 0.616327 0.175433 0.311384 0.18498
C_ C_ 0.626923 0.193007 0.28177 -0.05681
C_ C_ 0.647711 0.241477 0.279082 -0.08735
C_ C_ 0.668062 0.267773 0.302434 -0.08735
C_ C_ 0.664647 0.242707 0.329567 0.1947
C_ C_ 0.771573 0.322843 0.153679 0.68181
C_ C_ 0.713883 0.319597 0.14995 -0.05681
C_ C_ 0.681581 0.318705 0.173677 -0.08735
C_ C_ 0.628806 0.323829 0.170763 -0.05681
C_ C_ 0.609067 0.33447 0.1433 -0.05681
C_ C_ 0.640665 0.332009 0.118939 -0.08735
C_ C_ 0.693007 0.320605 0.12207 -0.08735
C_ C_ 0.595629 0.317592 0.194725 -0.08735
C_ C_ 0.544178 0.323644 0.190874 -0.08735
C_ C_ 0.523936 0.32914 0.162194 -0.05681
C_ C_ 0.557243 0.33258 0.138941 -0.08735
C_ C_ 0.874028 0.224601 0.163978 0.68181
C_ C_ 0.876268 0.418182 0.146757 0.68181
C_ C_ 0.878519 0.473657 0.142141 -0.05681
C_ C_ 0.870144 0.00911461 0.170628 -0.08735
C_ C_ 0.873422 0.0616579 0.168578 -0.05681
C_ C_ 0.882608 0.0866572 0.141737 -0.05681
C_ C_ 0.886549 0.057105 0.116397 -0.08735
C_ C_ 0.871706 0.498274 0.116074 -0.08735
C_ C_ 0.868038 0.0921593 0.19365 -0.08735
C_ C_ 0.870136 0.143266 0.19203 -0.08735
C_ C_ 0.87932 0.167971 0.165881 -0.05681
C_ C_ 0.888595 0.139518 0.141333 -0.08735
C_ C_ 0.96594 0.329105 0.153858 0.68181
C_ C_ 0.909551 0.385073 0.228871 0.1947
C_ C_ 0.927888 0.399949 0.255062 -0.08735
C_ C_ 0.906181 0.377773 0.279664 -0.08735
C_ C_ 0.867403 0.338505 0.276979 -0.05681
C_ C_ 0.855454 0.321984 0.248994 0.18498
C_ C_ 0.820929 0.284478 0.244734 -0.08735
C_ C_ 0.803472 0.25464 0.266535 -0.08735
C_ C_ 0.822287 0.264122 0.293703 -0.08735
C_ C_ 0.851249 0.308112 0.300293 0.18498
C_ C_ 0.819175 0.334712 0.347632 0.44287
C_ C_ 0.906187 0.314889 0.342116 0.44287
C_ C_ 0.914699 0.320837 0.371782 -0.05681
C_ C_ 0.960031 0.309617 0.385732 -0.08735
C_ C_ 0.965577 0.316964 0.415271 -0.08735
C_ C_ 0.925173 0.322906 0.433615 -0.05681
C_ C_ 0.87722 0.331319 0.420893 -0.05681
C_ C_ 0.872058 0.32887 0.390343 -0.05681
C_ C_ 0.823535 0.334499 0.377686 -0.05681
C_ C_ 0.781253 0.329719 0.396017 -0.08735
C_ C_ 0.786847 0.322258 0.42492 -0.08735
C_ C_ 0.834324 0.331717 0.437771 -0.05681
C_ C_ 0.839436 0.334536 0.468007 0.44287
C_ C_ 0.929714 0.324584 0.464073 0.44287
C_ C_ 0.88917 0.34519 0.0092705 0.18498
C_ C_ 0.921253 0.387182 0.0164898 -0.08735
C_ C_ 0.932826 0.399626 0.0454861 -0.08735
C_ C_ 0.920366 0.366497 0.0663637 -0.08735
C_ C_ 0.889037 0.32697 0.0609026 0.18498
C_ C_ 0.872595 0.314699 0.0327424 -0.05681
C_ C_ 0.847188 0.26929 0.0274861 -0.08735
C_ C_ 0.838347 0.236407 0.0500132 -0.08735
C_ C_ 0.848347 0.250806 0.0784542 0.1947
N_ N_ 0.630279 0.165576 0.477749 -0.29468
N_ N_ 0.647079 0.20776 0.0800508 -0.17154
N_ N_ 0.617142 0.181342 0.228684 -0.17154
N_ N_ 0.637098 0.200449 0.334186 -0.29468
N_ N_ 0.87699 0.34524 0.226059 -0.29468
N_ N_ 0.859736 0.321104 0.33083 -0.17154
N_ N_ 0.886144 0.331219 0.480407 -0.17154
N_ N_ 0.872156 0.297677 0.0840359 -0.29468
O_ O_ 0.716251 0.175409 0.429676 -0.58347
O_ O_ 0.706231 0.200265 0.384299 -0.58347
O_ O_ 0.642738 0.251667 0.430885 -0.58347
O_ O_ 0.619383 0.26192 0.387027 -0.58347
O_ O_ 0.638008 0.100985 0.423914 -0.58347
O_ O_ 0.647165 0.111594 0.378649 -0.58347
O_ O_ 0.564534 0.178816 0.425956 -0.58347
O_ O_ 0.555106 0.182215 0.380205 -0.58347
O_ O_ 0.570623 0.247056 0.0797946 -0.46727
O_ O_ 0.73015 0.184499 0.0823821 -0.46727
O_ O_ 0.529436 0.179806 0.221949 -0.46727
O_ O_ 0.706392 0.190282 0.232913 -0.46727
O_ O_ 0.790988 0.331757 0.177996 -0.58347
O_ O_ 0.800064 0.316937 0.13318 -0.58347
O_ O_ 0.862572 0.250516 0.185885 -0.58347
O_ O_ 0.87788 0.244654 0.138868 -0.58347
O_ O_ 0.870575 0.399305 0.171669 -0.58347
O_ O_ 0.873831 0.391639 0.124642 -0.58347
O_ O_ 0.938335 0.320999 0.176798 -0.58347
O_ O_ 0.950004 0.318748 0.128824 -0.58347
O_ O_ 0.943823 0.298222 0.325296 -0.46727
O_ O_ 0.77425 0.339742 0.335353 -0.46727
O_ O_ 0.970591 0.305772 0.476733 -0.46727
O_ O_ 0.798912 0.331019 0.484063 -0.46727
Zn Zn 0.617231 0.18791 0.880066 0.90689
Zn Zn 0.626249 0.186012 0.928442 0.90689
Zn Zn 0.863531 0.31066 0.632075 0.90689
Zn Zn 0.849213 0.315041 0.680179 0.90689
H_ H_ 0.793632 0.1984 0.946898 0.11455
H_ H_ 0.864326 0.184251 0.848131 0.11455
H_ H_ 0.773519 0.179924 0.854722 0.11455
H_ H_ 0.875747 0.205944 0.964335 0.11455
H_ H_ 0.963697 0.19563 0.960576 0.11455
H_ H_ 0.948806 0.160208 0.869388 0.11455
H_ H_ 0.660363 0.018261 0.940674 0.11455
H_ H_ 0.654122 0.43374 0.843313 0.11455
H_ H_ 0.582735 0.0267286 0.859898 0.11455
H_ H_ 0.603271 0.431792 0.958033 0.11455
H_ H_ 0.599061 0.342079 0.953497 0.11455
H_ H_ 0.624363 0.348125 0.864422 0.11455
H_ H_ 0.577827 0.114163 0.967106 0.11455
H_ H_ 0.552822 0.0811072 0.510311 0.11455
H_ H_ 0.585425 0.12852 0.554107 0.11455
H_ H_ 0.685547 0.256706 0.971851 0.11455
H_ H_ 0.717959 0.298902 0.516428 0.11455
H_ H_ 0.682878 0.285228 0.563785 0.11455
H_ H_ 0.502887 0.20428 0.622346 0.11455
H_ H_ 0.489544 0.175805 0.67217 0.11455
H_ H_ 0.75323 0.160744 0.638228 0.11455
H_ H_ 0.741298 0.149535 0.687551 0.11455
H_ H_ 0.552582 0.0716502 0.751873 0.11455
H_ H_ 0.531216 0.0560524 0.799632 0.11455
H_ H_ 0.554672 0.116252 0.839514 0.11455
H_ H_ 0.651034 0.234286 0.755821 0.11455
H_ H_ 0.685665 0.280052 0.793383 0.11455
H_ H_ 0.66881 0.25599 0.842791 0.11455
H_ H_ 0.685899 0.300613 0.695531 0.11455
H_ H_ 0.617548 0.342173 0.599552 0.11455
H_ H_ 0.706975 0.328339 0.606731 0.11455
H_ H_ 0.594433 0.310694 0.715522 0.11455
H_ H_ 0.503456 0.302997 0.707253 0.11455
H_ H_ 0.528045 0.325727 0.617057 0.11455
H_ H_ 0.884551 0.483512 0.692715 0.11455
H_ H_ 0.883913 0.0668225 0.599495 0.11455
H_ H_ 0.828315 0.465857 0.607643 0.11455
H_ H_ 0.833046 0.0644057 0.713713 0.11455
H_ H_ 0.850289 0.157448 0.710106 0.11455
H_ H_ 0.888441 0.144994 0.624047 0.11455
H_ H_ 0.916814 0.378573 0.715504 0.11455
H_ H_ 0.926698 0.415291 0.763408 0.11455
H_ H_ 0.887129 0.37214 0.805201 0.11455
H_ H_ 0.788477 0.255175 0.724679 0.11455
H_ H_ 0.763315 0.200192 0.763177 0.11455
H_ H_ 0.787107 0.219775 0.81311 0.11455
H_ H_ 0.972611 0.300365 0.866134 0.11455
H_ H_ -0.013341999999999965 0.307069 0.920504 0.11455
H_ H_ 0.720479 0.336895 0.88945 0.11455
H_ H_ 0.73771 0.353148 0.940937 0.11455
H_ H_ 0.939635 0.406722 0.999012646 0.11455
H_ H_ 0.953782 0.433879 0.549725 0.11455
H_ H_ 0.920743 0.386465 0.588117 0.11455
H_ H_ 0.846495 0.256089 0.507782 0.11455
H_ H_ 0.808434 0.205676 0.549281 0.11455
H_ H_ 0.815615 0.238255 0.599205 0.11455
C_ C_ 0.718427 0.190284 0.904748 0.68181
C_ C_ 0.774519 0.18948 0.901801 -0.05681
C_ C_ 0.808395 0.191642 0.925633 -0.08735
C_ C_ 0.859439 0.18342 0.920986 -0.05681
C_ C_ 0.879296 0.177424 0.893464 -0.05681
C_ C_ 0.848283 0.181837 0.869661 -0.08735
C_ C_ 0.795628 0.18396 0.873161 -0.08735
C_ C_ 0.890605 0.183772 0.944819 -0.08735
C_ C_ 0.942877 0.188012 0.94096 -0.08735
C_ C_ 0.964774 0.181259 0.913869 -0.05681
C_ C_ 0.931029 0.170998 0.890302 -0.08735
C_ C_ 0.612605 0.283395 0.907909 0.68181
C_ C_ 0.625163 0.0870284 0.90049 0.68181
C_ C_ 0.621576 0.029523 0.900091 -0.05681
C_ C_ 0.629607 0.497274 0.915936 -0.08735
C_ C_ 0.620321 0.445747 0.913183 -0.05681
C_ C_ 0.628168 0.420972 0.88722 -0.05681
C_ C_ 0.6402 0.451496 0.862972 -0.08735
C_ C_ 0.646117 0.503585 0.865691 -0.08735
C_ C_ 0.606903 0.417469 0.937189 -0.08735
C_ C_ 0.605519 0.364953 0.935411 -0.08735
C_ C_ 0.611577 0.339169 0.908889 -0.05681
C_ C_ 0.618173 0.368181 0.884106 -0.08735
C_ C_ 0.52344 0.178467 0.907104 0.68181
C_ C_ 0.589307 0.140509 0.98266 0.1947
C_ C_ 0.58137 0.112898 0.50873 -0.08735
C_ C_ 0.59773 0.140542 0.532245 -0.08735
C_ C_ 0.62932 0.184053 0.528659 -0.05681
C_ C_ 0.644033 0.197263 0.500075 0.18498
C_ C_ 0.676218 0.248376 0.994364 -0.08735
C_ C_ 0.693289 0.267655 0.520032 -0.08735
C_ C_ 0.673476 0.259423 0.547427 -0.08735
C_ C_ 0.646723 0.214947 0.553167 0.18498
C_ C_ 0.679065 0.182515 0.598866 0.44287
C_ C_ 0.592567 0.205638 0.594514 0.44287
C_ C_ 0.582974 0.186517 0.621805 -0.05681
C_ C_ 0.534291 0.189631 0.633907 -0.08735
C_ C_ 0.528131 0.180044 0.664126 -0.08735
C_ C_ 0.568625 0.171628 0.681862 -0.05681
C_ C_ 0.617284 0.172179 0.669995 -0.05681
C_ C_ 0.625078 0.179467 0.640193 -0.05681
C_ C_ 0.673739 0.175085 0.628765 -0.05681
C_ C_ 0.715693 0.166173 0.646746 -0.08735
C_ C_ 0.706808 0.158378 0.674969 -0.08735
C_ C_ 0.659038 0.161058 0.687569 -0.05681
C_ C_ 0.651478 0.152339 0.718227 0.44287
C_ C_ 0.56338 0.166827 0.711782 0.44287
C_ C_ 0.594457 0.143493 0.760253 0.18498
C_ C_ 0.565128 0.0997252 0.768514 -0.08735
C_ C_ 0.551107 0.0901369 0.796078 -0.08735
C_ C_ 0.568274 0.123828 0.817685 -0.08735
C_ C_ 0.597771 0.16726 0.810877 0.18498
C_ C_ 0.611652 0.178381 0.782079 -0.05681
C_ C_ 0.641582 0.221414 0.775427 -0.08735
C_ C_ 0.661881 0.247268 0.797036 -0.08735
C_ C_ 0.652004 0.235483 0.82564 0.1947
C_ C_ 0.756781 0.316325 0.655373 0.68181
C_ C_ 0.701314 0.316487 0.650727 -0.05681
C_ C_ 0.669 0.314555 0.674411 -0.08735
C_ C_ 0.614811 0.312795 0.669855 -0.05681
C_ C_ 0.59536 0.315614 0.64133 -0.05681
C_ C_ 0.628575 0.324684 0.619447 -0.08735
C_ C_ 0.681176 0.327143 0.624106 -0.08735
C_ C_ 0.58102 0.312466 0.693399 -0.08735
C_ C_ 0.529398 0.306482 0.688743 -0.08735
C_ C_ 0.510602 0.314982 0.66054 -0.05681
C_ C_ 0.543576 0.321114 0.637687 -0.08735
C_ C_ 0.862571 0.212185 0.66215 0.68181
C_ C_ 0.856352 0.410549 0.650494 0.68181
C_ C_ 0.860171 0.466584 0.647548 -0.05681
C_ C_ 0.843659 -0.0025410000000000155 0.669295 -0.08735
C_ C_ 0.847632 0.0518467 0.66833 -0.05681
C_ C_ 0.866764 0.0749479 0.643303 -0.05681
C_ C_ 0.873932 0.0467641 0.618311 -0.08735
C_ C_ 0.847032 0.490345 0.621899 -0.08735
C_ C_ 0.841199 0.0824049 0.693526 -0.08735
C_ C_ 0.846798 0.134221 0.690983 -0.08735
C_ C_ 0.862487 0.156728 0.664866 -0.05681
C_ C_ 0.871518 0.126159 0.641872 -0.08735
C_ C_ 0.954292 0.30743 0.657452 0.68181
C_ C_ 0.889697 0.367997 0.731835 0.1947
C_ C_ 0.903265 0.381077 0.759923 -0.08735
C_ C_ 0.878032 0.358367 0.783659 -0.08735
C_ C_ 0.842261 0.32191 0.778928 -0.05681
C_ C_ 0.830448 0.307461 0.750782 0.18498
C_ C_ 0.798019 0.264786 0.745842 -0.08735
C_ C_ 0.782149 0.234475 0.767841 -0.08735
C_ C_ 0.798485 0.245064 0.795801 -0.08735
C_ C_ 0.828723 0.288388 0.801405 0.18498
C_ C_ 0.79489 0.314012 0.848479 0.44287
C_ C_ 0.882249 0.298733 0.843144 0.44287
C_ C_ 0.891831 0.312718 0.871342 -0.05681
C_ C_ 0.939708 0.310312 0.881625 -0.08735
C_ C_ 0.949713 0.313167 0.91166 -0.08735
C_ C_ 0.910235 0.322784 0.930592 -0.05681
C_ C_ 0.860643 0.329825 0.920206 -0.05681
C_ C_ 0.851518 0.32294 0.890052 -0.05681
C_ C_ 0.800467 0.323668 0.878903 -0.05681
C_ C_ 0.760338 0.333901 0.898344 -0.08735
C_ C_ 0.770288 0.33888 0.92802 -0.08735
C_ C_ 0.819501 0.338433 0.9394 -0.05681
C_ C_ 0.831527 0.348164 0.968351 0.44287
C_ C_ 0.91784 0.325171 0.960677 0.44287
C_ C_ 0.891055 0.345911 0.510755 0.18498
C_ C_ 0.916317 0.390491 0.517236 -0.08735
C_ C_ 0.930142 0.401815 0.544944 -0.08735
C_ C_ 0.907649 0.37617 0.567414 -0.08735
C_ C_ 0.880798 0.330989 0.563264 0.18498
C_ C_ 0.875696 0.313688 0.53465 -0.05681
C_ C_ 0.850837 0.267548 0.529719 -0.08735
C_ C_ 0.829115 0.241493 0.552374 -0.08735
C_ C_ 0.831184 0.261353 0.581148 0.1947
N_ N_ 0.620767 0.180759 0.977157 -0.29468
N_ N_ 0.639663 0.200433 0.583042 -0.17154
N_ N_ 0.603245 0.153526 0.728833 -0.17154
N_ N_ 0.620896 0.194595 0.832317 -0.29468
N_ N_ 0.853805 0.33232 0.727732 -0.29468
N_ N_ 0.835652 0.30435 0.831046 -0.17154
N_ N_ 0.877936 0.334354 0.978746 -0.17154
N_ N_ 0.858461 0.303886 0.585832 -0.29468
O_ O_ 0.698446 0.194191 0.929202 -0.58347
O_ O_ 0.690197 0.197462 0.882542 -0.58347
O_ O_ 0.61648 0.260083 0.931738 -0.58347
O_ O_ 0.607008 0.262603 0.884024 -0.58347
O_ O_ 0.630061 0.110637 0.924087 -0.58347
O_ O_ 0.623596 0.112701 0.87703 -0.58347
O_ O_ 0.552238 0.177961 0.92854 -0.58347
O_ O_ 0.540816 0.181704 0.881518 -0.58347
O_ O_ 0.556373 0.227642 0.580519 -0.46727
O_ O_ 0.720846 0.17454 0.584681 -0.46727
O_ O_ 0.519665 0.172212 0.724013 -0.46727
O_ O_ 0.690567 0.136193 0.73475 -0.46727
O_ O_ 0.773347 0.31027 0.679796 -0.58347
O_ O_ 0.787884 0.316832 0.63538 -0.58347
O_ O_ 0.856228 0.239154 0.684952 -0.58347
O_ O_ 0.864561 0.233504 0.63812 -0.58347
O_ O_ 0.851748 0.391516 0.675102 -0.58347
O_ O_ 0.864875 0.382821 0.628046 -0.58347
O_ O_ 0.924796 0.316271 0.67895 -0.58347
O_ O_ 0.936791 0.307848 0.632561 -0.58347
O_ O_ 0.916916 0.27793 0.828479 -0.46727
O_ O_ 0.749545 0.309652 0.837869 -0.46727
O_ O_ 0.957344 0.303277 0.971982 -0.46727
O_ O_ 0.796841 0.367367 0.985348 -0.46727
Zn Zn 0.642849 0.687109 0.382064 0.90689
Zn Zn 0.644533 0.677492 0.430818 0.90689
Zn Zn 0.876933 0.822037 0.129457 0.90689
Zn Zn 0.871063 0.825335 0.176316 0.90689
H_ H_ 0.815948 0.692405 0.448796 0.11455
H_ H_ 0.884702 0.67168 0.351161 0.11455
H_ H_ 0.792853 0.669319 0.358874 0.11455
H_ H_ 0.902698 0.66263 0.469567 0.11455
H_ H_ 0.994161 0.66471 0.464163 0.11455
H_ H_ 0.974053 0.665418 0.373419 0.11455
H_ H_ 0.665989 0.510612 0.436831 0.11455
H_ H_ 0.656131 0.935099 0.346627 0.11455
H_ H_ 0.6094 0.524406 0.351199 0.11455
H_ H_ 0.646741 0.933527 0.465359 0.11455
H_ H_ 0.63801 0.839416 0.462482 0.11455
H_ H_ 0.639171 0.848597 0.368524 0.11455
H_ H_ 0.60384 0.596598 0.465003 0.11455
H_ H_ 0.585487 0.574705 0.0131291 0.11455
H_ H_ 0.631463 0.617918 0.0552355 0.11455
H_ H_ 0.713237 0.744488 0.472442 0.11455
H_ H_ 0.709622 0.81462 0.0144012 0.11455
H_ H_ 0.685717 0.789512 0.0639119 0.11455
H_ H_ 0.519203 0.682693 0.121131 0.11455
H_ H_ 0.508089 0.6783 0.175099 0.11455
H_ H_ 0.773021 0.678375 0.138269 0.11455
H_ H_ 0.758792 0.655771 0.188174 0.11455
H_ H_ 0.567738 0.582357 0.251099 0.11455
H_ H_ 0.534564 0.576372 0.301785 0.11455
H_ H_ 0.568825 0.627932 0.338961 0.11455
H_ H_ 0.675157 0.734851 0.254378 0.11455
H_ H_ 0.708791 0.787842 0.293835 0.11455
H_ H_ 0.695738 0.756586 0.345647 0.11455
H_ H_ 0.704087 0.820481 0.193212 0.11455
H_ H_ 0.631099 0.828975 0.0978964 0.11455
H_ H_ 0.722192 0.835464 0.102407 0.11455
H_ H_ 0.621858 0.791453 0.214139 0.11455
H_ H_ 0.528345 0.787634 0.2065 0.11455
H_ H_ 0.550995 0.826908 0.118297 0.11455
H_ H_ 0.862906 0.990655 0.191003 0.11455
H_ H_ 0.858325 0.567571 0.0925131 0.11455
H_ H_ 0.886571 0.982862 0.0985843 0.11455
H_ H_ 0.922901 0.57053 0.206768 0.11455
H_ H_ 0.935597 0.660407 0.200202 0.11455
H_ H_ 0.862847 0.651634 0.115227 0.11455
H_ H_ 0.922008 0.900455 0.209338 0.11455
H_ H_ 0.953819 0.921739 0.255866 0.11455
H_ H_ 0.921758 0.877536 0.300153 0.11455
H_ H_ 0.819119 0.758418 0.219993 0.11455
H_ H_ 0.800878 0.700413 0.260306 0.11455
H_ H_ 0.83812 0.714049 0.309242 0.11455
H_ H_ 1.0109725 0.794746 0.373807 0.11455
H_ H_ 0.0134904 0.800266 0.425998 0.11455
H_ H_ 0.754086 0.821217 0.379899 0.11455
H_ H_ 0.760759 0.836213 0.432142 0.11455
H_ H_ 0.926917 0.910548 0.497919 0.11455
H_ H_ 0.973022 0.938049 0.0446947 0.11455
H_ H_ 0.944283 0.888938 0.0850209 0.11455
H_ H_ 0.865386 0.753562 0.00769289 0.11455
H_ H_ 0.816053 0.720261 0.0483805 0.11455
H_ H_ 0.822122 0.754882 0.0960057 0.11455
C_ C_ 0.743754 0.685324 0.408661 0.68181
C_ C_ 0.799167 0.673882 0.404928 -0.05681
C_ C_ 0.831186 0.678211 0.429142 -0.08735
C_ C_ 0.883446 0.674965 0.42617 -0.05681
C_ C_ 0.90545 0.67537 0.397528 -0.05681
C_ C_ 0.872617 0.673306 0.372178 -0.08735
C_ C_ 0.819499 0.668854 0.376759 -0.08735
C_ C_ 0.917146 0.674019 0.449442 -0.08735
C_ C_ 0.971744 0.674492 0.4454 -0.08735
C_ C_ 0.991922 0.677652 0.417066 -0.05681
C_ C_ 0.958256 0.678324 0.393483 -0.08735
C_ C_ 0.637883 0.77951 0.414622 0.68181
C_ C_ 0.646353 0.581195 0.397305 0.68181
C_ C_ 0.64519 0.524445 0.393992 -0.05681
C_ C_ 0.646879 0.995665 0.421557 -0.08735
C_ C_ 0.644872 0.944021 0.418533 -0.05681
C_ C_ 0.645769 0.920203 0.391463 -0.05681
C_ C_ 0.651458 0.951204 0.367403 -0.08735
C_ C_ 0.650269 1.00379509 0.370987 -0.08735
C_ C_ 0.638999 0.914383 0.444273 -0.08735
C_ C_ 0.642302 0.862031 0.44248 -0.08735
C_ C_ 0.638908 0.837342 0.415324 -0.05681
C_ C_ 0.644373 0.866698 0.390176 -0.08735
C_ C_ 0.545459 0.676208 0.408453 0.68181
C_ C_ 0.615237 0.622884 0.481889 0.1947
C_ C_ 0.608059 0.609255 0.010505 -0.08735
C_ C_ 0.633523 0.63138 0.0342991 -0.08735
C_ C_ 0.65464 0.679039 0.0298803 -0.05681
C_ C_ 0.661068 0.695525 1.000882453 0.18498
C_ C_ 0.692847 0.73891 0.493221 -0.08735
C_ C_ 0.689052 0.777788 0.0186269 -0.08735
C_ C_ 0.681681 0.761687 0.0466335 -0.08735
C_ C_ 0.662762 0.713792 0.0525203 0.18498
C_ C_ 0.69939 0.689471 0.0994339 0.44287
C_ C_ 0.610135 0.691163 0.0932759 0.44287
C_ C_ 0.601632 0.680309 0.122751 -0.05681
C_ C_ 0.551664 0.679735 0.134727 -0.08735
C_ C_ 0.545456 0.675153 0.165015 -0.08735
C_ C_ 0.588515 0.669534 0.182636 -0.05681
C_ C_ 0.637076 0.671104 0.171001 -0.05681
C_ C_ 0.644673 0.676074 0.14041 -0.05681
C_ C_ 0.694068 0.682787 0.128312 -0.05681
C_ C_ 0.734107 0.677373 0.14762 -0.08735
C_ C_ 0.726069 0.669952 0.177184 -0.08735
C_ C_ 0.678447 0.664064 0.189376 -0.05681
C_ C_ 0.671747 0.654217 0.218799 0.44287
C_ C_ 0.581867 0.662864 0.212775 0.44287
C_ C_ 0.615454 0.647762 0.261315 0.18498
C_ C_ 0.586719 0.605807 0.268976 -0.08735
C_ C_ 0.568161 0.599745 0.297601 -0.08735
C_ C_ 0.588937 0.630051 0.319169 -0.08735
C_ C_ 0.625878 0.667482 0.312784 0.18498
C_ C_ 0.637433 0.678753 0.283288 -0.05681
C_ C_ 0.668751 0.72163 0.276888 -0.08735
C_ C_ 0.688645 0.750565 0.298883 -0.08735
C_ C_ 0.674834 0.739454 0.327836 0.1947
C_ C_ 0.777707 0.821421 0.152941 0.68181
C_ C_ 0.721143 0.824455 0.150118 -0.05681
C_ C_ 0.691665 0.811606 0.173478 -0.08735
C_ C_ 0.63931 0.803971 0.169144 -0.05681
C_ C_ 0.618441 0.806729 0.140887 -0.05681
C_ C_ 0.649016 0.819522 0.117589 -0.08735
C_ C_ 0.701622 0.824104 0.120867 -0.08735
C_ C_ 0.606872 0.795378 0.192729 -0.08735
C_ C_ 0.554284 0.793534 0.188375 -0.08735
C_ C_ 0.53124 0.801547 0.160434 -0.05681
C_ C_ 0.565231 0.809871 0.137891 -0.08735
C_ C_ 0.888275 0.722217 0.158458 0.68181
C_ C_ 0.876846 0.922324 0.14665 0.68181
C_ C_ 0.876866 0.979563 0.145468 -0.05681
C_ C_ 0.888429 0.505259 0.166572 -0.08735
C_ C_ 0.898126 0.557979 0.162716 -0.05681
C_ C_ 0.876269 0.582115 0.137235 -0.05681
C_ C_ 0.86873 0.551788 0.112631 -0.08735
C_ C_ 0.884986 1.00399116 0.118425 -0.08735
C_ C_ 0.913171 0.58757 0.186251 -0.08735
C_ C_ 0.914755 0.639954 0.183378 -0.08735
C_ C_ 0.889905 0.664914 0.159845 -0.05681
C_ C_ 0.875481 0.633926 0.135524 -0.08735
C_ C_ 0.974942 0.825441 0.14988 0.68181
C_ C_ 0.910574 0.877063 0.227872 0.1947
C_ C_ 0.925005 0.892638 0.254454 -0.08735
C_ C_ 0.907219 0.865798 0.278502 -0.08735
C_ C_ 0.878448 0.821942 0.274956 -0.05681
C_ C_ 0.860972 0.810963 0.24623 0.18498
C_ C_ 0.831017 0.768983 0.241617 -0.08735
C_ C_ 0.82592 0.733714 0.264618 -0.08735
C_ C_ 0.843815 0.742861 0.292778 -0.08735
C_ C_ 0.868608 0.787533 0.298532 0.18498
C_ C_ 0.83299 0.813115 0.34289 0.44287
C_ C_ 0.922707 0.79648 0.341727 0.44287
C_ C_ 0.927618 0.807485 0.3704 -0.05681
C_ C_ 0.976014 0.804268 0.385426 -0.08735
C_ C_ 0.978709 0.80907 0.415022 -0.08735
C_ C_ 0.933239 0.818211 0.430883 -0.05681
C_ C_ 0.885305 0.816177 0.416622 -0.05681
C_ C_ 0.883189 0.813228 0.386757 -0.05681
C_ C_ 0.835124 0.814288 0.374033 -0.05681
C_ C_ 0.79113 0.820001 0.390544 -0.08735
C_ C_ 0.794164 0.828967 0.419846 -0.08735
C_ C_ 0.841493 0.824604 0.433855 -0.05681
C_ C_ 0.847235 0.82832 0.464184 0.44287
C_ C_ 0.934851 0.822594 0.461347 0.44287
C_ C_ 0.911568 0.84522 0.00811709 0.18498
C_ C_ 0.94035 0.890398 0.0130466 -0.08735
C_ C_ 0.950457 0.904781 0.041192 -0.08735
C_ C_ 0.931836 0.877277 0.0645061 -0.08735
C_ C_ 0.896781 0.839373 0.0598858 0.18498
C_ C_ 0.890702 0.81987 0.0328488 -0.05681
C_ C_ 0.860975 0.775998 0.0281979 -0.08735
C_ C_ 0.833837 0.756239 0.0511454 -0.08735
C_ C_ 0.841102 0.775492 0.0783849 0.1947
N_ N_ 0.641897 0.666348 0.477412 -0.29468
N_ N_ 0.659226 0.69697 0.0818787 -0.17154
N_ N_ 0.623323 0.655995 0.230395 -0.17154
N_ N_ 0.646506 0.696938 0.333541 -0.29468
N_ N_ 0.875024 0.840488 0.223859 -0.29468
N_ N_ 0.876965 0.802074 0.327735 -0.17154
N_ N_ 0.892842 0.828425 0.478022 -0.17154
N_ N_ 0.873736 0.814462 0.0828176 -0.29468
O_ O_ 0.7199 0.679173 0.431343 -0.58347
O_ O_ 0.717235 0.692914 0.385682 -0.58347
O_ O_ 0.637539 0.752891 0.437429 -0.58347
O_ O_ 0.640398 0.75951 0.39098 -0.58347
O_ O_ 0.6529 0.601118 0.421791 -0.58347
O_ O_ 0.638128 0.609013 0.375909 -0.58347
O_ O_ 0.573424 0.674398 0.430522 -0.58347
O_ O_ 0.568344 0.679166 0.384216 -0.58347
O_ O_ 0.570606 0.70448 0.0773043 -0.46727
O_ O_ 0.745011 0.688547 0.0869351 -0.46727
O_ O_ 0.535635 0.663301 0.224463 -0.46727
O_ O_ 0.710399 0.648033 0.236657 -0.46727
O_ O_ 0.797176 0.817861 0.177749 -0.58347
O_ O_ 0.803864 0.830202 0.131754 -0.58347
O_ O_ 0.883312 0.746908 0.181555 -0.58347
O_ O_ 0.878762 0.745098 0.134968 -0.58347
O_ O_ 0.861931 0.900954 0.168926 -0.58347
O_ O_ 0.883464 0.896135 0.12504 -0.58347
O_ O_ 0.947119 0.83592 0.171896 -0.58347
O_ O_ 0.955655 0.81642 0.126441 -0.58347
O_ O_ 0.961687 0.775819 0.330105 -0.46727
O_ O_ 0.790689 0.822552 0.329053 -0.46727
O_ O_ 0.980997 0.821568 0.473246 -0.46727
O_ O_ 0.80645 0.831164 0.479038 -0.46727
Zn Zn 0.63092 0.685905 0.882116 0.90689
Zn Zn 0.644275 0.678697 0.931114 0.90689
Zn Zn 0.871255 0.811276 0.629429 0.90689
Zn Zn 0.863243 0.817763 0.677272 0.90689
H_ H_ 0.807753 0.709274 0.944484 0.11455
H_ H_ 0.878065 0.657874 0.850217 0.11455
H_ H_ 0.785917 0.680163 0.857082 0.11455
H_ H_ 0.896582 0.721194 0.962865 0.11455
H_ H_ 0.986441 0.715328 0.957107 0.11455
H_ H_ 0.965451 0.684495 0.868513 0.11455
H_ H_ 0.631591 0.513458 0.936573 0.11455
H_ H_ 0.589692 0.933898 0.853803 0.11455
H_ H_ 0.661357 0.52281 0.847274 0.11455
H_ H_ 0.663005 0.931125 0.964178 0.11455
H_ H_ 0.667712 0.841734 0.959603 0.11455
H_ H_ 0.611126 0.854604 0.87377 0.11455
H_ H_ 0.597652 0.606997 0.965277 0.11455
H_ H_ 0.570466 0.582226 0.513152 0.11455
H_ H_ 0.593895 0.64167 0.552018 0.11455
H_ H_ 0.706472 0.745336 0.976632 0.11455
H_ H_ 0.733397 0.80303 0.509203 0.11455
H_ H_ 0.695859 0.792321 0.558269 0.11455
H_ H_ 0.517454 0.719013 0.622126 0.11455
H_ H_ 0.510506 0.707742 0.672556 0.11455
H_ H_ 0.767195 0.680324 0.634887 0.11455
H_ H_ 0.758731 0.67311 0.686867 0.11455
H_ H_ 0.587542 0.589005 0.748725 0.11455
H_ H_ 0.550326 0.574183 0.793444 0.11455
H_ H_ 0.565847 0.63027 0.836427 0.11455
H_ H_ 0.656501 0.761055 0.759639 0.11455
H_ H_ 0.700527 0.79457 0.800569 0.11455
H_ H_ 0.67746 0.766299 0.848394 0.11455
H_ H_ 0.691819 0.810884 0.693784 0.11455
H_ H_ 0.623983 0.839444 0.5963 0.11455
H_ H_ 0.714743 0.840794 0.603326 0.11455
H_ H_ 0.61383 0.819684 0.71349 0.11455
H_ H_ 0.521829 0.800698 0.709253 0.11455
H_ H_ 0.536577 0.830641 0.617915 0.11455
H_ H_ 0.829147 0.980944 0.688573 0.11455
H_ H_ 0.831031 0.558948 0.600623 0.11455
H_ H_ 0.879585 0.974035 0.600594 0.11455
H_ H_ 0.897246 0.567878 0.713009 0.11455
H_ H_ 0.904838 0.658042 0.705858 0.11455
H_ H_ 0.858763 0.642498 0.616125 0.11455
H_ H_ 0.910283 0.899006 0.714178 0.11455
H_ H_ 0.897986 0.938793 0.760423 0.11455
H_ H_ 0.867465 0.887905 0.802369 0.11455
H_ H_ 0.810441 0.748006 0.722761 0.11455
H_ H_ 0.778742 0.697199 0.764563 0.11455
H_ H_ 0.798519 0.722064 0.811587 0.11455
H_ H_ 0.984841 0.799731 0.866668 0.11455
H_ H_ 1.00137587 0.808572 0.91686 0.11455
H_ H_ 0.741516 0.84839 0.888953 0.11455
H_ H_ 0.757612 0.863227 0.942466 0.11455
H_ H_ 0.955373 0.912028 0.994912 0.11455
H_ H_ 0.948116 0.935479 0.547925 0.11455
H_ H_ 0.935353 0.872344 0.58454 0.11455
H_ H_ 0.858014 0.748491 0.5023 0.11455
H_ H_ 0.818657 0.6945 0.541162 0.11455
H_ H_ 0.828566 0.724031 0.590447 0.11455
C_ C_ 0.734875 0.683144 0.906995 0.68181
C_ C_ 0.790605 0.688328 0.9027 -0.05681
C_ C_ 0.823783 0.70041 0.924202 -0.08735
C_ C_ 0.876634 0.694428 0.920673 -0.05681
C_ C_ 0.897101 0.679683 0.893127 -0.05681
C_ C_ 0.862776 0.67306 0.870199 -0.08735
C_ C_ 0.809589 0.681256 0.874889 -0.08735
C_ C_ 0.910817 0.704577 0.944023 -0.08735
C_ C_ 0.961829 0.697707 0.940668 -0.08735
C_ C_ 0.984217 0.686857 0.913943 -0.05681
C_ C_ 0.951323 0.679993 0.889909 -0.08735
C_ C_ 0.633532 0.782642 0.915767 0.68181
C_ C_ 0.638805 0.583624 0.896496 0.68181
C_ C_ 0.638809 0.527124 0.892449 -0.05681
C_ C_ 0.642219 -0.0014929999999999666 0.922401 -0.08735
C_ C_ 0.636662 0.944606 0.92094 -0.05681
C_ C_ 0.622152 0.921508 0.895878 -0.05681
C_ C_ 0.603485 0.951812 0.873709 -0.08735
C_ C_ 0.600577 0.00385747 0.876682 -0.08735
C_ C_ 0.647757 0.9137 0.943759 -0.08735
C_ C_ 0.649221 0.862153 0.942674 -0.08735
C_ C_ 0.635594 0.838552 0.91678 -0.05681
C_ C_ 0.613927 0.868051 0.894927 -0.08735
C_ C_ 0.540615 0.676302 0.909269 0.68181
C_ C_ 0.614351 0.628478 0.983569 0.1947
C_ C_ 0.600082 0.611362 0.50966 -0.08735
C_ C_ 0.612495 0.643704 0.532374 -0.08735
C_ C_ 0.641683 0.687166 0.527406 -0.05681
C_ C_ 0.658539 0.69666 0.499044 0.18498
C_ C_ 0.684132 0.742299 0.996247 -0.08735
C_ C_ 0.707654 0.769388 0.515027 -0.08735
C_ C_ 0.684763 0.765929 0.541348 -0.08735
C_ C_ 0.656314 0.722065 0.548758 0.18498
C_ C_ 0.690069 0.69296 0.594724 0.44287
C_ C_ 0.603757 0.715995 0.591695 0.44287
C_ C_ 0.598012 0.705375 0.620673 -0.05681
C_ C_ 0.549995 0.706207 0.633834 -0.08735
C_ C_ 0.546895 0.699705 0.663072 -0.08735
C_ C_ 0.589147 0.691039 0.680703 -0.05681
C_ C_ 0.637477 0.688009 0.668019 -0.05681
C_ C_ 0.639444 0.691978 0.638175 -0.05681
C_ C_ 0.686101 0.688284 0.625161 -0.05681
C_ C_ 0.729115 0.679932 0.643281 -0.08735
C_ C_ 0.725186 0.676534 0.672722 -0.08735
C_ C_ 0.679984 0.682037 0.686004 -0.05681
C_ C_ 0.672613 0.683883 0.716216 0.44287
C_ C_ 0.583988 0.688469 0.711159 0.44287
C_ C_ 0.615998 0.66353 0.757733 0.18498
C_ C_ 0.58852 0.61851 0.764004 -0.08735
C_ C_ 0.570672 0.608181 0.791273 -0.08735
C_ C_ 0.579491 0.640033 0.814236 -0.08735
C_ C_ 0.610181 0.682068 0.810795 0.18498
C_ C_ 0.62447 0.695278 0.781279 -0.05681
C_ C_ 0.654485 0.740765 0.778638 -0.08735
C_ C_ 0.674573 0.764036 0.802954 -0.08735
C_ C_ 0.662502 0.746192 0.830596 0.1947
C_ C_ 0.767607 0.815592 0.651947 0.68181
C_ C_ 0.711211 0.824351 0.648752 -0.05681
C_ C_ 0.678954 0.823038 0.673288 -0.08735
C_ C_ 0.626031 0.825109 0.67016 -0.05681
C_ C_ 0.606039 0.832657 0.642749 -0.05681
C_ C_ 0.637542 0.837424 0.618062 -0.08735
C_ C_ 0.690001 0.837339 0.622177 -0.08735
C_ C_ 0.596399 0.817546 0.693461 -0.08735
C_ C_ 0.543759 0.811965 0.690928 -0.08735
C_ C_ 0.520607 0.82041 0.663639 -0.05681
C_ C_ 0.552945 0.827943 0.640006 -0.08735
C_ C_ 0.877576 0.714513 0.661115 0.68181
C_ C_ 0.861718 0.911252 0.646753 0.68181
C_ C_ 0.85747 0.968024 0.644815 -0.05681
C_ C_ 0.874164 0.499228 0.670732 -0.08735
C_ C_ 0.87489 0.55353 0.668639 -0.05681
C_ C_ 0.864767 0.575035 0.642233 -0.05681
C_ C_ 0.845277 0.544099 0.62015 -0.08735
C_ C_ 0.873627 0.993822 0.620515 -0.08735
C_ C_ 0.886852 0.58476 0.691877 -0.08735
C_ C_ 0.892288 0.63588 0.687932 -0.08735
C_ C_ 0.875895 0.659457 0.662578 -0.05681
C_ C_ 0.867018 0.626951 0.637934 -0.08735
C_ C_ 0.965892 0.816593 0.652841 0.68181
C_ C_ 0.892251 0.875167 0.731517 0.1947
C_ C_ 0.891475 0.898127 0.758788 -0.08735
C_ C_ 0.864478 0.873129 0.781275 -0.08735
C_ C_ 0.847973 0.823614 0.776833 -0.05681
C_ C_ 0.842378 0.80592 0.748091 0.18498
C_ C_ 0.819982 0.75885 0.743628 -0.08735
C_ C_ 0.803557 0.730235 0.767377 -0.08735
C_ C_ 0.811933 0.745904 0.795367 -0.08735
C_ C_ 0.833888 0.79439 0.800028 0.18498
C_ C_ 0.809271 0.825508 0.847954 0.44287
C_ C_ 0.893722 0.8049 0.840352 0.44287
C_ C_ 0.904913 0.813527 0.869572 -0.05681
C_ C_ 0.955537 0.809867 0.879794 -0.08735
C_ C_ 0.962993 0.81471 0.908861 -0.08735
C_ C_ 0.925749 0.823853 0.928882 -0.05681
C_ C_ 0.876043 0.830943 0.91787 -0.05681
C_ C_ 0.865665 0.823848 0.888769 -0.05681
C_ C_ 0.816642 0.830714 0.878 -0.05681
C_ C_ 0.777213 0.844883 0.897441 -0.08735
C_ C_ 0.787191 0.849708 0.9275 -0.08735
C_ C_ 0.836482 0.83542 0.938223 -0.05681
C_ C_ 0.848859 0.84206 0.967725 0.44287
C_ C_ 0.934831 0.821102 0.959857 0.44287
C_ C_ 0.895134 0.842522 0.508588 0.18498
C_ C_ 0.917122 0.887872 0.515854 -0.08735
C_ C_ 0.928175 0.901315 0.54414 -0.08735
C_ C_ 0.919235 0.865856 0.565523 -0.08735
C_ C_ 0.889042 0.821742 0.558942 0.18498
C_ C_ 0.881139 0.807987 0.530118 -0.05681
C_ C_ 0.859035 0.761277 0.524106 -0.08735
C_ C_ 0.835951 0.732343 0.545116 -0.08735
C_ C_ 0.844047 0.748378 0.573662 0.1947
N_ N_ 0.649434 0.664633 0.97817 -0.29468
N_ N_ 0.649451 0.711767 0.579349 -0.17154
N_ N_ 0.624905 0.679109 0.72815 -0.17154
N_ N_ 0.632692 0.704461 0.834005 -0.29468
N_ N_ 0.866394 0.830606 0.72649 -0.29468
N_ N_ 0.845606 0.809387 0.829661 -0.17154
N_ N_ 0.896795 0.833033 0.978133 -0.17154
N_ N_ 0.869748 0.791298 0.580818 -0.29468
O_ O_ 0.71833 0.673151 0.931155 -0.58347
O_ O_ 0.704234 0.696738 0.886976 -0.58347
O_ O_ 0.648333 0.755873 0.936768 -0.58347
O_ O_ 0.620337 0.759563 0.892284 -0.58347
O_ O_ 0.639651 0.604599 0.921434 -0.58347
O_ O_ 0.643669 0.609803 0.874689 -0.58347
O_ O_ 0.569907 0.68054 0.930622 -0.58347
O_ O_ 0.558738 0.672908 0.883649 -0.58347
O_ O_ 0.566178 0.733093 0.57623 -0.46727
O_ O_ 0.730233 0.681657 0.581285 -0.46727
O_ O_ 0.538262 0.691057 0.722998 -0.46727
O_ O_ 0.710665 0.674893 0.733971 -0.46727
O_ O_ 0.788225 0.806698 0.676108 -0.58347
O_ O_ 0.795099 0.813719 0.629042 -0.58347
O_ O_ 0.876496 0.741366 0.68288 -0.58347
O_ O_ 0.874766 0.736099 0.636491 -0.58347
O_ O_ 0.85022 0.890349 0.671102 -0.58347
O_ O_ 0.87668 0.88532 0.625236 -0.58347
O_ O_ 0.938733 0.829877 0.673752 -0.58347
O_ O_ 0.947817 0.813479 0.627057 -0.58347
O_ O_ 0.927434 0.785944 0.822308 -0.46727
O_ O_ 0.761603 0.820409 0.839738 -0.46727
O_ O_ 0.981201 0.818066 0.969318 -0.46727
O_ O_ 0.811304 0.845453 0.98556 -0.46727
_cell_length_a 26.376
_cell_length_b 26.400000238300095
_cell_length_c 46.67800035477134
_cell_angle_alpha 90.00700052986613
_cell_angle_beta 89.99899961309502
_cell_angle_gamma 90.45000003183146
_symmetry_space_group_name_H-M         'P 1'
_symmetry_Int_Tables_number            1
loop_
_symmetry_equiv_pos_as_xyz
   'x, y, z'
                         
loop_
_atom_site_label
_atom_site_type_symbol
_atom_site_fract_x 
_atom_site_fract_y
_atom_site_fract_z
_atom_site_charge
Zn Zn 0.130959 0.188395 0.382324 0.90689
Zn Zn 0.141996 0.183795 0.430034 0.90689
Zn Zn 0.372339 0.30965 0.1327 0.90689
Zn Zn 0.36697 0.316274 0.179799 0.90689
H_ H_ 0.309722 0.178785 0.446764 0.11455
H_ H_ 0.368018 0.175913 0.345276 0.11455
H_ H_ 0.281889 0.189649 0.354677 0.11455
H_ H_ 0.398485 0.164629 0.462446 0.11455
H_ H_ 0.482853 0.160455 0.452445 0.11455
H_ H_ 0.459498 0.189552 0.364328 0.11455
H_ H_ 0.165092 0.0150062 0.445046 0.11455
H_ H_ 0.15539 0.437672 0.349791 0.11455
H_ H_ 0.13861 0.0324421 0.355305 0.11455
H_ H_ 0.130035 0.430613 0.467614 0.11455
H_ H_ 0.119999 0.339998 0.461926 0.11455
H_ H_ 0.143375 0.352371 0.370246 0.11455
H_ H_ 0.0933923 0.101264 0.462617 0.11455
H_ H_ 0.0478202 0.0897791 0.0182386 0.11455
H_ H_ 0.0925903 0.134097 0.0587162 0.11455
H_ H_ 0.191505 0.250794 0.479395 0.11455
H_ H_ 0.20801 0.304992 0.0131457 0.11455
H_ H_ 0.179411 0.295017 0.0624515 0.11455
H_ H_ 0.00031000000000003247 0.228183 0.124307 0.11455
H_ H_ -0.014699000000000018 0.211504 0.176647 0.11455
H_ H_ 0.248144 0.183351 0.139325 0.11455
H_ H_ 0.232445 0.149482 0.186829 0.11455
H_ H_ 0.0387812 0.102511 0.252026 0.11455
H_ H_ 0.0190937 0.0821298 0.302574 0.11455
H_ H_ 0.0682332 0.126423 0.340952 0.11455
H_ H_ 0.158327 0.238558 0.254223 0.11455
H_ H_ 0.203027 0.28448 0.294612 0.11455
H_ H_ 0.190824 0.255618 0.3425 0.11455
H_ H_ 0.189686 0.306308 0.197842 0.11455
H_ H_ 0.129862 0.34608 0.100403 0.11455
H_ H_ 0.22079 0.328969 0.109914 0.11455
H_ H_ 0.102988 0.310906 0.215444 0.11455
H_ H_ 0.013693 0.30514 0.201854 0.11455
H_ H_ 0.0423853 0.342401 0.11712 0.11455
H_ H_ 0.379899 0.479599 0.188413 0.11455
H_ H_ 0.354505 0.0592646 0.0970476 0.11455
H_ H_ 0.352858 0.468762 0.0977427 0.11455
H_ H_ 0.411867 0.0638245 0.212332 0.11455
H_ H_ 0.417389 0.155894 0.2063 0.11455
H_ H_ 0.352519 0.144879 0.120735 0.11455
H_ H_ 0.423318 0.393757 0.219365 0.11455
H_ H_ 0.418565 0.428119 0.266479 0.11455
H_ H_ 0.38254 0.375253 0.30659 0.11455
H_ H_ 0.304764 0.254438 0.220228 0.11455
H_ H_ 0.270083 0.202437 0.258305 0.11455
H_ H_ 0.308665 0.211864 0.306277 0.11455
H_ H_ 0.474465 0.298665 0.373203 0.11455
H_ H_ 0.482521 0.297035 0.425204 0.11455
H_ H_ 0.221087 0.321384 0.383523 0.11455
H_ H_ 0.227717 0.333417 0.435313 0.11455
H_ H_ 0.419611 0.387047 0.497437 0.11455
H_ H_ 0.44635 0.428208 0.0464505 0.11455
H_ H_ 0.418347 0.379583 0.0868557 0.11455
H_ H_ 0.307034 0.266429 0.0115829 0.11455
H_ H_ 0.296375 0.206089 0.0498394 0.11455
H_ H_ 0.327144 0.228519 0.0988864 0.11455
C_ C_ 0.232758 0.185188 0.406151 0.68181
C_ C_ 0.288405 0.184825 0.402329 -0.05681
C_ C_ 0.322292 0.178973 0.424502 -0.08735
C_ C_ 0.373489 0.173188 0.417973 -0.05681
C_ C_ 0.392189 0.176592 0.389102 -0.05681
C_ C_ 0.358623 0.182145 0.367228 -0.08735
C_ C_ 0.307268 0.184478 0.373067 -0.08735
C_ C_ 0.408606 0.16736 0.440536 -0.08735
C_ C_ 0.458947 0.16987 0.435935 -0.08735
C_ C_ 0.479552 0.178611 0.40858 -0.05681
C_ C_ 0.445221 0.18007 0.385832 -0.08735
C_ C_ 0.131023 0.281646 0.411482 0.68181
C_ C_ 0.146961 0.0863333 0.402576 0.68181
C_ C_ 0.147048 0.0311493 0.40099 -0.05681
C_ C_ 0.136525 0.499316 0.425088 -0.08735
C_ C_ 0.137618 0.445702 0.422839 -0.05681
C_ C_ 0.143079 0.423832 0.394823 -0.05681
C_ C_ 0.149744 0.455294 0.37058 -0.08735
C_ C_ 0.147638 0.508713 0.37313 -0.08735
C_ C_ 0.129158 0.413705 0.445842 -0.08735
C_ C_ 0.122775 0.361896 0.440881 -0.08735
C_ C_ 0.132604 0.338188 0.414764 -0.05681
C_ C_ 0.140647 0.37015 0.391231 -0.08735
C_ C_ 0.0361146 0.177906 0.405715 0.68181
C_ C_ 0.105331 0.123019 0.481106 0.1947
C_ C_ 0.0766569 0.117541 0.0154091 -0.08735
C_ C_ 0.0940244 0.148436 0.0372788 -0.08735
C_ C_ 0.125985 0.190428 0.0315832 -0.05681
C_ C_ 0.137986 0.200265 1.00251199 0.18498
C_ C_ 0.179141 0.234206 0.500118 -0.08735
C_ C_ 0.18625 0.273038 0.0186388 -0.08735
C_ C_ 0.171167 0.265632 0.0459815 -0.08735
C_ C_ 0.142614 0.224084 0.0535387 0.18498
C_ C_ 0.174256 0.198523 0.0998506 0.44287
C_ C_ 0.0862663 0.216503 0.0948893 0.44287
C_ C_ 0.0776856 0.206437 0.124732 -0.05681
C_ C_ 0.030966 0.21499 0.137318 -0.08735
C_ C_ 0.0231231 0.208727 0.167111 -0.08735
C_ C_ 0.0657942 0.196543 0.184381 -0.05681
C_ C_ 0.112746 0.189166 0.171265 -0.05681
C_ C_ 0.118637 0.196072 0.14143 -0.05681
C_ C_ 0.166906 0.190713 0.129472 -0.05681
C_ C_ 0.209155 0.179505 0.147533 -0.08735
C_ C_ 0.201642 0.166861 0.175542 -0.08735
C_ C_ 0.151577 0.170281 0.187612 -0.05681
C_ C_ 0.142426 0.159155 0.216391 0.44287
C_ C_ 0.0613733 0.193749 0.214572 0.44287
C_ C_ 0.0935047 0.161574 0.260795 0.18498
C_ C_ 0.0572939 0.123808 0.26847 -0.08735
C_ C_ 0.0467357 0.110794 0.297059 -0.08735
C_ C_ 0.0697537 0.139874 0.319524 -0.08735
C_ C_ 0.107014 0.177921 0.31202 0.18498
C_ C_ 0.118296 0.187404 0.2825 -0.05681
C_ C_ 0.151886 0.2266 0.276313 -0.08735
C_ C_ 0.178189 0.251466 0.297567 -0.08735
C_ C_ 0.168995 0.238265 0.325977 0.1947
C_ C_ 0.268768 0.308304 0.158164 0.68181
C_ C_ 0.213043 0.315573 0.15418 -0.05681
C_ C_ 0.178174 0.315624 0.176495 -0.08735
C_ C_ 0.126784 0.325078 0.171443 -0.05681
C_ C_ 0.1085 0.338075 0.144224 -0.05681
C_ C_ 0.143745 0.341018 0.121627 -0.08735
C_ C_ 0.193659 0.327713 0.126664 -0.08735
C_ C_ 0.0915176 0.317897 0.193491 -0.08735
C_ C_ 0.0386662 0.323663 0.188043 -0.08735
C_ C_ 0.02161 0.332128 0.160236 -0.05681
C_ C_ 0.0553377 0.340717 0.138442 -0.08735
C_ C_ 0.377206 0.214719 0.163147 0.68181
C_ C_ 0.355266 0.412625 0.146952 0.68181
C_ C_ 0.360009 0.469614 0.143423 -0.05681
C_ C_ 0.382273 -0.002986000000000044 0.1716 -0.08735
C_ C_ 0.384131 0.0514873 0.168127 -0.05681
C_ C_ 0.371924 0.0746722 0.142842 -0.05681
C_ C_ 0.360519 0.0433973 0.118235 -0.08735
C_ C_ 0.357925 0.492989 0.116677 -0.08735
C_ C_ 0.399233 0.0810909 0.19242 -0.08735
C_ C_ 0.398185 0.134838 0.190334 -0.08735
C_ C_ 0.380337 0.15887 0.165309 -0.05681
C_ C_ 0.367391 0.127897 0.141233 -0.08735
C_ C_ 0.466169 0.323357 0.15816 0.68181
C_ C_ 0.394293 0.376022 0.233553 0.1947
C_ C_ 0.398237 0.393053 0.261489 -0.08735
C_ C_ 0.379703 0.364525 0.283564 -0.08735
C_ C_ 0.349439 0.321379 0.277919 -0.05681
C_ C_ 0.344884 0.30539 0.248562 0.18498
C_ C_ 0.312916 0.264885 0.241821 -0.08735
C_ C_ 0.292419 0.23437 0.263881 -0.08735
C_ C_ 0.309143 0.24365 0.292194 -0.08735
C_ C_ 0.33278 0.289924 0.300147 0.18498
C_ C_ 0.301501 0.319078 0.345879 0.44287
C_ C_ 0.387093 0.29821 0.34303 0.44287
C_ C_ 0.392631 0.306316 0.373359 -0.05681
C_ C_ 0.440913 0.30332 0.38616 -0.08735
C_ C_ 0.443831 0.298979 0.415907 -0.08735
C_ C_ 0.400316 0.30328 0.434042 -0.05681
C_ C_ 0.355056 0.314432 0.420452 -0.05681
C_ C_ 0.348922 0.311392 0.390476 -0.05681
C_ C_ 0.304228 0.321741 0.376396 -0.05681
C_ C_ 0.2592 0.324733 0.393623 -0.08735
C_ C_ 0.263248 0.327013 0.423151 -0.08735
C_ C_ 0.311202 0.323518 0.43746 -0.05681
C_ C_ 0.315947 0.323958 0.467953 0.44287
C_ C_ 0.40254 0.304704 0.464227 0.44287
C_ C_ 0.369102 0.350927 0.0106735 0.18498
C_ C_ 0.396823 0.393178 0.0174451 -0.08735
C_ C_ 0.419996 0.39821 0.0435543 -0.08735
C_ C_ 0.402862 0.367837 0.0659091 -0.08735
C_ C_ 0.372095 0.327307 0.0624412 0.18498
C_ C_ 0.358569 0.313602 0.0343925 -0.05681
C_ C_ 0.32977 0.268749 0.030908 -0.08735
C_ C_ 0.32454 0.235123 0.053675 -0.08735
C_ C_ 0.338459 0.250923 0.0811907 0.1947
N_ N_ 0.133045 0.165083 0.478253 -0.29468
N_ N_ 0.133325 0.212522 0.0826808 -0.17154
N_ N_ 0.0994857 0.175663 0.230766 -0.17154
N_ N_ 0.134511 0.202371 0.33315 -0.29468
N_ N_ 0.370861 0.330028 0.227023 -0.29468
N_ N_ 0.339942 0.298357 0.330424 -0.17154
N_ N_ 0.361538 0.315771 0.479708 -0.17154
N_ N_ 0.362525 0.294939 0.0852074 -0.29468
O_ O_ 0.215454 0.187246 0.430339 -0.58347
O_ O_ 0.205913 0.193699 0.384107 -0.58347
O_ O_ 0.135843 0.254356 0.433573 -0.58347
O_ O_ 0.125879 0.260792 0.388091 -0.58347
O_ O_ 0.150169 0.106977 0.427113 -0.58347
O_ O_ 0.134231 0.113156 0.381296 -0.58347
O_ O_ 0.0649057 0.178037 0.426862 -0.58347
O_ O_ 0.0544998 0.179389 0.381041 -0.58347
O_ O_ 0.0496782 0.23326 0.07906 -0.46727
O_ O_ 0.220595 0.196998 0.0894642 -0.46727
O_ O_ 0.0174916 0.20236 0.227359 -0.46727
O_ O_ 0.178366 0.135832 0.229962 -0.46727
O_ O_ 0.290153 0.317747 0.182174 -0.58347
O_ O_ 0.296523 0.299967 0.135704 -0.58347
O_ O_ 0.371322 0.240075 0.186611 -0.58347
O_ O_ 0.384104 0.235971 0.139115 -0.58347
O_ O_ 0.362095 0.39297 0.170776 -0.58347
O_ O_ 0.359732 0.384567 0.125699 -0.58347
O_ O_ 0.439224 0.321846 0.180132 -0.58347
O_ O_ 0.447572 0.324251 0.133753 -0.58347
O_ O_ 0.427296 0.285321 0.327717 -0.46727
O_ O_ 0.256306 0.325724 0.33409 -0.46727
O_ O_ 0.445528 0.289811 0.477768 -0.46727
O_ O_ 0.279037 0.343519 0.484215 -0.46727
Zn Zn 0.115435 0.189929 0.883167 0.90689
Zn Zn 0.124188 0.17956 0.932776 0.90689
Zn Zn 0.361568 0.304063 0.632612 0.90689
Zn Zn 0.351296 0.313934 0.681366 0.90689
H_ H_ 0.294232 0.205317 0.943387 0.11455
H_ H_ 0.360424 0.162197 0.849067 0.11455
H_ H_ 0.269236 0.165728 0.856509 0.11455
H_ H_ 0.381837 0.177604 0.964327 0.11455
H_ H_ 0.470811 0.187646 0.957899 0.11455
H_ H_ 0.449486 0.175827 0.866693 0.11455
H_ H_ 0.135484 0.0141544 0.946881 0.11455
H_ H_ 0.134001 0.440464 0.846246 0.11455
H_ H_ 0.122979 0.0308654 0.854318 0.11455
H_ H_ 0.103303 0.433199 0.961415 0.11455
H_ H_ 0.101521 0.339986 0.956731 0.11455
H_ H_ 0.137359 0.353893 0.86865 0.11455
H_ H_ 0.0866948 0.0964069 0.971172 0.11455
H_ H_ 0.0625951 0.0716735 0.506465 0.11455
H_ H_ 0.0891137 0.119227 0.553897 0.11455
H_ H_ 0.193089 0.237607 0.977183 0.11455
H_ H_ 0.202917 0.303515 0.519791 0.11455
H_ H_ 0.189524 0.269898 0.569444 0.11455
H_ H_ 0.00166059 0.205284 0.626496 0.11455
H_ H_ -0.01256400000000002 0.19278 0.675805 0.11455
H_ H_ 0.250678 0.160309 0.641036 0.11455
H_ H_ 0.23625 0.141988 0.691237 0.11455
H_ H_ 0.0590627 0.080435 0.751201 0.11455
H_ H_ 0.0469631 0.0531241 0.802746 0.11455
H_ H_ 0.0587677 0.11417 0.83928 0.11455
H_ H_ 0.149096 0.241691 0.757637 0.11455
H_ H_ 0.187991 0.284262 0.800409 0.11455
H_ H_ 0.171811 0.25418 0.848808 0.11455
H_ H_ 0.180857 0.318093 0.697944 0.11455
H_ H_ 0.120274 0.330321 0.598397 0.11455
H_ H_ 0.212657 0.332794 0.607799 0.11455
H_ H_ 0.0959269 0.326161 0.716709 0.11455
H_ H_ 0.00320074 0.320261 0.704944 0.11455
H_ H_ 0.0304134 0.321306 0.615274 0.11455
H_ H_ 0.375304 0.47976 0.698217 0.11455
H_ H_ 0.3831 0.0576305 0.595546 0.11455
H_ H_ 0.356569 0.466453 0.606638 0.11455
H_ H_ 0.355189 0.0546785 0.711566 0.11455
H_ H_ 0.357828 0.141881 0.709434 0.11455
H_ H_ 0.379898 0.138547 0.618498 0.11455
H_ H_ 0.420925 0.381414 0.717048 0.11455
H_ H_ 0.451565 0.392971 0.766318 0.11455
H_ H_ 0.400074 0.37035 0.804616 0.11455
H_ H_ 0.294991 0.252691 0.725525 0.11455
H_ H_ 0.275382 0.194317 0.762835 0.11455
H_ H_ 0.287284 0.222893 0.814377 0.11455
H_ H_ 0.470304 0.284515 0.877745 0.11455
H_ H_ 0.47682 0.295278 0.928857 0.11455
H_ H_ 0.227975 0.369884 0.881583 0.11455
H_ H_ 0.231956 0.367811 0.934394 0.11455
H_ H_ 0.391587 0.427916 0.00469179 0.11455
H_ H_ 0.439285 0.417619 0.548255 0.11455
H_ H_ 0.40699 0.366451 0.58969 0.11455
H_ H_ 0.313668 0.239743 0.50854 0.11455
H_ H_ 0.283883 0.19017 0.551742 0.11455
H_ H_ 0.299244 0.226623 0.599378 0.11455
C_ C_ 0.218355 0.184759 0.90634 0.68181
C_ C_ 0.273944 0.184235 0.900919 -0.05681
C_ C_ 0.30881 0.193848 0.923673 -0.08735
C_ C_ 0.359408 0.180676 0.919559 -0.05681
C_ C_ 0.380273 0.173647 0.891624 -0.05681
C_ C_ 0.346607 0.171453 0.869383 -0.08735
C_ C_ 0.293328 0.172596 0.873923 -0.08735
C_ C_ 0.393726 0.178975 0.942768 -0.08735
C_ C_ 0.446717 0.183343 0.938994 -0.08735
C_ C_ 0.467582 0.174955 0.91174 -0.05681
C_ C_ 0.433134 0.173638 0.887689 -0.08735
C_ C_ 0.11613 0.285853 0.912134 0.68181
C_ C_ 0.126225 0.0863242 0.903556 0.68181
C_ C_ 0.124078 0.0295027 0.900828 -0.05681
C_ C_ 0.138066 0.500997 0.922443 -0.08735
C_ C_ 0.134721 0.446782 0.919452 -0.05681
C_ C_ 0.134468 0.425055 0.891713 -0.05681
C_ C_ 0.141814 0.455698 0.868336 -0.08735
C_ C_ 0.142252 0.507053 0.871668 -0.08735
C_ C_ 0.119946 0.416209 0.941947 -0.08735
C_ C_ 0.108747 0.366235 0.938783 -0.08735
C_ C_ 0.116437 0.342017 0.913536 -0.05681
C_ C_ 0.131591 0.372201 0.889298 -0.08735
C_ C_ 0.0199888 0.180942 0.911681 0.68181
C_ C_ 0.0924679 0.126603 0.987277 0.1947
C_ C_ 0.0859412 0.105522 0.50695 -0.08735
C_ C_ 0.101192 0.131734 0.532709 -0.08735
C_ C_ 0.134005 0.174046 0.531194 -0.05681
C_ C_ 0.146992 0.190301 0.50163 0.18498
C_ C_ 0.17466 0.238275 0.996333 -0.08735
C_ C_ 0.188783 0.265597 0.523575 -0.08735
C_ C_ 0.173274 0.251219 0.549936 -0.08735
C_ C_ 0.147353 0.20606 0.554682 0.18498
C_ C_ 0.177128 0.177975 0.601744 0.44287
C_ C_ 0.0898565 0.202114 0.59478 0.44287
C_ C_ 0.0826883 0.192134 0.62499 -0.05681
C_ C_ 0.034976 0.198493 0.638582 -0.08735
C_ C_ 0.0271988 0.190113 0.668101 -0.08735
C_ C_ 0.0686627 0.184664 0.686315 -0.05681
C_ C_ 0.116767 0.177838 0.674104 -0.05681
C_ C_ 0.122843 0.180024 0.643556 -0.05681
C_ C_ 0.170686 0.171856 0.631151 -0.05681
C_ C_ 0.213142 0.159066 0.649592 -0.08735
C_ C_ 0.207456 0.156346 0.679487 -0.08735
C_ C_ 0.158815 0.165862 0.691361 -0.05681
C_ C_ 0.152942 0.163005 0.720956 0.44287
C_ C_ 0.0611985 0.171425 0.714706 0.44287
C_ C_ 0.0996427 0.150121 0.762043 0.18498
C_ C_ 0.070386 0.106528 0.768283 -0.08735
C_ C_ 0.0611163 0.0913976 0.796643 -0.08735
C_ C_ 0.0706539 0.124977 0.817878 -0.08735
C_ C_ 0.101353 0.167984 0.813469 0.18498
C_ C_ 0.110617 0.182753 0.784466 -0.05681
C_ C_ 0.139826 0.228601 0.779752 -0.08735
C_ C_ 0.159262 0.2561 0.803 -0.08735
C_ C_ 0.150053 0.239332 0.829993 0.1947
C_ C_ 0.25773 0.313813 0.659342 0.68181
C_ C_ 0.203047 0.318424 0.653103 -0.05681
C_ C_ 0.168187 0.322378 0.675861 -0.08735
C_ C_ 0.117663 0.324679 0.670384 -0.05681
C_ C_ 0.099478 0.324278 0.642186 -0.05681
C_ C_ 0.13384 0.325143 0.619473 -0.08735
C_ C_ 0.186733 0.322864 0.62471 -0.08735
C_ C_ 0.0812609 0.325532 0.693975 -0.08735
C_ C_ 0.0300172 0.316087 0.688562 -0.08735
C_ C_ 0.0112811 0.316275 0.660924 -0.05681
C_ C_ 0.0457335 0.318917 0.637462 -0.08735
C_ C_ 0.366242 0.208109 0.660303 0.68181
C_ C_ 0.354907 0.411079 0.654469 0.68181
C_ C_ 0.358021 0.466963 0.653049 -0.05681
C_ C_ 0.35276 -0.01033700000000004 0.668699 -0.08735
C_ C_ 0.358392 0.0434283 0.667376 -0.05681
C_ C_ 0.364027 0.0691716 0.639973 -0.05681
C_ C_ 0.37237 0.0395549 0.615784 -0.08735
C_ C_ 0.363119 0.489097 0.625901 -0.08735
C_ C_ 0.35953 0.0727772 0.691331 -0.08735
C_ C_ 0.357019 0.123994 0.689741 -0.08735
C_ C_ 0.360495 0.150226 0.663216 -0.05681
C_ C_ 0.368375 0.121396 0.638709 -0.08735
C_ C_ 0.455128 0.31222 0.655373 0.68181
C_ C_ 0.405874 0.356822 0.7338 0.1947
C_ C_ 0.419196 0.370246 0.760691 -0.08735
C_ C_ 0.38763 0.356323 0.784103 -0.08735
C_ C_ 0.349679 0.319637 0.779711 -0.05681
C_ C_ 0.342191 0.300379 0.752054 0.18498
C_ C_ 0.308603 0.261755 0.746676 -0.08735
C_ C_ 0.295532 0.228717 0.768883 -0.08735
C_ C_ 0.30549 0.24326 0.797444 -0.08735
C_ C_ 0.328915 0.289039 0.803252 0.18498
C_ C_ 0.297175 0.323085 0.847145 0.44287
C_ C_ 0.3799 0.286265 0.845084 0.44287
C_ C_ 0.386097 0.29569 0.875133 -0.05681
C_ C_ 0.435582 0.293885 0.889318 -0.08735
C_ C_ 0.438242 0.299325 0.920477 -0.08735
C_ C_ 0.396329 0.314233 0.936004 -0.05681
C_ C_ 0.351411 0.325593 0.922069 -0.05681
C_ C_ 0.346679 0.319762 0.891977 -0.05681
C_ C_ 0.300276 0.331768 0.877019 -0.05681
C_ C_ 0.259387 0.3537 0.892857 -0.08735
C_ C_ 0.264705 0.360769 0.92351 -0.08735
C_ C_ 0.309281 0.344542 0.938055 -0.05681
C_ C_ 0.313198 0.341248 0.968592 0.44287
C_ C_ 0.398306 0.319466 0.966062 0.44287
C_ C_ 0.368431 0.330459 0.510141 0.18498
C_ C_ 0.401145 0.371135 0.516594 -0.08735
C_ C_ 0.411125 0.38716 0.544896 -0.08735
C_ C_ 0.396407 0.356475 0.567426 -0.08735
C_ C_ 0.361695 0.315855 0.562622 0.18498
C_ C_ 0.353561 0.298282 0.53321 -0.05681
C_ C_ 0.320651 0.255644 0.52878 -0.08735
C_ C_ 0.304426 0.226259 0.553347 -0.08735
C_ C_ 0.313414 0.245826 0.580318 0.1947
N_ N_ 0.11692 0.17048 0.981657 -0.29468
N_ N_ 0.137309 0.19298 0.584478 -0.17154
N_ N_ 0.104783 0.162736 0.73274 -0.17154
N_ N_ 0.119259 0.197685 0.835507 -0.29468
N_ N_ 0.365087 0.324755 0.728777 -0.29468
N_ N_ 0.33689 0.302075 0.831905 -0.17154
N_ N_ 0.359692 0.337394 0.981198 -0.17154
N_ N_ 0.342555 0.289125 0.58502 -0.29468
O_ O_ 0.199161 0.179078 0.930874 -0.58347
O_ O_ 0.190417 0.190545 0.885086 -0.58347
O_ O_ 0.124964 0.257835 0.933881 -0.58347
O_ O_ 0.114991 0.265219 0.887564 -0.58347
O_ O_ 0.126159 0.106365 0.928917 -0.58347
O_ O_ 0.119913 0.114906 0.881711 -0.58347
O_ O_ 0.0477477 0.183577 0.933652 -0.58347
O_ O_ 0.0383256 0.183132 0.886925 -0.58347
O_ O_ 0.0528355 0.208512 0.57764 -0.46727
O_ O_ 0.220564 0.170502 0.58962 -0.46727
O_ O_ 0.0147571 0.161101 0.724517 -0.46727
O_ O_ 0.19279 0.152454 0.737274 -0.46727
O_ O_ 0.274167 0.315969 0.685342 -0.58347
O_ O_ 0.286689 0.304972 0.638799 -0.58347
O_ O_ 0.358406 0.23452 0.682482 -0.58347
O_ O_ 0.37048 0.228154 0.636326 -0.58347
O_ O_ 0.354493 0.390474 0.677847 -0.58347
O_ O_ 0.355259 0.383706 0.63194 -0.58347
O_ O_ 0.425593 0.312453 0.676987 -0.58347
O_ O_ 0.43612 0.310567 0.631005 -0.58347
O_ O_ 0.412282 0.257242 0.831476 -0.46727
O_ O_ 0.25675 0.339979 0.834035 -0.46727
O_ O_ 0.438928 0.305271 0.979977 -0.46727
O_ O_ 0.271775 0.347982 0.984306 -0.46727
Zn Zn 0.137771 0.687008 0.385419 0.90689
Zn Zn 0.149863 0.680204 0.433939 0.90689
Zn Zn 0.377929 0.808865 0.129343 0.90689
Zn Zn 0.372478 0.811529 0.179952 0.90689
H_ H_ 0.316653 0.684567 0.446871 0.11455
H_ H_ 0.389179 0.683505 0.346586 0.11455
H_ H_ 0.295569 0.684951 0.353811 0.11455
H_ H_ 0.400832 0.677944 0.466742 0.11455
H_ H_ 0.489836 0.680189 0.460503 0.11455
H_ H_ 0.4697 0.678252 0.367833 0.11455
H_ H_ 0.127649 0.515524 0.445745 0.11455
H_ H_ 0.130758 0.943287 0.350558 0.11455
H_ H_ 0.152877 0.531895 0.354509 0.11455
H_ H_ 0.165645 0.933468 0.466013 0.11455
H_ H_ 0.153757 0.837726 0.461913 0.11455
H_ H_ 0.111826 0.854667 0.374053 0.11455
H_ H_ 0.0986412 0.603635 0.47061 0.11455
H_ H_ 0.071937 0.573704 0.0150061 0.11455
H_ H_ 0.0926651 0.627395 0.0566669 0.11455
H_ H_ 0.192541 0.754707 0.479043 0.11455
H_ H_ 0.204375 0.804727 0.0202719 0.11455
H_ H_ 0.186076 0.780577 0.0697284 0.11455
H_ H_ 0.0184122 0.720532 0.128411 0.11455
H_ H_ 0.00600617 0.711669 0.180646 0.11455
H_ H_ 0.261402 0.648445 0.139319 0.11455
H_ H_ 0.254478 0.642944 0.188281 0.11455
H_ H_ 0.0767701 0.580909 0.25511 0.11455
H_ H_ 0.0441882 0.566298 0.303634 0.11455
H_ H_ 0.0740398 0.629036 0.342805 0.11455
H_ H_ 0.14029 0.752392 0.258926 0.11455
H_ H_ 0.177651 0.803169 0.297506 0.11455
H_ H_ 0.18942 0.766579 0.345239 0.11455
H_ H_ 0.198407 0.826067 0.192026 0.11455
H_ H_ 0.134641 0.840066 0.0956064 0.11455
H_ H_ 0.222597 0.832166 0.102188 0.11455
H_ H_ 0.111448 0.810669 0.21074 0.11455
H_ H_ 0.0246487 0.80929 0.201157 0.11455
H_ H_ 0.0497843 0.825829 0.108836 0.11455
H_ H_ 0.392715 0.97969 0.192351 0.11455
H_ H_ 0.355496 0.564729 0.095815 0.11455
H_ H_ 0.348075 0.967338 0.102296 0.11455
H_ H_ 0.390874 0.564814 0.212211 0.11455
H_ H_ 0.391871 0.655055 0.206003 0.11455
H_ H_ 0.347063 0.644264 0.119032 0.11455
H_ H_ 0.444452 0.877644 0.217921 0.11455
H_ H_ 0.452747 0.910551 0.268183 0.11455
H_ H_ 0.40174 0.877884 0.305132 0.11455
H_ H_ 0.325381 0.745488 0.224063 0.11455
H_ H_ 0.27431 0.704936 0.262959 0.11455
H_ H_ 0.27445 0.742483 0.309867 0.11455
H_ H_ 0.476083 0.779089 0.37195 0.11455
H_ H_ 0.49697 0.795212 0.421381 0.11455
H_ H_ 0.2337 0.841083 0.393917 0.11455
H_ H_ 0.247428 0.825071 0.443906 0.11455
H_ H_ 0.437694 0.903521 0.499701 0.11455
H_ H_ 0.452743 0.926721 0.0518067 0.11455
H_ H_ 0.439598 0.864009 0.087288 0.11455
H_ H_ 0.349351 0.745781 0.0058537 0.11455
H_ H_ 0.309346 0.700389 0.0458409 0.11455
H_ H_ 0.326026 0.725468 0.0949184 0.11455
C_ C_ 0.243586 0.682991 0.405096 0.68181
C_ C_ 0.298346 0.68171 0.400843 -0.05681
C_ C_ 0.331319 0.68415 0.424501 -0.08735
C_ C_ 0.383428 0.677918 0.420997 -0.05681
C_ C_ 0.403898 0.674257 0.393003 -0.05681
C_ C_ 0.372715 0.686611 0.369175 -0.08735
C_ C_ 0.319744 0.684694 0.372308 -0.08735
C_ C_ 0.414982 0.67551 0.445183 -0.08735
C_ C_ 0.466652 0.676101 0.441968 -0.08735
C_ C_ 0.48865 0.672617 0.413873 -0.05681
C_ C_ 0.45577 0.671814 0.389937 -0.08735
C_ C_ 0.137003 0.784284 0.414059 0.68181
C_ C_ 0.145574 0.585192 0.403055 0.68181
C_ C_ 0.142812 0.529921 0.400593 -0.05681
C_ C_ 0.155962 0.99797 0.424895 -0.08735
C_ C_ 0.144907 0.947111 0.423345 -0.05681
C_ C_ 0.130259 0.925808 0.396331 -0.05681
C_ C_ 0.131492 0.957623 0.372089 -0.08735
C_ C_ 0.138597 1.0101819 0.374664 -0.08735
C_ C_ 0.152334 0.915548 0.446707 -0.08735
C_ C_ 0.14267 0.862073 0.444646 -0.08735
C_ C_ 0.13461 0.840577 0.417046 -0.05681
C_ C_ 0.121762 0.872743 0.394048 -0.08735
C_ C_ 0.0482108 0.679411 0.411787 0.68181
C_ C_ 0.120686 0.622993 0.488263 0.1947
C_ C_ 0.0946032 0.607674 0.0117406 -0.08735
C_ C_ 0.104528 0.637322 0.0346589 -0.08735
C_ C_ 0.133122 0.681337 0.0315345 -0.05681
C_ C_ 0.150666 0.695278 1.00390135 0.18498
C_ C_ 0.194295 0.740434 0.500901 -0.08735
C_ C_ 0.186962 0.77031 0.024442 -0.08735
C_ C_ 0.176765 0.754576 0.051697 -0.08735
C_ C_ 0.149188 0.709428 0.0557897 0.18498
C_ C_ 0.183886 0.676272 0.100253 0.44287
C_ C_ 0.0999425 0.705254 0.0978464 0.44287
C_ C_ 0.0957604 0.699299 0.127838 -0.05681
C_ C_ 0.0503658 0.709086 0.142308 -0.08735
C_ C_ 0.0447229 0.702658 0.172294 -0.08735
C_ C_ 0.0856627 0.686437 0.188325 -0.05681
C_ C_ 0.132329 0.678555 0.174163 -0.05681
C_ C_ 0.134885 0.68345 0.144535 -0.05681
C_ C_ 0.179973 0.672466 0.130232 -0.05681
C_ C_ 0.223358 0.656084 0.147111 -0.08735
C_ C_ 0.218889 0.651666 0.177043 -0.08735
C_ C_ 0.174269 0.664659 0.19053 -0.05681
C_ C_ 0.168456 0.656967 0.221756 0.44287
C_ C_ 0.0818297 0.680662 0.218481 0.44287
C_ C_ 0.114462 0.651982 0.264027 0.18498
C_ C_ 0.0860338 0.608398 0.271276 -0.08735
C_ C_ 0.0711957 0.599458 0.300261 -0.08735
C_ C_ 0.0910177 0.630818 0.322367 -0.08735
C_ C_ 0.120416 0.671732 0.314965 0.18498
C_ C_ 0.128323 0.685796 0.285635 -0.05681
C_ C_ 0.149499 0.734444 0.279427 -0.08735
C_ C_ 0.168962 0.76333 0.302378 -0.08735
C_ C_ 0.16684 0.743874 0.329635 0.1947
C_ C_ 0.274492 0.815706 0.152129 0.68181
C_ C_ 0.21966 0.829204 0.147155 -0.05681
C_ C_ 0.185727 0.831075 0.170725 -0.08735
C_ C_ 0.132005 0.834084 0.167087 -0.05681
C_ C_ 0.113369 0.833498 0.138086 -0.05681
C_ C_ 0.146999 0.83634 0.116185 -0.08735
C_ C_ 0.198943 0.833498 0.12041 -0.08735
C_ C_ 0.0988464 0.826644 0.189009 -0.08735
C_ C_ 0.0472151 0.82169 0.184601 -0.08735
C_ C_ 0.02824 0.822731 0.154426 -0.05681
C_ C_ 0.0628155 0.825627 0.131366 -0.08735
C_ C_ 0.378851 0.714583 0.159544 0.68181
C_ C_ 0.375898 0.910296 0.149294 0.68181
C_ C_ 0.37357 0.965571 0.147468 -0.05681
C_ C_ 0.377129 0.497964 0.167292 -0.08735
C_ C_ 0.376789 0.551759 0.166143 -0.05681
C_ C_ 0.367616 0.576464 0.138894 -0.05681
C_ C_ 0.357506 0.546002 0.11558 -0.08735
C_ C_ 0.361815 -0.010915000000000008 0.120814 -0.08735
C_ C_ 0.383119 0.580515 0.190407 -0.08735
C_ C_ 0.379101 0.633785 0.188687 -0.08735
C_ C_ 0.371389 0.658152 0.161935 -0.05681
C_ C_ 0.367545 0.629786 0.136465 -0.08735
C_ C_ 0.472631 0.80319 0.156056 0.68181
C_ C_ 0.416611 0.865885 0.233965 0.1947
C_ C_ 0.42119 0.885362 0.261498 -0.08735
C_ C_ 0.393349 0.864273 0.283693 -0.08735
C_ C_ 0.358125 0.824727 0.278876 -0.05681
C_ C_ 0.353637 0.806071 0.250418 0.18498
C_ C_ 0.324402 0.7634 0.244915 -0.08735
C_ C_ 0.298084 0.738792 0.26657 -0.08735
C_ C_ 0.300855 0.755784 0.295067 -0.08735
C_ C_ 0.332113 0.798735 0.302461 0.18498
C_ C_ 0.30281 0.818988 0.350885 0.44287
C_ C_ 0.388377 0.79651 0.343434 0.44287
C_ C_ 0.398943 0.805923 0.373043 -0.05681
C_ C_ 0.447918 0.798373 0.384677 -0.08735
C_ C_ 0.458348 0.799263 0.413495 -0.08735
C_ C_ 0.418506 0.809144 0.432819 -0.05681
C_ C_ 0.36945 0.819832 0.420996 -0.05681
C_ C_ 0.361783 0.819816 0.391059 -0.05681
C_ C_ 0.312303 0.828517 0.380347 -0.05681
C_ C_ 0.271981 0.835673 0.400621 -0.08735
C_ C_ 0.279683 0.832452 0.429669 -0.08735
C_ C_ 0.32876 0.827579 0.44017 -0.05681
C_ C_ 0.340077 0.827932 0.469403 0.44287
C_ C_ 0.426415 0.812844 0.461771 0.44287
C_ C_ 0.397366 0.837922 0.00882994 0.18498
C_ C_ 0.423064 0.882548 0.0158911 -0.08735
C_ C_ 0.438429 0.890082 0.0443687 -0.08735
C_ C_ 0.425752 0.857009 0.0670716 -0.08735
C_ C_ 0.39352 0.815561 0.0613299 0.18498
C_ C_ 0.385173 0.803071 0.0313892 -0.05681
C_ C_ 0.352823 0.762189 0.0274929 -0.08735
C_ C_ 0.329475 0.735691 0.0499099 -0.08735
C_ C_ 0.340782 0.749822 0.0777144 0.1947
N_ N_ 0.147993 0.666612 0.482215 -0.29468
N_ N_ 0.143924 0.69267 0.0840434 -0.17154
N_ N_ 0.122971 0.66481 0.234133 -0.17154
N_ N_ 0.142118 0.700664 0.336213 -0.29468
N_ N_ 0.379305 0.829924 0.22792 -0.29468
N_ N_ 0.341934 0.80739 0.332321 -0.17154
N_ N_ 0.388717 0.821234 0.48017 -0.17154
N_ N_ 0.370619 0.790636 0.0839586 -0.29468
O_ O_ 0.225583 0.689571 0.429384 -0.58347
O_ O_ 0.212786 0.683273 0.384602 -0.58347
O_ O_ 0.142011 0.758628 0.43661 -0.58347
O_ O_ 0.142187 0.762647 0.389543 -0.58347
O_ O_ 0.153338 0.605661 0.427632 -0.58347
O_ O_ 0.138595 0.612897 0.381367 -0.58347
O_ O_ 0.0777472 0.667102 0.431829 -0.58347
O_ O_ 0.0659987 0.695252 0.387813 -0.58347
O_ O_ 0.0667904 0.730621 0.0839402 -0.46727
O_ O_ 0.227361 0.666842 0.0879808 -0.46727
O_ O_ 0.0430255 0.694778 0.23308 -0.46727
O_ O_ 0.208021 0.644562 0.237927 -0.46727
O_ O_ 0.293678 0.817008 0.177678 -0.58347
O_ O_ 0.30535 0.810252 0.130802 -0.58347
O_ O_ 0.376381 0.739631 0.182902 -0.58347
O_ O_ 0.376054 0.737131 0.136123 -0.58347
O_ O_ 0.370108 0.887528 0.17195 -0.58347
O_ O_ 0.382878 0.885601 0.12666 -0.58347
O_ O_ 0.444844 0.80577 0.17766 -0.58347
O_ O_ 0.453358 0.802576 0.130974 -0.58347
O_ O_ 0.420875 0.76931 0.328059 -0.46727
O_ O_ 0.25605 0.822769 0.34136 -0.46727
O_ O_ 0.46952 0.794433 0.470765 -0.46727
O_ O_ 0.302249 0.835871 0.48727 -0.46727
Zn Zn 0.129919 0.687587 0.884848 0.90689
Zn Zn 0.137553 0.684326 0.932422 0.90689
Zn Zn 0.367837 0.808217 0.630752 0.90689
Zn Zn 0.360371 0.812649 0.678382 0.90689
H_ H_ 0.312807 0.700353 0.951675 0.11455
H_ H_ 0.374871 0.672666 0.852509 0.11455
H_ H_ 0.284309 0.666927 0.861314 0.11455
H_ H_ 0.404411 0.691994 0.969234 0.11455
H_ H_ 0.492307 0.702377 0.957931 0.11455
H_ H_ 0.463198 0.658407 0.870663 0.11455
H_ H_ 0.129657 0.521551 0.941863 0.11455
H_ H_ 0.130258 0.934275 0.850752 0.11455
H_ H_ 0.13935 0.528497 0.851994 0.11455
H_ H_ 0.111475 0.930182 0.969601 0.11455
H_ H_ 0.120667 0.837798 0.963055 0.11455
H_ H_ 0.123378 0.852383 0.871532 0.11455
H_ H_ 0.0879189 0.605417 0.96727 0.11455
H_ H_ 0.0846121 0.579854 0.52266 0.11455
H_ H_ 0.125787 0.617337 0.559467 0.11455
H_ H_ 0.183527 0.757025 0.979015 0.11455
H_ H_ 0.214406 0.814746 0.517394 0.11455
H_ H_ 0.201469 0.786988 0.568626 0.11455
H_ H_ 1.027478 0.704245 0.628148 0.11455
H_ H_ 1.0194441 0.691933 0.680046 0.11455
H_ H_ 0.279057 0.652128 0.639801 0.11455
H_ H_ 0.269226 0.649222 0.695272 0.11455
H_ H_ 0.0750342 0.590936 0.751934 0.11455
H_ H_ 0.0521256 0.564403 0.803957 0.11455
H_ H_ 0.0742759 0.625246 0.842487 0.11455
H_ H_ 0.182248 0.734875 0.759587 0.11455
H_ H_ 0.203901 0.788514 0.79787 0.11455
H_ H_ 0.184498 0.760886 0.850056 0.11455
H_ H_ 0.189423 0.8138 0.694855 0.11455
H_ H_ 0.131244 0.844502 0.595769 0.11455
H_ H_ 0.223686 0.844393 0.604168 0.11455
H_ H_ 0.103259 0.8022 0.711111 0.11455
H_ H_ 0.0118487 0.810754 0.701913 0.11455
H_ H_ 0.0408759 0.823721 0.611576 0.11455
H_ H_ 0.354718 0.971173 0.688906 0.11455
H_ H_ 0.36656 0.560196 0.60205 0.11455
H_ H_ 0.37951 0.963638 0.59764 0.11455
H_ H_ 0.37112 0.565467 0.720189 0.11455
H_ H_ 0.387919 0.656687 0.71736 0.11455
H_ H_ 0.377044 0.642298 0.622612 0.11455
H_ H_ 0.400345 0.894065 0.710084 0.11455
H_ H_ 0.40877 0.929142 0.759083 0.11455
H_ H_ 0.389678 0.874381 0.801602 0.11455
H_ H_ 0.304578 0.746485 0.724418 0.11455
H_ H_ 0.289533 0.689448 0.765952 0.11455
H_ H_ 0.328394 0.705327 0.811947 0.11455
H_ H_ 0.492656 0.798452 0.870451 0.11455
H_ H_ 0.504558 0.803055 0.921704 0.11455
H_ H_ 0.241789 0.820638 0.887421 0.11455
H_ H_ 0.253907 0.841744 0.937139 0.11455
H_ H_ 0.4309 0.90758 0.999802 0.11455
H_ H_ 0.464543 0.919647 0.549559 0.11455
H_ H_ 0.4274 0.87202 0.588319 0.11455
H_ H_ 0.358418 0.738212 0.508309 0.11455
H_ H_ 0.311245 0.69573 0.549984 0.11455
H_ H_ 0.326521 0.725131 0.597007 0.11455
C_ C_ 0.23498 0.690062 0.910981 0.68181
C_ C_ 0.290608 0.683567 0.907344 -0.05681
C_ C_ 0.327678 0.691652 0.930525 -0.08735
C_ C_ 0.379743 0.687362 0.925408 -0.05681
C_ C_ 0.396588 0.678879 0.897379 -0.05681
C_ C_ 0.362275 0.672721 0.875755 -0.08735
C_ C_ 0.309842 0.671523 0.880248 -0.08735
C_ C_ 0.415234 0.692158 0.947814 -0.08735
C_ C_ 0.467674 0.688494 0.942053 -0.08735
C_ C_ 0.485416 0.678259 0.914286 -0.05681
C_ C_ 0.450275 0.672933 0.891785 -0.08735
C_ C_ 0.130452 0.784335 0.914984 0.68181
C_ C_ 0.146835 0.586749 0.901162 0.68181
C_ C_ 0.142863 0.530525 0.897941 -0.05681
C_ C_ 0.126853 0.997654 0.925601 -0.08735
C_ C_ 0.118308 0.944306 0.922997 -0.05681
C_ C_ 0.120205 0.922018 0.895277 -0.05681
C_ C_ 0.125367 0.95438 0.871768 -0.08735
C_ C_ 0.124129 0.0062579 0.87371 -0.08735
C_ C_ 0.11432 0.914854 0.947898 -0.08735
C_ C_ 0.11977 0.862326 0.94495 -0.08735
C_ C_ 0.122569 0.839634 0.917319 -0.05681
C_ C_ 0.121324 0.870185 0.892382 -0.08735
C_ C_ 0.0378475 0.686775 0.908123 0.68181
C_ C_ 0.110253 0.620383 0.984779 0.1947
C_ C_ 0.109394 0.608552 0.516164 -0.08735
C_ C_ 0.131643 0.635214 0.538409 -0.08735
C_ C_ 0.160601 0.679151 0.534411 -0.05681
C_ C_ 0.167887 0.695476 0.505571 0.18498
C_ C_ 0.177947 0.739633 0.999806 -0.08735
C_ C_ 0.204284 0.774432 0.522772 -0.08735
C_ C_ 0.197916 0.759636 0.550803 -0.08735
C_ C_ 0.175675 0.712969 0.557455 0.18498
C_ C_ 0.203535 0.673828 0.603333 0.44287
C_ C_ 0.120387 0.708794 0.598118 0.44287
C_ C_ 0.111155 0.69514 0.627415 -0.05681
C_ C_ 0.0609605 0.695816 0.640509 -0.08735
C_ C_ 0.0571337 0.691229 0.670679 -0.08735
C_ C_ 0.0978344 0.68275 0.687999 -0.05681
C_ C_ 0.144018 0.674782 0.675796 -0.05681
C_ C_ 0.151308 0.678681 0.645444 -0.05681
C_ C_ 0.19871 0.670115 0.633221 -0.05681
C_ C_ 0.240806 0.658245 0.650546 -0.08735
C_ C_ 0.235861 0.659139 0.680871 -0.08735
C_ C_ 0.186994 0.66483 0.69387 -0.05681
C_ C_ 0.178745 0.655066 0.723145 0.44287
C_ C_ 0.0938196 0.679464 0.717657 0.44287
C_ C_ 0.12142 0.651309 0.763896 0.18498
C_ C_ 0.0908046 0.60957 0.769863 -0.08735
C_ C_ 0.0754881 0.597212 0.798449 -0.08735
C_ C_ 0.0891031 0.631114 0.820677 -0.08735
C_ C_ 0.121898 0.671639 0.81514 0.18498
C_ C_ 0.139363 0.680802 0.786246 -0.05681
C_ C_ 0.170496 0.724811 0.781197 -0.08735
C_ C_ 0.184149 0.754705 0.803441 -0.08735
C_ C_ 0.173367 0.739073 0.832526 0.1947
C_ C_ 0.267086 0.810646 0.652678 0.68181
C_ C_ 0.212748 0.818538 0.649234 -0.05681
C_ C_ 0.177268 0.815634 0.672654 -0.08735
C_ C_ 0.124646 0.815875 0.666627 -0.05681
C_ C_ 0.106616 0.828122 0.639199 -0.05681
C_ C_ 0.141914 0.834562 0.616229 -0.08735
C_ C_ 0.19422 0.834244 0.621769 -0.08735
C_ C_ 0.089443 0.809634 0.689246 -0.08735
C_ C_ 0.0377926 0.815676 0.684846 -0.08735
C_ C_ 0.0215041 0.814303 0.656906 -0.05681
C_ C_ 0.0552818 0.82253 0.634236 -0.08735
C_ C_ 0.374885 0.713137 0.665079 0.68181
C_ C_ 0.361237 0.907506 0.645236 0.68181
C_ C_ 0.363076 0.961868 0.643297 -0.05681
C_ C_ 0.365269 0.498628 0.678244 -0.08735
C_ C_ 0.372233 0.550949 0.675247 -0.05681
C_ C_ 0.374354 0.572731 0.647147 -0.05681
C_ C_ 0.366534 0.542533 0.623175 -0.08735
C_ C_ 0.373525 0.986796 0.616765 -0.08735
C_ C_ 0.379469 0.581517 0.699556 -0.08735
C_ C_ 0.381667 0.634104 0.697054 -0.08735
C_ C_ 0.380074 0.657659 0.668692 -0.05681
C_ C_ 0.377241 0.626342 0.644557 -0.08735
C_ C_ 0.465167 0.816369 0.658667 0.68181
C_ C_ 0.385433 0.87417 0.72944 0.1947
C_ C_ 0.392845 0.893123 0.756772 -0.08735
C_ C_ 0.380247 0.864684 0.781447 -0.08735
C_ C_ 0.3597 0.815368 0.77716 -0.05681
C_ C_ 0.344959 0.802043 0.749359 0.18498
C_ C_ 0.315864 0.757809 0.745757 -0.08735
C_ C_ 0.311856 0.721987 0.767577 -0.08735
C_ C_ 0.333803 0.73339 0.794708 -0.08735
C_ C_ 0.352019 0.781161 0.800537 0.18498
C_ C_ 0.319997 0.815042 0.845933 0.44287
C_ C_ 0.405397 0.792964 0.842249 0.44287
C_ C_ 0.410569 0.797525 0.87182 -0.05681
C_ C_ 0.458866 0.794472 0.884636 -0.08735
C_ C_ 0.46658 0.804322 0.914894 -0.08735
C_ C_ 0.426859 0.818669 0.931533 -0.05681
C_ C_ 0.378214 0.822096 0.918523 -0.05681
C_ C_ 0.369927 0.81346 0.888806 -0.05681
C_ C_ 0.322678 0.820072 0.876019 -0.05681
C_ C_ 0.279229 0.82861 0.894349 -0.08735
C_ C_ 0.285537 0.833732 0.923893 -0.08735
C_ C_ 0.333658 0.832126 0.937052 -0.05681
C_ C_ 0.341337 0.834469 0.966691 0.44287
C_ C_ 0.430407 0.819587 0.962018 0.44287
C_ C_ 0.401944 0.831126 0.510356 0.18498
C_ C_ 0.428415 0.876417 0.516328 -0.08735
C_ C_ 0.439645 0.888518 0.544456 -0.08735
C_ C_ 0.417035 0.862975 0.567728 -0.08735
C_ C_ 0.391449 0.817798 0.562796 0.18498
C_ C_ 0.381974 0.802471 0.534342 -0.05681
C_ C_ 0.358901 0.756223 0.52943 -0.08735
C_ C_ 0.335741 0.730134 0.552082 -0.08735
C_ C_ 0.339117 0.74888 0.579679 0.1947
N_ N_ 0.134268 0.666708 0.980468 -0.29468
N_ N_ 0.166121 0.696104 0.586445 -0.17154
N_ N_ 0.131792 0.663426 0.734554 -0.17154
N_ N_ 0.141729 0.698779 0.837854 -0.29468
N_ N_ 0.358637 0.829505 0.726025 -0.29468
N_ N_ 0.359259 0.796695 0.830272 -0.17154
N_ N_ 0.388622 0.826975 0.978062 -0.17154
N_ N_ 0.371181 0.790288 0.583852 -0.29468
O_ O_ 0.215139 0.68741 0.93616 -0.58347
O_ O_ 0.206483 0.692393 0.890353 -0.58347
O_ O_ 0.124336 0.759991 0.937254 -0.58347
O_ O_ 0.131244 0.763043 0.890777 -0.58347
O_ O_ 0.144784 0.606992 0.925271 -0.58347
O_ O_ 0.136345 0.612328 0.879461 -0.58347
O_ O_ 0.06483 0.676897 0.929803 -0.58347
O_ O_ 0.0562197 0.688854 0.883875 -0.58347
O_ O_ 0.0869823 0.728636 0.582657 -0.46727
O_ O_ 0.242823 0.652951 0.590726 -0.46727
O_ O_ 0.0490447 0.691899 0.729526 -0.46727
O_ O_ 0.21228 0.628485 0.737671 -0.46727
O_ O_ 0.285587 0.804899 0.677249 -0.58347
O_ O_ 0.294112 0.804466 0.631059 -0.58347
O_ O_ 0.368252 0.741325 0.686801 -0.58347
O_ O_ 0.371605 0.732115 0.640846 -0.58347
O_ O_ 0.352358 0.88834 0.669293 -0.58347
O_ O_ 0.364518 0.880493 0.622686 -0.58347
O_ O_ 0.438303 0.814838 0.6805 -0.58347
O_ O_ 0.447034 0.816519 0.634055 -0.58347
O_ O_ 0.445988 0.783542 0.826188 -0.46727
O_ O_ 0.277087 0.825164 0.83283 -0.46727
O_ O_ 0.471789 0.801613 0.974826 -0.46727
O_ O_ 0.305122 0.85094 0.983847 -0.46727
Zn Zn 0.630254 0.187501 0.382422 0.90689
Zn Zn 0.640711 0.175093 0.429046 0.90689
Zn Zn 0.877465 0.316717 0.130705 0.90689
Zn Zn 0.864583 0.32456 0.181296 0.90689
H_ H_ 0.807627 0.188513 0.443239 0.11455
H_ H_ 0.877492 0.186317 0.346709 0.11455
H_ H_ 0.780261 0.17758 0.354318 0.11455
H_ H_ 0.892313 0.192894 0.463515 0.11455
H_ H_ 0.983999 0.181492 0.455695 0.11455
H_ H_ 0.961947 0.171705 0.365015 0.11455
H_ H_ 0.647868 0.0126501 0.442084 0.11455
H_ H_ 0.60881 0.42981 0.34834 0.11455
H_ H_ 0.64671 0.0272319 0.352012 0.11455
H_ H_ 0.656523 0.433854 0.46216 0.11455
H_ H_ 0.636696 0.337841 0.46099 0.11455
H_ H_ 0.617583 0.347636 0.368967 0.11455
H_ H_ 0.577982 0.112686 0.463655 0.11455
H_ H_ 0.561012 0.0873324 0.0143765 0.11455
H_ H_ 0.599328 0.135715 0.0549093 0.11455
H_ H_ 0.696184 0.246918 0.47676 0.11455
H_ H_ 0.720317 0.309895 0.0137807 0.11455
H_ H_ 0.702968 0.283151 0.0619702 0.11455
H_ H_ 0.515519 0.220233 0.121746 0.11455
H_ H_ 0.50069 0.190433 0.171645 0.11455
H_ H_ 0.762179 0.168542 0.136908 0.11455
H_ H_ 0.749411 0.16386 0.189255 0.11455
H_ H_ 0.584153 0.0928303 0.246295 0.11455
H_ H_ 0.549875 0.0701913 0.295088 0.11455
H_ H_ 0.574953 0.115979 0.335073 0.11455
H_ H_ 0.64937 0.258359 0.258844 0.11455
H_ H_ 0.692571 0.301265 0.299507 0.11455
H_ H_ 0.689947 0.259842 0.345787 0.11455
H_ H_ 0.69263 0.332919 0.195902 0.11455
H_ H_ 0.625131 0.335981 0.0963334 0.11455
H_ H_ 0.719274 0.315809 0.103963 0.11455
H_ H_ 0.608815 0.301955 0.215018 0.11455
H_ H_ 0.521148 0.308911 0.206371 0.11455
H_ H_ 0.543795 0.338697 0.117313 0.11455
H_ H_ 0.899732 0.49084 0.187275 0.11455
H_ H_ 0.897398 0.0747121 0.0951031 0.11455
H_ H_ 0.86712 0.476528 0.0966578 0.11455
H_ H_ 0.861744 0.0734697 0.213856 0.11455
H_ H_ 0.859144 0.16589 0.210696 0.11455
H_ H_ 0.887886 0.159027 0.12041 0.11455
H_ H_ 0.9311 0.396036 0.209877 0.11455
H_ H_ 0.962696 0.421051 0.256185 0.11455
H_ H_ 0.918775 0.385359 0.300513 0.11455
H_ H_ 0.799882 0.283294 0.225041 0.11455
H_ H_ 0.779106 0.223294 0.263104 0.11455
H_ H_ 0.807163 0.245307 0.311373 0.11455
H_ H_ 0.988843 0.285263 0.373486 0.11455
H_ H_ -0.000217749 0.30823 0.424359 0.11455
H_ H_ 0.743934 0.326584 0.385586 0.11455
H_ H_ 0.752545 0.318703 0.437952 0.11455
H_ H_ 0.927271 0.415255 0.499355 0.11455
H_ H_ 0.959729 0.430159 0.0506149 0.11455
H_ H_ 0.934773 0.374128 0.0886411 0.11455
H_ H_ 0.835109 0.257571 0.00543882 0.11455
H_ H_ 0.818926 0.199499 0.0466809 0.11455
H_ H_ 0.828353 0.231194 0.0962654 0.11455
C_ C_ 0.73441 0.184294 0.405177 0.68181
C_ C_ 0.790499 0.1905 0.400905 -0.05681
C_ C_ 0.822762 0.190265 0.423345 -0.08735
C_ C_ 0.874463 0.187639 0.419658 -0.05681
C_ C_ 0.894076 0.181706 0.391494 -0.05681
C_ C_ 0.860938 0.183313 0.367622 -0.08735
C_ C_ 0.808691 0.187132 0.371701 -0.08735
C_ C_ 0.907448 0.182555 0.442663 -0.08735
C_ C_ 0.958583 0.176258 0.437861 -0.08735
C_ C_ 0.979237 0.172106 0.409678 -0.05681
C_ C_ 0.945855 0.174036 0.386822 -0.08735
C_ C_ 0.629168 0.281248 0.411231 0.68181
C_ C_ 0.649212 0.082577 0.399692 0.68181
C_ C_ 0.65123 0.0268638 0.397706 -0.05681
C_ C_ 0.653635 0.494973 0.417818 -0.08735
C_ C_ 0.648607 0.443066 0.416602 -0.05681
C_ C_ 0.631823 0.420345 0.392274 -0.05681
C_ C_ 0.621397 0.449116 0.367423 -0.08735
C_ C_ 0.624565 0.501757 0.368472 -0.08735
C_ C_ 0.649674 0.41301 0.4419 -0.08735
C_ C_ 0.637043 0.360248 0.44152 -0.08735
C_ C_ 0.62639 0.336975 0.415402 -0.05681
C_ C_ 0.623193 0.366291 0.390511 -0.08735
C_ C_ 0.536431 0.180297 0.404562 0.68181
C_ C_ 0.59942 0.125911 0.482085 0.1947
C_ C_ 0.5818 0.123151 0.0109559 -0.08735
C_ C_ 0.607726 0.147772 0.0330163 -0.08735
C_ C_ 0.634549 0.192825 0.0281228 -0.05681
C_ C_ 0.64301 0.207369 0.999561 0.18498
C_ C_ 0.678698 0.23742 0.497322 -0.08735
C_ C_ 0.694887 0.276769 0.0165054 -0.08735
C_ C_ 0.683367 0.264533 0.0446741 -0.08735
C_ C_ 0.652672 0.223299 0.0512976 0.18498
C_ C_ 0.688288 0.191401 0.0952741 0.44287
C_ C_ 0.603205 0.218571 0.0933362 0.44287
C_ C_ 0.594098 0.202972 0.121779 -0.05681
C_ C_ 0.546776 0.206556 0.134482 -0.08735
C_ C_ 0.540082 0.191386 0.162713 -0.08735
C_ C_ 0.582334 0.187956 0.181028 -0.05681
C_ C_ 0.630736 0.189527 0.169382 -0.05681
C_ C_ 0.636386 0.195326 0.139337 -0.05681
C_ C_ 0.685245 0.186344 0.1272 -0.05681
C_ C_ 0.727636 0.177603 0.145424 -0.08735
C_ C_ 0.720735 0.176592 0.174834 -0.08735
C_ C_ 0.673023 0.179207 0.186378 -0.05681
C_ C_ 0.665246 0.185757 0.216657 0.44287
C_ C_ 0.576311 0.184041 0.211035 0.44287
C_ C_ 0.610963 0.164794 0.258396 0.18498
C_ C_ 0.590299 0.117536 0.263366 -0.08735
C_ C_ 0.576499 0.101732 0.291423 -0.08735
C_ C_ 0.588577 0.129596 0.314868 -0.08735
C_ C_ 0.616327 0.175433 0.311384 0.18498
C_ C_ 0.626923 0.193007 0.28177 -0.05681
C_ C_ 0.647711 0.241477 0.279082 -0.08735
C_ C_ 0.668062 0.267773 0.302434 -0.08735
C_ C_ 0.664647 0.242707 0.329567 0.1947
C_ C_ 0.771573 0.322843 0.153679 0.68181
C_ C_ 0.713883 0.319597 0.14995 -0.05681
C_ C_ 0.681581 0.318705 0.173677 -0.08735
C_ C_ 0.628806 0.323829 0.170763 -0.05681
C_ C_ 0.609067 0.33447 0.1433 -0.05681
C_ C_ 0.640665 0.332009 0.118939 -0.08735
C_ C_ 0.693007 0.320605 0.12207 -0.08735
C_ C_ 0.595629 0.317592 0.194725 -0.08735
C_ C_ 0.544178 0.323644 0.190874 -0.08735
C_ C_ 0.523936 0.32914 0.162194 -0.05681
C_ C_ 0.557243 0.33258 0.138941 -0.08735
C_ C_ 0.874028 0.224601 0.163978 0.68181
C_ C_ 0.876268 0.418182 0.146757 0.68181
C_ C_ 0.878519 0.473657 0.142141 -0.05681
C_ C_ 0.870144 0.00911461 0.170628 -0.08735
C_ C_ 0.873422 0.0616579 0.168578 -0.05681
C_ C_ 0.882608 0.0866572 0.141737 -0.05681
C_ C_ 0.886549 0.057105 0.116397 -0.08735
C_ C_ 0.871706 0.498274 0.116074 -0.08735
C_ C_ 0.868038 0.0921593 0.19365 -0.08735
C_ C_ 0.870136 0.143266 0.19203 -0.08735
C_ C_ 0.87932 0.167971 0.165881 -0.05681
C_ C_ 0.888595 0.139518 0.141333 -0.08735
C_ C_ 0.96594 0.329105 0.153858 0.68181
C_ C_ 0.909551 0.385073 0.228871 0.1947
C_ C_ 0.927888 0.399949 0.255062 -0.08735
C_ C_ 0.906181 0.377773 0.279664 -0.08735
C_ C_ 0.867403 0.338505 0.276979 -0.05681
C_ C_ 0.855454 0.321984 0.248994 0.18498
C_ C_ 0.820929 0.284478 0.244734 -0.08735
C_ C_ 0.803472 0.25464 0.266535 -0.08735
C_ C_ 0.822287 0.264122 0.293703 -0.08735
C_ C_ 0.851249 0.308112 0.300293 0.18498
C_ C_ 0.819175 0.334712 0.347632 0.44287
C_ C_ 0.906187 0.314889 0.342116 0.44287
C_ C_ 0.914699 0.320837 0.371782 -0.05681
C_ C_ 0.960031 0.309617 0.385732 -0.08735
C_ C_ 0.965577 0.316964 0.415271 -0.08735
C_ C_ 0.925173 0.322906 0.433615 -0.05681
C_ C_ 0.87722 0.331319 0.420893 -0.05681
C_ C_ 0.872058 0.32887 0.390343 -0.05681
C_ C_ 0.823535 0.334499 0.377686 -0.05681
C_ C_ 0.781253 0.329719 0.396017 -0.08735
C_ C_ 0.786847 0.322258 0.42492 -0.08735
C_ C_ 0.834324 0.331717 0.437771 -0.05681
C_ C_ 0.839436 0.334536 0.468007 0.44287
C_ C_ 0.929714 0.324584 0.464073 0.44287
C_ C_ 0.88917 0.34519 0.0092705 0.18498
C_ C_ 0.921253 0.387182 0.0164898 -0.08735
C_ C_ 0.932826 0.399626 0.0454861 -0.08735
C_ C_ 0.920366 0.366497 0.0663637 -0.08735
C_ C_ 0.889037 0.32697 0.0609026 0.18498
C_ C_ 0.872595 0.314699 0.0327424 -0.05681
C_ C_ 0.847188 0.26929 0.0274861 -0.08735
C_ C_ 0.838347 0.236407 0.0500132 -0.08735
C_ C_ 0.848347 0.250806 0.0784542 0.1947
N_ N_ 0.630279 0.165576 0.477749 -0.29468
N_ N_ 0.647079 0.20776 0.0800508 -0.17154
N_ N_ 0.617142 0.181342 0.228684 -0.17154
N_ N_ 0.637098 0.200449 0.334186 -0.29468
N_ N_ 0.87699 0.34524 0.226059 -0.29468
N_ N_ 0.859736 0.321104 0.33083 -0.17154
N_ N_ 0.886144 0.331219 0.480407 -0.17154
N_ N_ 0.872156 0.297677 0.0840359 -0.29468
O_ O_ 0.716251 0.175409 0.429676 -0.58347
O_ O_ 0.706231 0.200265 0.384299 -0.58347
O_ O_ 0.642738 0.251667 0.430885 -0.58347
O_ O_ 0.619383 0.26192 0.387027 -0.58347
O_ O_ 0.638008 0.100985 0.423914 -0.58347
O_ O_ 0.647165 0.111594 0.378649 -0.58347
O_ O_ 0.564534 0.178816 0.425956 -0.58347
O_ O_ 0.555106 0.182215 0.380205 -0.58347
O_ O_ 0.570623 0.247056 0.0797946 -0.46727
O_ O_ 0.73015 0.184499 0.0823821 -0.46727
O_ O_ 0.529436 0.179806 0.221949 -0.46727
O_ O_ 0.706392 0.190282 0.232913 -0.46727
O_ O_ 0.790988 0.331757 0.177996 -0.58347
O_ O_ 0.800064 0.316937 0.13318 -0.58347
O_ O_ 0.862572 0.250516 0.185885 -0.58347
O_ O_ 0.87788 0.244654 0.138868 -0.58347
O_ O_ 0.870575 0.399305 0.171669 -0.58347
O_ O_ 0.873831 0.391639 0.124642 -0.58347
O_ O_ 0.938335 0.320999 0.176798 -0.58347
O_ O_ 0.950004 0.318748 0.128824 -0.58347
O_ O_ 0.943823 0.298222 0.325296 -0.46727
O_ O_ 0.77425 0.339742 0.335353 -0.46727
O_ O_ 0.970591 0.305772 0.476733 -0.46727
O_ O_ 0.798912 0.331019 0.484063 -0.46727
Zn Zn 0.617231 0.18791 0.880066 0.90689
Zn Zn 0.626249 0.186012 0.928442 0.90689
Zn Zn 0.863531 0.31066 0.632075 0.90689
Zn Zn 0.849213 0.315041 0.680179 0.90689
H_ H_ 0.793632 0.1984 0.946898 0.11455
H_ H_ 0.864326 0.184251 0.848131 0.11455
H_ H_ 0.773519 0.179924 0.854722 0.11455
H_ H_ 0.875747 0.205944 0.964335 0.11455
H_ H_ 0.963697 0.19563 0.960576 0.11455
H_ H_ 0.948806 0.160208 0.869388 0.11455
H_ H_ 0.660363 0.018261 0.940674 0.11455
H_ H_ 0.654122 0.43374 0.843313 0.11455
H_ H_ 0.582735 0.0267286 0.859898 0.11455
H_ H_ 0.603271 0.431792 0.958033 0.11455
H_ H_ 0.599061 0.342079 0.953497 0.11455
H_ H_ 0.624363 0.348125 0.864422 0.11455
H_ H_ 0.577827 0.114163 0.967106 0.11455
H_ H_ 0.552822 0.0811072 0.510311 0.11455
H_ H_ 0.585425 0.12852 0.554107 0.11455
H_ H_ 0.685547 0.256706 0.971851 0.11455
H_ H_ 0.717959 0.298902 0.516428 0.11455
H_ H_ 0.682878 0.285228 0.563785 0.11455
H_ H_ 0.502887 0.20428 0.622346 0.11455
H_ H_ 0.489544 0.175805 0.67217 0.11455
H_ H_ 0.75323 0.160744 0.638228 0.11455
H_ H_ 0.741298 0.149535 0.687551 0.11455
H_ H_ 0.552582 0.0716502 0.751873 0.11455
H_ H_ 0.531216 0.0560524 0.799632 0.11455
H_ H_ 0.554672 0.116252 0.839514 0.11455
H_ H_ 0.651034 0.234286 0.755821 0.11455
H_ H_ 0.685665 0.280052 0.793383 0.11455
H_ H_ 0.66881 0.25599 0.842791 0.11455
H_ H_ 0.685899 0.300613 0.695531 0.11455
H_ H_ 0.617548 0.342173 0.599552 0.11455
H_ H_ 0.706975 0.328339 0.606731 0.11455
H_ H_ 0.594433 0.310694 0.715522 0.11455
H_ H_ 0.503456 0.302997 0.707253 0.11455
H_ H_ 0.528045 0.325727 0.617057 0.11455
H_ H_ 0.884551 0.483512 0.692715 0.11455
H_ H_ 0.883913 0.0668225 0.599495 0.11455
H_ H_ 0.828315 0.465857 0.607643 0.11455
H_ H_ 0.833046 0.0644057 0.713713 0.11455
H_ H_ 0.850289 0.157448 0.710106 0.11455
H_ H_ 0.888441 0.144994 0.624047 0.11455
H_ H_ 0.916814 0.378573 0.715504 0.11455
H_ H_ 0.926698 0.415291 0.763408 0.11455
H_ H_ 0.887129 0.37214 0.805201 0.11455
H_ H_ 0.788477 0.255175 0.724679 0.11455
H_ H_ 0.763315 0.200192 0.763177 0.11455
H_ H_ 0.787107 0.219775 0.81311 0.11455
H_ H_ 0.972611 0.300365 0.866134 0.11455
H_ H_ -0.013341999999999965 0.307069 0.920504 0.11455
H_ H_ 0.720479 0.336895 0.88945 0.11455
H_ H_ 0.73771 0.353148 0.940937 0.11455
H_ H_ 0.939635 0.406722 0.999012646 0.11455
H_ H_ 0.953782 0.433879 0.549725 0.11455
H_ H_ 0.920743 0.386465 0.588117 0.11455
H_ H_ 0.846495 0.256089 0.507782 0.11455
H_ H_ 0.808434 0.205676 0.549281 0.11455
H_ H_ 0.815615 0.238255 0.599205 0.11455
C_ C_ 0.718427 0.190284 0.904748 0.68181
C_ C_ 0.774519 0.18948 0.901801 -0.05681
C_ C_ 0.808395 0.191642 0.925633 -0.08735
C_ C_ 0.859439 0.18342 0.920986 -0.05681
C_ C_ 0.879296 0.177424 0.893464 -0.05681
C_ C_ 0.848283 0.181837 0.869661 -0.08735
C_ C_ 0.795628 0.18396 0.873161 -0.08735
C_ C_ 0.890605 0.183772 0.944819 -0.08735
C_ C_ 0.942877 0.188012 0.94096 -0.08735
C_ C_ 0.964774 0.181259 0.913869 -0.05681
C_ C_ 0.931029 0.170998 0.890302 -0.08735
C_ C_ 0.612605 0.283395 0.907909 0.68181
C_ C_ 0.625163 0.0870284 0.90049 0.68181
C_ C_ 0.621576 0.029523 0.900091 -0.05681
C_ C_ 0.629607 0.497274 0.915936 -0.08735
C_ C_ 0.620321 0.445747 0.913183 -0.05681
C_ C_ 0.628168 0.420972 0.88722 -0.05681
C_ C_ 0.6402 0.451496 0.862972 -0.08735
C_ C_ 0.646117 0.503585 0.865691 -0.08735
C_ C_ 0.606903 0.417469 0.937189 -0.08735
C_ C_ 0.605519 0.364953 0.935411 -0.08735
C_ C_ 0.611577 0.339169 0.908889 -0.05681
C_ C_ 0.618173 0.368181 0.884106 -0.08735
C_ C_ 0.52344 0.178467 0.907104 0.68181
C_ C_ 0.589307 0.140509 0.98266 0.1947
C_ C_ 0.58137 0.112898 0.50873 -0.08735
C_ C_ 0.59773 0.140542 0.532245 -0.08735
C_ C_ 0.62932 0.184053 0.528659 -0.05681
C_ C_ 0.644033 0.197263 0.500075 0.18498
C_ C_ 0.676218 0.248376 0.994364 -0.08735
C_ C_ 0.693289 0.267655 0.520032 -0.08735
C_ C_ 0.673476 0.259423 0.547427 -0.08735
C_ C_ 0.646723 0.214947 0.553167 0.18498
C_ C_ 0.679065 0.182515 0.598866 0.44287
C_ C_ 0.592567 0.205638 0.594514 0.44287
C_ C_ 0.582974 0.186517 0.621805 -0.05681
C_ C_ 0.534291 0.189631 0.633907 -0.08735
C_ C_ 0.528131 0.180044 0.664126 -0.08735
C_ C_ 0.568625 0.171628 0.681862 -0.05681
C_ C_ 0.617284 0.172179 0.669995 -0.05681
C_ C_ 0.625078 0.179467 0.640193 -0.05681
C_ C_ 0.673739 0.175085 0.628765 -0.05681
C_ C_ 0.715693 0.166173 0.646746 -0.08735
C_ C_ 0.706808 0.158378 0.674969 -0.08735
C_ C_ 0.659038 0.161058 0.687569 -0.05681
C_ C_ 0.651478 0.152339 0.718227 0.44287
C_ C_ 0.56338 0.166827 0.711782 0.44287
C_ C_ 0.594457 0.143493 0.760253 0.18498
C_ C_ 0.565128 0.0997252 0.768514 -0.08735
C_ C_ 0.551107 0.0901369 0.796078 -0.08735
C_ C_ 0.568274 0.123828 0.817685 -0.08735
C_ C_ 0.597771 0.16726 0.810877 0.18498
C_ C_ 0.611652 0.178381 0.782079 -0.05681
C_ C_ 0.641582 0.221414 0.775427 -0.08735
C_ C_ 0.661881 0.247268 0.797036 -0.08735
C_ C_ 0.652004 0.235483 0.82564 0.1947
C_ C_ 0.756781 0.316325 0.655373 0.68181
C_ C_ 0.701314 0.316487 0.650727 -0.05681
C_ C_ 0.669 0.314555 0.674411 -0.08735
C_ C_ 0.614811 0.312795 0.669855 -0.05681
C_ C_ 0.59536 0.315614 0.64133 -0.05681
C_ C_ 0.628575 0.324684 0.619447 -0.08735
C_ C_ 0.681176 0.327143 0.624106 -0.08735
C_ C_ 0.58102 0.312466 0.693399 -0.08735
C_ C_ 0.529398 0.306482 0.688743 -0.08735
C_ C_ 0.510602 0.314982 0.66054 -0.05681
C_ C_ 0.543576 0.321114 0.637687 -0.08735
C_ C_ 0.862571 0.212185 0.66215 0.68181
C_ C_ 0.856352 0.410549 0.650494 0.68181
C_ C_ 0.860171 0.466584 0.647548 -0.05681
C_ C_ 0.843659 -0.0025410000000000155 0.669295 -0.08735
C_ C_ 0.847632 0.0518467 0.66833 -0.05681
C_ C_ 0.866764 0.0749479 0.643303 -0.05681
C_ C_ 0.873932 0.0467641 0.618311 -0.08735
C_ C_ 0.847032 0.490345 0.621899 -0.08735
C_ C_ 0.841199 0.0824049 0.693526 -0.08735
C_ C_ 0.846798 0.134221 0.690983 -0.08735
C_ C_ 0.862487 0.156728 0.664866 -0.05681
C_ C_ 0.871518 0.126159 0.641872 -0.08735
C_ C_ 0.954292 0.30743 0.657452 0.68181
C_ C_ 0.889697 0.367997 0.731835 0.1947
C_ C_ 0.903265 0.381077 0.759923 -0.08735
C_ C_ 0.878032 0.358367 0.783659 -0.08735
C_ C_ 0.842261 0.32191 0.778928 -0.05681
C_ C_ 0.830448 0.307461 0.750782 0.18498
C_ C_ 0.798019 0.264786 0.745842 -0.08735
C_ C_ 0.782149 0.234475 0.767841 -0.08735
C_ C_ 0.798485 0.245064 0.795801 -0.08735
C_ C_ 0.828723 0.288388 0.801405 0.18498
C_ C_ 0.79489 0.314012 0.848479 0.44287
C_ C_ 0.882249 0.298733 0.843144 0.44287
C_ C_ 0.891831 0.312718 0.871342 -0.05681
C_ C_ 0.939708 0.310312 0.881625 -0.08735
C_ C_ 0.949713 0.313167 0.91166 -0.08735
C_ C_ 0.910235 0.322784 0.930592 -0.05681
C_ C_ 0.860643 0.329825 0.920206 -0.05681
C_ C_ 0.851518 0.32294 0.890052 -0.05681
C_ C_ 0.800467 0.323668 0.878903 -0.05681
C_ C_ 0.760338 0.333901 0.898344 -0.08735
C_ C_ 0.770288 0.33888 0.92802 -0.08735
C_ C_ 0.819501 0.338433 0.9394 -0.05681
C_ C_ 0.831527 0.348164 0.968351 0.44287
C_ C_ 0.91784 0.325171 0.960677 0.44287
C_ C_ 0.891055 0.345911 0.510755 0.18498
C_ C_ 0.916317 0.390491 0.517236 -0.08735
C_ C_ 0.930142 0.401815 0.544944 -0.08735
C_ C_ 0.907649 0.37617 0.567414 -0.08735
C_ C_ 0.880798 0.330989 0.563264 0.18498
C_ C_ 0.875696 0.313688 0.53465 -0.05681
C_ C_ 0.850837 0.267548 0.529719 -0.08735
C_ C_ 0.829115 0.241493 0.552374 -0.08735
C_ C_ 0.831184 0.261353 0.581148 0.1947
N_ N_ 0.620767 0.180759 0.977157 -0.29468
N_ N_ 0.639663 0.200433 0.583042 -0.17154
N_ N_ 0.603245 0.153526 0.728833 -0.17154
N_ N_ 0.620896 0.194595 0.832317 -0.29468
N_ N_ 0.853805 0.33232 0.727732 -0.29468
N_ N_ 0.835652 0.30435 0.831046 -0.17154
N_ N_ 0.877936 0.334354 0.978746 -0.17154
N_ N_ 0.858461 0.303886 0.585832 -0.29468
O_ O_ 0.698446 0.194191 0.929202 -0.58347
O_ O_ 0.690197 0.197462 0.882542 -0.58347
O_ O_ 0.61648 0.260083 0.931738 -0.58347
O_ O_ 0.607008 0.262603 0.884024 -0.58347
O_ O_ 0.630061 0.110637 0.924087 -0.58347
O_ O_ 0.623596 0.112701 0.87703 -0.58347
O_ O_ 0.552238 0.177961 0.92854 -0.58347
O_ O_ 0.540816 0.181704 0.881518 -0.58347
O_ O_ 0.556373 0.227642 0.580519 -0.46727
O_ O_ 0.720846 0.17454 0.584681 -0.46727
O_ O_ 0.519665 0.172212 0.724013 -0.46727
O_ O_ 0.690567 0.136193 0.73475 -0.46727
O_ O_ 0.773347 0.31027 0.679796 -0.58347
O_ O_ 0.787884 0.316832 0.63538 -0.58347
O_ O_ 0.856228 0.239154 0.684952 -0.58347
O_ O_ 0.864561 0.233504 0.63812 -0.58347
O_ O_ 0.851748 0.391516 0.675102 -0.58347
O_ O_ 0.864875 0.382821 0.628046 -0.58347
O_ O_ 0.924796 0.316271 0.67895 -0.58347
O_ O_ 0.936791 0.307848 0.632561 -0.58347
O_ O_ 0.916916 0.27793 0.828479 -0.46727
O_ O_ 0.749545 0.309652 0.837869 -0.46727
O_ O_ 0.957344 0.303277 0.971982 -0.46727
O_ O_ 0.796841 0.367367 0.985348 -0.46727
Zn Zn 0.642849 0.687109 0.382064 0.90689
Zn Zn 0.644533 0.677492 0.430818 0.90689
Zn Zn 0.876933 0.822037 0.129457 0.90689
Zn Zn 0.871063 0.825335 0.176316 0.90689
H_ H_ 0.815948 0.692405 0.448796 0.11455
H_ H_ 0.884702 0.67168 0.351161 0.11455
H_ H_ 0.792853 0.669319 0.358874 0.11455
H_ H_ 0.902698 0.66263 0.469567 0.11455
H_ H_ 0.994161 0.66471 0.464163 0.11455
H_ H_ 0.974053 0.665418 0.373419 0.11455
H_ H_ 0.665989 0.510612 0.436831 0.11455
H_ H_ 0.656131 0.935099 0.346627 0.11455
H_ H_ 0.6094 0.524406 0.351199 0.11455
H_ H_ 0.646741 0.933527 0.465359 0.11455
H_ H_ 0.63801 0.839416 0.462482 0.11455
H_ H_ 0.639171 0.848597 0.368524 0.11455
H_ H_ 0.60384 0.596598 0.465003 0.11455
H_ H_ 0.585487 0.574705 0.0131291 0.11455
H_ H_ 0.631463 0.617918 0.0552355 0.11455
H_ H_ 0.713237 0.744488 0.472442 0.11455
H_ H_ 0.709622 0.81462 0.0144012 0.11455
H_ H_ 0.685717 0.789512 0.0639119 0.11455
H_ H_ 0.519203 0.682693 0.121131 0.11455
H_ H_ 0.508089 0.6783 0.175099 0.11455
H_ H_ 0.773021 0.678375 0.138269 0.11455
H_ H_ 0.758792 0.655771 0.188174 0.11455
H_ H_ 0.567738 0.582357 0.251099 0.11455
H_ H_ 0.534564 0.576372 0.301785 0.11455
H_ H_ 0.568825 0.627932 0.338961 0.11455
H_ H_ 0.675157 0.734851 0.254378 0.11455
H_ H_ 0.708791 0.787842 0.293835 0.11455
H_ H_ 0.695738 0.756586 0.345647 0.11455
H_ H_ 0.704087 0.820481 0.193212 0.11455
H_ H_ 0.631099 0.828975 0.0978964 0.11455
H_ H_ 0.722192 0.835464 0.102407 0.11455
H_ H_ 0.621858 0.791453 0.214139 0.11455
H_ H_ 0.528345 0.787634 0.2065 0.11455
H_ H_ 0.550995 0.826908 0.118297 0.11455
H_ H_ 0.862906 0.990655 0.191003 0.11455
H_ H_ 0.858325 0.567571 0.0925131 0.11455
H_ H_ 0.886571 0.982862 0.0985843 0.11455
H_ H_ 0.922901 0.57053 0.206768 0.11455
H_ H_ 0.935597 0.660407 0.200202 0.11455
H_ H_ 0.862847 0.651634 0.115227 0.11455
H_ H_ 0.922008 0.900455 0.209338 0.11455
H_ H_ 0.953819 0.921739 0.255866 0.11455
H_ H_ 0.921758 0.877536 0.300153 0.11455
H_ H_ 0.819119 0.758418 0.219993 0.11455
H_ H_ 0.800878 0.700413 0.260306 0.11455
H_ H_ 0.83812 0.714049 0.309242 0.11455
H_ H_ 1.0109725 0.794746 0.373807 0.11455
H_ H_ 0.0134904 0.800266 0.425998 0.11455
H_ H_ 0.754086 0.821217 0.379899 0.11455
H_ H_ 0.760759 0.836213 0.432142 0.11455
H_ H_ 0.926917 0.910548 0.497919 0.11455
H_ H_ 0.973022 0.938049 0.0446947 0.11455
H_ H_ 0.944283 0.888938 0.0850209 0.11455
H_ H_ 0.865386 0.753562 0.00769289 0.11455
H_ H_ 0.816053 0.720261 0.0483805 0.11455
H_ H_ 0.822122 0.754882 0.0960057 0.11455
C_ C_ 0.743754 0.685324 0.408661 0.68181
C_ C_ 0.799167 0.673882 0.404928 -0.05681
C_ C_ 0.831186 0.678211 0.429142 -0.08735
C_ C_ 0.883446 0.674965 0.42617 -0.05681
C_ C_ 0.90545 0.67537 0.397528 -0.05681
C_ C_ 0.872617 0.673306 0.372178 -0.08735
C_ C_ 0.819499 0.668854 0.376759 -0.08735
C_ C_ 0.917146 0.674019 0.449442 -0.08735
C_ C_ 0.971744 0.674492 0.4454 -0.08735
C_ C_ 0.991922 0.677652 0.417066 -0.05681
C_ C_ 0.958256 0.678324 0.393483 -0.08735
C_ C_ 0.637883 0.77951 0.414622 0.68181
C_ C_ 0.646353 0.581195 0.397305 0.68181
C_ C_ 0.64519 0.524445 0.393992 -0.05681
C_ C_ 0.646879 0.995665 0.421557 -0.08735
C_ C_ 0.644872 0.944021 0.418533 -0.05681
C_ C_ 0.645769 0.920203 0.391463 -0.05681
C_ C_ 0.651458 0.951204 0.367403 -0.08735
C_ C_ 0.650269 1.00379509 0.370987 -0.08735
C_ C_ 0.638999 0.914383 0.444273 -0.08735
C_ C_ 0.642302 0.862031 0.44248 -0.08735
C_ C_ 0.638908 0.837342 0.415324 -0.05681
C_ C_ 0.644373 0.866698 0.390176 -0.08735
C_ C_ 0.545459 0.676208 0.408453 0.68181
C_ C_ 0.615237 0.622884 0.481889 0.1947
C_ C_ 0.608059 0.609255 0.010505 -0.08735
C_ C_ 0.633523 0.63138 0.0342991 -0.08735
C_ C_ 0.65464 0.679039 0.0298803 -0.05681
C_ C_ 0.661068 0.695525 1.000882453 0.18498
C_ C_ 0.692847 0.73891 0.493221 -0.08735
C_ C_ 0.689052 0.777788 0.0186269 -0.08735
C_ C_ 0.681681 0.761687 0.0466335 -0.08735
C_ C_ 0.662762 0.713792 0.0525203 0.18498
C_ C_ 0.69939 0.689471 0.0994339 0.44287
C_ C_ 0.610135 0.691163 0.0932759 0.44287
C_ C_ 0.601632 0.680309 0.122751 -0.05681
C_ C_ 0.551664 0.679735 0.134727 -0.08735
C_ C_ 0.545456 0.675153 0.165015 -0.08735
C_ C_ 0.588515 0.669534 0.182636 -0.05681
C_ C_ 0.637076 0.671104 0.171001 -0.05681
C_ C_ 0.644673 0.676074 0.14041 -0.05681
C_ C_ 0.694068 0.682787 0.128312 -0.05681
C_ C_ 0.734107 0.677373 0.14762 -0.08735
C_ C_ 0.726069 0.669952 0.177184 -0.08735
C_ C_ 0.678447 0.664064 0.189376 -0.05681
C_ C_ 0.671747 0.654217 0.218799 0.44287
C_ C_ 0.581867 0.662864 0.212775 0.44287
C_ C_ 0.615454 0.647762 0.261315 0.18498
C_ C_ 0.586719 0.605807 0.268976 -0.08735
C_ C_ 0.568161 0.599745 0.297601 -0.08735
C_ C_ 0.588937 0.630051 0.319169 -0.08735
C_ C_ 0.625878 0.667482 0.312784 0.18498
C_ C_ 0.637433 0.678753 0.283288 -0.05681
C_ C_ 0.668751 0.72163 0.276888 -0.08735
C_ C_ 0.688645 0.750565 0.298883 -0.08735
C_ C_ 0.674834 0.739454 0.327836 0.1947
C_ C_ 0.777707 0.821421 0.152941 0.68181
C_ C_ 0.721143 0.824455 0.150118 -0.05681
C_ C_ 0.691665 0.811606 0.173478 -0.08735
C_ C_ 0.63931 0.803971 0.169144 -0.05681
C_ C_ 0.618441 0.806729 0.140887 -0.05681
C_ C_ 0.649016 0.819522 0.117589 -0.08735
C_ C_ 0.701622 0.824104 0.120867 -0.08735
C_ C_ 0.606872 0.795378 0.192729 -0.08735
C_ C_ 0.554284 0.793534 0.188375 -0.08735
C_ C_ 0.53124 0.801547 0.160434 -0.05681
C_ C_ 0.565231 0.809871 0.137891 -0.08735
C_ C_ 0.888275 0.722217 0.158458 0.68181
C_ C_ 0.876846 0.922324 0.14665 0.68181
C_ C_ 0.876866 0.979563 0.145468 -0.05681
C_ C_ 0.888429 0.505259 0.166572 -0.08735
C_ C_ 0.898126 0.557979 0.162716 -0.05681
C_ C_ 0.876269 0.582115 0.137235 -0.05681
C_ C_ 0.86873 0.551788 0.112631 -0.08735
C_ C_ 0.884986 1.00399116 0.118425 -0.08735
C_ C_ 0.913171 0.58757 0.186251 -0.08735
C_ C_ 0.914755 0.639954 0.183378 -0.08735
C_ C_ 0.889905 0.664914 0.159845 -0.05681
C_ C_ 0.875481 0.633926 0.135524 -0.08735
C_ C_ 0.974942 0.825441 0.14988 0.68181
C_ C_ 0.910574 0.877063 0.227872 0.1947
C_ C_ 0.925005 0.892638 0.254454 -0.08735
C_ C_ 0.907219 0.865798 0.278502 -0.08735
C_ C_ 0.878448 0.821942 0.274956 -0.05681
C_ C_ 0.860972 0.810963 0.24623 0.18498
C_ C_ 0.831017 0.768983 0.241617 -0.08735
C_ C_ 0.82592 0.733714 0.264618 -0.08735
C_ C_ 0.843815 0.742861 0.292778 -0.08735
C_ C_ 0.868608 0.787533 0.298532 0.18498
C_ C_ 0.83299 0.813115 0.34289 0.44287
C_ C_ 0.922707 0.79648 0.341727 0.44287
C_ C_ 0.927618 0.807485 0.3704 -0.05681
C_ C_ 0.976014 0.804268 0.385426 -0.08735
C_ C_ 0.978709 0.80907 0.415022 -0.08735
C_ C_ 0.933239 0.818211 0.430883 -0.05681
C_ C_ 0.885305 0.816177 0.416622 -0.05681
C_ C_ 0.883189 0.813228 0.386757 -0.05681
C_ C_ 0.835124 0.814288 0.374033 -0.05681
C_ C_ 0.79113 0.820001 0.390544 -0.08735
C_ C_ 0.794164 0.828967 0.419846 -0.08735
C_ C_ 0.841493 0.824604 0.433855 -0.05681
C_ C_ 0.847235 0.82832 0.464184 0.44287
C_ C_ 0.934851 0.822594 0.461347 0.44287
C_ C_ 0.911568 0.84522 0.00811709 0.18498
C_ C_ 0.94035 0.890398 0.0130466 -0.08735
C_ C_ 0.950457 0.904781 0.041192 -0.08735
C_ C_ 0.931836 0.877277 0.0645061 -0.08735
C_ C_ 0.896781 0.839373 0.0598858 0.18498
C_ C_ 0.890702 0.81987 0.0328488 -0.05681
C_ C_ 0.860975 0.775998 0.0281979 -0.08735
C_ C_ 0.833837 0.756239 0.0511454 -0.08735
C_ C_ 0.841102 0.775492 0.0783849 0.1947
N_ N_ 0.641897 0.666348 0.477412 -0.29468
N_ N_ 0.659226 0.69697 0.0818787 -0.17154
N_ N_ 0.623323 0.655995 0.230395 -0.17154
N_ N_ 0.646506 0.696938 0.333541 -0.29468
N_ N_ 0.875024 0.840488 0.223859 -0.29468
N_ N_ 0.876965 0.802074 0.327735 -0.17154
N_ N_ 0.892842 0.828425 0.478022 -0.17154
N_ N_ 0.873736 0.814462 0.0828176 -0.29468
O_ O_ 0.7199 0.679173 0.431343 -0.58347
O_ O_ 0.717235 0.692914 0.385682 -0.58347
O_ O_ 0.637539 0.752891 0.437429 -0.58347
O_ O_ 0.640398 0.75951 0.39098 -0.58347
O_ O_ 0.6529 0.601118 0.421791 -0.58347
O_ O_ 0.638128 0.609013 0.375909 -0.58347
O_ O_ 0.573424 0.674398 0.430522 -0.58347
O_ O_ 0.568344 0.679166 0.384216 -0.58347
O_ O_ 0.570606 0.70448 0.0773043 -0.46727
O_ O_ 0.745011 0.688547 0.0869351 -0.46727
O_ O_ 0.535635 0.663301 0.224463 -0.46727
O_ O_ 0.710399 0.648033 0.236657 -0.46727
O_ O_ 0.797176 0.817861 0.177749 -0.58347
O_ O_ 0.803864 0.830202 0.131754 -0.58347
O_ O_ 0.883312 0.746908 0.181555 -0.58347
O_ O_ 0.878762 0.745098 0.134968 -0.58347
O_ O_ 0.861931 0.900954 0.168926 -0.58347
O_ O_ 0.883464 0.896135 0.12504 -0.58347
O_ O_ 0.947119 0.83592 0.171896 -0.58347
O_ O_ 0.955655 0.81642 0.126441 -0.58347
O_ O_ 0.961687 0.775819 0.330105 -0.46727
O_ O_ 0.790689 0.822552 0.329053 -0.46727
O_ O_ 0.980997 0.821568 0.473246 -0.46727
O_ O_ 0.80645 0.831164 0.479038 -0.46727
Zn Zn 0.63092 0.685905 0.882116 0.90689
Zn Zn 0.644275 0.678697 0.931114 0.90689
Zn Zn 0.871255 0.811276 0.629429 0.90689
Zn Zn 0.863243 0.817763 0.677272 0.90689
H_ H_ 0.807753 0.709274 0.944484 0.11455
H_ H_ 0.878065 0.657874 0.850217 0.11455
H_ H_ 0.785917 0.680163 0.857082 0.11455
H_ H_ 0.896582 0.721194 0.962865 0.11455
H_ H_ 0.986441 0.715328 0.957107 0.11455
H_ H_ 0.965451 0.684495 0.868513 0.11455
H_ H_ 0.631591 0.513458 0.936573 0.11455
H_ H_ 0.589692 0.933898 0.853803 0.11455
H_ H_ 0.661357 0.52281 0.847274 0.11455
H_ H_ 0.663005 0.931125 0.964178 0.11455
H_ H_ 0.667712 0.841734 0.959603 0.11455
H_ H_ 0.611126 0.854604 0.87377 0.11455
H_ H_ 0.597652 0.606997 0.965277 0.11455
H_ H_ 0.570466 0.582226 0.513152 0.11455
H_ H_ 0.593895 0.64167 0.552018 0.11455
H_ H_ 0.706472 0.745336 0.976632 0.11455
H_ H_ 0.733397 0.80303 0.509203 0.11455
H_ H_ 0.695859 0.792321 0.558269 0.11455
H_ H_ 0.517454 0.719013 0.622126 0.11455
H_ H_ 0.510506 0.707742 0.672556 0.11455
H_ H_ 0.767195 0.680324 0.634887 0.11455
H_ H_ 0.758731 0.67311 0.686867 0.11455
H_ H_ 0.587542 0.589005 0.748725 0.11455
H_ H_ 0.550326 0.574183 0.793444 0.11455
H_ H_ 0.565847 0.63027 0.836427 0.11455
H_ H_ 0.656501 0.761055 0.759639 0.11455
H_ H_ 0.700527 0.79457 0.800569 0.11455
H_ H_ 0.67746 0.766299 0.848394 0.11455
H_ H_ 0.691819 0.810884 0.693784 0.11455
H_ H_ 0.623983 0.839444 0.5963 0.11455
H_ H_ 0.714743 0.840794 0.603326 0.11455
H_ H_ 0.61383 0.819684 0.71349 0.11455
H_ H_ 0.521829 0.800698 0.709253 0.11455
H_ H_ 0.536577 0.830641 0.617915 0.11455
H_ H_ 0.829147 0.980944 0.688573 0.11455
H_ H_ 0.831031 0.558948 0.600623 0.11455
H_ H_ 0.879585 0.974035 0.600594 0.11455
H_ H_ 0.897246 0.567878 0.713009 0.11455
H_ H_ 0.904838 0.658042 0.705858 0.11455
H_ H_ 0.858763 0.642498 0.616125 0.11455
H_ H_ 0.910283 0.899006 0.714178 0.11455
H_ H_ 0.897986 0.938793 0.760423 0.11455
H_ H_ 0.867465 0.887905 0.802369 0.11455
H_ H_ 0.810441 0.748006 0.722761 0.11455
H_ H_ 0.778742 0.697199 0.764563 0.11455
H_ H_ 0.798519 0.722064 0.811587 0.11455
H_ H_ 0.984841 0.799731 0.866668 0.11455
H_ H_ 1.00137587 0.808572 0.91686 0.11455
H_ H_ 0.741516 0.84839 0.888953 0.11455
H_ H_ 0.757612 0.863227 0.942466 0.11455
H_ H_ 0.955373 0.912028 0.994912 0.11455
H_ H_ 0.948116 0.935479 0.547925 0.11455
H_ H_ 0.935353 0.872344 0.58454 0.11455
H_ H_ 0.858014 0.748491 0.5023 0.11455
H_ H_ 0.818657 0.6945 0.541162 0.11455
H_ H_ 0.828566 0.724031 0.590447 0.11455
C_ C_ 0.734875 0.683144 0.906995 0.68181
C_ C_ 0.790605 0.688328 0.9027 -0.05681
C_ C_ 0.823783 0.70041 0.924202 -0.08735
C_ C_ 0.876634 0.694428 0.920673 -0.05681
C_ C_ 0.897101 0.679683 0.893127 -0.05681
C_ C_ 0.862776 0.67306 0.870199 -0.08735
C_ C_ 0.809589 0.681256 0.874889 -0.08735
C_ C_ 0.910817 0.704577 0.944023 -0.08735
C_ C_ 0.961829 0.697707 0.940668 -0.08735
C_ C_ 0.984217 0.686857 0.913943 -0.05681
C_ C_ 0.951323 0.679993 0.889909 -0.08735
C_ C_ 0.633532 0.782642 0.915767 0.68181
C_ C_ 0.638805 0.583624 0.896496 0.68181
C_ C_ 0.638809 0.527124 0.892449 -0.05681
C_ C_ 0.642219 -0.0014929999999999666 0.922401 -0.08735
C_ C_ 0.636662 0.944606 0.92094 -0.05681
C_ C_ 0.622152 0.921508 0.895878 -0.05681
C_ C_ 0.603485 0.951812 0.873709 -0.08735
C_ C_ 0.600577 0.00385747 0.876682 -0.08735
C_ C_ 0.647757 0.9137 0.943759 -0.08735
C_ C_ 0.649221 0.862153 0.942674 -0.08735
C_ C_ 0.635594 0.838552 0.91678 -0.05681
C_ C_ 0.613927 0.868051 0.894927 -0.08735
C_ C_ 0.540615 0.676302 0.909269 0.68181
C_ C_ 0.614351 0.628478 0.983569 0.1947
C_ C_ 0.600082 0.611362 0.50966 -0.08735
C_ C_ 0.612495 0.643704 0.532374 -0.08735
C_ C_ 0.641683 0.687166 0.527406 -0.05681
C_ C_ 0.658539 0.69666 0.499044 0.18498
C_ C_ 0.684132 0.742299 0.996247 -0.08735
C_ C_ 0.707654 0.769388 0.515027 -0.08735
C_ C_ 0.684763 0.765929 0.541348 -0.08735
C_ C_ 0.656314 0.722065 0.548758 0.18498
C_ C_ 0.690069 0.69296 0.594724 0.44287
C_ C_ 0.603757 0.715995 0.591695 0.44287
C_ C_ 0.598012 0.705375 0.620673 -0.05681
C_ C_ 0.549995 0.706207 0.633834 -0.08735
C_ C_ 0.546895 0.699705 0.663072 -0.08735
C_ C_ 0.589147 0.691039 0.680703 -0.05681
C_ C_ 0.637477 0.688009 0.668019 -0.05681
C_ C_ 0.639444 0.691978 0.638175 -0.05681
C_ C_ 0.686101 0.688284 0.625161 -0.05681
C_ C_ 0.729115 0.679932 0.643281 -0.08735
C_ C_ 0.725186 0.676534 0.672722 -0.08735
C_ C_ 0.679984 0.682037 0.686004 -0.05681
C_ C_ 0.672613 0.683883 0.716216 0.44287
C_ C_ 0.583988 0.688469 0.711159 0.44287
C_ C_ 0.615998 0.66353 0.757733 0.18498
C_ C_ 0.58852 0.61851 0.764004 -0.08735
C_ C_ 0.570672 0.608181 0.791273 -0.08735
C_ C_ 0.579491 0.640033 0.814236 -0.08735
C_ C_ 0.610181 0.682068 0.810795 0.18498
C_ C_ 0.62447 0.695278 0.781279 -0.05681
C_ C_ 0.654485 0.740765 0.778638 -0.08735
C_ C_ 0.674573 0.764036 0.802954 -0.08735
C_ C_ 0.662502 0.746192 0.830596 0.1947
C_ C_ 0.767607 0.815592 0.651947 0.68181
C_ C_ 0.711211 0.824351 0.648752 -0.05681
C_ C_ 0.678954 0.823038 0.673288 -0.08735
C_ C_ 0.626031 0.825109 0.67016 -0.05681
C_ C_ 0.606039 0.832657 0.642749 -0.05681
C_ C_ 0.637542 0.837424 0.618062 -0.08735
C_ C_ 0.690001 0.837339 0.622177 -0.08735
C_ C_ 0.596399 0.817546 0.693461 -0.08735
C_ C_ 0.543759 0.811965 0.690928 -0.08735
C_ C_ 0.520607 0.82041 0.663639 -0.05681
C_ C_ 0.552945 0.827943 0.640006 -0.08735
C_ C_ 0.877576 0.714513 0.661115 0.68181
C_ C_ 0.861718 0.911252 0.646753 0.68181
C_ C_ 0.85747 0.968024 0.644815 -0.05681
C_ C_ 0.874164 0.499228 0.670732 -0.08735
C_ C_ 0.87489 0.55353 0.668639 -0.05681
C_ C_ 0.864767 0.575035 0.642233 -0.05681
C_ C_ 0.845277 0.544099 0.62015 -0.08735
C_ C_ 0.873627 0.993822 0.620515 -0.08735
C_ C_ 0.886852 0.58476 0.691877 -0.08735
C_ C_ 0.892288 0.63588 0.687932 -0.08735
C_ C_ 0.875895 0.659457 0.662578 -0.05681
C_ C_ 0.867018 0.626951 0.637934 -0.08735
C_ C_ 0.965892 0.816593 0.652841 0.68181
C_ C_ 0.892251 0.875167 0.731517 0.1947
C_ C_ 0.891475 0.898127 0.758788 -0.08735
C_ C_ 0.864478 0.873129 0.781275 -0.08735
C_ C_ 0.847973 0.823614 0.776833 -0.05681
C_ C_ 0.842378 0.80592 0.748091 0.18498
C_ C_ 0.819982 0.75885 0.743628 -0.08735
C_ C_ 0.803557 0.730235 0.767377 -0.08735
C_ C_ 0.811933 0.745904 0.795367 -0.08735
C_ C_ 0.833888 0.79439 0.800028 0.18498
C_ C_ 0.809271 0.825508 0.847954 0.44287
C_ C_ 0.893722 0.8049 0.840352 0.44287
C_ C_ 0.904913 0.813527 0.869572 -0.05681
C_ C_ 0.955537 0.809867 0.879794 -0.08735
C_ C_ 0.962993 0.81471 0.908861 -0.08735
C_ C_ 0.925749 0.823853 0.928882 -0.05681
C_ C_ 0.876043 0.830943 0.91787 -0.05681
C_ C_ 0.865665 0.823848 0.888769 -0.05681
C_ C_ 0.816642 0.830714 0.878 -0.05681
C_ C_ 0.777213 0.844883 0.897441 -0.08735
C_ C_ 0.787191 0.849708 0.9275 -0.08735
C_ C_ 0.836482 0.83542 0.938223 -0.05681
C_ C_ 0.848859 0.84206 0.967725 0.44287
C_ C_ 0.934831 0.821102 0.959857 0.44287
C_ C_ 0.895134 0.842522 0.508588 0.18498
C_ C_ 0.917122 0.887872 0.515854 -0.08735
C_ C_ 0.928175 0.901315 0.54414 -0.08735
C_ C_ 0.919235 0.865856 0.565523 -0.08735
C_ C_ 0.889042 0.821742 0.558942 0.18498
C_ C_ 0.881139 0.807987 0.530118 -0.05681
C_ C_ 0.859035 0.761277 0.524106 -0.08735
C_ C_ 0.835951 0.732343 0.545116 -0.08735
C_ C_ 0.844047 0.748378 0.573662 0.1947
N_ N_ 0.649434 0.664633 0.97817 -0.29468
N_ N_ 0.649451 0.711767 0.579349 -0.17154
N_ N_ 0.624905 0.679109 0.72815 -0.17154
N_ N_ 0.632692 0.704461 0.834005 -0.29468
N_ N_ 0.866394 0.830606 0.72649 -0.29468
N_ N_ 0.845606 0.809387 0.829661 -0.17154
N_ N_ 0.896795 0.833033 0.978133 -0.17154
N_ N_ 0.869748 0.791298 0.580818 -0.29468
O_ O_ 0.71833 0.673151 0.931155 -0.58347
O_ O_ 0.704234 0.696738 0.886976 -0.58347
O_ O_ 0.648333 0.755873 0.936768 -0.58347
O_ O_ 0.620337 0.759563 0.892284 -0.58347
O_ O_ 0.639651 0.604599 0.921434 -0.58347
O_ O_ 0.643669 0.609803 0.874689 -0.58347
O_ O_ 0.569907 0.68054 0.930622 -0.58347
O_ O_ 0.558738 0.672908 0.883649 -0.58347
O_ O_ 0.566178 0.733093 0.57623 -0.46727
O_ O_ 0.730233 0.681657 0.581285 -0.46727
O_ O_ 0.538262 0.691057 0.722998 -0.46727
O_ O_ 0.710665 0.674893 0.733971 -0.46727
O_ O_ 0.788225 0.806698 0.676108 -0.58347
O_ O_ 0.795099 0.813719 0.629042 -0.58347
O_ O_ 0.876496 0.741366 0.68288 -0.58347
O_ O_ 0.874766 0.736099 0.636491 -0.58347
O_ O_ 0.85022 0.890349 0.671102 -0.58347
O_ O_ 0.87668 0.88532 0.625236 -0.58347
O_ O_ 0.938733 0.829877 0.673752 -0.58347
O_ O_ 0.947817 0.813479 0.627057 -0.58347
O_ O_ 0.927434 0.785944 0.822308 -0.46727
O_ O_ 0.761603 0.820409 0.839738 -0.46727
O_ O_ 0.981201 0.818066 0.969318 -0.46727
O_ O_ 0.811304 0.845453 0.98556 -0.46727
