_cell_length_a 26.376
_cell_length_b 26.400000238300095
_cell_length_c 46.67800035477134
_cell_angle_alpha 90.00700052986613
_cell_angle_beta 89.99899961309502
_cell_angle_gamma 90.45000003183146
_symmetry_space_group_name_H-M         'P 1'
_symmetry_Int_Tables_number            1
loop_
_symmetry_equiv_pos_as_xyz
   'x, y, z'
                         
loop_
_atom_site_label
_atom_site_type_symbol
_atom_site_fract_x 
_atom_site_fract_y
_atom_site_fract_z
_atom_site_charge
Zn Zn 0.124942 0.189324 0.378133 0.90689
Zn Zn 0.134557 0.187279 0.427894 0.90689
Zn Zn 0.365915 0.312011 0.132271 0.90689
Zn Zn 0.359458 0.320409 0.180881 0.90689
H_ H_ 0.305134 0.181817 0.445284 0.11455
H_ H_ 0.370642 0.172673 0.344292 0.11455
H_ H_ 0.282659 0.177633 0.353319 0.11455
H_ H_ 0.389668 0.180074 0.462126 0.11455
H_ H_ 0.480199 0.194118 0.455891 0.11455
H_ H_ 0.459667 0.175056 0.363382 0.11455
H_ H_ 0.124421 0.0182773 0.438377 0.11455
H_ H_ 0.108726 0.439004 0.342825 0.11455
H_ H_ 0.14836 0.0324719 0.346938 0.11455
H_ H_ 0.150364 0.437706 0.461357 0.11455
H_ H_ 0.134402 0.345019 0.456762 0.11455
H_ H_ 0.105212 0.359105 0.367593 0.11455
H_ H_ 0.0785673 0.114902 0.465808 0.11455
H_ H_ 0.0791973 0.0702794 0.0114012 0.11455
H_ H_ 0.117544 0.113247 0.0525762 0.11455
H_ H_ 0.186512 0.253937 0.472902 0.11455
H_ H_ 0.234067 0.292149 0.0136521 0.11455
H_ H_ 0.215076 0.268757 0.0622914 0.11455
H_ H_ 0.0254235 0.206797 0.125427 0.11455
H_ H_ 0.0143179 0.198435 0.177857 0.11455
H_ H_ 0.26735 0.138104 0.134173 0.11455
H_ H_ 0.260639 0.137893 0.187682 0.11455
H_ H_ 0.0976832 0.0605479 0.251655 0.11455
H_ H_ 0.0699672 0.0478089 0.303201 0.11455
H_ H_ 0.0768556 0.112834 0.337408 0.11455
H_ H_ 0.167528 0.225238 0.253752 0.11455
H_ H_ 0.194262 0.285565 0.288929 0.11455
H_ H_ 0.173255 0.264731 0.341452 0.11455
H_ H_ 0.192229 0.316738 0.200188 0.11455
H_ H_ 0.124343 0.318551 0.101046 0.11455
H_ H_ 0.211774 0.313693 0.107898 0.11455
H_ H_ 0.1056 0.295611 0.216929 0.11455
H_ H_ 0.0121793 0.295073 0.208625 0.11455
H_ H_ 0.0360478 0.331925 0.119838 0.11455
H_ H_ 0.351052 0.488031 0.195221 0.11455
H_ H_ 0.357219 0.0669752 0.0989313 0.11455
H_ H_ 0.361287 0.472276 0.102997 0.11455
H_ H_ 0.373452 0.0660482 0.218543 0.11455
H_ H_ 0.367231 0.162543 0.212753 0.11455
H_ H_ 0.371485 0.150811 0.122228 0.11455
H_ H_ 0.397962 0.402451 0.216643 0.11455
H_ H_ 0.398852 0.437465 0.263589 0.11455
H_ H_ 0.365352 0.386411 0.304268 0.11455
H_ H_ 0.314439 0.241916 0.225106 0.11455
H_ H_ 0.264855 0.202095 0.263023 0.11455
H_ H_ 0.295609 0.222173 0.312904 0.11455
H_ H_ 0.482592 0.29533 0.36708 0.11455
H_ H_ 0.498487 0.307538 0.419217 0.11455
H_ H_ 0.233509 0.331211 0.390557 0.11455
H_ H_ 0.248892 0.335889 0.442535 0.11455
H_ H_ 0.444222 0.417306 0.501036 0.11455
H_ H_ 0.442443 0.445342 0.0523253 0.11455
H_ H_ 0.421317 0.389156 0.0905107 0.11455
H_ H_ 0.343225 0.260627 0.00782645 0.11455
H_ H_ 0.311591 0.207939 0.0465811 0.11455
H_ H_ 0.318194 0.237105 0.095175 0.11455
C_ C_ 0.226537 0.185943 0.402318 0.68181
C_ C_ 0.284212 0.184221 0.398282 -0.05681
C_ C_ 0.318484 0.179989 0.422208 -0.08735
C_ C_ 0.371298 0.181421 0.416856 -0.05681
C_ C_ 0.390438 0.180461 0.389544 -0.05681
C_ C_ 0.357621 0.178442 0.36576 -0.08735
C_ C_ 0.306082 0.182423 0.371196 -0.08735
C_ C_ 0.402491 0.18644 0.440558 -0.08735
C_ C_ 0.455179 0.186485 0.436595 -0.08735
C_ C_ 0.476055 0.183473 0.409656 -0.05681
C_ C_ 0.443255 0.179291 0.38544 -0.08735
C_ C_ 0.123707 0.289256 0.408066 0.68181
C_ C_ 0.1348 0.0877278 0.396934 0.68181
C_ C_ 0.134207 0.0307813 0.393117 -0.05681
C_ C_ 0.141797 0.503445 0.417078 -0.08735
C_ C_ 0.135318 0.449569 0.415774 -0.05681
C_ C_ 0.124724 0.426287 0.388422 -0.05681
C_ C_ 0.121628 0.456541 0.363753 -0.08735
C_ C_ 0.125403 0.508999 0.36709 -0.08735
C_ C_ 0.140545 0.418682 0.440602 -0.08735
C_ C_ 0.132663 0.366468 0.437952 -0.08735
C_ C_ 0.124533 0.343317 0.410699 -0.05681
C_ C_ 0.113 0.375822 0.387662 -0.08735
C_ C_ 0.0308847 0.178369 0.403588 0.68181
C_ C_ 0.0999038 0.129165 0.483494 0.1947
C_ C_ 0.101862 0.104966 0.00724806 -0.08735
C_ C_ 0.12213 0.129837 0.0306639 -0.08735
C_ C_ 0.15093 0.17524 0.0276531 -0.05681
C_ C_ 0.161366 0.192045 0.998435 0.18498
C_ C_ 0.174563 0.245992 0.493962 -0.08735
C_ C_ 0.214775 0.257601 0.0172838 -0.08735
C_ C_ 0.196124 0.247517 0.0455947 -0.08735
C_ C_ 0.162838 0.207129 0.051795 0.18498
C_ C_ 0.197134 0.175942 0.0979709 0.44287
C_ C_ 0.113255 0.203855 0.0963123 0.44287
C_ C_ 0.104818 0.192362 0.125169 -0.05681
C_ C_ 0.0572255 0.195021 0.138301 -0.08735
C_ C_ 0.0502792 0.187535 0.167549 -0.08735
C_ C_ 0.0905904 0.171851 0.183929 -0.05681
C_ C_ 0.13742 0.166226 0.17114 -0.05681
C_ C_ 0.144925 0.175444 0.141282 -0.05681
C_ C_ 0.191558 0.168499 0.128048 -0.05681
C_ C_ 0.231637 0.149752 0.144463 -0.08735
C_ C_ 0.22666 0.141747 0.174648 -0.08735
C_ C_ 0.1798 0.149942 0.187398 -0.05681
C_ C_ 0.172881 0.141234 0.217129 0.44287
C_ C_ 0.0867903 0.170492 0.213857 0.44287
C_ C_ 0.117391 0.140276 0.259107 0.18498
C_ C_ 0.0967813 0.0924111 0.26707 -0.08735
C_ C_ 0.0811546 0.0858781 0.295699 -0.08735
C_ C_ 0.0927626 0.119786 0.31724 -0.08735
C_ C_ 0.115222 0.166795 0.310372 0.18498
C_ C_ 0.128771 0.177674 0.281211 -0.05681
C_ C_ 0.154447 0.221529 0.274783 -0.08735
C_ C_ 0.170356 0.25298 0.296375 -0.08735
C_ C_ 0.156842 0.241951 0.324928 0.1947
C_ C_ 0.265532 0.313408 0.158059 0.68181
C_ C_ 0.209765 0.316187 0.154807 -0.05681
C_ C_ 0.177428 0.313571 0.178712 -0.08735
C_ C_ 0.125028 0.313122 0.173289 -0.05681
C_ C_ 0.104376 0.320715 0.145303 -0.05681
C_ C_ 0.136248 0.32503 0.122962 -0.08735
C_ C_ 0.188892 0.321963 0.127191 -0.08735
C_ C_ 0.0910338 0.305705 0.19691 -0.08735
C_ C_ 0.0385812 0.306959 0.191218 -0.08735
C_ C_ 0.0185407 0.318285 0.16427 -0.05681
C_ C_ 0.0513817 0.324487 0.141506 -0.08735
C_ C_ 0.380711 0.220346 0.164543 0.68181
C_ C_ 0.352161 0.415403 0.151842 0.68181
C_ C_ 0.356558 0.471856 0.149127 -0.05681
C_ C_ 0.358458 0.00316296 0.173718 -0.08735
C_ C_ 0.364545 0.0551868 0.172541 -0.05681
C_ C_ 0.368713 0.078891 0.144705 -0.05681
C_ C_ 0.3631 0.0499859 0.119982 -0.08735
C_ C_ 0.35973 0.49574 0.122342 -0.08735
C_ C_ 0.370322 0.0839336 0.197198 -0.08735
C_ C_ 0.374883 0.138661 0.194393 -0.08735
C_ C_ 0.37908 0.162726 0.167159 -0.05681
C_ C_ 0.376028 0.132918 0.14258 -0.08735
C_ C_ 0.462718 0.322356 0.15869 0.68181
C_ C_ 0.383358 0.379266 0.233086 0.1947
C_ C_ 0.383654 0.400237 0.260874 -0.08735
C_ C_ 0.370328 0.370789 0.283172 -0.08735
C_ C_ 0.352267 0.319658 0.27943 -0.05681
C_ C_ 0.347628 0.302008 0.251 0.18498
C_ C_ 0.314555 0.261208 0.245777 -0.08735
C_ C_ 0.289615 0.235571 0.268193 -0.08735
C_ C_ 0.30021 0.248835 0.296473 -0.08735
C_ C_ 0.330309 0.291446 0.302382 0.18498
C_ C_ 0.302988 0.312592 0.350507 0.44287
C_ C_ 0.389709 0.300307 0.341967 0.44287
C_ C_ 0.401263 0.313089 0.370826 -0.05681
C_ C_ 0.45266 0.3094 0.381116 -0.08735
C_ C_ 0.461432 0.313635 0.410928 -0.08735
C_ C_ 0.420227 0.324307 0.429668 -0.05681
C_ C_ 0.371615 0.327401 0.418917 -0.05681
C_ C_ 0.361189 0.326482 0.389476 -0.05681
C_ C_ 0.311534 0.324581 0.378988 -0.05681
C_ C_ 0.271597 0.327261 0.398574 -0.08735
C_ C_ 0.279818 0.33397 0.427897 -0.08735
C_ C_ 0.330435 0.332706 0.437538 -0.05681
C_ C_ 0.340004 0.339989 0.468202 0.44287
C_ C_ 0.427227 0.323173 0.459948 0.44287
C_ C_ 0.383713 0.353939 0.0113989 0.18498
C_ C_ 0.408438 0.400579 0.0175588 -0.08735
C_ C_ 0.427927 0.408204 0.0462318 -0.08735
C_ C_ 0.408574 0.378594 0.0696272 -0.08735
C_ C_ 0.38221 0.334799 0.0635402 0.18498
C_ C_ 0.374578 0.320774 0.0339353 -0.05681
C_ C_ 0.353808 0.271304 0.0294436 -0.08735
C_ C_ 0.33124 0.244853 0.0504255 -0.08735
C_ C_ 0.338226 0.25967 0.0792123 0.1947
N_ N_ 0.129887 0.17004 0.477111 -0.29468
N_ N_ 0.156636 0.190371 0.0819651 -0.17154
N_ N_ 0.12668 0.154118 0.230023 -0.17154
N_ N_ 0.132831 0.197517 0.33086 -0.29468
N_ N_ 0.364017 0.332184 0.228752 -0.29468
N_ N_ 0.341282 0.303986 0.332248 -0.17154
N_ N_ 0.389213 0.337121 0.478586 -0.17154
N_ N_ 0.366233 0.303545 0.0859673 -0.29468
O_ O_ 0.208152 0.179976 0.42784 -0.58347
O_ O_ 0.199182 0.196569 0.381331 -0.58347
O_ O_ 0.131334 0.26288 0.430622 -0.58347
O_ O_ 0.116948 0.266058 0.384445 -0.58347
O_ O_ 0.135752 0.108438 0.421034 -0.58347
O_ O_ 0.135896 0.116236 0.374576 -0.58347
O_ O_ 0.0583837 0.186136 0.425892 -0.58347
O_ O_ 0.0514319 0.182246 0.379689 -0.58347
O_ O_ 0.0768406 0.218567 0.0806534 -0.46727
O_ O_ 0.242585 0.171836 0.085698 -0.46727
O_ O_ 0.0428846 0.177514 0.225317 -0.46727
O_ O_ 0.206863 0.114546 0.23175 -0.46727
O_ O_ 0.287336 0.307386 0.182095 -0.58347
O_ O_ 0.29042 0.307063 0.135662 -0.58347
O_ O_ 0.373852 0.247908 0.186395 -0.58347
O_ O_ 0.372533 0.23868 0.139869 -0.58347
O_ O_ 0.345518 0.396572 0.176411 -0.58347
O_ O_ 0.362526 0.386589 0.130706 -0.58347
O_ O_ 0.433921 0.336369 0.179859 -0.58347
O_ O_ 0.444264 0.316405 0.133904 -0.58347
O_ O_ 0.426484 0.283621 0.324633 -0.46727
O_ O_ 0.25622 0.317895 0.339581 -0.46727
O_ O_ 0.471799 0.311922 0.470993 -0.46727
O_ O_ 0.301717 0.348194 0.485581 -0.46727
Zn Zn 0.137639 0.185251 0.879501 0.90689
Zn Zn 0.149409 0.180671 0.928204 0.90689
Zn Zn 0.385504 0.312151 0.632494 0.90689
Zn Zn 0.377431 0.321454 0.682616 0.90689
H_ H_ 0.314361 0.185688 0.946672 0.11455
H_ H_ 0.386074 0.160778 0.8489 0.11455
H_ H_ 0.293659 0.176074 0.853696 0.11455
H_ H_ 0.400714 0.187746 0.965444 0.11455
H_ H_ 0.493579 0.189349 0.95741 0.11455
H_ H_ 0.472474 0.159075 0.870431 0.11455
H_ H_ 0.14621 0.0116029 0.941721 0.11455
H_ H_ 0.147755 0.431538 0.8457 0.11455
H_ H_ 0.133165 0.0264336 0.850233 0.11455
H_ H_ 0.117117 0.425169 0.962581 0.11455
H_ H_ 0.11352 0.337719 0.958236 0.11455
H_ H_ 0.125572 0.346751 0.865507 0.11455
H_ H_ 0.0841653 0.110599 0.962394 0.11455
H_ H_ 0.062931 0.0873787 0.515867 0.11455
H_ H_ 0.116045 0.124863 0.556295 0.11455
H_ H_ 0.211567 0.234923 0.971994 0.11455
H_ H_ 0.197441 0.320187 0.508416 0.11455
H_ H_ 0.184119 0.296448 0.558866 0.11455
H_ H_ 0.0224013 0.224151 0.621952 0.11455
H_ H_ 0.0172028 0.203566 0.67608 0.11455
H_ H_ 0.271473 0.167121 0.630621 0.11455
H_ H_ 0.269828 0.158059 0.681393 0.11455
H_ H_ 0.0983833 0.0843649 0.74408 0.11455
H_ H_ 0.0854733 0.0577744 0.794572 0.11455
H_ H_ 0.0936072 0.120236 0.834428 0.11455
H_ H_ 0.186728 0.238783 0.754808 0.11455
H_ H_ 0.20355 0.294126 0.795161 0.11455
H_ H_ 0.184083 0.267545 0.845887 0.11455
H_ H_ 0.212545 0.318913 0.690593 0.11455
H_ H_ 0.14167 0.360245 0.593656 0.11455
H_ H_ 0.232661 0.340544 0.598285 0.11455
H_ H_ 0.130092 0.317831 0.709798 0.11455
H_ H_ 0.0344153 0.322092 0.705591 0.11455
H_ H_ 0.0526134 0.346887 0.613902 0.11455
H_ H_ 0.37797 0.484427 0.689548 0.11455
H_ H_ 0.352993 0.07165 0.599964 0.11455
H_ H_ 0.379946 0.471935 0.597464 0.11455
H_ H_ 0.388119 0.0689401 0.716125 0.11455
H_ H_ 0.401528 0.159842 0.712983 0.11455
H_ H_ 0.363764 0.14813 0.620596 0.11455
H_ H_ 0.435106 0.388627 0.717757 0.11455
H_ H_ 0.45303 0.413661 0.766954 0.11455
H_ H_ 0.394155 0.3865 0.805719 0.11455
H_ H_ 0.309046 0.261005 0.721676 0.11455
H_ H_ 0.288004 0.200585 0.760879 0.11455
H_ H_ 0.298783 0.229379 0.811038 0.11455
H_ H_ 0.47973 0.303873 0.875619 0.11455
H_ H_ 0.493835 0.306205 0.925065 0.11455
H_ H_ 0.231676 0.343316 0.886416 0.11455
H_ H_ 0.239154 0.352035 0.937579 0.11455
H_ H_ 0.4205 0.427969 0.00168487 0.11455
H_ H_ 0.457117 0.438345 0.549733 0.11455
H_ H_ 0.4373 0.376314 0.589167 0.11455
H_ H_ 0.362062 0.249026 0.505567 0.11455
H_ H_ 0.338757 0.19781 0.545817 0.11455
H_ H_ 0.338148 0.233634 0.595261 0.11455
C_ C_ 0.243124 0.189069 0.903654 0.68181
C_ C_ 0.299411 0.18956 0.899977 -0.05681
C_ C_ 0.330126 0.183408 0.92409 -0.08735
C_ C_ 0.382955 0.175022 0.921568 -0.05681
C_ C_ 0.403428 0.170623 0.894029 -0.05681
C_ C_ 0.370572 0.168472 0.869907 -0.08735
C_ C_ 0.318973 0.178329 0.872705 -0.08735
C_ C_ 0.415332 0.181775 0.945002 -0.08735
C_ C_ 0.467568 0.177956 0.940886 -0.08735
C_ C_ 0.488213 0.166003 0.913492 -0.05681
C_ C_ 0.455319 0.159967 0.891093 -0.08735
C_ C_ 0.12765 0.279997 0.90917 0.68181
C_ C_ 0.150607 0.0846349 0.89871 0.68181
C_ C_ 0.139737 0.0285093 0.896677 -0.05681
C_ C_ 0.121888 0.495479 0.918298 -0.08735
C_ C_ 0.120663 0.441694 0.916488 -0.05681
C_ C_ 0.124813 0.419139 0.889827 -0.05681
C_ C_ 0.134213 0.448026 0.864648 -0.08735
C_ C_ 0.143242 0.499097 0.867137 -0.08735
C_ C_ 0.11698 0.41156 0.940558 -0.08735
C_ C_ 0.11648 0.360347 0.938713 -0.08735
C_ C_ 0.123862 0.335615 0.911687 -0.05681
C_ C_ 0.126786 0.365737 0.88735 -0.08735
C_ C_ 0.0418835 0.167603 0.900899 0.68181
C_ C_ 0.110253 0.124783 0.979188 0.1947
C_ C_ 0.094045 0.114124 0.511726 -0.08735
C_ C_ 0.118014 0.139403 0.534039 -0.08735
C_ C_ 0.144174 0.183546 0.527164 -0.05681
C_ C_ 0.149123 0.199984 0.499197 0.18498
C_ C_ 0.197447 0.228398 0.994265 -0.08735
C_ C_ 0.185313 0.28136 0.514646 -0.08735
C_ C_ 0.176346 0.267204 0.543031 -0.08735
C_ C_ 0.159745 0.216258 0.549636 0.18498
C_ C_ 0.197718 0.191424 0.594346 0.44287
C_ C_ 0.108425 0.207797 0.590555 0.44287
C_ C_ 0.102351 0.203346 0.621373 -0.05681
C_ C_ 0.0547677 0.208936 0.634267 -0.08735
C_ C_ 0.0514337 0.200889 0.664671 -0.08735
C_ C_ 0.095032 0.185701 0.680886 -0.05681
C_ C_ 0.141795 0.180074 0.666897 -0.05681
C_ C_ 0.144236 0.19131 0.637526 -0.05681
C_ C_ 0.194181 0.188986 0.624351 -0.05681
C_ C_ 0.234752 0.173542 0.63947 -0.08735
C_ C_ 0.231641 0.162347 0.668495 -0.08735
C_ C_ 0.184979 0.165399 0.683254 -0.05681
C_ C_ 0.180817 0.161874 0.713629 0.44287
C_ C_ 0.0938887 0.181924 0.711184 0.44287
C_ C_ 0.129346 0.155547 0.756597 0.18498
C_ C_ 0.106423 0.109837 0.761796 -0.08735
C_ C_ 0.0973462 0.0956692 0.790135 -0.08735
C_ C_ 0.104536 0.129159 0.812834 -0.08735
C_ C_ 0.129042 0.174426 0.808394 0.18498
C_ C_ 0.143647 0.186209 0.780135 -0.05681
C_ C_ 0.16794 0.23238 0.775148 -0.08735
C_ C_ 0.179067 0.262324 0.798871 -0.08735
C_ C_ 0.166196 0.250194 0.826629 0.1947
C_ C_ 0.284343 0.319232 0.650098 0.68181
C_ C_ 0.229277 0.328321 0.6457 -0.05681
C_ C_ 0.19602 0.327664 0.669258 -0.08735
C_ C_ 0.144196 0.333978 0.666186 -0.05681
C_ C_ 0.123204 0.34321 0.638737 -0.05681
C_ C_ 0.157726 0.35102 0.615614 -0.08735
C_ C_ 0.208173 0.338147 0.618233 -0.08735
C_ C_ 0.111586 0.326758 0.689464 -0.08735
C_ C_ 0.0579007 0.327206 0.685597 -0.08735
C_ C_ 0.038505 0.329272 0.658009 -0.05681
C_ C_ 0.0693465 0.34077 0.634584 -0.08735
C_ C_ 0.384204 0.218154 0.664934 0.68181
C_ C_ 0.384289 0.415264 0.649634 0.68181
C_ C_ 0.386341 0.471053 0.644728 -0.05681
C_ C_ 0.379056 0.00184212 0.671878 -0.08735
C_ C_ 0.379759 0.0558315 0.671409 -0.05681
C_ C_ 0.374389 0.0805909 0.6447 -0.05681
C_ C_ 0.360017 0.0543142 0.619782 -0.08735
C_ C_ 0.385229 0.494575 0.616471 -0.08735
C_ C_ 0.383488 0.0864897 0.695476 -0.08735
C_ C_ 0.389777 0.138107 0.692984 -0.08735
C_ C_ 0.381872 0.162319 0.667186 -0.05681
C_ C_ 0.371936 0.133744 0.642324 -0.08735
C_ C_ 0.481521 0.321387 0.664032 0.68181
C_ C_ 0.409151 0.375576 0.734372 0.1947
C_ C_ 0.417953 0.392523 0.762517 -0.08735
C_ C_ 0.386408 0.371827 0.783562 -0.08735
C_ C_ 0.357302 0.328918 0.777483 -0.05681
C_ C_ 0.352582 0.311184 0.749579 0.18498
C_ C_ 0.318766 0.270736 0.743553 -0.08735
C_ C_ 0.299259 0.24111 0.766201 -0.08735
C_ C_ 0.31178 0.252436 0.795014 -0.08735
C_ C_ 0.341638 0.297218 0.801271 0.18498
C_ C_ 0.307941 0.32497 0.847638 0.44287
C_ C_ 0.394904 0.301146 0.844198 0.44287
C_ C_ 0.399732 0.307764 0.874889 -0.05681
C_ C_ 0.447156 0.301811 0.887797 -0.08735
C_ C_ 0.45271 0.30887 0.916661 -0.08735
C_ C_ 0.409628 0.318218 0.934257 -0.05681
C_ C_ 0.361231 0.321484 0.92184 -0.05681
C_ C_ 0.356649 0.316237 0.891901 -0.05681
C_ C_ 0.311377 0.328869 0.878597 -0.05681
C_ C_ 0.268275 0.337998 0.896083 -0.08735
C_ C_ 0.273955 0.345211 0.925103 -0.08735
C_ C_ 0.323072 0.340994 0.939035 -0.05681
C_ C_ 0.329111 0.349603 0.969208 0.44287
C_ C_ 0.415056 0.322826 0.96442 0.44287
C_ C_ 0.402229 0.345028 0.508122 0.18498
C_ C_ 0.426398 0.390988 0.515693 -0.08735
C_ C_ 0.439926 0.40334 0.544533 -0.08735
C_ C_ 0.424872 0.372627 0.567135 -0.08735
C_ C_ 0.3973 0.328127 0.561269 0.18498
C_ C_ 0.385553 0.315265 0.532354 -0.05681
C_ C_ 0.370351 0.264348 0.527482 -0.08735
C_ C_ 0.353485 0.235066 0.550512 -0.08735
C_ C_ 0.359712 0.252324 0.578496 0.1947
N_ N_ 0.140046 0.167882 0.975209 -0.29468
N_ N_ 0.155222 0.200969 0.578482 -0.17154
N_ N_ 0.13675 0.172268 0.726883 -0.17154
N_ N_ 0.142684 0.205126 0.83104 -0.29468
N_ N_ 0.379627 0.335291 0.728246 -0.29468
N_ N_ 0.349179 0.310775 0.831353 -0.17154
N_ N_ 0.375656 0.340654 0.980926 -0.17154
N_ N_ 0.383425 0.297153 0.584218 -0.29468
O_ O_ 0.224207 0.181612 0.929074 -0.58347
O_ O_ 0.212387 0.19219 0.882779 -0.58347
O_ O_ 0.140745 0.254543 0.930724 -0.58347
O_ O_ 0.13166 0.258585 0.884499 -0.58347
O_ O_ 0.160342 0.105836 0.922983 -0.58347
O_ O_ 0.147097 0.113349 0.877125 -0.58347
O_ O_ 0.0700334 0.165617 0.923655 -0.58347
O_ O_ 0.0618657 0.176718 0.876934 -0.58347
O_ O_ 0.0707862 0.225207 0.57571 -0.46727
O_ O_ 0.244307 0.189615 0.581674 -0.46727
O_ O_ 0.0542295 0.196405 0.726662 -0.46727
O_ O_ 0.21791 0.14688 0.729264 -0.46727
O_ O_ 0.302381 0.319374 0.675598 -0.58347
O_ O_ 0.314146 0.312297 0.629186 -0.58347
O_ O_ 0.371076 0.244594 0.686446 -0.58347
O_ O_ 0.390179 0.238807 0.64093 -0.58347
O_ O_ 0.384398 0.395726 0.673838 -0.58347
O_ O_ 0.379156 0.387255 0.628267 -0.58347
O_ O_ 0.452335 0.326519 0.685542 -0.58347
O_ O_ 0.461959 0.318843 0.638507 -0.58347
O_ O_ 0.432984 0.281138 0.829723 -0.46727
O_ O_ 0.266152 0.335734 0.834429 -0.46727
O_ O_ 0.457993 0.311958 0.976566 -0.46727
O_ O_ 0.287889 0.359962 0.985586 -0.46727
Zn Zn 0.125792 0.686521 0.378804 0.90689
Zn Zn 0.133784 0.687051 0.428136 0.90689
Zn Zn 0.361555 0.81492 0.133173 0.90689
Zn Zn 0.355164 0.818375 0.182451 0.90689
H_ H_ 0.301893 0.685833 0.443212 0.11455
H_ H_ 0.370519 0.659942 0.346002 0.11455
H_ H_ 0.279718 0.669905 0.351733 0.11455
H_ H_ 0.383001 0.655694 0.462356 0.11455
H_ H_ 0.47493 0.666764 0.456508 0.11455
H_ H_ 0.455875 0.651581 0.364816 0.11455
H_ H_ 0.148868 0.519386 0.437307 0.11455
H_ H_ 0.154118 0.936544 0.344559 0.11455
H_ H_ 0.123232 0.532606 0.347351 0.11455
H_ H_ 0.116802 0.933746 0.461197 0.11455
H_ H_ 0.109559 0.838939 0.455694 0.11455
H_ H_ 0.140967 0.852631 0.366472 0.11455
H_ H_ 0.0761905 0.619596 0.460592 0.11455
H_ H_ 0.0642215 0.569054 0.00815947 0.11455
H_ H_ 0.102254 0.613604 0.0502763 0.11455
H_ H_ 0.196513 0.748658 0.474195 0.11455
H_ H_ 0.210398 0.796309 0.0127383 0.11455
H_ H_ 0.189548 0.771578 0.0615139 0.11455
H_ H_ 0.0144461 0.711446 0.118502 0.11455
H_ H_ -0.0039919999999999956 0.697416 0.16837 0.11455
H_ H_ 0.250807 0.63362 0.135408 0.11455
H_ H_ 0.240309 0.637012 0.189003 0.11455
H_ H_ 0.0520394 0.58735 0.249061 0.11455
H_ H_ 0.0220659 0.579441 0.296961 0.11455
H_ H_ 0.0599399 0.625184 0.338229 0.11455
H_ H_ 0.157819 0.737047 0.253876 0.11455
H_ H_ 0.189574 0.786316 0.291934 0.11455
H_ H_ 0.16464 0.769979 0.341607 0.11455
H_ H_ 0.189581 0.81113 0.19867 0.11455
H_ H_ 0.114849 0.817576 0.0995252 0.11455
H_ H_ 0.209786 0.822899 0.107632 0.11455
H_ H_ 0.0976891 0.803149 0.219238 0.11455
H_ H_ 0.00829786 0.7944 0.213689 0.11455
H_ H_ 0.0281897 0.826123 0.12269 0.11455
H_ H_ 0.353289 0.983681 0.194618 0.11455
H_ H_ 0.365557 0.56361 0.0980068 0.11455
H_ H_ 0.358223 0.974968 0.102339 0.11455
H_ H_ 0.367097 0.572007 0.216021 0.11455
H_ H_ 0.366848 0.663886 0.211559 0.11455
H_ H_ 0.370956 0.648713 0.117512 0.11455
H_ H_ 0.391514 0.902213 0.217593 0.11455
H_ H_ 0.39534 0.932806 0.266837 0.11455
H_ H_ 0.364522 0.87988 0.307462 0.11455
H_ H_ 0.301367 0.749372 0.225663 0.11455
H_ H_ 0.292365 0.683709 0.264403 0.11455
H_ H_ 0.289013 0.714977 0.312667 0.11455
H_ H_ 0.476748 0.776129 0.36923 0.11455
H_ H_ 0.492085 0.779594 0.422053 0.11455
H_ H_ 0.234297 0.838339 0.390176 0.11455
H_ H_ 0.250027 0.856012 0.439276 0.11455
H_ H_ 0.457531 0.879023 0.492862 0.11455
H_ H_ 0.437235 0.93848 0.0472724 0.11455
H_ H_ 0.408764 0.885807 0.0876447 0.11455
H_ H_ 0.33474 0.751678 0.00550379 0.11455
H_ H_ 0.302264 0.704331 0.0476462 0.11455
H_ H_ 0.305412 0.739045 0.095148 0.11455
C_ C_ 0.228162 0.685859 0.403539 0.68181
C_ C_ 0.283132 0.675837 0.398295 -0.05681
C_ C_ 0.315876 0.675062 0.421889 -0.08735
C_ C_ 0.367606 0.666622 0.418185 -0.05681
C_ C_ 0.387498 0.660868 0.389882 -0.05681
C_ C_ 0.356076 0.66565 0.36658 -0.08735
C_ C_ 0.302709 0.66736 0.370806 -0.08735
C_ C_ 0.399335 0.662322 0.441398 -0.08735
C_ C_ 0.451066 0.665165 0.437396 -0.08735
C_ C_ 0.473069 0.66421 0.410537 -0.05681
C_ C_ 0.439302 0.65672 0.386684 -0.08735
C_ C_ 0.122583 0.784271 0.408976 0.68181
C_ C_ 0.134466 0.587877 0.396182 0.68181
C_ C_ 0.13417 0.532742 0.393396 -0.05681
C_ C_ 0.128149 1.0000937148 0.417704 -0.08735
C_ C_ 0.133724 0.948297 0.415536 -0.05681
C_ C_ 0.136011 0.925649 0.388572 -0.05681
C_ C_ 0.14721 0.956158 0.364564 -0.08735
C_ C_ 0.141704 1.00801808 0.36546 -0.08735
C_ C_ 0.122642 0.917235 0.439415 -0.08735
C_ C_ 0.118443 0.863306 0.437103 -0.08735
C_ C_ 0.119852 0.84031 0.409881 -0.05681
C_ C_ 0.130454 0.871938 0.385478 -0.08735
C_ C_ 0.0308103 0.674862 0.404539 0.68181
C_ C_ 0.0931761 0.638181 0.479817 0.1947
C_ C_ 0.0906696 0.599957 0.00518297 -0.08735
C_ C_ 0.108053 0.627575 0.0287171 -0.08735
C_ C_ 0.137001 0.671992 0.0254738 -0.05681
C_ C_ 0.144683 0.68991 0.997637 0.18498
C_ C_ 0.179719 0.744299 0.494318 -0.08735
C_ C_ 0.191949 0.762391 0.017425 -0.08735
C_ C_ 0.180917 0.746783 0.044281 -0.08735
C_ C_ 0.155371 0.699333 0.0495544 0.18498
C_ C_ 0.182867 0.667178 0.0959067 0.44287
C_ C_ 0.0982577 0.690576 0.0906532 0.44287
C_ C_ 0.0906355 0.685747 0.120508 -0.05681
C_ C_ 0.0414881 0.692076 0.131718 -0.08735
C_ C_ 0.032893 0.688622 0.161861 -0.08735
C_ C_ 0.0742108 0.678215 0.18059 -0.05681
C_ C_ 0.123602 0.674297 0.169338 -0.05681
C_ C_ 0.131603 0.677234 0.139089 -0.05681
C_ C_ 0.17721 0.664829 0.125732 -0.05681
C_ C_ 0.214572 0.64659 0.144166 -0.08735
C_ C_ 0.209702 0.648108 0.174744 -0.08735
C_ C_ 0.162932 0.658092 0.186824 -0.05681
C_ C_ 0.155297 0.65273 0.217113 0.44287
C_ C_ 0.0667626 0.671533 0.210175 0.44287
C_ C_ 0.0978573 0.65378 0.258137 0.18498
C_ C_ 0.0696768 0.610631 0.266073 -0.08735
C_ C_ 0.054033 0.602702 0.29446 -0.08735
C_ C_ 0.0747001 0.630139 0.316417 -0.08735
C_ C_ 0.109292 0.667785 0.309696 0.18498
C_ C_ 0.117958 0.683206 0.280561 -0.05681
C_ C_ 0.152571 0.722448 0.275037 -0.08735
C_ C_ 0.171944 0.750363 0.296771 -0.08735
C_ C_ 0.157368 0.738962 0.325726 0.1947
C_ C_ 0.259436 0.804256 0.156617 0.68181
C_ C_ 0.204523 0.807265 0.152807 -0.05681
C_ C_ 0.171542 0.807552 0.177094 -0.08735
C_ C_ 0.118382 0.808427 0.173999 -0.05681
C_ C_ 0.0966461 0.820399 0.146395 -0.05681
C_ C_ 0.1307 0.823416 0.121938 -0.08735
C_ C_ 0.183639 0.819572 0.126417 -0.08735
C_ C_ 0.0864404 0.807275 0.198206 -0.08735
C_ C_ 0.0344346 0.803757 0.194575 -0.08735
C_ C_ 0.0133229 0.814189 0.167811 -0.05681
C_ C_ 0.04473 0.823135 0.143123 -0.08735
C_ C_ 0.367866 0.718915 0.161163 0.68181
C_ C_ 0.353313 0.915286 0.150569 0.68181
C_ C_ 0.355406 0.972476 0.148642 -0.05681
C_ C_ 0.359708 0.501706 0.174267 -0.08735
C_ C_ 0.363839 0.555679 0.170972 -0.05681
C_ C_ 0.365627 0.579322 0.143395 -0.05681
C_ C_ 0.362915 0.547057 0.119951 -0.08735
C_ C_ 0.36152 -0.004102999999999968 0.121695 -0.08735
C_ C_ 0.364167 0.586761 0.194849 -0.08735
C_ C_ 0.370978 0.639283 0.191953 -0.08735
C_ C_ 0.373147 0.662827 0.163499 -0.05681
C_ C_ 0.377943 0.630686 0.138622 -0.08735
C_ C_ 0.454073 0.812353 0.160299 0.68181
C_ C_ 0.377355 0.878228 0.235421 0.1947
C_ C_ 0.37652 0.897498 0.263415 -0.08735
C_ C_ 0.36681 0.863752 0.28645 -0.08735
C_ C_ 0.350212 0.815224 0.28059 -0.05681
C_ C_ 0.347225 0.79838 0.251133 0.18498
C_ C_ 0.320615 0.753525 0.245025 -0.08735
C_ C_ 0.306103 0.720859 0.267626 -0.08735
C_ C_ 0.306987 0.737679 0.295451 -0.08735
C_ C_ 0.330188 0.783098 0.302373 0.18498
C_ C_ 0.302439 0.80922 0.35047 0.44287
C_ C_ 0.389892 0.790158 0.342556 0.44287
C_ C_ 0.399674 0.796939 0.372795 -0.05681
C_ C_ 0.448482 0.789998 0.384299 -0.08735
C_ C_ 0.455143 0.788808 0.413834 -0.08735
C_ C_ 0.416241 0.803847 0.431687 -0.05681
C_ C_ 0.367591 0.81739 0.420076 -0.05681
C_ C_ 0.359328 0.812729 0.390504 -0.05681
C_ C_ 0.31089 0.820247 0.379022 -0.05681
C_ C_ 0.271758 0.835114 0.398113 -0.08735
C_ C_ 0.281781 0.841953 0.427253 -0.08735
C_ C_ 0.330945 0.834471 0.43837 -0.05681
C_ C_ 0.340713 0.837987 0.468167 0.44287
C_ C_ 0.420206 0.797393 0.461331 0.44287
C_ C_ 0.372173 0.849257 0.00889671 0.18498
C_ C_ 0.394461 0.896914 0.0153464 -0.08735
C_ C_ 0.413217 0.90645 0.0432479 -0.08735
C_ C_ 0.396777 0.876719 0.0664092 -0.08735
C_ C_ 0.370033 0.831528 0.0607862 0.18498
C_ C_ 0.359978 0.816978 0.032422 -0.05681
C_ C_ 0.33899 0.766951 0.0269686 -0.08735
C_ C_ 0.314897 0.743193 0.0502159 -0.08735
C_ C_ 0.319965 0.762813 0.0777885 0.1947
N_ N_ 0.128292 0.676322 0.475839 -0.29468
N_ N_ 0.144026 0.683737 0.0784298 -0.17154
N_ N_ 0.108019 0.661624 0.227619 -0.17154
N_ N_ 0.126976 0.698798 0.331225 -0.29468
N_ N_ 0.357802 0.832296 0.229962 -0.29468
N_ N_ 0.34134 0.793247 0.33287 -0.17154
N_ N_ 0.385066 0.81848 0.47887 -0.17154
N_ N_ 0.350984 0.804316 0.0833973 -0.29468
O_ O_ 0.210364 0.683665 0.428825 -0.58347
O_ O_ 0.200534 0.695189 0.382726 -0.58347
O_ O_ 0.136201 0.758965 0.43109 -0.58347
O_ O_ 0.118083 0.763565 0.385675 -0.58347
O_ O_ 0.134325 0.609767 0.420869 -0.58347
O_ O_ 0.130312 0.614391 0.374102 -0.58347
O_ O_ 0.0578189 0.687448 0.426252 -0.58347
O_ O_ 0.0489091 0.679227 0.379827 -0.58347
O_ O_ 0.0574271 0.69598 0.0738023 -0.46727
O_ O_ 0.228784 0.659927 0.0849942 -0.46727
O_ O_ 0.0213678 0.672172 0.221574 -0.46727
O_ O_ 0.193502 0.634348 0.232836 -0.46727
O_ O_ 0.28173 0.810486 0.181157 -0.58347
O_ O_ 0.287639 0.810863 0.134566 -0.58347
O_ O_ 0.367999 0.74677 0.18429 -0.58347
O_ O_ 0.363518 0.740265 0.136872 -0.58347
O_ O_ 0.348542 0.893401 0.174342 -0.58347
O_ O_ 0.359073 0.887729 0.128738 -0.58347
O_ O_ 0.429043 0.830981 0.180286 -0.58347
O_ O_ 0.433106 0.810321 0.134937 -0.58347
O_ O_ 0.426867 0.780603 0.324367 -0.46727
O_ O_ 0.258028 0.821679 0.339081 -0.46727
O_ O_ 0.461932 0.780969 0.472328 -0.46727
O_ O_ 0.306064 0.855372 0.485978 -0.46727
Zn Zn 0.126438 0.687691 0.879911 0.90689
Zn Zn 0.139181 0.67558 0.926348 0.90689
Zn Zn 0.377863 0.816786 0.630363 0.90689
Zn Zn 0.366502 0.822323 0.678943 0.90689
H_ H_ 0.307601 0.704373 0.942838 0.11455
H_ H_ 0.370468 0.672099 0.847089 0.11455
H_ H_ 0.281602 0.676889 0.853146 0.11455
H_ H_ 0.397189 0.703488 0.964268 0.11455
H_ H_ 0.48669 0.696847 0.953956 0.11455
H_ H_ 0.459108 0.683954 0.864769 0.11455
H_ H_ 0.112121 0.515755 0.938634 0.11455
H_ H_ 0.119469 0.93652 0.846015 0.11455
H_ H_ 0.159765 0.516424 0.847739 0.11455
H_ H_ 0.135222 0.925464 0.966244 0.11455
H_ H_ 0.142006 0.835697 0.960258 0.11455
H_ H_ 0.111142 0.852402 0.870843 0.11455
H_ H_ 0.0833331 0.602155 0.959673 0.11455
H_ H_ 0.0613946 0.583893 0.509267 0.11455
H_ H_ 0.0949388 0.629364 0.550503 0.11455
H_ H_ 0.189871 0.745244 0.973266 0.11455
H_ H_ 0.22566 0.79968 0.513665 0.11455
H_ H_ 0.20748 0.780499 0.562677 0.11455
H_ H_ 1.00922026 0.726232 0.620615 0.11455
H_ H_ 0.996849 0.713147 0.673147 0.11455
H_ H_ 0.256406 0.67544 0.635342 0.11455
H_ H_ 0.244883 0.666229 0.684457 0.11455
H_ H_ 0.0546702 0.597428 0.749683 0.11455
H_ H_ 0.029372 0.587061 0.797534 0.11455
H_ H_ 0.059933 0.636944 0.836914 0.11455
H_ H_ 0.161698 0.751178 0.755089 0.11455
H_ H_ 0.202898 0.796162 0.796149 0.11455
H_ H_ 0.180374 0.76761 0.845113 0.11455
H_ H_ 0.19799 0.79896 0.693533 0.11455
H_ H_ 0.130144 0.86061 0.601484 0.11455
H_ H_ 0.221443 0.84151 0.605827 0.11455
H_ H_ 0.113308 0.810255 0.714818 0.11455
H_ H_ 0.0261323 0.829459 0.712595 0.11455
H_ H_ 0.0415511 0.837356 0.621372 0.11455
H_ H_ 0.375807 0.983686 0.693328 0.11455
H_ H_ 0.377233 0.565181 0.592529 0.11455
H_ H_ 0.352617 0.981766 0.601855 0.11455
H_ H_ 0.381251 0.566055 0.711651 0.11455
H_ H_ 0.367429 0.658778 0.709882 0.11455
H_ H_ 0.381851 0.64717 0.617652 0.11455
H_ H_ 0.419085 0.893139 0.710816 0.11455
H_ H_ 0.449239 0.918272 0.758321 0.11455
H_ H_ 0.419467 0.870653 0.802087 0.11455
H_ H_ 0.308705 0.757521 0.722418 0.11455
H_ H_ 0.279085 0.707248 0.763281 0.11455
H_ H_ 0.316858 0.721219 0.814067 0.11455
H_ H_ 0.484199 0.805071 0.876494 0.11455
H_ H_ 0.492955 0.805583 0.927933 0.11455
H_ H_ 0.237815 0.851047 0.878745 0.11455
H_ H_ 0.243665 0.867174 0.929923 0.11455
H_ H_ 0.409823 0.923641 0.998116 0.11455
H_ H_ 0.470786 0.919581 0.540592 0.11455
H_ H_ 0.434554 0.874837 0.585026 0.11455
H_ H_ 0.340951 0.744434 0.507248 0.11455
H_ H_ 0.295823 0.714652 0.549686 0.11455
H_ H_ 0.309475 0.752741 0.596337 0.11455
C_ C_ 0.232941 0.688838 0.904634 0.68181
C_ C_ 0.287881 0.694833 0.899892 -0.05681
C_ C_ 0.322436 0.702425 0.921813 -0.08735
C_ C_ 0.375013 0.700889 0.917963 -0.05681
C_ C_ 0.393247 0.692891 0.889576 -0.05681
C_ C_ 0.358931 0.686003 0.866717 -0.08735
C_ C_ 0.30744 0.688315 0.870818 -0.08735
C_ C_ 0.409078 0.69922 0.941214 -0.08735
C_ C_ 0.4599 0.687912 0.935967 -0.08735
C_ C_ 0.477884 0.679992 0.908174 -0.05681
C_ C_ 0.44503 0.686954 0.885271 -0.08735
C_ C_ 0.130444 0.779787 0.910884 0.68181
C_ C_ 0.136241 0.581011 0.895107 0.68181
C_ C_ 0.135964 0.525227 0.893584 -0.05681
C_ C_ 0.140243 0.996414 0.921559 -0.08735
C_ C_ 0.138484 0.943464 0.919509 -0.05681
C_ C_ 0.128896 0.921913 0.892777 -0.05681
C_ C_ 0.126386 0.9524 0.86757 -0.08735
C_ C_ 0.134314 0.00399961 0.869075 -0.08735
C_ C_ 0.136927 0.91083 0.943702 -0.08735
C_ C_ 0.143041 0.858802 0.940248 -0.08735
C_ C_ 0.135083 0.837025 0.913373 -0.05681
C_ C_ 0.125914 0.868012 0.889763 -0.08735
C_ C_ 0.0360749 0.680634 0.901289 0.68181
C_ C_ 0.102353 0.618411 0.977644 0.1947
C_ C_ 0.081098 0.621491 0.50735 -0.08735
C_ C_ 0.0982975 0.648289 0.530434 -0.08735
C_ C_ 0.129536 0.690959 0.525662 -0.05681
C_ C_ 0.147749 0.702156 0.497843 0.18498
C_ C_ 0.177812 0.73099 0.994072 -0.08735
C_ C_ 0.204723 0.764776 0.51775 -0.08735
C_ C_ 0.183285 0.758935 0.545165 -0.08735
C_ C_ 0.149444 0.718563 0.550248 0.18498
C_ C_ 0.179688 0.685905 0.595673 0.44287
C_ C_ 0.0969686 0.720465 0.592766 0.44287
C_ C_ 0.0887817 0.707805 0.622503 -0.05681
C_ C_ 0.040882 0.713702 0.634437 -0.08735
C_ C_ 0.0336415 0.706931 0.663399 -0.08735
C_ C_ 0.0771842 0.694264 0.681428 -0.05681
C_ C_ 0.122741 0.684692 0.668846 -0.05681
C_ C_ 0.128966 0.687954 0.638746 -0.05681
C_ C_ 0.175129 0.678888 0.625756 -0.05681
C_ C_ 0.217895 0.673231 0.643276 -0.08735
C_ C_ 0.2126 0.671229 0.672676 -0.08735
C_ C_ 0.165295 0.675323 0.686198 -0.05681
C_ C_ 0.159643 0.671622 0.716623 0.44287
C_ C_ 0.0700155 0.685922 0.7111 0.44287
C_ C_ 0.103731 0.665114 0.758129 0.18498
C_ C_ 0.072612 0.622782 0.765503 -0.08735
C_ C_ 0.0588018 0.61347 0.792989 -0.08735
C_ C_ 0.0765087 0.642646 0.815682 -0.08735
C_ C_ 0.115502 0.679173 0.81003 0.18498
C_ C_ 0.124828 0.694545 0.781062 -0.05681
C_ C_ 0.153725 0.739315 0.776646 -0.08735
C_ C_ 0.180689 0.761253 0.799805 -0.08735
C_ C_ 0.169085 0.74544 0.827096 0.1947
C_ C_ 0.274377 0.813342 0.654388 0.68181
C_ C_ 0.218336 0.815401 0.649312 -0.05681
C_ C_ 0.185813 0.814587 0.673537 -0.08735
C_ C_ 0.133929 0.823073 0.670521 -0.05681
C_ C_ 0.112592 0.833327 0.6441 -0.05681
C_ C_ 0.144283 0.840692 0.620056 -0.08735
C_ C_ 0.197101 0.830424 0.622544 -0.08735
C_ C_ 0.0997656 0.817743 0.694999 -0.08735
C_ C_ 0.049385 0.829857 0.692777 -0.08735
C_ C_ 0.0290438 0.834288 0.665747 -0.05681
C_ C_ 0.0592825 0.835455 0.641183 -0.08735
C_ C_ 0.376974 0.719645 0.661888 0.68181
C_ C_ 0.369992 0.918959 0.647374 0.68181
C_ C_ 0.368626 0.97453 0.646968 -0.05681
C_ C_ 0.382671 0.502964 0.669154 -0.08735
C_ C_ 0.377939 0.55652 0.666727 -0.05681
C_ C_ 0.384662 0.579687 0.639573 -0.05681
C_ C_ 0.380876 0.549244 0.614 -0.08735
C_ C_ 0.357329 1.00272998 0.621774 -0.08735
C_ C_ 0.372877 0.584714 0.692026 -0.08735
C_ C_ 0.37118 0.637473 0.690893 -0.08735
C_ C_ 0.375318 0.662921 0.664768 -0.05681
C_ C_ 0.383821 0.632973 0.63895 -0.08735
C_ C_ 0.469302 0.819447 0.653895 0.68181
C_ C_ 0.404018 0.873953 0.729825 0.1947
C_ C_ 0.41816 0.889926 0.757054 -0.08735
C_ C_ 0.401136 0.864011 0.780131 -0.08735
C_ C_ 0.370835 0.820038 0.776903 -0.05681
C_ C_ 0.352997 0.810152 0.748687 0.18498
C_ C_ 0.326058 0.763883 0.744253 -0.08735
C_ C_ 0.310341 0.734434 0.767414 -0.08735
C_ C_ 0.324376 0.746106 0.795078 -0.08735
C_ C_ 0.354966 0.78978 0.799209 0.18498
C_ C_ 0.313929 0.816453 0.844251 0.44287
C_ C_ 0.403686 0.806971 0.843181 0.44287
C_ C_ 0.407293 0.816393 0.873747 -0.05681
C_ C_ 0.452799 0.81738 0.888494 -0.08735
C_ C_ 0.455426 0.814538 0.918087 -0.08735
C_ C_ 0.411341 0.819442 0.933703 -0.05681
C_ C_ 0.364585 0.826317 0.919063 -0.05681
C_ C_ 0.361621 0.824165 0.889196 -0.05681
C_ C_ 0.315976 0.829 0.874501 -0.05681
C_ C_ 0.274167 0.844031 0.889352 -0.08735
C_ C_ 0.275433 0.851921 0.919721 -0.08735
C_ C_ 0.319576 0.839511 0.935192 -0.05681
C_ C_ 0.322219 0.840953 0.965702 0.44287
C_ C_ 0.410502 0.822428 0.964397 0.44287
C_ C_ 0.401347 0.830148 0.507693 0.18498
C_ C_ 0.440795 0.863557 0.511837 -0.08735
C_ C_ 0.45228 0.882244 0.539431 -0.08735
C_ C_ 0.42758 0.859877 0.563381 -0.08735
C_ C_ 0.390431 0.823015 0.559853 0.18498
C_ C_ 0.379636 0.806158 0.53108 -0.05681
C_ C_ 0.347951 0.763089 0.527441 -0.08735
C_ C_ 0.318781 0.747648 0.551052 -0.08735
C_ C_ 0.32942 0.768247 0.5786 0.1947
N_ N_ 0.127339 0.663107 0.973951 -0.29468
N_ N_ 0.14028 0.704531 0.579394 -0.17154
N_ N_ 0.11239 0.67748 0.728495 -0.17154
N_ N_ 0.13894 0.704151 0.832276 -0.29468
N_ N_ 0.369559 0.83574 0.725485 -0.29468
N_ N_ 0.358129 0.806213 0.828752 -0.17154
N_ N_ 0.36776 0.833817 0.979381 -0.17154
N_ N_ 0.365824 0.804006 0.583433 -0.29468
O_ O_ 0.216827 0.68034 0.930879 -0.58347
O_ O_ 0.203075 0.683423 0.883746 -0.58347
O_ O_ 0.133383 0.749986 0.931829 -0.58347
O_ O_ 0.123801 0.762614 0.886405 -0.58347
O_ O_ 0.143728 0.603151 0.918479 -0.58347
O_ O_ 0.122083 0.606597 0.873308 -0.58347
O_ O_ 0.0659578 0.672048 0.922272 -0.58347
O_ O_ 0.052356 0.69316 0.877294 -0.58347
O_ O_ 0.0645466 0.750897 0.578908 -0.46727
O_ O_ 0.224658 0.674256 0.583004 -0.46727
O_ O_ 0.0276896 0.701515 0.723083 -0.46727
O_ O_ 0.199149 0.669625 0.733229 -0.46727
O_ O_ 0.290072 0.817907 0.679997 -0.58347
O_ O_ 0.306138 0.817672 0.633392 -0.58347
O_ O_ 0.372927 0.746095 0.684437 -0.58347
O_ O_ 0.37622 0.740545 0.637847 -0.58347
O_ O_ 0.363018 0.89653 0.671041 -0.58347
O_ O_ 0.379621 0.89406 0.625252 -0.58347
O_ O_ 0.440454 0.831951 0.674241 -0.58347
O_ O_ 0.453353 0.807394 0.629142 -0.58347
O_ O_ 0.445986 0.792349 0.830465 -0.46727
O_ O_ 0.271519 0.820342 0.82967 -0.46727
O_ O_ 0.452931 0.813061 0.979029 -0.46727
O_ O_ 0.281312 0.847279 0.981737 -0.46727
Zn Zn 0.625622 0.182005 0.38043 0.90689
Zn Zn 0.632784 0.17892 0.430389 0.90689
Zn Zn 0.868513 0.312836 0.131642 0.90689
Zn Zn 0.860156 0.321375 0.181571 0.90689
H_ H_ 0.802479 0.181986 0.443975 0.11455
H_ H_ 0.868589 0.164799 0.345054 0.11455
H_ H_ 0.776751 0.17033 0.354425 0.11455
H_ H_ 0.889648 0.184936 0.4616 0.11455
H_ H_ 0.982485 0.183637 0.453898 0.11455
H_ H_ 0.953002 0.175377 0.361446 0.11455
H_ H_ 0.634932 0.00912134 0.444683 0.11455
H_ H_ 0.652189 0.43858 0.343172 0.11455
H_ H_ 0.61953 0.0198729 0.35296 0.11455
H_ H_ 0.60234 0.433194 0.456625 0.11455
H_ H_ 0.603174 0.340737 0.455098 0.11455
H_ H_ 0.642488 0.351259 0.365588 0.11455
H_ H_ 0.590836 0.0987482 0.467097 0.11455
H_ H_ 0.563536 0.0670459 0.0136179 0.11455
H_ H_ 0.591766 0.113335 0.053968 0.11455
H_ H_ 0.689972 0.243242 0.472812 0.11455
H_ H_ 0.722881 0.286488 0.018514 0.11455
H_ H_ 0.689875 0.261351 0.0678375 0.11455
H_ H_ 0.502835 0.214971 0.120702 0.11455
H_ H_ 0.485124 0.208681 0.172986 0.11455
H_ H_ 0.73497 0.12494 0.136643 0.11455
H_ H_ 0.718443 0.107456 0.188171 0.11455
H_ H_ 0.533035 0.0875913 0.251377 0.11455
H_ H_ 0.523342 0.0709743 0.302601 0.11455
H_ H_ 0.567119 0.123043 0.339623 0.11455
H_ H_ 0.627777 0.24542 0.253289 0.11455
H_ H_ 0.684419 0.287336 0.290193 0.11455
H_ H_ 0.682801 0.255197 0.341651 0.11455
H_ H_ 0.689069 0.282123 0.194224 0.11455
H_ H_ 0.622781 0.309733 0.0995006 0.11455
H_ H_ 0.712655 0.311476 0.103656 0.11455
H_ H_ 0.610393 0.306884 0.21591 0.11455
H_ H_ 0.51233 0.307248 0.20922 0.11455
H_ H_ 0.539285 0.328 0.117422 0.11455
H_ H_ 0.864397 0.482966 0.192494 0.11455
H_ H_ 0.803907 0.0639665 0.108516 0.11455
H_ H_ 0.850006 0.478232 0.102259 0.11455
H_ H_ 0.913915 0.0719466 0.211091 0.11455
H_ H_ 0.90546 0.16341 0.206299 0.11455
H_ H_ 0.842934 0.146273 0.123119 0.11455
H_ H_ 0.911122 0.396157 0.214498 0.11455
H_ H_ 0.927344 0.42754 0.263029 0.11455
H_ H_ 0.886446 0.382504 0.306146 0.11455
H_ H_ 0.800746 0.254721 0.226229 0.11455
H_ H_ 0.762103 0.214325 0.264823 0.11455
H_ H_ 0.779997 0.237137 0.314127 0.11455
H_ H_ 0.984103 0.319622 0.372961 0.11455
H_ H_ -0.0011109999999999731 0.331119 0.423409 0.11455
H_ H_ 0.73235 0.32074 0.391792 0.11455
H_ H_ 0.743973 0.320078 0.442981 0.11455
H_ H_ 0.923512 0.427468 0.500874 0.11455
H_ H_ 0.954598 0.429074 0.047352 0.11455
H_ H_ 0.928092 0.376056 0.0880617 0.11455
H_ H_ 0.833716 0.250121 0.00829411 0.11455
H_ H_ 0.784647 0.217166 0.0502396 0.11455
H_ H_ 0.806065 0.245024 0.0985597 0.11455
C_ C_ 0.728427 0.18054 0.403636 0.68181
C_ C_ 0.782965 0.178055 0.398228 -0.05681
C_ C_ 0.816349 0.186863 0.421654 -0.08735
C_ C_ 0.869525 0.18425 0.417674 -0.05681
C_ C_ 0.889191 0.173926 0.389577 -0.05681
C_ C_ 0.855003 0.171199 0.366517 -0.08735
C_ C_ 0.801049 0.171688 0.371629 -0.08735
C_ C_ 0.902742 0.188454 0.440863 -0.08735
C_ C_ 0.955997 0.185409 0.435914 -0.08735
C_ C_ 0.974245 0.182085 0.407126 -0.05681
C_ C_ 0.940778 0.178746 0.383515 -0.08735
C_ C_ 0.620861 0.280573 0.406752 0.68181
C_ C_ 0.628994 0.0819385 0.401972 0.68181
C_ C_ 0.626152 0.0254479 0.39958 -0.05681
C_ C_ 0.614854 0.496791 0.415164 -0.08735
C_ C_ 0.617285 0.443092 0.412342 -0.05681
C_ C_ 0.626713 0.419982 0.385837 -0.05681
C_ C_ 0.637845 0.452998 0.363233 -0.08735
C_ C_ 0.642909 0.505823 0.366784 -0.08735
C_ C_ 0.605737 0.413875 0.436593 -0.08735
C_ C_ 0.607094 0.36078 0.435009 -0.08735
C_ C_ 0.616317 0.336165 0.408431 -0.05681
C_ C_ 0.627702 0.367582 0.38427 -0.08735
C_ C_ 0.53164 0.179576 0.404675 0.68181
C_ C_ 0.600292 0.125236 0.483172 0.1947
C_ C_ 0.587712 0.0997971 0.00879713 -0.08735
C_ C_ 0.601123 0.128846 0.0326922 -0.08735
C_ C_ 0.633867 0.170949 0.0286781 -0.05681
C_ C_ 0.650791 0.184037 1.000821031 0.18498
C_ C_ 0.671861 0.241326 0.49415 -0.08735
C_ C_ 0.693972 0.257013 0.0204586 -0.08735
C_ C_ 0.676684 0.243863 0.0482028 -0.08735
C_ C_ 0.650495 0.199045 0.0527201 0.18498
C_ C_ 0.673814 0.166993 0.0998259 0.44287
C_ C_ 0.589008 0.194535 0.0936889 0.44287
C_ C_ 0.577052 0.184754 0.122739 -0.05681
C_ C_ 0.531925 0.200745 0.135181 -0.08735
C_ C_ 0.523015 0.201263 0.165512 -0.08735
C_ C_ 0.562188 0.178973 0.182483 -0.05681
C_ C_ 0.60696 0.161527 0.170313 -0.05681
C_ C_ 0.614857 0.166105 0.140459 -0.05681
C_ C_ 0.662426 0.154927 0.128264 -0.05681
C_ C_ 0.701636 0.137953 0.145662 -0.08735
C_ C_ 0.691726 0.129576 0.175365 -0.08735
C_ C_ 0.647983 0.145426 0.187312 -0.05681
C_ C_ 0.639747 0.140075 0.21741 0.44287
C_ C_ 0.557902 0.177195 0.212583 0.44287
C_ C_ 0.585535 0.152753 0.259333 0.18498
C_ C_ 0.552511 0.112573 0.267539 -0.08735
C_ C_ 0.550544 0.0987355 0.296138 -0.08735
C_ C_ 0.575804 0.127035 0.317804 -0.08735
C_ C_ 0.608794 0.165971 0.309912 0.18498
C_ C_ 0.609161 0.18306 0.28082 -0.05681
C_ C_ 0.636563 0.226107 0.273847 -0.08735
C_ C_ 0.665266 0.251628 0.295259 -0.08735
C_ C_ 0.661302 0.235566 0.324207 0.1947
C_ C_ 0.766155 0.308828 0.155775 0.68181
C_ C_ 0.709995 0.301929 0.151401 -0.05681
C_ C_ 0.676077 0.298877 0.17446 -0.08735
C_ C_ 0.623604 0.308691 0.171024 -0.05681
C_ C_ 0.606026 0.316214 0.143873 -0.05681
C_ C_ 0.638122 0.318004 0.119328 -0.08735
C_ C_ 0.690364 0.306159 0.123835 -0.08735
C_ C_ 0.592071 0.309362 0.194435 -0.08735
C_ C_ 0.540493 0.310539 0.190173 -0.08735
C_ C_ 0.52076 0.322269 0.163547 -0.05681
C_ C_ 0.553565 0.32102 0.138983 -0.08735
C_ C_ 0.871114 0.218218 0.163237 0.68181
C_ C_ 0.852158 0.415864 0.149046 0.68181
C_ C_ 0.848437 0.472613 0.148816 -0.05681
C_ C_ 0.875619 0.00204064 0.172757 -0.08735
C_ C_ 0.87491 0.0562692 0.17048 -0.05681
C_ C_ 0.849033 0.0791668 0.147553 -0.05681
C_ C_ 0.826338 0.0495817 0.125514 -0.08735
C_ C_ 0.847675 0.499301 0.121868 -0.08735
C_ C_ 0.898155 0.0883998 0.191829 -0.08735
C_ C_ 0.893423 0.139162 0.189841 -0.08735
C_ C_ 0.871534 0.162384 0.166334 -0.05681
C_ C_ 0.850982 0.131097 0.144161 -0.08735
C_ C_ 0.962583 0.322493 0.159451 0.68181
C_ C_ 0.891794 0.377983 0.23316 0.1947
C_ C_ 0.900191 0.396729 0.261049 -0.08735
C_ C_ 0.880207 0.370568 0.283568 -0.08735
C_ C_ 0.851864 0.327372 0.279653 -0.05681
C_ C_ 0.843367 0.309074 0.251427 0.18498
C_ C_ 0.81526 0.265484 0.246909 -0.08735
C_ C_ 0.791723 0.239969 0.268632 -0.08735
C_ C_ 0.803468 0.254924 0.297213 -0.08735
C_ C_ 0.836674 0.296276 0.302954 0.18498
C_ C_ 0.808058 0.32336 0.350879 0.44287
C_ C_ 0.894081 0.302284 0.344818 0.44287
C_ C_ 0.902636 0.307344 0.374687 -0.05681
C_ C_ 0.953919 0.310952 0.385778 -0.08735
C_ C_ 0.959936 0.318764 0.415476 -0.08735
C_ C_ 0.917704 0.324665 0.433594 -0.05681
C_ C_ 0.867815 0.321718 0.422483 -0.05681
C_ C_ 0.860319 0.314502 0.3925 -0.05681
C_ C_ 0.810839 0.317015 0.380669 -0.05681
C_ C_ 0.769716 0.318505 0.400239 -0.08735
C_ C_ 0.776691 0.323669 0.42981 -0.08735
C_ C_ 0.825982 0.324764 0.441642 -0.05681
C_ C_ 0.835197 0.33593 0.471338 0.44287
C_ C_ 0.922988 0.333918 0.463567 0.44287
C_ C_ 0.89294 0.334961 0.00951463 0.18498
C_ C_ 0.920453 0.380768 0.0154523 -0.08735
C_ C_ 0.932141 0.395744 0.0439791 -0.08735
C_ C_ 0.914119 0.365763 0.0669091 -0.08735
C_ C_ 0.88163 0.32548 0.0620136 0.18498
C_ C_ 0.87177 0.308774 0.0328812 -0.05681
C_ C_ 0.837659 0.267546 0.0289386 -0.08735
C_ C_ 0.812147 0.245409 0.0528864 -0.08735
C_ C_ 0.827158 0.261099 0.0796489 0.1947
N_ N_ 0.623994 0.17028 0.478454 -0.29468
N_ N_ 0.637405 0.182367 0.0819137 -0.17154
N_ N_ 0.596717 0.159103 0.229714 -0.17154
N_ N_ 0.632072 0.195418 0.331459 -0.29468
N_ N_ 0.862865 0.336394 0.228394 -0.29468
N_ N_ 0.847005 0.30945 0.332836 -0.17154
N_ N_ 0.8822 0.342795 0.481313 -0.17154
N_ N_ 0.859524 0.300414 0.0841372 -0.29468
O_ O_ 0.709615 0.186226 0.429122 -0.58347
O_ O_ 0.698339 0.18393 0.382706 -0.58347
O_ O_ 0.624599 0.255029 0.429133 -0.58347
O_ O_ 0.620892 0.258464 0.382436 -0.58347
O_ O_ 0.63981 0.102083 0.426127 -0.58347
O_ O_ 0.632052 0.107731 0.379098 -0.58347
O_ O_ 0.56055 0.170278 0.426077 -0.58347
O_ O_ 0.55146 0.175708 0.380057 -0.58347
O_ O_ 0.549277 0.203199 0.0769212 -0.46727
O_ O_ 0.720964 0.162492 0.08988 -0.46727
O_ O_ 0.519493 0.200335 0.224764 -0.46727
O_ O_ 0.67209 0.11517 0.234317 -0.46727
O_ O_ 0.783957 0.308776 0.180664 -0.58347
O_ O_ 0.794926 0.312615 0.134904 -0.58347
O_ O_ 0.870839 0.24588 0.185262 -0.58347
O_ O_ 0.86957 0.237678 0.138326 -0.58347
O_ O_ 0.846352 0.393309 0.172798 -0.58347
O_ O_ 0.864386 0.390725 0.127422 -0.58347
O_ O_ 0.935627 0.334645 0.180923 -0.58347
O_ O_ 0.945315 0.312627 0.13437 -0.58347
O_ O_ 0.932177 0.296284 0.327836 -0.46727
O_ O_ 0.76617 0.335805 0.339433 -0.46727
O_ O_ 0.967248 0.344342 0.473028 -0.46727
O_ O_ 0.795759 0.34268 0.488889 -0.46727
Zn Zn 0.638638 0.180462 0.882897 0.90689
Zn Zn 0.645844 0.169388 0.930165 0.90689
Zn Zn 0.885582 0.314205 0.63545 0.90689
Zn Zn 0.878953 0.323466 0.68254 0.90689
H_ H_ 0.818349 0.193205 0.943325 0.11455
H_ H_ 0.874786 0.164827 0.841824 0.11455
H_ H_ 0.787489 0.15832 0.8537 0.11455
H_ H_ 0.901055 0.168759 0.960444 0.11455
H_ H_ 0.990744 0.14364 0.950689 0.11455
H_ H_ 0.96176 0.159512 0.860796 0.11455
H_ H_ 0.65984 0.00810889 0.940816 0.11455
H_ H_ 0.644408 0.430318 0.849545 0.11455
H_ H_ 0.658076 0.0206027 0.850479 0.11455
H_ H_ 0.620205 0.426468 0.966509 0.11455
H_ H_ 0.623296 0.332401 0.961868 0.11455
H_ H_ 0.635213 0.34517 0.871364 0.11455
H_ H_ 0.591436 0.0957631 0.963087 0.11455
H_ H_ 0.575134 0.0731171 0.516018 0.11455
H_ H_ 0.590439 0.132256 0.557399 0.11455
H_ H_ 0.697853 0.233348 0.975992 0.11455
H_ H_ 0.715243 0.303253 0.512426 0.11455
H_ H_ 0.69189 0.283573 0.56173 0.11455
H_ H_ 0.519597 0.207327 0.630345 0.11455
H_ H_ 0.514771 0.195111 0.682614 0.11455
H_ H_ 0.773201 0.185859 0.633609 0.11455
H_ H_ 0.76815 0.162995 0.685207 0.11455
H_ H_ 0.612985 0.0699021 0.750469 0.11455
H_ H_ 0.59004 0.0395117 0.798583 0.11455
H_ H_ 0.582532 0.108485 0.836863 0.11455
H_ H_ 0.676406 0.241869 0.757215 0.11455
H_ H_ 0.681142 0.297568 0.800839 0.11455
H_ H_ 0.671813 0.26036 0.848047 0.11455
H_ H_ 0.709357 0.287683 0.696485 0.11455
H_ H_ 0.64079 0.322987 0.601426 0.11455
H_ H_ 0.733238 0.305231 0.608567 0.11455
H_ H_ 0.624455 0.303543 0.720846 0.11455
H_ H_ 0.537194 0.327877 0.713472 0.11455
H_ H_ 0.557196 0.320143 0.620838 0.11455
H_ H_ 0.873972 0.490279 0.695276 0.11455
H_ H_ 0.819718 0.0712467 0.60922 0.11455
H_ H_ 0.900889 0.478231 0.604703 0.11455
H_ H_ 0.91059 0.070972 0.715657 0.11455
H_ H_ 0.922066 0.164365 0.708889 0.11455
H_ H_ 0.845375 0.153695 0.626996 0.11455
H_ H_ 0.933226 0.39057 0.719054 0.11455
H_ H_ 0.968974 0.403058 0.765615 0.11455
H_ H_ 0.921776 0.363928 0.805822 0.11455
H_ H_ 0.80995 0.257918 0.722473 0.11455
H_ H_ 0.766682 0.2159 0.761437 0.11455
H_ H_ 0.791564 0.23478 0.813206 0.11455
H_ H_ 0.97948 0.270549 0.875331 0.11455
H_ H_ -0.007774999999999976 0.282723 0.925736 0.11455
H_ H_ 0.745146 0.360644 0.882416 0.11455
H_ H_ 0.75142 0.37051 0.933785 0.11455
H_ H_ 0.934486 0.404555 0.998249 0.11455
H_ H_ 0.951651 0.449634 0.550654 0.11455
H_ H_ 0.933251 0.393779 0.590381 0.11455
H_ H_ 0.86746 0.257165 0.508478 0.11455
H_ H_ 0.834922 0.205934 0.549765 0.11455
H_ H_ 0.837594 0.243747 0.597866 0.11455
C_ C_ 0.740845 0.187358 0.903222 0.68181
C_ C_ 0.79496 0.18027 0.899055 -0.05681
C_ C_ 0.830142 0.180888 0.921297 -0.08735
C_ C_ 0.880137 0.16775 0.916808 -0.05681
C_ C_ 0.8993 0.171308 0.887377 -0.05681
C_ C_ 0.86503 0.168808 0.864804 -0.08735
C_ C_ 0.813693 0.165863 0.872047 -0.08735
C_ C_ 0.913088 0.155754 0.939127 -0.08735
C_ C_ 0.966264 0.152279 0.932749 -0.08735
C_ C_ 0.986995 0.160437 0.905102 -0.05681
C_ C_ 0.950623 0.165705 0.88256 -0.08735
C_ C_ 0.629475 0.273776 0.914923 0.68181
C_ C_ 0.654427 0.0769083 0.899506 0.68181
C_ C_ 0.652747 0.019997 0.896378 -0.05681
C_ C_ 0.632955 0.493793 0.923057 -0.08735
C_ C_ 0.634074 0.439909 0.921431 -0.05681
C_ C_ 0.6373 0.416908 0.89459 -0.05681
C_ C_ 0.646733 0.446983 0.870155 -0.08735
C_ C_ 0.646537 0.498705 0.872217 -0.08735
C_ C_ 0.627367 0.410009 0.945337 -0.08735
C_ C_ 0.62471 0.357261 0.942726 -0.08735
C_ C_ 0.628563 0.331819 0.916628 -0.05681
C_ C_ 0.634976 0.36335 0.892165 -0.08735
C_ C_ 0.54324 0.166559 0.908969 0.68181
C_ C_ 0.606977 0.111524 0.981518 0.1947
C_ C_ 0.593104 0.10959 0.512403 -0.08735
C_ C_ 0.605212 0.141873 0.536448 -0.08735
C_ C_ 0.629748 0.186273 0.529752 -0.05681
C_ C_ 0.636052 0.202957 0.500584 0.18498
C_ C_ 0.682704 0.224592 0.99771 -0.08735
C_ C_ 0.695633 0.268344 0.516822 -0.08735
C_ C_ 0.682127 0.258334 0.545451 -0.08735
C_ C_ 0.649749 0.2156 0.552574 0.18498
C_ C_ 0.690993 0.188623 0.597301 0.44287
C_ C_ 0.602363 0.203692 0.596671 0.44287
C_ C_ 0.599727 0.190576 0.626129 -0.05681
C_ C_ 0.554137 0.196629 0.641721 -0.08735
C_ C_ 0.551543 0.191921 0.671617 -0.08735
C_ C_ 0.596776 0.17741 0.68766 -0.05681
C_ C_ 0.642592 0.171168 0.672542 -0.05681
C_ C_ 0.643807 0.179735 0.642375 -0.05681
C_ C_ 0.690941 0.177488 0.627402 -0.05681
C_ C_ 0.736373 0.174817 0.644182 -0.08735
C_ C_ 0.734136 0.16421 0.673532 -0.08735
C_ C_ 0.687977 0.162301 0.687575 -0.05681
C_ C_ 0.685306 0.152085 0.717643 0.44287
C_ C_ 0.596795 0.175754 0.717482 0.44287
C_ C_ 0.634048 0.143436 0.76139 0.18498
C_ C_ 0.616772 0.0955673 0.767049 -0.08735
C_ C_ 0.605143 0.0803785 0.795358 -0.08735
C_ C_ 0.603845 0.11613 0.816734 -0.08735
C_ C_ 0.626961 0.162642 0.812388 0.18498
C_ C_ 0.639233 0.179385 0.783766 -0.05681
C_ C_ 0.661162 0.228525 0.779789 -0.08735
C_ C_ 0.661537 0.261467 0.802918 -0.08735
C_ C_ 0.653652 0.242121 0.830145 0.1947
C_ C_ 0.785496 0.312934 0.659035 0.68181
C_ C_ 0.730389 0.311295 0.654752 -0.05681
C_ C_ 0.697006 0.307791 0.678587 -0.08735
C_ C_ 0.644617 0.317032 0.675679 -0.05681
C_ C_ 0.623733 0.322112 0.647802 -0.05681
C_ C_ 0.655659 0.318146 0.623101 -0.08735
C_ C_ 0.709532 0.31389 0.626653 -0.08735
C_ C_ 0.612477 0.315302 0.699187 -0.08735
C_ C_ 0.560838 0.326536 0.694874 -0.08735
C_ C_ 0.538775 0.325671 0.667835 -0.05681
C_ C_ 0.571572 0.324604 0.643334 -0.08735
C_ C_ 0.881037 0.221669 0.665124 0.68181
C_ C_ 0.874965 0.417396 0.653954 0.68181
C_ C_ 0.875111 0.473658 0.650642 -0.05681
C_ C_ 0.878548 0.00731481 0.676353 -0.08735
C_ C_ 0.877381 0.0598724 0.674021 -0.05681
C_ C_ 0.862259 0.0826566 0.647844 -0.05681
C_ C_ 0.841782 0.0528634 0.626615 -0.08735
C_ C_ 0.882964 0.498559 0.623576 -0.08735
C_ C_ 0.899671 0.0896683 0.695865 -0.08735
C_ C_ 0.90275 0.142727 0.692991 -0.08735
C_ C_ 0.882354 0.166188 0.668343 -0.05681
C_ C_ 0.863523 0.135436 0.64547 -0.08735
C_ C_ 0.982638 0.329947 0.655664 0.68181
C_ C_ 0.923258 0.363514 0.735365 0.1947
C_ C_ 0.936419 0.37683 0.762579 -0.08735
C_ C_ 0.907809 0.354584 0.785143 -0.08735
C_ C_ 0.870607 0.317792 0.778843 -0.05681
C_ C_ 0.859402 0.304485 0.749963 0.18498
C_ C_ 0.822458 0.265666 0.744978 -0.08735
C_ C_ 0.794713 0.244997 0.767103 -0.08735
C_ C_ 0.809394 0.254645 0.795359 -0.08735
C_ C_ 0.842779 0.294122 0.800989 0.18498
C_ C_ 0.811973 0.324772 0.846784 0.44287
C_ C_ 0.893891 0.289554 0.843622 0.44287
C_ C_ 0.904176 0.301414 0.873002 -0.05681
C_ C_ 0.951452 0.289642 0.885586 -0.08735
C_ C_ 0.955943 0.290497 0.915521 -0.08735
C_ C_ 0.916739 0.302526 0.933004 -0.05681
C_ C_ 0.870099 0.318148 0.920474 -0.05681
C_ C_ 0.864076 0.317279 0.890233 -0.05681
C_ C_ 0.817375 0.327169 0.876675 -0.05681
C_ C_ 0.778787 0.343906 0.893489 -0.08735
C_ C_ 0.785043 0.352974 0.923206 -0.08735
C_ C_ 0.828997 0.336612 0.937261 -0.05681
C_ C_ 0.835015 0.3397 0.96731 0.44287
C_ C_ 0.921703 0.31111 0.962978 0.44287
C_ C_ 0.892704 0.355799 0.511958 0.18498
C_ C_ 0.913084 0.403526 0.517965 -0.08735
C_ C_ 0.927751 0.416277 0.546626 -0.08735
C_ C_ 0.915344 0.38377 0.569113 -0.08735
C_ C_ 0.889132 0.339246 0.564037 0.18498
C_ C_ 0.879494 0.324099 0.534673 -0.05681
C_ C_ 0.864956 0.273409 0.530322 -0.08735
C_ C_ 0.849551 0.243708 0.553674 -0.08735
C_ C_ 0.849419 0.26524 0.580567 0.1947
N_ N_ 0.636419 0.154447 0.97807 -0.29468
N_ N_ 0.646865 0.198263 0.582195 -0.17154
N_ N_ 0.638482 0.156956 0.73155 -0.17154
N_ N_ 0.637572 0.193782 0.834812 -0.29468
N_ N_ 0.884825 0.329419 0.729314 -0.29468
N_ N_ 0.851574 0.305846 0.830505 -0.17154
N_ N_ 0.881671 0.324239 0.979479 -0.17154
N_ N_ 0.871079 0.309048 0.585747 -0.29468
O_ O_ 0.719847 0.176423 0.926985 -0.58347
O_ O_ 0.712559 0.19381 0.881663 -0.58347
O_ O_ 0.636711 0.246861 0.936597 -0.58347
O_ O_ 0.623826 0.253326 0.88986 -0.58347
O_ O_ 0.654526 0.0966833 0.924308 -0.58347
O_ O_ 0.649027 0.104832 0.877483 -0.58347
O_ O_ 0.572558 0.169659 0.930735 -0.58347
O_ O_ 0.562466 0.164148 0.884784 -0.58347
O_ O_ 0.563409 0.221755 0.58347 -0.46727
O_ O_ 0.733736 0.183211 0.58323 -0.46727
O_ O_ 0.554296 0.183705 0.730854 -0.46727
O_ O_ 0.725482 0.133358 0.730417 -0.46727
O_ O_ 0.804582 0.317335 0.684178 -0.58347
O_ O_ 0.814168 0.312 0.637062 -0.58347
O_ O_ 0.883311 0.250313 0.686022 -0.58347
O_ O_ 0.889621 0.240113 0.640232 -0.58347
O_ O_ 0.868934 0.398551 0.678828 -0.58347
O_ O_ 0.875748 0.390765 0.632997 -0.58347
O_ O_ 0.955594 0.332536 0.677795 -0.58347
O_ O_ 0.960512 0.322455 0.631838 -0.58347
O_ O_ 0.928347 0.266376 0.828637 -0.46727
O_ O_ 0.765916 0.324143 0.83615 -0.46727
O_ O_ 0.966349 0.313942 0.975019 -0.46727
O_ O_ 0.802179 0.365309 0.982748 -0.46727
Zn Zn 0.623215 0.688656 0.381239 0.90689
Zn Zn 0.631324 0.676777 0.429998 0.90689
Zn Zn 0.861898 0.814787 0.136758 0.90689
Zn Zn 0.85652 0.817942 0.183678 0.90689
H_ H_ 0.80223 0.700911 0.441973 0.11455
H_ H_ 0.869358 0.661447 0.343264 0.11455
H_ H_ 0.775719 0.657886 0.354321 0.11455
H_ H_ 0.887783 0.690813 0.461538 0.11455
H_ H_ 0.980773 0.678459 0.45367 0.11455
H_ H_ 0.951678 0.684463 0.362407 0.11455
H_ H_ 0.599389 0.513612 0.436758 0.11455
H_ H_ 0.603245 0.929348 0.349004 0.11455
H_ H_ 0.656516 0.529591 0.349092 0.11455
H_ H_ 0.643996 0.925323 0.465612 0.11455
H_ H_ 0.63207 0.836436 0.462112 0.11455
H_ H_ 0.603341 0.847055 0.373934 0.11455
H_ H_ 0.576961 0.607205 0.463287 0.11455
H_ H_ 0.553143 0.586646 0.0128294 0.11455
H_ H_ 0.591958 0.626364 0.0537734 0.11455
H_ H_ 0.698658 0.731428 0.472321 0.11455
H_ H_ 0.722835 0.795982 0.0135506 0.11455
H_ H_ 0.684152 0.783053 0.0628401 0.11455
H_ H_ 0.498075 0.691201 0.120228 0.11455
H_ H_ 0.489371 0.666606 0.171491 0.11455
H_ H_ 0.754439 0.691985 0.139834 0.11455
H_ H_ 0.741733 0.687384 0.190923 0.11455
H_ H_ 0.542857 0.603026 0.253756 0.11455
H_ H_ 0.520991 0.586581 0.300915 0.11455
H_ H_ 0.566448 0.631191 0.339797 0.11455
H_ H_ 0.648802 0.752808 0.257643 0.11455
H_ H_ 0.68387 0.79929 0.301402 0.11455
H_ H_ 0.674717 0.768711 0.348727 0.11455
H_ H_ 0.682798 0.810173 0.203052 0.11455
H_ H_ 0.615662 0.837705 0.103806 0.11455
H_ H_ 0.708849 0.841043 0.112944 0.11455
H_ H_ 0.597553 0.804635 0.219629 0.11455
H_ H_ 0.505264 0.782939 0.207411 0.11455
H_ H_ 0.531933 0.809604 0.120089 0.11455
H_ H_ 0.8891 0.982568 0.193053 0.11455
H_ H_ 0.850219 0.570821 0.0986426 0.11455
H_ H_ 0.813845 0.97398 0.110506 0.11455
H_ H_ 0.848013 0.571513 0.217614 0.11455
H_ H_ 0.853161 0.658586 0.213636 0.11455
H_ H_ 0.876756 0.648011 0.123099 0.11455
H_ H_ 0.915744 0.894619 0.216313 0.11455
H_ H_ 0.941645 0.916836 0.266489 0.11455
H_ H_ 0.893721 0.880595 0.306273 0.11455
H_ H_ 0.792688 0.762974 0.229495 0.11455
H_ H_ 0.772165 0.70882 0.268915 0.11455
H_ H_ 0.793452 0.732107 0.318325 0.11455
H_ H_ 0.981169 0.801245 0.374859 0.11455
H_ H_ -0.006112000000000006 0.796274 0.427694 0.11455
H_ H_ 0.737728 0.853361 0.393478 0.11455
H_ H_ 0.748038 0.854916 0.443684 0.11455
H_ H_ 0.92309 0.928815 0.502211 0.11455
H_ H_ 0.961406 0.933107 0.0568433 0.11455
H_ H_ 0.936855 0.872695 0.0957366 0.11455
H_ H_ 0.854416 0.749985 0.0144852 0.11455
H_ H_ 0.808375 0.706957 0.0525574 0.11455
H_ H_ 0.821119 0.734513 0.100991 0.11455
C_ C_ 0.726102 0.689827 0.400579 0.68181
C_ C_ 0.782377 0.684701 0.397493 -0.05681
C_ C_ 0.815327 0.693288 0.421002 -0.08735
C_ C_ 0.868142 0.682383 0.416681 -0.05681
C_ C_ 0.888824 0.675862 0.388536 -0.05681
C_ C_ 0.854854 0.670929 0.365188 -0.08735
C_ C_ 0.802048 0.669086 0.37094 -0.08735
C_ C_ 0.902769 0.682388 0.439567 -0.08735
C_ C_ 0.955148 0.674643 0.435885 -0.08735
C_ C_ 0.976243 0.674494 0.40823 -0.05681
C_ C_ 0.941753 0.673169 0.383265 -0.08735
C_ C_ 0.619506 0.778893 0.413685 0.68181
C_ C_ 0.632031 0.585612 0.396269 0.68181
C_ C_ 0.630647 0.529589 0.392568 -0.05681
C_ C_ 0.634508 0.992339 0.423844 -0.08735
C_ C_ 0.629797 0.93958 0.421194 -0.05681
C_ C_ 0.616685 0.917013 0.394445 -0.05681
C_ C_ 0.610098 0.947822 0.370256 -0.08735
C_ C_ 0.61822 0.999505458 0.372839 -0.08735
C_ C_ 0.637183 0.908764 0.445044 -0.08735
C_ C_ 0.626383 0.857044 0.443256 -0.08735
C_ C_ 0.617416 0.834177 0.417432 -0.05681
C_ C_ 0.608851 0.864192 0.393066 -0.08735
C_ C_ 0.529249 0.677378 0.407937 0.68181
C_ C_ 0.594123 0.627285 0.48119 0.1947
C_ C_ 0.579255 0.616474 0.00870995 -0.08735
C_ C_ 0.605893 0.636963 0.031788 -0.08735
C_ C_ 0.634996 0.680333 0.0278005 -0.05681
C_ C_ 0.649927 0.690679 0.99952 0.18498
C_ C_ 0.686813 0.726488 0.494231 -0.08735
C_ C_ 0.693608 0.765087 0.0176971 -0.08735
C_ C_ 0.677943 0.755542 0.0456263 -0.08735
C_ C_ 0.64756 0.712783 0.0516091 0.18498
C_ C_ 0.675896 0.693631 0.0995264 0.44287
C_ C_ 0.588171 0.702794 0.0921778 0.44287
C_ C_ 0.580544 0.694869 0.122657 -0.05681
C_ C_ 0.532179 0.685935 0.134114 -0.08735
C_ C_ 0.525488 0.683711 0.163496 -0.08735
C_ C_ 0.567384 0.680763 0.182534 -0.05681
C_ C_ 0.616451 0.68739 0.171584 -0.05681
C_ C_ 0.622798 0.689585 0.140994 -0.05681
C_ C_ 0.670506 0.689548 0.129551 -0.05681
C_ C_ 0.714133 0.687521 0.147733 -0.08735
C_ C_ 0.707891 0.68448 0.176961 -0.08735
C_ C_ 0.659045 0.687489 0.189548 -0.05681
C_ C_ 0.650511 0.680824 0.219369 0.44287
C_ C_ 0.561547 0.683866 0.213527 0.44287
C_ C_ 0.594304 0.667409 0.261827 0.18498
C_ C_ 0.560259 0.626139 0.26887 -0.08735
C_ C_ 0.549029 0.615383 0.296749 -0.08735
C_ C_ 0.572108 0.642605 0.318179 -0.08735
C_ C_ 0.601444 0.68422 0.31364 0.18498
C_ C_ 0.610079 0.700317 0.284852 -0.05681
C_ C_ 0.638908 0.744199 0.279655 -0.08735
C_ C_ 0.661119 0.769329 0.303338 -0.08735
C_ C_ 0.656157 0.750739 0.330682 0.1947
C_ C_ 0.760371 0.823886 0.160453 0.68181
C_ C_ 0.703089 0.825289 0.157783 -0.05681
C_ C_ 0.669359 0.815743 0.180713 -0.08735
C_ C_ 0.616622 0.811933 0.175443 -0.05681
C_ C_ 0.598334 0.814159 0.146578 -0.05681
C_ C_ 0.631107 0.833819 0.125227 -0.08735
C_ C_ 0.682783 0.835312 0.13137 -0.08735
C_ C_ 0.582294 0.809168 0.198508 -0.08735
C_ C_ 0.530053 0.797497 0.191581 -0.08735
C_ C_ 0.510655 0.806729 0.164656 -0.05681
C_ C_ 0.544848 0.812039 0.14119 -0.08735
C_ C_ 0.859255 0.718518 0.166933 0.68181
C_ C_ 0.854248 0.915631 0.150948 0.68181
C_ C_ 0.855209 0.972421 0.150177 -0.05681
C_ C_ 0.859037 0.502012 0.172867 -0.08735
C_ C_ 0.857286 0.555557 0.17204 -0.05681
C_ C_ 0.858244 0.580263 0.145523 -0.05681
C_ C_ 0.8559 0.551314 0.120245 -0.08735
C_ C_ 0.831741 0.996709 0.126819 -0.08735
C_ C_ 0.85927 0.584866 0.196964 -0.08735
C_ C_ 0.858164 0.636611 0.194144 -0.08735
C_ C_ 0.860395 0.662642 0.16797 -0.05681
C_ C_ 0.861618 0.632944 0.142823 -0.08735
C_ C_ 0.959219 0.810731 0.163953 0.68181
C_ C_ 0.896027 0.876707 0.234168 0.1947
C_ C_ 0.910158 0.890616 0.262288 -0.08735
C_ C_ 0.889695 0.865132 0.285616 -0.08735
C_ C_ 0.856185 0.82543 0.281444 -0.05681
C_ C_ 0.845016 0.808283 0.252894 0.18498
C_ C_ 0.81174 0.767054 0.248516 -0.08735
C_ C_ 0.792407 0.742811 0.272345 -0.08735
C_ C_ 0.804408 0.756806 0.300897 -0.08735
C_ C_ 0.83724 0.798081 0.305098 0.18498
C_ C_ 0.806686 0.82376 0.352199 0.44287
C_ C_ 0.893724 0.80512 0.347171 0.44287
C_ C_ 0.901483 0.808344 0.376586 -0.05681
C_ C_ 0.948743 0.803864 0.388618 -0.08735
C_ C_ 0.955758 0.801895 0.419222 -0.08735
C_ C_ 0.916161 0.81546 0.435983 -0.05681
C_ C_ 0.867095 0.822472 0.424694 -0.05681
C_ C_ 0.859047 0.816804 0.394908 -0.05681
C_ C_ 0.808914 0.819527 0.383199 -0.05681
C_ C_ 0.769975 0.832548 0.401521 -0.08735
C_ C_ 0.778653 0.838453 0.430692 -0.08735
C_ C_ 0.82609 0.829391 0.443171 -0.05681
C_ C_ 0.836493 0.843018 0.472423 0.44287
C_ C_ 0.924439 0.825265 0.46583 0.44287
C_ C_ 0.89569 0.84472 0.0165317 0.18498
C_ C_ 0.926063 0.887838 0.0228731 -0.08735
C_ C_ 0.939624 0.898633 0.0523669 -0.08735
C_ C_ 0.918062 0.869209 0.0745813 -0.08735
C_ C_ 0.887121 0.828224 0.0693584 0.18498
C_ C_ 0.879054 0.813575 0.0391822 -0.05681
C_ C_ 0.855552 0.765807 0.0348012 -0.08735
C_ C_ 0.827549 0.744774 0.0570291 -0.08735
C_ C_ 0.837343 0.759399 0.0850324 0.1947
N_ N_ 0.630773 0.663927 0.476506 -0.29468
N_ N_ 0.636255 0.70117 0.0810767 -0.17154
N_ N_ 0.602412 0.679303 0.231419 -0.17154
N_ N_ 0.628324 0.708584 0.33593 -0.29468
N_ N_ 0.866553 0.834781 0.22984 -0.29468
N_ N_ 0.847765 0.812832 0.335513 -0.17154
N_ N_ 0.88375 0.840901 0.483427 -0.17154
N_ N_ 0.867611 0.797819 0.091111 -0.29468
O_ O_ 0.706973 0.682792 0.42543 -0.58347
O_ O_ 0.696669 0.693063 0.379502 -0.58347
O_ O_ 0.623132 0.751921 0.435227 -0.58347
O_ O_ 0.615257 0.760836 0.389971 -0.58347
O_ O_ 0.636039 0.60498 0.420474 -0.58347
O_ O_ 0.630182 0.611935 0.374559 -0.58347
O_ O_ 0.559545 0.670507 0.429285 -0.58347
O_ O_ 0.546506 0.683806 0.382257 -0.58347
O_ O_ 0.549582 0.700728 0.0750265 -0.46727
O_ O_ 0.721584 0.686146 0.087369 -0.46727
O_ O_ 0.516237 0.692223 0.223136 -0.46727
O_ O_ 0.688209 0.669477 0.236905 -0.46727
O_ O_ 0.781688 0.830181 0.185367 -0.58347
O_ O_ 0.785859 0.814356 0.137259 -0.58347
O_ O_ 0.847736 0.745194 0.189569 -0.58347
O_ O_ 0.869912 0.74175 0.143994 -0.58347
O_ O_ 0.8587 0.891917 0.174522 -0.58347
O_ O_ 0.858381 0.891323 0.128358 -0.58347
O_ O_ 0.930559 0.812012 0.185079 -0.58347
O_ O_ 0.940623 0.820027 0.139473 -0.58347
O_ O_ 0.932076 0.787777 0.330967 -0.46727
O_ O_ 0.76486 0.83807 0.339629 -0.46727
O_ O_ 0.966969 0.812839 0.477723 -0.46727
O_ O_ 0.797659 0.853598 0.489356 -0.46727
Zn Zn 0.624572 0.676827 0.881358 0.90689
Zn Zn 0.639556 0.677376 0.930098 0.90689
Zn Zn 0.876317 0.816637 0.636745 0.90689
Zn Zn 0.867581 0.825291 0.684262 0.90689
H_ H_ 0.811332 0.692237 0.946621 0.11455
H_ H_ 0.874421 0.667519 0.84649 0.11455
H_ H_ 0.780601 0.678193 0.854756 0.11455
H_ H_ 0.896729 0.697588 0.962573 0.11455
H_ H_ 0.989508 0.687248 0.95172 0.11455
H_ H_ 0.960943 0.678702 0.863756 0.11455
H_ H_ 0.635389 0.511392 0.944044 0.11455
H_ H_ 0.645914 0.927941 0.846678 0.11455
H_ H_ 0.655019 0.520394 0.853074 0.11455
H_ H_ 0.650899 0.915933 0.962214 0.11455
H_ H_ 0.633092 0.83188 0.960589 0.11455
H_ H_ 0.61029 0.847029 0.86909 0.11455
H_ H_ 0.581686 0.603494 0.962806 0.11455
H_ H_ 0.554038 0.581994 0.510235 0.11455
H_ H_ 0.601174 0.620365 0.554587 0.11455
H_ H_ 0.693264 0.742827 0.973849 0.11455
H_ H_ 0.727313 0.79239 0.5113 0.11455
H_ H_ 0.705008 0.771526 0.561349 0.11455
H_ H_ 0.514364 0.69528 0.621135 0.11455
H_ H_ 0.504756 0.695864 0.67249 0.11455
H_ H_ 0.767297 0.662259 0.635249 0.11455
H_ H_ 0.758246 0.667919 0.68994 0.11455
H_ H_ 0.580514 0.588312 0.744453 0.11455
H_ H_ 0.567624 0.552318 0.795473 0.11455
H_ H_ 0.58207 0.612066 0.838043 0.11455
H_ H_ 0.641917 0.756732 0.759104 0.11455
H_ H_ 0.69286 0.793145 0.801646 0.11455
H_ H_ 0.674327 0.758274 0.849763 0.11455
H_ H_ 0.695971 0.801816 0.697105 0.11455
H_ H_ 0.633247 0.819 0.598382 0.11455
H_ H_ 0.722704 0.827332 0.607122 0.11455
H_ H_ 0.605653 0.807872 0.715947 0.11455
H_ H_ 0.514446 0.81782 0.705188 0.11455
H_ H_ 0.547995 0.822837 0.614858 0.11455
H_ H_ 0.88282 0.993322 0.698917 0.11455
H_ H_ 0.888499 0.573167 0.599851 0.11455
H_ H_ 0.826541 0.979832 0.611707 0.11455
H_ H_ 0.874796 0.573944 0.719013 0.11455
H_ H_ 0.868335 0.660225 0.716375 0.11455
H_ H_ 0.879682 0.653433 0.623349 0.11455
H_ H_ 0.929467 0.893098 0.720549 0.11455
H_ H_ 0.952847 0.910304 0.770114 0.11455
H_ H_ 0.89985 0.885868 0.808848 0.11455
H_ H_ 0.806497 0.756541 0.727712 0.11455
H_ H_ 0.774664 0.708169 0.769457 0.11455
H_ H_ 0.807472 0.727888 0.817753 0.11455
H_ H_ 0.990967 0.791094 0.877536 0.11455
H_ H_ 0.996727 0.796398 0.930352 0.11455
H_ H_ 0.743088 0.849615 0.89233 0.11455
H_ H_ 0.747652 0.843389 0.945372 0.11455
H_ H_ 0.942907 0.910007 1.00552097 0.11455
H_ H_ 0.932989 0.957822 0.552387 0.11455
H_ H_ 0.927063 0.893677 0.591785 0.11455
H_ H_ 0.847702 0.758916 0.50856 0.11455
H_ H_ 0.819736 0.709635 0.550376 0.11455
H_ H_ 0.839948 0.732478 0.597961 0.11455
C_ C_ 0.731116 0.685859 0.904581 0.68181
C_ C_ 0.787757 0.682186 0.900119 -0.05681
C_ C_ 0.822615 0.68865 0.924456 -0.08735
C_ C_ 0.87571 0.690766 0.919132 -0.05681
C_ C_ 0.894187 0.683673 0.890077 -0.05681
C_ C_ 0.858547 0.677152 0.86732 -0.08735
C_ C_ 0.807209 0.678934 0.871929 -0.08735
C_ C_ 0.911442 0.691459 0.940831 -0.08735
C_ C_ 0.962894 0.685569 0.935198 -0.08735
C_ C_ 0.980413 0.683666 0.906718 -0.05681
C_ C_ 0.946572 0.684379 0.884436 -0.08735
C_ C_ 0.623381 0.775502 0.912877 0.68181
C_ C_ 0.641312 0.578483 0.900607 0.68181
C_ C_ 0.643196 0.522183 0.898633 -0.05681
C_ C_ 0.649761 -0.011276999999999981 0.92087 -0.08735
C_ C_ 0.643587 0.935555 0.918288 -0.05681
C_ C_ 0.63448 0.914771 0.891286 -0.05681
C_ C_ 0.648464 0.943608 0.867514 -0.08735
C_ C_ 0.653841 -0.002677999999999958 0.869323 -0.08735
C_ C_ 0.646297 0.903631 0.941761 -0.08735
C_ C_ 0.633024 0.854037 0.940839 -0.08735
C_ C_ 0.6232 0.831994 0.914098 -0.05681
C_ C_ 0.62333 0.861836 0.890259 -0.08735
C_ C_ 0.533886 0.674114 0.903429 0.68181
C_ C_ 0.598105 0.624128 0.980978 0.1947
C_ C_ 0.580405 0.612524 0.508667 -0.08735
C_ C_ 0.60869 0.63282 0.532222 -0.08735
C_ C_ 0.641992 0.673742 0.52831 -0.05681
C_ C_ 0.652097 0.68908 0.499088 0.18498
C_ C_ 0.684045 0.731222 0.995364 -0.08735
C_ C_ 0.705845 0.756431 0.516165 -0.08735
C_ C_ 0.689443 0.746716 0.544588 -0.08735
C_ C_ 0.659503 0.705624 0.5508 0.18498
C_ C_ 0.69088 0.679442 0.596884 0.44287
C_ C_ 0.605767 0.697987 0.592835 0.44287
C_ C_ 0.597634 0.691514 0.622537 -0.05681
C_ C_ 0.548802 0.693016 0.634803 -0.08735
C_ C_ 0.543681 0.696173 0.66467 -0.08735
C_ C_ 0.586763 0.687222 0.683713 -0.05681
C_ C_ 0.635 0.679553 0.670739 -0.05681
C_ C_ 0.640414 0.68652 0.640841 -0.05681
C_ C_ 0.687426 0.673891 0.627905 -0.05681
C_ C_ 0.729332 0.66471 0.645077 -0.08735
C_ C_ 0.726201 0.665485 0.676478 -0.08735
C_ C_ 0.677584 0.670407 0.6891 -0.05681
C_ C_ 0.670169 0.670593 0.719136 0.44287
C_ C_ 0.583727 0.69078 0.713189 0.44287
C_ C_ 0.609405 0.658856 0.759147 0.18498
C_ C_ 0.590245 0.609922 0.764144 -0.08735
C_ C_ 0.579988 0.592287 0.791864 -0.08735
C_ C_ 0.591233 0.623477 0.815416 -0.08735
C_ C_ 0.616151 0.669841 0.81136 0.18498
C_ C_ 0.623976 0.688932 0.783515 -0.05681
C_ C_ 0.64442 0.737528 0.78057 -0.08735
C_ C_ 0.665648 0.760505 0.804074 -0.08735
C_ C_ 0.661804 0.738078 0.831876 0.1947
C_ C_ 0.773232 0.81091 0.656789 0.68181
C_ C_ 0.717378 0.815362 0.652253 -0.05681
C_ C_ 0.684316 0.8135 0.675117 -0.08735
C_ C_ 0.630053 0.81204 0.670529 -0.05681
C_ C_ 0.612548 0.818875 0.642477 -0.05681
C_ C_ 0.646471 0.823569 0.619901 -0.08735
C_ C_ 0.697904 0.8252 0.624982 -0.08735
C_ C_ 0.594392 0.810387 0.692878 -0.08735
C_ C_ 0.541467 0.816091 0.687758 -0.08735
C_ C_ 0.524778 0.822047 0.659355 -0.05681
C_ C_ 0.560279 0.818913 0.636905 -0.08735
C_ C_ 0.877554 0.723055 0.666552 0.68181
C_ C_ 0.869175 0.921004 0.65568 0.68181
C_ C_ 0.858367 0.977639 0.654403 -0.05681
C_ C_ 0.873296 0.506569 0.67488 -0.08735
C_ C_ 0.877028 0.560187 0.672861 -0.05681
C_ C_ 0.88033 0.582514 0.646102 -0.05681
C_ C_ 0.883445 0.552998 0.620906 -0.08735
C_ C_ 0.842148 1.00043 0.629307 -0.08735
C_ C_ 0.878124 0.589858 0.697766 -0.08735
C_ C_ 0.876244 0.641484 0.695961 -0.08735
C_ C_ 0.879194 0.66679 0.668566 -0.05681
C_ C_ 0.878841 0.635106 0.643889 -0.08735
C_ C_ 0.97246 0.830371 0.661425 0.68181
C_ C_ 0.910762 0.870339 0.736643 0.1947
C_ C_ 0.919589 0.887988 0.764204 -0.08735
C_ C_ 0.889602 0.870928 0.787315 -0.08735
C_ C_ 0.861711 0.825787 0.783044 -0.05681
C_ C_ 0.848995 0.812515 0.753841 0.18498
C_ C_ 0.818093 0.76758 0.749738 -0.08735
C_ C_ 0.801232 0.738995 0.773211 -0.08735
C_ C_ 0.817466 0.751014 0.800977 -0.08735
C_ C_ 0.844305 0.79453 0.807268 0.18498
C_ C_ 0.81289 0.823012 0.854818 0.44287
C_ C_ 0.900302 0.801608 0.849521 0.44287
C_ C_ 0.908346 0.807224 0.878887 -0.05681
C_ C_ 0.956947 0.803013 0.891497 -0.08735
C_ C_ 0.961704 0.806448 0.921026 -0.08735
C_ C_ 0.921331 0.816233 0.939356 -0.05681
C_ C_ 0.872934 0.821556 0.926825 -0.05681
C_ C_ 0.866125 0.818929 0.897057 -0.05681
C_ C_ 0.818809 0.827498 0.885157 -0.05681
C_ C_ 0.778006 0.839836 0.903145 -0.08735
C_ C_ 0.782917 0.837354 0.932933 -0.08735
C_ C_ 0.829984 0.832953 0.945559 -0.05681
C_ C_ 0.838899 0.836509 0.974927 0.44287
C_ C_ 0.926742 0.82116 0.969105 0.44287
C_ C_ 0.893016 0.852559 0.513282 0.18498
C_ C_ 0.91293 0.903426 0.520189 -0.08735
C_ C_ 0.922384 0.917737 0.547982 -0.08735
C_ C_ 0.909499 0.883924 0.569845 -0.08735
C_ C_ 0.888912 0.836148 0.56504 0.18498
C_ C_ 0.877239 0.82067 0.535828 -0.05681
C_ C_ 0.853299 0.773868 0.529988 -0.08735
C_ C_ 0.835922 0.745024 0.553254 -0.08735
C_ C_ 0.847734 0.761128 0.581397 0.1947
N_ N_ 0.633807 0.65988 0.97652 -0.29468
N_ N_ 0.651002 0.692506 0.580504 -0.17154
N_ N_ 0.622705 0.6744 0.730205 -0.17154
N_ N_ 0.634082 0.694133 0.834543 -0.29468
N_ N_ 0.874912 0.83413 0.730697 -0.29468
N_ N_ 0.85281 0.809311 0.837467 -0.17154
N_ N_ 0.886679 0.830416 0.986508 -0.17154
N_ N_ 0.874688 0.804605 0.587523 -0.29468
O_ O_ 0.713374 0.685601 0.929371 -0.58347
O_ O_ 0.702419 0.682173 0.883069 -0.58347
O_ O_ 0.633507 0.751011 0.93545 -0.58347
O_ O_ 0.618014 0.752313 0.889504 -0.58347
O_ O_ 0.648146 0.600835 0.924461 -0.58347
O_ O_ 0.627493 0.60292 0.877931 -0.58347
O_ O_ 0.564492 0.668378 0.924599 -0.58347
O_ O_ 0.550951 0.674307 0.877956 -0.58347
O_ O_ 0.566591 0.71295 0.576563 -0.46727
O_ O_ 0.733771 0.665179 0.583415 -0.46727
O_ O_ 0.54314 0.710519 0.724377 -0.46727
O_ O_ 0.707741 0.677411 0.736078 -0.46727
O_ O_ 0.79423 0.822685 0.680311 -0.58347
O_ O_ 0.802777 0.807267 0.635622 -0.58347
O_ O_ 0.865124 0.751389 0.687452 -0.58347
O_ O_ 0.89097 0.743007 0.643272 -0.58347
O_ O_ 0.868413 0.900452 0.679979 -0.58347
O_ O_ 0.865418 0.893638 0.63263 -0.58347
O_ O_ 0.943321 0.833454 0.683245 -0.58347
O_ O_ 0.953338 0.828692 0.636247 -0.58347
O_ O_ 0.936743 0.783262 0.833634 -0.46727
O_ O_ 0.767186 0.832794 0.843331 -0.46727
O_ O_ 0.970118 0.816335 0.981285 -0.46727
O_ O_ 0.799895 0.842575 0.992512 -0.46727
_cell_length_a 26.376
_cell_length_b 26.400000238300095
_cell_length_c 46.67800035477134
_cell_angle_alpha 90.00700052986613
_cell_angle_beta 89.99899961309502
_cell_angle_gamma 90.45000003183146
_symmetry_space_group_name_H-M         'P 1'
_symmetry_Int_Tables_number            1
loop_
_symmetry_equiv_pos_as_xyz
   'x, y, z'
                         
loop_
_atom_site_label
_atom_site_type_symbol
_atom_site_fract_x 
_atom_site_fract_y
_atom_site_fract_z
_atom_site_charge
Zn Zn 0.124942 0.189324 0.378133 0.90689
Zn Zn 0.134557 0.187279 0.427894 0.90689
Zn Zn 0.365915 0.312011 0.132271 0.90689
Zn Zn 0.359458 0.320409 0.180881 0.90689
H_ H_ 0.305134 0.181817 0.445284 0.11455
H_ H_ 0.370642 0.172673 0.344292 0.11455
H_ H_ 0.282659 0.177633 0.353319 0.11455
H_ H_ 0.389668 0.180074 0.462126 0.11455
H_ H_ 0.480199 0.194118 0.455891 0.11455
H_ H_ 0.459667 0.175056 0.363382 0.11455
H_ H_ 0.124421 0.0182773 0.438377 0.11455
H_ H_ 0.108726 0.439004 0.342825 0.11455
H_ H_ 0.14836 0.0324719 0.346938 0.11455
H_ H_ 0.150364 0.437706 0.461357 0.11455
H_ H_ 0.134402 0.345019 0.456762 0.11455
H_ H_ 0.105212 0.359105 0.367593 0.11455
H_ H_ 0.0785673 0.114902 0.465808 0.11455
H_ H_ 0.0791973 0.0702794 0.0114012 0.11455
H_ H_ 0.117544 0.113247 0.0525762 0.11455
H_ H_ 0.186512 0.253937 0.472902 0.11455
H_ H_ 0.234067 0.292149 0.0136521 0.11455
H_ H_ 0.215076 0.268757 0.0622914 0.11455
H_ H_ 0.0254235 0.206797 0.125427 0.11455
H_ H_ 0.0143179 0.198435 0.177857 0.11455
H_ H_ 0.26735 0.138104 0.134173 0.11455
H_ H_ 0.260639 0.137893 0.187682 0.11455
H_ H_ 0.0976832 0.0605479 0.251655 0.11455
H_ H_ 0.0699672 0.0478089 0.303201 0.11455
H_ H_ 0.0768556 0.112834 0.337408 0.11455
H_ H_ 0.167528 0.225238 0.253752 0.11455
H_ H_ 0.194262 0.285565 0.288929 0.11455
H_ H_ 0.173255 0.264731 0.341452 0.11455
H_ H_ 0.192229 0.316738 0.200188 0.11455
H_ H_ 0.124343 0.318551 0.101046 0.11455
H_ H_ 0.211774 0.313693 0.107898 0.11455
H_ H_ 0.1056 0.295611 0.216929 0.11455
H_ H_ 0.0121793 0.295073 0.208625 0.11455
H_ H_ 0.0360478 0.331925 0.119838 0.11455
H_ H_ 0.351052 0.488031 0.195221 0.11455
H_ H_ 0.357219 0.0669752 0.0989313 0.11455
H_ H_ 0.361287 0.472276 0.102997 0.11455
H_ H_ 0.373452 0.0660482 0.218543 0.11455
H_ H_ 0.367231 0.162543 0.212753 0.11455
H_ H_ 0.371485 0.150811 0.122228 0.11455
H_ H_ 0.397962 0.402451 0.216643 0.11455
H_ H_ 0.398852 0.437465 0.263589 0.11455
H_ H_ 0.365352 0.386411 0.304268 0.11455
H_ H_ 0.314439 0.241916 0.225106 0.11455
H_ H_ 0.264855 0.202095 0.263023 0.11455
H_ H_ 0.295609 0.222173 0.312904 0.11455
H_ H_ 0.482592 0.29533 0.36708 0.11455
H_ H_ 0.498487 0.307538 0.419217 0.11455
H_ H_ 0.233509 0.331211 0.390557 0.11455
H_ H_ 0.248892 0.335889 0.442535 0.11455
H_ H_ 0.444222 0.417306 0.501036 0.11455
H_ H_ 0.442443 0.445342 0.0523253 0.11455
H_ H_ 0.421317 0.389156 0.0905107 0.11455
H_ H_ 0.343225 0.260627 0.00782645 0.11455
H_ H_ 0.311591 0.207939 0.0465811 0.11455
H_ H_ 0.318194 0.237105 0.095175 0.11455
C_ C_ 0.226537 0.185943 0.402318 0.68181
C_ C_ 0.284212 0.184221 0.398282 -0.05681
C_ C_ 0.318484 0.179989 0.422208 -0.08735
C_ C_ 0.371298 0.181421 0.416856 -0.05681
C_ C_ 0.390438 0.180461 0.389544 -0.05681
C_ C_ 0.357621 0.178442 0.36576 -0.08735
C_ C_ 0.306082 0.182423 0.371196 -0.08735
C_ C_ 0.402491 0.18644 0.440558 -0.08735
C_ C_ 0.455179 0.186485 0.436595 -0.08735
C_ C_ 0.476055 0.183473 0.409656 -0.05681
C_ C_ 0.443255 0.179291 0.38544 -0.08735
C_ C_ 0.123707 0.289256 0.408066 0.68181
C_ C_ 0.1348 0.0877278 0.396934 0.68181
C_ C_ 0.134207 0.0307813 0.393117 -0.05681
C_ C_ 0.141797 0.503445 0.417078 -0.08735
C_ C_ 0.135318 0.449569 0.415774 -0.05681
C_ C_ 0.124724 0.426287 0.388422 -0.05681
C_ C_ 0.121628 0.456541 0.363753 -0.08735
C_ C_ 0.125403 0.508999 0.36709 -0.08735
C_ C_ 0.140545 0.418682 0.440602 -0.08735
C_ C_ 0.132663 0.366468 0.437952 -0.08735
C_ C_ 0.124533 0.343317 0.410699 -0.05681
C_ C_ 0.113 0.375822 0.387662 -0.08735
C_ C_ 0.0308847 0.178369 0.403588 0.68181
C_ C_ 0.0999038 0.129165 0.483494 0.1947
C_ C_ 0.101862 0.104966 0.00724806 -0.08735
C_ C_ 0.12213 0.129837 0.0306639 -0.08735
C_ C_ 0.15093 0.17524 0.0276531 -0.05681
C_ C_ 0.161366 0.192045 0.998435 0.18498
C_ C_ 0.174563 0.245992 0.493962 -0.08735
C_ C_ 0.214775 0.257601 0.0172838 -0.08735
C_ C_ 0.196124 0.247517 0.0455947 -0.08735
C_ C_ 0.162838 0.207129 0.051795 0.18498
C_ C_ 0.197134 0.175942 0.0979709 0.44287
C_ C_ 0.113255 0.203855 0.0963123 0.44287
C_ C_ 0.104818 0.192362 0.125169 -0.05681
C_ C_ 0.0572255 0.195021 0.138301 -0.08735
C_ C_ 0.0502792 0.187535 0.167549 -0.08735
C_ C_ 0.0905904 0.171851 0.183929 -0.05681
C_ C_ 0.13742 0.166226 0.17114 -0.05681
C_ C_ 0.144925 0.175444 0.141282 -0.05681
C_ C_ 0.191558 0.168499 0.128048 -0.05681
C_ C_ 0.231637 0.149752 0.144463 -0.08735
C_ C_ 0.22666 0.141747 0.174648 -0.08735
C_ C_ 0.1798 0.149942 0.187398 -0.05681
C_ C_ 0.172881 0.141234 0.217129 0.44287
C_ C_ 0.0867903 0.170492 0.213857 0.44287
C_ C_ 0.117391 0.140276 0.259107 0.18498
C_ C_ 0.0967813 0.0924111 0.26707 -0.08735
C_ C_ 0.0811546 0.0858781 0.295699 -0.08735
C_ C_ 0.0927626 0.119786 0.31724 -0.08735
C_ C_ 0.115222 0.166795 0.310372 0.18498
C_ C_ 0.128771 0.177674 0.281211 -0.05681
C_ C_ 0.154447 0.221529 0.274783 -0.08735
C_ C_ 0.170356 0.25298 0.296375 -0.08735
C_ C_ 0.156842 0.241951 0.324928 0.1947
C_ C_ 0.265532 0.313408 0.158059 0.68181
C_ C_ 0.209765 0.316187 0.154807 -0.05681
C_ C_ 0.177428 0.313571 0.178712 -0.08735
C_ C_ 0.125028 0.313122 0.173289 -0.05681
C_ C_ 0.104376 0.320715 0.145303 -0.05681
C_ C_ 0.136248 0.32503 0.122962 -0.08735
C_ C_ 0.188892 0.321963 0.127191 -0.08735
C_ C_ 0.0910338 0.305705 0.19691 -0.08735
C_ C_ 0.0385812 0.306959 0.191218 -0.08735
C_ C_ 0.0185407 0.318285 0.16427 -0.05681
C_ C_ 0.0513817 0.324487 0.141506 -0.08735
C_ C_ 0.380711 0.220346 0.164543 0.68181
C_ C_ 0.352161 0.415403 0.151842 0.68181
C_ C_ 0.356558 0.471856 0.149127 -0.05681
C_ C_ 0.358458 0.00316296 0.173718 -0.08735
C_ C_ 0.364545 0.0551868 0.172541 -0.05681
C_ C_ 0.368713 0.078891 0.144705 -0.05681
C_ C_ 0.3631 0.0499859 0.119982 -0.08735
C_ C_ 0.35973 0.49574 0.122342 -0.08735
C_ C_ 0.370322 0.0839336 0.197198 -0.08735
C_ C_ 0.374883 0.138661 0.194393 -0.08735
C_ C_ 0.37908 0.162726 0.167159 -0.05681
C_ C_ 0.376028 0.132918 0.14258 -0.08735
C_ C_ 0.462718 0.322356 0.15869 0.68181
C_ C_ 0.383358 0.379266 0.233086 0.1947
C_ C_ 0.383654 0.400237 0.260874 -0.08735
C_ C_ 0.370328 0.370789 0.283172 -0.08735
C_ C_ 0.352267 0.319658 0.27943 -0.05681
C_ C_ 0.347628 0.302008 0.251 0.18498
C_ C_ 0.314555 0.261208 0.245777 -0.08735
C_ C_ 0.289615 0.235571 0.268193 -0.08735
C_ C_ 0.30021 0.248835 0.296473 -0.08735
C_ C_ 0.330309 0.291446 0.302382 0.18498
C_ C_ 0.302988 0.312592 0.350507 0.44287
C_ C_ 0.389709 0.300307 0.341967 0.44287
C_ C_ 0.401263 0.313089 0.370826 -0.05681
C_ C_ 0.45266 0.3094 0.381116 -0.08735
C_ C_ 0.461432 0.313635 0.410928 -0.08735
C_ C_ 0.420227 0.324307 0.429668 -0.05681
C_ C_ 0.371615 0.327401 0.418917 -0.05681
C_ C_ 0.361189 0.326482 0.389476 -0.05681
C_ C_ 0.311534 0.324581 0.378988 -0.05681
C_ C_ 0.271597 0.327261 0.398574 -0.08735
C_ C_ 0.279818 0.33397 0.427897 -0.08735
C_ C_ 0.330435 0.332706 0.437538 -0.05681
C_ C_ 0.340004 0.339989 0.468202 0.44287
C_ C_ 0.427227 0.323173 0.459948 0.44287
C_ C_ 0.383713 0.353939 0.0113989 0.18498
C_ C_ 0.408438 0.400579 0.0175588 -0.08735
C_ C_ 0.427927 0.408204 0.0462318 -0.08735
C_ C_ 0.408574 0.378594 0.0696272 -0.08735
C_ C_ 0.38221 0.334799 0.0635402 0.18498
C_ C_ 0.374578 0.320774 0.0339353 -0.05681
C_ C_ 0.353808 0.271304 0.0294436 -0.08735
C_ C_ 0.33124 0.244853 0.0504255 -0.08735
C_ C_ 0.338226 0.25967 0.0792123 0.1947
N_ N_ 0.129887 0.17004 0.477111 -0.29468
N_ N_ 0.156636 0.190371 0.0819651 -0.17154
N_ N_ 0.12668 0.154118 0.230023 -0.17154
N_ N_ 0.132831 0.197517 0.33086 -0.29468
N_ N_ 0.364017 0.332184 0.228752 -0.29468
N_ N_ 0.341282 0.303986 0.332248 -0.17154
N_ N_ 0.389213 0.337121 0.478586 -0.17154
N_ N_ 0.366233 0.303545 0.0859673 -0.29468
O_ O_ 0.208152 0.179976 0.42784 -0.58347
O_ O_ 0.199182 0.196569 0.381331 -0.58347
O_ O_ 0.131334 0.26288 0.430622 -0.58347
O_ O_ 0.116948 0.266058 0.384445 -0.58347
O_ O_ 0.135752 0.108438 0.421034 -0.58347
O_ O_ 0.135896 0.116236 0.374576 -0.58347
O_ O_ 0.0583837 0.186136 0.425892 -0.58347
O_ O_ 0.0514319 0.182246 0.379689 -0.58347
O_ O_ 0.0768406 0.218567 0.0806534 -0.46727
O_ O_ 0.242585 0.171836 0.085698 -0.46727
O_ O_ 0.0428846 0.177514 0.225317 -0.46727
O_ O_ 0.206863 0.114546 0.23175 -0.46727
O_ O_ 0.287336 0.307386 0.182095 -0.58347
O_ O_ 0.29042 0.307063 0.135662 -0.58347
O_ O_ 0.373852 0.247908 0.186395 -0.58347
O_ O_ 0.372533 0.23868 0.139869 -0.58347
O_ O_ 0.345518 0.396572 0.176411 -0.58347
O_ O_ 0.362526 0.386589 0.130706 -0.58347
O_ O_ 0.433921 0.336369 0.179859 -0.58347
O_ O_ 0.444264 0.316405 0.133904 -0.58347
O_ O_ 0.426484 0.283621 0.324633 -0.46727
O_ O_ 0.25622 0.317895 0.339581 -0.46727
O_ O_ 0.471799 0.311922 0.470993 -0.46727
O_ O_ 0.301717 0.348194 0.485581 -0.46727
Zn Zn 0.137639 0.185251 0.879501 0.90689
Zn Zn 0.149409 0.180671 0.928204 0.90689
Zn Zn 0.385504 0.312151 0.632494 0.90689
Zn Zn 0.377431 0.321454 0.682616 0.90689
H_ H_ 0.314361 0.185688 0.946672 0.11455
H_ H_ 0.386074 0.160778 0.8489 0.11455
H_ H_ 0.293659 0.176074 0.853696 0.11455
H_ H_ 0.400714 0.187746 0.965444 0.11455
H_ H_ 0.493579 0.189349 0.95741 0.11455
H_ H_ 0.472474 0.159075 0.870431 0.11455
H_ H_ 0.14621 0.0116029 0.941721 0.11455
H_ H_ 0.147755 0.431538 0.8457 0.11455
H_ H_ 0.133165 0.0264336 0.850233 0.11455
H_ H_ 0.117117 0.425169 0.962581 0.11455
H_ H_ 0.11352 0.337719 0.958236 0.11455
H_ H_ 0.125572 0.346751 0.865507 0.11455
H_ H_ 0.0841653 0.110599 0.962394 0.11455
H_ H_ 0.062931 0.0873787 0.515867 0.11455
H_ H_ 0.116045 0.124863 0.556295 0.11455
H_ H_ 0.211567 0.234923 0.971994 0.11455
H_ H_ 0.197441 0.320187 0.508416 0.11455
H_ H_ 0.184119 0.296448 0.558866 0.11455
H_ H_ 0.0224013 0.224151 0.621952 0.11455
H_ H_ 0.0172028 0.203566 0.67608 0.11455
H_ H_ 0.271473 0.167121 0.630621 0.11455
H_ H_ 0.269828 0.158059 0.681393 0.11455
H_ H_ 0.0983833 0.0843649 0.74408 0.11455
H_ H_ 0.0854733 0.0577744 0.794572 0.11455
H_ H_ 0.0936072 0.120236 0.834428 0.11455
H_ H_ 0.186728 0.238783 0.754808 0.11455
H_ H_ 0.20355 0.294126 0.795161 0.11455
H_ H_ 0.184083 0.267545 0.845887 0.11455
H_ H_ 0.212545 0.318913 0.690593 0.11455
H_ H_ 0.14167 0.360245 0.593656 0.11455
H_ H_ 0.232661 0.340544 0.598285 0.11455
H_ H_ 0.130092 0.317831 0.709798 0.11455
H_ H_ 0.0344153 0.322092 0.705591 0.11455
H_ H_ 0.0526134 0.346887 0.613902 0.11455
H_ H_ 0.37797 0.484427 0.689548 0.11455
H_ H_ 0.352993 0.07165 0.599964 0.11455
H_ H_ 0.379946 0.471935 0.597464 0.11455
H_ H_ 0.388119 0.0689401 0.716125 0.11455
H_ H_ 0.401528 0.159842 0.712983 0.11455
H_ H_ 0.363764 0.14813 0.620596 0.11455
H_ H_ 0.435106 0.388627 0.717757 0.11455
H_ H_ 0.45303 0.413661 0.766954 0.11455
H_ H_ 0.394155 0.3865 0.805719 0.11455
H_ H_ 0.309046 0.261005 0.721676 0.11455
H_ H_ 0.288004 0.200585 0.760879 0.11455
H_ H_ 0.298783 0.229379 0.811038 0.11455
H_ H_ 0.47973 0.303873 0.875619 0.11455
H_ H_ 0.493835 0.306205 0.925065 0.11455
H_ H_ 0.231676 0.343316 0.886416 0.11455
H_ H_ 0.239154 0.352035 0.937579 0.11455
H_ H_ 0.4205 0.427969 0.00168487 0.11455
H_ H_ 0.457117 0.438345 0.549733 0.11455
H_ H_ 0.4373 0.376314 0.589167 0.11455
H_ H_ 0.362062 0.249026 0.505567 0.11455
H_ H_ 0.338757 0.19781 0.545817 0.11455
H_ H_ 0.338148 0.233634 0.595261 0.11455
C_ C_ 0.243124 0.189069 0.903654 0.68181
C_ C_ 0.299411 0.18956 0.899977 -0.05681
C_ C_ 0.330126 0.183408 0.92409 -0.08735
C_ C_ 0.382955 0.175022 0.921568 -0.05681
C_ C_ 0.403428 0.170623 0.894029 -0.05681
C_ C_ 0.370572 0.168472 0.869907 -0.08735
C_ C_ 0.318973 0.178329 0.872705 -0.08735
C_ C_ 0.415332 0.181775 0.945002 -0.08735
C_ C_ 0.467568 0.177956 0.940886 -0.08735
C_ C_ 0.488213 0.166003 0.913492 -0.05681
C_ C_ 0.455319 0.159967 0.891093 -0.08735
C_ C_ 0.12765 0.279997 0.90917 0.68181
C_ C_ 0.150607 0.0846349 0.89871 0.68181
C_ C_ 0.139737 0.0285093 0.896677 -0.05681
C_ C_ 0.121888 0.495479 0.918298 -0.08735
C_ C_ 0.120663 0.441694 0.916488 -0.05681
C_ C_ 0.124813 0.419139 0.889827 -0.05681
C_ C_ 0.134213 0.448026 0.864648 -0.08735
C_ C_ 0.143242 0.499097 0.867137 -0.08735
C_ C_ 0.11698 0.41156 0.940558 -0.08735
C_ C_ 0.11648 0.360347 0.938713 -0.08735
C_ C_ 0.123862 0.335615 0.911687 -0.05681
C_ C_ 0.126786 0.365737 0.88735 -0.08735
C_ C_ 0.0418835 0.167603 0.900899 0.68181
C_ C_ 0.110253 0.124783 0.979188 0.1947
C_ C_ 0.094045 0.114124 0.511726 -0.08735
C_ C_ 0.118014 0.139403 0.534039 -0.08735
C_ C_ 0.144174 0.183546 0.527164 -0.05681
C_ C_ 0.149123 0.199984 0.499197 0.18498
C_ C_ 0.197447 0.228398 0.994265 -0.08735
C_ C_ 0.185313 0.28136 0.514646 -0.08735
C_ C_ 0.176346 0.267204 0.543031 -0.08735
C_ C_ 0.159745 0.216258 0.549636 0.18498
C_ C_ 0.197718 0.191424 0.594346 0.44287
C_ C_ 0.108425 0.207797 0.590555 0.44287
C_ C_ 0.102351 0.203346 0.621373 -0.05681
C_ C_ 0.0547677 0.208936 0.634267 -0.08735
C_ C_ 0.0514337 0.200889 0.664671 -0.08735
C_ C_ 0.095032 0.185701 0.680886 -0.05681
C_ C_ 0.141795 0.180074 0.666897 -0.05681
C_ C_ 0.144236 0.19131 0.637526 -0.05681
C_ C_ 0.194181 0.188986 0.624351 -0.05681
C_ C_ 0.234752 0.173542 0.63947 -0.08735
C_ C_ 0.231641 0.162347 0.668495 -0.08735
C_ C_ 0.184979 0.165399 0.683254 -0.05681
C_ C_ 0.180817 0.161874 0.713629 0.44287
C_ C_ 0.0938887 0.181924 0.711184 0.44287
C_ C_ 0.129346 0.155547 0.756597 0.18498
C_ C_ 0.106423 0.109837 0.761796 -0.08735
C_ C_ 0.0973462 0.0956692 0.790135 -0.08735
C_ C_ 0.104536 0.129159 0.812834 -0.08735
C_ C_ 0.129042 0.174426 0.808394 0.18498
C_ C_ 0.143647 0.186209 0.780135 -0.05681
C_ C_ 0.16794 0.23238 0.775148 -0.08735
C_ C_ 0.179067 0.262324 0.798871 -0.08735
C_ C_ 0.166196 0.250194 0.826629 0.1947
C_ C_ 0.284343 0.319232 0.650098 0.68181
C_ C_ 0.229277 0.328321 0.6457 -0.05681
C_ C_ 0.19602 0.327664 0.669258 -0.08735
C_ C_ 0.144196 0.333978 0.666186 -0.05681
C_ C_ 0.123204 0.34321 0.638737 -0.05681
C_ C_ 0.157726 0.35102 0.615614 -0.08735
C_ C_ 0.208173 0.338147 0.618233 -0.08735
C_ C_ 0.111586 0.326758 0.689464 -0.08735
C_ C_ 0.0579007 0.327206 0.685597 -0.08735
C_ C_ 0.038505 0.329272 0.658009 -0.05681
C_ C_ 0.0693465 0.34077 0.634584 -0.08735
C_ C_ 0.384204 0.218154 0.664934 0.68181
C_ C_ 0.384289 0.415264 0.649634 0.68181
C_ C_ 0.386341 0.471053 0.644728 -0.05681
C_ C_ 0.379056 0.00184212 0.671878 -0.08735
C_ C_ 0.379759 0.0558315 0.671409 -0.05681
C_ C_ 0.374389 0.0805909 0.6447 -0.05681
C_ C_ 0.360017 0.0543142 0.619782 -0.08735
C_ C_ 0.385229 0.494575 0.616471 -0.08735
C_ C_ 0.383488 0.0864897 0.695476 -0.08735
C_ C_ 0.389777 0.138107 0.692984 -0.08735
C_ C_ 0.381872 0.162319 0.667186 -0.05681
C_ C_ 0.371936 0.133744 0.642324 -0.08735
C_ C_ 0.481521 0.321387 0.664032 0.68181
C_ C_ 0.409151 0.375576 0.734372 0.1947
C_ C_ 0.417953 0.392523 0.762517 -0.08735
C_ C_ 0.386408 0.371827 0.783562 -0.08735
C_ C_ 0.357302 0.328918 0.777483 -0.05681
C_ C_ 0.352582 0.311184 0.749579 0.18498
C_ C_ 0.318766 0.270736 0.743553 -0.08735
C_ C_ 0.299259 0.24111 0.766201 -0.08735
C_ C_ 0.31178 0.252436 0.795014 -0.08735
C_ C_ 0.341638 0.297218 0.801271 0.18498
C_ C_ 0.307941 0.32497 0.847638 0.44287
C_ C_ 0.394904 0.301146 0.844198 0.44287
C_ C_ 0.399732 0.307764 0.874889 -0.05681
C_ C_ 0.447156 0.301811 0.887797 -0.08735
C_ C_ 0.45271 0.30887 0.916661 -0.08735
C_ C_ 0.409628 0.318218 0.934257 -0.05681
C_ C_ 0.361231 0.321484 0.92184 -0.05681
C_ C_ 0.356649 0.316237 0.891901 -0.05681
C_ C_ 0.311377 0.328869 0.878597 -0.05681
C_ C_ 0.268275 0.337998 0.896083 -0.08735
C_ C_ 0.273955 0.345211 0.925103 -0.08735
C_ C_ 0.323072 0.340994 0.939035 -0.05681
C_ C_ 0.329111 0.349603 0.969208 0.44287
C_ C_ 0.415056 0.322826 0.96442 0.44287
C_ C_ 0.402229 0.345028 0.508122 0.18498
C_ C_ 0.426398 0.390988 0.515693 -0.08735
C_ C_ 0.439926 0.40334 0.544533 -0.08735
C_ C_ 0.424872 0.372627 0.567135 -0.08735
C_ C_ 0.3973 0.328127 0.561269 0.18498
C_ C_ 0.385553 0.315265 0.532354 -0.05681
C_ C_ 0.370351 0.264348 0.527482 -0.08735
C_ C_ 0.353485 0.235066 0.550512 -0.08735
C_ C_ 0.359712 0.252324 0.578496 0.1947
N_ N_ 0.140046 0.167882 0.975209 -0.29468
N_ N_ 0.155222 0.200969 0.578482 -0.17154
N_ N_ 0.13675 0.172268 0.726883 -0.17154
N_ N_ 0.142684 0.205126 0.83104 -0.29468
N_ N_ 0.379627 0.335291 0.728246 -0.29468
N_ N_ 0.349179 0.310775 0.831353 -0.17154
N_ N_ 0.375656 0.340654 0.980926 -0.17154
N_ N_ 0.383425 0.297153 0.584218 -0.29468
O_ O_ 0.224207 0.181612 0.929074 -0.58347
O_ O_ 0.212387 0.19219 0.882779 -0.58347
O_ O_ 0.140745 0.254543 0.930724 -0.58347
O_ O_ 0.13166 0.258585 0.884499 -0.58347
O_ O_ 0.160342 0.105836 0.922983 -0.58347
O_ O_ 0.147097 0.113349 0.877125 -0.58347
O_ O_ 0.0700334 0.165617 0.923655 -0.58347
O_ O_ 0.0618657 0.176718 0.876934 -0.58347
O_ O_ 0.0707862 0.225207 0.57571 -0.46727
O_ O_ 0.244307 0.189615 0.581674 -0.46727
O_ O_ 0.0542295 0.196405 0.726662 -0.46727
O_ O_ 0.21791 0.14688 0.729264 -0.46727
O_ O_ 0.302381 0.319374 0.675598 -0.58347
O_ O_ 0.314146 0.312297 0.629186 -0.58347
O_ O_ 0.371076 0.244594 0.686446 -0.58347
O_ O_ 0.390179 0.238807 0.64093 -0.58347
O_ O_ 0.384398 0.395726 0.673838 -0.58347
O_ O_ 0.379156 0.387255 0.628267 -0.58347
O_ O_ 0.452335 0.326519 0.685542 -0.58347
O_ O_ 0.461959 0.318843 0.638507 -0.58347
O_ O_ 0.432984 0.281138 0.829723 -0.46727
O_ O_ 0.266152 0.335734 0.834429 -0.46727
O_ O_ 0.457993 0.311958 0.976566 -0.46727
O_ O_ 0.287889 0.359962 0.985586 -0.46727
Zn Zn 0.125792 0.686521 0.378804 0.90689
Zn Zn 0.133784 0.687051 0.428136 0.90689
Zn Zn 0.361555 0.81492 0.133173 0.90689
Zn Zn 0.355164 0.818375 0.182451 0.90689
H_ H_ 0.301893 0.685833 0.443212 0.11455
H_ H_ 0.370519 0.659942 0.346002 0.11455
H_ H_ 0.279718 0.669905 0.351733 0.11455
H_ H_ 0.383001 0.655694 0.462356 0.11455
H_ H_ 0.47493 0.666764 0.456508 0.11455
H_ H_ 0.455875 0.651581 0.364816 0.11455
H_ H_ 0.148868 0.519386 0.437307 0.11455
H_ H_ 0.154118 0.936544 0.344559 0.11455
H_ H_ 0.123232 0.532606 0.347351 0.11455
H_ H_ 0.116802 0.933746 0.461197 0.11455
H_ H_ 0.109559 0.838939 0.455694 0.11455
H_ H_ 0.140967 0.852631 0.366472 0.11455
H_ H_ 0.0761905 0.619596 0.460592 0.11455
H_ H_ 0.0642215 0.569054 0.00815947 0.11455
H_ H_ 0.102254 0.613604 0.0502763 0.11455
H_ H_ 0.196513 0.748658 0.474195 0.11455
H_ H_ 0.210398 0.796309 0.0127383 0.11455
H_ H_ 0.189548 0.771578 0.0615139 0.11455
H_ H_ 0.0144461 0.711446 0.118502 0.11455
H_ H_ -0.0039919999999999956 0.697416 0.16837 0.11455
H_ H_ 0.250807 0.63362 0.135408 0.11455
H_ H_ 0.240309 0.637012 0.189003 0.11455
H_ H_ 0.0520394 0.58735 0.249061 0.11455
H_ H_ 0.0220659 0.579441 0.296961 0.11455
H_ H_ 0.0599399 0.625184 0.338229 0.11455
H_ H_ 0.157819 0.737047 0.253876 0.11455
H_ H_ 0.189574 0.786316 0.291934 0.11455
H_ H_ 0.16464 0.769979 0.341607 0.11455
H_ H_ 0.189581 0.81113 0.19867 0.11455
H_ H_ 0.114849 0.817576 0.0995252 0.11455
H_ H_ 0.209786 0.822899 0.107632 0.11455
H_ H_ 0.0976891 0.803149 0.219238 0.11455
H_ H_ 0.00829786 0.7944 0.213689 0.11455
H_ H_ 0.0281897 0.826123 0.12269 0.11455
H_ H_ 0.353289 0.983681 0.194618 0.11455
H_ H_ 0.365557 0.56361 0.0980068 0.11455
H_ H_ 0.358223 0.974968 0.102339 0.11455
H_ H_ 0.367097 0.572007 0.216021 0.11455
H_ H_ 0.366848 0.663886 0.211559 0.11455
H_ H_ 0.370956 0.648713 0.117512 0.11455
H_ H_ 0.391514 0.902213 0.217593 0.11455
H_ H_ 0.39534 0.932806 0.266837 0.11455
H_ H_ 0.364522 0.87988 0.307462 0.11455
H_ H_ 0.301367 0.749372 0.225663 0.11455
H_ H_ 0.292365 0.683709 0.264403 0.11455
H_ H_ 0.289013 0.714977 0.312667 0.11455
H_ H_ 0.476748 0.776129 0.36923 0.11455
H_ H_ 0.492085 0.779594 0.422053 0.11455
H_ H_ 0.234297 0.838339 0.390176 0.11455
H_ H_ 0.250027 0.856012 0.439276 0.11455
H_ H_ 0.457531 0.879023 0.492862 0.11455
H_ H_ 0.437235 0.93848 0.0472724 0.11455
H_ H_ 0.408764 0.885807 0.0876447 0.11455
H_ H_ 0.33474 0.751678 0.00550379 0.11455
H_ H_ 0.302264 0.704331 0.0476462 0.11455
H_ H_ 0.305412 0.739045 0.095148 0.11455
C_ C_ 0.228162 0.685859 0.403539 0.68181
C_ C_ 0.283132 0.675837 0.398295 -0.05681
C_ C_ 0.315876 0.675062 0.421889 -0.08735
C_ C_ 0.367606 0.666622 0.418185 -0.05681
C_ C_ 0.387498 0.660868 0.389882 -0.05681
C_ C_ 0.356076 0.66565 0.36658 -0.08735
C_ C_ 0.302709 0.66736 0.370806 -0.08735
C_ C_ 0.399335 0.662322 0.441398 -0.08735
C_ C_ 0.451066 0.665165 0.437396 -0.08735
C_ C_ 0.473069 0.66421 0.410537 -0.05681
C_ C_ 0.439302 0.65672 0.386684 -0.08735
C_ C_ 0.122583 0.784271 0.408976 0.68181
C_ C_ 0.134466 0.587877 0.396182 0.68181
C_ C_ 0.13417 0.532742 0.393396 -0.05681
C_ C_ 0.128149 1.0000937148 0.417704 -0.08735
C_ C_ 0.133724 0.948297 0.415536 -0.05681
C_ C_ 0.136011 0.925649 0.388572 -0.05681
C_ C_ 0.14721 0.956158 0.364564 -0.08735
C_ C_ 0.141704 1.00801808 0.36546 -0.08735
C_ C_ 0.122642 0.917235 0.439415 -0.08735
C_ C_ 0.118443 0.863306 0.437103 -0.08735
C_ C_ 0.119852 0.84031 0.409881 -0.05681
C_ C_ 0.130454 0.871938 0.385478 -0.08735
C_ C_ 0.0308103 0.674862 0.404539 0.68181
C_ C_ 0.0931761 0.638181 0.479817 0.1947
C_ C_ 0.0906696 0.599957 0.00518297 -0.08735
C_ C_ 0.108053 0.627575 0.0287171 -0.08735
C_ C_ 0.137001 0.671992 0.0254738 -0.05681
C_ C_ 0.144683 0.68991 0.997637 0.18498
C_ C_ 0.179719 0.744299 0.494318 -0.08735
C_ C_ 0.191949 0.762391 0.017425 -0.08735
C_ C_ 0.180917 0.746783 0.044281 -0.08735
C_ C_ 0.155371 0.699333 0.0495544 0.18498
C_ C_ 0.182867 0.667178 0.0959067 0.44287
C_ C_ 0.0982577 0.690576 0.0906532 0.44287
C_ C_ 0.0906355 0.685747 0.120508 -0.05681
C_ C_ 0.0414881 0.692076 0.131718 -0.08735
C_ C_ 0.032893 0.688622 0.161861 -0.08735
C_ C_ 0.0742108 0.678215 0.18059 -0.05681
C_ C_ 0.123602 0.674297 0.169338 -0.05681
C_ C_ 0.131603 0.677234 0.139089 -0.05681
C_ C_ 0.17721 0.664829 0.125732 -0.05681
C_ C_ 0.214572 0.64659 0.144166 -0.08735
C_ C_ 0.209702 0.648108 0.174744 -0.08735
C_ C_ 0.162932 0.658092 0.186824 -0.05681
C_ C_ 0.155297 0.65273 0.217113 0.44287
C_ C_ 0.0667626 0.671533 0.210175 0.44287
C_ C_ 0.0978573 0.65378 0.258137 0.18498
C_ C_ 0.0696768 0.610631 0.266073 -0.08735
C_ C_ 0.054033 0.602702 0.29446 -0.08735
C_ C_ 0.0747001 0.630139 0.316417 -0.08735
C_ C_ 0.109292 0.667785 0.309696 0.18498
C_ C_ 0.117958 0.683206 0.280561 -0.05681
C_ C_ 0.152571 0.722448 0.275037 -0.08735
C_ C_ 0.171944 0.750363 0.296771 -0.08735
C_ C_ 0.157368 0.738962 0.325726 0.1947
C_ C_ 0.259436 0.804256 0.156617 0.68181
C_ C_ 0.204523 0.807265 0.152807 -0.05681
C_ C_ 0.171542 0.807552 0.177094 -0.08735
C_ C_ 0.118382 0.808427 0.173999 -0.05681
C_ C_ 0.0966461 0.820399 0.146395 -0.05681
C_ C_ 0.1307 0.823416 0.121938 -0.08735
C_ C_ 0.183639 0.819572 0.126417 -0.08735
C_ C_ 0.0864404 0.807275 0.198206 -0.08735
C_ C_ 0.0344346 0.803757 0.194575 -0.08735
C_ C_ 0.0133229 0.814189 0.167811 -0.05681
C_ C_ 0.04473 0.823135 0.143123 -0.08735
C_ C_ 0.367866 0.718915 0.161163 0.68181
C_ C_ 0.353313 0.915286 0.150569 0.68181
C_ C_ 0.355406 0.972476 0.148642 -0.05681
C_ C_ 0.359708 0.501706 0.174267 -0.08735
C_ C_ 0.363839 0.555679 0.170972 -0.05681
C_ C_ 0.365627 0.579322 0.143395 -0.05681
C_ C_ 0.362915 0.547057 0.119951 -0.08735
C_ C_ 0.36152 -0.004102999999999968 0.121695 -0.08735
C_ C_ 0.364167 0.586761 0.194849 -0.08735
C_ C_ 0.370978 0.639283 0.191953 -0.08735
C_ C_ 0.373147 0.662827 0.163499 -0.05681
C_ C_ 0.377943 0.630686 0.138622 -0.08735
C_ C_ 0.454073 0.812353 0.160299 0.68181
C_ C_ 0.377355 0.878228 0.235421 0.1947
C_ C_ 0.37652 0.897498 0.263415 -0.08735
C_ C_ 0.36681 0.863752 0.28645 -0.08735
C_ C_ 0.350212 0.815224 0.28059 -0.05681
C_ C_ 0.347225 0.79838 0.251133 0.18498
C_ C_ 0.320615 0.753525 0.245025 -0.08735
C_ C_ 0.306103 0.720859 0.267626 -0.08735
C_ C_ 0.306987 0.737679 0.295451 -0.08735
C_ C_ 0.330188 0.783098 0.302373 0.18498
C_ C_ 0.302439 0.80922 0.35047 0.44287
C_ C_ 0.389892 0.790158 0.342556 0.44287
C_ C_ 0.399674 0.796939 0.372795 -0.05681
C_ C_ 0.448482 0.789998 0.384299 -0.08735
C_ C_ 0.455143 0.788808 0.413834 -0.08735
C_ C_ 0.416241 0.803847 0.431687 -0.05681
C_ C_ 0.367591 0.81739 0.420076 -0.05681
C_ C_ 0.359328 0.812729 0.390504 -0.05681
C_ C_ 0.31089 0.820247 0.379022 -0.05681
C_ C_ 0.271758 0.835114 0.398113 -0.08735
C_ C_ 0.281781 0.841953 0.427253 -0.08735
C_ C_ 0.330945 0.834471 0.43837 -0.05681
C_ C_ 0.340713 0.837987 0.468167 0.44287
C_ C_ 0.420206 0.797393 0.461331 0.44287
C_ C_ 0.372173 0.849257 0.00889671 0.18498
C_ C_ 0.394461 0.896914 0.0153464 -0.08735
C_ C_ 0.413217 0.90645 0.0432479 -0.08735
C_ C_ 0.396777 0.876719 0.0664092 -0.08735
C_ C_ 0.370033 0.831528 0.0607862 0.18498
C_ C_ 0.359978 0.816978 0.032422 -0.05681
C_ C_ 0.33899 0.766951 0.0269686 -0.08735
C_ C_ 0.314897 0.743193 0.0502159 -0.08735
C_ C_ 0.319965 0.762813 0.0777885 0.1947
N_ N_ 0.128292 0.676322 0.475839 -0.29468
N_ N_ 0.144026 0.683737 0.0784298 -0.17154
N_ N_ 0.108019 0.661624 0.227619 -0.17154
N_ N_ 0.126976 0.698798 0.331225 -0.29468
N_ N_ 0.357802 0.832296 0.229962 -0.29468
N_ N_ 0.34134 0.793247 0.33287 -0.17154
N_ N_ 0.385066 0.81848 0.47887 -0.17154
N_ N_ 0.350984 0.804316 0.0833973 -0.29468
O_ O_ 0.210364 0.683665 0.428825 -0.58347
O_ O_ 0.200534 0.695189 0.382726 -0.58347
O_ O_ 0.136201 0.758965 0.43109 -0.58347
O_ O_ 0.118083 0.763565 0.385675 -0.58347
O_ O_ 0.134325 0.609767 0.420869 -0.58347
O_ O_ 0.130312 0.614391 0.374102 -0.58347
O_ O_ 0.0578189 0.687448 0.426252 -0.58347
O_ O_ 0.0489091 0.679227 0.379827 -0.58347
O_ O_ 0.0574271 0.69598 0.0738023 -0.46727
O_ O_ 0.228784 0.659927 0.0849942 -0.46727
O_ O_ 0.0213678 0.672172 0.221574 -0.46727
O_ O_ 0.193502 0.634348 0.232836 -0.46727
O_ O_ 0.28173 0.810486 0.181157 -0.58347
O_ O_ 0.287639 0.810863 0.134566 -0.58347
O_ O_ 0.367999 0.74677 0.18429 -0.58347
O_ O_ 0.363518 0.740265 0.136872 -0.58347
O_ O_ 0.348542 0.893401 0.174342 -0.58347
O_ O_ 0.359073 0.887729 0.128738 -0.58347
O_ O_ 0.429043 0.830981 0.180286 -0.58347
O_ O_ 0.433106 0.810321 0.134937 -0.58347
O_ O_ 0.426867 0.780603 0.324367 -0.46727
O_ O_ 0.258028 0.821679 0.339081 -0.46727
O_ O_ 0.461932 0.780969 0.472328 -0.46727
O_ O_ 0.306064 0.855372 0.485978 -0.46727
Zn Zn 0.126438 0.687691 0.879911 0.90689
Zn Zn 0.139181 0.67558 0.926348 0.90689
Zn Zn 0.377863 0.816786 0.630363 0.90689
Zn Zn 0.366502 0.822323 0.678943 0.90689
H_ H_ 0.307601 0.704373 0.942838 0.11455
H_ H_ 0.370468 0.672099 0.847089 0.11455
H_ H_ 0.281602 0.676889 0.853146 0.11455
H_ H_ 0.397189 0.703488 0.964268 0.11455
H_ H_ 0.48669 0.696847 0.953956 0.11455
H_ H_ 0.459108 0.683954 0.864769 0.11455
H_ H_ 0.112121 0.515755 0.938634 0.11455
H_ H_ 0.119469 0.93652 0.846015 0.11455
H_ H_ 0.159765 0.516424 0.847739 0.11455
H_ H_ 0.135222 0.925464 0.966244 0.11455
H_ H_ 0.142006 0.835697 0.960258 0.11455
H_ H_ 0.111142 0.852402 0.870843 0.11455
H_ H_ 0.0833331 0.602155 0.959673 0.11455
H_ H_ 0.0613946 0.583893 0.509267 0.11455
H_ H_ 0.0949388 0.629364 0.550503 0.11455
H_ H_ 0.189871 0.745244 0.973266 0.11455
H_ H_ 0.22566 0.79968 0.513665 0.11455
H_ H_ 0.20748 0.780499 0.562677 0.11455
H_ H_ 1.00922026 0.726232 0.620615 0.11455
H_ H_ 0.996849 0.713147 0.673147 0.11455
H_ H_ 0.256406 0.67544 0.635342 0.11455
H_ H_ 0.244883 0.666229 0.684457 0.11455
H_ H_ 0.0546702 0.597428 0.749683 0.11455
H_ H_ 0.029372 0.587061 0.797534 0.11455
H_ H_ 0.059933 0.636944 0.836914 0.11455
H_ H_ 0.161698 0.751178 0.755089 0.11455
H_ H_ 0.202898 0.796162 0.796149 0.11455
H_ H_ 0.180374 0.76761 0.845113 0.11455
H_ H_ 0.19799 0.79896 0.693533 0.11455
H_ H_ 0.130144 0.86061 0.601484 0.11455
H_ H_ 0.221443 0.84151 0.605827 0.11455
H_ H_ 0.113308 0.810255 0.714818 0.11455
H_ H_ 0.0261323 0.829459 0.712595 0.11455
H_ H_ 0.0415511 0.837356 0.621372 0.11455
H_ H_ 0.375807 0.983686 0.693328 0.11455
H_ H_ 0.377233 0.565181 0.592529 0.11455
H_ H_ 0.352617 0.981766 0.601855 0.11455
H_ H_ 0.381251 0.566055 0.711651 0.11455
H_ H_ 0.367429 0.658778 0.709882 0.11455
H_ H_ 0.381851 0.64717 0.617652 0.11455
H_ H_ 0.419085 0.893139 0.710816 0.11455
H_ H_ 0.449239 0.918272 0.758321 0.11455
H_ H_ 0.419467 0.870653 0.802087 0.11455
H_ H_ 0.308705 0.757521 0.722418 0.11455
H_ H_ 0.279085 0.707248 0.763281 0.11455
H_ H_ 0.316858 0.721219 0.814067 0.11455
H_ H_ 0.484199 0.805071 0.876494 0.11455
H_ H_ 0.492955 0.805583 0.927933 0.11455
H_ H_ 0.237815 0.851047 0.878745 0.11455
H_ H_ 0.243665 0.867174 0.929923 0.11455
H_ H_ 0.409823 0.923641 0.998116 0.11455
H_ H_ 0.470786 0.919581 0.540592 0.11455
H_ H_ 0.434554 0.874837 0.585026 0.11455
H_ H_ 0.340951 0.744434 0.507248 0.11455
H_ H_ 0.295823 0.714652 0.549686 0.11455
H_ H_ 0.309475 0.752741 0.596337 0.11455
C_ C_ 0.232941 0.688838 0.904634 0.68181
C_ C_ 0.287881 0.694833 0.899892 -0.05681
C_ C_ 0.322436 0.702425 0.921813 -0.08735
C_ C_ 0.375013 0.700889 0.917963 -0.05681
C_ C_ 0.393247 0.692891 0.889576 -0.05681
C_ C_ 0.358931 0.686003 0.866717 -0.08735
C_ C_ 0.30744 0.688315 0.870818 -0.08735
C_ C_ 0.409078 0.69922 0.941214 -0.08735
C_ C_ 0.4599 0.687912 0.935967 -0.08735
C_ C_ 0.477884 0.679992 0.908174 -0.05681
C_ C_ 0.44503 0.686954 0.885271 -0.08735
C_ C_ 0.130444 0.779787 0.910884 0.68181
C_ C_ 0.136241 0.581011 0.895107 0.68181
C_ C_ 0.135964 0.525227 0.893584 -0.05681
C_ C_ 0.140243 0.996414 0.921559 -0.08735
C_ C_ 0.138484 0.943464 0.919509 -0.05681
C_ C_ 0.128896 0.921913 0.892777 -0.05681
C_ C_ 0.126386 0.9524 0.86757 -0.08735
C_ C_ 0.134314 0.00399961 0.869075 -0.08735
C_ C_ 0.136927 0.91083 0.943702 -0.08735
C_ C_ 0.143041 0.858802 0.940248 -0.08735
C_ C_ 0.135083 0.837025 0.913373 -0.05681
C_ C_ 0.125914 0.868012 0.889763 -0.08735
C_ C_ 0.0360749 0.680634 0.901289 0.68181
C_ C_ 0.102353 0.618411 0.977644 0.1947
C_ C_ 0.081098 0.621491 0.50735 -0.08735
C_ C_ 0.0982975 0.648289 0.530434 -0.08735
C_ C_ 0.129536 0.690959 0.525662 -0.05681
C_ C_ 0.147749 0.702156 0.497843 0.18498
C_ C_ 0.177812 0.73099 0.994072 -0.08735
C_ C_ 0.204723 0.764776 0.51775 -0.08735
C_ C_ 0.183285 0.758935 0.545165 -0.08735
C_ C_ 0.149444 0.718563 0.550248 0.18498
C_ C_ 0.179688 0.685905 0.595673 0.44287
C_ C_ 0.0969686 0.720465 0.592766 0.44287
C_ C_ 0.0887817 0.707805 0.622503 -0.05681
C_ C_ 0.040882 0.713702 0.634437 -0.08735
C_ C_ 0.0336415 0.706931 0.663399 -0.08735
C_ C_ 0.0771842 0.694264 0.681428 -0.05681
C_ C_ 0.122741 0.684692 0.668846 -0.05681
C_ C_ 0.128966 0.687954 0.638746 -0.05681
C_ C_ 0.175129 0.678888 0.625756 -0.05681
C_ C_ 0.217895 0.673231 0.643276 -0.08735
C_ C_ 0.2126 0.671229 0.672676 -0.08735
C_ C_ 0.165295 0.675323 0.686198 -0.05681
C_ C_ 0.159643 0.671622 0.716623 0.44287
C_ C_ 0.0700155 0.685922 0.7111 0.44287
C_ C_ 0.103731 0.665114 0.758129 0.18498
C_ C_ 0.072612 0.622782 0.765503 -0.08735
C_ C_ 0.0588018 0.61347 0.792989 -0.08735
C_ C_ 0.0765087 0.642646 0.815682 -0.08735
C_ C_ 0.115502 0.679173 0.81003 0.18498
C_ C_ 0.124828 0.694545 0.781062 -0.05681
C_ C_ 0.153725 0.739315 0.776646 -0.08735
C_ C_ 0.180689 0.761253 0.799805 -0.08735
C_ C_ 0.169085 0.74544 0.827096 0.1947
C_ C_ 0.274377 0.813342 0.654388 0.68181
C_ C_ 0.218336 0.815401 0.649312 -0.05681
C_ C_ 0.185813 0.814587 0.673537 -0.08735
C_ C_ 0.133929 0.823073 0.670521 -0.05681
C_ C_ 0.112592 0.833327 0.6441 -0.05681
C_ C_ 0.144283 0.840692 0.620056 -0.08735
C_ C_ 0.197101 0.830424 0.622544 -0.08735
C_ C_ 0.0997656 0.817743 0.694999 -0.08735
C_ C_ 0.049385 0.829857 0.692777 -0.08735
C_ C_ 0.0290438 0.834288 0.665747 -0.05681
C_ C_ 0.0592825 0.835455 0.641183 -0.08735
C_ C_ 0.376974 0.719645 0.661888 0.68181
C_ C_ 0.369992 0.918959 0.647374 0.68181
C_ C_ 0.368626 0.97453 0.646968 -0.05681
C_ C_ 0.382671 0.502964 0.669154 -0.08735
C_ C_ 0.377939 0.55652 0.666727 -0.05681
C_ C_ 0.384662 0.579687 0.639573 -0.05681
C_ C_ 0.380876 0.549244 0.614 -0.08735
C_ C_ 0.357329 1.00272998 0.621774 -0.08735
C_ C_ 0.372877 0.584714 0.692026 -0.08735
C_ C_ 0.37118 0.637473 0.690893 -0.08735
C_ C_ 0.375318 0.662921 0.664768 -0.05681
C_ C_ 0.383821 0.632973 0.63895 -0.08735
C_ C_ 0.469302 0.819447 0.653895 0.68181
C_ C_ 0.404018 0.873953 0.729825 0.1947
C_ C_ 0.41816 0.889926 0.757054 -0.08735
C_ C_ 0.401136 0.864011 0.780131 -0.08735
C_ C_ 0.370835 0.820038 0.776903 -0.05681
C_ C_ 0.352997 0.810152 0.748687 0.18498
C_ C_ 0.326058 0.763883 0.744253 -0.08735
C_ C_ 0.310341 0.734434 0.767414 -0.08735
C_ C_ 0.324376 0.746106 0.795078 -0.08735
C_ C_ 0.354966 0.78978 0.799209 0.18498
C_ C_ 0.313929 0.816453 0.844251 0.44287
C_ C_ 0.403686 0.806971 0.843181 0.44287
C_ C_ 0.407293 0.816393 0.873747 -0.05681
C_ C_ 0.452799 0.81738 0.888494 -0.08735
C_ C_ 0.455426 0.814538 0.918087 -0.08735
C_ C_ 0.411341 0.819442 0.933703 -0.05681
C_ C_ 0.364585 0.826317 0.919063 -0.05681
C_ C_ 0.361621 0.824165 0.889196 -0.05681
C_ C_ 0.315976 0.829 0.874501 -0.05681
C_ C_ 0.274167 0.844031 0.889352 -0.08735
C_ C_ 0.275433 0.851921 0.919721 -0.08735
C_ C_ 0.319576 0.839511 0.935192 -0.05681
C_ C_ 0.322219 0.840953 0.965702 0.44287
C_ C_ 0.410502 0.822428 0.964397 0.44287
C_ C_ 0.401347 0.830148 0.507693 0.18498
C_ C_ 0.440795 0.863557 0.511837 -0.08735
C_ C_ 0.45228 0.882244 0.539431 -0.08735
C_ C_ 0.42758 0.859877 0.563381 -0.08735
C_ C_ 0.390431 0.823015 0.559853 0.18498
C_ C_ 0.379636 0.806158 0.53108 -0.05681
C_ C_ 0.347951 0.763089 0.527441 -0.08735
C_ C_ 0.318781 0.747648 0.551052 -0.08735
C_ C_ 0.32942 0.768247 0.5786 0.1947
N_ N_ 0.127339 0.663107 0.973951 -0.29468
N_ N_ 0.14028 0.704531 0.579394 -0.17154
N_ N_ 0.11239 0.67748 0.728495 -0.17154
N_ N_ 0.13894 0.704151 0.832276 -0.29468
N_ N_ 0.369559 0.83574 0.725485 -0.29468
N_ N_ 0.358129 0.806213 0.828752 -0.17154
N_ N_ 0.36776 0.833817 0.979381 -0.17154
N_ N_ 0.365824 0.804006 0.583433 -0.29468
O_ O_ 0.216827 0.68034 0.930879 -0.58347
O_ O_ 0.203075 0.683423 0.883746 -0.58347
O_ O_ 0.133383 0.749986 0.931829 -0.58347
O_ O_ 0.123801 0.762614 0.886405 -0.58347
O_ O_ 0.143728 0.603151 0.918479 -0.58347
O_ O_ 0.122083 0.606597 0.873308 -0.58347
O_ O_ 0.0659578 0.672048 0.922272 -0.58347
O_ O_ 0.052356 0.69316 0.877294 -0.58347
O_ O_ 0.0645466 0.750897 0.578908 -0.46727
O_ O_ 0.224658 0.674256 0.583004 -0.46727
O_ O_ 0.0276896 0.701515 0.723083 -0.46727
O_ O_ 0.199149 0.669625 0.733229 -0.46727
O_ O_ 0.290072 0.817907 0.679997 -0.58347
O_ O_ 0.306138 0.817672 0.633392 -0.58347
O_ O_ 0.372927 0.746095 0.684437 -0.58347
O_ O_ 0.37622 0.740545 0.637847 -0.58347
O_ O_ 0.363018 0.89653 0.671041 -0.58347
O_ O_ 0.379621 0.89406 0.625252 -0.58347
O_ O_ 0.440454 0.831951 0.674241 -0.58347
O_ O_ 0.453353 0.807394 0.629142 -0.58347
O_ O_ 0.445986 0.792349 0.830465 -0.46727
O_ O_ 0.271519 0.820342 0.82967 -0.46727
O_ O_ 0.452931 0.813061 0.979029 -0.46727
O_ O_ 0.281312 0.847279 0.981737 -0.46727
Zn Zn 0.625622 0.182005 0.38043 0.90689
Zn Zn 0.632784 0.17892 0.430389 0.90689
Zn Zn 0.868513 0.312836 0.131642 0.90689
Zn Zn 0.860156 0.321375 0.181571 0.90689
H_ H_ 0.802479 0.181986 0.443975 0.11455
H_ H_ 0.868589 0.164799 0.345054 0.11455
H_ H_ 0.776751 0.17033 0.354425 0.11455
H_ H_ 0.889648 0.184936 0.4616 0.11455
H_ H_ 0.982485 0.183637 0.453898 0.11455
H_ H_ 0.953002 0.175377 0.361446 0.11455
H_ H_ 0.634932 0.00912134 0.444683 0.11455
H_ H_ 0.652189 0.43858 0.343172 0.11455
H_ H_ 0.61953 0.0198729 0.35296 0.11455
H_ H_ 0.60234 0.433194 0.456625 0.11455
H_ H_ 0.603174 0.340737 0.455098 0.11455
H_ H_ 0.642488 0.351259 0.365588 0.11455
H_ H_ 0.590836 0.0987482 0.467097 0.11455
H_ H_ 0.563536 0.0670459 0.0136179 0.11455
H_ H_ 0.591766 0.113335 0.053968 0.11455
H_ H_ 0.689972 0.243242 0.472812 0.11455
H_ H_ 0.722881 0.286488 0.018514 0.11455
H_ H_ 0.689875 0.261351 0.0678375 0.11455
H_ H_ 0.502835 0.214971 0.120702 0.11455
H_ H_ 0.485124 0.208681 0.172986 0.11455
H_ H_ 0.73497 0.12494 0.136643 0.11455
H_ H_ 0.718443 0.107456 0.188171 0.11455
H_ H_ 0.533035 0.0875913 0.251377 0.11455
H_ H_ 0.523342 0.0709743 0.302601 0.11455
H_ H_ 0.567119 0.123043 0.339623 0.11455
H_ H_ 0.627777 0.24542 0.253289 0.11455
H_ H_ 0.684419 0.287336 0.290193 0.11455
H_ H_ 0.682801 0.255197 0.341651 0.11455
H_ H_ 0.689069 0.282123 0.194224 0.11455
H_ H_ 0.622781 0.309733 0.0995006 0.11455
H_ H_ 0.712655 0.311476 0.103656 0.11455
H_ H_ 0.610393 0.306884 0.21591 0.11455
H_ H_ 0.51233 0.307248 0.20922 0.11455
H_ H_ 0.539285 0.328 0.117422 0.11455
H_ H_ 0.864397 0.482966 0.192494 0.11455
H_ H_ 0.803907 0.0639665 0.108516 0.11455
H_ H_ 0.850006 0.478232 0.102259 0.11455
H_ H_ 0.913915 0.0719466 0.211091 0.11455
H_ H_ 0.90546 0.16341 0.206299 0.11455
H_ H_ 0.842934 0.146273 0.123119 0.11455
H_ H_ 0.911122 0.396157 0.214498 0.11455
H_ H_ 0.927344 0.42754 0.263029 0.11455
H_ H_ 0.886446 0.382504 0.306146 0.11455
H_ H_ 0.800746 0.254721 0.226229 0.11455
H_ H_ 0.762103 0.214325 0.264823 0.11455
H_ H_ 0.779997 0.237137 0.314127 0.11455
H_ H_ 0.984103 0.319622 0.372961 0.11455
H_ H_ -0.0011109999999999731 0.331119 0.423409 0.11455
H_ H_ 0.73235 0.32074 0.391792 0.11455
H_ H_ 0.743973 0.320078 0.442981 0.11455
H_ H_ 0.923512 0.427468 0.500874 0.11455
H_ H_ 0.954598 0.429074 0.047352 0.11455
H_ H_ 0.928092 0.376056 0.0880617 0.11455
H_ H_ 0.833716 0.250121 0.00829411 0.11455
H_ H_ 0.784647 0.217166 0.0502396 0.11455
H_ H_ 0.806065 0.245024 0.0985597 0.11455
C_ C_ 0.728427 0.18054 0.403636 0.68181
C_ C_ 0.782965 0.178055 0.398228 -0.05681
C_ C_ 0.816349 0.186863 0.421654 -0.08735
C_ C_ 0.869525 0.18425 0.417674 -0.05681
C_ C_ 0.889191 0.173926 0.389577 -0.05681
C_ C_ 0.855003 0.171199 0.366517 -0.08735
C_ C_ 0.801049 0.171688 0.371629 -0.08735
C_ C_ 0.902742 0.188454 0.440863 -0.08735
C_ C_ 0.955997 0.185409 0.435914 -0.08735
C_ C_ 0.974245 0.182085 0.407126 -0.05681
C_ C_ 0.940778 0.178746 0.383515 -0.08735
C_ C_ 0.620861 0.280573 0.406752 0.68181
C_ C_ 0.628994 0.0819385 0.401972 0.68181
C_ C_ 0.626152 0.0254479 0.39958 -0.05681
C_ C_ 0.614854 0.496791 0.415164 -0.08735
C_ C_ 0.617285 0.443092 0.412342 -0.05681
C_ C_ 0.626713 0.419982 0.385837 -0.05681
C_ C_ 0.637845 0.452998 0.363233 -0.08735
C_ C_ 0.642909 0.505823 0.366784 -0.08735
C_ C_ 0.605737 0.413875 0.436593 -0.08735
C_ C_ 0.607094 0.36078 0.435009 -0.08735
C_ C_ 0.616317 0.336165 0.408431 -0.05681
C_ C_ 0.627702 0.367582 0.38427 -0.08735
C_ C_ 0.53164 0.179576 0.404675 0.68181
C_ C_ 0.600292 0.125236 0.483172 0.1947
C_ C_ 0.587712 0.0997971 0.00879713 -0.08735
C_ C_ 0.601123 0.128846 0.0326922 -0.08735
C_ C_ 0.633867 0.170949 0.0286781 -0.05681
C_ C_ 0.650791 0.184037 1.000821031 0.18498
C_ C_ 0.671861 0.241326 0.49415 -0.08735
C_ C_ 0.693972 0.257013 0.0204586 -0.08735
C_ C_ 0.676684 0.243863 0.0482028 -0.08735
C_ C_ 0.650495 0.199045 0.0527201 0.18498
C_ C_ 0.673814 0.166993 0.0998259 0.44287
C_ C_ 0.589008 0.194535 0.0936889 0.44287
C_ C_ 0.577052 0.184754 0.122739 -0.05681
C_ C_ 0.531925 0.200745 0.135181 -0.08735
C_ C_ 0.523015 0.201263 0.165512 -0.08735
C_ C_ 0.562188 0.178973 0.182483 -0.05681
C_ C_ 0.60696 0.161527 0.170313 -0.05681
C_ C_ 0.614857 0.166105 0.140459 -0.05681
C_ C_ 0.662426 0.154927 0.128264 -0.05681
C_ C_ 0.701636 0.137953 0.145662 -0.08735
C_ C_ 0.691726 0.129576 0.175365 -0.08735
C_ C_ 0.647983 0.145426 0.187312 -0.05681
C_ C_ 0.639747 0.140075 0.21741 0.44287
C_ C_ 0.557902 0.177195 0.212583 0.44287
C_ C_ 0.585535 0.152753 0.259333 0.18498
C_ C_ 0.552511 0.112573 0.267539 -0.08735
C_ C_ 0.550544 0.0987355 0.296138 -0.08735
C_ C_ 0.575804 0.127035 0.317804 -0.08735
C_ C_ 0.608794 0.165971 0.309912 0.18498
C_ C_ 0.609161 0.18306 0.28082 -0.05681
C_ C_ 0.636563 0.226107 0.273847 -0.08735
C_ C_ 0.665266 0.251628 0.295259 -0.08735
C_ C_ 0.661302 0.235566 0.324207 0.1947
C_ C_ 0.766155 0.308828 0.155775 0.68181
C_ C_ 0.709995 0.301929 0.151401 -0.05681
C_ C_ 0.676077 0.298877 0.17446 -0.08735
C_ C_ 0.623604 0.308691 0.171024 -0.05681
C_ C_ 0.606026 0.316214 0.143873 -0.05681
C_ C_ 0.638122 0.318004 0.119328 -0.08735
C_ C_ 0.690364 0.306159 0.123835 -0.08735
C_ C_ 0.592071 0.309362 0.194435 -0.08735
C_ C_ 0.540493 0.310539 0.190173 -0.08735
C_ C_ 0.52076 0.322269 0.163547 -0.05681
C_ C_ 0.553565 0.32102 0.138983 -0.08735
C_ C_ 0.871114 0.218218 0.163237 0.68181
C_ C_ 0.852158 0.415864 0.149046 0.68181
C_ C_ 0.848437 0.472613 0.148816 -0.05681
C_ C_ 0.875619 0.00204064 0.172757 -0.08735
C_ C_ 0.87491 0.0562692 0.17048 -0.05681
C_ C_ 0.849033 0.0791668 0.147553 -0.05681
C_ C_ 0.826338 0.0495817 0.125514 -0.08735
C_ C_ 0.847675 0.499301 0.121868 -0.08735
C_ C_ 0.898155 0.0883998 0.191829 -0.08735
C_ C_ 0.893423 0.139162 0.189841 -0.08735
C_ C_ 0.871534 0.162384 0.166334 -0.05681
C_ C_ 0.850982 0.131097 0.144161 -0.08735
C_ C_ 0.962583 0.322493 0.159451 0.68181
C_ C_ 0.891794 0.377983 0.23316 0.1947
C_ C_ 0.900191 0.396729 0.261049 -0.08735
C_ C_ 0.880207 0.370568 0.283568 -0.08735
C_ C_ 0.851864 0.327372 0.279653 -0.05681
C_ C_ 0.843367 0.309074 0.251427 0.18498
C_ C_ 0.81526 0.265484 0.246909 -0.08735
C_ C_ 0.791723 0.239969 0.268632 -0.08735
C_ C_ 0.803468 0.254924 0.297213 -0.08735
C_ C_ 0.836674 0.296276 0.302954 0.18498
C_ C_ 0.808058 0.32336 0.350879 0.44287
C_ C_ 0.894081 0.302284 0.344818 0.44287
C_ C_ 0.902636 0.307344 0.374687 -0.05681
C_ C_ 0.953919 0.310952 0.385778 -0.08735
C_ C_ 0.959936 0.318764 0.415476 -0.08735
C_ C_ 0.917704 0.324665 0.433594 -0.05681
C_ C_ 0.867815 0.321718 0.422483 -0.05681
C_ C_ 0.860319 0.314502 0.3925 -0.05681
C_ C_ 0.810839 0.317015 0.380669 -0.05681
C_ C_ 0.769716 0.318505 0.400239 -0.08735
C_ C_ 0.776691 0.323669 0.42981 -0.08735
C_ C_ 0.825982 0.324764 0.441642 -0.05681
C_ C_ 0.835197 0.33593 0.471338 0.44287
C_ C_ 0.922988 0.333918 0.463567 0.44287
C_ C_ 0.89294 0.334961 0.00951463 0.18498
C_ C_ 0.920453 0.380768 0.0154523 -0.08735
C_ C_ 0.932141 0.395744 0.0439791 -0.08735
C_ C_ 0.914119 0.365763 0.0669091 -0.08735
C_ C_ 0.88163 0.32548 0.0620136 0.18498
C_ C_ 0.87177 0.308774 0.0328812 -0.05681
C_ C_ 0.837659 0.267546 0.0289386 -0.08735
C_ C_ 0.812147 0.245409 0.0528864 -0.08735
C_ C_ 0.827158 0.261099 0.0796489 0.1947
N_ N_ 0.623994 0.17028 0.478454 -0.29468
N_ N_ 0.637405 0.182367 0.0819137 -0.17154
N_ N_ 0.596717 0.159103 0.229714 -0.17154
N_ N_ 0.632072 0.195418 0.331459 -0.29468
N_ N_ 0.862865 0.336394 0.228394 -0.29468
N_ N_ 0.847005 0.30945 0.332836 -0.17154
N_ N_ 0.8822 0.342795 0.481313 -0.17154
N_ N_ 0.859524 0.300414 0.0841372 -0.29468
O_ O_ 0.709615 0.186226 0.429122 -0.58347
O_ O_ 0.698339 0.18393 0.382706 -0.58347
O_ O_ 0.624599 0.255029 0.429133 -0.58347
O_ O_ 0.620892 0.258464 0.382436 -0.58347
O_ O_ 0.63981 0.102083 0.426127 -0.58347
O_ O_ 0.632052 0.107731 0.379098 -0.58347
O_ O_ 0.56055 0.170278 0.426077 -0.58347
O_ O_ 0.55146 0.175708 0.380057 -0.58347
O_ O_ 0.549277 0.203199 0.0769212 -0.46727
O_ O_ 0.720964 0.162492 0.08988 -0.46727
O_ O_ 0.519493 0.200335 0.224764 -0.46727
O_ O_ 0.67209 0.11517 0.234317 -0.46727
O_ O_ 0.783957 0.308776 0.180664 -0.58347
O_ O_ 0.794926 0.312615 0.134904 -0.58347
O_ O_ 0.870839 0.24588 0.185262 -0.58347
O_ O_ 0.86957 0.237678 0.138326 -0.58347
O_ O_ 0.846352 0.393309 0.172798 -0.58347
O_ O_ 0.864386 0.390725 0.127422 -0.58347
O_ O_ 0.935627 0.334645 0.180923 -0.58347
O_ O_ 0.945315 0.312627 0.13437 -0.58347
O_ O_ 0.932177 0.296284 0.327836 -0.46727
O_ O_ 0.76617 0.335805 0.339433 -0.46727
O_ O_ 0.967248 0.344342 0.473028 -0.46727
O_ O_ 0.795759 0.34268 0.488889 -0.46727
Zn Zn 0.638638 0.180462 0.882897 0.90689
Zn Zn 0.645844 0.169388 0.930165 0.90689
Zn Zn 0.885582 0.314205 0.63545 0.90689
Zn Zn 0.878953 0.323466 0.68254 0.90689
H_ H_ 0.818349 0.193205 0.943325 0.11455
H_ H_ 0.874786 0.164827 0.841824 0.11455
H_ H_ 0.787489 0.15832 0.8537 0.11455
H_ H_ 0.901055 0.168759 0.960444 0.11455
H_ H_ 0.990744 0.14364 0.950689 0.11455
H_ H_ 0.96176 0.159512 0.860796 0.11455
H_ H_ 0.65984 0.00810889 0.940816 0.11455
H_ H_ 0.644408 0.430318 0.849545 0.11455
H_ H_ 0.658076 0.0206027 0.850479 0.11455
H_ H_ 0.620205 0.426468 0.966509 0.11455
H_ H_ 0.623296 0.332401 0.961868 0.11455
H_ H_ 0.635213 0.34517 0.871364 0.11455
H_ H_ 0.591436 0.0957631 0.963087 0.11455
H_ H_ 0.575134 0.0731171 0.516018 0.11455
H_ H_ 0.590439 0.132256 0.557399 0.11455
H_ H_ 0.697853 0.233348 0.975992 0.11455
H_ H_ 0.715243 0.303253 0.512426 0.11455
H_ H_ 0.69189 0.283573 0.56173 0.11455
H_ H_ 0.519597 0.207327 0.630345 0.11455
H_ H_ 0.514771 0.195111 0.682614 0.11455
H_ H_ 0.773201 0.185859 0.633609 0.11455
H_ H_ 0.76815 0.162995 0.685207 0.11455
H_ H_ 0.612985 0.0699021 0.750469 0.11455
H_ H_ 0.59004 0.0395117 0.798583 0.11455
H_ H_ 0.582532 0.108485 0.836863 0.11455
H_ H_ 0.676406 0.241869 0.757215 0.11455
H_ H_ 0.681142 0.297568 0.800839 0.11455
H_ H_ 0.671813 0.26036 0.848047 0.11455
H_ H_ 0.709357 0.287683 0.696485 0.11455
H_ H_ 0.64079 0.322987 0.601426 0.11455
H_ H_ 0.733238 0.305231 0.608567 0.11455
H_ H_ 0.624455 0.303543 0.720846 0.11455
H_ H_ 0.537194 0.327877 0.713472 0.11455
H_ H_ 0.557196 0.320143 0.620838 0.11455
H_ H_ 0.873972 0.490279 0.695276 0.11455
H_ H_ 0.819718 0.0712467 0.60922 0.11455
H_ H_ 0.900889 0.478231 0.604703 0.11455
H_ H_ 0.91059 0.070972 0.715657 0.11455
H_ H_ 0.922066 0.164365 0.708889 0.11455
H_ H_ 0.845375 0.153695 0.626996 0.11455
H_ H_ 0.933226 0.39057 0.719054 0.11455
H_ H_ 0.968974 0.403058 0.765615 0.11455
H_ H_ 0.921776 0.363928 0.805822 0.11455
H_ H_ 0.80995 0.257918 0.722473 0.11455
H_ H_ 0.766682 0.2159 0.761437 0.11455
H_ H_ 0.791564 0.23478 0.813206 0.11455
H_ H_ 0.97948 0.270549 0.875331 0.11455
H_ H_ -0.007774999999999976 0.282723 0.925736 0.11455
H_ H_ 0.745146 0.360644 0.882416 0.11455
H_ H_ 0.75142 0.37051 0.933785 0.11455
H_ H_ 0.934486 0.404555 0.998249 0.11455
H_ H_ 0.951651 0.449634 0.550654 0.11455
H_ H_ 0.933251 0.393779 0.590381 0.11455
H_ H_ 0.86746 0.257165 0.508478 0.11455
H_ H_ 0.834922 0.205934 0.549765 0.11455
H_ H_ 0.837594 0.243747 0.597866 0.11455
C_ C_ 0.740845 0.187358 0.903222 0.68181
C_ C_ 0.79496 0.18027 0.899055 -0.05681
C_ C_ 0.830142 0.180888 0.921297 -0.08735
C_ C_ 0.880137 0.16775 0.916808 -0.05681
C_ C_ 0.8993 0.171308 0.887377 -0.05681
C_ C_ 0.86503 0.168808 0.864804 -0.08735
C_ C_ 0.813693 0.165863 0.872047 -0.08735
C_ C_ 0.913088 0.155754 0.939127 -0.08735
C_ C_ 0.966264 0.152279 0.932749 -0.08735
C_ C_ 0.986995 0.160437 0.905102 -0.05681
C_ C_ 0.950623 0.165705 0.88256 -0.08735
C_ C_ 0.629475 0.273776 0.914923 0.68181
C_ C_ 0.654427 0.0769083 0.899506 0.68181
C_ C_ 0.652747 0.019997 0.896378 -0.05681
C_ C_ 0.632955 0.493793 0.923057 -0.08735
C_ C_ 0.634074 0.439909 0.921431 -0.05681
C_ C_ 0.6373 0.416908 0.89459 -0.05681
C_ C_ 0.646733 0.446983 0.870155 -0.08735
C_ C_ 0.646537 0.498705 0.872217 -0.08735
C_ C_ 0.627367 0.410009 0.945337 -0.08735
C_ C_ 0.62471 0.357261 0.942726 -0.08735
C_ C_ 0.628563 0.331819 0.916628 -0.05681
C_ C_ 0.634976 0.36335 0.892165 -0.08735
C_ C_ 0.54324 0.166559 0.908969 0.68181
C_ C_ 0.606977 0.111524 0.981518 0.1947
C_ C_ 0.593104 0.10959 0.512403 -0.08735
C_ C_ 0.605212 0.141873 0.536448 -0.08735
C_ C_ 0.629748 0.186273 0.529752 -0.05681
C_ C_ 0.636052 0.202957 0.500584 0.18498
C_ C_ 0.682704 0.224592 0.99771 -0.08735
C_ C_ 0.695633 0.268344 0.516822 -0.08735
C_ C_ 0.682127 0.258334 0.545451 -0.08735
C_ C_ 0.649749 0.2156 0.552574 0.18498
C_ C_ 0.690993 0.188623 0.597301 0.44287
C_ C_ 0.602363 0.203692 0.596671 0.44287
C_ C_ 0.599727 0.190576 0.626129 -0.05681
C_ C_ 0.554137 0.196629 0.641721 -0.08735
C_ C_ 0.551543 0.191921 0.671617 -0.08735
C_ C_ 0.596776 0.17741 0.68766 -0.05681
C_ C_ 0.642592 0.171168 0.672542 -0.05681
C_ C_ 0.643807 0.179735 0.642375 -0.05681
C_ C_ 0.690941 0.177488 0.627402 -0.05681
C_ C_ 0.736373 0.174817 0.644182 -0.08735
C_ C_ 0.734136 0.16421 0.673532 -0.08735
C_ C_ 0.687977 0.162301 0.687575 -0.05681
C_ C_ 0.685306 0.152085 0.717643 0.44287
C_ C_ 0.596795 0.175754 0.717482 0.44287
C_ C_ 0.634048 0.143436 0.76139 0.18498
C_ C_ 0.616772 0.0955673 0.767049 -0.08735
C_ C_ 0.605143 0.0803785 0.795358 -0.08735
C_ C_ 0.603845 0.11613 0.816734 -0.08735
C_ C_ 0.626961 0.162642 0.812388 0.18498
C_ C_ 0.639233 0.179385 0.783766 -0.05681
C_ C_ 0.661162 0.228525 0.779789 -0.08735
C_ C_ 0.661537 0.261467 0.802918 -0.08735
C_ C_ 0.653652 0.242121 0.830145 0.1947
C_ C_ 0.785496 0.312934 0.659035 0.68181
C_ C_ 0.730389 0.311295 0.654752 -0.05681
C_ C_ 0.697006 0.307791 0.678587 -0.08735
C_ C_ 0.644617 0.317032 0.675679 -0.05681
C_ C_ 0.623733 0.322112 0.647802 -0.05681
C_ C_ 0.655659 0.318146 0.623101 -0.08735
C_ C_ 0.709532 0.31389 0.626653 -0.08735
C_ C_ 0.612477 0.315302 0.699187 -0.08735
C_ C_ 0.560838 0.326536 0.694874 -0.08735
C_ C_ 0.538775 0.325671 0.667835 -0.05681
C_ C_ 0.571572 0.324604 0.643334 -0.08735
C_ C_ 0.881037 0.221669 0.665124 0.68181
C_ C_ 0.874965 0.417396 0.653954 0.68181
C_ C_ 0.875111 0.473658 0.650642 -0.05681
C_ C_ 0.878548 0.00731481 0.676353 -0.08735
C_ C_ 0.877381 0.0598724 0.674021 -0.05681
C_ C_ 0.862259 0.0826566 0.647844 -0.05681
C_ C_ 0.841782 0.0528634 0.626615 -0.08735
C_ C_ 0.882964 0.498559 0.623576 -0.08735
C_ C_ 0.899671 0.0896683 0.695865 -0.08735
C_ C_ 0.90275 0.142727 0.692991 -0.08735
C_ C_ 0.882354 0.166188 0.668343 -0.05681
C_ C_ 0.863523 0.135436 0.64547 -0.08735
C_ C_ 0.982638 0.329947 0.655664 0.68181
C_ C_ 0.923258 0.363514 0.735365 0.1947
C_ C_ 0.936419 0.37683 0.762579 -0.08735
C_ C_ 0.907809 0.354584 0.785143 -0.08735
C_ C_ 0.870607 0.317792 0.778843 -0.05681
C_ C_ 0.859402 0.304485 0.749963 0.18498
C_ C_ 0.822458 0.265666 0.744978 -0.08735
C_ C_ 0.794713 0.244997 0.767103 -0.08735
C_ C_ 0.809394 0.254645 0.795359 -0.08735
C_ C_ 0.842779 0.294122 0.800989 0.18498
C_ C_ 0.811973 0.324772 0.846784 0.44287
C_ C_ 0.893891 0.289554 0.843622 0.44287
C_ C_ 0.904176 0.301414 0.873002 -0.05681
C_ C_ 0.951452 0.289642 0.885586 -0.08735
C_ C_ 0.955943 0.290497 0.915521 -0.08735
C_ C_ 0.916739 0.302526 0.933004 -0.05681
C_ C_ 0.870099 0.318148 0.920474 -0.05681
C_ C_ 0.864076 0.317279 0.890233 -0.05681
C_ C_ 0.817375 0.327169 0.876675 -0.05681
C_ C_ 0.778787 0.343906 0.893489 -0.08735
C_ C_ 0.785043 0.352974 0.923206 -0.08735
C_ C_ 0.828997 0.336612 0.937261 -0.05681
C_ C_ 0.835015 0.3397 0.96731 0.44287
C_ C_ 0.921703 0.31111 0.962978 0.44287
C_ C_ 0.892704 0.355799 0.511958 0.18498
C_ C_ 0.913084 0.403526 0.517965 -0.08735
C_ C_ 0.927751 0.416277 0.546626 -0.08735
C_ C_ 0.915344 0.38377 0.569113 -0.08735
C_ C_ 0.889132 0.339246 0.564037 0.18498
C_ C_ 0.879494 0.324099 0.534673 -0.05681
C_ C_ 0.864956 0.273409 0.530322 -0.08735
C_ C_ 0.849551 0.243708 0.553674 -0.08735
C_ C_ 0.849419 0.26524 0.580567 0.1947
N_ N_ 0.636419 0.154447 0.97807 -0.29468
N_ N_ 0.646865 0.198263 0.582195 -0.17154
N_ N_ 0.638482 0.156956 0.73155 -0.17154
N_ N_ 0.637572 0.193782 0.834812 -0.29468
N_ N_ 0.884825 0.329419 0.729314 -0.29468
N_ N_ 0.851574 0.305846 0.830505 -0.17154
N_ N_ 0.881671 0.324239 0.979479 -0.17154
N_ N_ 0.871079 0.309048 0.585747 -0.29468
O_ O_ 0.719847 0.176423 0.926985 -0.58347
O_ O_ 0.712559 0.19381 0.881663 -0.58347
O_ O_ 0.636711 0.246861 0.936597 -0.58347
O_ O_ 0.623826 0.253326 0.88986 -0.58347
O_ O_ 0.654526 0.0966833 0.924308 -0.58347
O_ O_ 0.649027 0.104832 0.877483 -0.58347
O_ O_ 0.572558 0.169659 0.930735 -0.58347
O_ O_ 0.562466 0.164148 0.884784 -0.58347
O_ O_ 0.563409 0.221755 0.58347 -0.46727
O_ O_ 0.733736 0.183211 0.58323 -0.46727
O_ O_ 0.554296 0.183705 0.730854 -0.46727
O_ O_ 0.725482 0.133358 0.730417 -0.46727
O_ O_ 0.804582 0.317335 0.684178 -0.58347
O_ O_ 0.814168 0.312 0.637062 -0.58347
O_ O_ 0.883311 0.250313 0.686022 -0.58347
O_ O_ 0.889621 0.240113 0.640232 -0.58347
O_ O_ 0.868934 0.398551 0.678828 -0.58347
O_ O_ 0.875748 0.390765 0.632997 -0.58347
O_ O_ 0.955594 0.332536 0.677795 -0.58347
O_ O_ 0.960512 0.322455 0.631838 -0.58347
O_ O_ 0.928347 0.266376 0.828637 -0.46727
O_ O_ 0.765916 0.324143 0.83615 -0.46727
O_ O_ 0.966349 0.313942 0.975019 -0.46727
O_ O_ 0.802179 0.365309 0.982748 -0.46727
Zn Zn 0.623215 0.688656 0.381239 0.90689
Zn Zn 0.631324 0.676777 0.429998 0.90689
Zn Zn 0.861898 0.814787 0.136758 0.90689
Zn Zn 0.85652 0.817942 0.183678 0.90689
H_ H_ 0.80223 0.700911 0.441973 0.11455
H_ H_ 0.869358 0.661447 0.343264 0.11455
H_ H_ 0.775719 0.657886 0.354321 0.11455
H_ H_ 0.887783 0.690813 0.461538 0.11455
H_ H_ 0.980773 0.678459 0.45367 0.11455
H_ H_ 0.951678 0.684463 0.362407 0.11455
H_ H_ 0.599389 0.513612 0.436758 0.11455
H_ H_ 0.603245 0.929348 0.349004 0.11455
H_ H_ 0.656516 0.529591 0.349092 0.11455
H_ H_ 0.643996 0.925323 0.465612 0.11455
H_ H_ 0.63207 0.836436 0.462112 0.11455
H_ H_ 0.603341 0.847055 0.373934 0.11455
H_ H_ 0.576961 0.607205 0.463287 0.11455
H_ H_ 0.553143 0.586646 0.0128294 0.11455
H_ H_ 0.591958 0.626364 0.0537734 0.11455
H_ H_ 0.698658 0.731428 0.472321 0.11455
H_ H_ 0.722835 0.795982 0.0135506 0.11455
H_ H_ 0.684152 0.783053 0.0628401 0.11455
H_ H_ 0.498075 0.691201 0.120228 0.11455
H_ H_ 0.489371 0.666606 0.171491 0.11455
H_ H_ 0.754439 0.691985 0.139834 0.11455
H_ H_ 0.741733 0.687384 0.190923 0.11455
H_ H_ 0.542857 0.603026 0.253756 0.11455
H_ H_ 0.520991 0.586581 0.300915 0.11455
H_ H_ 0.566448 0.631191 0.339797 0.11455
H_ H_ 0.648802 0.752808 0.257643 0.11455
H_ H_ 0.68387 0.79929 0.301402 0.11455
H_ H_ 0.674717 0.768711 0.348727 0.11455
H_ H_ 0.682798 0.810173 0.203052 0.11455
H_ H_ 0.615662 0.837705 0.103806 0.11455
H_ H_ 0.708849 0.841043 0.112944 0.11455
H_ H_ 0.597553 0.804635 0.219629 0.11455
H_ H_ 0.505264 0.782939 0.207411 0.11455
H_ H_ 0.531933 0.809604 0.120089 0.11455
H_ H_ 0.8891 0.982568 0.193053 0.11455
H_ H_ 0.850219 0.570821 0.0986426 0.11455
H_ H_ 0.813845 0.97398 0.110506 0.11455
H_ H_ 0.848013 0.571513 0.217614 0.11455
H_ H_ 0.853161 0.658586 0.213636 0.11455
H_ H_ 0.876756 0.648011 0.123099 0.11455
H_ H_ 0.915744 0.894619 0.216313 0.11455
H_ H_ 0.941645 0.916836 0.266489 0.11455
H_ H_ 0.893721 0.880595 0.306273 0.11455
H_ H_ 0.792688 0.762974 0.229495 0.11455
H_ H_ 0.772165 0.70882 0.268915 0.11455
H_ H_ 0.793452 0.732107 0.318325 0.11455
H_ H_ 0.981169 0.801245 0.374859 0.11455
H_ H_ -0.006112000000000006 0.796274 0.427694 0.11455
H_ H_ 0.737728 0.853361 0.393478 0.11455
H_ H_ 0.748038 0.854916 0.443684 0.11455
H_ H_ 0.92309 0.928815 0.502211 0.11455
H_ H_ 0.961406 0.933107 0.0568433 0.11455
H_ H_ 0.936855 0.872695 0.0957366 0.11455
H_ H_ 0.854416 0.749985 0.0144852 0.11455
H_ H_ 0.808375 0.706957 0.0525574 0.11455
H_ H_ 0.821119 0.734513 0.100991 0.11455
C_ C_ 0.726102 0.689827 0.400579 0.68181
C_ C_ 0.782377 0.684701 0.397493 -0.05681
C_ C_ 0.815327 0.693288 0.421002 -0.08735
C_ C_ 0.868142 0.682383 0.416681 -0.05681
C_ C_ 0.888824 0.675862 0.388536 -0.05681
C_ C_ 0.854854 0.670929 0.365188 -0.08735
C_ C_ 0.802048 0.669086 0.37094 -0.08735
C_ C_ 0.902769 0.682388 0.439567 -0.08735
C_ C_ 0.955148 0.674643 0.435885 -0.08735
C_ C_ 0.976243 0.674494 0.40823 -0.05681
C_ C_ 0.941753 0.673169 0.383265 -0.08735
C_ C_ 0.619506 0.778893 0.413685 0.68181
C_ C_ 0.632031 0.585612 0.396269 0.68181
C_ C_ 0.630647 0.529589 0.392568 -0.05681
C_ C_ 0.634508 0.992339 0.423844 -0.08735
C_ C_ 0.629797 0.93958 0.421194 -0.05681
C_ C_ 0.616685 0.917013 0.394445 -0.05681
C_ C_ 0.610098 0.947822 0.370256 -0.08735
C_ C_ 0.61822 0.999505458 0.372839 -0.08735
C_ C_ 0.637183 0.908764 0.445044 -0.08735
C_ C_ 0.626383 0.857044 0.443256 -0.08735
C_ C_ 0.617416 0.834177 0.417432 -0.05681
C_ C_ 0.608851 0.864192 0.393066 -0.08735
C_ C_ 0.529249 0.677378 0.407937 0.68181
C_ C_ 0.594123 0.627285 0.48119 0.1947
C_ C_ 0.579255 0.616474 0.00870995 -0.08735
C_ C_ 0.605893 0.636963 0.031788 -0.08735
C_ C_ 0.634996 0.680333 0.0278005 -0.05681
C_ C_ 0.649927 0.690679 0.99952 0.18498
C_ C_ 0.686813 0.726488 0.494231 -0.08735
C_ C_ 0.693608 0.765087 0.0176971 -0.08735
C_ C_ 0.677943 0.755542 0.0456263 -0.08735
C_ C_ 0.64756 0.712783 0.0516091 0.18498
C_ C_ 0.675896 0.693631 0.0995264 0.44287
C_ C_ 0.588171 0.702794 0.0921778 0.44287
C_ C_ 0.580544 0.694869 0.122657 -0.05681
C_ C_ 0.532179 0.685935 0.134114 -0.08735
C_ C_ 0.525488 0.683711 0.163496 -0.08735
C_ C_ 0.567384 0.680763 0.182534 -0.05681
C_ C_ 0.616451 0.68739 0.171584 -0.05681
C_ C_ 0.622798 0.689585 0.140994 -0.05681
C_ C_ 0.670506 0.689548 0.129551 -0.05681
C_ C_ 0.714133 0.687521 0.147733 -0.08735
C_ C_ 0.707891 0.68448 0.176961 -0.08735
C_ C_ 0.659045 0.687489 0.189548 -0.05681
C_ C_ 0.650511 0.680824 0.219369 0.44287
C_ C_ 0.561547 0.683866 0.213527 0.44287
C_ C_ 0.594304 0.667409 0.261827 0.18498
C_ C_ 0.560259 0.626139 0.26887 -0.08735
C_ C_ 0.549029 0.615383 0.296749 -0.08735
C_ C_ 0.572108 0.642605 0.318179 -0.08735
C_ C_ 0.601444 0.68422 0.31364 0.18498
C_ C_ 0.610079 0.700317 0.284852 -0.05681
C_ C_ 0.638908 0.744199 0.279655 -0.08735
C_ C_ 0.661119 0.769329 0.303338 -0.08735
C_ C_ 0.656157 0.750739 0.330682 0.1947
C_ C_ 0.760371 0.823886 0.160453 0.68181
C_ C_ 0.703089 0.825289 0.157783 -0.05681
C_ C_ 0.669359 0.815743 0.180713 -0.08735
C_ C_ 0.616622 0.811933 0.175443 -0.05681
C_ C_ 0.598334 0.814159 0.146578 -0.05681
C_ C_ 0.631107 0.833819 0.125227 -0.08735
C_ C_ 0.682783 0.835312 0.13137 -0.08735
C_ C_ 0.582294 0.809168 0.198508 -0.08735
C_ C_ 0.530053 0.797497 0.191581 -0.08735
C_ C_ 0.510655 0.806729 0.164656 -0.05681
C_ C_ 0.544848 0.812039 0.14119 -0.08735
C_ C_ 0.859255 0.718518 0.166933 0.68181
C_ C_ 0.854248 0.915631 0.150948 0.68181
C_ C_ 0.855209 0.972421 0.150177 -0.05681
C_ C_ 0.859037 0.502012 0.172867 -0.08735
C_ C_ 0.857286 0.555557 0.17204 -0.05681
C_ C_ 0.858244 0.580263 0.145523 -0.05681
C_ C_ 0.8559 0.551314 0.120245 -0.08735
C_ C_ 0.831741 0.996709 0.126819 -0.08735
C_ C_ 0.85927 0.584866 0.196964 -0.08735
C_ C_ 0.858164 0.636611 0.194144 -0.08735
C_ C_ 0.860395 0.662642 0.16797 -0.05681
C_ C_ 0.861618 0.632944 0.142823 -0.08735
C_ C_ 0.959219 0.810731 0.163953 0.68181
C_ C_ 0.896027 0.876707 0.234168 0.1947
C_ C_ 0.910158 0.890616 0.262288 -0.08735
C_ C_ 0.889695 0.865132 0.285616 -0.08735
C_ C_ 0.856185 0.82543 0.281444 -0.05681
C_ C_ 0.845016 0.808283 0.252894 0.18498
C_ C_ 0.81174 0.767054 0.248516 -0.08735
C_ C_ 0.792407 0.742811 0.272345 -0.08735
C_ C_ 0.804408 0.756806 0.300897 -0.08735
C_ C_ 0.83724 0.798081 0.305098 0.18498
C_ C_ 0.806686 0.82376 0.352199 0.44287
C_ C_ 0.893724 0.80512 0.347171 0.44287
C_ C_ 0.901483 0.808344 0.376586 -0.05681
C_ C_ 0.948743 0.803864 0.388618 -0.08735
C_ C_ 0.955758 0.801895 0.419222 -0.08735
C_ C_ 0.916161 0.81546 0.435983 -0.05681
C_ C_ 0.867095 0.822472 0.424694 -0.05681
C_ C_ 0.859047 0.816804 0.394908 -0.05681
C_ C_ 0.808914 0.819527 0.383199 -0.05681
C_ C_ 0.769975 0.832548 0.401521 -0.08735
C_ C_ 0.778653 0.838453 0.430692 -0.08735
C_ C_ 0.82609 0.829391 0.443171 -0.05681
C_ C_ 0.836493 0.843018 0.472423 0.44287
C_ C_ 0.924439 0.825265 0.46583 0.44287
C_ C_ 0.89569 0.84472 0.0165317 0.18498
C_ C_ 0.926063 0.887838 0.0228731 -0.08735
C_ C_ 0.939624 0.898633 0.0523669 -0.08735
C_ C_ 0.918062 0.869209 0.0745813 -0.08735
C_ C_ 0.887121 0.828224 0.0693584 0.18498
C_ C_ 0.879054 0.813575 0.0391822 -0.05681
C_ C_ 0.855552 0.765807 0.0348012 -0.08735
C_ C_ 0.827549 0.744774 0.0570291 -0.08735
C_ C_ 0.837343 0.759399 0.0850324 0.1947
N_ N_ 0.630773 0.663927 0.476506 -0.29468
N_ N_ 0.636255 0.70117 0.0810767 -0.17154
N_ N_ 0.602412 0.679303 0.231419 -0.17154
N_ N_ 0.628324 0.708584 0.33593 -0.29468
N_ N_ 0.866553 0.834781 0.22984 -0.29468
N_ N_ 0.847765 0.812832 0.335513 -0.17154
N_ N_ 0.88375 0.840901 0.483427 -0.17154
N_ N_ 0.867611 0.797819 0.091111 -0.29468
O_ O_ 0.706973 0.682792 0.42543 -0.58347
O_ O_ 0.696669 0.693063 0.379502 -0.58347
O_ O_ 0.623132 0.751921 0.435227 -0.58347
O_ O_ 0.615257 0.760836 0.389971 -0.58347
O_ O_ 0.636039 0.60498 0.420474 -0.58347
O_ O_ 0.630182 0.611935 0.374559 -0.58347
O_ O_ 0.559545 0.670507 0.429285 -0.58347
O_ O_ 0.546506 0.683806 0.382257 -0.58347
O_ O_ 0.549582 0.700728 0.0750265 -0.46727
O_ O_ 0.721584 0.686146 0.087369 -0.46727
O_ O_ 0.516237 0.692223 0.223136 -0.46727
O_ O_ 0.688209 0.669477 0.236905 -0.46727
O_ O_ 0.781688 0.830181 0.185367 -0.58347
O_ O_ 0.785859 0.814356 0.137259 -0.58347
O_ O_ 0.847736 0.745194 0.189569 -0.58347
O_ O_ 0.869912 0.74175 0.143994 -0.58347
O_ O_ 0.8587 0.891917 0.174522 -0.58347
O_ O_ 0.858381 0.891323 0.128358 -0.58347
O_ O_ 0.930559 0.812012 0.185079 -0.58347
O_ O_ 0.940623 0.820027 0.139473 -0.58347
O_ O_ 0.932076 0.787777 0.330967 -0.46727
O_ O_ 0.76486 0.83807 0.339629 -0.46727
O_ O_ 0.966969 0.812839 0.477723 -0.46727
O_ O_ 0.797659 0.853598 0.489356 -0.46727
Zn Zn 0.624572 0.676827 0.881358 0.90689
Zn Zn 0.639556 0.677376 0.930098 0.90689
Zn Zn 0.876317 0.816637 0.636745 0.90689
Zn Zn 0.867581 0.825291 0.684262 0.90689
H_ H_ 0.811332 0.692237 0.946621 0.11455
H_ H_ 0.874421 0.667519 0.84649 0.11455
H_ H_ 0.780601 0.678193 0.854756 0.11455
H_ H_ 0.896729 0.697588 0.962573 0.11455
H_ H_ 0.989508 0.687248 0.95172 0.11455
H_ H_ 0.960943 0.678702 0.863756 0.11455
H_ H_ 0.635389 0.511392 0.944044 0.11455
H_ H_ 0.645914 0.927941 0.846678 0.11455
H_ H_ 0.655019 0.520394 0.853074 0.11455
H_ H_ 0.650899 0.915933 0.962214 0.11455
H_ H_ 0.633092 0.83188 0.960589 0.11455
H_ H_ 0.61029 0.847029 0.86909 0.11455
H_ H_ 0.581686 0.603494 0.962806 0.11455
H_ H_ 0.554038 0.581994 0.510235 0.11455
H_ H_ 0.601174 0.620365 0.554587 0.11455
H_ H_ 0.693264 0.742827 0.973849 0.11455
H_ H_ 0.727313 0.79239 0.5113 0.11455
H_ H_ 0.705008 0.771526 0.561349 0.11455
H_ H_ 0.514364 0.69528 0.621135 0.11455
H_ H_ 0.504756 0.695864 0.67249 0.11455
H_ H_ 0.767297 0.662259 0.635249 0.11455
H_ H_ 0.758246 0.667919 0.68994 0.11455
H_ H_ 0.580514 0.588312 0.744453 0.11455
H_ H_ 0.567624 0.552318 0.795473 0.11455
H_ H_ 0.58207 0.612066 0.838043 0.11455
H_ H_ 0.641917 0.756732 0.759104 0.11455
H_ H_ 0.69286 0.793145 0.801646 0.11455
H_ H_ 0.674327 0.758274 0.849763 0.11455
H_ H_ 0.695971 0.801816 0.697105 0.11455
H_ H_ 0.633247 0.819 0.598382 0.11455
H_ H_ 0.722704 0.827332 0.607122 0.11455
H_ H_ 0.605653 0.807872 0.715947 0.11455
H_ H_ 0.514446 0.81782 0.705188 0.11455
H_ H_ 0.547995 0.822837 0.614858 0.11455
H_ H_ 0.88282 0.993322 0.698917 0.11455
H_ H_ 0.888499 0.573167 0.599851 0.11455
H_ H_ 0.826541 0.979832 0.611707 0.11455
H_ H_ 0.874796 0.573944 0.719013 0.11455
H_ H_ 0.868335 0.660225 0.716375 0.11455
H_ H_ 0.879682 0.653433 0.623349 0.11455
H_ H_ 0.929467 0.893098 0.720549 0.11455
H_ H_ 0.952847 0.910304 0.770114 0.11455
H_ H_ 0.89985 0.885868 0.808848 0.11455
H_ H_ 0.806497 0.756541 0.727712 0.11455
H_ H_ 0.774664 0.708169 0.769457 0.11455
H_ H_ 0.807472 0.727888 0.817753 0.11455
H_ H_ 0.990967 0.791094 0.877536 0.11455
H_ H_ 0.996727 0.796398 0.930352 0.11455
H_ H_ 0.743088 0.849615 0.89233 0.11455
H_ H_ 0.747652 0.843389 0.945372 0.11455
H_ H_ 0.942907 0.910007 1.00552097 0.11455
H_ H_ 0.932989 0.957822 0.552387 0.11455
H_ H_ 0.927063 0.893677 0.591785 0.11455
H_ H_ 0.847702 0.758916 0.50856 0.11455
H_ H_ 0.819736 0.709635 0.550376 0.11455
H_ H_ 0.839948 0.732478 0.597961 0.11455
C_ C_ 0.731116 0.685859 0.904581 0.68181
C_ C_ 0.787757 0.682186 0.900119 -0.05681
C_ C_ 0.822615 0.68865 0.924456 -0.08735
C_ C_ 0.87571 0.690766 0.919132 -0.05681
C_ C_ 0.894187 0.683673 0.890077 -0.05681
C_ C_ 0.858547 0.677152 0.86732 -0.08735
C_ C_ 0.807209 0.678934 0.871929 -0.08735
C_ C_ 0.911442 0.691459 0.940831 -0.08735
C_ C_ 0.962894 0.685569 0.935198 -0.08735
C_ C_ 0.980413 0.683666 0.906718 -0.05681
C_ C_ 0.946572 0.684379 0.884436 -0.08735
C_ C_ 0.623381 0.775502 0.912877 0.68181
C_ C_ 0.641312 0.578483 0.900607 0.68181
C_ C_ 0.643196 0.522183 0.898633 -0.05681
C_ C_ 0.649761 -0.011276999999999981 0.92087 -0.08735
C_ C_ 0.643587 0.935555 0.918288 -0.05681
C_ C_ 0.63448 0.914771 0.891286 -0.05681
C_ C_ 0.648464 0.943608 0.867514 -0.08735
C_ C_ 0.653841 -0.002677999999999958 0.869323 -0.08735
C_ C_ 0.646297 0.903631 0.941761 -0.08735
C_ C_ 0.633024 0.854037 0.940839 -0.08735
C_ C_ 0.6232 0.831994 0.914098 -0.05681
C_ C_ 0.62333 0.861836 0.890259 -0.08735
C_ C_ 0.533886 0.674114 0.903429 0.68181
C_ C_ 0.598105 0.624128 0.980978 0.1947
C_ C_ 0.580405 0.612524 0.508667 -0.08735
C_ C_ 0.60869 0.63282 0.532222 -0.08735
C_ C_ 0.641992 0.673742 0.52831 -0.05681
C_ C_ 0.652097 0.68908 0.499088 0.18498
C_ C_ 0.684045 0.731222 0.995364 -0.08735
C_ C_ 0.705845 0.756431 0.516165 -0.08735
C_ C_ 0.689443 0.746716 0.544588 -0.08735
C_ C_ 0.659503 0.705624 0.5508 0.18498
C_ C_ 0.69088 0.679442 0.596884 0.44287
C_ C_ 0.605767 0.697987 0.592835 0.44287
C_ C_ 0.597634 0.691514 0.622537 -0.05681
C_ C_ 0.548802 0.693016 0.634803 -0.08735
C_ C_ 0.543681 0.696173 0.66467 -0.08735
C_ C_ 0.586763 0.687222 0.683713 -0.05681
C_ C_ 0.635 0.679553 0.670739 -0.05681
C_ C_ 0.640414 0.68652 0.640841 -0.05681
C_ C_ 0.687426 0.673891 0.627905 -0.05681
C_ C_ 0.729332 0.66471 0.645077 -0.08735
C_ C_ 0.726201 0.665485 0.676478 -0.08735
C_ C_ 0.677584 0.670407 0.6891 -0.05681
C_ C_ 0.670169 0.670593 0.719136 0.44287
C_ C_ 0.583727 0.69078 0.713189 0.44287
C_ C_ 0.609405 0.658856 0.759147 0.18498
C_ C_ 0.590245 0.609922 0.764144 -0.08735
C_ C_ 0.579988 0.592287 0.791864 -0.08735
C_ C_ 0.591233 0.623477 0.815416 -0.08735
C_ C_ 0.616151 0.669841 0.81136 0.18498
C_ C_ 0.623976 0.688932 0.783515 -0.05681
C_ C_ 0.64442 0.737528 0.78057 -0.08735
C_ C_ 0.665648 0.760505 0.804074 -0.08735
C_ C_ 0.661804 0.738078 0.831876 0.1947
C_ C_ 0.773232 0.81091 0.656789 0.68181
C_ C_ 0.717378 0.815362 0.652253 -0.05681
C_ C_ 0.684316 0.8135 0.675117 -0.08735
C_ C_ 0.630053 0.81204 0.670529 -0.05681
C_ C_ 0.612548 0.818875 0.642477 -0.05681
C_ C_ 0.646471 0.823569 0.619901 -0.08735
C_ C_ 0.697904 0.8252 0.624982 -0.08735
C_ C_ 0.594392 0.810387 0.692878 -0.08735
C_ C_ 0.541467 0.816091 0.687758 -0.08735
C_ C_ 0.524778 0.822047 0.659355 -0.05681
C_ C_ 0.560279 0.818913 0.636905 -0.08735
C_ C_ 0.877554 0.723055 0.666552 0.68181
C_ C_ 0.869175 0.921004 0.65568 0.68181
C_ C_ 0.858367 0.977639 0.654403 -0.05681
C_ C_ 0.873296 0.506569 0.67488 -0.08735
C_ C_ 0.877028 0.560187 0.672861 -0.05681
C_ C_ 0.88033 0.582514 0.646102 -0.05681
C_ C_ 0.883445 0.552998 0.620906 -0.08735
C_ C_ 0.842148 1.00043 0.629307 -0.08735
C_ C_ 0.878124 0.589858 0.697766 -0.08735
C_ C_ 0.876244 0.641484 0.695961 -0.08735
C_ C_ 0.879194 0.66679 0.668566 -0.05681
C_ C_ 0.878841 0.635106 0.643889 -0.08735
C_ C_ 0.97246 0.830371 0.661425 0.68181
C_ C_ 0.910762 0.870339 0.736643 0.1947
C_ C_ 0.919589 0.887988 0.764204 -0.08735
C_ C_ 0.889602 0.870928 0.787315 -0.08735
C_ C_ 0.861711 0.825787 0.783044 -0.05681
C_ C_ 0.848995 0.812515 0.753841 0.18498
C_ C_ 0.818093 0.76758 0.749738 -0.08735
C_ C_ 0.801232 0.738995 0.773211 -0.08735
C_ C_ 0.817466 0.751014 0.800977 -0.08735
C_ C_ 0.844305 0.79453 0.807268 0.18498
C_ C_ 0.81289 0.823012 0.854818 0.44287
C_ C_ 0.900302 0.801608 0.849521 0.44287
C_ C_ 0.908346 0.807224 0.878887 -0.05681
C_ C_ 0.956947 0.803013 0.891497 -0.08735
C_ C_ 0.961704 0.806448 0.921026 -0.08735
C_ C_ 0.921331 0.816233 0.939356 -0.05681
C_ C_ 0.872934 0.821556 0.926825 -0.05681
C_ C_ 0.866125 0.818929 0.897057 -0.05681
C_ C_ 0.818809 0.827498 0.885157 -0.05681
C_ C_ 0.778006 0.839836 0.903145 -0.08735
C_ C_ 0.782917 0.837354 0.932933 -0.08735
C_ C_ 0.829984 0.832953 0.945559 -0.05681
C_ C_ 0.838899 0.836509 0.974927 0.44287
C_ C_ 0.926742 0.82116 0.969105 0.44287
C_ C_ 0.893016 0.852559 0.513282 0.18498
C_ C_ 0.91293 0.903426 0.520189 -0.08735
C_ C_ 0.922384 0.917737 0.547982 -0.08735
C_ C_ 0.909499 0.883924 0.569845 -0.08735
C_ C_ 0.888912 0.836148 0.56504 0.18498
C_ C_ 0.877239 0.82067 0.535828 -0.05681
C_ C_ 0.853299 0.773868 0.529988 -0.08735
C_ C_ 0.835922 0.745024 0.553254 -0.08735
C_ C_ 0.847734 0.761128 0.581397 0.1947
N_ N_ 0.633807 0.65988 0.97652 -0.29468
N_ N_ 0.651002 0.692506 0.580504 -0.17154
N_ N_ 0.622705 0.6744 0.730205 -0.17154
N_ N_ 0.634082 0.694133 0.834543 -0.29468
N_ N_ 0.874912 0.83413 0.730697 -0.29468
N_ N_ 0.85281 0.809311 0.837467 -0.17154
N_ N_ 0.886679 0.830416 0.986508 -0.17154
N_ N_ 0.874688 0.804605 0.587523 -0.29468
O_ O_ 0.713374 0.685601 0.929371 -0.58347
O_ O_ 0.702419 0.682173 0.883069 -0.58347
O_ O_ 0.633507 0.751011 0.93545 -0.58347
O_ O_ 0.618014 0.752313 0.889504 -0.58347
O_ O_ 0.648146 0.600835 0.924461 -0.58347
O_ O_ 0.627493 0.60292 0.877931 -0.58347
O_ O_ 0.564492 0.668378 0.924599 -0.58347
O_ O_ 0.550951 0.674307 0.877956 -0.58347
O_ O_ 0.566591 0.71295 0.576563 -0.46727
O_ O_ 0.733771 0.665179 0.583415 -0.46727
O_ O_ 0.54314 0.710519 0.724377 -0.46727
O_ O_ 0.707741 0.677411 0.736078 -0.46727
O_ O_ 0.79423 0.822685 0.680311 -0.58347
O_ O_ 0.802777 0.807267 0.635622 -0.58347
O_ O_ 0.865124 0.751389 0.687452 -0.58347
O_ O_ 0.89097 0.743007 0.643272 -0.58347
O_ O_ 0.868413 0.900452 0.679979 -0.58347
O_ O_ 0.865418 0.893638 0.63263 -0.58347
O_ O_ 0.943321 0.833454 0.683245 -0.58347
O_ O_ 0.953338 0.828692 0.636247 -0.58347
O_ O_ 0.936743 0.783262 0.833634 -0.46727
O_ O_ 0.767186 0.832794 0.843331 -0.46727
O_ O_ 0.970118 0.816335 0.981285 -0.46727
O_ O_ 0.799895 0.842575 0.992512 -0.46727
