_cell_length_a 26.376
_cell_length_b 26.400000238300095
_cell_length_c 46.67800035477134
_cell_angle_alpha 90.00700052986613
_cell_angle_beta 89.99899961309502
_cell_angle_gamma 90.45000003183146
_symmetry_space_group_name_H-M         'P 1'
_symmetry_Int_Tables_number            1
loop_
_symmetry_equiv_pos_as_xyz
   'x, y, z'
                         
loop_
_atom_site_label
_atom_site_type_symbol
_atom_site_fract_x 
_atom_site_fract_y
_atom_site_fract_z
_atom_site_charge
Zn Zn 0.131326 0.179369 0.384007 0.90689
Zn Zn 0.138497 0.177906 0.433524 0.90689
Zn Zn 0.38598 0.32294 0.132439 0.90689
Zn Zn 0.38255 0.332074 0.180296 0.90689
H_ H_ 0.307695 0.201495 0.447411 0.11455
H_ H_ 0.379195 0.156016 0.353704 0.11455
H_ H_ 0.288713 0.170317 0.358998 0.11455
H_ H_ 0.398633 0.20075 0.468723 0.11455
H_ H_ 0.48751 0.196216 0.459392 0.11455
H_ H_ 0.464078 0.160288 0.371113 0.11455
H_ H_ 0.148335 0.00894754 0.449094 0.11455
H_ H_ 0.112068 0.434098 0.350812 0.11455
H_ H_ 0.147379 0.0283974 0.356155 0.11455
H_ H_ 0.149844 0.425007 0.466659 0.11455
H_ H_ 0.147585 0.333603 0.462198 0.11455
H_ H_ 0.103627 0.349285 0.373578 0.11455
H_ H_ 0.0939078 0.0988265 0.473021 0.11455
H_ H_ 0.0858521 0.0660576 0.0170685 0.11455
H_ H_ 0.121546 0.11892 0.0555387 0.11455
H_ H_ 0.200404 0.242854 0.473394 0.11455
H_ H_ 0.234062 0.294501 0.00943955 0.11455
H_ H_ 0.205357 0.282427 0.0598412 0.11455
H_ H_ 0.0222049 0.209271 0.120972 0.11455
H_ H_ 0.0127478 0.198128 0.17266 0.11455
H_ H_ 0.274531 0.163891 0.135193 0.11455
H_ H_ 0.261923 0.14773 0.188024 0.11455
H_ H_ 0.0907465 0.0756247 0.248338 0.11455
H_ H_ 0.0676627 0.0521355 0.296086 0.11455
H_ H_ 0.0916566 0.108778 0.33755 0.11455
H_ H_ 0.163253 0.243334 0.255777 0.11455
H_ H_ 0.183056 0.298547 0.298821 0.11455
H_ H_ 0.175843 0.264608 0.344568 0.11455
H_ H_ 0.209207 0.313965 0.196653 0.11455
H_ H_ 0.141586 0.313416 0.0965671 0.11455
H_ H_ 0.230608 0.310148 0.104118 0.11455
H_ H_ 0.126858 0.310895 0.21527 0.11455
H_ H_ 0.0363175 0.325325 0.207796 0.11455
H_ H_ 0.0543504 0.329766 0.116701 0.11455
H_ H_ 0.348954 0.494428 0.187955 0.11455
H_ H_ 0.389503 0.0802198 0.0995669 0.11455
H_ H_ 0.420607 0.485691 0.104616 0.11455
H_ H_ 0.369053 0.0856068 0.217359 0.11455
H_ H_ 0.383999 0.176761 0.212268 0.11455
H_ H_ 0.381191 0.16305 0.119295 0.11455
H_ H_ 0.415606 0.409921 0.216043 0.11455
H_ H_ 0.43259 0.435535 0.263625 0.11455
H_ H_ 0.406875 0.383123 0.304355 0.11455
H_ H_ 0.32357 0.264068 0.220953 0.11455
H_ H_ 0.291707 0.20578 0.258361 0.11455
H_ H_ 0.310604 0.226023 0.308209 0.11455
H_ H_ 0.495331 0.298039 0.372647 0.11455
H_ H_ 0.508532 0.314115 0.423845 0.11455
H_ H_ 0.24316 0.332029 0.387579 0.11455
H_ H_ 0.25644 0.354058 0.439711 0.11455
H_ H_ 0.432805 0.421745 0.499517 0.11455
H_ H_ 0.482757 0.436661 0.0486693 0.11455
H_ H_ 0.459322 0.37755 0.0891295 0.11455
H_ H_ 0.348851 0.268666 0.008984 0.11455
H_ H_ 0.307946 0.226693 0.0497361 0.11455
H_ H_ 0.324086 0.254232 0.098421 0.11455
C_ C_ 0.233055 0.184778 0.408399 0.68181
C_ C_ 0.291554 0.18097 0.405268 -0.05681
C_ C_ 0.323823 0.185295 0.428568 -0.08735
C_ C_ 0.377213 0.179073 0.425172 -0.05681
C_ C_ 0.396915 0.168702 0.398115 -0.05681
C_ C_ 0.363882 0.162814 0.375476 -0.08735
C_ C_ 0.312799 0.170905 0.377619 -0.08735
C_ C_ 0.411866 0.186498 0.447553 -0.08735
C_ C_ 0.46379 0.189693 0.442071 -0.08735
C_ C_ 0.484185 0.178954 0.414295 -0.05681
C_ C_ 0.450571 0.17024 0.392277 -0.08735
C_ C_ 0.135636 0.280108 0.413394 0.68181
C_ C_ 0.148877 0.0833247 0.40328 0.68181
C_ C_ 0.150228 0.0263682 0.401978 -0.05681
C_ C_ 0.133732 0.494062 0.425442 -0.08735
C_ C_ 0.131174 0.442082 0.423196 -0.05681
C_ C_ 0.120956 0.419051 0.395632 -0.05681
C_ C_ 0.113283 0.451024 0.371095 -0.08735
C_ C_ 0.1187 0.504919 0.374213 -0.08735
C_ C_ 0.140161 0.410196 0.44645 -0.08735
C_ C_ 0.141197 0.358888 0.442923 -0.08735
C_ C_ 0.133904 0.334921 0.415811 -0.05681
C_ C_ 0.120105 0.366067 0.392771 -0.08735
C_ C_ 0.0366489 0.177433 0.410148 0.68181
C_ C_ 0.115139 0.121681 0.488045 0.1947
C_ C_ 0.110582 0.0972554 0.0117896 -0.08735
C_ C_ 0.130491 0.127054 0.0344332 -0.08735
C_ C_ 0.148583 0.17705 0.0292508 -0.05681
C_ C_ 0.158213 0.189215 1.00015 0.18498
C_ C_ 0.188702 0.238045 0.494462 -0.08735
C_ C_ 0.206491 0.265093 0.0145098 -0.08735
C_ C_ 0.191898 0.257485 0.0434157 -0.08735
C_ C_ 0.16501 0.21234 0.0507915 0.18498
C_ C_ 0.199021 0.188225 0.0968891 0.44287
C_ C_ 0.111259 0.206495 0.0936598 0.44287
C_ C_ 0.103656 0.194283 0.122551 -0.05681
C_ C_ 0.0548444 0.200542 0.134989 -0.08735
C_ C_ 0.0487054 0.190581 0.163673 -0.08735
C_ C_ 0.0905198 0.180816 0.18167 -0.05681
C_ C_ 0.139996 0.177196 0.169955 -0.05681
C_ C_ 0.147169 0.183979 0.13953 -0.05681
C_ C_ 0.194572 0.18066 0.127663 -0.05681
C_ C_ 0.238031 0.171096 0.145709 -0.08735
C_ C_ 0.232593 0.166459 0.175199 -0.08735
C_ C_ 0.182546 0.169423 0.187249 -0.05681
C_ C_ 0.173895 0.165889 0.217391 0.44287
C_ C_ 0.083318 0.175218 0.212554 0.44287
C_ C_ 0.118678 0.149357 0.258641 0.18498
C_ C_ 0.0984562 0.10165 0.265285 -0.08735
C_ C_ 0.0834974 0.088665 0.29334 -0.08735
C_ C_ 0.099818 0.119417 0.315382 -0.08735
C_ C_ 0.119034 0.167145 0.309806 0.18498
C_ C_ 0.128153 0.182243 0.281569 -0.05681
C_ C_ 0.151127 0.231688 0.277185 -0.08735
C_ C_ 0.168358 0.260962 0.300302 -0.08735
C_ C_ 0.156559 0.243632 0.32798 0.1947
C_ C_ 0.284317 0.325536 0.154229 0.68181
C_ C_ 0.228911 0.320674 0.151336 -0.05681
C_ C_ 0.195318 0.31768 0.174764 -0.08735
C_ C_ 0.142876 0.317987 0.170362 -0.05681
C_ C_ 0.122937 0.3209 0.1413 -0.05681
C_ C_ 0.155815 0.318014 0.118345 -0.08735
C_ C_ 0.207631 0.315117 0.122696 -0.08735
C_ C_ 0.110743 0.316593 0.193686 -0.08735
C_ C_ 0.0583966 0.316073 0.189334 -0.08735
C_ C_ 0.0372663 0.32243 0.161391 -0.05681
C_ C_ 0.0698053 0.323123 0.137415 -0.08735
C_ C_ 0.380661 0.231596 0.163082 0.68181
C_ C_ 0.377012 0.424595 0.146931 0.68181
C_ C_ 0.388292 0.480616 0.14768 -0.05681
C_ C_ 0.370103 0.0177022 0.174656 -0.08735
C_ C_ 0.369532 0.0709893 0.171718 -0.05681
C_ C_ 0.37823 0.0933739 0.143265 -0.05681
C_ C_ 0.384482 0.0623719 0.120479 -0.08735
C_ C_ 0.406034 0.505193 0.122935 -0.08735
C_ C_ 0.373493 0.100188 0.19594 -0.08735
C_ C_ 0.376185 0.153981 0.192818 -0.08735
C_ C_ 0.380473 0.176002 0.16496 -0.05681
C_ C_ 0.381592 0.145815 0.140804 -0.08735
C_ C_ 0.483838 0.325716 0.1619 0.68181
C_ C_ 0.406566 0.38481 0.231878 0.1947
C_ C_ 0.413841 0.398876 0.260138 -0.08735
C_ C_ 0.396185 0.371891 0.283479 -0.08735
C_ C_ 0.375769 0.323444 0.278884 -0.05681
C_ C_ 0.370762 0.308011 0.249181 0.18498
C_ C_ 0.339477 0.266872 0.242111 -0.08735
C_ C_ 0.31842 0.237749 0.264465 -0.08735
C_ C_ 0.328399 0.249507 0.292856 -0.08735
C_ C_ 0.357243 0.291519 0.301261 0.18498
C_ C_ 0.318323 0.319344 0.347539 0.44287
C_ C_ 0.406116 0.295976 0.343316 0.44287
C_ C_ 0.414136 0.304632 0.373879 -0.05681
C_ C_ 0.462559 0.304773 0.386022 -0.08735
C_ C_ 0.468834 0.310773 0.415686 -0.08735
C_ C_ 0.427386 0.326352 0.433458 -0.05681
C_ C_ 0.378631 0.328063 0.420786 -0.05681
C_ C_ 0.370721 0.316284 0.390496 -0.05681
C_ C_ 0.323325 0.319837 0.378101 -0.05681
C_ C_ 0.281143 0.333022 0.395669 -0.08735
C_ C_ 0.289227 0.342811 0.426046 -0.08735
C_ C_ 0.336147 0.33542 0.439131 -0.05681
C_ C_ 0.344638 0.339318 0.469156 0.44287
C_ C_ 0.433176 0.327946 0.4627 0.44287
C_ C_ 0.413344 0.34604 0.012358 0.18498
C_ C_ 0.438759 0.392815 0.0187462 -0.08735
C_ C_ 0.453062 0.407254 0.0460776 -0.08735
C_ C_ 0.441524 0.373365 0.0686616 -0.08735
C_ C_ 0.405735 0.332108 0.0637419 0.18498
C_ C_ 0.391639 0.317959 0.0356096 -0.05681
C_ C_ 0.35644 0.279352 0.0308898 -0.08735
C_ C_ 0.332871 0.256884 0.0542739 -0.08735
C_ C_ 0.346915 0.268808 0.081697 0.1947
N_ N_ 0.141304 0.165711 0.480855 -0.29468
N_ N_ 0.158901 0.202609 0.0810602 -0.17154
N_ N_ 0.124999 0.165026 0.229347 -0.17154
N_ N_ 0.133655 0.197808 0.333256 -0.29468
N_ N_ 0.384687 0.340553 0.227234 -0.29468
N_ N_ 0.359358 0.30594 0.330509 -0.17154
N_ N_ 0.392954 0.334026 0.480801 -0.17154
N_ N_ 0.383144 0.30503 0.0855973 -0.29468
O_ O_ 0.211987 0.178007 0.431667 -0.58347
O_ O_ 0.205468 0.192514 0.386562 -0.58347
O_ O_ 0.142353 0.254838 0.435773 -0.58347
O_ O_ 0.122102 0.255783 0.390599 -0.58347
O_ O_ 0.136638 0.102603 0.426365 -0.58347
O_ O_ 0.150659 0.110062 0.380717 -0.58347
O_ O_ 0.0644365 0.178854 0.43123 -0.58347
O_ O_ 0.0558369 0.175654 0.386411 -0.58347
O_ O_ 0.0734324 0.223371 0.0787535 -0.46727
O_ O_ 0.244655 0.193835 0.0860539 -0.46727
O_ O_ 0.0373335 0.17262 0.223387 -0.46727
O_ O_ 0.214016 0.160981 0.23505 -0.46727
O_ O_ 0.306325 0.329224 0.178054 -0.58347
O_ O_ 0.311458 0.331134 0.132485 -0.58347
O_ O_ 0.389568 0.259388 0.183923 -0.58347
O_ O_ 0.372265 0.251612 0.139241 -0.58347
O_ O_ 0.374331 0.402714 0.171575 -0.58347
O_ O_ 0.392531 0.398497 0.126366 -0.58347
O_ O_ 0.455798 0.340983 0.182678 -0.58347
O_ O_ 0.463839 0.313931 0.137192 -0.58347
O_ O_ 0.444971 0.287441 0.327075 -0.46727
O_ O_ 0.274058 0.323591 0.334827 -0.46727
O_ O_ 0.479325 0.317811 0.473678 -0.46727
O_ O_ 0.308433 0.357916 0.485263 -0.46727
Zn Zn 0.128332 0.172896 0.882765 0.90689
Zn Zn 0.143248 0.17303 0.932253 0.90689
Zn Zn 0.378142 0.315945 0.634512 0.90689
Zn Zn 0.360439 0.322746 0.682751 0.90689
H_ H_ 0.310631 0.174149 0.943551 0.11455
H_ H_ 0.373859 0.185496 0.845572 0.11455
H_ H_ 0.285816 0.181388 0.85504 0.11455
H_ H_ 0.390606 0.172199 0.964106 0.11455
H_ H_ 0.48688 0.161776 0.955238 0.11455
H_ H_ 0.464749 0.191094 0.863911 0.11455
H_ H_ 0.154767 0.00878498 0.943205 0.11455
H_ H_ 0.112068 0.424733 0.851134 0.11455
H_ H_ 0.143591 0.0172531 0.850952 0.11455
H_ H_ 0.0935683 0.418033 0.967975 0.11455
H_ H_ 0.0988903 0.330053 0.963945 0.11455
H_ H_ 0.116038 0.341778 0.872223 0.11455
H_ H_ 0.0845763 0.10608 0.967896 0.11455
H_ H_ 0.0875133 0.0747918 0.522855 0.11455
H_ H_ 0.125497 0.12443 0.560158 0.11455
H_ H_ 0.211098 0.228284 0.972107 0.11455
H_ H_ 0.218811 0.309212 0.506202 0.11455
H_ H_ 0.219013 0.282305 0.560149 0.11455
H_ H_ 0.0211427 0.215269 0.624435 0.11455
H_ H_ 0.0046137 0.185691 0.670844 0.11455
H_ H_ 0.269113 0.176583 0.639757 0.11455
H_ H_ 0.256728 0.169652 0.691416 0.11455
H_ H_ 0.0565728 0.0985481 0.746876 0.11455
H_ H_ 0.0621651 0.0567263 0.793666 0.11455
H_ H_ 0.0927888 0.105194 0.835981 0.11455
H_ H_ 0.145171 0.255763 0.762201 0.11455
H_ H_ 0.176964 0.301285 0.804438 0.11455
H_ H_ 0.172238 0.259341 0.85281 0.11455
H_ H_ 0.195495 0.307032 0.692177 0.11455
H_ H_ 0.129403 0.337388 0.595837 0.11455
H_ H_ 0.221067 0.346063 0.605462 0.11455
H_ H_ 0.108641 0.283049 0.708227 0.11455
H_ H_ 0.0181789 0.296519 0.702935 0.11455
H_ H_ 0.0410753 0.330297 0.614285 0.11455
H_ H_ 0.359927 0.492142 0.693841 0.11455
H_ H_ 0.363828 0.0690546 0.595348 0.11455
H_ H_ 0.385617 0.467549 0.604624 0.11455
H_ H_ 0.369478 0.0693775 0.714913 0.11455
H_ H_ 0.379352 0.158567 0.711396 0.11455
H_ H_ 0.386382 0.15275 0.619799 0.11455
H_ H_ 0.416462 0.399538 0.717131 0.11455
H_ H_ 0.419255 0.43235 0.764246 0.11455
H_ H_ 0.402446 0.371055 0.804725 0.11455
H_ H_ 0.287424 0.270967 0.72474 0.11455
H_ H_ 0.251612 0.223682 0.765706 0.11455
H_ H_ 0.28341 0.232121 0.813324 0.11455
H_ H_ 0.493047 0.298799 0.870752 0.11455
H_ H_ 0.504044 0.297714 0.922126 0.11455
H_ H_ 0.239019 0.319864 0.896401 0.11455
H_ H_ 0.260004 0.34801 0.946706 0.11455
H_ H_ 0.449534 0.416171 0.000466869 0.11455
H_ H_ 0.465859 0.438582 0.550836 0.11455
H_ H_ 0.427034 0.391438 0.589115 0.11455
H_ H_ 0.346593 0.260552 0.508975 0.11455
H_ H_ 0.326114 0.207468 0.547918 0.11455
H_ H_ 0.338357 0.237049 0.599552 0.11455
C_ C_ 0.233775 0.175685 0.905124 0.68181
C_ C_ 0.289534 0.177589 0.899914 -0.05681
C_ C_ 0.323706 0.175396 0.922339 -0.08735
C_ C_ 0.37688 0.17584 0.9187 -0.05681
C_ C_ 0.395484 0.179914 0.890969 -0.05681
C_ C_ 0.360945 0.182699 0.86782 -0.08735
C_ C_ 0.308716 0.184863 0.872727 -0.08735
C_ C_ 0.409031 0.166726 0.941614 -0.08735
C_ C_ 0.461096 0.167856 0.937366 -0.08735
C_ C_ 0.481285 0.175012 0.91025 -0.05681
C_ C_ 0.447515 0.186382 0.886262 -0.08735
C_ C_ 0.119928 0.271484 0.916741 0.68181
C_ C_ 0.149254 0.0753738 0.900072 0.68181
C_ C_ 0.149791 0.0199438 0.897276 -0.05681
C_ C_ 0.126348 0.489989 0.925836 -0.08735
C_ C_ 0.117891 0.435407 0.92366 -0.05681
C_ C_ 0.115691 0.411639 0.895623 -0.05681
C_ C_ 0.11809 0.442002 0.871809 -0.08735
C_ C_ 0.123219 0.49424 0.873677 -0.08735
C_ C_ 0.106068 0.406004 0.947701 -0.08735
C_ C_ 0.108125 0.353129 0.945282 -0.08735
C_ C_ 0.11759 0.32884 0.917935 -0.05681
C_ C_ 0.1135 0.358898 0.89282 -0.08735
C_ C_ 0.0369082 0.168117 0.911263 0.68181
C_ C_ 0.109693 0.120774 0.984733 0.1947
C_ C_ 0.111265 0.106304 0.517026 -0.08735
C_ C_ 0.131629 0.137309 0.53895 -0.08735
C_ C_ 0.154692 0.182612 0.531112 -0.05681
C_ C_ 0.163554 0.195233 0.501622 0.18498
C_ C_ 0.19132 0.228425 0.994103 -0.08735
C_ C_ 0.198652 0.275248 0.514205 -0.08735
C_ C_ 0.196146 0.262249 0.543708 -0.08735
C_ C_ 0.169409 0.218744 0.552507 0.18498
C_ C_ 0.197175 0.195854 0.601422 0.44287
C_ C_ 0.110451 0.212502 0.59413 0.44287
C_ C_ 0.0989573 0.194349 0.6225 -0.05681
C_ C_ 0.0503657 0.193135 0.634022 -0.08735
C_ C_ 0.0437162 0.183156 0.662148 -0.08735
C_ C_ 0.084127 0.177627 0.681457 -0.05681
C_ C_ 0.135092 0.179305 0.670737 -0.05681
C_ C_ 0.141281 0.184114 0.641043 -0.05681
C_ C_ 0.190104 0.184794 0.630909 -0.05681
C_ C_ 0.230888 0.171859 0.64816 -0.08735
C_ C_ 0.225975 0.172278 0.677877 -0.08735
C_ C_ 0.176354 0.176934 0.689737 -0.05681
C_ C_ 0.164601 0.172159 0.71982 0.44287
C_ C_ 0.0772844 0.180998 0.711389 0.44287
C_ C_ 0.104451 0.161928 0.759452 0.18498
C_ C_ 0.0776569 0.115996 0.764167 -0.08735
C_ C_ 0.0749192 0.0959048 0.791554 -0.08735
C_ C_ 0.0949413 0.121824 0.815565 -0.08735
C_ C_ 0.116732 0.170572 0.812659 0.18498
C_ C_ 0.126711 0.188785 0.784267 -0.05681
C_ C_ 0.145017 0.236991 0.782417 -0.08735
C_ C_ 0.159312 0.26425 0.806619 -0.08735
C_ C_ 0.155424 0.242548 0.83353 0.1947
C_ C_ 0.270561 0.320611 0.654856 0.68181
C_ C_ 0.214298 0.315748 0.648228 -0.05681
C_ C_ 0.181371 0.311986 0.671857 -0.08735
C_ C_ 0.129404 0.3173 0.667661 -0.05681
C_ C_ 0.109242 0.32492 0.638812 -0.05681
C_ C_ 0.14433 0.33088 0.616487 -0.08735
C_ C_ 0.196453 0.330778 0.620963 -0.08735
C_ C_ 0.0951987 0.30164 0.68901 -0.08735
C_ C_ 0.0428967 0.307751 0.685814 -0.08735
C_ C_ 0.0221776 0.315961 0.658292 -0.05681
C_ C_ 0.0559841 0.327546 0.635753 -0.08735
C_ C_ 0.380331 0.220579 0.665138 0.68181
C_ C_ 0.363489 0.418147 0.651786 0.68181
C_ C_ 0.362277 0.473465 0.648233 -0.05681
C_ C_ 0.354663 0.00608241 0.670247 -0.08735
C_ C_ 0.36068 0.0597816 0.668297 -0.05681
C_ C_ 0.369991 0.081768 0.641422 -0.05681
C_ C_ 0.360474 0.0505191 0.616985 -0.08735
C_ C_ 0.380211 0.495621 0.621892 -0.08735
C_ C_ 0.371251 0.0864674 0.693493 -0.08735
C_ C_ 0.383454 0.138583 0.692105 -0.08735
C_ C_ 0.381531 0.163908 0.665865 -0.05681
C_ C_ 0.382156 0.135074 0.640895 -0.08735
C_ C_ 0.466769 0.325162 0.661389 0.68181
C_ C_ 0.393442 0.381409 0.734363 0.1947
C_ C_ 0.398854 0.395882 0.761328 -0.08735
C_ C_ 0.386422 0.36525 0.784244 -0.08735
C_ C_ 0.352382 0.325276 0.78135 -0.05681
C_ C_ 0.342171 0.31338 0.751264 0.18498
C_ C_ 0.302859 0.278182 0.74681 -0.08735
C_ C_ 0.27934 0.25306 0.769525 -0.08735
C_ C_ 0.295495 0.258314 0.797247 -0.08735
C_ C_ 0.334973 0.29328 0.804289 0.18498
C_ C_ 0.30955 0.315648 0.853776 0.44287
C_ C_ 0.394338 0.295278 0.845718 0.44287
C_ C_ 0.408706 0.309873 0.873815 -0.05681
C_ C_ 0.458516 0.305848 0.884953 -0.08735
C_ C_ 0.469175 0.311711 0.914803 -0.08735
C_ C_ 0.429776 0.323137 0.934277 -0.05681
C_ C_ 0.380973 0.329161 0.923568 -0.05681
C_ C_ 0.370969 0.323034 0.894177 -0.05681
C_ C_ 0.318878 0.319564 0.883542 -0.05681
C_ C_ 0.278852 0.318634 0.903372 -0.08735
C_ C_ 0.290861 0.337027 0.931747 -0.08735
C_ C_ 0.340208 0.340816 0.941047 -0.05681
C_ C_ 0.352604 0.344837 0.971108 0.44287
C_ C_ 0.439648 0.325147 0.963334 0.44287
C_ C_ 0.402034 0.349025 0.510483 0.18498
C_ C_ 0.431383 0.392811 0.516242 -0.08735
C_ C_ 0.442602 0.405048 0.544856 -0.08735
C_ C_ 0.422996 0.377252 0.567738 -0.08735
C_ C_ 0.395127 0.332029 0.563319 0.18498
C_ C_ 0.387199 0.31572 0.53311 -0.05681
C_ C_ 0.359777 0.273112 0.529846 -0.08735
C_ C_ 0.347936 0.241328 0.55229 -0.08735
C_ C_ 0.356082 0.257177 0.581493 0.1947
N_ N_ 0.140332 0.159184 0.978781 -0.29468
N_ N_ 0.157353 0.210614 0.583888 -0.17154
N_ N_ 0.116396 0.177182 0.729963 -0.17154
N_ N_ 0.137538 0.19377 0.835621 -0.29468
N_ N_ 0.366737 0.337624 0.7295 -0.29468
N_ N_ 0.346901 0.300934 0.834481 -0.17154
N_ N_ 0.400576 0.335712 0.981855 -0.17154
N_ N_ 0.38265 0.302119 0.585773 -0.29468
O_ O_ 0.21772 0.172265 0.930107 -0.58347
O_ O_ 0.202012 0.183741 0.884992 -0.58347
O_ O_ 0.137728 0.248024 0.937376 -0.58347
O_ O_ 0.110859 0.247795 0.893329 -0.58347
O_ O_ 0.137554 0.0941602 0.924805 -0.58347
O_ O_ 0.147782 0.102284 0.877846 -0.58347
O_ O_ 0.0658615 0.172488 0.933284 -0.58347
O_ O_ 0.0560186 0.16473 0.886543 -0.58347
O_ O_ 0.0745444 0.231367 0.578889 -0.46727
O_ O_ 0.244048 0.191557 0.590478 -0.46727
O_ O_ 0.031022 0.185722 0.721006 -0.46727
O_ O_ 0.203936 0.166128 0.738245 -0.46727
O_ O_ 0.286834 0.330312 0.680058 -0.58347
O_ O_ 0.302332 0.303038 0.637597 -0.58347
O_ O_ 0.358226 0.245972 0.684529 -0.58347
O_ O_ 0.400889 0.243529 0.644036 -0.58347
O_ O_ 0.367961 0.400343 0.676761 -0.58347
O_ O_ 0.362118 0.387972 0.629991 -0.58347
O_ O_ 0.436212 0.320021 0.682768 -0.58347
O_ O_ 0.450871 0.329529 0.635827 -0.58347
O_ O_ 0.430962 0.281641 0.828697 -0.46727
O_ O_ 0.262373 0.321717 0.845025 -0.46727
O_ O_ 0.488321 0.324424 0.970912 -0.46727
O_ O_ 0.316655 0.353604 0.989586 -0.46727
Zn Zn 0.116805 0.687509 0.387998 0.90689
Zn Zn 0.129456 0.676887 0.435617 0.90689
Zn Zn 0.372091 0.822932 0.133562 0.90689
Zn Zn 0.360358 0.829907 0.18042 0.90689
H_ H_ 0.298915 0.694178 0.447887 0.11455
H_ H_ 0.363946 0.654923 0.353878 0.11455
H_ H_ 0.269751 0.654974 0.36171 0.11455
H_ H_ 0.384976 0.690887 0.467281 0.11455
H_ H_ 0.475929 0.685919 0.460485 0.11455
H_ H_ 0.453437 0.658595 0.371887 0.11455
H_ H_ 0.141179 0.510432 0.446641 0.11455
H_ H_ 0.150277 0.933978 0.351011 0.11455
H_ H_ 0.105499 0.527666 0.35632 0.11455
H_ H_ 0.114566 0.932865 0.467969 0.11455
H_ H_ 0.110659 0.837958 0.46555 0.11455
H_ H_ 0.128558 0.849447 0.372867 0.11455
H_ H_ 0.0751693 0.597089 0.471059 0.11455
H_ H_ 0.0949514 0.556046 0.0186409 0.11455
H_ H_ 0.124086 0.611956 0.0585986 0.11455
H_ H_ 0.181368 0.738203 0.475529 0.11455
H_ H_ 0.216396 0.799834 0.0171639 0.11455
H_ H_ 0.18057 0.781732 0.0670841 0.11455
H_ H_ 0.00981464 0.679465 0.12286 0.11455
H_ H_ -0.005399000000000043 0.664022 0.172825 0.11455
H_ H_ 0.260448 0.691729 0.146402 0.11455
H_ H_ 0.246424 0.685385 0.197746 0.11455
H_ H_ 0.0702595 0.58986 0.250355 0.11455
H_ H_ 0.0531544 0.559132 0.300622 0.11455
H_ H_ 0.068082 0.616757 0.342319 0.11455
H_ H_ 0.136396 0.760093 0.264971 0.11455
H_ H_ 0.171991 0.803881 0.308294 0.11455
H_ H_ 0.171373 0.766236 0.355168 0.11455
H_ H_ 0.190802 0.800611 0.191583 0.11455
H_ H_ 0.124755 0.851687 0.097868 0.11455
H_ H_ 0.21543 0.851725 0.108022 0.11455
H_ H_ 0.0965274 0.79507 0.211574 0.11455
H_ H_ 0.00967123 0.805627 0.202324 0.11455
H_ H_ 0.0388286 0.829681 0.112664 0.11455
H_ H_ 0.36145 1.000417468 0.194268 0.11455
H_ H_ 0.418118 0.574086 0.0997815 0.11455
H_ H_ 0.385341 0.986095 0.103938 0.11455
H_ H_ 0.320543 0.577945 0.205694 0.11455
H_ H_ 0.333597 0.667563 0.204707 0.11455
H_ H_ 0.405717 0.661542 0.121699 0.11455
H_ H_ 0.42417 0.893263 0.216572 0.11455
H_ H_ 0.458261 0.903742 0.266704 0.11455
H_ H_ 0.408091 0.875461 0.306328 0.11455
H_ H_ 0.29787 0.77302 0.222179 0.11455
H_ H_ 0.255222 0.7264 0.26447 0.11455
H_ H_ 0.278861 0.741747 0.311338 0.11455
H_ H_ 0.477872 0.796392 0.372232 0.11455
H_ H_ 0.487022 0.798805 0.42347 0.11455
H_ H_ 0.228373 0.848099 0.388732 0.11455
H_ H_ 0.242746 0.862047 0.439836 0.11455
H_ H_ 0.433672 0.90558 0.499809 0.11455
H_ H_ 0.435637 0.950978 0.0462249 0.11455
H_ H_ 0.419889 0.896876 0.0866059 0.11455
H_ H_ 0.343155 0.755294 0.00816828 0.11455
H_ H_ 0.295631 0.721565 0.0486831 0.11455
H_ H_ 0.310309 0.754654 0.0991896 0.11455
C_ C_ 0.223059 0.684702 0.409579 0.68181
C_ C_ 0.278127 0.681116 0.405087 -0.05681
C_ C_ 0.312923 0.688299 0.426864 -0.08735
C_ C_ 0.366619 0.688262 0.422634 -0.05681
C_ C_ 0.385095 0.677016 0.395644 -0.05681
C_ C_ 0.348883 0.665404 0.374214 -0.08735
C_ C_ 0.29666 0.669673 0.378025 -0.08735
C_ C_ 0.400251 0.687543 0.446153 -0.08735
C_ C_ 0.452463 0.679046 0.442354 -0.08735
C_ C_ 0.471384 0.674039 0.413665 -0.05681
C_ C_ 0.438435 0.671171 0.391385 -0.08735
C_ C_ 0.114732 0.780057 0.417017 0.68181
C_ C_ 0.128374 0.585114 0.406514 0.68181
C_ C_ 0.127956 0.527631 0.402102 -0.05681
C_ C_ 0.147094 0.993814 0.427293 -0.08735
C_ C_ 0.135144 0.941563 0.423024 -0.05681
C_ C_ 0.128982 0.920672 0.396197 -0.05681
C_ C_ 0.142997 0.951617 0.372189 -0.08735
C_ C_ 0.147613 1.00392 0.374691 -0.08735
C_ C_ 0.123498 0.914142 0.448197 -0.08735
C_ C_ 0.117838 0.859594 0.446318 -0.08735
C_ C_ 0.118893 0.836756 0.420028 -0.05681
C_ C_ 0.124601 0.868086 0.394515 -0.08735
C_ C_ 0.0236189 0.680792 0.409036 0.68181
C_ C_ 0.0908024 0.620638 0.48805 0.1947
C_ C_ 0.111247 0.593316 0.0143207 -0.08735
C_ C_ 0.123922 0.624183 0.0370378 -0.08735
C_ C_ 0.138008 0.675578 0.0329118 -0.05681
C_ C_ 0.144609 0.690342 1.00387625 0.18498
C_ C_ 0.177467 0.727308 0.497844 -0.08735
C_ C_ 0.190296 0.767232 0.0214246 -0.08735
C_ C_ 0.173429 0.755789 0.0489217 -0.08735
C_ C_ 0.154725 0.708053 0.0560755 0.18498
C_ C_ 0.190108 0.690221 0.103606 0.44287
C_ C_ 0.103083 0.692837 0.0968689 0.44287
C_ C_ 0.0920565 0.68716 0.12635 -0.05681
C_ C_ 0.0423293 0.67973 0.137455 -0.08735
C_ C_ 0.0334375 0.677013 0.166195 -0.08735
C_ C_ 0.072319 0.678658 0.186306 -0.05681
C_ C_ 0.122398 0.684608 0.175179 -0.05681
C_ C_ 0.13306 0.688457 0.145065 -0.05681
C_ C_ 0.182936 0.686477 0.133599 -0.05681
C_ C_ 0.222639 0.681738 0.153189 -0.08735
C_ C_ 0.215165 0.684148 0.18246 -0.08735
C_ C_ 0.164564 0.680736 0.192844 -0.05681
C_ C_ 0.155546 0.676688 0.223253 0.44287
C_ C_ 0.0675025 0.679984 0.215829 0.44287
C_ C_ 0.0968515 0.663332 0.263845 0.18498
C_ C_ 0.078053 0.614924 0.268726 -0.08735
C_ C_ 0.0724486 0.596836 0.297887 -0.08735
C_ C_ 0.0789426 0.631173 0.32122 -0.08735
C_ C_ 0.106458 0.675061 0.317098 0.18498
C_ C_ 0.112922 0.693872 0.287869 -0.05681
C_ C_ 0.137584 0.741963 0.285121 -0.08735
C_ C_ 0.157128 0.767322 0.309437 -0.08735
C_ C_ 0.156187 0.743502 0.336402 0.1947
C_ C_ 0.267353 0.826583 0.156507 0.68181
C_ C_ 0.211375 0.825357 0.1513 -0.05681
C_ C_ 0.176586 0.818347 0.173891 -0.08735
C_ C_ 0.122193 0.820833 0.168855 -0.05681
C_ C_ 0.102849 0.836021 0.141851 -0.05681
C_ C_ 0.139145 0.840976 0.118595 -0.08735
C_ C_ 0.191159 0.835157 0.123269 -0.08735
C_ C_ 0.0855199 0.808783 0.190193 -0.08735
C_ C_ 0.033912 0.811965 0.185156 -0.08735
C_ C_ 0.0169473 0.824013 0.157442 -0.05681
C_ C_ 0.0515661 0.833135 0.135533 -0.08735
C_ C_ 0.373307 0.72727 0.162196 0.68181
C_ C_ 0.366904 0.92828 0.152949 0.68181
C_ C_ 0.372751 0.985521 0.150376 -0.05681
C_ C_ 0.364241 0.50978 0.167986 -0.08735
C_ C_ 0.366517 0.564453 0.167453 -0.05681
C_ C_ 0.391055 0.587254 0.14425 -0.05681
C_ C_ 0.407989 0.55707 0.120684 -0.08735
C_ C_ 0.386189 0.00964767 0.123996 -0.08735
C_ C_ 0.346227 0.592889 0.189411 -0.08735
C_ C_ 0.351922 0.646285 0.188255 -0.08735
C_ C_ 0.372767 0.672031 0.164967 -0.05681
C_ C_ 0.390123 0.641654 0.141651 -0.08735
C_ C_ 0.466077 0.8267 0.156199 0.68181
C_ C_ 0.401145 0.879171 0.234978 0.1947
C_ C_ 0.420914 0.886497 0.262683 -0.08735
C_ C_ 0.396712 0.861414 0.28498 -0.08735
C_ C_ 0.355621 0.828657 0.279939 -0.05681
C_ C_ 0.343626 0.817187 0.25097 0.18498
C_ C_ 0.308727 0.778987 0.24404 -0.08735
C_ C_ 0.285372 0.75323 0.266068 -0.08735
C_ C_ 0.299677 0.763345 0.294903 -0.08735
C_ C_ 0.331012 0.802359 0.302018 0.18498
C_ C_ 0.300649 0.831407 0.348362 0.44287
C_ C_ 0.386168 0.800303 0.343557 0.44287
C_ C_ 0.39526 0.810532 0.373308 -0.05681
C_ C_ 0.444202 0.804898 0.384739 -0.08735
C_ C_ 0.449334 0.806625 0.414655 -0.08735
C_ C_ 0.409253 0.816428 0.433715 -0.05681
C_ C_ 0.361986 0.825949 0.421949 -0.05681
C_ C_ 0.354891 0.824667 0.391359 -0.05681
C_ C_ 0.306807 0.835642 0.378059 -0.05681
C_ C_ 0.266662 0.847637 0.39661 -0.08735
C_ C_ 0.274408 0.851935 0.426351 -0.08735
C_ C_ 0.320563 0.839878 0.439464 -0.05681
C_ C_ 0.329194 0.840785 0.469959 0.44287
C_ C_ 0.414818 0.814786 0.464062 0.44287
C_ C_ 0.380948 0.850554 0.00811342 0.18498
C_ C_ 0.401803 0.899061 0.0136735 -0.08735
C_ C_ 0.412339 0.916204 0.0419827 -0.08735
C_ C_ 0.405235 0.884434 0.0653975 -0.08735
C_ C_ 0.380546 0.838564 0.0614955 0.18498
C_ C_ 0.371806 0.820326 0.0324091 -0.05681
C_ C_ 0.345319 0.77584 0.0287932 -0.08735
C_ C_ 0.32426 0.750761 0.0522292 -0.08735
C_ C_ 0.33221 0.770241 0.0809625 0.1947
N_ N_ 0.120151 0.660951 0.481567 -0.29468
N_ N_ 0.150466 0.691522 0.0854796 -0.17154
N_ N_ 0.107995 0.679763 0.233795 -0.17154
N_ N_ 0.128856 0.699656 0.34003 -0.29468
N_ N_ 0.363706 0.84459 0.229118 -0.29468
N_ N_ 0.340993 0.813426 0.331536 -0.17154
N_ N_ 0.374952 0.829118 0.480981 -0.17154
N_ N_ 0.364773 0.810493 0.0844719 -0.29468
O_ O_ 0.205448 0.677522 0.434746 -0.58347
O_ O_ 0.194381 0.694726 0.389683 -0.58347
O_ O_ 0.125757 0.753877 0.438874 -0.58347
O_ O_ 0.105396 0.761292 0.393245 -0.58347
O_ O_ 0.133166 0.602856 0.431606 -0.58347
O_ O_ 0.123704 0.61428 0.384811 -0.58347
O_ O_ 0.0499337 0.675331 0.431748 -0.58347
O_ O_ 0.0416909 0.680282 0.384282 -0.58347
O_ O_ 0.0645584 0.697191 0.0784779 -0.46727
O_ O_ 0.235267 0.685553 0.0917699 -0.46727
O_ O_ 0.0201681 0.679941 0.226412 -0.46727
O_ O_ 0.194648 0.671393 0.240416 -0.46727
O_ O_ 0.28531 0.832895 0.181525 -0.58347
O_ O_ 0.298177 0.820247 0.134324 -0.58347
O_ O_ 0.35906 0.753503 0.182909 -0.58347
O_ O_ 0.378502 0.749052 0.138553 -0.58347
O_ O_ 0.358675 0.907439 0.17794 -0.58347
O_ O_ 0.369433 0.899068 0.13086 -0.58347
O_ O_ 0.437684 0.829021 0.179708 -0.58347
O_ O_ 0.444694 0.827574 0.131304 -0.58347
O_ O_ 0.420644 0.775889 0.329264 -0.46727
O_ O_ 0.256857 0.843234 0.337004 -0.46727
O_ O_ 0.459623 0.817375 0.474467 -0.46727
O_ O_ 0.292066 0.856083 0.486839 -0.46727
Zn Zn 0.122525 0.676903 0.885736 0.90689
Zn Zn 0.13402 0.678824 0.933983 0.90689
Zn Zn 0.36513 0.81332 0.631218 0.90689
Zn Zn 0.350981 0.824755 0.67904 0.90689
H_ H_ 0.305845 0.6795 0.954389 0.11455
H_ H_ 0.362608 0.650042 0.854287 0.11455
H_ H_ 0.275809 0.673107 0.862431 0.11455
H_ H_ 0.394525 0.694223 0.970254 0.11455
H_ H_ 0.479773 0.717935 0.954699 0.11455
H_ H_ 0.455738 0.649456 0.872876 0.11455
H_ H_ 0.126393 0.508085 0.946524 0.11455
H_ H_ 0.14102 0.929567 0.847854 0.11455
H_ H_ 0.115652 0.516482 0.855488 0.11455
H_ H_ 0.162726 0.922839 0.964584 0.11455
H_ H_ 0.134542 0.836779 0.964432 0.11455
H_ H_ 0.129778 0.841165 0.873538 0.11455
H_ H_ 0.0940152 0.592355 0.968579 0.11455
H_ H_ 0.0508984 0.581936 0.520735 0.11455
H_ H_ 0.100118 0.618501 0.561082 0.11455
H_ H_ 0.196643 0.738995 0.978004 0.11455
H_ H_ 0.220003 0.791187 0.514582 0.11455
H_ H_ 0.200545 0.770337 0.56541 0.11455
H_ H_ 1.0129604 0.699979 0.623585 0.11455
H_ H_ 0.998198 0.690698 0.67561 0.11455
H_ H_ 0.263329 0.664299 0.643401 0.11455
H_ H_ 0.249624 0.65663 0.693368 0.11455
H_ H_ 0.0503025 0.585291 0.75501 0.11455
H_ H_ 0.0223108 0.573387 0.803072 0.11455
H_ H_ 0.0629666 0.620079 0.84289 0.11455
H_ H_ 0.155891 0.738079 0.762463 0.11455
H_ H_ 0.193198 0.782618 0.803616 0.11455
H_ H_ 0.172491 0.752747 0.852576 0.11455
H_ H_ 0.181177 0.785616 0.693419 0.11455
H_ H_ 0.118254 0.826324 0.595225 0.11455
H_ H_ 0.211497 0.828613 0.603882 0.11455
H_ H_ 0.0905839 0.800947 0.712639 0.11455
H_ H_ -0.00134672 0.798356 0.699706 0.11455
H_ H_ 0.031636 0.824667 0.612839 0.11455
H_ H_ 0.358323 0.986399 0.690093 0.11455
H_ H_ 0.386242 0.563098 0.595796 0.11455
H_ H_ 0.357195 0.975482 0.601196 0.11455
H_ H_ 0.365605 0.573848 0.714584 0.11455
H_ H_ 0.36578 0.662848 0.710371 0.11455
H_ H_ 0.374049 0.649774 0.617636 0.11455
H_ H_ 0.392335 0.903188 0.713107 0.11455
H_ H_ 0.404083 0.93782 0.761768 0.11455
H_ H_ 0.38805 0.881717 0.803321 0.11455
H_ H_ 0.311527 0.751981 0.723157 0.11455
H_ H_ 0.276557 0.698074 0.763512 0.11455
H_ H_ 0.302371 0.719799 0.813235 0.11455
H_ H_ 0.486098 0.79674 0.875535 0.11455
H_ H_ 0.489202 0.801647 0.927728 0.11455
H_ H_ 0.231886 0.827671 0.884028 0.11455
H_ H_ 0.240589 0.844724 0.935668 0.11455
H_ H_ 0.410614 0.92325 0.996884 0.11455
H_ H_ 0.451859 0.927652 0.548901 0.11455
H_ H_ 0.424218 0.87506 0.59024 0.11455
H_ H_ 0.325603 0.755899 0.50633 0.11455
H_ H_ 0.28877 0.711938 0.54435 0.11455
H_ H_ 0.308439 0.740741 0.596021 0.11455
C_ C_ 0.230181 0.679159 0.913685 0.68181
C_ C_ 0.28388 0.676555 0.909219 -0.05681
C_ C_ 0.318698 0.677242 0.932533 -0.08735
C_ C_ 0.370557 0.675991 0.927166 -0.05681
C_ C_ 0.387989 0.662753 0.898793 -0.05681
C_ C_ 0.35359 0.663701 0.876253 -0.08735
C_ C_ 0.302332 0.672757 0.881184 -0.08735
C_ C_ 0.405569 0.687656 0.948856 -0.08735
C_ C_ 0.456399 0.694801 0.9415 -0.08735
C_ C_ 0.474466 0.675453 0.915618 -0.05681
C_ C_ 0.440223 0.657401 0.894589 -0.08735
C_ C_ 0.121276 0.776218 0.917724 0.68181
C_ C_ 0.130167 0.575553 0.900818 0.68181
C_ C_ 0.129912 0.518785 0.899864 -0.05681
C_ C_ 0.154572 0.990188 0.922218 -0.08735
C_ C_ 0.14706 0.937195 0.920991 -0.05681
C_ C_ 0.136383 0.913978 0.894645 -0.05681
C_ C_ 0.138183 0.942508 0.869368 -0.08735
C_ C_ 0.143025 -0.004167000000000032 0.871459 -0.08735
C_ C_ 0.150767 0.906734 0.945178 -0.08735
C_ C_ 0.131073 0.858233 0.945133 -0.08735
C_ C_ 0.123576 0.832698 0.919255 -0.05681
C_ C_ 0.126412 0.861357 0.893904 -0.08735
C_ C_ 0.0280943 0.678409 0.909229 0.68181
C_ C_ 0.109651 0.613443 0.986267 0.1947
C_ C_ 0.0823349 0.60549 0.516296 -0.08735
C_ C_ 0.103859 0.634031 0.539138 -0.08735
C_ C_ 0.133516 0.67676 0.533117 -0.05681
C_ C_ 0.143871 0.687991 0.503258 0.18498
C_ C_ 0.173435 0.735893 0.998461 -0.08735
C_ C_ 0.194548 0.758694 0.519484 -0.08735
C_ C_ 0.184084 0.746951 0.547877 -0.08735
C_ C_ 0.154636 0.705383 0.554622 0.18498
C_ C_ 0.187633 0.677657 0.602295 0.44287
C_ C_ 0.099714 0.698455 0.596385 0.44287
C_ C_ 0.0909658 0.689189 0.624944 -0.05681
C_ C_ 0.0438463 0.694654 0.637542 -0.08735
C_ C_ 0.0361359 0.682915 0.667094 -0.08735
C_ C_ 0.0768566 0.671086 0.684517 -0.05681
C_ C_ 0.125102 0.670411 0.673134 -0.05681
C_ C_ 0.13315 0.674172 0.64276 -0.05681
C_ C_ 0.18198 0.672557 0.631813 -0.05681
C_ C_ 0.225189 0.667127 0.650938 -0.08735
C_ C_ 0.216772 0.660072 0.679311 -0.08735
C_ C_ 0.167312 0.662339 0.690937 -0.05681
C_ C_ 0.157529 0.659813 0.7206 0.44287
C_ C_ 0.0700307 0.671028 0.714204 0.44287
C_ C_ 0.0988199 0.650802 0.762567 0.18498
C_ C_ 0.0651205 0.612881 0.769912 -0.08735
C_ C_ 0.0512468 0.602945 0.798525 -0.08735
C_ C_ 0.0730297 0.629787 0.821042 -0.08735
C_ C_ 0.11127 0.6635 0.816014 0.18498
C_ C_ 0.119142 0.680016 0.787407 -0.05681
C_ C_ 0.148033 0.724174 0.783448 -0.08735
C_ C_ 0.167174 0.75206 0.806191 -0.08735
C_ C_ 0.159988 0.732114 0.833866 0.1947
C_ C_ 0.258959 0.808363 0.655673 0.68181
C_ C_ 0.203019 0.811308 0.651207 -0.05681
C_ C_ 0.167718 0.801188 0.674032 -0.08735
C_ C_ 0.113727 0.805287 0.668286 -0.05681
C_ C_ 0.097488 0.808199 0.638772 -0.05681
C_ C_ 0.13253 0.81778 0.617193 -0.08735
C_ C_ 0.184337 0.817976 0.622986 -0.08735
C_ C_ 0.0779803 0.800712 0.689867 -0.08735
C_ C_ 0.0270666 0.806784 0.684177 -0.08735
C_ C_ 0.00957345 0.812381 0.656366 -0.05681
C_ C_ 0.045946 0.816793 0.634223 -0.08735
C_ C_ 0.374714 0.720095 0.66101 0.68181
C_ C_ 0.350318 0.919028 0.650156 0.68181
C_ C_ 0.349531 0.976577 0.646109 -0.05681
C_ C_ 0.363838 0.504406 0.671831 -0.08735
C_ C_ 0.367591 0.557057 0.668678 -0.05681
C_ C_ 0.375735 0.579659 0.641636 -0.05681
C_ C_ 0.383396 0.548892 0.617003 -0.08735
C_ C_ 0.358704 0.99696387 0.619987 -0.08735
C_ C_ 0.366598 0.589655 0.69296 -0.08735
C_ C_ 0.368266 0.641413 0.690444 -0.08735
C_ C_ 0.37301 0.663905 0.663778 -0.05681
C_ C_ 0.373501 0.631988 0.638947 -0.08735
C_ C_ 0.453224 0.833794 0.655095 0.68181
C_ C_ 0.387949 0.879252 0.731364 0.1947
C_ C_ 0.394229 0.899173 0.758432 -0.08735
C_ C_ 0.382825 0.869793 0.782644 -0.08735
C_ C_ 0.361378 0.819379 0.778149 -0.05681
C_ C_ 0.350409 0.804657 0.749774 0.18498
C_ C_ 0.318847 0.76257 0.744386 -0.08735
C_ C_ 0.300999 0.733614 0.767604 -0.08735
C_ C_ 0.315808 0.744483 0.795188 -0.08735
C_ C_ 0.346207 0.788918 0.801469 0.18498
C_ C_ 0.311926 0.81335 0.847006 0.44287
C_ C_ 0.400033 0.803046 0.843015 0.44287
C_ C_ 0.403624 0.809047 0.873414 -0.05681
C_ C_ 0.450859 0.805481 0.887214 -0.08735
C_ C_ 0.454789 0.807342 0.917167 -0.08735
C_ C_ 0.413476 0.81804 0.933343 -0.05681
C_ C_ 0.365338 0.822322 0.920071 -0.05681
C_ C_ 0.359952 0.814861 0.890345 -0.05681
C_ C_ 0.314612 0.814865 0.876953 -0.05681
C_ C_ 0.270437 0.828535 0.893255 -0.08735
C_ C_ 0.275059 0.839169 0.922734 -0.08735
C_ C_ 0.321623 0.835222 0.936618 -0.05681
C_ C_ 0.326594 0.84085 0.965445 0.44287
C_ C_ 0.416471 0.82533 0.962618 0.44287
C_ C_ 0.384622 0.842556 0.511035 0.18498
C_ C_ 0.417702 0.882927 0.517506 -0.08735
C_ C_ 0.428315 0.895165 0.545671 -0.08735
C_ C_ 0.409366 0.867957 0.569054 -0.08735
C_ C_ 0.378524 0.824319 0.562843 0.18498
C_ C_ 0.367343 0.80948 0.533871 -0.05681
C_ C_ 0.333375 0.769226 0.528114 -0.08735
C_ C_ 0.315151 0.743709 0.550708 -0.08735
C_ C_ 0.324714 0.76076 0.578814 0.1947
N_ N_ 0.1288 0.660654 0.980913 -0.29468
N_ N_ 0.147063 0.694582 0.585781 -0.17154
N_ N_ 0.108481 0.659655 0.731864 -0.17154
N_ N_ 0.132745 0.68758 0.838412 -0.29468
N_ N_ 0.362888 0.834548 0.727394 -0.29468
N_ N_ 0.35344 0.802288 0.830887 -0.17154
N_ N_ 0.373883 0.835706 0.978057 -0.17154
N_ N_ 0.356821 0.798643 0.585045 -0.29468
O_ O_ 0.209984 0.672643 0.937704 -0.58347
O_ O_ 0.201855 0.683504 0.89159 -0.58347
O_ O_ 0.130898 0.751713 0.940534 -0.58347
O_ O_ 0.11872 0.752776 0.89382 -0.58347
O_ O_ 0.13509 0.599338 0.924699 -0.58347
O_ O_ 0.123822 0.603198 0.878685 -0.58347
O_ O_ 0.0571903 0.678653 0.930324 -0.58347
O_ O_ 0.0462113 0.678036 0.883828 -0.58347
O_ O_ 0.0681568 0.726083 0.583069 -0.46727
O_ O_ 0.231674 0.679727 0.590423 -0.46727
O_ O_ 0.0239045 0.678323 0.725549 -0.46727
O_ O_ 0.196376 0.650196 0.738273 -0.46727
O_ O_ 0.278625 0.808976 0.680629 -0.58347
O_ O_ 0.28817 0.805048 0.633984 -0.58347
O_ O_ 0.36911 0.749169 0.682943 -0.58347
O_ O_ 0.369165 0.739331 0.636767 -0.58347
O_ O_ 0.333075 0.897914 0.672972 -0.58347
O_ O_ 0.356474 0.890825 0.628304 -0.58347
O_ O_ 0.423962 0.842913 0.675987 -0.58347
O_ O_ 0.435499 0.820103 0.630705 -0.58347
O_ O_ 0.440682 0.795427 0.827267 -0.46727
O_ O_ 0.267034 0.812474 0.834529 -0.46727
O_ O_ 0.459793 0.827177 0.976292 -0.46727
O_ O_ 0.286605 0.848892 0.980906 -0.46727
Zn Zn 0.634467 0.18816 0.384016 0.90689
Zn Zn 0.642303 0.178983 0.431385 0.90689
Zn Zn 0.885585 0.325918 0.129983 0.90689
Zn Zn 0.880375 0.326297 0.177987 0.90689
H_ H_ 0.81069 0.189112 0.446021 0.11455
H_ H_ 0.875928 0.15778 0.3486 0.11455
H_ H_ 0.785356 0.173594 0.353798 0.11455
H_ H_ 0.894258 0.165408 0.466832 0.11455
H_ H_ 0.983694 0.179474 0.459211 0.11455
H_ H_ 0.963396 0.168104 0.365518 0.11455
H_ H_ 0.6403 0.0152278 0.444728 0.11455
H_ H_ 0.619463 0.434964 0.34922 0.11455
H_ H_ 0.672156 0.0295066 0.354784 0.11455
H_ H_ 0.669319 0.429294 0.464064 0.11455
H_ H_ 0.661477 0.338998 0.459302 0.11455
H_ H_ 0.63512 0.351097 0.367395 0.11455
H_ H_ 0.582523 0.10087 0.467996 0.11455
H_ H_ 0.563297 0.0827533 0.010764 0.11455
H_ H_ 0.598576 0.120416 0.0529173 0.11455
H_ H_ 0.701524 0.239054 0.475158 0.11455
H_ H_ 0.7397 0.287037 0.0175279 0.11455
H_ H_ 0.715003 0.265768 0.0652573 0.11455
H_ H_ 0.519277 0.219232 0.124628 0.11455
H_ H_ 0.503196 0.196081 0.174261 0.11455
H_ H_ 0.760819 0.147578 0.141339 0.11455
H_ H_ 0.748601 0.135901 0.190729 0.11455
H_ H_ 0.5599 0.0876131 0.254012 0.11455
H_ H_ 0.550398 0.0607825 0.302834 0.11455
H_ H_ 0.582225 0.115327 0.343215 0.11455
H_ H_ 0.664991 0.235631 0.257326 0.11455
H_ H_ 0.702638 0.281942 0.297758 0.11455
H_ H_ 0.686965 0.261987 0.346217 0.11455
H_ H_ 0.716253 0.288146 0.193098 0.11455
H_ H_ 0.640039 0.330867 0.0991328 0.11455
H_ H_ 0.728788 0.332304 0.105661 0.11455
H_ H_ 0.63249 0.30579 0.213451 0.11455
H_ H_ 0.540886 0.301758 0.21002 0.11455
H_ H_ 0.553387 0.331919 0.121327 0.11455
H_ H_ 0.895633 0.496803 0.186837 0.11455
H_ H_ 0.849722 0.0774672 0.0944731 0.11455
H_ H_ 0.887134 0.481863 0.096203 0.11455
H_ H_ 0.901958 0.0784872 0.209469 0.11455
H_ H_ 0.914661 0.165383 0.204691 0.11455
H_ H_ 0.859478 0.160433 0.116736 0.11455
H_ H_ 0.915254 0.410305 0.214813 0.11455
H_ H_ 0.931974 0.433601 0.265137 0.11455
H_ H_ 0.904092 0.376957 0.303521 0.11455
H_ H_ 0.816565 0.264446 0.216324 0.11455
H_ H_ 0.796264 0.201892 0.250904 0.11455
H_ H_ 0.810656 0.220173 0.303183 0.11455
H_ H_ 0.997702 0.288382 0.372495 0.11455
H_ H_ 0.00280079 0.306389 0.42428 0.11455
H_ H_ 0.747072 0.316946 0.377307 0.11455
H_ H_ 0.746966 0.306225 0.430244 0.11455
H_ H_ 0.911509 0.410836 0.495421 0.11455
H_ H_ 0.96327 0.443926 0.0429878 0.11455
H_ H_ 0.943518 0.390647 0.084658 0.11455
H_ H_ 0.844606 0.266096 0.00405801 0.11455
H_ H_ 0.805579 0.223539 0.0473673 0.11455
H_ H_ 0.823495 0.252583 0.0963168 0.11455
C_ C_ 0.736075 0.180164 0.404989 0.68181
C_ C_ 0.791239 0.180826 0.401587 -0.05681
C_ C_ 0.822337 0.178015 0.425009 -0.08735
C_ C_ 0.875165 0.171054 0.4213 -0.05681
C_ C_ 0.895514 0.165612 0.39349 -0.05681
C_ C_ 0.860685 0.162797 0.369882 -0.08735
C_ C_ 0.808821 0.169159 0.373814 -0.08735
C_ C_ 0.908205 0.173552 0.444519 -0.08735
C_ C_ 0.960785 0.171953 0.440408 -0.08735
C_ C_ 0.980391 0.174098 0.41246 -0.05681
C_ C_ 0.948774 0.168342 0.388013 -0.08735
C_ C_ 0.639517 0.282134 0.412389 0.68181
C_ C_ 0.645624 0.0855928 0.402424 0.68181
C_ C_ 0.646305 0.0312819 0.399595 -0.05681
C_ C_ 0.650694 0.496647 0.421497 -0.08735
C_ C_ 0.652661 0.444565 0.418144 -0.05681
C_ C_ 0.641098 0.421521 0.391669 -0.05681
C_ C_ 0.620854 0.450768 0.370624 -0.08735
C_ C_ 0.614029 0.504575 0.374211 -0.08735
C_ C_ 0.660508 0.413851 0.442598 -0.08735
C_ C_ 0.658758 0.361624 0.440095 -0.08735
C_ C_ 0.645978 0.337049 0.413805 -0.05681
C_ C_ 0.639064 0.368576 0.3897 -0.08735
C_ C_ 0.539026 0.181552 0.409843 0.68181
C_ C_ 0.606506 0.117737 0.483535 0.1947
C_ C_ 0.592428 0.110959 0.00827099 -0.08735
C_ C_ 0.609367 0.13807 0.0327067 -0.08735
C_ C_ 0.643778 0.179158 0.0286573 -0.05681
C_ C_ 0.660768 0.190231 1.0010028 0.18498
C_ C_ 0.679888 0.235568 0.494621 -0.08735
C_ C_ 0.714295 0.255905 0.0208204 -0.08735
C_ C_ 0.700243 0.24197 0.0487617 -0.08735
C_ C_ 0.663034 0.205164 0.052865 0.18498
C_ C_ 0.691945 0.180314 0.100615 0.44287
C_ C_ 0.604562 0.20052 0.0944028 0.44287
C_ C_ 0.596741 0.193521 0.124576 -0.05681
C_ C_ 0.549755 0.205009 0.13741 -0.08735
C_ C_ 0.542262 0.195245 0.165812 -0.08735
C_ C_ 0.582632 0.182568 0.184328 -0.05681
C_ C_ 0.630396 0.175504 0.172715 -0.05681
C_ C_ 0.637904 0.181189 0.141681 -0.05681
C_ C_ 0.68618 0.176537 0.129946 -0.05681
C_ C_ 0.724558 0.158156 0.149004 -0.08735
C_ C_ 0.718111 0.153332 0.178171 -0.08735
C_ C_ 0.668968 0.16072 0.190194 -0.05681
C_ C_ 0.660389 0.151589 0.219568 0.44287
C_ C_ 0.576581 0.18276 0.214528 0.44287
C_ C_ 0.60317 0.153538 0.261474 0.18498
C_ C_ 0.579357 0.108069 0.269725 -0.08735
C_ C_ 0.573688 0.094222 0.29794 -0.08735
C_ C_ 0.590053 0.126785 0.320184 -0.08735
C_ C_ 0.619543 0.170153 0.314451 0.18498
C_ C_ 0.627839 0.182919 0.284684 -0.05681
C_ C_ 0.658682 0.223723 0.278863 -0.08735
C_ C_ 0.680222 0.250329 0.302177 -0.08735
C_ C_ 0.671883 0.236287 0.329499 0.1947
C_ C_ 0.784186 0.319809 0.151547 0.68181
C_ C_ 0.728179 0.314452 0.149446 -0.05681
C_ C_ 0.69794 0.303732 0.173911 -0.08735
C_ C_ 0.64562 0.309615 0.170949 -0.05681
C_ C_ 0.624059 0.319327 0.143698 -0.05681
C_ C_ 0.654828 0.321563 0.120233 -0.08735
C_ C_ 0.707385 0.315272 0.122606 -0.08735
C_ C_ 0.614081 0.309386 0.194369 -0.08735
C_ C_ 0.561976 0.304404 0.190889 -0.08735
C_ C_ 0.539548 0.324215 0.165256 -0.05681
C_ C_ 0.57308 0.326961 0.14129 -0.08735
C_ C_ 0.882679 0.225935 0.159679 0.68181
C_ C_ 0.880084 0.424174 0.145557 0.68181
C_ C_ 0.883359 0.481865 0.142692 -0.05681
C_ C_ 0.8714 0.00938247 0.166773 -0.08735
C_ C_ 0.877758 0.0623097 0.165614 -0.05681
C_ C_ 0.865583 0.0885355 0.13992 -0.05681
C_ C_ 0.854929 0.0599034 0.115017 -0.08735
C_ C_ 0.882814 0.505573 0.115318 -0.08735
C_ C_ 0.88979 0.0921566 0.189183 -0.08735
C_ C_ 0.896873 0.144806 0.186629 -0.08735
C_ C_ 0.883526 0.169999 0.1603 -0.05681
C_ C_ 0.869048 0.140853 0.137082 -0.08735
C_ C_ 0.981358 0.325313 0.15782 0.68181
C_ C_ 0.904853 0.383219 0.232028 0.1947
C_ C_ 0.912568 0.397587 0.259812 -0.08735
C_ C_ 0.901444 0.364821 0.282163 -0.08735
C_ C_ 0.879823 0.315608 0.274546 -0.05681
C_ C_ 0.864814 0.30691 0.245204 0.18498
C_ C_ 0.83113 0.271146 0.237306 -0.08735
C_ C_ 0.816093 0.235513 0.25758 -0.08735
C_ C_ 0.830728 0.240062 0.286932 -0.08735
C_ C_ 0.863837 0.27864 0.296171 0.18498
C_ C_ 0.82605 0.30152 0.342792 0.44287
C_ C_ 0.912877 0.284922 0.340939 0.44287
C_ C_ 0.914706 0.293198 0.371699 -0.05681
C_ C_ 0.961376 0.29442 0.385886 -0.08735
C_ C_ 0.966144 0.303487 0.415173 -0.08735
C_ C_ 0.921127 0.302732 0.431918 -0.05681
C_ C_ 0.872567 0.300718 0.418533 -0.05681
C_ C_ 0.871618 0.299427 0.388126 -0.05681
C_ C_ 0.82701 0.304636 0.373723 -0.05681
C_ C_ 0.78232 0.309839 0.388193 -0.08735
C_ C_ 0.782429 0.306738 0.41907 -0.08735
C_ C_ 0.828152 0.307391 0.434162 -0.05681
C_ C_ 0.831351 0.317528 0.463904 0.44287
C_ C_ 0.923731 0.308776 0.462505 0.44287
C_ C_ 0.90226 0.35222 0.00592722 0.18498
C_ C_ 0.925555 0.397366 0.0117063 -0.08735
C_ C_ 0.938404 0.410549 0.0399969 -0.08735
C_ C_ 0.92943 0.378928 0.0637568 -0.08735
C_ C_ 0.897479 0.336373 0.0590163 0.18498
C_ C_ 0.885827 0.321979 0.0296693 -0.05681
C_ C_ 0.852915 0.280112 0.0252652 -0.08735
C_ C_ 0.833558 0.253175 0.0489879 -0.08735
C_ C_ 0.845123 0.269415 0.0773485 0.1947
N_ N_ 0.634125 0.161978 0.478092 -0.29468
N_ N_ 0.651956 0.190076 0.0820523 -0.17154
N_ N_ 0.614315 0.165567 0.231444 -0.17154
N_ N_ 0.636022 0.199894 0.336193 -0.29468
N_ N_ 0.880747 0.340138 0.22449 -0.29468
N_ N_ 0.868659 0.29001 0.326824 -0.17154
N_ N_ 0.879186 0.318893 0.477287 -0.17154
N_ N_ 0.878511 0.308209 0.0823122 -0.29468
O_ O_ 0.716079 0.180069 0.43038 -0.58347
O_ O_ 0.707323 0.192233 0.384113 -0.58347
O_ O_ 0.640866 0.254189 0.435383 -0.58347
O_ O_ 0.631016 0.262282 0.388653 -0.58347
O_ O_ 0.646039 0.10608 0.425967 -0.58347
O_ O_ 0.643084 0.113961 0.379914 -0.58347
O_ O_ 0.567299 0.178202 0.431522 -0.58347
O_ O_ 0.560457 0.185047 0.385428 -0.58347
O_ O_ 0.565892 0.211462 0.0780523 -0.46727
O_ O_ 0.735371 0.172994 0.0896438 -0.46727
O_ O_ 0.532249 0.196045 0.226014 -0.46727
O_ O_ 0.696874 0.132928 0.235975 -0.46727
O_ O_ 0.80822 0.310056 0.174212 -0.58347
O_ O_ 0.811275 0.331882 0.129612 -0.58347
O_ O_ 0.894565 0.249313 0.182662 -0.58347
O_ O_ 0.873361 0.250013 0.136952 -0.58347
O_ O_ 0.865172 0.40246 0.168817 -0.58347
O_ O_ 0.893306 0.395984 0.124677 -0.58347
O_ O_ 0.954711 0.335465 0.179145 -0.58347
O_ O_ 0.96043 0.321507 0.132841 -0.58347
O_ O_ 0.954481 0.279724 0.325005 -0.46727
O_ O_ 0.78297 0.316427 0.329287 -0.46727
O_ O_ 0.967911 0.314288 0.47574 -0.46727
O_ O_ 0.792771 0.334034 0.47841 -0.46727
Zn Zn 0.630197 0.187718 0.881402 0.90689
Zn Zn 0.640834 0.178441 0.929737 0.90689
Zn Zn 0.869839 0.306015 0.632321 0.90689
Zn Zn 0.861229 0.312504 0.67741 0.90689
H_ H_ 0.810462 0.212873 0.946967 0.11455
H_ H_ 0.879273 0.178019 0.85113 0.11455
H_ H_ 0.78994 0.178426 0.857972 0.11455
H_ H_ 0.899009 0.182913 0.969319 0.11455
H_ H_ 0.985191 0.173378 0.963064 0.11455
H_ H_ 0.966831 0.162627 0.872279 0.11455
H_ H_ 0.652543 0.0154815 0.944612 0.11455
H_ H_ 0.594604 0.433677 0.848467 0.11455
H_ H_ 0.624986 0.0289779 0.856364 0.11455
H_ H_ 0.648426 0.427891 0.960357 0.11455
H_ H_ 0.643505 0.334915 0.95713 0.11455
H_ H_ 0.6008 0.349269 0.867924 0.11455
H_ H_ 0.586373 0.110911 0.963524 0.11455
H_ H_ 0.565884 0.0789449 0.516085 0.11455
H_ H_ 0.596801 0.127399 0.553697 0.11455
H_ H_ 0.709161 0.235593 0.976478 0.11455
H_ H_ 0.715235 0.303812 0.513 0.11455
H_ H_ 0.679907 0.289459 0.560944 0.11455
H_ H_ 0.505572 0.216382 0.623726 0.11455
H_ H_ 0.495347 0.203777 0.675126 0.11455
H_ H_ 0.757816 0.173881 0.634546 0.11455
H_ H_ 0.745697 0.162281 0.687258 0.11455
H_ H_ 0.568734 0.0852747 0.750018 0.11455
H_ H_ 0.552115 0.0689935 0.801995 0.11455
H_ H_ 0.582206 0.119392 0.838955 0.11455
H_ H_ 0.653377 0.248938 0.757596 0.11455
H_ H_ 0.688433 0.298177 0.796463 0.11455
H_ H_ 0.672651 0.270436 0.845447 0.11455
H_ H_ 0.694311 0.307225 0.697169 0.11455
H_ H_ 0.618421 0.315235 0.599684 0.11455
H_ H_ 0.71283 0.322593 0.604841 0.11455
H_ H_ 0.608723 0.315318 0.716929 0.11455
H_ H_ 0.521741 0.330744 0.712937 0.11455
H_ H_ 0.539875 0.326172 0.621167 0.11455
H_ H_ 0.848959 0.477932 0.691639 0.11455
H_ H_ 0.864477 0.059921 0.593813 0.11455
H_ H_ 0.860682 0.461854 0.601133 0.11455
H_ H_ 0.872204 0.0599714 0.714064 0.11455
H_ H_ 0.871109 0.155163 0.710303 0.11455
H_ H_ 0.880982 0.143328 0.617495 0.11455
H_ H_ 0.915062 0.392869 0.710911 0.11455
H_ H_ 0.912707 0.43274 0.759112 0.11455
H_ H_ 0.885376 0.385265 0.801775 0.11455
H_ H_ 0.813788 0.243734 0.719282 0.11455
H_ H_ 0.788319 0.191706 0.760814 0.11455
H_ H_ 0.806581 0.219131 0.81146 0.11455
H_ H_ 0.988797 0.276647 0.868774 0.11455
H_ H_ 0.0021033 0.295096 0.920252 0.11455
H_ H_ 0.743867 0.337826 0.883199 0.11455
H_ H_ 0.755806 0.358063 0.932663 0.11455
H_ H_ 0.931581 0.424715 0.99478 0.11455
H_ H_ 0.938447 0.435725 0.543212 0.11455
H_ H_ 0.910256 0.38727 0.584126 0.11455
H_ H_ 0.854673 0.237929 0.507978 0.11455
H_ H_ 0.818469 0.193318 0.551673 0.11455
H_ H_ 0.817198 0.232643 0.596143 0.11455
C_ C_ 0.735193 0.192293 0.906204 0.68181
C_ C_ 0.790919 0.192464 0.902907 -0.05681
C_ C_ 0.824299 0.201221 0.92721 -0.08735
C_ C_ 0.876407 0.189937 0.924086 -0.05681
C_ C_ 0.896945 0.179833 0.896298 -0.05681
C_ C_ 0.86473 0.178335 0.872694 -0.08735
C_ C_ 0.813226 0.178741 0.876716 -0.08735
C_ C_ 0.910216 0.187692 0.947679 -0.08735
C_ C_ 0.961142 0.177018 0.943843 -0.08735
C_ C_ 0.982488 0.167492 0.916556 -0.05681
C_ C_ 0.950892 0.167595 0.893314 -0.08735
C_ C_ 0.629622 0.279042 0.909183 0.68181
C_ C_ 0.642624 0.0867026 0.902767 0.68181
C_ C_ 0.6361 0.0296439 0.900821 -0.05681
C_ C_ 0.641445 0.494334 0.919379 -0.08735
C_ C_ 0.637506 0.440767 0.916081 -0.05681
C_ C_ 0.623 0.420167 0.889805 -0.05681
C_ C_ 0.605443 0.452701 0.868824 -0.08735
C_ C_ 0.607628 0.504373 0.871926 -0.08735
C_ C_ 0.6445 0.409867 0.939477 -0.08735
C_ C_ 0.636563 0.358977 0.938828 -0.08735
C_ C_ 0.62872 0.336214 0.911583 -0.05681
C_ C_ 0.61688 0.366947 0.887745 -0.08735
C_ C_ 0.537527 0.170657 0.907064 0.68181
C_ C_ 0.607062 0.123245 0.981003 0.1947
C_ C_ 0.596708 0.10341 0.511744 -0.08735
C_ C_ 0.612767 0.136485 0.533866 -0.08735
C_ C_ 0.636303 0.182603 0.528362 -0.05681
C_ C_ 0.650374 0.194404 0.499885 0.18498
C_ C_ 0.695194 0.229006 0.996974 -0.08735
C_ C_ 0.690218 0.270234 0.517231 -0.08735
C_ C_ 0.669165 0.264735 0.54391 -0.08735
C_ C_ 0.643709 0.217855 0.551576 0.18498
C_ C_ 0.678245 0.190965 0.596747 0.44287
C_ C_ 0.589095 0.202708 0.593823 0.44287
C_ C_ 0.583754 0.193767 0.622626 -0.05681
C_ C_ 0.536837 0.200481 0.635294 -0.08735
C_ C_ 0.531008 0.197732 0.664559 -0.08735
C_ C_ 0.572837 0.190576 0.682546 -0.05681
C_ C_ 0.621794 0.187258 0.669912 -0.05681
C_ C_ 0.626864 0.188011 0.639795 -0.05681
C_ C_ 0.675823 0.188054 0.626762 -0.05681
C_ C_ 0.72001 0.179073 0.644672 -0.08735
C_ C_ 0.715017 0.172081 0.674408 -0.08735
C_ C_ 0.664877 0.174319 0.687278 -0.05681
C_ C_ 0.658119 0.163703 0.716814 0.44287
C_ C_ 0.569466 0.182359 0.712587 0.44287
C_ C_ 0.604886 0.158721 0.760277 0.18498
C_ C_ 0.58192 0.112204 0.767407 -0.08735
C_ C_ 0.568614 0.102583 0.796382 -0.08735
C_ C_ 0.585577 0.13441 0.817983 -0.08735
C_ C_ 0.61704 0.175442 0.811765 0.18498
C_ C_ 0.628229 0.187148 0.782366 -0.05681
C_ C_ 0.645965 0.237494 0.777231 -0.08735
C_ C_ 0.662671 0.267151 0.800734 -0.08735
C_ C_ 0.656833 0.249847 0.827766 0.1947
C_ C_ 0.766278 0.309438 0.654334 0.68181
C_ C_ 0.711828 0.311539 0.650768 -0.05681
C_ C_ 0.68016 0.310311 0.674731 -0.08735
C_ C_ 0.627898 0.319276 0.671948 -0.05681
C_ C_ 0.606212 0.324376 0.644885 -0.05681
C_ C_ 0.637019 0.31786 0.620448 -0.08735
C_ C_ 0.690152 0.317265 0.623078 -0.08735
C_ C_ 0.596338 0.321369 0.695866 -0.08735
C_ C_ 0.544161 0.326626 0.693411 -0.08735
C_ C_ 0.522361 0.328691 0.665269 -0.05681
C_ C_ 0.553768 0.331243 0.641916 -0.08735
C_ C_ 0.880015 0.210486 0.66265 0.68181
C_ C_ 0.852065 0.407617 0.64957 0.68181
C_ C_ 0.854625 0.464051 0.64669 -0.05681
C_ C_ 0.868053 -0.003601999999999994 0.668711 -0.08735
C_ C_ 0.869191 0.0486686 0.667217 -0.05681
C_ C_ 0.868067 0.0735779 0.639958 -0.05681
C_ C_ 0.863125 0.0435548 0.615319 -0.08735
C_ C_ 0.864925 0.485537 0.619279 -0.08735
C_ C_ 0.869666 0.0785649 0.692001 -0.08735
C_ C_ 0.873034 0.130582 0.691 -0.08735
C_ C_ 0.880435 0.155718 0.664743 -0.05681
C_ C_ 0.880478 0.125614 0.63883 -0.08735
C_ C_ 0.966448 0.312891 0.654611 0.68181
C_ C_ 0.893574 0.374744 0.728463 0.1947
C_ C_ 0.899549 0.39443 0.755732 -0.08735
C_ C_ 0.879001 0.369469 0.779939 -0.08735
C_ C_ 0.857976 0.319407 0.774313 -0.05681
C_ C_ 0.850338 0.30252 0.745681 0.18498
C_ C_ 0.822629 0.256615 0.741417 -0.08735
C_ C_ 0.809574 0.226969 0.764863 -0.08735
C_ C_ 0.820424 0.239843 0.793495 -0.08735
C_ C_ 0.842441 0.288677 0.7977 0.18498
C_ C_ 0.814927 0.321269 0.844028 0.44287
C_ C_ 0.896957 0.288117 0.838514 0.44287
C_ C_ 0.907129 0.299319 0.868865 -0.05681
C_ C_ 0.954925 0.290682 0.882111 -0.08735
C_ C_ 0.963214 0.29845 0.911265 -0.08735
C_ C_ 0.925367 0.319572 0.929202 -0.05681
C_ C_ 0.876958 0.325284 0.916484 -0.05681
C_ C_ 0.868034 0.31728 0.88583 -0.05681
C_ C_ 0.822196 0.329651 0.873477 -0.05681
C_ C_ 0.782444 0.344781 0.891222 -0.08735
C_ C_ 0.789544 0.352048 0.921037 -0.08735
C_ C_ 0.836231 0.338977 0.934606 -0.05681
C_ C_ 0.84506 0.34459 0.964443 0.44287
C_ C_ 0.931986 0.323798 0.959203 0.44287
C_ C_ 0.882316 0.337431 0.507119 0.18498
C_ C_ 0.899897 0.385517 0.513194 -0.08735
C_ C_ 0.919327 0.399085 0.540216 -0.08735
C_ C_ 0.906203 0.370753 0.564666 -0.08735
C_ C_ 0.881455 0.324431 0.560451 0.18498
C_ C_ 0.873675 0.304606 0.53144 -0.05681
C_ C_ 0.852911 0.255307 0.527731 -0.08735
C_ C_ 0.831469 0.232149 0.551458 -0.08735
C_ C_ 0.833333 0.254265 0.578701 0.1947
N_ N_ 0.636959 0.165589 0.977571 -0.29468
N_ N_ 0.636562 0.202955 0.580739 -0.17154
N_ N_ 0.611462 0.167705 0.728858 -0.17154
N_ N_ 0.632769 0.205503 0.83396 -0.29468
N_ N_ 0.870078 0.330128 0.723603 -0.29468
N_ N_ 0.852739 0.303403 0.826775 -0.17154
N_ N_ 0.891339 0.334941 0.976271 -0.17154
N_ N_ 0.864671 0.296277 0.5837 -0.29468
O_ O_ 0.715369 0.178455 0.929674 -0.58347
O_ O_ 0.706862 0.19891 0.884141 -0.58347
O_ O_ 0.643448 0.25046 0.929765 -0.58347
O_ O_ 0.616455 0.258391 0.886047 -0.58347
O_ O_ 0.652764 0.107695 0.926736 -0.58347
O_ O_ 0.637983 0.113013 0.880165 -0.58347
O_ O_ 0.564812 0.175305 0.928478 -0.58347
O_ O_ 0.557349 0.176533 0.882295 -0.58347
O_ O_ 0.548221 0.204215 0.578086 -0.46727
O_ O_ 0.722887 0.196308 0.584284 -0.46727
O_ O_ 0.523293 0.179084 0.723999 -0.46727
O_ O_ 0.695311 0.156293 0.735235 -0.46727
O_ O_ 0.786499 0.299653 0.678781 -0.58347
O_ O_ 0.794191 0.312752 0.631855 -0.58347
O_ O_ 0.874755 0.237178 0.685401 -0.58347
O_ O_ 0.871127 0.229622 0.638578 -0.58347
O_ O_ 0.849084 0.389073 0.673913 -0.58347
O_ O_ 0.863213 0.380116 0.62913 -0.58347
O_ O_ 0.938999 0.321682 0.676378 -0.58347
O_ O_ 0.946555 0.307892 0.629803 -0.58347
O_ O_ 0.931256 0.266167 0.82339 -0.46727
O_ O_ 0.769741 0.32752 0.832318 -0.46727
O_ O_ 0.978589 0.321159 0.969116 -0.46727
O_ O_ 0.804439 0.351107 0.981082 -0.46727
Zn Zn 0.621044 0.688757 0.381477 0.90689
Zn Zn 0.630737 0.681771 0.4294 0.90689
Zn Zn 0.869731 0.826781 0.127756 0.90689
Zn Zn 0.859848 0.827892 0.175301 0.90689
H_ H_ 0.790417 0.687252 0.443673 0.11455
H_ H_ 0.869535 0.667926 0.344487 0.11455
H_ H_ 0.774688 0.679728 0.350217 0.11455
H_ H_ 0.87778 0.678021 0.465858 0.11455
H_ H_ 0.969692 0.691392 0.45998 0.11455
H_ H_ 0.95342 0.670967 0.368337 0.11455
H_ H_ 0.67204 0.513027 0.437011 0.11455
H_ H_ 0.647564 0.93893 0.3493 0.11455
H_ H_ 0.592631 0.526121 0.358471 0.11455
H_ H_ 0.634744 0.929698 0.464766 0.11455
H_ H_ 0.624974 0.837491 0.460972 0.11455
H_ H_ 0.643501 0.854485 0.368452 0.11455
H_ H_ 0.580571 0.602528 0.464555 0.11455
H_ H_ 0.582016 0.567781 0.0180226 0.11455
H_ H_ 0.601305 0.62653 0.0571015 0.11455
H_ H_ 0.685595 0.749351 0.474564 0.11455
H_ H_ 0.725068 0.801685 0.013794 0.11455
H_ H_ 0.705154 0.777322 0.0645002 0.11455
H_ H_ 0.51338 0.701006 0.121051 0.11455
H_ H_ 0.504261 0.69331 0.173213 0.11455
H_ H_ 0.762682 0.659507 0.137033 0.11455
H_ H_ 0.750812 0.649827 0.189748 0.11455
H_ H_ 0.570153 0.578794 0.249489 0.11455
H_ H_ 0.537007 0.564808 0.301262 0.11455
H_ H_ 0.562287 0.622927 0.339523 0.11455
H_ H_ 0.660419 0.736608 0.25646 0.11455
H_ H_ 0.694906 0.788935 0.295604 0.11455
H_ H_ 0.678189 0.758318 0.347007 0.11455
H_ H_ 0.693321 0.789339 0.189289 0.11455
H_ H_ 0.623555 0.846256 0.0980221 0.11455
H_ H_ 0.717042 0.844099 0.101286 0.11455
H_ H_ 0.610859 0.792372 0.209836 0.11455
H_ H_ 0.518937 0.800512 0.205036 0.11455
H_ H_ 0.541287 0.851141 0.115272 0.11455
H_ H_ 0.878954 0.990675 0.18596 0.11455
H_ H_ 0.867896 0.569226 0.0928905 0.11455
H_ H_ 0.839783 0.986062 0.0973101 0.11455
H_ H_ 0.873364 0.579412 0.209058 0.11455
H_ H_ 0.902711 0.668095 0.202676 0.11455
H_ H_ 0.86816 0.658912 0.113151 0.11455
H_ H_ 0.908217 0.907308 0.21224 0.11455
H_ H_ 0.917286 0.93378 0.262728 0.11455
H_ H_ 0.891795 0.874734 0.300519 0.11455
H_ H_ 0.803745 0.758239 0.216058 0.11455
H_ H_ 0.764961 0.711586 0.253173 0.11455
H_ H_ 0.795382 0.719925 0.30239 0.11455
H_ H_ 0.98588 0.797675 0.36702 0.11455
H_ H_ -0.006020000000000025 0.803174 0.415429 0.11455
H_ H_ 0.732852 0.831289 0.383122 0.11455
H_ H_ 0.746787 0.829949 0.435921 0.11455
H_ H_ 0.919499 0.892849 0.490978 0.11455
H_ H_ 0.976809 0.921154 0.0395825 0.11455
H_ H_ 0.935566 0.88629 0.0802017 0.11455
H_ H_ 0.831929 0.76297 0.00488936 0.11455
H_ H_ 0.796121 0.719523 0.0493147 0.11455
H_ H_ 0.811512 0.753011 0.0943745 0.11455
C_ C_ 0.720293 0.688173 0.401755 0.68181
C_ C_ 0.777529 0.685065 0.397944 -0.05681
C_ C_ 0.808698 0.68316 0.422387 -0.08735
C_ C_ 0.862234 0.682295 0.419518 -0.05681
C_ C_ 0.883359 0.675656 0.392094 -0.05681
C_ C_ 0.851614 0.675175 0.366394 -0.08735
C_ C_ 0.79872 0.681972 0.369603 -0.08735
C_ C_ 0.892331 0.679082 0.443907 -0.08735
C_ C_ 0.94551 0.682503 0.440933 -0.08735
C_ C_ 0.96867 0.681225 0.412936 -0.05681
C_ C_ 0.936517 0.677965 0.389885 -0.08735
C_ C_ 0.626454 0.783455 0.412806 0.68181
C_ C_ 0.637326 0.586428 0.40167 0.68181
C_ C_ 0.633797 0.528973 0.399505 -0.05681
C_ C_ 0.64153 1.00007 0.423786 -0.08735
C_ C_ 0.639943 0.945845 0.420159 -0.05681
C_ C_ 0.640897 0.924255 0.392979 -0.05681
C_ C_ 0.646236 0.956079 0.369199 -0.08735
C_ C_ 0.655053 1.00729372 0.372483 -0.08735
C_ C_ 0.635981 0.91369 0.443901 -0.08735
C_ C_ 0.634643 0.86139 0.441837 -0.08735
C_ C_ 0.631555 0.839958 0.415019 -0.05681
C_ C_ 0.639358 0.870812 0.390418 -0.08735
C_ C_ 0.527016 0.674462 0.409482 0.68181
C_ C_ 0.603929 0.621123 0.480316 0.1947
C_ C_ 0.603186 0.602702 0.0136583 -0.08735
C_ C_ 0.613316 0.636895 0.0361332 -0.08735
C_ C_ 0.643649 0.679711 0.0307639 -0.05681
C_ C_ 0.6535 0.695412 1.00177951 0.18498
C_ C_ 0.670903 0.739453 0.494826 -0.08735
C_ C_ 0.70147 0.768109 0.0181568 -0.08735
C_ C_ 0.689572 0.754712 0.0469106 -0.08735
C_ C_ 0.662773 0.709413 0.053875 0.18498
C_ C_ 0.691116 0.686772 0.100533 0.44287
C_ C_ 0.602826 0.700671 0.0944253 0.44287
C_ C_ 0.593668 0.69204 0.123663 -0.05681
C_ C_ 0.544187 0.689718 0.134694 -0.08735
C_ C_ 0.538635 0.680575 0.164758 -0.08735
C_ C_ 0.581651 0.676681 0.182797 -0.05681
C_ C_ 0.626895 0.667326 0.170375 -0.05681
C_ C_ 0.634881 0.68034 0.140568 -0.05681
C_ C_ 0.682928 0.676325 0.129477 -0.05681
C_ C_ 0.72375 0.660896 0.145983 -0.08735
C_ C_ 0.718175 0.654517 0.17613 -0.08735
C_ C_ 0.668693 0.65595 0.189132 -0.05681
C_ C_ 0.661857 0.653306 0.219053 0.44287
C_ C_ 0.575274 0.677291 0.213665 0.44287
C_ C_ 0.603564 0.650836 0.260154 0.18498
C_ C_ 0.577543 0.60636 0.267364 -0.08735
C_ C_ 0.560497 0.59844 0.295977 -0.08735
C_ C_ 0.579042 0.629066 0.318442 -0.08735
C_ C_ 0.605071 0.673752 0.31181 0.18498
C_ C_ 0.615778 0.685837 0.28288 -0.05681
C_ C_ 0.649744 0.727233 0.278035 -0.08735
C_ C_ 0.66972 0.754703 0.300991 -0.08735
C_ C_ 0.659244 0.740142 0.328303 0.1947
C_ C_ 0.768496 0.822276 0.151467 0.68181
C_ C_ 0.71344 0.818874 0.146326 -0.05681
C_ C_ 0.68119 0.810204 0.170013 -0.08735
C_ C_ 0.629404 0.822267 0.167495 -0.05681
C_ C_ 0.609171 0.835038 0.141511 -0.05681
C_ C_ 0.641583 0.839149 0.11832 -0.08735
C_ C_ 0.692836 0.836599 0.120244 -0.08735
C_ C_ 0.595831 0.813125 0.190794 -0.08735
C_ C_ 0.544222 0.813948 0.187597 -0.08735
C_ C_ 0.52302 0.827913 0.160058 -0.05681
C_ C_ 0.556337 0.838187 0.137228 -0.08735
C_ C_ 0.877652 0.73011 0.15875 0.68181
C_ C_ 0.856387 0.925237 0.144339 0.68181
C_ C_ 0.854961 0.981841 0.142564 -0.05681
C_ C_ 0.880213 0.512741 0.166663 -0.08735
C_ C_ 0.879796 0.566152 0.163804 -0.05681
C_ C_ 0.873693 0.588199 0.136951 -0.05681
C_ C_ 0.86745 0.555698 0.113631 -0.08735
C_ C_ 0.847198 1.00743031 0.116951 -0.08735
C_ C_ 0.877522 0.596328 0.187621 -0.08735
C_ C_ 0.886831 0.647911 0.184927 -0.08735
C_ C_ 0.878178 0.672383 0.158799 -0.05681
C_ C_ 0.872093 0.640496 0.133914 -0.08735
C_ C_ 0.962351 0.828124 0.153019 0.68181
C_ C_ 0.890747 0.883384 0.228733 0.1947
C_ C_ 0.898707 0.897585 0.258036 -0.08735
C_ C_ 0.876481 0.869159 0.279962 -0.08735
C_ C_ 0.852853 0.822161 0.273056 -0.05681
C_ C_ 0.845835 0.808124 0.243314 0.18498
C_ C_ 0.813172 0.768776 0.237457 -0.08735
C_ C_ 0.792554 0.738146 0.258843 -0.08735
C_ C_ 0.810814 0.74417 0.286505 -0.08735
C_ C_ 0.836324 0.78847 0.294681 0.18498
C_ C_ 0.804125 0.806325 0.342619 0.44287
C_ C_ 0.892941 0.793789 0.336621 0.44287
C_ C_ 0.900833 0.801441 0.366691 -0.05681
C_ C_ 0.950895 0.800753 0.379707 -0.08735
C_ C_ 0.955167 0.804063 0.408808 -0.08735
C_ C_ 0.914697 0.808258 0.427858 -0.05681
C_ C_ 0.866192 0.814898 0.415056 -0.05681
C_ C_ 0.85936 0.809974 0.384546 -0.05681
C_ C_ 0.809798 0.810742 0.373011 -0.05681
C_ C_ 0.77035 0.82308 0.390803 -0.08735
C_ C_ 0.776971 0.81985 0.421762 -0.08735
C_ C_ 0.825265 0.817724 0.433482 -0.05681
C_ C_ 0.830043 0.813838 0.463415 0.44287
C_ C_ 0.918367 0.804934 0.458263 0.44287
C_ C_ 0.892865 0.845489 0.00441362 0.18498
C_ C_ 0.931865 0.881179 0.0100808 -0.08735
C_ C_ 0.941924 0.899471 0.0368958 -0.08735
C_ C_ 0.921484 0.874015 0.0604563 -0.08735
C_ C_ 0.884495 0.836063 0.0570006 0.18498
C_ C_ 0.873605 0.818333 0.0294965 -0.05681
C_ C_ 0.840657 0.777169 0.0267108 -0.08735
C_ C_ 0.819374 0.752384 0.0492729 -0.08735
C_ C_ 0.830489 0.772046 0.0766124 0.1947
N_ N_ 0.626333 0.66664 0.475243 -0.29468
N_ N_ 0.649301 0.697618 0.0831061 -0.17154
N_ N_ 0.613963 0.661724 0.230476 -0.17154
N_ N_ 0.625033 0.701648 0.332812 -0.29468
N_ N_ 0.861934 0.840556 0.222168 -0.29468
N_ N_ 0.845614 0.796733 0.325338 -0.17154
N_ N_ 0.87643 0.813421 0.47543 -0.17154
N_ N_ 0.863833 0.81326 0.0794049 -0.29468
O_ O_ 0.700919 0.700664 0.425772 -0.58347
O_ O_ 0.693511 0.687578 0.379535 -0.58347
O_ O_ 0.614852 0.757616 0.434179 -0.58347
O_ O_ 0.623434 0.764172 0.387699 -0.58347
O_ O_ 0.65069 0.605505 0.425651 -0.58347
O_ O_ 0.623046 0.612741 0.380706 -0.58347
O_ O_ 0.555574 0.664859 0.429939 -0.58347
O_ O_ 0.545343 0.685129 0.384747 -0.58347
O_ O_ 0.564751 0.712005 0.0767763 -0.46727
O_ O_ 0.737042 0.688273 0.089214 -0.46727
O_ O_ 0.531297 0.690261 0.224055 -0.46727
O_ O_ 0.702767 0.650132 0.235337 -0.46727
O_ O_ 0.787203 0.812791 0.175918 -0.58347
O_ O_ 0.795954 0.824737 0.12832 -0.58347
O_ O_ 0.882337 0.756188 0.181448 -0.58347
O_ O_ 0.868227 0.754251 0.135035 -0.58347
O_ O_ 0.843711 0.902621 0.166638 -0.58347
O_ O_ 0.86969 0.900465 0.122465 -0.58347
O_ O_ 0.934215 0.844013 0.171979 -0.58347
O_ O_ 0.944689 0.818941 0.128048 -0.58347
O_ O_ 0.928875 0.778119 0.320527 -0.46727
O_ O_ 0.758586 0.808706 0.332075 -0.46727
O_ O_ 0.962007 0.792011 0.469531 -0.46727
O_ O_ 0.788967 0.819093 0.479755 -0.46727
Zn Zn 0.623763 0.685511 0.88146 0.90689
Zn Zn 0.633294 0.680973 0.932246 0.90689
Zn Zn 0.863814 0.806296 0.627861 0.90689
Zn Zn 0.851287 0.811047 0.676368 0.90689
H_ H_ 0.799991 0.68335 0.947119 0.11455
H_ H_ 0.870432 0.662383 0.848384 0.11455
H_ H_ 0.777979 0.662682 0.855297 0.11455
H_ H_ 0.883404 0.666617 0.966076 0.11455
H_ H_ 0.977381 0.683834 0.958402 0.11455
H_ H_ 0.956318 0.653186 0.866453 0.11455
H_ H_ 0.657966 0.51042 0.939132 0.11455
H_ H_ 0.58268 0.943577 0.856584 0.11455
H_ H_ 0.593201 0.527568 0.853962 0.11455
H_ H_ 0.66364 0.928485 0.965869 0.11455
H_ H_ 0.650766 0.835626 0.962258 0.11455
H_ H_ 0.611496 0.856238 0.8733 0.11455
H_ H_ 0.594686 0.598625 0.967083 0.11455
H_ H_ 0.584564 0.565147 0.51142 0.11455
H_ H_ 0.611258 0.615902 0.551998 0.11455
H_ H_ 0.698405 0.740517 0.973676 0.11455
H_ H_ 0.707001 0.800168 0.513531 0.11455
H_ H_ 0.684006 0.779403 0.56401 0.11455
H_ H_ 0.496003 0.684286 0.619774 0.11455
H_ H_ 0.485556 0.670269 0.671113 0.11455
H_ H_ 0.749848 0.678418 0.638951 0.11455
H_ H_ 0.73794 0.670204 0.690043 0.11455
H_ H_ 0.546655 0.590668 0.749835 0.11455
H_ H_ 0.543821 0.563583 0.801475 0.11455
H_ H_ 0.563803 0.624066 0.838523 0.11455
H_ H_ 0.650365 0.745023 0.758536 0.11455
H_ H_ 0.68775 0.790458 0.798301 0.11455
H_ H_ 0.681107 0.757591 0.845141 0.11455
H_ H_ 0.679804 0.792944 0.693579 0.11455
H_ H_ 0.616909 0.850071 0.597945 0.11455
H_ H_ 0.707914 0.827615 0.602753 0.11455
H_ H_ 0.59253 0.796275 0.713045 0.11455
H_ H_ 0.501819 0.812139 0.706176 0.11455
H_ H_ 0.529949 0.846399 0.616575 0.11455
H_ H_ 0.868874 0.976128 0.689765 0.11455
H_ H_ 0.873653 0.554115 0.595359 0.11455
H_ H_ 0.873033 0.972477 0.595526 0.11455
H_ H_ 0.855045 0.560509 0.713 0.11455
H_ H_ 0.856547 0.655191 0.708525 0.11455
H_ H_ 0.875104 0.637242 0.618909 0.11455
H_ H_ 0.89732 0.89942 0.709967 0.11455
H_ H_ 0.927369 0.920081 0.760247 0.11455
H_ H_ 0.885738 0.880366 0.798082 0.11455
H_ H_ 0.802078 0.747186 0.721922 0.11455
H_ H_ 0.776815 0.698314 0.762309 0.11455
H_ H_ 0.805665 0.72176 0.811153 0.11455
H_ H_ 0.981168 0.782904 0.869491 0.11455
H_ H_ 0.992958 0.784829 0.921736 0.11455
H_ H_ 0.731437 0.828756 0.883924 0.11455
H_ H_ 0.749042 0.841953 0.935543 0.11455
H_ H_ 0.95042 0.900626 0.992852 0.11455
H_ H_ 0.941635 0.919159 0.54215 0.11455
H_ H_ 0.922528 0.863709 0.583908 0.11455
H_ H_ 0.826661 0.74169 0.502497 0.11455
H_ H_ 0.785448 0.700987 0.545521 0.11455
H_ H_ 0.80241 0.730285 0.593807 0.11455
C_ C_ 0.725788 0.682203 0.903026 0.68181
C_ C_ 0.781624 0.677823 0.901085 -0.05681
C_ C_ 0.813694 0.677334 0.925184 -0.08735
C_ C_ 0.866401 0.671451 0.920624 -0.05681
C_ C_ 0.886643 0.664125 0.893044 -0.05681
C_ C_ 0.853845 0.664119 0.869945 -0.08735
C_ C_ 0.802041 0.666209 0.874646 -0.08735
C_ C_ 0.899713 0.674364 0.945144 -0.08735
C_ C_ 0.950817 0.677098 0.939788 -0.08735
C_ C_ 0.970798 0.674075 0.912261 -0.05681
C_ C_ 0.939196 0.662864 0.888162 -0.08735
C_ C_ 0.622877 0.783117 0.914466 0.68181
C_ C_ 0.630256 0.582427 0.899969 0.68181
C_ C_ 0.626073 0.526081 0.896841 -0.05681
C_ C_ 0.643748 -0.0023849999999999705 0.924902 -0.08735
C_ C_ 0.636861 0.944831 0.923074 -0.05681
C_ C_ 0.620459 0.923927 0.896161 -0.05681
C_ C_ 0.605163 0.957022 0.874239 -0.08735
C_ C_ 0.6192 0.00756501 0.875838 -0.08735
C_ C_ 0.650733 0.911331 0.945672 -0.08735
C_ C_ 0.644976 0.859776 0.943374 -0.08735
C_ C_ 0.627459 0.839181 0.91746 -0.05681
C_ C_ 0.61874 0.870981 0.89329 -0.08735
C_ C_ 0.530185 0.672613 0.91264 0.68181
C_ C_ 0.610736 0.618855 0.985418 0.1947
C_ C_ 0.603248 0.601923 0.50749 -0.08735
C_ C_ 0.61209 0.632524 0.53104 -0.08735
C_ C_ 0.630532 0.680914 0.52744 -0.05681
C_ C_ 0.638827 0.69661 0.498392 0.18498
C_ C_ 0.682169 0.736853 0.994741 -0.08735
C_ C_ 0.683974 0.769179 0.518418 -0.08735
C_ C_ 0.671487 0.755436 0.546689 -0.08735
C_ C_ 0.643116 0.712654 0.551615 0.18498
C_ C_ 0.674986 0.686842 0.598485 0.44287
C_ C_ 0.585406 0.698307 0.592618 0.44287
C_ C_ 0.578628 0.689895 0.622666 -0.05681
C_ C_ 0.528405 0.679946 0.633927 -0.08735
C_ C_ 0.523437 0.67807 0.664329 -0.08735
C_ C_ 0.563487 0.680761 0.682134 -0.05681
C_ C_ 0.614102 0.685058 0.670306 -0.05681
C_ C_ 0.620807 0.687913 0.64015 -0.05681
C_ C_ 0.669074 0.684482 0.628814 -0.05681
C_ C_ 0.71141 0.681844 0.647788 -0.08735
C_ C_ 0.704622 0.675741 0.676243 -0.08735
C_ C_ 0.65523 0.677181 0.688851 -0.05681
C_ C_ 0.64516 0.672381 0.719238 0.44287
C_ C_ 0.556476 0.680611 0.712312 0.44287
C_ C_ 0.591034 0.660094 0.759937 0.18498
C_ C_ 0.561163 0.614629 0.767149 -0.08735
C_ C_ 0.559442 0.599125 0.79597 -0.08735
C_ C_ 0.574418 0.632064 0.81788 -0.08735
C_ C_ 0.60714 0.671808 0.812783 0.18498
C_ C_ 0.613825 0.6886 0.783495 -0.05681
C_ C_ 0.637507 0.736226 0.779924 -0.08735
C_ C_ 0.659609 0.762813 0.802761 -0.08735
C_ C_ 0.659818 0.739513 0.829691 0.1947
C_ C_ 0.756293 0.80288 0.651516 0.68181
C_ C_ 0.699152 0.805822 0.648336 -0.05681
C_ C_ 0.666252 0.802408 0.672622 -0.08735
C_ C_ 0.61446 0.814922 0.669957 -0.05681
C_ C_ 0.595936 0.827992 0.641968 -0.05681
C_ C_ 0.631782 0.835785 0.619143 -0.08735
C_ C_ 0.682271 0.821236 0.621479 -0.08735
C_ C_ 0.578655 0.804975 0.691957 -0.08735
C_ C_ 0.52787 0.817695 0.687827 -0.08735
C_ C_ 0.509949 0.828675 0.660377 -0.05681
C_ C_ 0.543634 0.835607 0.637453 -0.08735
C_ C_ 0.866237 0.713262 0.659129 0.68181
C_ C_ 0.85839 0.909647 0.645634 0.68181
C_ C_ 0.863853 0.966765 0.643798 -0.05681
C_ C_ 0.854435 0.494702 0.670847 -0.08735
C_ C_ 0.86267 0.547946 0.668909 -0.05681
C_ C_ 0.869934 0.570026 0.640742 -0.05681
C_ C_ 0.869873 0.540063 0.616327 -0.08735
C_ C_ 0.863306 0.992104 0.615938 -0.08735
C_ C_ 0.859374 0.578772 0.692499 -0.08735
C_ C_ 0.85615 0.631825 0.689364 -0.08735
C_ C_ 0.865965 0.655669 0.661881 -0.05681
C_ C_ 0.874559 0.621554 0.639127 -0.08735
C_ C_ 0.953247 0.817932 0.650459 0.68181
C_ C_ 0.889264 0.873491 0.727516 0.1947
C_ C_ 0.900216 0.890157 0.756079 -0.08735
C_ C_ 0.872639 0.867233 0.777893 -0.08735
C_ C_ 0.849977 0.821167 0.774285 -0.05681
C_ C_ 0.838239 0.805366 0.746001 0.18498
C_ C_ 0.814487 0.758639 0.742113 -0.08735
C_ C_ 0.794606 0.734951 0.766252 -0.08735
C_ C_ 0.810148 0.746764 0.793478 -0.08735
C_ C_ 0.8344 0.790494 0.797869 0.18498
C_ C_ 0.807377 0.819165 0.84503 0.44287
C_ C_ 0.893001 0.791754 0.838921 0.44287
C_ C_ 0.902492 0.798838 0.868657 -0.05681
C_ C_ 0.950494 0.795529 0.880385 -0.08735
C_ C_ 0.956723 0.796336 0.91092 -0.08735
C_ C_ 0.914682 0.804528 0.928863 -0.05681
C_ C_ 0.866843 0.811363 0.916757 -0.05681
C_ C_ 0.861076 0.809483 0.886843 -0.05681
C_ C_ 0.813339 0.815708 0.875568 -0.05681
C_ C_ 0.770394 0.822888 0.893165 -0.08735
C_ C_ 0.778532 0.828059 0.922671 -0.08735
C_ C_ 0.826653 0.823717 0.934826 -0.05681
C_ C_ 0.835598 0.831344 0.964452 0.44287
C_ C_ 0.921063 0.811023 0.958857 0.44287
C_ C_ 0.885391 0.825938 0.505199 0.18498
C_ C_ 0.91008 0.871158 0.51021 -0.08735
C_ C_ 0.919091 0.885403 0.538844 -0.08735
C_ C_ 0.905208 0.854489 0.562513 -0.08735
C_ C_ 0.878995 0.810225 0.557103 0.18498
C_ C_ 0.868667 0.795022 0.52885 -0.05681
C_ C_ 0.83679 0.75378 0.52461 -0.08735
C_ C_ 0.813116 0.732425 0.548468 -0.08735
C_ C_ 0.822898 0.748184 0.575746 0.1947
N_ N_ 0.636031 0.663965 0.980557 -0.29468
N_ N_ 0.6342 0.697557 0.581685 -0.17154
N_ N_ 0.598749 0.673888 0.729994 -0.17154
N_ N_ 0.630987 0.697082 0.834721 -0.29468
N_ N_ 0.857312 0.832674 0.72289 -0.29468
N_ N_ 0.846257 0.8024 0.826992 -0.17154
N_ N_ 0.883607 0.828232 0.975147 -0.17154
N_ N_ 0.856657 0.78585 0.57971 -0.29468
O_ O_ 0.706224 0.693185 0.926743 -0.58347
O_ O_ 0.699665 0.678257 0.879405 -0.58347
O_ O_ 0.626205 0.75685 0.936509 -0.58347
O_ O_ 0.628801 0.763722 0.889103 -0.58347
O_ O_ 0.640613 0.603031 0.923909 -0.58347
O_ O_ 0.618156 0.609626 0.878819 -0.58347
O_ O_ 0.55646 0.669204 0.934382 -0.58347
O_ O_ 0.550413 0.689131 0.888892 -0.58347
O_ O_ 0.545286 0.701149 0.575321 -0.46727
O_ O_ 0.719528 0.682599 0.587027 -0.46727
O_ O_ 0.509017 0.676098 0.723651 -0.46727
O_ O_ 0.685324 0.662802 0.736141 -0.46727
O_ O_ 0.775163 0.803012 0.676664 -0.58347
O_ O_ 0.786174 0.808377 0.630165 -0.58347
O_ O_ 0.857878 0.738348 0.681536 -0.58347
O_ O_ 0.864412 0.734272 0.634847 -0.58347
O_ O_ 0.843204 0.888101 0.668225 -0.58347
O_ O_ 0.866439 0.883537 0.623179 -0.58347
O_ O_ 0.924171 0.821071 0.672391 -0.58347
O_ O_ 0.935824 0.802661 0.626915 -0.58347
O_ O_ 0.93001 0.774887 0.822591 -0.46727
O_ O_ 0.763959 0.835147 0.83263 -0.46727
O_ O_ 0.966826 0.804995 0.970199 -0.46727
O_ O_ 0.799994 0.850592 0.980272 -0.46727
_cell_length_a 26.376
_cell_length_b 26.400000238300095
_cell_length_c 46.67800035477134
_cell_angle_alpha 90.00700052986613
_cell_angle_beta 89.99899961309502
_cell_angle_gamma 90.45000003183146
_symmetry_space_group_name_H-M         'P 1'
_symmetry_Int_Tables_number            1
loop_
_symmetry_equiv_pos_as_xyz
   'x, y, z'
                         
loop_
_atom_site_label
_atom_site_type_symbol
_atom_site_fract_x 
_atom_site_fract_y
_atom_site_fract_z
_atom_site_charge
Zn Zn 0.131326 0.179369 0.384007 0.90689
Zn Zn 0.138497 0.177906 0.433524 0.90689
Zn Zn 0.38598 0.32294 0.132439 0.90689
Zn Zn 0.38255 0.332074 0.180296 0.90689
H_ H_ 0.307695 0.201495 0.447411 0.11455
H_ H_ 0.379195 0.156016 0.353704 0.11455
H_ H_ 0.288713 0.170317 0.358998 0.11455
H_ H_ 0.398633 0.20075 0.468723 0.11455
H_ H_ 0.48751 0.196216 0.459392 0.11455
H_ H_ 0.464078 0.160288 0.371113 0.11455
H_ H_ 0.148335 0.00894754 0.449094 0.11455
H_ H_ 0.112068 0.434098 0.350812 0.11455
H_ H_ 0.147379 0.0283974 0.356155 0.11455
H_ H_ 0.149844 0.425007 0.466659 0.11455
H_ H_ 0.147585 0.333603 0.462198 0.11455
H_ H_ 0.103627 0.349285 0.373578 0.11455
H_ H_ 0.0939078 0.0988265 0.473021 0.11455
H_ H_ 0.0858521 0.0660576 0.0170685 0.11455
H_ H_ 0.121546 0.11892 0.0555387 0.11455
H_ H_ 0.200404 0.242854 0.473394 0.11455
H_ H_ 0.234062 0.294501 0.00943955 0.11455
H_ H_ 0.205357 0.282427 0.0598412 0.11455
H_ H_ 0.0222049 0.209271 0.120972 0.11455
H_ H_ 0.0127478 0.198128 0.17266 0.11455
H_ H_ 0.274531 0.163891 0.135193 0.11455
H_ H_ 0.261923 0.14773 0.188024 0.11455
H_ H_ 0.0907465 0.0756247 0.248338 0.11455
H_ H_ 0.0676627 0.0521355 0.296086 0.11455
H_ H_ 0.0916566 0.108778 0.33755 0.11455
H_ H_ 0.163253 0.243334 0.255777 0.11455
H_ H_ 0.183056 0.298547 0.298821 0.11455
H_ H_ 0.175843 0.264608 0.344568 0.11455
H_ H_ 0.209207 0.313965 0.196653 0.11455
H_ H_ 0.141586 0.313416 0.0965671 0.11455
H_ H_ 0.230608 0.310148 0.104118 0.11455
H_ H_ 0.126858 0.310895 0.21527 0.11455
H_ H_ 0.0363175 0.325325 0.207796 0.11455
H_ H_ 0.0543504 0.329766 0.116701 0.11455
H_ H_ 0.348954 0.494428 0.187955 0.11455
H_ H_ 0.389503 0.0802198 0.0995669 0.11455
H_ H_ 0.420607 0.485691 0.104616 0.11455
H_ H_ 0.369053 0.0856068 0.217359 0.11455
H_ H_ 0.383999 0.176761 0.212268 0.11455
H_ H_ 0.381191 0.16305 0.119295 0.11455
H_ H_ 0.415606 0.409921 0.216043 0.11455
H_ H_ 0.43259 0.435535 0.263625 0.11455
H_ H_ 0.406875 0.383123 0.304355 0.11455
H_ H_ 0.32357 0.264068 0.220953 0.11455
H_ H_ 0.291707 0.20578 0.258361 0.11455
H_ H_ 0.310604 0.226023 0.308209 0.11455
H_ H_ 0.495331 0.298039 0.372647 0.11455
H_ H_ 0.508532 0.314115 0.423845 0.11455
H_ H_ 0.24316 0.332029 0.387579 0.11455
H_ H_ 0.25644 0.354058 0.439711 0.11455
H_ H_ 0.432805 0.421745 0.499517 0.11455
H_ H_ 0.482757 0.436661 0.0486693 0.11455
H_ H_ 0.459322 0.37755 0.0891295 0.11455
H_ H_ 0.348851 0.268666 0.008984 0.11455
H_ H_ 0.307946 0.226693 0.0497361 0.11455
H_ H_ 0.324086 0.254232 0.098421 0.11455
C_ C_ 0.233055 0.184778 0.408399 0.68181
C_ C_ 0.291554 0.18097 0.405268 -0.05681
C_ C_ 0.323823 0.185295 0.428568 -0.08735
C_ C_ 0.377213 0.179073 0.425172 -0.05681
C_ C_ 0.396915 0.168702 0.398115 -0.05681
C_ C_ 0.363882 0.162814 0.375476 -0.08735
C_ C_ 0.312799 0.170905 0.377619 -0.08735
C_ C_ 0.411866 0.186498 0.447553 -0.08735
C_ C_ 0.46379 0.189693 0.442071 -0.08735
C_ C_ 0.484185 0.178954 0.414295 -0.05681
C_ C_ 0.450571 0.17024 0.392277 -0.08735
C_ C_ 0.135636 0.280108 0.413394 0.68181
C_ C_ 0.148877 0.0833247 0.40328 0.68181
C_ C_ 0.150228 0.0263682 0.401978 -0.05681
C_ C_ 0.133732 0.494062 0.425442 -0.08735
C_ C_ 0.131174 0.442082 0.423196 -0.05681
C_ C_ 0.120956 0.419051 0.395632 -0.05681
C_ C_ 0.113283 0.451024 0.371095 -0.08735
C_ C_ 0.1187 0.504919 0.374213 -0.08735
C_ C_ 0.140161 0.410196 0.44645 -0.08735
C_ C_ 0.141197 0.358888 0.442923 -0.08735
C_ C_ 0.133904 0.334921 0.415811 -0.05681
C_ C_ 0.120105 0.366067 0.392771 -0.08735
C_ C_ 0.0366489 0.177433 0.410148 0.68181
C_ C_ 0.115139 0.121681 0.488045 0.1947
C_ C_ 0.110582 0.0972554 0.0117896 -0.08735
C_ C_ 0.130491 0.127054 0.0344332 -0.08735
C_ C_ 0.148583 0.17705 0.0292508 -0.05681
C_ C_ 0.158213 0.189215 1.00015 0.18498
C_ C_ 0.188702 0.238045 0.494462 -0.08735
C_ C_ 0.206491 0.265093 0.0145098 -0.08735
C_ C_ 0.191898 0.257485 0.0434157 -0.08735
C_ C_ 0.16501 0.21234 0.0507915 0.18498
C_ C_ 0.199021 0.188225 0.0968891 0.44287
C_ C_ 0.111259 0.206495 0.0936598 0.44287
C_ C_ 0.103656 0.194283 0.122551 -0.05681
C_ C_ 0.0548444 0.200542 0.134989 -0.08735
C_ C_ 0.0487054 0.190581 0.163673 -0.08735
C_ C_ 0.0905198 0.180816 0.18167 -0.05681
C_ C_ 0.139996 0.177196 0.169955 -0.05681
C_ C_ 0.147169 0.183979 0.13953 -0.05681
C_ C_ 0.194572 0.18066 0.127663 -0.05681
C_ C_ 0.238031 0.171096 0.145709 -0.08735
C_ C_ 0.232593 0.166459 0.175199 -0.08735
C_ C_ 0.182546 0.169423 0.187249 -0.05681
C_ C_ 0.173895 0.165889 0.217391 0.44287
C_ C_ 0.083318 0.175218 0.212554 0.44287
C_ C_ 0.118678 0.149357 0.258641 0.18498
C_ C_ 0.0984562 0.10165 0.265285 -0.08735
C_ C_ 0.0834974 0.088665 0.29334 -0.08735
C_ C_ 0.099818 0.119417 0.315382 -0.08735
C_ C_ 0.119034 0.167145 0.309806 0.18498
C_ C_ 0.128153 0.182243 0.281569 -0.05681
C_ C_ 0.151127 0.231688 0.277185 -0.08735
C_ C_ 0.168358 0.260962 0.300302 -0.08735
C_ C_ 0.156559 0.243632 0.32798 0.1947
C_ C_ 0.284317 0.325536 0.154229 0.68181
C_ C_ 0.228911 0.320674 0.151336 -0.05681
C_ C_ 0.195318 0.31768 0.174764 -0.08735
C_ C_ 0.142876 0.317987 0.170362 -0.05681
C_ C_ 0.122937 0.3209 0.1413 -0.05681
C_ C_ 0.155815 0.318014 0.118345 -0.08735
C_ C_ 0.207631 0.315117 0.122696 -0.08735
C_ C_ 0.110743 0.316593 0.193686 -0.08735
C_ C_ 0.0583966 0.316073 0.189334 -0.08735
C_ C_ 0.0372663 0.32243 0.161391 -0.05681
C_ C_ 0.0698053 0.323123 0.137415 -0.08735
C_ C_ 0.380661 0.231596 0.163082 0.68181
C_ C_ 0.377012 0.424595 0.146931 0.68181
C_ C_ 0.388292 0.480616 0.14768 -0.05681
C_ C_ 0.370103 0.0177022 0.174656 -0.08735
C_ C_ 0.369532 0.0709893 0.171718 -0.05681
C_ C_ 0.37823 0.0933739 0.143265 -0.05681
C_ C_ 0.384482 0.0623719 0.120479 -0.08735
C_ C_ 0.406034 0.505193 0.122935 -0.08735
C_ C_ 0.373493 0.100188 0.19594 -0.08735
C_ C_ 0.376185 0.153981 0.192818 -0.08735
C_ C_ 0.380473 0.176002 0.16496 -0.05681
C_ C_ 0.381592 0.145815 0.140804 -0.08735
C_ C_ 0.483838 0.325716 0.1619 0.68181
C_ C_ 0.406566 0.38481 0.231878 0.1947
C_ C_ 0.413841 0.398876 0.260138 -0.08735
C_ C_ 0.396185 0.371891 0.283479 -0.08735
C_ C_ 0.375769 0.323444 0.278884 -0.05681
C_ C_ 0.370762 0.308011 0.249181 0.18498
C_ C_ 0.339477 0.266872 0.242111 -0.08735
C_ C_ 0.31842 0.237749 0.264465 -0.08735
C_ C_ 0.328399 0.249507 0.292856 -0.08735
C_ C_ 0.357243 0.291519 0.301261 0.18498
C_ C_ 0.318323 0.319344 0.347539 0.44287
C_ C_ 0.406116 0.295976 0.343316 0.44287
C_ C_ 0.414136 0.304632 0.373879 -0.05681
C_ C_ 0.462559 0.304773 0.386022 -0.08735
C_ C_ 0.468834 0.310773 0.415686 -0.08735
C_ C_ 0.427386 0.326352 0.433458 -0.05681
C_ C_ 0.378631 0.328063 0.420786 -0.05681
C_ C_ 0.370721 0.316284 0.390496 -0.05681
C_ C_ 0.323325 0.319837 0.378101 -0.05681
C_ C_ 0.281143 0.333022 0.395669 -0.08735
C_ C_ 0.289227 0.342811 0.426046 -0.08735
C_ C_ 0.336147 0.33542 0.439131 -0.05681
C_ C_ 0.344638 0.339318 0.469156 0.44287
C_ C_ 0.433176 0.327946 0.4627 0.44287
C_ C_ 0.413344 0.34604 0.012358 0.18498
C_ C_ 0.438759 0.392815 0.0187462 -0.08735
C_ C_ 0.453062 0.407254 0.0460776 -0.08735
C_ C_ 0.441524 0.373365 0.0686616 -0.08735
C_ C_ 0.405735 0.332108 0.0637419 0.18498
C_ C_ 0.391639 0.317959 0.0356096 -0.05681
C_ C_ 0.35644 0.279352 0.0308898 -0.08735
C_ C_ 0.332871 0.256884 0.0542739 -0.08735
C_ C_ 0.346915 0.268808 0.081697 0.1947
N_ N_ 0.141304 0.165711 0.480855 -0.29468
N_ N_ 0.158901 0.202609 0.0810602 -0.17154
N_ N_ 0.124999 0.165026 0.229347 -0.17154
N_ N_ 0.133655 0.197808 0.333256 -0.29468
N_ N_ 0.384687 0.340553 0.227234 -0.29468
N_ N_ 0.359358 0.30594 0.330509 -0.17154
N_ N_ 0.392954 0.334026 0.480801 -0.17154
N_ N_ 0.383144 0.30503 0.0855973 -0.29468
O_ O_ 0.211987 0.178007 0.431667 -0.58347
O_ O_ 0.205468 0.192514 0.386562 -0.58347
O_ O_ 0.142353 0.254838 0.435773 -0.58347
O_ O_ 0.122102 0.255783 0.390599 -0.58347
O_ O_ 0.136638 0.102603 0.426365 -0.58347
O_ O_ 0.150659 0.110062 0.380717 -0.58347
O_ O_ 0.0644365 0.178854 0.43123 -0.58347
O_ O_ 0.0558369 0.175654 0.386411 -0.58347
O_ O_ 0.0734324 0.223371 0.0787535 -0.46727
O_ O_ 0.244655 0.193835 0.0860539 -0.46727
O_ O_ 0.0373335 0.17262 0.223387 -0.46727
O_ O_ 0.214016 0.160981 0.23505 -0.46727
O_ O_ 0.306325 0.329224 0.178054 -0.58347
O_ O_ 0.311458 0.331134 0.132485 -0.58347
O_ O_ 0.389568 0.259388 0.183923 -0.58347
O_ O_ 0.372265 0.251612 0.139241 -0.58347
O_ O_ 0.374331 0.402714 0.171575 -0.58347
O_ O_ 0.392531 0.398497 0.126366 -0.58347
O_ O_ 0.455798 0.340983 0.182678 -0.58347
O_ O_ 0.463839 0.313931 0.137192 -0.58347
O_ O_ 0.444971 0.287441 0.327075 -0.46727
O_ O_ 0.274058 0.323591 0.334827 -0.46727
O_ O_ 0.479325 0.317811 0.473678 -0.46727
O_ O_ 0.308433 0.357916 0.485263 -0.46727
Zn Zn 0.128332 0.172896 0.882765 0.90689
Zn Zn 0.143248 0.17303 0.932253 0.90689
Zn Zn 0.378142 0.315945 0.634512 0.90689
Zn Zn 0.360439 0.322746 0.682751 0.90689
H_ H_ 0.310631 0.174149 0.943551 0.11455
H_ H_ 0.373859 0.185496 0.845572 0.11455
H_ H_ 0.285816 0.181388 0.85504 0.11455
H_ H_ 0.390606 0.172199 0.964106 0.11455
H_ H_ 0.48688 0.161776 0.955238 0.11455
H_ H_ 0.464749 0.191094 0.863911 0.11455
H_ H_ 0.154767 0.00878498 0.943205 0.11455
H_ H_ 0.112068 0.424733 0.851134 0.11455
H_ H_ 0.143591 0.0172531 0.850952 0.11455
H_ H_ 0.0935683 0.418033 0.967975 0.11455
H_ H_ 0.0988903 0.330053 0.963945 0.11455
H_ H_ 0.116038 0.341778 0.872223 0.11455
H_ H_ 0.0845763 0.10608 0.967896 0.11455
H_ H_ 0.0875133 0.0747918 0.522855 0.11455
H_ H_ 0.125497 0.12443 0.560158 0.11455
H_ H_ 0.211098 0.228284 0.972107 0.11455
H_ H_ 0.218811 0.309212 0.506202 0.11455
H_ H_ 0.219013 0.282305 0.560149 0.11455
H_ H_ 0.0211427 0.215269 0.624435 0.11455
H_ H_ 0.0046137 0.185691 0.670844 0.11455
H_ H_ 0.269113 0.176583 0.639757 0.11455
H_ H_ 0.256728 0.169652 0.691416 0.11455
H_ H_ 0.0565728 0.0985481 0.746876 0.11455
H_ H_ 0.0621651 0.0567263 0.793666 0.11455
H_ H_ 0.0927888 0.105194 0.835981 0.11455
H_ H_ 0.145171 0.255763 0.762201 0.11455
H_ H_ 0.176964 0.301285 0.804438 0.11455
H_ H_ 0.172238 0.259341 0.85281 0.11455
H_ H_ 0.195495 0.307032 0.692177 0.11455
H_ H_ 0.129403 0.337388 0.595837 0.11455
H_ H_ 0.221067 0.346063 0.605462 0.11455
H_ H_ 0.108641 0.283049 0.708227 0.11455
H_ H_ 0.0181789 0.296519 0.702935 0.11455
H_ H_ 0.0410753 0.330297 0.614285 0.11455
H_ H_ 0.359927 0.492142 0.693841 0.11455
H_ H_ 0.363828 0.0690546 0.595348 0.11455
H_ H_ 0.385617 0.467549 0.604624 0.11455
H_ H_ 0.369478 0.0693775 0.714913 0.11455
H_ H_ 0.379352 0.158567 0.711396 0.11455
H_ H_ 0.386382 0.15275 0.619799 0.11455
H_ H_ 0.416462 0.399538 0.717131 0.11455
H_ H_ 0.419255 0.43235 0.764246 0.11455
H_ H_ 0.402446 0.371055 0.804725 0.11455
H_ H_ 0.287424 0.270967 0.72474 0.11455
H_ H_ 0.251612 0.223682 0.765706 0.11455
H_ H_ 0.28341 0.232121 0.813324 0.11455
H_ H_ 0.493047 0.298799 0.870752 0.11455
H_ H_ 0.504044 0.297714 0.922126 0.11455
H_ H_ 0.239019 0.319864 0.896401 0.11455
H_ H_ 0.260004 0.34801 0.946706 0.11455
H_ H_ 0.449534 0.416171 0.000466869 0.11455
H_ H_ 0.465859 0.438582 0.550836 0.11455
H_ H_ 0.427034 0.391438 0.589115 0.11455
H_ H_ 0.346593 0.260552 0.508975 0.11455
H_ H_ 0.326114 0.207468 0.547918 0.11455
H_ H_ 0.338357 0.237049 0.599552 0.11455
C_ C_ 0.233775 0.175685 0.905124 0.68181
C_ C_ 0.289534 0.177589 0.899914 -0.05681
C_ C_ 0.323706 0.175396 0.922339 -0.08735
C_ C_ 0.37688 0.17584 0.9187 -0.05681
C_ C_ 0.395484 0.179914 0.890969 -0.05681
C_ C_ 0.360945 0.182699 0.86782 -0.08735
C_ C_ 0.308716 0.184863 0.872727 -0.08735
C_ C_ 0.409031 0.166726 0.941614 -0.08735
C_ C_ 0.461096 0.167856 0.937366 -0.08735
C_ C_ 0.481285 0.175012 0.91025 -0.05681
C_ C_ 0.447515 0.186382 0.886262 -0.08735
C_ C_ 0.119928 0.271484 0.916741 0.68181
C_ C_ 0.149254 0.0753738 0.900072 0.68181
C_ C_ 0.149791 0.0199438 0.897276 -0.05681
C_ C_ 0.126348 0.489989 0.925836 -0.08735
C_ C_ 0.117891 0.435407 0.92366 -0.05681
C_ C_ 0.115691 0.411639 0.895623 -0.05681
C_ C_ 0.11809 0.442002 0.871809 -0.08735
C_ C_ 0.123219 0.49424 0.873677 -0.08735
C_ C_ 0.106068 0.406004 0.947701 -0.08735
C_ C_ 0.108125 0.353129 0.945282 -0.08735
C_ C_ 0.11759 0.32884 0.917935 -0.05681
C_ C_ 0.1135 0.358898 0.89282 -0.08735
C_ C_ 0.0369082 0.168117 0.911263 0.68181
C_ C_ 0.109693 0.120774 0.984733 0.1947
C_ C_ 0.111265 0.106304 0.517026 -0.08735
C_ C_ 0.131629 0.137309 0.53895 -0.08735
C_ C_ 0.154692 0.182612 0.531112 -0.05681
C_ C_ 0.163554 0.195233 0.501622 0.18498
C_ C_ 0.19132 0.228425 0.994103 -0.08735
C_ C_ 0.198652 0.275248 0.514205 -0.08735
C_ C_ 0.196146 0.262249 0.543708 -0.08735
C_ C_ 0.169409 0.218744 0.552507 0.18498
C_ C_ 0.197175 0.195854 0.601422 0.44287
C_ C_ 0.110451 0.212502 0.59413 0.44287
C_ C_ 0.0989573 0.194349 0.6225 -0.05681
C_ C_ 0.0503657 0.193135 0.634022 -0.08735
C_ C_ 0.0437162 0.183156 0.662148 -0.08735
C_ C_ 0.084127 0.177627 0.681457 -0.05681
C_ C_ 0.135092 0.179305 0.670737 -0.05681
C_ C_ 0.141281 0.184114 0.641043 -0.05681
C_ C_ 0.190104 0.184794 0.630909 -0.05681
C_ C_ 0.230888 0.171859 0.64816 -0.08735
C_ C_ 0.225975 0.172278 0.677877 -0.08735
C_ C_ 0.176354 0.176934 0.689737 -0.05681
C_ C_ 0.164601 0.172159 0.71982 0.44287
C_ C_ 0.0772844 0.180998 0.711389 0.44287
C_ C_ 0.104451 0.161928 0.759452 0.18498
C_ C_ 0.0776569 0.115996 0.764167 -0.08735
C_ C_ 0.0749192 0.0959048 0.791554 -0.08735
C_ C_ 0.0949413 0.121824 0.815565 -0.08735
C_ C_ 0.116732 0.170572 0.812659 0.18498
C_ C_ 0.126711 0.188785 0.784267 -0.05681
C_ C_ 0.145017 0.236991 0.782417 -0.08735
C_ C_ 0.159312 0.26425 0.806619 -0.08735
C_ C_ 0.155424 0.242548 0.83353 0.1947
C_ C_ 0.270561 0.320611 0.654856 0.68181
C_ C_ 0.214298 0.315748 0.648228 -0.05681
C_ C_ 0.181371 0.311986 0.671857 -0.08735
C_ C_ 0.129404 0.3173 0.667661 -0.05681
C_ C_ 0.109242 0.32492 0.638812 -0.05681
C_ C_ 0.14433 0.33088 0.616487 -0.08735
C_ C_ 0.196453 0.330778 0.620963 -0.08735
C_ C_ 0.0951987 0.30164 0.68901 -0.08735
C_ C_ 0.0428967 0.307751 0.685814 -0.08735
C_ C_ 0.0221776 0.315961 0.658292 -0.05681
C_ C_ 0.0559841 0.327546 0.635753 -0.08735
C_ C_ 0.380331 0.220579 0.665138 0.68181
C_ C_ 0.363489 0.418147 0.651786 0.68181
C_ C_ 0.362277 0.473465 0.648233 -0.05681
C_ C_ 0.354663 0.00608241 0.670247 -0.08735
C_ C_ 0.36068 0.0597816 0.668297 -0.05681
C_ C_ 0.369991 0.081768 0.641422 -0.05681
C_ C_ 0.360474 0.0505191 0.616985 -0.08735
C_ C_ 0.380211 0.495621 0.621892 -0.08735
C_ C_ 0.371251 0.0864674 0.693493 -0.08735
C_ C_ 0.383454 0.138583 0.692105 -0.08735
C_ C_ 0.381531 0.163908 0.665865 -0.05681
C_ C_ 0.382156 0.135074 0.640895 -0.08735
C_ C_ 0.466769 0.325162 0.661389 0.68181
C_ C_ 0.393442 0.381409 0.734363 0.1947
C_ C_ 0.398854 0.395882 0.761328 -0.08735
C_ C_ 0.386422 0.36525 0.784244 -0.08735
C_ C_ 0.352382 0.325276 0.78135 -0.05681
C_ C_ 0.342171 0.31338 0.751264 0.18498
C_ C_ 0.302859 0.278182 0.74681 -0.08735
C_ C_ 0.27934 0.25306 0.769525 -0.08735
C_ C_ 0.295495 0.258314 0.797247 -0.08735
C_ C_ 0.334973 0.29328 0.804289 0.18498
C_ C_ 0.30955 0.315648 0.853776 0.44287
C_ C_ 0.394338 0.295278 0.845718 0.44287
C_ C_ 0.408706 0.309873 0.873815 -0.05681
C_ C_ 0.458516 0.305848 0.884953 -0.08735
C_ C_ 0.469175 0.311711 0.914803 -0.08735
C_ C_ 0.429776 0.323137 0.934277 -0.05681
C_ C_ 0.380973 0.329161 0.923568 -0.05681
C_ C_ 0.370969 0.323034 0.894177 -0.05681
C_ C_ 0.318878 0.319564 0.883542 -0.05681
C_ C_ 0.278852 0.318634 0.903372 -0.08735
C_ C_ 0.290861 0.337027 0.931747 -0.08735
C_ C_ 0.340208 0.340816 0.941047 -0.05681
C_ C_ 0.352604 0.344837 0.971108 0.44287
C_ C_ 0.439648 0.325147 0.963334 0.44287
C_ C_ 0.402034 0.349025 0.510483 0.18498
C_ C_ 0.431383 0.392811 0.516242 -0.08735
C_ C_ 0.442602 0.405048 0.544856 -0.08735
C_ C_ 0.422996 0.377252 0.567738 -0.08735
C_ C_ 0.395127 0.332029 0.563319 0.18498
C_ C_ 0.387199 0.31572 0.53311 -0.05681
C_ C_ 0.359777 0.273112 0.529846 -0.08735
C_ C_ 0.347936 0.241328 0.55229 -0.08735
C_ C_ 0.356082 0.257177 0.581493 0.1947
N_ N_ 0.140332 0.159184 0.978781 -0.29468
N_ N_ 0.157353 0.210614 0.583888 -0.17154
N_ N_ 0.116396 0.177182 0.729963 -0.17154
N_ N_ 0.137538 0.19377 0.835621 -0.29468
N_ N_ 0.366737 0.337624 0.7295 -0.29468
N_ N_ 0.346901 0.300934 0.834481 -0.17154
N_ N_ 0.400576 0.335712 0.981855 -0.17154
N_ N_ 0.38265 0.302119 0.585773 -0.29468
O_ O_ 0.21772 0.172265 0.930107 -0.58347
O_ O_ 0.202012 0.183741 0.884992 -0.58347
O_ O_ 0.137728 0.248024 0.937376 -0.58347
O_ O_ 0.110859 0.247795 0.893329 -0.58347
O_ O_ 0.137554 0.0941602 0.924805 -0.58347
O_ O_ 0.147782 0.102284 0.877846 -0.58347
O_ O_ 0.0658615 0.172488 0.933284 -0.58347
O_ O_ 0.0560186 0.16473 0.886543 -0.58347
O_ O_ 0.0745444 0.231367 0.578889 -0.46727
O_ O_ 0.244048 0.191557 0.590478 -0.46727
O_ O_ 0.031022 0.185722 0.721006 -0.46727
O_ O_ 0.203936 0.166128 0.738245 -0.46727
O_ O_ 0.286834 0.330312 0.680058 -0.58347
O_ O_ 0.302332 0.303038 0.637597 -0.58347
O_ O_ 0.358226 0.245972 0.684529 -0.58347
O_ O_ 0.400889 0.243529 0.644036 -0.58347
O_ O_ 0.367961 0.400343 0.676761 -0.58347
O_ O_ 0.362118 0.387972 0.629991 -0.58347
O_ O_ 0.436212 0.320021 0.682768 -0.58347
O_ O_ 0.450871 0.329529 0.635827 -0.58347
O_ O_ 0.430962 0.281641 0.828697 -0.46727
O_ O_ 0.262373 0.321717 0.845025 -0.46727
O_ O_ 0.488321 0.324424 0.970912 -0.46727
O_ O_ 0.316655 0.353604 0.989586 -0.46727
Zn Zn 0.116805 0.687509 0.387998 0.90689
Zn Zn 0.129456 0.676887 0.435617 0.90689
Zn Zn 0.372091 0.822932 0.133562 0.90689
Zn Zn 0.360358 0.829907 0.18042 0.90689
H_ H_ 0.298915 0.694178 0.447887 0.11455
H_ H_ 0.363946 0.654923 0.353878 0.11455
H_ H_ 0.269751 0.654974 0.36171 0.11455
H_ H_ 0.384976 0.690887 0.467281 0.11455
H_ H_ 0.475929 0.685919 0.460485 0.11455
H_ H_ 0.453437 0.658595 0.371887 0.11455
H_ H_ 0.141179 0.510432 0.446641 0.11455
H_ H_ 0.150277 0.933978 0.351011 0.11455
H_ H_ 0.105499 0.527666 0.35632 0.11455
H_ H_ 0.114566 0.932865 0.467969 0.11455
H_ H_ 0.110659 0.837958 0.46555 0.11455
H_ H_ 0.128558 0.849447 0.372867 0.11455
H_ H_ 0.0751693 0.597089 0.471059 0.11455
H_ H_ 0.0949514 0.556046 0.0186409 0.11455
H_ H_ 0.124086 0.611956 0.0585986 0.11455
H_ H_ 0.181368 0.738203 0.475529 0.11455
H_ H_ 0.216396 0.799834 0.0171639 0.11455
H_ H_ 0.18057 0.781732 0.0670841 0.11455
H_ H_ 0.00981464 0.679465 0.12286 0.11455
H_ H_ -0.005399000000000043 0.664022 0.172825 0.11455
H_ H_ 0.260448 0.691729 0.146402 0.11455
H_ H_ 0.246424 0.685385 0.197746 0.11455
H_ H_ 0.0702595 0.58986 0.250355 0.11455
H_ H_ 0.0531544 0.559132 0.300622 0.11455
H_ H_ 0.068082 0.616757 0.342319 0.11455
H_ H_ 0.136396 0.760093 0.264971 0.11455
H_ H_ 0.171991 0.803881 0.308294 0.11455
H_ H_ 0.171373 0.766236 0.355168 0.11455
H_ H_ 0.190802 0.800611 0.191583 0.11455
H_ H_ 0.124755 0.851687 0.097868 0.11455
H_ H_ 0.21543 0.851725 0.108022 0.11455
H_ H_ 0.0965274 0.79507 0.211574 0.11455
H_ H_ 0.00967123 0.805627 0.202324 0.11455
H_ H_ 0.0388286 0.829681 0.112664 0.11455
H_ H_ 0.36145 1.000417468 0.194268 0.11455
H_ H_ 0.418118 0.574086 0.0997815 0.11455
H_ H_ 0.385341 0.986095 0.103938 0.11455
H_ H_ 0.320543 0.577945 0.205694 0.11455
H_ H_ 0.333597 0.667563 0.204707 0.11455
H_ H_ 0.405717 0.661542 0.121699 0.11455
H_ H_ 0.42417 0.893263 0.216572 0.11455
H_ H_ 0.458261 0.903742 0.266704 0.11455
H_ H_ 0.408091 0.875461 0.306328 0.11455
H_ H_ 0.29787 0.77302 0.222179 0.11455
H_ H_ 0.255222 0.7264 0.26447 0.11455
H_ H_ 0.278861 0.741747 0.311338 0.11455
H_ H_ 0.477872 0.796392 0.372232 0.11455
H_ H_ 0.487022 0.798805 0.42347 0.11455
H_ H_ 0.228373 0.848099 0.388732 0.11455
H_ H_ 0.242746 0.862047 0.439836 0.11455
H_ H_ 0.433672 0.90558 0.499809 0.11455
H_ H_ 0.435637 0.950978 0.0462249 0.11455
H_ H_ 0.419889 0.896876 0.0866059 0.11455
H_ H_ 0.343155 0.755294 0.00816828 0.11455
H_ H_ 0.295631 0.721565 0.0486831 0.11455
H_ H_ 0.310309 0.754654 0.0991896 0.11455
C_ C_ 0.223059 0.684702 0.409579 0.68181
C_ C_ 0.278127 0.681116 0.405087 -0.05681
C_ C_ 0.312923 0.688299 0.426864 -0.08735
C_ C_ 0.366619 0.688262 0.422634 -0.05681
C_ C_ 0.385095 0.677016 0.395644 -0.05681
C_ C_ 0.348883 0.665404 0.374214 -0.08735
C_ C_ 0.29666 0.669673 0.378025 -0.08735
C_ C_ 0.400251 0.687543 0.446153 -0.08735
C_ C_ 0.452463 0.679046 0.442354 -0.08735
C_ C_ 0.471384 0.674039 0.413665 -0.05681
C_ C_ 0.438435 0.671171 0.391385 -0.08735
C_ C_ 0.114732 0.780057 0.417017 0.68181
C_ C_ 0.128374 0.585114 0.406514 0.68181
C_ C_ 0.127956 0.527631 0.402102 -0.05681
C_ C_ 0.147094 0.993814 0.427293 -0.08735
C_ C_ 0.135144 0.941563 0.423024 -0.05681
C_ C_ 0.128982 0.920672 0.396197 -0.05681
C_ C_ 0.142997 0.951617 0.372189 -0.08735
C_ C_ 0.147613 1.00392 0.374691 -0.08735
C_ C_ 0.123498 0.914142 0.448197 -0.08735
C_ C_ 0.117838 0.859594 0.446318 -0.08735
C_ C_ 0.118893 0.836756 0.420028 -0.05681
C_ C_ 0.124601 0.868086 0.394515 -0.08735
C_ C_ 0.0236189 0.680792 0.409036 0.68181
C_ C_ 0.0908024 0.620638 0.48805 0.1947
C_ C_ 0.111247 0.593316 0.0143207 -0.08735
C_ C_ 0.123922 0.624183 0.0370378 -0.08735
C_ C_ 0.138008 0.675578 0.0329118 -0.05681
C_ C_ 0.144609 0.690342 1.00387625 0.18498
C_ C_ 0.177467 0.727308 0.497844 -0.08735
C_ C_ 0.190296 0.767232 0.0214246 -0.08735
C_ C_ 0.173429 0.755789 0.0489217 -0.08735
C_ C_ 0.154725 0.708053 0.0560755 0.18498
C_ C_ 0.190108 0.690221 0.103606 0.44287
C_ C_ 0.103083 0.692837 0.0968689 0.44287
C_ C_ 0.0920565 0.68716 0.12635 -0.05681
C_ C_ 0.0423293 0.67973 0.137455 -0.08735
C_ C_ 0.0334375 0.677013 0.166195 -0.08735
C_ C_ 0.072319 0.678658 0.186306 -0.05681
C_ C_ 0.122398 0.684608 0.175179 -0.05681
C_ C_ 0.13306 0.688457 0.145065 -0.05681
C_ C_ 0.182936 0.686477 0.133599 -0.05681
C_ C_ 0.222639 0.681738 0.153189 -0.08735
C_ C_ 0.215165 0.684148 0.18246 -0.08735
C_ C_ 0.164564 0.680736 0.192844 -0.05681
C_ C_ 0.155546 0.676688 0.223253 0.44287
C_ C_ 0.0675025 0.679984 0.215829 0.44287
C_ C_ 0.0968515 0.663332 0.263845 0.18498
C_ C_ 0.078053 0.614924 0.268726 -0.08735
C_ C_ 0.0724486 0.596836 0.297887 -0.08735
C_ C_ 0.0789426 0.631173 0.32122 -0.08735
C_ C_ 0.106458 0.675061 0.317098 0.18498
C_ C_ 0.112922 0.693872 0.287869 -0.05681
C_ C_ 0.137584 0.741963 0.285121 -0.08735
C_ C_ 0.157128 0.767322 0.309437 -0.08735
C_ C_ 0.156187 0.743502 0.336402 0.1947
C_ C_ 0.267353 0.826583 0.156507 0.68181
C_ C_ 0.211375 0.825357 0.1513 -0.05681
C_ C_ 0.176586 0.818347 0.173891 -0.08735
C_ C_ 0.122193 0.820833 0.168855 -0.05681
C_ C_ 0.102849 0.836021 0.141851 -0.05681
C_ C_ 0.139145 0.840976 0.118595 -0.08735
C_ C_ 0.191159 0.835157 0.123269 -0.08735
C_ C_ 0.0855199 0.808783 0.190193 -0.08735
C_ C_ 0.033912 0.811965 0.185156 -0.08735
C_ C_ 0.0169473 0.824013 0.157442 -0.05681
C_ C_ 0.0515661 0.833135 0.135533 -0.08735
C_ C_ 0.373307 0.72727 0.162196 0.68181
C_ C_ 0.366904 0.92828 0.152949 0.68181
C_ C_ 0.372751 0.985521 0.150376 -0.05681
C_ C_ 0.364241 0.50978 0.167986 -0.08735
C_ C_ 0.366517 0.564453 0.167453 -0.05681
C_ C_ 0.391055 0.587254 0.14425 -0.05681
C_ C_ 0.407989 0.55707 0.120684 -0.08735
C_ C_ 0.386189 0.00964767 0.123996 -0.08735
C_ C_ 0.346227 0.592889 0.189411 -0.08735
C_ C_ 0.351922 0.646285 0.188255 -0.08735
C_ C_ 0.372767 0.672031 0.164967 -0.05681
C_ C_ 0.390123 0.641654 0.141651 -0.08735
C_ C_ 0.466077 0.8267 0.156199 0.68181
C_ C_ 0.401145 0.879171 0.234978 0.1947
C_ C_ 0.420914 0.886497 0.262683 -0.08735
C_ C_ 0.396712 0.861414 0.28498 -0.08735
C_ C_ 0.355621 0.828657 0.279939 -0.05681
C_ C_ 0.343626 0.817187 0.25097 0.18498
C_ C_ 0.308727 0.778987 0.24404 -0.08735
C_ C_ 0.285372 0.75323 0.266068 -0.08735
C_ C_ 0.299677 0.763345 0.294903 -0.08735
C_ C_ 0.331012 0.802359 0.302018 0.18498
C_ C_ 0.300649 0.831407 0.348362 0.44287
C_ C_ 0.386168 0.800303 0.343557 0.44287
C_ C_ 0.39526 0.810532 0.373308 -0.05681
C_ C_ 0.444202 0.804898 0.384739 -0.08735
C_ C_ 0.449334 0.806625 0.414655 -0.08735
C_ C_ 0.409253 0.816428 0.433715 -0.05681
C_ C_ 0.361986 0.825949 0.421949 -0.05681
C_ C_ 0.354891 0.824667 0.391359 -0.05681
C_ C_ 0.306807 0.835642 0.378059 -0.05681
C_ C_ 0.266662 0.847637 0.39661 -0.08735
C_ C_ 0.274408 0.851935 0.426351 -0.08735
C_ C_ 0.320563 0.839878 0.439464 -0.05681
C_ C_ 0.329194 0.840785 0.469959 0.44287
C_ C_ 0.414818 0.814786 0.464062 0.44287
C_ C_ 0.380948 0.850554 0.00811342 0.18498
C_ C_ 0.401803 0.899061 0.0136735 -0.08735
C_ C_ 0.412339 0.916204 0.0419827 -0.08735
C_ C_ 0.405235 0.884434 0.0653975 -0.08735
C_ C_ 0.380546 0.838564 0.0614955 0.18498
C_ C_ 0.371806 0.820326 0.0324091 -0.05681
C_ C_ 0.345319 0.77584 0.0287932 -0.08735
C_ C_ 0.32426 0.750761 0.0522292 -0.08735
C_ C_ 0.33221 0.770241 0.0809625 0.1947
N_ N_ 0.120151 0.660951 0.481567 -0.29468
N_ N_ 0.150466 0.691522 0.0854796 -0.17154
N_ N_ 0.107995 0.679763 0.233795 -0.17154
N_ N_ 0.128856 0.699656 0.34003 -0.29468
N_ N_ 0.363706 0.84459 0.229118 -0.29468
N_ N_ 0.340993 0.813426 0.331536 -0.17154
N_ N_ 0.374952 0.829118 0.480981 -0.17154
N_ N_ 0.364773 0.810493 0.0844719 -0.29468
O_ O_ 0.205448 0.677522 0.434746 -0.58347
O_ O_ 0.194381 0.694726 0.389683 -0.58347
O_ O_ 0.125757 0.753877 0.438874 -0.58347
O_ O_ 0.105396 0.761292 0.393245 -0.58347
O_ O_ 0.133166 0.602856 0.431606 -0.58347
O_ O_ 0.123704 0.61428 0.384811 -0.58347
O_ O_ 0.0499337 0.675331 0.431748 -0.58347
O_ O_ 0.0416909 0.680282 0.384282 -0.58347
O_ O_ 0.0645584 0.697191 0.0784779 -0.46727
O_ O_ 0.235267 0.685553 0.0917699 -0.46727
O_ O_ 0.0201681 0.679941 0.226412 -0.46727
O_ O_ 0.194648 0.671393 0.240416 -0.46727
O_ O_ 0.28531 0.832895 0.181525 -0.58347
O_ O_ 0.298177 0.820247 0.134324 -0.58347
O_ O_ 0.35906 0.753503 0.182909 -0.58347
O_ O_ 0.378502 0.749052 0.138553 -0.58347
O_ O_ 0.358675 0.907439 0.17794 -0.58347
O_ O_ 0.369433 0.899068 0.13086 -0.58347
O_ O_ 0.437684 0.829021 0.179708 -0.58347
O_ O_ 0.444694 0.827574 0.131304 -0.58347
O_ O_ 0.420644 0.775889 0.329264 -0.46727
O_ O_ 0.256857 0.843234 0.337004 -0.46727
O_ O_ 0.459623 0.817375 0.474467 -0.46727
O_ O_ 0.292066 0.856083 0.486839 -0.46727
Zn Zn 0.122525 0.676903 0.885736 0.90689
Zn Zn 0.13402 0.678824 0.933983 0.90689
Zn Zn 0.36513 0.81332 0.631218 0.90689
Zn Zn 0.350981 0.824755 0.67904 0.90689
H_ H_ 0.305845 0.6795 0.954389 0.11455
H_ H_ 0.362608 0.650042 0.854287 0.11455
H_ H_ 0.275809 0.673107 0.862431 0.11455
H_ H_ 0.394525 0.694223 0.970254 0.11455
H_ H_ 0.479773 0.717935 0.954699 0.11455
H_ H_ 0.455738 0.649456 0.872876 0.11455
H_ H_ 0.126393 0.508085 0.946524 0.11455
H_ H_ 0.14102 0.929567 0.847854 0.11455
H_ H_ 0.115652 0.516482 0.855488 0.11455
H_ H_ 0.162726 0.922839 0.964584 0.11455
H_ H_ 0.134542 0.836779 0.964432 0.11455
H_ H_ 0.129778 0.841165 0.873538 0.11455
H_ H_ 0.0940152 0.592355 0.968579 0.11455
H_ H_ 0.0508984 0.581936 0.520735 0.11455
H_ H_ 0.100118 0.618501 0.561082 0.11455
H_ H_ 0.196643 0.738995 0.978004 0.11455
H_ H_ 0.220003 0.791187 0.514582 0.11455
H_ H_ 0.200545 0.770337 0.56541 0.11455
H_ H_ 1.0129604 0.699979 0.623585 0.11455
H_ H_ 0.998198 0.690698 0.67561 0.11455
H_ H_ 0.263329 0.664299 0.643401 0.11455
H_ H_ 0.249624 0.65663 0.693368 0.11455
H_ H_ 0.0503025 0.585291 0.75501 0.11455
H_ H_ 0.0223108 0.573387 0.803072 0.11455
H_ H_ 0.0629666 0.620079 0.84289 0.11455
H_ H_ 0.155891 0.738079 0.762463 0.11455
H_ H_ 0.193198 0.782618 0.803616 0.11455
H_ H_ 0.172491 0.752747 0.852576 0.11455
H_ H_ 0.181177 0.785616 0.693419 0.11455
H_ H_ 0.118254 0.826324 0.595225 0.11455
H_ H_ 0.211497 0.828613 0.603882 0.11455
H_ H_ 0.0905839 0.800947 0.712639 0.11455
H_ H_ -0.00134672 0.798356 0.699706 0.11455
H_ H_ 0.031636 0.824667 0.612839 0.11455
H_ H_ 0.358323 0.986399 0.690093 0.11455
H_ H_ 0.386242 0.563098 0.595796 0.11455
H_ H_ 0.357195 0.975482 0.601196 0.11455
H_ H_ 0.365605 0.573848 0.714584 0.11455
H_ H_ 0.36578 0.662848 0.710371 0.11455
H_ H_ 0.374049 0.649774 0.617636 0.11455
H_ H_ 0.392335 0.903188 0.713107 0.11455
H_ H_ 0.404083 0.93782 0.761768 0.11455
H_ H_ 0.38805 0.881717 0.803321 0.11455
H_ H_ 0.311527 0.751981 0.723157 0.11455
H_ H_ 0.276557 0.698074 0.763512 0.11455
H_ H_ 0.302371 0.719799 0.813235 0.11455
H_ H_ 0.486098 0.79674 0.875535 0.11455
H_ H_ 0.489202 0.801647 0.927728 0.11455
H_ H_ 0.231886 0.827671 0.884028 0.11455
H_ H_ 0.240589 0.844724 0.935668 0.11455
H_ H_ 0.410614 0.92325 0.996884 0.11455
H_ H_ 0.451859 0.927652 0.548901 0.11455
H_ H_ 0.424218 0.87506 0.59024 0.11455
H_ H_ 0.325603 0.755899 0.50633 0.11455
H_ H_ 0.28877 0.711938 0.54435 0.11455
H_ H_ 0.308439 0.740741 0.596021 0.11455
C_ C_ 0.230181 0.679159 0.913685 0.68181
C_ C_ 0.28388 0.676555 0.909219 -0.05681
C_ C_ 0.318698 0.677242 0.932533 -0.08735
C_ C_ 0.370557 0.675991 0.927166 -0.05681
C_ C_ 0.387989 0.662753 0.898793 -0.05681
C_ C_ 0.35359 0.663701 0.876253 -0.08735
C_ C_ 0.302332 0.672757 0.881184 -0.08735
C_ C_ 0.405569 0.687656 0.948856 -0.08735
C_ C_ 0.456399 0.694801 0.9415 -0.08735
C_ C_ 0.474466 0.675453 0.915618 -0.05681
C_ C_ 0.440223 0.657401 0.894589 -0.08735
C_ C_ 0.121276 0.776218 0.917724 0.68181
C_ C_ 0.130167 0.575553 0.900818 0.68181
C_ C_ 0.129912 0.518785 0.899864 -0.05681
C_ C_ 0.154572 0.990188 0.922218 -0.08735
C_ C_ 0.14706 0.937195 0.920991 -0.05681
C_ C_ 0.136383 0.913978 0.894645 -0.05681
C_ C_ 0.138183 0.942508 0.869368 -0.08735
C_ C_ 0.143025 -0.004167000000000032 0.871459 -0.08735
C_ C_ 0.150767 0.906734 0.945178 -0.08735
C_ C_ 0.131073 0.858233 0.945133 -0.08735
C_ C_ 0.123576 0.832698 0.919255 -0.05681
C_ C_ 0.126412 0.861357 0.893904 -0.08735
C_ C_ 0.0280943 0.678409 0.909229 0.68181
C_ C_ 0.109651 0.613443 0.986267 0.1947
C_ C_ 0.0823349 0.60549 0.516296 -0.08735
C_ C_ 0.103859 0.634031 0.539138 -0.08735
C_ C_ 0.133516 0.67676 0.533117 -0.05681
C_ C_ 0.143871 0.687991 0.503258 0.18498
C_ C_ 0.173435 0.735893 0.998461 -0.08735
C_ C_ 0.194548 0.758694 0.519484 -0.08735
C_ C_ 0.184084 0.746951 0.547877 -0.08735
C_ C_ 0.154636 0.705383 0.554622 0.18498
C_ C_ 0.187633 0.677657 0.602295 0.44287
C_ C_ 0.099714 0.698455 0.596385 0.44287
C_ C_ 0.0909658 0.689189 0.624944 -0.05681
C_ C_ 0.0438463 0.694654 0.637542 -0.08735
C_ C_ 0.0361359 0.682915 0.667094 -0.08735
C_ C_ 0.0768566 0.671086 0.684517 -0.05681
C_ C_ 0.125102 0.670411 0.673134 -0.05681
C_ C_ 0.13315 0.674172 0.64276 -0.05681
C_ C_ 0.18198 0.672557 0.631813 -0.05681
C_ C_ 0.225189 0.667127 0.650938 -0.08735
C_ C_ 0.216772 0.660072 0.679311 -0.08735
C_ C_ 0.167312 0.662339 0.690937 -0.05681
C_ C_ 0.157529 0.659813 0.7206 0.44287
C_ C_ 0.0700307 0.671028 0.714204 0.44287
C_ C_ 0.0988199 0.650802 0.762567 0.18498
C_ C_ 0.0651205 0.612881 0.769912 -0.08735
C_ C_ 0.0512468 0.602945 0.798525 -0.08735
C_ C_ 0.0730297 0.629787 0.821042 -0.08735
C_ C_ 0.11127 0.6635 0.816014 0.18498
C_ C_ 0.119142 0.680016 0.787407 -0.05681
C_ C_ 0.148033 0.724174 0.783448 -0.08735
C_ C_ 0.167174 0.75206 0.806191 -0.08735
C_ C_ 0.159988 0.732114 0.833866 0.1947
C_ C_ 0.258959 0.808363 0.655673 0.68181
C_ C_ 0.203019 0.811308 0.651207 -0.05681
C_ C_ 0.167718 0.801188 0.674032 -0.08735
C_ C_ 0.113727 0.805287 0.668286 -0.05681
C_ C_ 0.097488 0.808199 0.638772 -0.05681
C_ C_ 0.13253 0.81778 0.617193 -0.08735
C_ C_ 0.184337 0.817976 0.622986 -0.08735
C_ C_ 0.0779803 0.800712 0.689867 -0.08735
C_ C_ 0.0270666 0.806784 0.684177 -0.08735
C_ C_ 0.00957345 0.812381 0.656366 -0.05681
C_ C_ 0.045946 0.816793 0.634223 -0.08735
C_ C_ 0.374714 0.720095 0.66101 0.68181
C_ C_ 0.350318 0.919028 0.650156 0.68181
C_ C_ 0.349531 0.976577 0.646109 -0.05681
C_ C_ 0.363838 0.504406 0.671831 -0.08735
C_ C_ 0.367591 0.557057 0.668678 -0.05681
C_ C_ 0.375735 0.579659 0.641636 -0.05681
C_ C_ 0.383396 0.548892 0.617003 -0.08735
C_ C_ 0.358704 0.99696387 0.619987 -0.08735
C_ C_ 0.366598 0.589655 0.69296 -0.08735
C_ C_ 0.368266 0.641413 0.690444 -0.08735
C_ C_ 0.37301 0.663905 0.663778 -0.05681
C_ C_ 0.373501 0.631988 0.638947 -0.08735
C_ C_ 0.453224 0.833794 0.655095 0.68181
C_ C_ 0.387949 0.879252 0.731364 0.1947
C_ C_ 0.394229 0.899173 0.758432 -0.08735
C_ C_ 0.382825 0.869793 0.782644 -0.08735
C_ C_ 0.361378 0.819379 0.778149 -0.05681
C_ C_ 0.350409 0.804657 0.749774 0.18498
C_ C_ 0.318847 0.76257 0.744386 -0.08735
C_ C_ 0.300999 0.733614 0.767604 -0.08735
C_ C_ 0.315808 0.744483 0.795188 -0.08735
C_ C_ 0.346207 0.788918 0.801469 0.18498
C_ C_ 0.311926 0.81335 0.847006 0.44287
C_ C_ 0.400033 0.803046 0.843015 0.44287
C_ C_ 0.403624 0.809047 0.873414 -0.05681
C_ C_ 0.450859 0.805481 0.887214 -0.08735
C_ C_ 0.454789 0.807342 0.917167 -0.08735
C_ C_ 0.413476 0.81804 0.933343 -0.05681
C_ C_ 0.365338 0.822322 0.920071 -0.05681
C_ C_ 0.359952 0.814861 0.890345 -0.05681
C_ C_ 0.314612 0.814865 0.876953 -0.05681
C_ C_ 0.270437 0.828535 0.893255 -0.08735
C_ C_ 0.275059 0.839169 0.922734 -0.08735
C_ C_ 0.321623 0.835222 0.936618 -0.05681
C_ C_ 0.326594 0.84085 0.965445 0.44287
C_ C_ 0.416471 0.82533 0.962618 0.44287
C_ C_ 0.384622 0.842556 0.511035 0.18498
C_ C_ 0.417702 0.882927 0.517506 -0.08735
C_ C_ 0.428315 0.895165 0.545671 -0.08735
C_ C_ 0.409366 0.867957 0.569054 -0.08735
C_ C_ 0.378524 0.824319 0.562843 0.18498
C_ C_ 0.367343 0.80948 0.533871 -0.05681
C_ C_ 0.333375 0.769226 0.528114 -0.08735
C_ C_ 0.315151 0.743709 0.550708 -0.08735
C_ C_ 0.324714 0.76076 0.578814 0.1947
N_ N_ 0.1288 0.660654 0.980913 -0.29468
N_ N_ 0.147063 0.694582 0.585781 -0.17154
N_ N_ 0.108481 0.659655 0.731864 -0.17154
N_ N_ 0.132745 0.68758 0.838412 -0.29468
N_ N_ 0.362888 0.834548 0.727394 -0.29468
N_ N_ 0.35344 0.802288 0.830887 -0.17154
N_ N_ 0.373883 0.835706 0.978057 -0.17154
N_ N_ 0.356821 0.798643 0.585045 -0.29468
O_ O_ 0.209984 0.672643 0.937704 -0.58347
O_ O_ 0.201855 0.683504 0.89159 -0.58347
O_ O_ 0.130898 0.751713 0.940534 -0.58347
O_ O_ 0.11872 0.752776 0.89382 -0.58347
O_ O_ 0.13509 0.599338 0.924699 -0.58347
O_ O_ 0.123822 0.603198 0.878685 -0.58347
O_ O_ 0.0571903 0.678653 0.930324 -0.58347
O_ O_ 0.0462113 0.678036 0.883828 -0.58347
O_ O_ 0.0681568 0.726083 0.583069 -0.46727
O_ O_ 0.231674 0.679727 0.590423 -0.46727
O_ O_ 0.0239045 0.678323 0.725549 -0.46727
O_ O_ 0.196376 0.650196 0.738273 -0.46727
O_ O_ 0.278625 0.808976 0.680629 -0.58347
O_ O_ 0.28817 0.805048 0.633984 -0.58347
O_ O_ 0.36911 0.749169 0.682943 -0.58347
O_ O_ 0.369165 0.739331 0.636767 -0.58347
O_ O_ 0.333075 0.897914 0.672972 -0.58347
O_ O_ 0.356474 0.890825 0.628304 -0.58347
O_ O_ 0.423962 0.842913 0.675987 -0.58347
O_ O_ 0.435499 0.820103 0.630705 -0.58347
O_ O_ 0.440682 0.795427 0.827267 -0.46727
O_ O_ 0.267034 0.812474 0.834529 -0.46727
O_ O_ 0.459793 0.827177 0.976292 -0.46727
O_ O_ 0.286605 0.848892 0.980906 -0.46727
Zn Zn 0.634467 0.18816 0.384016 0.90689
Zn Zn 0.642303 0.178983 0.431385 0.90689
Zn Zn 0.885585 0.325918 0.129983 0.90689
Zn Zn 0.880375 0.326297 0.177987 0.90689
H_ H_ 0.81069 0.189112 0.446021 0.11455
H_ H_ 0.875928 0.15778 0.3486 0.11455
H_ H_ 0.785356 0.173594 0.353798 0.11455
H_ H_ 0.894258 0.165408 0.466832 0.11455
H_ H_ 0.983694 0.179474 0.459211 0.11455
H_ H_ 0.963396 0.168104 0.365518 0.11455
H_ H_ 0.6403 0.0152278 0.444728 0.11455
H_ H_ 0.619463 0.434964 0.34922 0.11455
H_ H_ 0.672156 0.0295066 0.354784 0.11455
H_ H_ 0.669319 0.429294 0.464064 0.11455
H_ H_ 0.661477 0.338998 0.459302 0.11455
H_ H_ 0.63512 0.351097 0.367395 0.11455
H_ H_ 0.582523 0.10087 0.467996 0.11455
H_ H_ 0.563297 0.0827533 0.010764 0.11455
H_ H_ 0.598576 0.120416 0.0529173 0.11455
H_ H_ 0.701524 0.239054 0.475158 0.11455
H_ H_ 0.7397 0.287037 0.0175279 0.11455
H_ H_ 0.715003 0.265768 0.0652573 0.11455
H_ H_ 0.519277 0.219232 0.124628 0.11455
H_ H_ 0.503196 0.196081 0.174261 0.11455
H_ H_ 0.760819 0.147578 0.141339 0.11455
H_ H_ 0.748601 0.135901 0.190729 0.11455
H_ H_ 0.5599 0.0876131 0.254012 0.11455
H_ H_ 0.550398 0.0607825 0.302834 0.11455
H_ H_ 0.582225 0.115327 0.343215 0.11455
H_ H_ 0.664991 0.235631 0.257326 0.11455
H_ H_ 0.702638 0.281942 0.297758 0.11455
H_ H_ 0.686965 0.261987 0.346217 0.11455
H_ H_ 0.716253 0.288146 0.193098 0.11455
H_ H_ 0.640039 0.330867 0.0991328 0.11455
H_ H_ 0.728788 0.332304 0.105661 0.11455
H_ H_ 0.63249 0.30579 0.213451 0.11455
H_ H_ 0.540886 0.301758 0.21002 0.11455
H_ H_ 0.553387 0.331919 0.121327 0.11455
H_ H_ 0.895633 0.496803 0.186837 0.11455
H_ H_ 0.849722 0.0774672 0.0944731 0.11455
H_ H_ 0.887134 0.481863 0.096203 0.11455
H_ H_ 0.901958 0.0784872 0.209469 0.11455
H_ H_ 0.914661 0.165383 0.204691 0.11455
H_ H_ 0.859478 0.160433 0.116736 0.11455
H_ H_ 0.915254 0.410305 0.214813 0.11455
H_ H_ 0.931974 0.433601 0.265137 0.11455
H_ H_ 0.904092 0.376957 0.303521 0.11455
H_ H_ 0.816565 0.264446 0.216324 0.11455
H_ H_ 0.796264 0.201892 0.250904 0.11455
H_ H_ 0.810656 0.220173 0.303183 0.11455
H_ H_ 0.997702 0.288382 0.372495 0.11455
H_ H_ 0.00280079 0.306389 0.42428 0.11455
H_ H_ 0.747072 0.316946 0.377307 0.11455
H_ H_ 0.746966 0.306225 0.430244 0.11455
H_ H_ 0.911509 0.410836 0.495421 0.11455
H_ H_ 0.96327 0.443926 0.0429878 0.11455
H_ H_ 0.943518 0.390647 0.084658 0.11455
H_ H_ 0.844606 0.266096 0.00405801 0.11455
H_ H_ 0.805579 0.223539 0.0473673 0.11455
H_ H_ 0.823495 0.252583 0.0963168 0.11455
C_ C_ 0.736075 0.180164 0.404989 0.68181
C_ C_ 0.791239 0.180826 0.401587 -0.05681
C_ C_ 0.822337 0.178015 0.425009 -0.08735
C_ C_ 0.875165 0.171054 0.4213 -0.05681
C_ C_ 0.895514 0.165612 0.39349 -0.05681
C_ C_ 0.860685 0.162797 0.369882 -0.08735
C_ C_ 0.808821 0.169159 0.373814 -0.08735
C_ C_ 0.908205 0.173552 0.444519 -0.08735
C_ C_ 0.960785 0.171953 0.440408 -0.08735
C_ C_ 0.980391 0.174098 0.41246 -0.05681
C_ C_ 0.948774 0.168342 0.388013 -0.08735
C_ C_ 0.639517 0.282134 0.412389 0.68181
C_ C_ 0.645624 0.0855928 0.402424 0.68181
C_ C_ 0.646305 0.0312819 0.399595 -0.05681
C_ C_ 0.650694 0.496647 0.421497 -0.08735
C_ C_ 0.652661 0.444565 0.418144 -0.05681
C_ C_ 0.641098 0.421521 0.391669 -0.05681
C_ C_ 0.620854 0.450768 0.370624 -0.08735
C_ C_ 0.614029 0.504575 0.374211 -0.08735
C_ C_ 0.660508 0.413851 0.442598 -0.08735
C_ C_ 0.658758 0.361624 0.440095 -0.08735
C_ C_ 0.645978 0.337049 0.413805 -0.05681
C_ C_ 0.639064 0.368576 0.3897 -0.08735
C_ C_ 0.539026 0.181552 0.409843 0.68181
C_ C_ 0.606506 0.117737 0.483535 0.1947
C_ C_ 0.592428 0.110959 0.00827099 -0.08735
C_ C_ 0.609367 0.13807 0.0327067 -0.08735
C_ C_ 0.643778 0.179158 0.0286573 -0.05681
C_ C_ 0.660768 0.190231 1.0010028 0.18498
C_ C_ 0.679888 0.235568 0.494621 -0.08735
C_ C_ 0.714295 0.255905 0.0208204 -0.08735
C_ C_ 0.700243 0.24197 0.0487617 -0.08735
C_ C_ 0.663034 0.205164 0.052865 0.18498
C_ C_ 0.691945 0.180314 0.100615 0.44287
C_ C_ 0.604562 0.20052 0.0944028 0.44287
C_ C_ 0.596741 0.193521 0.124576 -0.05681
C_ C_ 0.549755 0.205009 0.13741 -0.08735
C_ C_ 0.542262 0.195245 0.165812 -0.08735
C_ C_ 0.582632 0.182568 0.184328 -0.05681
C_ C_ 0.630396 0.175504 0.172715 -0.05681
C_ C_ 0.637904 0.181189 0.141681 -0.05681
C_ C_ 0.68618 0.176537 0.129946 -0.05681
C_ C_ 0.724558 0.158156 0.149004 -0.08735
C_ C_ 0.718111 0.153332 0.178171 -0.08735
C_ C_ 0.668968 0.16072 0.190194 -0.05681
C_ C_ 0.660389 0.151589 0.219568 0.44287
C_ C_ 0.576581 0.18276 0.214528 0.44287
C_ C_ 0.60317 0.153538 0.261474 0.18498
C_ C_ 0.579357 0.108069 0.269725 -0.08735
C_ C_ 0.573688 0.094222 0.29794 -0.08735
C_ C_ 0.590053 0.126785 0.320184 -0.08735
C_ C_ 0.619543 0.170153 0.314451 0.18498
C_ C_ 0.627839 0.182919 0.284684 -0.05681
C_ C_ 0.658682 0.223723 0.278863 -0.08735
C_ C_ 0.680222 0.250329 0.302177 -0.08735
C_ C_ 0.671883 0.236287 0.329499 0.1947
C_ C_ 0.784186 0.319809 0.151547 0.68181
C_ C_ 0.728179 0.314452 0.149446 -0.05681
C_ C_ 0.69794 0.303732 0.173911 -0.08735
C_ C_ 0.64562 0.309615 0.170949 -0.05681
C_ C_ 0.624059 0.319327 0.143698 -0.05681
C_ C_ 0.654828 0.321563 0.120233 -0.08735
C_ C_ 0.707385 0.315272 0.122606 -0.08735
C_ C_ 0.614081 0.309386 0.194369 -0.08735
C_ C_ 0.561976 0.304404 0.190889 -0.08735
C_ C_ 0.539548 0.324215 0.165256 -0.05681
C_ C_ 0.57308 0.326961 0.14129 -0.08735
C_ C_ 0.882679 0.225935 0.159679 0.68181
C_ C_ 0.880084 0.424174 0.145557 0.68181
C_ C_ 0.883359 0.481865 0.142692 -0.05681
C_ C_ 0.8714 0.00938247 0.166773 -0.08735
C_ C_ 0.877758 0.0623097 0.165614 -0.05681
C_ C_ 0.865583 0.0885355 0.13992 -0.05681
C_ C_ 0.854929 0.0599034 0.115017 -0.08735
C_ C_ 0.882814 0.505573 0.115318 -0.08735
C_ C_ 0.88979 0.0921566 0.189183 -0.08735
C_ C_ 0.896873 0.144806 0.186629 -0.08735
C_ C_ 0.883526 0.169999 0.1603 -0.05681
C_ C_ 0.869048 0.140853 0.137082 -0.08735
C_ C_ 0.981358 0.325313 0.15782 0.68181
C_ C_ 0.904853 0.383219 0.232028 0.1947
C_ C_ 0.912568 0.397587 0.259812 -0.08735
C_ C_ 0.901444 0.364821 0.282163 -0.08735
C_ C_ 0.879823 0.315608 0.274546 -0.05681
C_ C_ 0.864814 0.30691 0.245204 0.18498
C_ C_ 0.83113 0.271146 0.237306 -0.08735
C_ C_ 0.816093 0.235513 0.25758 -0.08735
C_ C_ 0.830728 0.240062 0.286932 -0.08735
C_ C_ 0.863837 0.27864 0.296171 0.18498
C_ C_ 0.82605 0.30152 0.342792 0.44287
C_ C_ 0.912877 0.284922 0.340939 0.44287
C_ C_ 0.914706 0.293198 0.371699 -0.05681
C_ C_ 0.961376 0.29442 0.385886 -0.08735
C_ C_ 0.966144 0.303487 0.415173 -0.08735
C_ C_ 0.921127 0.302732 0.431918 -0.05681
C_ C_ 0.872567 0.300718 0.418533 -0.05681
C_ C_ 0.871618 0.299427 0.388126 -0.05681
C_ C_ 0.82701 0.304636 0.373723 -0.05681
C_ C_ 0.78232 0.309839 0.388193 -0.08735
C_ C_ 0.782429 0.306738 0.41907 -0.08735
C_ C_ 0.828152 0.307391 0.434162 -0.05681
C_ C_ 0.831351 0.317528 0.463904 0.44287
C_ C_ 0.923731 0.308776 0.462505 0.44287
C_ C_ 0.90226 0.35222 0.00592722 0.18498
C_ C_ 0.925555 0.397366 0.0117063 -0.08735
C_ C_ 0.938404 0.410549 0.0399969 -0.08735
C_ C_ 0.92943 0.378928 0.0637568 -0.08735
C_ C_ 0.897479 0.336373 0.0590163 0.18498
C_ C_ 0.885827 0.321979 0.0296693 -0.05681
C_ C_ 0.852915 0.280112 0.0252652 -0.08735
C_ C_ 0.833558 0.253175 0.0489879 -0.08735
C_ C_ 0.845123 0.269415 0.0773485 0.1947
N_ N_ 0.634125 0.161978 0.478092 -0.29468
N_ N_ 0.651956 0.190076 0.0820523 -0.17154
N_ N_ 0.614315 0.165567 0.231444 -0.17154
N_ N_ 0.636022 0.199894 0.336193 -0.29468
N_ N_ 0.880747 0.340138 0.22449 -0.29468
N_ N_ 0.868659 0.29001 0.326824 -0.17154
N_ N_ 0.879186 0.318893 0.477287 -0.17154
N_ N_ 0.878511 0.308209 0.0823122 -0.29468
O_ O_ 0.716079 0.180069 0.43038 -0.58347
O_ O_ 0.707323 0.192233 0.384113 -0.58347
O_ O_ 0.640866 0.254189 0.435383 -0.58347
O_ O_ 0.631016 0.262282 0.388653 -0.58347
O_ O_ 0.646039 0.10608 0.425967 -0.58347
O_ O_ 0.643084 0.113961 0.379914 -0.58347
O_ O_ 0.567299 0.178202 0.431522 -0.58347
O_ O_ 0.560457 0.185047 0.385428 -0.58347
O_ O_ 0.565892 0.211462 0.0780523 -0.46727
O_ O_ 0.735371 0.172994 0.0896438 -0.46727
O_ O_ 0.532249 0.196045 0.226014 -0.46727
O_ O_ 0.696874 0.132928 0.235975 -0.46727
O_ O_ 0.80822 0.310056 0.174212 -0.58347
O_ O_ 0.811275 0.331882 0.129612 -0.58347
O_ O_ 0.894565 0.249313 0.182662 -0.58347
O_ O_ 0.873361 0.250013 0.136952 -0.58347
O_ O_ 0.865172 0.40246 0.168817 -0.58347
O_ O_ 0.893306 0.395984 0.124677 -0.58347
O_ O_ 0.954711 0.335465 0.179145 -0.58347
O_ O_ 0.96043 0.321507 0.132841 -0.58347
O_ O_ 0.954481 0.279724 0.325005 -0.46727
O_ O_ 0.78297 0.316427 0.329287 -0.46727
O_ O_ 0.967911 0.314288 0.47574 -0.46727
O_ O_ 0.792771 0.334034 0.47841 -0.46727
Zn Zn 0.630197 0.187718 0.881402 0.90689
Zn Zn 0.640834 0.178441 0.929737 0.90689
Zn Zn 0.869839 0.306015 0.632321 0.90689
Zn Zn 0.861229 0.312504 0.67741 0.90689
H_ H_ 0.810462 0.212873 0.946967 0.11455
H_ H_ 0.879273 0.178019 0.85113 0.11455
H_ H_ 0.78994 0.178426 0.857972 0.11455
H_ H_ 0.899009 0.182913 0.969319 0.11455
H_ H_ 0.985191 0.173378 0.963064 0.11455
H_ H_ 0.966831 0.162627 0.872279 0.11455
H_ H_ 0.652543 0.0154815 0.944612 0.11455
H_ H_ 0.594604 0.433677 0.848467 0.11455
H_ H_ 0.624986 0.0289779 0.856364 0.11455
H_ H_ 0.648426 0.427891 0.960357 0.11455
H_ H_ 0.643505 0.334915 0.95713 0.11455
H_ H_ 0.6008 0.349269 0.867924 0.11455
H_ H_ 0.586373 0.110911 0.963524 0.11455
H_ H_ 0.565884 0.0789449 0.516085 0.11455
H_ H_ 0.596801 0.127399 0.553697 0.11455
H_ H_ 0.709161 0.235593 0.976478 0.11455
H_ H_ 0.715235 0.303812 0.513 0.11455
H_ H_ 0.679907 0.289459 0.560944 0.11455
H_ H_ 0.505572 0.216382 0.623726 0.11455
H_ H_ 0.495347 0.203777 0.675126 0.11455
H_ H_ 0.757816 0.173881 0.634546 0.11455
H_ H_ 0.745697 0.162281 0.687258 0.11455
H_ H_ 0.568734 0.0852747 0.750018 0.11455
H_ H_ 0.552115 0.0689935 0.801995 0.11455
H_ H_ 0.582206 0.119392 0.838955 0.11455
H_ H_ 0.653377 0.248938 0.757596 0.11455
H_ H_ 0.688433 0.298177 0.796463 0.11455
H_ H_ 0.672651 0.270436 0.845447 0.11455
H_ H_ 0.694311 0.307225 0.697169 0.11455
H_ H_ 0.618421 0.315235 0.599684 0.11455
H_ H_ 0.71283 0.322593 0.604841 0.11455
H_ H_ 0.608723 0.315318 0.716929 0.11455
H_ H_ 0.521741 0.330744 0.712937 0.11455
H_ H_ 0.539875 0.326172 0.621167 0.11455
H_ H_ 0.848959 0.477932 0.691639 0.11455
H_ H_ 0.864477 0.059921 0.593813 0.11455
H_ H_ 0.860682 0.461854 0.601133 0.11455
H_ H_ 0.872204 0.0599714 0.714064 0.11455
H_ H_ 0.871109 0.155163 0.710303 0.11455
H_ H_ 0.880982 0.143328 0.617495 0.11455
H_ H_ 0.915062 0.392869 0.710911 0.11455
H_ H_ 0.912707 0.43274 0.759112 0.11455
H_ H_ 0.885376 0.385265 0.801775 0.11455
H_ H_ 0.813788 0.243734 0.719282 0.11455
H_ H_ 0.788319 0.191706 0.760814 0.11455
H_ H_ 0.806581 0.219131 0.81146 0.11455
H_ H_ 0.988797 0.276647 0.868774 0.11455
H_ H_ 0.0021033 0.295096 0.920252 0.11455
H_ H_ 0.743867 0.337826 0.883199 0.11455
H_ H_ 0.755806 0.358063 0.932663 0.11455
H_ H_ 0.931581 0.424715 0.99478 0.11455
H_ H_ 0.938447 0.435725 0.543212 0.11455
H_ H_ 0.910256 0.38727 0.584126 0.11455
H_ H_ 0.854673 0.237929 0.507978 0.11455
H_ H_ 0.818469 0.193318 0.551673 0.11455
H_ H_ 0.817198 0.232643 0.596143 0.11455
C_ C_ 0.735193 0.192293 0.906204 0.68181
C_ C_ 0.790919 0.192464 0.902907 -0.05681
C_ C_ 0.824299 0.201221 0.92721 -0.08735
C_ C_ 0.876407 0.189937 0.924086 -0.05681
C_ C_ 0.896945 0.179833 0.896298 -0.05681
C_ C_ 0.86473 0.178335 0.872694 -0.08735
C_ C_ 0.813226 0.178741 0.876716 -0.08735
C_ C_ 0.910216 0.187692 0.947679 -0.08735
C_ C_ 0.961142 0.177018 0.943843 -0.08735
C_ C_ 0.982488 0.167492 0.916556 -0.05681
C_ C_ 0.950892 0.167595 0.893314 -0.08735
C_ C_ 0.629622 0.279042 0.909183 0.68181
C_ C_ 0.642624 0.0867026 0.902767 0.68181
C_ C_ 0.6361 0.0296439 0.900821 -0.05681
C_ C_ 0.641445 0.494334 0.919379 -0.08735
C_ C_ 0.637506 0.440767 0.916081 -0.05681
C_ C_ 0.623 0.420167 0.889805 -0.05681
C_ C_ 0.605443 0.452701 0.868824 -0.08735
C_ C_ 0.607628 0.504373 0.871926 -0.08735
C_ C_ 0.6445 0.409867 0.939477 -0.08735
C_ C_ 0.636563 0.358977 0.938828 -0.08735
C_ C_ 0.62872 0.336214 0.911583 -0.05681
C_ C_ 0.61688 0.366947 0.887745 -0.08735
C_ C_ 0.537527 0.170657 0.907064 0.68181
C_ C_ 0.607062 0.123245 0.981003 0.1947
C_ C_ 0.596708 0.10341 0.511744 -0.08735
C_ C_ 0.612767 0.136485 0.533866 -0.08735
C_ C_ 0.636303 0.182603 0.528362 -0.05681
C_ C_ 0.650374 0.194404 0.499885 0.18498
C_ C_ 0.695194 0.229006 0.996974 -0.08735
C_ C_ 0.690218 0.270234 0.517231 -0.08735
C_ C_ 0.669165 0.264735 0.54391 -0.08735
C_ C_ 0.643709 0.217855 0.551576 0.18498
C_ C_ 0.678245 0.190965 0.596747 0.44287
C_ C_ 0.589095 0.202708 0.593823 0.44287
C_ C_ 0.583754 0.193767 0.622626 -0.05681
C_ C_ 0.536837 0.200481 0.635294 -0.08735
C_ C_ 0.531008 0.197732 0.664559 -0.08735
C_ C_ 0.572837 0.190576 0.682546 -0.05681
C_ C_ 0.621794 0.187258 0.669912 -0.05681
C_ C_ 0.626864 0.188011 0.639795 -0.05681
C_ C_ 0.675823 0.188054 0.626762 -0.05681
C_ C_ 0.72001 0.179073 0.644672 -0.08735
C_ C_ 0.715017 0.172081 0.674408 -0.08735
C_ C_ 0.664877 0.174319 0.687278 -0.05681
C_ C_ 0.658119 0.163703 0.716814 0.44287
C_ C_ 0.569466 0.182359 0.712587 0.44287
C_ C_ 0.604886 0.158721 0.760277 0.18498
C_ C_ 0.58192 0.112204 0.767407 -0.08735
C_ C_ 0.568614 0.102583 0.796382 -0.08735
C_ C_ 0.585577 0.13441 0.817983 -0.08735
C_ C_ 0.61704 0.175442 0.811765 0.18498
C_ C_ 0.628229 0.187148 0.782366 -0.05681
C_ C_ 0.645965 0.237494 0.777231 -0.08735
C_ C_ 0.662671 0.267151 0.800734 -0.08735
C_ C_ 0.656833 0.249847 0.827766 0.1947
C_ C_ 0.766278 0.309438 0.654334 0.68181
C_ C_ 0.711828 0.311539 0.650768 -0.05681
C_ C_ 0.68016 0.310311 0.674731 -0.08735
C_ C_ 0.627898 0.319276 0.671948 -0.05681
C_ C_ 0.606212 0.324376 0.644885 -0.05681
C_ C_ 0.637019 0.31786 0.620448 -0.08735
C_ C_ 0.690152 0.317265 0.623078 -0.08735
C_ C_ 0.596338 0.321369 0.695866 -0.08735
C_ C_ 0.544161 0.326626 0.693411 -0.08735
C_ C_ 0.522361 0.328691 0.665269 -0.05681
C_ C_ 0.553768 0.331243 0.641916 -0.08735
C_ C_ 0.880015 0.210486 0.66265 0.68181
C_ C_ 0.852065 0.407617 0.64957 0.68181
C_ C_ 0.854625 0.464051 0.64669 -0.05681
C_ C_ 0.868053 -0.003601999999999994 0.668711 -0.08735
C_ C_ 0.869191 0.0486686 0.667217 -0.05681
C_ C_ 0.868067 0.0735779 0.639958 -0.05681
C_ C_ 0.863125 0.0435548 0.615319 -0.08735
C_ C_ 0.864925 0.485537 0.619279 -0.08735
C_ C_ 0.869666 0.0785649 0.692001 -0.08735
C_ C_ 0.873034 0.130582 0.691 -0.08735
C_ C_ 0.880435 0.155718 0.664743 -0.05681
C_ C_ 0.880478 0.125614 0.63883 -0.08735
C_ C_ 0.966448 0.312891 0.654611 0.68181
C_ C_ 0.893574 0.374744 0.728463 0.1947
C_ C_ 0.899549 0.39443 0.755732 -0.08735
C_ C_ 0.879001 0.369469 0.779939 -0.08735
C_ C_ 0.857976 0.319407 0.774313 -0.05681
C_ C_ 0.850338 0.30252 0.745681 0.18498
C_ C_ 0.822629 0.256615 0.741417 -0.08735
C_ C_ 0.809574 0.226969 0.764863 -0.08735
C_ C_ 0.820424 0.239843 0.793495 -0.08735
C_ C_ 0.842441 0.288677 0.7977 0.18498
C_ C_ 0.814927 0.321269 0.844028 0.44287
C_ C_ 0.896957 0.288117 0.838514 0.44287
C_ C_ 0.907129 0.299319 0.868865 -0.05681
C_ C_ 0.954925 0.290682 0.882111 -0.08735
C_ C_ 0.963214 0.29845 0.911265 -0.08735
C_ C_ 0.925367 0.319572 0.929202 -0.05681
C_ C_ 0.876958 0.325284 0.916484 -0.05681
C_ C_ 0.868034 0.31728 0.88583 -0.05681
C_ C_ 0.822196 0.329651 0.873477 -0.05681
C_ C_ 0.782444 0.344781 0.891222 -0.08735
C_ C_ 0.789544 0.352048 0.921037 -0.08735
C_ C_ 0.836231 0.338977 0.934606 -0.05681
C_ C_ 0.84506 0.34459 0.964443 0.44287
C_ C_ 0.931986 0.323798 0.959203 0.44287
C_ C_ 0.882316 0.337431 0.507119 0.18498
C_ C_ 0.899897 0.385517 0.513194 -0.08735
C_ C_ 0.919327 0.399085 0.540216 -0.08735
C_ C_ 0.906203 0.370753 0.564666 -0.08735
C_ C_ 0.881455 0.324431 0.560451 0.18498
C_ C_ 0.873675 0.304606 0.53144 -0.05681
C_ C_ 0.852911 0.255307 0.527731 -0.08735
C_ C_ 0.831469 0.232149 0.551458 -0.08735
C_ C_ 0.833333 0.254265 0.578701 0.1947
N_ N_ 0.636959 0.165589 0.977571 -0.29468
N_ N_ 0.636562 0.202955 0.580739 -0.17154
N_ N_ 0.611462 0.167705 0.728858 -0.17154
N_ N_ 0.632769 0.205503 0.83396 -0.29468
N_ N_ 0.870078 0.330128 0.723603 -0.29468
N_ N_ 0.852739 0.303403 0.826775 -0.17154
N_ N_ 0.891339 0.334941 0.976271 -0.17154
N_ N_ 0.864671 0.296277 0.5837 -0.29468
O_ O_ 0.715369 0.178455 0.929674 -0.58347
O_ O_ 0.706862 0.19891 0.884141 -0.58347
O_ O_ 0.643448 0.25046 0.929765 -0.58347
O_ O_ 0.616455 0.258391 0.886047 -0.58347
O_ O_ 0.652764 0.107695 0.926736 -0.58347
O_ O_ 0.637983 0.113013 0.880165 -0.58347
O_ O_ 0.564812 0.175305 0.928478 -0.58347
O_ O_ 0.557349 0.176533 0.882295 -0.58347
O_ O_ 0.548221 0.204215 0.578086 -0.46727
O_ O_ 0.722887 0.196308 0.584284 -0.46727
O_ O_ 0.523293 0.179084 0.723999 -0.46727
O_ O_ 0.695311 0.156293 0.735235 -0.46727
O_ O_ 0.786499 0.299653 0.678781 -0.58347
O_ O_ 0.794191 0.312752 0.631855 -0.58347
O_ O_ 0.874755 0.237178 0.685401 -0.58347
O_ O_ 0.871127 0.229622 0.638578 -0.58347
O_ O_ 0.849084 0.389073 0.673913 -0.58347
O_ O_ 0.863213 0.380116 0.62913 -0.58347
O_ O_ 0.938999 0.321682 0.676378 -0.58347
O_ O_ 0.946555 0.307892 0.629803 -0.58347
O_ O_ 0.931256 0.266167 0.82339 -0.46727
O_ O_ 0.769741 0.32752 0.832318 -0.46727
O_ O_ 0.978589 0.321159 0.969116 -0.46727
O_ O_ 0.804439 0.351107 0.981082 -0.46727
Zn Zn 0.621044 0.688757 0.381477 0.90689
Zn Zn 0.630737 0.681771 0.4294 0.90689
Zn Zn 0.869731 0.826781 0.127756 0.90689
Zn Zn 0.859848 0.827892 0.175301 0.90689
H_ H_ 0.790417 0.687252 0.443673 0.11455
H_ H_ 0.869535 0.667926 0.344487 0.11455
H_ H_ 0.774688 0.679728 0.350217 0.11455
H_ H_ 0.87778 0.678021 0.465858 0.11455
H_ H_ 0.969692 0.691392 0.45998 0.11455
H_ H_ 0.95342 0.670967 0.368337 0.11455
H_ H_ 0.67204 0.513027 0.437011 0.11455
H_ H_ 0.647564 0.93893 0.3493 0.11455
H_ H_ 0.592631 0.526121 0.358471 0.11455
H_ H_ 0.634744 0.929698 0.464766 0.11455
H_ H_ 0.624974 0.837491 0.460972 0.11455
H_ H_ 0.643501 0.854485 0.368452 0.11455
H_ H_ 0.580571 0.602528 0.464555 0.11455
H_ H_ 0.582016 0.567781 0.0180226 0.11455
H_ H_ 0.601305 0.62653 0.0571015 0.11455
H_ H_ 0.685595 0.749351 0.474564 0.11455
H_ H_ 0.725068 0.801685 0.013794 0.11455
H_ H_ 0.705154 0.777322 0.0645002 0.11455
H_ H_ 0.51338 0.701006 0.121051 0.11455
H_ H_ 0.504261 0.69331 0.173213 0.11455
H_ H_ 0.762682 0.659507 0.137033 0.11455
H_ H_ 0.750812 0.649827 0.189748 0.11455
H_ H_ 0.570153 0.578794 0.249489 0.11455
H_ H_ 0.537007 0.564808 0.301262 0.11455
H_ H_ 0.562287 0.622927 0.339523 0.11455
H_ H_ 0.660419 0.736608 0.25646 0.11455
H_ H_ 0.694906 0.788935 0.295604 0.11455
H_ H_ 0.678189 0.758318 0.347007 0.11455
H_ H_ 0.693321 0.789339 0.189289 0.11455
H_ H_ 0.623555 0.846256 0.0980221 0.11455
H_ H_ 0.717042 0.844099 0.101286 0.11455
H_ H_ 0.610859 0.792372 0.209836 0.11455
H_ H_ 0.518937 0.800512 0.205036 0.11455
H_ H_ 0.541287 0.851141 0.115272 0.11455
H_ H_ 0.878954 0.990675 0.18596 0.11455
H_ H_ 0.867896 0.569226 0.0928905 0.11455
H_ H_ 0.839783 0.986062 0.0973101 0.11455
H_ H_ 0.873364 0.579412 0.209058 0.11455
H_ H_ 0.902711 0.668095 0.202676 0.11455
H_ H_ 0.86816 0.658912 0.113151 0.11455
H_ H_ 0.908217 0.907308 0.21224 0.11455
H_ H_ 0.917286 0.93378 0.262728 0.11455
H_ H_ 0.891795 0.874734 0.300519 0.11455
H_ H_ 0.803745 0.758239 0.216058 0.11455
H_ H_ 0.764961 0.711586 0.253173 0.11455
H_ H_ 0.795382 0.719925 0.30239 0.11455
H_ H_ 0.98588 0.797675 0.36702 0.11455
H_ H_ -0.006020000000000025 0.803174 0.415429 0.11455
H_ H_ 0.732852 0.831289 0.383122 0.11455
H_ H_ 0.746787 0.829949 0.435921 0.11455
H_ H_ 0.919499 0.892849 0.490978 0.11455
H_ H_ 0.976809 0.921154 0.0395825 0.11455
H_ H_ 0.935566 0.88629 0.0802017 0.11455
H_ H_ 0.831929 0.76297 0.00488936 0.11455
H_ H_ 0.796121 0.719523 0.0493147 0.11455
H_ H_ 0.811512 0.753011 0.0943745 0.11455
C_ C_ 0.720293 0.688173 0.401755 0.68181
C_ C_ 0.777529 0.685065 0.397944 -0.05681
C_ C_ 0.808698 0.68316 0.422387 -0.08735
C_ C_ 0.862234 0.682295 0.419518 -0.05681
C_ C_ 0.883359 0.675656 0.392094 -0.05681
C_ C_ 0.851614 0.675175 0.366394 -0.08735
C_ C_ 0.79872 0.681972 0.369603 -0.08735
C_ C_ 0.892331 0.679082 0.443907 -0.08735
C_ C_ 0.94551 0.682503 0.440933 -0.08735
C_ C_ 0.96867 0.681225 0.412936 -0.05681
C_ C_ 0.936517 0.677965 0.389885 -0.08735
C_ C_ 0.626454 0.783455 0.412806 0.68181
C_ C_ 0.637326 0.586428 0.40167 0.68181
C_ C_ 0.633797 0.528973 0.399505 -0.05681
C_ C_ 0.64153 1.00007 0.423786 -0.08735
C_ C_ 0.639943 0.945845 0.420159 -0.05681
C_ C_ 0.640897 0.924255 0.392979 -0.05681
C_ C_ 0.646236 0.956079 0.369199 -0.08735
C_ C_ 0.655053 1.00729372 0.372483 -0.08735
C_ C_ 0.635981 0.91369 0.443901 -0.08735
C_ C_ 0.634643 0.86139 0.441837 -0.08735
C_ C_ 0.631555 0.839958 0.415019 -0.05681
C_ C_ 0.639358 0.870812 0.390418 -0.08735
C_ C_ 0.527016 0.674462 0.409482 0.68181
C_ C_ 0.603929 0.621123 0.480316 0.1947
C_ C_ 0.603186 0.602702 0.0136583 -0.08735
C_ C_ 0.613316 0.636895 0.0361332 -0.08735
C_ C_ 0.643649 0.679711 0.0307639 -0.05681
C_ C_ 0.6535 0.695412 1.00177951 0.18498
C_ C_ 0.670903 0.739453 0.494826 -0.08735
C_ C_ 0.70147 0.768109 0.0181568 -0.08735
C_ C_ 0.689572 0.754712 0.0469106 -0.08735
C_ C_ 0.662773 0.709413 0.053875 0.18498
C_ C_ 0.691116 0.686772 0.100533 0.44287
C_ C_ 0.602826 0.700671 0.0944253 0.44287
C_ C_ 0.593668 0.69204 0.123663 -0.05681
C_ C_ 0.544187 0.689718 0.134694 -0.08735
C_ C_ 0.538635 0.680575 0.164758 -0.08735
C_ C_ 0.581651 0.676681 0.182797 -0.05681
C_ C_ 0.626895 0.667326 0.170375 -0.05681
C_ C_ 0.634881 0.68034 0.140568 -0.05681
C_ C_ 0.682928 0.676325 0.129477 -0.05681
C_ C_ 0.72375 0.660896 0.145983 -0.08735
C_ C_ 0.718175 0.654517 0.17613 -0.08735
C_ C_ 0.668693 0.65595 0.189132 -0.05681
C_ C_ 0.661857 0.653306 0.219053 0.44287
C_ C_ 0.575274 0.677291 0.213665 0.44287
C_ C_ 0.603564 0.650836 0.260154 0.18498
C_ C_ 0.577543 0.60636 0.267364 -0.08735
C_ C_ 0.560497 0.59844 0.295977 -0.08735
C_ C_ 0.579042 0.629066 0.318442 -0.08735
C_ C_ 0.605071 0.673752 0.31181 0.18498
C_ C_ 0.615778 0.685837 0.28288 -0.05681
C_ C_ 0.649744 0.727233 0.278035 -0.08735
C_ C_ 0.66972 0.754703 0.300991 -0.08735
C_ C_ 0.659244 0.740142 0.328303 0.1947
C_ C_ 0.768496 0.822276 0.151467 0.68181
C_ C_ 0.71344 0.818874 0.146326 -0.05681
C_ C_ 0.68119 0.810204 0.170013 -0.08735
C_ C_ 0.629404 0.822267 0.167495 -0.05681
C_ C_ 0.609171 0.835038 0.141511 -0.05681
C_ C_ 0.641583 0.839149 0.11832 -0.08735
C_ C_ 0.692836 0.836599 0.120244 -0.08735
C_ C_ 0.595831 0.813125 0.190794 -0.08735
C_ C_ 0.544222 0.813948 0.187597 -0.08735
C_ C_ 0.52302 0.827913 0.160058 -0.05681
C_ C_ 0.556337 0.838187 0.137228 -0.08735
C_ C_ 0.877652 0.73011 0.15875 0.68181
C_ C_ 0.856387 0.925237 0.144339 0.68181
C_ C_ 0.854961 0.981841 0.142564 -0.05681
C_ C_ 0.880213 0.512741 0.166663 -0.08735
C_ C_ 0.879796 0.566152 0.163804 -0.05681
C_ C_ 0.873693 0.588199 0.136951 -0.05681
C_ C_ 0.86745 0.555698 0.113631 -0.08735
C_ C_ 0.847198 1.00743031 0.116951 -0.08735
C_ C_ 0.877522 0.596328 0.187621 -0.08735
C_ C_ 0.886831 0.647911 0.184927 -0.08735
C_ C_ 0.878178 0.672383 0.158799 -0.05681
C_ C_ 0.872093 0.640496 0.133914 -0.08735
C_ C_ 0.962351 0.828124 0.153019 0.68181
C_ C_ 0.890747 0.883384 0.228733 0.1947
C_ C_ 0.898707 0.897585 0.258036 -0.08735
C_ C_ 0.876481 0.869159 0.279962 -0.08735
C_ C_ 0.852853 0.822161 0.273056 -0.05681
C_ C_ 0.845835 0.808124 0.243314 0.18498
C_ C_ 0.813172 0.768776 0.237457 -0.08735
C_ C_ 0.792554 0.738146 0.258843 -0.08735
C_ C_ 0.810814 0.74417 0.286505 -0.08735
C_ C_ 0.836324 0.78847 0.294681 0.18498
C_ C_ 0.804125 0.806325 0.342619 0.44287
C_ C_ 0.892941 0.793789 0.336621 0.44287
C_ C_ 0.900833 0.801441 0.366691 -0.05681
C_ C_ 0.950895 0.800753 0.379707 -0.08735
C_ C_ 0.955167 0.804063 0.408808 -0.08735
C_ C_ 0.914697 0.808258 0.427858 -0.05681
C_ C_ 0.866192 0.814898 0.415056 -0.05681
C_ C_ 0.85936 0.809974 0.384546 -0.05681
C_ C_ 0.809798 0.810742 0.373011 -0.05681
C_ C_ 0.77035 0.82308 0.390803 -0.08735
C_ C_ 0.776971 0.81985 0.421762 -0.08735
C_ C_ 0.825265 0.817724 0.433482 -0.05681
C_ C_ 0.830043 0.813838 0.463415 0.44287
C_ C_ 0.918367 0.804934 0.458263 0.44287
C_ C_ 0.892865 0.845489 0.00441362 0.18498
C_ C_ 0.931865 0.881179 0.0100808 -0.08735
C_ C_ 0.941924 0.899471 0.0368958 -0.08735
C_ C_ 0.921484 0.874015 0.0604563 -0.08735
C_ C_ 0.884495 0.836063 0.0570006 0.18498
C_ C_ 0.873605 0.818333 0.0294965 -0.05681
C_ C_ 0.840657 0.777169 0.0267108 -0.08735
C_ C_ 0.819374 0.752384 0.0492729 -0.08735
C_ C_ 0.830489 0.772046 0.0766124 0.1947
N_ N_ 0.626333 0.66664 0.475243 -0.29468
N_ N_ 0.649301 0.697618 0.0831061 -0.17154
N_ N_ 0.613963 0.661724 0.230476 -0.17154
N_ N_ 0.625033 0.701648 0.332812 -0.29468
N_ N_ 0.861934 0.840556 0.222168 -0.29468
N_ N_ 0.845614 0.796733 0.325338 -0.17154
N_ N_ 0.87643 0.813421 0.47543 -0.17154
N_ N_ 0.863833 0.81326 0.0794049 -0.29468
O_ O_ 0.700919 0.700664 0.425772 -0.58347
O_ O_ 0.693511 0.687578 0.379535 -0.58347
O_ O_ 0.614852 0.757616 0.434179 -0.58347
O_ O_ 0.623434 0.764172 0.387699 -0.58347
O_ O_ 0.65069 0.605505 0.425651 -0.58347
O_ O_ 0.623046 0.612741 0.380706 -0.58347
O_ O_ 0.555574 0.664859 0.429939 -0.58347
O_ O_ 0.545343 0.685129 0.384747 -0.58347
O_ O_ 0.564751 0.712005 0.0767763 -0.46727
O_ O_ 0.737042 0.688273 0.089214 -0.46727
O_ O_ 0.531297 0.690261 0.224055 -0.46727
O_ O_ 0.702767 0.650132 0.235337 -0.46727
O_ O_ 0.787203 0.812791 0.175918 -0.58347
O_ O_ 0.795954 0.824737 0.12832 -0.58347
O_ O_ 0.882337 0.756188 0.181448 -0.58347
O_ O_ 0.868227 0.754251 0.135035 -0.58347
O_ O_ 0.843711 0.902621 0.166638 -0.58347
O_ O_ 0.86969 0.900465 0.122465 -0.58347
O_ O_ 0.934215 0.844013 0.171979 -0.58347
O_ O_ 0.944689 0.818941 0.128048 -0.58347
O_ O_ 0.928875 0.778119 0.320527 -0.46727
O_ O_ 0.758586 0.808706 0.332075 -0.46727
O_ O_ 0.962007 0.792011 0.469531 -0.46727
O_ O_ 0.788967 0.819093 0.479755 -0.46727
Zn Zn 0.623763 0.685511 0.88146 0.90689
Zn Zn 0.633294 0.680973 0.932246 0.90689
Zn Zn 0.863814 0.806296 0.627861 0.90689
Zn Zn 0.851287 0.811047 0.676368 0.90689
H_ H_ 0.799991 0.68335 0.947119 0.11455
H_ H_ 0.870432 0.662383 0.848384 0.11455
H_ H_ 0.777979 0.662682 0.855297 0.11455
H_ H_ 0.883404 0.666617 0.966076 0.11455
H_ H_ 0.977381 0.683834 0.958402 0.11455
H_ H_ 0.956318 0.653186 0.866453 0.11455
H_ H_ 0.657966 0.51042 0.939132 0.11455
H_ H_ 0.58268 0.943577 0.856584 0.11455
H_ H_ 0.593201 0.527568 0.853962 0.11455
H_ H_ 0.66364 0.928485 0.965869 0.11455
H_ H_ 0.650766 0.835626 0.962258 0.11455
H_ H_ 0.611496 0.856238 0.8733 0.11455
H_ H_ 0.594686 0.598625 0.967083 0.11455
H_ H_ 0.584564 0.565147 0.51142 0.11455
H_ H_ 0.611258 0.615902 0.551998 0.11455
H_ H_ 0.698405 0.740517 0.973676 0.11455
H_ H_ 0.707001 0.800168 0.513531 0.11455
H_ H_ 0.684006 0.779403 0.56401 0.11455
H_ H_ 0.496003 0.684286 0.619774 0.11455
H_ H_ 0.485556 0.670269 0.671113 0.11455
H_ H_ 0.749848 0.678418 0.638951 0.11455
H_ H_ 0.73794 0.670204 0.690043 0.11455
H_ H_ 0.546655 0.590668 0.749835 0.11455
H_ H_ 0.543821 0.563583 0.801475 0.11455
H_ H_ 0.563803 0.624066 0.838523 0.11455
H_ H_ 0.650365 0.745023 0.758536 0.11455
H_ H_ 0.68775 0.790458 0.798301 0.11455
H_ H_ 0.681107 0.757591 0.845141 0.11455
H_ H_ 0.679804 0.792944 0.693579 0.11455
H_ H_ 0.616909 0.850071 0.597945 0.11455
H_ H_ 0.707914 0.827615 0.602753 0.11455
H_ H_ 0.59253 0.796275 0.713045 0.11455
H_ H_ 0.501819 0.812139 0.706176 0.11455
H_ H_ 0.529949 0.846399 0.616575 0.11455
H_ H_ 0.868874 0.976128 0.689765 0.11455
H_ H_ 0.873653 0.554115 0.595359 0.11455
H_ H_ 0.873033 0.972477 0.595526 0.11455
H_ H_ 0.855045 0.560509 0.713 0.11455
H_ H_ 0.856547 0.655191 0.708525 0.11455
H_ H_ 0.875104 0.637242 0.618909 0.11455
H_ H_ 0.89732 0.89942 0.709967 0.11455
H_ H_ 0.927369 0.920081 0.760247 0.11455
H_ H_ 0.885738 0.880366 0.798082 0.11455
H_ H_ 0.802078 0.747186 0.721922 0.11455
H_ H_ 0.776815 0.698314 0.762309 0.11455
H_ H_ 0.805665 0.72176 0.811153 0.11455
H_ H_ 0.981168 0.782904 0.869491 0.11455
H_ H_ 0.992958 0.784829 0.921736 0.11455
H_ H_ 0.731437 0.828756 0.883924 0.11455
H_ H_ 0.749042 0.841953 0.935543 0.11455
H_ H_ 0.95042 0.900626 0.992852 0.11455
H_ H_ 0.941635 0.919159 0.54215 0.11455
H_ H_ 0.922528 0.863709 0.583908 0.11455
H_ H_ 0.826661 0.74169 0.502497 0.11455
H_ H_ 0.785448 0.700987 0.545521 0.11455
H_ H_ 0.80241 0.730285 0.593807 0.11455
C_ C_ 0.725788 0.682203 0.903026 0.68181
C_ C_ 0.781624 0.677823 0.901085 -0.05681
C_ C_ 0.813694 0.677334 0.925184 -0.08735
C_ C_ 0.866401 0.671451 0.920624 -0.05681
C_ C_ 0.886643 0.664125 0.893044 -0.05681
C_ C_ 0.853845 0.664119 0.869945 -0.08735
C_ C_ 0.802041 0.666209 0.874646 -0.08735
C_ C_ 0.899713 0.674364 0.945144 -0.08735
C_ C_ 0.950817 0.677098 0.939788 -0.08735
C_ C_ 0.970798 0.674075 0.912261 -0.05681
C_ C_ 0.939196 0.662864 0.888162 -0.08735
C_ C_ 0.622877 0.783117 0.914466 0.68181
C_ C_ 0.630256 0.582427 0.899969 0.68181
C_ C_ 0.626073 0.526081 0.896841 -0.05681
C_ C_ 0.643748 -0.0023849999999999705 0.924902 -0.08735
C_ C_ 0.636861 0.944831 0.923074 -0.05681
C_ C_ 0.620459 0.923927 0.896161 -0.05681
C_ C_ 0.605163 0.957022 0.874239 -0.08735
C_ C_ 0.6192 0.00756501 0.875838 -0.08735
C_ C_ 0.650733 0.911331 0.945672 -0.08735
C_ C_ 0.644976 0.859776 0.943374 -0.08735
C_ C_ 0.627459 0.839181 0.91746 -0.05681
C_ C_ 0.61874 0.870981 0.89329 -0.08735
C_ C_ 0.530185 0.672613 0.91264 0.68181
C_ C_ 0.610736 0.618855 0.985418 0.1947
C_ C_ 0.603248 0.601923 0.50749 -0.08735
C_ C_ 0.61209 0.632524 0.53104 -0.08735
C_ C_ 0.630532 0.680914 0.52744 -0.05681
C_ C_ 0.638827 0.69661 0.498392 0.18498
C_ C_ 0.682169 0.736853 0.994741 -0.08735
C_ C_ 0.683974 0.769179 0.518418 -0.08735
C_ C_ 0.671487 0.755436 0.546689 -0.08735
C_ C_ 0.643116 0.712654 0.551615 0.18498
C_ C_ 0.674986 0.686842 0.598485 0.44287
C_ C_ 0.585406 0.698307 0.592618 0.44287
C_ C_ 0.578628 0.689895 0.622666 -0.05681
C_ C_ 0.528405 0.679946 0.633927 -0.08735
C_ C_ 0.523437 0.67807 0.664329 -0.08735
C_ C_ 0.563487 0.680761 0.682134 -0.05681
C_ C_ 0.614102 0.685058 0.670306 -0.05681
C_ C_ 0.620807 0.687913 0.64015 -0.05681
C_ C_ 0.669074 0.684482 0.628814 -0.05681
C_ C_ 0.71141 0.681844 0.647788 -0.08735
C_ C_ 0.704622 0.675741 0.676243 -0.08735
C_ C_ 0.65523 0.677181 0.688851 -0.05681
C_ C_ 0.64516 0.672381 0.719238 0.44287
C_ C_ 0.556476 0.680611 0.712312 0.44287
C_ C_ 0.591034 0.660094 0.759937 0.18498
C_ C_ 0.561163 0.614629 0.767149 -0.08735
C_ C_ 0.559442 0.599125 0.79597 -0.08735
C_ C_ 0.574418 0.632064 0.81788 -0.08735
C_ C_ 0.60714 0.671808 0.812783 0.18498
C_ C_ 0.613825 0.6886 0.783495 -0.05681
C_ C_ 0.637507 0.736226 0.779924 -0.08735
C_ C_ 0.659609 0.762813 0.802761 -0.08735
C_ C_ 0.659818 0.739513 0.829691 0.1947
C_ C_ 0.756293 0.80288 0.651516 0.68181
C_ C_ 0.699152 0.805822 0.648336 -0.05681
C_ C_ 0.666252 0.802408 0.672622 -0.08735
C_ C_ 0.61446 0.814922 0.669957 -0.05681
C_ C_ 0.595936 0.827992 0.641968 -0.05681
C_ C_ 0.631782 0.835785 0.619143 -0.08735
C_ C_ 0.682271 0.821236 0.621479 -0.08735
C_ C_ 0.578655 0.804975 0.691957 -0.08735
C_ C_ 0.52787 0.817695 0.687827 -0.08735
C_ C_ 0.509949 0.828675 0.660377 -0.05681
C_ C_ 0.543634 0.835607 0.637453 -0.08735
C_ C_ 0.866237 0.713262 0.659129 0.68181
C_ C_ 0.85839 0.909647 0.645634 0.68181
C_ C_ 0.863853 0.966765 0.643798 -0.05681
C_ C_ 0.854435 0.494702 0.670847 -0.08735
C_ C_ 0.86267 0.547946 0.668909 -0.05681
C_ C_ 0.869934 0.570026 0.640742 -0.05681
C_ C_ 0.869873 0.540063 0.616327 -0.08735
C_ C_ 0.863306 0.992104 0.615938 -0.08735
C_ C_ 0.859374 0.578772 0.692499 -0.08735
C_ C_ 0.85615 0.631825 0.689364 -0.08735
C_ C_ 0.865965 0.655669 0.661881 -0.05681
C_ C_ 0.874559 0.621554 0.639127 -0.08735
C_ C_ 0.953247 0.817932 0.650459 0.68181
C_ C_ 0.889264 0.873491 0.727516 0.1947
C_ C_ 0.900216 0.890157 0.756079 -0.08735
C_ C_ 0.872639 0.867233 0.777893 -0.08735
C_ C_ 0.849977 0.821167 0.774285 -0.05681
C_ C_ 0.838239 0.805366 0.746001 0.18498
C_ C_ 0.814487 0.758639 0.742113 -0.08735
C_ C_ 0.794606 0.734951 0.766252 -0.08735
C_ C_ 0.810148 0.746764 0.793478 -0.08735
C_ C_ 0.8344 0.790494 0.797869 0.18498
C_ C_ 0.807377 0.819165 0.84503 0.44287
C_ C_ 0.893001 0.791754 0.838921 0.44287
C_ C_ 0.902492 0.798838 0.868657 -0.05681
C_ C_ 0.950494 0.795529 0.880385 -0.08735
C_ C_ 0.956723 0.796336 0.91092 -0.08735
C_ C_ 0.914682 0.804528 0.928863 -0.05681
C_ C_ 0.866843 0.811363 0.916757 -0.05681
C_ C_ 0.861076 0.809483 0.886843 -0.05681
C_ C_ 0.813339 0.815708 0.875568 -0.05681
C_ C_ 0.770394 0.822888 0.893165 -0.08735
C_ C_ 0.778532 0.828059 0.922671 -0.08735
C_ C_ 0.826653 0.823717 0.934826 -0.05681
C_ C_ 0.835598 0.831344 0.964452 0.44287
C_ C_ 0.921063 0.811023 0.958857 0.44287
C_ C_ 0.885391 0.825938 0.505199 0.18498
C_ C_ 0.91008 0.871158 0.51021 -0.08735
C_ C_ 0.919091 0.885403 0.538844 -0.08735
C_ C_ 0.905208 0.854489 0.562513 -0.08735
C_ C_ 0.878995 0.810225 0.557103 0.18498
C_ C_ 0.868667 0.795022 0.52885 -0.05681
C_ C_ 0.83679 0.75378 0.52461 -0.08735
C_ C_ 0.813116 0.732425 0.548468 -0.08735
C_ C_ 0.822898 0.748184 0.575746 0.1947
N_ N_ 0.636031 0.663965 0.980557 -0.29468
N_ N_ 0.6342 0.697557 0.581685 -0.17154
N_ N_ 0.598749 0.673888 0.729994 -0.17154
N_ N_ 0.630987 0.697082 0.834721 -0.29468
N_ N_ 0.857312 0.832674 0.72289 -0.29468
N_ N_ 0.846257 0.8024 0.826992 -0.17154
N_ N_ 0.883607 0.828232 0.975147 -0.17154
N_ N_ 0.856657 0.78585 0.57971 -0.29468
O_ O_ 0.706224 0.693185 0.926743 -0.58347
O_ O_ 0.699665 0.678257 0.879405 -0.58347
O_ O_ 0.626205 0.75685 0.936509 -0.58347
O_ O_ 0.628801 0.763722 0.889103 -0.58347
O_ O_ 0.640613 0.603031 0.923909 -0.58347
O_ O_ 0.618156 0.609626 0.878819 -0.58347
O_ O_ 0.55646 0.669204 0.934382 -0.58347
O_ O_ 0.550413 0.689131 0.888892 -0.58347
O_ O_ 0.545286 0.701149 0.575321 -0.46727
O_ O_ 0.719528 0.682599 0.587027 -0.46727
O_ O_ 0.509017 0.676098 0.723651 -0.46727
O_ O_ 0.685324 0.662802 0.736141 -0.46727
O_ O_ 0.775163 0.803012 0.676664 -0.58347
O_ O_ 0.786174 0.808377 0.630165 -0.58347
O_ O_ 0.857878 0.738348 0.681536 -0.58347
O_ O_ 0.864412 0.734272 0.634847 -0.58347
O_ O_ 0.843204 0.888101 0.668225 -0.58347
O_ O_ 0.866439 0.883537 0.623179 -0.58347
O_ O_ 0.924171 0.821071 0.672391 -0.58347
O_ O_ 0.935824 0.802661 0.626915 -0.58347
O_ O_ 0.93001 0.774887 0.822591 -0.46727
O_ O_ 0.763959 0.835147 0.83263 -0.46727
O_ O_ 0.966826 0.804995 0.970199 -0.46727
O_ O_ 0.799994 0.850592 0.980272 -0.46727
