_cell_length_a 26.376
_cell_length_b 26.400000238300095
_cell_length_c 46.67800035477134
_cell_angle_alpha 90.00700052986613
_cell_angle_beta 89.99899961309502
_cell_angle_gamma 90.45000003183146
_symmetry_space_group_name_H-M         'P 1'
_symmetry_Int_Tables_number            1
loop_
_symmetry_equiv_pos_as_xyz
   'x, y, z'
                         
loop_
_atom_site_label
_atom_site_type_symbol
_atom_site_fract_x 
_atom_site_fract_y
_atom_site_fract_z
_atom_site_charge
Zn Zn 0.129109 0.181785 0.379847 0.90689
Zn Zn 0.140468 0.173445 0.427996 0.90689
Zn Zn 0.365164 0.304569 0.131388 0.90689
Zn Zn 0.353775 0.313814 0.179102 0.90689
H_ H_ 0.305493 0.186382 0.441512 0.11455
H_ H_ 0.380725 0.156215 0.347623 0.11455
H_ H_ 0.288127 0.14549 0.354768 0.11455
H_ H_ 0.392825 0.193121 0.46263 0.11455
H_ H_ 0.485171 0.196665 0.45681 0.11455
H_ H_ 0.468438 0.173415 0.366431 0.11455
H_ H_ 0.111365 0.00470763 0.44004 0.11455
H_ H_ 0.113869 0.431312 0.345349 0.11455
H_ H_ 0.138519 0.0238347 0.349185 0.11455
H_ H_ 0.149427 0.423345 0.460521 0.11455
H_ H_ 0.127243 0.336665 0.458171 0.11455
H_ H_ 0.120016 0.344187 0.364712 0.11455
H_ H_ 0.0910384 0.105524 0.46482 0.11455
H_ H_ 0.0752675 0.0711551 0.00748348 0.11455
H_ H_ 0.116143 0.114936 0.0505656 0.11455
H_ H_ 0.189912 0.25484 0.472823 0.11455
H_ H_ 0.20522 0.309995 0.011274 0.11455
H_ H_ 0.165738 0.29713 0.0586092 0.11455
H_ H_ -0.005221000000000031 0.183454 0.115906 0.11455
H_ H_ -0.01707700000000001 0.193184 0.170345 0.11455
H_ H_ 0.249445 0.185906 0.136944 0.11455
H_ H_ 0.236358 0.16991 0.187669 0.11455
H_ H_ 0.0350436 0.0940905 0.247829 0.11455
H_ H_ 0.0260375 0.0641773 0.29782 0.11455
H_ H_ 0.0630135 0.119671 0.336891 0.11455
H_ H_ 0.138922 0.248137 0.252578 0.11455
H_ H_ 0.188631 0.286769 0.291291 0.11455
H_ H_ 0.178418 0.255594 0.341212 0.11455
H_ H_ 0.191072 0.299519 0.196167 0.11455
H_ H_ 0.115905 0.331162 0.101604 0.11455
H_ H_ 0.207185 0.319736 0.104251 0.11455
H_ H_ 0.10522 0.304139 0.219754 0.11455
H_ H_ 0.0111309 0.311061 0.21039 0.11455
H_ H_ 0.0337783 0.32641 0.11999 0.11455
H_ H_ 0.380383 0.473165 0.187597 0.11455
H_ H_ 0.394273 0.0568237 0.0966839 0.11455
H_ H_ 0.364796 0.464841 0.0962147 0.11455
H_ H_ 0.335019 0.0566723 0.209203 0.11455
H_ H_ 0.317195 0.144973 0.201689 0.11455
H_ H_ 0.37209 0.137141 0.116152 0.11455
H_ H_ 0.403113 0.390426 0.214694 0.11455
H_ H_ 0.43008 0.40849 0.263514 0.11455
H_ H_ 0.391134 0.363173 0.303215 0.11455
H_ H_ 0.29308 0.248243 0.219812 0.11455
H_ H_ 0.258218 0.196363 0.260905 0.11455
H_ H_ 0.284278 0.218702 0.309854 0.11455
H_ H_ 0.477184 0.281357 0.36979 0.11455
H_ H_ 0.489282 0.291097 0.424479 0.11455
H_ H_ 0.226348 0.325205 0.389263 0.11455
H_ H_ 0.242163 0.331107 0.441222 0.11455
H_ H_ 0.436778 0.401418 0.497983 0.11455
H_ H_ 0.469544 0.407697 0.0557643 0.11455
H_ H_ 0.442841 0.347693 0.0907485 0.11455
H_ H_ 0.332961 0.247395 0.00730649 0.11455
H_ H_ 0.294296 0.20368 0.046806 0.11455
H_ H_ 0.309101 0.230817 0.0956897 0.11455
C_ C_ 0.234227 0.175215 0.402404 0.68181
C_ C_ 0.292304 0.167235 0.398093 -0.05681
C_ C_ 0.323765 0.175617 0.421825 -0.08735
C_ C_ 0.377211 0.175478 0.418706 -0.05681
C_ C_ 0.399721 0.168551 0.390663 -0.05681
C_ C_ 0.367141 0.156345 0.369333 -0.08735
C_ C_ 0.313946 0.154217 0.372897 -0.08735
C_ C_ 0.408559 0.186518 0.441377 -0.08735
C_ C_ 0.461255 0.185596 0.4377 -0.08735
C_ C_ 0.483316 0.179747 0.410748 -0.05681
C_ C_ 0.451305 0.173713 0.386817 -0.08735
C_ C_ 0.128631 0.275511 0.40957 0.68181
C_ C_ 0.13616 0.0793013 0.398238 0.68181
C_ C_ 0.133341 0.023342 0.395879 -0.05681
C_ C_ 0.150742 0.489704 0.41862 -0.08735
C_ C_ 0.142694 0.436389 0.416006 -0.05681
C_ C_ 0.132426 0.412929 0.388771 -0.05681
C_ C_ 0.128569 0.445058 0.365409 -0.08735
C_ C_ 0.136721 0.49773 0.36818 -0.08735
C_ C_ 0.141723 0.407191 0.439926 -0.08735
C_ C_ 0.131459 0.354383 0.438675 -0.08735
C_ C_ 0.126035 0.330928 0.410923 -0.05681
C_ C_ 0.127222 0.361448 0.38558 -0.08735
C_ C_ 0.0391817 0.178182 0.408064 0.68181
C_ C_ 0.108142 0.126654 0.482714 0.1947
C_ C_ 0.0953946 0.108048 0.00624859 -0.08735
C_ C_ 0.110742 0.13744 0.030132 -0.08735
C_ C_ 0.132599 0.184268 0.026396 -0.05681
C_ C_ 0.139419 0.201691 0.998274 0.18498
C_ C_ 0.173687 0.247048 0.493841 -0.08735
C_ C_ 0.179783 0.277888 0.0159033 -0.08735
C_ C_ 0.160938 0.268452 0.0431636 -0.08735
C_ C_ 0.138164 0.220753 0.0496785 0.18498
C_ C_ 0.17392 0.19866 0.0954509 0.44287
C_ C_ 0.0843719 0.20121 0.0901395 0.44287
C_ C_ 0.0758483 0.185763 0.118505 -0.05681
C_ C_ 0.0263741 0.183205 0.130383 -0.08735
C_ C_ 0.0205889 0.186253 0.160335 -0.08735
C_ C_ 0.0642021 0.178432 0.179596 -0.05681
C_ C_ 0.112044 0.176016 0.167224 -0.05681
C_ C_ 0.119237 0.179024 0.136426 -0.05681
C_ C_ 0.168548 0.180134 0.12497 -0.05681
C_ C_ 0.211628 0.178459 0.144254 -0.08735
C_ C_ 0.20364 0.173984 0.173777 -0.08735
C_ C_ 0.155354 0.175387 0.185442 -0.05681
C_ C_ 0.146813 0.164893 0.214661 0.44287
C_ C_ 0.0594347 0.179398 0.209393 0.44287
C_ C_ 0.0883176 0.155601 0.25738 0.18498
C_ C_ 0.0544871 0.114688 0.26536 -0.08735
C_ C_ 0.0504896 0.0981203 0.293372 -0.08735
C_ C_ 0.0718953 0.129044 0.31478 -0.08735
C_ C_ 0.104482 0.168823 0.308864 0.18498
C_ C_ 0.114333 0.1837 0.279127 -0.05681
C_ C_ 0.140753 0.23074 0.273648 -0.08735
C_ C_ 0.162941 0.255246 0.295934 -0.08735
C_ C_ 0.161134 0.235032 0.324809 0.1947
C_ C_ 0.261943 0.317107 0.153011 0.68181
C_ C_ 0.208016 0.314149 0.15069 -0.05681
C_ C_ 0.175694 0.310071 0.175254 -0.08735
C_ C_ 0.122639 0.313601 0.17343 -0.05681
C_ C_ 0.101873 0.315516 0.145112 -0.05681
C_ C_ 0.134155 0.317137 0.120826 -0.08735
C_ C_ 0.185556 0.315408 0.12391 -0.08735
C_ C_ 0.0903007 0.307665 0.197023 -0.08735
C_ C_ 0.0373248 0.310956 0.192171 -0.08735
C_ C_ 0.01753 0.324311 0.164779 -0.05681
C_ C_ 0.0502513 0.326941 0.141459 -0.08735
C_ C_ 0.359615 0.207461 0.160555 0.68181
C_ C_ 0.365852 0.408526 0.147225 0.68181
C_ C_ 0.368804 0.464894 0.142595 -0.05681
C_ C_ 0.373884 -0.008448000000000011 0.170683 -0.08735
C_ C_ 0.365759 0.0441605 0.166248 -0.05681
C_ C_ 0.374791 0.0678895 0.140098 -0.05681
C_ C_ 0.391814 0.0381955 0.116852 -0.08735
C_ C_ 0.376612 0.487338 0.115907 -0.08735
C_ C_ 0.342099 0.0721025 0.188111 -0.08735
C_ C_ 0.337354 0.125277 0.185293 -0.08735
C_ C_ 0.35623 0.150525 0.160664 -0.05681
C_ C_ 0.3703 0.120824 0.136667 -0.08735
C_ C_ 0.456425 0.306278 0.159511 0.68181
C_ C_ 0.387316 0.367814 0.231175 0.1947
C_ C_ 0.400882 0.381524 0.258482 -0.08735
C_ C_ 0.38072 0.351716 0.281159 -0.08735
C_ C_ 0.353369 0.307519 0.276817 -0.05681
C_ C_ 0.340039 0.295561 0.247368 0.18498
C_ C_ 0.305687 0.255157 0.241224 -0.08735
C_ C_ 0.289014 0.224801 0.264423 -0.08735
C_ C_ 0.300526 0.237867 0.292954 -0.08735
C_ C_ 0.333022 0.278121 0.299796 0.18498
C_ C_ 0.299266 0.305234 0.347459 0.44287
C_ C_ 0.386701 0.285163 0.342017 0.44287
C_ C_ 0.398203 0.298176 0.371504 -0.05681
C_ C_ 0.446983 0.292914 0.383871 -0.08735
C_ C_ 0.454069 0.297039 0.413473 -0.08735
C_ C_ 0.410263 0.304415 0.430846 -0.05681
C_ C_ 0.36281 0.309097 0.41999 -0.05681
C_ C_ 0.355366 0.303435 0.389297 -0.05681
C_ C_ 0.305163 0.3105 0.377117 -0.05681
C_ C_ 0.263576 0.317689 0.396346 -0.08735
C_ C_ 0.274151 0.328186 0.425425 -0.08735
C_ C_ 0.321075 0.319979 0.437389 -0.05681
C_ C_ 0.329671 0.324804 0.467684 0.44287
C_ C_ 0.416782 0.306398 0.460754 0.44287
C_ C_ 0.398531 0.328948 0.0111738 0.18498
C_ C_ 0.431131 0.3678 0.0195778 -0.08735
C_ C_ 0.447018 0.375549 0.0488411 -0.08735
C_ C_ 0.430949 0.34126 0.0690632 -0.08735
C_ C_ 0.389985 0.308438 0.0631711 0.18498
C_ C_ 0.374468 0.30077 0.0339033 -0.05681
C_ C_ 0.33803 0.262601 0.0286695 -0.08735
C_ C_ 0.312216 0.24027 0.0505056 -0.08735
C_ C_ 0.329182 0.249927 0.0788542 0.1947
N_ N_ 0.139024 0.165979 0.47788 -0.29468
N_ N_ 0.132194 0.205939 0.0789676 -0.17154
N_ N_ 0.0976831 0.165844 0.226321 -0.17154
N_ N_ 0.131944 0.193449 0.33024 -0.29468
N_ N_ 0.357534 0.324993 0.225508 -0.29468
N_ N_ 0.338904 0.29093 0.330297 -0.17154
N_ N_ 0.377823 0.319425 0.478341 -0.17154
N_ N_ 0.364213 0.287597 0.0850449 -0.29468
O_ O_ 0.214535 0.186275 0.426644 -0.58347
O_ O_ 0.207848 0.179833 0.379467 -0.58347
O_ O_ 0.129414 0.246756 0.431217 -0.58347
O_ O_ 0.13327 0.255496 0.384591 -0.58347
O_ O_ 0.150732 0.0994028 0.420825 -0.58347
O_ O_ 0.123852 0.105362 0.376904 -0.58347
O_ O_ 0.0663027 0.160553 0.426421 -0.58347
O_ O_ 0.0556268 0.193289 0.383674 -0.58347
O_ O_ 0.0447044 0.217263 0.0741117 -0.46727
O_ O_ 0.218679 0.20608 0.0850032 -0.46727
O_ O_ 0.01306 0.182409 0.220655 -0.46727
O_ O_ 0.183846 0.152183 0.231345 -0.46727
O_ O_ 0.280738 0.313055 0.177486 -0.58347
O_ O_ 0.289032 0.308195 0.131166 -0.58347
O_ O_ 0.356064 0.23345 0.183489 -0.58347
O_ O_ 0.358301 0.231188 0.136773 -0.58347
O_ O_ 0.352164 0.387926 0.170925 -0.58347
O_ O_ 0.373804 0.379582 0.126108 -0.58347
O_ O_ 0.427421 0.315623 0.181286 -0.58347
O_ O_ 0.437354 0.299885 0.134799 -0.58347
O_ O_ 0.421557 0.262479 0.327093 -0.46727
O_ O_ 0.25722 0.320141 0.335623 -0.46727
O_ O_ 0.461004 0.301226 0.472976 -0.46727
O_ O_ 0.294353 0.340325 0.485047 -0.46727
Zn Zn 0.120285 0.186597 0.880668 0.90689
Zn Zn 0.135657 0.184804 0.927699 0.90689
Zn Zn 0.360693 0.310244 0.630164 0.90689
Zn Zn 0.35573 0.315047 0.681109 0.90689
H_ H_ 0.302211 0.205321 0.94158 0.11455
H_ H_ 0.365017 0.150346 0.846664 0.11455
H_ H_ 0.270101 0.160375 0.852543 0.11455
H_ H_ 0.388315 0.180412 0.962235 0.11455
H_ H_ 0.473763 0.168623 0.954829 0.11455
H_ H_ 0.45294 0.175125 0.864304 0.11455
H_ H_ 0.117335 0.0206089 0.940145 0.11455
H_ H_ 0.0757336 0.43663 0.849613 0.11455
H_ H_ 0.166355 0.0317818 0.852271 0.11455
H_ H_ 0.158587 0.4327 0.958321 0.11455
H_ H_ 0.154342 0.339154 0.953988 0.11455
H_ H_ 0.0825698 0.351503 0.871936 0.11455
H_ H_ 0.0877712 0.105134 0.960593 0.11455
H_ H_ 0.0697032 0.0809049 0.514537 0.11455
H_ H_ 0.113632 0.120394 0.554719 0.11455
H_ H_ 0.186049 0.251842 0.973083 0.11455
H_ H_ 0.205496 0.314104 0.514374 0.11455
H_ H_ 0.184253 0.288033 0.562404 0.11455
H_ H_ 0.0066292 0.214387 0.621864 0.11455
H_ H_ -0.0013490000000000446 0.20084 0.674645 0.11455
H_ H_ 0.256519 0.168973 0.630235 0.11455
H_ H_ 0.247917 0.152024 0.681107 0.11455
H_ H_ 0.0601776 0.0992094 0.745868 0.11455
H_ H_ 0.0302457 0.0791478 0.792406 0.11455
H_ H_ 0.0697642 0.121073 0.837191 0.11455
H_ H_ 0.178845 0.241584 0.760627 0.11455
H_ H_ 0.185636 0.299812 0.799828 0.11455
H_ H_ 0.172966 0.266479 0.847212 0.11455
H_ H_ 0.189333 0.313186 0.697299 0.11455
H_ H_ 0.114442 0.329368 0.599021 0.11455
H_ H_ 0.205865 0.314499 0.605505 0.11455
H_ H_ 0.104352 0.327743 0.71623 0.11455
H_ H_ 0.0147352 0.349847 0.710436 0.11455
H_ H_ 0.029408 0.318646 0.620468 0.11455
H_ H_ 0.338013 0.478914 0.688634 0.11455
H_ H_ 0.377922 0.0620153 0.601468 0.11455
H_ H_ 0.360009 0.467517 0.597451 0.11455
H_ H_ 0.356734 0.0650452 0.718307 0.11455
H_ H_ 0.374323 0.156224 0.714891 0.11455
H_ H_ 0.366641 0.144028 0.622745 0.11455
H_ H_ 0.420176 0.390971 0.713611 0.11455
H_ H_ 0.429378 0.425038 0.763292 0.11455
H_ H_ 0.397501 0.373176 0.80448 0.11455
H_ H_ 0.302118 0.262987 0.723903 0.11455
H_ H_ 0.264408 0.213325 0.764993 0.11455
H_ H_ 0.286215 0.233214 0.815167 0.11455
H_ H_ 0.481943 0.299176 0.870268 0.11455
H_ H_ 0.492964 0.285832 0.923313 0.11455
H_ H_ 0.24041 0.353746 0.890724 0.11455
H_ H_ 0.251267 0.336069 0.941263 0.11455
H_ H_ 0.445207 0.391188 0.00226853 0.11455
H_ H_ 0.462518 0.419879 0.545726 0.11455
H_ H_ 0.426452 0.3718 0.586816 0.11455
H_ H_ 0.34732 0.242954 0.505581 0.11455
H_ H_ 0.312968 0.197938 0.546776 0.11455
H_ H_ 0.320122 0.235053 0.594083 0.11455
C_ C_ 0.226955 0.190829 0.903484 0.68181
C_ C_ 0.281076 0.187113 0.897241 -0.05681
C_ C_ 0.316163 0.195933 0.920004 -0.08735
C_ C_ 0.366796 0.186108 0.916999 -0.05681
C_ C_ 0.385075 0.177074 0.8892 -0.05681
C_ C_ 0.350699 0.16915 0.866652 -0.08735
C_ C_ 0.297957 0.17287 0.869929 -0.08735
C_ C_ 0.400425 0.179505 0.940286 -0.08735
C_ C_ 0.449327 0.167239 0.935916 -0.08735
C_ C_ 0.469957 0.171923 0.907905 -0.05681
C_ C_ 0.436472 0.170949 0.88491 -0.08735
C_ C_ 0.11254 0.282309 0.910686 0.68181
C_ C_ 0.138422 0.0888199 0.896816 0.68181
C_ C_ 0.140479 0.0323474 0.895848 -0.05681
C_ C_ 0.138044 0.501624 0.916037 -0.08735
C_ C_ 0.128348 0.448094 0.916704 -0.05681
C_ C_ 0.102644 0.423474 0.892632 -0.05681
C_ C_ 0.0934778 0.455198 0.867482 -0.08735
C_ C_ 0.0969354 0.507687 0.868697 -0.08735
C_ C_ 0.141359 0.416247 0.939092 -0.08735
C_ C_ 0.141779 0.362162 0.935735 -0.08735
C_ C_ 0.120063 0.339545 0.911684 -0.05681
C_ C_ 0.0988201 0.369082 0.890144 -0.08735
C_ C_ 0.0298166 0.185219 0.906073 0.68181
C_ C_ 0.0963023 0.129568 0.979619 0.1947
C_ C_ 0.094532 0.113364 0.510136 -0.08735
C_ C_ 0.115198 0.139148 0.533316 -0.08735
C_ C_ 0.140181 0.185678 0.527959 -0.05681
C_ C_ 0.146649 0.201174 0.498574 0.18498
C_ C_ 0.171591 0.243546 0.994002 -0.08735
C_ C_ 0.184194 0.28012 0.517254 -0.08735
C_ C_ 0.16922 0.267271 0.545146 -0.08735
C_ C_ 0.151066 0.220223 0.550057 0.18498
C_ C_ 0.18276 0.188125 0.595468 0.44287
C_ C_ 0.0954555 0.204136 0.591941 0.44287
C_ C_ 0.0887809 0.197226 0.621573 -0.05681
C_ C_ 0.0403205 0.20504 0.63429 -0.08735
C_ C_ 0.0344115 0.20008 0.664405 -0.08735
C_ C_ 0.0789297 0.194094 0.681542 -0.05681
C_ C_ 0.12644 0.185907 0.668752 -0.05681
C_ C_ 0.130991 0.189246 0.638479 -0.05681
C_ C_ 0.178948 0.18404 0.62463 -0.05681
C_ C_ 0.220638 0.176264 0.64128 -0.08735
C_ C_ 0.215615 0.166243 0.670839 -0.08735
C_ C_ 0.168365 0.176149 0.686 -0.05681
C_ C_ 0.16148 0.167389 0.715354 0.44287
C_ C_ 0.0757692 0.193461 0.712525 0.44287
C_ C_ 0.109856 0.161744 0.758264 0.18498
C_ C_ 0.077876 0.118851 0.76402 -0.08735
C_ C_ 0.0597869 0.107332 0.790485 -0.08735
C_ C_ 0.0789444 0.133758 0.815263 -0.08735
C_ C_ 0.108529 0.178283 0.810802 0.18498
C_ C_ 0.124891 0.191093 0.782026 -0.05681
C_ C_ 0.154909 0.233035 0.779093 -0.08735
C_ C_ 0.16392 0.265551 0.802864 -0.08735
C_ C_ 0.152339 0.24806 0.829808 0.1947
C_ C_ 0.25958 0.312927 0.655843 0.68181
C_ C_ 0.204222 0.316334 0.651169 -0.05681
C_ C_ 0.173131 0.318045 0.675198 -0.08735
C_ C_ 0.120727 0.324444 0.672085 -0.05681
C_ C_ 0.0992246 0.329444 0.643896 -0.05681
C_ C_ 0.130796 0.324528 0.619583 -0.08735
C_ C_ 0.181818 0.315267 0.624636 -0.08735
C_ C_ 0.0889015 0.330139 0.695751 -0.08735
C_ C_ 0.0378012 0.337073 0.692755 -0.08735
C_ C_ 0.0147179 0.334713 0.665044 -0.05681
C_ C_ 0.0461801 0.325942 0.641043 -0.08735
C_ C_ 0.370176 0.213072 0.66631 0.68181
C_ C_ 0.348277 0.410971 0.645679 0.68181
C_ C_ 0.349083 0.467416 0.642259 -0.05681
C_ C_ 0.361244 -0.0029569999999999874 0.674149 -0.08735
C_ C_ 0.361895 0.0507218 0.673056 -0.05681
C_ C_ 0.370993 0.0739392 0.64609 -0.05681
C_ C_ 0.370591 0.0438712 0.621883 -0.08735
C_ C_ 0.360323 0.490604 0.615957 -0.08735
C_ C_ 0.361809 0.0817141 0.697348 -0.08735
C_ C_ 0.362923 0.133709 0.695861 -0.08735
C_ C_ 0.365619 0.156507 0.667773 -0.05681
C_ C_ 0.373593 0.126917 0.643754 -0.08735
C_ C_ 0.453493 0.322543 0.659802 0.68181
C_ C_ 0.400735 0.373516 0.731798 0.1947
C_ C_ 0.40805 0.392179 0.759289 -0.08735
C_ C_ 0.388414 0.365535 0.782516 -0.08735
C_ C_ 0.353416 0.325445 0.778688 -0.05681
C_ C_ 0.346003 0.310347 0.750182 0.18498
C_ C_ 0.316352 0.26623 0.745172 -0.08735
C_ C_ 0.290317 0.243317 0.768206 -0.08735
C_ C_ 0.30098 0.257475 0.796791 -0.08735
C_ C_ 0.333432 0.297379 0.802491 0.18498
C_ C_ 0.305515 0.324291 0.850194 0.44287
C_ C_ 0.392951 0.301275 0.843421 0.44287
C_ C_ 0.403958 0.305699 0.872599 -0.05681
C_ C_ 0.451903 0.300022 0.883935 -0.08735
C_ C_ 0.457551 0.297098 0.914751 -0.08735
C_ C_ 0.4174 0.302635 0.93286 -0.05681
C_ C_ 0.369888 0.315438 0.922437 -0.05681
C_ C_ 0.36183 0.313017 0.89139 -0.05681
C_ C_ 0.31297 0.325805 0.879688 -0.05681
C_ C_ 0.273598 0.333543 0.89935 -0.08735
C_ C_ 0.282125 0.336917 0.928435 -0.08735
C_ C_ 0.330276 0.327433 0.94038 -0.05681
C_ C_ 0.339645 0.33288 0.969718 0.44287
C_ C_ 0.424217 0.30285 0.963034 0.44287
C_ C_ 0.388437 0.335231 0.507526 0.18498
C_ C_ 0.417445 0.379934 0.514361 -0.08735
C_ C_ 0.437245 0.389017 0.542799 -0.08735
C_ C_ 0.412751 0.366938 0.565312 -0.08735
C_ C_ 0.381541 0.324147 0.559439 0.18498
C_ C_ 0.374735 0.306306 0.530937 -0.05681
C_ C_ 0.349239 0.260594 0.526742 -0.08735
C_ C_ 0.322989 0.237543 0.549561 -0.08735
C_ C_ 0.33445 0.255248 0.576458 0.1947
N_ N_ 0.120527 0.174831 0.975563 -0.29468
N_ N_ 0.142531 0.206006 0.580839 -0.17154
N_ N_ 0.117071 0.177725 0.72895 -0.17154
N_ N_ 0.121605 0.208453 0.834402 -0.29468
N_ N_ 0.369018 0.33463 0.727436 -0.29468
N_ N_ 0.344712 0.310899 0.831964 -0.17154
N_ N_ 0.385807 0.319601 0.981026 -0.17154
N_ N_ 0.362017 0.296818 0.58188 -0.29468
O_ O_ 0.210232 0.186853 0.928999 -0.58347
O_ O_ 0.197316 0.195221 0.882803 -0.58347
O_ O_ 0.126514 0.257626 0.932156 -0.58347
O_ O_ 0.107737 0.261133 0.886448 -0.58347
O_ O_ 0.142551 0.111188 0.920968 -0.58347
O_ O_ 0.128425 0.113882 0.874604 -0.58347
O_ O_ 0.05856 0.180973 0.926784 -0.58347
O_ O_ 0.0477614 0.181137 0.880313 -0.58347
O_ O_ 0.0584911 0.21659 0.573464 -0.46727
O_ O_ 0.227282 0.184054 0.583072 -0.46727
O_ O_ 0.0314954 0.197331 0.724655 -0.46727
O_ O_ 0.200432 0.156897 0.730428 -0.46727
O_ O_ 0.27775 0.305567 0.68071 -0.58347
O_ O_ 0.287836 0.309901 0.632605 -0.58347
O_ O_ 0.360789 0.240538 0.687895 -0.58347
O_ O_ 0.366478 0.232302 0.640923 -0.58347
O_ O_ 0.34576 0.390369 0.671018 -0.58347
O_ O_ 0.352019 0.38283 0.623879 -0.58347
O_ O_ 0.426606 0.326259 0.681317 -0.58347
O_ O_ 0.435309 0.316269 0.635225 -0.58347
O_ O_ 0.430066 0.287396 0.825169 -0.46727
O_ O_ 0.262204 0.339213 0.839636 -0.46727
O_ O_ 0.471907 0.301897 0.973768 -0.46727
O_ O_ 0.303149 0.350256 0.986637 -0.46727
Zn Zn 0.135713 0.680852 0.379456 0.90689
Zn Zn 0.14133 0.677774 0.427038 0.90689
Zn Zn 0.38158 0.802419 0.131747 0.90689
Zn Zn 0.369941 0.81308 0.178269 0.90689
H_ H_ 0.304661 0.698814 0.442325 0.11455
H_ H_ 0.379772 0.653067 0.347444 0.11455
H_ H_ 0.289413 0.646752 0.355323 0.11455
H_ H_ 0.392597 0.710269 0.461043 0.11455
H_ H_ 0.483585 0.689071 0.460195 0.11455
H_ H_ 0.464759 0.654957 0.369101 0.11455
H_ H_ 0.164762 0.508614 0.438281 0.11455
H_ H_ 0.142826 0.931778 0.344112 0.11455
H_ H_ 0.137608 0.520661 0.348997 0.11455
H_ H_ 0.11128 0.922004 0.46137 0.11455
H_ H_ 0.123506 0.828781 0.457506 0.11455
H_ H_ 0.143929 0.846667 0.366724 0.11455
H_ H_ 0.0974463 0.602482 0.461811 0.11455
H_ H_ 0.0766857 0.572505 0.00854634 0.11455
H_ H_ 0.103168 0.622512 0.0527419 0.11455
H_ H_ 0.205192 0.747294 0.469655 0.11455
H_ H_ 0.217678 0.805498 0.0170113 0.11455
H_ H_ 0.194066 0.778257 0.0636902 0.11455
H_ H_ 0.015503 0.704578 0.123682 0.11455
H_ H_ 0.00712979 0.699617 0.174715 0.11455
H_ H_ 0.267208 0.663024 0.13642 0.11455
H_ H_ 0.254595 0.651876 0.189135 0.11455
H_ H_ 0.0663561 0.581283 0.249222 0.11455
H_ H_ 0.0486205 0.563513 0.296372 0.11455
H_ H_ 0.0669657 0.624744 0.333966 0.11455
H_ H_ 0.161985 0.738826 0.25575 0.11455
H_ H_ 0.201063 0.789754 0.297726 0.11455
H_ H_ 0.182041 0.760082 0.346178 0.11455
H_ H_ 0.208238 0.798275 0.194492 0.11455
H_ H_ 0.128401 0.854359 0.100463 0.11455
H_ H_ 0.225186 0.8399 0.104398 0.11455
H_ H_ 0.121738 0.807948 0.215328 0.11455
H_ H_ 0.0295736 0.828414 0.215129 0.11455
H_ H_ 0.0440747 0.840604 0.122033 0.11455
H_ H_ 0.378351 0.976103 0.192812 0.11455
H_ H_ 0.384671 0.559343 0.093302 0.11455
H_ H_ 0.391656 0.966453 0.100135 0.11455
H_ H_ 0.36566 0.564517 0.211653 0.11455
H_ H_ 0.384196 0.654282 0.206539 0.11455
H_ H_ 0.380333 0.644319 0.116355 0.11455
H_ H_ 0.4363 0.879656 0.211974 0.11455
H_ H_ 0.452132 0.907056 0.262219 0.11455
H_ H_ 0.403481 0.877504 0.300821 0.11455
H_ H_ 0.320636 0.745266 0.219257 0.11455
H_ H_ 0.276081 0.704167 0.264881 0.11455
H_ H_ 0.294436 0.732677 0.313563 0.11455
H_ H_ 0.491144 0.782724 0.369674 0.11455
H_ H_ 0.505842 0.802387 0.420018 0.11455
H_ H_ 0.246321 0.8567 0.383189 0.11455
H_ H_ 0.253086 0.853337 0.434729 0.11455
H_ H_ 0.447273 0.903011 0.500576 0.11455
H_ H_ 0.45992 0.924565 0.0504807 0.11455
H_ H_ 0.440499 0.865972 0.089865 0.11455
H_ H_ 0.352534 0.743913 0.00490627 0.11455
H_ H_ 0.300112 0.709953 0.0442553 0.11455
H_ H_ 0.322621 0.730803 0.094759 0.11455
C_ C_ 0.236509 0.67683 0.401962 0.68181
C_ C_ 0.29158 0.671962 0.400364 -0.05681
C_ C_ 0.323719 0.688479 0.422785 -0.08735
C_ C_ 0.375308 0.678154 0.420125 -0.05681
C_ C_ 0.396194 0.664716 0.393293 -0.05681
C_ C_ 0.3643 0.655126 0.369973 -0.08735
C_ C_ 0.312319 0.659251 0.373772 -0.08735
C_ C_ 0.407992 0.689961 0.442812 -0.08735
C_ C_ 0.460144 0.683262 0.440863 -0.08735
C_ C_ 0.482505 0.671675 0.414686 -0.05681
C_ C_ 0.449921 0.66336 0.390265 -0.08735
C_ C_ 0.136612 0.776088 0.410484 0.68181
C_ C_ 0.144736 0.578921 0.396337 0.68181
C_ C_ 0.147084 0.521962 0.393891 -0.05681
C_ C_ 0.127677 0.990363 0.419717 -0.08735
C_ C_ 0.130823 0.938179 0.416893 -0.05681
C_ C_ 0.136172 0.917088 0.390034 -0.05681
C_ C_ 0.139999 0.946831 0.365401 -0.08735
C_ C_ 0.133223 1.00007 0.368213 -0.08735
C_ C_ 0.124319 0.905031 0.441181 -0.08735
C_ C_ 0.130126 0.853714 0.438788 -0.08735
C_ C_ 0.141075 0.832706 0.41202 -0.05681
C_ C_ 0.138911 0.863123 0.387435 -0.08735
C_ C_ 0.0410338 0.682279 0.408635 0.68181
C_ C_ 0.114957 0.623029 0.479522 0.1947
C_ C_ 0.0957533 0.608504 0.00633529 -0.08735
C_ C_ 0.109321 0.636225 0.0303224 -0.08735
C_ C_ 0.135141 0.683165 0.0272438 -0.05681
C_ C_ 0.147573 0.699149 0.999114 0.18498
C_ C_ 0.189573 0.739784 0.490005 -0.08735
C_ C_ 0.19562 0.769168 0.0197321 -0.08735
C_ C_ 0.179215 0.75683 0.0459177 -0.08735
C_ C_ 0.155777 0.709243 0.0511076 0.18498
C_ C_ 0.191329 0.683258 0.0977114 0.44287
C_ C_ 0.103419 0.698059 0.0940505 0.44287
C_ C_ 0.0974845 0.694155 0.123524 -0.05681
C_ C_ 0.0490007 0.701571 0.135905 -0.08735
C_ C_ 0.0435338 0.702607 0.166111 -0.08735
C_ C_ 0.085365 0.685282 0.182765 -0.05681
C_ C_ 0.133558 0.679612 0.170141 -0.05681
C_ C_ 0.140242 0.685678 0.140328 -0.05681
C_ C_ 0.187947 0.678826 0.127616 -0.05681
C_ C_ 0.229539 0.670841 0.146441 -0.08735
C_ C_ 0.22296 0.661746 0.1761 -0.08735
C_ C_ 0.174545 0.664114 0.187005 -0.05681
C_ C_ 0.164277 0.653936 0.216067 0.44287
C_ C_ 0.0788821 0.681485 0.211964 0.44287
C_ C_ 0.109038 0.653688 0.258736 0.18498
C_ C_ 0.0797969 0.609508 0.264549 -0.08735
C_ C_ 0.0694361 0.59647 0.292275 -0.08735
C_ C_ 0.0876871 0.626122 0.315043 -0.08735
C_ C_ 0.119158 0.667286 0.310739 0.18498
C_ C_ 0.127976 0.682624 0.282154 -0.05681
C_ C_ 0.157965 0.726475 0.278477 -0.08735
C_ C_ 0.178393 0.753786 0.301614 -0.08735
C_ C_ 0.168145 0.735608 0.328164 0.1947
C_ C_ 0.278293 0.81047 0.152618 0.68181
C_ C_ 0.221198 0.817044 0.149031 -0.05681
C_ C_ 0.189193 0.812705 0.173732 -0.08735
C_ C_ 0.135824 0.820811 0.171192 -0.05681
C_ C_ 0.114464 0.832884 0.144039 -0.05681
C_ C_ 0.145797 0.839717 0.119711 -0.08735
C_ C_ 0.199401 0.830676 0.122919 -0.08735
C_ C_ 0.104014 0.814369 0.195396 -0.08735
C_ C_ 0.0534722 0.828037 0.194896 -0.08735
C_ C_ 0.0306484 0.837239 0.167617 -0.05681
C_ C_ 0.0604389 0.839813 0.142399 -0.08735
C_ C_ 0.373628 0.712393 0.157794 0.68181
C_ C_ 0.376256 0.904626 0.149124 0.68181
C_ C_ 0.384112 0.959393 0.146785 -0.05681
C_ C_ 0.376307 0.494411 0.166928 -0.08735
C_ C_ 0.374152 0.548592 0.165202 -0.05681
C_ C_ 0.378847 0.571835 0.138212 -0.05681
C_ C_ 0.379654 0.539891 0.112958 -0.08735
C_ C_ 0.38933 -0.015098999999999974 0.119466 -0.08735
C_ C_ 0.367675 0.580281 0.189509 -0.08735
C_ C_ 0.37219 0.632487 0.187454 -0.08735
C_ C_ 0.375528 0.656412 0.160634 -0.05681
C_ C_ 0.381143 0.625027 0.136266 -0.08735
C_ C_ 0.473428 0.801497 0.154944 0.68181
C_ C_ 0.414376 0.864491 0.229628 0.1947
C_ C_ 0.426623 0.87705 0.257962 -0.08735
C_ C_ 0.397888 0.859481 0.280507 -0.08735
C_ C_ 0.3683 0.816848 0.276525 -0.05681
C_ C_ 0.359137 0.799599 0.247296 0.18498
C_ C_ 0.326714 0.758507 0.242411 -0.08735
C_ C_ 0.302839 0.734376 0.26688 -0.08735
C_ C_ 0.311964 0.750208 0.29405 -0.08735
C_ C_ 0.346346 0.791295 0.299512 0.18498
C_ C_ 0.31871 0.825936 0.345196 0.44287
C_ C_ 0.399975 0.791832 0.340671 0.44287
C_ C_ 0.410593 0.799924 0.370646 -0.05681
C_ C_ 0.459785 0.793655 0.383595 -0.08735
C_ C_ 0.467202 0.800377 0.412912 -0.08735
C_ C_ 0.424945 0.814429 0.430445 -0.05681
C_ C_ 0.376969 0.823971 0.417567 -0.05681
C_ C_ 0.369519 0.814912 0.388122 -0.05681
C_ C_ 0.322902 0.82807 0.375357 -0.05681
C_ C_ 0.283305 0.846217 0.39248 -0.08735
C_ C_ 0.287731 0.846183 0.42234 -0.08735
C_ C_ 0.337548 0.841546 0.4348 -0.05681
C_ C_ 0.345183 0.849431 0.464875 0.44287
C_ C_ 0.429906 0.820573 0.459563 0.44287
C_ C_ 0.397132 0.840633 0.00857138 0.18498
C_ C_ 0.42694 0.880962 0.0168964 -0.08735
C_ C_ 0.440646 0.891043 0.0453827 -0.08735
C_ C_ 0.426166 0.859512 0.0669759 -0.08735
C_ C_ 0.393732 0.819261 0.061324 0.18498
C_ C_ 0.382855 0.806174 0.0314663 -0.05681
C_ C_ 0.353985 0.761411 0.0258376 -0.08735
C_ C_ 0.328539 0.738353 0.0490682 -0.08735
C_ C_ 0.338295 0.753801 0.0771964 0.1947
N_ N_ 0.142544 0.666188 0.474859 -0.29468
N_ N_ 0.150159 0.693682 0.0804698 -0.17154
N_ N_ 0.119988 0.669791 0.22849 -0.17154
N_ N_ 0.135346 0.697058 0.333257 -0.29468
N_ N_ 0.380297 0.825508 0.224801 -0.29468
N_ N_ 0.355018 0.805154 0.329151 -0.17154
N_ N_ 0.389797 0.832551 0.47709 -0.17154
N_ N_ 0.37296 0.790781 0.0831646 -0.29468
O_ O_ 0.213797 0.666796 0.425664 -0.58347
O_ O_ 0.211835 0.684097 0.379781 -0.58347
O_ O_ 0.147247 0.749619 0.431228 -0.58347
O_ O_ 0.12909 0.755234 0.386749 -0.58347
O_ O_ 0.139543 0.59872 0.420669 -0.58347
O_ O_ 0.139844 0.60647 0.374401 -0.58347
O_ O_ 0.0698433 0.686136 0.429302 -0.58347
O_ O_ 0.0579522 0.679216 0.383241 -0.58347
O_ O_ 0.0623856 0.710968 0.0783455 -0.46727
O_ O_ 0.237297 0.684892 0.0865497 -0.46727
O_ O_ 0.0362882 0.695574 0.223846 -0.46727
O_ O_ 0.195828 0.627443 0.230715 -0.46727
O_ O_ 0.29736 0.813978 0.178123 -0.58347
O_ O_ 0.305194 0.802981 0.131675 -0.58347
O_ O_ 0.368035 0.739345 0.179922 -0.58347
O_ O_ 0.378432 0.731596 0.132944 -0.58347
O_ O_ 0.375942 0.884231 0.173348 -0.58347
O_ O_ 0.384084 0.875285 0.127359 -0.58347
O_ O_ 0.443591 0.802861 0.176324 -0.58347
O_ O_ 0.455789 0.80121 0.130233 -0.58347
O_ O_ 0.437986 0.777328 0.325156 -0.46727
O_ O_ 0.276372 0.83928 0.332715 -0.46727
O_ O_ 0.475743 0.817938 0.470008 -0.46727
O_ O_ 0.304403 0.856836 0.48095 -0.46727
Zn Zn 0.122222 0.688622 0.881479 0.90689
Zn Zn 0.132956 0.68588 0.929586 0.90689
Zn Zn 0.371809 0.807044 0.629966 0.90689
Zn Zn 0.36364 0.811333 0.678985 0.90689
H_ H_ 0.304899 0.690052 0.94969 0.11455
H_ H_ 0.37015 0.674553 0.8491 0.11455
H_ H_ 0.279638 0.680184 0.856545 0.11455
H_ H_ 0.389712 0.678506 0.967399 0.11455
H_ H_ 0.481934 0.683296 0.958725 0.11455
H_ H_ 0.459925 0.674176 0.86662 0.11455
H_ H_ 0.157892 0.519107 0.932549 0.11455
H_ H_ 0.150267 0.940746 0.846431 0.11455
H_ H_ 0.0887759 0.531166 0.848917 0.11455
H_ H_ 0.120214 0.935342 0.962571 0.11455
H_ H_ 0.101715 0.844027 0.957019 0.11455
H_ H_ 0.13709 0.85357 0.867541 0.11455
H_ H_ 0.0893897 0.605096 0.961024 0.11455
H_ H_ 0.0782046 0.574986 0.509182 0.11455
H_ H_ 0.0961602 0.634215 0.551107 0.11455
H_ H_ 0.197268 0.745762 0.974434 0.11455
H_ H_ 0.215479 0.807474 0.507412 0.11455
H_ H_ 0.193567 0.793904 0.557189 0.11455
H_ H_ 1.014734 0.726337 0.615806 0.11455
H_ H_ 1.00269396 0.71792 0.668195 0.11455
H_ H_ 0.261665 0.671673 0.634154 0.11455
H_ H_ 0.249311 0.658084 0.688082 0.11455
H_ H_ 0.0665283 0.600576 0.743345 0.11455
H_ H_ 0.0427553 0.57533 0.795334 0.11455
H_ H_ 0.0592186 0.634627 0.83354 0.11455
H_ H_ 0.162545 0.750628 0.753753 0.11455
H_ H_ 0.195705 0.793937 0.798093 0.11455
H_ H_ 0.177745 0.760736 0.846678 0.11455
H_ H_ 0.194986 0.803424 0.700047 0.11455
H_ H_ 0.130713 0.843205 0.602106 0.11455
H_ H_ 0.215092 0.815831 0.609618 0.11455
H_ H_ 0.10334 0.796991 0.716734 0.11455
H_ H_ 0.0161143 0.82316 0.710004 0.11455
H_ H_ 0.0421511 0.849552 0.619826 0.11455
H_ H_ 0.35491 0.975271 0.694317 0.11455
H_ H_ 0.374902 0.561491 0.592934 0.11455
H_ H_ 0.381641 0.968736 0.60364 0.11455
H_ H_ 0.333554 0.563648 0.709022 0.11455
H_ H_ 0.343747 0.654449 0.707604 0.11455
H_ H_ 0.367466 0.642673 0.615937 0.11455
H_ H_ 0.425055 0.880892 0.716031 0.11455
H_ H_ 0.435217 0.913671 0.765148 0.11455
H_ H_ 0.396641 0.86099 0.8066 0.11455
H_ H_ 0.310949 0.744743 0.722478 0.11455
H_ H_ 0.274418 0.695457 0.761131 0.11455
H_ H_ 0.291003 0.71675 0.808592 0.11455
H_ H_ 0.478914 0.792384 0.870191 0.11455
H_ H_ 0.495916 0.814193 0.920224 0.11455
H_ H_ 0.233598 0.850085 0.888189 0.11455
H_ H_ 0.245481 0.842593 0.940076 0.11455
H_ H_ 0.441578 0.907681 1.000412345 0.11455
H_ H_ 0.465551 0.924722 0.548995 0.11455
H_ H_ 0.420554 0.874157 0.58759 0.11455
H_ H_ 0.319975 0.768618 0.504928 0.11455
H_ H_ 0.290726 0.715707 0.543327 0.11455
H_ H_ 0.316739 0.729515 0.591035 0.11455
C_ C_ 0.227751 0.684837 0.906033 0.68181
C_ C_ 0.284129 0.681331 0.902722 -0.05681
C_ C_ 0.31791 0.683227 0.926633 -0.08735
C_ C_ 0.370478 0.674858 0.922101 -0.05681
C_ C_ 0.390037 0.672149 0.893529 -0.05681
C_ C_ 0.357323 0.674536 0.870614 -0.08735
C_ C_ 0.304666 0.680541 0.874781 -0.08735
C_ C_ 0.40376 0.675187 0.945372 -0.08735
C_ C_ 0.455294 0.683747 0.941086 -0.08735
C_ C_ 0.476749 0.679201 0.912211 -0.05681
C_ C_ 0.443748 0.673313 0.888527 -0.08735
C_ C_ 0.124606 0.786063 0.911647 0.68181
C_ C_ 0.125978 0.588033 0.896024 0.68181
C_ C_ 0.120941 0.531211 0.89279 -0.05681
C_ C_ 0.131777 1.00265001 0.919979 -0.08735
C_ C_ 0.138017 0.948886 0.919522 -0.05681
C_ C_ 0.143699 0.924698 0.891958 -0.05681
C_ C_ 0.151556 0.955033 0.868221 -0.08735
C_ C_ 0.154025 0.00898034 0.869836 -0.08735
C_ C_ 0.123831 0.916744 0.942682 -0.08735
C_ C_ 0.116105 0.865748 0.93906 -0.08735
C_ C_ 0.123616 0.841307 0.912906 -0.05681
C_ C_ 0.134803 0.873047 0.888414 -0.08735
C_ C_ 0.0323678 0.694538 0.908248 0.68181
C_ C_ 0.100622 0.627941 0.979528 0.1947
C_ C_ 0.101465 0.609716 0.506647 -0.08735
C_ C_ 0.112114 0.641785 0.529854 -0.08735
C_ C_ 0.146357 0.682999 0.524766 -0.05681
C_ C_ 0.15991 0.694804 0.496098 0.18498
C_ C_ 0.179747 0.740698 0.995333 -0.08735
C_ C_ 0.200252 0.771231 0.512361 -0.08735
C_ C_ 0.187276 0.762084 0.540542 -0.08735
C_ C_ 0.16389 0.714831 0.547877 0.18498
C_ C_ 0.190863 0.68919 0.594429 0.44287
C_ C_ 0.105559 0.716097 0.589217 0.44287
C_ C_ 0.0946711 0.703872 0.618625 -0.05681
C_ C_ 0.0461779 0.712198 0.629837 -0.08735
C_ C_ 0.0384039 0.707198 0.658668 -0.08735
C_ C_ 0.0787934 0.695156 0.677889 -0.05681
C_ C_ 0.128085 0.685032 0.667024 -0.05681
C_ C_ 0.137295 0.694915 0.637197 -0.05681
C_ C_ 0.185646 0.68674 0.624991 -0.05681
C_ C_ 0.224748 0.67055 0.642032 -0.08735
C_ C_ 0.216173 0.664905 0.672409 -0.08735
C_ C_ 0.168694 0.67318 0.685429 -0.05681
C_ C_ 0.159877 0.668002 0.715206 0.44287
C_ C_ 0.0740212 0.695388 0.708344 0.44287
C_ C_ 0.102197 0.668096 0.757191 0.18498
C_ C_ 0.077182 0.622465 0.762473 -0.08735
C_ C_ 0.0638139 0.608468 0.789788 -0.08735
C_ C_ 0.0747465 0.641014 0.812754 -0.08735
C_ C_ 0.106298 0.683624 0.808284 0.18498
C_ C_ 0.119113 0.697472 0.779539 -0.05681
C_ C_ 0.150395 0.738963 0.775633 -0.08735
C_ C_ 0.170262 0.762129 0.800901 -0.08735
C_ C_ 0.162422 0.742273 0.827834 0.1947
C_ C_ 0.264982 0.805466 0.658723 0.68181
C_ C_ 0.212093 0.806524 0.654617 -0.05681
C_ C_ 0.179315 0.808828 0.677544 -0.08735
C_ C_ 0.127469 0.819694 0.673823 -0.05681
C_ C_ 0.109191 0.833508 0.646254 -0.05681
C_ C_ 0.141745 0.829092 0.622957 -0.08735
C_ C_ 0.192447 0.81964 0.627818 -0.08735
C_ C_ 0.0927349 0.815881 0.695816 -0.08735
C_ C_ 0.0409516 0.821463 0.691236 -0.08735
C_ C_ 0.0210243 0.834467 0.663828 -0.05681
C_ C_ 0.0562702 0.840067 0.641461 -0.08735
C_ C_ 0.364127 0.710698 0.657786 0.68181
C_ C_ 0.364154 0.909244 0.650959 0.68181
C_ C_ 0.363483 0.967784 0.649052 -0.05681
C_ C_ 0.339467 0.497004 0.666869 -0.08735
C_ C_ 0.348259 0.549671 0.665206 -0.05681
C_ C_ 0.361775 0.573319 0.638986 -0.05681
C_ C_ 0.366843 0.543663 0.61443 -0.08735
C_ C_ 0.369746 0.991277 0.622737 -0.08735
C_ C_ 0.342853 0.580895 0.688957 -0.08735
C_ C_ 0.344305 0.634283 0.687224 -0.08735
C_ C_ 0.358436 0.655442 0.660702 -0.05681
C_ C_ 0.366133 0.624386 0.636908 -0.08735
C_ C_ 0.465358 0.808562 0.654285 0.68181
C_ C_ 0.40654 0.862487 0.733577 0.1947
C_ C_ 0.411632 0.87987 0.761691 -0.08735
C_ C_ 0.388409 0.853114 0.783393 -0.08735
C_ C_ 0.358777 0.811054 0.778436 -0.05681
C_ C_ 0.350836 0.797038 0.749094 0.18498
C_ C_ 0.314719 0.76089 0.742731 -0.08735
C_ C_ 0.295762 0.730392 0.764894 -0.08735
C_ C_ 0.301631 0.744397 0.793237 -0.08735
C_ C_ 0.332394 0.7845 0.800631 0.18498
C_ C_ 0.303052 0.816129 0.848547 0.44287
C_ C_ 0.386805 0.785866 0.844152 0.44287
C_ C_ 0.39616 0.799798 0.872789 -0.05681
C_ C_ 0.447951 0.803905 0.883408 -0.08735
C_ C_ 0.457476 0.818941 0.911569 -0.08735
C_ C_ 0.415217 0.822362 0.931366 -0.05681
C_ C_ 0.366924 0.821574 0.920226 -0.05681
C_ C_ 0.35767 0.817818 0.890043 -0.05681
C_ C_ 0.310616 0.826131 0.878452 -0.05681
C_ C_ 0.270814 0.841992 0.898329 -0.08735
C_ C_ 0.278604 0.840786 0.927409 -0.08735
C_ C_ 0.326779 0.830254 0.939273 -0.05681
C_ C_ 0.336334 0.83632 0.968984 0.44287
C_ C_ 0.42339 0.826534 0.960456 0.44287
C_ C_ 0.398163 0.839465 0.508075 0.18498
C_ C_ 0.42901 0.880925 0.516249 -0.08735
C_ C_ 0.443459 0.890162 0.54406 -0.08735
C_ C_ 0.419786 0.861661 0.566151 -0.08735
C_ C_ 0.388182 0.820639 0.559716 0.18498
C_ C_ 0.377209 0.809456 0.529833 -0.05681
C_ C_ 0.337529 0.7749 0.525273 -0.08735
C_ C_ 0.319776 0.744522 0.546314 -0.08735
C_ C_ 0.332774 0.753352 0.574609 0.1947
N_ N_ 0.129886 0.670091 0.97595 -0.29468
N_ N_ 0.151887 0.703781 0.577491 -0.17154
N_ N_ 0.111248 0.680884 0.726216 -0.17154
N_ N_ 0.127966 0.705794 0.831907 -0.29468
N_ N_ 0.373567 0.823071 0.727233 -0.29468
N_ N_ 0.341673 0.797365 0.831419 -0.17154
N_ N_ 0.384388 0.830401 0.978875 -0.17154
N_ N_ 0.366961 0.792763 0.58135 -0.29468
O_ O_ 0.207839 0.684161 0.930734 -0.58347
O_ O_ 0.199823 0.682278 0.883034 -0.58347
O_ O_ 0.133407 0.760011 0.933798 -0.58347
O_ O_ 0.122182 0.764751 0.887286 -0.58347
O_ O_ 0.140224 0.610208 0.919246 -0.58347
O_ O_ 0.113525 0.616528 0.874653 -0.58347
O_ O_ 0.0607774 0.682911 0.928448 -0.58347
O_ O_ 0.0486586 0.696926 0.883023 -0.58347
O_ O_ 0.0693672 0.730565 0.571842 -0.46727
O_ O_ 0.236907 0.677144 0.583331 -0.46727
O_ O_ 0.0301216 0.705125 0.720563 -0.46727
O_ O_ 0.198482 0.656803 0.732513 -0.46727
O_ O_ 0.285274 0.808215 0.682753 -0.58347
O_ O_ 0.293031 0.809491 0.636922 -0.58347
O_ O_ 0.365885 0.736261 0.680737 -0.58347
O_ O_ 0.368783 0.732355 0.633655 -0.58347
O_ O_ 0.363818 0.88735 0.674988 -0.58347
O_ O_ 0.367645 0.883666 0.628093 -0.58347
O_ O_ 0.437612 0.815229 0.676381 -0.58347
O_ O_ 0.444541 0.806759 0.629471 -0.58347
O_ O_ 0.422629 0.769057 0.828786 -0.46727
O_ O_ 0.256329 0.823069 0.837769 -0.46727
O_ O_ 0.469521 0.82569 0.970334 -0.46727
O_ O_ 0.299249 0.848029 0.98658 -0.46727
Zn Zn 0.637137 0.191616 0.380641 0.90689
Zn Zn 0.638257 0.183974 0.429625 0.90689
Zn Zn 0.867138 0.310852 0.138421 0.90689
Zn Zn 0.854355 0.321693 0.186974 0.90689
H_ H_ 0.807987 0.199409 0.443896 0.11455
H_ H_ 0.876236 0.134383 0.350375 0.11455
H_ H_ 0.787882 0.145797 0.356957 0.11455
H_ H_ 0.892701 0.208633 0.463002 0.11455
H_ H_ 0.989286 0.207468 0.454962 0.11455
H_ H_ 0.964024 0.157802 0.369198 0.11455
H_ H_ 0.598767 0.0222775 0.434942 0.11455
H_ H_ 0.594375 0.446371 0.352 0.11455
H_ H_ 0.672898 0.0288696 0.352058 0.11455
H_ H_ 0.674171 0.432597 0.461498 0.11455
H_ H_ 0.652308 0.337694 0.457664 0.11455
H_ H_ 0.596782 0.362282 0.372436 0.11455
H_ H_ 0.598513 0.108626 0.466322 0.11455
H_ H_ 0.555077 0.0813665 0.00839172 0.11455
H_ H_ 0.590853 0.12631 0.0514375 0.11455
H_ H_ 0.707111 0.249389 0.472395 0.11455
H_ H_ 0.711704 0.303643 0.0122811 0.11455
H_ H_ 0.691906 0.278106 0.062094 0.11455
H_ H_ 0.514254 0.198741 0.118796 0.11455
H_ H_ 0.504216 0.196167 0.170564 0.11455
H_ H_ 0.763747 0.159934 0.13152 0.11455
H_ H_ 0.755499 0.156154 0.184285 0.11455
H_ H_ 0.563703 0.0837029 0.248668 0.11455
H_ H_ 0.548123 0.0633567 0.299647 0.11455
H_ H_ 0.572016 0.12416 0.338142 0.11455
H_ H_ 0.671977 0.23325 0.254268 0.11455
H_ H_ 0.701563 0.289042 0.293043 0.11455
H_ H_ 0.677272 0.263452 0.344186 0.11455
H_ H_ 0.68185 0.303099 0.203198 0.11455
H_ H_ 0.619115 0.319019 0.103659 0.11455
H_ H_ 0.707489 0.322913 0.112061 0.11455
H_ H_ 0.590811 0.296856 0.219781 0.11455
H_ H_ 0.505183 0.281074 0.207949 0.11455
H_ H_ 0.535199 0.308538 0.12152 0.11455
H_ H_ 0.854483 0.486621 0.200085 0.11455
H_ H_ 0.889032 0.0684016 0.0986109 0.11455
H_ H_ 0.892351 0.467902 0.111929 0.11455
H_ H_ 0.854313 0.0711127 0.216862 0.11455
H_ H_ 0.856861 0.161717 0.213169 0.11455
H_ H_ 0.888696 0.151821 0.122837 0.11455
H_ H_ 0.919666 0.388289 0.220681 0.11455
H_ H_ 0.929952 0.421672 0.27028 0.11455
H_ H_ 0.892986 0.37818 0.311106 0.11455
H_ H_ 0.80603 0.252247 0.23041 0.11455
H_ H_ 0.775827 0.197101 0.270215 0.11455
H_ H_ 0.810568 0.216216 0.321445 0.11455
H_ H_ 0.988298 0.298791 0.380492 0.11455
H_ H_ 0.0040603 0.313791 0.43037 0.11455
H_ H_ 0.736801 0.319199 0.392419 0.11455
H_ H_ 0.746266 0.337172 0.444361 0.11455
H_ H_ 0.916975 0.428905 0.504402 0.11455
H_ H_ 0.971069 0.421792 0.0592444 0.11455
H_ H_ 0.924112 0.379674 0.0977572 0.11455
H_ H_ 0.837827 0.264067 0.0117282 0.11455
H_ H_ 0.802719 0.21025 0.0495028 0.11455
H_ H_ 0.809608 0.238151 0.101622 0.11455
C_ C_ 0.735425 0.189416 0.403123 0.68181
C_ C_ 0.7907 0.175997 0.400588 -0.05681
C_ C_ 0.824143 0.185131 0.423212 -0.08735
C_ C_ 0.876635 0.181127 0.420448 -0.05681
C_ C_ 0.895866 0.170111 0.392618 -0.05681
C_ C_ 0.863295 0.150348 0.371501 -0.08735
C_ C_ 0.81013 0.153338 0.375409 -0.08735
C_ C_ 0.909605 0.194688 0.443398 -0.08735
C_ C_ 0.962022 0.191548 0.43925 -0.08735
C_ C_ 0.98249 0.178548 0.412413 -0.05681
C_ C_ 0.949428 0.170135 0.38911 -0.08735
C_ C_ 0.622406 0.286958 0.411289 0.68181
C_ C_ 0.641528 0.0891867 0.396516 0.68181
C_ C_ 0.638277 0.0315286 0.393624 -0.05681
C_ C_ 0.652973 0.501717 0.421577 -0.08735
C_ C_ 0.647303 0.448342 0.419125 -0.05681
C_ C_ 0.624044 0.427992 0.394141 -0.05681
C_ C_ 0.615216 0.459884 0.37028 -0.08735
C_ C_ 0.616697 0.512278 0.373832 -0.08735
C_ C_ 0.660646 0.415302 0.441927 -0.08735
C_ C_ 0.64979 0.361132 0.438353 -0.08735
C_ C_ 0.624441 0.343533 0.41407 -0.05681
C_ C_ 0.611335 0.376469 0.391499 -0.08735
C_ C_ 0.539139 0.176113 0.408265 0.68181
C_ C_ 0.612299 0.130511 0.483178 0.1947
C_ C_ 0.58409 0.110812 0.00671379 -0.08735
C_ C_ 0.606073 0.134081 0.0300262 -0.08735
C_ C_ 0.636393 0.178579 0.0256899 -0.05681
C_ C_ 0.646283 0.195739 0.997526 0.18498
C_ C_ 0.686081 0.244988 0.492693 -0.08735
C_ C_ 0.691762 0.269294 0.0169966 -0.08735
C_ C_ 0.679302 0.256169 0.0442752 -0.08735
C_ C_ 0.654267 0.210086 0.0496461 0.18498
C_ C_ 0.689472 0.180016 0.0946039 0.44287
C_ C_ 0.601452 0.199827 0.0907621 0.44287
C_ C_ 0.595248 0.1889 0.120371 -0.05681
C_ C_ 0.54633 0.191049 0.132817 -0.08735
C_ C_ 0.54174 0.18583 0.162162 -0.08735
C_ C_ 0.58388 0.179552 0.180397 -0.05681
C_ C_ 0.63035 0.176008 0.168315 -0.05681
C_ C_ 0.637406 0.183229 0.138205 -0.05681
C_ C_ 0.68567 0.178156 0.124604 -0.05681
C_ C_ 0.725579 0.166851 0.142249 -0.08735
C_ C_ 0.722207 0.167393 0.172606 -0.08735
C_ C_ 0.672821 0.16648 0.185248 -0.05681
C_ C_ 0.664407 0.153652 0.21446 0.44287
C_ C_ 0.577501 0.175812 0.209645 0.44287
C_ C_ 0.60935 0.15203 0.258154 0.18498
C_ C_ 0.576797 0.11129 0.265336 -0.08735
C_ C_ 0.564482 0.0994752 0.293977 -0.08735
C_ C_ 0.582981 0.131754 0.31595 -0.08735
C_ C_ 0.616642 0.171424 0.309463 0.18498
C_ C_ 0.629386 0.181618 0.280798 -0.05681
C_ C_ 0.663921 0.221046 0.276064 -0.08735
C_ C_ 0.681148 0.252168 0.29759 -0.08735
C_ C_ 0.667783 0.237729 0.3262 0.1947
C_ C_ 0.760441 0.31227 0.163201 0.68181
C_ C_ 0.704507 0.307395 0.158509 -0.05681
C_ C_ 0.670402 0.30316 0.181924 -0.08735
C_ C_ 0.618347 0.306531 0.177258 -0.05681
C_ C_ 0.599307 0.308758 0.148799 -0.05681
C_ C_ 0.632796 0.314467 0.126409 -0.08735
C_ C_ 0.686015 0.311692 0.13043 -0.08735
C_ C_ 0.582216 0.301203 0.198243 -0.08735
C_ C_ 0.529935 0.299428 0.193151 -0.08735
C_ C_ 0.511171 0.305909 0.165166 -0.05681
C_ C_ 0.547278 0.314274 0.143674 -0.08735
C_ C_ 0.86801 0.217309 0.165307 0.68181
C_ C_ 0.860244 0.415959 0.158145 0.68181
C_ C_ 0.869379 0.472209 0.155219 -0.05681
C_ C_ 0.864808 0.00471542 0.173153 -0.08735
C_ C_ 0.870582 0.0576584 0.172048 -0.05681
C_ C_ 0.877832 0.0814258 0.144786 -0.05681
C_ C_ 0.886282 0.050694 0.120477 -0.08735
C_ C_ 0.884441 0.491996 0.129676 -0.08735
C_ C_ 0.861179 0.0859973 0.195209 -0.08735
C_ C_ 0.861076 0.138435 0.193889 -0.08735
C_ C_ 0.869503 0.162714 0.167025 -0.05681
C_ C_ 0.878328 0.133679 0.142049 -0.08735
C_ C_ 0.961833 0.323874 0.159844 0.68181
C_ C_ 0.902198 0.368323 0.239343 0.1947
C_ C_ 0.908619 0.389102 0.266795 -0.08735
C_ C_ 0.890544 0.361169 0.289962 -0.08735
C_ C_ 0.862829 0.317366 0.285789 -0.05681
C_ C_ 0.851577 0.301245 0.258018 0.18498
C_ C_ 0.819562 0.260061 0.252171 -0.08735
C_ C_ 0.801979 0.230057 0.275406 -0.08735
C_ C_ 0.821474 0.237046 0.30297 -0.08735
C_ C_ 0.848364 0.283723 0.308734 0.18498
C_ C_ 0.815895 0.307162 0.3549 0.44287
C_ C_ 0.903516 0.291652 0.350466 0.44287
C_ C_ 0.909539 0.306439 0.379002 -0.05681
C_ C_ 0.957162 0.308324 0.392096 -0.08735
C_ C_ 0.964804 0.315614 0.421719 -0.08735
C_ C_ 0.92249 0.327454 0.438433 -0.05681
C_ C_ 0.87249 0.321617 0.426912 -0.05681
C_ C_ 0.867311 0.311299 0.396336 -0.05681
C_ C_ 0.820564 0.310817 0.384326 -0.05681
C_ C_ 0.775161 0.3183 0.401639 -0.08735
C_ C_ 0.780103 0.329173 0.431424 -0.08735
C_ C_ 0.829687 0.33064 0.445074 -0.05681
C_ C_ 0.838338 0.345231 0.473849 0.44287
C_ C_ 0.927623 0.334403 0.468991 0.44287
C_ C_ 0.899336 0.34352 0.0161665 0.18498
C_ C_ 0.931853 0.385622 0.0238902 -0.08735
C_ C_ 0.943217 0.394732 0.0528687 -0.08735
C_ C_ 0.915819 0.369768 0.0746039 -0.08735
C_ C_ 0.881739 0.330225 0.0689534 0.18498
C_ C_ 0.876258 0.314819 0.0392337 -0.05681
C_ C_ 0.843396 0.274434 0.0333089 -0.08735
C_ C_ 0.820292 0.248343 0.0553073 -0.08735
C_ C_ 0.828297 0.262252 0.0843526 0.1947
N_ N_ 0.639281 0.171406 0.477332 -0.29468
N_ N_ 0.647264 0.191763 0.0787011 -0.17154
N_ N_ 0.616998 0.161994 0.227164 -0.17154
N_ N_ 0.638787 0.199232 0.331905 -0.29468
N_ N_ 0.867947 0.330135 0.235336 -0.29468
N_ N_ 0.856703 0.295365 0.337898 -0.17154
N_ N_ 0.884883 0.341699 0.485445 -0.17154
N_ N_ 0.857468 0.304375 0.0898728 -0.29468
O_ O_ 0.713141 0.193499 0.426787 -0.58347
O_ O_ 0.712606 0.200528 0.380704 -0.58347
O_ O_ 0.624699 0.258089 0.433445 -0.58347
O_ O_ 0.631253 0.264214 0.387233 -0.58347
O_ O_ 0.645034 0.110019 0.421533 -0.58347
O_ O_ 0.63849 0.117814 0.374882 -0.58347
O_ O_ 0.566448 0.170126 0.430259 -0.58347
O_ O_ 0.560791 0.187479 0.384913 -0.58347
O_ O_ 0.560318 0.210149 0.0744859 -0.46727
O_ O_ 0.731241 0.16791 0.0810556 -0.46727
O_ O_ 0.534599 0.191033 0.220107 -0.46727
O_ O_ 0.703174 0.145409 0.232025 -0.46727
O_ O_ 0.780539 0.315634 0.187607 -0.58347
O_ O_ 0.791199 0.301518 0.142734 -0.58347
O_ O_ 0.862513 0.244103 0.187156 -0.58347
O_ O_ 0.872374 0.238251 0.14123 -0.58347
O_ O_ 0.854596 0.396114 0.182857 -0.58347
O_ O_ 0.85939 0.387949 0.136173 -0.58347
O_ O_ 0.932572 0.324973 0.18171 -0.58347
O_ O_ 0.941781 0.317627 0.134723 -0.58347
O_ O_ 0.943444 0.29446 0.334635 -0.46727
O_ O_ 0.774565 0.320862 0.343141 -0.46727
O_ O_ 0.974492 0.338517 0.479375 -0.46727
O_ O_ 0.797752 0.351658 0.490393 -0.46727
Zn Zn 0.624399 0.188495 0.8796 0.90689
Zn Zn 0.626568 0.183224 0.927286 0.90689
Zn Zn 0.864098 0.320015 0.63741 0.90689
Zn Zn 0.856761 0.325143 0.683202 0.90689
H_ H_ 0.795851 0.200462 0.943752 0.11455
H_ H_ 0.868802 0.163694 0.847951 0.11455
H_ H_ 0.777201 0.162833 0.854683 0.11455
H_ H_ 0.886837 0.20156 0.963183 0.11455
H_ H_ 0.977953 0.206757 0.9536 0.11455
H_ H_ 0.954581 0.172897 0.865121 0.11455
H_ H_ 0.632084 0.0191329 0.94429 0.11455
H_ H_ 0.678992 0.440801 0.85088 0.11455
H_ H_ 0.629782 0.0266744 0.849368 0.11455
H_ H_ 0.609279 0.430103 0.961068 0.11455
H_ H_ 0.602106 0.343356 0.954739 0.11455
H_ H_ 0.642398 0.358098 0.867667 0.11455
H_ H_ 0.576052 0.11308 0.96259 0.11455
H_ H_ 0.596495 0.068723 0.51498 0.11455
H_ H_ 0.630057 0.121265 0.554884 0.11455
H_ H_ 0.677754 0.254406 0.972457 0.11455
H_ H_ 0.724193 0.312082 0.509557 0.11455
H_ H_ 0.688276 0.298385 0.557689 0.11455
H_ H_ 0.520456 0.184056 0.620701 0.11455
H_ H_ 0.503635 0.189257 0.6744 0.11455
H_ H_ 0.770788 0.198598 0.635242 0.11455
H_ H_ 0.763528 0.173149 0.686374 0.11455
H_ H_ 0.579657 0.0889691 0.746323 0.11455
H_ H_ 0.559157 0.0577229 0.794518 0.11455
H_ H_ 0.575736 0.120681 0.834439 0.11455
H_ H_ 0.660254 0.247005 0.753124 0.11455
H_ H_ 0.706105 0.287287 0.7973 0.11455
H_ H_ 0.671014 0.272001 0.844744 0.11455
H_ H_ 0.684829 0.304628 0.697676 0.11455
H_ H_ 0.617345 0.330421 0.599712 0.11455
H_ H_ 0.710529 0.338004 0.60869 0.11455
H_ H_ 0.602271 0.312198 0.716341 0.11455
H_ H_ 0.50625 0.301763 0.709048 0.11455
H_ H_ 0.529916 0.344882 0.620067 0.11455
H_ H_ 0.87221 0.49122 0.696982 0.11455
H_ H_ 0.871109 0.0688049 0.603222 0.11455
H_ H_ 0.852235 0.477044 0.605242 0.11455
H_ H_ 0.868656 0.0776876 0.722503 0.11455
H_ H_ 0.89047 0.168736 0.715572 0.11455
H_ H_ 0.867932 0.154521 0.626351 0.11455
H_ H_ 0.915571 0.401091 0.716993 0.11455
H_ H_ 0.930565 0.433154 0.766162 0.11455
H_ H_ 0.884542 0.39116 0.807827 0.11455
H_ H_ 0.809669 0.256696 0.728367 0.11455
H_ H_ 0.794218 0.197727 0.769679 0.11455
H_ H_ 0.81014 0.230709 0.819599 0.11455
H_ H_ 0.987682 0.307595 0.875827 0.11455
H_ H_ -9.3516e-05 0.304755 0.927592 0.11455
H_ H_ 0.740417 0.318556 0.895523 0.11455
H_ H_ 0.749239 0.327624 0.945023 0.11455
H_ H_ 0.955689 0.402836 1.00784949 0.11455
H_ H_ 0.925136 0.45652 0.556097 0.11455
H_ H_ 0.912994 0.394406 0.592901 0.11455
H_ H_ 0.870626 0.253689 0.510214 0.11455
H_ H_ 0.828004 0.204526 0.54719 0.11455
H_ H_ 0.822358 0.243591 0.599232 0.11455
C_ C_ 0.725938 0.196394 0.90257 0.68181
C_ C_ 0.781072 0.190594 0.898125 -0.05681
C_ C_ 0.812655 0.194409 0.92274 -0.08735
C_ C_ 0.868203 0.188908 0.918477 -0.05681
C_ C_ 0.88805 0.181436 0.890757 -0.05681
C_ C_ 0.854105 0.169248 0.868714 -0.08735
C_ C_ 0.801772 0.173944 0.872102 -0.08735
C_ C_ 0.900335 0.198355 0.941652 -0.08735
C_ C_ 0.953028 0.198138 0.936989 -0.08735
C_ C_ 0.972868 0.183799 0.910786 -0.05681
C_ C_ 0.940634 0.180626 0.886393 -0.08735
C_ C_ 0.622185 0.284223 0.908276 0.68181
C_ C_ 0.630517 0.088843 0.899068 0.68181
C_ C_ 0.628161 0.0309707 0.897681 -0.05681
C_ C_ 0.622247 0.500745 0.920312 -0.08735
C_ C_ 0.622681 0.447761 0.91664 -0.05681
C_ C_ 0.639593 0.426972 0.890331 -0.05681
C_ C_ 0.662907 0.459107 0.869731 -0.08735
C_ C_ 0.662028 0.512236 0.872878 -0.08735
C_ C_ 0.614298 0.41569 0.939534 -0.08735
C_ C_ 0.620086 0.364885 0.938102 -0.08735
C_ C_ 0.62705 0.341844 0.911116 -0.05681
C_ C_ 0.639249 0.373844 0.888104 -0.08735
C_ C_ 0.527457 0.177148 0.904197 0.68181
C_ C_ 0.597265 0.12629 0.979061 0.1947
C_ C_ 0.613477 0.109266 0.511052 -0.08735
C_ C_ 0.626197 0.140843 0.533621 -0.08735
C_ C_ 0.648284 0.189274 0.528025 -0.05681
C_ C_ 0.657187 0.201934 0.498995 0.18498
C_ C_ 0.671725 0.240264 0.993902 -0.08735
C_ C_ 0.697017 0.280342 0.51371 -0.08735
C_ C_ 0.68416 0.270377 0.541995 -0.08735
C_ C_ 0.66483 0.223782 0.550442 0.18498
C_ C_ 0.697201 0.202281 0.597487 0.44287
C_ C_ 0.607041 0.209153 0.592479 0.44287
C_ C_ 0.599423 0.204823 0.62239 -0.05681
C_ C_ 0.550042 0.199176 0.63474 -0.08735
C_ C_ 0.542969 0.194507 0.664578 -0.08735
C_ C_ 0.58641 0.186466 0.681527 -0.05681
C_ C_ 0.634277 0.18172 0.66876 -0.05681
C_ C_ 0.642699 0.195948 0.639758 -0.05681
C_ C_ 0.692782 0.19365 0.626859 -0.05681
C_ C_ 0.733194 0.186922 0.643652 -0.08735
C_ C_ 0.7274 0.179843 0.673675 -0.08735
C_ C_ 0.677804 0.177202 0.686162 -0.05681
C_ C_ 0.66968 0.165166 0.715216 0.44287
C_ C_ 0.582301 0.182198 0.711763 0.44287
C_ C_ 0.618154 0.154424 0.757606 0.18498
C_ C_ 0.59285 0.110491 0.763506 -0.08735
C_ C_ 0.581761 0.0948314 0.791482 -0.08735
C_ C_ 0.59362 0.125904 0.814328 -0.08735
C_ C_ 0.621395 0.170962 0.809296 0.18498
C_ C_ 0.635228 0.185769 0.781229 -0.05681
C_ C_ 0.659218 0.230875 0.776562 -0.08735
C_ C_ 0.676105 0.259251 0.79932 -0.08735
C_ C_ 0.658049 0.249708 0.82638 0.1947
C_ C_ 0.761367 0.316948 0.657157 0.68181
C_ C_ 0.70422 0.316516 0.652994 -0.05681
C_ C_ 0.671272 0.30928 0.676538 -0.08735
C_ C_ 0.617671 0.312386 0.671843 -0.05681
C_ C_ 0.598569 0.32243 0.643386 -0.05681
C_ C_ 0.633412 0.325755 0.62035 -0.08735
C_ C_ 0.685365 0.328536 0.626831 -0.08735
C_ C_ 0.584734 0.313402 0.694858 -0.08735
C_ C_ 0.531346 0.308239 0.690622 -0.08735
C_ C_ 0.510995 0.32099 0.664341 -0.05681
C_ C_ 0.545504 0.330958 0.640924 -0.08735
C_ C_ 0.874074 0.22088 0.667451 0.68181
C_ C_ 0.854498 0.42183 0.654462 0.68181
C_ C_ 0.857974 0.478731 0.651439 -0.05681
C_ C_ 0.858619 0.00691353 0.678588 -0.08735
C_ C_ 0.868461 0.0588355 0.676335 -0.05681
C_ C_ 0.868334 0.0812194 0.649226 -0.05681
C_ C_ 0.872639 0.0529382 0.624775 -0.08735
C_ C_ 0.856508 0.500907 0.624806 -0.08735
C_ C_ 0.873379 0.0907314 0.701499 -0.08735
C_ C_ 0.885273 0.14212 0.697733 -0.08735
C_ C_ 0.877309 0.165061 0.670688 -0.05681
C_ C_ 0.87097 0.13513 0.647051 -0.08735
C_ C_ 0.960209 0.332093 0.661198 0.68181
C_ C_ 0.89588 0.382617 0.735758 0.1947
C_ C_ 0.902707 0.401609 0.764018 -0.08735
C_ C_ 0.885132 0.375415 0.786847 -0.08735
C_ C_ 0.864999 0.32684 0.78202 -0.05681
C_ C_ 0.8526 0.31127 0.75421 0.18498
C_ C_ 0.823498 0.267251 0.749747 -0.08735
C_ C_ 0.811516 0.234598 0.77295 -0.08735
C_ C_ 0.826525 0.249359 0.801095 -0.08735
C_ C_ 0.84841 0.296307 0.805494 0.18498
C_ C_ 0.814312 0.32014 0.85336 0.44287
C_ C_ 0.902255 0.310989 0.84734 0.44287
C_ C_ 0.909017 0.318206 0.877054 -0.05681
C_ C_ 0.957481 0.315703 0.889112 -0.08735
C_ C_ 0.966109 0.31907 0.918886 -0.08735
C_ C_ 0.923164 0.326043 0.936949 -0.05681
C_ C_ 0.875127 0.329256 0.925687 -0.05681
C_ C_ 0.86823 0.321084 0.895469 -0.05681
C_ C_ 0.81934 0.324718 0.883271 -0.05681
C_ C_ 0.778192 0.319217 0.902649 -0.08735
C_ C_ 0.784828 0.327986 0.931887 -0.08735
C_ C_ 0.8332 0.336738 0.944181 -0.05681
C_ C_ 0.841714 0.341921 0.974564 0.44287
C_ C_ 0.929747 0.327791 0.967003 0.44287
C_ C_ 0.892708 0.353476 0.514727 0.18498
C_ C_ 0.905844 0.40459 0.521089 -0.08735
C_ C_ 0.909959 0.42076 0.549548 -0.08735
C_ C_ 0.902632 0.385058 0.571483 -0.08735
C_ C_ 0.881515 0.338157 0.565279 0.18498
C_ C_ 0.882311 0.319124 0.537686 -0.05681
C_ C_ 0.867093 0.268633 0.533099 -0.08735
C_ C_ 0.846298 0.239756 0.55445 -0.08735
C_ C_ 0.842968 0.2621 0.582027 0.1947
N_ N_ 0.624141 0.171675 0.975402 -0.29468
N_ N_ 0.655784 0.212459 0.580791 -0.17154
N_ N_ 0.622765 0.167676 0.727654 -0.17154
N_ N_ 0.634619 0.202439 0.831647 -0.29468
N_ N_ 0.868923 0.338635 0.731123 -0.29468
N_ N_ 0.85536 0.312487 0.835639 -0.17154
N_ N_ 0.88952 0.336831 0.985236 -0.17154
N_ N_ 0.86197 0.309739 0.587418 -0.29468
O_ O_ 0.705606 0.188053 0.926365 -0.58347
O_ O_ 0.699656 0.207243 0.881036 -0.58347
O_ O_ 0.634819 0.256172 0.929048 -0.58347
O_ O_ 0.611195 0.262822 0.884036 -0.58347
O_ O_ 0.627345 0.110091 0.923005 -0.58347
O_ O_ 0.640318 0.115324 0.877133 -0.58347
O_ O_ 0.555077 0.180996 0.926183 -0.58347
O_ O_ 0.546635 0.176237 0.879458 -0.58347
O_ O_ 0.569693 0.228479 0.576709 -0.46727
O_ O_ 0.742302 0.200864 0.585806 -0.46727
O_ O_ 0.5371 0.182585 0.723114 -0.46727
O_ O_ 0.708916 0.159294 0.732161 -0.46727
O_ O_ 0.780136 0.317916 0.681692 -0.58347
O_ O_ 0.789157 0.305655 0.636912 -0.58347
O_ O_ 0.866544 0.248357 0.689376 -0.58347
O_ O_ 0.872973 0.242161 0.643299 -0.58347
O_ O_ 0.850251 0.401516 0.678794 -0.58347
O_ O_ 0.852495 0.393384 0.632066 -0.58347
O_ O_ 0.932392 0.333284 0.682934 -0.58347
O_ O_ 0.940549 0.324572 0.637731 -0.58347
O_ O_ 0.943173 0.308851 0.830467 -0.46727
O_ O_ 0.768329 0.322539 0.840242 -0.46727
O_ O_ 0.97397 0.311231 0.977745 -0.46727
O_ O_ 0.805085 0.35402 0.991615 -0.46727
Zn Zn 0.63369 0.690741 0.383626 0.90689
Zn Zn 0.643507 0.684309 0.431422 0.90689
Zn Zn 0.877318 0.814866 0.135065 0.90689
Zn Zn 0.872041 0.825176 0.182678 0.90689
H_ H_ 0.810593 0.699415 0.448411 0.11455
H_ H_ 0.88257 0.669547 0.351861 0.11455
H_ H_ 0.789526 0.670331 0.359789 0.11455
H_ H_ 0.899299 0.699751 0.466987 0.11455
H_ H_ 0.990511 0.705849 0.458462 0.11455
H_ H_ 0.966784 0.671701 0.36878 0.11455
H_ H_ 0.671751 0.519043 0.440519 0.11455
H_ H_ 0.680637 0.936101 0.352052 0.11455
H_ H_ 0.610549 0.536551 0.35578 0.11455
H_ H_ 0.55838 0.935107 0.446815 0.11455
H_ H_ 0.576239 0.842696 0.44985 0.11455
H_ H_ 0.665475 0.854505 0.37328 0.11455
H_ H_ 0.576428 0.619506 0.46812 0.11455
H_ H_ 0.553492 0.587778 0.0135724 0.11455
H_ H_ 0.603144 0.617241 0.0538403 0.11455
H_ H_ 0.704934 0.746407 0.47366 0.11455
H_ H_ 0.726648 0.787497 0.0147127 0.11455
H_ H_ 0.710842 0.768136 0.0641461 0.11455
H_ H_ 0.519155 0.679079 0.121146 0.11455
H_ H_ 0.509712 0.669736 0.173128 0.11455
H_ H_ 0.76911 0.651046 0.138132 0.11455
H_ H_ 0.760333 0.645797 0.188279 0.11455
H_ H_ 0.59017 0.571646 0.25424 0.11455
H_ H_ 0.563655 0.554368 0.302574 0.11455
H_ H_ 0.573942 0.6217 0.33836 0.11455
H_ H_ 0.680447 0.733133 0.25694 0.11455
H_ H_ 0.701841 0.785753 0.299484 0.11455
H_ H_ 0.683913 0.756965 0.348244 0.11455
H_ H_ 0.703117 0.808359 0.193288 0.11455
H_ H_ 0.634852 0.827019 0.0955218 0.11455
H_ H_ 0.72665 0.831581 0.104228 0.11455
H_ H_ 0.620268 0.770661 0.209788 0.11455
H_ H_ 0.527202 0.787959 0.203297 0.11455
H_ H_ 0.547528 0.810809 0.115847 0.11455
H_ H_ 0.863581 0.986737 0.1945 0.11455
H_ H_ 0.905014 0.557698 0.105332 0.11455
H_ H_ 0.88288 0.973074 0.104112 0.11455
H_ H_ 0.860733 0.572743 0.220132 0.11455
H_ H_ 0.863326 0.666083 0.213489 0.11455
H_ H_ 0.917217 0.646546 0.127769 0.11455
H_ H_ 0.904894 0.903978 0.216284 0.11455
H_ H_ 0.920604 0.939092 0.265847 0.11455
H_ H_ 0.88555 0.889749 0.309536 0.11455
H_ H_ 0.812188 0.754196 0.22353 0.11455
H_ H_ 0.794317 0.696674 0.264479 0.11455
H_ H_ 0.801027 0.728229 0.314141 0.11455
H_ H_ 0.988537 0.808408 0.368671 0.11455
H_ H_ 0.00714774 0.822246 0.420421 0.11455
H_ H_ 0.741925 0.817699 0.392534 0.11455
H_ H_ 0.749665 0.836654 0.442282 0.11455
H_ H_ 0.932004 0.9265 0.499278 0.11455
H_ H_ 0.971418 0.938054 0.0504872 0.11455
H_ H_ 0.939873 0.884058 0.0919383 0.11455
H_ H_ 0.852707 0.761023 0.00921584 0.11455
H_ H_ 0.827595 0.708368 0.0473657 0.11455
H_ H_ 0.827176 0.743338 0.097836 0.11455
C_ C_ 0.735707 0.689559 0.407566 0.68181
C_ C_ 0.792361 0.683436 0.403726 -0.05681
C_ C_ 0.827235 0.689811 0.426913 -0.08735
C_ C_ 0.880001 0.689624 0.422934 -0.05681
C_ C_ 0.898178 0.674642 0.395344 -0.05681
C_ C_ 0.867746 0.673669 0.371632 -0.08735
C_ C_ 0.814276 0.676423 0.376426 -0.08735
C_ C_ 0.913595 0.696375 0.445404 -0.08735
C_ C_ 0.966539 0.697732 0.440994 -0.08735
C_ C_ 0.985687 0.683693 0.413975 -0.05681
C_ C_ 0.951051 0.674062 0.391034 -0.08735
C_ C_ 0.630436 0.786519 0.411935 0.68181
C_ C_ 0.641933 0.5901 0.402709 0.68181
C_ C_ 0.638635 0.533755 0.398955 -0.05681
C_ C_ 0.61536 1.00245839 0.415765 -0.08735
C_ C_ 0.613287 0.949633 0.41265 -0.05681
C_ C_ 0.63526 0.925098 0.389509 -0.05681
C_ C_ 0.654703 0.954393 0.367031 -0.08735
C_ C_ 0.657197 1.00745554 0.369213 -0.08735
C_ C_ 0.586324 0.918599 0.432979 -0.08735
C_ C_ 0.597228 0.866769 0.435407 -0.08735
C_ C_ 0.626734 0.843769 0.413375 -0.05681
C_ C_ 0.644252 0.872267 0.390759 -0.08735
C_ C_ 0.537127 0.675325 0.40949 0.68181
C_ C_ 0.602989 0.633144 0.484593 0.1947
C_ C_ 0.58193 0.617599 0.0105064 -0.08735
C_ C_ 0.612013 0.632234 0.0328909 -0.08735
C_ C_ 0.647636 0.670738 0.029344 -0.05681
C_ C_ 0.657548 0.687574 1.000193965 0.18498
C_ C_ 0.694332 0.741022 0.495006 -0.08735
C_ C_ 0.708151 0.754413 0.0179623 -0.08735
C_ C_ 0.696645 0.742694 0.046637 -0.08735
C_ C_ 0.667097 0.701104 0.052729 0.18498
C_ C_ 0.695461 0.670328 0.0997263 0.44287
C_ C_ 0.608927 0.692522 0.0953416 0.44287
C_ C_ 0.602292 0.678883 0.124164 -0.05681
C_ C_ 0.551986 0.680871 0.136421 -0.08735
C_ C_ 0.547276 0.672567 0.165756 -0.08735
C_ C_ 0.588896 0.666812 0.183914 -0.05681
C_ C_ 0.637752 0.661021 0.171293 -0.05681
C_ C_ 0.642661 0.667064 0.141666 -0.05681
C_ C_ 0.690978 0.663876 0.129397 -0.05681
C_ C_ 0.733162 0.656005 0.146865 -0.08735
C_ C_ 0.726478 0.647886 0.175646 -0.08735
C_ C_ 0.6787 0.651397 0.188284 -0.05681
C_ C_ 0.672855 0.648219 0.218682 0.44287
C_ C_ 0.584593 0.66277 0.214479 0.44287
C_ C_ 0.621585 0.645336 0.261541 0.18498
C_ C_ 0.594806 0.6009 0.269246 -0.08735
C_ C_ 0.578335 0.591086 0.297082 -0.08735
C_ C_ 0.589362 0.626113 0.317868 -0.08735
C_ C_ 0.62031 0.667523 0.312136 0.18498
C_ C_ 0.637756 0.678906 0.283344 -0.05681
C_ C_ 0.662924 0.724707 0.278563 -0.08735
C_ C_ 0.68105 0.752029 0.301442 -0.08735
C_ C_ 0.670866 0.734143 0.329701 0.1947
C_ C_ 0.777255 0.815267 0.153242 0.68181
C_ C_ 0.721498 0.815639 0.148355 -0.05681
C_ C_ 0.688717 0.803664 0.1713 -0.08735
C_ C_ 0.637199 0.800035 0.167485 -0.05681
C_ C_ 0.616234 0.809192 0.139863 -0.05681
C_ C_ 0.649961 0.818569 0.117277 -0.08735
C_ C_ 0.702974 0.819527 0.120709 -0.08735
C_ C_ 0.604151 0.786972 0.190392 -0.08735
C_ C_ 0.551824 0.788586 0.185624 -0.08735
C_ C_ 0.530376 0.80198 0.160337 -0.05681
C_ C_ 0.563036 0.810802 0.13687 -0.08735
C_ C_ 0.886196 0.720449 0.164566 0.68181
C_ C_ 0.866493 0.917891 0.152759 0.68181
C_ C_ 0.873067 0.974124 0.149162 -0.05681
C_ C_ 0.868991 0.503532 0.180214 -0.08735
C_ C_ 0.871399 0.555687 0.176173 -0.05681
C_ C_ 0.886825 0.576364 0.149262 -0.05681
C_ C_ 0.894206 0.543946 0.127125 -0.08735
C_ C_ 0.885206 0.996999 0.123072 -0.08735
C_ C_ 0.864953 0.588474 0.198762 -0.08735
C_ C_ 0.871193 0.641451 0.195195 -0.08735
C_ C_ 0.880641 0.662253 0.167554 -0.05681
C_ C_ 0.901004 0.628993 0.147032 -0.08735
C_ C_ 0.97324 0.833213 0.163938 0.68181
C_ C_ 0.893829 0.884053 0.235473 0.1947
C_ C_ 0.900059 0.904418 0.262634 -0.08735
C_ C_ 0.884741 0.874464 0.286832 -0.08735
C_ C_ 0.858787 0.828187 0.281421 -0.05681
C_ C_ 0.845865 0.814019 0.252978 0.18498
C_ C_ 0.820601 0.76638 0.246122 -0.08735
C_ C_ 0.809275 0.735019 0.268974 -0.08735
C_ C_ 0.815356 0.750711 0.297053 -0.08735
C_ C_ 0.840083 0.795472 0.304419 0.18498
C_ C_ 0.810412 0.818955 0.351996 0.44287
C_ C_ 0.896234 0.803078 0.344412 0.44287
C_ C_ 0.907073 0.815896 0.373221 -0.05681
C_ C_ 0.9578 0.818162 0.382817 -0.08735
C_ C_ 0.968337 0.826251 0.412643 -0.08735
C_ C_ 0.926831 0.82651 0.432734 -0.05681
C_ C_ 0.876907 0.827126 0.421735 -0.05681
C_ C_ 0.867912 0.827017 0.391962 -0.05681
C_ C_ 0.819167 0.826238 0.381009 -0.05681
C_ C_ 0.777374 0.829184 0.400841 -0.08735
C_ C_ 0.784268 0.829946 0.430594 -0.08735
C_ C_ 0.836446 0.834689 0.441198 -0.05681
C_ C_ 0.845943 0.838512 0.470056 0.44287
C_ C_ 0.934187 0.832119 0.462015 0.44287
C_ C_ 0.89859 0.852984 0.012503 0.18498
C_ C_ 0.926367 0.899312 0.0186269 -0.08735
C_ C_ 0.941688 0.909784 0.0471385 -0.08735
C_ C_ 0.925271 0.878369 0.0705695 -0.08735
C_ C_ 0.898006 0.833604 0.0648049 0.18498
C_ C_ 0.883481 0.821038 0.0357417 -0.05681
C_ C_ 0.859979 0.772792 0.0306782 -0.08735
C_ C_ 0.843695 0.744787 0.0536088 -0.08735
C_ C_ 0.846412 0.765185 0.080863 0.1947
N_ N_ 0.633277 0.67503 0.479807 -0.29468
N_ N_ 0.656968 0.686147 0.082655 -0.17154
N_ N_ 0.627731 0.656022 0.231603 -0.17154
N_ N_ 0.638177 0.695309 0.33477 -0.29468
N_ N_ 0.864063 0.84251 0.230722 -0.29468
N_ N_ 0.848846 0.80683 0.334607 -0.17154
N_ N_ 0.894356 0.83829 0.480484 -0.17154
N_ N_ 0.876331 0.804729 0.0873838 -0.29468
O_ O_ 0.716864 0.687253 0.431517 -0.58347
O_ O_ 0.706872 0.690784 0.385558 -0.58347
O_ O_ 0.636089 0.760689 0.434456 -0.58347
O_ O_ 0.632264 0.764808 0.387798 -0.58347
O_ O_ 0.642983 0.608299 0.4275 -0.58347
O_ O_ 0.63374 0.617627 0.381022 -0.58347
O_ O_ 0.567454 0.678356 0.430601 -0.58347
O_ O_ 0.552589 0.686472 0.383997 -0.58347
O_ O_ 0.570895 0.709918 0.0802514 -0.46727
O_ O_ 0.743641 0.667729 0.0889677 -0.46727
O_ O_ 0.53947 0.661863 0.225832 -0.46727
O_ O_ 0.712239 0.637453 0.235095 -0.46727
O_ O_ 0.795824 0.812414 0.17849 -0.58347
O_ O_ 0.804644 0.817163 0.131176 -0.58347
O_ O_ 0.883593 0.747642 0.186181 -0.58347
O_ O_ 0.879595 0.739752 0.139602 -0.58347
O_ O_ 0.852156 0.898547 0.175738 -0.58347
O_ O_ 0.882021 0.888949 0.132812 -0.58347
O_ O_ 0.948231 0.838563 0.185737 -0.58347
O_ O_ 0.952809 0.817848 0.141317 -0.58347
O_ O_ 0.932597 0.789823 0.326941 -0.46727
O_ O_ 0.767222 0.82983 0.341162 -0.46727
O_ O_ 0.980545 0.834349 0.474272 -0.46727
O_ O_ 0.809898 0.849343 0.487361 -0.46727
Zn Zn 0.629163 0.687376 0.882081 0.90689
Zn Zn 0.637195 0.685337 0.929717 0.90689
Zn Zn 0.872881 0.823461 0.632579 0.90689
Zn Zn 0.860792 0.826375 0.682462 0.90689
H_ H_ 0.806637 0.70791 0.94571 0.11455
H_ H_ 0.876258 0.667999 0.851445 0.11455
H_ H_ 0.784471 0.673407 0.856249 0.11455
H_ H_ 0.891486 0.714512 0.964053 0.11455
H_ H_ 0.985354 0.717063 0.954636 0.11455
H_ H_ 0.960131 0.664329 0.869199 0.11455
H_ H_ 0.611487 0.517538 0.940671 0.11455
H_ H_ 0.641172 0.939115 0.847137 0.11455
H_ H_ 0.679227 0.533694 0.856399 0.11455
H_ H_ 0.624095 0.929559 0.967503 0.11455
H_ H_ 0.627848 0.839081 0.960429 0.11455
H_ H_ 0.61708 0.85147 0.86935 0.11455
H_ H_ 0.56842 0.623737 0.965949 0.11455
H_ H_ 0.582399 0.577843 0.517195 0.11455
H_ H_ 0.622648 0.621747 0.555707 0.11455
H_ H_ 0.705416 0.737139 0.974101 0.11455
H_ H_ 0.740373 0.800688 0.511821 0.11455
H_ H_ 0.721732 0.778617 0.562325 0.11455
H_ H_ 0.522338 0.697632 0.619556 0.11455
H_ H_ 0.507203 0.689424 0.67122 0.11455
H_ H_ 0.771543 0.660736 0.638385 0.11455
H_ H_ 0.761666 0.65299 0.691231 0.11455
H_ H_ 0.586867 0.574924 0.749709 0.11455
H_ H_ 0.577101 0.546793 0.798239 0.11455
H_ H_ 0.596179 0.605831 0.836512 0.11455
H_ H_ 0.649324 0.748474 0.7577 0.11455
H_ H_ 0.675212 0.80181 0.798566 0.11455
H_ H_ 0.680435 0.763363 0.846004 0.11455
H_ H_ 0.690764 0.819373 0.696141 0.11455
H_ H_ 0.62972 0.812305 0.596524 0.11455
H_ H_ 0.718903 0.835232 0.606535 0.11455
H_ H_ 0.604286 0.811083 0.713279 0.11455
H_ H_ 0.511829 0.801482 0.704103 0.11455
H_ H_ 0.538312 0.835101 0.616723 0.11455
H_ H_ 0.856731 0.990518 0.699516 0.11455
H_ H_ 0.859005 0.57401 0.602014 0.11455
H_ H_ 0.841702 0.982921 0.609846 0.11455
H_ H_ 0.874694 0.57721 0.718474 0.11455
H_ H_ 0.886889 0.672313 0.712892 0.11455
H_ H_ 0.863747 0.652588 0.620688 0.11455
H_ H_ 0.905117 0.901499 0.72097 0.11455
H_ H_ 0.925575 0.922394 0.769384 0.11455
H_ H_ 0.880577 0.882368 0.809389 0.11455
H_ H_ 0.799736 0.756832 0.723179 0.11455
H_ H_ 0.780441 0.694757 0.763572 0.11455
H_ H_ 0.788313 0.717718 0.813506 0.11455
H_ H_ 0.984184 0.810617 0.869826 0.11455
H_ H_ 0.999569 0.827696 0.920442 0.11455
H_ H_ 0.73121 0.828689 0.897616 0.11455
H_ H_ 0.751547 0.830006 0.946819 0.11455
H_ H_ 0.947924 0.918673 1.00133382 0.11455
H_ H_ 0.945765 0.953669 0.55027 0.11455
H_ H_ 0.924652 0.89677 0.588064 0.11455
H_ H_ 0.86678 0.754861 0.509682 0.11455
H_ H_ 0.817201 0.713463 0.548396 0.11455
H_ H_ 0.823058 0.751165 0.597544 0.11455
C_ C_ 0.732306 0.693423 0.906607 0.68181
C_ C_ 0.787653 0.687266 0.902173 -0.05681
C_ C_ 0.821039 0.691066 0.925427 -0.08735
C_ C_ 0.874108 0.689444 0.92139 -0.05681
C_ C_ 0.894015 0.678382 0.894554 -0.05681
C_ C_ 0.860653 0.674483 0.872101 -0.08735
C_ C_ 0.807704 0.67644 0.874805 -0.08735
C_ C_ 0.907343 0.7034 0.943747 -0.08735
C_ C_ 0.95812 0.706099 0.939215 -0.08735
C_ C_ 0.977662 0.692794 0.912416 -0.05681
C_ C_ 0.946959 0.676124 0.890095 -0.08735
C_ C_ 0.619989 0.7821 0.913763 0.68181
C_ C_ 0.642335 0.589252 0.901974 0.68181
C_ C_ 0.641705 0.533192 0.897948 -0.05681
C_ C_ 0.631794 0.00120978 0.923372 -0.08735
C_ C_ 0.627807 0.946295 0.921333 -0.05681
C_ C_ 0.626791 0.92325 0.893177 -0.05681
C_ C_ 0.628602 0.95398 0.867572 -0.08735
C_ C_ 0.625006 0.00603369 0.870052 -0.08735
C_ C_ 0.620005 0.914781 0.945601 -0.08735
C_ C_ 0.62035 0.862718 0.942416 -0.08735
C_ C_ 0.617628 0.838596 0.915963 -0.05681
C_ C_ 0.618355 0.868257 0.891046 -0.08735
C_ C_ 0.531997 0.674906 0.907321 0.68181
C_ C_ 0.592502 0.634613 0.98279 0.1947
C_ C_ 0.604348 0.611119 0.511942 -0.08735
C_ C_ 0.626617 0.638453 0.534328 -0.08735
C_ C_ 0.653892 0.683381 0.529776 -0.05681
C_ C_ 0.66046 0.70069 0.501019 0.18498
C_ C_ 0.688767 0.728609 0.995276 -0.08735
C_ C_ 0.718359 0.767435 0.516895 -0.08735
C_ C_ 0.706122 0.754156 0.545113 -0.08735
C_ C_ 0.673304 0.714551 0.551969 0.18498
C_ C_ 0.702444 0.686825 0.600364 0.44287
C_ C_ 0.616361 0.703656 0.593927 0.44287
C_ C_ 0.605832 0.690994 0.622442 -0.05681
C_ C_ 0.554817 0.69034 0.633541 -0.08735
C_ C_ 0.546574 0.685517 0.663044 -0.08735
C_ C_ 0.588418 0.675909 0.682464 -0.05681
C_ C_ 0.637999 0.676192 0.670667 -0.05681
C_ C_ 0.645135 0.679823 0.640993 -0.05681
C_ C_ 0.694697 0.679596 0.630396 -0.05681
C_ C_ 0.735923 0.670246 0.647487 -0.08735
C_ C_ 0.729182 0.662898 0.677654 -0.08735
C_ C_ 0.680093 0.668003 0.689012 -0.05681
C_ C_ 0.672172 0.663785 0.719421 0.44287
C_ C_ 0.581756 0.669065 0.711609 0.44287
C_ C_ 0.617369 0.64939 0.759266 0.18498
C_ C_ 0.596223 0.601841 0.766156 -0.08735
C_ C_ 0.591362 0.58548 0.793918 -0.08735
C_ C_ 0.602111 0.620024 0.816623 -0.08735
C_ C_ 0.626196 0.666058 0.811635 0.18498
C_ C_ 0.633375 0.681678 0.782537 -0.05681
C_ C_ 0.645751 0.733752 0.778199 -0.08735
C_ C_ 0.661211 0.762994 0.801398 -0.08735
C_ C_ 0.663677 0.741563 0.828305 0.1947
C_ C_ 0.768013 0.826385 0.656196 0.68181
C_ C_ 0.711895 0.822239 0.65137 -0.05681
C_ C_ 0.678572 0.821328 0.674414 -0.08735
C_ C_ 0.626513 0.81479 0.66977 -0.05681
C_ C_ 0.608388 0.81719 0.640698 -0.05681
C_ C_ 0.64267 0.81921 0.617481 -0.08735
C_ C_ 0.694081 0.822566 0.623208 -0.08735
C_ C_ 0.588936 0.813648 0.692402 -0.08735
C_ C_ 0.538035 0.805753 0.686764 -0.08735
C_ C_ 0.52146 0.806116 0.658454 -0.05681
C_ C_ 0.555837 0.819433 0.636291 -0.08735
C_ C_ 0.876194 0.725794 0.663114 0.68181
C_ C_ 0.855084 0.921443 0.653201 0.68181
C_ C_ 0.859511 0.977714 0.652473 -0.05681
C_ C_ 0.862687 0.508355 0.676136 -0.08735
C_ C_ 0.86846 0.560949 0.673999 -0.05681
C_ C_ 0.869437 0.583844 0.647487 -0.05681
C_ C_ 0.865159 0.554733 0.622565 -0.08735
C_ C_ 0.861998 1.00181252 0.62719 -0.08735
C_ C_ 0.87369 0.594158 0.697585 -0.08735
C_ C_ 0.88226 0.648472 0.694072 -0.08735
C_ C_ 0.877158 0.669734 0.666969 -0.05681
C_ C_ 0.873196 0.636738 0.642895 -0.08735
C_ C_ 0.964775 0.836256 0.659302 0.68181
C_ C_ 0.885034 0.881167 0.737377 0.1947
C_ C_ 0.894753 0.895874 0.764931 -0.08735
C_ C_ 0.878109 0.865925 0.788237 -0.08735
C_ C_ 0.846845 0.823125 0.78211 -0.05681
C_ C_ 0.83604 0.809077 0.752603 0.18498
C_ C_ 0.80811 0.765168 0.745818 -0.08735
C_ C_ 0.792061 0.73269 0.76781 -0.08735
C_ C_ 0.802573 0.745457 0.79705 -0.08735
C_ C_ 0.830503 0.789881 0.804167 0.18498
C_ C_ 0.802509 0.804152 0.854011 0.44287
C_ C_ 0.889112 0.793472 0.845399 0.44287
C_ C_ 0.899978 0.806074 0.874755 -0.05681
C_ C_ 0.950644 0.81144 0.885269 -0.08735
C_ C_ 0.960652 0.820826 0.914707 -0.08735
C_ C_ 0.91977 0.826872 0.934554 -0.05681
C_ C_ 0.870609 0.824885 0.923557 -0.05681
C_ C_ 0.860453 0.813023 0.893727 -0.05681
C_ C_ 0.811233 0.814837 0.883564 -0.05681
C_ C_ 0.771622 0.823299 0.904417 -0.08735
C_ C_ 0.783202 0.827043 0.932855 -0.08735
C_ C_ 0.831686 0.824358 0.943123 -0.05681
C_ C_ 0.840384 0.840335 0.972085 0.44287
C_ C_ 0.928311 0.828969 0.965946 0.44287
C_ C_ 0.904327 0.851537 0.509741 0.18498
C_ C_ 0.925274 0.899639 0.516167 -0.08735
C_ C_ 0.932659 0.915613 0.545545 -0.08735
C_ C_ 0.919305 0.883209 0.567466 -0.08735
C_ C_ 0.893616 0.838393 0.562888 0.18498
C_ C_ 0.887388 0.820666 0.533836 -0.05681
C_ C_ 0.864844 0.773148 0.529866 -0.08735
C_ C_ 0.838066 0.74863 0.552361 -0.08735
C_ C_ 0.846226 0.767206 0.580533 0.1947
N_ N_ 0.629828 0.669425 0.977239 -0.29468
N_ N_ 0.663085 0.701476 0.582845 -0.17154
N_ N_ 0.62256 0.661603 0.729522 -0.17154
N_ N_ 0.63785 0.697839 0.833656 -0.29468
N_ N_ 0.856233 0.837965 0.731142 -0.29468
N_ N_ 0.840353 0.798431 0.834691 -0.17154
N_ N_ 0.888004 0.841194 0.983126 -0.17154
N_ N_ 0.873864 0.810151 0.585322 -0.29468
O_ O_ 0.713513 0.684421 0.93145 -0.58347
O_ O_ 0.703187 0.702014 0.886382 -0.58347
O_ O_ 0.643152 0.758205 0.934025 -0.58347
O_ O_ 0.608747 0.75943 0.890768 -0.58347
O_ O_ 0.628162 0.609219 0.924668 -0.58347
O_ O_ 0.649065 0.616814 0.880156 -0.58347
O_ O_ 0.561792 0.688117 0.927747 -0.58347
O_ O_ 0.551495 0.666482 0.883565 -0.58347
O_ O_ 0.576728 0.717778 0.578141 -0.46727
O_ O_ 0.74716 0.678151 0.588067 -0.46727
O_ O_ 0.537822 0.662319 0.721801 -0.46727
O_ O_ 0.710377 0.655669 0.736184 -0.46727
O_ O_ 0.785057 0.828889 0.681768 -0.58347
O_ O_ 0.797433 0.814607 0.635721 -0.58347
O_ O_ 0.859152 0.752239 0.683127 -0.58347
O_ O_ 0.888816 0.748263 0.6399 -0.58347
O_ O_ 0.863242 0.900736 0.677192 -0.58347
O_ O_ 0.857172 0.895623 0.630243 -0.58347
O_ O_ 0.937923 0.824239 0.680243 -0.58347
O_ O_ 0.946202 0.838623 0.634757 -0.58347
O_ O_ 0.927239 0.786415 0.827103 -0.46727
O_ O_ 0.755716 0.81554 0.844204 -0.46727
O_ O_ 0.974372 0.831748 0.976362 -0.46727
O_ O_ 0.8021 0.855801 0.98686 -0.46727
_cell_length_a 26.376
_cell_length_b 26.400000238300095
_cell_length_c 46.67800035477134
_cell_angle_alpha 90.00700052986613
_cell_angle_beta 89.99899961309502
_cell_angle_gamma 90.45000003183146
_symmetry_space_group_name_H-M         'P 1'
_symmetry_Int_Tables_number            1
loop_
_symmetry_equiv_pos_as_xyz
   'x, y, z'
                         
loop_
_atom_site_label
_atom_site_type_symbol
_atom_site_fract_x 
_atom_site_fract_y
_atom_site_fract_z
_atom_site_charge
Zn Zn 0.129109 0.181785 0.379847 0.90689
Zn Zn 0.140468 0.173445 0.427996 0.90689
Zn Zn 0.365164 0.304569 0.131388 0.90689
Zn Zn 0.353775 0.313814 0.179102 0.90689
H_ H_ 0.305493 0.186382 0.441512 0.11455
H_ H_ 0.380725 0.156215 0.347623 0.11455
H_ H_ 0.288127 0.14549 0.354768 0.11455
H_ H_ 0.392825 0.193121 0.46263 0.11455
H_ H_ 0.485171 0.196665 0.45681 0.11455
H_ H_ 0.468438 0.173415 0.366431 0.11455
H_ H_ 0.111365 0.00470763 0.44004 0.11455
H_ H_ 0.113869 0.431312 0.345349 0.11455
H_ H_ 0.138519 0.0238347 0.349185 0.11455
H_ H_ 0.149427 0.423345 0.460521 0.11455
H_ H_ 0.127243 0.336665 0.458171 0.11455
H_ H_ 0.120016 0.344187 0.364712 0.11455
H_ H_ 0.0910384 0.105524 0.46482 0.11455
H_ H_ 0.0752675 0.0711551 0.00748348 0.11455
H_ H_ 0.116143 0.114936 0.0505656 0.11455
H_ H_ 0.189912 0.25484 0.472823 0.11455
H_ H_ 0.20522 0.309995 0.011274 0.11455
H_ H_ 0.165738 0.29713 0.0586092 0.11455
H_ H_ -0.005221000000000031 0.183454 0.115906 0.11455
H_ H_ -0.01707700000000001 0.193184 0.170345 0.11455
H_ H_ 0.249445 0.185906 0.136944 0.11455
H_ H_ 0.236358 0.16991 0.187669 0.11455
H_ H_ 0.0350436 0.0940905 0.247829 0.11455
H_ H_ 0.0260375 0.0641773 0.29782 0.11455
H_ H_ 0.0630135 0.119671 0.336891 0.11455
H_ H_ 0.138922 0.248137 0.252578 0.11455
H_ H_ 0.188631 0.286769 0.291291 0.11455
H_ H_ 0.178418 0.255594 0.341212 0.11455
H_ H_ 0.191072 0.299519 0.196167 0.11455
H_ H_ 0.115905 0.331162 0.101604 0.11455
H_ H_ 0.207185 0.319736 0.104251 0.11455
H_ H_ 0.10522 0.304139 0.219754 0.11455
H_ H_ 0.0111309 0.311061 0.21039 0.11455
H_ H_ 0.0337783 0.32641 0.11999 0.11455
H_ H_ 0.380383 0.473165 0.187597 0.11455
H_ H_ 0.394273 0.0568237 0.0966839 0.11455
H_ H_ 0.364796 0.464841 0.0962147 0.11455
H_ H_ 0.335019 0.0566723 0.209203 0.11455
H_ H_ 0.317195 0.144973 0.201689 0.11455
H_ H_ 0.37209 0.137141 0.116152 0.11455
H_ H_ 0.403113 0.390426 0.214694 0.11455
H_ H_ 0.43008 0.40849 0.263514 0.11455
H_ H_ 0.391134 0.363173 0.303215 0.11455
H_ H_ 0.29308 0.248243 0.219812 0.11455
H_ H_ 0.258218 0.196363 0.260905 0.11455
H_ H_ 0.284278 0.218702 0.309854 0.11455
H_ H_ 0.477184 0.281357 0.36979 0.11455
H_ H_ 0.489282 0.291097 0.424479 0.11455
H_ H_ 0.226348 0.325205 0.389263 0.11455
H_ H_ 0.242163 0.331107 0.441222 0.11455
H_ H_ 0.436778 0.401418 0.497983 0.11455
H_ H_ 0.469544 0.407697 0.0557643 0.11455
H_ H_ 0.442841 0.347693 0.0907485 0.11455
H_ H_ 0.332961 0.247395 0.00730649 0.11455
H_ H_ 0.294296 0.20368 0.046806 0.11455
H_ H_ 0.309101 0.230817 0.0956897 0.11455
C_ C_ 0.234227 0.175215 0.402404 0.68181
C_ C_ 0.292304 0.167235 0.398093 -0.05681
C_ C_ 0.323765 0.175617 0.421825 -0.08735
C_ C_ 0.377211 0.175478 0.418706 -0.05681
C_ C_ 0.399721 0.168551 0.390663 -0.05681
C_ C_ 0.367141 0.156345 0.369333 -0.08735
C_ C_ 0.313946 0.154217 0.372897 -0.08735
C_ C_ 0.408559 0.186518 0.441377 -0.08735
C_ C_ 0.461255 0.185596 0.4377 -0.08735
C_ C_ 0.483316 0.179747 0.410748 -0.05681
C_ C_ 0.451305 0.173713 0.386817 -0.08735
C_ C_ 0.128631 0.275511 0.40957 0.68181
C_ C_ 0.13616 0.0793013 0.398238 0.68181
C_ C_ 0.133341 0.023342 0.395879 -0.05681
C_ C_ 0.150742 0.489704 0.41862 -0.08735
C_ C_ 0.142694 0.436389 0.416006 -0.05681
C_ C_ 0.132426 0.412929 0.388771 -0.05681
C_ C_ 0.128569 0.445058 0.365409 -0.08735
C_ C_ 0.136721 0.49773 0.36818 -0.08735
C_ C_ 0.141723 0.407191 0.439926 -0.08735
C_ C_ 0.131459 0.354383 0.438675 -0.08735
C_ C_ 0.126035 0.330928 0.410923 -0.05681
C_ C_ 0.127222 0.361448 0.38558 -0.08735
C_ C_ 0.0391817 0.178182 0.408064 0.68181
C_ C_ 0.108142 0.126654 0.482714 0.1947
C_ C_ 0.0953946 0.108048 0.00624859 -0.08735
C_ C_ 0.110742 0.13744 0.030132 -0.08735
C_ C_ 0.132599 0.184268 0.026396 -0.05681
C_ C_ 0.139419 0.201691 0.998274 0.18498
C_ C_ 0.173687 0.247048 0.493841 -0.08735
C_ C_ 0.179783 0.277888 0.0159033 -0.08735
C_ C_ 0.160938 0.268452 0.0431636 -0.08735
C_ C_ 0.138164 0.220753 0.0496785 0.18498
C_ C_ 0.17392 0.19866 0.0954509 0.44287
C_ C_ 0.0843719 0.20121 0.0901395 0.44287
C_ C_ 0.0758483 0.185763 0.118505 -0.05681
C_ C_ 0.0263741 0.183205 0.130383 -0.08735
C_ C_ 0.0205889 0.186253 0.160335 -0.08735
C_ C_ 0.0642021 0.178432 0.179596 -0.05681
C_ C_ 0.112044 0.176016 0.167224 -0.05681
C_ C_ 0.119237 0.179024 0.136426 -0.05681
C_ C_ 0.168548 0.180134 0.12497 -0.05681
C_ C_ 0.211628 0.178459 0.144254 -0.08735
C_ C_ 0.20364 0.173984 0.173777 -0.08735
C_ C_ 0.155354 0.175387 0.185442 -0.05681
C_ C_ 0.146813 0.164893 0.214661 0.44287
C_ C_ 0.0594347 0.179398 0.209393 0.44287
C_ C_ 0.0883176 0.155601 0.25738 0.18498
C_ C_ 0.0544871 0.114688 0.26536 -0.08735
C_ C_ 0.0504896 0.0981203 0.293372 -0.08735
C_ C_ 0.0718953 0.129044 0.31478 -0.08735
C_ C_ 0.104482 0.168823 0.308864 0.18498
C_ C_ 0.114333 0.1837 0.279127 -0.05681
C_ C_ 0.140753 0.23074 0.273648 -0.08735
C_ C_ 0.162941 0.255246 0.295934 -0.08735
C_ C_ 0.161134 0.235032 0.324809 0.1947
C_ C_ 0.261943 0.317107 0.153011 0.68181
C_ C_ 0.208016 0.314149 0.15069 -0.05681
C_ C_ 0.175694 0.310071 0.175254 -0.08735
C_ C_ 0.122639 0.313601 0.17343 -0.05681
C_ C_ 0.101873 0.315516 0.145112 -0.05681
C_ C_ 0.134155 0.317137 0.120826 -0.08735
C_ C_ 0.185556 0.315408 0.12391 -0.08735
C_ C_ 0.0903007 0.307665 0.197023 -0.08735
C_ C_ 0.0373248 0.310956 0.192171 -0.08735
C_ C_ 0.01753 0.324311 0.164779 -0.05681
C_ C_ 0.0502513 0.326941 0.141459 -0.08735
C_ C_ 0.359615 0.207461 0.160555 0.68181
C_ C_ 0.365852 0.408526 0.147225 0.68181
C_ C_ 0.368804 0.464894 0.142595 -0.05681
C_ C_ 0.373884 -0.008448000000000011 0.170683 -0.08735
C_ C_ 0.365759 0.0441605 0.166248 -0.05681
C_ C_ 0.374791 0.0678895 0.140098 -0.05681
C_ C_ 0.391814 0.0381955 0.116852 -0.08735
C_ C_ 0.376612 0.487338 0.115907 -0.08735
C_ C_ 0.342099 0.0721025 0.188111 -0.08735
C_ C_ 0.337354 0.125277 0.185293 -0.08735
C_ C_ 0.35623 0.150525 0.160664 -0.05681
C_ C_ 0.3703 0.120824 0.136667 -0.08735
C_ C_ 0.456425 0.306278 0.159511 0.68181
C_ C_ 0.387316 0.367814 0.231175 0.1947
C_ C_ 0.400882 0.381524 0.258482 -0.08735
C_ C_ 0.38072 0.351716 0.281159 -0.08735
C_ C_ 0.353369 0.307519 0.276817 -0.05681
C_ C_ 0.340039 0.295561 0.247368 0.18498
C_ C_ 0.305687 0.255157 0.241224 -0.08735
C_ C_ 0.289014 0.224801 0.264423 -0.08735
C_ C_ 0.300526 0.237867 0.292954 -0.08735
C_ C_ 0.333022 0.278121 0.299796 0.18498
C_ C_ 0.299266 0.305234 0.347459 0.44287
C_ C_ 0.386701 0.285163 0.342017 0.44287
C_ C_ 0.398203 0.298176 0.371504 -0.05681
C_ C_ 0.446983 0.292914 0.383871 -0.08735
C_ C_ 0.454069 0.297039 0.413473 -0.08735
C_ C_ 0.410263 0.304415 0.430846 -0.05681
C_ C_ 0.36281 0.309097 0.41999 -0.05681
C_ C_ 0.355366 0.303435 0.389297 -0.05681
C_ C_ 0.305163 0.3105 0.377117 -0.05681
C_ C_ 0.263576 0.317689 0.396346 -0.08735
C_ C_ 0.274151 0.328186 0.425425 -0.08735
C_ C_ 0.321075 0.319979 0.437389 -0.05681
C_ C_ 0.329671 0.324804 0.467684 0.44287
C_ C_ 0.416782 0.306398 0.460754 0.44287
C_ C_ 0.398531 0.328948 0.0111738 0.18498
C_ C_ 0.431131 0.3678 0.0195778 -0.08735
C_ C_ 0.447018 0.375549 0.0488411 -0.08735
C_ C_ 0.430949 0.34126 0.0690632 -0.08735
C_ C_ 0.389985 0.308438 0.0631711 0.18498
C_ C_ 0.374468 0.30077 0.0339033 -0.05681
C_ C_ 0.33803 0.262601 0.0286695 -0.08735
C_ C_ 0.312216 0.24027 0.0505056 -0.08735
C_ C_ 0.329182 0.249927 0.0788542 0.1947
N_ N_ 0.139024 0.165979 0.47788 -0.29468
N_ N_ 0.132194 0.205939 0.0789676 -0.17154
N_ N_ 0.0976831 0.165844 0.226321 -0.17154
N_ N_ 0.131944 0.193449 0.33024 -0.29468
N_ N_ 0.357534 0.324993 0.225508 -0.29468
N_ N_ 0.338904 0.29093 0.330297 -0.17154
N_ N_ 0.377823 0.319425 0.478341 -0.17154
N_ N_ 0.364213 0.287597 0.0850449 -0.29468
O_ O_ 0.214535 0.186275 0.426644 -0.58347
O_ O_ 0.207848 0.179833 0.379467 -0.58347
O_ O_ 0.129414 0.246756 0.431217 -0.58347
O_ O_ 0.13327 0.255496 0.384591 -0.58347
O_ O_ 0.150732 0.0994028 0.420825 -0.58347
O_ O_ 0.123852 0.105362 0.376904 -0.58347
O_ O_ 0.0663027 0.160553 0.426421 -0.58347
O_ O_ 0.0556268 0.193289 0.383674 -0.58347
O_ O_ 0.0447044 0.217263 0.0741117 -0.46727
O_ O_ 0.218679 0.20608 0.0850032 -0.46727
O_ O_ 0.01306 0.182409 0.220655 -0.46727
O_ O_ 0.183846 0.152183 0.231345 -0.46727
O_ O_ 0.280738 0.313055 0.177486 -0.58347
O_ O_ 0.289032 0.308195 0.131166 -0.58347
O_ O_ 0.356064 0.23345 0.183489 -0.58347
O_ O_ 0.358301 0.231188 0.136773 -0.58347
O_ O_ 0.352164 0.387926 0.170925 -0.58347
O_ O_ 0.373804 0.379582 0.126108 -0.58347
O_ O_ 0.427421 0.315623 0.181286 -0.58347
O_ O_ 0.437354 0.299885 0.134799 -0.58347
O_ O_ 0.421557 0.262479 0.327093 -0.46727
O_ O_ 0.25722 0.320141 0.335623 -0.46727
O_ O_ 0.461004 0.301226 0.472976 -0.46727
O_ O_ 0.294353 0.340325 0.485047 -0.46727
Zn Zn 0.120285 0.186597 0.880668 0.90689
Zn Zn 0.135657 0.184804 0.927699 0.90689
Zn Zn 0.360693 0.310244 0.630164 0.90689
Zn Zn 0.35573 0.315047 0.681109 0.90689
H_ H_ 0.302211 0.205321 0.94158 0.11455
H_ H_ 0.365017 0.150346 0.846664 0.11455
H_ H_ 0.270101 0.160375 0.852543 0.11455
H_ H_ 0.388315 0.180412 0.962235 0.11455
H_ H_ 0.473763 0.168623 0.954829 0.11455
H_ H_ 0.45294 0.175125 0.864304 0.11455
H_ H_ 0.117335 0.0206089 0.940145 0.11455
H_ H_ 0.0757336 0.43663 0.849613 0.11455
H_ H_ 0.166355 0.0317818 0.852271 0.11455
H_ H_ 0.158587 0.4327 0.958321 0.11455
H_ H_ 0.154342 0.339154 0.953988 0.11455
H_ H_ 0.0825698 0.351503 0.871936 0.11455
H_ H_ 0.0877712 0.105134 0.960593 0.11455
H_ H_ 0.0697032 0.0809049 0.514537 0.11455
H_ H_ 0.113632 0.120394 0.554719 0.11455
H_ H_ 0.186049 0.251842 0.973083 0.11455
H_ H_ 0.205496 0.314104 0.514374 0.11455
H_ H_ 0.184253 0.288033 0.562404 0.11455
H_ H_ 0.0066292 0.214387 0.621864 0.11455
H_ H_ -0.0013490000000000446 0.20084 0.674645 0.11455
H_ H_ 0.256519 0.168973 0.630235 0.11455
H_ H_ 0.247917 0.152024 0.681107 0.11455
H_ H_ 0.0601776 0.0992094 0.745868 0.11455
H_ H_ 0.0302457 0.0791478 0.792406 0.11455
H_ H_ 0.0697642 0.121073 0.837191 0.11455
H_ H_ 0.178845 0.241584 0.760627 0.11455
H_ H_ 0.185636 0.299812 0.799828 0.11455
H_ H_ 0.172966 0.266479 0.847212 0.11455
H_ H_ 0.189333 0.313186 0.697299 0.11455
H_ H_ 0.114442 0.329368 0.599021 0.11455
H_ H_ 0.205865 0.314499 0.605505 0.11455
H_ H_ 0.104352 0.327743 0.71623 0.11455
H_ H_ 0.0147352 0.349847 0.710436 0.11455
H_ H_ 0.029408 0.318646 0.620468 0.11455
H_ H_ 0.338013 0.478914 0.688634 0.11455
H_ H_ 0.377922 0.0620153 0.601468 0.11455
H_ H_ 0.360009 0.467517 0.597451 0.11455
H_ H_ 0.356734 0.0650452 0.718307 0.11455
H_ H_ 0.374323 0.156224 0.714891 0.11455
H_ H_ 0.366641 0.144028 0.622745 0.11455
H_ H_ 0.420176 0.390971 0.713611 0.11455
H_ H_ 0.429378 0.425038 0.763292 0.11455
H_ H_ 0.397501 0.373176 0.80448 0.11455
H_ H_ 0.302118 0.262987 0.723903 0.11455
H_ H_ 0.264408 0.213325 0.764993 0.11455
H_ H_ 0.286215 0.233214 0.815167 0.11455
H_ H_ 0.481943 0.299176 0.870268 0.11455
H_ H_ 0.492964 0.285832 0.923313 0.11455
H_ H_ 0.24041 0.353746 0.890724 0.11455
H_ H_ 0.251267 0.336069 0.941263 0.11455
H_ H_ 0.445207 0.391188 0.00226853 0.11455
H_ H_ 0.462518 0.419879 0.545726 0.11455
H_ H_ 0.426452 0.3718 0.586816 0.11455
H_ H_ 0.34732 0.242954 0.505581 0.11455
H_ H_ 0.312968 0.197938 0.546776 0.11455
H_ H_ 0.320122 0.235053 0.594083 0.11455
C_ C_ 0.226955 0.190829 0.903484 0.68181
C_ C_ 0.281076 0.187113 0.897241 -0.05681
C_ C_ 0.316163 0.195933 0.920004 -0.08735
C_ C_ 0.366796 0.186108 0.916999 -0.05681
C_ C_ 0.385075 0.177074 0.8892 -0.05681
C_ C_ 0.350699 0.16915 0.866652 -0.08735
C_ C_ 0.297957 0.17287 0.869929 -0.08735
C_ C_ 0.400425 0.179505 0.940286 -0.08735
C_ C_ 0.449327 0.167239 0.935916 -0.08735
C_ C_ 0.469957 0.171923 0.907905 -0.05681
C_ C_ 0.436472 0.170949 0.88491 -0.08735
C_ C_ 0.11254 0.282309 0.910686 0.68181
C_ C_ 0.138422 0.0888199 0.896816 0.68181
C_ C_ 0.140479 0.0323474 0.895848 -0.05681
C_ C_ 0.138044 0.501624 0.916037 -0.08735
C_ C_ 0.128348 0.448094 0.916704 -0.05681
C_ C_ 0.102644 0.423474 0.892632 -0.05681
C_ C_ 0.0934778 0.455198 0.867482 -0.08735
C_ C_ 0.0969354 0.507687 0.868697 -0.08735
C_ C_ 0.141359 0.416247 0.939092 -0.08735
C_ C_ 0.141779 0.362162 0.935735 -0.08735
C_ C_ 0.120063 0.339545 0.911684 -0.05681
C_ C_ 0.0988201 0.369082 0.890144 -0.08735
C_ C_ 0.0298166 0.185219 0.906073 0.68181
C_ C_ 0.0963023 0.129568 0.979619 0.1947
C_ C_ 0.094532 0.113364 0.510136 -0.08735
C_ C_ 0.115198 0.139148 0.533316 -0.08735
C_ C_ 0.140181 0.185678 0.527959 -0.05681
C_ C_ 0.146649 0.201174 0.498574 0.18498
C_ C_ 0.171591 0.243546 0.994002 -0.08735
C_ C_ 0.184194 0.28012 0.517254 -0.08735
C_ C_ 0.16922 0.267271 0.545146 -0.08735
C_ C_ 0.151066 0.220223 0.550057 0.18498
C_ C_ 0.18276 0.188125 0.595468 0.44287
C_ C_ 0.0954555 0.204136 0.591941 0.44287
C_ C_ 0.0887809 0.197226 0.621573 -0.05681
C_ C_ 0.0403205 0.20504 0.63429 -0.08735
C_ C_ 0.0344115 0.20008 0.664405 -0.08735
C_ C_ 0.0789297 0.194094 0.681542 -0.05681
C_ C_ 0.12644 0.185907 0.668752 -0.05681
C_ C_ 0.130991 0.189246 0.638479 -0.05681
C_ C_ 0.178948 0.18404 0.62463 -0.05681
C_ C_ 0.220638 0.176264 0.64128 -0.08735
C_ C_ 0.215615 0.166243 0.670839 -0.08735
C_ C_ 0.168365 0.176149 0.686 -0.05681
C_ C_ 0.16148 0.167389 0.715354 0.44287
C_ C_ 0.0757692 0.193461 0.712525 0.44287
C_ C_ 0.109856 0.161744 0.758264 0.18498
C_ C_ 0.077876 0.118851 0.76402 -0.08735
C_ C_ 0.0597869 0.107332 0.790485 -0.08735
C_ C_ 0.0789444 0.133758 0.815263 -0.08735
C_ C_ 0.108529 0.178283 0.810802 0.18498
C_ C_ 0.124891 0.191093 0.782026 -0.05681
C_ C_ 0.154909 0.233035 0.779093 -0.08735
C_ C_ 0.16392 0.265551 0.802864 -0.08735
C_ C_ 0.152339 0.24806 0.829808 0.1947
C_ C_ 0.25958 0.312927 0.655843 0.68181
C_ C_ 0.204222 0.316334 0.651169 -0.05681
C_ C_ 0.173131 0.318045 0.675198 -0.08735
C_ C_ 0.120727 0.324444 0.672085 -0.05681
C_ C_ 0.0992246 0.329444 0.643896 -0.05681
C_ C_ 0.130796 0.324528 0.619583 -0.08735
C_ C_ 0.181818 0.315267 0.624636 -0.08735
C_ C_ 0.0889015 0.330139 0.695751 -0.08735
C_ C_ 0.0378012 0.337073 0.692755 -0.08735
C_ C_ 0.0147179 0.334713 0.665044 -0.05681
C_ C_ 0.0461801 0.325942 0.641043 -0.08735
C_ C_ 0.370176 0.213072 0.66631 0.68181
C_ C_ 0.348277 0.410971 0.645679 0.68181
C_ C_ 0.349083 0.467416 0.642259 -0.05681
C_ C_ 0.361244 -0.0029569999999999874 0.674149 -0.08735
C_ C_ 0.361895 0.0507218 0.673056 -0.05681
C_ C_ 0.370993 0.0739392 0.64609 -0.05681
C_ C_ 0.370591 0.0438712 0.621883 -0.08735
C_ C_ 0.360323 0.490604 0.615957 -0.08735
C_ C_ 0.361809 0.0817141 0.697348 -0.08735
C_ C_ 0.362923 0.133709 0.695861 -0.08735
C_ C_ 0.365619 0.156507 0.667773 -0.05681
C_ C_ 0.373593 0.126917 0.643754 -0.08735
C_ C_ 0.453493 0.322543 0.659802 0.68181
C_ C_ 0.400735 0.373516 0.731798 0.1947
C_ C_ 0.40805 0.392179 0.759289 -0.08735
C_ C_ 0.388414 0.365535 0.782516 -0.08735
C_ C_ 0.353416 0.325445 0.778688 -0.05681
C_ C_ 0.346003 0.310347 0.750182 0.18498
C_ C_ 0.316352 0.26623 0.745172 -0.08735
C_ C_ 0.290317 0.243317 0.768206 -0.08735
C_ C_ 0.30098 0.257475 0.796791 -0.08735
C_ C_ 0.333432 0.297379 0.802491 0.18498
C_ C_ 0.305515 0.324291 0.850194 0.44287
C_ C_ 0.392951 0.301275 0.843421 0.44287
C_ C_ 0.403958 0.305699 0.872599 -0.05681
C_ C_ 0.451903 0.300022 0.883935 -0.08735
C_ C_ 0.457551 0.297098 0.914751 -0.08735
C_ C_ 0.4174 0.302635 0.93286 -0.05681
C_ C_ 0.369888 0.315438 0.922437 -0.05681
C_ C_ 0.36183 0.313017 0.89139 -0.05681
C_ C_ 0.31297 0.325805 0.879688 -0.05681
C_ C_ 0.273598 0.333543 0.89935 -0.08735
C_ C_ 0.282125 0.336917 0.928435 -0.08735
C_ C_ 0.330276 0.327433 0.94038 -0.05681
C_ C_ 0.339645 0.33288 0.969718 0.44287
C_ C_ 0.424217 0.30285 0.963034 0.44287
C_ C_ 0.388437 0.335231 0.507526 0.18498
C_ C_ 0.417445 0.379934 0.514361 -0.08735
C_ C_ 0.437245 0.389017 0.542799 -0.08735
C_ C_ 0.412751 0.366938 0.565312 -0.08735
C_ C_ 0.381541 0.324147 0.559439 0.18498
C_ C_ 0.374735 0.306306 0.530937 -0.05681
C_ C_ 0.349239 0.260594 0.526742 -0.08735
C_ C_ 0.322989 0.237543 0.549561 -0.08735
C_ C_ 0.33445 0.255248 0.576458 0.1947
N_ N_ 0.120527 0.174831 0.975563 -0.29468
N_ N_ 0.142531 0.206006 0.580839 -0.17154
N_ N_ 0.117071 0.177725 0.72895 -0.17154
N_ N_ 0.121605 0.208453 0.834402 -0.29468
N_ N_ 0.369018 0.33463 0.727436 -0.29468
N_ N_ 0.344712 0.310899 0.831964 -0.17154
N_ N_ 0.385807 0.319601 0.981026 -0.17154
N_ N_ 0.362017 0.296818 0.58188 -0.29468
O_ O_ 0.210232 0.186853 0.928999 -0.58347
O_ O_ 0.197316 0.195221 0.882803 -0.58347
O_ O_ 0.126514 0.257626 0.932156 -0.58347
O_ O_ 0.107737 0.261133 0.886448 -0.58347
O_ O_ 0.142551 0.111188 0.920968 -0.58347
O_ O_ 0.128425 0.113882 0.874604 -0.58347
O_ O_ 0.05856 0.180973 0.926784 -0.58347
O_ O_ 0.0477614 0.181137 0.880313 -0.58347
O_ O_ 0.0584911 0.21659 0.573464 -0.46727
O_ O_ 0.227282 0.184054 0.583072 -0.46727
O_ O_ 0.0314954 0.197331 0.724655 -0.46727
O_ O_ 0.200432 0.156897 0.730428 -0.46727
O_ O_ 0.27775 0.305567 0.68071 -0.58347
O_ O_ 0.287836 0.309901 0.632605 -0.58347
O_ O_ 0.360789 0.240538 0.687895 -0.58347
O_ O_ 0.366478 0.232302 0.640923 -0.58347
O_ O_ 0.34576 0.390369 0.671018 -0.58347
O_ O_ 0.352019 0.38283 0.623879 -0.58347
O_ O_ 0.426606 0.326259 0.681317 -0.58347
O_ O_ 0.435309 0.316269 0.635225 -0.58347
O_ O_ 0.430066 0.287396 0.825169 -0.46727
O_ O_ 0.262204 0.339213 0.839636 -0.46727
O_ O_ 0.471907 0.301897 0.973768 -0.46727
O_ O_ 0.303149 0.350256 0.986637 -0.46727
Zn Zn 0.135713 0.680852 0.379456 0.90689
Zn Zn 0.14133 0.677774 0.427038 0.90689
Zn Zn 0.38158 0.802419 0.131747 0.90689
Zn Zn 0.369941 0.81308 0.178269 0.90689
H_ H_ 0.304661 0.698814 0.442325 0.11455
H_ H_ 0.379772 0.653067 0.347444 0.11455
H_ H_ 0.289413 0.646752 0.355323 0.11455
H_ H_ 0.392597 0.710269 0.461043 0.11455
H_ H_ 0.483585 0.689071 0.460195 0.11455
H_ H_ 0.464759 0.654957 0.369101 0.11455
H_ H_ 0.164762 0.508614 0.438281 0.11455
H_ H_ 0.142826 0.931778 0.344112 0.11455
H_ H_ 0.137608 0.520661 0.348997 0.11455
H_ H_ 0.11128 0.922004 0.46137 0.11455
H_ H_ 0.123506 0.828781 0.457506 0.11455
H_ H_ 0.143929 0.846667 0.366724 0.11455
H_ H_ 0.0974463 0.602482 0.461811 0.11455
H_ H_ 0.0766857 0.572505 0.00854634 0.11455
H_ H_ 0.103168 0.622512 0.0527419 0.11455
H_ H_ 0.205192 0.747294 0.469655 0.11455
H_ H_ 0.217678 0.805498 0.0170113 0.11455
H_ H_ 0.194066 0.778257 0.0636902 0.11455
H_ H_ 0.015503 0.704578 0.123682 0.11455
H_ H_ 0.00712979 0.699617 0.174715 0.11455
H_ H_ 0.267208 0.663024 0.13642 0.11455
H_ H_ 0.254595 0.651876 0.189135 0.11455
H_ H_ 0.0663561 0.581283 0.249222 0.11455
H_ H_ 0.0486205 0.563513 0.296372 0.11455
H_ H_ 0.0669657 0.624744 0.333966 0.11455
H_ H_ 0.161985 0.738826 0.25575 0.11455
H_ H_ 0.201063 0.789754 0.297726 0.11455
H_ H_ 0.182041 0.760082 0.346178 0.11455
H_ H_ 0.208238 0.798275 0.194492 0.11455
H_ H_ 0.128401 0.854359 0.100463 0.11455
H_ H_ 0.225186 0.8399 0.104398 0.11455
H_ H_ 0.121738 0.807948 0.215328 0.11455
H_ H_ 0.0295736 0.828414 0.215129 0.11455
H_ H_ 0.0440747 0.840604 0.122033 0.11455
H_ H_ 0.378351 0.976103 0.192812 0.11455
H_ H_ 0.384671 0.559343 0.093302 0.11455
H_ H_ 0.391656 0.966453 0.100135 0.11455
H_ H_ 0.36566 0.564517 0.211653 0.11455
H_ H_ 0.384196 0.654282 0.206539 0.11455
H_ H_ 0.380333 0.644319 0.116355 0.11455
H_ H_ 0.4363 0.879656 0.211974 0.11455
H_ H_ 0.452132 0.907056 0.262219 0.11455
H_ H_ 0.403481 0.877504 0.300821 0.11455
H_ H_ 0.320636 0.745266 0.219257 0.11455
H_ H_ 0.276081 0.704167 0.264881 0.11455
H_ H_ 0.294436 0.732677 0.313563 0.11455
H_ H_ 0.491144 0.782724 0.369674 0.11455
H_ H_ 0.505842 0.802387 0.420018 0.11455
H_ H_ 0.246321 0.8567 0.383189 0.11455
H_ H_ 0.253086 0.853337 0.434729 0.11455
H_ H_ 0.447273 0.903011 0.500576 0.11455
H_ H_ 0.45992 0.924565 0.0504807 0.11455
H_ H_ 0.440499 0.865972 0.089865 0.11455
H_ H_ 0.352534 0.743913 0.00490627 0.11455
H_ H_ 0.300112 0.709953 0.0442553 0.11455
H_ H_ 0.322621 0.730803 0.094759 0.11455
C_ C_ 0.236509 0.67683 0.401962 0.68181
C_ C_ 0.29158 0.671962 0.400364 -0.05681
C_ C_ 0.323719 0.688479 0.422785 -0.08735
C_ C_ 0.375308 0.678154 0.420125 -0.05681
C_ C_ 0.396194 0.664716 0.393293 -0.05681
C_ C_ 0.3643 0.655126 0.369973 -0.08735
C_ C_ 0.312319 0.659251 0.373772 -0.08735
C_ C_ 0.407992 0.689961 0.442812 -0.08735
C_ C_ 0.460144 0.683262 0.440863 -0.08735
C_ C_ 0.482505 0.671675 0.414686 -0.05681
C_ C_ 0.449921 0.66336 0.390265 -0.08735
C_ C_ 0.136612 0.776088 0.410484 0.68181
C_ C_ 0.144736 0.578921 0.396337 0.68181
C_ C_ 0.147084 0.521962 0.393891 -0.05681
C_ C_ 0.127677 0.990363 0.419717 -0.08735
C_ C_ 0.130823 0.938179 0.416893 -0.05681
C_ C_ 0.136172 0.917088 0.390034 -0.05681
C_ C_ 0.139999 0.946831 0.365401 -0.08735
C_ C_ 0.133223 1.00007 0.368213 -0.08735
C_ C_ 0.124319 0.905031 0.441181 -0.08735
C_ C_ 0.130126 0.853714 0.438788 -0.08735
C_ C_ 0.141075 0.832706 0.41202 -0.05681
C_ C_ 0.138911 0.863123 0.387435 -0.08735
C_ C_ 0.0410338 0.682279 0.408635 0.68181
C_ C_ 0.114957 0.623029 0.479522 0.1947
C_ C_ 0.0957533 0.608504 0.00633529 -0.08735
C_ C_ 0.109321 0.636225 0.0303224 -0.08735
C_ C_ 0.135141 0.683165 0.0272438 -0.05681
C_ C_ 0.147573 0.699149 0.999114 0.18498
C_ C_ 0.189573 0.739784 0.490005 -0.08735
C_ C_ 0.19562 0.769168 0.0197321 -0.08735
C_ C_ 0.179215 0.75683 0.0459177 -0.08735
C_ C_ 0.155777 0.709243 0.0511076 0.18498
C_ C_ 0.191329 0.683258 0.0977114 0.44287
C_ C_ 0.103419 0.698059 0.0940505 0.44287
C_ C_ 0.0974845 0.694155 0.123524 -0.05681
C_ C_ 0.0490007 0.701571 0.135905 -0.08735
C_ C_ 0.0435338 0.702607 0.166111 -0.08735
C_ C_ 0.085365 0.685282 0.182765 -0.05681
C_ C_ 0.133558 0.679612 0.170141 -0.05681
C_ C_ 0.140242 0.685678 0.140328 -0.05681
C_ C_ 0.187947 0.678826 0.127616 -0.05681
C_ C_ 0.229539 0.670841 0.146441 -0.08735
C_ C_ 0.22296 0.661746 0.1761 -0.08735
C_ C_ 0.174545 0.664114 0.187005 -0.05681
C_ C_ 0.164277 0.653936 0.216067 0.44287
C_ C_ 0.0788821 0.681485 0.211964 0.44287
C_ C_ 0.109038 0.653688 0.258736 0.18498
C_ C_ 0.0797969 0.609508 0.264549 -0.08735
C_ C_ 0.0694361 0.59647 0.292275 -0.08735
C_ C_ 0.0876871 0.626122 0.315043 -0.08735
C_ C_ 0.119158 0.667286 0.310739 0.18498
C_ C_ 0.127976 0.682624 0.282154 -0.05681
C_ C_ 0.157965 0.726475 0.278477 -0.08735
C_ C_ 0.178393 0.753786 0.301614 -0.08735
C_ C_ 0.168145 0.735608 0.328164 0.1947
C_ C_ 0.278293 0.81047 0.152618 0.68181
C_ C_ 0.221198 0.817044 0.149031 -0.05681
C_ C_ 0.189193 0.812705 0.173732 -0.08735
C_ C_ 0.135824 0.820811 0.171192 -0.05681
C_ C_ 0.114464 0.832884 0.144039 -0.05681
C_ C_ 0.145797 0.839717 0.119711 -0.08735
C_ C_ 0.199401 0.830676 0.122919 -0.08735
C_ C_ 0.104014 0.814369 0.195396 -0.08735
C_ C_ 0.0534722 0.828037 0.194896 -0.08735
C_ C_ 0.0306484 0.837239 0.167617 -0.05681
C_ C_ 0.0604389 0.839813 0.142399 -0.08735
C_ C_ 0.373628 0.712393 0.157794 0.68181
C_ C_ 0.376256 0.904626 0.149124 0.68181
C_ C_ 0.384112 0.959393 0.146785 -0.05681
C_ C_ 0.376307 0.494411 0.166928 -0.08735
C_ C_ 0.374152 0.548592 0.165202 -0.05681
C_ C_ 0.378847 0.571835 0.138212 -0.05681
C_ C_ 0.379654 0.539891 0.112958 -0.08735
C_ C_ 0.38933 -0.015098999999999974 0.119466 -0.08735
C_ C_ 0.367675 0.580281 0.189509 -0.08735
C_ C_ 0.37219 0.632487 0.187454 -0.08735
C_ C_ 0.375528 0.656412 0.160634 -0.05681
C_ C_ 0.381143 0.625027 0.136266 -0.08735
C_ C_ 0.473428 0.801497 0.154944 0.68181
C_ C_ 0.414376 0.864491 0.229628 0.1947
C_ C_ 0.426623 0.87705 0.257962 -0.08735
C_ C_ 0.397888 0.859481 0.280507 -0.08735
C_ C_ 0.3683 0.816848 0.276525 -0.05681
C_ C_ 0.359137 0.799599 0.247296 0.18498
C_ C_ 0.326714 0.758507 0.242411 -0.08735
C_ C_ 0.302839 0.734376 0.26688 -0.08735
C_ C_ 0.311964 0.750208 0.29405 -0.08735
C_ C_ 0.346346 0.791295 0.299512 0.18498
C_ C_ 0.31871 0.825936 0.345196 0.44287
C_ C_ 0.399975 0.791832 0.340671 0.44287
C_ C_ 0.410593 0.799924 0.370646 -0.05681
C_ C_ 0.459785 0.793655 0.383595 -0.08735
C_ C_ 0.467202 0.800377 0.412912 -0.08735
C_ C_ 0.424945 0.814429 0.430445 -0.05681
C_ C_ 0.376969 0.823971 0.417567 -0.05681
C_ C_ 0.369519 0.814912 0.388122 -0.05681
C_ C_ 0.322902 0.82807 0.375357 -0.05681
C_ C_ 0.283305 0.846217 0.39248 -0.08735
C_ C_ 0.287731 0.846183 0.42234 -0.08735
C_ C_ 0.337548 0.841546 0.4348 -0.05681
C_ C_ 0.345183 0.849431 0.464875 0.44287
C_ C_ 0.429906 0.820573 0.459563 0.44287
C_ C_ 0.397132 0.840633 0.00857138 0.18498
C_ C_ 0.42694 0.880962 0.0168964 -0.08735
C_ C_ 0.440646 0.891043 0.0453827 -0.08735
C_ C_ 0.426166 0.859512 0.0669759 -0.08735
C_ C_ 0.393732 0.819261 0.061324 0.18498
C_ C_ 0.382855 0.806174 0.0314663 -0.05681
C_ C_ 0.353985 0.761411 0.0258376 -0.08735
C_ C_ 0.328539 0.738353 0.0490682 -0.08735
C_ C_ 0.338295 0.753801 0.0771964 0.1947
N_ N_ 0.142544 0.666188 0.474859 -0.29468
N_ N_ 0.150159 0.693682 0.0804698 -0.17154
N_ N_ 0.119988 0.669791 0.22849 -0.17154
N_ N_ 0.135346 0.697058 0.333257 -0.29468
N_ N_ 0.380297 0.825508 0.224801 -0.29468
N_ N_ 0.355018 0.805154 0.329151 -0.17154
N_ N_ 0.389797 0.832551 0.47709 -0.17154
N_ N_ 0.37296 0.790781 0.0831646 -0.29468
O_ O_ 0.213797 0.666796 0.425664 -0.58347
O_ O_ 0.211835 0.684097 0.379781 -0.58347
O_ O_ 0.147247 0.749619 0.431228 -0.58347
O_ O_ 0.12909 0.755234 0.386749 -0.58347
O_ O_ 0.139543 0.59872 0.420669 -0.58347
O_ O_ 0.139844 0.60647 0.374401 -0.58347
O_ O_ 0.0698433 0.686136 0.429302 -0.58347
O_ O_ 0.0579522 0.679216 0.383241 -0.58347
O_ O_ 0.0623856 0.710968 0.0783455 -0.46727
O_ O_ 0.237297 0.684892 0.0865497 -0.46727
O_ O_ 0.0362882 0.695574 0.223846 -0.46727
O_ O_ 0.195828 0.627443 0.230715 -0.46727
O_ O_ 0.29736 0.813978 0.178123 -0.58347
O_ O_ 0.305194 0.802981 0.131675 -0.58347
O_ O_ 0.368035 0.739345 0.179922 -0.58347
O_ O_ 0.378432 0.731596 0.132944 -0.58347
O_ O_ 0.375942 0.884231 0.173348 -0.58347
O_ O_ 0.384084 0.875285 0.127359 -0.58347
O_ O_ 0.443591 0.802861 0.176324 -0.58347
O_ O_ 0.455789 0.80121 0.130233 -0.58347
O_ O_ 0.437986 0.777328 0.325156 -0.46727
O_ O_ 0.276372 0.83928 0.332715 -0.46727
O_ O_ 0.475743 0.817938 0.470008 -0.46727
O_ O_ 0.304403 0.856836 0.48095 -0.46727
Zn Zn 0.122222 0.688622 0.881479 0.90689
Zn Zn 0.132956 0.68588 0.929586 0.90689
Zn Zn 0.371809 0.807044 0.629966 0.90689
Zn Zn 0.36364 0.811333 0.678985 0.90689
H_ H_ 0.304899 0.690052 0.94969 0.11455
H_ H_ 0.37015 0.674553 0.8491 0.11455
H_ H_ 0.279638 0.680184 0.856545 0.11455
H_ H_ 0.389712 0.678506 0.967399 0.11455
H_ H_ 0.481934 0.683296 0.958725 0.11455
H_ H_ 0.459925 0.674176 0.86662 0.11455
H_ H_ 0.157892 0.519107 0.932549 0.11455
H_ H_ 0.150267 0.940746 0.846431 0.11455
H_ H_ 0.0887759 0.531166 0.848917 0.11455
H_ H_ 0.120214 0.935342 0.962571 0.11455
H_ H_ 0.101715 0.844027 0.957019 0.11455
H_ H_ 0.13709 0.85357 0.867541 0.11455
H_ H_ 0.0893897 0.605096 0.961024 0.11455
H_ H_ 0.0782046 0.574986 0.509182 0.11455
H_ H_ 0.0961602 0.634215 0.551107 0.11455
H_ H_ 0.197268 0.745762 0.974434 0.11455
H_ H_ 0.215479 0.807474 0.507412 0.11455
H_ H_ 0.193567 0.793904 0.557189 0.11455
H_ H_ 1.014734 0.726337 0.615806 0.11455
H_ H_ 1.00269396 0.71792 0.668195 0.11455
H_ H_ 0.261665 0.671673 0.634154 0.11455
H_ H_ 0.249311 0.658084 0.688082 0.11455
H_ H_ 0.0665283 0.600576 0.743345 0.11455
H_ H_ 0.0427553 0.57533 0.795334 0.11455
H_ H_ 0.0592186 0.634627 0.83354 0.11455
H_ H_ 0.162545 0.750628 0.753753 0.11455
H_ H_ 0.195705 0.793937 0.798093 0.11455
H_ H_ 0.177745 0.760736 0.846678 0.11455
H_ H_ 0.194986 0.803424 0.700047 0.11455
H_ H_ 0.130713 0.843205 0.602106 0.11455
H_ H_ 0.215092 0.815831 0.609618 0.11455
H_ H_ 0.10334 0.796991 0.716734 0.11455
H_ H_ 0.0161143 0.82316 0.710004 0.11455
H_ H_ 0.0421511 0.849552 0.619826 0.11455
H_ H_ 0.35491 0.975271 0.694317 0.11455
H_ H_ 0.374902 0.561491 0.592934 0.11455
H_ H_ 0.381641 0.968736 0.60364 0.11455
H_ H_ 0.333554 0.563648 0.709022 0.11455
H_ H_ 0.343747 0.654449 0.707604 0.11455
H_ H_ 0.367466 0.642673 0.615937 0.11455
H_ H_ 0.425055 0.880892 0.716031 0.11455
H_ H_ 0.435217 0.913671 0.765148 0.11455
H_ H_ 0.396641 0.86099 0.8066 0.11455
H_ H_ 0.310949 0.744743 0.722478 0.11455
H_ H_ 0.274418 0.695457 0.761131 0.11455
H_ H_ 0.291003 0.71675 0.808592 0.11455
H_ H_ 0.478914 0.792384 0.870191 0.11455
H_ H_ 0.495916 0.814193 0.920224 0.11455
H_ H_ 0.233598 0.850085 0.888189 0.11455
H_ H_ 0.245481 0.842593 0.940076 0.11455
H_ H_ 0.441578 0.907681 1.000412345 0.11455
H_ H_ 0.465551 0.924722 0.548995 0.11455
H_ H_ 0.420554 0.874157 0.58759 0.11455
H_ H_ 0.319975 0.768618 0.504928 0.11455
H_ H_ 0.290726 0.715707 0.543327 0.11455
H_ H_ 0.316739 0.729515 0.591035 0.11455
C_ C_ 0.227751 0.684837 0.906033 0.68181
C_ C_ 0.284129 0.681331 0.902722 -0.05681
C_ C_ 0.31791 0.683227 0.926633 -0.08735
C_ C_ 0.370478 0.674858 0.922101 -0.05681
C_ C_ 0.390037 0.672149 0.893529 -0.05681
C_ C_ 0.357323 0.674536 0.870614 -0.08735
C_ C_ 0.304666 0.680541 0.874781 -0.08735
C_ C_ 0.40376 0.675187 0.945372 -0.08735
C_ C_ 0.455294 0.683747 0.941086 -0.08735
C_ C_ 0.476749 0.679201 0.912211 -0.05681
C_ C_ 0.443748 0.673313 0.888527 -0.08735
C_ C_ 0.124606 0.786063 0.911647 0.68181
C_ C_ 0.125978 0.588033 0.896024 0.68181
C_ C_ 0.120941 0.531211 0.89279 -0.05681
C_ C_ 0.131777 1.00265001 0.919979 -0.08735
C_ C_ 0.138017 0.948886 0.919522 -0.05681
C_ C_ 0.143699 0.924698 0.891958 -0.05681
C_ C_ 0.151556 0.955033 0.868221 -0.08735
C_ C_ 0.154025 0.00898034 0.869836 -0.08735
C_ C_ 0.123831 0.916744 0.942682 -0.08735
C_ C_ 0.116105 0.865748 0.93906 -0.08735
C_ C_ 0.123616 0.841307 0.912906 -0.05681
C_ C_ 0.134803 0.873047 0.888414 -0.08735
C_ C_ 0.0323678 0.694538 0.908248 0.68181
C_ C_ 0.100622 0.627941 0.979528 0.1947
C_ C_ 0.101465 0.609716 0.506647 -0.08735
C_ C_ 0.112114 0.641785 0.529854 -0.08735
C_ C_ 0.146357 0.682999 0.524766 -0.05681
C_ C_ 0.15991 0.694804 0.496098 0.18498
C_ C_ 0.179747 0.740698 0.995333 -0.08735
C_ C_ 0.200252 0.771231 0.512361 -0.08735
C_ C_ 0.187276 0.762084 0.540542 -0.08735
C_ C_ 0.16389 0.714831 0.547877 0.18498
C_ C_ 0.190863 0.68919 0.594429 0.44287
C_ C_ 0.105559 0.716097 0.589217 0.44287
C_ C_ 0.0946711 0.703872 0.618625 -0.05681
C_ C_ 0.0461779 0.712198 0.629837 -0.08735
C_ C_ 0.0384039 0.707198 0.658668 -0.08735
C_ C_ 0.0787934 0.695156 0.677889 -0.05681
C_ C_ 0.128085 0.685032 0.667024 -0.05681
C_ C_ 0.137295 0.694915 0.637197 -0.05681
C_ C_ 0.185646 0.68674 0.624991 -0.05681
C_ C_ 0.224748 0.67055 0.642032 -0.08735
C_ C_ 0.216173 0.664905 0.672409 -0.08735
C_ C_ 0.168694 0.67318 0.685429 -0.05681
C_ C_ 0.159877 0.668002 0.715206 0.44287
C_ C_ 0.0740212 0.695388 0.708344 0.44287
C_ C_ 0.102197 0.668096 0.757191 0.18498
C_ C_ 0.077182 0.622465 0.762473 -0.08735
C_ C_ 0.0638139 0.608468 0.789788 -0.08735
C_ C_ 0.0747465 0.641014 0.812754 -0.08735
C_ C_ 0.106298 0.683624 0.808284 0.18498
C_ C_ 0.119113 0.697472 0.779539 -0.05681
C_ C_ 0.150395 0.738963 0.775633 -0.08735
C_ C_ 0.170262 0.762129 0.800901 -0.08735
C_ C_ 0.162422 0.742273 0.827834 0.1947
C_ C_ 0.264982 0.805466 0.658723 0.68181
C_ C_ 0.212093 0.806524 0.654617 -0.05681
C_ C_ 0.179315 0.808828 0.677544 -0.08735
C_ C_ 0.127469 0.819694 0.673823 -0.05681
C_ C_ 0.109191 0.833508 0.646254 -0.05681
C_ C_ 0.141745 0.829092 0.622957 -0.08735
C_ C_ 0.192447 0.81964 0.627818 -0.08735
C_ C_ 0.0927349 0.815881 0.695816 -0.08735
C_ C_ 0.0409516 0.821463 0.691236 -0.08735
C_ C_ 0.0210243 0.834467 0.663828 -0.05681
C_ C_ 0.0562702 0.840067 0.641461 -0.08735
C_ C_ 0.364127 0.710698 0.657786 0.68181
C_ C_ 0.364154 0.909244 0.650959 0.68181
C_ C_ 0.363483 0.967784 0.649052 -0.05681
C_ C_ 0.339467 0.497004 0.666869 -0.08735
C_ C_ 0.348259 0.549671 0.665206 -0.05681
C_ C_ 0.361775 0.573319 0.638986 -0.05681
C_ C_ 0.366843 0.543663 0.61443 -0.08735
C_ C_ 0.369746 0.991277 0.622737 -0.08735
C_ C_ 0.342853 0.580895 0.688957 -0.08735
C_ C_ 0.344305 0.634283 0.687224 -0.08735
C_ C_ 0.358436 0.655442 0.660702 -0.05681
C_ C_ 0.366133 0.624386 0.636908 -0.08735
C_ C_ 0.465358 0.808562 0.654285 0.68181
C_ C_ 0.40654 0.862487 0.733577 0.1947
C_ C_ 0.411632 0.87987 0.761691 -0.08735
C_ C_ 0.388409 0.853114 0.783393 -0.08735
C_ C_ 0.358777 0.811054 0.778436 -0.05681
C_ C_ 0.350836 0.797038 0.749094 0.18498
C_ C_ 0.314719 0.76089 0.742731 -0.08735
C_ C_ 0.295762 0.730392 0.764894 -0.08735
C_ C_ 0.301631 0.744397 0.793237 -0.08735
C_ C_ 0.332394 0.7845 0.800631 0.18498
C_ C_ 0.303052 0.816129 0.848547 0.44287
C_ C_ 0.386805 0.785866 0.844152 0.44287
C_ C_ 0.39616 0.799798 0.872789 -0.05681
C_ C_ 0.447951 0.803905 0.883408 -0.08735
C_ C_ 0.457476 0.818941 0.911569 -0.08735
C_ C_ 0.415217 0.822362 0.931366 -0.05681
C_ C_ 0.366924 0.821574 0.920226 -0.05681
C_ C_ 0.35767 0.817818 0.890043 -0.05681
C_ C_ 0.310616 0.826131 0.878452 -0.05681
C_ C_ 0.270814 0.841992 0.898329 -0.08735
C_ C_ 0.278604 0.840786 0.927409 -0.08735
C_ C_ 0.326779 0.830254 0.939273 -0.05681
C_ C_ 0.336334 0.83632 0.968984 0.44287
C_ C_ 0.42339 0.826534 0.960456 0.44287
C_ C_ 0.398163 0.839465 0.508075 0.18498
C_ C_ 0.42901 0.880925 0.516249 -0.08735
C_ C_ 0.443459 0.890162 0.54406 -0.08735
C_ C_ 0.419786 0.861661 0.566151 -0.08735
C_ C_ 0.388182 0.820639 0.559716 0.18498
C_ C_ 0.377209 0.809456 0.529833 -0.05681
C_ C_ 0.337529 0.7749 0.525273 -0.08735
C_ C_ 0.319776 0.744522 0.546314 -0.08735
C_ C_ 0.332774 0.753352 0.574609 0.1947
N_ N_ 0.129886 0.670091 0.97595 -0.29468
N_ N_ 0.151887 0.703781 0.577491 -0.17154
N_ N_ 0.111248 0.680884 0.726216 -0.17154
N_ N_ 0.127966 0.705794 0.831907 -0.29468
N_ N_ 0.373567 0.823071 0.727233 -0.29468
N_ N_ 0.341673 0.797365 0.831419 -0.17154
N_ N_ 0.384388 0.830401 0.978875 -0.17154
N_ N_ 0.366961 0.792763 0.58135 -0.29468
O_ O_ 0.207839 0.684161 0.930734 -0.58347
O_ O_ 0.199823 0.682278 0.883034 -0.58347
O_ O_ 0.133407 0.760011 0.933798 -0.58347
O_ O_ 0.122182 0.764751 0.887286 -0.58347
O_ O_ 0.140224 0.610208 0.919246 -0.58347
O_ O_ 0.113525 0.616528 0.874653 -0.58347
O_ O_ 0.0607774 0.682911 0.928448 -0.58347
O_ O_ 0.0486586 0.696926 0.883023 -0.58347
O_ O_ 0.0693672 0.730565 0.571842 -0.46727
O_ O_ 0.236907 0.677144 0.583331 -0.46727
O_ O_ 0.0301216 0.705125 0.720563 -0.46727
O_ O_ 0.198482 0.656803 0.732513 -0.46727
O_ O_ 0.285274 0.808215 0.682753 -0.58347
O_ O_ 0.293031 0.809491 0.636922 -0.58347
O_ O_ 0.365885 0.736261 0.680737 -0.58347
O_ O_ 0.368783 0.732355 0.633655 -0.58347
O_ O_ 0.363818 0.88735 0.674988 -0.58347
O_ O_ 0.367645 0.883666 0.628093 -0.58347
O_ O_ 0.437612 0.815229 0.676381 -0.58347
O_ O_ 0.444541 0.806759 0.629471 -0.58347
O_ O_ 0.422629 0.769057 0.828786 -0.46727
O_ O_ 0.256329 0.823069 0.837769 -0.46727
O_ O_ 0.469521 0.82569 0.970334 -0.46727
O_ O_ 0.299249 0.848029 0.98658 -0.46727
Zn Zn 0.637137 0.191616 0.380641 0.90689
Zn Zn 0.638257 0.183974 0.429625 0.90689
Zn Zn 0.867138 0.310852 0.138421 0.90689
Zn Zn 0.854355 0.321693 0.186974 0.90689
H_ H_ 0.807987 0.199409 0.443896 0.11455
H_ H_ 0.876236 0.134383 0.350375 0.11455
H_ H_ 0.787882 0.145797 0.356957 0.11455
H_ H_ 0.892701 0.208633 0.463002 0.11455
H_ H_ 0.989286 0.207468 0.454962 0.11455
H_ H_ 0.964024 0.157802 0.369198 0.11455
H_ H_ 0.598767 0.0222775 0.434942 0.11455
H_ H_ 0.594375 0.446371 0.352 0.11455
H_ H_ 0.672898 0.0288696 0.352058 0.11455
H_ H_ 0.674171 0.432597 0.461498 0.11455
H_ H_ 0.652308 0.337694 0.457664 0.11455
H_ H_ 0.596782 0.362282 0.372436 0.11455
H_ H_ 0.598513 0.108626 0.466322 0.11455
H_ H_ 0.555077 0.0813665 0.00839172 0.11455
H_ H_ 0.590853 0.12631 0.0514375 0.11455
H_ H_ 0.707111 0.249389 0.472395 0.11455
H_ H_ 0.711704 0.303643 0.0122811 0.11455
H_ H_ 0.691906 0.278106 0.062094 0.11455
H_ H_ 0.514254 0.198741 0.118796 0.11455
H_ H_ 0.504216 0.196167 0.170564 0.11455
H_ H_ 0.763747 0.159934 0.13152 0.11455
H_ H_ 0.755499 0.156154 0.184285 0.11455
H_ H_ 0.563703 0.0837029 0.248668 0.11455
H_ H_ 0.548123 0.0633567 0.299647 0.11455
H_ H_ 0.572016 0.12416 0.338142 0.11455
H_ H_ 0.671977 0.23325 0.254268 0.11455
H_ H_ 0.701563 0.289042 0.293043 0.11455
H_ H_ 0.677272 0.263452 0.344186 0.11455
H_ H_ 0.68185 0.303099 0.203198 0.11455
H_ H_ 0.619115 0.319019 0.103659 0.11455
H_ H_ 0.707489 0.322913 0.112061 0.11455
H_ H_ 0.590811 0.296856 0.219781 0.11455
H_ H_ 0.505183 0.281074 0.207949 0.11455
H_ H_ 0.535199 0.308538 0.12152 0.11455
H_ H_ 0.854483 0.486621 0.200085 0.11455
H_ H_ 0.889032 0.0684016 0.0986109 0.11455
H_ H_ 0.892351 0.467902 0.111929 0.11455
H_ H_ 0.854313 0.0711127 0.216862 0.11455
H_ H_ 0.856861 0.161717 0.213169 0.11455
H_ H_ 0.888696 0.151821 0.122837 0.11455
H_ H_ 0.919666 0.388289 0.220681 0.11455
H_ H_ 0.929952 0.421672 0.27028 0.11455
H_ H_ 0.892986 0.37818 0.311106 0.11455
H_ H_ 0.80603 0.252247 0.23041 0.11455
H_ H_ 0.775827 0.197101 0.270215 0.11455
H_ H_ 0.810568 0.216216 0.321445 0.11455
H_ H_ 0.988298 0.298791 0.380492 0.11455
H_ H_ 0.0040603 0.313791 0.43037 0.11455
H_ H_ 0.736801 0.319199 0.392419 0.11455
H_ H_ 0.746266 0.337172 0.444361 0.11455
H_ H_ 0.916975 0.428905 0.504402 0.11455
H_ H_ 0.971069 0.421792 0.0592444 0.11455
H_ H_ 0.924112 0.379674 0.0977572 0.11455
H_ H_ 0.837827 0.264067 0.0117282 0.11455
H_ H_ 0.802719 0.21025 0.0495028 0.11455
H_ H_ 0.809608 0.238151 0.101622 0.11455
C_ C_ 0.735425 0.189416 0.403123 0.68181
C_ C_ 0.7907 0.175997 0.400588 -0.05681
C_ C_ 0.824143 0.185131 0.423212 -0.08735
C_ C_ 0.876635 0.181127 0.420448 -0.05681
C_ C_ 0.895866 0.170111 0.392618 -0.05681
C_ C_ 0.863295 0.150348 0.371501 -0.08735
C_ C_ 0.81013 0.153338 0.375409 -0.08735
C_ C_ 0.909605 0.194688 0.443398 -0.08735
C_ C_ 0.962022 0.191548 0.43925 -0.08735
C_ C_ 0.98249 0.178548 0.412413 -0.05681
C_ C_ 0.949428 0.170135 0.38911 -0.08735
C_ C_ 0.622406 0.286958 0.411289 0.68181
C_ C_ 0.641528 0.0891867 0.396516 0.68181
C_ C_ 0.638277 0.0315286 0.393624 -0.05681
C_ C_ 0.652973 0.501717 0.421577 -0.08735
C_ C_ 0.647303 0.448342 0.419125 -0.05681
C_ C_ 0.624044 0.427992 0.394141 -0.05681
C_ C_ 0.615216 0.459884 0.37028 -0.08735
C_ C_ 0.616697 0.512278 0.373832 -0.08735
C_ C_ 0.660646 0.415302 0.441927 -0.08735
C_ C_ 0.64979 0.361132 0.438353 -0.08735
C_ C_ 0.624441 0.343533 0.41407 -0.05681
C_ C_ 0.611335 0.376469 0.391499 -0.08735
C_ C_ 0.539139 0.176113 0.408265 0.68181
C_ C_ 0.612299 0.130511 0.483178 0.1947
C_ C_ 0.58409 0.110812 0.00671379 -0.08735
C_ C_ 0.606073 0.134081 0.0300262 -0.08735
C_ C_ 0.636393 0.178579 0.0256899 -0.05681
C_ C_ 0.646283 0.195739 0.997526 0.18498
C_ C_ 0.686081 0.244988 0.492693 -0.08735
C_ C_ 0.691762 0.269294 0.0169966 -0.08735
C_ C_ 0.679302 0.256169 0.0442752 -0.08735
C_ C_ 0.654267 0.210086 0.0496461 0.18498
C_ C_ 0.689472 0.180016 0.0946039 0.44287
C_ C_ 0.601452 0.199827 0.0907621 0.44287
C_ C_ 0.595248 0.1889 0.120371 -0.05681
C_ C_ 0.54633 0.191049 0.132817 -0.08735
C_ C_ 0.54174 0.18583 0.162162 -0.08735
C_ C_ 0.58388 0.179552 0.180397 -0.05681
C_ C_ 0.63035 0.176008 0.168315 -0.05681
C_ C_ 0.637406 0.183229 0.138205 -0.05681
C_ C_ 0.68567 0.178156 0.124604 -0.05681
C_ C_ 0.725579 0.166851 0.142249 -0.08735
C_ C_ 0.722207 0.167393 0.172606 -0.08735
C_ C_ 0.672821 0.16648 0.185248 -0.05681
C_ C_ 0.664407 0.153652 0.21446 0.44287
C_ C_ 0.577501 0.175812 0.209645 0.44287
C_ C_ 0.60935 0.15203 0.258154 0.18498
C_ C_ 0.576797 0.11129 0.265336 -0.08735
C_ C_ 0.564482 0.0994752 0.293977 -0.08735
C_ C_ 0.582981 0.131754 0.31595 -0.08735
C_ C_ 0.616642 0.171424 0.309463 0.18498
C_ C_ 0.629386 0.181618 0.280798 -0.05681
C_ C_ 0.663921 0.221046 0.276064 -0.08735
C_ C_ 0.681148 0.252168 0.29759 -0.08735
C_ C_ 0.667783 0.237729 0.3262 0.1947
C_ C_ 0.760441 0.31227 0.163201 0.68181
C_ C_ 0.704507 0.307395 0.158509 -0.05681
C_ C_ 0.670402 0.30316 0.181924 -0.08735
C_ C_ 0.618347 0.306531 0.177258 -0.05681
C_ C_ 0.599307 0.308758 0.148799 -0.05681
C_ C_ 0.632796 0.314467 0.126409 -0.08735
C_ C_ 0.686015 0.311692 0.13043 -0.08735
C_ C_ 0.582216 0.301203 0.198243 -0.08735
C_ C_ 0.529935 0.299428 0.193151 -0.08735
C_ C_ 0.511171 0.305909 0.165166 -0.05681
C_ C_ 0.547278 0.314274 0.143674 -0.08735
C_ C_ 0.86801 0.217309 0.165307 0.68181
C_ C_ 0.860244 0.415959 0.158145 0.68181
C_ C_ 0.869379 0.472209 0.155219 -0.05681
C_ C_ 0.864808 0.00471542 0.173153 -0.08735
C_ C_ 0.870582 0.0576584 0.172048 -0.05681
C_ C_ 0.877832 0.0814258 0.144786 -0.05681
C_ C_ 0.886282 0.050694 0.120477 -0.08735
C_ C_ 0.884441 0.491996 0.129676 -0.08735
C_ C_ 0.861179 0.0859973 0.195209 -0.08735
C_ C_ 0.861076 0.138435 0.193889 -0.08735
C_ C_ 0.869503 0.162714 0.167025 -0.05681
C_ C_ 0.878328 0.133679 0.142049 -0.08735
C_ C_ 0.961833 0.323874 0.159844 0.68181
C_ C_ 0.902198 0.368323 0.239343 0.1947
C_ C_ 0.908619 0.389102 0.266795 -0.08735
C_ C_ 0.890544 0.361169 0.289962 -0.08735
C_ C_ 0.862829 0.317366 0.285789 -0.05681
C_ C_ 0.851577 0.301245 0.258018 0.18498
C_ C_ 0.819562 0.260061 0.252171 -0.08735
C_ C_ 0.801979 0.230057 0.275406 -0.08735
C_ C_ 0.821474 0.237046 0.30297 -0.08735
C_ C_ 0.848364 0.283723 0.308734 0.18498
C_ C_ 0.815895 0.307162 0.3549 0.44287
C_ C_ 0.903516 0.291652 0.350466 0.44287
C_ C_ 0.909539 0.306439 0.379002 -0.05681
C_ C_ 0.957162 0.308324 0.392096 -0.08735
C_ C_ 0.964804 0.315614 0.421719 -0.08735
C_ C_ 0.92249 0.327454 0.438433 -0.05681
C_ C_ 0.87249 0.321617 0.426912 -0.05681
C_ C_ 0.867311 0.311299 0.396336 -0.05681
C_ C_ 0.820564 0.310817 0.384326 -0.05681
C_ C_ 0.775161 0.3183 0.401639 -0.08735
C_ C_ 0.780103 0.329173 0.431424 -0.08735
C_ C_ 0.829687 0.33064 0.445074 -0.05681
C_ C_ 0.838338 0.345231 0.473849 0.44287
C_ C_ 0.927623 0.334403 0.468991 0.44287
C_ C_ 0.899336 0.34352 0.0161665 0.18498
C_ C_ 0.931853 0.385622 0.0238902 -0.08735
C_ C_ 0.943217 0.394732 0.0528687 -0.08735
C_ C_ 0.915819 0.369768 0.0746039 -0.08735
C_ C_ 0.881739 0.330225 0.0689534 0.18498
C_ C_ 0.876258 0.314819 0.0392337 -0.05681
C_ C_ 0.843396 0.274434 0.0333089 -0.08735
C_ C_ 0.820292 0.248343 0.0553073 -0.08735
C_ C_ 0.828297 0.262252 0.0843526 0.1947
N_ N_ 0.639281 0.171406 0.477332 -0.29468
N_ N_ 0.647264 0.191763 0.0787011 -0.17154
N_ N_ 0.616998 0.161994 0.227164 -0.17154
N_ N_ 0.638787 0.199232 0.331905 -0.29468
N_ N_ 0.867947 0.330135 0.235336 -0.29468
N_ N_ 0.856703 0.295365 0.337898 -0.17154
N_ N_ 0.884883 0.341699 0.485445 -0.17154
N_ N_ 0.857468 0.304375 0.0898728 -0.29468
O_ O_ 0.713141 0.193499 0.426787 -0.58347
O_ O_ 0.712606 0.200528 0.380704 -0.58347
O_ O_ 0.624699 0.258089 0.433445 -0.58347
O_ O_ 0.631253 0.264214 0.387233 -0.58347
O_ O_ 0.645034 0.110019 0.421533 -0.58347
O_ O_ 0.63849 0.117814 0.374882 -0.58347
O_ O_ 0.566448 0.170126 0.430259 -0.58347
O_ O_ 0.560791 0.187479 0.384913 -0.58347
O_ O_ 0.560318 0.210149 0.0744859 -0.46727
O_ O_ 0.731241 0.16791 0.0810556 -0.46727
O_ O_ 0.534599 0.191033 0.220107 -0.46727
O_ O_ 0.703174 0.145409 0.232025 -0.46727
O_ O_ 0.780539 0.315634 0.187607 -0.58347
O_ O_ 0.791199 0.301518 0.142734 -0.58347
O_ O_ 0.862513 0.244103 0.187156 -0.58347
O_ O_ 0.872374 0.238251 0.14123 -0.58347
O_ O_ 0.854596 0.396114 0.182857 -0.58347
O_ O_ 0.85939 0.387949 0.136173 -0.58347
O_ O_ 0.932572 0.324973 0.18171 -0.58347
O_ O_ 0.941781 0.317627 0.134723 -0.58347
O_ O_ 0.943444 0.29446 0.334635 -0.46727
O_ O_ 0.774565 0.320862 0.343141 -0.46727
O_ O_ 0.974492 0.338517 0.479375 -0.46727
O_ O_ 0.797752 0.351658 0.490393 -0.46727
Zn Zn 0.624399 0.188495 0.8796 0.90689
Zn Zn 0.626568 0.183224 0.927286 0.90689
Zn Zn 0.864098 0.320015 0.63741 0.90689
Zn Zn 0.856761 0.325143 0.683202 0.90689
H_ H_ 0.795851 0.200462 0.943752 0.11455
H_ H_ 0.868802 0.163694 0.847951 0.11455
H_ H_ 0.777201 0.162833 0.854683 0.11455
H_ H_ 0.886837 0.20156 0.963183 0.11455
H_ H_ 0.977953 0.206757 0.9536 0.11455
H_ H_ 0.954581 0.172897 0.865121 0.11455
H_ H_ 0.632084 0.0191329 0.94429 0.11455
H_ H_ 0.678992 0.440801 0.85088 0.11455
H_ H_ 0.629782 0.0266744 0.849368 0.11455
H_ H_ 0.609279 0.430103 0.961068 0.11455
H_ H_ 0.602106 0.343356 0.954739 0.11455
H_ H_ 0.642398 0.358098 0.867667 0.11455
H_ H_ 0.576052 0.11308 0.96259 0.11455
H_ H_ 0.596495 0.068723 0.51498 0.11455
H_ H_ 0.630057 0.121265 0.554884 0.11455
H_ H_ 0.677754 0.254406 0.972457 0.11455
H_ H_ 0.724193 0.312082 0.509557 0.11455
H_ H_ 0.688276 0.298385 0.557689 0.11455
H_ H_ 0.520456 0.184056 0.620701 0.11455
H_ H_ 0.503635 0.189257 0.6744 0.11455
H_ H_ 0.770788 0.198598 0.635242 0.11455
H_ H_ 0.763528 0.173149 0.686374 0.11455
H_ H_ 0.579657 0.0889691 0.746323 0.11455
H_ H_ 0.559157 0.0577229 0.794518 0.11455
H_ H_ 0.575736 0.120681 0.834439 0.11455
H_ H_ 0.660254 0.247005 0.753124 0.11455
H_ H_ 0.706105 0.287287 0.7973 0.11455
H_ H_ 0.671014 0.272001 0.844744 0.11455
H_ H_ 0.684829 0.304628 0.697676 0.11455
H_ H_ 0.617345 0.330421 0.599712 0.11455
H_ H_ 0.710529 0.338004 0.60869 0.11455
H_ H_ 0.602271 0.312198 0.716341 0.11455
H_ H_ 0.50625 0.301763 0.709048 0.11455
H_ H_ 0.529916 0.344882 0.620067 0.11455
H_ H_ 0.87221 0.49122 0.696982 0.11455
H_ H_ 0.871109 0.0688049 0.603222 0.11455
H_ H_ 0.852235 0.477044 0.605242 0.11455
H_ H_ 0.868656 0.0776876 0.722503 0.11455
H_ H_ 0.89047 0.168736 0.715572 0.11455
H_ H_ 0.867932 0.154521 0.626351 0.11455
H_ H_ 0.915571 0.401091 0.716993 0.11455
H_ H_ 0.930565 0.433154 0.766162 0.11455
H_ H_ 0.884542 0.39116 0.807827 0.11455
H_ H_ 0.809669 0.256696 0.728367 0.11455
H_ H_ 0.794218 0.197727 0.769679 0.11455
H_ H_ 0.81014 0.230709 0.819599 0.11455
H_ H_ 0.987682 0.307595 0.875827 0.11455
H_ H_ -9.3516e-05 0.304755 0.927592 0.11455
H_ H_ 0.740417 0.318556 0.895523 0.11455
H_ H_ 0.749239 0.327624 0.945023 0.11455
H_ H_ 0.955689 0.402836 1.00784949 0.11455
H_ H_ 0.925136 0.45652 0.556097 0.11455
H_ H_ 0.912994 0.394406 0.592901 0.11455
H_ H_ 0.870626 0.253689 0.510214 0.11455
H_ H_ 0.828004 0.204526 0.54719 0.11455
H_ H_ 0.822358 0.243591 0.599232 0.11455
C_ C_ 0.725938 0.196394 0.90257 0.68181
C_ C_ 0.781072 0.190594 0.898125 -0.05681
C_ C_ 0.812655 0.194409 0.92274 -0.08735
C_ C_ 0.868203 0.188908 0.918477 -0.05681
C_ C_ 0.88805 0.181436 0.890757 -0.05681
C_ C_ 0.854105 0.169248 0.868714 -0.08735
C_ C_ 0.801772 0.173944 0.872102 -0.08735
C_ C_ 0.900335 0.198355 0.941652 -0.08735
C_ C_ 0.953028 0.198138 0.936989 -0.08735
C_ C_ 0.972868 0.183799 0.910786 -0.05681
C_ C_ 0.940634 0.180626 0.886393 -0.08735
C_ C_ 0.622185 0.284223 0.908276 0.68181
C_ C_ 0.630517 0.088843 0.899068 0.68181
C_ C_ 0.628161 0.0309707 0.897681 -0.05681
C_ C_ 0.622247 0.500745 0.920312 -0.08735
C_ C_ 0.622681 0.447761 0.91664 -0.05681
C_ C_ 0.639593 0.426972 0.890331 -0.05681
C_ C_ 0.662907 0.459107 0.869731 -0.08735
C_ C_ 0.662028 0.512236 0.872878 -0.08735
C_ C_ 0.614298 0.41569 0.939534 -0.08735
C_ C_ 0.620086 0.364885 0.938102 -0.08735
C_ C_ 0.62705 0.341844 0.911116 -0.05681
C_ C_ 0.639249 0.373844 0.888104 -0.08735
C_ C_ 0.527457 0.177148 0.904197 0.68181
C_ C_ 0.597265 0.12629 0.979061 0.1947
C_ C_ 0.613477 0.109266 0.511052 -0.08735
C_ C_ 0.626197 0.140843 0.533621 -0.08735
C_ C_ 0.648284 0.189274 0.528025 -0.05681
C_ C_ 0.657187 0.201934 0.498995 0.18498
C_ C_ 0.671725 0.240264 0.993902 -0.08735
C_ C_ 0.697017 0.280342 0.51371 -0.08735
C_ C_ 0.68416 0.270377 0.541995 -0.08735
C_ C_ 0.66483 0.223782 0.550442 0.18498
C_ C_ 0.697201 0.202281 0.597487 0.44287
C_ C_ 0.607041 0.209153 0.592479 0.44287
C_ C_ 0.599423 0.204823 0.62239 -0.05681
C_ C_ 0.550042 0.199176 0.63474 -0.08735
C_ C_ 0.542969 0.194507 0.664578 -0.08735
C_ C_ 0.58641 0.186466 0.681527 -0.05681
C_ C_ 0.634277 0.18172 0.66876 -0.05681
C_ C_ 0.642699 0.195948 0.639758 -0.05681
C_ C_ 0.692782 0.19365 0.626859 -0.05681
C_ C_ 0.733194 0.186922 0.643652 -0.08735
C_ C_ 0.7274 0.179843 0.673675 -0.08735
C_ C_ 0.677804 0.177202 0.686162 -0.05681
C_ C_ 0.66968 0.165166 0.715216 0.44287
C_ C_ 0.582301 0.182198 0.711763 0.44287
C_ C_ 0.618154 0.154424 0.757606 0.18498
C_ C_ 0.59285 0.110491 0.763506 -0.08735
C_ C_ 0.581761 0.0948314 0.791482 -0.08735
C_ C_ 0.59362 0.125904 0.814328 -0.08735
C_ C_ 0.621395 0.170962 0.809296 0.18498
C_ C_ 0.635228 0.185769 0.781229 -0.05681
C_ C_ 0.659218 0.230875 0.776562 -0.08735
C_ C_ 0.676105 0.259251 0.79932 -0.08735
C_ C_ 0.658049 0.249708 0.82638 0.1947
C_ C_ 0.761367 0.316948 0.657157 0.68181
C_ C_ 0.70422 0.316516 0.652994 -0.05681
C_ C_ 0.671272 0.30928 0.676538 -0.08735
C_ C_ 0.617671 0.312386 0.671843 -0.05681
C_ C_ 0.598569 0.32243 0.643386 -0.05681
C_ C_ 0.633412 0.325755 0.62035 -0.08735
C_ C_ 0.685365 0.328536 0.626831 -0.08735
C_ C_ 0.584734 0.313402 0.694858 -0.08735
C_ C_ 0.531346 0.308239 0.690622 -0.08735
C_ C_ 0.510995 0.32099 0.664341 -0.05681
C_ C_ 0.545504 0.330958 0.640924 -0.08735
C_ C_ 0.874074 0.22088 0.667451 0.68181
C_ C_ 0.854498 0.42183 0.654462 0.68181
C_ C_ 0.857974 0.478731 0.651439 -0.05681
C_ C_ 0.858619 0.00691353 0.678588 -0.08735
C_ C_ 0.868461 0.0588355 0.676335 -0.05681
C_ C_ 0.868334 0.0812194 0.649226 -0.05681
C_ C_ 0.872639 0.0529382 0.624775 -0.08735
C_ C_ 0.856508 0.500907 0.624806 -0.08735
C_ C_ 0.873379 0.0907314 0.701499 -0.08735
C_ C_ 0.885273 0.14212 0.697733 -0.08735
C_ C_ 0.877309 0.165061 0.670688 -0.05681
C_ C_ 0.87097 0.13513 0.647051 -0.08735
C_ C_ 0.960209 0.332093 0.661198 0.68181
C_ C_ 0.89588 0.382617 0.735758 0.1947
C_ C_ 0.902707 0.401609 0.764018 -0.08735
C_ C_ 0.885132 0.375415 0.786847 -0.08735
C_ C_ 0.864999 0.32684 0.78202 -0.05681
C_ C_ 0.8526 0.31127 0.75421 0.18498
C_ C_ 0.823498 0.267251 0.749747 -0.08735
C_ C_ 0.811516 0.234598 0.77295 -0.08735
C_ C_ 0.826525 0.249359 0.801095 -0.08735
C_ C_ 0.84841 0.296307 0.805494 0.18498
C_ C_ 0.814312 0.32014 0.85336 0.44287
C_ C_ 0.902255 0.310989 0.84734 0.44287
C_ C_ 0.909017 0.318206 0.877054 -0.05681
C_ C_ 0.957481 0.315703 0.889112 -0.08735
C_ C_ 0.966109 0.31907 0.918886 -0.08735
C_ C_ 0.923164 0.326043 0.936949 -0.05681
C_ C_ 0.875127 0.329256 0.925687 -0.05681
C_ C_ 0.86823 0.321084 0.895469 -0.05681
C_ C_ 0.81934 0.324718 0.883271 -0.05681
C_ C_ 0.778192 0.319217 0.902649 -0.08735
C_ C_ 0.784828 0.327986 0.931887 -0.08735
C_ C_ 0.8332 0.336738 0.944181 -0.05681
C_ C_ 0.841714 0.341921 0.974564 0.44287
C_ C_ 0.929747 0.327791 0.967003 0.44287
C_ C_ 0.892708 0.353476 0.514727 0.18498
C_ C_ 0.905844 0.40459 0.521089 -0.08735
C_ C_ 0.909959 0.42076 0.549548 -0.08735
C_ C_ 0.902632 0.385058 0.571483 -0.08735
C_ C_ 0.881515 0.338157 0.565279 0.18498
C_ C_ 0.882311 0.319124 0.537686 -0.05681
C_ C_ 0.867093 0.268633 0.533099 -0.08735
C_ C_ 0.846298 0.239756 0.55445 -0.08735
C_ C_ 0.842968 0.2621 0.582027 0.1947
N_ N_ 0.624141 0.171675 0.975402 -0.29468
N_ N_ 0.655784 0.212459 0.580791 -0.17154
N_ N_ 0.622765 0.167676 0.727654 -0.17154
N_ N_ 0.634619 0.202439 0.831647 -0.29468
N_ N_ 0.868923 0.338635 0.731123 -0.29468
N_ N_ 0.85536 0.312487 0.835639 -0.17154
N_ N_ 0.88952 0.336831 0.985236 -0.17154
N_ N_ 0.86197 0.309739 0.587418 -0.29468
O_ O_ 0.705606 0.188053 0.926365 -0.58347
O_ O_ 0.699656 0.207243 0.881036 -0.58347
O_ O_ 0.634819 0.256172 0.929048 -0.58347
O_ O_ 0.611195 0.262822 0.884036 -0.58347
O_ O_ 0.627345 0.110091 0.923005 -0.58347
O_ O_ 0.640318 0.115324 0.877133 -0.58347
O_ O_ 0.555077 0.180996 0.926183 -0.58347
O_ O_ 0.546635 0.176237 0.879458 -0.58347
O_ O_ 0.569693 0.228479 0.576709 -0.46727
O_ O_ 0.742302 0.200864 0.585806 -0.46727
O_ O_ 0.5371 0.182585 0.723114 -0.46727
O_ O_ 0.708916 0.159294 0.732161 -0.46727
O_ O_ 0.780136 0.317916 0.681692 -0.58347
O_ O_ 0.789157 0.305655 0.636912 -0.58347
O_ O_ 0.866544 0.248357 0.689376 -0.58347
O_ O_ 0.872973 0.242161 0.643299 -0.58347
O_ O_ 0.850251 0.401516 0.678794 -0.58347
O_ O_ 0.852495 0.393384 0.632066 -0.58347
O_ O_ 0.932392 0.333284 0.682934 -0.58347
O_ O_ 0.940549 0.324572 0.637731 -0.58347
O_ O_ 0.943173 0.308851 0.830467 -0.46727
O_ O_ 0.768329 0.322539 0.840242 -0.46727
O_ O_ 0.97397 0.311231 0.977745 -0.46727
O_ O_ 0.805085 0.35402 0.991615 -0.46727
Zn Zn 0.63369 0.690741 0.383626 0.90689
Zn Zn 0.643507 0.684309 0.431422 0.90689
Zn Zn 0.877318 0.814866 0.135065 0.90689
Zn Zn 0.872041 0.825176 0.182678 0.90689
H_ H_ 0.810593 0.699415 0.448411 0.11455
H_ H_ 0.88257 0.669547 0.351861 0.11455
H_ H_ 0.789526 0.670331 0.359789 0.11455
H_ H_ 0.899299 0.699751 0.466987 0.11455
H_ H_ 0.990511 0.705849 0.458462 0.11455
H_ H_ 0.966784 0.671701 0.36878 0.11455
H_ H_ 0.671751 0.519043 0.440519 0.11455
H_ H_ 0.680637 0.936101 0.352052 0.11455
H_ H_ 0.610549 0.536551 0.35578 0.11455
H_ H_ 0.55838 0.935107 0.446815 0.11455
H_ H_ 0.576239 0.842696 0.44985 0.11455
H_ H_ 0.665475 0.854505 0.37328 0.11455
H_ H_ 0.576428 0.619506 0.46812 0.11455
H_ H_ 0.553492 0.587778 0.0135724 0.11455
H_ H_ 0.603144 0.617241 0.0538403 0.11455
H_ H_ 0.704934 0.746407 0.47366 0.11455
H_ H_ 0.726648 0.787497 0.0147127 0.11455
H_ H_ 0.710842 0.768136 0.0641461 0.11455
H_ H_ 0.519155 0.679079 0.121146 0.11455
H_ H_ 0.509712 0.669736 0.173128 0.11455
H_ H_ 0.76911 0.651046 0.138132 0.11455
H_ H_ 0.760333 0.645797 0.188279 0.11455
H_ H_ 0.59017 0.571646 0.25424 0.11455
H_ H_ 0.563655 0.554368 0.302574 0.11455
H_ H_ 0.573942 0.6217 0.33836 0.11455
H_ H_ 0.680447 0.733133 0.25694 0.11455
H_ H_ 0.701841 0.785753 0.299484 0.11455
H_ H_ 0.683913 0.756965 0.348244 0.11455
H_ H_ 0.703117 0.808359 0.193288 0.11455
H_ H_ 0.634852 0.827019 0.0955218 0.11455
H_ H_ 0.72665 0.831581 0.104228 0.11455
H_ H_ 0.620268 0.770661 0.209788 0.11455
H_ H_ 0.527202 0.787959 0.203297 0.11455
H_ H_ 0.547528 0.810809 0.115847 0.11455
H_ H_ 0.863581 0.986737 0.1945 0.11455
H_ H_ 0.905014 0.557698 0.105332 0.11455
H_ H_ 0.88288 0.973074 0.104112 0.11455
H_ H_ 0.860733 0.572743 0.220132 0.11455
H_ H_ 0.863326 0.666083 0.213489 0.11455
H_ H_ 0.917217 0.646546 0.127769 0.11455
H_ H_ 0.904894 0.903978 0.216284 0.11455
H_ H_ 0.920604 0.939092 0.265847 0.11455
H_ H_ 0.88555 0.889749 0.309536 0.11455
H_ H_ 0.812188 0.754196 0.22353 0.11455
H_ H_ 0.794317 0.696674 0.264479 0.11455
H_ H_ 0.801027 0.728229 0.314141 0.11455
H_ H_ 0.988537 0.808408 0.368671 0.11455
H_ H_ 0.00714774 0.822246 0.420421 0.11455
H_ H_ 0.741925 0.817699 0.392534 0.11455
H_ H_ 0.749665 0.836654 0.442282 0.11455
H_ H_ 0.932004 0.9265 0.499278 0.11455
H_ H_ 0.971418 0.938054 0.0504872 0.11455
H_ H_ 0.939873 0.884058 0.0919383 0.11455
H_ H_ 0.852707 0.761023 0.00921584 0.11455
H_ H_ 0.827595 0.708368 0.0473657 0.11455
H_ H_ 0.827176 0.743338 0.097836 0.11455
C_ C_ 0.735707 0.689559 0.407566 0.68181
C_ C_ 0.792361 0.683436 0.403726 -0.05681
C_ C_ 0.827235 0.689811 0.426913 -0.08735
C_ C_ 0.880001 0.689624 0.422934 -0.05681
C_ C_ 0.898178 0.674642 0.395344 -0.05681
C_ C_ 0.867746 0.673669 0.371632 -0.08735
C_ C_ 0.814276 0.676423 0.376426 -0.08735
C_ C_ 0.913595 0.696375 0.445404 -0.08735
C_ C_ 0.966539 0.697732 0.440994 -0.08735
C_ C_ 0.985687 0.683693 0.413975 -0.05681
C_ C_ 0.951051 0.674062 0.391034 -0.08735
C_ C_ 0.630436 0.786519 0.411935 0.68181
C_ C_ 0.641933 0.5901 0.402709 0.68181
C_ C_ 0.638635 0.533755 0.398955 -0.05681
C_ C_ 0.61536 1.00245839 0.415765 -0.08735
C_ C_ 0.613287 0.949633 0.41265 -0.05681
C_ C_ 0.63526 0.925098 0.389509 -0.05681
C_ C_ 0.654703 0.954393 0.367031 -0.08735
C_ C_ 0.657197 1.00745554 0.369213 -0.08735
C_ C_ 0.586324 0.918599 0.432979 -0.08735
C_ C_ 0.597228 0.866769 0.435407 -0.08735
C_ C_ 0.626734 0.843769 0.413375 -0.05681
C_ C_ 0.644252 0.872267 0.390759 -0.08735
C_ C_ 0.537127 0.675325 0.40949 0.68181
C_ C_ 0.602989 0.633144 0.484593 0.1947
C_ C_ 0.58193 0.617599 0.0105064 -0.08735
C_ C_ 0.612013 0.632234 0.0328909 -0.08735
C_ C_ 0.647636 0.670738 0.029344 -0.05681
C_ C_ 0.657548 0.687574 1.000193965 0.18498
C_ C_ 0.694332 0.741022 0.495006 -0.08735
C_ C_ 0.708151 0.754413 0.0179623 -0.08735
C_ C_ 0.696645 0.742694 0.046637 -0.08735
C_ C_ 0.667097 0.701104 0.052729 0.18498
C_ C_ 0.695461 0.670328 0.0997263 0.44287
C_ C_ 0.608927 0.692522 0.0953416 0.44287
C_ C_ 0.602292 0.678883 0.124164 -0.05681
C_ C_ 0.551986 0.680871 0.136421 -0.08735
C_ C_ 0.547276 0.672567 0.165756 -0.08735
C_ C_ 0.588896 0.666812 0.183914 -0.05681
C_ C_ 0.637752 0.661021 0.171293 -0.05681
C_ C_ 0.642661 0.667064 0.141666 -0.05681
C_ C_ 0.690978 0.663876 0.129397 -0.05681
C_ C_ 0.733162 0.656005 0.146865 -0.08735
C_ C_ 0.726478 0.647886 0.175646 -0.08735
C_ C_ 0.6787 0.651397 0.188284 -0.05681
C_ C_ 0.672855 0.648219 0.218682 0.44287
C_ C_ 0.584593 0.66277 0.214479 0.44287
C_ C_ 0.621585 0.645336 0.261541 0.18498
C_ C_ 0.594806 0.6009 0.269246 -0.08735
C_ C_ 0.578335 0.591086 0.297082 -0.08735
C_ C_ 0.589362 0.626113 0.317868 -0.08735
C_ C_ 0.62031 0.667523 0.312136 0.18498
C_ C_ 0.637756 0.678906 0.283344 -0.05681
C_ C_ 0.662924 0.724707 0.278563 -0.08735
C_ C_ 0.68105 0.752029 0.301442 -0.08735
C_ C_ 0.670866 0.734143 0.329701 0.1947
C_ C_ 0.777255 0.815267 0.153242 0.68181
C_ C_ 0.721498 0.815639 0.148355 -0.05681
C_ C_ 0.688717 0.803664 0.1713 -0.08735
C_ C_ 0.637199 0.800035 0.167485 -0.05681
C_ C_ 0.616234 0.809192 0.139863 -0.05681
C_ C_ 0.649961 0.818569 0.117277 -0.08735
C_ C_ 0.702974 0.819527 0.120709 -0.08735
C_ C_ 0.604151 0.786972 0.190392 -0.08735
C_ C_ 0.551824 0.788586 0.185624 -0.08735
C_ C_ 0.530376 0.80198 0.160337 -0.05681
C_ C_ 0.563036 0.810802 0.13687 -0.08735
C_ C_ 0.886196 0.720449 0.164566 0.68181
C_ C_ 0.866493 0.917891 0.152759 0.68181
C_ C_ 0.873067 0.974124 0.149162 -0.05681
C_ C_ 0.868991 0.503532 0.180214 -0.08735
C_ C_ 0.871399 0.555687 0.176173 -0.05681
C_ C_ 0.886825 0.576364 0.149262 -0.05681
C_ C_ 0.894206 0.543946 0.127125 -0.08735
C_ C_ 0.885206 0.996999 0.123072 -0.08735
C_ C_ 0.864953 0.588474 0.198762 -0.08735
C_ C_ 0.871193 0.641451 0.195195 -0.08735
C_ C_ 0.880641 0.662253 0.167554 -0.05681
C_ C_ 0.901004 0.628993 0.147032 -0.08735
C_ C_ 0.97324 0.833213 0.163938 0.68181
C_ C_ 0.893829 0.884053 0.235473 0.1947
C_ C_ 0.900059 0.904418 0.262634 -0.08735
C_ C_ 0.884741 0.874464 0.286832 -0.08735
C_ C_ 0.858787 0.828187 0.281421 -0.05681
C_ C_ 0.845865 0.814019 0.252978 0.18498
C_ C_ 0.820601 0.76638 0.246122 -0.08735
C_ C_ 0.809275 0.735019 0.268974 -0.08735
C_ C_ 0.815356 0.750711 0.297053 -0.08735
C_ C_ 0.840083 0.795472 0.304419 0.18498
C_ C_ 0.810412 0.818955 0.351996 0.44287
C_ C_ 0.896234 0.803078 0.344412 0.44287
C_ C_ 0.907073 0.815896 0.373221 -0.05681
C_ C_ 0.9578 0.818162 0.382817 -0.08735
C_ C_ 0.968337 0.826251 0.412643 -0.08735
C_ C_ 0.926831 0.82651 0.432734 -0.05681
C_ C_ 0.876907 0.827126 0.421735 -0.05681
C_ C_ 0.867912 0.827017 0.391962 -0.05681
C_ C_ 0.819167 0.826238 0.381009 -0.05681
C_ C_ 0.777374 0.829184 0.400841 -0.08735
C_ C_ 0.784268 0.829946 0.430594 -0.08735
C_ C_ 0.836446 0.834689 0.441198 -0.05681
C_ C_ 0.845943 0.838512 0.470056 0.44287
C_ C_ 0.934187 0.832119 0.462015 0.44287
C_ C_ 0.89859 0.852984 0.012503 0.18498
C_ C_ 0.926367 0.899312 0.0186269 -0.08735
C_ C_ 0.941688 0.909784 0.0471385 -0.08735
C_ C_ 0.925271 0.878369 0.0705695 -0.08735
C_ C_ 0.898006 0.833604 0.0648049 0.18498
C_ C_ 0.883481 0.821038 0.0357417 -0.05681
C_ C_ 0.859979 0.772792 0.0306782 -0.08735
C_ C_ 0.843695 0.744787 0.0536088 -0.08735
C_ C_ 0.846412 0.765185 0.080863 0.1947
N_ N_ 0.633277 0.67503 0.479807 -0.29468
N_ N_ 0.656968 0.686147 0.082655 -0.17154
N_ N_ 0.627731 0.656022 0.231603 -0.17154
N_ N_ 0.638177 0.695309 0.33477 -0.29468
N_ N_ 0.864063 0.84251 0.230722 -0.29468
N_ N_ 0.848846 0.80683 0.334607 -0.17154
N_ N_ 0.894356 0.83829 0.480484 -0.17154
N_ N_ 0.876331 0.804729 0.0873838 -0.29468
O_ O_ 0.716864 0.687253 0.431517 -0.58347
O_ O_ 0.706872 0.690784 0.385558 -0.58347
O_ O_ 0.636089 0.760689 0.434456 -0.58347
O_ O_ 0.632264 0.764808 0.387798 -0.58347
O_ O_ 0.642983 0.608299 0.4275 -0.58347
O_ O_ 0.63374 0.617627 0.381022 -0.58347
O_ O_ 0.567454 0.678356 0.430601 -0.58347
O_ O_ 0.552589 0.686472 0.383997 -0.58347
O_ O_ 0.570895 0.709918 0.0802514 -0.46727
O_ O_ 0.743641 0.667729 0.0889677 -0.46727
O_ O_ 0.53947 0.661863 0.225832 -0.46727
O_ O_ 0.712239 0.637453 0.235095 -0.46727
O_ O_ 0.795824 0.812414 0.17849 -0.58347
O_ O_ 0.804644 0.817163 0.131176 -0.58347
O_ O_ 0.883593 0.747642 0.186181 -0.58347
O_ O_ 0.879595 0.739752 0.139602 -0.58347
O_ O_ 0.852156 0.898547 0.175738 -0.58347
O_ O_ 0.882021 0.888949 0.132812 -0.58347
O_ O_ 0.948231 0.838563 0.185737 -0.58347
O_ O_ 0.952809 0.817848 0.141317 -0.58347
O_ O_ 0.932597 0.789823 0.326941 -0.46727
O_ O_ 0.767222 0.82983 0.341162 -0.46727
O_ O_ 0.980545 0.834349 0.474272 -0.46727
O_ O_ 0.809898 0.849343 0.487361 -0.46727
Zn Zn 0.629163 0.687376 0.882081 0.90689
Zn Zn 0.637195 0.685337 0.929717 0.90689
Zn Zn 0.872881 0.823461 0.632579 0.90689
Zn Zn 0.860792 0.826375 0.682462 0.90689
H_ H_ 0.806637 0.70791 0.94571 0.11455
H_ H_ 0.876258 0.667999 0.851445 0.11455
H_ H_ 0.784471 0.673407 0.856249 0.11455
H_ H_ 0.891486 0.714512 0.964053 0.11455
H_ H_ 0.985354 0.717063 0.954636 0.11455
H_ H_ 0.960131 0.664329 0.869199 0.11455
H_ H_ 0.611487 0.517538 0.940671 0.11455
H_ H_ 0.641172 0.939115 0.847137 0.11455
H_ H_ 0.679227 0.533694 0.856399 0.11455
H_ H_ 0.624095 0.929559 0.967503 0.11455
H_ H_ 0.627848 0.839081 0.960429 0.11455
H_ H_ 0.61708 0.85147 0.86935 0.11455
H_ H_ 0.56842 0.623737 0.965949 0.11455
H_ H_ 0.582399 0.577843 0.517195 0.11455
H_ H_ 0.622648 0.621747 0.555707 0.11455
H_ H_ 0.705416 0.737139 0.974101 0.11455
H_ H_ 0.740373 0.800688 0.511821 0.11455
H_ H_ 0.721732 0.778617 0.562325 0.11455
H_ H_ 0.522338 0.697632 0.619556 0.11455
H_ H_ 0.507203 0.689424 0.67122 0.11455
H_ H_ 0.771543 0.660736 0.638385 0.11455
H_ H_ 0.761666 0.65299 0.691231 0.11455
H_ H_ 0.586867 0.574924 0.749709 0.11455
H_ H_ 0.577101 0.546793 0.798239 0.11455
H_ H_ 0.596179 0.605831 0.836512 0.11455
H_ H_ 0.649324 0.748474 0.7577 0.11455
H_ H_ 0.675212 0.80181 0.798566 0.11455
H_ H_ 0.680435 0.763363 0.846004 0.11455
H_ H_ 0.690764 0.819373 0.696141 0.11455
H_ H_ 0.62972 0.812305 0.596524 0.11455
H_ H_ 0.718903 0.835232 0.606535 0.11455
H_ H_ 0.604286 0.811083 0.713279 0.11455
H_ H_ 0.511829 0.801482 0.704103 0.11455
H_ H_ 0.538312 0.835101 0.616723 0.11455
H_ H_ 0.856731 0.990518 0.699516 0.11455
H_ H_ 0.859005 0.57401 0.602014 0.11455
H_ H_ 0.841702 0.982921 0.609846 0.11455
H_ H_ 0.874694 0.57721 0.718474 0.11455
H_ H_ 0.886889 0.672313 0.712892 0.11455
H_ H_ 0.863747 0.652588 0.620688 0.11455
H_ H_ 0.905117 0.901499 0.72097 0.11455
H_ H_ 0.925575 0.922394 0.769384 0.11455
H_ H_ 0.880577 0.882368 0.809389 0.11455
H_ H_ 0.799736 0.756832 0.723179 0.11455
H_ H_ 0.780441 0.694757 0.763572 0.11455
H_ H_ 0.788313 0.717718 0.813506 0.11455
H_ H_ 0.984184 0.810617 0.869826 0.11455
H_ H_ 0.999569 0.827696 0.920442 0.11455
H_ H_ 0.73121 0.828689 0.897616 0.11455
H_ H_ 0.751547 0.830006 0.946819 0.11455
H_ H_ 0.947924 0.918673 1.00133382 0.11455
H_ H_ 0.945765 0.953669 0.55027 0.11455
H_ H_ 0.924652 0.89677 0.588064 0.11455
H_ H_ 0.86678 0.754861 0.509682 0.11455
H_ H_ 0.817201 0.713463 0.548396 0.11455
H_ H_ 0.823058 0.751165 0.597544 0.11455
C_ C_ 0.732306 0.693423 0.906607 0.68181
C_ C_ 0.787653 0.687266 0.902173 -0.05681
C_ C_ 0.821039 0.691066 0.925427 -0.08735
C_ C_ 0.874108 0.689444 0.92139 -0.05681
C_ C_ 0.894015 0.678382 0.894554 -0.05681
C_ C_ 0.860653 0.674483 0.872101 -0.08735
C_ C_ 0.807704 0.67644 0.874805 -0.08735
C_ C_ 0.907343 0.7034 0.943747 -0.08735
C_ C_ 0.95812 0.706099 0.939215 -0.08735
C_ C_ 0.977662 0.692794 0.912416 -0.05681
C_ C_ 0.946959 0.676124 0.890095 -0.08735
C_ C_ 0.619989 0.7821 0.913763 0.68181
C_ C_ 0.642335 0.589252 0.901974 0.68181
C_ C_ 0.641705 0.533192 0.897948 -0.05681
C_ C_ 0.631794 0.00120978 0.923372 -0.08735
C_ C_ 0.627807 0.946295 0.921333 -0.05681
C_ C_ 0.626791 0.92325 0.893177 -0.05681
C_ C_ 0.628602 0.95398 0.867572 -0.08735
C_ C_ 0.625006 0.00603369 0.870052 -0.08735
C_ C_ 0.620005 0.914781 0.945601 -0.08735
C_ C_ 0.62035 0.862718 0.942416 -0.08735
C_ C_ 0.617628 0.838596 0.915963 -0.05681
C_ C_ 0.618355 0.868257 0.891046 -0.08735
C_ C_ 0.531997 0.674906 0.907321 0.68181
C_ C_ 0.592502 0.634613 0.98279 0.1947
C_ C_ 0.604348 0.611119 0.511942 -0.08735
C_ C_ 0.626617 0.638453 0.534328 -0.08735
C_ C_ 0.653892 0.683381 0.529776 -0.05681
C_ C_ 0.66046 0.70069 0.501019 0.18498
C_ C_ 0.688767 0.728609 0.995276 -0.08735
C_ C_ 0.718359 0.767435 0.516895 -0.08735
C_ C_ 0.706122 0.754156 0.545113 -0.08735
C_ C_ 0.673304 0.714551 0.551969 0.18498
C_ C_ 0.702444 0.686825 0.600364 0.44287
C_ C_ 0.616361 0.703656 0.593927 0.44287
C_ C_ 0.605832 0.690994 0.622442 -0.05681
C_ C_ 0.554817 0.69034 0.633541 -0.08735
C_ C_ 0.546574 0.685517 0.663044 -0.08735
C_ C_ 0.588418 0.675909 0.682464 -0.05681
C_ C_ 0.637999 0.676192 0.670667 -0.05681
C_ C_ 0.645135 0.679823 0.640993 -0.05681
C_ C_ 0.694697 0.679596 0.630396 -0.05681
C_ C_ 0.735923 0.670246 0.647487 -0.08735
C_ C_ 0.729182 0.662898 0.677654 -0.08735
C_ C_ 0.680093 0.668003 0.689012 -0.05681
C_ C_ 0.672172 0.663785 0.719421 0.44287
C_ C_ 0.581756 0.669065 0.711609 0.44287
C_ C_ 0.617369 0.64939 0.759266 0.18498
C_ C_ 0.596223 0.601841 0.766156 -0.08735
C_ C_ 0.591362 0.58548 0.793918 -0.08735
C_ C_ 0.602111 0.620024 0.816623 -0.08735
C_ C_ 0.626196 0.666058 0.811635 0.18498
C_ C_ 0.633375 0.681678 0.782537 -0.05681
C_ C_ 0.645751 0.733752 0.778199 -0.08735
C_ C_ 0.661211 0.762994 0.801398 -0.08735
C_ C_ 0.663677 0.741563 0.828305 0.1947
C_ C_ 0.768013 0.826385 0.656196 0.68181
C_ C_ 0.711895 0.822239 0.65137 -0.05681
C_ C_ 0.678572 0.821328 0.674414 -0.08735
C_ C_ 0.626513 0.81479 0.66977 -0.05681
C_ C_ 0.608388 0.81719 0.640698 -0.05681
C_ C_ 0.64267 0.81921 0.617481 -0.08735
C_ C_ 0.694081 0.822566 0.623208 -0.08735
C_ C_ 0.588936 0.813648 0.692402 -0.08735
C_ C_ 0.538035 0.805753 0.686764 -0.08735
C_ C_ 0.52146 0.806116 0.658454 -0.05681
C_ C_ 0.555837 0.819433 0.636291 -0.08735
C_ C_ 0.876194 0.725794 0.663114 0.68181
C_ C_ 0.855084 0.921443 0.653201 0.68181
C_ C_ 0.859511 0.977714 0.652473 -0.05681
C_ C_ 0.862687 0.508355 0.676136 -0.08735
C_ C_ 0.86846 0.560949 0.673999 -0.05681
C_ C_ 0.869437 0.583844 0.647487 -0.05681
C_ C_ 0.865159 0.554733 0.622565 -0.08735
C_ C_ 0.861998 1.00181252 0.62719 -0.08735
C_ C_ 0.87369 0.594158 0.697585 -0.08735
C_ C_ 0.88226 0.648472 0.694072 -0.08735
C_ C_ 0.877158 0.669734 0.666969 -0.05681
C_ C_ 0.873196 0.636738 0.642895 -0.08735
C_ C_ 0.964775 0.836256 0.659302 0.68181
C_ C_ 0.885034 0.881167 0.737377 0.1947
C_ C_ 0.894753 0.895874 0.764931 -0.08735
C_ C_ 0.878109 0.865925 0.788237 -0.08735
C_ C_ 0.846845 0.823125 0.78211 -0.05681
C_ C_ 0.83604 0.809077 0.752603 0.18498
C_ C_ 0.80811 0.765168 0.745818 -0.08735
C_ C_ 0.792061 0.73269 0.76781 -0.08735
C_ C_ 0.802573 0.745457 0.79705 -0.08735
C_ C_ 0.830503 0.789881 0.804167 0.18498
C_ C_ 0.802509 0.804152 0.854011 0.44287
C_ C_ 0.889112 0.793472 0.845399 0.44287
C_ C_ 0.899978 0.806074 0.874755 -0.05681
C_ C_ 0.950644 0.81144 0.885269 -0.08735
C_ C_ 0.960652 0.820826 0.914707 -0.08735
C_ C_ 0.91977 0.826872 0.934554 -0.05681
C_ C_ 0.870609 0.824885 0.923557 -0.05681
C_ C_ 0.860453 0.813023 0.893727 -0.05681
C_ C_ 0.811233 0.814837 0.883564 -0.05681
C_ C_ 0.771622 0.823299 0.904417 -0.08735
C_ C_ 0.783202 0.827043 0.932855 -0.08735
C_ C_ 0.831686 0.824358 0.943123 -0.05681
C_ C_ 0.840384 0.840335 0.972085 0.44287
C_ C_ 0.928311 0.828969 0.965946 0.44287
C_ C_ 0.904327 0.851537 0.509741 0.18498
C_ C_ 0.925274 0.899639 0.516167 -0.08735
C_ C_ 0.932659 0.915613 0.545545 -0.08735
C_ C_ 0.919305 0.883209 0.567466 -0.08735
C_ C_ 0.893616 0.838393 0.562888 0.18498
C_ C_ 0.887388 0.820666 0.533836 -0.05681
C_ C_ 0.864844 0.773148 0.529866 -0.08735
C_ C_ 0.838066 0.74863 0.552361 -0.08735
C_ C_ 0.846226 0.767206 0.580533 0.1947
N_ N_ 0.629828 0.669425 0.977239 -0.29468
N_ N_ 0.663085 0.701476 0.582845 -0.17154
N_ N_ 0.62256 0.661603 0.729522 -0.17154
N_ N_ 0.63785 0.697839 0.833656 -0.29468
N_ N_ 0.856233 0.837965 0.731142 -0.29468
N_ N_ 0.840353 0.798431 0.834691 -0.17154
N_ N_ 0.888004 0.841194 0.983126 -0.17154
N_ N_ 0.873864 0.810151 0.585322 -0.29468
O_ O_ 0.713513 0.684421 0.93145 -0.58347
O_ O_ 0.703187 0.702014 0.886382 -0.58347
O_ O_ 0.643152 0.758205 0.934025 -0.58347
O_ O_ 0.608747 0.75943 0.890768 -0.58347
O_ O_ 0.628162 0.609219 0.924668 -0.58347
O_ O_ 0.649065 0.616814 0.880156 -0.58347
O_ O_ 0.561792 0.688117 0.927747 -0.58347
O_ O_ 0.551495 0.666482 0.883565 -0.58347
O_ O_ 0.576728 0.717778 0.578141 -0.46727
O_ O_ 0.74716 0.678151 0.588067 -0.46727
O_ O_ 0.537822 0.662319 0.721801 -0.46727
O_ O_ 0.710377 0.655669 0.736184 -0.46727
O_ O_ 0.785057 0.828889 0.681768 -0.58347
O_ O_ 0.797433 0.814607 0.635721 -0.58347
O_ O_ 0.859152 0.752239 0.683127 -0.58347
O_ O_ 0.888816 0.748263 0.6399 -0.58347
O_ O_ 0.863242 0.900736 0.677192 -0.58347
O_ O_ 0.857172 0.895623 0.630243 -0.58347
O_ O_ 0.937923 0.824239 0.680243 -0.58347
O_ O_ 0.946202 0.838623 0.634757 -0.58347
O_ O_ 0.927239 0.786415 0.827103 -0.46727
O_ O_ 0.755716 0.81554 0.844204 -0.46727
O_ O_ 0.974372 0.831748 0.976362 -0.46727
O_ O_ 0.8021 0.855801 0.98686 -0.46727
