_cell_length_a 26.376
_cell_length_b 26.400000238300095
_cell_length_c 46.67800035477134
_cell_angle_alpha 90.00700052986613
_cell_angle_beta 89.99899961309502
_cell_angle_gamma 90.45000003183146
_symmetry_space_group_name_H-M         'P 1'
_symmetry_Int_Tables_number            1
loop_
_symmetry_equiv_pos_as_xyz
   'x, y, z'
                         
loop_
_atom_site_label
_atom_site_type_symbol
_atom_site_fract_x 
_atom_site_fract_y
_atom_site_fract_z
_atom_site_charge
Zn Zn 0.113778 0.185667 0.383376 0.90689
Zn Zn 0.127286 0.178733 0.430775 0.90689
Zn Zn 0.369176 0.320014 0.131773 0.90689
Zn Zn 0.356797 0.325026 0.180008 0.90689
H_ H_ 0.292553 0.182235 0.444489 0.11455
H_ H_ 0.356475 0.157701 0.346205 0.11455
H_ H_ 0.265149 0.169558 0.357142 0.11455
H_ H_ 0.374907 0.178892 0.464267 0.11455
H_ H_ 0.465744 0.178766 0.457839 0.11455
H_ H_ 0.449109 0.173214 0.365257 0.11455
H_ H_ 0.167644 0.0162422 0.433799 0.11455
H_ H_ 0.135152 0.431855 0.350384 0.11455
H_ H_ 0.0811514 0.0269565 0.356709 0.11455
H_ H_ 0.125153 0.423103 0.469141 0.11455
H_ H_ 0.132241 0.338013 0.463787 0.11455
H_ H_ 0.131315 0.352487 0.371711 0.11455
H_ H_ 0.062848 0.104333 0.46829 0.11455
H_ H_ 0.0517585 0.08119 0.0176733 0.11455
H_ H_ 0.0861961 0.124975 0.0567049 0.11455
H_ H_ 0.190411 0.231817 0.473448 0.11455
H_ H_ 0.221283 0.289272 0.0128979 0.11455
H_ H_ 0.195597 0.274791 0.0627885 0.11455
H_ H_ 0.00528657 0.201215 0.12708 0.11455
H_ H_ -0.0014199999999999768 0.19874 0.176977 0.11455
H_ H_ 0.259777 0.170045 0.141972 0.11455
H_ H_ 0.24498 0.160301 0.193971 0.11455
H_ H_ 0.0706284 0.0815332 0.250208 0.11455
H_ H_ 0.0363909 0.0637427 0.299095 0.11455
H_ H_ 0.0677597 0.113414 0.339716 0.11455
H_ H_ 0.157769 0.244724 0.261355 0.11455
H_ H_ 0.190771 0.293051 0.301433 0.11455
H_ H_ 0.159917 0.268273 0.348815 0.11455
H_ H_ 0.193281 0.296679 0.195792 0.11455
H_ H_ 0.1187 0.320068 0.0986631 0.11455
H_ H_ 0.211583 0.318595 0.1057 0.11455
H_ H_ 0.10732 0.312949 0.216142 0.11455
H_ H_ 0.0134998 0.312094 0.208061 0.11455
H_ H_ 0.039485 0.324394 0.116713 0.11455
H_ H_ 0.34718 0.487184 0.185325 0.11455
H_ H_ 0.329998 0.078498 0.0997447 0.11455
H_ H_ 0.368723 0.476894 0.0983623 0.11455
H_ H_ 0.403507 0.0789861 0.210214 0.11455
H_ H_ 0.392613 0.171378 0.206945 0.11455
H_ H_ 0.345502 0.159137 0.118648 0.11455
H_ H_ 0.398337 0.399719 0.213919 0.11455
H_ H_ 0.390036 0.443927 0.261865 0.11455
H_ H_ 0.367573 0.393483 0.304267 0.11455
H_ H_ 0.310623 0.252144 0.223722 0.11455
H_ H_ 0.305984 0.188564 0.265027 0.11455
H_ H_ 0.310209 0.215233 0.312211 0.11455
H_ H_ 0.484084 0.308382 0.370319 0.11455
H_ H_ 0.499333 0.30286 0.421636 0.11455
H_ H_ 0.234539 0.329216 0.391126 0.11455
H_ H_ 0.251573 0.339843 0.442567 0.11455
H_ H_ 0.455496 0.394942 0.49491 0.11455
H_ H_ 0.476117 0.414287 0.0501429 0.11455
H_ H_ 0.44009 0.357891 0.0910784 0.11455
H_ H_ 0.347108 0.251493 0.00669838 0.11455
H_ H_ 0.291886 0.21804 0.0475762 0.11455
H_ H_ 0.297483 0.257241 0.0920444 0.11455
C_ C_ 0.218468 0.187118 0.406524 0.68181
C_ C_ 0.274461 0.187063 0.400739 -0.05681
C_ C_ 0.307921 0.179801 0.422914 -0.08735
C_ C_ 0.359083 0.173207 0.419219 -0.05681
C_ C_ 0.379809 0.171921 0.391898 -0.05681
C_ C_ 0.34468 0.167994 0.367876 -0.08735
C_ C_ 0.291573 0.175485 0.373026 -0.08735
C_ C_ 0.390233 0.174452 0.443083 -0.08735
C_ C_ 0.442077 0.174678 0.439225 -0.08735
C_ C_ 0.463718 0.169471 0.411718 -0.05681
C_ C_ 0.432618 0.172233 0.387112 -0.08735
C_ C_ 0.121835 0.282176 0.412354 0.68181
C_ C_ 0.118373 0.0852142 0.400621 0.68181
C_ C_ 0.119024 0.0301776 0.397972 -0.05681
C_ C_ 0.120799 0.497193 0.425641 -0.08735
C_ C_ 0.127043 0.443501 0.422692 -0.05681
C_ C_ 0.128686 0.42173 0.395438 -0.05681
C_ C_ 0.127706 0.452037 0.371037 -0.08735
C_ C_ 0.124143 0.505637 0.372967 -0.08735
C_ C_ 0.126291 0.411147 0.446387 -0.08735
C_ C_ 0.121537 0.359553 0.44404 -0.08735
C_ C_ 0.122314 0.336764 0.416148 -0.05681
C_ C_ 0.12703 0.368129 0.392602 -0.08735
C_ C_ 0.0222026 0.177155 0.405784 0.68181
C_ C_ 0.0819661 0.126765 0.485891 0.1947
C_ C_ 0.0754475 0.113329 0.0122849 -0.08735
C_ C_ 0.0986334 0.13761 0.0367587 -0.08735
C_ C_ 0.129199 0.179354 0.0313313 -0.05681
C_ C_ 0.14485 0.188077 1.00208919 0.18498
C_ C_ 0.174749 0.230216 0.495763 -0.08735
C_ C_ 0.198594 0.255621 0.0189937 -0.08735
C_ C_ 0.181189 0.250479 0.0469021 -0.08735
C_ C_ 0.150627 0.207784 0.0545684 0.18498
C_ C_ 0.184399 0.183488 0.101267 0.44287
C_ C_ 0.0964742 0.200207 0.0972243 0.44287
C_ C_ 0.0884517 0.188263 0.126 -0.05681
C_ C_ 0.0394154 0.190071 0.139098 -0.08735
C_ C_ 0.0328568 0.184965 0.168654 -0.08735
C_ C_ 0.0754373 0.181217 0.186007 -0.05681
C_ C_ 0.125218 0.178599 0.173904 -0.05681
C_ C_ 0.131956 0.181599 0.143697 -0.05681
C_ C_ 0.179843 0.179602 0.131699 -0.05681
C_ C_ 0.222413 0.167573 0.149928 -0.08735
C_ C_ 0.213932 0.16147 0.17877 -0.08735
C_ C_ 0.166705 0.169077 0.191263 -0.05681
C_ C_ 0.157893 0.165897 0.221533 0.44287
C_ C_ 0.0683533 0.173855 0.21556 0.44287
C_ C_ 0.103809 0.153792 0.261954 0.18498
C_ C_ 0.0790043 0.106777 0.267409 -0.08735
C_ C_ 0.060952 0.0954831 0.295959 -0.08735
C_ C_ 0.0813051 0.124718 0.318405 -0.08735
C_ C_ 0.109288 0.168254 0.313709 0.18498
C_ C_ 0.121421 0.183376 0.286369 -0.05681
C_ C_ 0.150481 0.229216 0.282178 -0.08735
C_ C_ 0.169211 0.256876 0.305034 -0.08735
C_ C_ 0.156627 0.238687 0.333427 0.1947
C_ C_ 0.265457 0.304829 0.156098 0.68181
C_ C_ 0.20911 0.311978 0.15144 -0.05681
C_ C_ 0.176763 0.301971 0.174094 -0.08735
C_ C_ 0.125023 0.308942 0.17036 -0.05681
C_ C_ 0.103921 0.310282 0.142934 -0.05681
C_ C_ 0.136701 0.312414 0.11989 -0.08735
C_ C_ 0.189638 0.310192 0.123602 -0.08735
C_ C_ 0.0920324 0.311109 0.195227 -0.08735
C_ C_ 0.0404469 0.311304 0.190959 -0.08735
C_ C_ 0.020259 0.316603 0.162457 -0.05681
C_ C_ 0.0532524 0.317178 0.138865 -0.08735
C_ C_ 0.364448 0.225377 0.161641 0.68181
C_ C_ 0.354369 0.41812 0.143456 0.68181
C_ C_ 0.356885 0.475596 0.141618 -0.05681
C_ C_ 0.390631 0.0120011 0.166877 -0.08735
C_ C_ 0.379354 0.0637961 0.166551 -0.05681
C_ C_ 0.364677 0.0884994 0.140737 -0.05681
C_ C_ 0.352913 0.0602248 0.116984 -0.08735
C_ C_ 0.362274 0.500509 0.1156 -0.08735
C_ C_ 0.39302 0.0954137 0.189424 -0.08735
C_ C_ 0.387254 0.14743 0.188012 -0.08735
C_ C_ 0.373017 0.17067 0.162915 -0.05681
C_ C_ 0.360021 0.140454 0.139069 -0.08735
C_ C_ 0.462775 0.324419 0.157038 0.68181
C_ C_ 0.37598 0.384214 0.23134 0.1947
C_ C_ 0.379528 0.403961 0.260378 -0.08735
C_ C_ 0.365354 0.375223 0.284151 -0.08735
C_ C_ 0.348249 0.324834 0.279775 -0.05681
C_ C_ 0.341044 0.308095 0.250852 0.18498
C_ C_ 0.324086 0.259818 0.246025 -0.08735
C_ C_ 0.32219 0.224543 0.268607 -0.08735
C_ C_ 0.320322 0.242463 0.297024 -0.08735
C_ C_ 0.335572 0.292357 0.303117 0.18498
C_ C_ 0.305236 0.314948 0.350966 0.44287
C_ C_ 0.393142 0.300694 0.343304 0.44287
C_ C_ 0.403336 0.311225 0.37287 -0.05681
C_ C_ 0.451491 0.306656 0.384386 -0.08735
C_ C_ 0.460941 0.305286 0.413624 -0.08735
C_ C_ 0.421783 0.312533 0.432562 -0.05681
C_ C_ 0.371402 0.317697 0.420904 -0.05681
C_ C_ 0.361929 0.319586 0.391016 -0.05681
C_ C_ 0.312728 0.324271 0.380107 -0.05681
C_ C_ 0.271883 0.332631 0.399002 -0.08735
C_ C_ 0.281714 0.33437 0.428664 -0.08735
C_ C_ 0.331804 0.329185 0.439317 -0.05681
C_ C_ 0.34193 0.334763 0.469128 0.44287
C_ C_ 0.427599 0.311944 0.463545 0.44287
C_ C_ 0.399173 0.337464 0.0108505 0.18498
C_ C_ 0.431762 0.378638 0.0178996 -0.08735
C_ C_ 0.447107 0.385405 0.0460268 -0.08735
C_ C_ 0.426295 0.357301 0.0684007 -0.08735
C_ C_ 0.386949 0.32386 0.0620704 0.18498
C_ C_ 0.380873 0.307361 0.0326504 -0.05681
C_ C_ 0.348251 0.266896 0.0281698 -0.08735
C_ C_ 0.322691 0.245084 0.0511953 -0.08735
C_ C_ 0.327372 0.264328 0.077784 0.1947
N_ N_ 0.117051 0.163917 0.479583 -0.29468
N_ N_ 0.144135 0.193872 0.0846765 -0.17154
N_ N_ 0.110451 0.170508 0.23306 -0.17154
N_ N_ 0.125938 0.196182 0.336535 -0.29468
N_ N_ 0.353424 0.339071 0.227894 -0.29468
N_ N_ 0.344813 0.305576 0.332846 -0.17154
N_ N_ 0.390232 0.327562 0.480076 -0.17154
N_ N_ 0.358739 0.303078 0.0837486 -0.29468
O_ O_ 0.199217 0.168514 0.430066 -0.58347
O_ O_ 0.187995 0.203297 0.386859 -0.58347
O_ O_ 0.135973 0.25284 0.432772 -0.58347
O_ O_ 0.104397 0.261037 0.389549 -0.58347
O_ O_ 0.11472 0.104459 0.425692 -0.58347
O_ O_ 0.126709 0.111628 0.378972 -0.58347
O_ O_ 0.0497283 0.186965 0.427528 -0.58347
O_ O_ 0.0395426 0.168288 0.381255 -0.58347
O_ O_ 0.0618857 0.228956 0.0847428 -0.46727
O_ O_ 0.228227 0.17363 0.0888702 -0.46727
O_ O_ 0.0234924 0.180389 0.226312 -0.46727
O_ O_ 0.196441 0.156696 0.239741 -0.46727
O_ O_ 0.284788 0.302204 0.181045 -0.58347
O_ O_ 0.292163 0.319573 0.13497 -0.58347
O_ O_ 0.37456 0.249969 0.184303 -0.58347
O_ O_ 0.358288 0.247651 0.138171 -0.58347
O_ O_ 0.344342 0.399773 0.167891 -0.58347
O_ O_ 0.37421 0.392249 0.123416 -0.58347
O_ O_ 0.43214 0.33726 0.176086 -0.58347
O_ O_ 0.444854 0.308038 0.13236 -0.58347
O_ O_ 0.430669 0.291599 0.325846 -0.46727
O_ O_ 0.259123 0.320121 0.340072 -0.46727
O_ O_ 0.466927 0.291536 0.475358 -0.46727
O_ O_ 0.303913 0.343823 0.487297 -0.46727
Zn Zn 0.121564 0.181327 0.886315 0.90689
Zn Zn 0.133573 0.177391 0.932965 0.90689
Zn Zn 0.373011 0.322576 0.633732 0.90689
Zn Zn 0.365302 0.324763 0.681869 0.90689
H_ H_ 0.299564 0.189149 0.947664 0.11455
H_ H_ 0.365282 0.169286 0.849972 0.11455
H_ H_ 0.277522 0.155814 0.859993 0.11455
H_ H_ 0.391305 0.207488 0.96544 0.11455
H_ H_ 0.480669 0.19053 0.95909 0.11455
H_ H_ 0.455911 0.166486 0.869268 0.11455
H_ H_ 0.113676 0.0106998 0.945918 0.11455
H_ H_ 0.159084 0.427822 0.851335 0.11455
H_ H_ 0.151948 0.0224205 0.856291 0.11455
H_ H_ 0.125456 0.425839 0.968965 0.11455
H_ H_ 0.119165 0.33712 0.964882 0.11455
H_ H_ 0.15231 0.344072 0.873407 0.11455
H_ H_ 0.0714877 0.106396 0.966659 0.11455
H_ H_ 0.0524405 0.0777186 0.517605 0.11455
H_ H_ 0.0831103 0.12586 0.557471 0.11455
H_ H_ 0.204171 0.222506 0.978884 0.11455
H_ H_ 0.21789 0.293223 0.512119 0.11455
H_ H_ 0.199725 0.27314 0.562337 0.11455
H_ H_ 0.0101621 0.21153 0.629581 0.11455
H_ H_ 0.0058977 0.208361 0.681954 0.11455
H_ H_ 0.260628 0.167362 0.63612 0.11455
H_ H_ 0.258138 0.166099 0.687259 0.11455
H_ H_ 0.0887138 0.0779027 0.752959 0.11455
H_ H_ 0.0699923 0.0517739 0.799646 0.11455
H_ H_ 0.0763045 0.113557 0.84047 0.11455
H_ H_ 0.170133 0.241342 0.76068 0.11455
H_ H_ 0.199458 0.291157 0.802764 0.11455
H_ H_ 0.17078 0.263987 0.853115 0.11455
H_ H_ 0.19258 0.332073 0.700355 0.11455
H_ H_ 0.13321 0.32105 0.59927 0.11455
H_ H_ 0.219516 0.309213 0.610092 0.11455
H_ H_ 0.0980226 0.328895 0.717798 0.11455
H_ H_ 0.0120183 0.326573 0.704213 0.11455
H_ H_ 0.0472319 0.328347 0.614366 0.11455
H_ H_ 0.362994 0.489411 0.697578 0.11455
H_ H_ 0.334184 0.0685218 0.602841 0.11455
H_ H_ 0.374315 0.48151 0.603319 0.11455
H_ H_ 0.400093 0.0706823 0.713733 0.11455
H_ H_ 0.400044 0.163205 0.713118 0.11455
H_ H_ 0.352686 0.155415 0.622962 0.11455
H_ H_ 0.41788 0.400764 0.715526 0.11455
H_ H_ 0.438126 0.426023 0.76437 0.11455
H_ H_ 0.397635 0.386146 0.80536 0.11455
H_ H_ 0.31334 0.258231 0.722494 0.11455
H_ H_ 0.292824 0.199402 0.762073 0.11455
H_ H_ 0.302724 0.222057 0.812502 0.11455
H_ H_ 0.498064 0.306715 0.870891 0.11455
H_ H_ 0.510501 0.304699 0.922152 0.11455
H_ H_ 0.244259 0.325901 0.888001 0.11455
H_ H_ 0.252786 0.329833 0.9417 0.11455
H_ H_ 0.446864 0.405582 0.00194518 0.11455
H_ H_ 0.484785 0.41681 0.546862 0.11455
H_ H_ 0.441539 0.368796 0.585808 0.11455
H_ H_ 0.35227 0.245761 0.507659 0.11455
H_ H_ 0.296838 0.220973 0.550487 0.11455
H_ H_ 0.31553 0.252261 0.596625 0.11455
C_ C_ 0.228719 0.179556 0.907469 0.68181
C_ C_ 0.283236 0.176947 0.903863 -0.05681
C_ C_ 0.316339 0.186386 0.926646 -0.08735
C_ C_ 0.370798 0.189616 0.921802 -0.05681
C_ C_ 0.389708 0.176857 0.894056 -0.05681
C_ C_ 0.354537 0.174225 0.87063 -0.08735
C_ C_ 0.302979 0.169726 0.877104 -0.08735
C_ C_ 0.403303 0.195972 0.945194 -0.08735
C_ C_ 0.45605 0.191309 0.940725 -0.08735
C_ C_ 0.475834 0.182891 0.913059 -0.05681
C_ C_ 0.442805 0.178299 0.889825 -0.08735
C_ C_ 0.124426 0.278179 0.916885 0.68181
C_ C_ 0.130287 0.0807042 0.904176 0.68181
C_ C_ 0.129478 0.0239451 0.902039 -0.05681
C_ C_ 0.143764 0.495016 0.925407 -0.08735
C_ C_ 0.141339 0.441639 0.924042 -0.05681
C_ C_ 0.150338 0.416779 0.89713 -0.05681
C_ C_ 0.155511 0.448507 0.871682 -0.08735
C_ C_ 0.150926 0.500774 0.874152 -0.08735
C_ C_ 0.125816 0.411693 0.947469 -0.08735
C_ C_ 0.119533 0.358718 0.945075 -0.08735
C_ C_ 0.131919 0.333954 0.918826 -0.05681
C_ C_ 0.14601 0.362275 0.89466 -0.08735
C_ C_ 0.0265776 0.177447 0.910374 0.68181
C_ C_ 0.0890306 0.126095 0.98519 0.1947
C_ C_ 0.0706788 0.113366 0.51394 -0.08735
C_ C_ 0.0916424 0.138522 0.536437 -0.08735
C_ C_ 0.125092 0.179372 0.531125 -0.05681
C_ C_ 0.136983 0.192908 0.501441 0.18498
C_ C_ 0.183263 0.223125 0.997121 -0.08735
C_ C_ 0.191914 0.262116 0.517502 -0.08735
C_ C_ 0.180547 0.249584 0.546251 -0.08735
C_ C_ 0.148368 0.207867 0.553939 0.18498
C_ C_ 0.186717 0.190332 0.600784 0.44287
C_ C_ 0.0971286 0.208143 0.597931 0.44287
C_ C_ 0.0924581 0.200479 0.627539 -0.05681
C_ C_ 0.0438669 0.200485 0.640843 -0.08735
C_ C_ 0.0415992 0.197964 0.670229 -0.08735
C_ C_ 0.0838696 0.184149 0.687182 -0.05681
C_ C_ 0.131706 0.180583 0.673305 -0.05681
C_ C_ 0.134804 0.184794 0.643816 -0.05681
C_ C_ 0.181913 0.183176 0.631221 -0.05681
C_ C_ 0.223734 0.170977 0.647573 -0.08735
C_ C_ 0.219355 0.160301 0.676369 -0.08735
C_ C_ 0.173704 0.16749 0.690464 -0.05681
C_ C_ 0.16982 0.159665 0.719141 0.44287
C_ C_ 0.0815587 0.176952 0.717553 0.44287
C_ C_ 0.120343 0.148254 0.762773 0.18498
C_ C_ 0.101697 0.10189 0.769788 -0.08735
C_ C_ 0.0829588 0.0913178 0.796424 -0.08735
C_ C_ 0.0907564 0.124106 0.819455 -0.08735
C_ C_ 0.112626 0.172027 0.815401 0.18498
C_ C_ 0.130444 0.18418 0.786307 -0.05681
C_ C_ 0.159626 0.227914 0.781612 -0.08735
C_ C_ 0.174788 0.257482 0.805807 -0.08735
C_ C_ 0.159077 0.24089 0.834415 0.1947
C_ C_ 0.268614 0.317638 0.659544 0.68181
C_ C_ 0.213221 0.315585 0.656397 -0.05681
C_ C_ 0.17974 0.321252 0.679377 -0.08735
C_ C_ 0.125971 0.324091 0.673662 -0.05681
C_ C_ 0.109886 0.324616 0.644748 -0.05681
C_ C_ 0.146376 0.320814 0.621908 -0.08735
C_ C_ 0.195005 0.3128 0.627973 -0.08735
C_ C_ 0.0891484 0.326012 0.694581 -0.08735
C_ C_ 0.0390655 0.327799 0.687152 -0.08735
C_ C_ 0.0213247 0.324316 0.658531 -0.05681
C_ C_ 0.0584673 0.326994 0.637039 -0.08735
C_ C_ 0.372799 0.225197 0.666531 0.68181
C_ C_ 0.370046 0.421214 0.65274 0.68181
C_ C_ 0.369601 0.479335 0.651856 -0.05681
C_ C_ 0.396998 0.0106578 0.668808 -0.08735
C_ C_ 0.383333 0.0619831 0.669307 -0.05681
C_ C_ 0.366702 0.0845654 0.644428 -0.05681
C_ C_ 0.355111 0.0532959 0.620004 -0.08735
C_ C_ 0.37276 0.502969 0.624091 -0.08735
C_ C_ 0.389656 0.090129 0.693971 -0.08735
C_ C_ 0.389727 0.142126 0.694306 -0.08735
C_ C_ 0.376856 0.1681 0.668365 -0.05681
C_ C_ 0.362048 0.138583 0.643499 -0.08735
C_ C_ 0.466633 0.327363 0.655164 0.68181
C_ C_ 0.398574 0.379962 0.732544 0.1947
C_ C_ 0.408761 0.395265 0.760903 -0.08735
C_ C_ 0.386537 0.371767 0.783651 -0.08735
C_ C_ 0.361119 0.325492 0.77972 -0.05681
C_ C_ 0.348815 0.311554 0.749897 0.18498
C_ C_ 0.321405 0.269454 0.744435 -0.08735
C_ C_ 0.307322 0.235353 0.766903 -0.08735
C_ C_ 0.320083 0.246765 0.794892 -0.08735
C_ C_ 0.347386 0.291659 0.801822 0.18498
C_ C_ 0.316798 0.317006 0.849169 0.44287
C_ C_ 0.40468 0.307965 0.842219 0.44287
C_ C_ 0.412744 0.312225 0.871576 -0.05681
C_ C_ 0.461941 0.30191 0.884645 -0.08735
C_ C_ 0.470618 0.307576 0.913626 -0.08735
C_ C_ 0.427703 0.3204 0.932404 -0.05681
C_ C_ 0.378279 0.326354 0.920781 -0.05681
C_ C_ 0.371746 0.321574 0.889969 -0.05681
C_ C_ 0.324251 0.325354 0.878924 -0.05681
C_ C_ 0.281773 0.325818 0.897522 -0.08735
C_ C_ 0.285227 0.328485 0.927746 -0.08735
C_ C_ 0.334739 0.330524 0.938861 -0.05681
C_ C_ 0.342843 0.333678 0.968434 0.44287
C_ C_ 0.43262 0.324512 0.962355 0.44287
C_ C_ 0.400603 0.342641 0.509338 0.18498
C_ C_ 0.436942 0.380198 0.514628 -0.08735
C_ C_ 0.452308 0.391781 0.542533 -0.08735
C_ C_ 0.426577 0.368872 0.564819 -0.08735
C_ C_ 0.389417 0.332007 0.560638 0.18498
C_ C_ 0.37893 0.313991 0.532108 -0.05681
C_ C_ 0.35185 0.267641 0.527917 -0.08735
C_ C_ 0.330007 0.244789 0.552191 -0.08735
C_ C_ 0.339376 0.263556 0.579561 0.1947
N_ N_ 0.120065 0.165073 0.980086 -0.29468
N_ N_ 0.143565 0.197313 0.584552 -0.17154
N_ N_ 0.124119 0.163736 0.733046 -0.17154
N_ N_ 0.129744 0.199834 0.837963 -0.29468
N_ N_ 0.36797 0.340295 0.728062 -0.29468
N_ N_ 0.356829 0.306701 0.831247 -0.17154
N_ N_ 0.390639 0.327077 0.979952 -0.17154
N_ N_ 0.368669 0.306035 0.583942 -0.29468
O_ O_ 0.209989 0.168462 0.932283 -0.58347
O_ O_ 0.198929 0.189355 0.887029 -0.58347
O_ O_ 0.140219 0.253051 0.937177 -0.58347
O_ O_ 0.110501 0.256081 0.89393 -0.58347
O_ O_ 0.129592 0.102478 0.928266 -0.58347
O_ O_ 0.12945 0.107668 0.881812 -0.58347
O_ O_ 0.0559076 0.18328 0.931618 -0.58347
O_ O_ 0.045424 0.170625 0.885234 -0.58347
O_ O_ 0.0571866 0.219019 0.581535 -0.46727
O_ O_ 0.230033 0.187351 0.589389 -0.46727
O_ O_ 0.0414636 0.191918 0.732343 -0.46727
O_ O_ 0.20991 0.140502 0.732872 -0.46727
O_ O_ 0.288829 0.320245 0.683137 -0.58347
O_ O_ 0.295834 0.321549 0.637565 -0.58347
O_ O_ 0.379391 0.252395 0.688005 -0.58347
O_ O_ 0.367815 0.247989 0.641696 -0.58347
O_ O_ 0.355437 0.398932 0.676131 -0.58347
O_ O_ 0.379472 0.396212 0.629649 -0.58347
O_ O_ 0.439274 0.337139 0.676294 -0.58347
O_ O_ 0.447432 0.311582 0.63246 -0.58347
O_ O_ 0.440937 0.294441 0.825698 -0.46727
O_ O_ 0.271383 0.322414 0.838443 -0.46727
O_ O_ 0.476621 0.321633 0.973932 -0.46727
O_ O_ 0.3049 0.342777 0.986247 -0.46727
Zn Zn 0.120141 0.684456 0.386184 0.90689
Zn Zn 0.127936 0.681536 0.433632 0.90689
Zn Zn 0.379108 0.821292 0.130701 0.90689
Zn Zn 0.367065 0.828106 0.178445 0.90689
H_ H_ 0.293625 0.699576 0.446553 0.11455
H_ H_ 0.366714 0.664126 0.349193 0.11455
H_ H_ 0.276889 0.666212 0.355345 0.11455
H_ H_ 0.382083 0.702724 0.468569 0.11455
H_ H_ 0.471263 0.696619 0.460608 0.11455
H_ H_ 0.45299 0.660932 0.371755 0.11455
H_ H_ 0.115142 0.516985 0.446037 0.11455
H_ H_ 0.098 0.936282 0.348216 0.11455
H_ H_ 0.122957 0.528854 0.353951 0.11455
H_ H_ 0.173534 0.93375 0.457721 0.11455
H_ H_ 0.168724 0.837613 0.454165 0.11455
H_ H_ 0.10181 0.855027 0.372078 0.11455
H_ H_ 0.0685789 0.616335 0.471012 0.11455
H_ H_ 0.0723362 0.574473 0.0191061 0.11455
H_ H_ 0.102737 0.62717 0.0580565 0.11455
H_ H_ 0.191489 0.74574 0.47242 0.11455
H_ H_ 0.231167 0.793096 0.0170353 0.11455
H_ H_ 0.209308 0.773027 0.0673949 0.11455
H_ H_ 0.0164119 0.700584 0.124918 0.11455
H_ H_ 0.002389999999999892 0.692765 0.176452 0.11455
H_ H_ 0.270032 0.681476 0.147632 0.11455
H_ H_ 0.251386 0.667358 0.198154 0.11455
H_ H_ 0.0649271 0.577833 0.255946 0.11455
H_ H_ 0.0285549 0.563485 0.306025 0.11455
H_ H_ 0.0529735 0.62277 0.343352 0.11455
H_ H_ 0.162508 0.73142 0.260042 0.11455
H_ H_ 0.198332 0.78152 0.304085 0.11455
H_ H_ 0.17638 0.75214 0.35208 0.11455
H_ H_ 0.207022 0.817069 0.194195 0.11455
H_ H_ 0.126547 0.844917 0.0976731 0.11455
H_ H_ 0.223591 0.850163 0.106583 0.11455
H_ H_ 0.11942 0.807865 0.214608 0.11455
H_ H_ 0.025848 0.797109 0.207949 0.11455
H_ H_ 0.0424242 0.827868 0.117665 0.11455
H_ H_ 0.3966 0.995161 0.187808 0.11455
H_ H_ 0.374387 0.571461 0.0911859 0.11455
H_ H_ 0.349925 0.984623 0.0977216 0.11455
H_ H_ 0.370037 0.574868 0.209823 0.11455
H_ H_ 0.379314 0.664407 0.207782 0.11455
H_ H_ 0.371756 0.660078 0.115814 0.11455
H_ H_ 0.415903 0.898333 0.213942 0.11455
H_ H_ 0.427641 0.933093 0.263437 0.11455
H_ H_ 0.382513 0.895641 0.303036 0.11455
H_ H_ 0.296951 0.765093 0.225092 0.11455
H_ H_ 0.279773 0.702661 0.264638 0.11455
H_ H_ 0.301141 0.733476 0.314101 0.11455
H_ H_ 0.483593 0.775929 0.370511 0.11455
H_ H_ 0.501457 0.793363 0.421043 0.11455
H_ H_ 0.246685 0.872529 0.388667 0.11455
H_ H_ 0.260299 0.862705 0.440457 0.11455
H_ H_ 0.452754 0.912952 0.495187 0.11455
H_ H_ 0.451969 0.948519 0.0485825 0.11455
H_ H_ 0.42188 0.890078 0.089666 0.11455
H_ H_ 0.345465 0.759655 0.00512394 0.11455
H_ H_ 0.309996 0.712337 0.0456177 0.11455
H_ H_ 0.33133 0.735137 0.0953179 0.11455
C_ C_ 0.223974 0.679617 0.404324 0.68181
C_ C_ 0.280197 0.680039 0.401021 -0.05681
C_ C_ 0.31072 0.695301 0.424396 -0.08735
C_ C_ 0.363035 0.69236 0.421988 -0.05681
C_ C_ 0.385243 0.676966 0.394608 -0.05681
C_ C_ 0.353656 0.673047 0.369805 -0.08735
C_ C_ 0.302881 0.674891 0.373503 -0.08735
C_ C_ 0.395093 0.694837 0.446252 -0.08735
C_ C_ 0.447822 0.687813 0.442877 -0.08735
C_ C_ 0.467954 0.671536 0.416593 -0.05681
C_ C_ 0.435344 0.667017 0.392885 -0.08735
C_ C_ 0.119026 0.782289 0.413382 0.68181
C_ C_ 0.128999 0.584098 0.403965 0.68181
C_ C_ 0.126007 0.528084 0.401156 -0.05681
C_ C_ 0.144954 0.99958 0.417972 -0.08735
C_ C_ 0.140771 0.945641 0.415951 -0.05681
C_ C_ 0.123193 0.92227 0.391183 -0.05681
C_ C_ 0.105126 0.952601 0.369361 -0.08735
C_ C_ 0.0995432 1.0055584 0.373158 -0.08735
C_ C_ 0.158196 0.915265 0.438682 -0.08735
C_ C_ 0.154996 0.861442 0.437496 -0.08735
C_ C_ 0.130836 0.838811 0.413566 -0.05681
C_ C_ 0.123106 0.869221 0.389594 -0.08735
C_ C_ 0.0259013 0.681242 0.413909 0.68181
C_ C_ 0.0984539 0.629958 0.486865 0.1947
C_ C_ 0.0930981 0.609119 0.0143055 -0.08735
C_ C_ 0.107511 0.640401 0.0373445 -0.08735
C_ C_ 0.139654 0.68362 0.0326402 -0.05681
C_ C_ 0.14954 0.698078 1.00392002 0.18498
C_ C_ 0.184759 0.73773 0.493607 -0.08735
C_ C_ 0.203161 0.765733 0.0224111 -0.08735
C_ C_ 0.192033 0.752143 0.0499343 -0.08735
C_ C_ 0.160414 0.712145 0.0565156 0.18498
C_ C_ 0.194808 0.68722 0.103975 0.44287
C_ C_ 0.105737 0.701306 0.0978197 0.44287
C_ C_ 0.097242 0.687353 0.126204 -0.05681
C_ C_ 0.0494312 0.690127 0.139115 -0.08735
C_ C_ 0.0405027 0.681748 0.1683 -0.08735
C_ C_ 0.0820383 0.680488 0.186901 -0.05681
C_ C_ 0.130981 0.674929 0.175196 -0.05681
C_ C_ 0.138161 0.685189 0.145571 -0.05681
C_ C_ 0.188181 0.689502 0.135646 -0.05681
C_ C_ 0.229562 0.679053 0.155121 -0.08735
C_ C_ 0.220908 0.662195 0.183075 -0.08735
C_ C_ 0.171108 0.664192 0.193357 -0.05681
C_ C_ 0.160689 0.654334 0.222315 0.44287
C_ C_ 0.0728975 0.674037 0.217397 0.44287
C_ C_ 0.101673 0.649791 0.263692 0.18498
C_ C_ 0.0714906 0.607848 0.271742 -0.08735
C_ C_ 0.0542353 0.59655 0.30004 -0.08735
C_ C_ 0.0650704 0.631132 0.321631 -0.08735
C_ C_ 0.103062 0.668737 0.315245 0.18498
C_ C_ 0.120953 0.679455 0.286231 -0.05681
C_ C_ 0.153373 0.722744 0.281806 -0.08735
C_ C_ 0.17003 0.751916 0.304966 -0.08735
C_ C_ 0.159541 0.733164 0.332976 0.1947
C_ C_ 0.278453 0.826938 0.153562 0.68181
C_ C_ 0.219896 0.828707 0.150896 -0.05681
C_ C_ 0.188232 0.819507 0.174392 -0.08735
C_ C_ 0.133493 0.81601 0.169985 -0.05681
C_ C_ 0.113 0.825533 0.142411 -0.05681
C_ C_ 0.143762 0.838073 0.118775 -0.08735
C_ C_ 0.197453 0.838489 0.122921 -0.08735
C_ C_ 0.101367 0.811747 0.19353 -0.08735
C_ C_ 0.0497987 0.809251 0.189893 -0.08735
C_ C_ 0.0293807 0.813607 0.161963 -0.05681
C_ C_ 0.0595566 0.826228 0.139159 -0.08735
C_ C_ 0.373077 0.725935 0.16011 0.68181
C_ C_ 0.372375 0.926293 0.147681 0.68181
C_ C_ 0.376395 0.981482 0.142896 -0.05681
C_ C_ 0.355991 0.506321 0.166328 -0.08735
C_ C_ 0.366918 0.559752 0.164879 -0.05681
C_ C_ 0.369253 0.585203 0.137441 -0.05681
C_ C_ 0.371561 0.553809 0.112757 -0.08735
C_ C_ 0.36261 0.00829993 0.117126 -0.08735
C_ C_ 0.367858 0.589768 0.188943 -0.08735
C_ C_ 0.372539 0.64352 0.188082 -0.08735
C_ C_ 0.374865 0.666961 0.16125 -0.05681
C_ C_ 0.370531 0.639396 0.136064 -0.08735
C_ C_ 0.472096 0.828031 0.155379 0.68181
C_ C_ 0.398478 0.879588 0.232201 0.1947
C_ C_ 0.399906 0.902019 0.259145 -0.08735
C_ C_ 0.375295 0.879076 0.281733 -0.08735
C_ C_ 0.348205 0.83345 0.27757 -0.05681
C_ C_ 0.341533 0.817551 0.248916 0.18498
C_ C_ 0.314393 0.772216 0.244471 -0.08735
C_ C_ 0.301819 0.739813 0.267293 -0.08735
C_ C_ 0.316677 0.754804 0.295197 -0.08735
C_ C_ 0.338051 0.802341 0.301659 0.18498
C_ C_ 0.315884 0.841542 0.34716 0.44287
C_ C_ 0.393637 0.797174 0.342314 0.44287
C_ C_ 0.40621 0.806897 0.371308 -0.05681
C_ C_ 0.453511 0.794441 0.382632 -0.08735
C_ C_ 0.463898 0.802686 0.412188 -0.08735
C_ C_ 0.425115 0.819625 0.43079 -0.05681
C_ C_ 0.377778 0.831674 0.418857 -0.05681
C_ C_ 0.371932 0.832337 0.388466 -0.05681
C_ C_ 0.324011 0.84589 0.376769 -0.05681
C_ C_ 0.283441 0.857645 0.39536 -0.08735
C_ C_ 0.29051 0.8559 0.425471 -0.08735
C_ C_ 0.337457 0.843542 0.437871 -0.05681
C_ C_ 0.345838 0.841835 0.46797 0.44287
C_ C_ 0.43162 0.821958 0.460795 0.44287
C_ C_ 0.396288 0.849903 0.0092368 0.18498
C_ C_ 0.41817 0.898242 0.015737 -0.08735
C_ C_ 0.430634 0.911646 0.0448524 -0.08735
C_ C_ 0.415665 0.87865 0.0678626 -0.08735
C_ C_ 0.386659 0.834421 0.0618657 0.18498
C_ C_ 0.382103 0.816362 0.032683 -0.05681
C_ C_ 0.356504 0.769278 0.0274459 -0.08735
C_ C_ 0.334209 0.744093 0.0498693 -0.08735
C_ C_ 0.341041 0.761288 0.0775678 0.1947
N_ N_ 0.127672 0.670581 0.480373 -0.29468
N_ N_ 0.153823 0.696766 0.0853813 -0.17154
N_ N_ 0.112262 0.659166 0.233633 -0.17154
N_ N_ 0.122387 0.696702 0.337481 -0.29468
N_ N_ 0.36815 0.838357 0.226854 -0.29468
N_ N_ 0.351418 0.817998 0.330035 -0.17154
N_ N_ 0.392846 0.835534 0.478829 -0.17154
N_ N_ 0.369256 0.803923 0.0833163 -0.29468
O_ O_ 0.202753 0.679072 0.427762 -0.58347
O_ O_ 0.196239 0.6838 0.381381 -0.58347
O_ O_ 0.131169 0.756557 0.435398 -0.58347
O_ O_ 0.115611 0.758755 0.390099 -0.58347
O_ O_ 0.125368 0.605982 0.428644 -0.58347
O_ O_ 0.127976 0.610364 0.380753 -0.58347
O_ O_ 0.0547375 0.686158 0.435867 -0.58347
O_ O_ 0.0448663 0.685556 0.388759 -0.58347
O_ O_ 0.0701622 0.717352 0.0813362 -0.46727
O_ O_ 0.238866 0.680498 0.092415 -0.46727
O_ O_ 0.0255698 0.673766 0.226848 -0.46727
O_ O_ 0.196203 0.63442 0.237788 -0.46727
O_ O_ 0.29688 0.829494 0.178369 -0.58347
O_ O_ 0.305473 0.81612 0.132783 -0.58347
O_ O_ 0.362417 0.752899 0.182033 -0.58347
O_ O_ 0.383749 0.745426 0.136347 -0.58347
O_ O_ 0.367956 0.908866 0.172973 -0.58347
O_ O_ 0.368091 0.896396 0.126335 -0.58347
O_ O_ 0.441921 0.824909 0.177086 -0.58347
O_ O_ 0.452938 0.835899 0.131625 -0.58347
O_ O_ 0.427053 0.775329 0.32452 -0.46727
O_ O_ 0.27186 0.850689 0.336208 -0.46727
O_ O_ 0.474107 0.800727 0.471765 -0.46727
O_ O_ 0.308453 0.852992 0.485561 -0.46727
Zn Zn 0.129386 0.677497 0.884881 0.90689
Zn Zn 0.139034 0.673824 0.932471 0.90689
Zn Zn 0.385725 0.818836 0.631368 0.90689
Zn Zn 0.381241 0.827761 0.680062 0.90689
H_ H_ 0.308341 0.706299 0.950861 0.11455
H_ H_ 0.373138 0.675668 0.851646 0.11455
H_ H_ 0.282911 0.67767 0.86043 0.11455
H_ H_ 0.397904 0.713538 0.968928 0.11455
H_ H_ 0.49223 0.699821 0.958095 0.11455
H_ H_ 0.461993 0.687538 0.868929 0.11455
H_ H_ 0.129545 0.514832 0.945296 0.11455
H_ H_ 0.15396 0.928359 0.853905 0.11455
H_ H_ 0.147162 0.521598 0.855399 0.11455
H_ H_ 0.0973876 0.925622 0.966726 0.11455
H_ H_ 0.0954385 0.832383 0.961267 0.11455
H_ H_ 0.153722 0.844334 0.876451 0.11455
H_ H_ 0.0886181 0.602417 0.967131 0.11455
H_ H_ 0.0802855 0.573414 0.517466 0.11455
H_ H_ 0.12204 0.622802 0.557899 0.11455
H_ H_ 0.195279 0.750802 0.979179 0.11455
H_ H_ 0.23104 0.79852 0.507966 0.11455
H_ H_ 0.215633 0.782884 0.559247 0.11455
H_ H_ 1.0319867 0.698258 0.623675 0.11455
H_ H_ 1.0219862 0.680581 0.67422 0.11455
H_ H_ 0.283771 0.691794 0.639363 0.11455
H_ H_ 0.270102 0.65 0.685734 0.11455
H_ H_ 0.0908905 0.581064 0.748418 0.11455
H_ H_ 0.0633297 0.558486 0.798207 0.11455
H_ H_ 0.079899 0.615369 0.838039 0.11455
H_ H_ 0.168974 0.745713 0.760974 0.11455
H_ H_ 0.212551 0.783598 0.802875 0.11455
H_ H_ 0.188686 0.754998 0.851735 0.11455
H_ H_ 0.208863 0.818394 0.695845 0.11455
H_ H_ 0.144592 0.833178 0.595686 0.11455
H_ H_ 0.232242 0.843281 0.603971 0.11455
H_ H_ 0.119629 0.80041 0.710947 0.11455
H_ H_ 0.0330561 0.802446 0.703165 0.11455
H_ H_ 0.0544028 0.841393 0.612806 0.11455
H_ H_ 0.414976 0.991859 0.686806 0.11455
H_ H_ 0.376325 0.574778 0.601862 0.11455
H_ H_ 0.351067 0.974803 0.603498 0.11455
H_ H_ 0.369098 0.57517 0.720353 0.11455
H_ H_ 0.369472 0.668912 0.71455 0.11455
H_ H_ 0.373549 0.654719 0.623564 0.11455
H_ H_ 0.430839 0.900931 0.716925 0.11455
H_ H_ 0.441487 0.930534 0.769936 0.11455
H_ H_ 0.407489 0.879137 0.807601 0.11455
H_ H_ 0.318485 0.763644 0.722863 0.11455
H_ H_ 0.299345 0.704599 0.760597 0.11455
H_ H_ 0.328466 0.712394 0.810388 0.11455
H_ H_ 0.49788 0.800065 0.874892 0.11455
H_ H_ 0.505249 0.818083 0.927155 0.11455
H_ H_ 0.24331 0.833301 0.88329 0.11455
H_ H_ 0.252936 0.850908 0.935721 0.11455
H_ H_ 0.436428 0.919795 0.99936196 0.11455
H_ H_ 0.459455 0.943738 0.546473 0.11455
H_ H_ 0.434897 0.88773 0.587976 0.11455
H_ H_ 0.359494 0.755456 0.506034 0.11455
H_ H_ 0.335052 0.702171 0.547038 0.11455
H_ H_ 0.342094 0.736915 0.596246 0.11455
C_ C_ 0.232375 0.683004 0.910176 0.68181
C_ C_ 0.289845 0.688186 0.906515 -0.05681
C_ C_ 0.322406 0.697802 0.92983 -0.08735
C_ C_ 0.376625 0.69658 0.924966 -0.05681
C_ C_ 0.394866 0.689285 0.896345 -0.05681
C_ C_ 0.360047 0.684507 0.872801 -0.08735
C_ C_ 0.309072 0.682 0.87864 -0.08735
C_ C_ 0.411234 0.705075 0.947479 -0.08735
C_ C_ 0.462709 0.692824 0.942065 -0.08735
C_ C_ 0.480916 0.691078 0.914502 -0.05681
C_ C_ 0.446523 0.687659 0.890761 -0.08735
C_ C_ 0.121087 0.775791 0.914011 0.68181
C_ C_ 0.146624 0.579317 0.902053 0.68181
C_ C_ 0.150217 0.52404 0.900589 -0.05681
C_ C_ 0.122708 0.993593 0.926333 -0.08735
C_ C_ 0.119642 0.939044 0.923716 -0.05681
C_ C_ 0.133235 0.915945 0.897706 -0.05681
C_ C_ 0.143927 0.947097 0.873871 -0.08735
C_ C_ 0.142468 -0.000346874 0.8758 -0.08735
C_ C_ 0.103395 0.907216 0.945397 -0.08735
C_ C_ 0.101863 0.854406 0.942109 -0.08735
C_ C_ 0.117307 0.831643 0.916145 -0.05681
C_ C_ 0.134995 0.862776 0.894213 -0.08735
C_ C_ 0.0368631 0.670018 0.90926 0.68181
C_ C_ 0.102971 0.624928 0.985497 0.1947
C_ C_ 0.094076 0.612883 0.514976 -0.08735
C_ C_ 0.120787 0.638226 0.536807 -0.08735
C_ C_ 0.148479 0.681421 0.530994 -0.05681
C_ C_ 0.153719 0.69521 0.50102 0.18498
C_ C_ 0.181042 0.739221 0.999142 -0.08735
C_ C_ 0.206423 0.768401 0.514157 -0.08735
C_ C_ 0.197231 0.756697 0.543266 -0.08735
C_ C_ 0.173021 0.711875 0.55223 0.18498
C_ C_ 0.208434 0.694044 0.599486 0.44287
C_ C_ 0.121295 0.713182 0.595526 0.44287
C_ C_ 0.11254 0.698617 0.62356 -0.05681
C_ C_ 0.0645672 0.698214 0.63707 -0.08735
C_ C_ 0.0586905 0.689852 0.666294 -0.08735
C_ C_ 0.100838 0.682739 0.684951 -0.05681
C_ C_ 0.148833 0.683552 0.671985 -0.05681
C_ C_ 0.156042 0.688857 0.641631 -0.05681
C_ C_ 0.205013 0.689571 0.629585 -0.05681
C_ C_ 0.246925 0.683995 0.646855 -0.08735
C_ C_ 0.240528 0.672013 0.67591 -0.08735
C_ C_ 0.192425 0.673938 0.689183 -0.05681
C_ C_ 0.182426 0.656973 0.718159 0.44287
C_ C_ 0.0960669 0.682045 0.715186 0.44287
C_ C_ 0.12636 0.65231 0.76062 0.18498
C_ C_ 0.0987525 0.608025 0.765241 -0.08735
C_ C_ 0.0854813 0.592935 0.79367 -0.08735
C_ C_ 0.0924052 0.626241 0.816583 -0.08735
C_ C_ 0.122321 0.66977 0.813181 0.18498
C_ C_ 0.137896 0.6836 0.785169 -0.05681
C_ C_ 0.168366 0.727167 0.781558 -0.08735
C_ C_ 0.186275 0.752102 0.8058 -0.08735
C_ C_ 0.171887 0.736164 0.832962 0.1947
C_ C_ 0.28527 0.825138 0.653104 0.68181
C_ C_ 0.229577 0.827354 0.649997 -0.05681
C_ C_ 0.195102 0.818185 0.673457 -0.08735
C_ C_ 0.142549 0.822192 0.668746 -0.05681
C_ C_ 0.122723 0.832712 0.640667 -0.05681
C_ C_ 0.15614 0.838648 0.617716 -0.08735
C_ C_ 0.207356 0.840309 0.623211 -0.08735
C_ C_ 0.107507 0.806449 0.690048 -0.08735
C_ C_ 0.0558528 0.806301 0.684236 -0.08735
C_ C_ 0.0351697 0.821952 0.657848 -0.05681
C_ C_ 0.0694431 0.832737 0.634955 -0.08735
C_ C_ 0.380818 0.726081 0.665305 0.68181
C_ C_ 0.388344 0.919886 0.647581 0.68181
C_ C_ 0.383704 0.977293 0.645424 -0.05681
C_ C_ 0.366089 0.508289 0.677234 -0.08735
C_ C_ 0.368819 0.561294 0.67516 -0.05681
C_ C_ 0.378364 0.584139 0.647238 -0.05681
C_ C_ 0.378369 0.555366 0.621993 -0.08735
C_ C_ 0.363289 1.0000285192 0.620609 -0.08735
C_ C_ 0.377385 0.592103 0.699018 -0.08735
C_ C_ 0.380019 0.645054 0.69593 -0.08735
C_ C_ 0.38156 0.669366 0.668826 -0.05681
C_ C_ 0.373863 0.638204 0.645118 -0.08735
C_ C_ 0.479323 0.822094 0.66023 0.68181
C_ C_ 0.412884 0.882417 0.734501 0.1947
C_ C_ 0.425087 0.894767 0.763784 -0.08735
C_ C_ 0.40771 0.864563 0.785936 -0.08735
C_ C_ 0.377695 0.821836 0.779462 -0.05681
C_ C_ 0.365966 0.810931 0.750152 0.18498
C_ C_ 0.334317 0.770924 0.744539 -0.08735
C_ C_ 0.317507 0.737574 0.766227 -0.08735
C_ C_ 0.336733 0.741817 0.794727 -0.08735
C_ C_ 0.35892 0.78891 0.801181 0.18498
C_ C_ 0.320643 0.808287 0.84752 0.44287
C_ C_ 0.411007 0.803594 0.843686 0.44287
C_ C_ 0.415937 0.811656 0.87384 -0.05681
C_ C_ 0.464554 0.809663 0.887538 -0.08735
C_ C_ 0.468777 0.820015 0.91641 -0.08735
C_ C_ 0.425711 0.827635 0.932834 -0.05681
C_ C_ 0.376675 0.832567 0.920144 -0.05681
C_ C_ 0.371184 0.818329 0.890384 -0.05681
C_ C_ 0.3232 0.818387 0.878137 -0.05681
C_ C_ 0.279366 0.833249 0.894432 -0.08735
C_ C_ 0.284975 0.84172 0.924112 -0.08735
C_ C_ 0.333353 0.842701 0.936668 -0.05681
C_ C_ 0.340922 0.84481 0.966872 0.44287
C_ C_ 0.428589 0.827453 0.96285 0.44287
C_ C_ 0.406252 0.847284 0.508076 0.18498
C_ C_ 0.433942 0.89221 0.513173 -0.08735
C_ C_ 0.44093 0.908535 0.542138 -0.08735
C_ C_ 0.421748 0.880373 0.565788 -0.08735
C_ C_ 0.401258 0.83174 0.56031 0.18498
C_ C_ 0.39419 0.814915 0.531389 -0.05681
C_ C_ 0.362886 0.77119 0.527373 -0.08735
C_ C_ 0.349867 0.740023 0.550755 -0.08735
C_ C_ 0.353902 0.761093 0.578238 0.1947
N_ N_ 0.131559 0.668457 0.981123 -0.29468
N_ N_ 0.16777 0.70535 0.583131 -0.17154
N_ N_ 0.136354 0.664419 0.731421 -0.17154
N_ N_ 0.141725 0.693512 0.83692 -0.29468
N_ N_ 0.384154 0.840906 0.727836 -0.29468
N_ N_ 0.36433 0.802008 0.831326 -0.17154
N_ N_ 0.387657 0.837682 0.979453 -0.17154
N_ N_ 0.381191 0.804449 0.582587 -0.29468
O_ O_ 0.212627 0.671359 0.933797 -0.58347
O_ O_ 0.205103 0.689057 0.887891 -0.58347
O_ O_ 0.145139 0.751385 0.933853 -0.58347
O_ O_ 0.116001 0.753887 0.890023 -0.58347
O_ O_ 0.14076 0.599691 0.926276 -0.58347
O_ O_ 0.146861 0.607008 0.87892 -0.58347
O_ O_ 0.0637885 0.674094 0.931135 -0.58347
O_ O_ 0.0569673 0.666612 0.885047 -0.58347
O_ O_ 0.0829518 0.726613 0.578627 -0.46727
O_ O_ 0.251632 0.68877 0.587115 -0.46727
O_ O_ 0.0577554 0.704094 0.7281 -0.46727
O_ O_ 0.220793 0.641878 0.734797 -0.46727
O_ O_ 0.30739 0.821615 0.677678 -0.58347
O_ O_ 0.311628 0.817585 0.630337 -0.58347
O_ O_ 0.383735 0.752688 0.687627 -0.58347
O_ O_ 0.389926 0.745587 0.640366 -0.58347
O_ O_ 0.387607 0.899309 0.672045 -0.58347
O_ O_ 0.379349 0.894929 0.624945 -0.58347
O_ O_ 0.452123 0.821356 0.682757 -0.58347
O_ O_ 0.457676 0.821071 0.636296 -0.58347
O_ O_ 0.451419 0.793432 0.827727 -0.46727
O_ O_ 0.27544 0.806146 0.834925 -0.46727
O_ O_ 0.472827 0.815858 0.975705 -0.46727
O_ O_ 0.303954 0.85826 0.983119 -0.46727
Zn Zn 0.614955 0.185197 0.381836 0.90689
Zn Zn 0.621986 0.178248 0.430108 0.90689
Zn Zn 0.868284 0.307811 0.130129 0.90689
Zn Zn 0.86242 0.315017 0.177723 0.90689
H_ H_ 0.793883 0.205403 0.443696 0.11455
H_ H_ 0.855746 0.1521 0.349997 0.11455
H_ H_ 0.767883 0.17836 0.355983 0.11455
H_ H_ 0.877982 0.20884 0.463562 0.11455
H_ H_ 0.969506 0.199247 0.454871 0.11455
H_ H_ 0.946159 0.154732 0.367236 0.11455
H_ H_ 0.649903 0.0151051 0.439435 0.11455
H_ H_ 0.630195 0.434718 0.347381 0.11455
H_ H_ 0.606343 0.0279049 0.351528 0.11455
H_ H_ 0.62071 0.433427 0.46556 0.11455
H_ H_ 0.615806 0.340752 0.461373 0.11455
H_ H_ 0.620551 0.348663 0.36915 0.11455
H_ H_ 0.577453 0.104514 0.467392 0.11455
H_ H_ 0.544135 0.0945452 0.0168519 0.11455
H_ H_ 0.578121 0.139684 0.0561903 0.11455
H_ H_ 0.684307 0.245456 0.470759 0.11455
H_ H_ 0.72102 0.301648 0.0115224 0.11455
H_ H_ 0.703595 0.279327 0.0615105 0.11455
H_ H_ 0.502549 0.230621 0.12103 0.11455
H_ H_ 0.487007 0.213058 0.1727 0.11455
H_ H_ 0.748363 0.161032 0.139703 0.11455
H_ H_ 0.731627 0.158688 0.19069 0.11455
H_ H_ 0.524694 0.111476 0.249439 0.11455
H_ H_ 0.504211 0.0901876 0.299279 0.11455
H_ H_ 0.541651 0.134695 0.338019 0.11455
H_ H_ 0.645423 0.250784 0.256418 0.11455
H_ H_ 0.681717 0.291085 0.295575 0.11455
H_ H_ 0.667386 0.267667 0.345008 0.11455
H_ H_ 0.691581 0.301054 0.193091 0.11455
H_ H_ 0.623808 0.347154 0.0985788 0.11455
H_ H_ 0.711822 0.335643 0.10408 0.11455
H_ H_ 0.606917 0.313727 0.213424 0.11455
H_ H_ 0.513535 0.327668 0.209245 0.11455
H_ H_ 0.540428 0.34387 0.117682 0.11455
H_ H_ 0.817414 0.476191 0.186604 0.11455
H_ H_ 0.843624 0.0572027 0.0951297 0.11455
H_ H_ 0.846158 0.468715 0.0972933 0.11455
H_ H_ 0.897716 0.0664807 0.209368 0.11455
H_ H_ 0.882291 0.157201 0.20369 0.11455
H_ H_ 0.854177 0.140709 0.11305 0.11455
H_ H_ 0.915719 0.38889 0.217186 0.11455
H_ H_ 0.921195 0.41635 0.267142 0.11455
H_ H_ 0.887629 0.366477 0.30516 0.11455
H_ H_ 0.80738 0.241229 0.219486 0.11455
H_ H_ 0.79246 0.173837 0.256771 0.11455
H_ H_ 0.802832 0.200154 0.306266 0.11455
H_ H_ 0.988849 0.277785 0.370562 0.11455
H_ H_ 0.0024900000000001032 0.313219 0.419573 0.11455
H_ H_ 0.738458 0.326173 0.381434 0.11455
H_ H_ 0.748487 0.3421 0.432159 0.11455
H_ H_ 0.928548 0.419737 0.497096 0.11455
H_ H_ 0.96645 0.416385 0.0488176 0.11455
H_ H_ 0.926034 0.365547 0.088792 0.11455
H_ H_ 0.845532 0.243309 0.00471431 0.11455
H_ H_ 0.800893 0.203024 0.0467447 0.11455
H_ H_ 0.810156 0.230714 0.094563 0.11455
C_ C_ 0.716394 0.191034 0.404603 0.68181
C_ C_ 0.77288 0.186692 0.400133 -0.05681
C_ C_ 0.807264 0.192214 0.423629 -0.08735
C_ C_ 0.859134 0.184723 0.419316 -0.05681
C_ C_ 0.877134 0.171114 0.392263 -0.05681
C_ C_ 0.843828 0.168361 0.368971 -0.08735
C_ C_ 0.794105 0.180334 0.373171 -0.08735
C_ C_ 0.89269 0.193113 0.44251 -0.08735
C_ C_ 0.944642 0.193212 0.437663 -0.08735
C_ C_ 0.965261 0.177791 0.410605 -0.05681
C_ C_ 0.93157 0.16589 0.388633 -0.08735
C_ C_ 0.612427 0.279907 0.412401 0.68181
C_ C_ 0.629862 0.0856932 0.398304 0.68181
C_ C_ 0.631556 0.0284036 0.394838 -0.05681
C_ C_ 0.624658 0.496836 0.422714 -0.08735
C_ C_ 0.628282 0.444184 0.420015 -0.05681
C_ C_ 0.623735 0.42184 0.3925 -0.05681
C_ C_ 0.630235 0.451675 0.36794 -0.08735
C_ C_ 0.62952 0.505319 0.370142 -0.08735
C_ C_ 0.622454 0.41476 0.445176 -0.08735
C_ C_ 0.613679 0.361659 0.441727 -0.08735
C_ C_ 0.61543 0.335865 0.415121 -0.05681
C_ C_ 0.618837 0.367419 0.390357 -0.08735
C_ C_ 0.518991 0.167672 0.40914 0.68181
C_ C_ 0.596442 0.123458 0.483463 0.1947
C_ C_ 0.573412 0.121576 0.0125188 -0.08735
C_ C_ 0.592185 0.148847 0.0349973 -0.08735
C_ C_ 0.630897 0.187461 0.0306566 -0.05681
C_ C_ 0.641893 0.200988 1.000877913 0.18498
C_ C_ 0.674508 0.236475 0.492987 -0.08735
C_ C_ 0.699413 0.267431 0.0169317 -0.08735
C_ C_ 0.680841 0.259309 0.0453999 -0.08735
C_ C_ 0.649238 0.217188 0.0528852 0.18498
C_ C_ 0.673537 0.182705 0.0999116 0.44287
C_ C_ 0.595209 0.221713 0.0953812 0.44287
C_ C_ 0.580177 0.20941 0.124047 -0.05681
C_ C_ 0.533211 0.217916 0.135109 -0.08735
C_ C_ 0.523352 0.208217 0.164322 -0.08735
C_ C_ 0.562524 0.191534 0.182816 -0.05681
C_ C_ 0.611356 0.185625 0.171815 -0.05681
C_ C_ 0.618779 0.189401 0.141906 -0.05681
C_ C_ 0.667514 0.180988 0.129725 -0.05681
C_ C_ 0.707811 0.168783 0.147852 -0.08735
C_ C_ 0.698914 0.16138 0.176934 -0.08735
C_ C_ 0.651915 0.174293 0.189564 -0.05681
C_ C_ 0.641933 0.16674 0.219033 0.44287
C_ C_ 0.558052 0.191439 0.2135 0.44287
C_ C_ 0.584773 0.162039 0.259335 0.18498
C_ C_ 0.548884 0.124818 0.265268 -0.08735
C_ C_ 0.536491 0.115197 0.293952 -0.08735
C_ C_ 0.55852 0.141422 0.317663 -0.08735
C_ C_ 0.592516 0.180518 0.312045 0.18498
C_ C_ 0.605549 0.193044 0.28208 -0.05681
C_ C_ 0.63678 0.234475 0.277126 -0.08735
C_ C_ 0.656629 0.260741 0.299924 -0.08735
C_ C_ 0.651841 0.242432 0.328226 0.1947
C_ C_ 0.765931 0.310667 0.150468 0.68181
C_ C_ 0.709776 0.31637 0.148152 -0.05681
C_ C_ 0.676239 0.30896 0.17126 -0.08735
C_ C_ 0.626529 0.325169 0.169705 -0.05681
C_ C_ 0.604344 0.33304 0.142997 -0.05681
C_ C_ 0.637213 0.340174 0.119308 -0.08735
C_ C_ 0.687999 0.332291 0.122768 -0.08735
C_ C_ 0.592611 0.322101 0.191904 -0.08735
C_ C_ 0.539649 0.330641 0.189819 -0.08735
C_ C_ 0.517698 0.331331 0.162109 -0.05681
C_ C_ 0.552744 0.335792 0.139166 -0.08735
C_ C_ 0.865113 0.212507 0.157179 0.68181
C_ C_ 0.858804 0.413328 0.148742 0.68181
C_ C_ 0.845042 0.466627 0.145595 -0.05681
C_ C_ 0.871908 -0.004970999999999948 0.168715 -0.08735
C_ C_ 0.87278 0.0502536 0.165508 -0.05681
C_ C_ 0.862667 0.0705242 0.13883 -0.05681
C_ C_ 0.853991 0.0397139 0.115089 -0.08735
C_ C_ 0.844083 0.490662 0.117863 -0.08735
C_ C_ 0.88295 0.0815317 0.189041 -0.08735
C_ C_ 0.873379 0.132102 0.186271 -0.08735
C_ C_ 0.867457 0.15647 0.159293 -0.05681
C_ C_ 0.861291 0.124053 0.134971 -0.08735
C_ C_ 0.962622 0.319796 0.158483 0.68181
C_ C_ 0.893609 0.36755 0.233778 0.1947
C_ C_ 0.893237 0.385467 0.261587 -0.08735
C_ C_ 0.876664 0.35432 0.283103 -0.08735
C_ C_ 0.856639 0.305888 0.277236 -0.05681
C_ C_ 0.846083 0.295371 0.247409 0.18498
C_ C_ 0.819039 0.250029 0.240955 -0.08735
C_ C_ 0.808441 0.213576 0.262108 -0.08735
C_ C_ 0.819562 0.22407 0.290855 -0.08735
C_ C_ 0.841914 0.272563 0.299252 0.18498
C_ C_ 0.809589 0.290688 0.34577 0.44287
C_ C_ 0.897632 0.283849 0.340705 0.44287
C_ C_ 0.905572 0.293152 0.370026 -0.05681
C_ C_ 0.955421 0.295186 0.38251 -0.08735
C_ C_ 0.96269 0.309852 0.410564 -0.08735
C_ C_ 0.920882 0.316032 0.427904 -0.05681
C_ C_ 0.873152 0.32039 0.41528 -0.05681
C_ C_ 0.864659 0.302314 0.387369 -0.05681
C_ C_ 0.813786 0.298748 0.375885 -0.05681
C_ C_ 0.774514 0.317046 0.392238 -0.08735
C_ C_ 0.78161 0.333487 0.420377 -0.08735
C_ C_ 0.829569 0.333004 0.432361 -0.05681
C_ C_ 0.838627 0.344858 0.462017 0.44287
C_ C_ 0.926668 0.324098 0.457432 0.44287
C_ C_ 0.897619 0.329774 0.00772556 0.18498
C_ C_ 0.931842 0.370297 0.0158638 -0.08735
C_ C_ 0.93904 0.385555 0.0440042 -0.08735
C_ C_ 0.918967 0.35688 0.0657261 -0.08735
C_ C_ 0.883881 0.31826 0.0596152 0.18498
C_ C_ 0.878015 0.301338 0.0304741 -0.05681
C_ C_ 0.845662 0.26003 0.0263689 -0.08735
C_ C_ 0.822928 0.23529 0.0495777 -0.08735
C_ C_ 0.828798 0.254271 0.0771416 0.1947
N_ N_ 0.624748 0.166436 0.478032 -0.29468
N_ N_ 0.640262 0.207839 0.0831911 -0.17154
N_ N_ 0.595871 0.175722 0.230199 -0.17154
N_ N_ 0.618254 0.204012 0.333978 -0.29468
N_ N_ 0.866504 0.325663 0.226175 -0.29468
N_ N_ 0.850196 0.285075 0.328795 -0.17154
N_ N_ 0.88562 0.33492 0.474119 -0.17154
N_ N_ 0.857699 0.295523 0.0818738 -0.29468
O_ O_ 0.699689 0.179083 0.42955 -0.58347
O_ O_ 0.688023 0.193238 0.383307 -0.58347
O_ O_ 0.612973 0.250818 0.433972 -0.58347
O_ O_ 0.609305 0.259758 0.387719 -0.58347
O_ O_ 0.623456 0.104826 0.422601 -0.58347
O_ O_ 0.624075 0.112508 0.376538 -0.58347
O_ O_ 0.547821 0.168956 0.432478 -0.58347
O_ O_ 0.540757 0.176337 0.384724 -0.58347
O_ O_ 0.564368 0.24701 0.0801183 -0.46727
O_ O_ 0.717567 0.169194 0.0889234 -0.46727
O_ O_ 0.515581 0.205749 0.225298 -0.46727
O_ O_ 0.678197 0.149941 0.235961 -0.46727
O_ O_ 0.786746 0.310617 0.175679 -0.58347
O_ O_ 0.795256 0.30933 0.128543 -0.58347
O_ O_ 0.867723 0.239091 0.179654 -0.58347
O_ O_ 0.869166 0.234416 0.133522 -0.58347
O_ O_ 0.860715 0.392335 0.173323 -0.58347
O_ O_ 0.866849 0.386705 0.127083 -0.58347
O_ O_ 0.934037 0.322736 0.17994 -0.58347
O_ O_ 0.944333 0.307587 0.13512 -0.58347
O_ O_ 0.938169 0.28031 0.323177 -0.46727
O_ O_ 0.764913 0.298431 0.33294 -0.46727
O_ O_ 0.971391 0.321657 0.470072 -0.46727
O_ O_ 0.801292 0.362565 0.478546 -0.46727
Zn Zn 0.625456 0.190719 0.882365 0.90689
Zn Zn 0.631709 0.184893 0.930066 0.90689
Zn Zn 0.873756 0.307553 0.629045 0.90689
Zn Zn 0.862845 0.311279 0.676727 0.90689
H_ H_ 0.796324 0.20333 0.946198 0.11455
H_ H_ 0.872772 0.176689 0.849195 0.11455
H_ H_ 0.779392 0.184606 0.853941 0.11455
H_ H_ 0.885883 0.201796 0.967172 0.11455
H_ H_ 0.975362 0.190467 0.961081 0.11455
H_ H_ 0.955271 0.164652 0.871427 0.11455
H_ H_ 0.63457 0.0206123 0.945991 0.11455
H_ H_ 0.662487 0.443092 0.851351 0.11455
H_ H_ 0.660884 0.0365394 0.856991 0.11455
H_ H_ 0.585858 0.427896 0.959832 0.11455
H_ H_ 0.590543 0.340797 0.956353 0.11455
H_ H_ 0.65144 0.361544 0.869517 0.11455
H_ H_ 0.581138 0.110114 0.96791 0.11455
H_ H_ 0.565892 0.0767924 0.515438 0.11455
H_ H_ 0.596417 0.123372 0.554258 0.11455
H_ H_ 0.692761 0.24593 0.972959 0.11455
H_ H_ 0.701021 0.305642 0.510726 0.11455
H_ H_ 0.686997 0.283816 0.559648 0.11455
H_ H_ 0.509776 0.195402 0.619645 0.11455
H_ H_ 0.498003 0.192968 0.669962 0.11455
H_ H_ 0.764438 0.174545 0.636588 0.11455
H_ H_ 0.751574 0.183945 0.687728 0.11455
H_ H_ 0.562097 0.0851757 0.745951 0.11455
H_ H_ 0.54213 0.064558 0.794951 0.11455
H_ H_ 0.58128 0.10917 0.836893 0.11455
H_ H_ 0.655405 0.242623 0.756876 0.11455
H_ H_ 0.679402 0.29791 0.795264 0.11455
H_ H_ 0.659517 0.266108 0.845828 0.11455
H_ H_ 0.694398 0.298407 0.693488 0.11455
H_ H_ 0.625757 0.318794 0.594285 0.11455
H_ H_ 0.7178 0.314036 0.602984 0.11455
H_ H_ 0.609338 0.316047 0.711814 0.11455
H_ H_ 0.512726 0.304856 0.703033 0.11455
H_ H_ 0.54065 0.330046 0.614562 0.11455
H_ H_ 0.854616 0.47918 0.694866 0.11455
H_ H_ 0.890231 0.0583692 0.592497 0.11455
H_ H_ 0.862503 0.463961 0.602303 0.11455
H_ H_ 0.869013 0.0661525 0.710909 0.11455
H_ H_ 0.869412 0.158946 0.703198 0.11455
H_ H_ 0.913914 0.139551 0.620507 0.11455
H_ H_ 0.918446 0.381436 0.709848 0.11455
H_ H_ 0.937581 0.406394 0.75903 0.11455
H_ H_ 0.905649 0.361701 0.800444 0.11455
H_ H_ 0.799013 0.244826 0.721887 0.11455
H_ H_ 0.769428 0.195184 0.761226 0.11455
H_ H_ 0.80686 0.206145 0.806423 0.11455
H_ H_ 0.992496 0.287928 0.868421 0.11455
H_ H_ 0.00344466 0.29025 0.921447 0.11455
H_ H_ 0.743647 0.334874 0.884755 0.11455
H_ H_ 0.754502 0.348957 0.936388 0.11455
H_ H_ 0.95059 0.393687 0.999506 0.11455
H_ H_ 0.950412 0.434848 0.546725 0.11455
H_ H_ 0.934969 0.372581 0.583634 0.11455
H_ H_ 0.828458 0.261652 0.500488 0.11455
H_ H_ 0.794117 0.212759 0.542392 0.11455
H_ H_ 0.816142 0.236218 0.591689 0.11455
C_ C_ 0.726159 0.199138 0.904962 0.68181
C_ C_ 0.782588 0.196394 0.900883 -0.05681
C_ C_ 0.81335 0.198024 0.924412 -0.08735
C_ C_ 0.863955 0.186314 0.922281 -0.05681
C_ C_ 0.886347 0.177239 0.894751 -0.05681
C_ C_ 0.855129 0.179676 0.870369 -0.08735
C_ C_ 0.803113 0.186871 0.872881 -0.08735
C_ C_ 0.897475 0.187833 0.946308 -0.08735
C_ C_ 0.949156 0.187415 0.941518 -0.08735
C_ C_ 0.969621 0.176074 0.914163 -0.05681
C_ C_ 0.938972 0.163337 0.892465 -0.08735
C_ C_ 0.622864 0.28594 0.912254 0.68181
C_ C_ 0.636425 0.0910283 0.903235 0.68181
C_ C_ 0.637265 0.0351419 0.900568 -0.05681
C_ C_ 0.623928 0.500495 0.923328 -0.08735
C_ C_ 0.624321 0.447854 0.92062 -0.05681
C_ C_ 0.639476 0.426322 0.894308 -0.05681
C_ C_ 0.65262 0.458196 0.87133 -0.08735
C_ C_ 0.657334 0.509358 0.875655 -0.08735
C_ C_ 0.605326 0.414494 0.941676 -0.08735
C_ C_ 0.6043 0.363336 0.938084 -0.08735
C_ C_ 0.61904 0.341285 0.913199 -0.05681
C_ C_ 0.639854 0.373902 0.891 -0.08735
C_ C_ 0.532402 0.182855 0.908916 0.68181
C_ C_ 0.591807 0.132831 0.984623 0.1947
C_ C_ 0.589939 0.105514 0.511061 -0.08735
C_ C_ 0.611041 0.131102 0.53407 -0.08735
C_ C_ 0.63751 0.177013 0.528219 -0.05681
C_ C_ 0.643909 0.195851 0.499415 0.18498
C_ C_ 0.681056 0.236713 0.995247 -0.08735
C_ C_ 0.686993 0.269566 0.515135 -0.08735
C_ C_ 0.675074 0.257407 0.543517 -0.08735
C_ C_ 0.651893 0.210457 0.550081 0.18498
C_ C_ 0.688334 0.187848 0.595508 0.44287
C_ C_ 0.599469 0.203967 0.591604 0.44287
C_ C_ 0.591154 0.186072 0.619624 -0.05681
C_ C_ 0.543184 0.189856 0.633171 -0.08735
C_ C_ 0.53678 0.185834 0.662796 -0.08735
C_ C_ 0.579075 0.179715 0.68031 -0.05681
C_ C_ 0.627994 0.174354 0.668753 -0.05681
C_ C_ 0.634106 0.177823 0.637567 -0.05681
C_ C_ 0.683598 0.18043 0.625905 -0.05681
C_ C_ 0.727053 0.173832 0.644595 -0.08735
C_ C_ 0.719362 0.171487 0.674001 -0.08735
C_ C_ 0.671057 0.165399 0.685303 -0.05681
C_ C_ 0.662421 0.159138 0.715821 0.44287
C_ C_ 0.574475 0.178359 0.71104 0.44287
C_ C_ 0.605868 0.153887 0.757521 0.18498
C_ C_ 0.581807 0.105684 0.763919 -0.08735
C_ C_ 0.5683 0.0932367 0.792217 -0.08735
C_ C_ 0.583192 0.125194 0.814908 -0.08735
C_ C_ 0.616789 0.166051 0.809507 0.18498
C_ C_ 0.630324 0.179469 0.780278 -0.05681
C_ C_ 0.651544 0.227826 0.776608 -0.08735
C_ C_ 0.664002 0.260129 0.799627 -0.08735
C_ C_ 0.653354 0.242404 0.827144 0.1947
C_ C_ 0.769311 0.30215 0.653012 0.68181
C_ C_ 0.712565 0.305005 0.649134 -0.05681
C_ C_ 0.679691 0.305183 0.671662 -0.08735
C_ C_ 0.628065 0.313855 0.667541 -0.05681
C_ C_ 0.609371 0.318177 0.640174 -0.05681
C_ C_ 0.642665 0.314519 0.616324 -0.08735
C_ C_ 0.694108 0.316687 0.621239 -0.08735
C_ C_ 0.592117 0.316091 0.690443 -0.08735
C_ C_ 0.540126 0.3139 0.686858 -0.08735
C_ C_ 0.521448 0.324106 0.658868 -0.05681
C_ C_ 0.555521 0.323656 0.635357 -0.08735
C_ C_ 0.879949 0.212117 0.656694 0.68181
C_ C_ 0.857986 0.408506 0.649259 0.68181
C_ C_ 0.860431 0.464646 0.648638 -0.05681
C_ C_ 0.876978 -0.0028679999999999817 0.668016 -0.08735
C_ C_ 0.877014 0.0516457 0.665281 -0.05681
C_ C_ 0.881443 0.0729748 0.637652 -0.05681
C_ C_ 0.885796 0.0418487 0.612655 -0.08735
C_ C_ 0.85991 0.487185 0.621045 -0.08735
C_ C_ 0.870651 0.0823 0.689569 -0.08735
C_ C_ 0.87063 0.13467 0.685454 -0.08735
C_ C_ 0.881539 0.155193 0.658999 -0.05681
C_ C_ 0.88829 0.125329 0.635431 -0.08735
C_ C_ 0.967277 0.316333 0.651621 0.68181
C_ C_ 0.901671 0.360738 0.728567 0.1947
C_ C_ 0.91588 0.373584 0.75561 -0.08735
C_ C_ 0.89669 0.348274 0.778816 -0.08735
C_ C_ 0.865135 0.306474 0.77612 -0.05681
C_ C_ 0.852422 0.291569 0.746636 0.18498
C_ C_ 0.815551 0.25392 0.742164 -0.08735
C_ C_ 0.798939 0.22295 0.763958 -0.08735
C_ C_ 0.816372 0.234911 0.791178 -0.08735
C_ C_ 0.846394 0.278391 0.798778 0.18498
C_ C_ 0.815585 0.305445 0.846007 0.44287
C_ C_ 0.901402 0.283351 0.841542 0.44287
C_ C_ 0.910386 0.295871 0.870379 -0.05681
C_ C_ 0.958846 0.291861 0.883069 -0.08735
C_ C_ 0.964506 0.298401 0.912328 -0.08735
C_ C_ 0.922215 0.304376 0.930126 -0.05681
C_ C_ 0.873438 0.310551 0.917988 -0.05681
C_ C_ 0.86899 0.3104 0.888127 -0.05681
C_ C_ 0.822168 0.316848 0.875741 -0.05681
C_ C_ 0.780436 0.33383 0.892783 -0.08735
C_ C_ 0.786967 0.336045 0.92303 -0.08735
C_ C_ 0.83355 0.327139 0.936257 -0.05681
C_ C_ 0.840377 0.324748 0.966287 0.44287
C_ C_ 0.929003 0.308873 0.960339 0.44287
C_ C_ 0.893124 0.345165 0.504777 0.18498
C_ C_ 0.914716 0.391274 0.513028 -0.08735
C_ C_ 0.925931 0.401163 0.541037 -0.08735
C_ C_ 0.914926 0.365889 0.563443 -0.08735
C_ C_ 0.887189 0.321383 0.557718 0.18498
C_ C_ 0.874049 0.313116 0.527556 -0.05681
C_ C_ 0.84221 0.270035 0.522157 -0.08735
C_ C_ 0.822644 0.241625 0.54505 -0.08735
C_ C_ 0.833564 0.255047 0.573698 0.1947
N_ N_ 0.623373 0.172621 0.978815 -0.29468
N_ N_ 0.645996 0.19715 0.579524 -0.17154
N_ N_ 0.615452 0.165521 0.727541 -0.17154
N_ N_ 0.627224 0.198921 0.831868 -0.29468
N_ N_ 0.875355 0.31725 0.723849 -0.29468
N_ N_ 0.855965 0.290688 0.82825 -0.17154
N_ N_ 0.887262 0.316215 0.977846 -0.17154
N_ N_ 0.868103 0.292047 0.579602 -0.29468
O_ O_ 0.70641 0.184496 0.92873 -0.58347
O_ O_ 0.699132 0.210958 0.883983 -0.58347
O_ O_ 0.634335 0.259106 0.934032 -0.58347
O_ O_ 0.610148 0.263803 0.888681 -0.58347
O_ O_ 0.630324 0.115007 0.926424 -0.58347
O_ O_ 0.646638 0.116907 0.880998 -0.58347
O_ O_ 0.5595 0.179355 0.931203 -0.58347
O_ O_ 0.5525 0.180502 0.884114 -0.58347
O_ O_ 0.561766 0.222269 0.57645 -0.46727
O_ O_ 0.731921 0.197047 0.584204 -0.46727
O_ O_ 0.529332 0.186038 0.722297 -0.46727
O_ O_ 0.70045 0.1458 0.732525 -0.46727
O_ O_ 0.788909 0.307047 0.677556 -0.58347
O_ O_ 0.797666 0.295879 0.630796 -0.58347
O_ O_ 0.868022 0.236742 0.678855 -0.58347
O_ O_ 0.886832 0.234705 0.633038 -0.58347
O_ O_ 0.860871 0.386302 0.672856 -0.58347
O_ O_ 0.861831 0.381202 0.626903 -0.58347
O_ O_ 0.937816 0.312584 0.673745 -0.58347
O_ O_ 0.948177 0.320641 0.626813 -0.58347
O_ O_ 0.940028 0.265537 0.826849 -0.46727
O_ O_ 0.769869 0.305567 0.835518 -0.46727
O_ O_ 0.975002 0.302531 0.971824 -0.46727
O_ O_ 0.804462 0.342097 0.982603 -0.46727
Zn Zn 0.616661 0.684172 0.383995 0.90689
Zn Zn 0.626709 0.684 0.431642 0.90689
Zn Zn 0.880394 0.805947 0.128784 0.90689
Zn Zn 0.86812 0.811625 0.177755 0.90689
H_ H_ 0.792749 0.680153 0.448228 0.11455
H_ H_ 0.868312 0.671934 0.35094 0.11455
H_ H_ 0.777527 0.67389 0.355266 0.11455
H_ H_ 0.881781 0.686589 0.468931 0.11455
H_ H_ 0.973086 0.691999 0.464839 0.11455
H_ H_ 0.949648 0.683665 0.37299 0.11455
H_ H_ 0.6276 0.514772 0.443628 0.11455
H_ H_ 0.585227 0.938083 0.349555 0.11455
H_ H_ 0.635049 0.530983 0.351268 0.11455
H_ H_ 0.650427 0.935174 0.464039 0.11455
H_ H_ 0.648527 0.841038 0.459208 0.11455
H_ H_ 0.605531 0.850665 0.371171 0.11455
H_ H_ 0.581413 0.604032 0.472083 0.11455
H_ H_ 0.566689 0.587031 0.0165225 0.11455
H_ H_ 0.611164 0.626821 0.0558717 0.11455
H_ H_ 0.699664 0.738866 0.472392 0.11455
H_ H_ 0.72963 0.802737 0.0159604 0.11455
H_ H_ 0.697911 0.783643 0.0647607 0.11455
H_ H_ 0.502435 0.70461 0.122551 0.11455
H_ H_ 0.491005 0.691724 0.174671 0.11455
H_ H_ 0.750161 0.672166 0.137682 0.11455
H_ H_ 0.742317 0.665201 0.189903 0.11455
H_ H_ 0.550455 0.589328 0.248278 0.11455
H_ H_ 0.548842 0.555007 0.296784 0.11455
H_ H_ 0.560384 0.621955 0.337631 0.11455
H_ H_ 0.640082 0.746997 0.258678 0.11455
H_ H_ 0.678935 0.79257 0.298838 0.11455
H_ H_ 0.666139 0.759899 0.348237 0.11455
H_ H_ 0.695059 0.794217 0.187543 0.11455
H_ H_ 0.636815 0.859019 0.0950411 0.11455
H_ H_ 0.727036 0.852378 0.104013 0.11455
H_ H_ 0.615812 0.80303 0.209025 0.11455
H_ H_ 0.523253 0.810095 0.20366 0.11455
H_ H_ 0.543428 0.849014 0.114566 0.11455
H_ H_ 0.875961 0.976791 0.189609 0.11455
H_ H_ 0.842213 0.559611 0.0932341 0.11455
H_ H_ 0.845929 0.962706 0.0991536 0.11455
H_ H_ 0.813311 0.567833 0.212058 0.11455
H_ H_ 0.838866 0.657525 0.209838 0.11455
H_ H_ 0.863376 0.645921 0.118421 0.11455
H_ H_ 0.928238 0.879444 0.211942 0.11455
H_ H_ 0.935312 0.91995 0.260552 0.11455
H_ H_ 0.880728 0.890792 0.299115 0.11455
H_ H_ 0.801965 0.754909 0.221555 0.11455
H_ H_ 0.771976 0.704421 0.263138 0.11455
H_ H_ 0.788482 0.73559 0.311018 0.11455
H_ H_ 0.984626 0.808029 0.363888 0.11455
H_ H_ -0.00157004 0.798653 0.416553 0.11455
H_ H_ 0.733759 0.815261 0.393264 0.11455
H_ H_ 0.753711 0.819316 0.445414 0.11455
H_ H_ 0.954508 0.899068 0.493626 0.11455
H_ H_ 0.965086 0.924769 0.0434566 0.11455
H_ H_ 0.935864 0.871292 0.0842631 0.11455
H_ H_ 0.837278 0.753573 0.00405694 0.11455
H_ H_ 0.806615 0.703611 0.0473129 0.11455
H_ H_ 0.829008 0.73299 0.0956605 0.11455
C_ C_ 0.722608 0.68926 0.405676 0.68181
C_ C_ 0.777462 0.686097 0.402996 -0.05681
C_ C_ 0.809173 0.683771 0.428036 -0.08735
C_ C_ 0.862591 0.680802 0.424961 -0.05681
C_ C_ 0.884444 0.677836 0.397854 -0.05681
C_ C_ 0.853403 0.678585 0.372622 -0.08735
C_ C_ 0.801535 0.677746 0.375106 -0.08735
C_ C_ 0.896045 0.690423 0.448167 -0.08735
C_ C_ 0.948879 0.689587 0.445393 -0.08735
C_ C_ 0.970579 0.68269 0.417713 -0.05681
C_ C_ 0.936731 0.6798 0.394367 -0.08735
C_ C_ 0.615823 0.782656 0.415397 0.68181
C_ C_ 0.621207 0.584568 0.400096 0.68181
C_ C_ 0.625561 0.526914 0.397543 -0.05681
C_ C_ 0.644474 0.996792 0.419074 -0.08735
C_ C_ 0.635492 0.945885 0.418174 -0.05681
C_ C_ 0.616263 0.922123 0.393012 -0.05681
C_ C_ 0.603836 0.953374 0.369434 -0.08735
C_ C_ 0.610409 1.00619645 0.371331 -0.08735
C_ C_ 0.640586 0.916044 0.443291 -0.08735
C_ C_ 0.637714 0.863072 0.440548 -0.08735
C_ C_ 0.621758 0.840235 0.415814 -0.05681
C_ C_ 0.612787 0.869158 0.390991 -0.08735
C_ C_ 0.523364 0.674805 0.412059 0.68181
C_ C_ 0.6076 0.622289 0.487103 0.1947
C_ C_ 0.591112 0.618545 0.011955 -0.08735
C_ C_ 0.609529 0.646554 0.0352782 -0.08735
C_ C_ 0.63448 0.691531 0.0308925 -0.05681
C_ C_ 0.647176 0.705495 1.00158025 0.18498
C_ C_ 0.68768 0.734486 0.494079 -0.08735
C_ C_ 0.700894 0.772025 0.0198875 -0.08735
C_ C_ 0.680454 0.764758 0.0472491 -0.08735
C_ C_ 0.650064 0.722851 0.0540604 0.18498
C_ C_ 0.681808 0.694142 0.100225 0.44287
C_ C_ 0.594129 0.713804 0.0947049 0.44287
C_ C_ 0.585039 0.703131 0.123774 -0.05681
C_ C_ 0.535952 0.701416 0.134799 -0.08735
C_ C_ 0.528961 0.690565 0.164192 -0.08735
C_ C_ 0.570465 0.684707 0.183011 -0.05681
C_ C_ 0.620543 0.689505 0.171223 -0.05681
C_ C_ 0.626265 0.694899 0.141848 -0.05681
C_ C_ 0.673427 0.685426 0.130136 -0.05681
C_ C_ 0.714528 0.67772 0.147888 -0.08735
C_ C_ 0.708756 0.675529 0.177891 -0.08735
C_ C_ 0.660862 0.675403 0.189601 -0.05681
C_ C_ 0.649509 0.664338 0.219665 0.44287
C_ C_ 0.563789 0.680067 0.212386 0.44287
C_ C_ 0.592851 0.657498 0.259566 0.18498
C_ C_ 0.570025 0.609945 0.26549 -0.08735
C_ C_ 0.564721 0.592395 0.293391 -0.08735
C_ C_ 0.57821 0.624949 0.316678 -0.08735
C_ C_ 0.601535 0.670779 0.311571 0.18498
C_ C_ 0.612502 0.686156 0.282931 -0.05681
C_ C_ 0.635913 0.733437 0.279108 -0.08735
C_ C_ 0.654374 0.760857 0.30269 -0.08735
C_ C_ 0.649369 0.73911 0.330026 0.1947
C_ C_ 0.772803 0.814885 0.150679 0.68181
C_ C_ 0.717857 0.819586 0.14597 -0.05681
C_ C_ 0.684072 0.81312 0.168298 -0.08735
C_ C_ 0.632033 0.816383 0.163994 -0.05681
C_ C_ 0.613997 0.838069 0.13792 -0.05681
C_ C_ 0.648464 0.843144 0.114272 -0.08735
C_ C_ 0.698016 0.836414 0.119111 -0.08735
C_ C_ 0.59938 0.809193 0.187839 -0.08735
C_ C_ 0.548147 0.816907 0.18525 -0.08735
C_ C_ 0.528782 0.830293 0.15882 -0.05681
C_ C_ 0.56075 0.840383 0.134926 -0.08735
C_ C_ 0.873021 0.711604 0.162503 0.68181
C_ C_ 0.869228 0.907851 0.147127 0.68181
C_ C_ 0.86335 0.963756 0.145201 -0.05681
C_ C_ 0.83589 0.496407 0.16928 -0.08735
C_ C_ 0.838412 0.551038 0.167152 -0.05681
C_ C_ 0.845261 0.573294 0.140231 -0.05681
C_ C_ 0.838618 0.543497 0.115224 -0.08735
C_ C_ 0.853528 0.985739 0.118371 -0.08735
C_ C_ 0.830973 0.582292 0.192379 -0.08735
C_ C_ 0.83863 0.633361 0.190281 -0.08735
C_ C_ 0.857421 0.656062 0.164077 -0.05681
C_ C_ 0.857725 0.626594 0.138713 -0.08735
C_ C_ 0.973245 0.807617 0.157542 0.68181
C_ C_ 0.901526 0.870415 0.229088 0.1947
C_ C_ 0.906298 0.890455 0.256711 -0.08735
C_ C_ 0.87693 0.872744 0.279535 -0.08735
C_ C_ 0.852232 0.826732 0.276211 -0.05681
C_ C_ 0.844971 0.80927 0.246987 0.18498
C_ C_ 0.810629 0.770282 0.243141 -0.08735
C_ C_ 0.793741 0.740729 0.266351 -0.08735
C_ C_ 0.804001 0.756534 0.294238 -0.08735
C_ C_ 0.829723 0.801078 0.29947 0.18498
C_ C_ 0.801766 0.818518 0.349259 0.44287
C_ C_ 0.887659 0.805991 0.338703 0.44287
C_ C_ 0.900141 0.807479 0.368581 -0.05681
C_ C_ 0.950965 0.804936 0.377726 -0.08735
C_ C_ 0.961008 0.801688 0.4072 -0.08735
C_ C_ 0.921664 0.809773 0.427747 -0.05681
C_ C_ 0.872165 0.82046 0.418314 -0.05681
C_ C_ 0.862178 0.813328 0.389382 -0.05681
C_ C_ 0.812297 0.819189 0.379588 -0.05681
C_ C_ 0.772251 0.817814 0.399911 -0.08735
C_ C_ 0.782601 0.829222 0.428941 -0.08735
C_ C_ 0.832327 0.829532 0.438291 -0.05681
C_ C_ 0.846052 0.836606 0.467341 0.44287
C_ C_ 0.932695 0.810937 0.457704 0.44287
C_ C_ 0.892069 0.841048 0.00631032 0.18498
C_ C_ 0.922233 0.882076 0.0123624 -0.08735
C_ C_ 0.937212 0.895248 0.039745 -0.08735
C_ C_ 0.918229 0.86657 0.0634823 -0.08735
C_ C_ 0.889843 0.824038 0.0590402 0.18498
C_ C_ 0.878852 0.809002 0.029833 -0.05681
C_ C_ 0.847527 0.766775 0.0254661 -0.08735
C_ C_ 0.832288 0.738235 0.0487985 -0.08735
C_ C_ 0.84618 0.752132 0.0770793 0.1947
N_ N_ 0.631491 0.667599 0.480059 -0.29468
N_ N_ 0.641222 0.712028 0.0840724 -0.17154
N_ N_ 0.603436 0.67071 0.230429 -0.17154
N_ N_ 0.619281 0.697982 0.334778 -0.29468
N_ N_ 0.86939 0.831655 0.224431 -0.29468
N_ N_ 0.839168 0.811395 0.329257 -0.17154
N_ N_ 0.894142 0.824221 0.477133 -0.17154
N_ N_ 0.872906 0.795804 0.0813204 -0.29468
O_ O_ 0.702486 0.693137 0.429789 -0.58347
O_ O_ 0.693206 0.683566 0.383709 -0.58347
O_ O_ 0.61664 0.757617 0.43779 -0.58347
O_ O_ 0.616044 0.760182 0.391941 -0.58347
O_ O_ 0.628386 0.606502 0.423933 -0.58347
O_ O_ 0.615821 0.611441 0.3777 -0.58347
O_ O_ 0.551891 0.671701 0.434315 -0.58347
O_ O_ 0.54214 0.68104 0.387456 -0.58347
O_ O_ 0.555869 0.730129 0.0779496 -0.46727
O_ O_ 0.723724 0.680826 0.0869817 -0.46727
O_ O_ 0.516934 0.688987 0.222423 -0.46727
O_ O_ 0.68742 0.653484 0.236431 -0.46727
O_ O_ 0.789151 0.810919 0.17582 -0.58347
O_ O_ 0.802323 0.806011 0.129911 -0.58347
O_ O_ 0.864831 0.739705 0.18434 -0.58347
O_ O_ 0.879214 0.7311 0.13845 -0.58347
O_ O_ 0.873737 0.88776 0.171715 -0.58347
O_ O_ 0.869759 0.879437 0.125153 -0.58347
O_ O_ 0.944522 0.806868 0.178643 -0.58347
O_ O_ 0.955098 0.804975 0.132455 -0.58347
O_ O_ 0.924828 0.796819 0.320739 -0.46727
O_ O_ 0.753706 0.815865 0.339258 -0.46727
O_ O_ 0.979249 0.801139 0.467264 -0.46727
O_ O_ 0.810784 0.84941 0.486197 -0.46727
Zn Zn 0.627668 0.688421 0.882536 0.90689
Zn Zn 0.638974 0.688902 0.92971 0.90689
Zn Zn 0.885993 0.80734 0.630126 0.90689
Zn Zn 0.876285 0.813514 0.678269 0.90689
H_ H_ 0.81219 0.698946 0.944488 0.11455
H_ H_ 0.873942 0.658656 0.84913 0.11455
H_ H_ 0.78357 0.672482 0.856344 0.11455
H_ H_ 0.897852 0.694724 0.966349 0.11455
H_ H_ 0.98634 0.695399 0.957846 0.11455
H_ H_ 0.962251 0.658315 0.869281 0.11455
H_ H_ 0.602766 0.51802 0.939747 0.11455
H_ H_ 0.666591 0.948948 0.849358 0.11455
H_ H_ 0.668876 0.532016 0.857072 0.11455
H_ H_ 0.591231 0.93224 0.96007 0.11455
H_ H_ 0.595595 0.84329 0.956674 0.11455
H_ H_ 0.652539 0.855177 0.869305 0.11455
H_ H_ 0.58689 0.613103 0.967444 0.11455
H_ H_ 0.593392 0.566024 0.51942 0.11455
H_ H_ 0.615123 0.623771 0.559702 0.11455
H_ H_ 0.688588 0.759496 0.974752 0.11455
H_ H_ 0.741849 0.78963 0.510147 0.11455
H_ H_ 0.711511 0.784292 0.558571 0.11455
H_ H_ 0.526662 0.723967 0.62667 0.11455
H_ H_ 0.5141 0.688276 0.67527 0.11455
H_ H_ 0.767614 0.638106 0.634074 0.11455
H_ H_ 0.747236 0.611709 0.681575 0.11455
H_ H_ 0.588651 0.572321 0.74936 0.11455
H_ H_ 0.551594 0.558692 0.796076 0.11455
H_ H_ 0.571972 0.614325 0.836771 0.11455
H_ H_ 0.664243 0.738662 0.755196 0.11455
H_ H_ 0.70678 0.780778 0.796522 0.11455
H_ H_ 0.691298 0.749805 0.846723 0.11455
H_ H_ 0.707901 0.785039 0.693055 0.11455
H_ H_ 0.639106 0.846234 0.602142 0.11455
H_ H_ 0.730993 0.839163 0.605559 0.11455
H_ H_ 0.622408 0.794126 0.714324 0.11455
H_ H_ 0.529621 0.795528 0.707356 0.11455
H_ H_ 0.550884 0.841034 0.621195 0.11455
H_ H_ 0.872564 0.980898 0.689267 0.11455
H_ H_ 0.860747 0.559621 0.598067 0.11455
H_ H_ 0.893266 0.96718 0.597901 0.11455
H_ H_ 0.859136 0.563338 0.716237 0.11455
H_ H_ 0.867625 0.657761 0.711562 0.11455
H_ H_ 0.883808 0.636901 0.618632 0.11455
H_ H_ 0.935971 0.879948 0.715407 0.11455
H_ H_ 0.953077 0.904703 0.765651 0.11455
H_ H_ 0.903528 0.865045 0.805036 0.11455
H_ H_ 0.82336 0.741695 0.719714 0.11455
H_ H_ 0.792177 0.688382 0.758946 0.11455
H_ H_ 0.811247 0.708628 0.80782 0.11455
H_ H_ 0.983799 0.76451 0.871815 0.11455
H_ H_ 0.99892156 0.785865 0.921343 0.11455
H_ H_ 0.74411 0.838729 0.878317 0.11455
H_ H_ 0.754588 0.858351 0.931667 0.11455
H_ H_ 0.936807 0.902372 0.994313 0.11455
H_ H_ 0.975181 0.925314 0.54433 0.11455
H_ H_ 0.945487 0.873944 0.582982 0.11455
H_ H_ 0.834861 0.754881 0.504692 0.11455
H_ H_ 0.818698 0.7079 0.547135 0.11455
H_ H_ 0.831424 0.739081 0.59493 0.11455
C_ C_ 0.73118 0.688653 0.907504 0.68181
C_ C_ 0.788295 0.681769 0.902769 -0.05681
C_ C_ 0.825559 0.687267 0.925095 -0.08735
C_ C_ 0.877709 0.684133 0.921204 -0.05681
C_ C_ 0.895558 0.671283 0.894244 -0.05681
C_ C_ 0.859905 0.664418 0.871265 -0.08735
C_ C_ 0.80724 0.671657 0.87599 -0.08735
C_ C_ 0.909963 0.684322 0.944735 -0.08735
C_ C_ 0.962348 0.681694 0.939802 -0.08735
C_ C_ 0.980156 0.67026 0.912138 -0.05681
C_ C_ 0.946348 0.664309 0.889899 -0.08735
C_ C_ 0.628339 0.786623 0.910161 0.68181
C_ C_ 0.635935 0.587739 0.904016 0.68181
C_ C_ 0.639863 0.531795 0.901142 -0.05681
C_ C_ 0.633908 0.00320044 0.924127 -0.08735
C_ C_ 0.627295 0.949373 0.918773 -0.05681
C_ C_ 0.642794 0.92793 0.892366 -0.05681
C_ C_ 0.65471 0.961508 0.870413 -0.08735
C_ C_ 0.64779 0.0137637 0.873964 -0.08735
C_ C_ 0.604926 0.918248 0.940688 -0.08735
C_ C_ 0.610927 0.867082 0.93912 -0.08735
C_ C_ 0.625668 0.843808 0.913363 -0.05681
C_ C_ 0.638003 0.874515 0.889243 -0.08735
C_ C_ 0.535589 0.68661 0.908217 0.68181
C_ C_ 0.600431 0.635259 0.984304 0.1947
C_ C_ 0.60536 0.605065 0.515144 -0.08735
C_ C_ 0.622419 0.636072 0.537615 -0.08735
C_ C_ 0.646887 0.682366 0.531135 -0.05681
C_ C_ 0.65349 0.694868 0.501537 0.18498
C_ C_ 0.680191 0.746375 0.996409 -0.08735
C_ C_ 0.710797 0.764015 0.515435 -0.08735
C_ C_ 0.694518 0.757657 0.543737 -0.08735
C_ C_ 0.666108 0.715473 0.552891 0.18498
C_ C_ 0.698633 0.691852 0.598831 0.44287
C_ C_ 0.611673 0.715122 0.596254 0.44287
C_ C_ 0.603602 0.698703 0.625641 -0.05681
C_ C_ 0.557475 0.707875 0.63868 -0.08735
C_ C_ 0.551035 0.694446 0.667866 -0.08735
C_ C_ 0.592098 0.680558 0.684469 -0.05681
C_ C_ 0.641113 0.674191 0.670108 -0.05681
C_ C_ 0.646056 0.683691 0.641012 -0.05681
C_ C_ 0.692511 0.675236 0.627363 -0.05681
C_ C_ 0.732322 0.648687 0.643042 -0.08735
C_ C_ 0.724529 0.64014 0.671706 -0.08735
C_ C_ 0.681362 0.655906 0.686598 -0.05681
C_ C_ 0.675577 0.649773 0.716436 0.44287
C_ C_ 0.588015 0.672105 0.713897 0.44287
C_ C_ 0.621419 0.64478 0.758926 0.18498
C_ C_ 0.596814 0.600077 0.76611 -0.08735
C_ C_ 0.576121 0.591275 0.793302 -0.08735
C_ C_ 0.592363 0.619953 0.816431 -0.08735
C_ C_ 0.624855 0.662834 0.811087 0.18498
C_ C_ 0.638675 0.6771 0.781961 -0.05681
C_ C_ 0.661526 0.723625 0.777504 -0.08735
C_ C_ 0.682669 0.748549 0.800146 -0.08735
C_ C_ 0.674248 0.731888 0.828792 0.1947
C_ C_ 0.78401 0.813321 0.65444 0.68181
C_ C_ 0.727719 0.81752 0.651455 -0.05681
C_ C_ 0.694091 0.808758 0.674805 -0.08735
C_ C_ 0.640428 0.818902 0.671843 -0.05681
C_ C_ 0.620679 0.83388 0.645357 -0.05681
C_ C_ 0.654497 0.842042 0.622773 -0.08735
C_ C_ 0.706216 0.832232 0.624731 -0.08735
C_ C_ 0.60716 0.806939 0.694432 -0.08735
C_ C_ 0.555211 0.80722 0.690184 -0.08735
C_ C_ 0.534354 0.82238 0.664487 -0.05681
C_ C_ 0.567692 0.834603 0.641743 -0.08735
C_ C_ 0.878378 0.713941 0.661177 0.68181
C_ C_ 0.883892 0.910114 0.64626 0.68181
C_ C_ 0.882351 0.967271 0.643283 -0.05681
C_ C_ 0.85569 0.495023 0.673486 -0.08735
C_ C_ 0.855666 0.549007 0.671283 -0.05681
C_ C_ 0.863229 0.571174 0.644743 -0.05681
C_ C_ 0.857557 0.53946 0.619171 -0.08735
C_ C_ 0.882749 0.988433 0.61562 -0.08735
C_ C_ 0.860243 0.581533 0.694923 -0.08735
C_ C_ 0.866966 0.634633 0.692 -0.08735
C_ C_ 0.878284 0.657242 0.664715 -0.05681
C_ C_ 0.875296 0.624356 0.640969 -0.08735
C_ C_ 0.978425 0.82204 0.654366 0.68181
C_ C_ 0.916044 0.863013 0.73269 0.1947
C_ C_ 0.928621 0.873564 0.760368 -0.08735
C_ C_ 0.896763 0.85275 0.782504 -0.08735
C_ C_ 0.864465 0.811462 0.776533 -0.05681
C_ C_ 0.854708 0.80014 0.747733 0.18498
C_ C_ 0.824158 0.755869 0.741807 -0.08735
C_ C_ 0.809008 0.723854 0.763568 -0.08735
C_ C_ 0.822254 0.736133 0.791506 -0.08735
C_ C_ 0.846723 0.779199 0.79886 0.18498
C_ C_ 0.815916 0.80752 0.84504 0.44287
C_ C_ 0.901632 0.780958 0.84126 0.44287
C_ C_ 0.909515 0.794926 0.870479 -0.05681
C_ C_ 0.958303 0.787556 0.883161 -0.08735
C_ C_ 0.96321 0.798802 0.912172 -0.08735
C_ C_ 0.92212 0.811478 0.929993 -0.05681
C_ C_ 0.875233 0.817671 0.916816 -0.05681
C_ C_ 0.867909 0.808165 0.886797 -0.05681
C_ C_ 0.821288 0.81531 0.874002 -0.05681
C_ C_ 0.78073 0.829618 0.89039 -0.08735
C_ C_ 0.787616 0.842857 0.919811 -0.08735
C_ C_ 0.833201 0.833491 0.933076 -0.05681
C_ C_ 0.840216 0.837895 0.962879 0.44287
C_ C_ 0.925891 0.816635 0.959452 0.44287
C_ C_ 0.906705 0.836471 0.506224 0.18498
C_ C_ 0.939893 0.876733 0.51202 -0.08735
C_ C_ 0.950409 0.892464 0.540471 -0.08735
C_ C_ 0.933222 0.863944 0.563243 -0.08735
C_ C_ 0.900759 0.822893 0.558427 0.18498
C_ C_ 0.882484 0.811556 0.529971 -0.05681
C_ C_ 0.84767 0.772187 0.525396 -0.08735
C_ C_ 0.833859 0.74519 0.549559 -0.08735
C_ C_ 0.849677 0.758186 0.577618 0.1947
N_ N_ 0.628835 0.67729 0.978728 -0.29468
N_ N_ 0.658603 0.706925 0.582883 -0.17154
N_ N_ 0.630191 0.65862 0.729426 -0.17154
N_ N_ 0.644054 0.692758 0.833656 -0.29468
N_ N_ 0.879959 0.82781 0.726572 -0.29468
N_ N_ 0.856363 0.791343 0.828693 -0.17154
N_ N_ 0.884978 0.827098 0.975832 -0.17154
N_ N_ 0.882729 0.79551 0.581921 -0.29468
O_ O_ 0.712758 0.697395 0.932307 -0.58347
O_ O_ 0.701568 0.685953 0.886413 -0.58347
O_ O_ 0.633694 0.761038 0.932631 -0.58347
O_ O_ 0.629607 0.764008 0.885263 -0.58347
O_ O_ 0.65 0.610921 0.926854 -0.58347
O_ O_ 0.624709 0.612995 0.882364 -0.58347
O_ O_ 0.566112 0.677418 0.929207 -0.58347
O_ O_ 0.552883 0.69592 0.884673 -0.58347
O_ O_ 0.576456 0.735243 0.581555 -0.46727
O_ O_ 0.744266 0.698462 0.588404 -0.46727
O_ O_ 0.543024 0.678023 0.72743 -0.46727
O_ O_ 0.716038 0.639476 0.732761 -0.46727
O_ O_ 0.803334 0.807288 0.679024 -0.58347
O_ O_ 0.811881 0.812067 0.632383 -0.58347
O_ O_ 0.887169 0.741892 0.684063 -0.58347
O_ O_ 0.880857 0.734602 0.636616 -0.58347
O_ O_ 0.868246 0.889396 0.669554 -0.58347
O_ O_ 0.890911 0.883273 0.625627 -0.58347
O_ O_ 0.951617 0.826787 0.675902 -0.58347
O_ O_ 0.958514 0.805995 0.631502 -0.58347
O_ O_ 0.938048 0.763375 0.825105 -0.46727
O_ O_ 0.771433 0.806879 0.834149 -0.46727
O_ O_ 0.967891 0.801363 0.971014 -0.46727
O_ O_ 0.803597 0.858602 0.978291 -0.46727
_cell_length_a 26.376
_cell_length_b 26.400000238300095
_cell_length_c 46.67800035477134
_cell_angle_alpha 90.00700052986613
_cell_angle_beta 89.99899961309502
_cell_angle_gamma 90.45000003183146
_symmetry_space_group_name_H-M         'P 1'
_symmetry_Int_Tables_number            1
loop_
_symmetry_equiv_pos_as_xyz
   'x, y, z'
                         
loop_
_atom_site_label
_atom_site_type_symbol
_atom_site_fract_x 
_atom_site_fract_y
_atom_site_fract_z
_atom_site_charge
Zn Zn 0.113778 0.185667 0.383376 0.90689
Zn Zn 0.127286 0.178733 0.430775 0.90689
Zn Zn 0.369176 0.320014 0.131773 0.90689
Zn Zn 0.356797 0.325026 0.180008 0.90689
H_ H_ 0.292553 0.182235 0.444489 0.11455
H_ H_ 0.356475 0.157701 0.346205 0.11455
H_ H_ 0.265149 0.169558 0.357142 0.11455
H_ H_ 0.374907 0.178892 0.464267 0.11455
H_ H_ 0.465744 0.178766 0.457839 0.11455
H_ H_ 0.449109 0.173214 0.365257 0.11455
H_ H_ 0.167644 0.0162422 0.433799 0.11455
H_ H_ 0.135152 0.431855 0.350384 0.11455
H_ H_ 0.0811514 0.0269565 0.356709 0.11455
H_ H_ 0.125153 0.423103 0.469141 0.11455
H_ H_ 0.132241 0.338013 0.463787 0.11455
H_ H_ 0.131315 0.352487 0.371711 0.11455
H_ H_ 0.062848 0.104333 0.46829 0.11455
H_ H_ 0.0517585 0.08119 0.0176733 0.11455
H_ H_ 0.0861961 0.124975 0.0567049 0.11455
H_ H_ 0.190411 0.231817 0.473448 0.11455
H_ H_ 0.221283 0.289272 0.0128979 0.11455
H_ H_ 0.195597 0.274791 0.0627885 0.11455
H_ H_ 0.00528657 0.201215 0.12708 0.11455
H_ H_ -0.0014199999999999768 0.19874 0.176977 0.11455
H_ H_ 0.259777 0.170045 0.141972 0.11455
H_ H_ 0.24498 0.160301 0.193971 0.11455
H_ H_ 0.0706284 0.0815332 0.250208 0.11455
H_ H_ 0.0363909 0.0637427 0.299095 0.11455
H_ H_ 0.0677597 0.113414 0.339716 0.11455
H_ H_ 0.157769 0.244724 0.261355 0.11455
H_ H_ 0.190771 0.293051 0.301433 0.11455
H_ H_ 0.159917 0.268273 0.348815 0.11455
H_ H_ 0.193281 0.296679 0.195792 0.11455
H_ H_ 0.1187 0.320068 0.0986631 0.11455
H_ H_ 0.211583 0.318595 0.1057 0.11455
H_ H_ 0.10732 0.312949 0.216142 0.11455
H_ H_ 0.0134998 0.312094 0.208061 0.11455
H_ H_ 0.039485 0.324394 0.116713 0.11455
H_ H_ 0.34718 0.487184 0.185325 0.11455
H_ H_ 0.329998 0.078498 0.0997447 0.11455
H_ H_ 0.368723 0.476894 0.0983623 0.11455
H_ H_ 0.403507 0.0789861 0.210214 0.11455
H_ H_ 0.392613 0.171378 0.206945 0.11455
H_ H_ 0.345502 0.159137 0.118648 0.11455
H_ H_ 0.398337 0.399719 0.213919 0.11455
H_ H_ 0.390036 0.443927 0.261865 0.11455
H_ H_ 0.367573 0.393483 0.304267 0.11455
H_ H_ 0.310623 0.252144 0.223722 0.11455
H_ H_ 0.305984 0.188564 0.265027 0.11455
H_ H_ 0.310209 0.215233 0.312211 0.11455
H_ H_ 0.484084 0.308382 0.370319 0.11455
H_ H_ 0.499333 0.30286 0.421636 0.11455
H_ H_ 0.234539 0.329216 0.391126 0.11455
H_ H_ 0.251573 0.339843 0.442567 0.11455
H_ H_ 0.455496 0.394942 0.49491 0.11455
H_ H_ 0.476117 0.414287 0.0501429 0.11455
H_ H_ 0.44009 0.357891 0.0910784 0.11455
H_ H_ 0.347108 0.251493 0.00669838 0.11455
H_ H_ 0.291886 0.21804 0.0475762 0.11455
H_ H_ 0.297483 0.257241 0.0920444 0.11455
C_ C_ 0.218468 0.187118 0.406524 0.68181
C_ C_ 0.274461 0.187063 0.400739 -0.05681
C_ C_ 0.307921 0.179801 0.422914 -0.08735
C_ C_ 0.359083 0.173207 0.419219 -0.05681
C_ C_ 0.379809 0.171921 0.391898 -0.05681
C_ C_ 0.34468 0.167994 0.367876 -0.08735
C_ C_ 0.291573 0.175485 0.373026 -0.08735
C_ C_ 0.390233 0.174452 0.443083 -0.08735
C_ C_ 0.442077 0.174678 0.439225 -0.08735
C_ C_ 0.463718 0.169471 0.411718 -0.05681
C_ C_ 0.432618 0.172233 0.387112 -0.08735
C_ C_ 0.121835 0.282176 0.412354 0.68181
C_ C_ 0.118373 0.0852142 0.400621 0.68181
C_ C_ 0.119024 0.0301776 0.397972 -0.05681
C_ C_ 0.120799 0.497193 0.425641 -0.08735
C_ C_ 0.127043 0.443501 0.422692 -0.05681
C_ C_ 0.128686 0.42173 0.395438 -0.05681
C_ C_ 0.127706 0.452037 0.371037 -0.08735
C_ C_ 0.124143 0.505637 0.372967 -0.08735
C_ C_ 0.126291 0.411147 0.446387 -0.08735
C_ C_ 0.121537 0.359553 0.44404 -0.08735
C_ C_ 0.122314 0.336764 0.416148 -0.05681
C_ C_ 0.12703 0.368129 0.392602 -0.08735
C_ C_ 0.0222026 0.177155 0.405784 0.68181
C_ C_ 0.0819661 0.126765 0.485891 0.1947
C_ C_ 0.0754475 0.113329 0.0122849 -0.08735
C_ C_ 0.0986334 0.13761 0.0367587 -0.08735
C_ C_ 0.129199 0.179354 0.0313313 -0.05681
C_ C_ 0.14485 0.188077 1.00208919 0.18498
C_ C_ 0.174749 0.230216 0.495763 -0.08735
C_ C_ 0.198594 0.255621 0.0189937 -0.08735
C_ C_ 0.181189 0.250479 0.0469021 -0.08735
C_ C_ 0.150627 0.207784 0.0545684 0.18498
C_ C_ 0.184399 0.183488 0.101267 0.44287
C_ C_ 0.0964742 0.200207 0.0972243 0.44287
C_ C_ 0.0884517 0.188263 0.126 -0.05681
C_ C_ 0.0394154 0.190071 0.139098 -0.08735
C_ C_ 0.0328568 0.184965 0.168654 -0.08735
C_ C_ 0.0754373 0.181217 0.186007 -0.05681
C_ C_ 0.125218 0.178599 0.173904 -0.05681
C_ C_ 0.131956 0.181599 0.143697 -0.05681
C_ C_ 0.179843 0.179602 0.131699 -0.05681
C_ C_ 0.222413 0.167573 0.149928 -0.08735
C_ C_ 0.213932 0.16147 0.17877 -0.08735
C_ C_ 0.166705 0.169077 0.191263 -0.05681
C_ C_ 0.157893 0.165897 0.221533 0.44287
C_ C_ 0.0683533 0.173855 0.21556 0.44287
C_ C_ 0.103809 0.153792 0.261954 0.18498
C_ C_ 0.0790043 0.106777 0.267409 -0.08735
C_ C_ 0.060952 0.0954831 0.295959 -0.08735
C_ C_ 0.0813051 0.124718 0.318405 -0.08735
C_ C_ 0.109288 0.168254 0.313709 0.18498
C_ C_ 0.121421 0.183376 0.286369 -0.05681
C_ C_ 0.150481 0.229216 0.282178 -0.08735
C_ C_ 0.169211 0.256876 0.305034 -0.08735
C_ C_ 0.156627 0.238687 0.333427 0.1947
C_ C_ 0.265457 0.304829 0.156098 0.68181
C_ C_ 0.20911 0.311978 0.15144 -0.05681
C_ C_ 0.176763 0.301971 0.174094 -0.08735
C_ C_ 0.125023 0.308942 0.17036 -0.05681
C_ C_ 0.103921 0.310282 0.142934 -0.05681
C_ C_ 0.136701 0.312414 0.11989 -0.08735
C_ C_ 0.189638 0.310192 0.123602 -0.08735
C_ C_ 0.0920324 0.311109 0.195227 -0.08735
C_ C_ 0.0404469 0.311304 0.190959 -0.08735
C_ C_ 0.020259 0.316603 0.162457 -0.05681
C_ C_ 0.0532524 0.317178 0.138865 -0.08735
C_ C_ 0.364448 0.225377 0.161641 0.68181
C_ C_ 0.354369 0.41812 0.143456 0.68181
C_ C_ 0.356885 0.475596 0.141618 -0.05681
C_ C_ 0.390631 0.0120011 0.166877 -0.08735
C_ C_ 0.379354 0.0637961 0.166551 -0.05681
C_ C_ 0.364677 0.0884994 0.140737 -0.05681
C_ C_ 0.352913 0.0602248 0.116984 -0.08735
C_ C_ 0.362274 0.500509 0.1156 -0.08735
C_ C_ 0.39302 0.0954137 0.189424 -0.08735
C_ C_ 0.387254 0.14743 0.188012 -0.08735
C_ C_ 0.373017 0.17067 0.162915 -0.05681
C_ C_ 0.360021 0.140454 0.139069 -0.08735
C_ C_ 0.462775 0.324419 0.157038 0.68181
C_ C_ 0.37598 0.384214 0.23134 0.1947
C_ C_ 0.379528 0.403961 0.260378 -0.08735
C_ C_ 0.365354 0.375223 0.284151 -0.08735
C_ C_ 0.348249 0.324834 0.279775 -0.05681
C_ C_ 0.341044 0.308095 0.250852 0.18498
C_ C_ 0.324086 0.259818 0.246025 -0.08735
C_ C_ 0.32219 0.224543 0.268607 -0.08735
C_ C_ 0.320322 0.242463 0.297024 -0.08735
C_ C_ 0.335572 0.292357 0.303117 0.18498
C_ C_ 0.305236 0.314948 0.350966 0.44287
C_ C_ 0.393142 0.300694 0.343304 0.44287
C_ C_ 0.403336 0.311225 0.37287 -0.05681
C_ C_ 0.451491 0.306656 0.384386 -0.08735
C_ C_ 0.460941 0.305286 0.413624 -0.08735
C_ C_ 0.421783 0.312533 0.432562 -0.05681
C_ C_ 0.371402 0.317697 0.420904 -0.05681
C_ C_ 0.361929 0.319586 0.391016 -0.05681
C_ C_ 0.312728 0.324271 0.380107 -0.05681
C_ C_ 0.271883 0.332631 0.399002 -0.08735
C_ C_ 0.281714 0.33437 0.428664 -0.08735
C_ C_ 0.331804 0.329185 0.439317 -0.05681
C_ C_ 0.34193 0.334763 0.469128 0.44287
C_ C_ 0.427599 0.311944 0.463545 0.44287
C_ C_ 0.399173 0.337464 0.0108505 0.18498
C_ C_ 0.431762 0.378638 0.0178996 -0.08735
C_ C_ 0.447107 0.385405 0.0460268 -0.08735
C_ C_ 0.426295 0.357301 0.0684007 -0.08735
C_ C_ 0.386949 0.32386 0.0620704 0.18498
C_ C_ 0.380873 0.307361 0.0326504 -0.05681
C_ C_ 0.348251 0.266896 0.0281698 -0.08735
C_ C_ 0.322691 0.245084 0.0511953 -0.08735
C_ C_ 0.327372 0.264328 0.077784 0.1947
N_ N_ 0.117051 0.163917 0.479583 -0.29468
N_ N_ 0.144135 0.193872 0.0846765 -0.17154
N_ N_ 0.110451 0.170508 0.23306 -0.17154
N_ N_ 0.125938 0.196182 0.336535 -0.29468
N_ N_ 0.353424 0.339071 0.227894 -0.29468
N_ N_ 0.344813 0.305576 0.332846 -0.17154
N_ N_ 0.390232 0.327562 0.480076 -0.17154
N_ N_ 0.358739 0.303078 0.0837486 -0.29468
O_ O_ 0.199217 0.168514 0.430066 -0.58347
O_ O_ 0.187995 0.203297 0.386859 -0.58347
O_ O_ 0.135973 0.25284 0.432772 -0.58347
O_ O_ 0.104397 0.261037 0.389549 -0.58347
O_ O_ 0.11472 0.104459 0.425692 -0.58347
O_ O_ 0.126709 0.111628 0.378972 -0.58347
O_ O_ 0.0497283 0.186965 0.427528 -0.58347
O_ O_ 0.0395426 0.168288 0.381255 -0.58347
O_ O_ 0.0618857 0.228956 0.0847428 -0.46727
O_ O_ 0.228227 0.17363 0.0888702 -0.46727
O_ O_ 0.0234924 0.180389 0.226312 -0.46727
O_ O_ 0.196441 0.156696 0.239741 -0.46727
O_ O_ 0.284788 0.302204 0.181045 -0.58347
O_ O_ 0.292163 0.319573 0.13497 -0.58347
O_ O_ 0.37456 0.249969 0.184303 -0.58347
O_ O_ 0.358288 0.247651 0.138171 -0.58347
O_ O_ 0.344342 0.399773 0.167891 -0.58347
O_ O_ 0.37421 0.392249 0.123416 -0.58347
O_ O_ 0.43214 0.33726 0.176086 -0.58347
O_ O_ 0.444854 0.308038 0.13236 -0.58347
O_ O_ 0.430669 0.291599 0.325846 -0.46727
O_ O_ 0.259123 0.320121 0.340072 -0.46727
O_ O_ 0.466927 0.291536 0.475358 -0.46727
O_ O_ 0.303913 0.343823 0.487297 -0.46727
Zn Zn 0.121564 0.181327 0.886315 0.90689
Zn Zn 0.133573 0.177391 0.932965 0.90689
Zn Zn 0.373011 0.322576 0.633732 0.90689
Zn Zn 0.365302 0.324763 0.681869 0.90689
H_ H_ 0.299564 0.189149 0.947664 0.11455
H_ H_ 0.365282 0.169286 0.849972 0.11455
H_ H_ 0.277522 0.155814 0.859993 0.11455
H_ H_ 0.391305 0.207488 0.96544 0.11455
H_ H_ 0.480669 0.19053 0.95909 0.11455
H_ H_ 0.455911 0.166486 0.869268 0.11455
H_ H_ 0.113676 0.0106998 0.945918 0.11455
H_ H_ 0.159084 0.427822 0.851335 0.11455
H_ H_ 0.151948 0.0224205 0.856291 0.11455
H_ H_ 0.125456 0.425839 0.968965 0.11455
H_ H_ 0.119165 0.33712 0.964882 0.11455
H_ H_ 0.15231 0.344072 0.873407 0.11455
H_ H_ 0.0714877 0.106396 0.966659 0.11455
H_ H_ 0.0524405 0.0777186 0.517605 0.11455
H_ H_ 0.0831103 0.12586 0.557471 0.11455
H_ H_ 0.204171 0.222506 0.978884 0.11455
H_ H_ 0.21789 0.293223 0.512119 0.11455
H_ H_ 0.199725 0.27314 0.562337 0.11455
H_ H_ 0.0101621 0.21153 0.629581 0.11455
H_ H_ 0.0058977 0.208361 0.681954 0.11455
H_ H_ 0.260628 0.167362 0.63612 0.11455
H_ H_ 0.258138 0.166099 0.687259 0.11455
H_ H_ 0.0887138 0.0779027 0.752959 0.11455
H_ H_ 0.0699923 0.0517739 0.799646 0.11455
H_ H_ 0.0763045 0.113557 0.84047 0.11455
H_ H_ 0.170133 0.241342 0.76068 0.11455
H_ H_ 0.199458 0.291157 0.802764 0.11455
H_ H_ 0.17078 0.263987 0.853115 0.11455
H_ H_ 0.19258 0.332073 0.700355 0.11455
H_ H_ 0.13321 0.32105 0.59927 0.11455
H_ H_ 0.219516 0.309213 0.610092 0.11455
H_ H_ 0.0980226 0.328895 0.717798 0.11455
H_ H_ 0.0120183 0.326573 0.704213 0.11455
H_ H_ 0.0472319 0.328347 0.614366 0.11455
H_ H_ 0.362994 0.489411 0.697578 0.11455
H_ H_ 0.334184 0.0685218 0.602841 0.11455
H_ H_ 0.374315 0.48151 0.603319 0.11455
H_ H_ 0.400093 0.0706823 0.713733 0.11455
H_ H_ 0.400044 0.163205 0.713118 0.11455
H_ H_ 0.352686 0.155415 0.622962 0.11455
H_ H_ 0.41788 0.400764 0.715526 0.11455
H_ H_ 0.438126 0.426023 0.76437 0.11455
H_ H_ 0.397635 0.386146 0.80536 0.11455
H_ H_ 0.31334 0.258231 0.722494 0.11455
H_ H_ 0.292824 0.199402 0.762073 0.11455
H_ H_ 0.302724 0.222057 0.812502 0.11455
H_ H_ 0.498064 0.306715 0.870891 0.11455
H_ H_ 0.510501 0.304699 0.922152 0.11455
H_ H_ 0.244259 0.325901 0.888001 0.11455
H_ H_ 0.252786 0.329833 0.9417 0.11455
H_ H_ 0.446864 0.405582 0.00194518 0.11455
H_ H_ 0.484785 0.41681 0.546862 0.11455
H_ H_ 0.441539 0.368796 0.585808 0.11455
H_ H_ 0.35227 0.245761 0.507659 0.11455
H_ H_ 0.296838 0.220973 0.550487 0.11455
H_ H_ 0.31553 0.252261 0.596625 0.11455
C_ C_ 0.228719 0.179556 0.907469 0.68181
C_ C_ 0.283236 0.176947 0.903863 -0.05681
C_ C_ 0.316339 0.186386 0.926646 -0.08735
C_ C_ 0.370798 0.189616 0.921802 -0.05681
C_ C_ 0.389708 0.176857 0.894056 -0.05681
C_ C_ 0.354537 0.174225 0.87063 -0.08735
C_ C_ 0.302979 0.169726 0.877104 -0.08735
C_ C_ 0.403303 0.195972 0.945194 -0.08735
C_ C_ 0.45605 0.191309 0.940725 -0.08735
C_ C_ 0.475834 0.182891 0.913059 -0.05681
C_ C_ 0.442805 0.178299 0.889825 -0.08735
C_ C_ 0.124426 0.278179 0.916885 0.68181
C_ C_ 0.130287 0.0807042 0.904176 0.68181
C_ C_ 0.129478 0.0239451 0.902039 -0.05681
C_ C_ 0.143764 0.495016 0.925407 -0.08735
C_ C_ 0.141339 0.441639 0.924042 -0.05681
C_ C_ 0.150338 0.416779 0.89713 -0.05681
C_ C_ 0.155511 0.448507 0.871682 -0.08735
C_ C_ 0.150926 0.500774 0.874152 -0.08735
C_ C_ 0.125816 0.411693 0.947469 -0.08735
C_ C_ 0.119533 0.358718 0.945075 -0.08735
C_ C_ 0.131919 0.333954 0.918826 -0.05681
C_ C_ 0.14601 0.362275 0.89466 -0.08735
C_ C_ 0.0265776 0.177447 0.910374 0.68181
C_ C_ 0.0890306 0.126095 0.98519 0.1947
C_ C_ 0.0706788 0.113366 0.51394 -0.08735
C_ C_ 0.0916424 0.138522 0.536437 -0.08735
C_ C_ 0.125092 0.179372 0.531125 -0.05681
C_ C_ 0.136983 0.192908 0.501441 0.18498
C_ C_ 0.183263 0.223125 0.997121 -0.08735
C_ C_ 0.191914 0.262116 0.517502 -0.08735
C_ C_ 0.180547 0.249584 0.546251 -0.08735
C_ C_ 0.148368 0.207867 0.553939 0.18498
C_ C_ 0.186717 0.190332 0.600784 0.44287
C_ C_ 0.0971286 0.208143 0.597931 0.44287
C_ C_ 0.0924581 0.200479 0.627539 -0.05681
C_ C_ 0.0438669 0.200485 0.640843 -0.08735
C_ C_ 0.0415992 0.197964 0.670229 -0.08735
C_ C_ 0.0838696 0.184149 0.687182 -0.05681
C_ C_ 0.131706 0.180583 0.673305 -0.05681
C_ C_ 0.134804 0.184794 0.643816 -0.05681
C_ C_ 0.181913 0.183176 0.631221 -0.05681
C_ C_ 0.223734 0.170977 0.647573 -0.08735
C_ C_ 0.219355 0.160301 0.676369 -0.08735
C_ C_ 0.173704 0.16749 0.690464 -0.05681
C_ C_ 0.16982 0.159665 0.719141 0.44287
C_ C_ 0.0815587 0.176952 0.717553 0.44287
C_ C_ 0.120343 0.148254 0.762773 0.18498
C_ C_ 0.101697 0.10189 0.769788 -0.08735
C_ C_ 0.0829588 0.0913178 0.796424 -0.08735
C_ C_ 0.0907564 0.124106 0.819455 -0.08735
C_ C_ 0.112626 0.172027 0.815401 0.18498
C_ C_ 0.130444 0.18418 0.786307 -0.05681
C_ C_ 0.159626 0.227914 0.781612 -0.08735
C_ C_ 0.174788 0.257482 0.805807 -0.08735
C_ C_ 0.159077 0.24089 0.834415 0.1947
C_ C_ 0.268614 0.317638 0.659544 0.68181
C_ C_ 0.213221 0.315585 0.656397 -0.05681
C_ C_ 0.17974 0.321252 0.679377 -0.08735
C_ C_ 0.125971 0.324091 0.673662 -0.05681
C_ C_ 0.109886 0.324616 0.644748 -0.05681
C_ C_ 0.146376 0.320814 0.621908 -0.08735
C_ C_ 0.195005 0.3128 0.627973 -0.08735
C_ C_ 0.0891484 0.326012 0.694581 -0.08735
C_ C_ 0.0390655 0.327799 0.687152 -0.08735
C_ C_ 0.0213247 0.324316 0.658531 -0.05681
C_ C_ 0.0584673 0.326994 0.637039 -0.08735
C_ C_ 0.372799 0.225197 0.666531 0.68181
C_ C_ 0.370046 0.421214 0.65274 0.68181
C_ C_ 0.369601 0.479335 0.651856 -0.05681
C_ C_ 0.396998 0.0106578 0.668808 -0.08735
C_ C_ 0.383333 0.0619831 0.669307 -0.05681
C_ C_ 0.366702 0.0845654 0.644428 -0.05681
C_ C_ 0.355111 0.0532959 0.620004 -0.08735
C_ C_ 0.37276 0.502969 0.624091 -0.08735
C_ C_ 0.389656 0.090129 0.693971 -0.08735
C_ C_ 0.389727 0.142126 0.694306 -0.08735
C_ C_ 0.376856 0.1681 0.668365 -0.05681
C_ C_ 0.362048 0.138583 0.643499 -0.08735
C_ C_ 0.466633 0.327363 0.655164 0.68181
C_ C_ 0.398574 0.379962 0.732544 0.1947
C_ C_ 0.408761 0.395265 0.760903 -0.08735
C_ C_ 0.386537 0.371767 0.783651 -0.08735
C_ C_ 0.361119 0.325492 0.77972 -0.05681
C_ C_ 0.348815 0.311554 0.749897 0.18498
C_ C_ 0.321405 0.269454 0.744435 -0.08735
C_ C_ 0.307322 0.235353 0.766903 -0.08735
C_ C_ 0.320083 0.246765 0.794892 -0.08735
C_ C_ 0.347386 0.291659 0.801822 0.18498
C_ C_ 0.316798 0.317006 0.849169 0.44287
C_ C_ 0.40468 0.307965 0.842219 0.44287
C_ C_ 0.412744 0.312225 0.871576 -0.05681
C_ C_ 0.461941 0.30191 0.884645 -0.08735
C_ C_ 0.470618 0.307576 0.913626 -0.08735
C_ C_ 0.427703 0.3204 0.932404 -0.05681
C_ C_ 0.378279 0.326354 0.920781 -0.05681
C_ C_ 0.371746 0.321574 0.889969 -0.05681
C_ C_ 0.324251 0.325354 0.878924 -0.05681
C_ C_ 0.281773 0.325818 0.897522 -0.08735
C_ C_ 0.285227 0.328485 0.927746 -0.08735
C_ C_ 0.334739 0.330524 0.938861 -0.05681
C_ C_ 0.342843 0.333678 0.968434 0.44287
C_ C_ 0.43262 0.324512 0.962355 0.44287
C_ C_ 0.400603 0.342641 0.509338 0.18498
C_ C_ 0.436942 0.380198 0.514628 -0.08735
C_ C_ 0.452308 0.391781 0.542533 -0.08735
C_ C_ 0.426577 0.368872 0.564819 -0.08735
C_ C_ 0.389417 0.332007 0.560638 0.18498
C_ C_ 0.37893 0.313991 0.532108 -0.05681
C_ C_ 0.35185 0.267641 0.527917 -0.08735
C_ C_ 0.330007 0.244789 0.552191 -0.08735
C_ C_ 0.339376 0.263556 0.579561 0.1947
N_ N_ 0.120065 0.165073 0.980086 -0.29468
N_ N_ 0.143565 0.197313 0.584552 -0.17154
N_ N_ 0.124119 0.163736 0.733046 -0.17154
N_ N_ 0.129744 0.199834 0.837963 -0.29468
N_ N_ 0.36797 0.340295 0.728062 -0.29468
N_ N_ 0.356829 0.306701 0.831247 -0.17154
N_ N_ 0.390639 0.327077 0.979952 -0.17154
N_ N_ 0.368669 0.306035 0.583942 -0.29468
O_ O_ 0.209989 0.168462 0.932283 -0.58347
O_ O_ 0.198929 0.189355 0.887029 -0.58347
O_ O_ 0.140219 0.253051 0.937177 -0.58347
O_ O_ 0.110501 0.256081 0.89393 -0.58347
O_ O_ 0.129592 0.102478 0.928266 -0.58347
O_ O_ 0.12945 0.107668 0.881812 -0.58347
O_ O_ 0.0559076 0.18328 0.931618 -0.58347
O_ O_ 0.045424 0.170625 0.885234 -0.58347
O_ O_ 0.0571866 0.219019 0.581535 -0.46727
O_ O_ 0.230033 0.187351 0.589389 -0.46727
O_ O_ 0.0414636 0.191918 0.732343 -0.46727
O_ O_ 0.20991 0.140502 0.732872 -0.46727
O_ O_ 0.288829 0.320245 0.683137 -0.58347
O_ O_ 0.295834 0.321549 0.637565 -0.58347
O_ O_ 0.379391 0.252395 0.688005 -0.58347
O_ O_ 0.367815 0.247989 0.641696 -0.58347
O_ O_ 0.355437 0.398932 0.676131 -0.58347
O_ O_ 0.379472 0.396212 0.629649 -0.58347
O_ O_ 0.439274 0.337139 0.676294 -0.58347
O_ O_ 0.447432 0.311582 0.63246 -0.58347
O_ O_ 0.440937 0.294441 0.825698 -0.46727
O_ O_ 0.271383 0.322414 0.838443 -0.46727
O_ O_ 0.476621 0.321633 0.973932 -0.46727
O_ O_ 0.3049 0.342777 0.986247 -0.46727
Zn Zn 0.120141 0.684456 0.386184 0.90689
Zn Zn 0.127936 0.681536 0.433632 0.90689
Zn Zn 0.379108 0.821292 0.130701 0.90689
Zn Zn 0.367065 0.828106 0.178445 0.90689
H_ H_ 0.293625 0.699576 0.446553 0.11455
H_ H_ 0.366714 0.664126 0.349193 0.11455
H_ H_ 0.276889 0.666212 0.355345 0.11455
H_ H_ 0.382083 0.702724 0.468569 0.11455
H_ H_ 0.471263 0.696619 0.460608 0.11455
H_ H_ 0.45299 0.660932 0.371755 0.11455
H_ H_ 0.115142 0.516985 0.446037 0.11455
H_ H_ 0.098 0.936282 0.348216 0.11455
H_ H_ 0.122957 0.528854 0.353951 0.11455
H_ H_ 0.173534 0.93375 0.457721 0.11455
H_ H_ 0.168724 0.837613 0.454165 0.11455
H_ H_ 0.10181 0.855027 0.372078 0.11455
H_ H_ 0.0685789 0.616335 0.471012 0.11455
H_ H_ 0.0723362 0.574473 0.0191061 0.11455
H_ H_ 0.102737 0.62717 0.0580565 0.11455
H_ H_ 0.191489 0.74574 0.47242 0.11455
H_ H_ 0.231167 0.793096 0.0170353 0.11455
H_ H_ 0.209308 0.773027 0.0673949 0.11455
H_ H_ 0.0164119 0.700584 0.124918 0.11455
H_ H_ 0.002389999999999892 0.692765 0.176452 0.11455
H_ H_ 0.270032 0.681476 0.147632 0.11455
H_ H_ 0.251386 0.667358 0.198154 0.11455
H_ H_ 0.0649271 0.577833 0.255946 0.11455
H_ H_ 0.0285549 0.563485 0.306025 0.11455
H_ H_ 0.0529735 0.62277 0.343352 0.11455
H_ H_ 0.162508 0.73142 0.260042 0.11455
H_ H_ 0.198332 0.78152 0.304085 0.11455
H_ H_ 0.17638 0.75214 0.35208 0.11455
H_ H_ 0.207022 0.817069 0.194195 0.11455
H_ H_ 0.126547 0.844917 0.0976731 0.11455
H_ H_ 0.223591 0.850163 0.106583 0.11455
H_ H_ 0.11942 0.807865 0.214608 0.11455
H_ H_ 0.025848 0.797109 0.207949 0.11455
H_ H_ 0.0424242 0.827868 0.117665 0.11455
H_ H_ 0.3966 0.995161 0.187808 0.11455
H_ H_ 0.374387 0.571461 0.0911859 0.11455
H_ H_ 0.349925 0.984623 0.0977216 0.11455
H_ H_ 0.370037 0.574868 0.209823 0.11455
H_ H_ 0.379314 0.664407 0.207782 0.11455
H_ H_ 0.371756 0.660078 0.115814 0.11455
H_ H_ 0.415903 0.898333 0.213942 0.11455
H_ H_ 0.427641 0.933093 0.263437 0.11455
H_ H_ 0.382513 0.895641 0.303036 0.11455
H_ H_ 0.296951 0.765093 0.225092 0.11455
H_ H_ 0.279773 0.702661 0.264638 0.11455
H_ H_ 0.301141 0.733476 0.314101 0.11455
H_ H_ 0.483593 0.775929 0.370511 0.11455
H_ H_ 0.501457 0.793363 0.421043 0.11455
H_ H_ 0.246685 0.872529 0.388667 0.11455
H_ H_ 0.260299 0.862705 0.440457 0.11455
H_ H_ 0.452754 0.912952 0.495187 0.11455
H_ H_ 0.451969 0.948519 0.0485825 0.11455
H_ H_ 0.42188 0.890078 0.089666 0.11455
H_ H_ 0.345465 0.759655 0.00512394 0.11455
H_ H_ 0.309996 0.712337 0.0456177 0.11455
H_ H_ 0.33133 0.735137 0.0953179 0.11455
C_ C_ 0.223974 0.679617 0.404324 0.68181
C_ C_ 0.280197 0.680039 0.401021 -0.05681
C_ C_ 0.31072 0.695301 0.424396 -0.08735
C_ C_ 0.363035 0.69236 0.421988 -0.05681
C_ C_ 0.385243 0.676966 0.394608 -0.05681
C_ C_ 0.353656 0.673047 0.369805 -0.08735
C_ C_ 0.302881 0.674891 0.373503 -0.08735
C_ C_ 0.395093 0.694837 0.446252 -0.08735
C_ C_ 0.447822 0.687813 0.442877 -0.08735
C_ C_ 0.467954 0.671536 0.416593 -0.05681
C_ C_ 0.435344 0.667017 0.392885 -0.08735
C_ C_ 0.119026 0.782289 0.413382 0.68181
C_ C_ 0.128999 0.584098 0.403965 0.68181
C_ C_ 0.126007 0.528084 0.401156 -0.05681
C_ C_ 0.144954 0.99958 0.417972 -0.08735
C_ C_ 0.140771 0.945641 0.415951 -0.05681
C_ C_ 0.123193 0.92227 0.391183 -0.05681
C_ C_ 0.105126 0.952601 0.369361 -0.08735
C_ C_ 0.0995432 1.0055584 0.373158 -0.08735
C_ C_ 0.158196 0.915265 0.438682 -0.08735
C_ C_ 0.154996 0.861442 0.437496 -0.08735
C_ C_ 0.130836 0.838811 0.413566 -0.05681
C_ C_ 0.123106 0.869221 0.389594 -0.08735
C_ C_ 0.0259013 0.681242 0.413909 0.68181
C_ C_ 0.0984539 0.629958 0.486865 0.1947
C_ C_ 0.0930981 0.609119 0.0143055 -0.08735
C_ C_ 0.107511 0.640401 0.0373445 -0.08735
C_ C_ 0.139654 0.68362 0.0326402 -0.05681
C_ C_ 0.14954 0.698078 1.00392002 0.18498
C_ C_ 0.184759 0.73773 0.493607 -0.08735
C_ C_ 0.203161 0.765733 0.0224111 -0.08735
C_ C_ 0.192033 0.752143 0.0499343 -0.08735
C_ C_ 0.160414 0.712145 0.0565156 0.18498
C_ C_ 0.194808 0.68722 0.103975 0.44287
C_ C_ 0.105737 0.701306 0.0978197 0.44287
C_ C_ 0.097242 0.687353 0.126204 -0.05681
C_ C_ 0.0494312 0.690127 0.139115 -0.08735
C_ C_ 0.0405027 0.681748 0.1683 -0.08735
C_ C_ 0.0820383 0.680488 0.186901 -0.05681
C_ C_ 0.130981 0.674929 0.175196 -0.05681
C_ C_ 0.138161 0.685189 0.145571 -0.05681
C_ C_ 0.188181 0.689502 0.135646 -0.05681
C_ C_ 0.229562 0.679053 0.155121 -0.08735
C_ C_ 0.220908 0.662195 0.183075 -0.08735
C_ C_ 0.171108 0.664192 0.193357 -0.05681
C_ C_ 0.160689 0.654334 0.222315 0.44287
C_ C_ 0.0728975 0.674037 0.217397 0.44287
C_ C_ 0.101673 0.649791 0.263692 0.18498
C_ C_ 0.0714906 0.607848 0.271742 -0.08735
C_ C_ 0.0542353 0.59655 0.30004 -0.08735
C_ C_ 0.0650704 0.631132 0.321631 -0.08735
C_ C_ 0.103062 0.668737 0.315245 0.18498
C_ C_ 0.120953 0.679455 0.286231 -0.05681
C_ C_ 0.153373 0.722744 0.281806 -0.08735
C_ C_ 0.17003 0.751916 0.304966 -0.08735
C_ C_ 0.159541 0.733164 0.332976 0.1947
C_ C_ 0.278453 0.826938 0.153562 0.68181
C_ C_ 0.219896 0.828707 0.150896 -0.05681
C_ C_ 0.188232 0.819507 0.174392 -0.08735
C_ C_ 0.133493 0.81601 0.169985 -0.05681
C_ C_ 0.113 0.825533 0.142411 -0.05681
C_ C_ 0.143762 0.838073 0.118775 -0.08735
C_ C_ 0.197453 0.838489 0.122921 -0.08735
C_ C_ 0.101367 0.811747 0.19353 -0.08735
C_ C_ 0.0497987 0.809251 0.189893 -0.08735
C_ C_ 0.0293807 0.813607 0.161963 -0.05681
C_ C_ 0.0595566 0.826228 0.139159 -0.08735
C_ C_ 0.373077 0.725935 0.16011 0.68181
C_ C_ 0.372375 0.926293 0.147681 0.68181
C_ C_ 0.376395 0.981482 0.142896 -0.05681
C_ C_ 0.355991 0.506321 0.166328 -0.08735
C_ C_ 0.366918 0.559752 0.164879 -0.05681
C_ C_ 0.369253 0.585203 0.137441 -0.05681
C_ C_ 0.371561 0.553809 0.112757 -0.08735
C_ C_ 0.36261 0.00829993 0.117126 -0.08735
C_ C_ 0.367858 0.589768 0.188943 -0.08735
C_ C_ 0.372539 0.64352 0.188082 -0.08735
C_ C_ 0.374865 0.666961 0.16125 -0.05681
C_ C_ 0.370531 0.639396 0.136064 -0.08735
C_ C_ 0.472096 0.828031 0.155379 0.68181
C_ C_ 0.398478 0.879588 0.232201 0.1947
C_ C_ 0.399906 0.902019 0.259145 -0.08735
C_ C_ 0.375295 0.879076 0.281733 -0.08735
C_ C_ 0.348205 0.83345 0.27757 -0.05681
C_ C_ 0.341533 0.817551 0.248916 0.18498
C_ C_ 0.314393 0.772216 0.244471 -0.08735
C_ C_ 0.301819 0.739813 0.267293 -0.08735
C_ C_ 0.316677 0.754804 0.295197 -0.08735
C_ C_ 0.338051 0.802341 0.301659 0.18498
C_ C_ 0.315884 0.841542 0.34716 0.44287
C_ C_ 0.393637 0.797174 0.342314 0.44287
C_ C_ 0.40621 0.806897 0.371308 -0.05681
C_ C_ 0.453511 0.794441 0.382632 -0.08735
C_ C_ 0.463898 0.802686 0.412188 -0.08735
C_ C_ 0.425115 0.819625 0.43079 -0.05681
C_ C_ 0.377778 0.831674 0.418857 -0.05681
C_ C_ 0.371932 0.832337 0.388466 -0.05681
C_ C_ 0.324011 0.84589 0.376769 -0.05681
C_ C_ 0.283441 0.857645 0.39536 -0.08735
C_ C_ 0.29051 0.8559 0.425471 -0.08735
C_ C_ 0.337457 0.843542 0.437871 -0.05681
C_ C_ 0.345838 0.841835 0.46797 0.44287
C_ C_ 0.43162 0.821958 0.460795 0.44287
C_ C_ 0.396288 0.849903 0.0092368 0.18498
C_ C_ 0.41817 0.898242 0.015737 -0.08735
C_ C_ 0.430634 0.911646 0.0448524 -0.08735
C_ C_ 0.415665 0.87865 0.0678626 -0.08735
C_ C_ 0.386659 0.834421 0.0618657 0.18498
C_ C_ 0.382103 0.816362 0.032683 -0.05681
C_ C_ 0.356504 0.769278 0.0274459 -0.08735
C_ C_ 0.334209 0.744093 0.0498693 -0.08735
C_ C_ 0.341041 0.761288 0.0775678 0.1947
N_ N_ 0.127672 0.670581 0.480373 -0.29468
N_ N_ 0.153823 0.696766 0.0853813 -0.17154
N_ N_ 0.112262 0.659166 0.233633 -0.17154
N_ N_ 0.122387 0.696702 0.337481 -0.29468
N_ N_ 0.36815 0.838357 0.226854 -0.29468
N_ N_ 0.351418 0.817998 0.330035 -0.17154
N_ N_ 0.392846 0.835534 0.478829 -0.17154
N_ N_ 0.369256 0.803923 0.0833163 -0.29468
O_ O_ 0.202753 0.679072 0.427762 -0.58347
O_ O_ 0.196239 0.6838 0.381381 -0.58347
O_ O_ 0.131169 0.756557 0.435398 -0.58347
O_ O_ 0.115611 0.758755 0.390099 -0.58347
O_ O_ 0.125368 0.605982 0.428644 -0.58347
O_ O_ 0.127976 0.610364 0.380753 -0.58347
O_ O_ 0.0547375 0.686158 0.435867 -0.58347
O_ O_ 0.0448663 0.685556 0.388759 -0.58347
O_ O_ 0.0701622 0.717352 0.0813362 -0.46727
O_ O_ 0.238866 0.680498 0.092415 -0.46727
O_ O_ 0.0255698 0.673766 0.226848 -0.46727
O_ O_ 0.196203 0.63442 0.237788 -0.46727
O_ O_ 0.29688 0.829494 0.178369 -0.58347
O_ O_ 0.305473 0.81612 0.132783 -0.58347
O_ O_ 0.362417 0.752899 0.182033 -0.58347
O_ O_ 0.383749 0.745426 0.136347 -0.58347
O_ O_ 0.367956 0.908866 0.172973 -0.58347
O_ O_ 0.368091 0.896396 0.126335 -0.58347
O_ O_ 0.441921 0.824909 0.177086 -0.58347
O_ O_ 0.452938 0.835899 0.131625 -0.58347
O_ O_ 0.427053 0.775329 0.32452 -0.46727
O_ O_ 0.27186 0.850689 0.336208 -0.46727
O_ O_ 0.474107 0.800727 0.471765 -0.46727
O_ O_ 0.308453 0.852992 0.485561 -0.46727
Zn Zn 0.129386 0.677497 0.884881 0.90689
Zn Zn 0.139034 0.673824 0.932471 0.90689
Zn Zn 0.385725 0.818836 0.631368 0.90689
Zn Zn 0.381241 0.827761 0.680062 0.90689
H_ H_ 0.308341 0.706299 0.950861 0.11455
H_ H_ 0.373138 0.675668 0.851646 0.11455
H_ H_ 0.282911 0.67767 0.86043 0.11455
H_ H_ 0.397904 0.713538 0.968928 0.11455
H_ H_ 0.49223 0.699821 0.958095 0.11455
H_ H_ 0.461993 0.687538 0.868929 0.11455
H_ H_ 0.129545 0.514832 0.945296 0.11455
H_ H_ 0.15396 0.928359 0.853905 0.11455
H_ H_ 0.147162 0.521598 0.855399 0.11455
H_ H_ 0.0973876 0.925622 0.966726 0.11455
H_ H_ 0.0954385 0.832383 0.961267 0.11455
H_ H_ 0.153722 0.844334 0.876451 0.11455
H_ H_ 0.0886181 0.602417 0.967131 0.11455
H_ H_ 0.0802855 0.573414 0.517466 0.11455
H_ H_ 0.12204 0.622802 0.557899 0.11455
H_ H_ 0.195279 0.750802 0.979179 0.11455
H_ H_ 0.23104 0.79852 0.507966 0.11455
H_ H_ 0.215633 0.782884 0.559247 0.11455
H_ H_ 1.0319867 0.698258 0.623675 0.11455
H_ H_ 1.0219862 0.680581 0.67422 0.11455
H_ H_ 0.283771 0.691794 0.639363 0.11455
H_ H_ 0.270102 0.65 0.685734 0.11455
H_ H_ 0.0908905 0.581064 0.748418 0.11455
H_ H_ 0.0633297 0.558486 0.798207 0.11455
H_ H_ 0.079899 0.615369 0.838039 0.11455
H_ H_ 0.168974 0.745713 0.760974 0.11455
H_ H_ 0.212551 0.783598 0.802875 0.11455
H_ H_ 0.188686 0.754998 0.851735 0.11455
H_ H_ 0.208863 0.818394 0.695845 0.11455
H_ H_ 0.144592 0.833178 0.595686 0.11455
H_ H_ 0.232242 0.843281 0.603971 0.11455
H_ H_ 0.119629 0.80041 0.710947 0.11455
H_ H_ 0.0330561 0.802446 0.703165 0.11455
H_ H_ 0.0544028 0.841393 0.612806 0.11455
H_ H_ 0.414976 0.991859 0.686806 0.11455
H_ H_ 0.376325 0.574778 0.601862 0.11455
H_ H_ 0.351067 0.974803 0.603498 0.11455
H_ H_ 0.369098 0.57517 0.720353 0.11455
H_ H_ 0.369472 0.668912 0.71455 0.11455
H_ H_ 0.373549 0.654719 0.623564 0.11455
H_ H_ 0.430839 0.900931 0.716925 0.11455
H_ H_ 0.441487 0.930534 0.769936 0.11455
H_ H_ 0.407489 0.879137 0.807601 0.11455
H_ H_ 0.318485 0.763644 0.722863 0.11455
H_ H_ 0.299345 0.704599 0.760597 0.11455
H_ H_ 0.328466 0.712394 0.810388 0.11455
H_ H_ 0.49788 0.800065 0.874892 0.11455
H_ H_ 0.505249 0.818083 0.927155 0.11455
H_ H_ 0.24331 0.833301 0.88329 0.11455
H_ H_ 0.252936 0.850908 0.935721 0.11455
H_ H_ 0.436428 0.919795 0.99936196 0.11455
H_ H_ 0.459455 0.943738 0.546473 0.11455
H_ H_ 0.434897 0.88773 0.587976 0.11455
H_ H_ 0.359494 0.755456 0.506034 0.11455
H_ H_ 0.335052 0.702171 0.547038 0.11455
H_ H_ 0.342094 0.736915 0.596246 0.11455
C_ C_ 0.232375 0.683004 0.910176 0.68181
C_ C_ 0.289845 0.688186 0.906515 -0.05681
C_ C_ 0.322406 0.697802 0.92983 -0.08735
C_ C_ 0.376625 0.69658 0.924966 -0.05681
C_ C_ 0.394866 0.689285 0.896345 -0.05681
C_ C_ 0.360047 0.684507 0.872801 -0.08735
C_ C_ 0.309072 0.682 0.87864 -0.08735
C_ C_ 0.411234 0.705075 0.947479 -0.08735
C_ C_ 0.462709 0.692824 0.942065 -0.08735
C_ C_ 0.480916 0.691078 0.914502 -0.05681
C_ C_ 0.446523 0.687659 0.890761 -0.08735
C_ C_ 0.121087 0.775791 0.914011 0.68181
C_ C_ 0.146624 0.579317 0.902053 0.68181
C_ C_ 0.150217 0.52404 0.900589 -0.05681
C_ C_ 0.122708 0.993593 0.926333 -0.08735
C_ C_ 0.119642 0.939044 0.923716 -0.05681
C_ C_ 0.133235 0.915945 0.897706 -0.05681
C_ C_ 0.143927 0.947097 0.873871 -0.08735
C_ C_ 0.142468 -0.000346874 0.8758 -0.08735
C_ C_ 0.103395 0.907216 0.945397 -0.08735
C_ C_ 0.101863 0.854406 0.942109 -0.08735
C_ C_ 0.117307 0.831643 0.916145 -0.05681
C_ C_ 0.134995 0.862776 0.894213 -0.08735
C_ C_ 0.0368631 0.670018 0.90926 0.68181
C_ C_ 0.102971 0.624928 0.985497 0.1947
C_ C_ 0.094076 0.612883 0.514976 -0.08735
C_ C_ 0.120787 0.638226 0.536807 -0.08735
C_ C_ 0.148479 0.681421 0.530994 -0.05681
C_ C_ 0.153719 0.69521 0.50102 0.18498
C_ C_ 0.181042 0.739221 0.999142 -0.08735
C_ C_ 0.206423 0.768401 0.514157 -0.08735
C_ C_ 0.197231 0.756697 0.543266 -0.08735
C_ C_ 0.173021 0.711875 0.55223 0.18498
C_ C_ 0.208434 0.694044 0.599486 0.44287
C_ C_ 0.121295 0.713182 0.595526 0.44287
C_ C_ 0.11254 0.698617 0.62356 -0.05681
C_ C_ 0.0645672 0.698214 0.63707 -0.08735
C_ C_ 0.0586905 0.689852 0.666294 -0.08735
C_ C_ 0.100838 0.682739 0.684951 -0.05681
C_ C_ 0.148833 0.683552 0.671985 -0.05681
C_ C_ 0.156042 0.688857 0.641631 -0.05681
C_ C_ 0.205013 0.689571 0.629585 -0.05681
C_ C_ 0.246925 0.683995 0.646855 -0.08735
C_ C_ 0.240528 0.672013 0.67591 -0.08735
C_ C_ 0.192425 0.673938 0.689183 -0.05681
C_ C_ 0.182426 0.656973 0.718159 0.44287
C_ C_ 0.0960669 0.682045 0.715186 0.44287
C_ C_ 0.12636 0.65231 0.76062 0.18498
C_ C_ 0.0987525 0.608025 0.765241 -0.08735
C_ C_ 0.0854813 0.592935 0.79367 -0.08735
C_ C_ 0.0924052 0.626241 0.816583 -0.08735
C_ C_ 0.122321 0.66977 0.813181 0.18498
C_ C_ 0.137896 0.6836 0.785169 -0.05681
C_ C_ 0.168366 0.727167 0.781558 -0.08735
C_ C_ 0.186275 0.752102 0.8058 -0.08735
C_ C_ 0.171887 0.736164 0.832962 0.1947
C_ C_ 0.28527 0.825138 0.653104 0.68181
C_ C_ 0.229577 0.827354 0.649997 -0.05681
C_ C_ 0.195102 0.818185 0.673457 -0.08735
C_ C_ 0.142549 0.822192 0.668746 -0.05681
C_ C_ 0.122723 0.832712 0.640667 -0.05681
C_ C_ 0.15614 0.838648 0.617716 -0.08735
C_ C_ 0.207356 0.840309 0.623211 -0.08735
C_ C_ 0.107507 0.806449 0.690048 -0.08735
C_ C_ 0.0558528 0.806301 0.684236 -0.08735
C_ C_ 0.0351697 0.821952 0.657848 -0.05681
C_ C_ 0.0694431 0.832737 0.634955 -0.08735
C_ C_ 0.380818 0.726081 0.665305 0.68181
C_ C_ 0.388344 0.919886 0.647581 0.68181
C_ C_ 0.383704 0.977293 0.645424 -0.05681
C_ C_ 0.366089 0.508289 0.677234 -0.08735
C_ C_ 0.368819 0.561294 0.67516 -0.05681
C_ C_ 0.378364 0.584139 0.647238 -0.05681
C_ C_ 0.378369 0.555366 0.621993 -0.08735
C_ C_ 0.363289 1.0000285192 0.620609 -0.08735
C_ C_ 0.377385 0.592103 0.699018 -0.08735
C_ C_ 0.380019 0.645054 0.69593 -0.08735
C_ C_ 0.38156 0.669366 0.668826 -0.05681
C_ C_ 0.373863 0.638204 0.645118 -0.08735
C_ C_ 0.479323 0.822094 0.66023 0.68181
C_ C_ 0.412884 0.882417 0.734501 0.1947
C_ C_ 0.425087 0.894767 0.763784 -0.08735
C_ C_ 0.40771 0.864563 0.785936 -0.08735
C_ C_ 0.377695 0.821836 0.779462 -0.05681
C_ C_ 0.365966 0.810931 0.750152 0.18498
C_ C_ 0.334317 0.770924 0.744539 -0.08735
C_ C_ 0.317507 0.737574 0.766227 -0.08735
C_ C_ 0.336733 0.741817 0.794727 -0.08735
C_ C_ 0.35892 0.78891 0.801181 0.18498
C_ C_ 0.320643 0.808287 0.84752 0.44287
C_ C_ 0.411007 0.803594 0.843686 0.44287
C_ C_ 0.415937 0.811656 0.87384 -0.05681
C_ C_ 0.464554 0.809663 0.887538 -0.08735
C_ C_ 0.468777 0.820015 0.91641 -0.08735
C_ C_ 0.425711 0.827635 0.932834 -0.05681
C_ C_ 0.376675 0.832567 0.920144 -0.05681
C_ C_ 0.371184 0.818329 0.890384 -0.05681
C_ C_ 0.3232 0.818387 0.878137 -0.05681
C_ C_ 0.279366 0.833249 0.894432 -0.08735
C_ C_ 0.284975 0.84172 0.924112 -0.08735
C_ C_ 0.333353 0.842701 0.936668 -0.05681
C_ C_ 0.340922 0.84481 0.966872 0.44287
C_ C_ 0.428589 0.827453 0.96285 0.44287
C_ C_ 0.406252 0.847284 0.508076 0.18498
C_ C_ 0.433942 0.89221 0.513173 -0.08735
C_ C_ 0.44093 0.908535 0.542138 -0.08735
C_ C_ 0.421748 0.880373 0.565788 -0.08735
C_ C_ 0.401258 0.83174 0.56031 0.18498
C_ C_ 0.39419 0.814915 0.531389 -0.05681
C_ C_ 0.362886 0.77119 0.527373 -0.08735
C_ C_ 0.349867 0.740023 0.550755 -0.08735
C_ C_ 0.353902 0.761093 0.578238 0.1947
N_ N_ 0.131559 0.668457 0.981123 -0.29468
N_ N_ 0.16777 0.70535 0.583131 -0.17154
N_ N_ 0.136354 0.664419 0.731421 -0.17154
N_ N_ 0.141725 0.693512 0.83692 -0.29468
N_ N_ 0.384154 0.840906 0.727836 -0.29468
N_ N_ 0.36433 0.802008 0.831326 -0.17154
N_ N_ 0.387657 0.837682 0.979453 -0.17154
N_ N_ 0.381191 0.804449 0.582587 -0.29468
O_ O_ 0.212627 0.671359 0.933797 -0.58347
O_ O_ 0.205103 0.689057 0.887891 -0.58347
O_ O_ 0.145139 0.751385 0.933853 -0.58347
O_ O_ 0.116001 0.753887 0.890023 -0.58347
O_ O_ 0.14076 0.599691 0.926276 -0.58347
O_ O_ 0.146861 0.607008 0.87892 -0.58347
O_ O_ 0.0637885 0.674094 0.931135 -0.58347
O_ O_ 0.0569673 0.666612 0.885047 -0.58347
O_ O_ 0.0829518 0.726613 0.578627 -0.46727
O_ O_ 0.251632 0.68877 0.587115 -0.46727
O_ O_ 0.0577554 0.704094 0.7281 -0.46727
O_ O_ 0.220793 0.641878 0.734797 -0.46727
O_ O_ 0.30739 0.821615 0.677678 -0.58347
O_ O_ 0.311628 0.817585 0.630337 -0.58347
O_ O_ 0.383735 0.752688 0.687627 -0.58347
O_ O_ 0.389926 0.745587 0.640366 -0.58347
O_ O_ 0.387607 0.899309 0.672045 -0.58347
O_ O_ 0.379349 0.894929 0.624945 -0.58347
O_ O_ 0.452123 0.821356 0.682757 -0.58347
O_ O_ 0.457676 0.821071 0.636296 -0.58347
O_ O_ 0.451419 0.793432 0.827727 -0.46727
O_ O_ 0.27544 0.806146 0.834925 -0.46727
O_ O_ 0.472827 0.815858 0.975705 -0.46727
O_ O_ 0.303954 0.85826 0.983119 -0.46727
Zn Zn 0.614955 0.185197 0.381836 0.90689
Zn Zn 0.621986 0.178248 0.430108 0.90689
Zn Zn 0.868284 0.307811 0.130129 0.90689
Zn Zn 0.86242 0.315017 0.177723 0.90689
H_ H_ 0.793883 0.205403 0.443696 0.11455
H_ H_ 0.855746 0.1521 0.349997 0.11455
H_ H_ 0.767883 0.17836 0.355983 0.11455
H_ H_ 0.877982 0.20884 0.463562 0.11455
H_ H_ 0.969506 0.199247 0.454871 0.11455
H_ H_ 0.946159 0.154732 0.367236 0.11455
H_ H_ 0.649903 0.0151051 0.439435 0.11455
H_ H_ 0.630195 0.434718 0.347381 0.11455
H_ H_ 0.606343 0.0279049 0.351528 0.11455
H_ H_ 0.62071 0.433427 0.46556 0.11455
H_ H_ 0.615806 0.340752 0.461373 0.11455
H_ H_ 0.620551 0.348663 0.36915 0.11455
H_ H_ 0.577453 0.104514 0.467392 0.11455
H_ H_ 0.544135 0.0945452 0.0168519 0.11455
H_ H_ 0.578121 0.139684 0.0561903 0.11455
H_ H_ 0.684307 0.245456 0.470759 0.11455
H_ H_ 0.72102 0.301648 0.0115224 0.11455
H_ H_ 0.703595 0.279327 0.0615105 0.11455
H_ H_ 0.502549 0.230621 0.12103 0.11455
H_ H_ 0.487007 0.213058 0.1727 0.11455
H_ H_ 0.748363 0.161032 0.139703 0.11455
H_ H_ 0.731627 0.158688 0.19069 0.11455
H_ H_ 0.524694 0.111476 0.249439 0.11455
H_ H_ 0.504211 0.0901876 0.299279 0.11455
H_ H_ 0.541651 0.134695 0.338019 0.11455
H_ H_ 0.645423 0.250784 0.256418 0.11455
H_ H_ 0.681717 0.291085 0.295575 0.11455
H_ H_ 0.667386 0.267667 0.345008 0.11455
H_ H_ 0.691581 0.301054 0.193091 0.11455
H_ H_ 0.623808 0.347154 0.0985788 0.11455
H_ H_ 0.711822 0.335643 0.10408 0.11455
H_ H_ 0.606917 0.313727 0.213424 0.11455
H_ H_ 0.513535 0.327668 0.209245 0.11455
H_ H_ 0.540428 0.34387 0.117682 0.11455
H_ H_ 0.817414 0.476191 0.186604 0.11455
H_ H_ 0.843624 0.0572027 0.0951297 0.11455
H_ H_ 0.846158 0.468715 0.0972933 0.11455
H_ H_ 0.897716 0.0664807 0.209368 0.11455
H_ H_ 0.882291 0.157201 0.20369 0.11455
H_ H_ 0.854177 0.140709 0.11305 0.11455
H_ H_ 0.915719 0.38889 0.217186 0.11455
H_ H_ 0.921195 0.41635 0.267142 0.11455
H_ H_ 0.887629 0.366477 0.30516 0.11455
H_ H_ 0.80738 0.241229 0.219486 0.11455
H_ H_ 0.79246 0.173837 0.256771 0.11455
H_ H_ 0.802832 0.200154 0.306266 0.11455
H_ H_ 0.988849 0.277785 0.370562 0.11455
H_ H_ 0.0024900000000001032 0.313219 0.419573 0.11455
H_ H_ 0.738458 0.326173 0.381434 0.11455
H_ H_ 0.748487 0.3421 0.432159 0.11455
H_ H_ 0.928548 0.419737 0.497096 0.11455
H_ H_ 0.96645 0.416385 0.0488176 0.11455
H_ H_ 0.926034 0.365547 0.088792 0.11455
H_ H_ 0.845532 0.243309 0.00471431 0.11455
H_ H_ 0.800893 0.203024 0.0467447 0.11455
H_ H_ 0.810156 0.230714 0.094563 0.11455
C_ C_ 0.716394 0.191034 0.404603 0.68181
C_ C_ 0.77288 0.186692 0.400133 -0.05681
C_ C_ 0.807264 0.192214 0.423629 -0.08735
C_ C_ 0.859134 0.184723 0.419316 -0.05681
C_ C_ 0.877134 0.171114 0.392263 -0.05681
C_ C_ 0.843828 0.168361 0.368971 -0.08735
C_ C_ 0.794105 0.180334 0.373171 -0.08735
C_ C_ 0.89269 0.193113 0.44251 -0.08735
C_ C_ 0.944642 0.193212 0.437663 -0.08735
C_ C_ 0.965261 0.177791 0.410605 -0.05681
C_ C_ 0.93157 0.16589 0.388633 -0.08735
C_ C_ 0.612427 0.279907 0.412401 0.68181
C_ C_ 0.629862 0.0856932 0.398304 0.68181
C_ C_ 0.631556 0.0284036 0.394838 -0.05681
C_ C_ 0.624658 0.496836 0.422714 -0.08735
C_ C_ 0.628282 0.444184 0.420015 -0.05681
C_ C_ 0.623735 0.42184 0.3925 -0.05681
C_ C_ 0.630235 0.451675 0.36794 -0.08735
C_ C_ 0.62952 0.505319 0.370142 -0.08735
C_ C_ 0.622454 0.41476 0.445176 -0.08735
C_ C_ 0.613679 0.361659 0.441727 -0.08735
C_ C_ 0.61543 0.335865 0.415121 -0.05681
C_ C_ 0.618837 0.367419 0.390357 -0.08735
C_ C_ 0.518991 0.167672 0.40914 0.68181
C_ C_ 0.596442 0.123458 0.483463 0.1947
C_ C_ 0.573412 0.121576 0.0125188 -0.08735
C_ C_ 0.592185 0.148847 0.0349973 -0.08735
C_ C_ 0.630897 0.187461 0.0306566 -0.05681
C_ C_ 0.641893 0.200988 1.000877913 0.18498
C_ C_ 0.674508 0.236475 0.492987 -0.08735
C_ C_ 0.699413 0.267431 0.0169317 -0.08735
C_ C_ 0.680841 0.259309 0.0453999 -0.08735
C_ C_ 0.649238 0.217188 0.0528852 0.18498
C_ C_ 0.673537 0.182705 0.0999116 0.44287
C_ C_ 0.595209 0.221713 0.0953812 0.44287
C_ C_ 0.580177 0.20941 0.124047 -0.05681
C_ C_ 0.533211 0.217916 0.135109 -0.08735
C_ C_ 0.523352 0.208217 0.164322 -0.08735
C_ C_ 0.562524 0.191534 0.182816 -0.05681
C_ C_ 0.611356 0.185625 0.171815 -0.05681
C_ C_ 0.618779 0.189401 0.141906 -0.05681
C_ C_ 0.667514 0.180988 0.129725 -0.05681
C_ C_ 0.707811 0.168783 0.147852 -0.08735
C_ C_ 0.698914 0.16138 0.176934 -0.08735
C_ C_ 0.651915 0.174293 0.189564 -0.05681
C_ C_ 0.641933 0.16674 0.219033 0.44287
C_ C_ 0.558052 0.191439 0.2135 0.44287
C_ C_ 0.584773 0.162039 0.259335 0.18498
C_ C_ 0.548884 0.124818 0.265268 -0.08735
C_ C_ 0.536491 0.115197 0.293952 -0.08735
C_ C_ 0.55852 0.141422 0.317663 -0.08735
C_ C_ 0.592516 0.180518 0.312045 0.18498
C_ C_ 0.605549 0.193044 0.28208 -0.05681
C_ C_ 0.63678 0.234475 0.277126 -0.08735
C_ C_ 0.656629 0.260741 0.299924 -0.08735
C_ C_ 0.651841 0.242432 0.328226 0.1947
C_ C_ 0.765931 0.310667 0.150468 0.68181
C_ C_ 0.709776 0.31637 0.148152 -0.05681
C_ C_ 0.676239 0.30896 0.17126 -0.08735
C_ C_ 0.626529 0.325169 0.169705 -0.05681
C_ C_ 0.604344 0.33304 0.142997 -0.05681
C_ C_ 0.637213 0.340174 0.119308 -0.08735
C_ C_ 0.687999 0.332291 0.122768 -0.08735
C_ C_ 0.592611 0.322101 0.191904 -0.08735
C_ C_ 0.539649 0.330641 0.189819 -0.08735
C_ C_ 0.517698 0.331331 0.162109 -0.05681
C_ C_ 0.552744 0.335792 0.139166 -0.08735
C_ C_ 0.865113 0.212507 0.157179 0.68181
C_ C_ 0.858804 0.413328 0.148742 0.68181
C_ C_ 0.845042 0.466627 0.145595 -0.05681
C_ C_ 0.871908 -0.004970999999999948 0.168715 -0.08735
C_ C_ 0.87278 0.0502536 0.165508 -0.05681
C_ C_ 0.862667 0.0705242 0.13883 -0.05681
C_ C_ 0.853991 0.0397139 0.115089 -0.08735
C_ C_ 0.844083 0.490662 0.117863 -0.08735
C_ C_ 0.88295 0.0815317 0.189041 -0.08735
C_ C_ 0.873379 0.132102 0.186271 -0.08735
C_ C_ 0.867457 0.15647 0.159293 -0.05681
C_ C_ 0.861291 0.124053 0.134971 -0.08735
C_ C_ 0.962622 0.319796 0.158483 0.68181
C_ C_ 0.893609 0.36755 0.233778 0.1947
C_ C_ 0.893237 0.385467 0.261587 -0.08735
C_ C_ 0.876664 0.35432 0.283103 -0.08735
C_ C_ 0.856639 0.305888 0.277236 -0.05681
C_ C_ 0.846083 0.295371 0.247409 0.18498
C_ C_ 0.819039 0.250029 0.240955 -0.08735
C_ C_ 0.808441 0.213576 0.262108 -0.08735
C_ C_ 0.819562 0.22407 0.290855 -0.08735
C_ C_ 0.841914 0.272563 0.299252 0.18498
C_ C_ 0.809589 0.290688 0.34577 0.44287
C_ C_ 0.897632 0.283849 0.340705 0.44287
C_ C_ 0.905572 0.293152 0.370026 -0.05681
C_ C_ 0.955421 0.295186 0.38251 -0.08735
C_ C_ 0.96269 0.309852 0.410564 -0.08735
C_ C_ 0.920882 0.316032 0.427904 -0.05681
C_ C_ 0.873152 0.32039 0.41528 -0.05681
C_ C_ 0.864659 0.302314 0.387369 -0.05681
C_ C_ 0.813786 0.298748 0.375885 -0.05681
C_ C_ 0.774514 0.317046 0.392238 -0.08735
C_ C_ 0.78161 0.333487 0.420377 -0.08735
C_ C_ 0.829569 0.333004 0.432361 -0.05681
C_ C_ 0.838627 0.344858 0.462017 0.44287
C_ C_ 0.926668 0.324098 0.457432 0.44287
C_ C_ 0.897619 0.329774 0.00772556 0.18498
C_ C_ 0.931842 0.370297 0.0158638 -0.08735
C_ C_ 0.93904 0.385555 0.0440042 -0.08735
C_ C_ 0.918967 0.35688 0.0657261 -0.08735
C_ C_ 0.883881 0.31826 0.0596152 0.18498
C_ C_ 0.878015 0.301338 0.0304741 -0.05681
C_ C_ 0.845662 0.26003 0.0263689 -0.08735
C_ C_ 0.822928 0.23529 0.0495777 -0.08735
C_ C_ 0.828798 0.254271 0.0771416 0.1947
N_ N_ 0.624748 0.166436 0.478032 -0.29468
N_ N_ 0.640262 0.207839 0.0831911 -0.17154
N_ N_ 0.595871 0.175722 0.230199 -0.17154
N_ N_ 0.618254 0.204012 0.333978 -0.29468
N_ N_ 0.866504 0.325663 0.226175 -0.29468
N_ N_ 0.850196 0.285075 0.328795 -0.17154
N_ N_ 0.88562 0.33492 0.474119 -0.17154
N_ N_ 0.857699 0.295523 0.0818738 -0.29468
O_ O_ 0.699689 0.179083 0.42955 -0.58347
O_ O_ 0.688023 0.193238 0.383307 -0.58347
O_ O_ 0.612973 0.250818 0.433972 -0.58347
O_ O_ 0.609305 0.259758 0.387719 -0.58347
O_ O_ 0.623456 0.104826 0.422601 -0.58347
O_ O_ 0.624075 0.112508 0.376538 -0.58347
O_ O_ 0.547821 0.168956 0.432478 -0.58347
O_ O_ 0.540757 0.176337 0.384724 -0.58347
O_ O_ 0.564368 0.24701 0.0801183 -0.46727
O_ O_ 0.717567 0.169194 0.0889234 -0.46727
O_ O_ 0.515581 0.205749 0.225298 -0.46727
O_ O_ 0.678197 0.149941 0.235961 -0.46727
O_ O_ 0.786746 0.310617 0.175679 -0.58347
O_ O_ 0.795256 0.30933 0.128543 -0.58347
O_ O_ 0.867723 0.239091 0.179654 -0.58347
O_ O_ 0.869166 0.234416 0.133522 -0.58347
O_ O_ 0.860715 0.392335 0.173323 -0.58347
O_ O_ 0.866849 0.386705 0.127083 -0.58347
O_ O_ 0.934037 0.322736 0.17994 -0.58347
O_ O_ 0.944333 0.307587 0.13512 -0.58347
O_ O_ 0.938169 0.28031 0.323177 -0.46727
O_ O_ 0.764913 0.298431 0.33294 -0.46727
O_ O_ 0.971391 0.321657 0.470072 -0.46727
O_ O_ 0.801292 0.362565 0.478546 -0.46727
Zn Zn 0.625456 0.190719 0.882365 0.90689
Zn Zn 0.631709 0.184893 0.930066 0.90689
Zn Zn 0.873756 0.307553 0.629045 0.90689
Zn Zn 0.862845 0.311279 0.676727 0.90689
H_ H_ 0.796324 0.20333 0.946198 0.11455
H_ H_ 0.872772 0.176689 0.849195 0.11455
H_ H_ 0.779392 0.184606 0.853941 0.11455
H_ H_ 0.885883 0.201796 0.967172 0.11455
H_ H_ 0.975362 0.190467 0.961081 0.11455
H_ H_ 0.955271 0.164652 0.871427 0.11455
H_ H_ 0.63457 0.0206123 0.945991 0.11455
H_ H_ 0.662487 0.443092 0.851351 0.11455
H_ H_ 0.660884 0.0365394 0.856991 0.11455
H_ H_ 0.585858 0.427896 0.959832 0.11455
H_ H_ 0.590543 0.340797 0.956353 0.11455
H_ H_ 0.65144 0.361544 0.869517 0.11455
H_ H_ 0.581138 0.110114 0.96791 0.11455
H_ H_ 0.565892 0.0767924 0.515438 0.11455
H_ H_ 0.596417 0.123372 0.554258 0.11455
H_ H_ 0.692761 0.24593 0.972959 0.11455
H_ H_ 0.701021 0.305642 0.510726 0.11455
H_ H_ 0.686997 0.283816 0.559648 0.11455
H_ H_ 0.509776 0.195402 0.619645 0.11455
H_ H_ 0.498003 0.192968 0.669962 0.11455
H_ H_ 0.764438 0.174545 0.636588 0.11455
H_ H_ 0.751574 0.183945 0.687728 0.11455
H_ H_ 0.562097 0.0851757 0.745951 0.11455
H_ H_ 0.54213 0.064558 0.794951 0.11455
H_ H_ 0.58128 0.10917 0.836893 0.11455
H_ H_ 0.655405 0.242623 0.756876 0.11455
H_ H_ 0.679402 0.29791 0.795264 0.11455
H_ H_ 0.659517 0.266108 0.845828 0.11455
H_ H_ 0.694398 0.298407 0.693488 0.11455
H_ H_ 0.625757 0.318794 0.594285 0.11455
H_ H_ 0.7178 0.314036 0.602984 0.11455
H_ H_ 0.609338 0.316047 0.711814 0.11455
H_ H_ 0.512726 0.304856 0.703033 0.11455
H_ H_ 0.54065 0.330046 0.614562 0.11455
H_ H_ 0.854616 0.47918 0.694866 0.11455
H_ H_ 0.890231 0.0583692 0.592497 0.11455
H_ H_ 0.862503 0.463961 0.602303 0.11455
H_ H_ 0.869013 0.0661525 0.710909 0.11455
H_ H_ 0.869412 0.158946 0.703198 0.11455
H_ H_ 0.913914 0.139551 0.620507 0.11455
H_ H_ 0.918446 0.381436 0.709848 0.11455
H_ H_ 0.937581 0.406394 0.75903 0.11455
H_ H_ 0.905649 0.361701 0.800444 0.11455
H_ H_ 0.799013 0.244826 0.721887 0.11455
H_ H_ 0.769428 0.195184 0.761226 0.11455
H_ H_ 0.80686 0.206145 0.806423 0.11455
H_ H_ 0.992496 0.287928 0.868421 0.11455
H_ H_ 0.00344466 0.29025 0.921447 0.11455
H_ H_ 0.743647 0.334874 0.884755 0.11455
H_ H_ 0.754502 0.348957 0.936388 0.11455
H_ H_ 0.95059 0.393687 0.999506 0.11455
H_ H_ 0.950412 0.434848 0.546725 0.11455
H_ H_ 0.934969 0.372581 0.583634 0.11455
H_ H_ 0.828458 0.261652 0.500488 0.11455
H_ H_ 0.794117 0.212759 0.542392 0.11455
H_ H_ 0.816142 0.236218 0.591689 0.11455
C_ C_ 0.726159 0.199138 0.904962 0.68181
C_ C_ 0.782588 0.196394 0.900883 -0.05681
C_ C_ 0.81335 0.198024 0.924412 -0.08735
C_ C_ 0.863955 0.186314 0.922281 -0.05681
C_ C_ 0.886347 0.177239 0.894751 -0.05681
C_ C_ 0.855129 0.179676 0.870369 -0.08735
C_ C_ 0.803113 0.186871 0.872881 -0.08735
C_ C_ 0.897475 0.187833 0.946308 -0.08735
C_ C_ 0.949156 0.187415 0.941518 -0.08735
C_ C_ 0.969621 0.176074 0.914163 -0.05681
C_ C_ 0.938972 0.163337 0.892465 -0.08735
C_ C_ 0.622864 0.28594 0.912254 0.68181
C_ C_ 0.636425 0.0910283 0.903235 0.68181
C_ C_ 0.637265 0.0351419 0.900568 -0.05681
C_ C_ 0.623928 0.500495 0.923328 -0.08735
C_ C_ 0.624321 0.447854 0.92062 -0.05681
C_ C_ 0.639476 0.426322 0.894308 -0.05681
C_ C_ 0.65262 0.458196 0.87133 -0.08735
C_ C_ 0.657334 0.509358 0.875655 -0.08735
C_ C_ 0.605326 0.414494 0.941676 -0.08735
C_ C_ 0.6043 0.363336 0.938084 -0.08735
C_ C_ 0.61904 0.341285 0.913199 -0.05681
C_ C_ 0.639854 0.373902 0.891 -0.08735
C_ C_ 0.532402 0.182855 0.908916 0.68181
C_ C_ 0.591807 0.132831 0.984623 0.1947
C_ C_ 0.589939 0.105514 0.511061 -0.08735
C_ C_ 0.611041 0.131102 0.53407 -0.08735
C_ C_ 0.63751 0.177013 0.528219 -0.05681
C_ C_ 0.643909 0.195851 0.499415 0.18498
C_ C_ 0.681056 0.236713 0.995247 -0.08735
C_ C_ 0.686993 0.269566 0.515135 -0.08735
C_ C_ 0.675074 0.257407 0.543517 -0.08735
C_ C_ 0.651893 0.210457 0.550081 0.18498
C_ C_ 0.688334 0.187848 0.595508 0.44287
C_ C_ 0.599469 0.203967 0.591604 0.44287
C_ C_ 0.591154 0.186072 0.619624 -0.05681
C_ C_ 0.543184 0.189856 0.633171 -0.08735
C_ C_ 0.53678 0.185834 0.662796 -0.08735
C_ C_ 0.579075 0.179715 0.68031 -0.05681
C_ C_ 0.627994 0.174354 0.668753 -0.05681
C_ C_ 0.634106 0.177823 0.637567 -0.05681
C_ C_ 0.683598 0.18043 0.625905 -0.05681
C_ C_ 0.727053 0.173832 0.644595 -0.08735
C_ C_ 0.719362 0.171487 0.674001 -0.08735
C_ C_ 0.671057 0.165399 0.685303 -0.05681
C_ C_ 0.662421 0.159138 0.715821 0.44287
C_ C_ 0.574475 0.178359 0.71104 0.44287
C_ C_ 0.605868 0.153887 0.757521 0.18498
C_ C_ 0.581807 0.105684 0.763919 -0.08735
C_ C_ 0.5683 0.0932367 0.792217 -0.08735
C_ C_ 0.583192 0.125194 0.814908 -0.08735
C_ C_ 0.616789 0.166051 0.809507 0.18498
C_ C_ 0.630324 0.179469 0.780278 -0.05681
C_ C_ 0.651544 0.227826 0.776608 -0.08735
C_ C_ 0.664002 0.260129 0.799627 -0.08735
C_ C_ 0.653354 0.242404 0.827144 0.1947
C_ C_ 0.769311 0.30215 0.653012 0.68181
C_ C_ 0.712565 0.305005 0.649134 -0.05681
C_ C_ 0.679691 0.305183 0.671662 -0.08735
C_ C_ 0.628065 0.313855 0.667541 -0.05681
C_ C_ 0.609371 0.318177 0.640174 -0.05681
C_ C_ 0.642665 0.314519 0.616324 -0.08735
C_ C_ 0.694108 0.316687 0.621239 -0.08735
C_ C_ 0.592117 0.316091 0.690443 -0.08735
C_ C_ 0.540126 0.3139 0.686858 -0.08735
C_ C_ 0.521448 0.324106 0.658868 -0.05681
C_ C_ 0.555521 0.323656 0.635357 -0.08735
C_ C_ 0.879949 0.212117 0.656694 0.68181
C_ C_ 0.857986 0.408506 0.649259 0.68181
C_ C_ 0.860431 0.464646 0.648638 -0.05681
C_ C_ 0.876978 -0.0028679999999999817 0.668016 -0.08735
C_ C_ 0.877014 0.0516457 0.665281 -0.05681
C_ C_ 0.881443 0.0729748 0.637652 -0.05681
C_ C_ 0.885796 0.0418487 0.612655 -0.08735
C_ C_ 0.85991 0.487185 0.621045 -0.08735
C_ C_ 0.870651 0.0823 0.689569 -0.08735
C_ C_ 0.87063 0.13467 0.685454 -0.08735
C_ C_ 0.881539 0.155193 0.658999 -0.05681
C_ C_ 0.88829 0.125329 0.635431 -0.08735
C_ C_ 0.967277 0.316333 0.651621 0.68181
C_ C_ 0.901671 0.360738 0.728567 0.1947
C_ C_ 0.91588 0.373584 0.75561 -0.08735
C_ C_ 0.89669 0.348274 0.778816 -0.08735
C_ C_ 0.865135 0.306474 0.77612 -0.05681
C_ C_ 0.852422 0.291569 0.746636 0.18498
C_ C_ 0.815551 0.25392 0.742164 -0.08735
C_ C_ 0.798939 0.22295 0.763958 -0.08735
C_ C_ 0.816372 0.234911 0.791178 -0.08735
C_ C_ 0.846394 0.278391 0.798778 0.18498
C_ C_ 0.815585 0.305445 0.846007 0.44287
C_ C_ 0.901402 0.283351 0.841542 0.44287
C_ C_ 0.910386 0.295871 0.870379 -0.05681
C_ C_ 0.958846 0.291861 0.883069 -0.08735
C_ C_ 0.964506 0.298401 0.912328 -0.08735
C_ C_ 0.922215 0.304376 0.930126 -0.05681
C_ C_ 0.873438 0.310551 0.917988 -0.05681
C_ C_ 0.86899 0.3104 0.888127 -0.05681
C_ C_ 0.822168 0.316848 0.875741 -0.05681
C_ C_ 0.780436 0.33383 0.892783 -0.08735
C_ C_ 0.786967 0.336045 0.92303 -0.08735
C_ C_ 0.83355 0.327139 0.936257 -0.05681
C_ C_ 0.840377 0.324748 0.966287 0.44287
C_ C_ 0.929003 0.308873 0.960339 0.44287
C_ C_ 0.893124 0.345165 0.504777 0.18498
C_ C_ 0.914716 0.391274 0.513028 -0.08735
C_ C_ 0.925931 0.401163 0.541037 -0.08735
C_ C_ 0.914926 0.365889 0.563443 -0.08735
C_ C_ 0.887189 0.321383 0.557718 0.18498
C_ C_ 0.874049 0.313116 0.527556 -0.05681
C_ C_ 0.84221 0.270035 0.522157 -0.08735
C_ C_ 0.822644 0.241625 0.54505 -0.08735
C_ C_ 0.833564 0.255047 0.573698 0.1947
N_ N_ 0.623373 0.172621 0.978815 -0.29468
N_ N_ 0.645996 0.19715 0.579524 -0.17154
N_ N_ 0.615452 0.165521 0.727541 -0.17154
N_ N_ 0.627224 0.198921 0.831868 -0.29468
N_ N_ 0.875355 0.31725 0.723849 -0.29468
N_ N_ 0.855965 0.290688 0.82825 -0.17154
N_ N_ 0.887262 0.316215 0.977846 -0.17154
N_ N_ 0.868103 0.292047 0.579602 -0.29468
O_ O_ 0.70641 0.184496 0.92873 -0.58347
O_ O_ 0.699132 0.210958 0.883983 -0.58347
O_ O_ 0.634335 0.259106 0.934032 -0.58347
O_ O_ 0.610148 0.263803 0.888681 -0.58347
O_ O_ 0.630324 0.115007 0.926424 -0.58347
O_ O_ 0.646638 0.116907 0.880998 -0.58347
O_ O_ 0.5595 0.179355 0.931203 -0.58347
O_ O_ 0.5525 0.180502 0.884114 -0.58347
O_ O_ 0.561766 0.222269 0.57645 -0.46727
O_ O_ 0.731921 0.197047 0.584204 -0.46727
O_ O_ 0.529332 0.186038 0.722297 -0.46727
O_ O_ 0.70045 0.1458 0.732525 -0.46727
O_ O_ 0.788909 0.307047 0.677556 -0.58347
O_ O_ 0.797666 0.295879 0.630796 -0.58347
O_ O_ 0.868022 0.236742 0.678855 -0.58347
O_ O_ 0.886832 0.234705 0.633038 -0.58347
O_ O_ 0.860871 0.386302 0.672856 -0.58347
O_ O_ 0.861831 0.381202 0.626903 -0.58347
O_ O_ 0.937816 0.312584 0.673745 -0.58347
O_ O_ 0.948177 0.320641 0.626813 -0.58347
O_ O_ 0.940028 0.265537 0.826849 -0.46727
O_ O_ 0.769869 0.305567 0.835518 -0.46727
O_ O_ 0.975002 0.302531 0.971824 -0.46727
O_ O_ 0.804462 0.342097 0.982603 -0.46727
Zn Zn 0.616661 0.684172 0.383995 0.90689
Zn Zn 0.626709 0.684 0.431642 0.90689
Zn Zn 0.880394 0.805947 0.128784 0.90689
Zn Zn 0.86812 0.811625 0.177755 0.90689
H_ H_ 0.792749 0.680153 0.448228 0.11455
H_ H_ 0.868312 0.671934 0.35094 0.11455
H_ H_ 0.777527 0.67389 0.355266 0.11455
H_ H_ 0.881781 0.686589 0.468931 0.11455
H_ H_ 0.973086 0.691999 0.464839 0.11455
H_ H_ 0.949648 0.683665 0.37299 0.11455
H_ H_ 0.6276 0.514772 0.443628 0.11455
H_ H_ 0.585227 0.938083 0.349555 0.11455
H_ H_ 0.635049 0.530983 0.351268 0.11455
H_ H_ 0.650427 0.935174 0.464039 0.11455
H_ H_ 0.648527 0.841038 0.459208 0.11455
H_ H_ 0.605531 0.850665 0.371171 0.11455
H_ H_ 0.581413 0.604032 0.472083 0.11455
H_ H_ 0.566689 0.587031 0.0165225 0.11455
H_ H_ 0.611164 0.626821 0.0558717 0.11455
H_ H_ 0.699664 0.738866 0.472392 0.11455
H_ H_ 0.72963 0.802737 0.0159604 0.11455
H_ H_ 0.697911 0.783643 0.0647607 0.11455
H_ H_ 0.502435 0.70461 0.122551 0.11455
H_ H_ 0.491005 0.691724 0.174671 0.11455
H_ H_ 0.750161 0.672166 0.137682 0.11455
H_ H_ 0.742317 0.665201 0.189903 0.11455
H_ H_ 0.550455 0.589328 0.248278 0.11455
H_ H_ 0.548842 0.555007 0.296784 0.11455
H_ H_ 0.560384 0.621955 0.337631 0.11455
H_ H_ 0.640082 0.746997 0.258678 0.11455
H_ H_ 0.678935 0.79257 0.298838 0.11455
H_ H_ 0.666139 0.759899 0.348237 0.11455
H_ H_ 0.695059 0.794217 0.187543 0.11455
H_ H_ 0.636815 0.859019 0.0950411 0.11455
H_ H_ 0.727036 0.852378 0.104013 0.11455
H_ H_ 0.615812 0.80303 0.209025 0.11455
H_ H_ 0.523253 0.810095 0.20366 0.11455
H_ H_ 0.543428 0.849014 0.114566 0.11455
H_ H_ 0.875961 0.976791 0.189609 0.11455
H_ H_ 0.842213 0.559611 0.0932341 0.11455
H_ H_ 0.845929 0.962706 0.0991536 0.11455
H_ H_ 0.813311 0.567833 0.212058 0.11455
H_ H_ 0.838866 0.657525 0.209838 0.11455
H_ H_ 0.863376 0.645921 0.118421 0.11455
H_ H_ 0.928238 0.879444 0.211942 0.11455
H_ H_ 0.935312 0.91995 0.260552 0.11455
H_ H_ 0.880728 0.890792 0.299115 0.11455
H_ H_ 0.801965 0.754909 0.221555 0.11455
H_ H_ 0.771976 0.704421 0.263138 0.11455
H_ H_ 0.788482 0.73559 0.311018 0.11455
H_ H_ 0.984626 0.808029 0.363888 0.11455
H_ H_ -0.00157004 0.798653 0.416553 0.11455
H_ H_ 0.733759 0.815261 0.393264 0.11455
H_ H_ 0.753711 0.819316 0.445414 0.11455
H_ H_ 0.954508 0.899068 0.493626 0.11455
H_ H_ 0.965086 0.924769 0.0434566 0.11455
H_ H_ 0.935864 0.871292 0.0842631 0.11455
H_ H_ 0.837278 0.753573 0.00405694 0.11455
H_ H_ 0.806615 0.703611 0.0473129 0.11455
H_ H_ 0.829008 0.73299 0.0956605 0.11455
C_ C_ 0.722608 0.68926 0.405676 0.68181
C_ C_ 0.777462 0.686097 0.402996 -0.05681
C_ C_ 0.809173 0.683771 0.428036 -0.08735
C_ C_ 0.862591 0.680802 0.424961 -0.05681
C_ C_ 0.884444 0.677836 0.397854 -0.05681
C_ C_ 0.853403 0.678585 0.372622 -0.08735
C_ C_ 0.801535 0.677746 0.375106 -0.08735
C_ C_ 0.896045 0.690423 0.448167 -0.08735
C_ C_ 0.948879 0.689587 0.445393 -0.08735
C_ C_ 0.970579 0.68269 0.417713 -0.05681
C_ C_ 0.936731 0.6798 0.394367 -0.08735
C_ C_ 0.615823 0.782656 0.415397 0.68181
C_ C_ 0.621207 0.584568 0.400096 0.68181
C_ C_ 0.625561 0.526914 0.397543 -0.05681
C_ C_ 0.644474 0.996792 0.419074 -0.08735
C_ C_ 0.635492 0.945885 0.418174 -0.05681
C_ C_ 0.616263 0.922123 0.393012 -0.05681
C_ C_ 0.603836 0.953374 0.369434 -0.08735
C_ C_ 0.610409 1.00619645 0.371331 -0.08735
C_ C_ 0.640586 0.916044 0.443291 -0.08735
C_ C_ 0.637714 0.863072 0.440548 -0.08735
C_ C_ 0.621758 0.840235 0.415814 -0.05681
C_ C_ 0.612787 0.869158 0.390991 -0.08735
C_ C_ 0.523364 0.674805 0.412059 0.68181
C_ C_ 0.6076 0.622289 0.487103 0.1947
C_ C_ 0.591112 0.618545 0.011955 -0.08735
C_ C_ 0.609529 0.646554 0.0352782 -0.08735
C_ C_ 0.63448 0.691531 0.0308925 -0.05681
C_ C_ 0.647176 0.705495 1.00158025 0.18498
C_ C_ 0.68768 0.734486 0.494079 -0.08735
C_ C_ 0.700894 0.772025 0.0198875 -0.08735
C_ C_ 0.680454 0.764758 0.0472491 -0.08735
C_ C_ 0.650064 0.722851 0.0540604 0.18498
C_ C_ 0.681808 0.694142 0.100225 0.44287
C_ C_ 0.594129 0.713804 0.0947049 0.44287
C_ C_ 0.585039 0.703131 0.123774 -0.05681
C_ C_ 0.535952 0.701416 0.134799 -0.08735
C_ C_ 0.528961 0.690565 0.164192 -0.08735
C_ C_ 0.570465 0.684707 0.183011 -0.05681
C_ C_ 0.620543 0.689505 0.171223 -0.05681
C_ C_ 0.626265 0.694899 0.141848 -0.05681
C_ C_ 0.673427 0.685426 0.130136 -0.05681
C_ C_ 0.714528 0.67772 0.147888 -0.08735
C_ C_ 0.708756 0.675529 0.177891 -0.08735
C_ C_ 0.660862 0.675403 0.189601 -0.05681
C_ C_ 0.649509 0.664338 0.219665 0.44287
C_ C_ 0.563789 0.680067 0.212386 0.44287
C_ C_ 0.592851 0.657498 0.259566 0.18498
C_ C_ 0.570025 0.609945 0.26549 -0.08735
C_ C_ 0.564721 0.592395 0.293391 -0.08735
C_ C_ 0.57821 0.624949 0.316678 -0.08735
C_ C_ 0.601535 0.670779 0.311571 0.18498
C_ C_ 0.612502 0.686156 0.282931 -0.05681
C_ C_ 0.635913 0.733437 0.279108 -0.08735
C_ C_ 0.654374 0.760857 0.30269 -0.08735
C_ C_ 0.649369 0.73911 0.330026 0.1947
C_ C_ 0.772803 0.814885 0.150679 0.68181
C_ C_ 0.717857 0.819586 0.14597 -0.05681
C_ C_ 0.684072 0.81312 0.168298 -0.08735
C_ C_ 0.632033 0.816383 0.163994 -0.05681
C_ C_ 0.613997 0.838069 0.13792 -0.05681
C_ C_ 0.648464 0.843144 0.114272 -0.08735
C_ C_ 0.698016 0.836414 0.119111 -0.08735
C_ C_ 0.59938 0.809193 0.187839 -0.08735
C_ C_ 0.548147 0.816907 0.18525 -0.08735
C_ C_ 0.528782 0.830293 0.15882 -0.05681
C_ C_ 0.56075 0.840383 0.134926 -0.08735
C_ C_ 0.873021 0.711604 0.162503 0.68181
C_ C_ 0.869228 0.907851 0.147127 0.68181
C_ C_ 0.86335 0.963756 0.145201 -0.05681
C_ C_ 0.83589 0.496407 0.16928 -0.08735
C_ C_ 0.838412 0.551038 0.167152 -0.05681
C_ C_ 0.845261 0.573294 0.140231 -0.05681
C_ C_ 0.838618 0.543497 0.115224 -0.08735
C_ C_ 0.853528 0.985739 0.118371 -0.08735
C_ C_ 0.830973 0.582292 0.192379 -0.08735
C_ C_ 0.83863 0.633361 0.190281 -0.08735
C_ C_ 0.857421 0.656062 0.164077 -0.05681
C_ C_ 0.857725 0.626594 0.138713 -0.08735
C_ C_ 0.973245 0.807617 0.157542 0.68181
C_ C_ 0.901526 0.870415 0.229088 0.1947
C_ C_ 0.906298 0.890455 0.256711 -0.08735
C_ C_ 0.87693 0.872744 0.279535 -0.08735
C_ C_ 0.852232 0.826732 0.276211 -0.05681
C_ C_ 0.844971 0.80927 0.246987 0.18498
C_ C_ 0.810629 0.770282 0.243141 -0.08735
C_ C_ 0.793741 0.740729 0.266351 -0.08735
C_ C_ 0.804001 0.756534 0.294238 -0.08735
C_ C_ 0.829723 0.801078 0.29947 0.18498
C_ C_ 0.801766 0.818518 0.349259 0.44287
C_ C_ 0.887659 0.805991 0.338703 0.44287
C_ C_ 0.900141 0.807479 0.368581 -0.05681
C_ C_ 0.950965 0.804936 0.377726 -0.08735
C_ C_ 0.961008 0.801688 0.4072 -0.08735
C_ C_ 0.921664 0.809773 0.427747 -0.05681
C_ C_ 0.872165 0.82046 0.418314 -0.05681
C_ C_ 0.862178 0.813328 0.389382 -0.05681
C_ C_ 0.812297 0.819189 0.379588 -0.05681
C_ C_ 0.772251 0.817814 0.399911 -0.08735
C_ C_ 0.782601 0.829222 0.428941 -0.08735
C_ C_ 0.832327 0.829532 0.438291 -0.05681
C_ C_ 0.846052 0.836606 0.467341 0.44287
C_ C_ 0.932695 0.810937 0.457704 0.44287
C_ C_ 0.892069 0.841048 0.00631032 0.18498
C_ C_ 0.922233 0.882076 0.0123624 -0.08735
C_ C_ 0.937212 0.895248 0.039745 -0.08735
C_ C_ 0.918229 0.86657 0.0634823 -0.08735
C_ C_ 0.889843 0.824038 0.0590402 0.18498
C_ C_ 0.878852 0.809002 0.029833 -0.05681
C_ C_ 0.847527 0.766775 0.0254661 -0.08735
C_ C_ 0.832288 0.738235 0.0487985 -0.08735
C_ C_ 0.84618 0.752132 0.0770793 0.1947
N_ N_ 0.631491 0.667599 0.480059 -0.29468
N_ N_ 0.641222 0.712028 0.0840724 -0.17154
N_ N_ 0.603436 0.67071 0.230429 -0.17154
N_ N_ 0.619281 0.697982 0.334778 -0.29468
N_ N_ 0.86939 0.831655 0.224431 -0.29468
N_ N_ 0.839168 0.811395 0.329257 -0.17154
N_ N_ 0.894142 0.824221 0.477133 -0.17154
N_ N_ 0.872906 0.795804 0.0813204 -0.29468
O_ O_ 0.702486 0.693137 0.429789 -0.58347
O_ O_ 0.693206 0.683566 0.383709 -0.58347
O_ O_ 0.61664 0.757617 0.43779 -0.58347
O_ O_ 0.616044 0.760182 0.391941 -0.58347
O_ O_ 0.628386 0.606502 0.423933 -0.58347
O_ O_ 0.615821 0.611441 0.3777 -0.58347
O_ O_ 0.551891 0.671701 0.434315 -0.58347
O_ O_ 0.54214 0.68104 0.387456 -0.58347
O_ O_ 0.555869 0.730129 0.0779496 -0.46727
O_ O_ 0.723724 0.680826 0.0869817 -0.46727
O_ O_ 0.516934 0.688987 0.222423 -0.46727
O_ O_ 0.68742 0.653484 0.236431 -0.46727
O_ O_ 0.789151 0.810919 0.17582 -0.58347
O_ O_ 0.802323 0.806011 0.129911 -0.58347
O_ O_ 0.864831 0.739705 0.18434 -0.58347
O_ O_ 0.879214 0.7311 0.13845 -0.58347
O_ O_ 0.873737 0.88776 0.171715 -0.58347
O_ O_ 0.869759 0.879437 0.125153 -0.58347
O_ O_ 0.944522 0.806868 0.178643 -0.58347
O_ O_ 0.955098 0.804975 0.132455 -0.58347
O_ O_ 0.924828 0.796819 0.320739 -0.46727
O_ O_ 0.753706 0.815865 0.339258 -0.46727
O_ O_ 0.979249 0.801139 0.467264 -0.46727
O_ O_ 0.810784 0.84941 0.486197 -0.46727
Zn Zn 0.627668 0.688421 0.882536 0.90689
Zn Zn 0.638974 0.688902 0.92971 0.90689
Zn Zn 0.885993 0.80734 0.630126 0.90689
Zn Zn 0.876285 0.813514 0.678269 0.90689
H_ H_ 0.81219 0.698946 0.944488 0.11455
H_ H_ 0.873942 0.658656 0.84913 0.11455
H_ H_ 0.78357 0.672482 0.856344 0.11455
H_ H_ 0.897852 0.694724 0.966349 0.11455
H_ H_ 0.98634 0.695399 0.957846 0.11455
H_ H_ 0.962251 0.658315 0.869281 0.11455
H_ H_ 0.602766 0.51802 0.939747 0.11455
H_ H_ 0.666591 0.948948 0.849358 0.11455
H_ H_ 0.668876 0.532016 0.857072 0.11455
H_ H_ 0.591231 0.93224 0.96007 0.11455
H_ H_ 0.595595 0.84329 0.956674 0.11455
H_ H_ 0.652539 0.855177 0.869305 0.11455
H_ H_ 0.58689 0.613103 0.967444 0.11455
H_ H_ 0.593392 0.566024 0.51942 0.11455
H_ H_ 0.615123 0.623771 0.559702 0.11455
H_ H_ 0.688588 0.759496 0.974752 0.11455
H_ H_ 0.741849 0.78963 0.510147 0.11455
H_ H_ 0.711511 0.784292 0.558571 0.11455
H_ H_ 0.526662 0.723967 0.62667 0.11455
H_ H_ 0.5141 0.688276 0.67527 0.11455
H_ H_ 0.767614 0.638106 0.634074 0.11455
H_ H_ 0.747236 0.611709 0.681575 0.11455
H_ H_ 0.588651 0.572321 0.74936 0.11455
H_ H_ 0.551594 0.558692 0.796076 0.11455
H_ H_ 0.571972 0.614325 0.836771 0.11455
H_ H_ 0.664243 0.738662 0.755196 0.11455
H_ H_ 0.70678 0.780778 0.796522 0.11455
H_ H_ 0.691298 0.749805 0.846723 0.11455
H_ H_ 0.707901 0.785039 0.693055 0.11455
H_ H_ 0.639106 0.846234 0.602142 0.11455
H_ H_ 0.730993 0.839163 0.605559 0.11455
H_ H_ 0.622408 0.794126 0.714324 0.11455
H_ H_ 0.529621 0.795528 0.707356 0.11455
H_ H_ 0.550884 0.841034 0.621195 0.11455
H_ H_ 0.872564 0.980898 0.689267 0.11455
H_ H_ 0.860747 0.559621 0.598067 0.11455
H_ H_ 0.893266 0.96718 0.597901 0.11455
H_ H_ 0.859136 0.563338 0.716237 0.11455
H_ H_ 0.867625 0.657761 0.711562 0.11455
H_ H_ 0.883808 0.636901 0.618632 0.11455
H_ H_ 0.935971 0.879948 0.715407 0.11455
H_ H_ 0.953077 0.904703 0.765651 0.11455
H_ H_ 0.903528 0.865045 0.805036 0.11455
H_ H_ 0.82336 0.741695 0.719714 0.11455
H_ H_ 0.792177 0.688382 0.758946 0.11455
H_ H_ 0.811247 0.708628 0.80782 0.11455
H_ H_ 0.983799 0.76451 0.871815 0.11455
H_ H_ 0.99892156 0.785865 0.921343 0.11455
H_ H_ 0.74411 0.838729 0.878317 0.11455
H_ H_ 0.754588 0.858351 0.931667 0.11455
H_ H_ 0.936807 0.902372 0.994313 0.11455
H_ H_ 0.975181 0.925314 0.54433 0.11455
H_ H_ 0.945487 0.873944 0.582982 0.11455
H_ H_ 0.834861 0.754881 0.504692 0.11455
H_ H_ 0.818698 0.7079 0.547135 0.11455
H_ H_ 0.831424 0.739081 0.59493 0.11455
C_ C_ 0.73118 0.688653 0.907504 0.68181
C_ C_ 0.788295 0.681769 0.902769 -0.05681
C_ C_ 0.825559 0.687267 0.925095 -0.08735
C_ C_ 0.877709 0.684133 0.921204 -0.05681
C_ C_ 0.895558 0.671283 0.894244 -0.05681
C_ C_ 0.859905 0.664418 0.871265 -0.08735
C_ C_ 0.80724 0.671657 0.87599 -0.08735
C_ C_ 0.909963 0.684322 0.944735 -0.08735
C_ C_ 0.962348 0.681694 0.939802 -0.08735
C_ C_ 0.980156 0.67026 0.912138 -0.05681
C_ C_ 0.946348 0.664309 0.889899 -0.08735
C_ C_ 0.628339 0.786623 0.910161 0.68181
C_ C_ 0.635935 0.587739 0.904016 0.68181
C_ C_ 0.639863 0.531795 0.901142 -0.05681
C_ C_ 0.633908 0.00320044 0.924127 -0.08735
C_ C_ 0.627295 0.949373 0.918773 -0.05681
C_ C_ 0.642794 0.92793 0.892366 -0.05681
C_ C_ 0.65471 0.961508 0.870413 -0.08735
C_ C_ 0.64779 0.0137637 0.873964 -0.08735
C_ C_ 0.604926 0.918248 0.940688 -0.08735
C_ C_ 0.610927 0.867082 0.93912 -0.08735
C_ C_ 0.625668 0.843808 0.913363 -0.05681
C_ C_ 0.638003 0.874515 0.889243 -0.08735
C_ C_ 0.535589 0.68661 0.908217 0.68181
C_ C_ 0.600431 0.635259 0.984304 0.1947
C_ C_ 0.60536 0.605065 0.515144 -0.08735
C_ C_ 0.622419 0.636072 0.537615 -0.08735
C_ C_ 0.646887 0.682366 0.531135 -0.05681
C_ C_ 0.65349 0.694868 0.501537 0.18498
C_ C_ 0.680191 0.746375 0.996409 -0.08735
C_ C_ 0.710797 0.764015 0.515435 -0.08735
C_ C_ 0.694518 0.757657 0.543737 -0.08735
C_ C_ 0.666108 0.715473 0.552891 0.18498
C_ C_ 0.698633 0.691852 0.598831 0.44287
C_ C_ 0.611673 0.715122 0.596254 0.44287
C_ C_ 0.603602 0.698703 0.625641 -0.05681
C_ C_ 0.557475 0.707875 0.63868 -0.08735
C_ C_ 0.551035 0.694446 0.667866 -0.08735
C_ C_ 0.592098 0.680558 0.684469 -0.05681
C_ C_ 0.641113 0.674191 0.670108 -0.05681
C_ C_ 0.646056 0.683691 0.641012 -0.05681
C_ C_ 0.692511 0.675236 0.627363 -0.05681
C_ C_ 0.732322 0.648687 0.643042 -0.08735
C_ C_ 0.724529 0.64014 0.671706 -0.08735
C_ C_ 0.681362 0.655906 0.686598 -0.05681
C_ C_ 0.675577 0.649773 0.716436 0.44287
C_ C_ 0.588015 0.672105 0.713897 0.44287
C_ C_ 0.621419 0.64478 0.758926 0.18498
C_ C_ 0.596814 0.600077 0.76611 -0.08735
C_ C_ 0.576121 0.591275 0.793302 -0.08735
C_ C_ 0.592363 0.619953 0.816431 -0.08735
C_ C_ 0.624855 0.662834 0.811087 0.18498
C_ C_ 0.638675 0.6771 0.781961 -0.05681
C_ C_ 0.661526 0.723625 0.777504 -0.08735
C_ C_ 0.682669 0.748549 0.800146 -0.08735
C_ C_ 0.674248 0.731888 0.828792 0.1947
C_ C_ 0.78401 0.813321 0.65444 0.68181
C_ C_ 0.727719 0.81752 0.651455 -0.05681
C_ C_ 0.694091 0.808758 0.674805 -0.08735
C_ C_ 0.640428 0.818902 0.671843 -0.05681
C_ C_ 0.620679 0.83388 0.645357 -0.05681
C_ C_ 0.654497 0.842042 0.622773 -0.08735
C_ C_ 0.706216 0.832232 0.624731 -0.08735
C_ C_ 0.60716 0.806939 0.694432 -0.08735
C_ C_ 0.555211 0.80722 0.690184 -0.08735
C_ C_ 0.534354 0.82238 0.664487 -0.05681
C_ C_ 0.567692 0.834603 0.641743 -0.08735
C_ C_ 0.878378 0.713941 0.661177 0.68181
C_ C_ 0.883892 0.910114 0.64626 0.68181
C_ C_ 0.882351 0.967271 0.643283 -0.05681
C_ C_ 0.85569 0.495023 0.673486 -0.08735
C_ C_ 0.855666 0.549007 0.671283 -0.05681
C_ C_ 0.863229 0.571174 0.644743 -0.05681
C_ C_ 0.857557 0.53946 0.619171 -0.08735
C_ C_ 0.882749 0.988433 0.61562 -0.08735
C_ C_ 0.860243 0.581533 0.694923 -0.08735
C_ C_ 0.866966 0.634633 0.692 -0.08735
C_ C_ 0.878284 0.657242 0.664715 -0.05681
C_ C_ 0.875296 0.624356 0.640969 -0.08735
C_ C_ 0.978425 0.82204 0.654366 0.68181
C_ C_ 0.916044 0.863013 0.73269 0.1947
C_ C_ 0.928621 0.873564 0.760368 -0.08735
C_ C_ 0.896763 0.85275 0.782504 -0.08735
C_ C_ 0.864465 0.811462 0.776533 -0.05681
C_ C_ 0.854708 0.80014 0.747733 0.18498
C_ C_ 0.824158 0.755869 0.741807 -0.08735
C_ C_ 0.809008 0.723854 0.763568 -0.08735
C_ C_ 0.822254 0.736133 0.791506 -0.08735
C_ C_ 0.846723 0.779199 0.79886 0.18498
C_ C_ 0.815916 0.80752 0.84504 0.44287
C_ C_ 0.901632 0.780958 0.84126 0.44287
C_ C_ 0.909515 0.794926 0.870479 -0.05681
C_ C_ 0.958303 0.787556 0.883161 -0.08735
C_ C_ 0.96321 0.798802 0.912172 -0.08735
C_ C_ 0.92212 0.811478 0.929993 -0.05681
C_ C_ 0.875233 0.817671 0.916816 -0.05681
C_ C_ 0.867909 0.808165 0.886797 -0.05681
C_ C_ 0.821288 0.81531 0.874002 -0.05681
C_ C_ 0.78073 0.829618 0.89039 -0.08735
C_ C_ 0.787616 0.842857 0.919811 -0.08735
C_ C_ 0.833201 0.833491 0.933076 -0.05681
C_ C_ 0.840216 0.837895 0.962879 0.44287
C_ C_ 0.925891 0.816635 0.959452 0.44287
C_ C_ 0.906705 0.836471 0.506224 0.18498
C_ C_ 0.939893 0.876733 0.51202 -0.08735
C_ C_ 0.950409 0.892464 0.540471 -0.08735
C_ C_ 0.933222 0.863944 0.563243 -0.08735
C_ C_ 0.900759 0.822893 0.558427 0.18498
C_ C_ 0.882484 0.811556 0.529971 -0.05681
C_ C_ 0.84767 0.772187 0.525396 -0.08735
C_ C_ 0.833859 0.74519 0.549559 -0.08735
C_ C_ 0.849677 0.758186 0.577618 0.1947
N_ N_ 0.628835 0.67729 0.978728 -0.29468
N_ N_ 0.658603 0.706925 0.582883 -0.17154
N_ N_ 0.630191 0.65862 0.729426 -0.17154
N_ N_ 0.644054 0.692758 0.833656 -0.29468
N_ N_ 0.879959 0.82781 0.726572 -0.29468
N_ N_ 0.856363 0.791343 0.828693 -0.17154
N_ N_ 0.884978 0.827098 0.975832 -0.17154
N_ N_ 0.882729 0.79551 0.581921 -0.29468
O_ O_ 0.712758 0.697395 0.932307 -0.58347
O_ O_ 0.701568 0.685953 0.886413 -0.58347
O_ O_ 0.633694 0.761038 0.932631 -0.58347
O_ O_ 0.629607 0.764008 0.885263 -0.58347
O_ O_ 0.65 0.610921 0.926854 -0.58347
O_ O_ 0.624709 0.612995 0.882364 -0.58347
O_ O_ 0.566112 0.677418 0.929207 -0.58347
O_ O_ 0.552883 0.69592 0.884673 -0.58347
O_ O_ 0.576456 0.735243 0.581555 -0.46727
O_ O_ 0.744266 0.698462 0.588404 -0.46727
O_ O_ 0.543024 0.678023 0.72743 -0.46727
O_ O_ 0.716038 0.639476 0.732761 -0.46727
O_ O_ 0.803334 0.807288 0.679024 -0.58347
O_ O_ 0.811881 0.812067 0.632383 -0.58347
O_ O_ 0.887169 0.741892 0.684063 -0.58347
O_ O_ 0.880857 0.734602 0.636616 -0.58347
O_ O_ 0.868246 0.889396 0.669554 -0.58347
O_ O_ 0.890911 0.883273 0.625627 -0.58347
O_ O_ 0.951617 0.826787 0.675902 -0.58347
O_ O_ 0.958514 0.805995 0.631502 -0.58347
O_ O_ 0.938048 0.763375 0.825105 -0.46727
O_ O_ 0.771433 0.806879 0.834149 -0.46727
O_ O_ 0.967891 0.801363 0.971014 -0.46727
O_ O_ 0.803597 0.858602 0.978291 -0.46727
