_cell_length_a 26.376
_cell_length_b 26.400000238300095
_cell_length_c 46.67800035477134
_cell_angle_alpha 90.00700052986613
_cell_angle_beta 89.99899961309502
_cell_angle_gamma 90.45000003183146
_symmetry_space_group_name_H-M         'P 1'
_symmetry_Int_Tables_number            1
loop_
_symmetry_equiv_pos_as_xyz
   'x, y, z'
                         
loop_
_atom_site_label
_atom_site_type_symbol
_atom_site_fract_x 
_atom_site_fract_y
_atom_site_fract_z
_atom_site_charge
Zn Zn 0.126691 0.184984 0.377247 0.90689
Zn Zn 0.135932 0.179504 0.426289 0.90689
Zn Zn 0.378296 0.321743 0.134199 0.90689
Zn Zn 0.36549 0.324552 0.18288 0.90689
H_ H_ 0.305001 0.192284 0.445159 0.11455
H_ H_ 0.376205 0.16661 0.347555 0.11455
H_ H_ 0.281146 0.177286 0.354922 0.11455
H_ H_ 0.393899 0.189944 0.464626 0.11455
H_ H_ 0.487033 0.184856 0.456206 0.11455
H_ H_ 0.461029 0.165552 0.365402 0.11455
H_ H_ 0.166611 0.0154187 0.435902 0.11455
H_ H_ 0.126682 0.437605 0.344752 0.11455
H_ H_ 0.11568 0.028364 0.348201 0.11455
H_ H_ 0.105899 0.432642 0.461671 0.11455
H_ H_ 0.112327 0.337298 0.458532 0.11455
H_ H_ 0.131883 0.354073 0.36657 0.11455
H_ H_ 0.0852299 0.100402 0.46157 0.11455
H_ H_ 0.0596943 0.0814792 0.012561 0.11455
H_ H_ 0.0964946 0.130108 0.0533779 0.11455
H_ H_ 0.183818 0.250875 0.468373 0.11455
H_ H_ 0.217816 0.303713 0.00915442 0.11455
H_ H_ 0.198935 0.281916 0.0586122 0.11455
H_ H_ 0.0220145 0.216749 0.125554 0.11455
H_ H_ 0.0193585 0.211892 0.178178 0.11455
H_ H_ 0.272216 0.173661 0.126787 0.11455
H_ H_ 0.273186 0.17655 0.178003 0.11455
H_ H_ 0.0944831 0.0890322 0.242153 0.11455
H_ H_ 0.0532463 0.0732973 0.291653 0.11455
H_ H_ 0.0751335 0.131945 0.330215 0.11455
H_ H_ 0.186124 0.245669 0.254775 0.11455
H_ H_ 0.19427 0.299836 0.296374 0.11455
H_ H_ 0.18645 0.265137 0.344798 0.11455
H_ H_ 0.197309 0.321035 0.199358 0.11455
H_ H_ 0.136628 0.332308 0.101533 0.11455
H_ H_ 0.228438 0.324228 0.111339 0.11455
H_ H_ 0.11246 0.32825 0.216522 0.11455
H_ H_ 0.0186058 0.322618 0.204491 0.11455
H_ H_ 0.0528963 0.332497 0.11565 0.11455
H_ H_ 0.396417 0.487762 0.189219 0.11455
H_ H_ 0.376581 0.0712789 0.0936769 0.11455
H_ H_ 0.32712 0.477251 0.107088 0.11455
H_ H_ 0.373403 0.0675909 0.211319 0.11455
H_ H_ 0.358671 0.161019 0.208694 0.11455
H_ H_ 0.385923 0.154883 0.119964 0.11455
H_ H_ 0.420018 0.397057 0.216335 0.11455
H_ H_ 0.455143 0.413611 0.264569 0.11455
H_ H_ 0.423872 0.37173 0.304878 0.11455
H_ H_ 0.30333 0.268699 0.228112 0.11455
H_ H_ 0.273563 0.214739 0.264805 0.11455
H_ H_ 0.301486 0.230647 0.31442 0.11455
H_ H_ 0.491344 0.288189 0.37802 0.11455
H_ H_ 0.499944 0.288475 0.431233 0.11455
H_ H_ 0.243288 0.322948 0.390402 0.11455
H_ H_ 0.252494 0.326184 0.440294 0.11455
H_ H_ 0.429731 0.415058 0.505755 0.11455
H_ H_ 0.467859 0.427036 0.0498193 0.11455
H_ H_ 0.431972 0.383114 0.0913048 0.11455
H_ H_ 0.338192 0.261411 0.0104441 0.11455
H_ H_ 0.307966 0.210953 0.0509663 0.11455
H_ H_ 0.328022 0.238757 0.101886 0.11455
C_ C_ 0.232423 0.186579 0.403931 0.68181
C_ C_ 0.289315 0.187355 0.399992 -0.05681
C_ C_ 0.321861 0.186971 0.423676 -0.08735
C_ C_ 0.37488 0.182131 0.420068 -0.05681
C_ C_ 0.394344 0.179089 0.391884 -0.05681
C_ C_ 0.361036 0.174754 0.368255 -0.08735
C_ C_ 0.307553 0.179275 0.372088 -0.08735
C_ C_ 0.408362 0.18427 0.4432 -0.08735
C_ C_ 0.460384 0.181547 0.439046 -0.08735
C_ C_ 0.479776 0.174578 0.410767 -0.05681
C_ C_ 0.445206 0.169901 0.387244 -0.08735
C_ C_ 0.11608 0.281065 0.40847 0.68181
C_ C_ 0.138899 0.0846635 0.396298 0.68181
C_ C_ 0.137049 0.0282424 0.393719 -0.05681
C_ C_ 0.126496 0.498475 0.419129 -0.08735
C_ C_ 0.120511 0.444875 0.417599 -0.05681
C_ C_ 0.124816 0.422582 0.389956 -0.05681
C_ C_ 0.129444 0.454466 0.365632 -0.08735
C_ C_ 0.131959 0.50489 0.36872 -0.08735
C_ C_ 0.112139 0.415366 0.441042 -0.08735
C_ C_ 0.112924 0.360619 0.439597 -0.08735
C_ C_ 0.117717 0.33723 0.412625 -0.05681
C_ C_ 0.123754 0.369254 0.387849 -0.08735
C_ C_ 0.034485 0.170817 0.401286 0.68181
C_ C_ 0.100853 0.124502 0.479041 0.1947
C_ C_ 0.0837549 0.11512 0.0093867 -0.08735
C_ C_ 0.104504 0.144337 0.0310309 -0.08735
C_ C_ 0.129592 0.190053 0.0257263 -0.05681
C_ C_ 0.140942 0.202576 0.997533 0.18498
C_ C_ 0.173258 0.239772 0.489398 -0.08735
C_ C_ 0.186981 0.276846 0.0136989 -0.08735
C_ C_ 0.177811 0.263665 0.0423355 -0.08735
C_ C_ 0.149922 0.220438 0.0479943 0.18498
C_ C_ 0.192655 0.193971 0.0921424 0.44287
C_ C_ 0.104166 0.210298 0.092451 0.44287
C_ C_ 0.102051 0.202411 0.12226 -0.05681
C_ C_ 0.056032 0.206761 0.137529 -0.08735
C_ C_ 0.0559577 0.206016 0.168271 -0.08735
C_ C_ 0.100785 0.20154 0.18469 -0.05681
C_ C_ 0.145181 0.191724 0.168709 -0.05681
C_ C_ 0.146549 0.195141 0.13832 -0.05681
C_ C_ 0.192369 0.187814 0.122527 -0.05681
C_ C_ 0.236134 0.174852 0.138066 -0.08735
C_ C_ 0.235977 0.173633 0.16833 -0.08735
C_ C_ 0.190099 0.178057 0.183629 -0.05681
C_ C_ 0.187301 0.169575 0.213122 0.44287
C_ C_ 0.0998942 0.193945 0.213473 0.44287
C_ C_ 0.135262 0.154944 0.256164 0.18498
C_ C_ 0.104174 0.112646 0.261047 -0.08735
C_ C_ 0.0790396 0.105817 0.287101 -0.08735
C_ C_ 0.0957033 0.134665 0.310755 -0.08735
C_ C_ 0.13156 0.174198 0.307735 0.18498
C_ C_ 0.145595 0.187529 0.279426 -0.05681
C_ C_ 0.170605 0.23334 0.275547 -0.08735
C_ C_ 0.184147 0.262085 0.299504 -0.08735
C_ C_ 0.172717 0.244836 0.326781 0.1947
C_ C_ 0.275433 0.315718 0.160713 0.68181
C_ C_ 0.219862 0.326202 0.156213 -0.05681
C_ C_ 0.184809 0.327941 0.178471 -0.08735
C_ C_ 0.133319 0.334438 0.172278 -0.05681
C_ C_ 0.114166 0.334736 0.144496 -0.05681
C_ C_ 0.149594 0.332366 0.122379 -0.08735
C_ C_ 0.201262 0.329006 0.12866 -0.08735
C_ C_ 0.0992158 0.336591 0.194458 -0.08735
C_ C_ 0.0464044 0.336859 0.188353 -0.08735
C_ C_ 0.0282608 0.336081 0.160045 -0.05681
C_ C_ 0.0625116 0.333178 0.137619 -0.08735
C_ C_ 0.38329 0.223212 0.163024 0.68181
C_ C_ 0.366231 0.422116 0.150738 0.68181
C_ C_ 0.361345 0.479531 0.148684 -0.05681
C_ C_ 0.380867 0.0034691 0.166895 -0.08735
C_ C_ 0.379071 0.0571213 0.166027 -0.05681
C_ C_ 0.385407 0.0836383 0.139316 -0.05681
C_ C_ 0.379028 0.0541384 0.114491 -0.08735
C_ C_ 0.345186 0.502681 0.122514 -0.08735
C_ C_ 0.379639 0.0861415 0.191327 -0.08735
C_ C_ 0.372303 0.139012 0.190349 -0.08735
C_ C_ 0.383192 0.165227 0.163987 -0.05681
C_ C_ 0.384008 0.136109 0.139906 -0.08735
C_ C_ 0.469847 0.330246 0.155942 0.68181
C_ C_ 0.40802 0.372624 0.23358 0.1947
C_ C_ 0.42821 0.383407 0.259927 -0.08735
C_ C_ 0.407247 0.360235 0.284031 -0.08735
C_ C_ 0.371762 0.322564 0.281377 -0.05681
C_ C_ 0.354775 0.310729 0.252636 0.18498
C_ C_ 0.321384 0.27079 0.248581 -0.08735
C_ C_ 0.300829 0.24374 0.27089 -0.08735
C_ C_ 0.31675 0.253901 0.299162 -0.08735
C_ C_ 0.350923 0.293925 0.30533 0.18498
C_ C_ 0.319289 0.321678 0.351182 0.44287
C_ C_ 0.406031 0.301769 0.347799 0.44287
C_ C_ 0.411676 0.308544 0.377414 -0.05681
C_ C_ 0.459305 0.298726 0.390552 -0.08735
C_ C_ 0.465253 0.302671 0.420098 -0.08735
C_ C_ 0.423365 0.318828 0.43769 -0.05681
C_ C_ 0.378341 0.331393 0.424624 -0.05681
C_ C_ 0.371245 0.323933 0.39445 -0.05681
C_ C_ 0.323314 0.326852 0.381373 -0.05681
C_ C_ 0.281076 0.328502 0.39959 -0.08735
C_ C_ 0.286359 0.334005 0.428651 -0.08735
C_ C_ 0.335234 0.33887 0.441598 -0.05681
C_ C_ 0.341374 0.341169 0.471859 0.44287
C_ C_ 0.427351 0.319524 0.468143 0.44287
C_ C_ 0.399149 0.342557 0.0126178 0.18498
C_ C_ 0.42653 0.387513 0.0188858 -0.08735
C_ C_ 0.437507 0.401496 0.0470393 -0.08735
C_ C_ 0.42059 0.372895 0.0702228 -0.08735
C_ C_ 0.391394 0.328411 0.0655331 0.18498
C_ C_ 0.380189 0.31235 0.0366269 -0.05681
C_ C_ 0.345171 0.273484 0.0322903 -0.08735
C_ C_ 0.33395 0.241575 0.055291 -0.08735
C_ C_ 0.344909 0.257361 0.0837225 0.1947
N_ N_ 0.127322 0.168501 0.473514 -0.29468
N_ N_ 0.149033 0.203369 0.0774326 -0.17154
N_ N_ 0.140411 0.172226 0.2267 -0.17154
N_ N_ 0.144944 0.203107 0.330881 -0.29468
N_ N_ 0.370664 0.338338 0.230179 -0.29468
N_ N_ 0.360981 0.311067 0.334935 -0.17154
N_ N_ 0.387271 0.331288 0.484169 -0.17154
N_ N_ 0.371822 0.302001 0.0871998 -0.29468
O_ O_ 0.212428 0.194184 0.428855 -0.58347
O_ O_ 0.204103 0.180112 0.382429 -0.58347
O_ O_ 0.117846 0.254652 0.431006 -0.58347
O_ O_ 0.129056 0.260528 0.385013 -0.58347
O_ O_ 0.147638 0.107115 0.420021 -0.58347
O_ O_ 0.128358 0.110171 0.373573 -0.58347
O_ O_ 0.0642638 0.162451 0.422209 -0.58347
O_ O_ 0.0506213 0.185508 0.37743 -0.58347
O_ O_ 0.0675345 0.235153 0.0796001 -0.46727
O_ O_ 0.235429 0.189122 0.0779562 -0.46727
O_ O_ 0.0583834 0.204972 0.228963 -0.46727
O_ O_ 0.226004 0.145817 0.225631 -0.46727
O_ O_ 0.293664 0.32512 0.184601 -0.58347
O_ O_ 0.301727 0.306752 0.138243 -0.58347
O_ O_ 0.37298 0.247517 0.185456 -0.58347
O_ O_ 0.388664 0.245246 0.1391 -0.58347
O_ O_ 0.360947 0.400882 0.17448 -0.58347
O_ O_ 0.367636 0.396511 0.127423 -0.58347
O_ O_ 0.440523 0.326568 0.176697 -0.58347
O_ O_ 0.451201 0.333967 0.130981 -0.58347
O_ O_ 0.440732 0.275178 0.333708 -0.46727
O_ O_ 0.2744 0.327064 0.339209 -0.46727
O_ O_ 0.471475 0.309957 0.479976 -0.46727
O_ O_ 0.303489 0.35726 0.48893 -0.46727
Zn Zn 0.12694 0.188464 0.880633 0.90689
Zn Zn 0.134174 0.185393 0.927853 0.90689
Zn Zn 0.370178 0.309381 0.635132 0.90689
Zn Zn 0.363888 0.314834 0.681747 0.90689
H_ H_ 0.299242 0.189304 0.945621 0.11455
H_ H_ 0.370759 0.146871 0.849233 0.11455
H_ H_ 0.280572 0.16668 0.854543 0.11455
H_ H_ 0.389153 0.188915 0.96454 0.11455
H_ H_ 0.475633 0.207725 0.953765 0.11455
H_ H_ 0.458715 0.166666 0.866952 0.11455
H_ H_ 0.116228 0.0151682 0.941192 0.11455
H_ H_ 0.17001 0.437209 0.846862 0.11455
H_ H_ 0.148192 0.0311379 0.851338 0.11455
H_ H_ 0.0750863 0.425646 0.952911 0.11455
H_ H_ 0.0908276 0.340344 0.95099 0.11455
H_ H_ 0.164125 0.35528 0.867131 0.11455
H_ H_ 0.0745848 0.11094 0.963635 0.11455
H_ H_ 0.057435 0.0798456 0.508879 0.11455
H_ H_ 0.101529 0.11984 0.551138 0.11455
H_ H_ 0.1783 0.256678 0.969411 0.11455
H_ H_ 0.207588 0.307687 0.509107 0.11455
H_ H_ 0.207746 0.27217 0.557459 0.11455
H_ H_ 0.0194341 0.219682 0.62097 0.11455
H_ H_ 0.0101605 0.203662 0.671648 0.11455
H_ H_ 0.270755 0.164541 0.632796 0.11455
H_ H_ 0.25909 0.151524 0.685436 0.11455
H_ H_ 0.0769754 0.0912439 0.743311 0.11455
H_ H_ 0.0607327 0.0621765 0.793761 0.11455
H_ H_ 0.0635456 0.127573 0.832778 0.11455
H_ H_ 0.17471 0.240827 0.755882 0.11455
H_ H_ 0.218364 0.275744 0.796151 0.11455
H_ H_ 0.184434 0.259654 0.846062 0.11455
H_ H_ 0.19665 0.32725 0.698618 0.11455
H_ H_ 0.12702 0.32817 0.599515 0.11455
H_ H_ 0.217786 0.304507 0.607155 0.11455
H_ H_ 0.105596 0.332557 0.719748 0.11455
H_ H_ 0.0176306 0.325998 0.711217 0.11455
H_ H_ 0.0423023 0.313665 0.618878 0.11455
H_ H_ 0.4124 0.48282 0.685755 0.11455
H_ H_ 0.327271 0.0626497 0.602068 0.11455
H_ H_ 0.334317 0.469449 0.607476 0.11455
H_ H_ 0.392142 0.0679309 0.714829 0.11455
H_ H_ 0.39457 0.15615 0.710717 0.11455
H_ H_ 0.358213 0.141062 0.622258 0.11455
H_ H_ 0.423858 0.377745 0.716989 0.11455
H_ H_ 0.44508 0.402395 0.766067 0.11455
H_ H_ 0.401473 0.373741 0.805153 0.11455
H_ H_ 0.304442 0.245743 0.72835 0.11455
H_ H_ 0.279036 0.193367 0.768427 0.11455
H_ H_ 0.318025 0.212484 0.815509 0.11455
H_ H_ 0.491619 0.280808 0.879432 0.11455
H_ H_ 0.502371 0.288846 0.929708 0.11455
H_ H_ 0.243139 0.323842 0.892713 0.11455
H_ H_ 0.251816 0.332399 0.942559 0.11455
H_ H_ 0.446437 0.409945 0.00311316 0.11455
H_ H_ 0.438969 0.439062 0.553453 0.11455
H_ H_ 0.429111 0.376805 0.593195 0.11455
H_ H_ 0.340511 0.254836 0.509362 0.11455
H_ H_ 0.305373 0.204973 0.547513 0.11455
H_ H_ 0.32554 0.228344 0.598543 0.11455
C_ C_ 0.229586 0.180805 0.905009 0.68181
C_ C_ 0.284818 0.180211 0.900762 -0.05681
C_ C_ 0.316506 0.183919 0.924859 -0.08735
C_ C_ 0.369927 0.178556 0.920137 -0.05681
C_ C_ 0.389327 0.169703 0.892676 -0.05681
C_ C_ 0.357993 0.164297 0.868909 -0.08735
C_ C_ 0.30527 0.167309 0.872736 -0.08735
C_ C_ 0.403341 0.184004 0.942792 -0.08735
C_ C_ 0.454957 0.183991 0.93876 -0.08735
C_ C_ 0.475842 0.17225 0.912519 -0.05681
C_ C_ 0.44375 0.163731 0.888269 -0.08735
C_ C_ 0.119326 0.282127 0.907131 0.68181
C_ C_ 0.13032 0.0877125 0.899085 0.68181
C_ C_ 0.12755 0.0315829 0.895313 -0.05681
C_ C_ 0.109749 0.499874 0.915615 -0.08735
C_ C_ 0.114388 0.44514 0.912708 -0.05681
C_ C_ 0.137924 0.422971 0.888364 -0.05681
C_ C_ 0.158157 0.454515 0.866895 -0.08735
C_ C_ 0.155605 0.50726 0.870394 -0.08735
C_ C_ 0.0965679 0.413122 0.933666 -0.08735
C_ C_ 0.0983532 0.360846 0.930863 -0.08735
C_ C_ 0.120489 0.337299 0.906948 -0.05681
C_ C_ 0.141733 0.370347 0.885856 -0.08735
C_ C_ 0.0319717 0.179895 0.902595 0.68181
C_ C_ 0.0927523 0.130459 0.981141 0.1947
C_ C_ 0.0866748 0.109441 0.506428 -0.08735
C_ C_ 0.10506 0.137041 0.530042 -0.08735
C_ C_ 0.139616 0.178722 0.525358 -0.05681
C_ C_ 0.15005 0.19341 0.495155 0.18498
C_ C_ 0.168302 0.247775 0.990396 -0.08735
C_ C_ 0.188433 0.27041 0.513548 -0.08735
C_ C_ 0.189694 0.251672 0.541095 -0.08735
C_ C_ 0.158946 0.209671 0.548285 0.18498
C_ C_ 0.193353 0.184707 0.593675 0.44287
C_ C_ 0.105862 0.19969 0.591119 0.44287
C_ C_ 0.0983845 0.194669 0.619964 -0.05681
C_ C_ 0.0521749 0.20523 0.633443 -0.08735
C_ C_ 0.0462877 0.199483 0.662843 -0.08735
C_ C_ 0.0883513 0.189065 0.680664 -0.05681
C_ C_ 0.136892 0.183434 0.668059 -0.05681
C_ C_ 0.140921 0.186765 0.637664 -0.05681
C_ C_ 0.189217 0.178765 0.624719 -0.05681
C_ C_ 0.233081 0.167154 0.641341 -0.08735
C_ C_ 0.228037 0.16779 0.67131 -0.08735
C_ C_ 0.179844 0.172404 0.684443 -0.05681
C_ C_ 0.171913 0.163811 0.713985 0.44287
C_ C_ 0.085848 0.188747 0.710214 0.44287
C_ C_ 0.117883 0.158402 0.756622 0.18498
C_ C_ 0.0918864 0.113077 0.761742 -0.08735
C_ C_ 0.077527 0.0983374 0.78989 -0.08735
C_ C_ 0.0807556 0.132795 0.812205 -0.08735
C_ C_ 0.11188 0.176511 0.808698 0.18498
C_ C_ 0.128383 0.190126 0.780554 -0.05681
C_ C_ 0.161631 0.231148 0.777119 -0.08735
C_ C_ 0.184295 0.253696 0.800592 -0.08735
C_ C_ 0.172272 0.235909 0.828225 0.1947
C_ C_ 0.269827 0.307914 0.657437 0.68181
C_ C_ 0.213648 0.315698 0.652897 -0.05681
C_ C_ 0.180171 0.322295 0.677385 -0.08735
C_ C_ 0.126987 0.32731 0.673511 -0.05681
C_ C_ 0.108014 0.32575 0.644941 -0.05681
C_ C_ 0.140689 0.323231 0.621533 -0.08735
C_ C_ 0.19404 0.315897 0.62549 -0.08735
C_ C_ 0.0930214 0.327348 0.697031 -0.08735
C_ C_ 0.0427388 0.33302 0.691884 -0.08735
C_ C_ 0.0218663 0.329086 0.663558 -0.05681
C_ C_ 0.0566737 0.3243 0.640402 -0.08735
C_ C_ 0.3679 0.215061 0.664892 0.68181
C_ C_ 0.367026 0.411715 0.652775 0.68181
C_ C_ 0.373116 0.467308 0.647409 -0.05681
C_ C_ 0.357994 -0.00020900000000001473 0.675914 -0.08735
C_ C_ 0.357611 0.0544787 0.673849 -0.05681
C_ C_ 0.348959 0.0763364 0.647286 -0.05681
C_ C_ 0.338522 0.0455534 0.622869 -0.08735
C_ C_ 0.348792 0.491575 0.624277 -0.08735
C_ C_ 0.372424 0.083592 0.697271 -0.08735
C_ C_ 0.373141 0.136536 0.693988 -0.08735
C_ C_ 0.364715 0.159941 0.666938 -0.05681
C_ C_ 0.354554 0.127755 0.643523 -0.08735
C_ C_ 0.466569 0.31329 0.658702 0.68181
C_ C_ 0.404408 0.360182 0.735258 0.1947
C_ C_ 0.41188 0.382659 0.762581 -0.08735
C_ C_ 0.387463 0.36143 0.78502 -0.08735
C_ C_ 0.358024 0.317267 0.781654 -0.05681
C_ C_ 0.345553 0.2994 0.753408 0.18498
C_ C_ 0.314233 0.258651 0.748981 -0.08735
C_ C_ 0.304419 0.225345 0.771932 -0.08735
C_ C_ 0.319156 0.241067 0.799291 -0.08735
C_ C_ 0.345717 0.286775 0.805569 0.18498
C_ C_ 0.318971 0.316764 0.852416 0.44287
C_ C_ 0.405482 0.292238 0.846902 0.44287
C_ C_ 0.413065 0.296936 0.877636 -0.05681
C_ C_ 0.461808 0.292265 0.891136 -0.08735
C_ C_ 0.468054 0.295112 0.920689 -0.08735
C_ C_ 0.425211 0.302664 0.938051 -0.05681
C_ C_ 0.376022 0.308474 0.926306 -0.05681
C_ C_ 0.371753 0.308152 0.895482 -0.05681
C_ C_ 0.324034 0.318058 0.883858 -0.05681
C_ C_ 0.281783 0.328409 0.901326 -0.08735
C_ C_ 0.286933 0.333496 0.929884 -0.08735
C_ C_ 0.336406 0.328067 0.942265 -0.05681
C_ C_ 0.345293 0.338094 0.972094 0.44287
C_ C_ 0.429302 0.306869 0.967942 0.44287
C_ C_ 0.395119 0.343046 0.514329 0.18498
C_ C_ 0.421036 0.387159 0.521345 -0.08735
C_ C_ 0.429212 0.399772 0.549705 -0.08735
C_ C_ 0.415244 0.368484 0.571334 -0.08735
C_ C_ 0.383645 0.324991 0.565874 0.18498
C_ C_ 0.375334 0.31197 0.536894 -0.05681
C_ C_ 0.346268 0.267716 0.530807 -0.08735
C_ C_ 0.327076 0.238262 0.553452 -0.08735
C_ C_ 0.338127 0.25193 0.581432 0.1947
N_ N_ 0.121085 0.173592 0.975156 -0.29468
N_ N_ 0.151628 0.196228 0.578229 -0.17154
N_ N_ 0.126462 0.172484 0.727192 -0.17154
N_ N_ 0.136895 0.197292 0.831102 -0.29468
N_ N_ 0.366391 0.325307 0.730615 -0.29468
N_ N_ 0.35844 0.300471 0.835156 -0.17154
N_ N_ 0.391005 0.326955 0.983641 -0.17154
N_ N_ 0.36459 0.296548 0.587073 -0.29468
O_ O_ 0.210351 0.188908 0.928915 -0.58347
O_ O_ 0.201193 0.180462 0.882591 -0.58347
O_ O_ 0.122502 0.257878 0.930086 -0.58347
O_ O_ 0.12937 0.262208 0.883259 -0.58347
O_ O_ 0.136091 0.108994 0.92367 -0.58347
O_ O_ 0.118791 0.114666 0.87835 -0.58347
O_ O_ 0.0608807 0.174841 0.923531 -0.58347
O_ O_ 0.0518453 0.196648 0.878682 -0.58347
O_ O_ 0.0670134 0.217165 0.576421 -0.46727
O_ O_ 0.239898 0.187856 0.581559 -0.46727
O_ O_ 0.0415452 0.197995 0.72129 -0.46727
O_ O_ 0.20575 0.138501 0.728431 -0.46727
O_ O_ 0.287906 0.309158 0.682742 -0.58347
O_ O_ 0.297441 0.305599 0.63598 -0.58347
O_ O_ 0.359769 0.241087 0.687611 -0.58347
O_ O_ 0.374659 0.237846 0.641352 -0.58347
O_ O_ 0.366454 0.394248 0.678133 -0.58347
O_ O_ 0.364683 0.382091 0.630645 -0.58347
O_ O_ 0.439039 0.312058 0.680631 -0.58347
O_ O_ 0.447346 0.313361 0.633621 -0.58347
O_ O_ 0.443121 0.285047 0.829957 -0.46727
O_ O_ 0.274453 0.323281 0.840594 -0.46727
O_ O_ 0.473098 0.301592 0.979947 -0.46727
O_ O_ 0.306238 0.350803 0.988752 -0.46727
Zn Zn 0.12933 0.684513 0.377473 0.90689
Zn Zn 0.137908 0.682244 0.425006 0.90689
Zn Zn 0.371468 0.816563 0.129901 0.90689
Zn Zn 0.367383 0.821623 0.175887 0.90689
H_ H_ 0.304357 0.692396 0.445997 0.11455
H_ H_ 0.373299 0.651895 0.348424 0.11455
H_ H_ 0.283804 0.669762 0.356472 0.11455
H_ H_ 0.396003 0.688074 0.46485 0.11455
H_ H_ 0.485026 0.680602 0.457278 0.11455
H_ H_ 0.459354 0.655304 0.366877 0.11455
H_ H_ 0.109981 0.51746 0.437041 0.11455
H_ H_ 0.101046 0.931848 0.347671 0.11455
H_ H_ 0.146872 0.526327 0.350334 0.11455
H_ H_ 0.158936 0.930737 0.458594 0.11455
H_ H_ 0.15696 0.838335 0.456269 0.11455
H_ H_ 0.0964417 0.851327 0.371562 0.11455
H_ H_ 0.076761 0.612101 0.456768 0.11455
H_ H_ 0.062282 0.58075 0.0119407 0.11455
H_ H_ 0.0983768 0.622225 0.0543208 0.11455
H_ H_ 0.18248 0.75446 0.473746 0.11455
H_ H_ 0.213334 0.7994 0.00928428 0.11455
H_ H_ 0.194092 0.777586 0.0618109 0.11455
H_ H_ 0.0109587 0.707484 0.12242 0.11455
H_ H_ -0.000663149 0.705166 0.176318 0.11455
H_ H_ 0.256979 0.662814 0.131518 0.11455
H_ H_ 0.245872 0.640292 0.182411 0.11455
H_ H_ 0.0700556 0.587766 0.246382 0.11455
H_ H_ 0.0545704 0.561382 0.296786 0.11455
H_ H_ 0.0768696 0.612642 0.337553 0.11455
H_ H_ 0.139885 0.753478 0.259996 0.11455
H_ H_ 0.197656 0.789689 0.295518 0.11455
H_ H_ 0.179602 0.763116 0.344997 0.11455
H_ H_ 0.196681 0.825919 0.19512 0.11455
H_ H_ 0.121244 0.835322 0.0980346 0.11455
H_ H_ 0.213015 0.826026 0.104532 0.11455
H_ H_ 0.10612 0.83165 0.216555 0.11455
H_ H_ 0.0169776 0.824608 0.208227 0.11455
H_ H_ 0.0380885 0.830316 0.117312 0.11455
H_ H_ 0.371082 0.985306 0.187361 0.11455
H_ H_ 0.330636 0.572275 0.101698 0.11455
H_ H_ 0.379371 0.979758 0.0967309 0.11455
H_ H_ 0.415246 0.579883 0.211985 0.11455
H_ H_ 0.395175 0.667421 0.208917 0.11455
H_ H_ 0.366253 0.652736 0.117814 0.11455
H_ H_ 0.418442 0.890537 0.213163 0.11455
H_ H_ 0.416502 0.927879 0.262777 0.11455
H_ H_ 0.379365 0.878655 0.30183 0.11455
H_ H_ 0.296268 0.764218 0.220621 0.11455
H_ H_ 0.271051 0.700784 0.254127 0.11455
H_ H_ 0.297495 0.710991 0.305955 0.11455
H_ H_ 0.478562 0.779101 0.370445 0.11455
H_ H_ 0.490122 0.797292 0.41819 0.11455
H_ H_ 0.231136 0.826836 0.384784 0.11455
H_ H_ 0.244579 0.850531 0.436218 0.11455
H_ H_ 0.428957 0.899936 0.497138 0.11455
H_ H_ 0.461027 0.922775 0.0462119 0.11455
H_ H_ 0.436305 0.868222 0.0851579 0.11455
H_ H_ 0.348915 0.740528 0.00897369 0.11455
H_ H_ 0.30087 0.702531 0.0499558 0.11455
H_ H_ 0.307811 0.744829 0.0984894 0.11455
C_ C_ 0.232498 0.683102 0.40373 0.68181
C_ C_ 0.286933 0.670854 0.401992 -0.05681
C_ C_ 0.320843 0.682704 0.425241 -0.08735
C_ C_ 0.373615 0.680833 0.420542 -0.05681
C_ C_ 0.392798 0.66841 0.393015 -0.05681
C_ C_ 0.35969 0.663676 0.369723 -0.08735
C_ C_ 0.307171 0.664815 0.374648 -0.08735
C_ C_ 0.407106 0.679212 0.443696 -0.08735
C_ C_ 0.458263 0.673617 0.439807 -0.08735
C_ C_ 0.479788 0.667008 0.41198 -0.05681
C_ C_ 0.445296 0.658689 0.388893 -0.08735
C_ C_ 0.126916 0.780724 0.409084 0.68181
C_ C_ 0.140436 0.583977 0.397063 0.68181
C_ C_ 0.137165 0.528263 0.394941 -0.05681
C_ C_ 0.148248 0.996969 0.417356 -0.08735
C_ C_ 0.149177 0.945102 0.414052 -0.05681
C_ C_ 0.132229 0.920799 0.388305 -0.05681
C_ C_ 0.119147 0.951551 0.365402 -0.08735
C_ C_ 0.124281 1.00471116 0.366785 -0.08735
C_ C_ 0.150473 0.9142 0.438601 -0.08735
C_ C_ 0.149629 0.859923 0.436067 -0.08735
C_ C_ 0.133533 0.836442 0.411229 -0.05681
C_ C_ 0.120273 0.867836 0.388414 -0.08735
C_ C_ 0.035898 0.681698 0.399485 0.68181
C_ C_ 0.0924821 0.632228 0.476068 0.1947
C_ C_ 0.0848895 0.613949 0.00854402 -0.08735
C_ C_ 0.101343 0.639686 0.032029 -0.08735
C_ C_ 0.129961 0.683351 0.0276539 -0.05681
C_ C_ 0.142956 0.696113 0.999342 0.18498
C_ C_ 0.167579 0.745359 0.493644 -0.08735
C_ C_ 0.190482 0.7667 0.0157978 -0.08735
C_ C_ 0.18208 0.753856 0.0443083 -0.08735
C_ C_ 0.150393 0.713048 0.0503939 0.18498
C_ C_ 0.178209 0.678146 0.0956473 0.44287
C_ C_ 0.095824 0.71081 0.0938208 0.44287
C_ C_ 0.0899693 0.703928 0.122927 -0.05681
C_ C_ 0.0422203 0.708717 0.136134 -0.08735
C_ C_ 0.0373264 0.706221 0.166223 -0.08735
C_ C_ 0.0803939 0.694337 0.18302 -0.05681
C_ C_ 0.126732 0.683597 0.170106 -0.05681
C_ C_ 0.130064 0.686537 0.13991 -0.05681
C_ C_ 0.174844 0.674927 0.125979 -0.05681
C_ C_ 0.218395 0.663838 0.142505 -0.08735
C_ C_ 0.214232 0.658979 0.171864 -0.08735
C_ C_ 0.168029 0.667662 0.18632 -0.05681
C_ C_ 0.160692 0.654491 0.215177 0.44287
C_ C_ 0.0771701 0.687663 0.213882 0.44287
C_ C_ 0.109352 0.655132 0.258241 0.18498
C_ C_ 0.0874563 0.608423 0.263586 -0.08735
C_ C_ 0.0760229 0.594349 0.292682 -0.08735
C_ C_ 0.090588 0.626779 0.316027 -0.08735
C_ C_ 0.119746 0.669991 0.310577 0.18498
C_ C_ 0.126803 0.686332 0.281455 -0.05681
C_ C_ 0.152378 0.732666 0.277358 -0.08735
C_ C_ 0.174137 0.758782 0.300481 -0.08735
C_ C_ 0.167722 0.739955 0.327202 0.1947
C_ C_ 0.270094 0.825158 0.153134 0.68181
C_ C_ 0.211778 0.824659 0.149929 -0.05681
C_ C_ 0.180083 0.826198 0.174238 -0.08735
C_ C_ 0.126103 0.830077 0.171307 -0.05681
C_ C_ 0.104691 0.834502 0.143938 -0.05681
C_ C_ 0.136145 0.832938 0.119503 -0.08735
C_ C_ 0.18898 0.82691 0.122798 -0.08735
C_ C_ 0.0929163 0.830766 0.195182 -0.08735
C_ C_ 0.040277 0.825112 0.190174 -0.08735
C_ C_ 0.020736 0.822592 0.162905 -0.05681
C_ C_ 0.0531251 0.830069 0.139467 -0.08735
C_ C_ 0.368243 0.722798 0.16221 0.68181
C_ C_ 0.368031 0.918887 0.143422 0.68181
C_ C_ 0.377967 0.975605 0.141658 -0.05681
C_ C_ 0.375827 0.508597 0.172498 -0.08735
C_ C_ 0.378991 0.562628 0.169065 -0.05681
C_ C_ 0.364888 0.583689 0.142141 -0.05681
C_ C_ 0.343835 0.554036 0.120486 -0.08735
C_ C_ 0.376727 0.00105277 0.114863 -0.08735
C_ C_ 0.39722 0.592524 0.192171 -0.08735
C_ C_ 0.386531 0.643886 0.190779 -0.08735
C_ C_ 0.375928 0.66728 0.164317 -0.05681
C_ C_ 0.367893 0.637073 0.139923 -0.08735
C_ C_ 0.469885 0.820812 0.154989 0.68181
C_ C_ 0.397225 0.872318 0.230784 0.1947
C_ C_ 0.401573 0.891626 0.258175 -0.08735
C_ C_ 0.381967 0.86406 0.280344 -0.08735
C_ C_ 0.358845 0.816822 0.275416 -0.05681
C_ C_ 0.347241 0.803271 0.24644 0.18498
C_ C_ 0.310676 0.765836 0.240637 -0.08735
C_ C_ 0.29491 0.732883 0.261748 -0.08735
C_ C_ 0.308709 0.741197 0.290248 -0.08735
C_ C_ 0.336208 0.786067 0.297403 0.18498
C_ C_ 0.302916 0.804557 0.345703 0.44287
C_ C_ 0.390826 0.788044 0.340565 0.44287
C_ C_ 0.397836 0.786801 0.370743 -0.05681
C_ C_ 0.445271 0.781123 0.383578 -0.08735
C_ C_ 0.45131 0.789377 0.412154 -0.08735
C_ C_ 0.410358 0.800833 0.43083 -0.05681
C_ C_ 0.363321 0.806596 0.418506 -0.05681
C_ C_ 0.356105 0.796623 0.389465 -0.05681
C_ C_ 0.308669 0.808689 0.376128 -0.05681
C_ C_ 0.267808 0.824182 0.394396 -0.08735
C_ C_ 0.272966 0.83089 0.423849 -0.08735
C_ C_ 0.321833 0.821635 0.436335 -0.05681
C_ C_ 0.331434 0.83207 0.465761 0.44287
C_ C_ 0.417237 0.802826 0.461363 0.44287
C_ C_ 0.391928 0.833693 0.00837904 0.18498
C_ C_ 0.431298 0.871915 0.0154725 -0.08735
C_ C_ 0.440114 0.889673 0.0425083 -0.08735
C_ C_ 0.418651 0.863767 0.065381 -0.08735
C_ C_ 0.383297 0.825155 0.0611495 0.18498
C_ C_ 0.373625 0.80544 0.0322783 -0.05681
C_ C_ 0.34925 0.757465 0.0294135 -0.08735
C_ C_ 0.324227 0.736387 0.0525956 -0.08735
C_ C_ 0.324298 0.762752 0.0790245 0.1947
N_ N_ 0.125631 0.67139 0.472787 -0.29468
N_ N_ 0.141423 0.700702 0.0798273 -0.17154
N_ N_ 0.116452 0.668718 0.228261 -0.17154
N_ N_ 0.139291 0.698168 0.332393 -0.29468
N_ N_ 0.371699 0.828601 0.224721 -0.29468
N_ N_ 0.343383 0.79638 0.328259 -0.17154
N_ N_ 0.377286 0.821388 0.478435 -0.17154
N_ N_ 0.358839 0.801304 0.0836587 -0.29468
O_ O_ 0.2107 0.681411 0.427549 -0.58347
O_ O_ 0.205985 0.690536 0.38164 -0.58347
O_ O_ 0.13272 0.755798 0.431136 -0.58347
O_ O_ 0.120836 0.758036 0.384806 -0.58347
O_ O_ 0.142659 0.606723 0.420273 -0.58347
O_ O_ 0.141362 0.60886 0.373508 -0.58347
O_ O_ 0.064309 0.683072 0.421178 -0.58347
O_ O_ 0.0541307 0.680576 0.374272 -0.58347
O_ O_ 0.05627 0.728739 0.078902 -0.46727
O_ O_ 0.221355 0.662688 0.0827686 -0.46727
O_ O_ 0.0356869 0.699771 0.227901 -0.46727
O_ O_ 0.197281 0.631034 0.230677 -0.46727
O_ O_ 0.29113 0.823316 0.177311 -0.58347
O_ O_ 0.297309 0.822785 0.130402 -0.58347
O_ O_ 0.36266 0.74876 0.183589 -0.58347
O_ O_ 0.365966 0.741493 0.13731 -0.58347
O_ O_ 0.370028 0.897459 0.167227 -0.58347
O_ O_ 0.368357 0.89106 0.121297 -0.58347
O_ O_ 0.443029 0.81447 0.177276 -0.58347
O_ O_ 0.448899 0.812275 0.1304 -0.58347
O_ O_ 0.42993 0.778002 0.323195 -0.46727
O_ O_ 0.256825 0.811997 0.334687 -0.46727
O_ O_ 0.462279 0.797005 0.472093 -0.46727
O_ O_ 0.297544 0.850898 0.482254 -0.46727
Zn Zn 0.128002 0.687448 0.881609 0.90689
Zn Zn 0.131822 0.679916 0.928269 0.90689
Zn Zn 0.361058 0.81045 0.630928 0.90689
Zn Zn 0.350784 0.815691 0.679606 0.90689
H_ H_ 0.306283 0.688247 0.944357 0.11455
H_ H_ 0.368802 0.66348 0.845998 0.11455
H_ H_ 0.275697 0.65757 0.857531 0.11455
H_ H_ 0.389106 0.68578 0.963095 0.11455
H_ H_ 0.479567 0.675272 0.956202 0.11455
H_ H_ 0.459628 0.656981 0.867401 0.11455
H_ H_ 0.0827651 0.518057 0.930132 0.11455
H_ H_ 0.125865 0.93678 0.845003 0.11455
H_ H_ 0.173023 0.531759 0.853744 0.11455
H_ H_ 0.128745 0.931277 0.963678 0.11455
H_ H_ 0.125381 0.842524 0.958061 0.11455
H_ H_ 0.126997 0.854553 0.866524 0.11455
H_ H_ 0.0656728 0.617541 0.964327 0.11455
H_ H_ 0.0484839 0.588549 0.505444 0.11455
H_ H_ 0.0762501 0.634748 0.549236 0.11455
H_ H_ 0.182422 0.75021 0.972837 0.11455
H_ H_ 0.210491 0.803537 0.514791 0.11455
H_ H_ 0.179738 0.784569 0.563006 0.11455
H_ H_ 1.00167 0.702748 0.620601 0.11455
H_ H_ 0.985726 0.688193 0.671965 0.11455
H_ H_ 0.247373 0.657825 0.636645 0.11455
H_ H_ 0.240072 0.679099 0.68482 0.11455
H_ H_ 0.0730509 0.58875 0.746753 0.11455
H_ H_ 0.0618167 0.560654 0.795877 0.11455
H_ H_ 0.0762837 0.618726 0.835912 0.11455
H_ H_ 0.141028 0.763395 0.758694 0.11455
H_ H_ 0.183791 0.803032 0.800855 0.11455
H_ H_ 0.183721 0.758726 0.8474 0.11455
H_ H_ 0.178673 0.801735 0.695705 0.11455
H_ H_ 0.110214 0.821818 0.597767 0.11455
H_ H_ 0.199674 0.825242 0.605783 0.11455
H_ H_ 0.0968391 0.821051 0.716776 0.11455
H_ H_ 0.00286954 0.818739 0.710606 0.11455
H_ H_ 0.022663 0.817792 0.620726 0.11455
H_ H_ 0.371577 0.979689 0.693955 0.11455
H_ H_ 0.320122 0.555467 0.602795 0.11455
H_ H_ 0.335794 0.970847 0.606097 0.11455
H_ H_ 0.414355 0.568995 0.707861 0.11455
H_ H_ 0.393293 0.66181 0.706857 0.11455
H_ H_ 0.334631 0.639853 0.623114 0.11455
H_ H_ 0.393259 0.896481 0.714285 0.11455
H_ H_ 0.416323 0.921598 0.763062 0.11455
H_ H_ 0.381806 0.871482 0.804802 0.11455
H_ H_ 0.303581 0.744915 0.722421 0.11455
H_ H_ 0.275299 0.687867 0.762662 0.11455
H_ H_ 0.293729 0.714709 0.813584 0.11455
H_ H_ 0.483608 0.78152 0.870591 0.11455
H_ H_ 0.494748 0.792152 0.923695 0.11455
H_ H_ 0.23177 0.824204 0.889091 0.11455
H_ H_ 0.247448 0.834409 0.941873 0.11455
H_ H_ 0.449616 0.890885 0.99775152 0.11455
H_ H_ 0.455344 0.919034 0.546545 0.11455
H_ H_ 0.403756 0.887994 0.585063 0.11455
H_ H_ 0.347496 0.737337 0.507408 0.11455
H_ H_ 0.305918 0.69614 0.549216 0.11455
H_ H_ 0.29845 0.741227 0.595429 0.11455
C_ C_ 0.227774 0.681362 0.90542 0.68181
C_ C_ 0.284342 0.671546 0.901694 -0.05681
C_ C_ 0.318565 0.675907 0.9241 -0.08735
C_ C_ 0.369945 0.681284 0.918827 -0.05681
C_ C_ 0.389864 0.673323 0.891196 -0.05681
C_ C_ 0.355513 0.669401 0.868373 -0.08735
C_ C_ 0.302987 0.667267 0.873504 -0.08735
C_ C_ 0.404306 0.679499 0.942429 -0.08735
C_ C_ 0.455513 0.673022 0.938194 -0.08735
C_ C_ 0.475668 0.672707 0.91001 -0.05681
C_ C_ 0.44326 0.668445 0.8871 -0.08735
C_ C_ 0.124849 0.784134 0.908582 0.68181
C_ C_ 0.132261 0.584671 0.899297 0.68181
C_ C_ 0.133269 0.529763 0.894379 -0.05681
C_ C_ 0.123168 1.00078 0.919936 -0.08735
C_ C_ 0.13085 0.946874 0.917901 -0.05681
C_ C_ 0.131243 0.924832 0.890057 -0.05681
C_ C_ 0.131632 0.955404 0.865976 -0.08735
C_ C_ 0.136162 0.00883709 0.869186 -0.08735
C_ C_ 0.132235 0.916105 0.942121 -0.08735
C_ C_ 0.130991 0.862903 0.93787 -0.08735
C_ C_ 0.130607 0.840042 0.910622 -0.05681
C_ C_ 0.12679 0.871972 0.886454 -0.08735
C_ C_ 0.0324927 0.686835 0.904915 0.68181
C_ C_ 0.0894853 0.632945 0.981698 0.1947
C_ C_ 0.0753266 0.61765 0.503484 -0.08735
C_ C_ 0.091954 0.644837 0.527533 -0.08735
C_ C_ 0.126768 0.686251 0.524867 -0.05681
C_ C_ 0.140719 0.700554 0.496456 0.18498
C_ C_ 0.174028 0.735496 0.993476 -0.08735
C_ C_ 0.180409 0.774823 0.517323 -0.08735
C_ C_ 0.166271 0.759782 0.545236 -0.08735
C_ C_ 0.143354 0.713844 0.549245 0.18498
C_ C_ 0.174617 0.678539 0.594417 0.44287
C_ C_ 0.0906577 0.708566 0.592786 0.44287
C_ C_ 0.0827968 0.695499 0.621235 -0.05681
C_ C_ 0.0337087 0.695201 0.633634 -0.08735
C_ C_ 0.0249265 0.691448 0.663117 -0.08735
C_ C_ 0.0682003 0.686027 0.681424 -0.05681
C_ C_ 0.117662 0.686197 0.668204 -0.05681
C_ C_ 0.124462 0.686286 0.638562 -0.05681
C_ C_ 0.170384 0.678779 0.625308 -0.05681
C_ C_ 0.212886 0.671326 0.643214 -0.08735
C_ C_ 0.208173 0.67417 0.673316 -0.08735
C_ C_ 0.159703 0.677785 0.686241 -0.05681
C_ C_ 0.153625 0.678109 0.716866 0.44287
C_ C_ 0.0653069 0.689967 0.712086 0.44287
C_ C_ 0.096638 0.66495 0.758823 0.18498
C_ C_ 0.0798844 0.615501 0.763774 -0.08735
C_ C_ 0.0705449 0.599647 0.79095 -0.08735
C_ C_ 0.0845731 0.630219 0.813935 -0.08735
C_ C_ 0.1064 0.677604 0.810137 0.18498
C_ C_ 0.114275 0.695655 0.78178 -0.05681
C_ C_ 0.135669 0.74696 0.779071 -0.08735
C_ C_ 0.162459 0.768494 0.802271 -0.08735
C_ C_ 0.158774 0.74607 0.829424 0.1947
C_ C_ 0.253874 0.804207 0.654271 0.68181
C_ C_ 0.196652 0.810522 0.652152 -0.05681
C_ C_ 0.164252 0.810524 0.676146 -0.08735
C_ C_ 0.111566 0.817549 0.671277 -0.05681
C_ C_ 0.0903837 0.81627 0.643027 -0.05681
C_ C_ 0.123514 0.816962 0.619428 -0.08735
C_ C_ 0.175113 0.815157 0.624301 -0.08735
C_ C_ 0.0807421 0.819124 0.695303 -0.08735
C_ C_ 0.0283367 0.819573 0.691925 -0.08735
C_ C_ 0.00658069 0.82526 0.664636 -0.05681
C_ C_ 0.0382989 0.823555 0.64038 -0.08735
C_ C_ 0.365933 0.716518 0.661358 0.68181
C_ C_ 0.349655 0.913058 0.65332 0.68181
C_ C_ 0.350412 0.969876 0.651137 -0.05681
C_ C_ 0.391669 0.499947 0.668399 -0.08735
C_ C_ 0.382576 0.553668 0.66676 -0.05681
C_ C_ 0.360941 0.573259 0.641787 -0.05681
C_ C_ 0.338871 0.541503 0.621805 -0.08735
C_ C_ 0.343716 0.993015 0.624765 -0.08735
C_ C_ 0.395465 0.584833 0.690336 -0.08735
C_ C_ 0.385808 0.636927 0.689173 -0.08735
C_ C_ 0.373528 0.659727 0.662251 -0.05681
C_ C_ 0.361126 0.626881 0.638632 -0.08735
C_ C_ 0.456041 0.819651 0.657684 0.68181
C_ C_ 0.380666 0.874863 0.732227 0.1947
C_ C_ 0.388868 0.890751 0.759858 -0.08735
C_ C_ 0.371015 0.859887 0.783116 -0.08735
C_ C_ 0.345472 0.814744 0.778518 -0.05681
C_ C_ 0.334364 0.800479 0.750025 0.18498
C_ C_ 0.310006 0.755036 0.745078 -0.08735
C_ C_ 0.297018 0.722078 0.767507 -0.08735
C_ C_ 0.305315 0.736769 0.796032 -0.08735
C_ C_ 0.332157 0.782014 0.801937 0.18498
C_ C_ 0.304095 0.806459 0.849963 0.44287
C_ C_ 0.391021 0.78976 0.842577 0.44287
C_ C_ 0.402349 0.79394 0.872643 -0.05681
C_ C_ 0.450993 0.791089 0.883868 -0.08735
C_ C_ 0.458853 0.796002 0.913605 -0.08735
C_ C_ 0.4177 0.806375 0.93091 -0.05681
C_ C_ 0.367677 0.808142 0.920364 -0.05681
C_ C_ 0.360032 0.800974 0.890559 -0.05681
C_ C_ 0.311523 0.810714 0.880021 -0.05681
C_ C_ 0.269742 0.819135 0.897591 -0.08735
C_ C_ 0.277956 0.828091 0.926441 -0.08735
C_ C_ 0.326026 0.820977 0.938471 -0.05681
C_ C_ 0.334674 0.824426 0.968015 0.44287
C_ C_ 0.422816 0.811054 0.960501 0.44287
C_ C_ 0.387366 0.83394 0.508233 0.18498
C_ C_ 0.413777 0.878764 0.514023 -0.08735
C_ C_ 0.421787 0.896032 0.541965 -0.08735
C_ C_ 0.398163 0.87193 0.564384 -0.08735
C_ C_ 0.370187 0.825349 0.560739 0.18498
C_ C_ 0.366904 0.804832 0.532137 -0.05681
C_ C_ 0.348636 0.75563 0.528927 -0.08735
C_ C_ 0.328048 0.730518 0.551988 -0.08735
C_ C_ 0.327022 0.754481 0.579406 0.1947
N_ N_ 0.1188 0.672912 0.977337 -0.29468
N_ N_ 0.135285 0.696681 0.578364 -0.17154
N_ N_ 0.105895 0.678862 0.729797 -0.17154
N_ N_ 0.127517 0.703163 0.832994 -0.29468
N_ N_ 0.350773 0.831822 0.72787 -0.29468
N_ N_ 0.342071 0.795683 0.831705 -0.17154
N_ N_ 0.381487 0.817928 0.979134 -0.17154
N_ N_ 0.353408 0.798414 0.583662 -0.29468
O_ O_ 0.205654 0.669441 0.928367 -0.58347
O_ O_ 0.201896 0.694986 0.883931 -0.58347
O_ O_ 0.139863 0.75774 0.92911 -0.58347
O_ O_ 0.113115 0.761219 0.885314 -0.58347
O_ O_ 0.122557 0.603234 0.92371 -0.58347
O_ O_ 0.141201 0.613545 0.878573 -0.58347
O_ O_ 0.059302 0.691483 0.926453 -0.58347
O_ O_ 0.0522451 0.681843 0.879864 -0.58347
O_ O_ 0.0513166 0.725038 0.577727 -0.46727
O_ O_ 0.216721 0.666461 0.581725 -0.46727
O_ O_ 0.019549 0.694988 0.723514 -0.46727
O_ O_ 0.193146 0.675107 0.733168 -0.46727
O_ O_ 0.274869 0.801206 0.679104 -0.58347
O_ O_ 0.282311 0.810196 0.632372 -0.58347
O_ O_ 0.363906 0.74215 0.684496 -0.58347
O_ O_ 0.35832 0.73651 0.637436 -0.58347
O_ O_ 0.337544 0.890733 0.676101 -0.58347
O_ O_ 0.365426 0.887571 0.632275 -0.58347
O_ O_ 0.426235 0.825267 0.678531 -0.58347
O_ O_ 0.439576 0.80681 0.63292 -0.58347
O_ O_ 0.429413 0.784064 0.824877 -0.46727
O_ O_ 0.258004 0.812767 0.840238 -0.46727
O_ O_ 0.466408 0.801913 0.971576 -0.46727
O_ O_ 0.297414 0.832621 0.984917 -0.46727
Zn Zn 0.630037 0.178823 0.382814 0.90689
Zn Zn 0.63902 0.17513 0.431755 0.90689
Zn Zn 0.876447 0.32446 0.130832 0.90689
Zn Zn 0.867552 0.326319 0.178595 0.90689
H_ H_ 0.808564 0.178123 0.449144 0.11455
H_ H_ 0.871911 0.190593 0.347717 0.11455
H_ H_ 0.784136 0.183295 0.356678 0.11455
H_ H_ 0.901492 0.17494 0.463802 0.11455
H_ H_ 0.989414 0.170081 0.453285 0.11455
H_ H_ 0.9568 0.185907 0.363257 0.11455
H_ H_ 0.651184 0.00438261 0.445666 0.11455
H_ H_ 0.684725 0.428819 0.355851 0.11455
H_ H_ 0.60559 0.0237083 0.357703 0.11455
H_ H_ 0.592594 0.427405 0.463253 0.11455
H_ H_ 0.593478 0.333031 0.460098 0.11455
H_ H_ 0.661332 0.344139 0.376018 0.11455
H_ H_ 0.604297 0.091537 0.471888 0.11455
H_ H_ 0.596921 0.0570336 0.0243262 0.11455
H_ H_ 0.635562 0.117814 0.0621394 0.11455
H_ H_ 0.683575 0.247702 0.477851 0.11455
H_ H_ 0.727924 0.298144 0.00915112 0.11455
H_ H_ 0.719844 0.274397 0.0602232 0.11455
H_ H_ 0.536458 0.211097 0.123671 0.11455
H_ H_ 0.524555 0.214863 0.175565 0.11455
H_ H_ 0.785333 0.172746 0.141374 0.11455
H_ H_ 0.768333 0.152787 0.192719 0.11455
H_ H_ 0.578164 0.0808768 0.251693 0.11455
H_ H_ 0.543327 0.0721514 0.299825 0.11455
H_ H_ 0.569806 0.125439 0.339169 0.11455
H_ H_ 0.675995 0.239587 0.259579 0.11455
H_ H_ 0.708641 0.284456 0.30014 0.11455
H_ H_ 0.686017 0.264787 0.3476 0.11455
H_ H_ 0.697353 0.318717 0.197883 0.11455
H_ H_ 0.631922 0.323847 0.0972484 0.11455
H_ H_ 0.722985 0.322957 0.106444 0.11455
H_ H_ 0.607551 0.308943 0.215004 0.11455
H_ H_ 0.525335 0.317904 0.205347 0.11455
H_ H_ 0.544983 0.327037 0.115366 0.11455
H_ H_ 0.853148 0.49372 0.195685 0.11455
H_ H_ 0.909535 0.0705898 0.0976957 0.11455
H_ H_ 0.86789 0.480532 0.105215 0.11455
H_ H_ 0.872019 0.0778098 0.212836 0.11455
H_ H_ 0.87393 0.169341 0.209033 0.11455
H_ H_ 0.89604 0.156478 0.119344 0.11455
H_ H_ 0.931232 0.399412 0.212994 0.11455
H_ H_ 0.96098 0.419373 0.260864 0.11455
H_ H_ 0.922139 0.374863 0.302012 0.11455
H_ H_ 0.818245 0.271406 0.221778 0.11455
H_ H_ 0.803028 0.204249 0.2614 0.11455
H_ H_ 0.830639 0.224258 0.307392 0.11455
H_ H_ 1.00153 0.292975 0.377126 0.11455
H_ H_ 0.00796448 0.318754 0.424509 0.11455
H_ H_ 0.750133 0.342161 0.385413 0.11455
H_ H_ 0.76189 0.358665 0.43605 0.11455
H_ H_ 0.925906 0.425016 0.5031 0.11455
H_ H_ 0.968426 0.426666 0.0480365 0.11455
H_ H_ 0.921599 0.389475 0.0865469 0.11455
H_ H_ 0.845539 0.25292 0.00715636 0.11455
H_ H_ 0.806581 0.21196 0.0474838 0.11455
H_ H_ 0.824337 0.239814 0.0972146 0.11455
C_ C_ 0.732628 0.185845 0.408415 0.68181
C_ C_ 0.787973 0.185223 0.404078 -0.05681
C_ C_ 0.821689 0.176285 0.427041 -0.08735
C_ C_ 0.87469 0.175167 0.42011 -0.05681
C_ C_ 0.892501 0.176477 0.391962 -0.05681
C_ C_ 0.857744 0.183604 0.369943 -0.08735
C_ C_ 0.808195 0.187957 0.375029 -0.08735
C_ C_ 0.910524 0.17805 0.442271 -0.08735
C_ C_ 0.962098 0.176522 0.435053 -0.08735
C_ C_ 0.980648 0.173277 0.407559 -0.05681
C_ C_ 0.945394 0.1783 0.385025 -0.08735
C_ C_ 0.626613 0.274982 0.412756 0.68181
C_ C_ 0.630513 0.0800374 0.403645 0.68181
C_ C_ 0.629857 0.023139 0.403071 -0.05681
C_ C_ 0.617948 0.491867 0.420917 -0.08735
C_ C_ 0.620111 0.438406 0.419821 -0.05681
C_ C_ 0.645899 0.415014 0.396407 -0.05681
C_ C_ 0.658855 0.442319 0.372723 -0.08735
C_ C_ 0.653074 0.494151 0.37336 -0.08735
C_ C_ 0.607354 0.409623 0.44342 -0.08735
C_ C_ 0.607127 0.355375 0.44193 -0.08735
C_ C_ 0.628631 0.32995 0.417239 -0.05681
C_ C_ 0.648828 0.361817 0.395719 -0.08735
C_ C_ 0.53396 0.168239 0.406563 0.68181
C_ C_ 0.615488 0.116628 0.488609 0.1947
C_ C_ 0.614241 0.0945709 0.0190144 -0.08735
C_ C_ 0.631196 0.128428 0.0398072 -0.08735
C_ C_ 0.658702 0.17156 0.0321349 -0.05681
C_ C_ 0.660892 0.187007 1.00263776 0.18498
C_ C_ 0.674397 0.239727 0.499384 -0.08735
C_ C_ 0.706097 0.2639 0.0163006 -0.08735
C_ C_ 0.702912 0.250279 0.0446705 -0.08735
C_ C_ 0.679155 0.204164 0.0537896 0.18498
C_ C_ 0.709903 0.185057 0.100793 0.44287
C_ C_ 0.624905 0.202968 0.0954008 0.44287
C_ C_ 0.61399 0.188684 0.124438 -0.05681
C_ C_ 0.56626 0.194457 0.136056 -0.08735
C_ C_ 0.559625 0.196507 0.165947 -0.08735
C_ C_ 0.598837 0.180574 0.183962 -0.05681
C_ C_ 0.646385 0.1686 0.172409 -0.05681
C_ C_ 0.65293 0.17419 0.14307 -0.05681
C_ C_ 0.703736 0.175348 0.131005 -0.05681
C_ C_ 0.746322 0.173751 0.149693 -0.08735
C_ C_ 0.736948 0.164994 0.179315 -0.08735
C_ C_ 0.68767 0.158744 0.190387 -0.05681
C_ C_ 0.67732 0.151797 0.220521 0.44287
C_ C_ 0.593993 0.183586 0.215094 0.44287
C_ C_ 0.618619 0.154136 0.262211 0.18498
C_ C_ 0.585333 0.112563 0.267725 -0.08735
C_ C_ 0.562989 0.106298 0.294934 -0.08735
C_ C_ 0.579893 0.136587 0.317989 -0.08735
C_ C_ 0.616556 0.173367 0.313692 0.18498
C_ C_ 0.633032 0.185554 0.285252 -0.05681
C_ C_ 0.66715 0.224254 0.280797 -0.08735
C_ C_ 0.682184 0.252996 0.304117 -0.08735
C_ C_ 0.669709 0.238646 0.331369 0.1947
C_ C_ 0.774086 0.318837 0.156673 0.68181
C_ C_ 0.717706 0.320941 0.15275 -0.05681
C_ C_ 0.684028 0.317939 0.175627 -0.08735
C_ C_ 0.629672 0.315922 0.169851 -0.05681
C_ C_ 0.612079 0.322198 0.142111 -0.05681
C_ C_ 0.645415 0.318932 0.119199 -0.08735
C_ C_ 0.69796 0.321368 0.124406 -0.08735
C_ C_ 0.595459 0.32011 0.192533 -0.08735
C_ C_ 0.546248 0.32899 0.188289 -0.08735
C_ C_ 0.526004 0.326183 0.160205 -0.05681
C_ C_ 0.559996 0.327088 0.137389 -0.08735
C_ C_ 0.886624 0.227396 0.16191 0.68181
C_ C_ 0.867009 0.425686 0.151206 0.68181
C_ C_ 0.864699 0.48008 0.149651 -0.05681
C_ C_ 0.883679 0.0122398 0.172575 -0.08735
C_ C_ 0.887562 0.0640043 0.170133 -0.05681
C_ C_ 0.897473 0.0851226 0.142856 -0.05681
C_ C_ 0.904917 0.0544088 0.118954 -0.08735
C_ C_ 0.869339 0.504144 0.123661 -0.08735
C_ C_ 0.878329 0.0949119 0.192931 -0.08735
C_ C_ 0.88333 0.146338 0.190504 -0.08735
C_ C_ 0.888831 0.170115 0.163488 -0.05681
C_ C_ 0.892518 0.137921 0.13962 -0.08735
C_ C_ 0.971357 0.331074 0.154733 0.68181
C_ C_ 0.913028 0.382004 0.230537 0.1947
C_ C_ 0.930318 0.394502 0.258254 -0.08735
C_ C_ 0.906398 0.371843 0.282006 -0.08735
C_ C_ 0.871949 0.331198 0.277315 -0.05681
C_ C_ 0.857081 0.320769 0.248726 0.18498
C_ C_ 0.823492 0.281689 0.243873 -0.08735
C_ C_ 0.815153 0.245016 0.26619 -0.08735
C_ C_ 0.831194 0.256477 0.293832 -0.08735
C_ C_ 0.858727 0.297711 0.300151 0.18498
C_ C_ 0.825821 0.31894 0.348221 0.44287
C_ C_ 0.915266 0.303829 0.342921 0.44287
C_ C_ 0.921152 0.30692 0.373255 -0.05681
C_ C_ 0.968725 0.301802 0.388022 -0.08735
C_ C_ 0.971885 0.312464 0.417449 -0.08735
C_ C_ 0.931853 0.323848 0.434773 -0.05681
C_ C_ 0.882519 0.319989 0.421328 -0.05681
C_ C_ 0.87731 0.318272 0.390994 -0.05681
C_ C_ 0.830411 0.327504 0.377602 -0.05681
C_ C_ 0.788952 0.33987 0.395002 -0.08735
C_ C_ 0.793424 0.344756 0.424158 -0.08735
C_ C_ 0.841063 0.336447 0.437651 -0.05681
C_ C_ 0.847305 0.343244 0.467146 0.44287
C_ C_ 0.935651 0.331164 0.463675 0.44287
C_ C_ 0.902107 0.340053 0.00826113 0.18498
C_ C_ 0.932242 0.382873 0.013454 -0.08735
C_ C_ 0.940835 0.398839 0.0423759 -0.08735
C_ C_ 0.914425 0.37629 0.0650611 -0.08735
C_ C_ 0.885649 0.33275 0.0613869 0.18498
C_ C_ 0.878225 0.315015 0.0318697 -0.05681
C_ C_ 0.853095 0.267814 0.0280349 -0.08735
C_ C_ 0.834632 0.241932 0.0504332 -0.08735
C_ C_ 0.840561 0.263207 0.0787796 0.1947
N_ N_ 0.632776 0.164172 0.482087 -0.29468
N_ N_ 0.669996 0.193822 0.0840132 -0.17154
N_ N_ 0.631127 0.166716 0.232546 -0.17154
N_ N_ 0.637806 0.19683 0.336794 -0.29468
N_ N_ 0.877692 0.344858 0.226531 -0.29468
N_ N_ 0.867069 0.309131 0.330538 -0.17154
N_ N_ 0.894084 0.341011 0.479542 -0.17154
N_ N_ 0.862221 0.30865 0.0838341 -0.29468
O_ O_ 0.714467 0.181977 0.432895 -0.58347
O_ O_ 0.704074 0.182593 0.386266 -0.58347
O_ O_ 0.62349 0.24752 0.435507 -0.58347
O_ O_ 0.635502 0.254683 0.389563 -0.58347
O_ O_ 0.639823 0.102378 0.426573 -0.58347
O_ O_ 0.628444 0.104423 0.379601 -0.58347
O_ O_ 0.563225 0.165083 0.427941 -0.58347
O_ O_ 0.552165 0.177629 0.381625 -0.58347
O_ O_ 0.58843 0.222551 0.0794515 -0.46727
O_ O_ 0.754387 0.176386 0.0891879 -0.46727
O_ O_ 0.5507 0.199578 0.226986 -0.46727
O_ O_ 0.715869 0.140547 0.236684 -0.46727
O_ O_ 0.794178 0.325804 0.181695 -0.58347
O_ O_ 0.80157 0.310807 0.135061 -0.58347
O_ O_ 0.879824 0.254676 0.184661 -0.58347
O_ O_ 0.883979 0.247646 0.137897 -0.58347
O_ O_ 0.859953 0.403864 0.175109 -0.58347
O_ O_ 0.867751 0.40004 0.128845 -0.58347
O_ O_ 0.941862 0.338813 0.175056 -0.58347
O_ O_ 0.953334 0.328851 0.129825 -0.58347
O_ O_ 0.954644 0.295775 0.326751 -0.46727
O_ O_ 0.780094 0.317883 0.337049 -0.46727
O_ O_ 0.982011 0.334196 0.474393 -0.46727
O_ O_ 0.807811 0.356079 0.482543 -0.46727
Zn Zn 0.625449 0.173704 0.887128 0.90689
Zn Zn 0.635244 0.167099 0.934417 0.90689
Zn Zn 0.877226 0.317866 0.63329 0.90689
Zn Zn 0.860829 0.322752 0.683077 0.90689
H_ H_ 0.80995 0.205144 0.947476 0.11455
H_ H_ 0.868645 0.17386 0.848222 0.11455
H_ H_ 0.780196 0.166854 0.857591 0.11455
H_ H_ 0.893385 0.200075 0.965009 0.11455
H_ H_ 0.985427 0.184467 0.955349 0.11455
H_ H_ 0.956077 0.164758 0.864088 0.11455
H_ H_ 0.592774 0.0101409 0.935724 0.11455
H_ H_ 0.622303 0.427293 0.847434 0.11455
H_ H_ 0.690948 0.0139505 0.861609 0.11455
H_ H_ 0.633956 0.422493 0.965814 0.11455
H_ H_ 0.629229 0.331382 0.963952 0.11455
H_ H_ 0.615838 0.33968 0.87107 0.11455
H_ H_ 0.597796 0.0876725 0.975126 0.11455
H_ H_ 0.611485 0.0556195 0.521571 0.11455
H_ H_ 0.632008 0.112763 0.56044 0.11455
H_ H_ 0.688755 0.240885 0.973055 0.11455
H_ H_ 0.718674 0.301891 0.514743 0.11455
H_ H_ 0.708073 0.279536 0.564028 0.11455
H_ H_ 0.513711 0.211525 0.622958 0.11455
H_ H_ 0.492322 0.197015 0.673682 0.11455
H_ H_ 0.757565 0.161331 0.64776 0.11455
H_ H_ 0.734091 0.135736 0.69727 0.11455
H_ H_ 0.552999 0.0884306 0.754406 0.11455
H_ H_ 0.537349 0.0613913 0.803849 0.11455
H_ H_ 0.582355 0.10864 0.842634 0.11455
H_ H_ 0.644828 0.247232 0.759375 0.11455
H_ H_ 0.677678 0.292533 0.801869 0.11455
H_ H_ 0.679377 0.253438 0.851081 0.11455
H_ H_ 0.694488 0.305411 0.695952 0.11455
H_ H_ 0.627646 0.315954 0.598167 0.11455
H_ H_ 0.720402 0.320957 0.605748 0.11455
H_ H_ 0.610645 0.308336 0.715791 0.11455
H_ H_ 0.517445 0.3016 0.709148 0.11455
H_ H_ 0.540238 0.318484 0.617373 0.11455
H_ H_ 0.861706 0.492538 0.6967 0.11455
H_ H_ 0.899897 0.0614418 0.599113 0.11455
H_ H_ 0.859813 0.47313 0.605653 0.11455
H_ H_ 0.82848 0.0702718 0.708293 0.11455
H_ H_ 0.841216 0.158704 0.708275 0.11455
H_ H_ 0.892432 0.149424 0.619486 0.11455
H_ H_ 0.913351 0.395546 0.716625 0.11455
H_ H_ 0.907027 0.430556 0.766084 0.11455
H_ H_ 0.878667 0.378579 0.806828 0.11455
H_ H_ 0.807807 0.251339 0.724046 0.11455
H_ H_ 0.802014 0.184701 0.762909 0.11455
H_ H_ 0.797584 0.213961 0.812529 0.11455
H_ H_ 0.985344 0.293054 0.870452 0.11455
H_ H_ -0.0024560000000000137 0.299095 0.919546 0.11455
H_ H_ 0.743418 0.350054 0.886271 0.11455
H_ H_ 0.754224 0.358206 0.939763 0.11455
H_ H_ 0.954873 0.400496 0.996764 0.11455
H_ H_ 0.954381 0.440419 0.553155 0.11455
H_ H_ 0.933408 0.379255 0.591727 0.11455
H_ H_ 0.847114 0.263915 0.506607 0.11455
H_ H_ 0.804208 0.219325 0.545223 0.11455
H_ H_ 0.817947 0.244389 0.59512 0.11455
C_ C_ 0.730208 0.182128 0.908265 0.68181
C_ C_ 0.786266 0.191029 0.90284 -0.05681
C_ C_ 0.821681 0.20022 0.925942 -0.08735
C_ C_ 0.873968 0.191317 0.920822 -0.05681
C_ C_ 0.891517 0.178552 0.891931 -0.05681
C_ C_ 0.856096 0.178833 0.870317 -0.08735
C_ C_ 0.805485 0.18136 0.875625 -0.08735
C_ C_ 0.908875 0.192289 0.943162 -0.08735
C_ C_ 0.96054 0.184311 0.937957 -0.08735
C_ C_ 0.976829 0.178905 0.908803 -0.05681
C_ C_ 0.942414 0.175729 0.886039 -0.08735
C_ C_ 0.614404 0.271772 0.915497 0.68181
C_ C_ 0.64703 0.0736716 0.904273 0.68181
C_ C_ 0.647664 0.0178961 0.902258 -0.05681
C_ C_ 0.64137 0.484986 0.922512 -0.08735
C_ C_ 0.630391 0.433595 0.921126 -0.05681
C_ C_ 0.624974 0.409403 0.894248 -0.05681
C_ C_ 0.627524 0.441255 0.869418 -0.08735
C_ C_ 0.628365 0.494972 0.8718 -0.08735
C_ C_ 0.632347 0.403667 0.945597 -0.08735
C_ C_ 0.624958 0.351066 0.943992 -0.08735
C_ C_ 0.618651 0.327022 0.917439 -0.05681
C_ C_ 0.618654 0.355694 0.892639 -0.08735
C_ C_ 0.5318 0.165115 0.910433 0.68181
C_ C_ 0.616048 0.111639 0.989831 0.1947
C_ C_ 0.612507 0.0989983 0.517222 -0.08735
C_ C_ 0.625094 0.131478 0.539448 -0.08735
C_ C_ 0.640693 0.181427 0.533685 -0.05681
C_ C_ 0.644112 0.197004 0.50426 0.18498
C_ C_ 0.685784 0.231678 0.994293 -0.08735
C_ C_ 0.699 0.266769 0.520311 -0.08735
C_ C_ 0.689431 0.255568 0.548277 -0.08735
C_ C_ 0.661238 0.212772 0.555867 0.18498
C_ C_ 0.689034 0.190321 0.605501 0.44287
C_ C_ 0.602366 0.203531 0.596382 0.44287
C_ C_ 0.592546 0.197644 0.626571 -0.05681
C_ C_ 0.543057 0.201914 0.63807 -0.08735
C_ C_ 0.530309 0.193539 0.667327 -0.08735
C_ C_ 0.571543 0.180296 0.686595 -0.05681
C_ C_ 0.620301 0.174162 0.675642 -0.05681
C_ C_ 0.629961 0.180659 0.645052 -0.05681
C_ C_ 0.678578 0.174349 0.634665 -0.05681
C_ C_ 0.718743 0.162006 0.654244 -0.08735
C_ C_ 0.708107 0.153241 0.683679 -0.08735
C_ C_ 0.659051 0.164779 0.693786 -0.05681
C_ C_ 0.651704 0.16192 0.723811 0.44287
C_ C_ 0.563712 0.176457 0.716737 0.44287
C_ C_ 0.595734 0.154896 0.764654 0.18498
C_ C_ 0.56391 0.113298 0.771151 -0.08735
C_ C_ 0.561954 0.095759 0.799262 -0.08735
C_ C_ 0.58413 0.12474 0.82164 -0.08735
C_ C_ 0.611107 0.167199 0.816213 0.18498
C_ C_ 0.615937 0.185029 0.787273 -0.05681
C_ C_ 0.63937 0.231319 0.782039 -0.08735
C_ C_ 0.658562 0.257173 0.805467 -0.08735
C_ C_ 0.65747 0.236228 0.832956 0.1947
C_ C_ 0.771493 0.314932 0.655404 0.68181
C_ C_ 0.715527 0.313343 0.650601 -0.05681
C_ C_ 0.681612 0.312864 0.675057 -0.08735
C_ C_ 0.628544 0.313024 0.671037 -0.05681
C_ C_ 0.608418 0.315239 0.642991 -0.05681
C_ C_ 0.64222 0.318396 0.619789 -0.08735
C_ C_ 0.694975 0.317358 0.623775 -0.08735
C_ C_ 0.595003 0.310622 0.694814 -0.08735
C_ C_ 0.542041 0.311602 0.69098 -0.08735
C_ C_ 0.521392 0.316168 0.663464 -0.05681
C_ C_ 0.555551 0.318875 0.63942 -0.08735
C_ C_ 0.871082 0.217915 0.662491 0.68181
C_ C_ 0.86043 0.419982 0.653117 0.68181
C_ C_ 0.86433 0.475565 0.651327 -0.05681
C_ C_ 0.854263 0.00211078 0.669009 -0.08735
C_ C_ 0.864534 0.053897 0.668123 -0.05681
C_ C_ 0.877729 0.0768046 0.641754 -0.05681
C_ C_ 0.886702 0.0451088 0.619046 -0.08735
C_ C_ 0.868415 0.496932 0.624682 -0.08735
C_ C_ 0.850803 0.0853121 0.691048 -0.08735
C_ C_ 0.856739 0.136529 0.690227 -0.08735
C_ C_ 0.872266 0.15999 0.664545 -0.05681
C_ C_ 0.884639 0.130409 0.639794 -0.08735
C_ C_ 0.966048 0.326055 0.657577 0.68181
C_ C_ 0.892339 0.374991 0.734506 0.1947
C_ C_ 0.897568 0.391754 0.762565 -0.08735
C_ C_ 0.879921 0.36338 0.785636 -0.08735
C_ C_ 0.853554 0.31778 0.7808 -0.05681
C_ C_ 0.845731 0.304025 0.751597 0.18498
C_ C_ 0.823185 0.257563 0.744763 -0.08735
C_ C_ 0.814333 0.224119 0.767655 -0.08735
C_ C_ 0.816558 0.237056 0.795564 -0.08735
C_ C_ 0.840755 0.282815 0.803231 0.18498
C_ C_ 0.806063 0.308933 0.85012 0.44287
C_ C_ 0.89263 0.288274 0.844731 0.44287
C_ C_ 0.903335 0.303615 0.872642 -0.05681
C_ C_ 0.952365 0.29523 0.883486 -0.08735
C_ C_ 0.96032 0.303682 0.912019 -0.08735
C_ C_ 0.921448 0.314782 0.930495 -0.05681
C_ C_ 0.874345 0.328657 0.919599 -0.05681
C_ C_ 0.864284 0.319784 0.890381 -0.05681
C_ C_ 0.814787 0.325533 0.879176 -0.05681
C_ C_ 0.776117 0.340475 0.897127 -0.08735
C_ C_ 0.786174 0.349847 0.925926 -0.08735
C_ C_ 0.833954 0.339922 0.938129 -0.05681
C_ C_ 0.843652 0.342398 0.967992 0.44287
C_ C_ 0.926795 0.310992 0.96054 0.44287
C_ C_ 0.900502 0.351499 0.510694 0.18498
C_ C_ 0.923995 0.396251 0.518032 -0.08735
C_ C_ 0.933303 0.408092 0.547619 -0.08735
C_ C_ 0.921317 0.373195 0.569017 -0.08735
C_ C_ 0.890277 0.333108 0.562997 0.18498
C_ C_ 0.882429 0.319474 0.53336 -0.05681
C_ C_ 0.849684 0.278162 0.528358 -0.08735
C_ C_ 0.828913 0.251283 0.550891 -0.08735
C_ C_ 0.834157 0.266461 0.57859 0.1947
N_ N_ 0.637489 0.158236 0.981697 -0.29468
N_ N_ 0.650661 0.202282 0.586404 -0.17154
N_ N_ 0.604769 0.169394 0.73486 -0.17154
N_ N_ 0.63163 0.193364 0.838755 -0.29468
N_ N_ 0.862705 0.333641 0.728916 -0.29468
N_ N_ 0.845978 0.296895 0.832828 -0.17154
N_ N_ 0.888548 0.328598 0.978888 -0.17154
N_ N_ 0.865649 0.306331 0.584972 -0.29468
O_ O_ 0.711711 0.175591 0.933897 -0.58347
O_ O_ 0.699723 0.181127 0.887578 -0.58347
O_ O_ 0.621876 0.243604 0.936968 -0.58347
O_ O_ 0.622108 0.250181 0.8926 -0.58347
O_ O_ 0.652244 0.0946205 0.929212 -0.58347
O_ O_ 0.632692 0.0992734 0.883348 -0.58347
O_ O_ 0.558275 0.158554 0.932912 -0.58347
O_ O_ 0.553087 0.174552 0.886995 -0.58347
O_ O_ 0.565354 0.210678 0.577631 -0.46727
O_ O_ 0.736575 0.192878 0.596581 -0.46727
O_ O_ 0.517003 0.181522 0.727433 -0.46727
O_ O_ 0.689961 0.150995 0.740152 -0.46727
O_ O_ 0.787884 0.315359 0.681002 -0.58347
O_ O_ 0.804022 0.320625 0.635535 -0.58347
O_ O_ 0.873392 0.243394 0.68497 -0.58347
O_ O_ 0.867644 0.238901 0.638169 -0.58347
O_ O_ 0.852381 0.399219 0.677303 -0.58347
O_ O_ 0.874121 0.393973 0.632105 -0.58347
O_ O_ 0.93545 0.334536 0.677688 -0.58347
O_ O_ 0.950187 0.319861 0.631851 -0.58347
O_ O_ 0.924011 0.263274 0.829038 -0.46727
O_ O_ 0.758745 0.308503 0.840131 -0.46727
O_ O_ 0.970417 0.300816 0.971891 -0.46727
O_ O_ 0.805925 0.351164 0.985758 -0.46727
Zn Zn 0.626998 0.677689 0.381568 0.90689
Zn Zn 0.641998 0.674394 0.428198 0.90689
Zn Zn 0.873666 0.823955 0.132841 0.90689
Zn Zn 0.864689 0.829837 0.182148 0.90689
H_ H_ 0.811761 0.679356 0.440886 0.11455
H_ H_ 0.873419 0.663837 0.340116 0.11455
H_ H_ 0.780114 0.667915 0.352104 0.11455
H_ H_ 0.895825 0.665742 0.458348 0.11455
H_ H_ 0.986385 0.673022 0.451067 0.11455
H_ H_ 0.962439 0.663484 0.360892 0.11455
H_ H_ 0.594801 0.510852 0.436144 0.11455
H_ H_ 0.609118 0.933842 0.350993 0.11455
H_ H_ 0.663711 0.515682 0.355475 0.11455
H_ H_ 0.651037 0.919283 0.467435 0.11455
H_ H_ 0.633944 0.827366 0.462213 0.11455
H_ H_ 0.607795 0.846709 0.371408 0.11455
H_ H_ 0.576163 0.613536 0.461782 0.11455
H_ H_ 0.566057 0.576111 0.0206696 0.11455
H_ H_ 0.589749 0.634183 0.0558759 0.11455
H_ H_ 0.687595 0.747517 0.472457 0.11455
H_ H_ 0.73129 0.796184 0.0113556 0.11455
H_ H_ 0.70858 0.773054 0.0620973 0.11455
H_ H_ 0.512052 0.703044 0.122665 0.11455
H_ H_ 0.50459 0.688535 0.173246 0.11455
H_ H_ 0.764608 0.691214 0.139406 0.11455
H_ H_ 0.755327 0.676627 0.190732 0.11455
H_ H_ 0.582032 0.578237 0.249633 0.11455
H_ H_ 0.549055 0.562989 0.297768 0.11455
H_ H_ 0.582879 0.608194 0.33848 0.11455
H_ H_ 0.654132 0.751961 0.259032 0.11455
H_ H_ 0.698722 0.788221 0.298126 0.11455
H_ H_ 0.682006 0.760012 0.34877 0.11455
H_ H_ 0.697512 0.809663 0.194673 0.11455
H_ H_ 0.634282 0.84445 0.0965834 0.11455
H_ H_ 0.722057 0.848943 0.104624 0.11455
H_ H_ 0.610642 0.797206 0.209878 0.11455
H_ H_ 0.521704 0.797853 0.202978 0.11455
H_ H_ 0.54604 0.82538 0.112277 0.11455
H_ H_ 0.875706 0.994728 0.193427 0.11455
H_ H_ 0.888957 0.568445 0.101745 0.11455
H_ H_ 0.881652 0.982553 0.102552 0.11455
H_ H_ 0.875888 0.578942 0.218744 0.11455
H_ H_ 0.867212 0.671683 0.21186 0.11455
H_ H_ 0.888144 0.654177 0.123404 0.11455
H_ H_ 0.927187 0.900653 0.217895 0.11455
H_ H_ 0.941309 0.930336 0.267362 0.11455
H_ H_ 0.897993 0.888034 0.308493 0.11455
H_ H_ 0.796881 0.777787 0.226503 0.11455
H_ H_ 0.780153 0.713304 0.263119 0.11455
H_ H_ 0.805041 0.729895 0.313396 0.11455
H_ H_ 0.985372 0.789393 0.373652 0.11455
H_ H_ 0.003249999999999975 0.791998 0.42663 0.11455
H_ H_ 0.74739 0.860299 0.391396 0.11455
H_ H_ 0.75746 0.861921 0.444507 0.11455
H_ H_ 0.936441 0.904908 0.505221 0.11455
H_ H_ 0.963563 0.934233 0.0499347 0.11455
H_ H_ 0.917585 0.893063 0.0900158 0.11455
H_ H_ 0.837044 0.764785 0.00818702 0.11455
H_ H_ 0.813526 0.711484 0.0489098 0.11455
H_ H_ 0.824094 0.740748 0.0986614 0.11455
C_ C_ 0.732979 0.674161 0.40297 0.68181
C_ C_ 0.786846 0.67497 0.396936 -0.05681
C_ C_ 0.823435 0.68007 0.419251 -0.08735
C_ C_ 0.874626 0.673862 0.412718 -0.05681
C_ C_ 0.89403 0.672957 0.384589 -0.05681
C_ C_ 0.858582 0.66756 0.362721 -0.08735
C_ C_ 0.805615 0.667356 0.369313 -0.08735
C_ C_ 0.909022 0.672948 0.436663 -0.08735
C_ C_ 0.961377 0.66847 0.432473 -0.08735
C_ C_ 0.980334 0.672838 0.405071 -0.05681
C_ C_ 0.946943 0.669976 0.381371 -0.08735
C_ C_ 0.620718 0.774142 0.413592 0.68181
C_ C_ 0.640779 0.576664 0.399786 0.68181
C_ C_ 0.638344 0.520556 0.399272 -0.05681
C_ C_ 0.641943 0.990034 0.425546 -0.08735
C_ C_ 0.635835 0.935807 0.422672 -0.05681
C_ C_ 0.619466 0.915317 0.395789 -0.05681
C_ C_ 0.614736 0.947883 0.371889 -0.08735
C_ C_ 0.618362 1.0000316477 0.374975 -0.08735
C_ C_ 0.641363 0.902381 0.446842 -0.08735
C_ C_ 0.63087 0.852009 0.444055 -0.08735
C_ C_ 0.619228 0.830577 0.417287 -0.05681
C_ C_ 0.612564 0.862517 0.393037 -0.08735
C_ C_ 0.535919 0.67219 0.405766 0.68181
C_ C_ 0.593358 0.632413 0.480306 0.1947
C_ C_ 0.584894 0.611841 0.0144288 -0.08735
C_ C_ 0.605118 0.6396 0.0362044 -0.08735
C_ C_ 0.637135 0.680759 0.0296905 -0.05681
C_ C_ 0.648528 0.693554 1.00028 0.18498
C_ C_ 0.67874 0.735424 0.494788 -0.08735
C_ C_ 0.701794 0.764711 0.0167147 -0.08735
C_ C_ 0.687715 0.75478 0.0446539 -0.08735
C_ C_ 0.658192 0.712172 0.0516003 0.18498
C_ C_ 0.693501 0.685354 0.0977872 0.44287
C_ C_ 0.605478 0.702901 0.0935583 0.44287
C_ C_ 0.59547 0.690459 0.12239 -0.05681
C_ C_ 0.547131 0.694959 0.135333 -0.08735
C_ C_ 0.540481 0.683295 0.1644 -0.08735
C_ C_ 0.583037 0.673605 0.182264 -0.05681
C_ C_ 0.632449 0.676635 0.170005 -0.05681
C_ C_ 0.63824 0.683778 0.140019 -0.05681
C_ C_ 0.689122 0.682308 0.128201 -0.05681
C_ C_ 0.729875 0.678678 0.147301 -0.08735
C_ C_ 0.722366 0.678619 0.176992 -0.08735
C_ C_ 0.673483 0.677549 0.189415 -0.05681
C_ C_ 0.66667 0.670278 0.21966 0.44287
C_ C_ 0.577235 0.668011 0.211903 0.44287
C_ C_ 0.611249 0.651983 0.259718 0.18498
C_ C_ 0.586161 0.606771 0.265844 -0.08735
C_ C_ 0.570779 0.596884 0.292574 -0.08735
C_ C_ 0.589779 0.624445 0.316489 -0.08735
C_ C_ 0.61719 0.669026 0.311651 0.18498
C_ C_ 0.627292 0.684167 0.282701 -0.05681
C_ C_ 0.652689 0.730917 0.279338 -0.08735
C_ C_ 0.671976 0.755866 0.302869 -0.08735
C_ C_ 0.661253 0.740485 0.330748 0.1947
C_ C_ 0.771942 0.823453 0.154237 0.68181
C_ C_ 0.717562 0.826455 0.149662 -0.05681
C_ C_ 0.682906 0.817445 0.173702 -0.08735
C_ C_ 0.633023 0.815089 0.167059 -0.05681
C_ C_ 0.615386 0.825409 0.139015 -0.05681
C_ C_ 0.649535 0.836822 0.117878 -0.08735
C_ C_ 0.700729 0.836867 0.122453 -0.08735
C_ C_ 0.598193 0.807236 0.189782 -0.08735
C_ C_ 0.546798 0.813435 0.18605 -0.08735
C_ C_ 0.527116 0.821612 0.158347 -0.05681
C_ C_ 0.561657 0.827543 0.134341 -0.08735
C_ C_ 0.872014 0.726551 0.164673 0.68181
C_ C_ 0.868242 0.92639 0.152493 0.68181
C_ C_ 0.879177 0.981238 0.148499 -0.05681
C_ C_ 0.857332 0.510263 0.174646 -0.08735
C_ C_ 0.868732 0.563434 0.173522 -0.05681
C_ C_ 0.871252 0.585729 0.145962 -0.05681
C_ C_ 0.875603 0.554578 0.121235 -0.08735
C_ C_ 0.89145 1.00212859 0.121911 -0.08735
C_ C_ 0.868086 0.59485 0.19774 -0.08735
C_ C_ 0.871383 0.647843 0.194253 -0.08735
C_ C_ 0.873385 0.669976 0.167817 -0.05681
C_ C_ 0.881547 0.637277 0.143893 -0.08735
C_ C_ 0.966888 0.822739 0.158607 0.68181
C_ C_ 0.903511 0.883492 0.234726 0.1947
C_ C_ 0.912475 0.902835 0.263413 -0.08735
C_ C_ 0.892149 0.87434 0.286261 -0.08735
C_ C_ 0.862622 0.832723 0.281427 -0.05681
C_ C_ 0.85164 0.817636 0.252868 0.18498
C_ C_ 0.814994 0.780701 0.247714 -0.08735
C_ C_ 0.801834 0.745523 0.268177 -0.08735
C_ C_ 0.81623 0.75679 0.297028 -0.08735
C_ C_ 0.842792 0.803027 0.304404 0.18498
C_ C_ 0.817171 0.831246 0.351885 0.44287
C_ C_ 0.899917 0.800519 0.345788 0.44287
C_ C_ 0.908945 0.802143 0.376517 -0.05681
C_ C_ 0.956341 0.796148 0.389524 -0.08735
C_ C_ 0.964728 0.798778 0.419144 -0.08735
C_ C_ 0.921302 0.804649 0.437083 -0.05681
C_ C_ 0.871831 0.811397 0.425225 -0.05681
C_ C_ 0.867001 0.8106 0.394393 -0.05681
C_ C_ 0.820512 0.827837 0.382614 -0.05681
C_ C_ 0.782093 0.845116 0.400161 -0.08735
C_ C_ 0.78897 0.84966 0.430523 -0.08735
C_ C_ 0.833986 0.834163 0.443625 -0.05681
C_ C_ 0.844731 0.839986 0.472574 0.44287
C_ C_ 0.925861 0.80291 0.467257 0.44287
C_ C_ 0.905423 0.841239 0.0111414 0.18498
C_ C_ 0.931662 0.88589 0.0174063 -0.08735
C_ C_ 0.94217 0.898953 0.0459096 -0.08735
C_ C_ 0.914587 0.876831 0.0686221 -0.08735
C_ C_ 0.887511 0.83119 0.0633314 0.18498
C_ C_ 0.878803 0.816049 0.0347286 -0.05681
C_ C_ 0.845215 0.77494 0.0305742 -0.08735
C_ C_ 0.826595 0.747235 0.0540267 -0.08735
C_ C_ 0.83785 0.762976 0.0813422 0.1947
N_ N_ 0.629995 0.665678 0.476686 -0.29468
N_ N_ 0.652276 0.698012 0.0816218 -0.17154
N_ N_ 0.619224 0.665044 0.230041 -0.17154
N_ N_ 0.635808 0.69589 0.333615 -0.29468
N_ N_ 0.871743 0.843924 0.229372 -0.29468
N_ N_ 0.855825 0.816554 0.33426 -0.17154
N_ N_ 0.888991 0.822012 0.483983 -0.17154
N_ N_ 0.867835 0.804912 0.0856019 -0.29468
O_ O_ 0.717999 0.678906 0.429012 -0.58347
O_ O_ 0.702557 0.681057 0.383519 -0.58347
O_ O_ 0.63257 0.748295 0.43525 -0.58347
O_ O_ 0.6188 0.754817 0.389119 -0.58347
O_ O_ 0.645053 0.600174 0.422809 -0.58347
O_ O_ 0.63386 0.600066 0.377927 -0.58347
O_ O_ 0.567678 0.676548 0.426265 -0.58347
O_ O_ 0.552989 0.672326 0.380028 -0.58347
O_ O_ 0.567031 0.714873 0.0765795 -0.46727
O_ O_ 0.737734 0.681336 0.0853443 -0.46727
O_ O_ 0.531543 0.660484 0.222107 -0.46727
O_ O_ 0.705583 0.661038 0.235361 -0.46727
O_ O_ 0.790345 0.830122 0.179559 -0.58347
O_ O_ 0.802255 0.821949 0.133653 -0.58347
O_ O_ 0.865104 0.754226 0.186242 -0.58347
O_ O_ 0.877262 0.74654 0.14002 -0.58347
O_ O_ 0.86905 0.90547 0.177095 -0.58347
O_ O_ 0.864587 0.898993 0.131115 -0.58347
O_ O_ 0.93804 0.823663 0.180432 -0.58347
O_ O_ 0.94647 0.827014 0.133382 -0.58347
O_ O_ 0.934755 0.781145 0.329384 -0.46727
O_ O_ 0.774597 0.84818 0.341534 -0.46727
O_ O_ 0.970447 0.790542 0.477935 -0.46727
O_ O_ 0.811264 0.862469 0.489536 -0.46727
Zn Zn 0.622569 0.67411 0.882064 0.90689
Zn Zn 0.636682 0.670834 0.929314 0.90689
Zn Zn 0.85905 0.814346 0.634868 0.90689
Zn Zn 0.84852 0.824576 0.680085 0.90689
H_ H_ 0.808074 0.701028 0.945535 0.11455
H_ H_ 0.872301 0.665587 0.848154 0.11455
H_ H_ 0.77696 0.664652 0.857807 0.11455
H_ H_ 0.892471 0.706867 0.962704 0.11455
H_ H_ 0.981952 0.6986 0.955206 0.11455
H_ H_ 0.954846 0.679516 0.863775 0.11455
H_ H_ 0.642876 0.502543 0.943847 0.11455
H_ H_ 0.693091 0.92473 0.861217 0.11455
H_ H_ 0.632543 0.517247 0.852181 0.11455
H_ H_ 0.563484 0.922695 0.955723 0.11455
H_ H_ 0.573675 0.830057 0.953089 0.11455
H_ H_ 0.643332 0.839956 0.872129 0.11455
H_ H_ 0.580475 0.601097 0.968553 0.11455
H_ H_ 0.54371 0.594535 0.510295 0.11455
H_ H_ 0.579254 0.634176 0.55161 0.11455
H_ H_ 0.691819 0.74191 0.972506 0.11455
H_ H_ 0.724224 0.793319 0.514776 0.11455
H_ H_ 0.6873 0.781887 0.563809 0.11455
H_ H_ 0.502361 0.718316 0.625388 0.11455
H_ H_ 0.490759 0.695417 0.677213 0.11455
H_ H_ 0.749116 0.658659 0.633497 0.11455
H_ H_ 0.745761 0.665509 0.687288 0.11455
H_ H_ 0.566189 0.579245 0.746782 0.11455
H_ H_ 0.549857 0.549351 0.79611 0.11455
H_ H_ 0.575478 0.599845 0.837483 0.11455
H_ H_ 0.656855 0.736482 0.759877 0.11455
H_ H_ 0.694804 0.779574 0.80082 0.11455
H_ H_ 0.677417 0.747164 0.848698 0.11455
H_ H_ 0.681618 0.801809 0.691669 0.11455
H_ H_ 0.610964 0.835035 0.595946 0.11455
H_ H_ 0.703722 0.847138 0.605823 0.11455
H_ H_ 0.597272 0.823754 0.714824 0.11455
H_ H_ 0.507823 0.833705 0.708284 0.11455
H_ H_ 0.524449 0.823643 0.616679 0.11455
H_ H_ 0.836312 0.985973 0.687985 0.11455
H_ H_ 0.863592 0.564865 0.599458 0.11455
H_ H_ 0.896121 0.969394 0.601731 0.11455
H_ H_ 0.8496 0.576869 0.717786 0.11455
H_ H_ 0.850818 0.665069 0.712573 0.11455
H_ H_ 0.85305 0.651498 0.623574 0.11455
H_ H_ 0.88521 0.908134 0.713838 0.11455
H_ H_ 0.903386 0.944131 0.761664 0.11455
H_ H_ 0.870787 0.897584 0.804031 0.11455
H_ H_ 0.811365 0.752605 0.725459 0.11455
H_ H_ 0.798305 0.693877 0.765583 0.11455
H_ H_ 0.821364 0.721598 0.814133 0.11455
H_ H_ 0.99369 0.809498 0.867928 0.11455
H_ H_ 1.0041591 0.81887 0.921927 0.11455
H_ H_ 0.742114 0.847567 0.891154 0.11455
H_ H_ 0.756604 0.842589 0.942939 0.11455
H_ H_ 0.952103 0.908259 1.00105022 0.11455
H_ H_ 0.967126 0.916916 0.553803 0.11455
H_ H_ 0.937555 0.862581 0.592984 0.11455
H_ H_ 0.835283 0.752213 0.512673 0.11455
H_ H_ 0.780644 0.722774 0.549104 0.11455
H_ H_ 0.793684 0.757463 0.598723 0.11455
C_ C_ 0.728003 0.686719 0.906512 0.68181
C_ C_ 0.784342 0.688418 0.901803 -0.05681
C_ C_ 0.820558 0.696419 0.923309 -0.08735
C_ C_ 0.873132 0.698775 0.918153 -0.05681
C_ C_ 0.88907 0.68732 0.890605 -0.05681
C_ C_ 0.856961 0.67611 0.868934 -0.08735
C_ C_ 0.804304 0.67709 0.874287 -0.08735
C_ C_ 0.905655 0.701583 0.941084 -0.08735
C_ C_ 0.957759 0.695339 0.936446 -0.08735
C_ C_ 0.976394 0.689728 0.908095 -0.05681
C_ C_ 0.940686 0.68179 0.885381 -0.08735
C_ C_ 0.611776 0.770529 0.911219 0.68181
C_ C_ 0.639576 0.572741 0.900325 0.68181
C_ C_ 0.637881 0.516966 0.898272 -0.05681
C_ C_ 0.61244 -0.010546000000000055 0.919669 -0.08735
C_ C_ 0.610834 0.936969 0.91808 -0.05681
C_ C_ 0.636217 0.912473 0.894765 -0.05681
C_ C_ 0.670097 0.941332 0.877438 -0.08735
C_ C_ 0.670501 -0.006631999999999971 0.879079 -0.08735
C_ C_ 0.585307 0.90649 0.937453 -0.08735
C_ C_ 0.588006 0.854198 0.936288 -0.08735
C_ C_ 0.612135 0.829403 0.91316 -0.05681
C_ C_ 0.636178 0.858438 0.891914 -0.08735
C_ C_ 0.531436 0.667943 0.905296 0.68181
C_ C_ 0.597011 0.622256 0.985621 0.1947
C_ C_ 0.572584 0.622985 0.507265 -0.08735
C_ C_ 0.590198 0.647126 0.531115 -0.08735
C_ C_ 0.623373 0.687181 0.528084 -0.05681
C_ C_ 0.644242 0.696211 0.499736 0.18498
C_ C_ 0.683224 0.734512 0.99407 -0.08735
C_ C_ 0.695811 0.763892 0.518617 -0.08735
C_ C_ 0.673967 0.759706 0.54489 -0.08735
C_ C_ 0.641083 0.717847 0.55047 0.18498
C_ C_ 0.673962 0.683999 0.595713 0.44287
C_ C_ 0.589693 0.708502 0.594307 0.44287
C_ C_ 0.582734 0.699138 0.623845 -0.05681
C_ C_ 0.534706 0.703987 0.637515 -0.08735
C_ C_ 0.529043 0.697987 0.667346 -0.08735
C_ C_ 0.572856 0.684729 0.684473 -0.05681
C_ C_ 0.620051 0.682766 0.670808 -0.05681
C_ C_ 0.624445 0.68803 0.640383 -0.05681
C_ C_ 0.671706 0.679718 0.62613 -0.05681
C_ C_ 0.714949 0.672666 0.643492 -0.08735
C_ C_ 0.712196 0.671891 0.673723 -0.08735
C_ C_ 0.664751 0.672274 0.687027 -0.05681
C_ C_ 0.659453 0.66174 0.716505 0.44287
C_ C_ 0.569206 0.670508 0.713409 0.44287
C_ C_ 0.60853 0.646371 0.758943 0.18498
C_ C_ 0.580495 0.600356 0.764286 -0.08735
C_ C_ 0.571875 0.583647 0.791812 -0.08735
C_ C_ 0.585803 0.61502 0.815548 -0.08735
C_ C_ 0.614566 0.657337 0.812233 0.18498
C_ C_ 0.627057 0.672884 0.783631 -0.05681
C_ C_ 0.654555 0.718818 0.780162 -0.08735
C_ C_ 0.671447 0.745732 0.804163 -0.08735
C_ C_ 0.661858 0.726363 0.831412 0.1947
C_ C_ 0.756414 0.814861 0.654687 0.68181
C_ C_ 0.701277 0.82193 0.649628 -0.05681
C_ C_ 0.666372 0.816057 0.672424 -0.08735
C_ C_ 0.614336 0.818117 0.668668 -0.05681
C_ C_ 0.594775 0.827841 0.640948 -0.05681
C_ C_ 0.627156 0.831547 0.617942 -0.08735
C_ C_ 0.679247 0.832236 0.622198 -0.08735
C_ C_ 0.582643 0.82026 0.692557 -0.08735
C_ C_ 0.530881 0.826303 0.689413 -0.08735
C_ C_ 0.509701 0.824864 0.661935 -0.05681
C_ C_ 0.541348 0.830474 0.637794 -0.08735
C_ C_ 0.860773 0.723764 0.664728 0.68181
C_ C_ 0.857785 0.91468 0.648999 0.68181
C_ C_ 0.864994 0.970716 0.647205 -0.05681
C_ C_ 0.858826 0.508869 0.675531 -0.08735
C_ C_ 0.857323 0.561097 0.672465 -0.05681
C_ C_ 0.860573 0.582471 0.643994 -0.05681
C_ C_ 0.864274 0.550368 0.620788 -0.08735
C_ C_ 0.884758 0.992501 0.621355 -0.08735
C_ C_ 0.855369 0.592847 0.696247 -0.08735
C_ C_ 0.859568 0.643839 0.693751 -0.08735
C_ C_ 0.866272 0.668195 0.666722 -0.05681
C_ C_ 0.865221 0.633582 0.642049 -0.08735
C_ C_ 0.952269 0.824271 0.660238 0.68181
C_ C_ 0.868874 0.891772 0.732334 0.1947
C_ C_ 0.880679 0.909577 0.759216 -0.08735
C_ C_ 0.866358 0.880788 0.783641 -0.08735
C_ C_ 0.845572 0.833773 0.779761 -0.05681
C_ C_ 0.837648 0.815776 0.750581 0.18498
C_ C_ 0.817292 0.765876 0.745851 -0.08735
C_ C_ 0.810911 0.732621 0.768307 -0.08735
C_ C_ 0.82412 0.746772 0.796478 -0.08735
C_ C_ 0.838259 0.798383 0.802902 0.18498
C_ C_ 0.812175 0.821889 0.850767 0.44287
C_ C_ 0.899312 0.810285 0.841882 0.44287
C_ C_ 0.91149 0.814244 0.871594 -0.05681
C_ C_ 0.960212 0.812527 0.882792 -0.08735
C_ C_ 0.966525 0.817423 0.912515 -0.08735
C_ C_ 0.927403 0.825675 0.931453 -0.05681
C_ C_ 0.878079 0.827938 0.920486 -0.05681
C_ C_ 0.869907 0.820027 0.890441 -0.05681
C_ C_ 0.820664 0.82702 0.879473 -0.05681
C_ C_ 0.78088 0.838196 0.898726 -0.08735
C_ C_ 0.788643 0.842349 0.927149 -0.08735
C_ C_ 0.838375 0.836505 0.938922 -0.05681
C_ C_ 0.846473 0.837796 0.969313 0.44287
C_ C_ 0.934809 0.825973 0.962117 0.44287
C_ C_ 0.899471 0.834147 0.513633 0.18498
C_ C_ 0.926962 0.878819 0.521448 -0.08735
C_ C_ 0.938223 0.88981 0.549471 -0.08735
C_ C_ 0.918617 0.860928 0.571916 -0.08735
C_ C_ 0.887962 0.818645 0.566014 0.18498
C_ C_ 0.880174 0.804307 0.536851 -0.05681
C_ C_ 0.842089 0.7684 0.532623 -0.08735
C_ C_ 0.81158 0.750829 0.554965 -0.08735
C_ C_ 0.820172 0.767194 0.582166 0.1947
N_ N_ 0.625983 0.66573 0.979153 -0.29468
N_ N_ 0.633651 0.70076 0.580345 -0.17154
N_ N_ 0.61212 0.662812 0.729882 -0.17154
N_ N_ 0.632684 0.682991 0.83578 -0.29468
N_ N_ 0.847659 0.845448 0.727609 -0.29468
N_ N_ 0.850239 0.810901 0.832516 -0.17154
N_ N_ 0.894441 0.83129 0.980693 -0.17154
N_ N_ 0.862287 0.795324 0.587718 -0.29468
O_ O_ 0.711979 0.680983 0.931874 -0.58347
O_ O_ 0.696669 0.678001 0.885582 -0.58347
O_ O_ 0.625534 0.744226 0.933295 -0.58347
O_ O_ 0.615672 0.751093 0.885896 -0.58347
O_ O_ 0.635132 0.592223 0.924635 -0.58347
O_ O_ 0.629095 0.599641 0.878923 -0.58347
O_ O_ 0.558247 0.661816 0.926045 -0.58347
O_ O_ 0.549089 0.672548 0.879831 -0.58347
O_ O_ 0.547194 0.714859 0.578765 -0.46727
O_ O_ 0.71519 0.668607 0.581108 -0.46727
O_ O_ 0.524566 0.663741 0.724399 -0.46727
O_ O_ 0.699173 0.656934 0.733062 -0.46727
O_ O_ 0.774776 0.814051 0.679625 -0.58347
O_ O_ 0.784349 0.825647 0.633115 -0.58347
O_ O_ 0.858362 0.75063 0.686169 -0.58347
O_ O_ 0.851625 0.742158 0.640434 -0.58347
O_ O_ 0.839731 0.897057 0.671432 -0.58347
O_ O_ 0.870809 0.887615 0.628259 -0.58347
O_ O_ 0.924078 0.838365 0.680577 -0.58347
O_ O_ 0.933936 0.806718 0.637606 -0.58347
O_ O_ 0.936503 0.798882 0.823299 -0.46727
O_ O_ 0.765785 0.825985 0.840932 -0.46727
O_ O_ 0.978689 0.817272 0.973688 -0.46727
O_ O_ 0.808078 0.847802 0.986833 -0.46727
_cell_length_a 26.376
_cell_length_b 26.400000238300095
_cell_length_c 46.67800035477134
_cell_angle_alpha 90.00700052986613
_cell_angle_beta 89.99899961309502
_cell_angle_gamma 90.45000003183146
_symmetry_space_group_name_H-M         'P 1'
_symmetry_Int_Tables_number            1
loop_
_symmetry_equiv_pos_as_xyz
   'x, y, z'
                         
loop_
_atom_site_label
_atom_site_type_symbol
_atom_site_fract_x 
_atom_site_fract_y
_atom_site_fract_z
_atom_site_charge
Zn Zn 0.126691 0.184984 0.377247 0.90689
Zn Zn 0.135932 0.179504 0.426289 0.90689
Zn Zn 0.378296 0.321743 0.134199 0.90689
Zn Zn 0.36549 0.324552 0.18288 0.90689
H_ H_ 0.305001 0.192284 0.445159 0.11455
H_ H_ 0.376205 0.16661 0.347555 0.11455
H_ H_ 0.281146 0.177286 0.354922 0.11455
H_ H_ 0.393899 0.189944 0.464626 0.11455
H_ H_ 0.487033 0.184856 0.456206 0.11455
H_ H_ 0.461029 0.165552 0.365402 0.11455
H_ H_ 0.166611 0.0154187 0.435902 0.11455
H_ H_ 0.126682 0.437605 0.344752 0.11455
H_ H_ 0.11568 0.028364 0.348201 0.11455
H_ H_ 0.105899 0.432642 0.461671 0.11455
H_ H_ 0.112327 0.337298 0.458532 0.11455
H_ H_ 0.131883 0.354073 0.36657 0.11455
H_ H_ 0.0852299 0.100402 0.46157 0.11455
H_ H_ 0.0596943 0.0814792 0.012561 0.11455
H_ H_ 0.0964946 0.130108 0.0533779 0.11455
H_ H_ 0.183818 0.250875 0.468373 0.11455
H_ H_ 0.217816 0.303713 0.00915442 0.11455
H_ H_ 0.198935 0.281916 0.0586122 0.11455
H_ H_ 0.0220145 0.216749 0.125554 0.11455
H_ H_ 0.0193585 0.211892 0.178178 0.11455
H_ H_ 0.272216 0.173661 0.126787 0.11455
H_ H_ 0.273186 0.17655 0.178003 0.11455
H_ H_ 0.0944831 0.0890322 0.242153 0.11455
H_ H_ 0.0532463 0.0732973 0.291653 0.11455
H_ H_ 0.0751335 0.131945 0.330215 0.11455
H_ H_ 0.186124 0.245669 0.254775 0.11455
H_ H_ 0.19427 0.299836 0.296374 0.11455
H_ H_ 0.18645 0.265137 0.344798 0.11455
H_ H_ 0.197309 0.321035 0.199358 0.11455
H_ H_ 0.136628 0.332308 0.101533 0.11455
H_ H_ 0.228438 0.324228 0.111339 0.11455
H_ H_ 0.11246 0.32825 0.216522 0.11455
H_ H_ 0.0186058 0.322618 0.204491 0.11455
H_ H_ 0.0528963 0.332497 0.11565 0.11455
H_ H_ 0.396417 0.487762 0.189219 0.11455
H_ H_ 0.376581 0.0712789 0.0936769 0.11455
H_ H_ 0.32712 0.477251 0.107088 0.11455
H_ H_ 0.373403 0.0675909 0.211319 0.11455
H_ H_ 0.358671 0.161019 0.208694 0.11455
H_ H_ 0.385923 0.154883 0.119964 0.11455
H_ H_ 0.420018 0.397057 0.216335 0.11455
H_ H_ 0.455143 0.413611 0.264569 0.11455
H_ H_ 0.423872 0.37173 0.304878 0.11455
H_ H_ 0.30333 0.268699 0.228112 0.11455
H_ H_ 0.273563 0.214739 0.264805 0.11455
H_ H_ 0.301486 0.230647 0.31442 0.11455
H_ H_ 0.491344 0.288189 0.37802 0.11455
H_ H_ 0.499944 0.288475 0.431233 0.11455
H_ H_ 0.243288 0.322948 0.390402 0.11455
H_ H_ 0.252494 0.326184 0.440294 0.11455
H_ H_ 0.429731 0.415058 0.505755 0.11455
H_ H_ 0.467859 0.427036 0.0498193 0.11455
H_ H_ 0.431972 0.383114 0.0913048 0.11455
H_ H_ 0.338192 0.261411 0.0104441 0.11455
H_ H_ 0.307966 0.210953 0.0509663 0.11455
H_ H_ 0.328022 0.238757 0.101886 0.11455
C_ C_ 0.232423 0.186579 0.403931 0.68181
C_ C_ 0.289315 0.187355 0.399992 -0.05681
C_ C_ 0.321861 0.186971 0.423676 -0.08735
C_ C_ 0.37488 0.182131 0.420068 -0.05681
C_ C_ 0.394344 0.179089 0.391884 -0.05681
C_ C_ 0.361036 0.174754 0.368255 -0.08735
C_ C_ 0.307553 0.179275 0.372088 -0.08735
C_ C_ 0.408362 0.18427 0.4432 -0.08735
C_ C_ 0.460384 0.181547 0.439046 -0.08735
C_ C_ 0.479776 0.174578 0.410767 -0.05681
C_ C_ 0.445206 0.169901 0.387244 -0.08735
C_ C_ 0.11608 0.281065 0.40847 0.68181
C_ C_ 0.138899 0.0846635 0.396298 0.68181
C_ C_ 0.137049 0.0282424 0.393719 -0.05681
C_ C_ 0.126496 0.498475 0.419129 -0.08735
C_ C_ 0.120511 0.444875 0.417599 -0.05681
C_ C_ 0.124816 0.422582 0.389956 -0.05681
C_ C_ 0.129444 0.454466 0.365632 -0.08735
C_ C_ 0.131959 0.50489 0.36872 -0.08735
C_ C_ 0.112139 0.415366 0.441042 -0.08735
C_ C_ 0.112924 0.360619 0.439597 -0.08735
C_ C_ 0.117717 0.33723 0.412625 -0.05681
C_ C_ 0.123754 0.369254 0.387849 -0.08735
C_ C_ 0.034485 0.170817 0.401286 0.68181
C_ C_ 0.100853 0.124502 0.479041 0.1947
C_ C_ 0.0837549 0.11512 0.0093867 -0.08735
C_ C_ 0.104504 0.144337 0.0310309 -0.08735
C_ C_ 0.129592 0.190053 0.0257263 -0.05681
C_ C_ 0.140942 0.202576 0.997533 0.18498
C_ C_ 0.173258 0.239772 0.489398 -0.08735
C_ C_ 0.186981 0.276846 0.0136989 -0.08735
C_ C_ 0.177811 0.263665 0.0423355 -0.08735
C_ C_ 0.149922 0.220438 0.0479943 0.18498
C_ C_ 0.192655 0.193971 0.0921424 0.44287
C_ C_ 0.104166 0.210298 0.092451 0.44287
C_ C_ 0.102051 0.202411 0.12226 -0.05681
C_ C_ 0.056032 0.206761 0.137529 -0.08735
C_ C_ 0.0559577 0.206016 0.168271 -0.08735
C_ C_ 0.100785 0.20154 0.18469 -0.05681
C_ C_ 0.145181 0.191724 0.168709 -0.05681
C_ C_ 0.146549 0.195141 0.13832 -0.05681
C_ C_ 0.192369 0.187814 0.122527 -0.05681
C_ C_ 0.236134 0.174852 0.138066 -0.08735
C_ C_ 0.235977 0.173633 0.16833 -0.08735
C_ C_ 0.190099 0.178057 0.183629 -0.05681
C_ C_ 0.187301 0.169575 0.213122 0.44287
C_ C_ 0.0998942 0.193945 0.213473 0.44287
C_ C_ 0.135262 0.154944 0.256164 0.18498
C_ C_ 0.104174 0.112646 0.261047 -0.08735
C_ C_ 0.0790396 0.105817 0.287101 -0.08735
C_ C_ 0.0957033 0.134665 0.310755 -0.08735
C_ C_ 0.13156 0.174198 0.307735 0.18498
C_ C_ 0.145595 0.187529 0.279426 -0.05681
C_ C_ 0.170605 0.23334 0.275547 -0.08735
C_ C_ 0.184147 0.262085 0.299504 -0.08735
C_ C_ 0.172717 0.244836 0.326781 0.1947
C_ C_ 0.275433 0.315718 0.160713 0.68181
C_ C_ 0.219862 0.326202 0.156213 -0.05681
C_ C_ 0.184809 0.327941 0.178471 -0.08735
C_ C_ 0.133319 0.334438 0.172278 -0.05681
C_ C_ 0.114166 0.334736 0.144496 -0.05681
C_ C_ 0.149594 0.332366 0.122379 -0.08735
C_ C_ 0.201262 0.329006 0.12866 -0.08735
C_ C_ 0.0992158 0.336591 0.194458 -0.08735
C_ C_ 0.0464044 0.336859 0.188353 -0.08735
C_ C_ 0.0282608 0.336081 0.160045 -0.05681
C_ C_ 0.0625116 0.333178 0.137619 -0.08735
C_ C_ 0.38329 0.223212 0.163024 0.68181
C_ C_ 0.366231 0.422116 0.150738 0.68181
C_ C_ 0.361345 0.479531 0.148684 -0.05681
C_ C_ 0.380867 0.0034691 0.166895 -0.08735
C_ C_ 0.379071 0.0571213 0.166027 -0.05681
C_ C_ 0.385407 0.0836383 0.139316 -0.05681
C_ C_ 0.379028 0.0541384 0.114491 -0.08735
C_ C_ 0.345186 0.502681 0.122514 -0.08735
C_ C_ 0.379639 0.0861415 0.191327 -0.08735
C_ C_ 0.372303 0.139012 0.190349 -0.08735
C_ C_ 0.383192 0.165227 0.163987 -0.05681
C_ C_ 0.384008 0.136109 0.139906 -0.08735
C_ C_ 0.469847 0.330246 0.155942 0.68181
C_ C_ 0.40802 0.372624 0.23358 0.1947
C_ C_ 0.42821 0.383407 0.259927 -0.08735
C_ C_ 0.407247 0.360235 0.284031 -0.08735
C_ C_ 0.371762 0.322564 0.281377 -0.05681
C_ C_ 0.354775 0.310729 0.252636 0.18498
C_ C_ 0.321384 0.27079 0.248581 -0.08735
C_ C_ 0.300829 0.24374 0.27089 -0.08735
C_ C_ 0.31675 0.253901 0.299162 -0.08735
C_ C_ 0.350923 0.293925 0.30533 0.18498
C_ C_ 0.319289 0.321678 0.351182 0.44287
C_ C_ 0.406031 0.301769 0.347799 0.44287
C_ C_ 0.411676 0.308544 0.377414 -0.05681
C_ C_ 0.459305 0.298726 0.390552 -0.08735
C_ C_ 0.465253 0.302671 0.420098 -0.08735
C_ C_ 0.423365 0.318828 0.43769 -0.05681
C_ C_ 0.378341 0.331393 0.424624 -0.05681
C_ C_ 0.371245 0.323933 0.39445 -0.05681
C_ C_ 0.323314 0.326852 0.381373 -0.05681
C_ C_ 0.281076 0.328502 0.39959 -0.08735
C_ C_ 0.286359 0.334005 0.428651 -0.08735
C_ C_ 0.335234 0.33887 0.441598 -0.05681
C_ C_ 0.341374 0.341169 0.471859 0.44287
C_ C_ 0.427351 0.319524 0.468143 0.44287
C_ C_ 0.399149 0.342557 0.0126178 0.18498
C_ C_ 0.42653 0.387513 0.0188858 -0.08735
C_ C_ 0.437507 0.401496 0.0470393 -0.08735
C_ C_ 0.42059 0.372895 0.0702228 -0.08735
C_ C_ 0.391394 0.328411 0.0655331 0.18498
C_ C_ 0.380189 0.31235 0.0366269 -0.05681
C_ C_ 0.345171 0.273484 0.0322903 -0.08735
C_ C_ 0.33395 0.241575 0.055291 -0.08735
C_ C_ 0.344909 0.257361 0.0837225 0.1947
N_ N_ 0.127322 0.168501 0.473514 -0.29468
N_ N_ 0.149033 0.203369 0.0774326 -0.17154
N_ N_ 0.140411 0.172226 0.2267 -0.17154
N_ N_ 0.144944 0.203107 0.330881 -0.29468
N_ N_ 0.370664 0.338338 0.230179 -0.29468
N_ N_ 0.360981 0.311067 0.334935 -0.17154
N_ N_ 0.387271 0.331288 0.484169 -0.17154
N_ N_ 0.371822 0.302001 0.0871998 -0.29468
O_ O_ 0.212428 0.194184 0.428855 -0.58347
O_ O_ 0.204103 0.180112 0.382429 -0.58347
O_ O_ 0.117846 0.254652 0.431006 -0.58347
O_ O_ 0.129056 0.260528 0.385013 -0.58347
O_ O_ 0.147638 0.107115 0.420021 -0.58347
O_ O_ 0.128358 0.110171 0.373573 -0.58347
O_ O_ 0.0642638 0.162451 0.422209 -0.58347
O_ O_ 0.0506213 0.185508 0.37743 -0.58347
O_ O_ 0.0675345 0.235153 0.0796001 -0.46727
O_ O_ 0.235429 0.189122 0.0779562 -0.46727
O_ O_ 0.0583834 0.204972 0.228963 -0.46727
O_ O_ 0.226004 0.145817 0.225631 -0.46727
O_ O_ 0.293664 0.32512 0.184601 -0.58347
O_ O_ 0.301727 0.306752 0.138243 -0.58347
O_ O_ 0.37298 0.247517 0.185456 -0.58347
O_ O_ 0.388664 0.245246 0.1391 -0.58347
O_ O_ 0.360947 0.400882 0.17448 -0.58347
O_ O_ 0.367636 0.396511 0.127423 -0.58347
O_ O_ 0.440523 0.326568 0.176697 -0.58347
O_ O_ 0.451201 0.333967 0.130981 -0.58347
O_ O_ 0.440732 0.275178 0.333708 -0.46727
O_ O_ 0.2744 0.327064 0.339209 -0.46727
O_ O_ 0.471475 0.309957 0.479976 -0.46727
O_ O_ 0.303489 0.35726 0.48893 -0.46727
Zn Zn 0.12694 0.188464 0.880633 0.90689
Zn Zn 0.134174 0.185393 0.927853 0.90689
Zn Zn 0.370178 0.309381 0.635132 0.90689
Zn Zn 0.363888 0.314834 0.681747 0.90689
H_ H_ 0.299242 0.189304 0.945621 0.11455
H_ H_ 0.370759 0.146871 0.849233 0.11455
H_ H_ 0.280572 0.16668 0.854543 0.11455
H_ H_ 0.389153 0.188915 0.96454 0.11455
H_ H_ 0.475633 0.207725 0.953765 0.11455
H_ H_ 0.458715 0.166666 0.866952 0.11455
H_ H_ 0.116228 0.0151682 0.941192 0.11455
H_ H_ 0.17001 0.437209 0.846862 0.11455
H_ H_ 0.148192 0.0311379 0.851338 0.11455
H_ H_ 0.0750863 0.425646 0.952911 0.11455
H_ H_ 0.0908276 0.340344 0.95099 0.11455
H_ H_ 0.164125 0.35528 0.867131 0.11455
H_ H_ 0.0745848 0.11094 0.963635 0.11455
H_ H_ 0.057435 0.0798456 0.508879 0.11455
H_ H_ 0.101529 0.11984 0.551138 0.11455
H_ H_ 0.1783 0.256678 0.969411 0.11455
H_ H_ 0.207588 0.307687 0.509107 0.11455
H_ H_ 0.207746 0.27217 0.557459 0.11455
H_ H_ 0.0194341 0.219682 0.62097 0.11455
H_ H_ 0.0101605 0.203662 0.671648 0.11455
H_ H_ 0.270755 0.164541 0.632796 0.11455
H_ H_ 0.25909 0.151524 0.685436 0.11455
H_ H_ 0.0769754 0.0912439 0.743311 0.11455
H_ H_ 0.0607327 0.0621765 0.793761 0.11455
H_ H_ 0.0635456 0.127573 0.832778 0.11455
H_ H_ 0.17471 0.240827 0.755882 0.11455
H_ H_ 0.218364 0.275744 0.796151 0.11455
H_ H_ 0.184434 0.259654 0.846062 0.11455
H_ H_ 0.19665 0.32725 0.698618 0.11455
H_ H_ 0.12702 0.32817 0.599515 0.11455
H_ H_ 0.217786 0.304507 0.607155 0.11455
H_ H_ 0.105596 0.332557 0.719748 0.11455
H_ H_ 0.0176306 0.325998 0.711217 0.11455
H_ H_ 0.0423023 0.313665 0.618878 0.11455
H_ H_ 0.4124 0.48282 0.685755 0.11455
H_ H_ 0.327271 0.0626497 0.602068 0.11455
H_ H_ 0.334317 0.469449 0.607476 0.11455
H_ H_ 0.392142 0.0679309 0.714829 0.11455
H_ H_ 0.39457 0.15615 0.710717 0.11455
H_ H_ 0.358213 0.141062 0.622258 0.11455
H_ H_ 0.423858 0.377745 0.716989 0.11455
H_ H_ 0.44508 0.402395 0.766067 0.11455
H_ H_ 0.401473 0.373741 0.805153 0.11455
H_ H_ 0.304442 0.245743 0.72835 0.11455
H_ H_ 0.279036 0.193367 0.768427 0.11455
H_ H_ 0.318025 0.212484 0.815509 0.11455
H_ H_ 0.491619 0.280808 0.879432 0.11455
H_ H_ 0.502371 0.288846 0.929708 0.11455
H_ H_ 0.243139 0.323842 0.892713 0.11455
H_ H_ 0.251816 0.332399 0.942559 0.11455
H_ H_ 0.446437 0.409945 0.00311316 0.11455
H_ H_ 0.438969 0.439062 0.553453 0.11455
H_ H_ 0.429111 0.376805 0.593195 0.11455
H_ H_ 0.340511 0.254836 0.509362 0.11455
H_ H_ 0.305373 0.204973 0.547513 0.11455
H_ H_ 0.32554 0.228344 0.598543 0.11455
C_ C_ 0.229586 0.180805 0.905009 0.68181
C_ C_ 0.284818 0.180211 0.900762 -0.05681
C_ C_ 0.316506 0.183919 0.924859 -0.08735
C_ C_ 0.369927 0.178556 0.920137 -0.05681
C_ C_ 0.389327 0.169703 0.892676 -0.05681
C_ C_ 0.357993 0.164297 0.868909 -0.08735
C_ C_ 0.30527 0.167309 0.872736 -0.08735
C_ C_ 0.403341 0.184004 0.942792 -0.08735
C_ C_ 0.454957 0.183991 0.93876 -0.08735
C_ C_ 0.475842 0.17225 0.912519 -0.05681
C_ C_ 0.44375 0.163731 0.888269 -0.08735
C_ C_ 0.119326 0.282127 0.907131 0.68181
C_ C_ 0.13032 0.0877125 0.899085 0.68181
C_ C_ 0.12755 0.0315829 0.895313 -0.05681
C_ C_ 0.109749 0.499874 0.915615 -0.08735
C_ C_ 0.114388 0.44514 0.912708 -0.05681
C_ C_ 0.137924 0.422971 0.888364 -0.05681
C_ C_ 0.158157 0.454515 0.866895 -0.08735
C_ C_ 0.155605 0.50726 0.870394 -0.08735
C_ C_ 0.0965679 0.413122 0.933666 -0.08735
C_ C_ 0.0983532 0.360846 0.930863 -0.08735
C_ C_ 0.120489 0.337299 0.906948 -0.05681
C_ C_ 0.141733 0.370347 0.885856 -0.08735
C_ C_ 0.0319717 0.179895 0.902595 0.68181
C_ C_ 0.0927523 0.130459 0.981141 0.1947
C_ C_ 0.0866748 0.109441 0.506428 -0.08735
C_ C_ 0.10506 0.137041 0.530042 -0.08735
C_ C_ 0.139616 0.178722 0.525358 -0.05681
C_ C_ 0.15005 0.19341 0.495155 0.18498
C_ C_ 0.168302 0.247775 0.990396 -0.08735
C_ C_ 0.188433 0.27041 0.513548 -0.08735
C_ C_ 0.189694 0.251672 0.541095 -0.08735
C_ C_ 0.158946 0.209671 0.548285 0.18498
C_ C_ 0.193353 0.184707 0.593675 0.44287
C_ C_ 0.105862 0.19969 0.591119 0.44287
C_ C_ 0.0983845 0.194669 0.619964 -0.05681
C_ C_ 0.0521749 0.20523 0.633443 -0.08735
C_ C_ 0.0462877 0.199483 0.662843 -0.08735
C_ C_ 0.0883513 0.189065 0.680664 -0.05681
C_ C_ 0.136892 0.183434 0.668059 -0.05681
C_ C_ 0.140921 0.186765 0.637664 -0.05681
C_ C_ 0.189217 0.178765 0.624719 -0.05681
C_ C_ 0.233081 0.167154 0.641341 -0.08735
C_ C_ 0.228037 0.16779 0.67131 -0.08735
C_ C_ 0.179844 0.172404 0.684443 -0.05681
C_ C_ 0.171913 0.163811 0.713985 0.44287
C_ C_ 0.085848 0.188747 0.710214 0.44287
C_ C_ 0.117883 0.158402 0.756622 0.18498
C_ C_ 0.0918864 0.113077 0.761742 -0.08735
C_ C_ 0.077527 0.0983374 0.78989 -0.08735
C_ C_ 0.0807556 0.132795 0.812205 -0.08735
C_ C_ 0.11188 0.176511 0.808698 0.18498
C_ C_ 0.128383 0.190126 0.780554 -0.05681
C_ C_ 0.161631 0.231148 0.777119 -0.08735
C_ C_ 0.184295 0.253696 0.800592 -0.08735
C_ C_ 0.172272 0.235909 0.828225 0.1947
C_ C_ 0.269827 0.307914 0.657437 0.68181
C_ C_ 0.213648 0.315698 0.652897 -0.05681
C_ C_ 0.180171 0.322295 0.677385 -0.08735
C_ C_ 0.126987 0.32731 0.673511 -0.05681
C_ C_ 0.108014 0.32575 0.644941 -0.05681
C_ C_ 0.140689 0.323231 0.621533 -0.08735
C_ C_ 0.19404 0.315897 0.62549 -0.08735
C_ C_ 0.0930214 0.327348 0.697031 -0.08735
C_ C_ 0.0427388 0.33302 0.691884 -0.08735
C_ C_ 0.0218663 0.329086 0.663558 -0.05681
C_ C_ 0.0566737 0.3243 0.640402 -0.08735
C_ C_ 0.3679 0.215061 0.664892 0.68181
C_ C_ 0.367026 0.411715 0.652775 0.68181
C_ C_ 0.373116 0.467308 0.647409 -0.05681
C_ C_ 0.357994 -0.00020900000000001473 0.675914 -0.08735
C_ C_ 0.357611 0.0544787 0.673849 -0.05681
C_ C_ 0.348959 0.0763364 0.647286 -0.05681
C_ C_ 0.338522 0.0455534 0.622869 -0.08735
C_ C_ 0.348792 0.491575 0.624277 -0.08735
C_ C_ 0.372424 0.083592 0.697271 -0.08735
C_ C_ 0.373141 0.136536 0.693988 -0.08735
C_ C_ 0.364715 0.159941 0.666938 -0.05681
C_ C_ 0.354554 0.127755 0.643523 -0.08735
C_ C_ 0.466569 0.31329 0.658702 0.68181
C_ C_ 0.404408 0.360182 0.735258 0.1947
C_ C_ 0.41188 0.382659 0.762581 -0.08735
C_ C_ 0.387463 0.36143 0.78502 -0.08735
C_ C_ 0.358024 0.317267 0.781654 -0.05681
C_ C_ 0.345553 0.2994 0.753408 0.18498
C_ C_ 0.314233 0.258651 0.748981 -0.08735
C_ C_ 0.304419 0.225345 0.771932 -0.08735
C_ C_ 0.319156 0.241067 0.799291 -0.08735
C_ C_ 0.345717 0.286775 0.805569 0.18498
C_ C_ 0.318971 0.316764 0.852416 0.44287
C_ C_ 0.405482 0.292238 0.846902 0.44287
C_ C_ 0.413065 0.296936 0.877636 -0.05681
C_ C_ 0.461808 0.292265 0.891136 -0.08735
C_ C_ 0.468054 0.295112 0.920689 -0.08735
C_ C_ 0.425211 0.302664 0.938051 -0.05681
C_ C_ 0.376022 0.308474 0.926306 -0.05681
C_ C_ 0.371753 0.308152 0.895482 -0.05681
C_ C_ 0.324034 0.318058 0.883858 -0.05681
C_ C_ 0.281783 0.328409 0.901326 -0.08735
C_ C_ 0.286933 0.333496 0.929884 -0.08735
C_ C_ 0.336406 0.328067 0.942265 -0.05681
C_ C_ 0.345293 0.338094 0.972094 0.44287
C_ C_ 0.429302 0.306869 0.967942 0.44287
C_ C_ 0.395119 0.343046 0.514329 0.18498
C_ C_ 0.421036 0.387159 0.521345 -0.08735
C_ C_ 0.429212 0.399772 0.549705 -0.08735
C_ C_ 0.415244 0.368484 0.571334 -0.08735
C_ C_ 0.383645 0.324991 0.565874 0.18498
C_ C_ 0.375334 0.31197 0.536894 -0.05681
C_ C_ 0.346268 0.267716 0.530807 -0.08735
C_ C_ 0.327076 0.238262 0.553452 -0.08735
C_ C_ 0.338127 0.25193 0.581432 0.1947
N_ N_ 0.121085 0.173592 0.975156 -0.29468
N_ N_ 0.151628 0.196228 0.578229 -0.17154
N_ N_ 0.126462 0.172484 0.727192 -0.17154
N_ N_ 0.136895 0.197292 0.831102 -0.29468
N_ N_ 0.366391 0.325307 0.730615 -0.29468
N_ N_ 0.35844 0.300471 0.835156 -0.17154
N_ N_ 0.391005 0.326955 0.983641 -0.17154
N_ N_ 0.36459 0.296548 0.587073 -0.29468
O_ O_ 0.210351 0.188908 0.928915 -0.58347
O_ O_ 0.201193 0.180462 0.882591 -0.58347
O_ O_ 0.122502 0.257878 0.930086 -0.58347
O_ O_ 0.12937 0.262208 0.883259 -0.58347
O_ O_ 0.136091 0.108994 0.92367 -0.58347
O_ O_ 0.118791 0.114666 0.87835 -0.58347
O_ O_ 0.0608807 0.174841 0.923531 -0.58347
O_ O_ 0.0518453 0.196648 0.878682 -0.58347
O_ O_ 0.0670134 0.217165 0.576421 -0.46727
O_ O_ 0.239898 0.187856 0.581559 -0.46727
O_ O_ 0.0415452 0.197995 0.72129 -0.46727
O_ O_ 0.20575 0.138501 0.728431 -0.46727
O_ O_ 0.287906 0.309158 0.682742 -0.58347
O_ O_ 0.297441 0.305599 0.63598 -0.58347
O_ O_ 0.359769 0.241087 0.687611 -0.58347
O_ O_ 0.374659 0.237846 0.641352 -0.58347
O_ O_ 0.366454 0.394248 0.678133 -0.58347
O_ O_ 0.364683 0.382091 0.630645 -0.58347
O_ O_ 0.439039 0.312058 0.680631 -0.58347
O_ O_ 0.447346 0.313361 0.633621 -0.58347
O_ O_ 0.443121 0.285047 0.829957 -0.46727
O_ O_ 0.274453 0.323281 0.840594 -0.46727
O_ O_ 0.473098 0.301592 0.979947 -0.46727
O_ O_ 0.306238 0.350803 0.988752 -0.46727
Zn Zn 0.12933 0.684513 0.377473 0.90689
Zn Zn 0.137908 0.682244 0.425006 0.90689
Zn Zn 0.371468 0.816563 0.129901 0.90689
Zn Zn 0.367383 0.821623 0.175887 0.90689
H_ H_ 0.304357 0.692396 0.445997 0.11455
H_ H_ 0.373299 0.651895 0.348424 0.11455
H_ H_ 0.283804 0.669762 0.356472 0.11455
H_ H_ 0.396003 0.688074 0.46485 0.11455
H_ H_ 0.485026 0.680602 0.457278 0.11455
H_ H_ 0.459354 0.655304 0.366877 0.11455
H_ H_ 0.109981 0.51746 0.437041 0.11455
H_ H_ 0.101046 0.931848 0.347671 0.11455
H_ H_ 0.146872 0.526327 0.350334 0.11455
H_ H_ 0.158936 0.930737 0.458594 0.11455
H_ H_ 0.15696 0.838335 0.456269 0.11455
H_ H_ 0.0964417 0.851327 0.371562 0.11455
H_ H_ 0.076761 0.612101 0.456768 0.11455
H_ H_ 0.062282 0.58075 0.0119407 0.11455
H_ H_ 0.0983768 0.622225 0.0543208 0.11455
H_ H_ 0.18248 0.75446 0.473746 0.11455
H_ H_ 0.213334 0.7994 0.00928428 0.11455
H_ H_ 0.194092 0.777586 0.0618109 0.11455
H_ H_ 0.0109587 0.707484 0.12242 0.11455
H_ H_ -0.000663149 0.705166 0.176318 0.11455
H_ H_ 0.256979 0.662814 0.131518 0.11455
H_ H_ 0.245872 0.640292 0.182411 0.11455
H_ H_ 0.0700556 0.587766 0.246382 0.11455
H_ H_ 0.0545704 0.561382 0.296786 0.11455
H_ H_ 0.0768696 0.612642 0.337553 0.11455
H_ H_ 0.139885 0.753478 0.259996 0.11455
H_ H_ 0.197656 0.789689 0.295518 0.11455
H_ H_ 0.179602 0.763116 0.344997 0.11455
H_ H_ 0.196681 0.825919 0.19512 0.11455
H_ H_ 0.121244 0.835322 0.0980346 0.11455
H_ H_ 0.213015 0.826026 0.104532 0.11455
H_ H_ 0.10612 0.83165 0.216555 0.11455
H_ H_ 0.0169776 0.824608 0.208227 0.11455
H_ H_ 0.0380885 0.830316 0.117312 0.11455
H_ H_ 0.371082 0.985306 0.187361 0.11455
H_ H_ 0.330636 0.572275 0.101698 0.11455
H_ H_ 0.379371 0.979758 0.0967309 0.11455
H_ H_ 0.415246 0.579883 0.211985 0.11455
H_ H_ 0.395175 0.667421 0.208917 0.11455
H_ H_ 0.366253 0.652736 0.117814 0.11455
H_ H_ 0.418442 0.890537 0.213163 0.11455
H_ H_ 0.416502 0.927879 0.262777 0.11455
H_ H_ 0.379365 0.878655 0.30183 0.11455
H_ H_ 0.296268 0.764218 0.220621 0.11455
H_ H_ 0.271051 0.700784 0.254127 0.11455
H_ H_ 0.297495 0.710991 0.305955 0.11455
H_ H_ 0.478562 0.779101 0.370445 0.11455
H_ H_ 0.490122 0.797292 0.41819 0.11455
H_ H_ 0.231136 0.826836 0.384784 0.11455
H_ H_ 0.244579 0.850531 0.436218 0.11455
H_ H_ 0.428957 0.899936 0.497138 0.11455
H_ H_ 0.461027 0.922775 0.0462119 0.11455
H_ H_ 0.436305 0.868222 0.0851579 0.11455
H_ H_ 0.348915 0.740528 0.00897369 0.11455
H_ H_ 0.30087 0.702531 0.0499558 0.11455
H_ H_ 0.307811 0.744829 0.0984894 0.11455
C_ C_ 0.232498 0.683102 0.40373 0.68181
C_ C_ 0.286933 0.670854 0.401992 -0.05681
C_ C_ 0.320843 0.682704 0.425241 -0.08735
C_ C_ 0.373615 0.680833 0.420542 -0.05681
C_ C_ 0.392798 0.66841 0.393015 -0.05681
C_ C_ 0.35969 0.663676 0.369723 -0.08735
C_ C_ 0.307171 0.664815 0.374648 -0.08735
C_ C_ 0.407106 0.679212 0.443696 -0.08735
C_ C_ 0.458263 0.673617 0.439807 -0.08735
C_ C_ 0.479788 0.667008 0.41198 -0.05681
C_ C_ 0.445296 0.658689 0.388893 -0.08735
C_ C_ 0.126916 0.780724 0.409084 0.68181
C_ C_ 0.140436 0.583977 0.397063 0.68181
C_ C_ 0.137165 0.528263 0.394941 -0.05681
C_ C_ 0.148248 0.996969 0.417356 -0.08735
C_ C_ 0.149177 0.945102 0.414052 -0.05681
C_ C_ 0.132229 0.920799 0.388305 -0.05681
C_ C_ 0.119147 0.951551 0.365402 -0.08735
C_ C_ 0.124281 1.00471116 0.366785 -0.08735
C_ C_ 0.150473 0.9142 0.438601 -0.08735
C_ C_ 0.149629 0.859923 0.436067 -0.08735
C_ C_ 0.133533 0.836442 0.411229 -0.05681
C_ C_ 0.120273 0.867836 0.388414 -0.08735
C_ C_ 0.035898 0.681698 0.399485 0.68181
C_ C_ 0.0924821 0.632228 0.476068 0.1947
C_ C_ 0.0848895 0.613949 0.00854402 -0.08735
C_ C_ 0.101343 0.639686 0.032029 -0.08735
C_ C_ 0.129961 0.683351 0.0276539 -0.05681
C_ C_ 0.142956 0.696113 0.999342 0.18498
C_ C_ 0.167579 0.745359 0.493644 -0.08735
C_ C_ 0.190482 0.7667 0.0157978 -0.08735
C_ C_ 0.18208 0.753856 0.0443083 -0.08735
C_ C_ 0.150393 0.713048 0.0503939 0.18498
C_ C_ 0.178209 0.678146 0.0956473 0.44287
C_ C_ 0.095824 0.71081 0.0938208 0.44287
C_ C_ 0.0899693 0.703928 0.122927 -0.05681
C_ C_ 0.0422203 0.708717 0.136134 -0.08735
C_ C_ 0.0373264 0.706221 0.166223 -0.08735
C_ C_ 0.0803939 0.694337 0.18302 -0.05681
C_ C_ 0.126732 0.683597 0.170106 -0.05681
C_ C_ 0.130064 0.686537 0.13991 -0.05681
C_ C_ 0.174844 0.674927 0.125979 -0.05681
C_ C_ 0.218395 0.663838 0.142505 -0.08735
C_ C_ 0.214232 0.658979 0.171864 -0.08735
C_ C_ 0.168029 0.667662 0.18632 -0.05681
C_ C_ 0.160692 0.654491 0.215177 0.44287
C_ C_ 0.0771701 0.687663 0.213882 0.44287
C_ C_ 0.109352 0.655132 0.258241 0.18498
C_ C_ 0.0874563 0.608423 0.263586 -0.08735
C_ C_ 0.0760229 0.594349 0.292682 -0.08735
C_ C_ 0.090588 0.626779 0.316027 -0.08735
C_ C_ 0.119746 0.669991 0.310577 0.18498
C_ C_ 0.126803 0.686332 0.281455 -0.05681
C_ C_ 0.152378 0.732666 0.277358 -0.08735
C_ C_ 0.174137 0.758782 0.300481 -0.08735
C_ C_ 0.167722 0.739955 0.327202 0.1947
C_ C_ 0.270094 0.825158 0.153134 0.68181
C_ C_ 0.211778 0.824659 0.149929 -0.05681
C_ C_ 0.180083 0.826198 0.174238 -0.08735
C_ C_ 0.126103 0.830077 0.171307 -0.05681
C_ C_ 0.104691 0.834502 0.143938 -0.05681
C_ C_ 0.136145 0.832938 0.119503 -0.08735
C_ C_ 0.18898 0.82691 0.122798 -0.08735
C_ C_ 0.0929163 0.830766 0.195182 -0.08735
C_ C_ 0.040277 0.825112 0.190174 -0.08735
C_ C_ 0.020736 0.822592 0.162905 -0.05681
C_ C_ 0.0531251 0.830069 0.139467 -0.08735
C_ C_ 0.368243 0.722798 0.16221 0.68181
C_ C_ 0.368031 0.918887 0.143422 0.68181
C_ C_ 0.377967 0.975605 0.141658 -0.05681
C_ C_ 0.375827 0.508597 0.172498 -0.08735
C_ C_ 0.378991 0.562628 0.169065 -0.05681
C_ C_ 0.364888 0.583689 0.142141 -0.05681
C_ C_ 0.343835 0.554036 0.120486 -0.08735
C_ C_ 0.376727 0.00105277 0.114863 -0.08735
C_ C_ 0.39722 0.592524 0.192171 -0.08735
C_ C_ 0.386531 0.643886 0.190779 -0.08735
C_ C_ 0.375928 0.66728 0.164317 -0.05681
C_ C_ 0.367893 0.637073 0.139923 -0.08735
C_ C_ 0.469885 0.820812 0.154989 0.68181
C_ C_ 0.397225 0.872318 0.230784 0.1947
C_ C_ 0.401573 0.891626 0.258175 -0.08735
C_ C_ 0.381967 0.86406 0.280344 -0.08735
C_ C_ 0.358845 0.816822 0.275416 -0.05681
C_ C_ 0.347241 0.803271 0.24644 0.18498
C_ C_ 0.310676 0.765836 0.240637 -0.08735
C_ C_ 0.29491 0.732883 0.261748 -0.08735
C_ C_ 0.308709 0.741197 0.290248 -0.08735
C_ C_ 0.336208 0.786067 0.297403 0.18498
C_ C_ 0.302916 0.804557 0.345703 0.44287
C_ C_ 0.390826 0.788044 0.340565 0.44287
C_ C_ 0.397836 0.786801 0.370743 -0.05681
C_ C_ 0.445271 0.781123 0.383578 -0.08735
C_ C_ 0.45131 0.789377 0.412154 -0.08735
C_ C_ 0.410358 0.800833 0.43083 -0.05681
C_ C_ 0.363321 0.806596 0.418506 -0.05681
C_ C_ 0.356105 0.796623 0.389465 -0.05681
C_ C_ 0.308669 0.808689 0.376128 -0.05681
C_ C_ 0.267808 0.824182 0.394396 -0.08735
C_ C_ 0.272966 0.83089 0.423849 -0.08735
C_ C_ 0.321833 0.821635 0.436335 -0.05681
C_ C_ 0.331434 0.83207 0.465761 0.44287
C_ C_ 0.417237 0.802826 0.461363 0.44287
C_ C_ 0.391928 0.833693 0.00837904 0.18498
C_ C_ 0.431298 0.871915 0.0154725 -0.08735
C_ C_ 0.440114 0.889673 0.0425083 -0.08735
C_ C_ 0.418651 0.863767 0.065381 -0.08735
C_ C_ 0.383297 0.825155 0.0611495 0.18498
C_ C_ 0.373625 0.80544 0.0322783 -0.05681
C_ C_ 0.34925 0.757465 0.0294135 -0.08735
C_ C_ 0.324227 0.736387 0.0525956 -0.08735
C_ C_ 0.324298 0.762752 0.0790245 0.1947
N_ N_ 0.125631 0.67139 0.472787 -0.29468
N_ N_ 0.141423 0.700702 0.0798273 -0.17154
N_ N_ 0.116452 0.668718 0.228261 -0.17154
N_ N_ 0.139291 0.698168 0.332393 -0.29468
N_ N_ 0.371699 0.828601 0.224721 -0.29468
N_ N_ 0.343383 0.79638 0.328259 -0.17154
N_ N_ 0.377286 0.821388 0.478435 -0.17154
N_ N_ 0.358839 0.801304 0.0836587 -0.29468
O_ O_ 0.2107 0.681411 0.427549 -0.58347
O_ O_ 0.205985 0.690536 0.38164 -0.58347
O_ O_ 0.13272 0.755798 0.431136 -0.58347
O_ O_ 0.120836 0.758036 0.384806 -0.58347
O_ O_ 0.142659 0.606723 0.420273 -0.58347
O_ O_ 0.141362 0.60886 0.373508 -0.58347
O_ O_ 0.064309 0.683072 0.421178 -0.58347
O_ O_ 0.0541307 0.680576 0.374272 -0.58347
O_ O_ 0.05627 0.728739 0.078902 -0.46727
O_ O_ 0.221355 0.662688 0.0827686 -0.46727
O_ O_ 0.0356869 0.699771 0.227901 -0.46727
O_ O_ 0.197281 0.631034 0.230677 -0.46727
O_ O_ 0.29113 0.823316 0.177311 -0.58347
O_ O_ 0.297309 0.822785 0.130402 -0.58347
O_ O_ 0.36266 0.74876 0.183589 -0.58347
O_ O_ 0.365966 0.741493 0.13731 -0.58347
O_ O_ 0.370028 0.897459 0.167227 -0.58347
O_ O_ 0.368357 0.89106 0.121297 -0.58347
O_ O_ 0.443029 0.81447 0.177276 -0.58347
O_ O_ 0.448899 0.812275 0.1304 -0.58347
O_ O_ 0.42993 0.778002 0.323195 -0.46727
O_ O_ 0.256825 0.811997 0.334687 -0.46727
O_ O_ 0.462279 0.797005 0.472093 -0.46727
O_ O_ 0.297544 0.850898 0.482254 -0.46727
Zn Zn 0.128002 0.687448 0.881609 0.90689
Zn Zn 0.131822 0.679916 0.928269 0.90689
Zn Zn 0.361058 0.81045 0.630928 0.90689
Zn Zn 0.350784 0.815691 0.679606 0.90689
H_ H_ 0.306283 0.688247 0.944357 0.11455
H_ H_ 0.368802 0.66348 0.845998 0.11455
H_ H_ 0.275697 0.65757 0.857531 0.11455
H_ H_ 0.389106 0.68578 0.963095 0.11455
H_ H_ 0.479567 0.675272 0.956202 0.11455
H_ H_ 0.459628 0.656981 0.867401 0.11455
H_ H_ 0.0827651 0.518057 0.930132 0.11455
H_ H_ 0.125865 0.93678 0.845003 0.11455
H_ H_ 0.173023 0.531759 0.853744 0.11455
H_ H_ 0.128745 0.931277 0.963678 0.11455
H_ H_ 0.125381 0.842524 0.958061 0.11455
H_ H_ 0.126997 0.854553 0.866524 0.11455
H_ H_ 0.0656728 0.617541 0.964327 0.11455
H_ H_ 0.0484839 0.588549 0.505444 0.11455
H_ H_ 0.0762501 0.634748 0.549236 0.11455
H_ H_ 0.182422 0.75021 0.972837 0.11455
H_ H_ 0.210491 0.803537 0.514791 0.11455
H_ H_ 0.179738 0.784569 0.563006 0.11455
H_ H_ 1.00167 0.702748 0.620601 0.11455
H_ H_ 0.985726 0.688193 0.671965 0.11455
H_ H_ 0.247373 0.657825 0.636645 0.11455
H_ H_ 0.240072 0.679099 0.68482 0.11455
H_ H_ 0.0730509 0.58875 0.746753 0.11455
H_ H_ 0.0618167 0.560654 0.795877 0.11455
H_ H_ 0.0762837 0.618726 0.835912 0.11455
H_ H_ 0.141028 0.763395 0.758694 0.11455
H_ H_ 0.183791 0.803032 0.800855 0.11455
H_ H_ 0.183721 0.758726 0.8474 0.11455
H_ H_ 0.178673 0.801735 0.695705 0.11455
H_ H_ 0.110214 0.821818 0.597767 0.11455
H_ H_ 0.199674 0.825242 0.605783 0.11455
H_ H_ 0.0968391 0.821051 0.716776 0.11455
H_ H_ 0.00286954 0.818739 0.710606 0.11455
H_ H_ 0.022663 0.817792 0.620726 0.11455
H_ H_ 0.371577 0.979689 0.693955 0.11455
H_ H_ 0.320122 0.555467 0.602795 0.11455
H_ H_ 0.335794 0.970847 0.606097 0.11455
H_ H_ 0.414355 0.568995 0.707861 0.11455
H_ H_ 0.393293 0.66181 0.706857 0.11455
H_ H_ 0.334631 0.639853 0.623114 0.11455
H_ H_ 0.393259 0.896481 0.714285 0.11455
H_ H_ 0.416323 0.921598 0.763062 0.11455
H_ H_ 0.381806 0.871482 0.804802 0.11455
H_ H_ 0.303581 0.744915 0.722421 0.11455
H_ H_ 0.275299 0.687867 0.762662 0.11455
H_ H_ 0.293729 0.714709 0.813584 0.11455
H_ H_ 0.483608 0.78152 0.870591 0.11455
H_ H_ 0.494748 0.792152 0.923695 0.11455
H_ H_ 0.23177 0.824204 0.889091 0.11455
H_ H_ 0.247448 0.834409 0.941873 0.11455
H_ H_ 0.449616 0.890885 0.99775152 0.11455
H_ H_ 0.455344 0.919034 0.546545 0.11455
H_ H_ 0.403756 0.887994 0.585063 0.11455
H_ H_ 0.347496 0.737337 0.507408 0.11455
H_ H_ 0.305918 0.69614 0.549216 0.11455
H_ H_ 0.29845 0.741227 0.595429 0.11455
C_ C_ 0.227774 0.681362 0.90542 0.68181
C_ C_ 0.284342 0.671546 0.901694 -0.05681
C_ C_ 0.318565 0.675907 0.9241 -0.08735
C_ C_ 0.369945 0.681284 0.918827 -0.05681
C_ C_ 0.389864 0.673323 0.891196 -0.05681
C_ C_ 0.355513 0.669401 0.868373 -0.08735
C_ C_ 0.302987 0.667267 0.873504 -0.08735
C_ C_ 0.404306 0.679499 0.942429 -0.08735
C_ C_ 0.455513 0.673022 0.938194 -0.08735
C_ C_ 0.475668 0.672707 0.91001 -0.05681
C_ C_ 0.44326 0.668445 0.8871 -0.08735
C_ C_ 0.124849 0.784134 0.908582 0.68181
C_ C_ 0.132261 0.584671 0.899297 0.68181
C_ C_ 0.133269 0.529763 0.894379 -0.05681
C_ C_ 0.123168 1.00078 0.919936 -0.08735
C_ C_ 0.13085 0.946874 0.917901 -0.05681
C_ C_ 0.131243 0.924832 0.890057 -0.05681
C_ C_ 0.131632 0.955404 0.865976 -0.08735
C_ C_ 0.136162 0.00883709 0.869186 -0.08735
C_ C_ 0.132235 0.916105 0.942121 -0.08735
C_ C_ 0.130991 0.862903 0.93787 -0.08735
C_ C_ 0.130607 0.840042 0.910622 -0.05681
C_ C_ 0.12679 0.871972 0.886454 -0.08735
C_ C_ 0.0324927 0.686835 0.904915 0.68181
C_ C_ 0.0894853 0.632945 0.981698 0.1947
C_ C_ 0.0753266 0.61765 0.503484 -0.08735
C_ C_ 0.091954 0.644837 0.527533 -0.08735
C_ C_ 0.126768 0.686251 0.524867 -0.05681
C_ C_ 0.140719 0.700554 0.496456 0.18498
C_ C_ 0.174028 0.735496 0.993476 -0.08735
C_ C_ 0.180409 0.774823 0.517323 -0.08735
C_ C_ 0.166271 0.759782 0.545236 -0.08735
C_ C_ 0.143354 0.713844 0.549245 0.18498
C_ C_ 0.174617 0.678539 0.594417 0.44287
C_ C_ 0.0906577 0.708566 0.592786 0.44287
C_ C_ 0.0827968 0.695499 0.621235 -0.05681
C_ C_ 0.0337087 0.695201 0.633634 -0.08735
C_ C_ 0.0249265 0.691448 0.663117 -0.08735
C_ C_ 0.0682003 0.686027 0.681424 -0.05681
C_ C_ 0.117662 0.686197 0.668204 -0.05681
C_ C_ 0.124462 0.686286 0.638562 -0.05681
C_ C_ 0.170384 0.678779 0.625308 -0.05681
C_ C_ 0.212886 0.671326 0.643214 -0.08735
C_ C_ 0.208173 0.67417 0.673316 -0.08735
C_ C_ 0.159703 0.677785 0.686241 -0.05681
C_ C_ 0.153625 0.678109 0.716866 0.44287
C_ C_ 0.0653069 0.689967 0.712086 0.44287
C_ C_ 0.096638 0.66495 0.758823 0.18498
C_ C_ 0.0798844 0.615501 0.763774 -0.08735
C_ C_ 0.0705449 0.599647 0.79095 -0.08735
C_ C_ 0.0845731 0.630219 0.813935 -0.08735
C_ C_ 0.1064 0.677604 0.810137 0.18498
C_ C_ 0.114275 0.695655 0.78178 -0.05681
C_ C_ 0.135669 0.74696 0.779071 -0.08735
C_ C_ 0.162459 0.768494 0.802271 -0.08735
C_ C_ 0.158774 0.74607 0.829424 0.1947
C_ C_ 0.253874 0.804207 0.654271 0.68181
C_ C_ 0.196652 0.810522 0.652152 -0.05681
C_ C_ 0.164252 0.810524 0.676146 -0.08735
C_ C_ 0.111566 0.817549 0.671277 -0.05681
C_ C_ 0.0903837 0.81627 0.643027 -0.05681
C_ C_ 0.123514 0.816962 0.619428 -0.08735
C_ C_ 0.175113 0.815157 0.624301 -0.08735
C_ C_ 0.0807421 0.819124 0.695303 -0.08735
C_ C_ 0.0283367 0.819573 0.691925 -0.08735
C_ C_ 0.00658069 0.82526 0.664636 -0.05681
C_ C_ 0.0382989 0.823555 0.64038 -0.08735
C_ C_ 0.365933 0.716518 0.661358 0.68181
C_ C_ 0.349655 0.913058 0.65332 0.68181
C_ C_ 0.350412 0.969876 0.651137 -0.05681
C_ C_ 0.391669 0.499947 0.668399 -0.08735
C_ C_ 0.382576 0.553668 0.66676 -0.05681
C_ C_ 0.360941 0.573259 0.641787 -0.05681
C_ C_ 0.338871 0.541503 0.621805 -0.08735
C_ C_ 0.343716 0.993015 0.624765 -0.08735
C_ C_ 0.395465 0.584833 0.690336 -0.08735
C_ C_ 0.385808 0.636927 0.689173 -0.08735
C_ C_ 0.373528 0.659727 0.662251 -0.05681
C_ C_ 0.361126 0.626881 0.638632 -0.08735
C_ C_ 0.456041 0.819651 0.657684 0.68181
C_ C_ 0.380666 0.874863 0.732227 0.1947
C_ C_ 0.388868 0.890751 0.759858 -0.08735
C_ C_ 0.371015 0.859887 0.783116 -0.08735
C_ C_ 0.345472 0.814744 0.778518 -0.05681
C_ C_ 0.334364 0.800479 0.750025 0.18498
C_ C_ 0.310006 0.755036 0.745078 -0.08735
C_ C_ 0.297018 0.722078 0.767507 -0.08735
C_ C_ 0.305315 0.736769 0.796032 -0.08735
C_ C_ 0.332157 0.782014 0.801937 0.18498
C_ C_ 0.304095 0.806459 0.849963 0.44287
C_ C_ 0.391021 0.78976 0.842577 0.44287
C_ C_ 0.402349 0.79394 0.872643 -0.05681
C_ C_ 0.450993 0.791089 0.883868 -0.08735
C_ C_ 0.458853 0.796002 0.913605 -0.08735
C_ C_ 0.4177 0.806375 0.93091 -0.05681
C_ C_ 0.367677 0.808142 0.920364 -0.05681
C_ C_ 0.360032 0.800974 0.890559 -0.05681
C_ C_ 0.311523 0.810714 0.880021 -0.05681
C_ C_ 0.269742 0.819135 0.897591 -0.08735
C_ C_ 0.277956 0.828091 0.926441 -0.08735
C_ C_ 0.326026 0.820977 0.938471 -0.05681
C_ C_ 0.334674 0.824426 0.968015 0.44287
C_ C_ 0.422816 0.811054 0.960501 0.44287
C_ C_ 0.387366 0.83394 0.508233 0.18498
C_ C_ 0.413777 0.878764 0.514023 -0.08735
C_ C_ 0.421787 0.896032 0.541965 -0.08735
C_ C_ 0.398163 0.87193 0.564384 -0.08735
C_ C_ 0.370187 0.825349 0.560739 0.18498
C_ C_ 0.366904 0.804832 0.532137 -0.05681
C_ C_ 0.348636 0.75563 0.528927 -0.08735
C_ C_ 0.328048 0.730518 0.551988 -0.08735
C_ C_ 0.327022 0.754481 0.579406 0.1947
N_ N_ 0.1188 0.672912 0.977337 -0.29468
N_ N_ 0.135285 0.696681 0.578364 -0.17154
N_ N_ 0.105895 0.678862 0.729797 -0.17154
N_ N_ 0.127517 0.703163 0.832994 -0.29468
N_ N_ 0.350773 0.831822 0.72787 -0.29468
N_ N_ 0.342071 0.795683 0.831705 -0.17154
N_ N_ 0.381487 0.817928 0.979134 -0.17154
N_ N_ 0.353408 0.798414 0.583662 -0.29468
O_ O_ 0.205654 0.669441 0.928367 -0.58347
O_ O_ 0.201896 0.694986 0.883931 -0.58347
O_ O_ 0.139863 0.75774 0.92911 -0.58347
O_ O_ 0.113115 0.761219 0.885314 -0.58347
O_ O_ 0.122557 0.603234 0.92371 -0.58347
O_ O_ 0.141201 0.613545 0.878573 -0.58347
O_ O_ 0.059302 0.691483 0.926453 -0.58347
O_ O_ 0.0522451 0.681843 0.879864 -0.58347
O_ O_ 0.0513166 0.725038 0.577727 -0.46727
O_ O_ 0.216721 0.666461 0.581725 -0.46727
O_ O_ 0.019549 0.694988 0.723514 -0.46727
O_ O_ 0.193146 0.675107 0.733168 -0.46727
O_ O_ 0.274869 0.801206 0.679104 -0.58347
O_ O_ 0.282311 0.810196 0.632372 -0.58347
O_ O_ 0.363906 0.74215 0.684496 -0.58347
O_ O_ 0.35832 0.73651 0.637436 -0.58347
O_ O_ 0.337544 0.890733 0.676101 -0.58347
O_ O_ 0.365426 0.887571 0.632275 -0.58347
O_ O_ 0.426235 0.825267 0.678531 -0.58347
O_ O_ 0.439576 0.80681 0.63292 -0.58347
O_ O_ 0.429413 0.784064 0.824877 -0.46727
O_ O_ 0.258004 0.812767 0.840238 -0.46727
O_ O_ 0.466408 0.801913 0.971576 -0.46727
O_ O_ 0.297414 0.832621 0.984917 -0.46727
Zn Zn 0.630037 0.178823 0.382814 0.90689
Zn Zn 0.63902 0.17513 0.431755 0.90689
Zn Zn 0.876447 0.32446 0.130832 0.90689
Zn Zn 0.867552 0.326319 0.178595 0.90689
H_ H_ 0.808564 0.178123 0.449144 0.11455
H_ H_ 0.871911 0.190593 0.347717 0.11455
H_ H_ 0.784136 0.183295 0.356678 0.11455
H_ H_ 0.901492 0.17494 0.463802 0.11455
H_ H_ 0.989414 0.170081 0.453285 0.11455
H_ H_ 0.9568 0.185907 0.363257 0.11455
H_ H_ 0.651184 0.00438261 0.445666 0.11455
H_ H_ 0.684725 0.428819 0.355851 0.11455
H_ H_ 0.60559 0.0237083 0.357703 0.11455
H_ H_ 0.592594 0.427405 0.463253 0.11455
H_ H_ 0.593478 0.333031 0.460098 0.11455
H_ H_ 0.661332 0.344139 0.376018 0.11455
H_ H_ 0.604297 0.091537 0.471888 0.11455
H_ H_ 0.596921 0.0570336 0.0243262 0.11455
H_ H_ 0.635562 0.117814 0.0621394 0.11455
H_ H_ 0.683575 0.247702 0.477851 0.11455
H_ H_ 0.727924 0.298144 0.00915112 0.11455
H_ H_ 0.719844 0.274397 0.0602232 0.11455
H_ H_ 0.536458 0.211097 0.123671 0.11455
H_ H_ 0.524555 0.214863 0.175565 0.11455
H_ H_ 0.785333 0.172746 0.141374 0.11455
H_ H_ 0.768333 0.152787 0.192719 0.11455
H_ H_ 0.578164 0.0808768 0.251693 0.11455
H_ H_ 0.543327 0.0721514 0.299825 0.11455
H_ H_ 0.569806 0.125439 0.339169 0.11455
H_ H_ 0.675995 0.239587 0.259579 0.11455
H_ H_ 0.708641 0.284456 0.30014 0.11455
H_ H_ 0.686017 0.264787 0.3476 0.11455
H_ H_ 0.697353 0.318717 0.197883 0.11455
H_ H_ 0.631922 0.323847 0.0972484 0.11455
H_ H_ 0.722985 0.322957 0.106444 0.11455
H_ H_ 0.607551 0.308943 0.215004 0.11455
H_ H_ 0.525335 0.317904 0.205347 0.11455
H_ H_ 0.544983 0.327037 0.115366 0.11455
H_ H_ 0.853148 0.49372 0.195685 0.11455
H_ H_ 0.909535 0.0705898 0.0976957 0.11455
H_ H_ 0.86789 0.480532 0.105215 0.11455
H_ H_ 0.872019 0.0778098 0.212836 0.11455
H_ H_ 0.87393 0.169341 0.209033 0.11455
H_ H_ 0.89604 0.156478 0.119344 0.11455
H_ H_ 0.931232 0.399412 0.212994 0.11455
H_ H_ 0.96098 0.419373 0.260864 0.11455
H_ H_ 0.922139 0.374863 0.302012 0.11455
H_ H_ 0.818245 0.271406 0.221778 0.11455
H_ H_ 0.803028 0.204249 0.2614 0.11455
H_ H_ 0.830639 0.224258 0.307392 0.11455
H_ H_ 1.00153 0.292975 0.377126 0.11455
H_ H_ 0.00796448 0.318754 0.424509 0.11455
H_ H_ 0.750133 0.342161 0.385413 0.11455
H_ H_ 0.76189 0.358665 0.43605 0.11455
H_ H_ 0.925906 0.425016 0.5031 0.11455
H_ H_ 0.968426 0.426666 0.0480365 0.11455
H_ H_ 0.921599 0.389475 0.0865469 0.11455
H_ H_ 0.845539 0.25292 0.00715636 0.11455
H_ H_ 0.806581 0.21196 0.0474838 0.11455
H_ H_ 0.824337 0.239814 0.0972146 0.11455
C_ C_ 0.732628 0.185845 0.408415 0.68181
C_ C_ 0.787973 0.185223 0.404078 -0.05681
C_ C_ 0.821689 0.176285 0.427041 -0.08735
C_ C_ 0.87469 0.175167 0.42011 -0.05681
C_ C_ 0.892501 0.176477 0.391962 -0.05681
C_ C_ 0.857744 0.183604 0.369943 -0.08735
C_ C_ 0.808195 0.187957 0.375029 -0.08735
C_ C_ 0.910524 0.17805 0.442271 -0.08735
C_ C_ 0.962098 0.176522 0.435053 -0.08735
C_ C_ 0.980648 0.173277 0.407559 -0.05681
C_ C_ 0.945394 0.1783 0.385025 -0.08735
C_ C_ 0.626613 0.274982 0.412756 0.68181
C_ C_ 0.630513 0.0800374 0.403645 0.68181
C_ C_ 0.629857 0.023139 0.403071 -0.05681
C_ C_ 0.617948 0.491867 0.420917 -0.08735
C_ C_ 0.620111 0.438406 0.419821 -0.05681
C_ C_ 0.645899 0.415014 0.396407 -0.05681
C_ C_ 0.658855 0.442319 0.372723 -0.08735
C_ C_ 0.653074 0.494151 0.37336 -0.08735
C_ C_ 0.607354 0.409623 0.44342 -0.08735
C_ C_ 0.607127 0.355375 0.44193 -0.08735
C_ C_ 0.628631 0.32995 0.417239 -0.05681
C_ C_ 0.648828 0.361817 0.395719 -0.08735
C_ C_ 0.53396 0.168239 0.406563 0.68181
C_ C_ 0.615488 0.116628 0.488609 0.1947
C_ C_ 0.614241 0.0945709 0.0190144 -0.08735
C_ C_ 0.631196 0.128428 0.0398072 -0.08735
C_ C_ 0.658702 0.17156 0.0321349 -0.05681
C_ C_ 0.660892 0.187007 1.00263776 0.18498
C_ C_ 0.674397 0.239727 0.499384 -0.08735
C_ C_ 0.706097 0.2639 0.0163006 -0.08735
C_ C_ 0.702912 0.250279 0.0446705 -0.08735
C_ C_ 0.679155 0.204164 0.0537896 0.18498
C_ C_ 0.709903 0.185057 0.100793 0.44287
C_ C_ 0.624905 0.202968 0.0954008 0.44287
C_ C_ 0.61399 0.188684 0.124438 -0.05681
C_ C_ 0.56626 0.194457 0.136056 -0.08735
C_ C_ 0.559625 0.196507 0.165947 -0.08735
C_ C_ 0.598837 0.180574 0.183962 -0.05681
C_ C_ 0.646385 0.1686 0.172409 -0.05681
C_ C_ 0.65293 0.17419 0.14307 -0.05681
C_ C_ 0.703736 0.175348 0.131005 -0.05681
C_ C_ 0.746322 0.173751 0.149693 -0.08735
C_ C_ 0.736948 0.164994 0.179315 -0.08735
C_ C_ 0.68767 0.158744 0.190387 -0.05681
C_ C_ 0.67732 0.151797 0.220521 0.44287
C_ C_ 0.593993 0.183586 0.215094 0.44287
C_ C_ 0.618619 0.154136 0.262211 0.18498
C_ C_ 0.585333 0.112563 0.267725 -0.08735
C_ C_ 0.562989 0.106298 0.294934 -0.08735
C_ C_ 0.579893 0.136587 0.317989 -0.08735
C_ C_ 0.616556 0.173367 0.313692 0.18498
C_ C_ 0.633032 0.185554 0.285252 -0.05681
C_ C_ 0.66715 0.224254 0.280797 -0.08735
C_ C_ 0.682184 0.252996 0.304117 -0.08735
C_ C_ 0.669709 0.238646 0.331369 0.1947
C_ C_ 0.774086 0.318837 0.156673 0.68181
C_ C_ 0.717706 0.320941 0.15275 -0.05681
C_ C_ 0.684028 0.317939 0.175627 -0.08735
C_ C_ 0.629672 0.315922 0.169851 -0.05681
C_ C_ 0.612079 0.322198 0.142111 -0.05681
C_ C_ 0.645415 0.318932 0.119199 -0.08735
C_ C_ 0.69796 0.321368 0.124406 -0.08735
C_ C_ 0.595459 0.32011 0.192533 -0.08735
C_ C_ 0.546248 0.32899 0.188289 -0.08735
C_ C_ 0.526004 0.326183 0.160205 -0.05681
C_ C_ 0.559996 0.327088 0.137389 -0.08735
C_ C_ 0.886624 0.227396 0.16191 0.68181
C_ C_ 0.867009 0.425686 0.151206 0.68181
C_ C_ 0.864699 0.48008 0.149651 -0.05681
C_ C_ 0.883679 0.0122398 0.172575 -0.08735
C_ C_ 0.887562 0.0640043 0.170133 -0.05681
C_ C_ 0.897473 0.0851226 0.142856 -0.05681
C_ C_ 0.904917 0.0544088 0.118954 -0.08735
C_ C_ 0.869339 0.504144 0.123661 -0.08735
C_ C_ 0.878329 0.0949119 0.192931 -0.08735
C_ C_ 0.88333 0.146338 0.190504 -0.08735
C_ C_ 0.888831 0.170115 0.163488 -0.05681
C_ C_ 0.892518 0.137921 0.13962 -0.08735
C_ C_ 0.971357 0.331074 0.154733 0.68181
C_ C_ 0.913028 0.382004 0.230537 0.1947
C_ C_ 0.930318 0.394502 0.258254 -0.08735
C_ C_ 0.906398 0.371843 0.282006 -0.08735
C_ C_ 0.871949 0.331198 0.277315 -0.05681
C_ C_ 0.857081 0.320769 0.248726 0.18498
C_ C_ 0.823492 0.281689 0.243873 -0.08735
C_ C_ 0.815153 0.245016 0.26619 -0.08735
C_ C_ 0.831194 0.256477 0.293832 -0.08735
C_ C_ 0.858727 0.297711 0.300151 0.18498
C_ C_ 0.825821 0.31894 0.348221 0.44287
C_ C_ 0.915266 0.303829 0.342921 0.44287
C_ C_ 0.921152 0.30692 0.373255 -0.05681
C_ C_ 0.968725 0.301802 0.388022 -0.08735
C_ C_ 0.971885 0.312464 0.417449 -0.08735
C_ C_ 0.931853 0.323848 0.434773 -0.05681
C_ C_ 0.882519 0.319989 0.421328 -0.05681
C_ C_ 0.87731 0.318272 0.390994 -0.05681
C_ C_ 0.830411 0.327504 0.377602 -0.05681
C_ C_ 0.788952 0.33987 0.395002 -0.08735
C_ C_ 0.793424 0.344756 0.424158 -0.08735
C_ C_ 0.841063 0.336447 0.437651 -0.05681
C_ C_ 0.847305 0.343244 0.467146 0.44287
C_ C_ 0.935651 0.331164 0.463675 0.44287
C_ C_ 0.902107 0.340053 0.00826113 0.18498
C_ C_ 0.932242 0.382873 0.013454 -0.08735
C_ C_ 0.940835 0.398839 0.0423759 -0.08735
C_ C_ 0.914425 0.37629 0.0650611 -0.08735
C_ C_ 0.885649 0.33275 0.0613869 0.18498
C_ C_ 0.878225 0.315015 0.0318697 -0.05681
C_ C_ 0.853095 0.267814 0.0280349 -0.08735
C_ C_ 0.834632 0.241932 0.0504332 -0.08735
C_ C_ 0.840561 0.263207 0.0787796 0.1947
N_ N_ 0.632776 0.164172 0.482087 -0.29468
N_ N_ 0.669996 0.193822 0.0840132 -0.17154
N_ N_ 0.631127 0.166716 0.232546 -0.17154
N_ N_ 0.637806 0.19683 0.336794 -0.29468
N_ N_ 0.877692 0.344858 0.226531 -0.29468
N_ N_ 0.867069 0.309131 0.330538 -0.17154
N_ N_ 0.894084 0.341011 0.479542 -0.17154
N_ N_ 0.862221 0.30865 0.0838341 -0.29468
O_ O_ 0.714467 0.181977 0.432895 -0.58347
O_ O_ 0.704074 0.182593 0.386266 -0.58347
O_ O_ 0.62349 0.24752 0.435507 -0.58347
O_ O_ 0.635502 0.254683 0.389563 -0.58347
O_ O_ 0.639823 0.102378 0.426573 -0.58347
O_ O_ 0.628444 0.104423 0.379601 -0.58347
O_ O_ 0.563225 0.165083 0.427941 -0.58347
O_ O_ 0.552165 0.177629 0.381625 -0.58347
O_ O_ 0.58843 0.222551 0.0794515 -0.46727
O_ O_ 0.754387 0.176386 0.0891879 -0.46727
O_ O_ 0.5507 0.199578 0.226986 -0.46727
O_ O_ 0.715869 0.140547 0.236684 -0.46727
O_ O_ 0.794178 0.325804 0.181695 -0.58347
O_ O_ 0.80157 0.310807 0.135061 -0.58347
O_ O_ 0.879824 0.254676 0.184661 -0.58347
O_ O_ 0.883979 0.247646 0.137897 -0.58347
O_ O_ 0.859953 0.403864 0.175109 -0.58347
O_ O_ 0.867751 0.40004 0.128845 -0.58347
O_ O_ 0.941862 0.338813 0.175056 -0.58347
O_ O_ 0.953334 0.328851 0.129825 -0.58347
O_ O_ 0.954644 0.295775 0.326751 -0.46727
O_ O_ 0.780094 0.317883 0.337049 -0.46727
O_ O_ 0.982011 0.334196 0.474393 -0.46727
O_ O_ 0.807811 0.356079 0.482543 -0.46727
Zn Zn 0.625449 0.173704 0.887128 0.90689
Zn Zn 0.635244 0.167099 0.934417 0.90689
Zn Zn 0.877226 0.317866 0.63329 0.90689
Zn Zn 0.860829 0.322752 0.683077 0.90689
H_ H_ 0.80995 0.205144 0.947476 0.11455
H_ H_ 0.868645 0.17386 0.848222 0.11455
H_ H_ 0.780196 0.166854 0.857591 0.11455
H_ H_ 0.893385 0.200075 0.965009 0.11455
H_ H_ 0.985427 0.184467 0.955349 0.11455
H_ H_ 0.956077 0.164758 0.864088 0.11455
H_ H_ 0.592774 0.0101409 0.935724 0.11455
H_ H_ 0.622303 0.427293 0.847434 0.11455
H_ H_ 0.690948 0.0139505 0.861609 0.11455
H_ H_ 0.633956 0.422493 0.965814 0.11455
H_ H_ 0.629229 0.331382 0.963952 0.11455
H_ H_ 0.615838 0.33968 0.87107 0.11455
H_ H_ 0.597796 0.0876725 0.975126 0.11455
H_ H_ 0.611485 0.0556195 0.521571 0.11455
H_ H_ 0.632008 0.112763 0.56044 0.11455
H_ H_ 0.688755 0.240885 0.973055 0.11455
H_ H_ 0.718674 0.301891 0.514743 0.11455
H_ H_ 0.708073 0.279536 0.564028 0.11455
H_ H_ 0.513711 0.211525 0.622958 0.11455
H_ H_ 0.492322 0.197015 0.673682 0.11455
H_ H_ 0.757565 0.161331 0.64776 0.11455
H_ H_ 0.734091 0.135736 0.69727 0.11455
H_ H_ 0.552999 0.0884306 0.754406 0.11455
H_ H_ 0.537349 0.0613913 0.803849 0.11455
H_ H_ 0.582355 0.10864 0.842634 0.11455
H_ H_ 0.644828 0.247232 0.759375 0.11455
H_ H_ 0.677678 0.292533 0.801869 0.11455
H_ H_ 0.679377 0.253438 0.851081 0.11455
H_ H_ 0.694488 0.305411 0.695952 0.11455
H_ H_ 0.627646 0.315954 0.598167 0.11455
H_ H_ 0.720402 0.320957 0.605748 0.11455
H_ H_ 0.610645 0.308336 0.715791 0.11455
H_ H_ 0.517445 0.3016 0.709148 0.11455
H_ H_ 0.540238 0.318484 0.617373 0.11455
H_ H_ 0.861706 0.492538 0.6967 0.11455
H_ H_ 0.899897 0.0614418 0.599113 0.11455
H_ H_ 0.859813 0.47313 0.605653 0.11455
H_ H_ 0.82848 0.0702718 0.708293 0.11455
H_ H_ 0.841216 0.158704 0.708275 0.11455
H_ H_ 0.892432 0.149424 0.619486 0.11455
H_ H_ 0.913351 0.395546 0.716625 0.11455
H_ H_ 0.907027 0.430556 0.766084 0.11455
H_ H_ 0.878667 0.378579 0.806828 0.11455
H_ H_ 0.807807 0.251339 0.724046 0.11455
H_ H_ 0.802014 0.184701 0.762909 0.11455
H_ H_ 0.797584 0.213961 0.812529 0.11455
H_ H_ 0.985344 0.293054 0.870452 0.11455
H_ H_ -0.0024560000000000137 0.299095 0.919546 0.11455
H_ H_ 0.743418 0.350054 0.886271 0.11455
H_ H_ 0.754224 0.358206 0.939763 0.11455
H_ H_ 0.954873 0.400496 0.996764 0.11455
H_ H_ 0.954381 0.440419 0.553155 0.11455
H_ H_ 0.933408 0.379255 0.591727 0.11455
H_ H_ 0.847114 0.263915 0.506607 0.11455
H_ H_ 0.804208 0.219325 0.545223 0.11455
H_ H_ 0.817947 0.244389 0.59512 0.11455
C_ C_ 0.730208 0.182128 0.908265 0.68181
C_ C_ 0.786266 0.191029 0.90284 -0.05681
C_ C_ 0.821681 0.20022 0.925942 -0.08735
C_ C_ 0.873968 0.191317 0.920822 -0.05681
C_ C_ 0.891517 0.178552 0.891931 -0.05681
C_ C_ 0.856096 0.178833 0.870317 -0.08735
C_ C_ 0.805485 0.18136 0.875625 -0.08735
C_ C_ 0.908875 0.192289 0.943162 -0.08735
C_ C_ 0.96054 0.184311 0.937957 -0.08735
C_ C_ 0.976829 0.178905 0.908803 -0.05681
C_ C_ 0.942414 0.175729 0.886039 -0.08735
C_ C_ 0.614404 0.271772 0.915497 0.68181
C_ C_ 0.64703 0.0736716 0.904273 0.68181
C_ C_ 0.647664 0.0178961 0.902258 -0.05681
C_ C_ 0.64137 0.484986 0.922512 -0.08735
C_ C_ 0.630391 0.433595 0.921126 -0.05681
C_ C_ 0.624974 0.409403 0.894248 -0.05681
C_ C_ 0.627524 0.441255 0.869418 -0.08735
C_ C_ 0.628365 0.494972 0.8718 -0.08735
C_ C_ 0.632347 0.403667 0.945597 -0.08735
C_ C_ 0.624958 0.351066 0.943992 -0.08735
C_ C_ 0.618651 0.327022 0.917439 -0.05681
C_ C_ 0.618654 0.355694 0.892639 -0.08735
C_ C_ 0.5318 0.165115 0.910433 0.68181
C_ C_ 0.616048 0.111639 0.989831 0.1947
C_ C_ 0.612507 0.0989983 0.517222 -0.08735
C_ C_ 0.625094 0.131478 0.539448 -0.08735
C_ C_ 0.640693 0.181427 0.533685 -0.05681
C_ C_ 0.644112 0.197004 0.50426 0.18498
C_ C_ 0.685784 0.231678 0.994293 -0.08735
C_ C_ 0.699 0.266769 0.520311 -0.08735
C_ C_ 0.689431 0.255568 0.548277 -0.08735
C_ C_ 0.661238 0.212772 0.555867 0.18498
C_ C_ 0.689034 0.190321 0.605501 0.44287
C_ C_ 0.602366 0.203531 0.596382 0.44287
C_ C_ 0.592546 0.197644 0.626571 -0.05681
C_ C_ 0.543057 0.201914 0.63807 -0.08735
C_ C_ 0.530309 0.193539 0.667327 -0.08735
C_ C_ 0.571543 0.180296 0.686595 -0.05681
C_ C_ 0.620301 0.174162 0.675642 -0.05681
C_ C_ 0.629961 0.180659 0.645052 -0.05681
C_ C_ 0.678578 0.174349 0.634665 -0.05681
C_ C_ 0.718743 0.162006 0.654244 -0.08735
C_ C_ 0.708107 0.153241 0.683679 -0.08735
C_ C_ 0.659051 0.164779 0.693786 -0.05681
C_ C_ 0.651704 0.16192 0.723811 0.44287
C_ C_ 0.563712 0.176457 0.716737 0.44287
C_ C_ 0.595734 0.154896 0.764654 0.18498
C_ C_ 0.56391 0.113298 0.771151 -0.08735
C_ C_ 0.561954 0.095759 0.799262 -0.08735
C_ C_ 0.58413 0.12474 0.82164 -0.08735
C_ C_ 0.611107 0.167199 0.816213 0.18498
C_ C_ 0.615937 0.185029 0.787273 -0.05681
C_ C_ 0.63937 0.231319 0.782039 -0.08735
C_ C_ 0.658562 0.257173 0.805467 -0.08735
C_ C_ 0.65747 0.236228 0.832956 0.1947
C_ C_ 0.771493 0.314932 0.655404 0.68181
C_ C_ 0.715527 0.313343 0.650601 -0.05681
C_ C_ 0.681612 0.312864 0.675057 -0.08735
C_ C_ 0.628544 0.313024 0.671037 -0.05681
C_ C_ 0.608418 0.315239 0.642991 -0.05681
C_ C_ 0.64222 0.318396 0.619789 -0.08735
C_ C_ 0.694975 0.317358 0.623775 -0.08735
C_ C_ 0.595003 0.310622 0.694814 -0.08735
C_ C_ 0.542041 0.311602 0.69098 -0.08735
C_ C_ 0.521392 0.316168 0.663464 -0.05681
C_ C_ 0.555551 0.318875 0.63942 -0.08735
C_ C_ 0.871082 0.217915 0.662491 0.68181
C_ C_ 0.86043 0.419982 0.653117 0.68181
C_ C_ 0.86433 0.475565 0.651327 -0.05681
C_ C_ 0.854263 0.00211078 0.669009 -0.08735
C_ C_ 0.864534 0.053897 0.668123 -0.05681
C_ C_ 0.877729 0.0768046 0.641754 -0.05681
C_ C_ 0.886702 0.0451088 0.619046 -0.08735
C_ C_ 0.868415 0.496932 0.624682 -0.08735
C_ C_ 0.850803 0.0853121 0.691048 -0.08735
C_ C_ 0.856739 0.136529 0.690227 -0.08735
C_ C_ 0.872266 0.15999 0.664545 -0.05681
C_ C_ 0.884639 0.130409 0.639794 -0.08735
C_ C_ 0.966048 0.326055 0.657577 0.68181
C_ C_ 0.892339 0.374991 0.734506 0.1947
C_ C_ 0.897568 0.391754 0.762565 -0.08735
C_ C_ 0.879921 0.36338 0.785636 -0.08735
C_ C_ 0.853554 0.31778 0.7808 -0.05681
C_ C_ 0.845731 0.304025 0.751597 0.18498
C_ C_ 0.823185 0.257563 0.744763 -0.08735
C_ C_ 0.814333 0.224119 0.767655 -0.08735
C_ C_ 0.816558 0.237056 0.795564 -0.08735
C_ C_ 0.840755 0.282815 0.803231 0.18498
C_ C_ 0.806063 0.308933 0.85012 0.44287
C_ C_ 0.89263 0.288274 0.844731 0.44287
C_ C_ 0.903335 0.303615 0.872642 -0.05681
C_ C_ 0.952365 0.29523 0.883486 -0.08735
C_ C_ 0.96032 0.303682 0.912019 -0.08735
C_ C_ 0.921448 0.314782 0.930495 -0.05681
C_ C_ 0.874345 0.328657 0.919599 -0.05681
C_ C_ 0.864284 0.319784 0.890381 -0.05681
C_ C_ 0.814787 0.325533 0.879176 -0.05681
C_ C_ 0.776117 0.340475 0.897127 -0.08735
C_ C_ 0.786174 0.349847 0.925926 -0.08735
C_ C_ 0.833954 0.339922 0.938129 -0.05681
C_ C_ 0.843652 0.342398 0.967992 0.44287
C_ C_ 0.926795 0.310992 0.96054 0.44287
C_ C_ 0.900502 0.351499 0.510694 0.18498
C_ C_ 0.923995 0.396251 0.518032 -0.08735
C_ C_ 0.933303 0.408092 0.547619 -0.08735
C_ C_ 0.921317 0.373195 0.569017 -0.08735
C_ C_ 0.890277 0.333108 0.562997 0.18498
C_ C_ 0.882429 0.319474 0.53336 -0.05681
C_ C_ 0.849684 0.278162 0.528358 -0.08735
C_ C_ 0.828913 0.251283 0.550891 -0.08735
C_ C_ 0.834157 0.266461 0.57859 0.1947
N_ N_ 0.637489 0.158236 0.981697 -0.29468
N_ N_ 0.650661 0.202282 0.586404 -0.17154
N_ N_ 0.604769 0.169394 0.73486 -0.17154
N_ N_ 0.63163 0.193364 0.838755 -0.29468
N_ N_ 0.862705 0.333641 0.728916 -0.29468
N_ N_ 0.845978 0.296895 0.832828 -0.17154
N_ N_ 0.888548 0.328598 0.978888 -0.17154
N_ N_ 0.865649 0.306331 0.584972 -0.29468
O_ O_ 0.711711 0.175591 0.933897 -0.58347
O_ O_ 0.699723 0.181127 0.887578 -0.58347
O_ O_ 0.621876 0.243604 0.936968 -0.58347
O_ O_ 0.622108 0.250181 0.8926 -0.58347
O_ O_ 0.652244 0.0946205 0.929212 -0.58347
O_ O_ 0.632692 0.0992734 0.883348 -0.58347
O_ O_ 0.558275 0.158554 0.932912 -0.58347
O_ O_ 0.553087 0.174552 0.886995 -0.58347
O_ O_ 0.565354 0.210678 0.577631 -0.46727
O_ O_ 0.736575 0.192878 0.596581 -0.46727
O_ O_ 0.517003 0.181522 0.727433 -0.46727
O_ O_ 0.689961 0.150995 0.740152 -0.46727
O_ O_ 0.787884 0.315359 0.681002 -0.58347
O_ O_ 0.804022 0.320625 0.635535 -0.58347
O_ O_ 0.873392 0.243394 0.68497 -0.58347
O_ O_ 0.867644 0.238901 0.638169 -0.58347
O_ O_ 0.852381 0.399219 0.677303 -0.58347
O_ O_ 0.874121 0.393973 0.632105 -0.58347
O_ O_ 0.93545 0.334536 0.677688 -0.58347
O_ O_ 0.950187 0.319861 0.631851 -0.58347
O_ O_ 0.924011 0.263274 0.829038 -0.46727
O_ O_ 0.758745 0.308503 0.840131 -0.46727
O_ O_ 0.970417 0.300816 0.971891 -0.46727
O_ O_ 0.805925 0.351164 0.985758 -0.46727
Zn Zn 0.626998 0.677689 0.381568 0.90689
Zn Zn 0.641998 0.674394 0.428198 0.90689
Zn Zn 0.873666 0.823955 0.132841 0.90689
Zn Zn 0.864689 0.829837 0.182148 0.90689
H_ H_ 0.811761 0.679356 0.440886 0.11455
H_ H_ 0.873419 0.663837 0.340116 0.11455
H_ H_ 0.780114 0.667915 0.352104 0.11455
H_ H_ 0.895825 0.665742 0.458348 0.11455
H_ H_ 0.986385 0.673022 0.451067 0.11455
H_ H_ 0.962439 0.663484 0.360892 0.11455
H_ H_ 0.594801 0.510852 0.436144 0.11455
H_ H_ 0.609118 0.933842 0.350993 0.11455
H_ H_ 0.663711 0.515682 0.355475 0.11455
H_ H_ 0.651037 0.919283 0.467435 0.11455
H_ H_ 0.633944 0.827366 0.462213 0.11455
H_ H_ 0.607795 0.846709 0.371408 0.11455
H_ H_ 0.576163 0.613536 0.461782 0.11455
H_ H_ 0.566057 0.576111 0.0206696 0.11455
H_ H_ 0.589749 0.634183 0.0558759 0.11455
H_ H_ 0.687595 0.747517 0.472457 0.11455
H_ H_ 0.73129 0.796184 0.0113556 0.11455
H_ H_ 0.70858 0.773054 0.0620973 0.11455
H_ H_ 0.512052 0.703044 0.122665 0.11455
H_ H_ 0.50459 0.688535 0.173246 0.11455
H_ H_ 0.764608 0.691214 0.139406 0.11455
H_ H_ 0.755327 0.676627 0.190732 0.11455
H_ H_ 0.582032 0.578237 0.249633 0.11455
H_ H_ 0.549055 0.562989 0.297768 0.11455
H_ H_ 0.582879 0.608194 0.33848 0.11455
H_ H_ 0.654132 0.751961 0.259032 0.11455
H_ H_ 0.698722 0.788221 0.298126 0.11455
H_ H_ 0.682006 0.760012 0.34877 0.11455
H_ H_ 0.697512 0.809663 0.194673 0.11455
H_ H_ 0.634282 0.84445 0.0965834 0.11455
H_ H_ 0.722057 0.848943 0.104624 0.11455
H_ H_ 0.610642 0.797206 0.209878 0.11455
H_ H_ 0.521704 0.797853 0.202978 0.11455
H_ H_ 0.54604 0.82538 0.112277 0.11455
H_ H_ 0.875706 0.994728 0.193427 0.11455
H_ H_ 0.888957 0.568445 0.101745 0.11455
H_ H_ 0.881652 0.982553 0.102552 0.11455
H_ H_ 0.875888 0.578942 0.218744 0.11455
H_ H_ 0.867212 0.671683 0.21186 0.11455
H_ H_ 0.888144 0.654177 0.123404 0.11455
H_ H_ 0.927187 0.900653 0.217895 0.11455
H_ H_ 0.941309 0.930336 0.267362 0.11455
H_ H_ 0.897993 0.888034 0.308493 0.11455
H_ H_ 0.796881 0.777787 0.226503 0.11455
H_ H_ 0.780153 0.713304 0.263119 0.11455
H_ H_ 0.805041 0.729895 0.313396 0.11455
H_ H_ 0.985372 0.789393 0.373652 0.11455
H_ H_ 0.003249999999999975 0.791998 0.42663 0.11455
H_ H_ 0.74739 0.860299 0.391396 0.11455
H_ H_ 0.75746 0.861921 0.444507 0.11455
H_ H_ 0.936441 0.904908 0.505221 0.11455
H_ H_ 0.963563 0.934233 0.0499347 0.11455
H_ H_ 0.917585 0.893063 0.0900158 0.11455
H_ H_ 0.837044 0.764785 0.00818702 0.11455
H_ H_ 0.813526 0.711484 0.0489098 0.11455
H_ H_ 0.824094 0.740748 0.0986614 0.11455
C_ C_ 0.732979 0.674161 0.40297 0.68181
C_ C_ 0.786846 0.67497 0.396936 -0.05681
C_ C_ 0.823435 0.68007 0.419251 -0.08735
C_ C_ 0.874626 0.673862 0.412718 -0.05681
C_ C_ 0.89403 0.672957 0.384589 -0.05681
C_ C_ 0.858582 0.66756 0.362721 -0.08735
C_ C_ 0.805615 0.667356 0.369313 -0.08735
C_ C_ 0.909022 0.672948 0.436663 -0.08735
C_ C_ 0.961377 0.66847 0.432473 -0.08735
C_ C_ 0.980334 0.672838 0.405071 -0.05681
C_ C_ 0.946943 0.669976 0.381371 -0.08735
C_ C_ 0.620718 0.774142 0.413592 0.68181
C_ C_ 0.640779 0.576664 0.399786 0.68181
C_ C_ 0.638344 0.520556 0.399272 -0.05681
C_ C_ 0.641943 0.990034 0.425546 -0.08735
C_ C_ 0.635835 0.935807 0.422672 -0.05681
C_ C_ 0.619466 0.915317 0.395789 -0.05681
C_ C_ 0.614736 0.947883 0.371889 -0.08735
C_ C_ 0.618362 1.0000316477 0.374975 -0.08735
C_ C_ 0.641363 0.902381 0.446842 -0.08735
C_ C_ 0.63087 0.852009 0.444055 -0.08735
C_ C_ 0.619228 0.830577 0.417287 -0.05681
C_ C_ 0.612564 0.862517 0.393037 -0.08735
C_ C_ 0.535919 0.67219 0.405766 0.68181
C_ C_ 0.593358 0.632413 0.480306 0.1947
C_ C_ 0.584894 0.611841 0.0144288 -0.08735
C_ C_ 0.605118 0.6396 0.0362044 -0.08735
C_ C_ 0.637135 0.680759 0.0296905 -0.05681
C_ C_ 0.648528 0.693554 1.00028 0.18498
C_ C_ 0.67874 0.735424 0.494788 -0.08735
C_ C_ 0.701794 0.764711 0.0167147 -0.08735
C_ C_ 0.687715 0.75478 0.0446539 -0.08735
C_ C_ 0.658192 0.712172 0.0516003 0.18498
C_ C_ 0.693501 0.685354 0.0977872 0.44287
C_ C_ 0.605478 0.702901 0.0935583 0.44287
C_ C_ 0.59547 0.690459 0.12239 -0.05681
C_ C_ 0.547131 0.694959 0.135333 -0.08735
C_ C_ 0.540481 0.683295 0.1644 -0.08735
C_ C_ 0.583037 0.673605 0.182264 -0.05681
C_ C_ 0.632449 0.676635 0.170005 -0.05681
C_ C_ 0.63824 0.683778 0.140019 -0.05681
C_ C_ 0.689122 0.682308 0.128201 -0.05681
C_ C_ 0.729875 0.678678 0.147301 -0.08735
C_ C_ 0.722366 0.678619 0.176992 -0.08735
C_ C_ 0.673483 0.677549 0.189415 -0.05681
C_ C_ 0.66667 0.670278 0.21966 0.44287
C_ C_ 0.577235 0.668011 0.211903 0.44287
C_ C_ 0.611249 0.651983 0.259718 0.18498
C_ C_ 0.586161 0.606771 0.265844 -0.08735
C_ C_ 0.570779 0.596884 0.292574 -0.08735
C_ C_ 0.589779 0.624445 0.316489 -0.08735
C_ C_ 0.61719 0.669026 0.311651 0.18498
C_ C_ 0.627292 0.684167 0.282701 -0.05681
C_ C_ 0.652689 0.730917 0.279338 -0.08735
C_ C_ 0.671976 0.755866 0.302869 -0.08735
C_ C_ 0.661253 0.740485 0.330748 0.1947
C_ C_ 0.771942 0.823453 0.154237 0.68181
C_ C_ 0.717562 0.826455 0.149662 -0.05681
C_ C_ 0.682906 0.817445 0.173702 -0.08735
C_ C_ 0.633023 0.815089 0.167059 -0.05681
C_ C_ 0.615386 0.825409 0.139015 -0.05681
C_ C_ 0.649535 0.836822 0.117878 -0.08735
C_ C_ 0.700729 0.836867 0.122453 -0.08735
C_ C_ 0.598193 0.807236 0.189782 -0.08735
C_ C_ 0.546798 0.813435 0.18605 -0.08735
C_ C_ 0.527116 0.821612 0.158347 -0.05681
C_ C_ 0.561657 0.827543 0.134341 -0.08735
C_ C_ 0.872014 0.726551 0.164673 0.68181
C_ C_ 0.868242 0.92639 0.152493 0.68181
C_ C_ 0.879177 0.981238 0.148499 -0.05681
C_ C_ 0.857332 0.510263 0.174646 -0.08735
C_ C_ 0.868732 0.563434 0.173522 -0.05681
C_ C_ 0.871252 0.585729 0.145962 -0.05681
C_ C_ 0.875603 0.554578 0.121235 -0.08735
C_ C_ 0.89145 1.00212859 0.121911 -0.08735
C_ C_ 0.868086 0.59485 0.19774 -0.08735
C_ C_ 0.871383 0.647843 0.194253 -0.08735
C_ C_ 0.873385 0.669976 0.167817 -0.05681
C_ C_ 0.881547 0.637277 0.143893 -0.08735
C_ C_ 0.966888 0.822739 0.158607 0.68181
C_ C_ 0.903511 0.883492 0.234726 0.1947
C_ C_ 0.912475 0.902835 0.263413 -0.08735
C_ C_ 0.892149 0.87434 0.286261 -0.08735
C_ C_ 0.862622 0.832723 0.281427 -0.05681
C_ C_ 0.85164 0.817636 0.252868 0.18498
C_ C_ 0.814994 0.780701 0.247714 -0.08735
C_ C_ 0.801834 0.745523 0.268177 -0.08735
C_ C_ 0.81623 0.75679 0.297028 -0.08735
C_ C_ 0.842792 0.803027 0.304404 0.18498
C_ C_ 0.817171 0.831246 0.351885 0.44287
C_ C_ 0.899917 0.800519 0.345788 0.44287
C_ C_ 0.908945 0.802143 0.376517 -0.05681
C_ C_ 0.956341 0.796148 0.389524 -0.08735
C_ C_ 0.964728 0.798778 0.419144 -0.08735
C_ C_ 0.921302 0.804649 0.437083 -0.05681
C_ C_ 0.871831 0.811397 0.425225 -0.05681
C_ C_ 0.867001 0.8106 0.394393 -0.05681
C_ C_ 0.820512 0.827837 0.382614 -0.05681
C_ C_ 0.782093 0.845116 0.400161 -0.08735
C_ C_ 0.78897 0.84966 0.430523 -0.08735
C_ C_ 0.833986 0.834163 0.443625 -0.05681
C_ C_ 0.844731 0.839986 0.472574 0.44287
C_ C_ 0.925861 0.80291 0.467257 0.44287
C_ C_ 0.905423 0.841239 0.0111414 0.18498
C_ C_ 0.931662 0.88589 0.0174063 -0.08735
C_ C_ 0.94217 0.898953 0.0459096 -0.08735
C_ C_ 0.914587 0.876831 0.0686221 -0.08735
C_ C_ 0.887511 0.83119 0.0633314 0.18498
C_ C_ 0.878803 0.816049 0.0347286 -0.05681
C_ C_ 0.845215 0.77494 0.0305742 -0.08735
C_ C_ 0.826595 0.747235 0.0540267 -0.08735
C_ C_ 0.83785 0.762976 0.0813422 0.1947
N_ N_ 0.629995 0.665678 0.476686 -0.29468
N_ N_ 0.652276 0.698012 0.0816218 -0.17154
N_ N_ 0.619224 0.665044 0.230041 -0.17154
N_ N_ 0.635808 0.69589 0.333615 -0.29468
N_ N_ 0.871743 0.843924 0.229372 -0.29468
N_ N_ 0.855825 0.816554 0.33426 -0.17154
N_ N_ 0.888991 0.822012 0.483983 -0.17154
N_ N_ 0.867835 0.804912 0.0856019 -0.29468
O_ O_ 0.717999 0.678906 0.429012 -0.58347
O_ O_ 0.702557 0.681057 0.383519 -0.58347
O_ O_ 0.63257 0.748295 0.43525 -0.58347
O_ O_ 0.6188 0.754817 0.389119 -0.58347
O_ O_ 0.645053 0.600174 0.422809 -0.58347
O_ O_ 0.63386 0.600066 0.377927 -0.58347
O_ O_ 0.567678 0.676548 0.426265 -0.58347
O_ O_ 0.552989 0.672326 0.380028 -0.58347
O_ O_ 0.567031 0.714873 0.0765795 -0.46727
O_ O_ 0.737734 0.681336 0.0853443 -0.46727
O_ O_ 0.531543 0.660484 0.222107 -0.46727
O_ O_ 0.705583 0.661038 0.235361 -0.46727
O_ O_ 0.790345 0.830122 0.179559 -0.58347
O_ O_ 0.802255 0.821949 0.133653 -0.58347
O_ O_ 0.865104 0.754226 0.186242 -0.58347
O_ O_ 0.877262 0.74654 0.14002 -0.58347
O_ O_ 0.86905 0.90547 0.177095 -0.58347
O_ O_ 0.864587 0.898993 0.131115 -0.58347
O_ O_ 0.93804 0.823663 0.180432 -0.58347
O_ O_ 0.94647 0.827014 0.133382 -0.58347
O_ O_ 0.934755 0.781145 0.329384 -0.46727
O_ O_ 0.774597 0.84818 0.341534 -0.46727
O_ O_ 0.970447 0.790542 0.477935 -0.46727
O_ O_ 0.811264 0.862469 0.489536 -0.46727
Zn Zn 0.622569 0.67411 0.882064 0.90689
Zn Zn 0.636682 0.670834 0.929314 0.90689
Zn Zn 0.85905 0.814346 0.634868 0.90689
Zn Zn 0.84852 0.824576 0.680085 0.90689
H_ H_ 0.808074 0.701028 0.945535 0.11455
H_ H_ 0.872301 0.665587 0.848154 0.11455
H_ H_ 0.77696 0.664652 0.857807 0.11455
H_ H_ 0.892471 0.706867 0.962704 0.11455
H_ H_ 0.981952 0.6986 0.955206 0.11455
H_ H_ 0.954846 0.679516 0.863775 0.11455
H_ H_ 0.642876 0.502543 0.943847 0.11455
H_ H_ 0.693091 0.92473 0.861217 0.11455
H_ H_ 0.632543 0.517247 0.852181 0.11455
H_ H_ 0.563484 0.922695 0.955723 0.11455
H_ H_ 0.573675 0.830057 0.953089 0.11455
H_ H_ 0.643332 0.839956 0.872129 0.11455
H_ H_ 0.580475 0.601097 0.968553 0.11455
H_ H_ 0.54371 0.594535 0.510295 0.11455
H_ H_ 0.579254 0.634176 0.55161 0.11455
H_ H_ 0.691819 0.74191 0.972506 0.11455
H_ H_ 0.724224 0.793319 0.514776 0.11455
H_ H_ 0.6873 0.781887 0.563809 0.11455
H_ H_ 0.502361 0.718316 0.625388 0.11455
H_ H_ 0.490759 0.695417 0.677213 0.11455
H_ H_ 0.749116 0.658659 0.633497 0.11455
H_ H_ 0.745761 0.665509 0.687288 0.11455
H_ H_ 0.566189 0.579245 0.746782 0.11455
H_ H_ 0.549857 0.549351 0.79611 0.11455
H_ H_ 0.575478 0.599845 0.837483 0.11455
H_ H_ 0.656855 0.736482 0.759877 0.11455
H_ H_ 0.694804 0.779574 0.80082 0.11455
H_ H_ 0.677417 0.747164 0.848698 0.11455
H_ H_ 0.681618 0.801809 0.691669 0.11455
H_ H_ 0.610964 0.835035 0.595946 0.11455
H_ H_ 0.703722 0.847138 0.605823 0.11455
H_ H_ 0.597272 0.823754 0.714824 0.11455
H_ H_ 0.507823 0.833705 0.708284 0.11455
H_ H_ 0.524449 0.823643 0.616679 0.11455
H_ H_ 0.836312 0.985973 0.687985 0.11455
H_ H_ 0.863592 0.564865 0.599458 0.11455
H_ H_ 0.896121 0.969394 0.601731 0.11455
H_ H_ 0.8496 0.576869 0.717786 0.11455
H_ H_ 0.850818 0.665069 0.712573 0.11455
H_ H_ 0.85305 0.651498 0.623574 0.11455
H_ H_ 0.88521 0.908134 0.713838 0.11455
H_ H_ 0.903386 0.944131 0.761664 0.11455
H_ H_ 0.870787 0.897584 0.804031 0.11455
H_ H_ 0.811365 0.752605 0.725459 0.11455
H_ H_ 0.798305 0.693877 0.765583 0.11455
H_ H_ 0.821364 0.721598 0.814133 0.11455
H_ H_ 0.99369 0.809498 0.867928 0.11455
H_ H_ 1.0041591 0.81887 0.921927 0.11455
H_ H_ 0.742114 0.847567 0.891154 0.11455
H_ H_ 0.756604 0.842589 0.942939 0.11455
H_ H_ 0.952103 0.908259 1.00105022 0.11455
H_ H_ 0.967126 0.916916 0.553803 0.11455
H_ H_ 0.937555 0.862581 0.592984 0.11455
H_ H_ 0.835283 0.752213 0.512673 0.11455
H_ H_ 0.780644 0.722774 0.549104 0.11455
H_ H_ 0.793684 0.757463 0.598723 0.11455
C_ C_ 0.728003 0.686719 0.906512 0.68181
C_ C_ 0.784342 0.688418 0.901803 -0.05681
C_ C_ 0.820558 0.696419 0.923309 -0.08735
C_ C_ 0.873132 0.698775 0.918153 -0.05681
C_ C_ 0.88907 0.68732 0.890605 -0.05681
C_ C_ 0.856961 0.67611 0.868934 -0.08735
C_ C_ 0.804304 0.67709 0.874287 -0.08735
C_ C_ 0.905655 0.701583 0.941084 -0.08735
C_ C_ 0.957759 0.695339 0.936446 -0.08735
C_ C_ 0.976394 0.689728 0.908095 -0.05681
C_ C_ 0.940686 0.68179 0.885381 -0.08735
C_ C_ 0.611776 0.770529 0.911219 0.68181
C_ C_ 0.639576 0.572741 0.900325 0.68181
C_ C_ 0.637881 0.516966 0.898272 -0.05681
C_ C_ 0.61244 -0.010546000000000055 0.919669 -0.08735
C_ C_ 0.610834 0.936969 0.91808 -0.05681
C_ C_ 0.636217 0.912473 0.894765 -0.05681
C_ C_ 0.670097 0.941332 0.877438 -0.08735
C_ C_ 0.670501 -0.006631999999999971 0.879079 -0.08735
C_ C_ 0.585307 0.90649 0.937453 -0.08735
C_ C_ 0.588006 0.854198 0.936288 -0.08735
C_ C_ 0.612135 0.829403 0.91316 -0.05681
C_ C_ 0.636178 0.858438 0.891914 -0.08735
C_ C_ 0.531436 0.667943 0.905296 0.68181
C_ C_ 0.597011 0.622256 0.985621 0.1947
C_ C_ 0.572584 0.622985 0.507265 -0.08735
C_ C_ 0.590198 0.647126 0.531115 -0.08735
C_ C_ 0.623373 0.687181 0.528084 -0.05681
C_ C_ 0.644242 0.696211 0.499736 0.18498
C_ C_ 0.683224 0.734512 0.99407 -0.08735
C_ C_ 0.695811 0.763892 0.518617 -0.08735
C_ C_ 0.673967 0.759706 0.54489 -0.08735
C_ C_ 0.641083 0.717847 0.55047 0.18498
C_ C_ 0.673962 0.683999 0.595713 0.44287
C_ C_ 0.589693 0.708502 0.594307 0.44287
C_ C_ 0.582734 0.699138 0.623845 -0.05681
C_ C_ 0.534706 0.703987 0.637515 -0.08735
C_ C_ 0.529043 0.697987 0.667346 -0.08735
C_ C_ 0.572856 0.684729 0.684473 -0.05681
C_ C_ 0.620051 0.682766 0.670808 -0.05681
C_ C_ 0.624445 0.68803 0.640383 -0.05681
C_ C_ 0.671706 0.679718 0.62613 -0.05681
C_ C_ 0.714949 0.672666 0.643492 -0.08735
C_ C_ 0.712196 0.671891 0.673723 -0.08735
C_ C_ 0.664751 0.672274 0.687027 -0.05681
C_ C_ 0.659453 0.66174 0.716505 0.44287
C_ C_ 0.569206 0.670508 0.713409 0.44287
C_ C_ 0.60853 0.646371 0.758943 0.18498
C_ C_ 0.580495 0.600356 0.764286 -0.08735
C_ C_ 0.571875 0.583647 0.791812 -0.08735
C_ C_ 0.585803 0.61502 0.815548 -0.08735
C_ C_ 0.614566 0.657337 0.812233 0.18498
C_ C_ 0.627057 0.672884 0.783631 -0.05681
C_ C_ 0.654555 0.718818 0.780162 -0.08735
C_ C_ 0.671447 0.745732 0.804163 -0.08735
C_ C_ 0.661858 0.726363 0.831412 0.1947
C_ C_ 0.756414 0.814861 0.654687 0.68181
C_ C_ 0.701277 0.82193 0.649628 -0.05681
C_ C_ 0.666372 0.816057 0.672424 -0.08735
C_ C_ 0.614336 0.818117 0.668668 -0.05681
C_ C_ 0.594775 0.827841 0.640948 -0.05681
C_ C_ 0.627156 0.831547 0.617942 -0.08735
C_ C_ 0.679247 0.832236 0.622198 -0.08735
C_ C_ 0.582643 0.82026 0.692557 -0.08735
C_ C_ 0.530881 0.826303 0.689413 -0.08735
C_ C_ 0.509701 0.824864 0.661935 -0.05681
C_ C_ 0.541348 0.830474 0.637794 -0.08735
C_ C_ 0.860773 0.723764 0.664728 0.68181
C_ C_ 0.857785 0.91468 0.648999 0.68181
C_ C_ 0.864994 0.970716 0.647205 -0.05681
C_ C_ 0.858826 0.508869 0.675531 -0.08735
C_ C_ 0.857323 0.561097 0.672465 -0.05681
C_ C_ 0.860573 0.582471 0.643994 -0.05681
C_ C_ 0.864274 0.550368 0.620788 -0.08735
C_ C_ 0.884758 0.992501 0.621355 -0.08735
C_ C_ 0.855369 0.592847 0.696247 -0.08735
C_ C_ 0.859568 0.643839 0.693751 -0.08735
C_ C_ 0.866272 0.668195 0.666722 -0.05681
C_ C_ 0.865221 0.633582 0.642049 -0.08735
C_ C_ 0.952269 0.824271 0.660238 0.68181
C_ C_ 0.868874 0.891772 0.732334 0.1947
C_ C_ 0.880679 0.909577 0.759216 -0.08735
C_ C_ 0.866358 0.880788 0.783641 -0.08735
C_ C_ 0.845572 0.833773 0.779761 -0.05681
C_ C_ 0.837648 0.815776 0.750581 0.18498
C_ C_ 0.817292 0.765876 0.745851 -0.08735
C_ C_ 0.810911 0.732621 0.768307 -0.08735
C_ C_ 0.82412 0.746772 0.796478 -0.08735
C_ C_ 0.838259 0.798383 0.802902 0.18498
C_ C_ 0.812175 0.821889 0.850767 0.44287
C_ C_ 0.899312 0.810285 0.841882 0.44287
C_ C_ 0.91149 0.814244 0.871594 -0.05681
C_ C_ 0.960212 0.812527 0.882792 -0.08735
C_ C_ 0.966525 0.817423 0.912515 -0.08735
C_ C_ 0.927403 0.825675 0.931453 -0.05681
C_ C_ 0.878079 0.827938 0.920486 -0.05681
C_ C_ 0.869907 0.820027 0.890441 -0.05681
C_ C_ 0.820664 0.82702 0.879473 -0.05681
C_ C_ 0.78088 0.838196 0.898726 -0.08735
C_ C_ 0.788643 0.842349 0.927149 -0.08735
C_ C_ 0.838375 0.836505 0.938922 -0.05681
C_ C_ 0.846473 0.837796 0.969313 0.44287
C_ C_ 0.934809 0.825973 0.962117 0.44287
C_ C_ 0.899471 0.834147 0.513633 0.18498
C_ C_ 0.926962 0.878819 0.521448 -0.08735
C_ C_ 0.938223 0.88981 0.549471 -0.08735
C_ C_ 0.918617 0.860928 0.571916 -0.08735
C_ C_ 0.887962 0.818645 0.566014 0.18498
C_ C_ 0.880174 0.804307 0.536851 -0.05681
C_ C_ 0.842089 0.7684 0.532623 -0.08735
C_ C_ 0.81158 0.750829 0.554965 -0.08735
C_ C_ 0.820172 0.767194 0.582166 0.1947
N_ N_ 0.625983 0.66573 0.979153 -0.29468
N_ N_ 0.633651 0.70076 0.580345 -0.17154
N_ N_ 0.61212 0.662812 0.729882 -0.17154
N_ N_ 0.632684 0.682991 0.83578 -0.29468
N_ N_ 0.847659 0.845448 0.727609 -0.29468
N_ N_ 0.850239 0.810901 0.832516 -0.17154
N_ N_ 0.894441 0.83129 0.980693 -0.17154
N_ N_ 0.862287 0.795324 0.587718 -0.29468
O_ O_ 0.711979 0.680983 0.931874 -0.58347
O_ O_ 0.696669 0.678001 0.885582 -0.58347
O_ O_ 0.625534 0.744226 0.933295 -0.58347
O_ O_ 0.615672 0.751093 0.885896 -0.58347
O_ O_ 0.635132 0.592223 0.924635 -0.58347
O_ O_ 0.629095 0.599641 0.878923 -0.58347
O_ O_ 0.558247 0.661816 0.926045 -0.58347
O_ O_ 0.549089 0.672548 0.879831 -0.58347
O_ O_ 0.547194 0.714859 0.578765 -0.46727
O_ O_ 0.71519 0.668607 0.581108 -0.46727
O_ O_ 0.524566 0.663741 0.724399 -0.46727
O_ O_ 0.699173 0.656934 0.733062 -0.46727
O_ O_ 0.774776 0.814051 0.679625 -0.58347
O_ O_ 0.784349 0.825647 0.633115 -0.58347
O_ O_ 0.858362 0.75063 0.686169 -0.58347
O_ O_ 0.851625 0.742158 0.640434 -0.58347
O_ O_ 0.839731 0.897057 0.671432 -0.58347
O_ O_ 0.870809 0.887615 0.628259 -0.58347
O_ O_ 0.924078 0.838365 0.680577 -0.58347
O_ O_ 0.933936 0.806718 0.637606 -0.58347
O_ O_ 0.936503 0.798882 0.823299 -0.46727
O_ O_ 0.765785 0.825985 0.840932 -0.46727
O_ O_ 0.978689 0.817272 0.973688 -0.46727
O_ O_ 0.808078 0.847802 0.986833 -0.46727
