_cell_length_a 26.376
_cell_length_b 26.400000238300095
_cell_length_c 46.67800035477134
_cell_angle_alpha 90.00700052986613
_cell_angle_beta 89.99899961309502
_cell_angle_gamma 90.45000003183146
_symmetry_space_group_name_H-M         'P 1'
_symmetry_Int_Tables_number            1
loop_
_symmetry_equiv_pos_as_xyz
   'x, y, z'
                         
loop_
_atom_site_label
_atom_site_type_symbol
_atom_site_fract_x 
_atom_site_fract_y
_atom_site_fract_z
_atom_site_charge
Zn Zn 0.14264 0.172434 0.383871 0.90689
Zn Zn 0.150051 0.163726 0.432766 0.90689
Zn Zn 0.373828 0.315857 0.127078 0.90689
Zn Zn 0.364727 0.328813 0.17368 0.90689
H_ H_ 0.314479 0.183345 0.447594 0.11455
H_ H_ 0.383127 0.177738 0.346402 0.11455
H_ H_ 0.30012 0.192769 0.355724 0.11455
H_ H_ 0.403277 0.19371 0.46441 0.11455
H_ H_ 0.497182 0.18005 0.456828 0.11455
H_ H_ 0.470894 0.161106 0.367238 0.11455
H_ H_ 0.151774 -0.0031691 0.44245 0.11455
H_ H_ 0.134134 0.417611 0.350838 0.11455
H_ H_ 0.146988 0.0134877 0.351114 0.11455
H_ H_ 0.164235 0.412255 0.467277 0.11455
H_ H_ 0.151987 0.321685 0.461354 0.11455
H_ H_ 0.127878 0.334863 0.372168 0.11455
H_ H_ 0.0977042 0.0870676 0.470031 0.11455
H_ H_ 0.0897865 0.0629302 0.00974463 0.11455
H_ H_ 0.112198 0.115735 0.0517197 0.11455
H_ H_ 0.21801 0.224864 0.476214 0.11455
H_ H_ 0.22633 0.29914 0.0150884 0.11455
H_ H_ 0.197856 0.278692 0.0647643 0.11455
H_ H_ 0.0193109 0.208532 0.125847 0.11455
H_ H_ 0.0079692 0.192752 0.175191 0.11455
H_ H_ 0.269302 0.171233 0.136176 0.11455
H_ H_ 0.260061 0.171243 0.189355 0.11455
H_ H_ 0.0898938 0.0713611 0.249915 0.11455
H_ H_ 0.0761553 0.048502 0.301081 0.11455
H_ H_ 0.0896928 0.108982 0.34056 0.11455
H_ H_ 0.152885 0.247836 0.259601 0.11455
H_ H_ 0.186849 0.293038 0.298435 0.11455
H_ H_ 0.184469 0.256815 0.348103 0.11455
H_ H_ 0.206221 0.318314 0.188798 0.11455
H_ H_ 0.129256 0.338889 0.0933096 0.11455
H_ H_ 0.222668 0.348698 0.0993797 0.11455
H_ H_ 0.121822 0.312694 0.209941 0.11455
H_ H_ 0.0278949 0.303765 0.205127 0.11455
H_ H_ 0.0432378 0.332507 0.113252 0.11455
H_ H_ 0.37999 0.486171 0.186408 0.11455
H_ H_ 0.41863 0.0623709 0.101095 0.11455
H_ H_ 0.366307 0.483649 0.0948649 0.11455
H_ H_ 0.338171 0.0796669 0.209335 0.11455
H_ H_ 0.358785 0.169969 0.206667 0.11455
H_ H_ 0.402421 0.151193 0.118072 0.11455
H_ H_ 0.416167 0.399307 0.208404 0.11455
H_ H_ 0.448965 0.416768 0.259003 0.11455
H_ H_ 0.419416 0.367553 0.297595 0.11455
H_ H_ 0.303959 0.264076 0.220414 0.11455
H_ H_ 0.285185 0.202382 0.258285 0.11455
H_ H_ 0.308664 0.22729 0.306977 0.11455
H_ H_ 0.487801 0.296171 0.372341 0.11455
H_ H_ 0.49294 0.300173 0.425685 0.11455
H_ H_ 0.23762 0.326109 0.381996 0.11455
H_ H_ 0.242897 0.333555 0.434875 0.11455
H_ H_ 0.423038 0.410736 0.494644 0.11455
H_ H_ 0.464559 0.428571 0.0365361 0.11455
H_ H_ 0.416699 0.392655 0.0796096 0.11455
H_ H_ 0.339686 0.250752 0.00388004 0.11455
H_ H_ 0.31337 0.20128 0.0485643 0.11455
H_ H_ 0.312604 0.247982 0.0924337 0.11455
C_ C_ 0.24276 0.18877 0.406961 0.68181
C_ C_ 0.299065 0.188283 0.402268 -0.05681
C_ C_ 0.33106 0.187157 0.426286 -0.08735
C_ C_ 0.384704 0.182905 0.420881 -0.05681
C_ C_ 0.403725 0.177173 0.393239 -0.05681
C_ C_ 0.371659 0.180416 0.369987 -0.08735
C_ C_ 0.320491 0.187131 0.374931 -0.08735
C_ C_ 0.417463 0.180326 0.445009 -0.08735
C_ C_ 0.470267 0.178585 0.440245 -0.08735
C_ C_ 0.489435 0.174644 0.41187 -0.05681
C_ C_ 0.455569 0.167495 0.388982 -0.08735
C_ C_ 0.132684 0.263362 0.41604 0.68181
C_ C_ 0.150755 0.0699498 0.399707 0.68181
C_ C_ 0.148917 0.0130613 0.397211 -0.05681
C_ C_ 0.136009 0.479658 0.425386 -0.08735
C_ C_ 0.138946 0.427788 0.423085 -0.05681
C_ C_ 0.1338 0.40561 0.395462 -0.05681
C_ C_ 0.129254 0.436692 0.371526 -0.08735
C_ C_ 0.127222 0.489636 0.373913 -0.08735
C_ C_ 0.14796 0.396482 0.446898 -0.08735
C_ C_ 0.150387 0.344437 0.443379 -0.08735
C_ C_ 0.137913 0.320278 0.417599 -0.05681
C_ C_ 0.129418 0.352712 0.393536 -0.08735
C_ C_ 0.0493228 0.164466 0.412025 0.68181
C_ C_ 0.120149 0.107412 0.486689 0.1947
C_ C_ 0.110186 0.10054 0.00687472 -0.08735
C_ C_ 0.125419 0.129257 0.0313284 -0.08735
C_ C_ 0.144794 0.178426 0.0282826 -0.05681
C_ C_ 0.151957 0.196616 0.999211123 0.18498
C_ C_ 0.194502 0.223437 0.496286 -0.08735
C_ C_ 0.197 0.267898 0.0177904 -0.08735
C_ C_ 0.188843 0.252788 0.045777 -0.08735
C_ C_ 0.16294 0.206721 0.052547 0.18498
C_ C_ 0.194612 0.179642 0.0986886 0.44287
C_ C_ 0.107892 0.20366 0.0951254 0.44287
C_ C_ 0.0988777 0.191983 0.124199 -0.05681
C_ C_ 0.0518382 0.198172 0.137151 -0.08735
C_ C_ 0.0452876 0.189236 0.165765 -0.08735
C_ C_ 0.0872761 0.177511 0.183865 -0.05681
C_ C_ 0.135963 0.174476 0.171301 -0.05681
C_ C_ 0.141171 0.18221 0.141401 -0.05681
C_ C_ 0.189762 0.176185 0.12877 -0.05681
C_ C_ 0.23297 0.170796 0.146109 -0.08735
C_ C_ 0.226931 0.173646 0.175584 -0.08735
C_ C_ 0.17869 0.172223 0.189226 -0.05681
C_ C_ 0.17153 0.17002 0.219025 0.44287
C_ C_ 0.0818401 0.173327 0.213948 0.44287
C_ C_ 0.115945 0.148735 0.261043 0.18498
C_ C_ 0.0962472 0.100587 0.267226 -0.08735
C_ C_ 0.0905449 0.0854159 0.29684 -0.08735
C_ C_ 0.100266 0.118543 0.318332 -0.08735
C_ C_ 0.123277 0.164689 0.313007 0.18498
C_ C_ 0.131031 0.181396 0.284339 -0.05681
C_ C_ 0.152637 0.229849 0.279535 -0.08735
C_ C_ 0.167649 0.258882 0.303672 -0.08735
C_ C_ 0.166143 0.238922 0.330621 0.1947
C_ C_ 0.274231 0.325194 0.148849 0.68181
C_ C_ 0.219324 0.329642 0.144991 -0.05681
C_ C_ 0.188452 0.321927 0.168148 -0.08735
C_ C_ 0.135505 0.314797 0.164971 -0.05681
C_ C_ 0.112661 0.318541 0.136683 -0.05681
C_ C_ 0.145898 0.329506 0.114066 -0.08735
C_ C_ 0.197508 0.337856 0.118351 -0.08735
C_ C_ 0.104826 0.307235 0.189746 -0.08735
C_ C_ 0.0519455 0.306041 0.186947 -0.08735
C_ C_ 0.0294914 0.315109 0.159168 -0.05681
C_ C_ 0.0605783 0.321192 0.133793 -0.08735
C_ C_ 0.376976 0.22324 0.158068 0.68181
C_ C_ 0.365677 0.420849 0.143461 0.68181
C_ C_ 0.366863 0.477228 0.141185 -0.05681
C_ C_ 0.361793 0.0107708 0.170876 -0.08735
C_ C_ 0.366369 0.0618443 0.168165 -0.05681
C_ C_ 0.385132 0.0810853 0.141194 -0.05681
C_ C_ 0.396032 0.0492386 0.118256 -0.08735
C_ C_ 0.372186 0.502859 0.115061 -0.08735
C_ C_ 0.355845 0.0949646 0.189778 -0.08735
C_ C_ 0.36907 0.145031 0.187938 -0.08735
C_ C_ 0.381147 0.166525 0.160799 -0.05681
C_ C_ 0.390186 0.133819 0.137384 -0.08735
C_ C_ 0.468322 0.32467 0.151495 0.68181
C_ C_ 0.404431 0.376165 0.22622 0.1947
C_ C_ 0.419455 0.389824 0.255 -0.08735
C_ C_ 0.397625 0.365398 0.278061 -0.08735
C_ C_ 0.364446 0.324527 0.273052 -0.05681
C_ C_ 0.356127 0.308306 0.244415 0.18498
C_ C_ 0.31755 0.270762 0.240456 -0.08735
C_ C_ 0.307211 0.236016 0.262842 -0.08735
C_ C_ 0.321042 0.249419 0.290173 -0.08735
C_ C_ 0.349312 0.293499 0.296496 0.18498
C_ C_ 0.312783 0.313682 0.342967 0.44287
C_ C_ 0.401449 0.30431 0.340309 0.44287
C_ C_ 0.407938 0.311427 0.370532 -0.05681
C_ C_ 0.454131 0.307391 0.385158 -0.08735
C_ C_ 0.45637 0.302551 0.414389 -0.08735
C_ C_ 0.41384 0.309361 0.432222 -0.05681
C_ C_ 0.368525 0.320236 0.418149 -0.05681
C_ C_ 0.364755 0.317125 0.387167 -0.05681
C_ C_ 0.315846 0.319293 0.373513 -0.05681
C_ C_ 0.273947 0.323127 0.39076 -0.08735
C_ C_ 0.277487 0.332302 0.421122 -0.08735
C_ C_ 0.32542 0.330461 0.434041 -0.05681
C_ C_ 0.332093 0.336692 0.464003 0.44287
C_ C_ 0.415857 0.305397 0.462269 0.44287
C_ C_ 0.399718 0.335995 0.00350978 0.18498
C_ C_ 0.428995 0.378931 0.00840004 -0.08735
C_ C_ 0.44019 0.396521 0.0359451 -0.08735
C_ C_ 0.414697 0.373033 0.0589911 -0.08735
C_ C_ 0.38723 0.327876 0.0554604 0.18498
C_ C_ 0.378864 0.309525 0.0272065 -0.05681
C_ C_ 0.349739 0.264895 0.0246198 -0.08735
C_ C_ 0.333845 0.237573 0.0497195 -0.08735
C_ C_ 0.334247 0.263137 0.0742139 0.1947
N_ N_ 0.147038 0.149708 0.479771 -0.29468
N_ N_ 0.152629 0.190623 0.0819854 -0.17154
N_ N_ 0.123269 0.166552 0.231318 -0.17154
N_ N_ 0.144401 0.1928 0.335264 -0.29468
N_ N_ 0.371952 0.336456 0.221915 -0.29468
N_ N_ 0.35522 0.309045 0.326937 -0.17154
N_ N_ 0.377195 0.324916 0.47711 -0.17154
N_ N_ 0.368345 0.302185 0.07874 -0.29468
O_ O_ 0.226529 0.172026 0.430226 -0.58347
O_ O_ 0.217026 0.184908 0.384782 -0.58347
O_ O_ 0.146535 0.237078 0.437327 -0.58347
O_ O_ 0.132118 0.24303 0.392203 -0.58347
O_ O_ 0.152654 0.0898722 0.424246 -0.58347
O_ O_ 0.151192 0.098608 0.377911 -0.58347
O_ O_ 0.076449 0.163135 0.434043 -0.58347
O_ O_ 0.0694935 0.162819 0.388621 -0.58347
O_ O_ 0.0711133 0.223737 0.0801963 -0.46727
O_ O_ 0.239638 0.173524 0.0860096 -0.46727
O_ O_ 0.03576 0.168941 0.224774 -0.46727
O_ O_ 0.211059 0.166026 0.235955 -0.46727
O_ O_ 0.294472 0.323513 0.174138 -0.58347
O_ O_ 0.300739 0.315413 0.127018 -0.58347
O_ O_ 0.375893 0.251453 0.180636 -0.58347
O_ O_ 0.375204 0.242203 0.13303 -0.58347
O_ O_ 0.359404 0.398883 0.167887 -0.58347
O_ O_ 0.373485 0.390415 0.122102 -0.58347
O_ O_ 0.438369 0.329951 0.172734 -0.58347
O_ O_ 0.450084 0.31302 0.127324 -0.58347
O_ O_ 0.439881 0.28856 0.325807 -0.46727
O_ O_ 0.265976 0.311711 0.33087 -0.46727
O_ O_ 0.459445 0.294239 0.475345 -0.46727
O_ O_ 0.294521 0.355586 0.479475 -0.46727
Zn Zn 0.120899 0.186919 0.880932 0.90689
Zn Zn 0.134884 0.184066 0.928845 0.90689
Zn Zn 0.362811 0.315735 0.628611 0.90689
Zn Zn 0.353707 0.323841 0.677609 0.90689
H_ H_ 0.300898 0.182838 0.946098 0.11455
H_ H_ 0.36084 0.174791 0.846092 0.11455
H_ H_ 0.275483 0.191461 0.854127 0.11455
H_ H_ 0.385619 0.171698 0.964128 0.11455
H_ H_ 0.472701 0.16782 0.957862 0.11455
H_ H_ 0.455119 0.177555 0.865553 0.11455
H_ H_ 0.157728 0.016088 0.937846 0.11455
H_ H_ 0.162106 0.440222 0.847736 0.11455
H_ H_ 0.0894849 0.0262313 0.856606 0.11455
H_ H_ 0.124563 0.436672 0.964767 0.11455
H_ H_ 0.109384 0.342872 0.959999 0.11455
H_ H_ 0.145431 0.352583 0.870265 0.11455
H_ H_ 0.0894816 0.105094 0.962125 0.11455
H_ H_ 0.0850995 0.0627526 0.519334 0.11455
H_ H_ 0.125566 0.109281 0.559837 0.11455
H_ H_ 0.188788 0.253602 0.973657 0.11455
H_ H_ 0.221743 0.296613 0.510667 0.11455
H_ H_ 0.178957 0.284642 0.559204 0.11455
H_ H_ 0.010942 0.213477 0.618312 0.11455
H_ H_ -0.005753000000000008 0.194817 0.670137 0.11455
H_ H_ 0.259606 0.164311 0.640977 0.11455
H_ H_ 0.244467 0.148313 0.692259 0.11455
H_ H_ 0.0409939 0.100037 0.745919 0.11455
H_ H_ 0.018562 0.0771228 0.797609 0.11455
H_ H_ 0.0625023 0.120571 0.837691 0.11455
H_ H_ 0.141705 0.25221 0.755133 0.11455
H_ H_ 0.18994 0.289468 0.794094 0.11455
H_ H_ 0.169911 0.264667 0.844808 0.11455
H_ H_ 0.183089 0.306422 0.694325 0.11455
H_ H_ 0.115908 0.328368 0.596463 0.11455
H_ H_ 0.206865 0.316497 0.602915 0.11455
H_ H_ 0.0967464 0.311417 0.716681 0.11455
H_ H_ 0.00738288 0.303154 0.706076 0.11455
H_ H_ 0.0294153 0.340394 0.617898 0.11455
H_ H_ 0.344568 0.490641 0.688543 0.11455
H_ H_ 0.358429 0.0694362 0.59323 0.11455
H_ H_ 0.358173 0.474636 0.598786 0.11455
H_ H_ 0.347669 0.078097 0.71135 0.11455
H_ H_ 0.377257 0.165666 0.706939 0.11455
H_ H_ 0.375345 0.15348 0.616593 0.11455
H_ H_ 0.414096 0.385655 0.713356 0.11455
H_ H_ 0.436412 0.408095 0.762327 0.11455
H_ H_ 0.388851 0.369747 0.803762 0.11455
H_ H_ 0.291011 0.253549 0.719069 0.11455
H_ H_ 0.257877 0.202762 0.756354 0.11455
H_ H_ 0.277195 0.220439 0.806719 0.11455
H_ H_ 0.480126 0.284947 0.866526 0.11455
H_ H_ 0.495608 0.297514 0.914412 0.11455
H_ H_ 0.23159 0.343475 0.8862 0.11455
H_ H_ 0.252921 0.355301 0.936393 0.11455
H_ H_ 0.438583 0.400865 -0.009291999999999967 0.11455
H_ H_ 0.433307 0.441554 0.545535 0.11455
H_ H_ 0.417554 0.376724 0.585271 0.11455
H_ H_ 0.327505 0.254205 0.504222 0.11455
H_ H_ 0.294787 0.20771 0.544988 0.11455
H_ H_ 0.323097 0.2326 0.595136 0.11455
C_ C_ 0.225457 0.196114 0.905123 0.68181
C_ C_ 0.279723 0.189695 0.900464 -0.05681
C_ C_ 0.313363 0.181551 0.923919 -0.08735
C_ C_ 0.365823 0.175006 0.919278 -0.05681
C_ C_ 0.385281 0.178365 0.890998 -0.05681
C_ C_ 0.35137 0.182104 0.867678 -0.08735
C_ C_ 0.300604 0.190068 0.872207 -0.08735
C_ C_ 0.397521 0.170857 0.942808 -0.08735
C_ C_ 0.449178 0.165673 0.9389 -0.08735
C_ C_ 0.470682 0.166086 0.910963 -0.05681
C_ C_ 0.438532 0.17046 0.886634 -0.08735
C_ C_ 0.120862 0.284663 0.911796 0.68181
C_ C_ 0.130704 0.0854775 0.897515 0.68181
C_ C_ 0.127412 0.0296457 0.89617 -0.05681
C_ C_ 0.142697 0.498202 0.923612 -0.08735
C_ C_ 0.140875 0.445937 0.920071 -0.05681
C_ C_ 0.14374 0.422012 0.892321 -0.05681
C_ C_ 0.15245 0.454689 0.868474 -0.08735
C_ C_ 0.15886 0.507152 0.872749 -0.08735
C_ C_ 0.128036 0.417606 0.943245 -0.08735
C_ C_ 0.117416 0.365748 0.940984 -0.08735
C_ C_ 0.119041 0.342077 0.913125 -0.05681
C_ C_ 0.132181 0.371334 0.888912 -0.08735
C_ C_ 0.0274977 0.187906 0.906639 0.68181
C_ C_ 0.110739 0.124057 0.980103 0.1947
C_ C_ 0.112542 0.0925883 0.514762 -0.08735
C_ C_ 0.130021 0.121376 0.537443 -0.08735
C_ C_ 0.153258 0.167854 0.530354 -0.05681
C_ C_ 0.165138 0.179182 0.501107 0.18498
C_ C_ 0.176422 0.242237 0.994502 -0.08735
C_ C_ 0.200626 0.26214 0.516375 -0.08735
C_ C_ 0.176972 0.255201 0.54246 -0.08735
C_ C_ 0.160441 0.207609 0.551491 0.18498
C_ C_ 0.188454 0.196732 0.599737 0.44287
C_ C_ 0.099138 0.197412 0.591562 0.44287
C_ C_ 0.0918821 0.199382 0.621066 -0.05681
C_ C_ 0.0418837 0.204058 0.632651 -0.08735
C_ C_ 0.0337952 0.194425 0.662245 -0.08735
C_ C_ 0.0742937 0.185941 0.680476 -0.05681
C_ C_ 0.122172 0.178285 0.669077 -0.05681
C_ C_ 0.131502 0.187453 0.640035 -0.05681
C_ C_ 0.179806 0.182763 0.629464 -0.05681
C_ C_ 0.221205 0.173016 0.649386 -0.08735
C_ C_ 0.211277 0.165807 0.678618 -0.08735
C_ C_ 0.161964 0.163823 0.688252 -0.05681
C_ C_ 0.150241 0.157994 0.718153 0.44287
C_ C_ 0.0657013 0.182467 0.710809 0.44287
C_ C_ 0.0921928 0.16031 0.758299 0.18498
C_ C_ 0.0561485 0.120017 0.764283 -0.08735
C_ C_ 0.0496844 0.104757 0.79218 -0.08735
C_ C_ 0.0716981 0.130036 0.815163 -0.08735
C_ C_ 0.0989122 0.175554 0.809873 0.18498
C_ C_ 0.110506 0.189469 0.780739 -0.05681
C_ C_ 0.136536 0.235675 0.776796 -0.08735
C_ C_ 0.162267 0.259124 0.799701 -0.08735
C_ C_ 0.153479 0.241368 0.827582 0.1947
C_ C_ 0.259223 0.316807 0.653339 0.68181
C_ C_ 0.20209 0.317573 0.649713 -0.05681
C_ C_ 0.16943 0.311397 0.673565 -0.08735
C_ C_ 0.115889 0.318374 0.670324 -0.05681
C_ C_ 0.0972974 0.329906 0.641712 -0.05681
C_ C_ 0.131146 0.330088 0.617883 -0.08735
C_ C_ 0.182229 0.316834 0.622198 -0.08735
C_ C_ 0.0840913 0.318454 0.693936 -0.08735
C_ C_ 0.0322005 0.317562 0.690004 -0.08735
C_ C_ 0.0100696 0.324313 0.662301 -0.05681
C_ C_ 0.0438347 0.33256 0.638304 -0.08735
C_ C_ 0.366785 0.221773 0.658889 0.68181
C_ C_ 0.347236 0.42004 0.648666 0.68181
C_ C_ 0.344824 0.477489 0.643882 -0.05681
C_ C_ 0.346732 0.0115647 0.6684 -0.08735
C_ C_ 0.352774 0.0633861 0.666734 -0.05681
C_ C_ 0.356327 0.0866351 0.639825 -0.05681
C_ C_ 0.358922 0.0540028 0.615206 -0.08735
C_ C_ 0.353435 0.498976 0.616361 -0.08735
C_ C_ 0.351404 0.0945868 0.690905 -0.08735
C_ C_ 0.367098 0.144054 0.688294 -0.08735
C_ C_ 0.373043 0.166273 0.661409 -0.05681
C_ C_ 0.369724 0.136599 0.637059 -0.08735
C_ C_ 0.455697 0.32794 0.653496 0.68181
C_ C_ 0.391145 0.370836 0.730139 0.1947
C_ C_ 0.406047 0.381646 0.758657 -0.08735
C_ C_ 0.383591 0.353504 0.781398 -0.08735
C_ C_ 0.351375 0.312006 0.775627 -0.05681
C_ C_ 0.336555 0.30379 0.745912 0.18498
C_ C_ 0.305847 0.262256 0.740526 -0.08735
C_ C_ 0.282727 0.232973 0.762304 -0.08735
C_ C_ 0.294285 0.244716 0.790348 -0.08735
C_ C_ 0.327266 0.284354 0.797873 0.18498
C_ C_ 0.301852 0.312089 0.844636 0.44287
C_ C_ 0.386298 0.284602 0.83797 0.44287
C_ C_ 0.398011 0.296814 0.866152 -0.05681
C_ C_ 0.450084 0.294827 0.877642 -0.08735
C_ C_ 0.458682 0.303467 0.905903 -0.08735
C_ C_ 0.418403 0.311819 0.924977 -0.05681
C_ C_ 0.369122 0.321172 0.913575 -0.05681
C_ C_ 0.359199 0.314836 0.883955 -0.05681
C_ C_ 0.310048 0.320872 0.874 -0.05681
C_ C_ 0.271433 0.340035 0.892234 -0.08735
C_ C_ 0.282651 0.342052 0.92137 -0.08735
C_ C_ 0.331403 0.332098 0.932433 -0.05681
C_ C_ 0.342453 0.339596 0.962531 0.44287
C_ C_ 0.424469 0.307432 0.955874 0.44287
C_ C_ 0.385804 0.338371 0.506669 0.18498
C_ C_ 0.409507 0.384308 0.512445 -0.08735
C_ C_ 0.420138 0.400735 0.541097 -0.08735
C_ C_ 0.403315 0.36955 0.563945 -0.08735
C_ C_ 0.379541 0.32273 0.559268 0.18498
C_ C_ 0.369748 0.308774 0.529851 -0.05681
C_ C_ 0.339592 0.265619 0.525156 -0.08735
C_ C_ 0.325651 0.235297 0.548765 -0.08735
C_ C_ 0.339285 0.252861 0.576625 0.1947
N_ N_ 0.136962 0.166881 0.976673 -0.29468
N_ N_ 0.148287 0.19799 0.581034 -0.17154
N_ N_ 0.104098 0.171057 0.728825 -0.17154
N_ N_ 0.120095 0.201713 0.832397 -0.29468
N_ N_ 0.36139 0.329016 0.724969 -0.29468
N_ N_ 0.339002 0.293686 0.827726 -0.17154
N_ N_ 0.387018 0.322816 0.973667 -0.17154
N_ N_ 0.365432 0.295145 0.581447 -0.29468
O_ O_ 0.207961 0.19214 0.929787 -0.58347
O_ O_ 0.196092 0.193513 0.884728 -0.58347
O_ O_ 0.132636 0.260208 0.934157 -0.58347
O_ O_ 0.116615 0.263093 0.887421 -0.58347
O_ O_ 0.141464 0.106653 0.92191 -0.58347
O_ O_ 0.123408 0.113313 0.875237 -0.58347
O_ O_ 0.0586329 0.181041 0.927021 -0.58347
O_ O_ 0.0450904 0.185946 0.881976 -0.58347
O_ O_ 0.0611094 0.202987 0.573531 -0.46727
O_ O_ 0.234348 0.206821 0.59041 -0.46727
O_ O_ 0.0233127 0.198424 0.721091 -0.46727
O_ O_ 0.188141 0.146518 0.735521 -0.46727
O_ O_ 0.280557 0.32217 0.677195 -0.58347
O_ O_ 0.285317 0.307526 0.630987 -0.58347
O_ O_ 0.359256 0.249738 0.681261 -0.58347
O_ O_ 0.372639 0.243084 0.635757 -0.58347
O_ O_ 0.349022 0.39984 0.6735 -0.58347
O_ O_ 0.34719 0.392411 0.627041 -0.58347
O_ O_ 0.425657 0.325501 0.675844 -0.58347
O_ O_ 0.437666 0.327264 0.62813 -0.58347
O_ O_ 0.415271 0.252983 0.823858 -0.46727
O_ O_ 0.257569 0.321055 0.832549 -0.46727
O_ O_ 0.465097 0.287319 0.967122 -0.46727
O_ O_ 0.304475 0.352644 0.9798 -0.46727
Zn Zn 0.128763 0.667711 0.38419 0.90689
Zn Zn 0.141407 0.666392 0.432377 0.90689
Zn Zn 0.374607 0.818009 0.13368 0.90689
Zn Zn 0.365318 0.8232 0.179699 0.90689
H_ H_ 0.309558 0.680305 0.450653 0.11455
H_ H_ 0.375788 0.643578 0.353395 0.11455
H_ H_ 0.286379 0.640634 0.362001 0.11455
H_ H_ 0.398232 0.686779 0.471064 0.11455
H_ H_ 0.488975 0.686145 0.461632 0.11455
H_ H_ 0.462214 0.648483 0.370339 0.11455
H_ H_ 0.136015 0.496814 0.445678 0.11455
H_ H_ 0.128649 0.919029 0.347729 0.11455
H_ H_ 0.136039 0.50891 0.352834 0.11455
H_ H_ 0.130369 0.921016 0.465377 0.11455
H_ H_ 0.124433 0.826834 0.463742 0.11455
H_ H_ 0.126257 0.831535 0.370901 0.11455
H_ H_ 0.0845011 0.584363 0.467163 0.11455
H_ H_ 0.0762073 0.570913 0.0186113 0.11455
H_ H_ 0.0955617 0.623679 0.0582601 0.11455
H_ H_ 0.195091 0.717916 0.475945 0.11455
H_ H_ 0.24334 0.786163 0.0163237 0.11455
H_ H_ 0.222946 0.759393 0.0673154 0.11455
H_ H_ 0.0224951 0.72016 0.126568 0.11455
H_ H_ 0.0106621 0.699022 0.177081 0.11455
H_ H_ 0.266909 0.642262 0.138294 0.11455
H_ H_ 0.258104 0.641032 0.191357 0.11455
H_ H_ 0.0684137 0.577611 0.251274 0.11455
H_ H_ 0.0410273 0.560024 0.298934 0.11455
H_ H_ 0.072958 0.608347 0.340815 0.11455
H_ H_ 0.143692 0.746763 0.262842 0.11455
H_ H_ 0.194619 0.776867 0.301731 0.11455
H_ H_ 0.186393 0.742156 0.350457 0.11455
H_ H_ 0.194866 0.783573 0.192125 0.11455
H_ H_ 0.133902 0.843051 0.0985201 0.11455
H_ H_ 0.221346 0.833158 0.104357 0.11455
H_ H_ 0.112571 0.791887 0.212421 0.11455
H_ H_ 0.0203344 0.810137 0.205002 0.11455
H_ H_ 0.04884 0.850485 0.117516 0.11455
H_ H_ 0.350252 0.994421 0.191465 0.11455
H_ H_ 0.364073 0.576493 0.0938691 0.11455
H_ H_ 0.421943 0.975289 0.109268 0.11455
H_ H_ 0.392003 0.568541 0.212548 0.11455
H_ H_ 0.38035 0.660956 0.212944 0.11455
H_ H_ 0.368956 0.658212 0.119092 0.11455
H_ H_ 0.411847 0.896736 0.218099 0.11455
H_ H_ 0.454097 0.901614 0.264038 0.11455
H_ H_ 0.413511 0.863744 0.305462 0.11455
H_ H_ 0.314475 0.746196 0.221034 0.11455
H_ H_ 0.284128 0.691844 0.259606 0.11455
H_ H_ 0.295068 0.72265 0.311093 0.11455
H_ H_ 0.477181 0.762946 0.376672 0.11455
H_ H_ 0.497017 0.794568 0.424384 0.11455
H_ H_ 0.250351 0.866719 0.380405 0.11455
H_ H_ 0.254082 0.873472 0.433607 0.11455
H_ H_ 0.447136 0.908647 0.49689 0.11455
H_ H_ 0.447269 0.939038 0.0453124 0.11455
H_ H_ 0.43176 0.880975 0.0874955 0.11455
H_ H_ 0.344808 0.747721 0.0101519 0.11455
H_ H_ 0.311827 0.705443 0.0543932 0.11455
H_ H_ 0.314347 0.746036 0.0993125 0.11455
C_ C_ 0.233769 0.671218 0.408144 0.68181
C_ C_ 0.289263 0.665165 0.405052 -0.05681
C_ C_ 0.323626 0.671626 0.42903 -0.08735
C_ C_ 0.376257 0.670067 0.425917 -0.05681
C_ C_ 0.395352 0.656952 0.398063 -0.05681
C_ C_ 0.362572 0.652778 0.374505 -0.08735
C_ C_ 0.311235 0.651133 0.379106 -0.08735
C_ C_ 0.409277 0.67408 0.449424 -0.08735
C_ C_ 0.461582 0.67387 0.444117 -0.08735
C_ C_ 0.48048 0.665319 0.416501 -0.05681
C_ C_ 0.448503 0.652036 0.392611 -0.08735
C_ C_ 0.120345 0.766078 0.416782 0.68181
C_ C_ 0.143082 0.56913 0.400091 0.68181
C_ C_ 0.137651 0.511321 0.40015 -0.05681
C_ C_ 0.148416 0.981753 0.421131 -0.08735
C_ C_ 0.135063 0.931088 0.419637 -0.05681
C_ C_ 0.138342 0.90476 0.392689 -0.05681
C_ C_ 0.1425 0.935719 0.368033 -0.08735
C_ C_ 0.148604 0.989029 0.370582 -0.08735
C_ C_ 0.131425 0.901372 0.44517 -0.08735
C_ C_ 0.127048 0.848049 0.444364 -0.08735
C_ C_ 0.124231 0.822757 0.418022 -0.05681
C_ C_ 0.132824 0.850313 0.392142 -0.08735
C_ C_ 0.0347121 0.660802 0.407534 0.68181
C_ C_ 0.0964054 0.606942 0.484284 0.1947
C_ C_ 0.0978736 0.604389 0.0143108 -0.08735
C_ C_ 0.116511 0.632657 0.0374082 -0.08735
C_ C_ 0.143775 0.678876 0.0317121 -0.05681
C_ C_ 0.157829 0.689377 1.00361914 0.18498
C_ C_ 0.181527 0.715206 0.497236 -0.08735
C_ C_ 0.214786 0.756805 0.0202875 -0.08735
C_ C_ 0.200478 0.745912 0.0486144 -0.08735
C_ C_ 0.164772 0.707272 0.054163 0.18498
C_ C_ 0.196094 0.671117 0.1003 0.44287
C_ C_ 0.112678 0.707211 0.0974068 0.44287
C_ C_ 0.104709 0.69801 0.127484 -0.05681
C_ C_ 0.0564995 0.707459 0.139303 -0.08735
C_ C_ 0.0499412 0.696425 0.169623 -0.08735
C_ C_ 0.089129 0.675188 0.185777 -0.05681
C_ C_ 0.139434 0.67489 0.174741 -0.05681
C_ C_ 0.145198 0.681017 0.144548 -0.05681
C_ C_ 0.190881 0.666934 0.13076 -0.05681
C_ C_ 0.231731 0.654908 0.148752 -0.08735
C_ C_ 0.227796 0.654604 0.178949 -0.08735
C_ C_ 0.178172 0.659971 0.19123 -0.05681
C_ C_ 0.167968 0.649809 0.221063 0.44287
C_ C_ 0.0825981 0.665356 0.215398 0.44287
C_ C_ 0.110394 0.645794 0.262875 0.18498
C_ C_ 0.0795846 0.601329 0.268318 -0.08735
C_ C_ 0.0686256 0.587186 0.296031 -0.08735
C_ C_ 0.086852 0.614909 0.319442 -0.08735
C_ C_ 0.115138 0.658489 0.314715 0.18498
C_ C_ 0.120228 0.677674 0.286874 -0.05681
C_ C_ 0.144046 0.7246 0.283168 -0.08735
C_ C_ 0.16532 0.749011 0.30564 -0.08735
C_ C_ 0.162313 0.727081 0.333382 0.1947
C_ C_ 0.272908 0.811919 0.153852 0.68181
C_ C_ 0.217196 0.804882 0.148263 -0.05681
C_ C_ 0.182306 0.797086 0.171642 -0.08735
C_ C_ 0.1311 0.807482 0.167943 -0.05681
C_ C_ 0.111719 0.825373 0.141873 -0.05681
C_ C_ 0.144525 0.830001 0.118366 -0.08735
C_ C_ 0.197531 0.824396 0.122246 -0.08735
C_ C_ 0.0981041 0.800842 0.191312 -0.08735
C_ C_ 0.0457041 0.810226 0.187137 -0.08735
C_ C_ 0.0244644 0.820515 0.159962 -0.05681
C_ C_ 0.0594626 0.83257 0.13741 -0.08735
C_ C_ 0.378124 0.72093 0.162697 0.68181
C_ C_ 0.368253 0.920085 0.150185 0.68181
C_ C_ 0.375775 0.97768 0.147841 -0.05681
C_ C_ 0.376737 0.504544 0.165901 -0.08735
C_ C_ 0.381167 0.559253 0.165817 -0.05681
C_ C_ 0.377158 0.584739 0.139388 -0.05681
C_ C_ 0.37048 0.556011 0.114756 -0.08735
C_ C_ 0.399154 -0.001550999999999969 0.123602 -0.08735
C_ C_ 0.381593 0.586578 0.192298 -0.08735
C_ C_ 0.380778 0.640057 0.19179 -0.08735
C_ C_ 0.378984 0.665527 0.16505 -0.05681
C_ C_ 0.372911 0.638317 0.139087 -0.08735
C_ C_ 0.468089 0.82563 0.159218 0.68181
C_ C_ 0.404734 0.869558 0.234227 0.1947
C_ C_ 0.420439 0.879699 0.261774 -0.08735
C_ C_ 0.398732 0.852684 0.284528 -0.08735
C_ C_ 0.367055 0.809872 0.279047 -0.05681
C_ C_ 0.355393 0.799093 0.249878 0.18498
C_ C_ 0.327281 0.755243 0.242616 -0.08735
C_ C_ 0.305011 0.728076 0.265667 -0.08735
C_ C_ 0.31396 0.739517 0.294418 -0.08735
C_ C_ 0.345498 0.780186 0.301363 0.18498
C_ C_ 0.314107 0.816397 0.345632 0.44287
C_ C_ 0.396888 0.780363 0.345405 0.44287
C_ C_ 0.402067 0.788397 0.375564 -0.05681
C_ C_ 0.449135 0.78378 0.387751 -0.08735
C_ C_ 0.459127 0.800898 0.415395 -0.08735
C_ C_ 0.416904 0.81435 0.432424 -0.05681
C_ C_ 0.370179 0.821761 0.41993 -0.05681
C_ C_ 0.364148 0.811107 0.390318 -0.05681
C_ C_ 0.319923 0.826908 0.375246 -0.05681
C_ C_ 0.284281 0.853388 0.390594 -0.08735
C_ C_ 0.287146 0.859083 0.4208 -0.08735
C_ C_ 0.333029 0.846968 0.435514 -0.05681
C_ C_ 0.339817 0.855132 0.465843 0.44287
C_ C_ 0.422884 0.819754 0.461975 0.44287
C_ C_ 0.392721 0.841077 0.0103699 0.18498
C_ C_ 0.417672 0.887094 0.0150022 -0.08735
C_ C_ 0.428412 0.902449 0.0436488 -0.08735
C_ C_ 0.416189 0.871016 0.0670257 -0.08735
C_ C_ 0.389654 0.825577 0.0628607 0.18498
C_ C_ 0.381577 0.808449 0.0341462 -0.05681
C_ C_ 0.355695 0.761842 0.0307333 -0.08735
C_ C_ 0.333544 0.739036 0.0549018 -0.08735
C_ C_ 0.339402 0.760007 0.0823306 0.1947
N_ N_ 0.129411 0.644721 0.47942 -0.29468
N_ N_ 0.156967 0.693969 0.0845883 -0.17154
N_ N_ 0.122684 0.659539 0.233498 -0.17154
N_ N_ 0.138142 0.681898 0.337205 -0.29468
N_ N_ 0.373886 0.828947 0.228261 -0.29468
N_ N_ 0.353113 0.793556 0.331293 -0.17154
N_ N_ 0.383428 0.837248 0.478437 -0.17154
N_ N_ 0.367716 0.802652 0.086068 -0.29468
O_ O_ 0.214972 0.67566 0.431843 -0.58347
O_ O_ 0.204796 0.669122 0.386004 -0.58347
O_ O_ 0.130068 0.738314 0.438718 -0.58347
O_ O_ 0.125445 0.745804 0.392591 -0.58347
O_ O_ 0.147701 0.590503 0.424278 -0.58347
O_ O_ 0.135886 0.595521 0.377547 -0.58347
O_ O_ 0.0637381 0.656791 0.429567 -0.58347
O_ O_ 0.053465 0.662508 0.382475 -0.58347
O_ O_ 0.0782672 0.730153 0.081156 -0.46727
O_ O_ 0.239534 0.659526 0.0873688 -0.46727
O_ O_ 0.035439 0.662926 0.225715 -0.46727
O_ O_ 0.205484 0.635158 0.237838 -0.46727
O_ O_ 0.289228 0.804707 0.179831 -0.58347
O_ O_ 0.301574 0.828208 0.134022 -0.58347
O_ O_ 0.379635 0.746979 0.185159 -0.58347
O_ O_ 0.372633 0.743897 0.139209 -0.58347
O_ O_ 0.355029 0.89801 0.173886 -0.58347
O_ O_ 0.381803 0.891219 0.130411 -0.58347
O_ O_ 0.43852 0.836409 0.179434 -0.58347
O_ O_ 0.450529 0.812659 0.134443 -0.58347
O_ O_ 0.431309 0.753509 0.331738 -0.46727
O_ O_ 0.269627 0.820402 0.333098 -0.46727
O_ O_ 0.466773 0.810166 0.47459 -0.46727
O_ O_ 0.303005 0.872511 0.481518 -0.46727
Zn Zn 0.123634 0.687652 0.886539 0.90689
Zn Zn 0.134844 0.680715 0.934785 0.90689
Zn Zn 0.36997 0.823404 0.629967 0.90689
Zn Zn 0.363269 0.831798 0.678738 0.90689
H_ H_ 0.300686 0.706824 0.943093 0.11455
H_ H_ 0.36982 0.672451 0.848218 0.11455
H_ H_ 0.277205 0.671585 0.855595 0.11455
H_ H_ 0.387801 0.700588 0.965623 0.11455
H_ H_ 0.478583 0.706478 0.957656 0.11455
H_ H_ 0.459396 0.670693 0.868755 0.11455
H_ H_ 0.133192 0.513467 0.944661 0.11455
H_ H_ 0.0794032 0.937704 0.854092 0.11455
H_ H_ 0.158192 0.533549 0.854077 0.11455
H_ H_ 0.162435 0.928743 0.963952 0.11455
H_ H_ 0.126055 0.839612 0.963495 0.11455
H_ H_ 0.0928166 0.853991 0.873232 0.11455
H_ H_ 0.0877613 0.602343 0.969102 0.11455
H_ H_ 0.0585542 0.561886 0.515237 0.11455
H_ H_ 0.0916692 0.612448 0.557131 0.11455
H_ H_ 0.195013 0.745813 0.977994 0.11455
H_ H_ 0.205442 0.789731 0.513686 0.11455
H_ H_ 0.167918 0.777152 0.561609 0.11455
H_ H_ 1.00392315 0.70514 0.624975 0.11455
H_ H_ 0.988768 0.690605 0.67717 0.11455
H_ H_ 0.253848 0.68209 0.643073 0.11455
H_ H_ 0.238312 0.647003 0.690689 0.11455
H_ H_ 0.0432467 0.593629 0.757033 0.11455
H_ H_ 0.0280122 0.571715 0.80814 0.11455
H_ H_ 0.0707029 0.616399 0.844541 0.11455
H_ H_ 0.148744 0.749908 0.760944 0.11455
H_ H_ 0.192991 0.787445 0.797521 0.11455
H_ H_ 0.177181 0.764322 0.848236 0.11455
H_ H_ 0.194081 0.79968 0.693041 0.11455
H_ H_ 0.12547 0.849148 0.59684 0.11455
H_ H_ 0.218373 0.87133 0.611935 0.11455
H_ H_ 0.10427 0.801499 0.71433 0.11455
H_ H_ 0.0160502 0.803986 0.703361 0.11455
H_ H_ 0.0366697 0.833823 0.615547 0.11455
H_ H_ 0.353829 0.994981 0.689668 0.11455
H_ H_ 0.379628 0.567949 0.592335 0.11455
H_ H_ 0.37769 0.979282 0.601457 0.11455
H_ H_ 0.332767 0.578934 0.709734 0.11455
H_ H_ 0.345586 0.672366 0.704235 0.11455
H_ H_ 0.362557 0.655085 0.614983 0.11455
H_ H_ 0.425073 0.897341 0.714703 0.11455
H_ H_ 0.445821 0.920081 0.762679 0.11455
H_ H_ 0.410702 0.873408 0.80431 0.11455
H_ H_ 0.310017 0.760339 0.721614 0.11455
H_ H_ 0.286928 0.699504 0.761453 0.11455
H_ H_ 0.307222 0.723427 0.811456 0.11455
H_ H_ 0.489045 0.79088 0.870536 0.11455
H_ H_ 0.501009 0.808316 0.921338 0.11455
H_ H_ 0.243227 0.843369 0.887891 0.11455
H_ H_ 0.246196 0.833332 0.940049 0.11455
H_ H_ 0.435465 0.907775 0.996372 0.11455
H_ H_ 0.475229 0.914023 0.549351 0.11455
H_ H_ 0.427385 0.882356 0.58756 0.11455
H_ H_ 0.329355 0.769149 0.504505 0.11455
H_ H_ 0.285434 0.729634 0.545902 0.11455
H_ H_ 0.308989 0.752077 0.595331 0.11455
C_ C_ 0.227089 0.689098 0.905449 0.68181
C_ C_ 0.283137 0.686957 0.90101 -0.05681
C_ C_ 0.315968 0.692279 0.92378 -0.08735
C_ C_ 0.367233 0.687756 0.921381 -0.05681
C_ C_ 0.388001 0.679545 0.89344 -0.05681
C_ C_ 0.354679 0.674684 0.869723 -0.08735
C_ C_ 0.303416 0.681342 0.87324 -0.08735
C_ C_ 0.402245 0.693251 0.944408 -0.08735
C_ C_ 0.455969 0.692588 0.940295 -0.08735
C_ C_ 0.474164 0.686427 0.912101 -0.05681
C_ C_ 0.441116 0.675863 0.889762 -0.08735
C_ C_ 0.112791 0.782944 0.915606 0.68181
C_ C_ 0.14416 0.588563 0.901463 0.68181
C_ C_ 0.148539 0.530577 0.899477 -0.05681
C_ C_ 0.142033 0.998211 0.919264 -0.08735
C_ C_ 0.136044 0.944615 0.920118 -0.05681
C_ C_ 0.112059 0.922811 0.895737 -0.05681
C_ C_ 0.096986 0.953588 0.872332 -0.08735
C_ C_ 0.103628 0.00595382 0.873057 -0.08735
C_ C_ 0.146922 0.912792 0.943978 -0.08735
C_ C_ 0.128667 0.862115 0.943022 -0.08735
C_ C_ 0.117858 0.837804 0.916852 -0.05681
C_ C_ 0.111488 0.869614 0.892965 -0.08735
C_ C_ 0.0301115 0.672179 0.912223 0.68181
C_ C_ 0.101643 0.625234 0.987346 0.1947
C_ C_ 0.0812013 0.595164 0.512063 -0.08735
C_ C_ 0.102237 0.623033 0.535263 -0.08735
C_ C_ 0.132078 0.665911 0.531176 -0.05681
C_ C_ 0.146648 0.67638 0.501862 0.18498
C_ C_ 0.191632 0.730306 0.998951 -0.08735
C_ C_ 0.188958 0.752167 0.518864 -0.08735
C_ C_ 0.167158 0.746061 0.544962 -0.08735
C_ C_ 0.145555 0.699599 0.552942 0.18498
C_ C_ 0.178776 0.684355 0.60134 0.44287
C_ C_ 0.0921765 0.696049 0.596672 0.44287
C_ C_ 0.0840452 0.686185 0.626747 -0.05681
C_ C_ 0.0352436 0.693968 0.638566 -0.08735
C_ C_ 0.0282706 0.684714 0.667846 -0.08735
C_ C_ 0.0683461 0.679171 0.686094 -0.05681
C_ C_ 0.116547 0.675013 0.673555 -0.05681
C_ C_ 0.126989 0.68322 0.643799 -0.05681
C_ C_ 0.173802 0.683928 0.632224 -0.05681
C_ C_ 0.216751 0.679092 0.650322 -0.08735
C_ C_ 0.208763 0.663334 0.679538 -0.08735
C_ C_ 0.159065 0.666928 0.69182 -0.05681
C_ C_ 0.15113 0.661751 0.721924 0.44287
C_ C_ 0.0633996 0.679083 0.716891 0.44287
C_ C_ 0.0958965 0.656487 0.764479 0.18498
C_ C_ 0.0592765 0.619138 0.773208 -0.08735
C_ C_ 0.0569934 0.601235 0.801556 -0.08735
C_ C_ 0.0815532 0.628069 0.82324 -0.08735
C_ C_ 0.109424 0.671939 0.816496 0.18498
C_ C_ 0.11376 0.688551 0.787451 -0.05681
C_ C_ 0.143887 0.731561 0.781474 -0.08735
C_ C_ 0.16805 0.756371 0.803017 -0.08735
C_ C_ 0.158625 0.742398 0.831626 0.1947
C_ C_ 0.266649 0.828076 0.65541 0.68181
C_ C_ 0.211619 0.833712 0.652667 -0.05681
C_ C_ 0.1783 0.815464 0.673779 -0.08735
C_ C_ 0.125123 0.814837 0.668892 -0.05681
C_ C_ 0.106313 0.825802 0.6404 -0.05681
C_ C_ 0.14033 0.843689 0.618632 -0.08735
C_ C_ 0.192575 0.850603 0.626088 -0.08735
C_ C_ 0.0910812 0.809521 0.691887 -0.08735
C_ C_ 0.0396493 0.812907 0.68701 -0.08735
C_ C_ 0.0204254 0.822017 0.660487 -0.05681
C_ C_ 0.0526266 0.830632 0.637362 -0.08735
C_ C_ 0.36968 0.725776 0.657055 0.68181
C_ C_ 0.357482 0.926096 0.649094 0.68181
C_ C_ 0.35205 0.978944 0.64523 -0.05681
C_ C_ 0.347366 0.509612 0.668437 -0.08735
C_ C_ 0.355041 0.563452 0.666952 -0.05681
C_ C_ 0.365835 0.584321 0.638839 -0.05681
C_ C_ 0.368286 0.551362 0.613962 -0.08735
C_ C_ 0.361728 1.00206076 0.618154 -0.08735
C_ C_ 0.344233 0.594686 0.689559 -0.08735
C_ C_ 0.350424 0.647619 0.686341 -0.08735
C_ C_ 0.362124 0.66972 0.659519 -0.05681
C_ C_ 0.365765 0.637144 0.635801 -0.08735
C_ C_ 0.463619 0.829206 0.657917 0.68181
C_ C_ 0.405693 0.877917 0.732602 0.1947
C_ C_ 0.415358 0.89548 0.76053 -0.08735
C_ C_ 0.393758 0.869769 0.783676 -0.08735
C_ C_ 0.361332 0.827144 0.778895 -0.05681
C_ C_ 0.347959 0.815778 0.749203 0.18498
C_ C_ 0.320423 0.768621 0.743838 -0.08735
C_ C_ 0.310136 0.735505 0.765241 -0.08735
C_ C_ 0.320777 0.747927 0.793757 -0.08735
C_ C_ 0.344229 0.794195 0.801394 0.18498
C_ C_ 0.311589 0.81616 0.848648 0.44287
C_ C_ 0.399542 0.797471 0.843079 0.44287
C_ C_ 0.407417 0.806385 0.872683 -0.05681
C_ C_ 0.456448 0.803287 0.884966 -0.08735
C_ C_ 0.463211 0.812201 0.914248 -0.08735
C_ C_ 0.420916 0.811545 0.933694 -0.05681
C_ C_ 0.37136 0.813566 0.920763 -0.05681
C_ C_ 0.365386 0.812043 0.890799 -0.05681
C_ C_ 0.316606 0.822039 0.878494 -0.05681
C_ C_ 0.27571 0.831855 0.897174 -0.08735
C_ C_ 0.28027 0.829168 0.927087 -0.08735
C_ C_ 0.329883 0.821101 0.938333 -0.05681
C_ C_ 0.338385 0.825711 0.969536 0.44287
C_ C_ 0.425788 0.813193 0.963383 0.44287
C_ C_ 0.392756 0.849775 0.507877 0.18498
C_ C_ 0.427954 0.889276 0.514178 -0.08735
C_ C_ 0.443824 0.893845 0.542433 -0.08735
C_ C_ 0.416789 0.87328 0.564597 -0.08735
C_ C_ 0.378874 0.837594 0.559775 0.18498
C_ C_ 0.366738 0.823275 0.531039 -0.05681
C_ C_ 0.338605 0.779004 0.52622 -0.08735
C_ C_ 0.316935 0.75517 0.548672 -0.08735
C_ C_ 0.323157 0.775856 0.576442 0.1947
N_ N_ 0.132065 0.666429 0.982241 -0.29468
N_ N_ 0.13791 0.688868 0.58362 -0.17154
N_ N_ 0.103439 0.666943 0.733664 -0.17154
N_ N_ 0.128903 0.701084 0.837916 -0.29468
N_ N_ 0.368139 0.844548 0.727244 -0.29468
N_ N_ 0.352001 0.804138 0.831407 -0.17154
N_ N_ 0.38607 0.824108 0.980851 -0.17154
N_ N_ 0.357932 0.81296 0.582325 -0.29468
O_ O_ 0.209611 0.688913 0.931093 -0.58347
O_ O_ 0.197983 0.698234 0.884965 -0.58347
O_ O_ 0.120794 0.756173 0.938144 -0.58347
O_ O_ 0.110633 0.762777 0.890942 -0.58347
O_ O_ 0.142523 0.609007 0.926347 -0.58347
O_ O_ 0.136955 0.615702 0.879262 -0.58347
O_ O_ 0.0581516 0.670242 0.933953 -0.58347
O_ O_ 0.0482883 0.673913 0.887171 -0.58347
O_ O_ 0.0549428 0.712147 0.581228 -0.46727
O_ O_ 0.224218 0.686015 0.589884 -0.46727
O_ O_ 0.0174376 0.675734 0.7288 -0.46727
O_ O_ 0.189612 0.649838 0.739291 -0.46727
O_ O_ 0.286837 0.83334 0.679642 -0.58347
O_ O_ 0.292795 0.813652 0.634692 -0.58347
O_ O_ 0.360549 0.754803 0.677637 -0.58347
O_ O_ 0.377055 0.744519 0.632785 -0.58347
O_ O_ 0.362867 0.906503 0.67446 -0.58347
O_ O_ 0.358132 0.897629 0.626936 -0.58347
O_ O_ 0.437298 0.831321 0.679765 -0.58347
O_ O_ 0.443453 0.826896 0.632734 -0.58347
O_ O_ 0.438325 0.778612 0.827664 -0.46727
O_ O_ 0.266024 0.814397 0.838043 -0.46727
O_ O_ 0.470786 0.807439 0.974662 -0.46727
O_ O_ 0.303404 0.847755 0.984898 -0.46727
Zn Zn 0.641935 0.184292 0.381133 0.90689
Zn Zn 0.649216 0.17711 0.432413 0.90689
Zn Zn 0.877389 0.318212 0.13143 0.90689
Zn Zn 0.866823 0.327238 0.178178 0.90689
H_ H_ 0.821358 0.183097 0.447282 0.11455
H_ H_ 0.896004 0.172202 0.348662 0.11455
H_ H_ 0.799721 0.164117 0.355668 0.11455
H_ H_ 0.906123 0.173742 0.466349 0.11455
H_ H_ 0.990774 0.171925 0.46077 0.11455
H_ H_ 0.974496 0.182123 0.370138 0.11455
H_ H_ 0.655334 0.0140942 0.437692 0.11455
H_ H_ 0.624469 0.425691 0.350443 0.11455
H_ H_ 0.62295 0.0202402 0.347339 0.11455
H_ H_ 0.656007 0.430037 0.467573 0.11455
H_ H_ 0.652724 0.3396 0.464841 0.11455
H_ H_ 0.634516 0.344861 0.372911 0.11455
H_ H_ 0.595096 0.0896127 0.465281 0.11455
H_ H_ 0.5639 0.0893612 0.0176139 0.11455
H_ H_ 0.597503 0.140351 0.0578823 0.11455
H_ H_ 0.708724 0.233156 0.478134 0.11455
H_ H_ 0.714287 0.313424 0.00848398 0.11455
H_ H_ 0.711207 0.287015 0.0601438 0.11455
H_ H_ 0.523175 0.221801 0.121468 0.11455
H_ H_ 0.513609 0.215735 0.172196 0.11455
H_ H_ 0.772924 0.171625 0.137881 0.11455
H_ H_ 0.761195 0.166862 0.187828 0.11455
H_ H_ 0.575177 0.110791 0.242856 0.11455
H_ H_ 0.531928 0.096374 0.29038 0.11455
H_ H_ 0.559828 0.141185 0.333747 0.11455
H_ H_ 0.671544 0.260235 0.258744 0.11455
H_ H_ 0.694924 0.307026 0.303975 0.11455
H_ H_ 0.688709 0.267287 0.351119 0.11455
H_ H_ 0.697161 0.333131 0.192285 0.11455
H_ H_ 0.632305 0.337023 0.0918499 0.11455
H_ H_ 0.724364 0.323176 0.102982 0.11455
H_ H_ 0.608264 0.335632 0.210412 0.11455
H_ H_ 0.516443 0.321903 0.202056 0.11455
H_ H_ 0.545769 0.345086 0.111811 0.11455
H_ H_ 0.880939 0.492017 0.194235 0.11455
H_ H_ 0.871238 0.0678584 0.0969298 0.11455
H_ H_ 0.864493 0.483758 0.100233 0.11455
H_ H_ 0.885009 0.0792458 0.214593 0.11455
H_ H_ 0.890257 0.167646 0.209861 0.11455
H_ H_ 0.878151 0.150399 0.117707 0.11455
H_ H_ 0.924857 0.400383 0.215858 0.11455
H_ H_ 0.939186 0.425826 0.267104 0.11455
H_ H_ 0.908152 0.373751 0.306101 0.11455
H_ H_ 0.815063 0.259765 0.221895 0.11455
H_ H_ 0.796218 0.19566 0.25859 0.11455
H_ H_ 0.823113 0.214581 0.309589 0.11455
H_ H_ 1.00084 0.304559 0.373983 0.11455
H_ H_ 0.00510245 0.307078 0.425792 0.11455
H_ H_ 0.744067 0.326071 0.382915 0.11455
H_ H_ 0.751885 0.337721 0.435031 0.11455
H_ H_ 0.921855 0.422819 0.50341 0.11455
H_ H_ 0.962038 0.434 0.0411543 0.11455
H_ H_ 0.926619 0.391562 0.0837346 0.11455
H_ H_ 0.839674 0.258776 0.00692423 0.11455
H_ H_ 0.817092 0.21143 0.0467444 0.11455
H_ H_ 0.838054 0.23524 0.0972039 0.11455
C_ C_ 0.746643 0.186704 0.405696 0.68181
C_ C_ 0.804413 0.184365 0.401817 -0.05681
C_ C_ 0.836598 0.180252 0.425655 -0.08735
C_ C_ 0.887107 0.176054 0.421844 -0.05681
C_ C_ 0.909167 0.177691 0.39466 -0.05681
C_ C_ 0.877044 0.172204 0.370901 -0.08735
C_ C_ 0.824512 0.176876 0.373829 -0.08735
C_ C_ 0.917708 0.172742 0.445698 -0.08735
C_ C_ 0.969429 0.170056 0.441585 -0.08735
C_ C_ 0.993169 0.1649 0.415049 -0.05681
C_ C_ 0.959772 0.171628 0.391157 -0.08735
C_ C_ 0.637453 0.277428 0.418303 0.68181
C_ C_ 0.647849 0.0838491 0.394658 0.68181
C_ C_ 0.643131 0.0265564 0.392088 -0.05681
C_ C_ 0.639924 0.497004 0.423783 -0.08735
C_ C_ 0.637852 0.443663 0.423163 -0.05681
C_ C_ 0.631566 0.418132 0.39662 -0.05681
C_ C_ 0.627879 0.446416 0.370515 -0.08735
C_ C_ 0.632748 0.499272 0.371145 -0.08735
C_ C_ 0.650167 0.413343 0.44683 -0.08735
C_ C_ 0.645048 0.36112 0.446275 -0.08735
C_ C_ 0.63936 0.334844 0.420144 -0.05681
C_ C_ 0.632266 0.364823 0.395072 -0.08735
C_ C_ 0.545671 0.172333 0.407753 0.68181
C_ C_ 0.607297 0.115845 0.483357 0.1947
C_ C_ 0.592755 0.118245 0.0136596 -0.08735
C_ C_ 0.611736 0.147253 0.0359674 -0.08735
C_ C_ 0.639671 0.191401 0.0305453 -0.05681
C_ C_ 0.647547 0.206047 1.000773034 0.18498
C_ C_ 0.691863 0.223484 0.498422 -0.08735
C_ C_ 0.693808 0.280945 0.0147933 -0.08735
C_ C_ 0.694214 0.265027 0.0436109 -0.08735
C_ C_ 0.66512 0.221482 0.0523899 0.18498
C_ C_ 0.699838 0.202764 0.0991298 0.44287
C_ C_ 0.609867 0.219828 0.0934304 0.44287
C_ C_ 0.603364 0.216856 0.123374 -0.05681
C_ C_ 0.556089 0.215868 0.135955 -0.08735
C_ C_ 0.550115 0.217746 0.164745 -0.08735
C_ C_ 0.590647 0.204485 0.183446 -0.05681
C_ C_ 0.639709 0.199032 0.170404 -0.05681
C_ C_ 0.645504 0.205106 0.140275 -0.05681
C_ C_ 0.695747 0.202391 0.128879 -0.05681
C_ C_ 0.735403 0.183461 0.146537 -0.08735
C_ C_ 0.729031 0.176112 0.176009 -0.08735
C_ C_ 0.681807 0.186343 0.189125 -0.05681
C_ C_ 0.673311 0.181241 0.218295 0.44287
C_ C_ 0.588772 0.205742 0.213225 0.44287
C_ C_ 0.619107 0.172483 0.258931 0.18498
C_ C_ 0.589753 0.128954 0.262227 -0.08735
C_ C_ 0.567021 0.118932 0.289203 -0.08735
C_ C_ 0.582268 0.145286 0.314555 -0.08735
C_ C_ 0.617233 0.185844 0.311322 0.18498
C_ C_ 0.631334 0.203365 0.282956 -0.05681
C_ C_ 0.660601 0.246191 0.280387 -0.08735
C_ C_ 0.680646 0.269311 0.304463 -0.08735
C_ C_ 0.673979 0.248065 0.332404 0.1947
C_ C_ 0.774253 0.317824 0.15235 0.68181
C_ C_ 0.717884 0.324199 0.147457 -0.05681
C_ C_ 0.682771 0.324001 0.170618 -0.08735
C_ C_ 0.630391 0.336364 0.165405 -0.05681
C_ C_ 0.612411 0.3398 0.137258 -0.05681
C_ C_ 0.646664 0.338158 0.114282 -0.08735
C_ C_ 0.69985 0.335217 0.119666 -0.08735
C_ C_ 0.595988 0.330936 0.188401 -0.08735
C_ C_ 0.542124 0.333289 0.183919 -0.08735
C_ C_ 0.523649 0.332782 0.156226 -0.05681
C_ C_ 0.559666 0.339459 0.132773 -0.08735
C_ C_ 0.88046 0.223976 0.161363 0.68181
C_ C_ 0.869958 0.424203 0.151427 0.68181
C_ C_ 0.87462 0.479749 0.14786 -0.05681
C_ C_ 0.872562 0.00936545 0.171919 -0.08735
C_ C_ 0.886348 0.0607388 0.169643 -0.05681
C_ C_ 0.883855 0.081558 0.140742 -0.05681
C_ C_ 0.87866 0.0504081 0.117092 -0.08735
C_ C_ 0.873515 0.505718 0.120891 -0.08735
C_ C_ 0.887159 0.0937183 0.193336 -0.08735
C_ C_ 0.888578 0.146552 0.190595 -0.08735
C_ C_ 0.886079 0.167379 0.163747 -0.05681
C_ C_ 0.880706 0.134636 0.138474 -0.08735
C_ C_ 0.972788 0.327689 0.156707 0.68181
C_ C_ 0.906886 0.38044 0.23366 0.1947
C_ C_ 0.919641 0.391647 0.261126 -0.08735
C_ C_ 0.90392 0.361169 0.283666 -0.08735
C_ C_ 0.874847 0.317191 0.278267 -0.05681
C_ C_ 0.861944 0.307697 0.250613 0.18498
C_ C_ 0.831694 0.265002 0.243544 -0.08735
C_ C_ 0.816949 0.230907 0.264731 -0.08735
C_ C_ 0.827007 0.241553 0.293503 -0.08735
C_ C_ 0.857001 0.283913 0.300283 0.18498
C_ C_ 0.821286 0.309315 0.347385 0.44287
C_ C_ 0.911623 0.297792 0.343795 0.44287
C_ C_ 0.918157 0.307356 0.373935 -0.05681
C_ C_ 0.966363 0.308371 0.386692 -0.08735
C_ C_ 0.969137 0.308604 0.416463 -0.08735
C_ C_ 0.926411 0.318858 0.43352 -0.05681
C_ C_ 0.879562 0.32408 0.420574 -0.05681
C_ C_ 0.874866 0.313368 0.391217 -0.05681
C_ C_ 0.826497 0.31972 0.377008 -0.05681
C_ C_ 0.781486 0.326911 0.393832 -0.08735
C_ C_ 0.787076 0.334751 0.423223 -0.08735
C_ C_ 0.835 0.334099 0.437524 -0.05681
C_ C_ 0.840804 0.339777 0.46686 0.44287
C_ C_ 0.930028 0.327389 0.463696 0.44287
C_ C_ 0.88825 0.350363 0.00640193 0.18498
C_ C_ 0.918049 0.394641 0.0111814 -0.08735
C_ C_ 0.930433 0.409148 0.0391127 -0.08735
C_ C_ 0.914318 0.380313 0.0625141 -0.08735
C_ C_ 0.888337 0.3344 0.0585372 0.18498
C_ C_ 0.874629 0.320612 0.0303541 -0.05681
C_ C_ 0.852914 0.272521 0.0276895 -0.08735
C_ C_ 0.841691 0.242939 0.050752 -0.08735
C_ C_ 0.85027 0.259486 0.0783459 0.1947
N_ N_ 0.638929 0.157017 0.479037 -0.29468
N_ N_ 0.657438 0.213878 0.0824328 -0.17154
N_ N_ 0.627951 0.190105 0.23051 -0.17154
N_ N_ 0.642003 0.206467 0.334814 -0.29468
N_ N_ 0.874693 0.339719 0.229257 -0.29468
N_ N_ 0.863312 0.29619 0.331258 -0.17154
N_ N_ 0.887359 0.333514 0.479966 -0.17154
N_ N_ 0.873138 0.305706 0.0821556 -0.29468
O_ O_ 0.725523 0.184613 0.429949 -0.58347
O_ O_ 0.720175 0.192189 0.383359 -0.58347
O_ O_ 0.641142 0.250119 0.440807 -0.58347
O_ O_ 0.632365 0.256791 0.394372 -0.58347
O_ O_ 0.655813 0.105275 0.419115 -0.58347
O_ O_ 0.650396 0.110899 0.371993 -0.58347
O_ O_ 0.572813 0.166556 0.429867 -0.58347
O_ O_ 0.5662 0.172497 0.382913 -0.58347
O_ O_ 0.572828 0.233609 0.0766721 -0.46727
O_ O_ 0.743104 0.193278 0.086627 -0.46727
O_ O_ 0.548574 0.223452 0.224771 -0.46727
O_ O_ 0.711508 0.172006 0.235088 -0.46727
O_ O_ 0.793787 0.326948 0.176681 -0.58347
O_ O_ 0.80363 0.312835 0.131071 -0.58347
O_ O_ 0.874743 0.252377 0.182682 -0.58347
O_ O_ 0.886144 0.245478 0.136883 -0.58347
O_ O_ 0.86345 0.403628 0.175943 -0.58347
O_ O_ 0.870328 0.39546 0.129733 -0.58347
O_ O_ 0.945795 0.33231 0.17883 -0.58347
O_ O_ 0.952447 0.32391 0.131802 -0.58347
O_ O_ 0.951108 0.280337 0.329515 -0.46727
O_ O_ 0.779705 0.31801 0.332581 -0.46727
O_ O_ 0.973256 0.312533 0.476946 -0.46727
O_ O_ 0.803562 0.355188 0.482768 -0.46727
Zn Zn 0.615122 0.189337 0.882096 0.90689
Zn Zn 0.628216 0.181515 0.930527 0.90689
Zn Zn 0.862888 0.310866 0.632506 0.90689
Zn Zn 0.847395 0.317145 0.67834 0.90689
H_ H_ 0.801595 0.192929 0.945548 0.11455
H_ H_ 0.868049 0.187313 0.847107 0.11455
H_ H_ 0.771371 0.181803 0.852815 0.11455
H_ H_ 0.882709 0.19596 0.963993 0.11455
H_ H_ 0.974082 0.184515 0.957996 0.11455
H_ H_ 0.957468 0.18891 0.867329 0.11455
H_ H_ 0.652293 0.0225991 0.942126 0.11455
H_ H_ 0.634935 0.43852 0.849048 0.11455
H_ H_ 0.613323 0.0300363 0.853339 0.11455
H_ H_ 0.582509 0.437478 0.963019 0.11455
H_ H_ 0.589724 0.3424 0.962851 0.11455
H_ H_ 0.628299 0.353156 0.872424 0.11455
H_ H_ 0.584775 0.110659 0.968304 0.11455
H_ H_ 0.569882 0.0651862 0.513108 0.11455
H_ H_ 0.594193 0.116689 0.55551 0.11455
H_ H_ 0.688209 0.253971 0.971786 0.11455
H_ H_ 0.732428 0.283658 0.518932 0.11455
H_ H_ 0.705657 0.262952 0.566304 0.11455
H_ H_ 0.509693 0.206929 0.623148 0.11455
H_ H_ 0.498616 0.197683 0.674397 0.11455
H_ H_ 0.756022 0.149616 0.640873 0.11455
H_ H_ 0.743175 0.134905 0.691352 0.11455
H_ H_ 0.553229 0.089144 0.753772 0.11455
H_ H_ 0.536824 0.0717964 0.805406 0.11455
H_ H_ 0.558336 0.130544 0.84051 0.11455
H_ H_ 0.659576 0.23702 0.755488 0.11455
H_ H_ 0.689069 0.29361 0.794206 0.11455
H_ H_ 0.680223 0.264801 0.844633 0.11455
H_ H_ 0.682869 0.297717 0.695773 0.11455
H_ H_ 0.616984 0.323919 0.594853 0.11455
H_ H_ 0.708136 0.319911 0.606873 0.11455
H_ H_ 0.592729 0.294681 0.711729 0.11455
H_ H_ 0.505754 0.32454 0.705875 0.11455
H_ H_ 0.529009 0.326406 0.614558 0.11455
H_ H_ 0.857921 0.480612 0.691957 0.11455
H_ H_ 0.852943 0.0607361 0.59489 0.11455
H_ H_ 0.835861 0.47318 0.601003 0.11455
H_ H_ 0.858278 0.0653407 0.713889 0.11455
H_ H_ 0.849998 0.156859 0.709464 0.11455
H_ H_ 0.867867 0.1444 0.618041 0.11455
H_ H_ 0.900566 0.395827 0.713728 0.11455
H_ H_ 0.899421 0.431974 0.76111 0.11455
H_ H_ 0.8521 0.394852 0.799647 0.11455
H_ H_ 0.798102 0.244352 0.723513 0.11455
H_ H_ 0.766183 0.195689 0.764619 0.11455
H_ H_ 0.781498 0.232405 0.812904 0.11455
H_ H_ 0.968652 0.289376 0.866253 0.11455
H_ H_ -0.01832800000000001 0.30771 0.918457 0.11455
H_ H_ 0.719666 0.333032 0.890677 0.11455
H_ H_ 0.734095 0.345504 0.940021 0.11455
H_ H_ 0.930583 0.414878 0.992313 0.11455
H_ H_ 0.947458 0.436891 0.553081 0.11455
H_ H_ 0.914314 0.379135 0.592356 0.11455
H_ H_ 0.866666 0.245455 0.506365 0.11455
H_ H_ 0.835059 0.1917 0.545473 0.11455
H_ H_ 0.826537 0.223928 0.5947 0.11455
C_ C_ 0.721837 0.19884 0.904124 0.68181
C_ C_ 0.779298 0.191803 0.899322 -0.05681
C_ C_ 0.812422 0.189079 0.923425 -0.08735
C_ C_ 0.866317 0.187396 0.920027 -0.05681
C_ C_ 0.885759 0.186595 0.892312 -0.05681
C_ C_ 0.852521 0.188353 0.86779 -0.08735
C_ C_ 0.799132 0.188551 0.871197 -0.08735
C_ C_ 0.897641 0.187474 0.943575 -0.08735
C_ C_ 0.950541 0.18375 0.940057 -0.08735
C_ C_ 0.971453 0.182972 0.911908 -0.05681
C_ C_ 0.938888 0.182276 0.888323 -0.08735
C_ C_ 0.611093 0.284749 0.912722 0.68181
C_ C_ 0.626112 0.0891259 0.901375 0.68181
C_ C_ 0.62744 0.032143 0.899479 -0.05681
C_ C_ 0.61751 0.498377 0.923593 -0.08735
C_ C_ 0.611279 0.447314 0.921333 -0.05681
C_ C_ 0.621282 0.423699 0.895298 -0.05681
C_ C_ 0.630606 0.453588 0.870492 -0.08735
C_ C_ 0.625084 0.505142 0.873248 -0.08735
C_ C_ 0.59824 0.417559 0.944315 -0.08735
C_ C_ 0.596963 0.363888 0.942743 -0.08735
C_ C_ 0.605064 0.340017 0.915185 -0.05681
C_ C_ 0.61588 0.370201 0.89201 -0.08735
C_ C_ 0.525307 0.174362 0.907456 0.68181
C_ C_ 0.599985 0.134691 0.984896 0.1947
C_ C_ 0.590724 0.102433 0.510618 -0.08735
C_ C_ 0.606918 0.131111 0.534272 -0.08735
C_ C_ 0.641089 0.171167 0.531117 -0.05681
C_ C_ 0.655129 0.185319 0.502599 0.18498
C_ C_ 0.675186 0.247935 0.993807 -0.08735
C_ C_ 0.707936 0.251968 0.522272 -0.08735
C_ C_ 0.686983 0.243955 0.548992 -0.08735
C_ C_ 0.658446 0.200579 0.554653 0.18498
C_ C_ 0.688344 0.177377 0.601617 0.44287
C_ C_ 0.601542 0.197421 0.594646 0.44287
C_ C_ 0.590276 0.183697 0.623812 -0.05681
C_ C_ 0.542048 0.194764 0.635375 -0.08735
C_ C_ 0.535229 0.190593 0.664479 -0.08735
C_ C_ 0.576062 0.184915 0.684022 -0.05681
C_ C_ 0.624744 0.173102 0.671928 -0.05681
C_ C_ 0.630986 0.172496 0.641981 -0.05681
C_ C_ 0.679422 0.166228 0.630674 -0.05681
C_ C_ 0.719022 0.153158 0.64915 -0.08735
C_ C_ 0.7118 0.14402 0.678559 -0.08735
C_ C_ 0.663201 0.156154 0.690321 -0.05681
C_ C_ 0.651637 0.151051 0.719325 0.44287
C_ C_ 0.570683 0.185152 0.713681 0.44287
C_ C_ 0.597698 0.156245 0.761359 0.18498
C_ C_ 0.569566 0.113095 0.770464 -0.08735
C_ C_ 0.559488 0.102596 0.79877 -0.08735
C_ C_ 0.569514 0.137711 0.819179 -0.08735
C_ C_ 0.602627 0.178733 0.813425 0.18498
C_ C_ 0.615582 0.189636 0.784624 -0.05681
C_ C_ 0.650383 0.229065 0.778185 -0.08735
C_ C_ 0.667492 0.258875 0.799964 -0.08735
C_ C_ 0.659052 0.245835 0.828096 0.1947
C_ C_ 0.757322 0.306174 0.655215 0.68181
C_ C_ 0.701603 0.30389 0.65173 -0.05681
C_ C_ 0.666287 0.301561 0.674034 -0.08735
C_ C_ 0.614943 0.308652 0.668126 -0.05681
C_ C_ 0.597536 0.31909 0.640217 -0.05681
C_ C_ 0.630346 0.323822 0.617582 -0.08735
C_ C_ 0.682188 0.313305 0.623464 -0.08735
C_ C_ 0.581836 0.310715 0.690932 -0.08735
C_ C_ 0.530849 0.321769 0.687391 -0.08735
C_ C_ 0.511555 0.325212 0.658743 -0.05681
C_ C_ 0.546083 0.324813 0.635093 -0.08735
C_ C_ 0.859729 0.215022 0.660565 0.68181
C_ C_ 0.845306 0.412917 0.648451 0.68181
C_ C_ 0.842755 0.467629 0.64735 -0.05681
C_ C_ 0.858113 -0.0011130000000000306 0.670491 -0.08735
C_ C_ 0.852751 0.0517179 0.667726 -0.05681
C_ C_ 0.857538 0.0734682 0.640705 -0.05681
C_ C_ 0.859032 0.0434069 0.615898 -0.08735
C_ C_ 0.83933 0.492722 0.620792 -0.08735
C_ C_ 0.849277 0.0825374 0.692726 -0.08735
C_ C_ 0.854667 0.13527 0.689694 -0.08735
C_ C_ 0.856204 0.15977 0.662809 -0.05681
C_ C_ 0.85913 0.127292 0.638789 -0.08735
C_ C_ 0.95312 0.319219 0.658755 0.68181
C_ C_ 0.877216 0.379364 0.730489 0.1947
C_ C_ 0.878305 0.398272 0.757136 -0.08735
C_ C_ 0.851163 0.37506 0.779308 -0.08735
C_ C_ 0.833714 0.327137 0.776253 -0.05681
C_ C_ 0.826437 0.308999 0.747485 0.18498
C_ C_ 0.798479 0.263011 0.743782 -0.08735
C_ C_ 0.78444 0.232179 0.767413 -0.08735
C_ C_ 0.794558 0.25156 0.795608 -0.08735
C_ C_ 0.818025 0.298533 0.800541 0.18498
C_ C_ 0.792105 0.326057 0.848441 0.44287
C_ C_ 0.881223 0.304195 0.840094 0.44287
C_ C_ 0.889908 0.310689 0.869934 -0.05681
C_ C_ 0.93908 0.307304 0.880767 -0.08735
C_ C_ 0.944514 0.311847 0.910581 -0.08735
C_ C_ 0.90432 0.323206 0.928151 -0.05681
C_ C_ 0.854609 0.319798 0.918021 -0.05681
C_ C_ 0.847587 0.323661 0.888816 -0.05681
C_ C_ 0.799563 0.328528 0.877787 -0.05681
C_ C_ 0.75821 0.334779 0.897827 -0.08735
C_ C_ 0.765564 0.336379 0.927114 -0.08735
C_ C_ 0.814091 0.329276 0.937793 -0.05681
C_ C_ 0.825168 0.338847 0.966912 0.44287
C_ C_ 0.912563 0.325179 0.957928 0.44287
C_ C_ 0.893601 0.345672 0.510898 0.18498
C_ C_ 0.910529 0.393474 0.519809 -0.08735
C_ C_ 0.92061 0.405205 0.548314 -0.08735
C_ C_ 0.905707 0.370985 0.570311 -0.08735
C_ C_ 0.881061 0.326907 0.563028 0.18498
C_ C_ 0.876274 0.312285 0.533688 -0.05681
C_ C_ 0.860019 0.263168 0.527757 -0.08735
C_ C_ 0.847745 0.230664 0.550016 -0.08735
C_ C_ 0.847564 0.247816 0.578166 0.1947
N_ N_ 0.625656 0.179059 0.978752 -0.29468
N_ N_ 0.647926 0.188715 0.583558 -0.17154
N_ N_ 0.606272 0.162728 0.73085 -0.17154
N_ N_ 0.625582 0.206595 0.834804 -0.29468
N_ N_ 0.852386 0.333846 0.725248 -0.29468
N_ N_ 0.831678 0.312254 0.829967 -0.17154
N_ N_ 0.874794 0.338888 0.976952 -0.17154
N_ N_ 0.864578 0.29542 0.584609 -0.29468
O_ O_ 0.704193 0.193915 0.929497 -0.58347
O_ O_ 0.69044 0.198876 0.883574 -0.58347
O_ O_ 0.620793 0.257719 0.934722 -0.58347
O_ O_ 0.605044 0.264068 0.88859 -0.58347
O_ O_ 0.634602 0.111731 0.924398 -0.58347
O_ O_ 0.623191 0.115919 0.878999 -0.58347
O_ O_ 0.551796 0.166272 0.929278 -0.58347
O_ O_ 0.542231 0.180126 0.882584 -0.58347
O_ O_ 0.567778 0.219899 0.57783 -0.46727
O_ O_ 0.734296 0.17819 0.590244 -0.46727
O_ O_ 0.52651 0.19936 0.723234 -0.46727
O_ O_ 0.687875 0.133592 0.736536 -0.46727
O_ O_ 0.776117 0.317731 0.679591 -0.58347
O_ O_ 0.786804 0.304847 0.633561 -0.58347
O_ O_ 0.850487 0.242504 0.68247 -0.58347
O_ O_ 0.871637 0.235782 0.636374 -0.58347
O_ O_ 0.847271 0.391282 0.672399 -0.58347
O_ O_ 0.853814 0.388735 0.625476 -0.58347
O_ O_ 0.923647 0.316365 0.680398 -0.58347
O_ O_ 0.935771 0.320281 0.634133 -0.58347
O_ O_ 0.917165 0.287729 0.82264 -0.46727
O_ O_ 0.749048 0.338322 0.838447 -0.46727
O_ O_ 0.954724 0.307553 0.968796 -0.46727
O_ O_ 0.788718 0.343356 0.985916 -0.46727
Zn Zn 0.630515 0.683926 0.383399 0.90689
Zn Zn 0.641958 0.678607 0.432834 0.90689
Zn Zn 0.8738 0.819528 0.133548 0.90689
Zn Zn 0.865203 0.826364 0.17929 0.90689
H_ H_ 0.803573 0.686936 0.443666 0.11455
H_ H_ 0.875618 0.683568 0.345158 0.11455
H_ H_ 0.786262 0.670804 0.353812 0.11455
H_ H_ 0.885154 0.657584 0.463724 0.11455
H_ H_ 0.978046 0.654282 0.457757 0.11455
H_ H_ 0.96515 0.662694 0.365109 0.11455
H_ H_ 0.650161 0.516859 0.443512 0.11455
H_ H_ 0.609259 0.929652 0.347946 0.11455
H_ H_ 0.620002 0.520048 0.351678 0.11455
H_ H_ 0.65451 0.932483 0.463676 0.11455
H_ H_ 0.640373 0.84032 0.461448 0.11455
H_ H_ 0.625263 0.846055 0.368099 0.11455
H_ H_ 0.599318 0.598714 0.470661 0.11455
H_ H_ 0.568104 0.575036 0.0213691 0.11455
H_ H_ 0.598932 0.626556 0.0601525 0.11455
H_ H_ 0.701901 0.740855 0.471973 0.11455
H_ H_ 0.722823 0.797315 0.0131698 0.11455
H_ H_ 0.700902 0.777408 0.0640353 0.11455
H_ H_ 0.513902 0.715555 0.128014 0.11455
H_ H_ 0.501214 0.6937 0.17597 0.11455
H_ H_ 0.763046 0.672811 0.136817 0.11455
H_ H_ 0.754073 0.659091 0.189509 0.11455
H_ H_ 0.575324 0.580516 0.252409 0.11455
H_ H_ 0.566806 0.552256 0.301004 0.11455
H_ H_ 0.580173 0.615054 0.340154 0.11455
H_ H_ 0.648747 0.746093 0.256644 0.11455
H_ H_ 0.67921 0.796614 0.297728 0.11455
H_ H_ 0.670426 0.771568 0.344808 0.11455
H_ H_ 0.695986 0.802181 0.198785 0.11455
H_ H_ 0.630598 0.835365 0.102644 0.11455
H_ H_ 0.723153 0.834998 0.111026 0.11455
H_ H_ 0.60386 0.805062 0.21977 0.11455
H_ H_ 0.518265 0.814444 0.209855 0.11455
H_ H_ 0.543515 0.84146 0.120593 0.11455
H_ H_ 0.868726 0.995344 0.193743 0.11455
H_ H_ 0.872718 0.576101 0.0980668 0.11455
H_ H_ 0.8631 0.97942 0.100494 0.11455
H_ H_ 0.89344 0.573523 0.216767 0.11455
H_ H_ 0.889902 0.669856 0.213208 0.11455
H_ H_ 0.86136 0.652847 0.122335 0.11455
H_ H_ 0.930664 0.892443 0.212764 0.11455
H_ H_ 0.947391 0.922554 0.261849 0.11455
H_ H_ 0.902229 0.884022 0.303268 0.11455
H_ H_ 0.799402 0.773347 0.222957 0.11455
H_ H_ 0.771397 0.715919 0.261944 0.11455
H_ H_ 0.787964 0.739128 0.311984 0.11455
H_ H_ 0.981262 0.77526 0.373431 0.11455
H_ H_ 0.00153069 0.795754 0.422883 0.11455
H_ H_ 0.742435 0.862117 0.387871 0.11455
H_ H_ 0.758338 0.874535 0.439109 0.11455
H_ H_ 0.95564 0.905143 0.501066 0.11455
H_ H_ 0.954813 0.929122 0.0470011 0.11455
H_ H_ 0.923735 0.884396 0.0884727 0.11455
H_ H_ 0.83808 0.744891 0.0101953 0.11455
H_ H_ 0.817055 0.700429 0.0526611 0.11455
H_ H_ 0.840881 0.72743 0.100399 0.11455
C_ C_ 0.734229 0.687111 0.402867 0.68181
C_ C_ 0.787425 0.68718 0.398706 -0.05681
C_ C_ 0.82187 0.684275 0.422576 -0.08735
C_ C_ 0.871891 0.672914 0.418828 -0.05681
C_ C_ 0.894726 0.674327 0.390728 -0.05681
C_ C_ 0.863177 0.681648 0.366683 -0.08735
C_ C_ 0.809916 0.676348 0.371891 -0.08735
C_ C_ 0.902634 0.666988 0.442924 -0.08735
C_ C_ 0.954056 0.660202 0.438731 -0.08735
C_ C_ 0.977424 0.664968 0.411261 -0.05681
C_ C_ 0.947595 0.666009 0.386857 -0.08735
C_ C_ 0.627426 0.780233 0.413743 0.68181
C_ C_ 0.640416 0.580804 0.39974 0.68181
C_ C_ 0.63723 0.524364 0.397652 -0.05681
C_ C_ 0.648599 0.996517 0.418187 -0.08735
C_ C_ 0.639861 0.942472 0.417835 -0.05681
C_ C_ 0.632376 0.917227 0.391639 -0.05681
C_ C_ 0.622248 0.947535 0.367733 -0.08735
C_ C_ 0.629831 1.000101952 0.367346 -0.08735
C_ C_ 0.644328 0.913264 0.443818 -0.08735
C_ C_ 0.638127 0.860879 0.441755 -0.08735
C_ C_ 0.631415 0.835751 0.414728 -0.05681
C_ C_ 0.630167 0.863305 0.389533 -0.08735
C_ C_ 0.535415 0.676793 0.411674 0.68181
C_ C_ 0.6214 0.617039 0.488452 0.1947
C_ C_ 0.589144 0.611588 0.0157943 -0.08735
C_ C_ 0.607882 0.640367 0.0380406 -0.08735
C_ C_ 0.635711 0.684463 0.0314537 -0.05681
C_ C_ 0.648602 0.694854 1.00232618 0.18498
C_ C_ 0.691161 0.735112 0.494401 -0.08735
C_ C_ 0.69541 0.768609 0.0186063 -0.08735
C_ C_ 0.684664 0.758363 0.0476233 -0.08735
C_ C_ 0.651857 0.717353 0.0543552 0.18498
C_ C_ 0.685682 0.687391 0.0997948 0.44287
C_ C_ 0.59932 0.710689 0.0962968 0.44287
C_ C_ 0.592631 0.699143 0.126309 -0.05681
C_ C_ 0.545705 0.702479 0.139407 -0.08735
C_ C_ 0.539197 0.694763 0.169086 -0.08735
C_ C_ 0.581873 0.686619 0.18617 -0.05681
C_ C_ 0.630066 0.682242 0.172466 -0.05681
C_ C_ 0.635402 0.693153 0.143641 -0.05681
C_ C_ 0.683797 0.68617 0.130565 -0.05681
C_ C_ 0.727048 0.678917 0.147033 -0.08735
C_ C_ 0.721375 0.668427 0.17595 -0.08735
C_ C_ 0.672766 0.668343 0.188244 -0.05681
C_ C_ 0.667699 0.660044 0.218132 0.44287
C_ C_ 0.579675 0.68165 0.216346 0.44287
C_ C_ 0.612573 0.651698 0.261078 0.18498
C_ C_ 0.592404 0.604271 0.268069 -0.08735
C_ C_ 0.581443 0.591 0.297028 -0.08735
C_ C_ 0.592217 0.624545 0.318635 -0.08735
C_ C_ 0.622231 0.666799 0.312766 0.18498
C_ C_ 0.628407 0.683237 0.283593 -0.05681
C_ C_ 0.648694 0.731165 0.277969 -0.08735
C_ C_ 0.658897 0.763537 0.3003 -0.08735
C_ C_ 0.652157 0.74724 0.328784 0.1947
C_ C_ 0.770978 0.814761 0.159475 0.68181
C_ C_ 0.71582 0.817588 0.155662 -0.05681
C_ C_ 0.680938 0.81117 0.179083 -0.08735
C_ C_ 0.627571 0.815017 0.174614 -0.05681
C_ C_ 0.609436 0.827947 0.147453 -0.05681
C_ C_ 0.644125 0.83071 0.12409 -0.08735
C_ C_ 0.696485 0.825142 0.128092 -0.08735
C_ C_ 0.593928 0.809712 0.19771 -0.08735
C_ C_ 0.543711 0.821775 0.193381 -0.08735
C_ C_ 0.52323 0.828693 0.165988 -0.05681
C_ C_ 0.557533 0.83449 0.142231 -0.08735
C_ C_ 0.876495 0.724325 0.164413 0.68181
C_ C_ 0.863999 0.921285 0.14883 0.68181
C_ C_ 0.868475 0.977805 0.147156 -0.05681
C_ C_ 0.881916 0.507452 0.173159 -0.08735
C_ C_ 0.884476 0.560537 0.171343 -0.05681
C_ C_ 0.879806 0.585358 0.144701 -0.05681
C_ C_ 0.87795 0.558007 0.119241 -0.08735
C_ C_ 0.871508 1.000618636 0.119844 -0.08735
C_ C_ 0.884881 0.590744 0.196277 -0.08735
C_ C_ 0.890366 0.643839 0.194107 -0.08735
C_ C_ 0.879524 0.667999 0.167481 -0.05681
C_ C_ 0.868221 0.636816 0.143054 -0.08735
C_ C_ 0.969226 0.831378 0.155577 0.68181
C_ C_ 0.907617 0.877625 0.230943 0.1947
C_ C_ 0.918002 0.894442 0.259333 -0.08735
C_ C_ 0.891946 0.87322 0.28192 -0.08735
C_ C_ 0.860062 0.830692 0.277263 -0.05681
C_ C_ 0.851016 0.81578 0.248156 0.18498
C_ C_ 0.813734 0.779163 0.243379 -0.08735
C_ C_ 0.794488 0.749899 0.265858 -0.08735
C_ C_ 0.804896 0.761174 0.294168 -0.08735
C_ C_ 0.83934 0.800722 0.300807 0.18498
C_ C_ 0.81046 0.82906 0.347806 0.44287
C_ C_ 0.893558 0.794914 0.343553 0.44287
C_ C_ 0.902958 0.800382 0.372765 -0.05681
C_ C_ 0.951124 0.791258 0.385497 -0.08735
C_ C_ 0.962332 0.801501 0.414529 -0.08735
C_ C_ 0.921336 0.811074 0.43306 -0.05681
C_ C_ 0.873409 0.827262 0.421167 -0.05681
C_ C_ 0.864415 0.819567 0.391015 -0.05681
C_ C_ 0.818389 0.836112 0.37887 -0.05681
C_ C_ 0.778717 0.849446 0.397323 -0.08735
C_ C_ 0.78921 0.858194 0.426789 -0.08735
C_ C_ 0.833669 0.842972 0.439713 -0.05681
C_ C_ 0.845182 0.846207 0.469401 0.44287
C_ C_ 0.930344 0.818979 0.462878 0.44287
C_ C_ 0.888008 0.840006 0.01093 0.18498
C_ C_ 0.912973 0.886465 0.0156037 -0.08735
C_ C_ 0.926922 0.899917 0.0431045 -0.08735
C_ C_ 0.910399 0.873191 0.0672321 -0.08735
C_ C_ 0.878748 0.828569 0.063274 0.18498
C_ C_ 0.867592 0.812209 0.0354443 -0.05681
C_ C_ 0.846962 0.76204 0.0320624 -0.08735
C_ C_ 0.837045 0.7346 0.0549172 -0.08735
C_ C_ 0.844676 0.753149 0.0821889 0.1947
N_ N_ 0.642141 0.662825 0.481632 -0.29468
N_ N_ 0.645663 0.702817 0.0834332 -0.17154
N_ N_ 0.620296 0.663917 0.231504 -0.17154
N_ N_ 0.631901 0.70011 0.334602 -0.29468
N_ N_ 0.873066 0.841095 0.22626 -0.29468
N_ N_ 0.850162 0.813311 0.330473 -0.17154
N_ N_ 0.892467 0.837238 0.480522 -0.17154
N_ N_ 0.864251 0.798931 0.0863934 -0.29468
O_ O_ 0.716522 0.676091 0.42764 -0.58347
O_ O_ 0.705455 0.693425 0.380771 -0.58347
O_ O_ 0.640085 0.754879 0.435238 -0.58347
O_ O_ 0.620134 0.75653 0.391284 -0.58347
O_ O_ 0.640665 0.604922 0.424032 -0.58347
O_ O_ 0.634891 0.606857 0.376876 -0.58347
O_ O_ 0.56435 0.680896 0.433168 -0.58347
O_ O_ 0.556283 0.670509 0.387453 -0.58347
O_ O_ 0.558722 0.722038 0.0823323 -0.46727
O_ O_ 0.724083 0.667112 0.0864075 -0.46727
O_ O_ 0.535404 0.686268 0.229212 -0.46727
O_ O_ 0.706408 0.650022 0.233644 -0.46727
O_ O_ 0.791662 0.831096 0.181476 -0.58347
O_ O_ 0.799212 0.802175 0.138963 -0.58347
O_ O_ 0.864154 0.751739 0.185708 -0.58347
O_ O_ 0.89041 0.744006 0.140738 -0.58347
O_ O_ 0.866657 0.901714 0.173043 -0.58347
O_ O_ 0.860396 0.892658 0.127622 -0.58347
O_ O_ 0.941562 0.827713 0.177343 -0.58347
O_ O_ 0.948322 0.826346 0.13078 -0.58347
O_ O_ 0.929931 0.775336 0.327747 -0.46727
O_ O_ 0.769043 0.845848 0.335872 -0.46727
O_ O_ 0.972339 0.800966 0.474681 -0.46727
O_ O_ 0.810472 0.864522 0.486522 -0.46727
Zn Zn 0.624258 0.688668 0.884843 0.90689
Zn Zn 0.630196 0.678847 0.933325 0.90689
Zn Zn 0.872712 0.812606 0.632444 0.90689
Zn Zn 0.861904 0.81651 0.680341 0.90689
H_ H_ 0.79886 0.668468 0.947648 0.11455
H_ H_ 0.868268 0.671952 0.848963 0.11455
H_ H_ 0.775622 0.676922 0.856132 0.11455
H_ H_ 0.884555 0.685283 0.965714 0.11455
H_ H_ 0.979792 0.677248 0.960137 0.11455
H_ H_ 0.953447 0.666179 0.869047 0.11455
H_ H_ 0.611536 0.514592 0.943955 0.11455
H_ H_ 0.611333 0.937073 0.848756 0.11455
H_ H_ 0.626611 0.528313 0.853965 0.11455
H_ H_ 0.652499 0.935778 0.965462 0.11455
H_ H_ 0.653321 0.843742 0.964608 0.11455
H_ H_ 0.616272 0.85362 0.872407 0.11455
H_ H_ 0.581075 0.600767 0.970393 0.11455
H_ H_ 0.587889 0.571418 0.523041 0.11455
H_ H_ 0.618877 0.625235 0.561737 0.11455
H_ H_ 0.69606 0.739961 0.975313 0.11455
H_ H_ 0.714171 0.808252 0.507088 0.11455
H_ H_ 0.692562 0.792346 0.559345 0.11455
H_ H_ 0.523518 0.718665 0.62553 0.11455
H_ H_ 0.512403 0.680342 0.672487 0.11455
H_ H_ 0.771474 0.688268 0.640277 0.11455
H_ H_ 0.760891 0.656095 0.691566 0.11455
H_ H_ 0.559341 0.593049 0.751653 0.11455
H_ H_ 0.520278 0.588228 0.797849 0.11455
H_ H_ 0.553869 0.641857 0.837244 0.11455
H_ H_ 0.675591 0.736546 0.759797 0.11455
H_ H_ 0.69094 0.795678 0.799204 0.11455
H_ H_ 0.664426 0.772209 0.847435 0.11455
H_ H_ 0.686904 0.806199 0.696674 0.11455
H_ H_ 0.632384 0.855866 0.599462 0.11455
H_ H_ 0.720775 0.838621 0.607826 0.11455
H_ H_ 0.604655 0.80651 0.713371 0.11455
H_ H_ 0.51483 0.811441 0.70608 0.11455
H_ H_ 0.53657 0.840279 0.616221 0.11455
H_ H_ 0.860774 0.981079 0.691348 0.11455
H_ H_ 0.841246 0.563757 0.599141 0.11455
H_ H_ 0.857474 0.968609 0.600156 0.11455
H_ H_ 0.865822 0.55968 0.715565 0.11455
H_ H_ 0.885818 0.653106 0.711857 0.11455
H_ H_ 0.835254 0.645746 0.622502 0.11455
H_ H_ 0.905563 0.89884 0.714425 0.11455
H_ H_ 0.902577 0.94157 0.762575 0.11455
H_ H_ 0.884693 0.885381 0.804907 0.11455
H_ H_ 0.813183 0.745076 0.723488 0.11455
H_ H_ 0.81146 0.685392 0.765061 0.11455
H_ H_ 0.813407 0.714264 0.813613 0.11455
H_ H_ 0.988505 0.794341 0.87246 0.11455
H_ H_ 0.997614 0.81124 0.924157 0.11455
H_ H_ 0.734639 0.828359 0.885378 0.11455
H_ H_ 0.74548 0.839444 0.94063 0.11455
H_ H_ 0.924454 0.908768 0.997643 0.11455
H_ H_ 0.993132 0.903259 0.548777 0.11455
H_ H_ 0.950463 0.863257 0.590363 0.11455
H_ H_ 0.82711 0.770305 0.50948 0.11455
H_ H_ 0.785266 0.731321 0.548646 0.11455
H_ H_ 0.825476 0.74143 0.596342 0.11455
C_ C_ 0.725655 0.685043 0.906763 0.68181
C_ C_ 0.781485 0.676461 0.90273 -0.05681
C_ C_ 0.815286 0.672307 0.926594 -0.08735
C_ C_ 0.866679 0.667602 0.923138 -0.05681
C_ C_ 0.886943 0.668296 0.895849 -0.05681
C_ C_ 0.854268 0.67306 0.871425 -0.08735
C_ C_ 0.801794 0.674984 0.874425 -0.08735
C_ C_ 0.900457 0.671477 0.946449 -0.08735
C_ C_ 0.953282 0.672938 0.942057 -0.08735
C_ C_ 0.975 0.671201 0.914691 -0.05681
C_ C_ 0.939471 0.665121 0.891317 -0.08735
C_ C_ 0.633706 0.783468 0.916065 0.68181
C_ C_ 0.626003 0.584786 0.9018 0.68181
C_ C_ 0.623431 0.528754 0.899155 -0.05681
C_ C_ 0.640517 0.00115632 0.923056 -0.08735
C_ C_ 0.635896 0.948211 0.92226 -0.05681
C_ C_ 0.628028 0.925203 0.895087 -0.05681
C_ C_ 0.617081 0.954451 0.870166 -0.08735
C_ C_ 0.61628 0.00772726 0.872839 -0.08735
C_ C_ 0.642421 0.917137 0.946288 -0.08735
C_ C_ 0.643974 0.864974 0.944622 -0.08735
C_ C_ 0.635661 0.840336 0.917864 -0.05681
C_ C_ 0.625322 0.870277 0.893516 -0.08735
C_ C_ 0.528838 0.685699 0.908267 0.68181
C_ C_ 0.596666 0.625184 0.987101 0.1947
C_ C_ 0.611253 0.603835 0.517252 -0.08735
C_ C_ 0.628449 0.635943 0.538647 -0.08735
C_ C_ 0.651406 0.681599 0.531175 -0.05681
C_ C_ 0.661511 0.693165 0.501873 0.18498
C_ C_ 0.679948 0.735661 0.996748 -0.08735
C_ C_ 0.700391 0.772267 0.514176 -0.08735
C_ C_ 0.689283 0.761931 0.543211 -0.08735
C_ C_ 0.66662 0.716774 0.55254 0.18498
C_ C_ 0.701399 0.692827 0.600095 0.44287
C_ C_ 0.613672 0.715463 0.595288 0.44287
C_ C_ 0.604065 0.704429 0.625383 -0.05681
C_ C_ 0.554561 0.708717 0.637472 -0.08735
C_ C_ 0.54777 0.695293 0.666435 -0.08735
C_ C_ 0.589106 0.684063 0.683938 -0.05681
C_ C_ 0.637849 0.681422 0.673038 -0.05681
C_ C_ 0.644481 0.689609 0.643044 -0.05681
C_ C_ 0.692412 0.683217 0.630215 -0.05681
C_ C_ 0.733526 0.678585 0.648126 -0.08735
C_ C_ 0.7285 0.663527 0.677779 -0.08735
C_ C_ 0.679277 0.666165 0.68997 -0.05681
C_ C_ 0.670143 0.658383 0.719864 0.44287
C_ C_ 0.581703 0.675714 0.713164 0.44287
C_ C_ 0.610801 0.654779 0.761167 0.18498
C_ C_ 0.57924 0.614103 0.768276 -0.08735
C_ C_ 0.556829 0.60825 0.795769 -0.08735
C_ C_ 0.574269 0.639528 0.81865 -0.08735
C_ C_ 0.613237 0.675176 0.813431 0.18498
C_ C_ 0.630044 0.684506 0.784244 -0.05681
C_ C_ 0.659396 0.731003 0.779938 -0.08735
C_ C_ 0.675966 0.758667 0.803223 -0.08735
C_ C_ 0.660397 0.746532 0.830931 0.1947
C_ C_ 0.769848 0.817595 0.657063 0.68181
C_ C_ 0.713356 0.823371 0.652735 -0.05681
C_ C_ 0.67592 0.817897 0.674482 -0.08735
C_ C_ 0.625727 0.824817 0.669752 -0.05681
C_ C_ 0.607537 0.835909 0.641524 -0.05681
C_ C_ 0.642748 0.839394 0.61987 -0.08735
C_ C_ 0.69442 0.830885 0.62515 -0.08735
C_ C_ 0.590986 0.817551 0.692344 -0.08735
C_ C_ 0.539385 0.819564 0.687136 -0.08735
C_ C_ 0.520135 0.828229 0.660858 -0.05681
C_ C_ 0.553649 0.836525 0.637626 -0.08735
C_ C_ 0.872204 0.714459 0.662953 0.68181
C_ C_ 0.862515 0.913376 0.648906 0.68181
C_ C_ 0.860645 0.969829 0.645671 -0.05681
C_ C_ 0.845111 0.497593 0.672422 -0.08735
C_ C_ 0.852218 0.550321 0.670546 -0.05681
C_ C_ 0.851865 0.574578 0.643414 -0.05681
C_ C_ 0.844709 0.546129 0.618671 -0.08735
C_ C_ 0.858162 0.991873 0.618011 -0.08735
C_ C_ 0.863351 0.579342 0.695219 -0.08735
C_ C_ 0.875412 0.6315 0.69252 -0.08735
C_ C_ 0.869353 0.656966 0.665408 -0.05681
C_ C_ 0.84982 0.627438 0.641778 -0.08735
C_ C_ 0.964588 0.821413 0.655365 0.68181
C_ C_ 0.88406 0.879298 0.732314 0.1947
C_ C_ 0.888399 0.902173 0.7594 -0.08735
C_ C_ 0.87895 0.871107 0.783707 -0.08735
C_ C_ 0.860211 0.81983 0.779149 -0.05681
C_ C_ 0.848084 0.803505 0.750743 0.18498
C_ C_ 0.823803 0.757856 0.745788 -0.08735
C_ C_ 0.817319 0.724695 0.768128 -0.08735
C_ C_ 0.825339 0.739423 0.796532 -0.08735
C_ C_ 0.847182 0.786369 0.802443 0.18498
C_ C_ 0.8112 0.81042 0.848426 0.44287
C_ C_ 0.899577 0.799557 0.843562 0.44287
C_ C_ 0.907081 0.808665 0.873242 -0.05681
C_ C_ 0.955136 0.800748 0.886039 -0.08735
C_ C_ 0.960483 0.806641 0.915358 -0.08735
C_ C_ 0.917462 0.806869 0.934297 -0.05681
C_ C_ 0.868431 0.814552 0.922059 -0.05681
C_ C_ 0.864267 0.814669 0.891636 -0.05681
C_ C_ 0.81506 0.812556 0.879511 -0.05681
C_ C_ 0.772238 0.824279 0.896872 -0.08735
C_ C_ 0.779438 0.834085 0.926635 -0.08735
C_ C_ 0.825611 0.822046 0.939713 -0.05681
C_ C_ 0.832965 0.830146 0.968765 0.44287
C_ C_ 0.922308 0.816222 0.964863 0.44287
C_ C_ 0.903919 0.843206 0.511285 0.18498
C_ C_ 0.937223 0.883174 0.517673 -0.08735
C_ C_ 0.958313 0.882729 0.54606 -0.08735
C_ C_ 0.936139 0.85668 0.568852 -0.08735
C_ C_ 0.895316 0.825066 0.563659 0.18498
C_ C_ 0.880907 0.816299 0.534409 -0.05681
C_ C_ 0.83696 0.785132 0.529908 -0.08735
C_ C_ 0.815455 0.75927 0.552169 -0.08735
C_ C_ 0.837319 0.762967 0.578967 0.1947
N_ N_ 0.627479 0.665197 0.981122 -0.29468
N_ N_ 0.660426 0.706951 0.583426 -0.17154
N_ N_ 0.621198 0.664615 0.731384 -0.17154
N_ N_ 0.634082 0.703518 0.835131 -0.29468
N_ N_ 0.862514 0.833336 0.728152 -0.29468
N_ N_ 0.852484 0.8016 0.832112 -0.17154
N_ N_ 0.880568 0.825698 0.98131 -0.17154
N_ N_ 0.870594 0.799832 0.58558 -0.29468
O_ O_ 0.704726 0.686538 0.931462 -0.58347
O_ O_ 0.698015 0.681296 0.884779 -0.58347
O_ O_ 0.624107 0.756889 0.937573 -0.58347
O_ O_ 0.631078 0.76351 0.89182 -0.58347
O_ O_ 0.632113 0.604114 0.926683 -0.58347
O_ O_ 0.624199 0.612976 0.879974 -0.58347
O_ O_ 0.557385 0.674865 0.929893 -0.58347
O_ O_ 0.547518 0.689735 0.885133 -0.58347
O_ O_ 0.576129 0.730245 0.577411 -0.46727
O_ O_ 0.745278 0.686695 0.587685 -0.46727
O_ O_ 0.535192 0.682856 0.724463 -0.46727
O_ O_ 0.70468 0.63835 0.735177 -0.46727
O_ O_ 0.787388 0.806659 0.682209 -0.58347
O_ O_ 0.797624 0.820598 0.63553 -0.58347
O_ O_ 0.874462 0.741242 0.685816 -0.58347
O_ O_ 0.865606 0.736724 0.639973 -0.58347
O_ O_ 0.84861 0.891611 0.672157 -0.58347
O_ O_ 0.881024 0.887426 0.629353 -0.58347
O_ O_ 0.93392 0.832604 0.675654 -0.58347
O_ O_ 0.948764 0.806839 0.632513 -0.58347
O_ O_ 0.938856 0.787806 0.827014 -0.46727
O_ O_ 0.768283 0.819072 0.836441 -0.46727
O_ O_ 0.967837 0.81117 0.977441 -0.46727
O_ O_ 0.794824 0.835584 0.986919 -0.46727
_cell_length_a 26.376
_cell_length_b 26.400000238300095
_cell_length_c 46.67800035477134
_cell_angle_alpha 90.00700052986613
_cell_angle_beta 89.99899961309502
_cell_angle_gamma 90.45000003183146
_symmetry_space_group_name_H-M         'P 1'
_symmetry_Int_Tables_number            1
loop_
_symmetry_equiv_pos_as_xyz
   'x, y, z'
                         
loop_
_atom_site_label
_atom_site_type_symbol
_atom_site_fract_x 
_atom_site_fract_y
_atom_site_fract_z
_atom_site_charge
Zn Zn 0.14264 0.172434 0.383871 0.90689
Zn Zn 0.150051 0.163726 0.432766 0.90689
Zn Zn 0.373828 0.315857 0.127078 0.90689
Zn Zn 0.364727 0.328813 0.17368 0.90689
H_ H_ 0.314479 0.183345 0.447594 0.11455
H_ H_ 0.383127 0.177738 0.346402 0.11455
H_ H_ 0.30012 0.192769 0.355724 0.11455
H_ H_ 0.403277 0.19371 0.46441 0.11455
H_ H_ 0.497182 0.18005 0.456828 0.11455
H_ H_ 0.470894 0.161106 0.367238 0.11455
H_ H_ 0.151774 -0.0031691 0.44245 0.11455
H_ H_ 0.134134 0.417611 0.350838 0.11455
H_ H_ 0.146988 0.0134877 0.351114 0.11455
H_ H_ 0.164235 0.412255 0.467277 0.11455
H_ H_ 0.151987 0.321685 0.461354 0.11455
H_ H_ 0.127878 0.334863 0.372168 0.11455
H_ H_ 0.0977042 0.0870676 0.470031 0.11455
H_ H_ 0.0897865 0.0629302 0.00974463 0.11455
H_ H_ 0.112198 0.115735 0.0517197 0.11455
H_ H_ 0.21801 0.224864 0.476214 0.11455
H_ H_ 0.22633 0.29914 0.0150884 0.11455
H_ H_ 0.197856 0.278692 0.0647643 0.11455
H_ H_ 0.0193109 0.208532 0.125847 0.11455
H_ H_ 0.0079692 0.192752 0.175191 0.11455
H_ H_ 0.269302 0.171233 0.136176 0.11455
H_ H_ 0.260061 0.171243 0.189355 0.11455
H_ H_ 0.0898938 0.0713611 0.249915 0.11455
H_ H_ 0.0761553 0.048502 0.301081 0.11455
H_ H_ 0.0896928 0.108982 0.34056 0.11455
H_ H_ 0.152885 0.247836 0.259601 0.11455
H_ H_ 0.186849 0.293038 0.298435 0.11455
H_ H_ 0.184469 0.256815 0.348103 0.11455
H_ H_ 0.206221 0.318314 0.188798 0.11455
H_ H_ 0.129256 0.338889 0.0933096 0.11455
H_ H_ 0.222668 0.348698 0.0993797 0.11455
H_ H_ 0.121822 0.312694 0.209941 0.11455
H_ H_ 0.0278949 0.303765 0.205127 0.11455
H_ H_ 0.0432378 0.332507 0.113252 0.11455
H_ H_ 0.37999 0.486171 0.186408 0.11455
H_ H_ 0.41863 0.0623709 0.101095 0.11455
H_ H_ 0.366307 0.483649 0.0948649 0.11455
H_ H_ 0.338171 0.0796669 0.209335 0.11455
H_ H_ 0.358785 0.169969 0.206667 0.11455
H_ H_ 0.402421 0.151193 0.118072 0.11455
H_ H_ 0.416167 0.399307 0.208404 0.11455
H_ H_ 0.448965 0.416768 0.259003 0.11455
H_ H_ 0.419416 0.367553 0.297595 0.11455
H_ H_ 0.303959 0.264076 0.220414 0.11455
H_ H_ 0.285185 0.202382 0.258285 0.11455
H_ H_ 0.308664 0.22729 0.306977 0.11455
H_ H_ 0.487801 0.296171 0.372341 0.11455
H_ H_ 0.49294 0.300173 0.425685 0.11455
H_ H_ 0.23762 0.326109 0.381996 0.11455
H_ H_ 0.242897 0.333555 0.434875 0.11455
H_ H_ 0.423038 0.410736 0.494644 0.11455
H_ H_ 0.464559 0.428571 0.0365361 0.11455
H_ H_ 0.416699 0.392655 0.0796096 0.11455
H_ H_ 0.339686 0.250752 0.00388004 0.11455
H_ H_ 0.31337 0.20128 0.0485643 0.11455
H_ H_ 0.312604 0.247982 0.0924337 0.11455
C_ C_ 0.24276 0.18877 0.406961 0.68181
C_ C_ 0.299065 0.188283 0.402268 -0.05681
C_ C_ 0.33106 0.187157 0.426286 -0.08735
C_ C_ 0.384704 0.182905 0.420881 -0.05681
C_ C_ 0.403725 0.177173 0.393239 -0.05681
C_ C_ 0.371659 0.180416 0.369987 -0.08735
C_ C_ 0.320491 0.187131 0.374931 -0.08735
C_ C_ 0.417463 0.180326 0.445009 -0.08735
C_ C_ 0.470267 0.178585 0.440245 -0.08735
C_ C_ 0.489435 0.174644 0.41187 -0.05681
C_ C_ 0.455569 0.167495 0.388982 -0.08735
C_ C_ 0.132684 0.263362 0.41604 0.68181
C_ C_ 0.150755 0.0699498 0.399707 0.68181
C_ C_ 0.148917 0.0130613 0.397211 -0.05681
C_ C_ 0.136009 0.479658 0.425386 -0.08735
C_ C_ 0.138946 0.427788 0.423085 -0.05681
C_ C_ 0.1338 0.40561 0.395462 -0.05681
C_ C_ 0.129254 0.436692 0.371526 -0.08735
C_ C_ 0.127222 0.489636 0.373913 -0.08735
C_ C_ 0.14796 0.396482 0.446898 -0.08735
C_ C_ 0.150387 0.344437 0.443379 -0.08735
C_ C_ 0.137913 0.320278 0.417599 -0.05681
C_ C_ 0.129418 0.352712 0.393536 -0.08735
C_ C_ 0.0493228 0.164466 0.412025 0.68181
C_ C_ 0.120149 0.107412 0.486689 0.1947
C_ C_ 0.110186 0.10054 0.00687472 -0.08735
C_ C_ 0.125419 0.129257 0.0313284 -0.08735
C_ C_ 0.144794 0.178426 0.0282826 -0.05681
C_ C_ 0.151957 0.196616 0.999211123 0.18498
C_ C_ 0.194502 0.223437 0.496286 -0.08735
C_ C_ 0.197 0.267898 0.0177904 -0.08735
C_ C_ 0.188843 0.252788 0.045777 -0.08735
C_ C_ 0.16294 0.206721 0.052547 0.18498
C_ C_ 0.194612 0.179642 0.0986886 0.44287
C_ C_ 0.107892 0.20366 0.0951254 0.44287
C_ C_ 0.0988777 0.191983 0.124199 -0.05681
C_ C_ 0.0518382 0.198172 0.137151 -0.08735
C_ C_ 0.0452876 0.189236 0.165765 -0.08735
C_ C_ 0.0872761 0.177511 0.183865 -0.05681
C_ C_ 0.135963 0.174476 0.171301 -0.05681
C_ C_ 0.141171 0.18221 0.141401 -0.05681
C_ C_ 0.189762 0.176185 0.12877 -0.05681
C_ C_ 0.23297 0.170796 0.146109 -0.08735
C_ C_ 0.226931 0.173646 0.175584 -0.08735
C_ C_ 0.17869 0.172223 0.189226 -0.05681
C_ C_ 0.17153 0.17002 0.219025 0.44287
C_ C_ 0.0818401 0.173327 0.213948 0.44287
C_ C_ 0.115945 0.148735 0.261043 0.18498
C_ C_ 0.0962472 0.100587 0.267226 -0.08735
C_ C_ 0.0905449 0.0854159 0.29684 -0.08735
C_ C_ 0.100266 0.118543 0.318332 -0.08735
C_ C_ 0.123277 0.164689 0.313007 0.18498
C_ C_ 0.131031 0.181396 0.284339 -0.05681
C_ C_ 0.152637 0.229849 0.279535 -0.08735
C_ C_ 0.167649 0.258882 0.303672 -0.08735
C_ C_ 0.166143 0.238922 0.330621 0.1947
C_ C_ 0.274231 0.325194 0.148849 0.68181
C_ C_ 0.219324 0.329642 0.144991 -0.05681
C_ C_ 0.188452 0.321927 0.168148 -0.08735
C_ C_ 0.135505 0.314797 0.164971 -0.05681
C_ C_ 0.112661 0.318541 0.136683 -0.05681
C_ C_ 0.145898 0.329506 0.114066 -0.08735
C_ C_ 0.197508 0.337856 0.118351 -0.08735
C_ C_ 0.104826 0.307235 0.189746 -0.08735
C_ C_ 0.0519455 0.306041 0.186947 -0.08735
C_ C_ 0.0294914 0.315109 0.159168 -0.05681
C_ C_ 0.0605783 0.321192 0.133793 -0.08735
C_ C_ 0.376976 0.22324 0.158068 0.68181
C_ C_ 0.365677 0.420849 0.143461 0.68181
C_ C_ 0.366863 0.477228 0.141185 -0.05681
C_ C_ 0.361793 0.0107708 0.170876 -0.08735
C_ C_ 0.366369 0.0618443 0.168165 -0.05681
C_ C_ 0.385132 0.0810853 0.141194 -0.05681
C_ C_ 0.396032 0.0492386 0.118256 -0.08735
C_ C_ 0.372186 0.502859 0.115061 -0.08735
C_ C_ 0.355845 0.0949646 0.189778 -0.08735
C_ C_ 0.36907 0.145031 0.187938 -0.08735
C_ C_ 0.381147 0.166525 0.160799 -0.05681
C_ C_ 0.390186 0.133819 0.137384 -0.08735
C_ C_ 0.468322 0.32467 0.151495 0.68181
C_ C_ 0.404431 0.376165 0.22622 0.1947
C_ C_ 0.419455 0.389824 0.255 -0.08735
C_ C_ 0.397625 0.365398 0.278061 -0.08735
C_ C_ 0.364446 0.324527 0.273052 -0.05681
C_ C_ 0.356127 0.308306 0.244415 0.18498
C_ C_ 0.31755 0.270762 0.240456 -0.08735
C_ C_ 0.307211 0.236016 0.262842 -0.08735
C_ C_ 0.321042 0.249419 0.290173 -0.08735
C_ C_ 0.349312 0.293499 0.296496 0.18498
C_ C_ 0.312783 0.313682 0.342967 0.44287
C_ C_ 0.401449 0.30431 0.340309 0.44287
C_ C_ 0.407938 0.311427 0.370532 -0.05681
C_ C_ 0.454131 0.307391 0.385158 -0.08735
C_ C_ 0.45637 0.302551 0.414389 -0.08735
C_ C_ 0.41384 0.309361 0.432222 -0.05681
C_ C_ 0.368525 0.320236 0.418149 -0.05681
C_ C_ 0.364755 0.317125 0.387167 -0.05681
C_ C_ 0.315846 0.319293 0.373513 -0.05681
C_ C_ 0.273947 0.323127 0.39076 -0.08735
C_ C_ 0.277487 0.332302 0.421122 -0.08735
C_ C_ 0.32542 0.330461 0.434041 -0.05681
C_ C_ 0.332093 0.336692 0.464003 0.44287
C_ C_ 0.415857 0.305397 0.462269 0.44287
C_ C_ 0.399718 0.335995 0.00350978 0.18498
C_ C_ 0.428995 0.378931 0.00840004 -0.08735
C_ C_ 0.44019 0.396521 0.0359451 -0.08735
C_ C_ 0.414697 0.373033 0.0589911 -0.08735
C_ C_ 0.38723 0.327876 0.0554604 0.18498
C_ C_ 0.378864 0.309525 0.0272065 -0.05681
C_ C_ 0.349739 0.264895 0.0246198 -0.08735
C_ C_ 0.333845 0.237573 0.0497195 -0.08735
C_ C_ 0.334247 0.263137 0.0742139 0.1947
N_ N_ 0.147038 0.149708 0.479771 -0.29468
N_ N_ 0.152629 0.190623 0.0819854 -0.17154
N_ N_ 0.123269 0.166552 0.231318 -0.17154
N_ N_ 0.144401 0.1928 0.335264 -0.29468
N_ N_ 0.371952 0.336456 0.221915 -0.29468
N_ N_ 0.35522 0.309045 0.326937 -0.17154
N_ N_ 0.377195 0.324916 0.47711 -0.17154
N_ N_ 0.368345 0.302185 0.07874 -0.29468
O_ O_ 0.226529 0.172026 0.430226 -0.58347
O_ O_ 0.217026 0.184908 0.384782 -0.58347
O_ O_ 0.146535 0.237078 0.437327 -0.58347
O_ O_ 0.132118 0.24303 0.392203 -0.58347
O_ O_ 0.152654 0.0898722 0.424246 -0.58347
O_ O_ 0.151192 0.098608 0.377911 -0.58347
O_ O_ 0.076449 0.163135 0.434043 -0.58347
O_ O_ 0.0694935 0.162819 0.388621 -0.58347
O_ O_ 0.0711133 0.223737 0.0801963 -0.46727
O_ O_ 0.239638 0.173524 0.0860096 -0.46727
O_ O_ 0.03576 0.168941 0.224774 -0.46727
O_ O_ 0.211059 0.166026 0.235955 -0.46727
O_ O_ 0.294472 0.323513 0.174138 -0.58347
O_ O_ 0.300739 0.315413 0.127018 -0.58347
O_ O_ 0.375893 0.251453 0.180636 -0.58347
O_ O_ 0.375204 0.242203 0.13303 -0.58347
O_ O_ 0.359404 0.398883 0.167887 -0.58347
O_ O_ 0.373485 0.390415 0.122102 -0.58347
O_ O_ 0.438369 0.329951 0.172734 -0.58347
O_ O_ 0.450084 0.31302 0.127324 -0.58347
O_ O_ 0.439881 0.28856 0.325807 -0.46727
O_ O_ 0.265976 0.311711 0.33087 -0.46727
O_ O_ 0.459445 0.294239 0.475345 -0.46727
O_ O_ 0.294521 0.355586 0.479475 -0.46727
Zn Zn 0.120899 0.186919 0.880932 0.90689
Zn Zn 0.134884 0.184066 0.928845 0.90689
Zn Zn 0.362811 0.315735 0.628611 0.90689
Zn Zn 0.353707 0.323841 0.677609 0.90689
H_ H_ 0.300898 0.182838 0.946098 0.11455
H_ H_ 0.36084 0.174791 0.846092 0.11455
H_ H_ 0.275483 0.191461 0.854127 0.11455
H_ H_ 0.385619 0.171698 0.964128 0.11455
H_ H_ 0.472701 0.16782 0.957862 0.11455
H_ H_ 0.455119 0.177555 0.865553 0.11455
H_ H_ 0.157728 0.016088 0.937846 0.11455
H_ H_ 0.162106 0.440222 0.847736 0.11455
H_ H_ 0.0894849 0.0262313 0.856606 0.11455
H_ H_ 0.124563 0.436672 0.964767 0.11455
H_ H_ 0.109384 0.342872 0.959999 0.11455
H_ H_ 0.145431 0.352583 0.870265 0.11455
H_ H_ 0.0894816 0.105094 0.962125 0.11455
H_ H_ 0.0850995 0.0627526 0.519334 0.11455
H_ H_ 0.125566 0.109281 0.559837 0.11455
H_ H_ 0.188788 0.253602 0.973657 0.11455
H_ H_ 0.221743 0.296613 0.510667 0.11455
H_ H_ 0.178957 0.284642 0.559204 0.11455
H_ H_ 0.010942 0.213477 0.618312 0.11455
H_ H_ -0.005753000000000008 0.194817 0.670137 0.11455
H_ H_ 0.259606 0.164311 0.640977 0.11455
H_ H_ 0.244467 0.148313 0.692259 0.11455
H_ H_ 0.0409939 0.100037 0.745919 0.11455
H_ H_ 0.018562 0.0771228 0.797609 0.11455
H_ H_ 0.0625023 0.120571 0.837691 0.11455
H_ H_ 0.141705 0.25221 0.755133 0.11455
H_ H_ 0.18994 0.289468 0.794094 0.11455
H_ H_ 0.169911 0.264667 0.844808 0.11455
H_ H_ 0.183089 0.306422 0.694325 0.11455
H_ H_ 0.115908 0.328368 0.596463 0.11455
H_ H_ 0.206865 0.316497 0.602915 0.11455
H_ H_ 0.0967464 0.311417 0.716681 0.11455
H_ H_ 0.00738288 0.303154 0.706076 0.11455
H_ H_ 0.0294153 0.340394 0.617898 0.11455
H_ H_ 0.344568 0.490641 0.688543 0.11455
H_ H_ 0.358429 0.0694362 0.59323 0.11455
H_ H_ 0.358173 0.474636 0.598786 0.11455
H_ H_ 0.347669 0.078097 0.71135 0.11455
H_ H_ 0.377257 0.165666 0.706939 0.11455
H_ H_ 0.375345 0.15348 0.616593 0.11455
H_ H_ 0.414096 0.385655 0.713356 0.11455
H_ H_ 0.436412 0.408095 0.762327 0.11455
H_ H_ 0.388851 0.369747 0.803762 0.11455
H_ H_ 0.291011 0.253549 0.719069 0.11455
H_ H_ 0.257877 0.202762 0.756354 0.11455
H_ H_ 0.277195 0.220439 0.806719 0.11455
H_ H_ 0.480126 0.284947 0.866526 0.11455
H_ H_ 0.495608 0.297514 0.914412 0.11455
H_ H_ 0.23159 0.343475 0.8862 0.11455
H_ H_ 0.252921 0.355301 0.936393 0.11455
H_ H_ 0.438583 0.400865 -0.009291999999999967 0.11455
H_ H_ 0.433307 0.441554 0.545535 0.11455
H_ H_ 0.417554 0.376724 0.585271 0.11455
H_ H_ 0.327505 0.254205 0.504222 0.11455
H_ H_ 0.294787 0.20771 0.544988 0.11455
H_ H_ 0.323097 0.2326 0.595136 0.11455
C_ C_ 0.225457 0.196114 0.905123 0.68181
C_ C_ 0.279723 0.189695 0.900464 -0.05681
C_ C_ 0.313363 0.181551 0.923919 -0.08735
C_ C_ 0.365823 0.175006 0.919278 -0.05681
C_ C_ 0.385281 0.178365 0.890998 -0.05681
C_ C_ 0.35137 0.182104 0.867678 -0.08735
C_ C_ 0.300604 0.190068 0.872207 -0.08735
C_ C_ 0.397521 0.170857 0.942808 -0.08735
C_ C_ 0.449178 0.165673 0.9389 -0.08735
C_ C_ 0.470682 0.166086 0.910963 -0.05681
C_ C_ 0.438532 0.17046 0.886634 -0.08735
C_ C_ 0.120862 0.284663 0.911796 0.68181
C_ C_ 0.130704 0.0854775 0.897515 0.68181
C_ C_ 0.127412 0.0296457 0.89617 -0.05681
C_ C_ 0.142697 0.498202 0.923612 -0.08735
C_ C_ 0.140875 0.445937 0.920071 -0.05681
C_ C_ 0.14374 0.422012 0.892321 -0.05681
C_ C_ 0.15245 0.454689 0.868474 -0.08735
C_ C_ 0.15886 0.507152 0.872749 -0.08735
C_ C_ 0.128036 0.417606 0.943245 -0.08735
C_ C_ 0.117416 0.365748 0.940984 -0.08735
C_ C_ 0.119041 0.342077 0.913125 -0.05681
C_ C_ 0.132181 0.371334 0.888912 -0.08735
C_ C_ 0.0274977 0.187906 0.906639 0.68181
C_ C_ 0.110739 0.124057 0.980103 0.1947
C_ C_ 0.112542 0.0925883 0.514762 -0.08735
C_ C_ 0.130021 0.121376 0.537443 -0.08735
C_ C_ 0.153258 0.167854 0.530354 -0.05681
C_ C_ 0.165138 0.179182 0.501107 0.18498
C_ C_ 0.176422 0.242237 0.994502 -0.08735
C_ C_ 0.200626 0.26214 0.516375 -0.08735
C_ C_ 0.176972 0.255201 0.54246 -0.08735
C_ C_ 0.160441 0.207609 0.551491 0.18498
C_ C_ 0.188454 0.196732 0.599737 0.44287
C_ C_ 0.099138 0.197412 0.591562 0.44287
C_ C_ 0.0918821 0.199382 0.621066 -0.05681
C_ C_ 0.0418837 0.204058 0.632651 -0.08735
C_ C_ 0.0337952 0.194425 0.662245 -0.08735
C_ C_ 0.0742937 0.185941 0.680476 -0.05681
C_ C_ 0.122172 0.178285 0.669077 -0.05681
C_ C_ 0.131502 0.187453 0.640035 -0.05681
C_ C_ 0.179806 0.182763 0.629464 -0.05681
C_ C_ 0.221205 0.173016 0.649386 -0.08735
C_ C_ 0.211277 0.165807 0.678618 -0.08735
C_ C_ 0.161964 0.163823 0.688252 -0.05681
C_ C_ 0.150241 0.157994 0.718153 0.44287
C_ C_ 0.0657013 0.182467 0.710809 0.44287
C_ C_ 0.0921928 0.16031 0.758299 0.18498
C_ C_ 0.0561485 0.120017 0.764283 -0.08735
C_ C_ 0.0496844 0.104757 0.79218 -0.08735
C_ C_ 0.0716981 0.130036 0.815163 -0.08735
C_ C_ 0.0989122 0.175554 0.809873 0.18498
C_ C_ 0.110506 0.189469 0.780739 -0.05681
C_ C_ 0.136536 0.235675 0.776796 -0.08735
C_ C_ 0.162267 0.259124 0.799701 -0.08735
C_ C_ 0.153479 0.241368 0.827582 0.1947
C_ C_ 0.259223 0.316807 0.653339 0.68181
C_ C_ 0.20209 0.317573 0.649713 -0.05681
C_ C_ 0.16943 0.311397 0.673565 -0.08735
C_ C_ 0.115889 0.318374 0.670324 -0.05681
C_ C_ 0.0972974 0.329906 0.641712 -0.05681
C_ C_ 0.131146 0.330088 0.617883 -0.08735
C_ C_ 0.182229 0.316834 0.622198 -0.08735
C_ C_ 0.0840913 0.318454 0.693936 -0.08735
C_ C_ 0.0322005 0.317562 0.690004 -0.08735
C_ C_ 0.0100696 0.324313 0.662301 -0.05681
C_ C_ 0.0438347 0.33256 0.638304 -0.08735
C_ C_ 0.366785 0.221773 0.658889 0.68181
C_ C_ 0.347236 0.42004 0.648666 0.68181
C_ C_ 0.344824 0.477489 0.643882 -0.05681
C_ C_ 0.346732 0.0115647 0.6684 -0.08735
C_ C_ 0.352774 0.0633861 0.666734 -0.05681
C_ C_ 0.356327 0.0866351 0.639825 -0.05681
C_ C_ 0.358922 0.0540028 0.615206 -0.08735
C_ C_ 0.353435 0.498976 0.616361 -0.08735
C_ C_ 0.351404 0.0945868 0.690905 -0.08735
C_ C_ 0.367098 0.144054 0.688294 -0.08735
C_ C_ 0.373043 0.166273 0.661409 -0.05681
C_ C_ 0.369724 0.136599 0.637059 -0.08735
C_ C_ 0.455697 0.32794 0.653496 0.68181
C_ C_ 0.391145 0.370836 0.730139 0.1947
C_ C_ 0.406047 0.381646 0.758657 -0.08735
C_ C_ 0.383591 0.353504 0.781398 -0.08735
C_ C_ 0.351375 0.312006 0.775627 -0.05681
C_ C_ 0.336555 0.30379 0.745912 0.18498
C_ C_ 0.305847 0.262256 0.740526 -0.08735
C_ C_ 0.282727 0.232973 0.762304 -0.08735
C_ C_ 0.294285 0.244716 0.790348 -0.08735
C_ C_ 0.327266 0.284354 0.797873 0.18498
C_ C_ 0.301852 0.312089 0.844636 0.44287
C_ C_ 0.386298 0.284602 0.83797 0.44287
C_ C_ 0.398011 0.296814 0.866152 -0.05681
C_ C_ 0.450084 0.294827 0.877642 -0.08735
C_ C_ 0.458682 0.303467 0.905903 -0.08735
C_ C_ 0.418403 0.311819 0.924977 -0.05681
C_ C_ 0.369122 0.321172 0.913575 -0.05681
C_ C_ 0.359199 0.314836 0.883955 -0.05681
C_ C_ 0.310048 0.320872 0.874 -0.05681
C_ C_ 0.271433 0.340035 0.892234 -0.08735
C_ C_ 0.282651 0.342052 0.92137 -0.08735
C_ C_ 0.331403 0.332098 0.932433 -0.05681
C_ C_ 0.342453 0.339596 0.962531 0.44287
C_ C_ 0.424469 0.307432 0.955874 0.44287
C_ C_ 0.385804 0.338371 0.506669 0.18498
C_ C_ 0.409507 0.384308 0.512445 -0.08735
C_ C_ 0.420138 0.400735 0.541097 -0.08735
C_ C_ 0.403315 0.36955 0.563945 -0.08735
C_ C_ 0.379541 0.32273 0.559268 0.18498
C_ C_ 0.369748 0.308774 0.529851 -0.05681
C_ C_ 0.339592 0.265619 0.525156 -0.08735
C_ C_ 0.325651 0.235297 0.548765 -0.08735
C_ C_ 0.339285 0.252861 0.576625 0.1947
N_ N_ 0.136962 0.166881 0.976673 -0.29468
N_ N_ 0.148287 0.19799 0.581034 -0.17154
N_ N_ 0.104098 0.171057 0.728825 -0.17154
N_ N_ 0.120095 0.201713 0.832397 -0.29468
N_ N_ 0.36139 0.329016 0.724969 -0.29468
N_ N_ 0.339002 0.293686 0.827726 -0.17154
N_ N_ 0.387018 0.322816 0.973667 -0.17154
N_ N_ 0.365432 0.295145 0.581447 -0.29468
O_ O_ 0.207961 0.19214 0.929787 -0.58347
O_ O_ 0.196092 0.193513 0.884728 -0.58347
O_ O_ 0.132636 0.260208 0.934157 -0.58347
O_ O_ 0.116615 0.263093 0.887421 -0.58347
O_ O_ 0.141464 0.106653 0.92191 -0.58347
O_ O_ 0.123408 0.113313 0.875237 -0.58347
O_ O_ 0.0586329 0.181041 0.927021 -0.58347
O_ O_ 0.0450904 0.185946 0.881976 -0.58347
O_ O_ 0.0611094 0.202987 0.573531 -0.46727
O_ O_ 0.234348 0.206821 0.59041 -0.46727
O_ O_ 0.0233127 0.198424 0.721091 -0.46727
O_ O_ 0.188141 0.146518 0.735521 -0.46727
O_ O_ 0.280557 0.32217 0.677195 -0.58347
O_ O_ 0.285317 0.307526 0.630987 -0.58347
O_ O_ 0.359256 0.249738 0.681261 -0.58347
O_ O_ 0.372639 0.243084 0.635757 -0.58347
O_ O_ 0.349022 0.39984 0.6735 -0.58347
O_ O_ 0.34719 0.392411 0.627041 -0.58347
O_ O_ 0.425657 0.325501 0.675844 -0.58347
O_ O_ 0.437666 0.327264 0.62813 -0.58347
O_ O_ 0.415271 0.252983 0.823858 -0.46727
O_ O_ 0.257569 0.321055 0.832549 -0.46727
O_ O_ 0.465097 0.287319 0.967122 -0.46727
O_ O_ 0.304475 0.352644 0.9798 -0.46727
Zn Zn 0.128763 0.667711 0.38419 0.90689
Zn Zn 0.141407 0.666392 0.432377 0.90689
Zn Zn 0.374607 0.818009 0.13368 0.90689
Zn Zn 0.365318 0.8232 0.179699 0.90689
H_ H_ 0.309558 0.680305 0.450653 0.11455
H_ H_ 0.375788 0.643578 0.353395 0.11455
H_ H_ 0.286379 0.640634 0.362001 0.11455
H_ H_ 0.398232 0.686779 0.471064 0.11455
H_ H_ 0.488975 0.686145 0.461632 0.11455
H_ H_ 0.462214 0.648483 0.370339 0.11455
H_ H_ 0.136015 0.496814 0.445678 0.11455
H_ H_ 0.128649 0.919029 0.347729 0.11455
H_ H_ 0.136039 0.50891 0.352834 0.11455
H_ H_ 0.130369 0.921016 0.465377 0.11455
H_ H_ 0.124433 0.826834 0.463742 0.11455
H_ H_ 0.126257 0.831535 0.370901 0.11455
H_ H_ 0.0845011 0.584363 0.467163 0.11455
H_ H_ 0.0762073 0.570913 0.0186113 0.11455
H_ H_ 0.0955617 0.623679 0.0582601 0.11455
H_ H_ 0.195091 0.717916 0.475945 0.11455
H_ H_ 0.24334 0.786163 0.0163237 0.11455
H_ H_ 0.222946 0.759393 0.0673154 0.11455
H_ H_ 0.0224951 0.72016 0.126568 0.11455
H_ H_ 0.0106621 0.699022 0.177081 0.11455
H_ H_ 0.266909 0.642262 0.138294 0.11455
H_ H_ 0.258104 0.641032 0.191357 0.11455
H_ H_ 0.0684137 0.577611 0.251274 0.11455
H_ H_ 0.0410273 0.560024 0.298934 0.11455
H_ H_ 0.072958 0.608347 0.340815 0.11455
H_ H_ 0.143692 0.746763 0.262842 0.11455
H_ H_ 0.194619 0.776867 0.301731 0.11455
H_ H_ 0.186393 0.742156 0.350457 0.11455
H_ H_ 0.194866 0.783573 0.192125 0.11455
H_ H_ 0.133902 0.843051 0.0985201 0.11455
H_ H_ 0.221346 0.833158 0.104357 0.11455
H_ H_ 0.112571 0.791887 0.212421 0.11455
H_ H_ 0.0203344 0.810137 0.205002 0.11455
H_ H_ 0.04884 0.850485 0.117516 0.11455
H_ H_ 0.350252 0.994421 0.191465 0.11455
H_ H_ 0.364073 0.576493 0.0938691 0.11455
H_ H_ 0.421943 0.975289 0.109268 0.11455
H_ H_ 0.392003 0.568541 0.212548 0.11455
H_ H_ 0.38035 0.660956 0.212944 0.11455
H_ H_ 0.368956 0.658212 0.119092 0.11455
H_ H_ 0.411847 0.896736 0.218099 0.11455
H_ H_ 0.454097 0.901614 0.264038 0.11455
H_ H_ 0.413511 0.863744 0.305462 0.11455
H_ H_ 0.314475 0.746196 0.221034 0.11455
H_ H_ 0.284128 0.691844 0.259606 0.11455
H_ H_ 0.295068 0.72265 0.311093 0.11455
H_ H_ 0.477181 0.762946 0.376672 0.11455
H_ H_ 0.497017 0.794568 0.424384 0.11455
H_ H_ 0.250351 0.866719 0.380405 0.11455
H_ H_ 0.254082 0.873472 0.433607 0.11455
H_ H_ 0.447136 0.908647 0.49689 0.11455
H_ H_ 0.447269 0.939038 0.0453124 0.11455
H_ H_ 0.43176 0.880975 0.0874955 0.11455
H_ H_ 0.344808 0.747721 0.0101519 0.11455
H_ H_ 0.311827 0.705443 0.0543932 0.11455
H_ H_ 0.314347 0.746036 0.0993125 0.11455
C_ C_ 0.233769 0.671218 0.408144 0.68181
C_ C_ 0.289263 0.665165 0.405052 -0.05681
C_ C_ 0.323626 0.671626 0.42903 -0.08735
C_ C_ 0.376257 0.670067 0.425917 -0.05681
C_ C_ 0.395352 0.656952 0.398063 -0.05681
C_ C_ 0.362572 0.652778 0.374505 -0.08735
C_ C_ 0.311235 0.651133 0.379106 -0.08735
C_ C_ 0.409277 0.67408 0.449424 -0.08735
C_ C_ 0.461582 0.67387 0.444117 -0.08735
C_ C_ 0.48048 0.665319 0.416501 -0.05681
C_ C_ 0.448503 0.652036 0.392611 -0.08735
C_ C_ 0.120345 0.766078 0.416782 0.68181
C_ C_ 0.143082 0.56913 0.400091 0.68181
C_ C_ 0.137651 0.511321 0.40015 -0.05681
C_ C_ 0.148416 0.981753 0.421131 -0.08735
C_ C_ 0.135063 0.931088 0.419637 -0.05681
C_ C_ 0.138342 0.90476 0.392689 -0.05681
C_ C_ 0.1425 0.935719 0.368033 -0.08735
C_ C_ 0.148604 0.989029 0.370582 -0.08735
C_ C_ 0.131425 0.901372 0.44517 -0.08735
C_ C_ 0.127048 0.848049 0.444364 -0.08735
C_ C_ 0.124231 0.822757 0.418022 -0.05681
C_ C_ 0.132824 0.850313 0.392142 -0.08735
C_ C_ 0.0347121 0.660802 0.407534 0.68181
C_ C_ 0.0964054 0.606942 0.484284 0.1947
C_ C_ 0.0978736 0.604389 0.0143108 -0.08735
C_ C_ 0.116511 0.632657 0.0374082 -0.08735
C_ C_ 0.143775 0.678876 0.0317121 -0.05681
C_ C_ 0.157829 0.689377 1.00361914 0.18498
C_ C_ 0.181527 0.715206 0.497236 -0.08735
C_ C_ 0.214786 0.756805 0.0202875 -0.08735
C_ C_ 0.200478 0.745912 0.0486144 -0.08735
C_ C_ 0.164772 0.707272 0.054163 0.18498
C_ C_ 0.196094 0.671117 0.1003 0.44287
C_ C_ 0.112678 0.707211 0.0974068 0.44287
C_ C_ 0.104709 0.69801 0.127484 -0.05681
C_ C_ 0.0564995 0.707459 0.139303 -0.08735
C_ C_ 0.0499412 0.696425 0.169623 -0.08735
C_ C_ 0.089129 0.675188 0.185777 -0.05681
C_ C_ 0.139434 0.67489 0.174741 -0.05681
C_ C_ 0.145198 0.681017 0.144548 -0.05681
C_ C_ 0.190881 0.666934 0.13076 -0.05681
C_ C_ 0.231731 0.654908 0.148752 -0.08735
C_ C_ 0.227796 0.654604 0.178949 -0.08735
C_ C_ 0.178172 0.659971 0.19123 -0.05681
C_ C_ 0.167968 0.649809 0.221063 0.44287
C_ C_ 0.0825981 0.665356 0.215398 0.44287
C_ C_ 0.110394 0.645794 0.262875 0.18498
C_ C_ 0.0795846 0.601329 0.268318 -0.08735
C_ C_ 0.0686256 0.587186 0.296031 -0.08735
C_ C_ 0.086852 0.614909 0.319442 -0.08735
C_ C_ 0.115138 0.658489 0.314715 0.18498
C_ C_ 0.120228 0.677674 0.286874 -0.05681
C_ C_ 0.144046 0.7246 0.283168 -0.08735
C_ C_ 0.16532 0.749011 0.30564 -0.08735
C_ C_ 0.162313 0.727081 0.333382 0.1947
C_ C_ 0.272908 0.811919 0.153852 0.68181
C_ C_ 0.217196 0.804882 0.148263 -0.05681
C_ C_ 0.182306 0.797086 0.171642 -0.08735
C_ C_ 0.1311 0.807482 0.167943 -0.05681
C_ C_ 0.111719 0.825373 0.141873 -0.05681
C_ C_ 0.144525 0.830001 0.118366 -0.08735
C_ C_ 0.197531 0.824396 0.122246 -0.08735
C_ C_ 0.0981041 0.800842 0.191312 -0.08735
C_ C_ 0.0457041 0.810226 0.187137 -0.08735
C_ C_ 0.0244644 0.820515 0.159962 -0.05681
C_ C_ 0.0594626 0.83257 0.13741 -0.08735
C_ C_ 0.378124 0.72093 0.162697 0.68181
C_ C_ 0.368253 0.920085 0.150185 0.68181
C_ C_ 0.375775 0.97768 0.147841 -0.05681
C_ C_ 0.376737 0.504544 0.165901 -0.08735
C_ C_ 0.381167 0.559253 0.165817 -0.05681
C_ C_ 0.377158 0.584739 0.139388 -0.05681
C_ C_ 0.37048 0.556011 0.114756 -0.08735
C_ C_ 0.399154 -0.001550999999999969 0.123602 -0.08735
C_ C_ 0.381593 0.586578 0.192298 -0.08735
C_ C_ 0.380778 0.640057 0.19179 -0.08735
C_ C_ 0.378984 0.665527 0.16505 -0.05681
C_ C_ 0.372911 0.638317 0.139087 -0.08735
C_ C_ 0.468089 0.82563 0.159218 0.68181
C_ C_ 0.404734 0.869558 0.234227 0.1947
C_ C_ 0.420439 0.879699 0.261774 -0.08735
C_ C_ 0.398732 0.852684 0.284528 -0.08735
C_ C_ 0.367055 0.809872 0.279047 -0.05681
C_ C_ 0.355393 0.799093 0.249878 0.18498
C_ C_ 0.327281 0.755243 0.242616 -0.08735
C_ C_ 0.305011 0.728076 0.265667 -0.08735
C_ C_ 0.31396 0.739517 0.294418 -0.08735
C_ C_ 0.345498 0.780186 0.301363 0.18498
C_ C_ 0.314107 0.816397 0.345632 0.44287
C_ C_ 0.396888 0.780363 0.345405 0.44287
C_ C_ 0.402067 0.788397 0.375564 -0.05681
C_ C_ 0.449135 0.78378 0.387751 -0.08735
C_ C_ 0.459127 0.800898 0.415395 -0.08735
C_ C_ 0.416904 0.81435 0.432424 -0.05681
C_ C_ 0.370179 0.821761 0.41993 -0.05681
C_ C_ 0.364148 0.811107 0.390318 -0.05681
C_ C_ 0.319923 0.826908 0.375246 -0.05681
C_ C_ 0.284281 0.853388 0.390594 -0.08735
C_ C_ 0.287146 0.859083 0.4208 -0.08735
C_ C_ 0.333029 0.846968 0.435514 -0.05681
C_ C_ 0.339817 0.855132 0.465843 0.44287
C_ C_ 0.422884 0.819754 0.461975 0.44287
C_ C_ 0.392721 0.841077 0.0103699 0.18498
C_ C_ 0.417672 0.887094 0.0150022 -0.08735
C_ C_ 0.428412 0.902449 0.0436488 -0.08735
C_ C_ 0.416189 0.871016 0.0670257 -0.08735
C_ C_ 0.389654 0.825577 0.0628607 0.18498
C_ C_ 0.381577 0.808449 0.0341462 -0.05681
C_ C_ 0.355695 0.761842 0.0307333 -0.08735
C_ C_ 0.333544 0.739036 0.0549018 -0.08735
C_ C_ 0.339402 0.760007 0.0823306 0.1947
N_ N_ 0.129411 0.644721 0.47942 -0.29468
N_ N_ 0.156967 0.693969 0.0845883 -0.17154
N_ N_ 0.122684 0.659539 0.233498 -0.17154
N_ N_ 0.138142 0.681898 0.337205 -0.29468
N_ N_ 0.373886 0.828947 0.228261 -0.29468
N_ N_ 0.353113 0.793556 0.331293 -0.17154
N_ N_ 0.383428 0.837248 0.478437 -0.17154
N_ N_ 0.367716 0.802652 0.086068 -0.29468
O_ O_ 0.214972 0.67566 0.431843 -0.58347
O_ O_ 0.204796 0.669122 0.386004 -0.58347
O_ O_ 0.130068 0.738314 0.438718 -0.58347
O_ O_ 0.125445 0.745804 0.392591 -0.58347
O_ O_ 0.147701 0.590503 0.424278 -0.58347
O_ O_ 0.135886 0.595521 0.377547 -0.58347
O_ O_ 0.0637381 0.656791 0.429567 -0.58347
O_ O_ 0.053465 0.662508 0.382475 -0.58347
O_ O_ 0.0782672 0.730153 0.081156 -0.46727
O_ O_ 0.239534 0.659526 0.0873688 -0.46727
O_ O_ 0.035439 0.662926 0.225715 -0.46727
O_ O_ 0.205484 0.635158 0.237838 -0.46727
O_ O_ 0.289228 0.804707 0.179831 -0.58347
O_ O_ 0.301574 0.828208 0.134022 -0.58347
O_ O_ 0.379635 0.746979 0.185159 -0.58347
O_ O_ 0.372633 0.743897 0.139209 -0.58347
O_ O_ 0.355029 0.89801 0.173886 -0.58347
O_ O_ 0.381803 0.891219 0.130411 -0.58347
O_ O_ 0.43852 0.836409 0.179434 -0.58347
O_ O_ 0.450529 0.812659 0.134443 -0.58347
O_ O_ 0.431309 0.753509 0.331738 -0.46727
O_ O_ 0.269627 0.820402 0.333098 -0.46727
O_ O_ 0.466773 0.810166 0.47459 -0.46727
O_ O_ 0.303005 0.872511 0.481518 -0.46727
Zn Zn 0.123634 0.687652 0.886539 0.90689
Zn Zn 0.134844 0.680715 0.934785 0.90689
Zn Zn 0.36997 0.823404 0.629967 0.90689
Zn Zn 0.363269 0.831798 0.678738 0.90689
H_ H_ 0.300686 0.706824 0.943093 0.11455
H_ H_ 0.36982 0.672451 0.848218 0.11455
H_ H_ 0.277205 0.671585 0.855595 0.11455
H_ H_ 0.387801 0.700588 0.965623 0.11455
H_ H_ 0.478583 0.706478 0.957656 0.11455
H_ H_ 0.459396 0.670693 0.868755 0.11455
H_ H_ 0.133192 0.513467 0.944661 0.11455
H_ H_ 0.0794032 0.937704 0.854092 0.11455
H_ H_ 0.158192 0.533549 0.854077 0.11455
H_ H_ 0.162435 0.928743 0.963952 0.11455
H_ H_ 0.126055 0.839612 0.963495 0.11455
H_ H_ 0.0928166 0.853991 0.873232 0.11455
H_ H_ 0.0877613 0.602343 0.969102 0.11455
H_ H_ 0.0585542 0.561886 0.515237 0.11455
H_ H_ 0.0916692 0.612448 0.557131 0.11455
H_ H_ 0.195013 0.745813 0.977994 0.11455
H_ H_ 0.205442 0.789731 0.513686 0.11455
H_ H_ 0.167918 0.777152 0.561609 0.11455
H_ H_ 1.00392315 0.70514 0.624975 0.11455
H_ H_ 0.988768 0.690605 0.67717 0.11455
H_ H_ 0.253848 0.68209 0.643073 0.11455
H_ H_ 0.238312 0.647003 0.690689 0.11455
H_ H_ 0.0432467 0.593629 0.757033 0.11455
H_ H_ 0.0280122 0.571715 0.80814 0.11455
H_ H_ 0.0707029 0.616399 0.844541 0.11455
H_ H_ 0.148744 0.749908 0.760944 0.11455
H_ H_ 0.192991 0.787445 0.797521 0.11455
H_ H_ 0.177181 0.764322 0.848236 0.11455
H_ H_ 0.194081 0.79968 0.693041 0.11455
H_ H_ 0.12547 0.849148 0.59684 0.11455
H_ H_ 0.218373 0.87133 0.611935 0.11455
H_ H_ 0.10427 0.801499 0.71433 0.11455
H_ H_ 0.0160502 0.803986 0.703361 0.11455
H_ H_ 0.0366697 0.833823 0.615547 0.11455
H_ H_ 0.353829 0.994981 0.689668 0.11455
H_ H_ 0.379628 0.567949 0.592335 0.11455
H_ H_ 0.37769 0.979282 0.601457 0.11455
H_ H_ 0.332767 0.578934 0.709734 0.11455
H_ H_ 0.345586 0.672366 0.704235 0.11455
H_ H_ 0.362557 0.655085 0.614983 0.11455
H_ H_ 0.425073 0.897341 0.714703 0.11455
H_ H_ 0.445821 0.920081 0.762679 0.11455
H_ H_ 0.410702 0.873408 0.80431 0.11455
H_ H_ 0.310017 0.760339 0.721614 0.11455
H_ H_ 0.286928 0.699504 0.761453 0.11455
H_ H_ 0.307222 0.723427 0.811456 0.11455
H_ H_ 0.489045 0.79088 0.870536 0.11455
H_ H_ 0.501009 0.808316 0.921338 0.11455
H_ H_ 0.243227 0.843369 0.887891 0.11455
H_ H_ 0.246196 0.833332 0.940049 0.11455
H_ H_ 0.435465 0.907775 0.996372 0.11455
H_ H_ 0.475229 0.914023 0.549351 0.11455
H_ H_ 0.427385 0.882356 0.58756 0.11455
H_ H_ 0.329355 0.769149 0.504505 0.11455
H_ H_ 0.285434 0.729634 0.545902 0.11455
H_ H_ 0.308989 0.752077 0.595331 0.11455
C_ C_ 0.227089 0.689098 0.905449 0.68181
C_ C_ 0.283137 0.686957 0.90101 -0.05681
C_ C_ 0.315968 0.692279 0.92378 -0.08735
C_ C_ 0.367233 0.687756 0.921381 -0.05681
C_ C_ 0.388001 0.679545 0.89344 -0.05681
C_ C_ 0.354679 0.674684 0.869723 -0.08735
C_ C_ 0.303416 0.681342 0.87324 -0.08735
C_ C_ 0.402245 0.693251 0.944408 -0.08735
C_ C_ 0.455969 0.692588 0.940295 -0.08735
C_ C_ 0.474164 0.686427 0.912101 -0.05681
C_ C_ 0.441116 0.675863 0.889762 -0.08735
C_ C_ 0.112791 0.782944 0.915606 0.68181
C_ C_ 0.14416 0.588563 0.901463 0.68181
C_ C_ 0.148539 0.530577 0.899477 -0.05681
C_ C_ 0.142033 0.998211 0.919264 -0.08735
C_ C_ 0.136044 0.944615 0.920118 -0.05681
C_ C_ 0.112059 0.922811 0.895737 -0.05681
C_ C_ 0.096986 0.953588 0.872332 -0.08735
C_ C_ 0.103628 0.00595382 0.873057 -0.08735
C_ C_ 0.146922 0.912792 0.943978 -0.08735
C_ C_ 0.128667 0.862115 0.943022 -0.08735
C_ C_ 0.117858 0.837804 0.916852 -0.05681
C_ C_ 0.111488 0.869614 0.892965 -0.08735
C_ C_ 0.0301115 0.672179 0.912223 0.68181
C_ C_ 0.101643 0.625234 0.987346 0.1947
C_ C_ 0.0812013 0.595164 0.512063 -0.08735
C_ C_ 0.102237 0.623033 0.535263 -0.08735
C_ C_ 0.132078 0.665911 0.531176 -0.05681
C_ C_ 0.146648 0.67638 0.501862 0.18498
C_ C_ 0.191632 0.730306 0.998951 -0.08735
C_ C_ 0.188958 0.752167 0.518864 -0.08735
C_ C_ 0.167158 0.746061 0.544962 -0.08735
C_ C_ 0.145555 0.699599 0.552942 0.18498
C_ C_ 0.178776 0.684355 0.60134 0.44287
C_ C_ 0.0921765 0.696049 0.596672 0.44287
C_ C_ 0.0840452 0.686185 0.626747 -0.05681
C_ C_ 0.0352436 0.693968 0.638566 -0.08735
C_ C_ 0.0282706 0.684714 0.667846 -0.08735
C_ C_ 0.0683461 0.679171 0.686094 -0.05681
C_ C_ 0.116547 0.675013 0.673555 -0.05681
C_ C_ 0.126989 0.68322 0.643799 -0.05681
C_ C_ 0.173802 0.683928 0.632224 -0.05681
C_ C_ 0.216751 0.679092 0.650322 -0.08735
C_ C_ 0.208763 0.663334 0.679538 -0.08735
C_ C_ 0.159065 0.666928 0.69182 -0.05681
C_ C_ 0.15113 0.661751 0.721924 0.44287
C_ C_ 0.0633996 0.679083 0.716891 0.44287
C_ C_ 0.0958965 0.656487 0.764479 0.18498
C_ C_ 0.0592765 0.619138 0.773208 -0.08735
C_ C_ 0.0569934 0.601235 0.801556 -0.08735
C_ C_ 0.0815532 0.628069 0.82324 -0.08735
C_ C_ 0.109424 0.671939 0.816496 0.18498
C_ C_ 0.11376 0.688551 0.787451 -0.05681
C_ C_ 0.143887 0.731561 0.781474 -0.08735
C_ C_ 0.16805 0.756371 0.803017 -0.08735
C_ C_ 0.158625 0.742398 0.831626 0.1947
C_ C_ 0.266649 0.828076 0.65541 0.68181
C_ C_ 0.211619 0.833712 0.652667 -0.05681
C_ C_ 0.1783 0.815464 0.673779 -0.08735
C_ C_ 0.125123 0.814837 0.668892 -0.05681
C_ C_ 0.106313 0.825802 0.6404 -0.05681
C_ C_ 0.14033 0.843689 0.618632 -0.08735
C_ C_ 0.192575 0.850603 0.626088 -0.08735
C_ C_ 0.0910812 0.809521 0.691887 -0.08735
C_ C_ 0.0396493 0.812907 0.68701 -0.08735
C_ C_ 0.0204254 0.822017 0.660487 -0.05681
C_ C_ 0.0526266 0.830632 0.637362 -0.08735
C_ C_ 0.36968 0.725776 0.657055 0.68181
C_ C_ 0.357482 0.926096 0.649094 0.68181
C_ C_ 0.35205 0.978944 0.64523 -0.05681
C_ C_ 0.347366 0.509612 0.668437 -0.08735
C_ C_ 0.355041 0.563452 0.666952 -0.05681
C_ C_ 0.365835 0.584321 0.638839 -0.05681
C_ C_ 0.368286 0.551362 0.613962 -0.08735
C_ C_ 0.361728 1.00206076 0.618154 -0.08735
C_ C_ 0.344233 0.594686 0.689559 -0.08735
C_ C_ 0.350424 0.647619 0.686341 -0.08735
C_ C_ 0.362124 0.66972 0.659519 -0.05681
C_ C_ 0.365765 0.637144 0.635801 -0.08735
C_ C_ 0.463619 0.829206 0.657917 0.68181
C_ C_ 0.405693 0.877917 0.732602 0.1947
C_ C_ 0.415358 0.89548 0.76053 -0.08735
C_ C_ 0.393758 0.869769 0.783676 -0.08735
C_ C_ 0.361332 0.827144 0.778895 -0.05681
C_ C_ 0.347959 0.815778 0.749203 0.18498
C_ C_ 0.320423 0.768621 0.743838 -0.08735
C_ C_ 0.310136 0.735505 0.765241 -0.08735
C_ C_ 0.320777 0.747927 0.793757 -0.08735
C_ C_ 0.344229 0.794195 0.801394 0.18498
C_ C_ 0.311589 0.81616 0.848648 0.44287
C_ C_ 0.399542 0.797471 0.843079 0.44287
C_ C_ 0.407417 0.806385 0.872683 -0.05681
C_ C_ 0.456448 0.803287 0.884966 -0.08735
C_ C_ 0.463211 0.812201 0.914248 -0.08735
C_ C_ 0.420916 0.811545 0.933694 -0.05681
C_ C_ 0.37136 0.813566 0.920763 -0.05681
C_ C_ 0.365386 0.812043 0.890799 -0.05681
C_ C_ 0.316606 0.822039 0.878494 -0.05681
C_ C_ 0.27571 0.831855 0.897174 -0.08735
C_ C_ 0.28027 0.829168 0.927087 -0.08735
C_ C_ 0.329883 0.821101 0.938333 -0.05681
C_ C_ 0.338385 0.825711 0.969536 0.44287
C_ C_ 0.425788 0.813193 0.963383 0.44287
C_ C_ 0.392756 0.849775 0.507877 0.18498
C_ C_ 0.427954 0.889276 0.514178 -0.08735
C_ C_ 0.443824 0.893845 0.542433 -0.08735
C_ C_ 0.416789 0.87328 0.564597 -0.08735
C_ C_ 0.378874 0.837594 0.559775 0.18498
C_ C_ 0.366738 0.823275 0.531039 -0.05681
C_ C_ 0.338605 0.779004 0.52622 -0.08735
C_ C_ 0.316935 0.75517 0.548672 -0.08735
C_ C_ 0.323157 0.775856 0.576442 0.1947
N_ N_ 0.132065 0.666429 0.982241 -0.29468
N_ N_ 0.13791 0.688868 0.58362 -0.17154
N_ N_ 0.103439 0.666943 0.733664 -0.17154
N_ N_ 0.128903 0.701084 0.837916 -0.29468
N_ N_ 0.368139 0.844548 0.727244 -0.29468
N_ N_ 0.352001 0.804138 0.831407 -0.17154
N_ N_ 0.38607 0.824108 0.980851 -0.17154
N_ N_ 0.357932 0.81296 0.582325 -0.29468
O_ O_ 0.209611 0.688913 0.931093 -0.58347
O_ O_ 0.197983 0.698234 0.884965 -0.58347
O_ O_ 0.120794 0.756173 0.938144 -0.58347
O_ O_ 0.110633 0.762777 0.890942 -0.58347
O_ O_ 0.142523 0.609007 0.926347 -0.58347
O_ O_ 0.136955 0.615702 0.879262 -0.58347
O_ O_ 0.0581516 0.670242 0.933953 -0.58347
O_ O_ 0.0482883 0.673913 0.887171 -0.58347
O_ O_ 0.0549428 0.712147 0.581228 -0.46727
O_ O_ 0.224218 0.686015 0.589884 -0.46727
O_ O_ 0.0174376 0.675734 0.7288 -0.46727
O_ O_ 0.189612 0.649838 0.739291 -0.46727
O_ O_ 0.286837 0.83334 0.679642 -0.58347
O_ O_ 0.292795 0.813652 0.634692 -0.58347
O_ O_ 0.360549 0.754803 0.677637 -0.58347
O_ O_ 0.377055 0.744519 0.632785 -0.58347
O_ O_ 0.362867 0.906503 0.67446 -0.58347
O_ O_ 0.358132 0.897629 0.626936 -0.58347
O_ O_ 0.437298 0.831321 0.679765 -0.58347
O_ O_ 0.443453 0.826896 0.632734 -0.58347
O_ O_ 0.438325 0.778612 0.827664 -0.46727
O_ O_ 0.266024 0.814397 0.838043 -0.46727
O_ O_ 0.470786 0.807439 0.974662 -0.46727
O_ O_ 0.303404 0.847755 0.984898 -0.46727
Zn Zn 0.641935 0.184292 0.381133 0.90689
Zn Zn 0.649216 0.17711 0.432413 0.90689
Zn Zn 0.877389 0.318212 0.13143 0.90689
Zn Zn 0.866823 0.327238 0.178178 0.90689
H_ H_ 0.821358 0.183097 0.447282 0.11455
H_ H_ 0.896004 0.172202 0.348662 0.11455
H_ H_ 0.799721 0.164117 0.355668 0.11455
H_ H_ 0.906123 0.173742 0.466349 0.11455
H_ H_ 0.990774 0.171925 0.46077 0.11455
H_ H_ 0.974496 0.182123 0.370138 0.11455
H_ H_ 0.655334 0.0140942 0.437692 0.11455
H_ H_ 0.624469 0.425691 0.350443 0.11455
H_ H_ 0.62295 0.0202402 0.347339 0.11455
H_ H_ 0.656007 0.430037 0.467573 0.11455
H_ H_ 0.652724 0.3396 0.464841 0.11455
H_ H_ 0.634516 0.344861 0.372911 0.11455
H_ H_ 0.595096 0.0896127 0.465281 0.11455
H_ H_ 0.5639 0.0893612 0.0176139 0.11455
H_ H_ 0.597503 0.140351 0.0578823 0.11455
H_ H_ 0.708724 0.233156 0.478134 0.11455
H_ H_ 0.714287 0.313424 0.00848398 0.11455
H_ H_ 0.711207 0.287015 0.0601438 0.11455
H_ H_ 0.523175 0.221801 0.121468 0.11455
H_ H_ 0.513609 0.215735 0.172196 0.11455
H_ H_ 0.772924 0.171625 0.137881 0.11455
H_ H_ 0.761195 0.166862 0.187828 0.11455
H_ H_ 0.575177 0.110791 0.242856 0.11455
H_ H_ 0.531928 0.096374 0.29038 0.11455
H_ H_ 0.559828 0.141185 0.333747 0.11455
H_ H_ 0.671544 0.260235 0.258744 0.11455
H_ H_ 0.694924 0.307026 0.303975 0.11455
H_ H_ 0.688709 0.267287 0.351119 0.11455
H_ H_ 0.697161 0.333131 0.192285 0.11455
H_ H_ 0.632305 0.337023 0.0918499 0.11455
H_ H_ 0.724364 0.323176 0.102982 0.11455
H_ H_ 0.608264 0.335632 0.210412 0.11455
H_ H_ 0.516443 0.321903 0.202056 0.11455
H_ H_ 0.545769 0.345086 0.111811 0.11455
H_ H_ 0.880939 0.492017 0.194235 0.11455
H_ H_ 0.871238 0.0678584 0.0969298 0.11455
H_ H_ 0.864493 0.483758 0.100233 0.11455
H_ H_ 0.885009 0.0792458 0.214593 0.11455
H_ H_ 0.890257 0.167646 0.209861 0.11455
H_ H_ 0.878151 0.150399 0.117707 0.11455
H_ H_ 0.924857 0.400383 0.215858 0.11455
H_ H_ 0.939186 0.425826 0.267104 0.11455
H_ H_ 0.908152 0.373751 0.306101 0.11455
H_ H_ 0.815063 0.259765 0.221895 0.11455
H_ H_ 0.796218 0.19566 0.25859 0.11455
H_ H_ 0.823113 0.214581 0.309589 0.11455
H_ H_ 1.00084 0.304559 0.373983 0.11455
H_ H_ 0.00510245 0.307078 0.425792 0.11455
H_ H_ 0.744067 0.326071 0.382915 0.11455
H_ H_ 0.751885 0.337721 0.435031 0.11455
H_ H_ 0.921855 0.422819 0.50341 0.11455
H_ H_ 0.962038 0.434 0.0411543 0.11455
H_ H_ 0.926619 0.391562 0.0837346 0.11455
H_ H_ 0.839674 0.258776 0.00692423 0.11455
H_ H_ 0.817092 0.21143 0.0467444 0.11455
H_ H_ 0.838054 0.23524 0.0972039 0.11455
C_ C_ 0.746643 0.186704 0.405696 0.68181
C_ C_ 0.804413 0.184365 0.401817 -0.05681
C_ C_ 0.836598 0.180252 0.425655 -0.08735
C_ C_ 0.887107 0.176054 0.421844 -0.05681
C_ C_ 0.909167 0.177691 0.39466 -0.05681
C_ C_ 0.877044 0.172204 0.370901 -0.08735
C_ C_ 0.824512 0.176876 0.373829 -0.08735
C_ C_ 0.917708 0.172742 0.445698 -0.08735
C_ C_ 0.969429 0.170056 0.441585 -0.08735
C_ C_ 0.993169 0.1649 0.415049 -0.05681
C_ C_ 0.959772 0.171628 0.391157 -0.08735
C_ C_ 0.637453 0.277428 0.418303 0.68181
C_ C_ 0.647849 0.0838491 0.394658 0.68181
C_ C_ 0.643131 0.0265564 0.392088 -0.05681
C_ C_ 0.639924 0.497004 0.423783 -0.08735
C_ C_ 0.637852 0.443663 0.423163 -0.05681
C_ C_ 0.631566 0.418132 0.39662 -0.05681
C_ C_ 0.627879 0.446416 0.370515 -0.08735
C_ C_ 0.632748 0.499272 0.371145 -0.08735
C_ C_ 0.650167 0.413343 0.44683 -0.08735
C_ C_ 0.645048 0.36112 0.446275 -0.08735
C_ C_ 0.63936 0.334844 0.420144 -0.05681
C_ C_ 0.632266 0.364823 0.395072 -0.08735
C_ C_ 0.545671 0.172333 0.407753 0.68181
C_ C_ 0.607297 0.115845 0.483357 0.1947
C_ C_ 0.592755 0.118245 0.0136596 -0.08735
C_ C_ 0.611736 0.147253 0.0359674 -0.08735
C_ C_ 0.639671 0.191401 0.0305453 -0.05681
C_ C_ 0.647547 0.206047 1.000773034 0.18498
C_ C_ 0.691863 0.223484 0.498422 -0.08735
C_ C_ 0.693808 0.280945 0.0147933 -0.08735
C_ C_ 0.694214 0.265027 0.0436109 -0.08735
C_ C_ 0.66512 0.221482 0.0523899 0.18498
C_ C_ 0.699838 0.202764 0.0991298 0.44287
C_ C_ 0.609867 0.219828 0.0934304 0.44287
C_ C_ 0.603364 0.216856 0.123374 -0.05681
C_ C_ 0.556089 0.215868 0.135955 -0.08735
C_ C_ 0.550115 0.217746 0.164745 -0.08735
C_ C_ 0.590647 0.204485 0.183446 -0.05681
C_ C_ 0.639709 0.199032 0.170404 -0.05681
C_ C_ 0.645504 0.205106 0.140275 -0.05681
C_ C_ 0.695747 0.202391 0.128879 -0.05681
C_ C_ 0.735403 0.183461 0.146537 -0.08735
C_ C_ 0.729031 0.176112 0.176009 -0.08735
C_ C_ 0.681807 0.186343 0.189125 -0.05681
C_ C_ 0.673311 0.181241 0.218295 0.44287
C_ C_ 0.588772 0.205742 0.213225 0.44287
C_ C_ 0.619107 0.172483 0.258931 0.18498
C_ C_ 0.589753 0.128954 0.262227 -0.08735
C_ C_ 0.567021 0.118932 0.289203 -0.08735
C_ C_ 0.582268 0.145286 0.314555 -0.08735
C_ C_ 0.617233 0.185844 0.311322 0.18498
C_ C_ 0.631334 0.203365 0.282956 -0.05681
C_ C_ 0.660601 0.246191 0.280387 -0.08735
C_ C_ 0.680646 0.269311 0.304463 -0.08735
C_ C_ 0.673979 0.248065 0.332404 0.1947
C_ C_ 0.774253 0.317824 0.15235 0.68181
C_ C_ 0.717884 0.324199 0.147457 -0.05681
C_ C_ 0.682771 0.324001 0.170618 -0.08735
C_ C_ 0.630391 0.336364 0.165405 -0.05681
C_ C_ 0.612411 0.3398 0.137258 -0.05681
C_ C_ 0.646664 0.338158 0.114282 -0.08735
C_ C_ 0.69985 0.335217 0.119666 -0.08735
C_ C_ 0.595988 0.330936 0.188401 -0.08735
C_ C_ 0.542124 0.333289 0.183919 -0.08735
C_ C_ 0.523649 0.332782 0.156226 -0.05681
C_ C_ 0.559666 0.339459 0.132773 -0.08735
C_ C_ 0.88046 0.223976 0.161363 0.68181
C_ C_ 0.869958 0.424203 0.151427 0.68181
C_ C_ 0.87462 0.479749 0.14786 -0.05681
C_ C_ 0.872562 0.00936545 0.171919 -0.08735
C_ C_ 0.886348 0.0607388 0.169643 -0.05681
C_ C_ 0.883855 0.081558 0.140742 -0.05681
C_ C_ 0.87866 0.0504081 0.117092 -0.08735
C_ C_ 0.873515 0.505718 0.120891 -0.08735
C_ C_ 0.887159 0.0937183 0.193336 -0.08735
C_ C_ 0.888578 0.146552 0.190595 -0.08735
C_ C_ 0.886079 0.167379 0.163747 -0.05681
C_ C_ 0.880706 0.134636 0.138474 -0.08735
C_ C_ 0.972788 0.327689 0.156707 0.68181
C_ C_ 0.906886 0.38044 0.23366 0.1947
C_ C_ 0.919641 0.391647 0.261126 -0.08735
C_ C_ 0.90392 0.361169 0.283666 -0.08735
C_ C_ 0.874847 0.317191 0.278267 -0.05681
C_ C_ 0.861944 0.307697 0.250613 0.18498
C_ C_ 0.831694 0.265002 0.243544 -0.08735
C_ C_ 0.816949 0.230907 0.264731 -0.08735
C_ C_ 0.827007 0.241553 0.293503 -0.08735
C_ C_ 0.857001 0.283913 0.300283 0.18498
C_ C_ 0.821286 0.309315 0.347385 0.44287
C_ C_ 0.911623 0.297792 0.343795 0.44287
C_ C_ 0.918157 0.307356 0.373935 -0.05681
C_ C_ 0.966363 0.308371 0.386692 -0.08735
C_ C_ 0.969137 0.308604 0.416463 -0.08735
C_ C_ 0.926411 0.318858 0.43352 -0.05681
C_ C_ 0.879562 0.32408 0.420574 -0.05681
C_ C_ 0.874866 0.313368 0.391217 -0.05681
C_ C_ 0.826497 0.31972 0.377008 -0.05681
C_ C_ 0.781486 0.326911 0.393832 -0.08735
C_ C_ 0.787076 0.334751 0.423223 -0.08735
C_ C_ 0.835 0.334099 0.437524 -0.05681
C_ C_ 0.840804 0.339777 0.46686 0.44287
C_ C_ 0.930028 0.327389 0.463696 0.44287
C_ C_ 0.88825 0.350363 0.00640193 0.18498
C_ C_ 0.918049 0.394641 0.0111814 -0.08735
C_ C_ 0.930433 0.409148 0.0391127 -0.08735
C_ C_ 0.914318 0.380313 0.0625141 -0.08735
C_ C_ 0.888337 0.3344 0.0585372 0.18498
C_ C_ 0.874629 0.320612 0.0303541 -0.05681
C_ C_ 0.852914 0.272521 0.0276895 -0.08735
C_ C_ 0.841691 0.242939 0.050752 -0.08735
C_ C_ 0.85027 0.259486 0.0783459 0.1947
N_ N_ 0.638929 0.157017 0.479037 -0.29468
N_ N_ 0.657438 0.213878 0.0824328 -0.17154
N_ N_ 0.627951 0.190105 0.23051 -0.17154
N_ N_ 0.642003 0.206467 0.334814 -0.29468
N_ N_ 0.874693 0.339719 0.229257 -0.29468
N_ N_ 0.863312 0.29619 0.331258 -0.17154
N_ N_ 0.887359 0.333514 0.479966 -0.17154
N_ N_ 0.873138 0.305706 0.0821556 -0.29468
O_ O_ 0.725523 0.184613 0.429949 -0.58347
O_ O_ 0.720175 0.192189 0.383359 -0.58347
O_ O_ 0.641142 0.250119 0.440807 -0.58347
O_ O_ 0.632365 0.256791 0.394372 -0.58347
O_ O_ 0.655813 0.105275 0.419115 -0.58347
O_ O_ 0.650396 0.110899 0.371993 -0.58347
O_ O_ 0.572813 0.166556 0.429867 -0.58347
O_ O_ 0.5662 0.172497 0.382913 -0.58347
O_ O_ 0.572828 0.233609 0.0766721 -0.46727
O_ O_ 0.743104 0.193278 0.086627 -0.46727
O_ O_ 0.548574 0.223452 0.224771 -0.46727
O_ O_ 0.711508 0.172006 0.235088 -0.46727
O_ O_ 0.793787 0.326948 0.176681 -0.58347
O_ O_ 0.80363 0.312835 0.131071 -0.58347
O_ O_ 0.874743 0.252377 0.182682 -0.58347
O_ O_ 0.886144 0.245478 0.136883 -0.58347
O_ O_ 0.86345 0.403628 0.175943 -0.58347
O_ O_ 0.870328 0.39546 0.129733 -0.58347
O_ O_ 0.945795 0.33231 0.17883 -0.58347
O_ O_ 0.952447 0.32391 0.131802 -0.58347
O_ O_ 0.951108 0.280337 0.329515 -0.46727
O_ O_ 0.779705 0.31801 0.332581 -0.46727
O_ O_ 0.973256 0.312533 0.476946 -0.46727
O_ O_ 0.803562 0.355188 0.482768 -0.46727
Zn Zn 0.615122 0.189337 0.882096 0.90689
Zn Zn 0.628216 0.181515 0.930527 0.90689
Zn Zn 0.862888 0.310866 0.632506 0.90689
Zn Zn 0.847395 0.317145 0.67834 0.90689
H_ H_ 0.801595 0.192929 0.945548 0.11455
H_ H_ 0.868049 0.187313 0.847107 0.11455
H_ H_ 0.771371 0.181803 0.852815 0.11455
H_ H_ 0.882709 0.19596 0.963993 0.11455
H_ H_ 0.974082 0.184515 0.957996 0.11455
H_ H_ 0.957468 0.18891 0.867329 0.11455
H_ H_ 0.652293 0.0225991 0.942126 0.11455
H_ H_ 0.634935 0.43852 0.849048 0.11455
H_ H_ 0.613323 0.0300363 0.853339 0.11455
H_ H_ 0.582509 0.437478 0.963019 0.11455
H_ H_ 0.589724 0.3424 0.962851 0.11455
H_ H_ 0.628299 0.353156 0.872424 0.11455
H_ H_ 0.584775 0.110659 0.968304 0.11455
H_ H_ 0.569882 0.0651862 0.513108 0.11455
H_ H_ 0.594193 0.116689 0.55551 0.11455
H_ H_ 0.688209 0.253971 0.971786 0.11455
H_ H_ 0.732428 0.283658 0.518932 0.11455
H_ H_ 0.705657 0.262952 0.566304 0.11455
H_ H_ 0.509693 0.206929 0.623148 0.11455
H_ H_ 0.498616 0.197683 0.674397 0.11455
H_ H_ 0.756022 0.149616 0.640873 0.11455
H_ H_ 0.743175 0.134905 0.691352 0.11455
H_ H_ 0.553229 0.089144 0.753772 0.11455
H_ H_ 0.536824 0.0717964 0.805406 0.11455
H_ H_ 0.558336 0.130544 0.84051 0.11455
H_ H_ 0.659576 0.23702 0.755488 0.11455
H_ H_ 0.689069 0.29361 0.794206 0.11455
H_ H_ 0.680223 0.264801 0.844633 0.11455
H_ H_ 0.682869 0.297717 0.695773 0.11455
H_ H_ 0.616984 0.323919 0.594853 0.11455
H_ H_ 0.708136 0.319911 0.606873 0.11455
H_ H_ 0.592729 0.294681 0.711729 0.11455
H_ H_ 0.505754 0.32454 0.705875 0.11455
H_ H_ 0.529009 0.326406 0.614558 0.11455
H_ H_ 0.857921 0.480612 0.691957 0.11455
H_ H_ 0.852943 0.0607361 0.59489 0.11455
H_ H_ 0.835861 0.47318 0.601003 0.11455
H_ H_ 0.858278 0.0653407 0.713889 0.11455
H_ H_ 0.849998 0.156859 0.709464 0.11455
H_ H_ 0.867867 0.1444 0.618041 0.11455
H_ H_ 0.900566 0.395827 0.713728 0.11455
H_ H_ 0.899421 0.431974 0.76111 0.11455
H_ H_ 0.8521 0.394852 0.799647 0.11455
H_ H_ 0.798102 0.244352 0.723513 0.11455
H_ H_ 0.766183 0.195689 0.764619 0.11455
H_ H_ 0.781498 0.232405 0.812904 0.11455
H_ H_ 0.968652 0.289376 0.866253 0.11455
H_ H_ -0.01832800000000001 0.30771 0.918457 0.11455
H_ H_ 0.719666 0.333032 0.890677 0.11455
H_ H_ 0.734095 0.345504 0.940021 0.11455
H_ H_ 0.930583 0.414878 0.992313 0.11455
H_ H_ 0.947458 0.436891 0.553081 0.11455
H_ H_ 0.914314 0.379135 0.592356 0.11455
H_ H_ 0.866666 0.245455 0.506365 0.11455
H_ H_ 0.835059 0.1917 0.545473 0.11455
H_ H_ 0.826537 0.223928 0.5947 0.11455
C_ C_ 0.721837 0.19884 0.904124 0.68181
C_ C_ 0.779298 0.191803 0.899322 -0.05681
C_ C_ 0.812422 0.189079 0.923425 -0.08735
C_ C_ 0.866317 0.187396 0.920027 -0.05681
C_ C_ 0.885759 0.186595 0.892312 -0.05681
C_ C_ 0.852521 0.188353 0.86779 -0.08735
C_ C_ 0.799132 0.188551 0.871197 -0.08735
C_ C_ 0.897641 0.187474 0.943575 -0.08735
C_ C_ 0.950541 0.18375 0.940057 -0.08735
C_ C_ 0.971453 0.182972 0.911908 -0.05681
C_ C_ 0.938888 0.182276 0.888323 -0.08735
C_ C_ 0.611093 0.284749 0.912722 0.68181
C_ C_ 0.626112 0.0891259 0.901375 0.68181
C_ C_ 0.62744 0.032143 0.899479 -0.05681
C_ C_ 0.61751 0.498377 0.923593 -0.08735
C_ C_ 0.611279 0.447314 0.921333 -0.05681
C_ C_ 0.621282 0.423699 0.895298 -0.05681
C_ C_ 0.630606 0.453588 0.870492 -0.08735
C_ C_ 0.625084 0.505142 0.873248 -0.08735
C_ C_ 0.59824 0.417559 0.944315 -0.08735
C_ C_ 0.596963 0.363888 0.942743 -0.08735
C_ C_ 0.605064 0.340017 0.915185 -0.05681
C_ C_ 0.61588 0.370201 0.89201 -0.08735
C_ C_ 0.525307 0.174362 0.907456 0.68181
C_ C_ 0.599985 0.134691 0.984896 0.1947
C_ C_ 0.590724 0.102433 0.510618 -0.08735
C_ C_ 0.606918 0.131111 0.534272 -0.08735
C_ C_ 0.641089 0.171167 0.531117 -0.05681
C_ C_ 0.655129 0.185319 0.502599 0.18498
C_ C_ 0.675186 0.247935 0.993807 -0.08735
C_ C_ 0.707936 0.251968 0.522272 -0.08735
C_ C_ 0.686983 0.243955 0.548992 -0.08735
C_ C_ 0.658446 0.200579 0.554653 0.18498
C_ C_ 0.688344 0.177377 0.601617 0.44287
C_ C_ 0.601542 0.197421 0.594646 0.44287
C_ C_ 0.590276 0.183697 0.623812 -0.05681
C_ C_ 0.542048 0.194764 0.635375 -0.08735
C_ C_ 0.535229 0.190593 0.664479 -0.08735
C_ C_ 0.576062 0.184915 0.684022 -0.05681
C_ C_ 0.624744 0.173102 0.671928 -0.05681
C_ C_ 0.630986 0.172496 0.641981 -0.05681
C_ C_ 0.679422 0.166228 0.630674 -0.05681
C_ C_ 0.719022 0.153158 0.64915 -0.08735
C_ C_ 0.7118 0.14402 0.678559 -0.08735
C_ C_ 0.663201 0.156154 0.690321 -0.05681
C_ C_ 0.651637 0.151051 0.719325 0.44287
C_ C_ 0.570683 0.185152 0.713681 0.44287
C_ C_ 0.597698 0.156245 0.761359 0.18498
C_ C_ 0.569566 0.113095 0.770464 -0.08735
C_ C_ 0.559488 0.102596 0.79877 -0.08735
C_ C_ 0.569514 0.137711 0.819179 -0.08735
C_ C_ 0.602627 0.178733 0.813425 0.18498
C_ C_ 0.615582 0.189636 0.784624 -0.05681
C_ C_ 0.650383 0.229065 0.778185 -0.08735
C_ C_ 0.667492 0.258875 0.799964 -0.08735
C_ C_ 0.659052 0.245835 0.828096 0.1947
C_ C_ 0.757322 0.306174 0.655215 0.68181
C_ C_ 0.701603 0.30389 0.65173 -0.05681
C_ C_ 0.666287 0.301561 0.674034 -0.08735
C_ C_ 0.614943 0.308652 0.668126 -0.05681
C_ C_ 0.597536 0.31909 0.640217 -0.05681
C_ C_ 0.630346 0.323822 0.617582 -0.08735
C_ C_ 0.682188 0.313305 0.623464 -0.08735
C_ C_ 0.581836 0.310715 0.690932 -0.08735
C_ C_ 0.530849 0.321769 0.687391 -0.08735
C_ C_ 0.511555 0.325212 0.658743 -0.05681
C_ C_ 0.546083 0.324813 0.635093 -0.08735
C_ C_ 0.859729 0.215022 0.660565 0.68181
C_ C_ 0.845306 0.412917 0.648451 0.68181
C_ C_ 0.842755 0.467629 0.64735 -0.05681
C_ C_ 0.858113 -0.0011130000000000306 0.670491 -0.08735
C_ C_ 0.852751 0.0517179 0.667726 -0.05681
C_ C_ 0.857538 0.0734682 0.640705 -0.05681
C_ C_ 0.859032 0.0434069 0.615898 -0.08735
C_ C_ 0.83933 0.492722 0.620792 -0.08735
C_ C_ 0.849277 0.0825374 0.692726 -0.08735
C_ C_ 0.854667 0.13527 0.689694 -0.08735
C_ C_ 0.856204 0.15977 0.662809 -0.05681
C_ C_ 0.85913 0.127292 0.638789 -0.08735
C_ C_ 0.95312 0.319219 0.658755 0.68181
C_ C_ 0.877216 0.379364 0.730489 0.1947
C_ C_ 0.878305 0.398272 0.757136 -0.08735
C_ C_ 0.851163 0.37506 0.779308 -0.08735
C_ C_ 0.833714 0.327137 0.776253 -0.05681
C_ C_ 0.826437 0.308999 0.747485 0.18498
C_ C_ 0.798479 0.263011 0.743782 -0.08735
C_ C_ 0.78444 0.232179 0.767413 -0.08735
C_ C_ 0.794558 0.25156 0.795608 -0.08735
C_ C_ 0.818025 0.298533 0.800541 0.18498
C_ C_ 0.792105 0.326057 0.848441 0.44287
C_ C_ 0.881223 0.304195 0.840094 0.44287
C_ C_ 0.889908 0.310689 0.869934 -0.05681
C_ C_ 0.93908 0.307304 0.880767 -0.08735
C_ C_ 0.944514 0.311847 0.910581 -0.08735
C_ C_ 0.90432 0.323206 0.928151 -0.05681
C_ C_ 0.854609 0.319798 0.918021 -0.05681
C_ C_ 0.847587 0.323661 0.888816 -0.05681
C_ C_ 0.799563 0.328528 0.877787 -0.05681
C_ C_ 0.75821 0.334779 0.897827 -0.08735
C_ C_ 0.765564 0.336379 0.927114 -0.08735
C_ C_ 0.814091 0.329276 0.937793 -0.05681
C_ C_ 0.825168 0.338847 0.966912 0.44287
C_ C_ 0.912563 0.325179 0.957928 0.44287
C_ C_ 0.893601 0.345672 0.510898 0.18498
C_ C_ 0.910529 0.393474 0.519809 -0.08735
C_ C_ 0.92061 0.405205 0.548314 -0.08735
C_ C_ 0.905707 0.370985 0.570311 -0.08735
C_ C_ 0.881061 0.326907 0.563028 0.18498
C_ C_ 0.876274 0.312285 0.533688 -0.05681
C_ C_ 0.860019 0.263168 0.527757 -0.08735
C_ C_ 0.847745 0.230664 0.550016 -0.08735
C_ C_ 0.847564 0.247816 0.578166 0.1947
N_ N_ 0.625656 0.179059 0.978752 -0.29468
N_ N_ 0.647926 0.188715 0.583558 -0.17154
N_ N_ 0.606272 0.162728 0.73085 -0.17154
N_ N_ 0.625582 0.206595 0.834804 -0.29468
N_ N_ 0.852386 0.333846 0.725248 -0.29468
N_ N_ 0.831678 0.312254 0.829967 -0.17154
N_ N_ 0.874794 0.338888 0.976952 -0.17154
N_ N_ 0.864578 0.29542 0.584609 -0.29468
O_ O_ 0.704193 0.193915 0.929497 -0.58347
O_ O_ 0.69044 0.198876 0.883574 -0.58347
O_ O_ 0.620793 0.257719 0.934722 -0.58347
O_ O_ 0.605044 0.264068 0.88859 -0.58347
O_ O_ 0.634602 0.111731 0.924398 -0.58347
O_ O_ 0.623191 0.115919 0.878999 -0.58347
O_ O_ 0.551796 0.166272 0.929278 -0.58347
O_ O_ 0.542231 0.180126 0.882584 -0.58347
O_ O_ 0.567778 0.219899 0.57783 -0.46727
O_ O_ 0.734296 0.17819 0.590244 -0.46727
O_ O_ 0.52651 0.19936 0.723234 -0.46727
O_ O_ 0.687875 0.133592 0.736536 -0.46727
O_ O_ 0.776117 0.317731 0.679591 -0.58347
O_ O_ 0.786804 0.304847 0.633561 -0.58347
O_ O_ 0.850487 0.242504 0.68247 -0.58347
O_ O_ 0.871637 0.235782 0.636374 -0.58347
O_ O_ 0.847271 0.391282 0.672399 -0.58347
O_ O_ 0.853814 0.388735 0.625476 -0.58347
O_ O_ 0.923647 0.316365 0.680398 -0.58347
O_ O_ 0.935771 0.320281 0.634133 -0.58347
O_ O_ 0.917165 0.287729 0.82264 -0.46727
O_ O_ 0.749048 0.338322 0.838447 -0.46727
O_ O_ 0.954724 0.307553 0.968796 -0.46727
O_ O_ 0.788718 0.343356 0.985916 -0.46727
Zn Zn 0.630515 0.683926 0.383399 0.90689
Zn Zn 0.641958 0.678607 0.432834 0.90689
Zn Zn 0.8738 0.819528 0.133548 0.90689
Zn Zn 0.865203 0.826364 0.17929 0.90689
H_ H_ 0.803573 0.686936 0.443666 0.11455
H_ H_ 0.875618 0.683568 0.345158 0.11455
H_ H_ 0.786262 0.670804 0.353812 0.11455
H_ H_ 0.885154 0.657584 0.463724 0.11455
H_ H_ 0.978046 0.654282 0.457757 0.11455
H_ H_ 0.96515 0.662694 0.365109 0.11455
H_ H_ 0.650161 0.516859 0.443512 0.11455
H_ H_ 0.609259 0.929652 0.347946 0.11455
H_ H_ 0.620002 0.520048 0.351678 0.11455
H_ H_ 0.65451 0.932483 0.463676 0.11455
H_ H_ 0.640373 0.84032 0.461448 0.11455
H_ H_ 0.625263 0.846055 0.368099 0.11455
H_ H_ 0.599318 0.598714 0.470661 0.11455
H_ H_ 0.568104 0.575036 0.0213691 0.11455
H_ H_ 0.598932 0.626556 0.0601525 0.11455
H_ H_ 0.701901 0.740855 0.471973 0.11455
H_ H_ 0.722823 0.797315 0.0131698 0.11455
H_ H_ 0.700902 0.777408 0.0640353 0.11455
H_ H_ 0.513902 0.715555 0.128014 0.11455
H_ H_ 0.501214 0.6937 0.17597 0.11455
H_ H_ 0.763046 0.672811 0.136817 0.11455
H_ H_ 0.754073 0.659091 0.189509 0.11455
H_ H_ 0.575324 0.580516 0.252409 0.11455
H_ H_ 0.566806 0.552256 0.301004 0.11455
H_ H_ 0.580173 0.615054 0.340154 0.11455
H_ H_ 0.648747 0.746093 0.256644 0.11455
H_ H_ 0.67921 0.796614 0.297728 0.11455
H_ H_ 0.670426 0.771568 0.344808 0.11455
H_ H_ 0.695986 0.802181 0.198785 0.11455
H_ H_ 0.630598 0.835365 0.102644 0.11455
H_ H_ 0.723153 0.834998 0.111026 0.11455
H_ H_ 0.60386 0.805062 0.21977 0.11455
H_ H_ 0.518265 0.814444 0.209855 0.11455
H_ H_ 0.543515 0.84146 0.120593 0.11455
H_ H_ 0.868726 0.995344 0.193743 0.11455
H_ H_ 0.872718 0.576101 0.0980668 0.11455
H_ H_ 0.8631 0.97942 0.100494 0.11455
H_ H_ 0.89344 0.573523 0.216767 0.11455
H_ H_ 0.889902 0.669856 0.213208 0.11455
H_ H_ 0.86136 0.652847 0.122335 0.11455
H_ H_ 0.930664 0.892443 0.212764 0.11455
H_ H_ 0.947391 0.922554 0.261849 0.11455
H_ H_ 0.902229 0.884022 0.303268 0.11455
H_ H_ 0.799402 0.773347 0.222957 0.11455
H_ H_ 0.771397 0.715919 0.261944 0.11455
H_ H_ 0.787964 0.739128 0.311984 0.11455
H_ H_ 0.981262 0.77526 0.373431 0.11455
H_ H_ 0.00153069 0.795754 0.422883 0.11455
H_ H_ 0.742435 0.862117 0.387871 0.11455
H_ H_ 0.758338 0.874535 0.439109 0.11455
H_ H_ 0.95564 0.905143 0.501066 0.11455
H_ H_ 0.954813 0.929122 0.0470011 0.11455
H_ H_ 0.923735 0.884396 0.0884727 0.11455
H_ H_ 0.83808 0.744891 0.0101953 0.11455
H_ H_ 0.817055 0.700429 0.0526611 0.11455
H_ H_ 0.840881 0.72743 0.100399 0.11455
C_ C_ 0.734229 0.687111 0.402867 0.68181
C_ C_ 0.787425 0.68718 0.398706 -0.05681
C_ C_ 0.82187 0.684275 0.422576 -0.08735
C_ C_ 0.871891 0.672914 0.418828 -0.05681
C_ C_ 0.894726 0.674327 0.390728 -0.05681
C_ C_ 0.863177 0.681648 0.366683 -0.08735
C_ C_ 0.809916 0.676348 0.371891 -0.08735
C_ C_ 0.902634 0.666988 0.442924 -0.08735
C_ C_ 0.954056 0.660202 0.438731 -0.08735
C_ C_ 0.977424 0.664968 0.411261 -0.05681
C_ C_ 0.947595 0.666009 0.386857 -0.08735
C_ C_ 0.627426 0.780233 0.413743 0.68181
C_ C_ 0.640416 0.580804 0.39974 0.68181
C_ C_ 0.63723 0.524364 0.397652 -0.05681
C_ C_ 0.648599 0.996517 0.418187 -0.08735
C_ C_ 0.639861 0.942472 0.417835 -0.05681
C_ C_ 0.632376 0.917227 0.391639 -0.05681
C_ C_ 0.622248 0.947535 0.367733 -0.08735
C_ C_ 0.629831 1.000101952 0.367346 -0.08735
C_ C_ 0.644328 0.913264 0.443818 -0.08735
C_ C_ 0.638127 0.860879 0.441755 -0.08735
C_ C_ 0.631415 0.835751 0.414728 -0.05681
C_ C_ 0.630167 0.863305 0.389533 -0.08735
C_ C_ 0.535415 0.676793 0.411674 0.68181
C_ C_ 0.6214 0.617039 0.488452 0.1947
C_ C_ 0.589144 0.611588 0.0157943 -0.08735
C_ C_ 0.607882 0.640367 0.0380406 -0.08735
C_ C_ 0.635711 0.684463 0.0314537 -0.05681
C_ C_ 0.648602 0.694854 1.00232618 0.18498
C_ C_ 0.691161 0.735112 0.494401 -0.08735
C_ C_ 0.69541 0.768609 0.0186063 -0.08735
C_ C_ 0.684664 0.758363 0.0476233 -0.08735
C_ C_ 0.651857 0.717353 0.0543552 0.18498
C_ C_ 0.685682 0.687391 0.0997948 0.44287
C_ C_ 0.59932 0.710689 0.0962968 0.44287
C_ C_ 0.592631 0.699143 0.126309 -0.05681
C_ C_ 0.545705 0.702479 0.139407 -0.08735
C_ C_ 0.539197 0.694763 0.169086 -0.08735
C_ C_ 0.581873 0.686619 0.18617 -0.05681
C_ C_ 0.630066 0.682242 0.172466 -0.05681
C_ C_ 0.635402 0.693153 0.143641 -0.05681
C_ C_ 0.683797 0.68617 0.130565 -0.05681
C_ C_ 0.727048 0.678917 0.147033 -0.08735
C_ C_ 0.721375 0.668427 0.17595 -0.08735
C_ C_ 0.672766 0.668343 0.188244 -0.05681
C_ C_ 0.667699 0.660044 0.218132 0.44287
C_ C_ 0.579675 0.68165 0.216346 0.44287
C_ C_ 0.612573 0.651698 0.261078 0.18498
C_ C_ 0.592404 0.604271 0.268069 -0.08735
C_ C_ 0.581443 0.591 0.297028 -0.08735
C_ C_ 0.592217 0.624545 0.318635 -0.08735
C_ C_ 0.622231 0.666799 0.312766 0.18498
C_ C_ 0.628407 0.683237 0.283593 -0.05681
C_ C_ 0.648694 0.731165 0.277969 -0.08735
C_ C_ 0.658897 0.763537 0.3003 -0.08735
C_ C_ 0.652157 0.74724 0.328784 0.1947
C_ C_ 0.770978 0.814761 0.159475 0.68181
C_ C_ 0.71582 0.817588 0.155662 -0.05681
C_ C_ 0.680938 0.81117 0.179083 -0.08735
C_ C_ 0.627571 0.815017 0.174614 -0.05681
C_ C_ 0.609436 0.827947 0.147453 -0.05681
C_ C_ 0.644125 0.83071 0.12409 -0.08735
C_ C_ 0.696485 0.825142 0.128092 -0.08735
C_ C_ 0.593928 0.809712 0.19771 -0.08735
C_ C_ 0.543711 0.821775 0.193381 -0.08735
C_ C_ 0.52323 0.828693 0.165988 -0.05681
C_ C_ 0.557533 0.83449 0.142231 -0.08735
C_ C_ 0.876495 0.724325 0.164413 0.68181
C_ C_ 0.863999 0.921285 0.14883 0.68181
C_ C_ 0.868475 0.977805 0.147156 -0.05681
C_ C_ 0.881916 0.507452 0.173159 -0.08735
C_ C_ 0.884476 0.560537 0.171343 -0.05681
C_ C_ 0.879806 0.585358 0.144701 -0.05681
C_ C_ 0.87795 0.558007 0.119241 -0.08735
C_ C_ 0.871508 1.000618636 0.119844 -0.08735
C_ C_ 0.884881 0.590744 0.196277 -0.08735
C_ C_ 0.890366 0.643839 0.194107 -0.08735
C_ C_ 0.879524 0.667999 0.167481 -0.05681
C_ C_ 0.868221 0.636816 0.143054 -0.08735
C_ C_ 0.969226 0.831378 0.155577 0.68181
C_ C_ 0.907617 0.877625 0.230943 0.1947
C_ C_ 0.918002 0.894442 0.259333 -0.08735
C_ C_ 0.891946 0.87322 0.28192 -0.08735
C_ C_ 0.860062 0.830692 0.277263 -0.05681
C_ C_ 0.851016 0.81578 0.248156 0.18498
C_ C_ 0.813734 0.779163 0.243379 -0.08735
C_ C_ 0.794488 0.749899 0.265858 -0.08735
C_ C_ 0.804896 0.761174 0.294168 -0.08735
C_ C_ 0.83934 0.800722 0.300807 0.18498
C_ C_ 0.81046 0.82906 0.347806 0.44287
C_ C_ 0.893558 0.794914 0.343553 0.44287
C_ C_ 0.902958 0.800382 0.372765 -0.05681
C_ C_ 0.951124 0.791258 0.385497 -0.08735
C_ C_ 0.962332 0.801501 0.414529 -0.08735
C_ C_ 0.921336 0.811074 0.43306 -0.05681
C_ C_ 0.873409 0.827262 0.421167 -0.05681
C_ C_ 0.864415 0.819567 0.391015 -0.05681
C_ C_ 0.818389 0.836112 0.37887 -0.05681
C_ C_ 0.778717 0.849446 0.397323 -0.08735
C_ C_ 0.78921 0.858194 0.426789 -0.08735
C_ C_ 0.833669 0.842972 0.439713 -0.05681
C_ C_ 0.845182 0.846207 0.469401 0.44287
C_ C_ 0.930344 0.818979 0.462878 0.44287
C_ C_ 0.888008 0.840006 0.01093 0.18498
C_ C_ 0.912973 0.886465 0.0156037 -0.08735
C_ C_ 0.926922 0.899917 0.0431045 -0.08735
C_ C_ 0.910399 0.873191 0.0672321 -0.08735
C_ C_ 0.878748 0.828569 0.063274 0.18498
C_ C_ 0.867592 0.812209 0.0354443 -0.05681
C_ C_ 0.846962 0.76204 0.0320624 -0.08735
C_ C_ 0.837045 0.7346 0.0549172 -0.08735
C_ C_ 0.844676 0.753149 0.0821889 0.1947
N_ N_ 0.642141 0.662825 0.481632 -0.29468
N_ N_ 0.645663 0.702817 0.0834332 -0.17154
N_ N_ 0.620296 0.663917 0.231504 -0.17154
N_ N_ 0.631901 0.70011 0.334602 -0.29468
N_ N_ 0.873066 0.841095 0.22626 -0.29468
N_ N_ 0.850162 0.813311 0.330473 -0.17154
N_ N_ 0.892467 0.837238 0.480522 -0.17154
N_ N_ 0.864251 0.798931 0.0863934 -0.29468
O_ O_ 0.716522 0.676091 0.42764 -0.58347
O_ O_ 0.705455 0.693425 0.380771 -0.58347
O_ O_ 0.640085 0.754879 0.435238 -0.58347
O_ O_ 0.620134 0.75653 0.391284 -0.58347
O_ O_ 0.640665 0.604922 0.424032 -0.58347
O_ O_ 0.634891 0.606857 0.376876 -0.58347
O_ O_ 0.56435 0.680896 0.433168 -0.58347
O_ O_ 0.556283 0.670509 0.387453 -0.58347
O_ O_ 0.558722 0.722038 0.0823323 -0.46727
O_ O_ 0.724083 0.667112 0.0864075 -0.46727
O_ O_ 0.535404 0.686268 0.229212 -0.46727
O_ O_ 0.706408 0.650022 0.233644 -0.46727
O_ O_ 0.791662 0.831096 0.181476 -0.58347
O_ O_ 0.799212 0.802175 0.138963 -0.58347
O_ O_ 0.864154 0.751739 0.185708 -0.58347
O_ O_ 0.89041 0.744006 0.140738 -0.58347
O_ O_ 0.866657 0.901714 0.173043 -0.58347
O_ O_ 0.860396 0.892658 0.127622 -0.58347
O_ O_ 0.941562 0.827713 0.177343 -0.58347
O_ O_ 0.948322 0.826346 0.13078 -0.58347
O_ O_ 0.929931 0.775336 0.327747 -0.46727
O_ O_ 0.769043 0.845848 0.335872 -0.46727
O_ O_ 0.972339 0.800966 0.474681 -0.46727
O_ O_ 0.810472 0.864522 0.486522 -0.46727
Zn Zn 0.624258 0.688668 0.884843 0.90689
Zn Zn 0.630196 0.678847 0.933325 0.90689
Zn Zn 0.872712 0.812606 0.632444 0.90689
Zn Zn 0.861904 0.81651 0.680341 0.90689
H_ H_ 0.79886 0.668468 0.947648 0.11455
H_ H_ 0.868268 0.671952 0.848963 0.11455
H_ H_ 0.775622 0.676922 0.856132 0.11455
H_ H_ 0.884555 0.685283 0.965714 0.11455
H_ H_ 0.979792 0.677248 0.960137 0.11455
H_ H_ 0.953447 0.666179 0.869047 0.11455
H_ H_ 0.611536 0.514592 0.943955 0.11455
H_ H_ 0.611333 0.937073 0.848756 0.11455
H_ H_ 0.626611 0.528313 0.853965 0.11455
H_ H_ 0.652499 0.935778 0.965462 0.11455
H_ H_ 0.653321 0.843742 0.964608 0.11455
H_ H_ 0.616272 0.85362 0.872407 0.11455
H_ H_ 0.581075 0.600767 0.970393 0.11455
H_ H_ 0.587889 0.571418 0.523041 0.11455
H_ H_ 0.618877 0.625235 0.561737 0.11455
H_ H_ 0.69606 0.739961 0.975313 0.11455
H_ H_ 0.714171 0.808252 0.507088 0.11455
H_ H_ 0.692562 0.792346 0.559345 0.11455
H_ H_ 0.523518 0.718665 0.62553 0.11455
H_ H_ 0.512403 0.680342 0.672487 0.11455
H_ H_ 0.771474 0.688268 0.640277 0.11455
H_ H_ 0.760891 0.656095 0.691566 0.11455
H_ H_ 0.559341 0.593049 0.751653 0.11455
H_ H_ 0.520278 0.588228 0.797849 0.11455
H_ H_ 0.553869 0.641857 0.837244 0.11455
H_ H_ 0.675591 0.736546 0.759797 0.11455
H_ H_ 0.69094 0.795678 0.799204 0.11455
H_ H_ 0.664426 0.772209 0.847435 0.11455
H_ H_ 0.686904 0.806199 0.696674 0.11455
H_ H_ 0.632384 0.855866 0.599462 0.11455
H_ H_ 0.720775 0.838621 0.607826 0.11455
H_ H_ 0.604655 0.80651 0.713371 0.11455
H_ H_ 0.51483 0.811441 0.70608 0.11455
H_ H_ 0.53657 0.840279 0.616221 0.11455
H_ H_ 0.860774 0.981079 0.691348 0.11455
H_ H_ 0.841246 0.563757 0.599141 0.11455
H_ H_ 0.857474 0.968609 0.600156 0.11455
H_ H_ 0.865822 0.55968 0.715565 0.11455
H_ H_ 0.885818 0.653106 0.711857 0.11455
H_ H_ 0.835254 0.645746 0.622502 0.11455
H_ H_ 0.905563 0.89884 0.714425 0.11455
H_ H_ 0.902577 0.94157 0.762575 0.11455
H_ H_ 0.884693 0.885381 0.804907 0.11455
H_ H_ 0.813183 0.745076 0.723488 0.11455
H_ H_ 0.81146 0.685392 0.765061 0.11455
H_ H_ 0.813407 0.714264 0.813613 0.11455
H_ H_ 0.988505 0.794341 0.87246 0.11455
H_ H_ 0.997614 0.81124 0.924157 0.11455
H_ H_ 0.734639 0.828359 0.885378 0.11455
H_ H_ 0.74548 0.839444 0.94063 0.11455
H_ H_ 0.924454 0.908768 0.997643 0.11455
H_ H_ 0.993132 0.903259 0.548777 0.11455
H_ H_ 0.950463 0.863257 0.590363 0.11455
H_ H_ 0.82711 0.770305 0.50948 0.11455
H_ H_ 0.785266 0.731321 0.548646 0.11455
H_ H_ 0.825476 0.74143 0.596342 0.11455
C_ C_ 0.725655 0.685043 0.906763 0.68181
C_ C_ 0.781485 0.676461 0.90273 -0.05681
C_ C_ 0.815286 0.672307 0.926594 -0.08735
C_ C_ 0.866679 0.667602 0.923138 -0.05681
C_ C_ 0.886943 0.668296 0.895849 -0.05681
C_ C_ 0.854268 0.67306 0.871425 -0.08735
C_ C_ 0.801794 0.674984 0.874425 -0.08735
C_ C_ 0.900457 0.671477 0.946449 -0.08735
C_ C_ 0.953282 0.672938 0.942057 -0.08735
C_ C_ 0.975 0.671201 0.914691 -0.05681
C_ C_ 0.939471 0.665121 0.891317 -0.08735
C_ C_ 0.633706 0.783468 0.916065 0.68181
C_ C_ 0.626003 0.584786 0.9018 0.68181
C_ C_ 0.623431 0.528754 0.899155 -0.05681
C_ C_ 0.640517 0.00115632 0.923056 -0.08735
C_ C_ 0.635896 0.948211 0.92226 -0.05681
C_ C_ 0.628028 0.925203 0.895087 -0.05681
C_ C_ 0.617081 0.954451 0.870166 -0.08735
C_ C_ 0.61628 0.00772726 0.872839 -0.08735
C_ C_ 0.642421 0.917137 0.946288 -0.08735
C_ C_ 0.643974 0.864974 0.944622 -0.08735
C_ C_ 0.635661 0.840336 0.917864 -0.05681
C_ C_ 0.625322 0.870277 0.893516 -0.08735
C_ C_ 0.528838 0.685699 0.908267 0.68181
C_ C_ 0.596666 0.625184 0.987101 0.1947
C_ C_ 0.611253 0.603835 0.517252 -0.08735
C_ C_ 0.628449 0.635943 0.538647 -0.08735
C_ C_ 0.651406 0.681599 0.531175 -0.05681
C_ C_ 0.661511 0.693165 0.501873 0.18498
C_ C_ 0.679948 0.735661 0.996748 -0.08735
C_ C_ 0.700391 0.772267 0.514176 -0.08735
C_ C_ 0.689283 0.761931 0.543211 -0.08735
C_ C_ 0.66662 0.716774 0.55254 0.18498
C_ C_ 0.701399 0.692827 0.600095 0.44287
C_ C_ 0.613672 0.715463 0.595288 0.44287
C_ C_ 0.604065 0.704429 0.625383 -0.05681
C_ C_ 0.554561 0.708717 0.637472 -0.08735
C_ C_ 0.54777 0.695293 0.666435 -0.08735
C_ C_ 0.589106 0.684063 0.683938 -0.05681
C_ C_ 0.637849 0.681422 0.673038 -0.05681
C_ C_ 0.644481 0.689609 0.643044 -0.05681
C_ C_ 0.692412 0.683217 0.630215 -0.05681
C_ C_ 0.733526 0.678585 0.648126 -0.08735
C_ C_ 0.7285 0.663527 0.677779 -0.08735
C_ C_ 0.679277 0.666165 0.68997 -0.05681
C_ C_ 0.670143 0.658383 0.719864 0.44287
C_ C_ 0.581703 0.675714 0.713164 0.44287
C_ C_ 0.610801 0.654779 0.761167 0.18498
C_ C_ 0.57924 0.614103 0.768276 -0.08735
C_ C_ 0.556829 0.60825 0.795769 -0.08735
C_ C_ 0.574269 0.639528 0.81865 -0.08735
C_ C_ 0.613237 0.675176 0.813431 0.18498
C_ C_ 0.630044 0.684506 0.784244 -0.05681
C_ C_ 0.659396 0.731003 0.779938 -0.08735
C_ C_ 0.675966 0.758667 0.803223 -0.08735
C_ C_ 0.660397 0.746532 0.830931 0.1947
C_ C_ 0.769848 0.817595 0.657063 0.68181
C_ C_ 0.713356 0.823371 0.652735 -0.05681
C_ C_ 0.67592 0.817897 0.674482 -0.08735
C_ C_ 0.625727 0.824817 0.669752 -0.05681
C_ C_ 0.607537 0.835909 0.641524 -0.05681
C_ C_ 0.642748 0.839394 0.61987 -0.08735
C_ C_ 0.69442 0.830885 0.62515 -0.08735
C_ C_ 0.590986 0.817551 0.692344 -0.08735
C_ C_ 0.539385 0.819564 0.687136 -0.08735
C_ C_ 0.520135 0.828229 0.660858 -0.05681
C_ C_ 0.553649 0.836525 0.637626 -0.08735
C_ C_ 0.872204 0.714459 0.662953 0.68181
C_ C_ 0.862515 0.913376 0.648906 0.68181
C_ C_ 0.860645 0.969829 0.645671 -0.05681
C_ C_ 0.845111 0.497593 0.672422 -0.08735
C_ C_ 0.852218 0.550321 0.670546 -0.05681
C_ C_ 0.851865 0.574578 0.643414 -0.05681
C_ C_ 0.844709 0.546129 0.618671 -0.08735
C_ C_ 0.858162 0.991873 0.618011 -0.08735
C_ C_ 0.863351 0.579342 0.695219 -0.08735
C_ C_ 0.875412 0.6315 0.69252 -0.08735
C_ C_ 0.869353 0.656966 0.665408 -0.05681
C_ C_ 0.84982 0.627438 0.641778 -0.08735
C_ C_ 0.964588 0.821413 0.655365 0.68181
C_ C_ 0.88406 0.879298 0.732314 0.1947
C_ C_ 0.888399 0.902173 0.7594 -0.08735
C_ C_ 0.87895 0.871107 0.783707 -0.08735
C_ C_ 0.860211 0.81983 0.779149 -0.05681
C_ C_ 0.848084 0.803505 0.750743 0.18498
C_ C_ 0.823803 0.757856 0.745788 -0.08735
C_ C_ 0.817319 0.724695 0.768128 -0.08735
C_ C_ 0.825339 0.739423 0.796532 -0.08735
C_ C_ 0.847182 0.786369 0.802443 0.18498
C_ C_ 0.8112 0.81042 0.848426 0.44287
C_ C_ 0.899577 0.799557 0.843562 0.44287
C_ C_ 0.907081 0.808665 0.873242 -0.05681
C_ C_ 0.955136 0.800748 0.886039 -0.08735
C_ C_ 0.960483 0.806641 0.915358 -0.08735
C_ C_ 0.917462 0.806869 0.934297 -0.05681
C_ C_ 0.868431 0.814552 0.922059 -0.05681
C_ C_ 0.864267 0.814669 0.891636 -0.05681
C_ C_ 0.81506 0.812556 0.879511 -0.05681
C_ C_ 0.772238 0.824279 0.896872 -0.08735
C_ C_ 0.779438 0.834085 0.926635 -0.08735
C_ C_ 0.825611 0.822046 0.939713 -0.05681
C_ C_ 0.832965 0.830146 0.968765 0.44287
C_ C_ 0.922308 0.816222 0.964863 0.44287
C_ C_ 0.903919 0.843206 0.511285 0.18498
C_ C_ 0.937223 0.883174 0.517673 -0.08735
C_ C_ 0.958313 0.882729 0.54606 -0.08735
C_ C_ 0.936139 0.85668 0.568852 -0.08735
C_ C_ 0.895316 0.825066 0.563659 0.18498
C_ C_ 0.880907 0.816299 0.534409 -0.05681
C_ C_ 0.83696 0.785132 0.529908 -0.08735
C_ C_ 0.815455 0.75927 0.552169 -0.08735
C_ C_ 0.837319 0.762967 0.578967 0.1947
N_ N_ 0.627479 0.665197 0.981122 -0.29468
N_ N_ 0.660426 0.706951 0.583426 -0.17154
N_ N_ 0.621198 0.664615 0.731384 -0.17154
N_ N_ 0.634082 0.703518 0.835131 -0.29468
N_ N_ 0.862514 0.833336 0.728152 -0.29468
N_ N_ 0.852484 0.8016 0.832112 -0.17154
N_ N_ 0.880568 0.825698 0.98131 -0.17154
N_ N_ 0.870594 0.799832 0.58558 -0.29468
O_ O_ 0.704726 0.686538 0.931462 -0.58347
O_ O_ 0.698015 0.681296 0.884779 -0.58347
O_ O_ 0.624107 0.756889 0.937573 -0.58347
O_ O_ 0.631078 0.76351 0.89182 -0.58347
O_ O_ 0.632113 0.604114 0.926683 -0.58347
O_ O_ 0.624199 0.612976 0.879974 -0.58347
O_ O_ 0.557385 0.674865 0.929893 -0.58347
O_ O_ 0.547518 0.689735 0.885133 -0.58347
O_ O_ 0.576129 0.730245 0.577411 -0.46727
O_ O_ 0.745278 0.686695 0.587685 -0.46727
O_ O_ 0.535192 0.682856 0.724463 -0.46727
O_ O_ 0.70468 0.63835 0.735177 -0.46727
O_ O_ 0.787388 0.806659 0.682209 -0.58347
O_ O_ 0.797624 0.820598 0.63553 -0.58347
O_ O_ 0.874462 0.741242 0.685816 -0.58347
O_ O_ 0.865606 0.736724 0.639973 -0.58347
O_ O_ 0.84861 0.891611 0.672157 -0.58347
O_ O_ 0.881024 0.887426 0.629353 -0.58347
O_ O_ 0.93392 0.832604 0.675654 -0.58347
O_ O_ 0.948764 0.806839 0.632513 -0.58347
O_ O_ 0.938856 0.787806 0.827014 -0.46727
O_ O_ 0.768283 0.819072 0.836441 -0.46727
O_ O_ 0.967837 0.81117 0.977441 -0.46727
O_ O_ 0.794824 0.835584 0.986919 -0.46727
