_cell_length_a 26.376
_cell_length_b 26.400000238300095
_cell_length_c 46.67800035477134
_cell_angle_alpha 90.00700052986613
_cell_angle_beta 89.99899961309502
_cell_angle_gamma 90.45000003183146
_symmetry_space_group_name_H-M         'P 1'
_symmetry_Int_Tables_number            1
loop_
_symmetry_equiv_pos_as_xyz
   'x, y, z'
                         
loop_
_atom_site_label
_atom_site_type_symbol
_atom_site_fract_x 
_atom_site_fract_y
_atom_site_fract_z
_atom_site_charge
Zn Zn 0.122233 0.184249 0.385968 0.90689
Zn Zn 0.131341 0.179597 0.433633 0.90689
Zn Zn 0.378619 0.313207 0.128991 0.90689
Zn Zn 0.372363 0.314361 0.177209 0.90689
H_ H_ 0.303393 0.190624 0.447237 0.11455
H_ H_ 0.369551 0.170396 0.34864 0.11455
H_ H_ 0.277101 0.181859 0.357439 0.11455
H_ H_ 0.390742 0.189124 0.467157 0.11455
H_ H_ 0.480937 0.18279 0.461434 0.11455
H_ H_ 0.459909 0.174983 0.368929 0.11455
H_ H_ 0.11993 0.0119064 0.44851 0.11455
H_ H_ 0.120805 0.431237 0.348406 0.11455
H_ H_ 0.167634 0.0251285 0.362374 0.11455
H_ H_ 0.121751 0.423959 0.467554 0.11455
H_ H_ 0.109152 0.335702 0.461535 0.11455
H_ H_ 0.112833 0.349023 0.37063 0.11455
H_ H_ 0.0689742 0.114798 0.47141 0.11455
H_ H_ 0.0591088 0.0738503 0.0146019 0.11455
H_ H_ 0.0993314 0.109302 0.0555494 0.11455
H_ H_ 0.197932 0.238231 0.472701 0.11455
H_ H_ 0.233163 0.281492 0.018593 0.11455
H_ H_ 0.214167 0.253713 0.0670452 0.11455
H_ H_ 0.0235887 0.21168 0.130762 0.11455
H_ H_ 0.0101081 0.181482 0.178159 0.11455
H_ H_ 0.273088 0.166997 0.142675 0.11455
H_ H_ 0.260649 0.135367 0.190458 0.11455
H_ H_ 0.105216 0.0616173 0.258101 0.11455
H_ H_ 0.0748378 0.0445569 0.306279 0.11455
H_ H_ 0.0805823 0.105315 0.345218 0.11455
H_ H_ 0.162779 0.235643 0.261563 0.11455
H_ H_ 0.189968 0.286499 0.305286 0.11455
H_ H_ 0.170901 0.258 0.35289 0.11455
H_ H_ 0.202555 0.295964 0.191451 0.11455
H_ H_ 0.132342 0.32647 0.0929696 0.11455
H_ H_ 0.225183 0.31745 0.101144 0.11455
H_ H_ 0.121769 0.301816 0.208605 0.11455
H_ H_ 0.0330251 0.318025 0.205756 0.11455
H_ H_ 0.0489848 0.311311 0.11355 0.11455
H_ H_ 0.404255 0.476608 0.187619 0.11455
H_ H_ 0.356822 0.0553434 0.0969187 0.11455
H_ H_ 0.330357 0.469042 0.105598 0.11455
H_ H_ 0.382536 0.0679152 0.212525 0.11455
H_ H_ 0.391429 0.158891 0.203832 0.11455
H_ H_ 0.356247 0.139261 0.115859 0.11455
H_ H_ 0.434835 0.386032 0.214362 0.11455
H_ H_ 0.447537 0.413235 0.263303 0.11455
H_ H_ 0.400855 0.370463 0.302163 0.11455
H_ H_ 0.310892 0.256999 0.215928 0.11455
H_ H_ 0.277286 0.19983 0.253239 0.11455
H_ H_ 0.293094 0.221263 0.303892 0.11455
H_ H_ 0.487259 0.281988 0.368698 0.11455
H_ H_ 0.501259 0.303305 0.419317 0.11455
H_ H_ 0.236992 0.304285 0.386781 0.11455
H_ H_ 0.247558 0.324638 0.436378 0.11455
H_ H_ 0.445092 0.412106 0.492925 0.11455
H_ H_ 0.424389 0.453786 0.0507021 0.11455
H_ H_ 0.414128 0.387856 0.0886545 0.11455
H_ H_ 0.34303 0.258458 0.00494404 0.11455
H_ H_ 0.316395 0.203563 0.0423832 0.11455
H_ H_ 0.32304 0.233984 0.0924399 0.11455
C_ C_ 0.2285 0.190366 0.408354 0.68181
C_ C_ 0.285673 0.19002 0.402966 -0.05681
C_ C_ 0.320678 0.188495 0.426317 -0.08735
C_ C_ 0.373467 0.183884 0.422081 -0.05681
C_ C_ 0.39192 0.177912 0.393602 -0.05681
C_ C_ 0.356212 0.176385 0.370245 -0.08735
C_ C_ 0.303237 0.183892 0.37533 -0.08735
C_ C_ 0.405359 0.184333 0.446086 -0.08735
C_ C_ 0.456788 0.177142 0.441739 -0.08735
C_ C_ 0.477528 0.173962 0.412812 -0.05681
C_ C_ 0.443368 0.173319 0.389501 -0.08735
C_ C_ 0.118055 0.279577 0.412586 0.68181
C_ C_ 0.130974 0.0829795 0.405697 0.68181
C_ C_ 0.130987 0.0265328 0.403284 -0.05681
C_ C_ 0.120978 0.49393 0.423293 -0.08735
C_ C_ 0.117015 0.442726 0.421767 -0.05681
C_ C_ 0.113929 0.419848 0.393767 -0.05681
C_ C_ 0.116375 0.450953 0.368731 -0.08735
C_ C_ 0.113682 0.502511 0.371647 -0.08735
C_ C_ 0.119893 0.410244 0.446051 -0.08735
C_ C_ 0.114887 0.358227 0.442167 -0.08735
C_ C_ 0.11225 0.334343 0.415335 -0.05681
C_ C_ 0.116414 0.365996 0.391614 -0.08735
C_ C_ 0.0299215 0.177804 0.407221 0.68181
C_ C_ 0.0852473 0.139187 0.487925 0.1947
C_ C_ 0.079982 0.108165 0.0123349 -0.08735
C_ C_ 0.106924 0.125942 0.0358493 -0.08735
C_ C_ 0.138238 0.169551 0.0327537 -0.05681
C_ C_ 0.147331 0.187148 1.00368517 0.18498
C_ C_ 0.185153 0.23715 0.494137 -0.08735
C_ C_ 0.208053 0.249641 0.0218838 -0.08735
C_ C_ 0.196406 0.233112 0.049423 -0.08735
C_ C_ 0.162086 0.19585 0.0562485 0.18498
C_ C_ 0.194975 0.171501 0.103262 0.44287
C_ C_ 0.10806 0.194007 0.099863 0.44287
C_ C_ 0.10041 0.181149 0.129011 -0.05681
C_ C_ 0.0542053 0.191411 0.141425 -0.08735
C_ C_ 0.0490449 0.179687 0.170332 -0.08735
C_ C_ 0.09017 0.168815 0.188814 -0.05681
C_ C_ 0.138491 0.170054 0.175167 -0.05681
C_ C_ 0.142665 0.166533 0.145733 -0.05681
C_ C_ 0.19104 0.163314 0.132495 -0.05681
C_ C_ 0.23427 0.159009 0.150313 -0.08735
C_ C_ 0.2284 0.149633 0.179007 -0.08735
C_ C_ 0.183088 0.158926 0.19244 -0.05681
C_ C_ 0.175914 0.14854 0.222383 0.44287
C_ C_ 0.0865047 0.160814 0.219261 0.44287
C_ C_ 0.121631 0.141741 0.265847 0.18498
C_ C_ 0.110928 0.0906337 0.273608 -0.08735
C_ C_ 0.0936744 0.078799 0.301901 -0.08735
C_ C_ 0.0898025 0.116731 0.322662 -0.08735
C_ C_ 0.116983 0.164022 0.315968 0.18498
C_ C_ 0.128234 0.177557 0.28736 -0.05681
C_ C_ 0.156406 0.222073 0.282728 -0.08735
C_ C_ 0.166809 0.254266 0.306944 -0.08735
C_ C_ 0.161143 0.235811 0.334 0.1947
C_ C_ 0.277358 0.305375 0.151687 0.68181
C_ C_ 0.221733 0.311392 0.147045 -0.05681
C_ C_ 0.188963 0.304442 0.169945 -0.08735
C_ C_ 0.137691 0.314041 0.165943 -0.05681
C_ C_ 0.116876 0.320955 0.13821 -0.05681
C_ C_ 0.148648 0.3265 0.115011 -0.08735
C_ C_ 0.200629 0.323249 0.119318 -0.08735
C_ C_ 0.106005 0.310187 0.188658 -0.08735
C_ C_ 0.0536175 0.322268 0.186023 -0.08735
C_ C_ 0.0311068 0.320391 0.158314 -0.05681
C_ C_ 0.0634393 0.320836 0.134211 -0.08735
C_ C_ 0.382012 0.214732 0.157182 0.68181
C_ C_ 0.364656 0.40959 0.149084 0.68181
C_ C_ 0.360963 0.465207 0.147517 -0.05681
C_ C_ 0.369222 -0.0010900000000000354 0.172068 -0.08735
C_ C_ 0.370339 0.0501727 0.168122 -0.05681
C_ C_ 0.365563 0.0695854 0.140971 -0.05681
C_ C_ 0.361492 0.0391415 0.117253 -0.08735
C_ C_ 0.334425 0.490216 0.12578 -0.08735
C_ C_ 0.382311 0.0819275 0.190625 -0.08735
C_ C_ 0.381237 0.134937 0.186404 -0.08735
C_ C_ 0.377159 0.156914 0.159492 -0.05681
C_ C_ 0.368403 0.123466 0.135782 -0.08735
C_ C_ 0.475487 0.322359 0.153153 0.68181
C_ C_ 0.410571 0.368238 0.230838 0.1947
C_ C_ 0.421394 0.38189 0.258982 -0.08735
C_ C_ 0.393689 0.356985 0.281087 -0.08735
C_ C_ 0.359434 0.317058 0.274799 -0.05681
C_ C_ 0.352264 0.303727 0.245419 0.18498
C_ C_ 0.316878 0.265396 0.237864 -0.08735
C_ C_ 0.298223 0.233717 0.26034 -0.08735
C_ C_ 0.308169 0.245491 0.288913 -0.08735
C_ C_ 0.340284 0.285131 0.297344 0.18498
C_ C_ 0.310723 0.309225 0.344517 0.44287
C_ C_ 0.397414 0.29384 0.338668 0.44287
C_ C_ 0.405995 0.300999 0.368149 -0.05681
C_ C_ 0.454858 0.297758 0.380694 -0.08735
C_ C_ 0.464996 0.309656 0.409924 -0.08735
C_ C_ 0.422119 0.316985 0.427926 -0.05681
C_ C_ 0.373055 0.320637 0.416161 -0.05681
C_ C_ 0.366412 0.310818 0.386557 -0.05681
C_ C_ 0.317801 0.315213 0.374337 -0.05681
C_ C_ 0.276794 0.314704 0.394219 -0.08735
C_ C_ 0.283115 0.321433 0.422768 -0.08735
C_ C_ 0.331973 0.325968 0.43467 -0.05681
C_ C_ 0.340378 0.333267 0.464688 0.44287
C_ C_ 0.429889 0.322614 0.457851 0.44287
C_ C_ 0.382632 0.353323 0.00877548 0.18498
C_ C_ 0.406134 0.398294 0.0166566 -0.08735
C_ C_ 0.413178 0.413327 0.044919 -0.08735
C_ C_ 0.404273 0.377416 0.0672142 -0.08735
C_ C_ 0.376324 0.333822 0.0613579 0.18498
C_ C_ 0.368149 0.320439 0.0314813 -0.05681
C_ C_ 0.350325 0.271154 0.0266565 -0.08735
C_ C_ 0.331559 0.240461 0.0478043 -0.08735
C_ C_ 0.34383 0.253604 0.0760233 0.1947
N_ N_ 0.119835 0.174483 0.481623 -0.29468
N_ N_ 0.152975 0.183711 0.08661 -0.17154
N_ N_ 0.12848 0.15168 0.235428 -0.17154
N_ N_ 0.130107 0.193827 0.338425 -0.29468
N_ N_ 0.378906 0.328587 0.224739 -0.29468
N_ N_ 0.348406 0.293112 0.328165 -0.17154
N_ N_ 0.388649 0.333302 0.47517 -0.17154
N_ N_ 0.367068 0.297654 0.0826355 -0.29468
O_ O_ 0.212896 0.180602 0.433526 -0.58347
O_ O_ 0.199226 0.197464 0.388353 -0.58347
O_ O_ 0.132857 0.254771 0.434448 -0.58347
O_ O_ 0.105397 0.258459 0.389563 -0.58347
O_ O_ 0.127807 0.103727 0.430488 -0.58347
O_ O_ 0.138625 0.111847 0.383721 -0.58347
O_ O_ 0.0572687 0.182319 0.429822 -0.58347
O_ O_ 0.0511882 0.166991 0.38319 -0.58347
O_ O_ 0.0708227 0.217994 0.086749 -0.46727
O_ O_ 0.239686 0.172385 0.0921068 -0.46727
O_ O_ 0.0414757 0.164645 0.232657 -0.46727
O_ O_ 0.215356 0.133616 0.236864 -0.46727
O_ O_ 0.295481 0.322695 0.17507 -0.58347
O_ O_ 0.305107 0.301005 0.129608 -0.58347
O_ O_ 0.364889 0.240354 0.177915 -0.58347
O_ O_ 0.387247 0.236723 0.132729 -0.58347
O_ O_ 0.375495 0.388953 0.172092 -0.58347
O_ O_ 0.359947 0.383701 0.12641 -0.58347
O_ O_ 0.447668 0.320395 0.174664 -0.58347
O_ O_ 0.45551 0.320411 0.128578 -0.58347
O_ O_ 0.433614 0.272691 0.322945 -0.46727
O_ O_ 0.263704 0.310197 0.335179 -0.46727
O_ O_ 0.475483 0.317724 0.468465 -0.46727
O_ O_ 0.302766 0.33516 0.483523 -0.46727
Zn Zn 0.121195 0.179714 0.88421 0.90689
Zn Zn 0.12937 0.176522 0.932109 0.90689
Zn Zn 0.379959 0.318027 0.629266 0.90689
Zn Zn 0.370082 0.322322 0.678348 0.90689
H_ H_ 0.298304 0.189663 0.951196 0.11455
H_ H_ 0.367658 0.191007 0.851405 0.11455
H_ H_ 0.274504 0.185733 0.86077 0.11455
H_ H_ 0.388296 0.169874 0.969628 0.11455
H_ H_ 0.480736 0.180759 0.96187 0.11455
H_ H_ 0.454864 0.180681 0.870515 0.11455
H_ H_ 0.166147 0.0134852 0.936765 0.11455
H_ H_ 0.150328 0.430274 0.848339 0.11455
H_ H_ 0.0944137 0.0254876 0.854214 0.11455
H_ H_ 0.0927576 0.424713 0.96442 0.11455
H_ H_ 0.102624 0.338756 0.961701 0.11455
H_ H_ 0.127541 0.351696 0.870026 0.11455
H_ H_ 0.0690195 0.109973 0.967546 0.11455
H_ H_ 0.0665923 0.0830468 0.520228 0.11455
H_ H_ 0.102245 0.135099 0.56115 0.11455
H_ H_ 0.186546 0.24378 0.976156 0.11455
H_ H_ 0.241629 0.288963 0.512182 0.11455
H_ H_ 0.211254 0.279459 0.561446 0.11455
H_ H_ 0.0139766 0.210267 0.623548 0.11455
H_ H_ -0.00180771 0.202985 0.674634 0.11455
H_ H_ 0.26589 0.170714 0.643443 0.11455
H_ H_ 0.247068 0.1615 0.694342 0.11455
H_ H_ 0.0774992 0.0895073 0.749897 0.11455
H_ H_ 0.053465 0.0627297 0.800699 0.11455
H_ H_ 0.0784841 0.117274 0.841539 0.11455
H_ H_ 0.138038 0.263592 0.764817 0.11455
H_ H_ 0.195947 0.289734 0.805786 0.11455
H_ H_ 0.171433 0.266556 0.851769 0.11455
H_ H_ 0.198189 0.307796 0.691871 0.11455
H_ H_ 0.140022 0.345998 0.594123 0.11455
H_ H_ 0.228663 0.333488 0.604455 0.11455
H_ H_ 0.10831 0.310391 0.70974 0.11455
H_ H_ 0.0203273 0.329647 0.70071 0.11455
H_ H_ 0.0476416 0.338851 0.610787 0.11455
H_ H_ 0.372577 0.488922 0.69336 0.11455
H_ H_ 0.317133 0.0728109 0.602582 0.11455
H_ H_ 0.372801 0.479819 0.600095 0.11455
H_ H_ 0.389477 0.074084 0.712418 0.11455
H_ H_ 0.406088 0.163088 0.706645 0.11455
H_ H_ 0.349783 0.151478 0.617372 0.11455
H_ H_ 0.428987 0.397478 0.714259 0.11455
H_ H_ 0.429889 0.438196 0.76323 0.11455
H_ H_ 0.394116 0.388605 0.804713 0.11455
H_ H_ 0.330366 0.254549 0.723347 0.11455
H_ H_ 0.270592 0.220029 0.761453 0.11455
H_ H_ 0.296286 0.240509 0.810169 0.11455
H_ H_ 0.48281 0.32552 0.872594 0.11455
H_ H_ 0.489037 0.320349 0.925807 0.11455
H_ H_ 0.229882 0.345173 0.884684 0.11455
H_ H_ 0.234324 0.348896 0.934606 0.11455
H_ H_ 0.418001 0.423437 -0.0011039999999999939 0.11455
H_ H_ 0.45983 0.436585 0.5437 0.11455
H_ H_ 0.409874 0.395349 0.582825 0.11455
H_ H_ 0.351367 0.254305 0.50358 0.11455
H_ H_ 0.307311 0.215054 0.545654 0.11455
H_ H_ 0.322254 0.24629 0.593837 0.11455
C_ C_ 0.223021 0.180349 0.909475 0.68181
C_ C_ 0.280937 0.178794 0.905588 -0.05681
C_ C_ 0.313665 0.178505 0.930448 -0.08735
C_ C_ 0.366951 0.181131 0.925314 -0.05681
C_ C_ 0.386685 0.180496 0.896695 -0.05681
C_ C_ 0.353054 0.184569 0.87434 -0.08735
C_ C_ 0.302425 0.183576 0.878152 -0.08735
C_ C_ 0.401354 0.180294 0.948051 -0.08735
C_ C_ 0.454927 0.187488 0.943903 -0.08735
C_ C_ 0.473885 0.188017 0.914992 -0.05681
C_ C_ 0.439715 0.181964 0.892061 -0.08735
C_ C_ 0.11485 0.277885 0.911847 0.68181
C_ C_ 0.125132 0.0835053 0.900153 0.68181
C_ C_ 0.124866 0.027462 0.898066 -0.05681
C_ C_ 0.117047 0.495143 0.923169 -0.08735
C_ C_ 0.110541 0.442026 0.920202 -0.05681
C_ C_ 0.123316 0.419052 0.893398 -0.05681
C_ C_ 0.137569 0.446588 0.869215 -0.08735
C_ C_ 0.137547 0.500797 0.872389 -0.08735
C_ C_ 0.102966 0.411481 0.943199 -0.08735
C_ C_ 0.109431 0.358435 0.941759 -0.08735
C_ C_ 0.11331 0.334756 0.914227 -0.05681
C_ C_ 0.11957 0.366379 0.88975 -0.08735
C_ C_ 0.023714 0.172087 0.911057 0.68181
C_ C_ 0.0895368 0.126016 0.984514 0.1947
C_ C_ 0.079335 0.121624 0.516008 -0.08735
C_ C_ 0.107578 0.145072 0.538161 -0.08735
C_ C_ 0.141753 0.185129 0.532426 -0.05681
C_ C_ 0.146785 0.199582 0.502949 0.18498
C_ C_ 0.180563 0.227451 0.998742 -0.08735
C_ C_ 0.209244 0.263505 0.517078 -0.08735
C_ C_ 0.196824 0.254958 0.545519 -0.08735
C_ C_ 0.163765 0.215713 0.554119 0.18498
C_ C_ 0.193135 0.193575 0.602177 0.44287
C_ C_ 0.108709 0.218559 0.597626 0.44287
C_ C_ 0.095308 0.198309 0.625414 -0.05681
C_ C_ 0.0469229 0.206569 0.637043 -0.08735
C_ C_ 0.0387135 0.200187 0.667494 -0.08735
C_ C_ 0.0780762 0.183997 0.685814 -0.05681
C_ C_ 0.126371 0.178116 0.673659 -0.05681
C_ C_ 0.135191 0.186088 0.643621 -0.05681
C_ C_ 0.186826 0.183616 0.632124 -0.05681
C_ C_ 0.227983 0.17558 0.650129 -0.08735
C_ C_ 0.218601 0.163355 0.678893 -0.08735
C_ C_ 0.168189 0.163838 0.691106 -0.05681
C_ C_ 0.15847 0.159123 0.721076 0.44287
C_ C_ 0.0734426 0.182656 0.716095 0.44287
C_ C_ 0.104132 0.159791 0.762553 0.18498
C_ C_ 0.0886434 0.10959 0.768861 -0.08735
C_ C_ 0.0788801 0.094567 0.797155 -0.08735
C_ C_ 0.0851895 0.127713 0.81986 -0.08735
C_ C_ 0.114308 0.172092 0.815399 0.18498
C_ C_ 0.121323 0.189403 0.78604 -0.05681
C_ C_ 0.142553 0.239791 0.783889 -0.08735
C_ C_ 0.170809 0.258101 0.806979 -0.08735
C_ C_ 0.159274 0.242812 0.834298 0.1947
C_ C_ 0.275427 0.314036 0.653989 0.68181
C_ C_ 0.218714 0.319055 0.649088 -0.05681
C_ C_ 0.183862 0.318875 0.670568 -0.08735
C_ C_ 0.129803 0.322699 0.665906 -0.05681
C_ C_ 0.113271 0.332409 0.637636 -0.05681
C_ C_ 0.149548 0.334236 0.615118 -0.08735
C_ C_ 0.202148 0.333733 0.621525 -0.08735
C_ C_ 0.0951929 0.320252 0.688544 -0.08735
C_ C_ 0.0447863 0.327953 0.683869 -0.08735
C_ C_ 0.026982 0.331968 0.654865 -0.05681
C_ C_ 0.060348 0.333677 0.632282 -0.08735
C_ C_ 0.37909 0.221508 0.658893 0.68181
C_ C_ 0.366903 0.419874 0.649067 0.68181
C_ C_ 0.36653 0.477016 0.646939 -0.05681
C_ C_ 0.367493 0.00853251 0.670117 -0.08735
C_ C_ 0.366775 0.0600743 0.668277 -0.05681
C_ C_ 0.357991 0.0823546 0.640754 -0.05681
C_ C_ 0.338547 0.0528587 0.618183 -0.08735
C_ C_ 0.370209 0.501222 0.62015 -0.08735
C_ C_ 0.383219 0.0905195 0.691213 -0.08735
C_ C_ 0.389094 0.141682 0.687935 -0.08735
C_ C_ 0.380654 0.164954 0.660537 -0.05681
C_ C_ 0.362136 0.135195 0.637835 -0.08735
C_ C_ 0.474434 0.325368 0.653083 0.68181
C_ C_ 0.406637 0.382524 0.731603 0.1947
C_ C_ 0.41664 0.399761 0.759938 -0.08735
C_ C_ 0.393155 0.375837 0.782633 -0.08735
C_ C_ 0.363728 0.332993 0.776737 -0.05681
C_ C_ 0.357286 0.313621 0.748721 0.18498
C_ C_ 0.322099 0.274961 0.743085 -0.08735
C_ C_ 0.29853 0.250435 0.766171 -0.08735
C_ C_ 0.310835 0.261384 0.794192 -0.08735
C_ C_ 0.338939 0.304014 0.800045 0.18498
C_ C_ 0.307412 0.326711 0.84583 0.44287
C_ C_ 0.394371 0.309447 0.843239 0.44287
C_ C_ 0.400283 0.319998 0.872866 -0.05681
C_ C_ 0.446977 0.321498 0.88669 -0.08735
C_ C_ 0.451104 0.317365 0.916371 -0.08735
C_ C_ 0.407808 0.318599 0.932701 -0.05681
C_ C_ 0.360769 0.327111 0.919767 -0.05681
C_ C_ 0.357286 0.323617 0.889108 -0.05681
C_ C_ 0.309307 0.327328 0.875713 -0.05681
C_ C_ 0.266369 0.339183 0.89347 -0.08735
C_ C_ 0.269736 0.33652 0.922875 -0.08735
C_ C_ 0.31771 0.335083 0.937249 -0.05681
C_ C_ 0.324557 0.343681 0.967234 0.44287
C_ C_ 0.411798 0.322562 0.962221 0.44287
C_ C_ 0.401003 0.344572 0.504742 0.18498
C_ C_ 0.432375 0.387123 0.510877 -0.08735
C_ C_ 0.441844 0.400776 0.539458 -0.08735
C_ C_ 0.413038 0.379383 0.561828 -0.08735
C_ C_ 0.386218 0.33511 0.55723 0.18498
C_ C_ 0.379427 0.317588 0.527997 -0.05681
C_ C_ 0.354418 0.272239 0.524969 -0.08735
C_ C_ 0.334229 0.24557 0.548727 -0.08735
C_ C_ 0.339354 0.264922 0.575989 0.1947
N_ N_ 0.123322 0.165877 0.981106 -0.29468
N_ N_ 0.153656 0.205631 0.584775 -0.17154
N_ N_ 0.114551 0.172112 0.732926 -0.17154
N_ N_ 0.127574 0.201756 0.838549 -0.29468
N_ N_ 0.377774 0.340808 0.726617 -0.29468
N_ N_ 0.348828 0.314762 0.829746 -0.17154
N_ N_ 0.37142 0.339818 0.979041 -0.17154
N_ N_ 0.368098 0.306351 0.58039 -0.29468
O_ O_ 0.203467 0.16573 0.932997 -0.58347
O_ O_ 0.194935 0.191182 0.887915 -0.58347
O_ O_ 0.134878 0.252091 0.93201 -0.58347
O_ O_ 0.101355 0.255141 0.889182 -0.58347
O_ O_ 0.123938 0.101566 0.924723 -0.58347
O_ O_ 0.139628 0.109926 0.879341 -0.58347
O_ O_ 0.0536851 0.182619 0.931848 -0.58347
O_ O_ 0.043944 0.163645 0.887226 -0.58347
O_ O_ 0.0713578 0.237665 0.581473 -0.46727
O_ O_ 0.238277 0.185126 0.590686 -0.46727
O_ O_ 0.0278875 0.186922 0.728554 -0.46727
O_ O_ 0.192351 0.137453 0.737477 -0.46727
O_ O_ 0.294441 0.322228 0.678628 -0.58347
O_ O_ 0.30356 0.314455 0.632265 -0.58347
O_ O_ 0.378618 0.247688 0.681209 -0.58347
O_ O_ 0.375341 0.243077 0.635324 -0.58347
O_ O_ 0.36309 0.398589 0.67399 -0.58347
O_ O_ 0.37414 0.394013 0.625452 -0.58347
O_ O_ 0.444741 0.330166 0.67427 -0.58347
O_ O_ 0.456778 0.315539 0.629137 -0.58347
O_ O_ 0.435166 0.301889 0.826995 -0.46727
O_ O_ 0.262177 0.336966 0.833401 -0.46727
O_ O_ 0.455251 0.308203 0.9743 -0.46727
O_ O_ 0.284829 0.351805 0.98327 -0.46727
Zn Zn 0.123448 0.683557 0.383229 0.90689
Zn Zn 0.13675 0.67896 0.431163 0.90689
Zn Zn 0.36223 0.806265 0.13659 0.90689
Zn Zn 0.360692 0.815764 0.18413 0.90689
H_ H_ 0.302893 0.690196 0.44549 0.11455
H_ H_ 0.369376 0.660957 0.346335 0.11455
H_ H_ 0.276626 0.663293 0.355385 0.11455
H_ H_ 0.394397 0.675703 0.464424 0.11455
H_ H_ 0.484108 0.667222 0.454692 0.11455
H_ H_ 0.455119 0.679913 0.364718 0.11455
H_ H_ 0.115489 0.512975 0.443944 0.11455
H_ H_ 0.169197 0.936792 0.355832 0.11455
H_ H_ 0.118039 0.525503 0.352978 0.11455
H_ H_ 0.104248 0.928822 0.468381 0.11455
H_ H_ 0.11947 0.837934 0.464075 0.11455
H_ H_ 0.167501 0.850137 0.376942 0.11455
H_ H_ 0.0877887 0.595706 0.468069 0.11455
H_ H_ 0.0722097 0.567356 0.00892697 0.11455
H_ H_ 0.104512 0.616237 0.0528261 0.11455
H_ H_ 0.207184 0.73245 0.473097 0.11455
H_ H_ 0.212585 0.799662 0.0179493 0.11455
H_ H_ 0.17625 0.780839 0.0654228 0.11455
H_ H_ 0.00374999999999992 0.706868 0.13023 0.11455
H_ H_ -0.0037850000000000383 0.67557 0.178958 0.11455
H_ H_ 0.251127 0.654608 0.13437 0.11455
H_ H_ 0.247214 0.647931 0.188674 0.11455
H_ H_ 0.0603628 0.584743 0.255393 0.11455
H_ H_ 0.0350877 0.574601 0.303706 0.11455
H_ H_ 0.0648645 0.6318 0.341897 0.11455
H_ H_ 0.168209 0.738407 0.257284 0.11455
H_ H_ 0.186434 0.797266 0.298065 0.11455
H_ H_ 0.178794 0.763149 0.349887 0.11455
H_ H_ 0.185585 0.816343 0.203136 0.11455
H_ H_ 0.127792 0.838646 0.103245 0.11455
H_ H_ 0.21605 0.829507 0.112085 0.11455
H_ H_ 0.0978363 0.816578 0.218779 0.11455
H_ H_ 0.00543854 0.826608 0.211298 0.11455
H_ H_ 0.0388612 0.810145 0.119796 0.11455
H_ H_ 0.391347 0.984343 0.189653 0.11455
H_ H_ 0.309718 0.560138 0.10912 0.11455
H_ H_ 0.354997 0.961559 0.101281 0.11455
H_ H_ 0.404357 0.554456 0.21436 0.11455
H_ H_ 0.404067 0.650906 0.213006 0.11455
H_ H_ 0.333562 0.642886 0.129344 0.11455
H_ H_ 0.406759 0.893615 0.220495 0.11455
H_ H_ 0.405223 0.924337 0.270113 0.11455
H_ H_ 0.378085 0.865478 0.312067 0.11455
H_ H_ 0.299538 0.742973 0.227697 0.11455
H_ H_ 0.280568 0.685342 0.264357 0.11455
H_ H_ 0.317785 0.698657 0.315437 0.11455
H_ H_ 0.493448 0.763892 0.380856 0.11455
H_ H_ 0.495968 0.781608 0.433298 0.11455
H_ H_ 0.248984 0.839842 0.385784 0.11455
H_ H_ 0.254657 0.848401 0.437082 0.11455
H_ H_ 0.423614 0.909422 0.5014 0.11455
H_ H_ 0.467482 0.907151 0.0507581 0.11455
H_ H_ 0.428726 0.859097 0.0928713 0.11455
H_ H_ 0.331614 0.743366 0.0111183 0.11455
H_ H_ 0.294084 0.698194 0.0534647 0.11455
H_ H_ 0.301943 0.733243 0.100013 0.11455
C_ C_ 0.230022 0.68421 0.406134 0.68181
C_ C_ 0.285042 0.678349 0.401901 -0.05681
C_ C_ 0.318425 0.67735 0.425483 -0.08735
C_ C_ 0.37207 0.673505 0.419175 -0.05681
C_ C_ 0.387597 0.668279 0.390819 -0.05681
C_ C_ 0.355602 0.668571 0.36793 -0.08735
C_ C_ 0.303316 0.671585 0.373464 -0.08735
C_ C_ 0.406979 0.670154 0.441953 -0.08735
C_ C_ 0.457577 0.662785 0.436579 -0.08735
C_ C_ 0.475325 0.666611 0.408178 -0.05681
C_ C_ 0.440663 0.66882 0.384969 -0.08735
C_ C_ 0.133845 0.778551 0.416334 0.68181
C_ C_ 0.122881 0.581083 0.401399 0.68181
C_ C_ 0.12048 0.52434 0.398553 -0.05681
C_ C_ 0.125209 0.994414 0.427412 -0.08735
C_ C_ 0.125988 0.942098 0.424583 -0.05681
C_ C_ 0.140925 0.918527 0.398304 -0.05681
C_ C_ 0.153607 0.951469 0.375245 -0.08735
C_ C_ 0.149048 1.00279844 0.378252 -0.08735
C_ C_ 0.123121 0.913272 0.4483 -0.08735
C_ C_ 0.125374 0.858486 0.445345 -0.08735
C_ C_ 0.138352 0.834934 0.418927 -0.05681
C_ C_ 0.14834 0.86566 0.395742 -0.08735
C_ C_ 0.0343259 0.676147 0.408207 0.68181
C_ C_ 0.102164 0.621717 0.484654 0.1947
C_ C_ 0.0942908 0.602156 0.00790955 -0.08735
C_ C_ 0.106731 0.631965 0.0326046 -0.08735
C_ C_ 0.132523 0.678903 0.0292748 -0.05681
C_ C_ 0.145676 0.693347 1.00168378 0.18498
C_ C_ 0.184684 0.730645 0.493588 -0.08735
C_ C_ 0.187008 0.766961 0.0209913 -0.08735
C_ C_ 0.16729 0.757146 0.0477642 -0.08735
C_ C_ 0.147355 0.707866 0.0537527 0.18498
C_ C_ 0.172914 0.667044 0.0994297 0.44287
C_ C_ 0.0900176 0.698619 0.09628 0.44287
C_ C_ 0.0821041 0.684656 0.126591 -0.05681
C_ C_ 0.0353178 0.689045 0.140568 -0.08735
C_ C_ 0.0317286 0.68578 0.170262 -0.08735
C_ C_ 0.074455 0.677538 0.186973 -0.05681
C_ C_ 0.121554 0.669904 0.173944 -0.05681
C_ C_ 0.125519 0.676222 0.143684 -0.05681
C_ C_ 0.171318 0.668962 0.129585 -0.05681
C_ C_ 0.214394 0.655588 0.146002 -0.08735
C_ C_ 0.211584 0.647891 0.175931 -0.08735
C_ C_ 0.166063 0.659292 0.190078 -0.05681
C_ C_ 0.158101 0.65039 0.219666 0.44287
C_ C_ 0.0712792 0.673427 0.217531 0.44287
C_ C_ 0.108783 0.649656 0.263551 0.18498
C_ C_ 0.078732 0.609754 0.271466 -0.08735
C_ C_ 0.0591592 0.608548 0.299125 -0.08735
C_ C_ 0.0771816 0.638295 0.320584 -0.08735
C_ C_ 0.112413 0.673932 0.314349 0.18498
C_ C_ 0.126971 0.683063 0.285786 -0.05681
C_ C_ 0.159923 0.726378 0.279789 -0.08735
C_ C_ 0.173873 0.758119 0.303054 -0.08735
C_ C_ 0.162701 0.7432 0.332104 0.1947
C_ C_ 0.262 0.809821 0.161004 0.68181
C_ C_ 0.206191 0.81494 0.156472 -0.05681
C_ C_ 0.172481 0.815515 0.179608 -0.08735
C_ C_ 0.120567 0.818766 0.174616 -0.05681
C_ C_ 0.102161 0.82645 0.146042 -0.05681
C_ C_ 0.137942 0.831448 0.124581 -0.08735
C_ C_ 0.189277 0.822484 0.129595 -0.08735
C_ C_ 0.0854586 0.818347 0.197446 -0.08735
C_ C_ 0.033661 0.822775 0.192084 -0.08735
C_ C_ 0.0136901 0.818405 0.163277 -0.05681
C_ C_ 0.0494185 0.822199 0.140232 -0.08735
C_ C_ 0.368742 0.712197 0.166726 0.68181
C_ C_ 0.355373 0.91047 0.151709 0.68181
C_ C_ 0.362657 0.966717 0.14807 -0.05681
C_ C_ 0.377452 0.494943 0.172246 -0.08735
C_ C_ 0.369867 0.547738 0.173084 -0.05681
C_ C_ 0.346724 0.570766 0.15054 -0.05681
C_ C_ 0.331233 0.540501 0.125639 -0.08735
C_ C_ 0.362816 -0.012871999999999995 0.12105 -0.08735
C_ C_ 0.386971 0.575606 0.19649 -0.08735
C_ C_ 0.38639 0.629064 0.19569 -0.08735
C_ C_ 0.367936 0.655684 0.170546 -0.05681
C_ C_ 0.34478 0.625992 0.149217 -0.08735
C_ C_ 0.459111 0.812331 0.163943 0.68181
C_ C_ 0.39021 0.868781 0.238184 0.1947
C_ C_ 0.389048 0.886028 0.266537 -0.08735
C_ C_ 0.37258 0.855204 0.289717 -0.08735
C_ C_ 0.359877 0.804195 0.282807 -0.05681
C_ C_ 0.348188 0.792286 0.25406 0.18498
C_ C_ 0.316487 0.749992 0.249001 -0.08735
C_ C_ 0.304391 0.716065 0.271854 -0.08735
C_ C_ 0.327892 0.724504 0.298546 -0.08735
C_ C_ 0.350944 0.770292 0.304847 0.18498
C_ C_ 0.317147 0.799012 0.350038 0.44287
C_ C_ 0.406229 0.777398 0.347012 0.44287
C_ C_ 0.41437 0.789619 0.376212 -0.05681
C_ C_ 0.460807 0.783209 0.391024 -0.08735
C_ C_ 0.463413 0.793646 0.421091 -0.08735
C_ C_ 0.421688 0.804539 0.438099 -0.05681
C_ C_ 0.375988 0.814416 0.423596 -0.05681
C_ C_ 0.372309 0.807588 0.392224 -0.05681
C_ C_ 0.324585 0.811972 0.379112 -0.05681
C_ C_ 0.28355 0.829506 0.396397 -0.08735
C_ C_ 0.289594 0.840624 0.425856 -0.08735
C_ C_ 0.334304 0.827727 0.439762 -0.05681
C_ C_ 0.338449 0.829833 0.469937 0.44287
C_ C_ 0.423738 0.807155 0.467985 0.44287
C_ C_ 0.383705 0.831683 0.0131285 0.18498
C_ C_ 0.413525 0.874165 0.0204225 -0.08735
C_ C_ 0.433231 0.881964 0.0484558 -0.08735
C_ C_ 0.411593 0.855447 0.0710822 -0.08735
C_ C_ 0.375951 0.815805 0.0660723 0.18498
C_ C_ 0.364429 0.801406 0.0370737 -0.05681
C_ C_ 0.336384 0.757697 0.0326015 -0.08735
C_ C_ 0.317002 0.731831 0.0559931 -0.08735
C_ C_ 0.320574 0.751999 0.0828609 0.1947
N_ N_ 0.131566 0.661974 0.478856 -0.29468
N_ N_ 0.136577 0.692549 0.0832762 -0.17154
N_ N_ 0.11331 0.660596 0.232683 -0.17154
N_ N_ 0.130957 0.703194 0.337451 -0.29468
N_ N_ 0.363712 0.824791 0.231824 -0.29468
N_ N_ 0.357973 0.782383 0.334688 -0.17154
N_ N_ 0.383625 0.820462 0.483613 -0.17154
N_ N_ 0.353205 0.791719 0.0890722 -0.29468
O_ O_ 0.21253 0.682656 0.431943 -0.58347
O_ O_ 0.200749 0.6821 0.384855 -0.58347
O_ O_ 0.133466 0.752261 0.439012 -0.58347
O_ O_ 0.13234 0.757947 0.391604 -0.58347
O_ O_ 0.141048 0.602433 0.423512 -0.58347
O_ O_ 0.119361 0.607961 0.37906 -0.58347
O_ O_ 0.0630775 0.669151 0.428697 -0.58347
O_ O_ 0.051335 0.687758 0.383325 -0.58347
O_ O_ 0.0518706 0.717721 0.0815316 -0.46727
O_ O_ 0.217853 0.654235 0.0880935 -0.46727
O_ O_ 0.0269099 0.680792 0.230173 -0.46727
O_ O_ 0.197045 0.631669 0.234772 -0.46727
O_ O_ 0.28371 0.813955 0.184851 -0.58347
O_ O_ 0.28842 0.800958 0.139166 -0.58347
O_ O_ 0.365725 0.741447 0.188826 -0.58347
O_ O_ 0.361219 0.730987 0.141274 -0.58347
O_ O_ 0.352272 0.893156 0.177258 -0.58347
O_ O_ 0.363889 0.880874 0.13084 -0.58347
O_ O_ 0.433034 0.825554 0.184005 -0.58347
O_ O_ 0.437629 0.800928 0.139556 -0.58347
O_ O_ 0.443636 0.766843 0.330359 -0.46727
O_ O_ 0.271492 0.799238 0.339734 -0.46727
O_ O_ 0.468862 0.800076 0.480363 -0.46727
O_ O_ 0.298939 0.843067 0.485263 -0.46727
Zn Zn 0.122665 0.685163 0.882034 0.90689
Zn Zn 0.131476 0.677292 0.930887 0.90689
Zn Zn 0.380381 0.817134 0.634307 0.90689
Zn Zn 0.368539 0.82464 0.681122 0.90689
H_ H_ 0.300657 0.662288 0.944483 0.11455
H_ H_ 0.36584 0.692211 0.846652 0.11455
H_ H_ 0.275948 0.680237 0.854083 0.11455
H_ H_ 0.39034 0.673304 0.960654 0.11455
H_ H_ 0.480962 0.68172 0.953449 0.11455
H_ H_ 0.451532 0.689114 0.862212 0.11455
H_ H_ 0.115791 0.510417 0.944482 0.11455
H_ H_ 0.104567 0.937353 0.848336 0.11455
H_ H_ 0.149367 0.524334 0.854501 0.11455
H_ H_ 0.153926 0.929093 0.96306 0.11455
H_ H_ 0.141113 0.837623 0.960201 0.11455
H_ H_ 0.106927 0.852193 0.86953 0.11455
H_ H_ 0.0816879 0.603113 0.962808 0.11455
H_ H_ 0.0795389 0.566877 0.51834 0.11455
H_ H_ 0.0970848 0.627342 0.556447 0.11455
H_ H_ 0.18766 0.745981 0.976897 0.11455
H_ H_ 0.222905 0.796595 0.510983 0.11455
H_ H_ 0.185214 0.787148 0.560353 0.11455
H_ H_ 1.00025477 0.709386 0.621109 0.11455
H_ H_ 0.989338 0.693262 0.672407 0.11455
H_ H_ 0.252263 0.67971 0.638614 0.11455
H_ H_ 0.239337 0.666207 0.691072 0.11455
H_ H_ 0.0634467 0.586745 0.750428 0.11455
H_ H_ 0.0202981 0.577328 0.798641 0.11455
H_ H_ 0.053714 0.630536 0.839865 0.11455
H_ H_ 0.154446 0.742692 0.758012 0.11455
H_ H_ 0.19502 0.786639 0.797924 0.11455
H_ H_ 0.188539 0.749452 0.846399 0.11455
H_ H_ 0.197959 0.807318 0.696023 0.11455
H_ H_ 0.137703 0.83661 0.598496 0.11455
H_ H_ 0.227618 0.811543 0.605923 0.11455
H_ H_ 0.112133 0.806191 0.712242 0.11455
H_ H_ 0.0221974 0.804074 0.705834 0.11455
H_ H_ 0.0456561 0.826318 0.615695 0.11455
H_ H_ 0.36124 0.993053 0.691054 0.11455
H_ H_ 0.376484 0.572007 0.599265 0.11455
H_ H_ 0.318199 0.978193 0.605807 0.11455
H_ H_ 0.348167 0.574644 0.716415 0.11455
H_ H_ 0.360058 0.666885 0.711389 0.11455
H_ H_ 0.389571 0.652838 0.622791 0.11455
H_ H_ 0.431628 0.892611 0.720644 0.11455
H_ H_ 0.441188 0.920486 0.769675 0.11455
H_ H_ 0.396643 0.881051 0.807707 0.11455
H_ H_ 0.305282 0.760275 0.722691 0.11455
H_ H_ 0.267823 0.712034 0.762505 0.11455
H_ H_ 0.284128 0.734028 0.811712 0.11455
H_ H_ 0.478263 0.800375 0.873409 0.11455
H_ H_ 0.492607 0.809804 0.925229 0.11455
H_ H_ 0.227414 0.827566 0.890081 0.11455
H_ H_ 0.236081 0.829945 0.941976 0.11455
H_ H_ 0.425972 0.898688 1.00306693 0.11455
H_ H_ 0.448145 0.931684 0.550282 0.11455
H_ H_ 0.428883 0.874166 0.591154 0.11455
H_ H_ 0.322383 0.755953 0.514738 0.11455
H_ H_ 0.300834 0.705532 0.555901 0.11455
H_ H_ 0.327794 0.731199 0.60368 0.11455
C_ C_ 0.225628 0.683127 0.906215 0.68181
C_ C_ 0.280648 0.68451 0.900624 -0.05681
C_ C_ 0.314961 0.674386 0.923611 -0.08735
C_ C_ 0.367273 0.672021 0.917642 -0.05681
C_ C_ 0.386425 0.679912 0.889753 -0.05681
C_ C_ 0.35123 0.686575 0.867203 -0.08735
C_ C_ 0.299614 0.688999 0.87241 -0.08735
C_ C_ 0.402862 0.673774 0.939722 -0.08735
C_ C_ 0.454849 0.680326 0.934125 -0.08735
C_ C_ 0.473327 0.688013 0.906311 -0.05681
C_ C_ 0.438263 0.684739 0.883961 -0.08735
C_ C_ 0.12225 0.781538 0.911019 0.68181
C_ C_ 0.133481 0.58141 0.899661 0.68181
C_ C_ 0.130108 0.52506 0.899441 -0.05681
C_ C_ 0.145955 0.997554 0.918486 -0.08735
C_ C_ 0.140382 0.943638 0.917949 -0.05681
C_ C_ 0.127815 0.920774 0.891545 -0.05681
C_ C_ 0.11427 0.952132 0.868408 -0.08735
C_ C_ 0.108845 0.00471716 0.872687 -0.08735
C_ C_ 0.146732 0.913472 0.943026 -0.08735
C_ C_ 0.136525 0.861268 0.941302 -0.08735
C_ C_ 0.126174 0.837409 0.914024 -0.05681
C_ C_ 0.119923 0.869947 0.890066 -0.08735
C_ C_ 0.0295041 0.679834 0.907677 0.68181
C_ C_ 0.100062 0.622491 0.980565 0.1947
C_ C_ 0.0977015 0.604227 0.512698 -0.08735
C_ C_ 0.109886 0.635187 0.534988 -0.08735
C_ C_ 0.139655 0.677839 0.529118 -0.05681
C_ C_ 0.152168 0.688709 0.500107 0.18498
C_ C_ 0.170984 0.737745 0.997826 -0.08735
C_ C_ 0.194401 0.766981 0.515259 -0.08735
C_ C_ 0.175327 0.761398 0.543378 -0.08735
C_ C_ 0.150237 0.714987 0.551722 0.18498
C_ C_ 0.181786 0.69854 0.60017 0.44287
C_ C_ 0.0934303 0.708904 0.593401 0.44287
C_ C_ 0.0839996 0.699121 0.623604 -0.05681
C_ C_ 0.0335196 0.700625 0.634586 -0.08735
C_ C_ 0.0271705 0.694848 0.664592 -0.08735
C_ C_ 0.0702193 0.688034 0.683106 -0.05681
C_ C_ 0.11805 0.683951 0.67073 -0.05681
C_ C_ 0.124851 0.690237 0.641194 -0.05681
C_ C_ 0.17442 0.686607 0.629835 -0.05681
C_ C_ 0.216746 0.683636 0.647974 -0.08735
C_ C_ 0.20621 0.676879 0.677519 -0.08735
C_ C_ 0.158427 0.677905 0.689211 -0.05681
C_ C_ 0.150819 0.673452 0.718553 0.44287
C_ C_ 0.0632915 0.679131 0.712836 0.44287
C_ C_ 0.0970831 0.660622 0.760655 0.18498
C_ C_ 0.0705284 0.614517 0.766963 -0.08735
C_ C_ 0.0504804 0.60508 0.795127 -0.08735
C_ C_ 0.0651041 0.637475 0.818468 -0.08735
C_ C_ 0.105091 0.674113 0.812975 0.18498
C_ C_ 0.11141 0.690395 0.784158 -0.05681
C_ C_ 0.141665 0.733447 0.780129 -0.08735
C_ C_ 0.170101 0.754495 0.802461 -0.08735
C_ C_ 0.166448 0.73233 0.828888 0.1947
C_ C_ 0.27504 0.811555 0.658031 0.68181
C_ C_ 0.219293 0.813072 0.652033 -0.05681
C_ C_ 0.185572 0.81722 0.674057 -0.08735
C_ C_ 0.134228 0.817735 0.66879 -0.05681
C_ C_ 0.116439 0.820832 0.64112 -0.05681
C_ C_ 0.150464 0.824051 0.618565 -0.08735
C_ C_ 0.201022 0.811194 0.623651 -0.08735
C_ C_ 0.0995516 0.811576 0.691391 -0.08735
C_ C_ 0.0464945 0.815068 0.688253 -0.08735
C_ C_ 0.0282728 0.821621 0.660022 -0.05681
C_ C_ 0.0624794 0.824926 0.636647 -0.08735
C_ C_ 0.38274 0.721513 0.664928 0.68181
C_ C_ 0.36248 0.918906 0.650365 0.68181
C_ C_ 0.355487 0.977086 0.64701 -0.05681
C_ C_ 0.364782 0.507497 0.673119 -0.08735
C_ C_ 0.363651 0.55981 0.670789 -0.05681
C_ C_ 0.369216 0.582164 0.644453 -0.05681
C_ C_ 0.370171 0.553236 0.61916 -0.08735
C_ C_ 0.339361 1.00033 0.621623 -0.08735
C_ C_ 0.358462 0.589521 0.695555 -0.08735
C_ C_ 0.369653 0.641123 0.694321 -0.08735
C_ C_ 0.377268 0.665526 0.667928 -0.05681
C_ C_ 0.380289 0.635357 0.642973 -0.08735
C_ C_ 0.47201 0.832468 0.658692 0.68181
C_ C_ 0.40638 0.877912 0.736393 0.1947
C_ C_ 0.411956 0.893966 0.763718 -0.08735
C_ C_ 0.384677 0.870553 0.786359 -0.08735
C_ C_ 0.353175 0.829354 0.780165 -0.05681
C_ C_ 0.346234 0.815082 0.750635 0.18498
C_ C_ 0.315119 0.770315 0.74474 -0.08735
C_ C_ 0.295492 0.743696 0.767252 -0.08735
C_ C_ 0.305606 0.753693 0.795528 -0.08735
C_ C_ 0.333708 0.795601 0.802291 0.18498
C_ C_ 0.30141 0.817359 0.850286 0.44287
C_ C_ 0.38977 0.804329 0.845101 0.44287
C_ C_ 0.396997 0.809849 0.875419 -0.05681
C_ C_ 0.446759 0.807587 0.887657 -0.08735
C_ C_ 0.452121 0.810074 0.916983 -0.08735
C_ C_ 0.410506 0.815096 0.935971 -0.05681
C_ C_ 0.361661 0.820611 0.9239 -0.05681
C_ C_ 0.355198 0.816353 0.892304 -0.05681
C_ C_ 0.306358 0.821598 0.880711 -0.05681
C_ C_ 0.264663 0.828726 0.898463 -0.08735
C_ C_ 0.270449 0.82856 0.928655 -0.08735
C_ C_ 0.318529 0.828626 0.941722 -0.05681
C_ C_ 0.324414 0.829189 0.971144 0.44287
C_ C_ 0.413144 0.807971 0.965278 0.44287
C_ C_ 0.389314 0.838285 0.512724 0.18498
C_ C_ 0.421916 0.879319 0.518169 -0.08735
C_ C_ 0.434627 0.892793 0.546199 -0.08735
C_ C_ 0.419063 0.86294 0.569147 -0.08735
C_ C_ 0.385358 0.824874 0.564757 0.18498
C_ C_ 0.37037 0.810324 0.536284 -0.05681
C_ C_ 0.33726 0.767179 0.53386 -0.08735
C_ C_ 0.324179 0.739183 0.558691 -0.08735
C_ C_ 0.340293 0.754769 0.585044 0.1947
N_ N_ 0.123918 0.668525 0.977558 -0.29468
N_ N_ 0.141814 0.705495 0.582697 -0.17154
N_ N_ 0.103639 0.676533 0.730358 -0.17154
N_ N_ 0.132637 0.695002 0.834555 -0.29468
N_ N_ 0.373822 0.83989 0.729188 -0.29468
N_ N_ 0.342097 0.805591 0.8329 -0.17154
N_ N_ 0.37158 0.821139 0.983231 -0.17154
N_ N_ 0.368584 0.79743 0.588306 -0.29468
O_ O_ 0.209143 0.688635 0.932564 -0.58347
O_ O_ 0.195164 0.679957 0.885436 -0.58347
O_ O_ 0.121367 0.753765 0.933117 -0.58347
O_ O_ 0.132343 0.761005 0.887643 -0.58347
O_ O_ 0.144671 0.602044 0.922183 -0.58347
O_ O_ 0.115444 0.606474 0.879767 -0.58347
O_ O_ 0.0576444 0.66656 0.92829 -0.58347
O_ O_ 0.0471935 0.690286 0.883297 -0.58347
O_ O_ 0.0545595 0.717097 0.576774 -0.46727
O_ O_ 0.229882 0.70351 0.590233 -0.46727
O_ O_ 0.0166801 0.682511 0.724099 -0.46727
O_ O_ 0.189874 0.667366 0.735684 -0.46727
O_ O_ 0.292666 0.828824 0.681498 -0.58347
O_ O_ 0.302849 0.805054 0.636537 -0.58347
O_ O_ 0.37276 0.74902 0.685887 -0.58347
O_ O_ 0.390514 0.73938 0.640101 -0.58347
O_ O_ 0.367066 0.89752 0.67476 -0.58347
O_ O_ 0.363419 0.891599 0.627839 -0.58347
O_ O_ 0.445507 0.825411 0.680651 -0.58347
O_ O_ 0.453487 0.827665 0.634351 -0.58347
O_ O_ 0.427304 0.795188 0.827433 -0.46727
O_ O_ 0.258103 0.823388 0.838779 -0.46727
O_ O_ 0.45827 0.804673 0.978359 -0.46727
O_ O_ 0.284384 0.831235 0.988296 -0.46727
Zn Zn 0.626947 0.186568 0.38078 0.90689
Zn Zn 0.636122 0.179013 0.42952 0.90689
Zn Zn 0.876958 0.31096 0.129418 0.90689
Zn Zn 0.871004 0.307202 0.177935 0.90689
H_ H_ 0.803368 0.204773 0.444577 0.11455
H_ H_ 0.866974 0.190261 0.344765 0.11455
H_ H_ 0.776881 0.186644 0.354422 0.11455
H_ H_ 0.883926 0.187413 0.463686 0.11455
H_ H_ 0.975619 0.181027 0.455719 0.11455
H_ H_ 0.958647 0.186999 0.364811 0.11455
H_ H_ 0.645495 0.0168404 0.446715 0.11455
H_ H_ 0.67482 0.432627 0.350339 0.11455
H_ H_ 0.645366 0.028037 0.351677 0.11455
H_ H_ 0.613658 0.436315 0.463602 0.11455
H_ H_ 0.60827 0.346058 0.460593 0.11455
H_ H_ 0.651001 0.349122 0.373385 0.11455
H_ H_ 0.59376 0.0976076 0.464411 0.11455
H_ H_ 0.599774 0.066696 0.0154668 0.11455
H_ H_ 0.623478 0.118503 0.0556087 0.11455
H_ H_ 0.694202 0.244551 0.470277 0.11455
H_ H_ 0.726206 0.30322 0.00891952 0.11455
H_ H_ 0.70254 0.288219 0.0593513 0.11455
H_ H_ 0.52536 0.209566 0.123579 0.11455
H_ H_ 0.516461 0.205699 0.174074 0.11455
H_ H_ 0.774441 0.168027 0.136517 0.11455
H_ H_ 0.765715 0.155341 0.187107 0.11455
H_ H_ 0.574936 0.0908254 0.247103 0.11455
H_ H_ 0.551236 0.0660284 0.297078 0.11455
H_ H_ 0.583803 0.12096 0.338277 0.11455
H_ H_ 0.675527 0.242696 0.254908 0.11455
H_ H_ 0.697055 0.294992 0.296423 0.11455
H_ H_ 0.676775 0.263017 0.346639 0.11455
H_ H_ 0.702912 0.311948 0.193413 0.11455
H_ H_ 0.636256 0.314182 0.0928977 0.11455
H_ H_ 0.725782 0.318335 0.1015 0.11455
H_ H_ 0.617643 0.322213 0.211926 0.11455
H_ H_ 0.522409 0.321633 0.205335 0.11455
H_ H_ 0.54565 0.323287 0.114519 0.11455
H_ H_ 0.876459 0.47671 0.189352 0.11455
H_ H_ 0.859398 0.0525898 0.0957099 0.11455
H_ H_ 0.860723 0.471972 0.0965753 0.11455
H_ H_ 0.843391 0.062806 0.213075 0.11455
H_ H_ 0.859357 0.153111 0.210399 0.11455
H_ H_ 0.866304 0.140688 0.119007 0.11455
H_ H_ 0.919066 0.391937 0.21206 0.11455
H_ H_ 0.943742 0.418021 0.261156 0.11455
H_ H_ 0.893616 0.381822 0.301661 0.11455
H_ H_ 0.817298 0.24505 0.222236 0.11455
H_ H_ 0.798728 0.19146 0.261304 0.11455
H_ H_ 0.809684 0.219439 0.311809 0.11455
H_ H_ 0.993439 0.306683 0.367725 0.11455
H_ H_ 0.0095925 0.31777 0.420838 0.11455
H_ H_ 0.746602 0.355654 0.384483 0.11455
H_ H_ 0.756111 0.360369 0.436907 0.11455
H_ H_ 0.942481 0.42622 0.497367 0.11455
H_ H_ 0.948265 0.441559 0.0447279 0.11455
H_ H_ 0.931585 0.38049 0.0837665 0.11455
H_ H_ 0.829867 0.262631 0.00443914 0.11455
H_ H_ 0.809689 0.207315 0.0440976 0.11455
H_ H_ 0.828208 0.232919 0.0924695 0.11455
C_ C_ 0.728157 0.19445 0.404589 0.68181
C_ C_ 0.783897 0.198282 0.399243 -0.05681
C_ C_ 0.817315 0.201817 0.422862 -0.08735
C_ C_ 0.868477 0.195981 0.418322 -0.05681
C_ C_ 0.888291 0.190434 0.389104 -0.05681
C_ C_ 0.854748 0.189835 0.366444 -0.08735
C_ C_ 0.80298 0.192328 0.371817 -0.08735
C_ C_ 0.900189 0.188009 0.441918 -0.08735
C_ C_ 0.952978 0.186168 0.438017 -0.08735
C_ C_ 0.974711 0.184086 0.410114 -0.05681
C_ C_ 0.941567 0.189289 0.385595 -0.08735
C_ C_ 0.627807 0.279461 0.412579 0.68181
C_ C_ 0.639315 0.0848447 0.399477 0.68181
C_ C_ 0.640402 0.0296113 0.397801 -0.05681
C_ C_ 0.631353 0.499593 0.421336 -0.08735
C_ C_ 0.634444 0.446336 0.420137 -0.05681
C_ C_ 0.648616 0.42082 0.394805 -0.05681
C_ C_ 0.665541 0.449787 0.371792 -0.08735
C_ C_ 0.659915 0.502752 0.372049 -0.08735
C_ C_ 0.624423 0.416433 0.443898 -0.08735
C_ C_ 0.626856 0.363108 0.442797 -0.08735
C_ C_ 0.635063 0.336316 0.417319 -0.05681
C_ C_ 0.644317 0.367068 0.392763 -0.08735
C_ C_ 0.534247 0.170291 0.407636 0.68181
C_ C_ 0.604052 0.123081 0.481624 0.1947
C_ C_ 0.614005 0.103348 0.0110444 -0.08735
C_ C_ 0.632611 0.131464 0.0341503 -0.08735
C_ C_ 0.650853 0.181112 0.0293597 -0.05681
C_ C_ 0.654244 0.197269 0.999957 0.18498
C_ C_ 0.685734 0.23488 0.492249 -0.08735
C_ C_ 0.700001 0.273212 0.0146957 -0.08735
C_ C_ 0.693205 0.259118 0.0429433 -0.08735
C_ C_ 0.667281 0.213882 0.0514272 0.18498
C_ C_ 0.702552 0.183618 0.0969262 0.44287
C_ C_ 0.613938 0.202684 0.0936216 0.44287
C_ C_ 0.606115 0.192423 0.122947 -0.05681
C_ C_ 0.558189 0.195456 0.135135 -0.08735
C_ C_ 0.551351 0.194249 0.165485 -0.08735
C_ C_ 0.594277 0.184034 0.183974 -0.05681
C_ C_ 0.641174 0.174606 0.170222 -0.05681
C_ C_ 0.64791 0.180127 0.140242 -0.05681
C_ C_ 0.697486 0.177836 0.127479 -0.05681
C_ C_ 0.738081 0.165115 0.14485 -0.08735
C_ C_ 0.731358 0.155168 0.174787 -0.08735
C_ C_ 0.683889 0.164327 0.18728 -0.05681
C_ C_ 0.677833 0.15706 0.216637 0.44287
C_ C_ 0.589883 0.182057 0.213485 0.44287
C_ C_ 0.621243 0.151767 0.259887 0.18498
C_ C_ 0.592347 0.108411 0.264702 -0.08735
C_ C_ 0.580275 0.0958859 0.293025 -0.08735
C_ C_ 0.593292 0.126966 0.315129 -0.08735
C_ C_ 0.623208 0.169649 0.310081 0.18498
C_ C_ 0.636191 0.182633 0.282184 -0.05681
C_ C_ 0.663448 0.230345 0.27716 -0.08735
C_ C_ 0.674503 0.260403 0.299518 -0.08735
C_ C_ 0.660958 0.244223 0.327674 0.1947
C_ C_ 0.777874 0.292508 0.152306 0.68181
C_ C_ 0.721522 0.303557 0.148454 -0.05681
C_ C_ 0.687735 0.310339 0.171576 -0.08735
C_ C_ 0.635081 0.314904 0.167276 -0.05681
C_ C_ 0.618493 0.319439 0.138229 -0.05681
C_ C_ 0.650827 0.321781 0.115681 -0.08735
C_ C_ 0.702215 0.313461 0.120181 -0.08735
C_ C_ 0.602799 0.321007 0.19051 -0.08735
C_ C_ 0.551452 0.328315 0.186567 -0.08735
C_ C_ 0.531876 0.324675 0.15827 -0.05681
C_ C_ 0.565894 0.324622 0.134603 -0.08735
C_ C_ 0.87245 0.211729 0.163181 0.68181
C_ C_ 0.868042 0.409281 0.144323 0.68181
C_ C_ 0.868029 0.466192 0.14336 -0.05681
C_ C_ 0.847025 -0.0034359999999999946 0.171145 -0.08735
C_ C_ 0.85015 0.0490892 0.16882 -0.05681
C_ C_ 0.858727 0.0712203 0.140959 -0.05681
C_ C_ 0.858332 0.0382717 0.116959 -0.08735
C_ C_ 0.861647 0.491058 0.117091 -0.08735
C_ C_ 0.853416 0.079911 0.192543 -0.08735
C_ C_ 0.859752 0.131415 0.190689 -0.08735
C_ C_ 0.872342 0.154761 0.164079 -0.05681
C_ C_ 0.871454 0.122414 0.139059 -0.08735
C_ C_ 0.97466 0.311653 0.155044 0.68181
C_ C_ 0.901916 0.372976 0.229363 0.1947
C_ C_ 0.912869 0.389691 0.257184 -0.08735
C_ C_ 0.894011 0.363583 0.279708 -0.08735
C_ C_ 0.866579 0.319399 0.276283 -0.05681
C_ C_ 0.861132 0.299911 0.248156 0.18498
C_ C_ 0.830327 0.25587 0.243502 -0.08735
C_ C_ 0.814095 0.228238 0.266907 -0.08735
C_ C_ 0.821664 0.243034 0.294227 -0.08735
C_ C_ 0.846596 0.291496 0.299316 0.18498
C_ C_ 0.812308 0.31915 0.346361 0.44287
C_ C_ 0.898695 0.295924 0.341916 0.44287
C_ C_ 0.910331 0.309762 0.370994 -0.05681
C_ C_ 0.960063 0.311155 0.382576 -0.08735
C_ C_ 0.967992 0.312916 0.412374 -0.08735
C_ C_ 0.925966 0.326738 0.430438 -0.05681
C_ C_ 0.87831 0.33553 0.418701 -0.05681
C_ C_ 0.870653 0.326003 0.388469 -0.05681
C_ C_ 0.822036 0.330611 0.375535 -0.05681
C_ C_ 0.783686 0.347458 0.394233 -0.08735
C_ C_ 0.789997 0.354266 0.423234 -0.08735
C_ C_ 0.83782 0.351097 0.435626 -0.05681
C_ C_ 0.843549 0.35475 0.465614 0.44287
C_ C_ 0.93216 0.333724 0.460261 0.44287
C_ C_ 0.891629 0.34629 0.00657812 0.18498
C_ C_ 0.913728 0.393361 0.012467 -0.08735
C_ C_ 0.930604 0.404334 0.0398948 -0.08735
C_ C_ 0.920918 0.37161 0.0630406 -0.08735
C_ C_ 0.891762 0.326999 0.0581183 0.18498
C_ C_ 0.875581 0.313963 0.0297321 -0.05681
C_ C_ 0.846007 0.269505 0.0253311 -0.08735
C_ C_ 0.835556 0.239377 0.0485564 -0.08735
C_ C_ 0.850476 0.25336 0.0755689 0.1947
N_ N_ 0.634175 0.16398 0.476772 -0.29468
N_ N_ 0.661257 0.199416 0.0813151 -0.17154
N_ N_ 0.631621 0.166533 0.229509 -0.17154
N_ N_ 0.637575 0.199851 0.332782 -0.29468
N_ N_ 0.875314 0.328707 0.225007 -0.29468
N_ N_ 0.854078 0.307645 0.329623 -0.17154
N_ N_ 0.889242 0.340866 0.477219 -0.17154
N_ N_ 0.87899 0.295643 0.0797745 -0.29468
O_ O_ 0.709024 0.193684 0.429494 -0.58347
O_ O_ 0.699546 0.193766 0.38328 -0.58347
O_ O_ 0.621393 0.251981 0.434011 -0.58347
O_ O_ 0.625281 0.259976 0.387884 -0.58347
O_ O_ 0.651042 0.105077 0.423696 -0.58347
O_ O_ 0.634361 0.113351 0.377997 -0.58347
O_ O_ 0.562201 0.161085 0.429163 -0.58347
O_ O_ 0.55218 0.180307 0.383473 -0.58347
O_ O_ 0.57638 0.221047 0.0784927 -0.46727
O_ O_ 0.746587 0.180113 0.0845202 -0.46727
O_ O_ 0.54862 0.198779 0.226245 -0.46727
O_ O_ 0.718992 0.150447 0.233013 -0.46727
O_ O_ 0.798623 0.298632 0.176698 -0.58347
O_ O_ 0.80254 0.299073 0.129563 -0.58347
O_ O_ 0.874553 0.235131 0.186232 -0.58347
O_ O_ 0.876711 0.236655 0.139654 -0.58347
O_ O_ 0.865749 0.386976 0.167542 -0.58347
O_ O_ 0.877047 0.382991 0.122232 -0.58347
O_ O_ 0.945129 0.315937 0.176922 -0.58347
O_ O_ 0.953487 0.311781 0.130883 -0.58347
O_ O_ 0.931971 0.267236 0.327433 -0.46727
O_ O_ 0.765715 0.312728 0.337092 -0.46727
O_ O_ 0.975036 0.3233 0.472482 -0.46727
O_ O_ 0.811131 0.380329 0.48047 -0.46727
Zn Zn 0.619236 0.195373 0.882487 0.90689
Zn Zn 0.63137 0.187661 0.930894 0.90689
Zn Zn 0.876994 0.320863 0.627569 0.90689
Zn Zn 0.866822 0.325649 0.676183 0.90689
H_ H_ 0.796707 0.19502 0.946334 0.11455
H_ H_ 0.864685 0.173869 0.849413 0.11455
H_ H_ 0.777434 0.193688 0.854102 0.11455
H_ H_ 0.882683 0.207941 0.964965 0.11455
H_ H_ 0.973143 0.202458 0.957175 0.11455
H_ H_ 0.951782 0.172171 0.868491 0.11455
H_ H_ 0.600383 0.0230996 0.932946 0.11455
H_ H_ 0.592322 0.441382 0.850057 0.11455
H_ H_ 0.665565 0.0337294 0.848618 0.11455
H_ H_ 0.670014 0.436505 0.962218 0.11455
H_ H_ 0.671326 0.342615 0.954874 0.11455
H_ H_ 0.585838 0.361059 0.875278 0.11455
H_ H_ 0.597177 0.0975597 0.965603 0.11455
H_ H_ 0.579842 0.072151 0.514599 0.11455
H_ H_ 0.61346 0.121151 0.553504 0.11455
H_ H_ 0.690777 0.254522 0.970711 0.11455
H_ H_ 0.724843 0.301771 0.507952 0.11455
H_ H_ 0.708748 0.27405 0.560196 0.11455
H_ H_ 0.519667 0.200423 0.621653 0.11455
H_ H_ 0.509236 0.186112 0.672162 0.11455
H_ H_ 0.774717 0.193454 0.639692 0.11455
H_ H_ 0.763154 0.184602 0.69059 0.11455
H_ H_ 0.59776 0.089732 0.749184 0.11455
H_ H_ 0.558589 0.0727851 0.7966 0.11455
H_ H_ 0.566417 0.130475 0.83603 0.11455
H_ H_ 0.642088 0.26867 0.75704 0.11455
H_ H_ 0.675332 0.316888 0.799528 0.11455
H_ H_ 0.666243 0.282696 0.848288 0.11455
H_ H_ 0.70138 0.31475 0.690992 0.11455
H_ H_ 0.63573 0.325944 0.594027 0.11455
H_ H_ 0.724358 0.342598 0.600032 0.11455
H_ H_ 0.613903 0.336526 0.712802 0.11455
H_ H_ 0.527693 0.3431 0.703531 0.11455
H_ H_ 0.551141 0.313169 0.613079 0.11455
H_ H_ 0.879103 0.484826 0.688807 0.11455
H_ H_ 0.880658 0.0609443 0.59603 0.11455
H_ H_ 0.855315 0.485089 0.597164 0.11455
H_ H_ 0.883711 0.0770678 0.713269 0.11455
H_ H_ 0.893377 0.171168 0.705509 0.11455
H_ H_ 0.881896 0.150968 0.614351 0.11455
H_ H_ 0.917276 0.396226 0.708116 0.11455
H_ H_ 0.939899 0.424816 0.757337 0.11455
H_ H_ 0.909768 0.373623 0.798815 0.11455
H_ H_ 0.82304 0.249599 0.715294 0.11455
H_ H_ 0.789272 0.196007 0.756854 0.11455
H_ H_ 0.813617 0.21926 0.807407 0.11455
H_ H_ 0.995077 0.298383 0.869601 0.11455
H_ H_ -0.0013864 0.304226 0.924316 0.11455
H_ H_ 0.744788 0.356321 0.878806 0.11455
H_ H_ 0.751484 0.353609 0.93149 0.11455
H_ H_ 0.921218 0.419734 0.995184 0.11455
H_ H_ 0.962595 0.445412 0.546765 0.11455
H_ H_ 0.934799 0.389066 0.586271 0.11455
H_ H_ 0.859742 0.25855 0.503736 0.11455
H_ H_ 0.816506 0.215698 0.54352 0.11455
H_ H_ 0.828227 0.247368 0.592481 0.11455
C_ C_ 0.726248 0.19693 0.905779 0.68181
C_ C_ 0.781052 0.199591 0.901415 -0.05681
C_ C_ 0.812273 0.201477 0.924252 -0.08735
C_ C_ 0.864288 0.201445 0.920293 -0.05681
C_ C_ 0.884575 0.192144 0.892646 -0.05681
C_ C_ 0.852298 0.188827 0.869701 -0.08735
C_ C_ 0.800467 0.195923 0.872547 -0.08735
C_ C_ 0.896088 0.20033 0.944328 -0.08735
C_ C_ 0.947465 0.193887 0.939372 -0.08735
C_ C_ 0.970005 0.184834 0.912855 -0.05681
C_ C_ 0.936608 0.181814 0.888726 -0.08735
C_ C_ 0.624331 0.289275 0.913428 0.68181
C_ C_ 0.634873 0.0920423 0.895018 0.68181
C_ C_ 0.638918 0.0346389 0.89188 -0.05681
C_ C_ 0.633385 0.505366 0.921863 -0.08735
C_ C_ 0.63695 0.451578 0.91917 -0.05681
C_ C_ 0.618208 0.428822 0.892902 -0.05681
C_ C_ 0.602037 0.456851 0.87108 -0.08735
C_ C_ 0.604007 0.510919 0.872039 -0.08735
C_ C_ 0.656634 0.419664 0.941302 -0.08735
C_ C_ 0.656292 0.366873 0.937595 -0.08735
C_ C_ 0.627469 0.345588 0.915453 -0.05681
C_ C_ 0.609014 0.376976 0.892921 -0.08735
C_ C_ 0.529917 0.192499 0.908221 0.68181
C_ C_ 0.609989 0.124525 0.983218 0.1947
C_ C_ 0.595522 0.106199 0.510043 -0.08735
C_ C_ 0.616359 0.134094 0.532034 -0.08735
C_ C_ 0.643597 0.178482 0.527355 -0.05681
C_ C_ 0.652271 0.193248 0.498608 0.18498
C_ C_ 0.685112 0.239413 0.99275 -0.08735
C_ C_ 0.706374 0.26407 0.514229 -0.08735
C_ C_ 0.694807 0.250349 0.542837 -0.08735
C_ C_ 0.666962 0.207353 0.550608 0.18498
C_ C_ 0.701195 0.190973 0.599171 0.44287
C_ C_ 0.612127 0.201532 0.592618 0.44287
C_ C_ 0.604095 0.192896 0.622267 -0.05681
C_ C_ 0.55471 0.194676 0.634332 -0.08735
C_ C_ 0.549335 0.189899 0.663485 -0.08735
C_ C_ 0.58993 0.194846 0.682004 -0.05681
C_ C_ 0.639048 0.194163 0.670538 -0.05681
C_ C_ 0.646046 0.19376 0.640443 -0.05681
C_ C_ 0.695462 0.193022 0.628606 -0.05681
C_ C_ 0.736413 0.194032 0.647465 -0.08735
C_ C_ 0.730003 0.187839 0.67604 -0.08735
C_ C_ 0.681328 0.185725 0.688483 -0.05681
C_ C_ 0.674118 0.177674 0.717888 0.44287
C_ C_ 0.585451 0.186629 0.711621 0.44287
C_ C_ 0.620248 0.166298 0.758761 0.18498
C_ C_ 0.604216 0.117663 0.765956 -0.08735
C_ C_ 0.581083 0.107055 0.79325 -0.08735
C_ C_ 0.580706 0.141288 0.815207 -0.08735
C_ C_ 0.607248 0.187096 0.810216 0.18498
C_ C_ 0.621151 0.204202 0.78127 -0.05681
C_ C_ 0.640462 0.253479 0.777274 -0.08735
C_ C_ 0.65534 0.281549 0.801677 -0.08735
C_ C_ 0.650683 0.261439 0.82914 0.1947
C_ C_ 0.774909 0.316437 0.650966 0.68181
C_ C_ 0.720647 0.32808 0.646495 -0.05681
C_ C_ 0.686841 0.327136 0.670079 -0.08735
C_ C_ 0.635193 0.332503 0.66665 -0.05681
C_ C_ 0.615018 0.3253 0.638704 -0.05681
C_ C_ 0.648801 0.322531 0.614792 -0.08735
C_ C_ 0.70017 0.33365 0.618418 -0.08735
C_ C_ 0.602106 0.335853 0.690526 -0.08735
C_ C_ 0.550302 0.333595 0.685113 -0.08735
C_ C_ 0.53075 0.325488 0.657775 -0.05681
C_ C_ 0.56351 0.32233 0.63473 -0.08735
C_ C_ 0.887143 0.222832 0.657664 0.68181
C_ C_ 0.861386 0.420165 0.644969 0.68181
C_ C_ 0.86965 0.476231 0.643629 -0.05681
C_ C_ 0.873737 0.00805947 0.673635 -0.08735
C_ C_ 0.87761 0.0612678 0.668786 -0.05681
C_ C_ 0.874615 0.0819588 0.640907 -0.05681
C_ C_ 0.876881 0.0476882 0.618368 -0.08735
C_ C_ 0.860847 0.501847 0.617651 -0.08735
C_ C_ 0.880906 0.094089 0.691978 -0.08735
C_ C_ 0.885154 0.145823 0.687846 -0.08735
C_ C_ 0.884044 0.167433 0.660687 -0.05681
C_ C_ 0.884752 0.13397 0.636807 -0.08735
C_ C_ 0.970624 0.335844 0.651401 0.68181
C_ C_ 0.901203 0.377832 0.727236 0.1947
C_ C_ 0.917229 0.391538 0.754394 -0.08735
C_ C_ 0.89652 0.364346 0.77748 -0.08735
C_ C_ 0.867246 0.320748 0.773499 -0.05681
C_ C_ 0.857859 0.305654 0.74431 0.18498
C_ C_ 0.826985 0.26373 0.73796 -0.08735
C_ C_ 0.809957 0.233137 0.760902 -0.08735
C_ C_ 0.819138 0.24759 0.789455 -0.08735
C_ C_ 0.845825 0.292076 0.796407 0.18498
C_ C_ 0.817631 0.323696 0.84252 0.44287
C_ C_ 0.900527 0.295682 0.840538 0.44287
C_ C_ 0.909201 0.310871 0.868162 -0.05681
C_ C_ 0.959103 0.308378 0.881589 -0.08735
C_ C_ 0.964131 0.313271 0.912492 -0.08735
C_ C_ 0.922093 0.318012 0.929914 -0.05681
C_ C_ 0.87383 0.326126 0.91617 -0.05681
C_ C_ 0.86793 0.323273 0.885395 -0.05681
C_ C_ 0.822603 0.334266 0.872451 -0.05681
C_ C_ 0.779332 0.345928 0.889306 -0.08735
C_ C_ 0.783683 0.346145 0.919292 -0.08735
C_ C_ 0.83178 0.338638 0.933398 -0.05681
C_ C_ 0.837649 0.341654 0.964148 0.44287
C_ C_ 0.925705 0.321723 0.95964 0.44287
C_ C_ 0.900727 0.353535 0.507493 0.18498
C_ C_ 0.926671 0.399687 0.514464 -0.08735
C_ C_ 0.935559 0.413064 0.542302 -0.08735
C_ C_ 0.918793 0.381861 0.565683 -0.08735
C_ C_ 0.888262 0.338096 0.559578 0.18498
C_ C_ 0.882991 0.322262 0.53054 -0.05681
C_ C_ 0.861616 0.274681 0.524764 -0.08735
C_ C_ 0.836374 0.250726 0.546485 -0.08735
C_ C_ 0.843459 0.267632 0.574807 0.1947
N_ N_ 0.632249 0.170322 0.978116 -0.29468
N_ N_ 0.659947 0.196615 0.580478 -0.17154
N_ N_ 0.626323 0.180155 0.72937 -0.17154
N_ N_ 0.62446 0.216231 0.833316 -0.29468
N_ N_ 0.87073 0.33691 0.722985 -0.29468
N_ N_ 0.856653 0.306306 0.826419 -0.17154
N_ N_ 0.88418 0.332551 0.975958 -0.17154
N_ N_ 0.873785 0.308314 0.581184 -0.29468
O_ O_ 0.707733 0.191877 0.930948 -0.58347
O_ O_ 0.695366 0.206131 0.885731 -0.58347
O_ O_ 0.626739 0.261724 0.936123 -0.58347
O_ O_ 0.60584 0.270232 0.891281 -0.58347
O_ O_ 0.631714 0.114268 0.918636 -0.58347
O_ O_ 0.637451 0.120355 0.873866 -0.58347
O_ O_ 0.557302 0.177929 0.928658 -0.58347
O_ O_ 0.546329 0.189205 0.883326 -0.58347
O_ O_ 0.572047 0.203043 0.575989 -0.46727
O_ O_ 0.747222 0.192142 0.588477 -0.46727
O_ O_ 0.539873 0.184603 0.723072 -0.46727
O_ O_ 0.710583 0.155261 0.731421 -0.46727
O_ O_ 0.79258 0.311693 0.675735 -0.58347
O_ O_ 0.80369 0.318709 0.629089 -0.58347
O_ O_ 0.884217 0.250828 0.678506 -0.58347
O_ O_ 0.879129 0.242584 0.63385 -0.58347
O_ O_ 0.859711 0.398056 0.668978 -0.58347
O_ O_ 0.8627 0.394467 0.621708 -0.58347
O_ O_ 0.940932 0.343853 0.672197 -0.58347
O_ O_ 0.95065 0.325316 0.626821 -0.58347
O_ O_ 0.939165 0.276486 0.826694 -0.46727
O_ O_ 0.775551 0.335328 0.829372 -0.46727
O_ O_ 0.967391 0.303838 0.97224 -0.46727
O_ O_ 0.797542 0.349201 0.980248 -0.46727
Zn Zn 0.626489 0.681259 0.380503 0.90689
Zn Zn 0.636024 0.681385 0.42818 0.90689
Zn Zn 0.867112 0.804535 0.133736 0.90689
Zn Zn 0.856627 0.81588 0.180339 0.90689
H_ H_ 0.805887 0.70292 0.445649 0.11455
H_ H_ 0.875805 0.656783 0.34954 0.11455
H_ H_ 0.785169 0.662046 0.353839 0.11455
H_ H_ 0.894754 0.711617 0.462223 0.11455
H_ H_ 0.985401 0.699354 0.454945 0.11455
H_ H_ 0.96398 0.660321 0.367886 0.11455
H_ H_ 0.626449 0.517024 0.442861 0.11455
H_ H_ 0.632325 0.932764 0.348569 0.11455
H_ H_ 0.67123 0.526543 0.353155 0.11455
H_ H_ 0.643525 0.928535 0.464598 0.11455
H_ H_ 0.619636 0.836805 0.460516 0.11455
H_ H_ 0.628064 0.849321 0.369854 0.11455
H_ H_ 0.582925 0.603434 0.467558 0.11455
H_ H_ 0.572829 0.566647 0.00633342 0.11455
H_ H_ 0.599227 0.614148 0.0513536 0.11455
H_ H_ 0.68571 0.751703 0.47133 0.11455
H_ H_ 0.700601 0.805184 0.0161145 0.11455
H_ H_ 0.6702 0.784132 0.063447 0.11455
H_ H_ 0.505447 0.689496 0.127396 0.11455
H_ H_ 0.503484 0.695877 0.176948 0.11455
H_ H_ 0.761557 0.656957 0.132085 0.11455
H_ H_ 0.750743 0.635561 0.183256 0.11455
H_ H_ 0.578446 0.584077 0.247461 0.11455
H_ H_ 0.554041 0.55973 0.295611 0.11455
H_ H_ 0.572371 0.619312 0.334835 0.11455
H_ H_ 0.669282 0.741161 0.257321 0.11455
H_ H_ 0.701514 0.786228 0.300731 0.11455
H_ H_ 0.68028 0.760139 0.347546 0.11455
H_ H_ 0.689959 0.798614 0.200578 0.11455
H_ H_ 0.616875 0.813777 0.102193 0.11455
H_ H_ 0.707381 0.8084 0.107477 0.11455
H_ H_ 0.60309 0.794542 0.221431 0.11455
H_ H_ 0.511573 0.804512 0.213409 0.11455
H_ H_ 0.531438 0.809766 0.124593 0.11455
H_ H_ 0.842987 0.983922 0.192488 0.11455
H_ H_ 0.853699 0.563313 0.0968482 0.11455
H_ H_ 0.848479 0.961405 0.100567 0.11455
H_ H_ 0.863358 0.559773 0.212341 0.11455
H_ H_ 0.886219 0.649293 0.212728 0.11455
H_ H_ 0.863334 0.644631 0.120112 0.11455
H_ H_ 0.928997 0.877639 0.215211 0.11455
H_ H_ 0.949856 0.908716 0.261351 0.11455
H_ H_ 0.909547 0.873551 0.303588 0.11455
H_ H_ 0.807109 0.747498 0.228616 0.11455
H_ H_ 0.791418 0.693098 0.269177 0.11455
H_ H_ 0.80963 0.722112 0.318235 0.11455
H_ H_ 0.987153 0.796272 0.37374 0.11455
H_ H_ 0.00023319 0.800952 0.427107 0.11455
H_ H_ 0.738127 0.847759 0.391904 0.11455
H_ H_ 0.755658 0.860617 0.441788 0.11455
H_ H_ 0.950458 0.90799 0.50203 0.11455
H_ H_ 0.966219 0.908311 0.0542983 0.11455
H_ H_ 0.920598 0.870273 0.0921929 0.11455
H_ H_ 0.846729 0.734665 0.0110072 0.11455
H_ H_ 0.825595 0.683146 0.0523171 0.11455
H_ H_ 0.82519 0.722206 0.0998095 0.11455
C_ C_ 0.732141 0.68574 0.405161 0.68181
C_ C_ 0.788602 0.682387 0.401549 -0.05681
C_ C_ 0.821575 0.690385 0.424117 -0.08735
C_ C_ 0.873629 0.681894 0.420526 -0.05681
C_ C_ 0.892718 0.670415 0.392464 -0.05681
C_ C_ 0.860115 0.661648 0.369624 -0.08735
C_ C_ 0.808862 0.666067 0.373396 -0.08735
C_ C_ 0.907569 0.690413 0.443626 -0.08735
C_ C_ 0.959049 0.686983 0.439252 -0.08735
C_ C_ 0.977188 0.674408 0.412247 -0.05681
C_ C_ 0.946141 0.670942 0.389033 -0.08735
C_ C_ 0.625339 0.782254 0.411741 0.68181
C_ C_ 0.645915 0.585132 0.397592 0.68181
C_ C_ 0.644745 0.529321 0.396884 -0.05681
C_ C_ 0.641592 0.999553 0.423886 -0.08735
C_ C_ 0.640536 0.944151 0.420647 -0.05681
C_ C_ 0.634345 0.922971 0.393224 -0.05681
C_ C_ 0.633838 0.951522 0.368987 -0.08735
C_ C_ 0.639715 1.00455657 0.371086 -0.08735
C_ C_ 0.635486 0.911953 0.444721 -0.08735
C_ C_ 0.629558 0.859421 0.441551 -0.08735
C_ C_ 0.629941 0.837505 0.414861 -0.05681
C_ C_ 0.633345 0.868612 0.390255 -0.08735
C_ C_ 0.53239 0.66873 0.403432 0.68181
C_ C_ 0.599568 0.628081 0.484664 0.1947
C_ C_ 0.586359 0.604512 0.00473473 -0.08735
C_ C_ 0.602843 0.632658 0.0292494 -0.08735
C_ C_ 0.629052 0.679504 0.0260532 -0.05681
C_ C_ 0.63874 0.695574 0.997364 0.18498
C_ C_ 0.677401 0.742667 0.492366 -0.08735
C_ C_ 0.676477 0.772234 0.0183443 -0.08735
C_ C_ 0.663015 0.756805 0.0459595 -0.08735
C_ C_ 0.640667 0.709799 0.0503364 0.18498
C_ C_ 0.681121 0.679619 0.095544 0.44287
C_ C_ 0.59126 0.693366 0.0940493 0.44287
C_ C_ 0.58846 0.682625 0.122913 -0.05681
C_ C_ 0.541158 0.683439 0.138151 -0.08735
C_ C_ 0.540821 0.681981 0.168518 -0.08735
C_ C_ 0.582768 0.67167 0.184238 -0.05681
C_ C_ 0.630033 0.664285 0.169606 -0.05681
C_ C_ 0.631605 0.671089 0.139346 -0.05681
C_ C_ 0.679822 0.673032 0.125196 -0.05681
C_ C_ 0.724639 0.660354 0.141163 -0.08735
C_ C_ 0.721147 0.65232 0.170431 -0.08735
C_ C_ 0.674366 0.660109 0.185707 -0.05681
C_ C_ 0.670083 0.663229 0.215961 0.44287
C_ C_ 0.581993 0.673508 0.213836 0.44287
C_ C_ 0.619073 0.651459 0.259398 0.18498
C_ C_ 0.593968 0.605345 0.264894 -0.08735
C_ C_ 0.578056 0.592278 0.291988 -0.08735
C_ C_ 0.587358 0.625636 0.314193 -0.08735
C_ C_ 0.616463 0.670981 0.311436 0.18498
C_ C_ 0.631632 0.684349 0.283247 -0.05681
C_ C_ 0.657261 0.729446 0.27846 -0.08735
C_ C_ 0.6764 0.756745 0.301877 -0.08735
C_ C_ 0.66127 0.741094 0.330417 0.1947
C_ C_ 0.762085 0.803162 0.15882 0.68181
C_ C_ 0.705846 0.800154 0.154449 -0.05681
C_ C_ 0.675104 0.794577 0.178155 -0.08735
C_ C_ 0.621138 0.797707 0.175306 -0.05681
C_ C_ 0.599847 0.806028 0.147199 -0.05681
C_ C_ 0.632361 0.807951 0.123052 -0.08735
C_ C_ 0.683116 0.805165 0.126452 -0.08735
C_ C_ 0.588362 0.803834 0.199245 -0.08735
C_ C_ 0.535166 0.807151 0.19579 -0.08735
C_ C_ 0.515414 0.807849 0.168069 -0.05681
C_ C_ 0.548076 0.807449 0.145066 -0.08735
C_ C_ 0.868991 0.710296 0.163388 0.68181
C_ C_ 0.855267 0.907817 0.151195 0.68181
C_ C_ 0.850651 0.964418 0.147279 -0.05681
C_ C_ 0.875611 0.495436 0.168443 -0.08735
C_ C_ 0.873673 0.546646 0.167749 -0.05681
C_ C_ 0.864802 0.571486 0.141851 -0.05681
C_ C_ 0.858187 0.542584 0.116947 -0.08735
C_ C_ 0.853457 0.985534 0.119884 -0.08735
C_ C_ 0.873122 0.577608 0.193311 -0.08735
C_ C_ 0.873975 0.630803 0.192614 -0.08735
C_ C_ 0.871252 0.653486 0.165751 -0.05681
C_ C_ 0.868068 0.624689 0.140531 -0.08735
C_ C_ 0.960379 0.808142 0.157555 0.68181
C_ C_ 0.905409 0.863353 0.232161 0.1947
C_ C_ 0.919571 0.879311 0.259132 -0.08735
C_ C_ 0.896271 0.859131 0.283632 -0.08735
C_ C_ 0.861571 0.818906 0.28101 -0.05681
C_ C_ 0.847139 0.803439 0.252624 0.18498
C_ C_ 0.817188 0.761829 0.248671 -0.08735
C_ C_ 0.806909 0.730356 0.272293 -0.08735
C_ C_ 0.81757 0.746156 0.300346 -0.08735
C_ C_ 0.841085 0.793015 0.304574 0.18498
C_ C_ 0.812525 0.826916 0.350371 0.44287
C_ C_ 0.898515 0.798859 0.34599 0.44287
C_ C_ 0.907105 0.809276 0.375245 -0.05681
C_ C_ 0.955702 0.804829 0.38758 -0.08735
C_ C_ 0.963742 0.809279 0.417022 -0.08735
C_ C_ 0.92252 0.812715 0.434731 -0.05681
C_ C_ 0.873634 0.82294 0.423423 -0.05681
C_ C_ 0.865341 0.820384 0.39251 -0.05681
C_ C_ 0.819663 0.831916 0.379878 -0.05681
C_ C_ 0.77816 0.844762 0.399306 -0.08735
C_ C_ 0.786308 0.848616 0.42939 -0.08735
C_ C_ 0.833407 0.837921 0.442158 -0.05681
C_ C_ 0.841073 0.842995 0.472095 0.44287
C_ C_ 0.928103 0.820031 0.464705 0.44287
C_ C_ 0.89453 0.829073 0.0139664 0.18498
C_ C_ 0.927428 0.869125 0.0201779 -0.08735
C_ C_ 0.937805 0.881842 0.0482217 -0.08735
C_ C_ 0.913013 0.859037 0.0706159 -0.08735
C_ C_ 0.883163 0.816895 0.065268 0.18498
C_ C_ 0.875641 0.79943 0.0358105 -0.05681
C_ C_ 0.851504 0.751411 0.0320823 -0.08735
C_ C_ 0.835718 0.723446 0.054457 -0.08735
C_ C_ 0.841336 0.742055 0.0829287 0.1947
N_ N_ 0.6298 0.669386 0.47787 -0.29468
N_ N_ 0.63674 0.689392 0.0802873 -0.17154
N_ N_ 0.625337 0.667999 0.229624 -0.17154
N_ N_ 0.63302 0.699634 0.33545 -0.29468
N_ N_ 0.868685 0.826515 0.229524 -0.29468
N_ N_ 0.852252 0.810917 0.333797 -0.17154
N_ N_ 0.888876 0.836726 0.482455 -0.17154
N_ N_ 0.860595 0.789787 0.0878113 -0.29468
O_ O_ 0.712471 0.691509 0.429259 -0.58347
O_ O_ 0.704429 0.683207 0.383763 -0.58347
O_ O_ 0.622758 0.755727 0.434264 -0.58347
O_ O_ 0.627752 0.759092 0.38901 -0.58347
O_ O_ 0.643336 0.606349 0.421754 -0.58347
O_ O_ 0.637623 0.610149 0.375014 -0.58347
O_ O_ 0.562179 0.665898 0.424937 -0.58347
O_ O_ 0.550764 0.674225 0.378218 -0.58347
O_ O_ 0.550401 0.706245 0.0792471 -0.46727
O_ O_ 0.726087 0.677441 0.0817915 -0.46727
O_ O_ 0.538527 0.670097 0.227119 -0.46727
O_ O_ 0.711277 0.665319 0.231768 -0.46727
O_ O_ 0.780838 0.819211 0.182044 -0.58347
O_ O_ 0.792124 0.794027 0.137804 -0.58347
O_ O_ 0.85102 0.735186 0.183777 -0.58347
O_ O_ 0.881138 0.731505 0.140474 -0.58347
O_ O_ 0.864355 0.889303 0.175397 -0.58347
O_ O_ 0.854532 0.878378 0.129656 -0.58347
O_ O_ 0.930559 0.809267 0.180186 -0.58347
O_ O_ 0.941704 0.815555 0.133537 -0.58347
O_ O_ 0.934392 0.778573 0.330705 -0.46727
O_ O_ 0.770495 0.843814 0.339716 -0.46727
O_ O_ 0.971536 0.812435 0.476044 -0.46727
O_ O_ 0.80377 0.858642 0.489195 -0.46727
Zn Zn 0.622879 0.690305 0.877039 0.90689
Zn Zn 0.6291 0.688353 0.925671 0.90689
Zn Zn 0.875852 0.815311 0.634078 0.90689
Zn Zn 0.868987 0.825885 0.67873 0.90689
H_ H_ 0.795837 0.680972 0.944814 0.11455
H_ H_ 0.871577 0.674977 0.845849 0.11455
H_ H_ 0.783245 0.663925 0.852919 0.11455
H_ H_ 0.882181 0.676546 0.96425 0.11455
H_ H_ 0.980524 0.665363 0.956926 0.11455
H_ H_ 0.953382 0.686171 0.866268 0.11455
H_ H_ 0.64704 0.523457 0.941471 0.11455
H_ H_ 0.664205 0.944057 0.842674 0.11455
H_ H_ 0.593929 0.53433 0.853774 0.11455
H_ H_ 0.590036 0.937629 0.956731 0.11455
H_ H_ 0.577183 0.845281 0.949853 0.11455
H_ H_ 0.657736 0.856213 0.869813 0.11455
H_ H_ 0.575633 0.611254 0.959787 0.11455
H_ H_ 0.570707 0.580056 0.518818 0.11455
H_ H_ 0.601484 0.635694 0.556439 0.11455
H_ H_ 0.679511 0.751596 0.974045 0.11455
H_ H_ 0.70223 0.816963 0.507281 0.11455
H_ H_ 0.681063 0.800833 0.5549 0.11455
H_ H_ 0.508712 0.720522 0.620705 0.11455
H_ H_ 0.497533 0.69421 0.670925 0.11455
H_ H_ 0.760123 0.702358 0.638774 0.11455
H_ H_ 0.747291 0.681426 0.688153 0.11455
H_ H_ 0.554641 0.592067 0.744732 0.11455
H_ H_ 0.544331 0.561172 0.795713 0.11455
H_ H_ 0.567373 0.621337 0.837046 0.11455
H_ H_ 0.644627 0.751737 0.753226 0.11455
H_ H_ 0.680686 0.796944 0.793573 0.11455
H_ H_ 0.670711 0.765006 0.841947 0.11455
H_ H_ 0.702868 0.825411 0.696588 0.11455
H_ H_ 0.634894 0.826658 0.598675 0.11455
H_ H_ 0.720542 0.826654 0.604512 0.11455
H_ H_ 0.615728 0.82436 0.716678 0.11455
H_ H_ 0.523229 0.821585 0.70903 0.11455
H_ H_ 0.545935 0.837704 0.617497 0.11455
H_ H_ 0.869548 0.992814 0.695053 0.11455
H_ H_ 0.855507 0.574799 0.597105 0.11455
H_ H_ 0.875804 0.972579 0.604275 0.11455
H_ H_ 0.895793 0.567132 0.714021 0.11455
H_ H_ 0.918018 0.656271 0.711466 0.11455
H_ H_ 0.865351 0.654857 0.624512 0.11455
H_ H_ 0.925873 0.891318 0.715029 0.11455
H_ H_ 0.930814 0.931101 0.760967 0.11455
H_ H_ 0.900944 0.887314 0.803636 0.11455
H_ H_ 0.812219 0.760148 0.724224 0.11455
H_ H_ 0.784258 0.70342 0.76693 0.11455
H_ H_ 0.810947 0.724736 0.81561 0.11455
H_ H_ 0.99162 0.812318 0.875646 0.11455
H_ H_ 1.00155 0.802022 0.926846 0.11455
H_ H_ 0.73875 0.81911 0.890179 0.11455
H_ H_ 0.750839 0.837326 0.942451 0.11455
H_ H_ 0.949988 0.885486 1.00345369 0.11455
H_ H_ 0.974682 0.925364 0.550814 0.11455
H_ H_ 0.93029 0.88207 0.593836 0.11455
H_ H_ 0.832668 0.766761 0.509831 0.11455
H_ H_ 0.803178 0.714842 0.550893 0.11455
H_ H_ 0.822948 0.741232 0.600538 0.11455
C_ C_ 0.726144 0.685775 0.902802 0.68181
C_ C_ 0.782077 0.681051 0.898814 -0.05681
C_ C_ 0.814049 0.675851 0.923078 -0.08735
C_ C_ 0.867246 0.671896 0.91931 -0.05681
C_ C_ 0.888546 0.672515 0.891578 -0.05681
C_ C_ 0.857039 0.676555 0.867246 -0.08735
C_ C_ 0.803549 0.673928 0.871198 -0.08735
C_ C_ 0.899137 0.672516 0.942962 -0.08735
C_ C_ 0.952922 0.672203 0.939688 -0.08735
C_ C_ 0.975032 0.674163 0.911465 -0.05681
C_ C_ 0.940871 0.675111 0.888832 -0.08735
C_ C_ 0.619857 0.787591 0.907998 0.68181
C_ C_ 0.623401 0.589955 0.897652 0.68181
C_ C_ 0.620424 0.53436 0.897168 -0.05681
C_ C_ 0.622053 0.00585963 0.915106 -0.08735
C_ C_ 0.621466 0.951328 0.913626 -0.05681
C_ C_ 0.638248 0.92847 0.887165 -0.05681
C_ C_ 0.65532 0.958713 0.864631 -0.08735
C_ C_ 0.655515 0.0113378 0.866522 -0.08735
C_ C_ 0.601494 0.920767 0.936794 -0.08735
C_ C_ 0.59628 0.868338 0.933059 -0.08735
C_ C_ 0.615523 0.844878 0.908165 -0.05681
C_ C_ 0.634389 0.875195 0.884335 -0.08735
C_ C_ 0.53043 0.687115 0.902177 0.68181
C_ C_ 0.595664 0.6263 0.977153 0.1947
C_ C_ 0.591187 0.614594 0.513028 -0.08735
C_ C_ 0.610168 0.646231 0.534187 -0.08735
C_ C_ 0.641032 0.688608 0.528216 -0.05681
C_ C_ 0.650016 0.699394 0.499139 0.18498
C_ C_ 0.665494 0.742159 0.994179 -0.08735
C_ C_ 0.680043 0.782443 0.512274 -0.08735
C_ C_ 0.67109 0.770517 0.540886 -0.08735
C_ C_ 0.654478 0.723886 0.550109 0.18498
C_ C_ 0.686944 0.705662 0.597219 0.44287
C_ C_ 0.59975 0.715465 0.591221 0.44287
C_ C_ 0.590402 0.704791 0.621002 -0.05681
C_ C_ 0.540924 0.707439 0.632873 -0.08735
C_ C_ 0.534979 0.697933 0.662645 -0.08735
C_ C_ 0.57567 0.690475 0.680786 -0.05681
C_ C_ 0.625023 0.692972 0.668378 -0.05681
C_ C_ 0.632577 0.695763 0.638413 -0.05681
C_ C_ 0.680122 0.700981 0.627589 -0.05681
C_ C_ 0.721181 0.699789 0.646634 -0.08735
C_ C_ 0.71501 0.689171 0.675986 -0.08735
C_ C_ 0.666318 0.683629 0.686909 -0.05681
C_ C_ 0.65747 0.667998 0.714956 0.44287
C_ C_ 0.570013 0.679935 0.710341 0.44287
C_ C_ 0.602053 0.654812 0.756651 0.18498
C_ C_ 0.572436 0.612401 0.763094 -0.08735
C_ C_ 0.560946 0.598419 0.791509 -0.08735
C_ C_ 0.581536 0.627658 0.814643 -0.08735
C_ C_ 0.612787 0.66895 0.808397 0.18498
C_ C_ 0.619747 0.685618 0.779698 -0.05681
C_ C_ 0.642638 0.73325 0.775039 -0.08735
C_ C_ 0.656938 0.762843 0.797967 -0.08735
C_ C_ 0.652894 0.745233 0.825601 0.1947
C_ C_ 0.773621 0.824081 0.654665 0.68181
C_ C_ 0.719601 0.828017 0.651365 -0.05681
C_ C_ 0.685473 0.829553 0.67527 -0.08735
C_ C_ 0.633348 0.825136 0.671231 -0.05681
C_ C_ 0.613422 0.83389 0.643729 -0.05681
C_ C_ 0.646975 0.834783 0.620679 -0.08735
C_ C_ 0.697699 0.826426 0.624146 -0.08735
C_ C_ 0.600494 0.825859 0.695103 -0.08735
C_ C_ 0.547821 0.826456 0.690347 -0.08735
C_ C_ 0.526629 0.835361 0.662483 -0.05681
C_ C_ 0.560351 0.833191 0.639408 -0.08735
C_ C_ 0.888288 0.721337 0.665745 0.68181
C_ C_ 0.868801 0.91876 0.650572 0.68181
C_ C_ 0.872244 0.974913 0.648417 -0.05681
C_ C_ 0.877071 0.505207 0.669332 -0.08735
C_ C_ 0.877414 0.558097 0.670285 -0.05681
C_ C_ 0.874377 0.582794 0.643418 -0.05681
C_ C_ 0.865337 0.555795 0.616697 -0.08735
C_ C_ 0.875721 0.997253 0.621845 -0.08735
C_ C_ 0.887766 0.585436 0.695144 -0.08735
C_ C_ 0.896616 0.637709 0.694301 -0.08735
C_ C_ 0.889059 0.663507 0.668061 -0.05681
C_ C_ 0.874429 0.634726 0.643744 -0.08735
C_ C_ 0.972456 0.825364 0.656141 0.68181
C_ C_ 0.899127 0.87928 0.73148 0.1947
C_ C_ 0.908078 0.896991 0.759153 -0.08735
C_ C_ 0.894492 0.868375 0.783087 -0.08735
C_ C_ 0.866998 0.823713 0.77998 -0.05681
C_ C_ 0.854835 0.808531 0.750649 0.18498
C_ C_ 0.82504 0.765666 0.746648 -0.08735
C_ C_ 0.804413 0.739834 0.769535 -0.08735
C_ C_ 0.817702 0.751634 0.798053 -0.08735
C_ C_ 0.848172 0.79463 0.804271 0.18498
C_ C_ 0.813383 0.819669 0.850696 0.44287
C_ C_ 0.903997 0.805497 0.845047 0.44287
C_ C_ 0.911656 0.807092 0.875479 -0.05681
C_ C_ 0.959316 0.811199 0.888556 -0.08735
C_ C_ 0.96388 0.804177 0.918179 -0.08735
C_ C_ 0.920666 0.805246 0.936475 -0.05681
C_ C_ 0.872291 0.811393 0.924198 -0.05681
C_ C_ 0.869609 0.813908 0.893274 -0.05681
C_ C_ 0.819973 0.818014 0.880966 -0.05681
C_ C_ 0.777292 0.82232 0.899093 -0.08735
C_ C_ 0.7827 0.828542 0.928851 -0.08735
C_ C_ 0.829683 0.820994 0.942099 -0.05681
C_ C_ 0.837987 0.826649 0.971872 0.44287
C_ C_ 0.923968 0.80501 0.966807 0.44287
C_ C_ 0.900893 0.844606 0.512705 0.18498
C_ C_ 0.935924 0.883048 0.519613 -0.08735
C_ C_ 0.947659 0.894134 0.547348 -0.08735
C_ C_ 0.927683 0.867437 0.570674 -0.08735
C_ C_ 0.889266 0.830744 0.565423 0.18498
C_ C_ 0.878629 0.816451 0.535929 -0.05681
C_ C_ 0.8451 0.776735 0.531919 -0.08735
C_ C_ 0.827995 0.745775 0.55463 -0.08735
C_ C_ 0.838104 0.762583 0.582796 0.1947
N_ N_ 0.622051 0.670537 0.973737 -0.29468
N_ N_ 0.647518 0.713601 0.579599 -0.17154
N_ N_ 0.610119 0.668732 0.727187 -0.17154
N_ N_ 0.628559 0.700557 0.830197 -0.29468
N_ N_ 0.869305 0.835364 0.727763 -0.29468
N_ N_ 0.855006 0.809123 0.833623 -0.17154
N_ N_ 0.883616 0.817457 0.984534 -0.17154
N_ N_ 0.867406 0.805781 0.588051 -0.29468
O_ O_ 0.706976 0.685551 0.927607 -0.58347
O_ O_ 0.698073 0.688439 0.88109 -0.58347
O_ O_ 0.625172 0.761781 0.930378 -0.58347
O_ O_ 0.62225 0.766826 0.884326 -0.58347
O_ O_ 0.628543 0.613765 0.920997 -0.58347
O_ O_ 0.622815 0.61451 0.874045 -0.58347
O_ O_ 0.55723 0.685898 0.923902 -0.58347
O_ O_ 0.54813 0.694799 0.876795 -0.58347
O_ O_ 0.560363 0.726498 0.574418 -0.46727
O_ O_ 0.729383 0.694918 0.584679 -0.46727
O_ O_ 0.523488 0.678152 0.721918 -0.46727
O_ O_ 0.697652 0.657947 0.732026 -0.46727
O_ O_ 0.793714 0.837803 0.677552 -0.58347
O_ O_ 0.799337 0.805924 0.635141 -0.58347
O_ O_ 0.869735 0.750981 0.685592 -0.58347
O_ O_ 0.891376 0.740009 0.64201 -0.58347
O_ O_ 0.875459 0.898143 0.674227 -0.58347
O_ O_ 0.864987 0.894079 0.628291 -0.58347
O_ O_ 0.945744 0.822777 0.678748 -0.58347
O_ O_ 0.951348 0.823659 0.631279 -0.58347
O_ O_ 0.941489 0.801239 0.827593 -0.46727
O_ O_ 0.767444 0.818732 0.839677 -0.46727
O_ O_ 0.964673 0.785736 0.979091 -0.46727
O_ O_ 0.801508 0.847703 0.98704 -0.46727
_cell_length_a 26.376
_cell_length_b 26.400000238300095
_cell_length_c 46.67800035477134
_cell_angle_alpha 90.00700052986613
_cell_angle_beta 89.99899961309502
_cell_angle_gamma 90.45000003183146
_symmetry_space_group_name_H-M         'P 1'
_symmetry_Int_Tables_number            1
loop_
_symmetry_equiv_pos_as_xyz
   'x, y, z'
                         
loop_
_atom_site_label
_atom_site_type_symbol
_atom_site_fract_x 
_atom_site_fract_y
_atom_site_fract_z
_atom_site_charge
Zn Zn 0.122233 0.184249 0.385968 0.90689
Zn Zn 0.131341 0.179597 0.433633 0.90689
Zn Zn 0.378619 0.313207 0.128991 0.90689
Zn Zn 0.372363 0.314361 0.177209 0.90689
H_ H_ 0.303393 0.190624 0.447237 0.11455
H_ H_ 0.369551 0.170396 0.34864 0.11455
H_ H_ 0.277101 0.181859 0.357439 0.11455
H_ H_ 0.390742 0.189124 0.467157 0.11455
H_ H_ 0.480937 0.18279 0.461434 0.11455
H_ H_ 0.459909 0.174983 0.368929 0.11455
H_ H_ 0.11993 0.0119064 0.44851 0.11455
H_ H_ 0.120805 0.431237 0.348406 0.11455
H_ H_ 0.167634 0.0251285 0.362374 0.11455
H_ H_ 0.121751 0.423959 0.467554 0.11455
H_ H_ 0.109152 0.335702 0.461535 0.11455
H_ H_ 0.112833 0.349023 0.37063 0.11455
H_ H_ 0.0689742 0.114798 0.47141 0.11455
H_ H_ 0.0591088 0.0738503 0.0146019 0.11455
H_ H_ 0.0993314 0.109302 0.0555494 0.11455
H_ H_ 0.197932 0.238231 0.472701 0.11455
H_ H_ 0.233163 0.281492 0.018593 0.11455
H_ H_ 0.214167 0.253713 0.0670452 0.11455
H_ H_ 0.0235887 0.21168 0.130762 0.11455
H_ H_ 0.0101081 0.181482 0.178159 0.11455
H_ H_ 0.273088 0.166997 0.142675 0.11455
H_ H_ 0.260649 0.135367 0.190458 0.11455
H_ H_ 0.105216 0.0616173 0.258101 0.11455
H_ H_ 0.0748378 0.0445569 0.306279 0.11455
H_ H_ 0.0805823 0.105315 0.345218 0.11455
H_ H_ 0.162779 0.235643 0.261563 0.11455
H_ H_ 0.189968 0.286499 0.305286 0.11455
H_ H_ 0.170901 0.258 0.35289 0.11455
H_ H_ 0.202555 0.295964 0.191451 0.11455
H_ H_ 0.132342 0.32647 0.0929696 0.11455
H_ H_ 0.225183 0.31745 0.101144 0.11455
H_ H_ 0.121769 0.301816 0.208605 0.11455
H_ H_ 0.0330251 0.318025 0.205756 0.11455
H_ H_ 0.0489848 0.311311 0.11355 0.11455
H_ H_ 0.404255 0.476608 0.187619 0.11455
H_ H_ 0.356822 0.0553434 0.0969187 0.11455
H_ H_ 0.330357 0.469042 0.105598 0.11455
H_ H_ 0.382536 0.0679152 0.212525 0.11455
H_ H_ 0.391429 0.158891 0.203832 0.11455
H_ H_ 0.356247 0.139261 0.115859 0.11455
H_ H_ 0.434835 0.386032 0.214362 0.11455
H_ H_ 0.447537 0.413235 0.263303 0.11455
H_ H_ 0.400855 0.370463 0.302163 0.11455
H_ H_ 0.310892 0.256999 0.215928 0.11455
H_ H_ 0.277286 0.19983 0.253239 0.11455
H_ H_ 0.293094 0.221263 0.303892 0.11455
H_ H_ 0.487259 0.281988 0.368698 0.11455
H_ H_ 0.501259 0.303305 0.419317 0.11455
H_ H_ 0.236992 0.304285 0.386781 0.11455
H_ H_ 0.247558 0.324638 0.436378 0.11455
H_ H_ 0.445092 0.412106 0.492925 0.11455
H_ H_ 0.424389 0.453786 0.0507021 0.11455
H_ H_ 0.414128 0.387856 0.0886545 0.11455
H_ H_ 0.34303 0.258458 0.00494404 0.11455
H_ H_ 0.316395 0.203563 0.0423832 0.11455
H_ H_ 0.32304 0.233984 0.0924399 0.11455
C_ C_ 0.2285 0.190366 0.408354 0.68181
C_ C_ 0.285673 0.19002 0.402966 -0.05681
C_ C_ 0.320678 0.188495 0.426317 -0.08735
C_ C_ 0.373467 0.183884 0.422081 -0.05681
C_ C_ 0.39192 0.177912 0.393602 -0.05681
C_ C_ 0.356212 0.176385 0.370245 -0.08735
C_ C_ 0.303237 0.183892 0.37533 -0.08735
C_ C_ 0.405359 0.184333 0.446086 -0.08735
C_ C_ 0.456788 0.177142 0.441739 -0.08735
C_ C_ 0.477528 0.173962 0.412812 -0.05681
C_ C_ 0.443368 0.173319 0.389501 -0.08735
C_ C_ 0.118055 0.279577 0.412586 0.68181
C_ C_ 0.130974 0.0829795 0.405697 0.68181
C_ C_ 0.130987 0.0265328 0.403284 -0.05681
C_ C_ 0.120978 0.49393 0.423293 -0.08735
C_ C_ 0.117015 0.442726 0.421767 -0.05681
C_ C_ 0.113929 0.419848 0.393767 -0.05681
C_ C_ 0.116375 0.450953 0.368731 -0.08735
C_ C_ 0.113682 0.502511 0.371647 -0.08735
C_ C_ 0.119893 0.410244 0.446051 -0.08735
C_ C_ 0.114887 0.358227 0.442167 -0.08735
C_ C_ 0.11225 0.334343 0.415335 -0.05681
C_ C_ 0.116414 0.365996 0.391614 -0.08735
C_ C_ 0.0299215 0.177804 0.407221 0.68181
C_ C_ 0.0852473 0.139187 0.487925 0.1947
C_ C_ 0.079982 0.108165 0.0123349 -0.08735
C_ C_ 0.106924 0.125942 0.0358493 -0.08735
C_ C_ 0.138238 0.169551 0.0327537 -0.05681
C_ C_ 0.147331 0.187148 1.00368517 0.18498
C_ C_ 0.185153 0.23715 0.494137 -0.08735
C_ C_ 0.208053 0.249641 0.0218838 -0.08735
C_ C_ 0.196406 0.233112 0.049423 -0.08735
C_ C_ 0.162086 0.19585 0.0562485 0.18498
C_ C_ 0.194975 0.171501 0.103262 0.44287
C_ C_ 0.10806 0.194007 0.099863 0.44287
C_ C_ 0.10041 0.181149 0.129011 -0.05681
C_ C_ 0.0542053 0.191411 0.141425 -0.08735
C_ C_ 0.0490449 0.179687 0.170332 -0.08735
C_ C_ 0.09017 0.168815 0.188814 -0.05681
C_ C_ 0.138491 0.170054 0.175167 -0.05681
C_ C_ 0.142665 0.166533 0.145733 -0.05681
C_ C_ 0.19104 0.163314 0.132495 -0.05681
C_ C_ 0.23427 0.159009 0.150313 -0.08735
C_ C_ 0.2284 0.149633 0.179007 -0.08735
C_ C_ 0.183088 0.158926 0.19244 -0.05681
C_ C_ 0.175914 0.14854 0.222383 0.44287
C_ C_ 0.0865047 0.160814 0.219261 0.44287
C_ C_ 0.121631 0.141741 0.265847 0.18498
C_ C_ 0.110928 0.0906337 0.273608 -0.08735
C_ C_ 0.0936744 0.078799 0.301901 -0.08735
C_ C_ 0.0898025 0.116731 0.322662 -0.08735
C_ C_ 0.116983 0.164022 0.315968 0.18498
C_ C_ 0.128234 0.177557 0.28736 -0.05681
C_ C_ 0.156406 0.222073 0.282728 -0.08735
C_ C_ 0.166809 0.254266 0.306944 -0.08735
C_ C_ 0.161143 0.235811 0.334 0.1947
C_ C_ 0.277358 0.305375 0.151687 0.68181
C_ C_ 0.221733 0.311392 0.147045 -0.05681
C_ C_ 0.188963 0.304442 0.169945 -0.08735
C_ C_ 0.137691 0.314041 0.165943 -0.05681
C_ C_ 0.116876 0.320955 0.13821 -0.05681
C_ C_ 0.148648 0.3265 0.115011 -0.08735
C_ C_ 0.200629 0.323249 0.119318 -0.08735
C_ C_ 0.106005 0.310187 0.188658 -0.08735
C_ C_ 0.0536175 0.322268 0.186023 -0.08735
C_ C_ 0.0311068 0.320391 0.158314 -0.05681
C_ C_ 0.0634393 0.320836 0.134211 -0.08735
C_ C_ 0.382012 0.214732 0.157182 0.68181
C_ C_ 0.364656 0.40959 0.149084 0.68181
C_ C_ 0.360963 0.465207 0.147517 -0.05681
C_ C_ 0.369222 -0.0010900000000000354 0.172068 -0.08735
C_ C_ 0.370339 0.0501727 0.168122 -0.05681
C_ C_ 0.365563 0.0695854 0.140971 -0.05681
C_ C_ 0.361492 0.0391415 0.117253 -0.08735
C_ C_ 0.334425 0.490216 0.12578 -0.08735
C_ C_ 0.382311 0.0819275 0.190625 -0.08735
C_ C_ 0.381237 0.134937 0.186404 -0.08735
C_ C_ 0.377159 0.156914 0.159492 -0.05681
C_ C_ 0.368403 0.123466 0.135782 -0.08735
C_ C_ 0.475487 0.322359 0.153153 0.68181
C_ C_ 0.410571 0.368238 0.230838 0.1947
C_ C_ 0.421394 0.38189 0.258982 -0.08735
C_ C_ 0.393689 0.356985 0.281087 -0.08735
C_ C_ 0.359434 0.317058 0.274799 -0.05681
C_ C_ 0.352264 0.303727 0.245419 0.18498
C_ C_ 0.316878 0.265396 0.237864 -0.08735
C_ C_ 0.298223 0.233717 0.26034 -0.08735
C_ C_ 0.308169 0.245491 0.288913 -0.08735
C_ C_ 0.340284 0.285131 0.297344 0.18498
C_ C_ 0.310723 0.309225 0.344517 0.44287
C_ C_ 0.397414 0.29384 0.338668 0.44287
C_ C_ 0.405995 0.300999 0.368149 -0.05681
C_ C_ 0.454858 0.297758 0.380694 -0.08735
C_ C_ 0.464996 0.309656 0.409924 -0.08735
C_ C_ 0.422119 0.316985 0.427926 -0.05681
C_ C_ 0.373055 0.320637 0.416161 -0.05681
C_ C_ 0.366412 0.310818 0.386557 -0.05681
C_ C_ 0.317801 0.315213 0.374337 -0.05681
C_ C_ 0.276794 0.314704 0.394219 -0.08735
C_ C_ 0.283115 0.321433 0.422768 -0.08735
C_ C_ 0.331973 0.325968 0.43467 -0.05681
C_ C_ 0.340378 0.333267 0.464688 0.44287
C_ C_ 0.429889 0.322614 0.457851 0.44287
C_ C_ 0.382632 0.353323 0.00877548 0.18498
C_ C_ 0.406134 0.398294 0.0166566 -0.08735
C_ C_ 0.413178 0.413327 0.044919 -0.08735
C_ C_ 0.404273 0.377416 0.0672142 -0.08735
C_ C_ 0.376324 0.333822 0.0613579 0.18498
C_ C_ 0.368149 0.320439 0.0314813 -0.05681
C_ C_ 0.350325 0.271154 0.0266565 -0.08735
C_ C_ 0.331559 0.240461 0.0478043 -0.08735
C_ C_ 0.34383 0.253604 0.0760233 0.1947
N_ N_ 0.119835 0.174483 0.481623 -0.29468
N_ N_ 0.152975 0.183711 0.08661 -0.17154
N_ N_ 0.12848 0.15168 0.235428 -0.17154
N_ N_ 0.130107 0.193827 0.338425 -0.29468
N_ N_ 0.378906 0.328587 0.224739 -0.29468
N_ N_ 0.348406 0.293112 0.328165 -0.17154
N_ N_ 0.388649 0.333302 0.47517 -0.17154
N_ N_ 0.367068 0.297654 0.0826355 -0.29468
O_ O_ 0.212896 0.180602 0.433526 -0.58347
O_ O_ 0.199226 0.197464 0.388353 -0.58347
O_ O_ 0.132857 0.254771 0.434448 -0.58347
O_ O_ 0.105397 0.258459 0.389563 -0.58347
O_ O_ 0.127807 0.103727 0.430488 -0.58347
O_ O_ 0.138625 0.111847 0.383721 -0.58347
O_ O_ 0.0572687 0.182319 0.429822 -0.58347
O_ O_ 0.0511882 0.166991 0.38319 -0.58347
O_ O_ 0.0708227 0.217994 0.086749 -0.46727
O_ O_ 0.239686 0.172385 0.0921068 -0.46727
O_ O_ 0.0414757 0.164645 0.232657 -0.46727
O_ O_ 0.215356 0.133616 0.236864 -0.46727
O_ O_ 0.295481 0.322695 0.17507 -0.58347
O_ O_ 0.305107 0.301005 0.129608 -0.58347
O_ O_ 0.364889 0.240354 0.177915 -0.58347
O_ O_ 0.387247 0.236723 0.132729 -0.58347
O_ O_ 0.375495 0.388953 0.172092 -0.58347
O_ O_ 0.359947 0.383701 0.12641 -0.58347
O_ O_ 0.447668 0.320395 0.174664 -0.58347
O_ O_ 0.45551 0.320411 0.128578 -0.58347
O_ O_ 0.433614 0.272691 0.322945 -0.46727
O_ O_ 0.263704 0.310197 0.335179 -0.46727
O_ O_ 0.475483 0.317724 0.468465 -0.46727
O_ O_ 0.302766 0.33516 0.483523 -0.46727
Zn Zn 0.121195 0.179714 0.88421 0.90689
Zn Zn 0.12937 0.176522 0.932109 0.90689
Zn Zn 0.379959 0.318027 0.629266 0.90689
Zn Zn 0.370082 0.322322 0.678348 0.90689
H_ H_ 0.298304 0.189663 0.951196 0.11455
H_ H_ 0.367658 0.191007 0.851405 0.11455
H_ H_ 0.274504 0.185733 0.86077 0.11455
H_ H_ 0.388296 0.169874 0.969628 0.11455
H_ H_ 0.480736 0.180759 0.96187 0.11455
H_ H_ 0.454864 0.180681 0.870515 0.11455
H_ H_ 0.166147 0.0134852 0.936765 0.11455
H_ H_ 0.150328 0.430274 0.848339 0.11455
H_ H_ 0.0944137 0.0254876 0.854214 0.11455
H_ H_ 0.0927576 0.424713 0.96442 0.11455
H_ H_ 0.102624 0.338756 0.961701 0.11455
H_ H_ 0.127541 0.351696 0.870026 0.11455
H_ H_ 0.0690195 0.109973 0.967546 0.11455
H_ H_ 0.0665923 0.0830468 0.520228 0.11455
H_ H_ 0.102245 0.135099 0.56115 0.11455
H_ H_ 0.186546 0.24378 0.976156 0.11455
H_ H_ 0.241629 0.288963 0.512182 0.11455
H_ H_ 0.211254 0.279459 0.561446 0.11455
H_ H_ 0.0139766 0.210267 0.623548 0.11455
H_ H_ -0.00180771 0.202985 0.674634 0.11455
H_ H_ 0.26589 0.170714 0.643443 0.11455
H_ H_ 0.247068 0.1615 0.694342 0.11455
H_ H_ 0.0774992 0.0895073 0.749897 0.11455
H_ H_ 0.053465 0.0627297 0.800699 0.11455
H_ H_ 0.0784841 0.117274 0.841539 0.11455
H_ H_ 0.138038 0.263592 0.764817 0.11455
H_ H_ 0.195947 0.289734 0.805786 0.11455
H_ H_ 0.171433 0.266556 0.851769 0.11455
H_ H_ 0.198189 0.307796 0.691871 0.11455
H_ H_ 0.140022 0.345998 0.594123 0.11455
H_ H_ 0.228663 0.333488 0.604455 0.11455
H_ H_ 0.10831 0.310391 0.70974 0.11455
H_ H_ 0.0203273 0.329647 0.70071 0.11455
H_ H_ 0.0476416 0.338851 0.610787 0.11455
H_ H_ 0.372577 0.488922 0.69336 0.11455
H_ H_ 0.317133 0.0728109 0.602582 0.11455
H_ H_ 0.372801 0.479819 0.600095 0.11455
H_ H_ 0.389477 0.074084 0.712418 0.11455
H_ H_ 0.406088 0.163088 0.706645 0.11455
H_ H_ 0.349783 0.151478 0.617372 0.11455
H_ H_ 0.428987 0.397478 0.714259 0.11455
H_ H_ 0.429889 0.438196 0.76323 0.11455
H_ H_ 0.394116 0.388605 0.804713 0.11455
H_ H_ 0.330366 0.254549 0.723347 0.11455
H_ H_ 0.270592 0.220029 0.761453 0.11455
H_ H_ 0.296286 0.240509 0.810169 0.11455
H_ H_ 0.48281 0.32552 0.872594 0.11455
H_ H_ 0.489037 0.320349 0.925807 0.11455
H_ H_ 0.229882 0.345173 0.884684 0.11455
H_ H_ 0.234324 0.348896 0.934606 0.11455
H_ H_ 0.418001 0.423437 -0.0011039999999999939 0.11455
H_ H_ 0.45983 0.436585 0.5437 0.11455
H_ H_ 0.409874 0.395349 0.582825 0.11455
H_ H_ 0.351367 0.254305 0.50358 0.11455
H_ H_ 0.307311 0.215054 0.545654 0.11455
H_ H_ 0.322254 0.24629 0.593837 0.11455
C_ C_ 0.223021 0.180349 0.909475 0.68181
C_ C_ 0.280937 0.178794 0.905588 -0.05681
C_ C_ 0.313665 0.178505 0.930448 -0.08735
C_ C_ 0.366951 0.181131 0.925314 -0.05681
C_ C_ 0.386685 0.180496 0.896695 -0.05681
C_ C_ 0.353054 0.184569 0.87434 -0.08735
C_ C_ 0.302425 0.183576 0.878152 -0.08735
C_ C_ 0.401354 0.180294 0.948051 -0.08735
C_ C_ 0.454927 0.187488 0.943903 -0.08735
C_ C_ 0.473885 0.188017 0.914992 -0.05681
C_ C_ 0.439715 0.181964 0.892061 -0.08735
C_ C_ 0.11485 0.277885 0.911847 0.68181
C_ C_ 0.125132 0.0835053 0.900153 0.68181
C_ C_ 0.124866 0.027462 0.898066 -0.05681
C_ C_ 0.117047 0.495143 0.923169 -0.08735
C_ C_ 0.110541 0.442026 0.920202 -0.05681
C_ C_ 0.123316 0.419052 0.893398 -0.05681
C_ C_ 0.137569 0.446588 0.869215 -0.08735
C_ C_ 0.137547 0.500797 0.872389 -0.08735
C_ C_ 0.102966 0.411481 0.943199 -0.08735
C_ C_ 0.109431 0.358435 0.941759 -0.08735
C_ C_ 0.11331 0.334756 0.914227 -0.05681
C_ C_ 0.11957 0.366379 0.88975 -0.08735
C_ C_ 0.023714 0.172087 0.911057 0.68181
C_ C_ 0.0895368 0.126016 0.984514 0.1947
C_ C_ 0.079335 0.121624 0.516008 -0.08735
C_ C_ 0.107578 0.145072 0.538161 -0.08735
C_ C_ 0.141753 0.185129 0.532426 -0.05681
C_ C_ 0.146785 0.199582 0.502949 0.18498
C_ C_ 0.180563 0.227451 0.998742 -0.08735
C_ C_ 0.209244 0.263505 0.517078 -0.08735
C_ C_ 0.196824 0.254958 0.545519 -0.08735
C_ C_ 0.163765 0.215713 0.554119 0.18498
C_ C_ 0.193135 0.193575 0.602177 0.44287
C_ C_ 0.108709 0.218559 0.597626 0.44287
C_ C_ 0.095308 0.198309 0.625414 -0.05681
C_ C_ 0.0469229 0.206569 0.637043 -0.08735
C_ C_ 0.0387135 0.200187 0.667494 -0.08735
C_ C_ 0.0780762 0.183997 0.685814 -0.05681
C_ C_ 0.126371 0.178116 0.673659 -0.05681
C_ C_ 0.135191 0.186088 0.643621 -0.05681
C_ C_ 0.186826 0.183616 0.632124 -0.05681
C_ C_ 0.227983 0.17558 0.650129 -0.08735
C_ C_ 0.218601 0.163355 0.678893 -0.08735
C_ C_ 0.168189 0.163838 0.691106 -0.05681
C_ C_ 0.15847 0.159123 0.721076 0.44287
C_ C_ 0.0734426 0.182656 0.716095 0.44287
C_ C_ 0.104132 0.159791 0.762553 0.18498
C_ C_ 0.0886434 0.10959 0.768861 -0.08735
C_ C_ 0.0788801 0.094567 0.797155 -0.08735
C_ C_ 0.0851895 0.127713 0.81986 -0.08735
C_ C_ 0.114308 0.172092 0.815399 0.18498
C_ C_ 0.121323 0.189403 0.78604 -0.05681
C_ C_ 0.142553 0.239791 0.783889 -0.08735
C_ C_ 0.170809 0.258101 0.806979 -0.08735
C_ C_ 0.159274 0.242812 0.834298 0.1947
C_ C_ 0.275427 0.314036 0.653989 0.68181
C_ C_ 0.218714 0.319055 0.649088 -0.05681
C_ C_ 0.183862 0.318875 0.670568 -0.08735
C_ C_ 0.129803 0.322699 0.665906 -0.05681
C_ C_ 0.113271 0.332409 0.637636 -0.05681
C_ C_ 0.149548 0.334236 0.615118 -0.08735
C_ C_ 0.202148 0.333733 0.621525 -0.08735
C_ C_ 0.0951929 0.320252 0.688544 -0.08735
C_ C_ 0.0447863 0.327953 0.683869 -0.08735
C_ C_ 0.026982 0.331968 0.654865 -0.05681
C_ C_ 0.060348 0.333677 0.632282 -0.08735
C_ C_ 0.37909 0.221508 0.658893 0.68181
C_ C_ 0.366903 0.419874 0.649067 0.68181
C_ C_ 0.36653 0.477016 0.646939 -0.05681
C_ C_ 0.367493 0.00853251 0.670117 -0.08735
C_ C_ 0.366775 0.0600743 0.668277 -0.05681
C_ C_ 0.357991 0.0823546 0.640754 -0.05681
C_ C_ 0.338547 0.0528587 0.618183 -0.08735
C_ C_ 0.370209 0.501222 0.62015 -0.08735
C_ C_ 0.383219 0.0905195 0.691213 -0.08735
C_ C_ 0.389094 0.141682 0.687935 -0.08735
C_ C_ 0.380654 0.164954 0.660537 -0.05681
C_ C_ 0.362136 0.135195 0.637835 -0.08735
C_ C_ 0.474434 0.325368 0.653083 0.68181
C_ C_ 0.406637 0.382524 0.731603 0.1947
C_ C_ 0.41664 0.399761 0.759938 -0.08735
C_ C_ 0.393155 0.375837 0.782633 -0.08735
C_ C_ 0.363728 0.332993 0.776737 -0.05681
C_ C_ 0.357286 0.313621 0.748721 0.18498
C_ C_ 0.322099 0.274961 0.743085 -0.08735
C_ C_ 0.29853 0.250435 0.766171 -0.08735
C_ C_ 0.310835 0.261384 0.794192 -0.08735
C_ C_ 0.338939 0.304014 0.800045 0.18498
C_ C_ 0.307412 0.326711 0.84583 0.44287
C_ C_ 0.394371 0.309447 0.843239 0.44287
C_ C_ 0.400283 0.319998 0.872866 -0.05681
C_ C_ 0.446977 0.321498 0.88669 -0.08735
C_ C_ 0.451104 0.317365 0.916371 -0.08735
C_ C_ 0.407808 0.318599 0.932701 -0.05681
C_ C_ 0.360769 0.327111 0.919767 -0.05681
C_ C_ 0.357286 0.323617 0.889108 -0.05681
C_ C_ 0.309307 0.327328 0.875713 -0.05681
C_ C_ 0.266369 0.339183 0.89347 -0.08735
C_ C_ 0.269736 0.33652 0.922875 -0.08735
C_ C_ 0.31771 0.335083 0.937249 -0.05681
C_ C_ 0.324557 0.343681 0.967234 0.44287
C_ C_ 0.411798 0.322562 0.962221 0.44287
C_ C_ 0.401003 0.344572 0.504742 0.18498
C_ C_ 0.432375 0.387123 0.510877 -0.08735
C_ C_ 0.441844 0.400776 0.539458 -0.08735
C_ C_ 0.413038 0.379383 0.561828 -0.08735
C_ C_ 0.386218 0.33511 0.55723 0.18498
C_ C_ 0.379427 0.317588 0.527997 -0.05681
C_ C_ 0.354418 0.272239 0.524969 -0.08735
C_ C_ 0.334229 0.24557 0.548727 -0.08735
C_ C_ 0.339354 0.264922 0.575989 0.1947
N_ N_ 0.123322 0.165877 0.981106 -0.29468
N_ N_ 0.153656 0.205631 0.584775 -0.17154
N_ N_ 0.114551 0.172112 0.732926 -0.17154
N_ N_ 0.127574 0.201756 0.838549 -0.29468
N_ N_ 0.377774 0.340808 0.726617 -0.29468
N_ N_ 0.348828 0.314762 0.829746 -0.17154
N_ N_ 0.37142 0.339818 0.979041 -0.17154
N_ N_ 0.368098 0.306351 0.58039 -0.29468
O_ O_ 0.203467 0.16573 0.932997 -0.58347
O_ O_ 0.194935 0.191182 0.887915 -0.58347
O_ O_ 0.134878 0.252091 0.93201 -0.58347
O_ O_ 0.101355 0.255141 0.889182 -0.58347
O_ O_ 0.123938 0.101566 0.924723 -0.58347
O_ O_ 0.139628 0.109926 0.879341 -0.58347
O_ O_ 0.0536851 0.182619 0.931848 -0.58347
O_ O_ 0.043944 0.163645 0.887226 -0.58347
O_ O_ 0.0713578 0.237665 0.581473 -0.46727
O_ O_ 0.238277 0.185126 0.590686 -0.46727
O_ O_ 0.0278875 0.186922 0.728554 -0.46727
O_ O_ 0.192351 0.137453 0.737477 -0.46727
O_ O_ 0.294441 0.322228 0.678628 -0.58347
O_ O_ 0.30356 0.314455 0.632265 -0.58347
O_ O_ 0.378618 0.247688 0.681209 -0.58347
O_ O_ 0.375341 0.243077 0.635324 -0.58347
O_ O_ 0.36309 0.398589 0.67399 -0.58347
O_ O_ 0.37414 0.394013 0.625452 -0.58347
O_ O_ 0.444741 0.330166 0.67427 -0.58347
O_ O_ 0.456778 0.315539 0.629137 -0.58347
O_ O_ 0.435166 0.301889 0.826995 -0.46727
O_ O_ 0.262177 0.336966 0.833401 -0.46727
O_ O_ 0.455251 0.308203 0.9743 -0.46727
O_ O_ 0.284829 0.351805 0.98327 -0.46727
Zn Zn 0.123448 0.683557 0.383229 0.90689
Zn Zn 0.13675 0.67896 0.431163 0.90689
Zn Zn 0.36223 0.806265 0.13659 0.90689
Zn Zn 0.360692 0.815764 0.18413 0.90689
H_ H_ 0.302893 0.690196 0.44549 0.11455
H_ H_ 0.369376 0.660957 0.346335 0.11455
H_ H_ 0.276626 0.663293 0.355385 0.11455
H_ H_ 0.394397 0.675703 0.464424 0.11455
H_ H_ 0.484108 0.667222 0.454692 0.11455
H_ H_ 0.455119 0.679913 0.364718 0.11455
H_ H_ 0.115489 0.512975 0.443944 0.11455
H_ H_ 0.169197 0.936792 0.355832 0.11455
H_ H_ 0.118039 0.525503 0.352978 0.11455
H_ H_ 0.104248 0.928822 0.468381 0.11455
H_ H_ 0.11947 0.837934 0.464075 0.11455
H_ H_ 0.167501 0.850137 0.376942 0.11455
H_ H_ 0.0877887 0.595706 0.468069 0.11455
H_ H_ 0.0722097 0.567356 0.00892697 0.11455
H_ H_ 0.104512 0.616237 0.0528261 0.11455
H_ H_ 0.207184 0.73245 0.473097 0.11455
H_ H_ 0.212585 0.799662 0.0179493 0.11455
H_ H_ 0.17625 0.780839 0.0654228 0.11455
H_ H_ 0.00374999999999992 0.706868 0.13023 0.11455
H_ H_ -0.0037850000000000383 0.67557 0.178958 0.11455
H_ H_ 0.251127 0.654608 0.13437 0.11455
H_ H_ 0.247214 0.647931 0.188674 0.11455
H_ H_ 0.0603628 0.584743 0.255393 0.11455
H_ H_ 0.0350877 0.574601 0.303706 0.11455
H_ H_ 0.0648645 0.6318 0.341897 0.11455
H_ H_ 0.168209 0.738407 0.257284 0.11455
H_ H_ 0.186434 0.797266 0.298065 0.11455
H_ H_ 0.178794 0.763149 0.349887 0.11455
H_ H_ 0.185585 0.816343 0.203136 0.11455
H_ H_ 0.127792 0.838646 0.103245 0.11455
H_ H_ 0.21605 0.829507 0.112085 0.11455
H_ H_ 0.0978363 0.816578 0.218779 0.11455
H_ H_ 0.00543854 0.826608 0.211298 0.11455
H_ H_ 0.0388612 0.810145 0.119796 0.11455
H_ H_ 0.391347 0.984343 0.189653 0.11455
H_ H_ 0.309718 0.560138 0.10912 0.11455
H_ H_ 0.354997 0.961559 0.101281 0.11455
H_ H_ 0.404357 0.554456 0.21436 0.11455
H_ H_ 0.404067 0.650906 0.213006 0.11455
H_ H_ 0.333562 0.642886 0.129344 0.11455
H_ H_ 0.406759 0.893615 0.220495 0.11455
H_ H_ 0.405223 0.924337 0.270113 0.11455
H_ H_ 0.378085 0.865478 0.312067 0.11455
H_ H_ 0.299538 0.742973 0.227697 0.11455
H_ H_ 0.280568 0.685342 0.264357 0.11455
H_ H_ 0.317785 0.698657 0.315437 0.11455
H_ H_ 0.493448 0.763892 0.380856 0.11455
H_ H_ 0.495968 0.781608 0.433298 0.11455
H_ H_ 0.248984 0.839842 0.385784 0.11455
H_ H_ 0.254657 0.848401 0.437082 0.11455
H_ H_ 0.423614 0.909422 0.5014 0.11455
H_ H_ 0.467482 0.907151 0.0507581 0.11455
H_ H_ 0.428726 0.859097 0.0928713 0.11455
H_ H_ 0.331614 0.743366 0.0111183 0.11455
H_ H_ 0.294084 0.698194 0.0534647 0.11455
H_ H_ 0.301943 0.733243 0.100013 0.11455
C_ C_ 0.230022 0.68421 0.406134 0.68181
C_ C_ 0.285042 0.678349 0.401901 -0.05681
C_ C_ 0.318425 0.67735 0.425483 -0.08735
C_ C_ 0.37207 0.673505 0.419175 -0.05681
C_ C_ 0.387597 0.668279 0.390819 -0.05681
C_ C_ 0.355602 0.668571 0.36793 -0.08735
C_ C_ 0.303316 0.671585 0.373464 -0.08735
C_ C_ 0.406979 0.670154 0.441953 -0.08735
C_ C_ 0.457577 0.662785 0.436579 -0.08735
C_ C_ 0.475325 0.666611 0.408178 -0.05681
C_ C_ 0.440663 0.66882 0.384969 -0.08735
C_ C_ 0.133845 0.778551 0.416334 0.68181
C_ C_ 0.122881 0.581083 0.401399 0.68181
C_ C_ 0.12048 0.52434 0.398553 -0.05681
C_ C_ 0.125209 0.994414 0.427412 -0.08735
C_ C_ 0.125988 0.942098 0.424583 -0.05681
C_ C_ 0.140925 0.918527 0.398304 -0.05681
C_ C_ 0.153607 0.951469 0.375245 -0.08735
C_ C_ 0.149048 1.00279844 0.378252 -0.08735
C_ C_ 0.123121 0.913272 0.4483 -0.08735
C_ C_ 0.125374 0.858486 0.445345 -0.08735
C_ C_ 0.138352 0.834934 0.418927 -0.05681
C_ C_ 0.14834 0.86566 0.395742 -0.08735
C_ C_ 0.0343259 0.676147 0.408207 0.68181
C_ C_ 0.102164 0.621717 0.484654 0.1947
C_ C_ 0.0942908 0.602156 0.00790955 -0.08735
C_ C_ 0.106731 0.631965 0.0326046 -0.08735
C_ C_ 0.132523 0.678903 0.0292748 -0.05681
C_ C_ 0.145676 0.693347 1.00168378 0.18498
C_ C_ 0.184684 0.730645 0.493588 -0.08735
C_ C_ 0.187008 0.766961 0.0209913 -0.08735
C_ C_ 0.16729 0.757146 0.0477642 -0.08735
C_ C_ 0.147355 0.707866 0.0537527 0.18498
C_ C_ 0.172914 0.667044 0.0994297 0.44287
C_ C_ 0.0900176 0.698619 0.09628 0.44287
C_ C_ 0.0821041 0.684656 0.126591 -0.05681
C_ C_ 0.0353178 0.689045 0.140568 -0.08735
C_ C_ 0.0317286 0.68578 0.170262 -0.08735
C_ C_ 0.074455 0.677538 0.186973 -0.05681
C_ C_ 0.121554 0.669904 0.173944 -0.05681
C_ C_ 0.125519 0.676222 0.143684 -0.05681
C_ C_ 0.171318 0.668962 0.129585 -0.05681
C_ C_ 0.214394 0.655588 0.146002 -0.08735
C_ C_ 0.211584 0.647891 0.175931 -0.08735
C_ C_ 0.166063 0.659292 0.190078 -0.05681
C_ C_ 0.158101 0.65039 0.219666 0.44287
C_ C_ 0.0712792 0.673427 0.217531 0.44287
C_ C_ 0.108783 0.649656 0.263551 0.18498
C_ C_ 0.078732 0.609754 0.271466 -0.08735
C_ C_ 0.0591592 0.608548 0.299125 -0.08735
C_ C_ 0.0771816 0.638295 0.320584 -0.08735
C_ C_ 0.112413 0.673932 0.314349 0.18498
C_ C_ 0.126971 0.683063 0.285786 -0.05681
C_ C_ 0.159923 0.726378 0.279789 -0.08735
C_ C_ 0.173873 0.758119 0.303054 -0.08735
C_ C_ 0.162701 0.7432 0.332104 0.1947
C_ C_ 0.262 0.809821 0.161004 0.68181
C_ C_ 0.206191 0.81494 0.156472 -0.05681
C_ C_ 0.172481 0.815515 0.179608 -0.08735
C_ C_ 0.120567 0.818766 0.174616 -0.05681
C_ C_ 0.102161 0.82645 0.146042 -0.05681
C_ C_ 0.137942 0.831448 0.124581 -0.08735
C_ C_ 0.189277 0.822484 0.129595 -0.08735
C_ C_ 0.0854586 0.818347 0.197446 -0.08735
C_ C_ 0.033661 0.822775 0.192084 -0.08735
C_ C_ 0.0136901 0.818405 0.163277 -0.05681
C_ C_ 0.0494185 0.822199 0.140232 -0.08735
C_ C_ 0.368742 0.712197 0.166726 0.68181
C_ C_ 0.355373 0.91047 0.151709 0.68181
C_ C_ 0.362657 0.966717 0.14807 -0.05681
C_ C_ 0.377452 0.494943 0.172246 -0.08735
C_ C_ 0.369867 0.547738 0.173084 -0.05681
C_ C_ 0.346724 0.570766 0.15054 -0.05681
C_ C_ 0.331233 0.540501 0.125639 -0.08735
C_ C_ 0.362816 -0.012871999999999995 0.12105 -0.08735
C_ C_ 0.386971 0.575606 0.19649 -0.08735
C_ C_ 0.38639 0.629064 0.19569 -0.08735
C_ C_ 0.367936 0.655684 0.170546 -0.05681
C_ C_ 0.34478 0.625992 0.149217 -0.08735
C_ C_ 0.459111 0.812331 0.163943 0.68181
C_ C_ 0.39021 0.868781 0.238184 0.1947
C_ C_ 0.389048 0.886028 0.266537 -0.08735
C_ C_ 0.37258 0.855204 0.289717 -0.08735
C_ C_ 0.359877 0.804195 0.282807 -0.05681
C_ C_ 0.348188 0.792286 0.25406 0.18498
C_ C_ 0.316487 0.749992 0.249001 -0.08735
C_ C_ 0.304391 0.716065 0.271854 -0.08735
C_ C_ 0.327892 0.724504 0.298546 -0.08735
C_ C_ 0.350944 0.770292 0.304847 0.18498
C_ C_ 0.317147 0.799012 0.350038 0.44287
C_ C_ 0.406229 0.777398 0.347012 0.44287
C_ C_ 0.41437 0.789619 0.376212 -0.05681
C_ C_ 0.460807 0.783209 0.391024 -0.08735
C_ C_ 0.463413 0.793646 0.421091 -0.08735
C_ C_ 0.421688 0.804539 0.438099 -0.05681
C_ C_ 0.375988 0.814416 0.423596 -0.05681
C_ C_ 0.372309 0.807588 0.392224 -0.05681
C_ C_ 0.324585 0.811972 0.379112 -0.05681
C_ C_ 0.28355 0.829506 0.396397 -0.08735
C_ C_ 0.289594 0.840624 0.425856 -0.08735
C_ C_ 0.334304 0.827727 0.439762 -0.05681
C_ C_ 0.338449 0.829833 0.469937 0.44287
C_ C_ 0.423738 0.807155 0.467985 0.44287
C_ C_ 0.383705 0.831683 0.0131285 0.18498
C_ C_ 0.413525 0.874165 0.0204225 -0.08735
C_ C_ 0.433231 0.881964 0.0484558 -0.08735
C_ C_ 0.411593 0.855447 0.0710822 -0.08735
C_ C_ 0.375951 0.815805 0.0660723 0.18498
C_ C_ 0.364429 0.801406 0.0370737 -0.05681
C_ C_ 0.336384 0.757697 0.0326015 -0.08735
C_ C_ 0.317002 0.731831 0.0559931 -0.08735
C_ C_ 0.320574 0.751999 0.0828609 0.1947
N_ N_ 0.131566 0.661974 0.478856 -0.29468
N_ N_ 0.136577 0.692549 0.0832762 -0.17154
N_ N_ 0.11331 0.660596 0.232683 -0.17154
N_ N_ 0.130957 0.703194 0.337451 -0.29468
N_ N_ 0.363712 0.824791 0.231824 -0.29468
N_ N_ 0.357973 0.782383 0.334688 -0.17154
N_ N_ 0.383625 0.820462 0.483613 -0.17154
N_ N_ 0.353205 0.791719 0.0890722 -0.29468
O_ O_ 0.21253 0.682656 0.431943 -0.58347
O_ O_ 0.200749 0.6821 0.384855 -0.58347
O_ O_ 0.133466 0.752261 0.439012 -0.58347
O_ O_ 0.13234 0.757947 0.391604 -0.58347
O_ O_ 0.141048 0.602433 0.423512 -0.58347
O_ O_ 0.119361 0.607961 0.37906 -0.58347
O_ O_ 0.0630775 0.669151 0.428697 -0.58347
O_ O_ 0.051335 0.687758 0.383325 -0.58347
O_ O_ 0.0518706 0.717721 0.0815316 -0.46727
O_ O_ 0.217853 0.654235 0.0880935 -0.46727
O_ O_ 0.0269099 0.680792 0.230173 -0.46727
O_ O_ 0.197045 0.631669 0.234772 -0.46727
O_ O_ 0.28371 0.813955 0.184851 -0.58347
O_ O_ 0.28842 0.800958 0.139166 -0.58347
O_ O_ 0.365725 0.741447 0.188826 -0.58347
O_ O_ 0.361219 0.730987 0.141274 -0.58347
O_ O_ 0.352272 0.893156 0.177258 -0.58347
O_ O_ 0.363889 0.880874 0.13084 -0.58347
O_ O_ 0.433034 0.825554 0.184005 -0.58347
O_ O_ 0.437629 0.800928 0.139556 -0.58347
O_ O_ 0.443636 0.766843 0.330359 -0.46727
O_ O_ 0.271492 0.799238 0.339734 -0.46727
O_ O_ 0.468862 0.800076 0.480363 -0.46727
O_ O_ 0.298939 0.843067 0.485263 -0.46727
Zn Zn 0.122665 0.685163 0.882034 0.90689
Zn Zn 0.131476 0.677292 0.930887 0.90689
Zn Zn 0.380381 0.817134 0.634307 0.90689
Zn Zn 0.368539 0.82464 0.681122 0.90689
H_ H_ 0.300657 0.662288 0.944483 0.11455
H_ H_ 0.36584 0.692211 0.846652 0.11455
H_ H_ 0.275948 0.680237 0.854083 0.11455
H_ H_ 0.39034 0.673304 0.960654 0.11455
H_ H_ 0.480962 0.68172 0.953449 0.11455
H_ H_ 0.451532 0.689114 0.862212 0.11455
H_ H_ 0.115791 0.510417 0.944482 0.11455
H_ H_ 0.104567 0.937353 0.848336 0.11455
H_ H_ 0.149367 0.524334 0.854501 0.11455
H_ H_ 0.153926 0.929093 0.96306 0.11455
H_ H_ 0.141113 0.837623 0.960201 0.11455
H_ H_ 0.106927 0.852193 0.86953 0.11455
H_ H_ 0.0816879 0.603113 0.962808 0.11455
H_ H_ 0.0795389 0.566877 0.51834 0.11455
H_ H_ 0.0970848 0.627342 0.556447 0.11455
H_ H_ 0.18766 0.745981 0.976897 0.11455
H_ H_ 0.222905 0.796595 0.510983 0.11455
H_ H_ 0.185214 0.787148 0.560353 0.11455
H_ H_ 1.00025477 0.709386 0.621109 0.11455
H_ H_ 0.989338 0.693262 0.672407 0.11455
H_ H_ 0.252263 0.67971 0.638614 0.11455
H_ H_ 0.239337 0.666207 0.691072 0.11455
H_ H_ 0.0634467 0.586745 0.750428 0.11455
H_ H_ 0.0202981 0.577328 0.798641 0.11455
H_ H_ 0.053714 0.630536 0.839865 0.11455
H_ H_ 0.154446 0.742692 0.758012 0.11455
H_ H_ 0.19502 0.786639 0.797924 0.11455
H_ H_ 0.188539 0.749452 0.846399 0.11455
H_ H_ 0.197959 0.807318 0.696023 0.11455
H_ H_ 0.137703 0.83661 0.598496 0.11455
H_ H_ 0.227618 0.811543 0.605923 0.11455
H_ H_ 0.112133 0.806191 0.712242 0.11455
H_ H_ 0.0221974 0.804074 0.705834 0.11455
H_ H_ 0.0456561 0.826318 0.615695 0.11455
H_ H_ 0.36124 0.993053 0.691054 0.11455
H_ H_ 0.376484 0.572007 0.599265 0.11455
H_ H_ 0.318199 0.978193 0.605807 0.11455
H_ H_ 0.348167 0.574644 0.716415 0.11455
H_ H_ 0.360058 0.666885 0.711389 0.11455
H_ H_ 0.389571 0.652838 0.622791 0.11455
H_ H_ 0.431628 0.892611 0.720644 0.11455
H_ H_ 0.441188 0.920486 0.769675 0.11455
H_ H_ 0.396643 0.881051 0.807707 0.11455
H_ H_ 0.305282 0.760275 0.722691 0.11455
H_ H_ 0.267823 0.712034 0.762505 0.11455
H_ H_ 0.284128 0.734028 0.811712 0.11455
H_ H_ 0.478263 0.800375 0.873409 0.11455
H_ H_ 0.492607 0.809804 0.925229 0.11455
H_ H_ 0.227414 0.827566 0.890081 0.11455
H_ H_ 0.236081 0.829945 0.941976 0.11455
H_ H_ 0.425972 0.898688 1.00306693 0.11455
H_ H_ 0.448145 0.931684 0.550282 0.11455
H_ H_ 0.428883 0.874166 0.591154 0.11455
H_ H_ 0.322383 0.755953 0.514738 0.11455
H_ H_ 0.300834 0.705532 0.555901 0.11455
H_ H_ 0.327794 0.731199 0.60368 0.11455
C_ C_ 0.225628 0.683127 0.906215 0.68181
C_ C_ 0.280648 0.68451 0.900624 -0.05681
C_ C_ 0.314961 0.674386 0.923611 -0.08735
C_ C_ 0.367273 0.672021 0.917642 -0.05681
C_ C_ 0.386425 0.679912 0.889753 -0.05681
C_ C_ 0.35123 0.686575 0.867203 -0.08735
C_ C_ 0.299614 0.688999 0.87241 -0.08735
C_ C_ 0.402862 0.673774 0.939722 -0.08735
C_ C_ 0.454849 0.680326 0.934125 -0.08735
C_ C_ 0.473327 0.688013 0.906311 -0.05681
C_ C_ 0.438263 0.684739 0.883961 -0.08735
C_ C_ 0.12225 0.781538 0.911019 0.68181
C_ C_ 0.133481 0.58141 0.899661 0.68181
C_ C_ 0.130108 0.52506 0.899441 -0.05681
C_ C_ 0.145955 0.997554 0.918486 -0.08735
C_ C_ 0.140382 0.943638 0.917949 -0.05681
C_ C_ 0.127815 0.920774 0.891545 -0.05681
C_ C_ 0.11427 0.952132 0.868408 -0.08735
C_ C_ 0.108845 0.00471716 0.872687 -0.08735
C_ C_ 0.146732 0.913472 0.943026 -0.08735
C_ C_ 0.136525 0.861268 0.941302 -0.08735
C_ C_ 0.126174 0.837409 0.914024 -0.05681
C_ C_ 0.119923 0.869947 0.890066 -0.08735
C_ C_ 0.0295041 0.679834 0.907677 0.68181
C_ C_ 0.100062 0.622491 0.980565 0.1947
C_ C_ 0.0977015 0.604227 0.512698 -0.08735
C_ C_ 0.109886 0.635187 0.534988 -0.08735
C_ C_ 0.139655 0.677839 0.529118 -0.05681
C_ C_ 0.152168 0.688709 0.500107 0.18498
C_ C_ 0.170984 0.737745 0.997826 -0.08735
C_ C_ 0.194401 0.766981 0.515259 -0.08735
C_ C_ 0.175327 0.761398 0.543378 -0.08735
C_ C_ 0.150237 0.714987 0.551722 0.18498
C_ C_ 0.181786 0.69854 0.60017 0.44287
C_ C_ 0.0934303 0.708904 0.593401 0.44287
C_ C_ 0.0839996 0.699121 0.623604 -0.05681
C_ C_ 0.0335196 0.700625 0.634586 -0.08735
C_ C_ 0.0271705 0.694848 0.664592 -0.08735
C_ C_ 0.0702193 0.688034 0.683106 -0.05681
C_ C_ 0.11805 0.683951 0.67073 -0.05681
C_ C_ 0.124851 0.690237 0.641194 -0.05681
C_ C_ 0.17442 0.686607 0.629835 -0.05681
C_ C_ 0.216746 0.683636 0.647974 -0.08735
C_ C_ 0.20621 0.676879 0.677519 -0.08735
C_ C_ 0.158427 0.677905 0.689211 -0.05681
C_ C_ 0.150819 0.673452 0.718553 0.44287
C_ C_ 0.0632915 0.679131 0.712836 0.44287
C_ C_ 0.0970831 0.660622 0.760655 0.18498
C_ C_ 0.0705284 0.614517 0.766963 -0.08735
C_ C_ 0.0504804 0.60508 0.795127 -0.08735
C_ C_ 0.0651041 0.637475 0.818468 -0.08735
C_ C_ 0.105091 0.674113 0.812975 0.18498
C_ C_ 0.11141 0.690395 0.784158 -0.05681
C_ C_ 0.141665 0.733447 0.780129 -0.08735
C_ C_ 0.170101 0.754495 0.802461 -0.08735
C_ C_ 0.166448 0.73233 0.828888 0.1947
C_ C_ 0.27504 0.811555 0.658031 0.68181
C_ C_ 0.219293 0.813072 0.652033 -0.05681
C_ C_ 0.185572 0.81722 0.674057 -0.08735
C_ C_ 0.134228 0.817735 0.66879 -0.05681
C_ C_ 0.116439 0.820832 0.64112 -0.05681
C_ C_ 0.150464 0.824051 0.618565 -0.08735
C_ C_ 0.201022 0.811194 0.623651 -0.08735
C_ C_ 0.0995516 0.811576 0.691391 -0.08735
C_ C_ 0.0464945 0.815068 0.688253 -0.08735
C_ C_ 0.0282728 0.821621 0.660022 -0.05681
C_ C_ 0.0624794 0.824926 0.636647 -0.08735
C_ C_ 0.38274 0.721513 0.664928 0.68181
C_ C_ 0.36248 0.918906 0.650365 0.68181
C_ C_ 0.355487 0.977086 0.64701 -0.05681
C_ C_ 0.364782 0.507497 0.673119 -0.08735
C_ C_ 0.363651 0.55981 0.670789 -0.05681
C_ C_ 0.369216 0.582164 0.644453 -0.05681
C_ C_ 0.370171 0.553236 0.61916 -0.08735
C_ C_ 0.339361 1.00033 0.621623 -0.08735
C_ C_ 0.358462 0.589521 0.695555 -0.08735
C_ C_ 0.369653 0.641123 0.694321 -0.08735
C_ C_ 0.377268 0.665526 0.667928 -0.05681
C_ C_ 0.380289 0.635357 0.642973 -0.08735
C_ C_ 0.47201 0.832468 0.658692 0.68181
C_ C_ 0.40638 0.877912 0.736393 0.1947
C_ C_ 0.411956 0.893966 0.763718 -0.08735
C_ C_ 0.384677 0.870553 0.786359 -0.08735
C_ C_ 0.353175 0.829354 0.780165 -0.05681
C_ C_ 0.346234 0.815082 0.750635 0.18498
C_ C_ 0.315119 0.770315 0.74474 -0.08735
C_ C_ 0.295492 0.743696 0.767252 -0.08735
C_ C_ 0.305606 0.753693 0.795528 -0.08735
C_ C_ 0.333708 0.795601 0.802291 0.18498
C_ C_ 0.30141 0.817359 0.850286 0.44287
C_ C_ 0.38977 0.804329 0.845101 0.44287
C_ C_ 0.396997 0.809849 0.875419 -0.05681
C_ C_ 0.446759 0.807587 0.887657 -0.08735
C_ C_ 0.452121 0.810074 0.916983 -0.08735
C_ C_ 0.410506 0.815096 0.935971 -0.05681
C_ C_ 0.361661 0.820611 0.9239 -0.05681
C_ C_ 0.355198 0.816353 0.892304 -0.05681
C_ C_ 0.306358 0.821598 0.880711 -0.05681
C_ C_ 0.264663 0.828726 0.898463 -0.08735
C_ C_ 0.270449 0.82856 0.928655 -0.08735
C_ C_ 0.318529 0.828626 0.941722 -0.05681
C_ C_ 0.324414 0.829189 0.971144 0.44287
C_ C_ 0.413144 0.807971 0.965278 0.44287
C_ C_ 0.389314 0.838285 0.512724 0.18498
C_ C_ 0.421916 0.879319 0.518169 -0.08735
C_ C_ 0.434627 0.892793 0.546199 -0.08735
C_ C_ 0.419063 0.86294 0.569147 -0.08735
C_ C_ 0.385358 0.824874 0.564757 0.18498
C_ C_ 0.37037 0.810324 0.536284 -0.05681
C_ C_ 0.33726 0.767179 0.53386 -0.08735
C_ C_ 0.324179 0.739183 0.558691 -0.08735
C_ C_ 0.340293 0.754769 0.585044 0.1947
N_ N_ 0.123918 0.668525 0.977558 -0.29468
N_ N_ 0.141814 0.705495 0.582697 -0.17154
N_ N_ 0.103639 0.676533 0.730358 -0.17154
N_ N_ 0.132637 0.695002 0.834555 -0.29468
N_ N_ 0.373822 0.83989 0.729188 -0.29468
N_ N_ 0.342097 0.805591 0.8329 -0.17154
N_ N_ 0.37158 0.821139 0.983231 -0.17154
N_ N_ 0.368584 0.79743 0.588306 -0.29468
O_ O_ 0.209143 0.688635 0.932564 -0.58347
O_ O_ 0.195164 0.679957 0.885436 -0.58347
O_ O_ 0.121367 0.753765 0.933117 -0.58347
O_ O_ 0.132343 0.761005 0.887643 -0.58347
O_ O_ 0.144671 0.602044 0.922183 -0.58347
O_ O_ 0.115444 0.606474 0.879767 -0.58347
O_ O_ 0.0576444 0.66656 0.92829 -0.58347
O_ O_ 0.0471935 0.690286 0.883297 -0.58347
O_ O_ 0.0545595 0.717097 0.576774 -0.46727
O_ O_ 0.229882 0.70351 0.590233 -0.46727
O_ O_ 0.0166801 0.682511 0.724099 -0.46727
O_ O_ 0.189874 0.667366 0.735684 -0.46727
O_ O_ 0.292666 0.828824 0.681498 -0.58347
O_ O_ 0.302849 0.805054 0.636537 -0.58347
O_ O_ 0.37276 0.74902 0.685887 -0.58347
O_ O_ 0.390514 0.73938 0.640101 -0.58347
O_ O_ 0.367066 0.89752 0.67476 -0.58347
O_ O_ 0.363419 0.891599 0.627839 -0.58347
O_ O_ 0.445507 0.825411 0.680651 -0.58347
O_ O_ 0.453487 0.827665 0.634351 -0.58347
O_ O_ 0.427304 0.795188 0.827433 -0.46727
O_ O_ 0.258103 0.823388 0.838779 -0.46727
O_ O_ 0.45827 0.804673 0.978359 -0.46727
O_ O_ 0.284384 0.831235 0.988296 -0.46727
Zn Zn 0.626947 0.186568 0.38078 0.90689
Zn Zn 0.636122 0.179013 0.42952 0.90689
Zn Zn 0.876958 0.31096 0.129418 0.90689
Zn Zn 0.871004 0.307202 0.177935 0.90689
H_ H_ 0.803368 0.204773 0.444577 0.11455
H_ H_ 0.866974 0.190261 0.344765 0.11455
H_ H_ 0.776881 0.186644 0.354422 0.11455
H_ H_ 0.883926 0.187413 0.463686 0.11455
H_ H_ 0.975619 0.181027 0.455719 0.11455
H_ H_ 0.958647 0.186999 0.364811 0.11455
H_ H_ 0.645495 0.0168404 0.446715 0.11455
H_ H_ 0.67482 0.432627 0.350339 0.11455
H_ H_ 0.645366 0.028037 0.351677 0.11455
H_ H_ 0.613658 0.436315 0.463602 0.11455
H_ H_ 0.60827 0.346058 0.460593 0.11455
H_ H_ 0.651001 0.349122 0.373385 0.11455
H_ H_ 0.59376 0.0976076 0.464411 0.11455
H_ H_ 0.599774 0.066696 0.0154668 0.11455
H_ H_ 0.623478 0.118503 0.0556087 0.11455
H_ H_ 0.694202 0.244551 0.470277 0.11455
H_ H_ 0.726206 0.30322 0.00891952 0.11455
H_ H_ 0.70254 0.288219 0.0593513 0.11455
H_ H_ 0.52536 0.209566 0.123579 0.11455
H_ H_ 0.516461 0.205699 0.174074 0.11455
H_ H_ 0.774441 0.168027 0.136517 0.11455
H_ H_ 0.765715 0.155341 0.187107 0.11455
H_ H_ 0.574936 0.0908254 0.247103 0.11455
H_ H_ 0.551236 0.0660284 0.297078 0.11455
H_ H_ 0.583803 0.12096 0.338277 0.11455
H_ H_ 0.675527 0.242696 0.254908 0.11455
H_ H_ 0.697055 0.294992 0.296423 0.11455
H_ H_ 0.676775 0.263017 0.346639 0.11455
H_ H_ 0.702912 0.311948 0.193413 0.11455
H_ H_ 0.636256 0.314182 0.0928977 0.11455
H_ H_ 0.725782 0.318335 0.1015 0.11455
H_ H_ 0.617643 0.322213 0.211926 0.11455
H_ H_ 0.522409 0.321633 0.205335 0.11455
H_ H_ 0.54565 0.323287 0.114519 0.11455
H_ H_ 0.876459 0.47671 0.189352 0.11455
H_ H_ 0.859398 0.0525898 0.0957099 0.11455
H_ H_ 0.860723 0.471972 0.0965753 0.11455
H_ H_ 0.843391 0.062806 0.213075 0.11455
H_ H_ 0.859357 0.153111 0.210399 0.11455
H_ H_ 0.866304 0.140688 0.119007 0.11455
H_ H_ 0.919066 0.391937 0.21206 0.11455
H_ H_ 0.943742 0.418021 0.261156 0.11455
H_ H_ 0.893616 0.381822 0.301661 0.11455
H_ H_ 0.817298 0.24505 0.222236 0.11455
H_ H_ 0.798728 0.19146 0.261304 0.11455
H_ H_ 0.809684 0.219439 0.311809 0.11455
H_ H_ 0.993439 0.306683 0.367725 0.11455
H_ H_ 0.0095925 0.31777 0.420838 0.11455
H_ H_ 0.746602 0.355654 0.384483 0.11455
H_ H_ 0.756111 0.360369 0.436907 0.11455
H_ H_ 0.942481 0.42622 0.497367 0.11455
H_ H_ 0.948265 0.441559 0.0447279 0.11455
H_ H_ 0.931585 0.38049 0.0837665 0.11455
H_ H_ 0.829867 0.262631 0.00443914 0.11455
H_ H_ 0.809689 0.207315 0.0440976 0.11455
H_ H_ 0.828208 0.232919 0.0924695 0.11455
C_ C_ 0.728157 0.19445 0.404589 0.68181
C_ C_ 0.783897 0.198282 0.399243 -0.05681
C_ C_ 0.817315 0.201817 0.422862 -0.08735
C_ C_ 0.868477 0.195981 0.418322 -0.05681
C_ C_ 0.888291 0.190434 0.389104 -0.05681
C_ C_ 0.854748 0.189835 0.366444 -0.08735
C_ C_ 0.80298 0.192328 0.371817 -0.08735
C_ C_ 0.900189 0.188009 0.441918 -0.08735
C_ C_ 0.952978 0.186168 0.438017 -0.08735
C_ C_ 0.974711 0.184086 0.410114 -0.05681
C_ C_ 0.941567 0.189289 0.385595 -0.08735
C_ C_ 0.627807 0.279461 0.412579 0.68181
C_ C_ 0.639315 0.0848447 0.399477 0.68181
C_ C_ 0.640402 0.0296113 0.397801 -0.05681
C_ C_ 0.631353 0.499593 0.421336 -0.08735
C_ C_ 0.634444 0.446336 0.420137 -0.05681
C_ C_ 0.648616 0.42082 0.394805 -0.05681
C_ C_ 0.665541 0.449787 0.371792 -0.08735
C_ C_ 0.659915 0.502752 0.372049 -0.08735
C_ C_ 0.624423 0.416433 0.443898 -0.08735
C_ C_ 0.626856 0.363108 0.442797 -0.08735
C_ C_ 0.635063 0.336316 0.417319 -0.05681
C_ C_ 0.644317 0.367068 0.392763 -0.08735
C_ C_ 0.534247 0.170291 0.407636 0.68181
C_ C_ 0.604052 0.123081 0.481624 0.1947
C_ C_ 0.614005 0.103348 0.0110444 -0.08735
C_ C_ 0.632611 0.131464 0.0341503 -0.08735
C_ C_ 0.650853 0.181112 0.0293597 -0.05681
C_ C_ 0.654244 0.197269 0.999957 0.18498
C_ C_ 0.685734 0.23488 0.492249 -0.08735
C_ C_ 0.700001 0.273212 0.0146957 -0.08735
C_ C_ 0.693205 0.259118 0.0429433 -0.08735
C_ C_ 0.667281 0.213882 0.0514272 0.18498
C_ C_ 0.702552 0.183618 0.0969262 0.44287
C_ C_ 0.613938 0.202684 0.0936216 0.44287
C_ C_ 0.606115 0.192423 0.122947 -0.05681
C_ C_ 0.558189 0.195456 0.135135 -0.08735
C_ C_ 0.551351 0.194249 0.165485 -0.08735
C_ C_ 0.594277 0.184034 0.183974 -0.05681
C_ C_ 0.641174 0.174606 0.170222 -0.05681
C_ C_ 0.64791 0.180127 0.140242 -0.05681
C_ C_ 0.697486 0.177836 0.127479 -0.05681
C_ C_ 0.738081 0.165115 0.14485 -0.08735
C_ C_ 0.731358 0.155168 0.174787 -0.08735
C_ C_ 0.683889 0.164327 0.18728 -0.05681
C_ C_ 0.677833 0.15706 0.216637 0.44287
C_ C_ 0.589883 0.182057 0.213485 0.44287
C_ C_ 0.621243 0.151767 0.259887 0.18498
C_ C_ 0.592347 0.108411 0.264702 -0.08735
C_ C_ 0.580275 0.0958859 0.293025 -0.08735
C_ C_ 0.593292 0.126966 0.315129 -0.08735
C_ C_ 0.623208 0.169649 0.310081 0.18498
C_ C_ 0.636191 0.182633 0.282184 -0.05681
C_ C_ 0.663448 0.230345 0.27716 -0.08735
C_ C_ 0.674503 0.260403 0.299518 -0.08735
C_ C_ 0.660958 0.244223 0.327674 0.1947
C_ C_ 0.777874 0.292508 0.152306 0.68181
C_ C_ 0.721522 0.303557 0.148454 -0.05681
C_ C_ 0.687735 0.310339 0.171576 -0.08735
C_ C_ 0.635081 0.314904 0.167276 -0.05681
C_ C_ 0.618493 0.319439 0.138229 -0.05681
C_ C_ 0.650827 0.321781 0.115681 -0.08735
C_ C_ 0.702215 0.313461 0.120181 -0.08735
C_ C_ 0.602799 0.321007 0.19051 -0.08735
C_ C_ 0.551452 0.328315 0.186567 -0.08735
C_ C_ 0.531876 0.324675 0.15827 -0.05681
C_ C_ 0.565894 0.324622 0.134603 -0.08735
C_ C_ 0.87245 0.211729 0.163181 0.68181
C_ C_ 0.868042 0.409281 0.144323 0.68181
C_ C_ 0.868029 0.466192 0.14336 -0.05681
C_ C_ 0.847025 -0.0034359999999999946 0.171145 -0.08735
C_ C_ 0.85015 0.0490892 0.16882 -0.05681
C_ C_ 0.858727 0.0712203 0.140959 -0.05681
C_ C_ 0.858332 0.0382717 0.116959 -0.08735
C_ C_ 0.861647 0.491058 0.117091 -0.08735
C_ C_ 0.853416 0.079911 0.192543 -0.08735
C_ C_ 0.859752 0.131415 0.190689 -0.08735
C_ C_ 0.872342 0.154761 0.164079 -0.05681
C_ C_ 0.871454 0.122414 0.139059 -0.08735
C_ C_ 0.97466 0.311653 0.155044 0.68181
C_ C_ 0.901916 0.372976 0.229363 0.1947
C_ C_ 0.912869 0.389691 0.257184 -0.08735
C_ C_ 0.894011 0.363583 0.279708 -0.08735
C_ C_ 0.866579 0.319399 0.276283 -0.05681
C_ C_ 0.861132 0.299911 0.248156 0.18498
C_ C_ 0.830327 0.25587 0.243502 -0.08735
C_ C_ 0.814095 0.228238 0.266907 -0.08735
C_ C_ 0.821664 0.243034 0.294227 -0.08735
C_ C_ 0.846596 0.291496 0.299316 0.18498
C_ C_ 0.812308 0.31915 0.346361 0.44287
C_ C_ 0.898695 0.295924 0.341916 0.44287
C_ C_ 0.910331 0.309762 0.370994 -0.05681
C_ C_ 0.960063 0.311155 0.382576 -0.08735
C_ C_ 0.967992 0.312916 0.412374 -0.08735
C_ C_ 0.925966 0.326738 0.430438 -0.05681
C_ C_ 0.87831 0.33553 0.418701 -0.05681
C_ C_ 0.870653 0.326003 0.388469 -0.05681
C_ C_ 0.822036 0.330611 0.375535 -0.05681
C_ C_ 0.783686 0.347458 0.394233 -0.08735
C_ C_ 0.789997 0.354266 0.423234 -0.08735
C_ C_ 0.83782 0.351097 0.435626 -0.05681
C_ C_ 0.843549 0.35475 0.465614 0.44287
C_ C_ 0.93216 0.333724 0.460261 0.44287
C_ C_ 0.891629 0.34629 0.00657812 0.18498
C_ C_ 0.913728 0.393361 0.012467 -0.08735
C_ C_ 0.930604 0.404334 0.0398948 -0.08735
C_ C_ 0.920918 0.37161 0.0630406 -0.08735
C_ C_ 0.891762 0.326999 0.0581183 0.18498
C_ C_ 0.875581 0.313963 0.0297321 -0.05681
C_ C_ 0.846007 0.269505 0.0253311 -0.08735
C_ C_ 0.835556 0.239377 0.0485564 -0.08735
C_ C_ 0.850476 0.25336 0.0755689 0.1947
N_ N_ 0.634175 0.16398 0.476772 -0.29468
N_ N_ 0.661257 0.199416 0.0813151 -0.17154
N_ N_ 0.631621 0.166533 0.229509 -0.17154
N_ N_ 0.637575 0.199851 0.332782 -0.29468
N_ N_ 0.875314 0.328707 0.225007 -0.29468
N_ N_ 0.854078 0.307645 0.329623 -0.17154
N_ N_ 0.889242 0.340866 0.477219 -0.17154
N_ N_ 0.87899 0.295643 0.0797745 -0.29468
O_ O_ 0.709024 0.193684 0.429494 -0.58347
O_ O_ 0.699546 0.193766 0.38328 -0.58347
O_ O_ 0.621393 0.251981 0.434011 -0.58347
O_ O_ 0.625281 0.259976 0.387884 -0.58347
O_ O_ 0.651042 0.105077 0.423696 -0.58347
O_ O_ 0.634361 0.113351 0.377997 -0.58347
O_ O_ 0.562201 0.161085 0.429163 -0.58347
O_ O_ 0.55218 0.180307 0.383473 -0.58347
O_ O_ 0.57638 0.221047 0.0784927 -0.46727
O_ O_ 0.746587 0.180113 0.0845202 -0.46727
O_ O_ 0.54862 0.198779 0.226245 -0.46727
O_ O_ 0.718992 0.150447 0.233013 -0.46727
O_ O_ 0.798623 0.298632 0.176698 -0.58347
O_ O_ 0.80254 0.299073 0.129563 -0.58347
O_ O_ 0.874553 0.235131 0.186232 -0.58347
O_ O_ 0.876711 0.236655 0.139654 -0.58347
O_ O_ 0.865749 0.386976 0.167542 -0.58347
O_ O_ 0.877047 0.382991 0.122232 -0.58347
O_ O_ 0.945129 0.315937 0.176922 -0.58347
O_ O_ 0.953487 0.311781 0.130883 -0.58347
O_ O_ 0.931971 0.267236 0.327433 -0.46727
O_ O_ 0.765715 0.312728 0.337092 -0.46727
O_ O_ 0.975036 0.3233 0.472482 -0.46727
O_ O_ 0.811131 0.380329 0.48047 -0.46727
Zn Zn 0.619236 0.195373 0.882487 0.90689
Zn Zn 0.63137 0.187661 0.930894 0.90689
Zn Zn 0.876994 0.320863 0.627569 0.90689
Zn Zn 0.866822 0.325649 0.676183 0.90689
H_ H_ 0.796707 0.19502 0.946334 0.11455
H_ H_ 0.864685 0.173869 0.849413 0.11455
H_ H_ 0.777434 0.193688 0.854102 0.11455
H_ H_ 0.882683 0.207941 0.964965 0.11455
H_ H_ 0.973143 0.202458 0.957175 0.11455
H_ H_ 0.951782 0.172171 0.868491 0.11455
H_ H_ 0.600383 0.0230996 0.932946 0.11455
H_ H_ 0.592322 0.441382 0.850057 0.11455
H_ H_ 0.665565 0.0337294 0.848618 0.11455
H_ H_ 0.670014 0.436505 0.962218 0.11455
H_ H_ 0.671326 0.342615 0.954874 0.11455
H_ H_ 0.585838 0.361059 0.875278 0.11455
H_ H_ 0.597177 0.0975597 0.965603 0.11455
H_ H_ 0.579842 0.072151 0.514599 0.11455
H_ H_ 0.61346 0.121151 0.553504 0.11455
H_ H_ 0.690777 0.254522 0.970711 0.11455
H_ H_ 0.724843 0.301771 0.507952 0.11455
H_ H_ 0.708748 0.27405 0.560196 0.11455
H_ H_ 0.519667 0.200423 0.621653 0.11455
H_ H_ 0.509236 0.186112 0.672162 0.11455
H_ H_ 0.774717 0.193454 0.639692 0.11455
H_ H_ 0.763154 0.184602 0.69059 0.11455
H_ H_ 0.59776 0.089732 0.749184 0.11455
H_ H_ 0.558589 0.0727851 0.7966 0.11455
H_ H_ 0.566417 0.130475 0.83603 0.11455
H_ H_ 0.642088 0.26867 0.75704 0.11455
H_ H_ 0.675332 0.316888 0.799528 0.11455
H_ H_ 0.666243 0.282696 0.848288 0.11455
H_ H_ 0.70138 0.31475 0.690992 0.11455
H_ H_ 0.63573 0.325944 0.594027 0.11455
H_ H_ 0.724358 0.342598 0.600032 0.11455
H_ H_ 0.613903 0.336526 0.712802 0.11455
H_ H_ 0.527693 0.3431 0.703531 0.11455
H_ H_ 0.551141 0.313169 0.613079 0.11455
H_ H_ 0.879103 0.484826 0.688807 0.11455
H_ H_ 0.880658 0.0609443 0.59603 0.11455
H_ H_ 0.855315 0.485089 0.597164 0.11455
H_ H_ 0.883711 0.0770678 0.713269 0.11455
H_ H_ 0.893377 0.171168 0.705509 0.11455
H_ H_ 0.881896 0.150968 0.614351 0.11455
H_ H_ 0.917276 0.396226 0.708116 0.11455
H_ H_ 0.939899 0.424816 0.757337 0.11455
H_ H_ 0.909768 0.373623 0.798815 0.11455
H_ H_ 0.82304 0.249599 0.715294 0.11455
H_ H_ 0.789272 0.196007 0.756854 0.11455
H_ H_ 0.813617 0.21926 0.807407 0.11455
H_ H_ 0.995077 0.298383 0.869601 0.11455
H_ H_ -0.0013864 0.304226 0.924316 0.11455
H_ H_ 0.744788 0.356321 0.878806 0.11455
H_ H_ 0.751484 0.353609 0.93149 0.11455
H_ H_ 0.921218 0.419734 0.995184 0.11455
H_ H_ 0.962595 0.445412 0.546765 0.11455
H_ H_ 0.934799 0.389066 0.586271 0.11455
H_ H_ 0.859742 0.25855 0.503736 0.11455
H_ H_ 0.816506 0.215698 0.54352 0.11455
H_ H_ 0.828227 0.247368 0.592481 0.11455
C_ C_ 0.726248 0.19693 0.905779 0.68181
C_ C_ 0.781052 0.199591 0.901415 -0.05681
C_ C_ 0.812273 0.201477 0.924252 -0.08735
C_ C_ 0.864288 0.201445 0.920293 -0.05681
C_ C_ 0.884575 0.192144 0.892646 -0.05681
C_ C_ 0.852298 0.188827 0.869701 -0.08735
C_ C_ 0.800467 0.195923 0.872547 -0.08735
C_ C_ 0.896088 0.20033 0.944328 -0.08735
C_ C_ 0.947465 0.193887 0.939372 -0.08735
C_ C_ 0.970005 0.184834 0.912855 -0.05681
C_ C_ 0.936608 0.181814 0.888726 -0.08735
C_ C_ 0.624331 0.289275 0.913428 0.68181
C_ C_ 0.634873 0.0920423 0.895018 0.68181
C_ C_ 0.638918 0.0346389 0.89188 -0.05681
C_ C_ 0.633385 0.505366 0.921863 -0.08735
C_ C_ 0.63695 0.451578 0.91917 -0.05681
C_ C_ 0.618208 0.428822 0.892902 -0.05681
C_ C_ 0.602037 0.456851 0.87108 -0.08735
C_ C_ 0.604007 0.510919 0.872039 -0.08735
C_ C_ 0.656634 0.419664 0.941302 -0.08735
C_ C_ 0.656292 0.366873 0.937595 -0.08735
C_ C_ 0.627469 0.345588 0.915453 -0.05681
C_ C_ 0.609014 0.376976 0.892921 -0.08735
C_ C_ 0.529917 0.192499 0.908221 0.68181
C_ C_ 0.609989 0.124525 0.983218 0.1947
C_ C_ 0.595522 0.106199 0.510043 -0.08735
C_ C_ 0.616359 0.134094 0.532034 -0.08735
C_ C_ 0.643597 0.178482 0.527355 -0.05681
C_ C_ 0.652271 0.193248 0.498608 0.18498
C_ C_ 0.685112 0.239413 0.99275 -0.08735
C_ C_ 0.706374 0.26407 0.514229 -0.08735
C_ C_ 0.694807 0.250349 0.542837 -0.08735
C_ C_ 0.666962 0.207353 0.550608 0.18498
C_ C_ 0.701195 0.190973 0.599171 0.44287
C_ C_ 0.612127 0.201532 0.592618 0.44287
C_ C_ 0.604095 0.192896 0.622267 -0.05681
C_ C_ 0.55471 0.194676 0.634332 -0.08735
C_ C_ 0.549335 0.189899 0.663485 -0.08735
C_ C_ 0.58993 0.194846 0.682004 -0.05681
C_ C_ 0.639048 0.194163 0.670538 -0.05681
C_ C_ 0.646046 0.19376 0.640443 -0.05681
C_ C_ 0.695462 0.193022 0.628606 -0.05681
C_ C_ 0.736413 0.194032 0.647465 -0.08735
C_ C_ 0.730003 0.187839 0.67604 -0.08735
C_ C_ 0.681328 0.185725 0.688483 -0.05681
C_ C_ 0.674118 0.177674 0.717888 0.44287
C_ C_ 0.585451 0.186629 0.711621 0.44287
C_ C_ 0.620248 0.166298 0.758761 0.18498
C_ C_ 0.604216 0.117663 0.765956 -0.08735
C_ C_ 0.581083 0.107055 0.79325 -0.08735
C_ C_ 0.580706 0.141288 0.815207 -0.08735
C_ C_ 0.607248 0.187096 0.810216 0.18498
C_ C_ 0.621151 0.204202 0.78127 -0.05681
C_ C_ 0.640462 0.253479 0.777274 -0.08735
C_ C_ 0.65534 0.281549 0.801677 -0.08735
C_ C_ 0.650683 0.261439 0.82914 0.1947
C_ C_ 0.774909 0.316437 0.650966 0.68181
C_ C_ 0.720647 0.32808 0.646495 -0.05681
C_ C_ 0.686841 0.327136 0.670079 -0.08735
C_ C_ 0.635193 0.332503 0.66665 -0.05681
C_ C_ 0.615018 0.3253 0.638704 -0.05681
C_ C_ 0.648801 0.322531 0.614792 -0.08735
C_ C_ 0.70017 0.33365 0.618418 -0.08735
C_ C_ 0.602106 0.335853 0.690526 -0.08735
C_ C_ 0.550302 0.333595 0.685113 -0.08735
C_ C_ 0.53075 0.325488 0.657775 -0.05681
C_ C_ 0.56351 0.32233 0.63473 -0.08735
C_ C_ 0.887143 0.222832 0.657664 0.68181
C_ C_ 0.861386 0.420165 0.644969 0.68181
C_ C_ 0.86965 0.476231 0.643629 -0.05681
C_ C_ 0.873737 0.00805947 0.673635 -0.08735
C_ C_ 0.87761 0.0612678 0.668786 -0.05681
C_ C_ 0.874615 0.0819588 0.640907 -0.05681
C_ C_ 0.876881 0.0476882 0.618368 -0.08735
C_ C_ 0.860847 0.501847 0.617651 -0.08735
C_ C_ 0.880906 0.094089 0.691978 -0.08735
C_ C_ 0.885154 0.145823 0.687846 -0.08735
C_ C_ 0.884044 0.167433 0.660687 -0.05681
C_ C_ 0.884752 0.13397 0.636807 -0.08735
C_ C_ 0.970624 0.335844 0.651401 0.68181
C_ C_ 0.901203 0.377832 0.727236 0.1947
C_ C_ 0.917229 0.391538 0.754394 -0.08735
C_ C_ 0.89652 0.364346 0.77748 -0.08735
C_ C_ 0.867246 0.320748 0.773499 -0.05681
C_ C_ 0.857859 0.305654 0.74431 0.18498
C_ C_ 0.826985 0.26373 0.73796 -0.08735
C_ C_ 0.809957 0.233137 0.760902 -0.08735
C_ C_ 0.819138 0.24759 0.789455 -0.08735
C_ C_ 0.845825 0.292076 0.796407 0.18498
C_ C_ 0.817631 0.323696 0.84252 0.44287
C_ C_ 0.900527 0.295682 0.840538 0.44287
C_ C_ 0.909201 0.310871 0.868162 -0.05681
C_ C_ 0.959103 0.308378 0.881589 -0.08735
C_ C_ 0.964131 0.313271 0.912492 -0.08735
C_ C_ 0.922093 0.318012 0.929914 -0.05681
C_ C_ 0.87383 0.326126 0.91617 -0.05681
C_ C_ 0.86793 0.323273 0.885395 -0.05681
C_ C_ 0.822603 0.334266 0.872451 -0.05681
C_ C_ 0.779332 0.345928 0.889306 -0.08735
C_ C_ 0.783683 0.346145 0.919292 -0.08735
C_ C_ 0.83178 0.338638 0.933398 -0.05681
C_ C_ 0.837649 0.341654 0.964148 0.44287
C_ C_ 0.925705 0.321723 0.95964 0.44287
C_ C_ 0.900727 0.353535 0.507493 0.18498
C_ C_ 0.926671 0.399687 0.514464 -0.08735
C_ C_ 0.935559 0.413064 0.542302 -0.08735
C_ C_ 0.918793 0.381861 0.565683 -0.08735
C_ C_ 0.888262 0.338096 0.559578 0.18498
C_ C_ 0.882991 0.322262 0.53054 -0.05681
C_ C_ 0.861616 0.274681 0.524764 -0.08735
C_ C_ 0.836374 0.250726 0.546485 -0.08735
C_ C_ 0.843459 0.267632 0.574807 0.1947
N_ N_ 0.632249 0.170322 0.978116 -0.29468
N_ N_ 0.659947 0.196615 0.580478 -0.17154
N_ N_ 0.626323 0.180155 0.72937 -0.17154
N_ N_ 0.62446 0.216231 0.833316 -0.29468
N_ N_ 0.87073 0.33691 0.722985 -0.29468
N_ N_ 0.856653 0.306306 0.826419 -0.17154
N_ N_ 0.88418 0.332551 0.975958 -0.17154
N_ N_ 0.873785 0.308314 0.581184 -0.29468
O_ O_ 0.707733 0.191877 0.930948 -0.58347
O_ O_ 0.695366 0.206131 0.885731 -0.58347
O_ O_ 0.626739 0.261724 0.936123 -0.58347
O_ O_ 0.60584 0.270232 0.891281 -0.58347
O_ O_ 0.631714 0.114268 0.918636 -0.58347
O_ O_ 0.637451 0.120355 0.873866 -0.58347
O_ O_ 0.557302 0.177929 0.928658 -0.58347
O_ O_ 0.546329 0.189205 0.883326 -0.58347
O_ O_ 0.572047 0.203043 0.575989 -0.46727
O_ O_ 0.747222 0.192142 0.588477 -0.46727
O_ O_ 0.539873 0.184603 0.723072 -0.46727
O_ O_ 0.710583 0.155261 0.731421 -0.46727
O_ O_ 0.79258 0.311693 0.675735 -0.58347
O_ O_ 0.80369 0.318709 0.629089 -0.58347
O_ O_ 0.884217 0.250828 0.678506 -0.58347
O_ O_ 0.879129 0.242584 0.63385 -0.58347
O_ O_ 0.859711 0.398056 0.668978 -0.58347
O_ O_ 0.8627 0.394467 0.621708 -0.58347
O_ O_ 0.940932 0.343853 0.672197 -0.58347
O_ O_ 0.95065 0.325316 0.626821 -0.58347
O_ O_ 0.939165 0.276486 0.826694 -0.46727
O_ O_ 0.775551 0.335328 0.829372 -0.46727
O_ O_ 0.967391 0.303838 0.97224 -0.46727
O_ O_ 0.797542 0.349201 0.980248 -0.46727
Zn Zn 0.626489 0.681259 0.380503 0.90689
Zn Zn 0.636024 0.681385 0.42818 0.90689
Zn Zn 0.867112 0.804535 0.133736 0.90689
Zn Zn 0.856627 0.81588 0.180339 0.90689
H_ H_ 0.805887 0.70292 0.445649 0.11455
H_ H_ 0.875805 0.656783 0.34954 0.11455
H_ H_ 0.785169 0.662046 0.353839 0.11455
H_ H_ 0.894754 0.711617 0.462223 0.11455
H_ H_ 0.985401 0.699354 0.454945 0.11455
H_ H_ 0.96398 0.660321 0.367886 0.11455
H_ H_ 0.626449 0.517024 0.442861 0.11455
H_ H_ 0.632325 0.932764 0.348569 0.11455
H_ H_ 0.67123 0.526543 0.353155 0.11455
H_ H_ 0.643525 0.928535 0.464598 0.11455
H_ H_ 0.619636 0.836805 0.460516 0.11455
H_ H_ 0.628064 0.849321 0.369854 0.11455
H_ H_ 0.582925 0.603434 0.467558 0.11455
H_ H_ 0.572829 0.566647 0.00633342 0.11455
H_ H_ 0.599227 0.614148 0.0513536 0.11455
H_ H_ 0.68571 0.751703 0.47133 0.11455
H_ H_ 0.700601 0.805184 0.0161145 0.11455
H_ H_ 0.6702 0.784132 0.063447 0.11455
H_ H_ 0.505447 0.689496 0.127396 0.11455
H_ H_ 0.503484 0.695877 0.176948 0.11455
H_ H_ 0.761557 0.656957 0.132085 0.11455
H_ H_ 0.750743 0.635561 0.183256 0.11455
H_ H_ 0.578446 0.584077 0.247461 0.11455
H_ H_ 0.554041 0.55973 0.295611 0.11455
H_ H_ 0.572371 0.619312 0.334835 0.11455
H_ H_ 0.669282 0.741161 0.257321 0.11455
H_ H_ 0.701514 0.786228 0.300731 0.11455
H_ H_ 0.68028 0.760139 0.347546 0.11455
H_ H_ 0.689959 0.798614 0.200578 0.11455
H_ H_ 0.616875 0.813777 0.102193 0.11455
H_ H_ 0.707381 0.8084 0.107477 0.11455
H_ H_ 0.60309 0.794542 0.221431 0.11455
H_ H_ 0.511573 0.804512 0.213409 0.11455
H_ H_ 0.531438 0.809766 0.124593 0.11455
H_ H_ 0.842987 0.983922 0.192488 0.11455
H_ H_ 0.853699 0.563313 0.0968482 0.11455
H_ H_ 0.848479 0.961405 0.100567 0.11455
H_ H_ 0.863358 0.559773 0.212341 0.11455
H_ H_ 0.886219 0.649293 0.212728 0.11455
H_ H_ 0.863334 0.644631 0.120112 0.11455
H_ H_ 0.928997 0.877639 0.215211 0.11455
H_ H_ 0.949856 0.908716 0.261351 0.11455
H_ H_ 0.909547 0.873551 0.303588 0.11455
H_ H_ 0.807109 0.747498 0.228616 0.11455
H_ H_ 0.791418 0.693098 0.269177 0.11455
H_ H_ 0.80963 0.722112 0.318235 0.11455
H_ H_ 0.987153 0.796272 0.37374 0.11455
H_ H_ 0.00023319 0.800952 0.427107 0.11455
H_ H_ 0.738127 0.847759 0.391904 0.11455
H_ H_ 0.755658 0.860617 0.441788 0.11455
H_ H_ 0.950458 0.90799 0.50203 0.11455
H_ H_ 0.966219 0.908311 0.0542983 0.11455
H_ H_ 0.920598 0.870273 0.0921929 0.11455
H_ H_ 0.846729 0.734665 0.0110072 0.11455
H_ H_ 0.825595 0.683146 0.0523171 0.11455
H_ H_ 0.82519 0.722206 0.0998095 0.11455
C_ C_ 0.732141 0.68574 0.405161 0.68181
C_ C_ 0.788602 0.682387 0.401549 -0.05681
C_ C_ 0.821575 0.690385 0.424117 -0.08735
C_ C_ 0.873629 0.681894 0.420526 -0.05681
C_ C_ 0.892718 0.670415 0.392464 -0.05681
C_ C_ 0.860115 0.661648 0.369624 -0.08735
C_ C_ 0.808862 0.666067 0.373396 -0.08735
C_ C_ 0.907569 0.690413 0.443626 -0.08735
C_ C_ 0.959049 0.686983 0.439252 -0.08735
C_ C_ 0.977188 0.674408 0.412247 -0.05681
C_ C_ 0.946141 0.670942 0.389033 -0.08735
C_ C_ 0.625339 0.782254 0.411741 0.68181
C_ C_ 0.645915 0.585132 0.397592 0.68181
C_ C_ 0.644745 0.529321 0.396884 -0.05681
C_ C_ 0.641592 0.999553 0.423886 -0.08735
C_ C_ 0.640536 0.944151 0.420647 -0.05681
C_ C_ 0.634345 0.922971 0.393224 -0.05681
C_ C_ 0.633838 0.951522 0.368987 -0.08735
C_ C_ 0.639715 1.00455657 0.371086 -0.08735
C_ C_ 0.635486 0.911953 0.444721 -0.08735
C_ C_ 0.629558 0.859421 0.441551 -0.08735
C_ C_ 0.629941 0.837505 0.414861 -0.05681
C_ C_ 0.633345 0.868612 0.390255 -0.08735
C_ C_ 0.53239 0.66873 0.403432 0.68181
C_ C_ 0.599568 0.628081 0.484664 0.1947
C_ C_ 0.586359 0.604512 0.00473473 -0.08735
C_ C_ 0.602843 0.632658 0.0292494 -0.08735
C_ C_ 0.629052 0.679504 0.0260532 -0.05681
C_ C_ 0.63874 0.695574 0.997364 0.18498
C_ C_ 0.677401 0.742667 0.492366 -0.08735
C_ C_ 0.676477 0.772234 0.0183443 -0.08735
C_ C_ 0.663015 0.756805 0.0459595 -0.08735
C_ C_ 0.640667 0.709799 0.0503364 0.18498
C_ C_ 0.681121 0.679619 0.095544 0.44287
C_ C_ 0.59126 0.693366 0.0940493 0.44287
C_ C_ 0.58846 0.682625 0.122913 -0.05681
C_ C_ 0.541158 0.683439 0.138151 -0.08735
C_ C_ 0.540821 0.681981 0.168518 -0.08735
C_ C_ 0.582768 0.67167 0.184238 -0.05681
C_ C_ 0.630033 0.664285 0.169606 -0.05681
C_ C_ 0.631605 0.671089 0.139346 -0.05681
C_ C_ 0.679822 0.673032 0.125196 -0.05681
C_ C_ 0.724639 0.660354 0.141163 -0.08735
C_ C_ 0.721147 0.65232 0.170431 -0.08735
C_ C_ 0.674366 0.660109 0.185707 -0.05681
C_ C_ 0.670083 0.663229 0.215961 0.44287
C_ C_ 0.581993 0.673508 0.213836 0.44287
C_ C_ 0.619073 0.651459 0.259398 0.18498
C_ C_ 0.593968 0.605345 0.264894 -0.08735
C_ C_ 0.578056 0.592278 0.291988 -0.08735
C_ C_ 0.587358 0.625636 0.314193 -0.08735
C_ C_ 0.616463 0.670981 0.311436 0.18498
C_ C_ 0.631632 0.684349 0.283247 -0.05681
C_ C_ 0.657261 0.729446 0.27846 -0.08735
C_ C_ 0.6764 0.756745 0.301877 -0.08735
C_ C_ 0.66127 0.741094 0.330417 0.1947
C_ C_ 0.762085 0.803162 0.15882 0.68181
C_ C_ 0.705846 0.800154 0.154449 -0.05681
C_ C_ 0.675104 0.794577 0.178155 -0.08735
C_ C_ 0.621138 0.797707 0.175306 -0.05681
C_ C_ 0.599847 0.806028 0.147199 -0.05681
C_ C_ 0.632361 0.807951 0.123052 -0.08735
C_ C_ 0.683116 0.805165 0.126452 -0.08735
C_ C_ 0.588362 0.803834 0.199245 -0.08735
C_ C_ 0.535166 0.807151 0.19579 -0.08735
C_ C_ 0.515414 0.807849 0.168069 -0.05681
C_ C_ 0.548076 0.807449 0.145066 -0.08735
C_ C_ 0.868991 0.710296 0.163388 0.68181
C_ C_ 0.855267 0.907817 0.151195 0.68181
C_ C_ 0.850651 0.964418 0.147279 -0.05681
C_ C_ 0.875611 0.495436 0.168443 -0.08735
C_ C_ 0.873673 0.546646 0.167749 -0.05681
C_ C_ 0.864802 0.571486 0.141851 -0.05681
C_ C_ 0.858187 0.542584 0.116947 -0.08735
C_ C_ 0.853457 0.985534 0.119884 -0.08735
C_ C_ 0.873122 0.577608 0.193311 -0.08735
C_ C_ 0.873975 0.630803 0.192614 -0.08735
C_ C_ 0.871252 0.653486 0.165751 -0.05681
C_ C_ 0.868068 0.624689 0.140531 -0.08735
C_ C_ 0.960379 0.808142 0.157555 0.68181
C_ C_ 0.905409 0.863353 0.232161 0.1947
C_ C_ 0.919571 0.879311 0.259132 -0.08735
C_ C_ 0.896271 0.859131 0.283632 -0.08735
C_ C_ 0.861571 0.818906 0.28101 -0.05681
C_ C_ 0.847139 0.803439 0.252624 0.18498
C_ C_ 0.817188 0.761829 0.248671 -0.08735
C_ C_ 0.806909 0.730356 0.272293 -0.08735
C_ C_ 0.81757 0.746156 0.300346 -0.08735
C_ C_ 0.841085 0.793015 0.304574 0.18498
C_ C_ 0.812525 0.826916 0.350371 0.44287
C_ C_ 0.898515 0.798859 0.34599 0.44287
C_ C_ 0.907105 0.809276 0.375245 -0.05681
C_ C_ 0.955702 0.804829 0.38758 -0.08735
C_ C_ 0.963742 0.809279 0.417022 -0.08735
C_ C_ 0.92252 0.812715 0.434731 -0.05681
C_ C_ 0.873634 0.82294 0.423423 -0.05681
C_ C_ 0.865341 0.820384 0.39251 -0.05681
C_ C_ 0.819663 0.831916 0.379878 -0.05681
C_ C_ 0.77816 0.844762 0.399306 -0.08735
C_ C_ 0.786308 0.848616 0.42939 -0.08735
C_ C_ 0.833407 0.837921 0.442158 -0.05681
C_ C_ 0.841073 0.842995 0.472095 0.44287
C_ C_ 0.928103 0.820031 0.464705 0.44287
C_ C_ 0.89453 0.829073 0.0139664 0.18498
C_ C_ 0.927428 0.869125 0.0201779 -0.08735
C_ C_ 0.937805 0.881842 0.0482217 -0.08735
C_ C_ 0.913013 0.859037 0.0706159 -0.08735
C_ C_ 0.883163 0.816895 0.065268 0.18498
C_ C_ 0.875641 0.79943 0.0358105 -0.05681
C_ C_ 0.851504 0.751411 0.0320823 -0.08735
C_ C_ 0.835718 0.723446 0.054457 -0.08735
C_ C_ 0.841336 0.742055 0.0829287 0.1947
N_ N_ 0.6298 0.669386 0.47787 -0.29468
N_ N_ 0.63674 0.689392 0.0802873 -0.17154
N_ N_ 0.625337 0.667999 0.229624 -0.17154
N_ N_ 0.63302 0.699634 0.33545 -0.29468
N_ N_ 0.868685 0.826515 0.229524 -0.29468
N_ N_ 0.852252 0.810917 0.333797 -0.17154
N_ N_ 0.888876 0.836726 0.482455 -0.17154
N_ N_ 0.860595 0.789787 0.0878113 -0.29468
O_ O_ 0.712471 0.691509 0.429259 -0.58347
O_ O_ 0.704429 0.683207 0.383763 -0.58347
O_ O_ 0.622758 0.755727 0.434264 -0.58347
O_ O_ 0.627752 0.759092 0.38901 -0.58347
O_ O_ 0.643336 0.606349 0.421754 -0.58347
O_ O_ 0.637623 0.610149 0.375014 -0.58347
O_ O_ 0.562179 0.665898 0.424937 -0.58347
O_ O_ 0.550764 0.674225 0.378218 -0.58347
O_ O_ 0.550401 0.706245 0.0792471 -0.46727
O_ O_ 0.726087 0.677441 0.0817915 -0.46727
O_ O_ 0.538527 0.670097 0.227119 -0.46727
O_ O_ 0.711277 0.665319 0.231768 -0.46727
O_ O_ 0.780838 0.819211 0.182044 -0.58347
O_ O_ 0.792124 0.794027 0.137804 -0.58347
O_ O_ 0.85102 0.735186 0.183777 -0.58347
O_ O_ 0.881138 0.731505 0.140474 -0.58347
O_ O_ 0.864355 0.889303 0.175397 -0.58347
O_ O_ 0.854532 0.878378 0.129656 -0.58347
O_ O_ 0.930559 0.809267 0.180186 -0.58347
O_ O_ 0.941704 0.815555 0.133537 -0.58347
O_ O_ 0.934392 0.778573 0.330705 -0.46727
O_ O_ 0.770495 0.843814 0.339716 -0.46727
O_ O_ 0.971536 0.812435 0.476044 -0.46727
O_ O_ 0.80377 0.858642 0.489195 -0.46727
Zn Zn 0.622879 0.690305 0.877039 0.90689
Zn Zn 0.6291 0.688353 0.925671 0.90689
Zn Zn 0.875852 0.815311 0.634078 0.90689
Zn Zn 0.868987 0.825885 0.67873 0.90689
H_ H_ 0.795837 0.680972 0.944814 0.11455
H_ H_ 0.871577 0.674977 0.845849 0.11455
H_ H_ 0.783245 0.663925 0.852919 0.11455
H_ H_ 0.882181 0.676546 0.96425 0.11455
H_ H_ 0.980524 0.665363 0.956926 0.11455
H_ H_ 0.953382 0.686171 0.866268 0.11455
H_ H_ 0.64704 0.523457 0.941471 0.11455
H_ H_ 0.664205 0.944057 0.842674 0.11455
H_ H_ 0.593929 0.53433 0.853774 0.11455
H_ H_ 0.590036 0.937629 0.956731 0.11455
H_ H_ 0.577183 0.845281 0.949853 0.11455
H_ H_ 0.657736 0.856213 0.869813 0.11455
H_ H_ 0.575633 0.611254 0.959787 0.11455
H_ H_ 0.570707 0.580056 0.518818 0.11455
H_ H_ 0.601484 0.635694 0.556439 0.11455
H_ H_ 0.679511 0.751596 0.974045 0.11455
H_ H_ 0.70223 0.816963 0.507281 0.11455
H_ H_ 0.681063 0.800833 0.5549 0.11455
H_ H_ 0.508712 0.720522 0.620705 0.11455
H_ H_ 0.497533 0.69421 0.670925 0.11455
H_ H_ 0.760123 0.702358 0.638774 0.11455
H_ H_ 0.747291 0.681426 0.688153 0.11455
H_ H_ 0.554641 0.592067 0.744732 0.11455
H_ H_ 0.544331 0.561172 0.795713 0.11455
H_ H_ 0.567373 0.621337 0.837046 0.11455
H_ H_ 0.644627 0.751737 0.753226 0.11455
H_ H_ 0.680686 0.796944 0.793573 0.11455
H_ H_ 0.670711 0.765006 0.841947 0.11455
H_ H_ 0.702868 0.825411 0.696588 0.11455
H_ H_ 0.634894 0.826658 0.598675 0.11455
H_ H_ 0.720542 0.826654 0.604512 0.11455
H_ H_ 0.615728 0.82436 0.716678 0.11455
H_ H_ 0.523229 0.821585 0.70903 0.11455
H_ H_ 0.545935 0.837704 0.617497 0.11455
H_ H_ 0.869548 0.992814 0.695053 0.11455
H_ H_ 0.855507 0.574799 0.597105 0.11455
H_ H_ 0.875804 0.972579 0.604275 0.11455
H_ H_ 0.895793 0.567132 0.714021 0.11455
H_ H_ 0.918018 0.656271 0.711466 0.11455
H_ H_ 0.865351 0.654857 0.624512 0.11455
H_ H_ 0.925873 0.891318 0.715029 0.11455
H_ H_ 0.930814 0.931101 0.760967 0.11455
H_ H_ 0.900944 0.887314 0.803636 0.11455
H_ H_ 0.812219 0.760148 0.724224 0.11455
H_ H_ 0.784258 0.70342 0.76693 0.11455
H_ H_ 0.810947 0.724736 0.81561 0.11455
H_ H_ 0.99162 0.812318 0.875646 0.11455
H_ H_ 1.00155 0.802022 0.926846 0.11455
H_ H_ 0.73875 0.81911 0.890179 0.11455
H_ H_ 0.750839 0.837326 0.942451 0.11455
H_ H_ 0.949988 0.885486 1.00345369 0.11455
H_ H_ 0.974682 0.925364 0.550814 0.11455
H_ H_ 0.93029 0.88207 0.593836 0.11455
H_ H_ 0.832668 0.766761 0.509831 0.11455
H_ H_ 0.803178 0.714842 0.550893 0.11455
H_ H_ 0.822948 0.741232 0.600538 0.11455
C_ C_ 0.726144 0.685775 0.902802 0.68181
C_ C_ 0.782077 0.681051 0.898814 -0.05681
C_ C_ 0.814049 0.675851 0.923078 -0.08735
C_ C_ 0.867246 0.671896 0.91931 -0.05681
C_ C_ 0.888546 0.672515 0.891578 -0.05681
C_ C_ 0.857039 0.676555 0.867246 -0.08735
C_ C_ 0.803549 0.673928 0.871198 -0.08735
C_ C_ 0.899137 0.672516 0.942962 -0.08735
C_ C_ 0.952922 0.672203 0.939688 -0.08735
C_ C_ 0.975032 0.674163 0.911465 -0.05681
C_ C_ 0.940871 0.675111 0.888832 -0.08735
C_ C_ 0.619857 0.787591 0.907998 0.68181
C_ C_ 0.623401 0.589955 0.897652 0.68181
C_ C_ 0.620424 0.53436 0.897168 -0.05681
C_ C_ 0.622053 0.00585963 0.915106 -0.08735
C_ C_ 0.621466 0.951328 0.913626 -0.05681
C_ C_ 0.638248 0.92847 0.887165 -0.05681
C_ C_ 0.65532 0.958713 0.864631 -0.08735
C_ C_ 0.655515 0.0113378 0.866522 -0.08735
C_ C_ 0.601494 0.920767 0.936794 -0.08735
C_ C_ 0.59628 0.868338 0.933059 -0.08735
C_ C_ 0.615523 0.844878 0.908165 -0.05681
C_ C_ 0.634389 0.875195 0.884335 -0.08735
C_ C_ 0.53043 0.687115 0.902177 0.68181
C_ C_ 0.595664 0.6263 0.977153 0.1947
C_ C_ 0.591187 0.614594 0.513028 -0.08735
C_ C_ 0.610168 0.646231 0.534187 -0.08735
C_ C_ 0.641032 0.688608 0.528216 -0.05681
C_ C_ 0.650016 0.699394 0.499139 0.18498
C_ C_ 0.665494 0.742159 0.994179 -0.08735
C_ C_ 0.680043 0.782443 0.512274 -0.08735
C_ C_ 0.67109 0.770517 0.540886 -0.08735
C_ C_ 0.654478 0.723886 0.550109 0.18498
C_ C_ 0.686944 0.705662 0.597219 0.44287
C_ C_ 0.59975 0.715465 0.591221 0.44287
C_ C_ 0.590402 0.704791 0.621002 -0.05681
C_ C_ 0.540924 0.707439 0.632873 -0.08735
C_ C_ 0.534979 0.697933 0.662645 -0.08735
C_ C_ 0.57567 0.690475 0.680786 -0.05681
C_ C_ 0.625023 0.692972 0.668378 -0.05681
C_ C_ 0.632577 0.695763 0.638413 -0.05681
C_ C_ 0.680122 0.700981 0.627589 -0.05681
C_ C_ 0.721181 0.699789 0.646634 -0.08735
C_ C_ 0.71501 0.689171 0.675986 -0.08735
C_ C_ 0.666318 0.683629 0.686909 -0.05681
C_ C_ 0.65747 0.667998 0.714956 0.44287
C_ C_ 0.570013 0.679935 0.710341 0.44287
C_ C_ 0.602053 0.654812 0.756651 0.18498
C_ C_ 0.572436 0.612401 0.763094 -0.08735
C_ C_ 0.560946 0.598419 0.791509 -0.08735
C_ C_ 0.581536 0.627658 0.814643 -0.08735
C_ C_ 0.612787 0.66895 0.808397 0.18498
C_ C_ 0.619747 0.685618 0.779698 -0.05681
C_ C_ 0.642638 0.73325 0.775039 -0.08735
C_ C_ 0.656938 0.762843 0.797967 -0.08735
C_ C_ 0.652894 0.745233 0.825601 0.1947
C_ C_ 0.773621 0.824081 0.654665 0.68181
C_ C_ 0.719601 0.828017 0.651365 -0.05681
C_ C_ 0.685473 0.829553 0.67527 -0.08735
C_ C_ 0.633348 0.825136 0.671231 -0.05681
C_ C_ 0.613422 0.83389 0.643729 -0.05681
C_ C_ 0.646975 0.834783 0.620679 -0.08735
C_ C_ 0.697699 0.826426 0.624146 -0.08735
C_ C_ 0.600494 0.825859 0.695103 -0.08735
C_ C_ 0.547821 0.826456 0.690347 -0.08735
C_ C_ 0.526629 0.835361 0.662483 -0.05681
C_ C_ 0.560351 0.833191 0.639408 -0.08735
C_ C_ 0.888288 0.721337 0.665745 0.68181
C_ C_ 0.868801 0.91876 0.650572 0.68181
C_ C_ 0.872244 0.974913 0.648417 -0.05681
C_ C_ 0.877071 0.505207 0.669332 -0.08735
C_ C_ 0.877414 0.558097 0.670285 -0.05681
C_ C_ 0.874377 0.582794 0.643418 -0.05681
C_ C_ 0.865337 0.555795 0.616697 -0.08735
C_ C_ 0.875721 0.997253 0.621845 -0.08735
C_ C_ 0.887766 0.585436 0.695144 -0.08735
C_ C_ 0.896616 0.637709 0.694301 -0.08735
C_ C_ 0.889059 0.663507 0.668061 -0.05681
C_ C_ 0.874429 0.634726 0.643744 -0.08735
C_ C_ 0.972456 0.825364 0.656141 0.68181
C_ C_ 0.899127 0.87928 0.73148 0.1947
C_ C_ 0.908078 0.896991 0.759153 -0.08735
C_ C_ 0.894492 0.868375 0.783087 -0.08735
C_ C_ 0.866998 0.823713 0.77998 -0.05681
C_ C_ 0.854835 0.808531 0.750649 0.18498
C_ C_ 0.82504 0.765666 0.746648 -0.08735
C_ C_ 0.804413 0.739834 0.769535 -0.08735
C_ C_ 0.817702 0.751634 0.798053 -0.08735
C_ C_ 0.848172 0.79463 0.804271 0.18498
C_ C_ 0.813383 0.819669 0.850696 0.44287
C_ C_ 0.903997 0.805497 0.845047 0.44287
C_ C_ 0.911656 0.807092 0.875479 -0.05681
C_ C_ 0.959316 0.811199 0.888556 -0.08735
C_ C_ 0.96388 0.804177 0.918179 -0.08735
C_ C_ 0.920666 0.805246 0.936475 -0.05681
C_ C_ 0.872291 0.811393 0.924198 -0.05681
C_ C_ 0.869609 0.813908 0.893274 -0.05681
C_ C_ 0.819973 0.818014 0.880966 -0.05681
C_ C_ 0.777292 0.82232 0.899093 -0.08735
C_ C_ 0.7827 0.828542 0.928851 -0.08735
C_ C_ 0.829683 0.820994 0.942099 -0.05681
C_ C_ 0.837987 0.826649 0.971872 0.44287
C_ C_ 0.923968 0.80501 0.966807 0.44287
C_ C_ 0.900893 0.844606 0.512705 0.18498
C_ C_ 0.935924 0.883048 0.519613 -0.08735
C_ C_ 0.947659 0.894134 0.547348 -0.08735
C_ C_ 0.927683 0.867437 0.570674 -0.08735
C_ C_ 0.889266 0.830744 0.565423 0.18498
C_ C_ 0.878629 0.816451 0.535929 -0.05681
C_ C_ 0.8451 0.776735 0.531919 -0.08735
C_ C_ 0.827995 0.745775 0.55463 -0.08735
C_ C_ 0.838104 0.762583 0.582796 0.1947
N_ N_ 0.622051 0.670537 0.973737 -0.29468
N_ N_ 0.647518 0.713601 0.579599 -0.17154
N_ N_ 0.610119 0.668732 0.727187 -0.17154
N_ N_ 0.628559 0.700557 0.830197 -0.29468
N_ N_ 0.869305 0.835364 0.727763 -0.29468
N_ N_ 0.855006 0.809123 0.833623 -0.17154
N_ N_ 0.883616 0.817457 0.984534 -0.17154
N_ N_ 0.867406 0.805781 0.588051 -0.29468
O_ O_ 0.706976 0.685551 0.927607 -0.58347
O_ O_ 0.698073 0.688439 0.88109 -0.58347
O_ O_ 0.625172 0.761781 0.930378 -0.58347
O_ O_ 0.62225 0.766826 0.884326 -0.58347
O_ O_ 0.628543 0.613765 0.920997 -0.58347
O_ O_ 0.622815 0.61451 0.874045 -0.58347
O_ O_ 0.55723 0.685898 0.923902 -0.58347
O_ O_ 0.54813 0.694799 0.876795 -0.58347
O_ O_ 0.560363 0.726498 0.574418 -0.46727
O_ O_ 0.729383 0.694918 0.584679 -0.46727
O_ O_ 0.523488 0.678152 0.721918 -0.46727
O_ O_ 0.697652 0.657947 0.732026 -0.46727
O_ O_ 0.793714 0.837803 0.677552 -0.58347
O_ O_ 0.799337 0.805924 0.635141 -0.58347
O_ O_ 0.869735 0.750981 0.685592 -0.58347
O_ O_ 0.891376 0.740009 0.64201 -0.58347
O_ O_ 0.875459 0.898143 0.674227 -0.58347
O_ O_ 0.864987 0.894079 0.628291 -0.58347
O_ O_ 0.945744 0.822777 0.678748 -0.58347
O_ O_ 0.951348 0.823659 0.631279 -0.58347
O_ O_ 0.941489 0.801239 0.827593 -0.46727
O_ O_ 0.767444 0.818732 0.839677 -0.46727
O_ O_ 0.964673 0.785736 0.979091 -0.46727
O_ O_ 0.801508 0.847703 0.98704 -0.46727
