_cell_length_a 26.376
_cell_length_b 26.400000238300095
_cell_length_c 46.67800035477134
_cell_angle_alpha 90.00700052986613
_cell_angle_beta 89.99899961309502
_cell_angle_gamma 90.45000003183146
_symmetry_space_group_name_H-M         'P 1'
_symmetry_Int_Tables_number            1
loop_
_symmetry_equiv_pos_as_xyz
   'x, y, z'
                         
loop_
_atom_site_label
_atom_site_type_symbol
_atom_site_fract_x 
_atom_site_fract_y
_atom_site_fract_z
_atom_site_charge
Zn Zn 0.126101 0.179581 0.381867 0.90689
Zn Zn 0.133409 0.175004 0.429643 0.90689
Zn Zn 0.366297 0.323771 0.130869 0.90689
Zn Zn 0.356862 0.333569 0.178621 0.90689
H_ H_ 0.300098 0.190049 0.445177 0.11455
H_ H_ 0.371946 0.154567 0.347167 0.11455
H_ H_ 0.278009 0.158472 0.355758 0.11455
H_ H_ 0.38503 0.200259 0.46467 0.11455
H_ H_ 0.474985 0.199504 0.458486 0.11455
H_ H_ 0.456273 0.1765 0.367781 0.11455
H_ H_ 0.106019 0.00920829 0.439041 0.11455
H_ H_ 0.109638 0.432365 0.347768 0.11455
H_ H_ 0.168823 0.0193154 0.353867 0.11455
H_ H_ 0.134877 0.430991 0.463638 0.11455
H_ H_ 0.114544 0.339561 0.46029 0.11455
H_ H_ 0.108572 0.351293 0.36996 0.11455
H_ H_ 0.0827705 0.09932 0.465317 0.11455
H_ H_ 0.0863391 0.0704557 0.0151039 0.11455
H_ H_ 0.111136 0.120474 0.0564117 0.11455
H_ H_ 0.193143 0.241887 0.472695 0.11455
H_ H_ 0.215845 0.308558 0.0150883 0.11455
H_ H_ 0.199113 0.283202 0.0638278 0.11455
H_ H_ 0.00856359 0.225741 0.120753 0.11455
H_ H_ -0.011287000000000047 0.199245 0.169669 0.11455
H_ H_ 0.254496 0.180625 0.142847 0.11455
H_ H_ 0.234986 0.186917 0.194411 0.11455
H_ H_ 0.0627924 0.0774594 0.250256 0.11455
H_ H_ 0.0486624 0.0527162 0.300733 0.11455
H_ H_ 0.0727658 0.108696 0.337736 0.11455
H_ H_ 0.138821 0.246441 0.256325 0.11455
H_ H_ 0.178834 0.292932 0.298523 0.11455
H_ H_ 0.174546 0.249848 0.347162 0.11455
H_ H_ 0.195482 0.317129 0.196182 0.11455
H_ H_ 0.122433 0.373165 0.102988 0.11455
H_ H_ 0.213491 0.360025 0.106591 0.11455
H_ H_ 0.109494 0.304215 0.215013 0.11455
H_ H_ 0.0189821 0.308411 0.207538 0.11455
H_ H_ 0.0391822 0.34382 0.11803 0.11455
H_ H_ 0.361148 0.497324 0.19221 0.11455
H_ H_ 0.393832 0.0736075 0.0966679 0.11455
H_ H_ 0.352774 0.484315 0.102633 0.11455
H_ H_ 0.332086 0.0769906 0.210688 0.11455
H_ H_ 0.329055 0.170482 0.20652 0.11455
H_ H_ 0.389518 0.156923 0.120451 0.11455
H_ H_ 0.421033 0.399626 0.218053 0.11455
H_ H_ 0.410488 0.438299 0.267093 0.11455
H_ H_ 0.365396 0.393336 0.306112 0.11455
H_ H_ 0.300791 0.265374 0.219649 0.11455
H_ H_ 0.266453 0.210269 0.255916 0.11455
H_ H_ 0.274272 0.236456 0.306712 0.11455
H_ H_ 0.473303 0.292895 0.367671 0.11455
H_ H_ 0.49016 0.29504 0.417554 0.11455
H_ H_ 0.224644 0.33008 0.387935 0.11455
H_ H_ 0.240766 0.318582 0.439669 0.11455
H_ H_ 0.436171 0.399836 0.498033 0.11455
H_ H_ 0.469584 0.43125 0.0467835 0.11455
H_ H_ 0.432286 0.387263 0.0901758 0.11455
H_ H_ 0.333239 0.262282 0.00754182 0.11455
H_ H_ 0.288803 0.229543 0.0480193 0.11455
H_ H_ 0.301547 0.264472 0.0961298 0.11455
C_ C_ 0.228355 0.183139 0.404449 0.68181
C_ C_ 0.282761 0.177642 0.400811 -0.05681
C_ C_ 0.315331 0.182562 0.424444 -0.08735
C_ C_ 0.367559 0.182205 0.42103 -0.05681
C_ C_ 0.388196 0.171326 0.394013 -0.05681
C_ C_ 0.35675 0.165105 0.36876 -0.08735
C_ C_ 0.305019 0.164165 0.37336 -0.08735
C_ C_ 0.400904 0.194711 0.443363 -0.08735
C_ C_ 0.453124 0.192232 0.440124 -0.08735
C_ C_ 0.477019 0.17962 0.413941 -0.05681
C_ C_ 0.442341 0.173008 0.389667 -0.08735
C_ C_ 0.120212 0.278716 0.410356 0.68181
C_ C_ 0.134854 0.078676 0.399513 0.68181
C_ C_ 0.137502 0.0224708 0.397093 -0.05681
C_ C_ 0.136048 0.495135 0.421261 -0.08735
C_ C_ 0.135548 0.441589 0.418303 -0.05681
C_ C_ 0.122155 0.419136 0.392945 -0.05681
C_ C_ 0.117509 0.450406 0.368182 -0.08735
C_ C_ 0.129384 0.501601 0.369845 -0.08735
C_ C_ 0.132876 0.411036 0.442804 -0.08735
C_ C_ 0.130861 0.358298 0.441684 -0.08735
C_ C_ 0.124658 0.335372 0.413788 -0.05681
C_ C_ 0.120909 0.367366 0.389811 -0.08735
C_ C_ 0.0321043 0.169367 0.408165 0.68181
C_ C_ 0.102445 0.12043 0.482879 0.1947
C_ C_ 0.100198 0.109062 0.0108453 -0.08735
C_ C_ 0.121442 0.134027 0.0344833 -0.08735
C_ C_ 0.14739 0.181381 0.0292405 -0.05681
C_ C_ 0.15183 0.197111 1.00001 0.18498
C_ C_ 0.183813 0.230318 0.495035 -0.08735
C_ C_ 0.192198 0.2748 0.0183444 -0.08735
C_ C_ 0.18375 0.259331 0.0465902 -0.08735
C_ C_ 0.16 0.211398 0.0522985 0.18498
C_ C_ 0.184371 0.188943 0.101577 0.44287
C_ C_ 0.0996145 0.20701 0.0923455 0.44287
C_ C_ 0.0854741 0.202003 0.122441 -0.05681
C_ C_ 0.0371978 0.206055 0.133422 -0.08735
C_ C_ 0.0267203 0.197525 0.162823 -0.08735
C_ C_ 0.0654859 0.180103 0.181616 -0.05681
C_ C_ 0.115138 0.175497 0.170078 -0.05681
C_ C_ 0.126113 0.189067 0.141847 -0.05681
C_ C_ 0.174787 0.184409 0.130777 -0.05681
C_ C_ 0.214153 0.179 0.149337 -0.08735
C_ C_ 0.20579 0.177408 0.179127 -0.08735
C_ C_ 0.155502 0.170766 0.189458 -0.05681
C_ C_ 0.145745 0.158637 0.218591 0.44287
C_ C_ 0.0589471 0.180682 0.212247 0.44287
C_ C_ 0.0908587 0.153644 0.259153 0.18498
C_ C_ 0.0713504 0.105322 0.266749 -0.08735
C_ C_ 0.0610127 0.0921454 0.294239 -0.08735
C_ C_ 0.0785777 0.122267 0.316203 -0.08735
C_ C_ 0.106349 0.166673 0.311345 0.18498
C_ C_ 0.109663 0.185361 0.282385 -0.05681
C_ C_ 0.13522 0.231343 0.277506 -0.08735
C_ C_ 0.156633 0.256586 0.301667 -0.08735
C_ C_ 0.154789 0.234529 0.328674 0.1947
C_ C_ 0.264034 0.329827 0.153662 0.68181
C_ C_ 0.209493 0.337356 0.151575 -0.05681
C_ C_ 0.179157 0.329193 0.175426 -0.08735
C_ C_ 0.126597 0.330098 0.171694 -0.05681
C_ C_ 0.106229 0.343031 0.143881 -0.05681
C_ C_ 0.137125 0.355388 0.122021 -0.08735
C_ C_ 0.189804 0.351812 0.124886 -0.08735
C_ C_ 0.093849 0.317729 0.194193 -0.08735
C_ C_ 0.0415762 0.321297 0.189332 -0.08735
C_ C_ 0.0183389 0.334373 0.162757 -0.05681
C_ C_ 0.0524933 0.344115 0.14102 -0.08735
C_ C_ 0.358961 0.227607 0.161449 0.68181
C_ C_ 0.361605 0.426927 0.150471 0.68181
C_ C_ 0.361495 0.483336 0.147288 -0.05681
C_ C_ 0.349864 0.0112047 0.169304 -0.08735
C_ C_ 0.351571 0.0646627 0.166504 -0.05681
C_ C_ 0.371121 0.0870549 0.1424 -0.05681
C_ C_ 0.383027 0.0571086 0.11794 -0.08735
C_ C_ 0.358073 0.506711 0.121169 -0.08735
C_ C_ 0.340264 0.0950809 0.190641 -0.08735
C_ C_ 0.345817 0.148181 0.189019 -0.08735
C_ C_ 0.363173 0.171714 0.164076 -0.05681
C_ C_ 0.372624 0.140615 0.140203 -0.08735
C_ C_ 0.46212 0.320719 0.157584 0.68181
C_ C_ 0.395784 0.381478 0.234255 0.1947
C_ C_ 0.394688 0.401377 0.262546 -0.08735
C_ C_ 0.367295 0.376857 0.284507 -0.08735
C_ C_ 0.345893 0.329321 0.278049 -0.05681
C_ C_ 0.339182 0.315465 0.248497 0.18498
C_ C_ 0.310176 0.27349 0.241572 -0.08735
C_ C_ 0.286847 0.245066 0.262407 -0.08735
C_ C_ 0.292879 0.257697 0.29054 -0.08735
C_ C_ 0.324534 0.298246 0.299277 0.18498
C_ C_ 0.296195 0.323852 0.34689 0.44287
C_ C_ 0.382136 0.293164 0.340419 0.44287
C_ C_ 0.393701 0.307634 0.369423 -0.05681
C_ C_ 0.442027 0.300813 0.380574 -0.08735
C_ C_ 0.450456 0.299435 0.409957 -0.08735
C_ C_ 0.411667 0.311223 0.430106 -0.05681
C_ C_ 0.360996 0.31852 0.41858 -0.05681
C_ C_ 0.353773 0.316545 0.388984 -0.05681
C_ C_ 0.303206 0.319729 0.377903 -0.05681
C_ C_ 0.262973 0.324034 0.396206 -0.08735
C_ C_ 0.27178 0.323326 0.426743 -0.08735
C_ C_ 0.320438 0.326408 0.436931 -0.05681
C_ C_ 0.330826 0.335298 0.466101 0.44287
C_ C_ 0.417056 0.311934 0.460009 0.44287
C_ C_ 0.391558 0.352721 0.00924603 0.18498
C_ C_ 0.422964 0.39437 0.0156849 -0.08735
C_ C_ 0.440961 0.403745 0.0440427 -0.08735
C_ C_ 0.421495 0.376275 0.0674826 -0.08735
C_ C_ 0.387075 0.337574 0.061451 0.18498
C_ C_ 0.374633 0.321903 0.0326942 -0.05681
C_ C_ 0.341222 0.279389 0.0285113 -0.08735
C_ C_ 0.312995 0.26216 0.0511519 -0.08735
C_ C_ 0.324365 0.279298 0.0783993 0.1947
N_ N_ 0.129317 0.165215 0.477656 -0.29468
N_ N_ 0.147678 0.198491 0.0824317 -0.17154
N_ N_ 0.0986654 0.166299 0.229253 -0.17154
N_ N_ 0.128021 0.191182 0.333584 -0.29468
N_ N_ 0.364297 0.342574 0.227482 -0.29468
N_ N_ 0.334393 0.304958 0.329027 -0.17154
N_ N_ 0.377856 0.324528 0.478149 -0.17154
N_ N_ 0.362013 0.312465 0.0836132 -0.29468
O_ O_ 0.208987 0.174225 0.428441 -0.58347
O_ O_ 0.202367 0.192698 0.382626 -0.58347
O_ O_ 0.130054 0.250071 0.431596 -0.58347
O_ O_ 0.116211 0.25873 0.385151 -0.58347
O_ O_ 0.135501 0.101119 0.424103 -0.58347
O_ O_ 0.137532 0.107108 0.378435 -0.58347
O_ O_ 0.0613005 0.178492 0.429781 -0.58347
O_ O_ 0.0521715 0.16442 0.384095 -0.58347
O_ O_ 0.0643924 0.219309 0.0748357 -0.46727
O_ O_ 0.231694 0.186907 0.0919965 -0.46727
O_ O_ 0.0137504 0.183203 0.223369 -0.46727
O_ O_ 0.182902 0.139777 0.234759 -0.46727
O_ O_ 0.283408 0.327427 0.178814 -0.58347
O_ O_ 0.292541 0.330166 0.130845 -0.58347
O_ O_ 0.360206 0.254396 0.184178 -0.58347
O_ O_ 0.355017 0.249991 0.136905 -0.58347
O_ O_ 0.348097 0.407287 0.174581 -0.58347
O_ O_ 0.370616 0.399155 0.129219 -0.58347
O_ O_ 0.43379 0.338354 0.17722 -0.58347
O_ O_ 0.444651 0.316087 0.132611 -0.58347
O_ O_ 0.421278 0.2844 0.32245 -0.46727
O_ O_ 0.25091 0.325168 0.337117 -0.46727
O_ O_ 0.463892 0.310906 0.46984 -0.46727
O_ O_ 0.29308 0.352107 0.48236 -0.46727
Zn Zn 0.129744 0.187622 0.881641 0.90689
Zn Zn 0.142107 0.180507 0.928771 0.90689
Zn Zn 0.366917 0.316126 0.631283 0.90689
Zn Zn 0.361364 0.323316 0.678272 0.90689
H_ H_ 0.305716 0.195751 0.947245 0.11455
H_ H_ 0.36597 0.150732 0.849227 0.11455
H_ H_ 0.28134 0.177176 0.858119 0.11455
H_ H_ 0.392098 0.187695 0.966276 0.11455
H_ H_ 0.48537 0.17368 0.957899 0.11455
H_ H_ 0.465254 0.153994 0.867498 0.11455
H_ H_ 0.168274 0.017303 0.940815 0.11455
H_ H_ 0.133457 0.436608 0.845147 0.11455
H_ H_ 0.104536 0.0274304 0.853857 0.11455
H_ H_ 0.13598 0.435 0.962512 0.11455
H_ H_ 0.127721 0.342627 0.959905 0.11455
H_ H_ 0.124577 0.357911 0.866288 0.11455
H_ H_ 0.0890329 0.105938 0.96555 0.11455
H_ H_ 0.0605947 0.0792633 0.514394 0.11455
H_ H_ 0.0809619 0.14067 0.551657 0.11455
H_ H_ 0.183427 0.256698 0.97318 0.11455
H_ H_ 0.222739 0.297401 0.509317 0.11455
H_ H_ 0.202223 0.275907 0.559586 0.11455
H_ H_ 0.00886903 0.198325 0.624586 0.11455
H_ H_ 0.00173881 0.197585 0.676276 0.11455
H_ H_ 0.252663 0.137205 0.630996 0.11455
H_ H_ 0.248014 0.135157 0.682332 0.11455
H_ H_ 0.091262 0.0761065 0.748761 0.11455
H_ H_ 0.0818586 0.0506824 0.798719 0.11455
H_ H_ 0.0875807 0.117721 0.837065 0.11455
H_ H_ 0.153672 0.254103 0.757642 0.11455
H_ H_ 0.19043 0.296555 0.796904 0.11455
H_ H_ 0.190206 0.25785 0.845895 0.11455
H_ H_ 0.195767 0.309349 0.693834 0.11455
H_ H_ 0.117035 0.318273 0.599004 0.11455
H_ H_ 0.212344 0.3297 0.605101 0.11455
H_ H_ 0.109663 0.31727 0.716464 0.11455
H_ H_ 0.0161193 0.306087 0.711233 0.11455
H_ H_ 0.0346991 0.326566 0.619188 0.11455
H_ H_ 0.372864 0.486202 0.694925 0.11455
H_ H_ 0.388632 0.0626596 0.596147 0.11455
H_ H_ 0.361532 0.473991 0.603112 0.11455
H_ H_ 0.36249 0.0714752 0.712662 0.11455
H_ H_ 0.356539 0.163287 0.706201 0.11455
H_ H_ 0.383092 0.147901 0.617633 0.11455
H_ H_ 0.404846 0.39697 0.720276 0.11455
H_ H_ 0.433562 0.408625 0.77039 0.11455
H_ H_ 0.406509 0.348662 0.807822 0.11455
H_ H_ 0.296141 0.249815 0.72298 0.11455
H_ H_ 0.271625 0.189769 0.76119 0.11455
H_ H_ 0.292834 0.209675 0.812216 0.11455
H_ H_ 0.481865 0.272301 0.878699 0.11455
H_ H_ 0.491485 0.284571 0.927866 0.11455
H_ H_ 0.239072 0.344136 0.883854 0.11455
H_ H_ 0.249842 0.367077 0.938064 0.11455
H_ H_ 0.435153 0.41871 -0.000865049 0.11455
H_ H_ 0.444195 0.433267 0.547388 0.11455
H_ H_ 0.410521 0.382241 0.587296 0.11455
H_ H_ 0.331119 0.248033 0.506108 0.11455
H_ H_ 0.306505 0.19765 0.54522 0.11455
H_ H_ 0.319309 0.230216 0.595222 0.11455
C_ C_ 0.231869 0.193081 0.907017 0.68181
C_ C_ 0.288502 0.188707 0.902332 -0.05681
C_ C_ 0.320296 0.183749 0.925597 -0.08735
C_ C_ 0.371325 0.173926 0.920862 -0.05681
C_ C_ 0.392031 0.166374 0.892929 -0.05681
C_ C_ 0.356022 0.166298 0.869277 -0.08735
C_ C_ 0.307496 0.180319 0.874249 -0.08735
C_ C_ 0.407156 0.177137 0.94426 -0.08735
C_ C_ 0.46014 0.169877 0.939842 -0.08735
C_ C_ 0.480823 0.161872 0.913011 -0.05681
C_ C_ 0.446858 0.156151 0.889536 -0.08735
C_ C_ 0.125139 0.284269 0.910651 0.68181
C_ C_ 0.143065 0.0880935 0.90044 0.68181
C_ C_ 0.140998 0.0305769 0.896786 -0.05681
C_ C_ 0.149749 0.497281 0.920838 -0.08735
C_ C_ 0.137298 0.446135 0.917949 -0.05681
C_ C_ 0.132503 0.423887 0.890638 -0.05681
C_ C_ 0.130539 0.454061 0.865527 -0.08735
C_ C_ 0.140078 0.508664 0.868784 -0.08735
C_ C_ 0.136157 0.417363 0.942093 -0.08735
C_ C_ 0.128098 0.364967 0.939969 -0.08735
C_ C_ 0.1242 0.340118 0.913041 -0.05681
C_ C_ 0.131364 0.372204 0.888284 -0.08735
C_ C_ 0.0383029 0.186363 0.904802 0.68181
C_ C_ 0.1045 0.128309 0.982015 0.1947
C_ C_ 0.0888423 0.108488 0.511498 -0.08735
C_ C_ 0.104268 0.140052 0.533657 -0.08735
C_ C_ 0.134803 0.182178 0.528502 -0.05681
C_ C_ 0.148104 0.192956 0.499476 0.18498
C_ C_ 0.173618 0.245432 0.995033 -0.08735
C_ C_ 0.198793 0.26478 0.516182 -0.08735
C_ C_ 0.181641 0.256199 0.543969 -0.08735
C_ C_ 0.148073 0.215988 0.550799 0.18498
C_ C_ 0.184875 0.181651 0.596324 0.44287
C_ C_ 0.0964901 0.203969 0.593198 0.44287
C_ C_ 0.0913226 0.191079 0.623802 -0.05681
C_ C_ 0.0423915 0.194225 0.637799 -0.08735
C_ C_ 0.0381473 0.194464 0.666999 -0.08735
C_ C_ 0.0827882 0.187941 0.683871 -0.05681
C_ C_ 0.130358 0.177877 0.669496 -0.05681
C_ C_ 0.134564 0.177181 0.639455 -0.05681
C_ C_ 0.18109 0.1718 0.625589 -0.05681
C_ C_ 0.22024 0.151301 0.640657 -0.08735
C_ C_ 0.214959 0.147498 0.67135 -0.08735
C_ C_ 0.17077 0.160857 0.68539 -0.05681
C_ C_ 0.167396 0.157424 0.715801 0.44287
C_ C_ 0.0798819 0.183917 0.713752 0.44287
C_ C_ 0.117481 0.153825 0.759246 0.18498
C_ C_ 0.101651 0.103459 0.765968 -0.08735
C_ C_ 0.0928643 0.0896294 0.794392 -0.08735
C_ C_ 0.103524 0.124374 0.815595 -0.08735
C_ C_ 0.125276 0.171814 0.810602 0.18498
C_ C_ 0.132278 0.186648 0.782286 -0.05681
C_ C_ 0.15255 0.235521 0.778067 -0.08735
C_ C_ 0.175452 0.259819 0.801295 -0.08735
C_ C_ 0.167205 0.243397 0.828699 0.1947
C_ C_ 0.265684 0.31034 0.654454 0.68181
C_ C_ 0.210055 0.313743 0.649401 -0.05681
C_ C_ 0.178899 0.30957 0.673868 -0.08735
C_ C_ 0.125936 0.313423 0.671239 -0.05681
C_ C_ 0.104121 0.316011 0.644613 -0.05681
C_ C_ 0.135655 0.318165 0.620029 -0.08735
C_ C_ 0.189222 0.318145 0.622604 -0.08735
C_ C_ 0.0946642 0.317728 0.695315 -0.08735
C_ C_ 0.0414173 0.313223 0.691572 -0.08735
C_ C_ 0.0193619 0.310896 0.665145 -0.05681
C_ C_ 0.0506083 0.31722 0.64057 -0.08735
C_ C_ 0.37328 0.221488 0.660419 0.68181
C_ C_ 0.35904 0.41741 0.651307 0.68181
C_ C_ 0.372742 0.472605 0.649021 -0.05681
C_ C_ 0.371905 0.00522118 0.671468 -0.08735
C_ C_ 0.374871 0.0580392 0.668654 -0.05681
C_ C_ 0.38225 0.0798766 0.641435 -0.05681
C_ C_ 0.382043 0.0478803 0.617603 -0.08735
C_ C_ 0.370468 0.496695 0.622111 -0.08735
C_ C_ 0.369625 0.0880414 0.691436 -0.08735
C_ C_ 0.368387 0.141115 0.689169 -0.08735
C_ C_ 0.376484 0.163667 0.662586 -0.05681
C_ C_ 0.385601 0.13142 0.638735 -0.08735
C_ C_ 0.464131 0.323587 0.656636 0.68181
C_ C_ 0.394504 0.36932 0.735891 0.1947
C_ C_ 0.403587 0.380604 0.764543 -0.08735
C_ C_ 0.390852 0.344496 0.786093 -0.08735
C_ C_ 0.353191 0.307502 0.78087 -0.05681
C_ C_ 0.342259 0.299071 0.750621 0.18498
C_ C_ 0.308663 0.25704 0.744214 -0.08735
C_ C_ 0.296204 0.22261 0.766043 -0.08735
C_ C_ 0.304799 0.235088 0.794962 -0.08735
C_ C_ 0.339653 0.27467 0.802461 0.18498
C_ C_ 0.309565 0.310564 0.849513 0.44287
C_ C_ 0.394211 0.278641 0.846414 0.44287
C_ C_ 0.40111 0.29067 0.876383 -0.05681
C_ C_ 0.451794 0.287066 0.889698 -0.08735
C_ C_ 0.45606 0.297737 0.918246 -0.08735
C_ C_ 0.415425 0.314129 0.935021 -0.05681
C_ C_ 0.366428 0.32082 0.921923 -0.05681
C_ C_ 0.360765 0.309415 0.892174 -0.05681
C_ C_ 0.314549 0.320247 0.878827 -0.05681
C_ C_ 0.273589 0.337512 0.894689 -0.08735
C_ C_ 0.278822 0.347556 0.925423 -0.08735
C_ C_ 0.326383 0.338852 0.938726 -0.05681
C_ C_ 0.335281 0.34552 0.967938 0.44287
C_ C_ 0.420177 0.3178 0.963791 0.44287
C_ C_ 0.389297 0.337761 0.508321 0.18498
C_ C_ 0.418144 0.38014 0.515333 -0.08735
C_ C_ 0.425622 0.396641 0.543771 -0.08735
C_ C_ 0.403697 0.370171 0.566148 -0.08735
C_ C_ 0.37988 0.323272 0.560112 0.18498
C_ C_ 0.367604 0.309617 0.530969 -0.05681
C_ C_ 0.342756 0.261017 0.526374 -0.08735
C_ C_ 0.325058 0.234082 0.54984 -0.08735
C_ C_ 0.334985 0.251723 0.577766 0.1947
N_ N_ 0.131683 0.17215 0.977088 -0.29468
N_ N_ 0.143289 0.198662 0.580611 -0.17154
N_ N_ 0.12307 0.169129 0.729306 -0.17154
N_ N_ 0.139598 0.201486 0.83295 -0.29468
N_ N_ 0.366593 0.326498 0.728968 -0.29468
N_ N_ 0.348966 0.288049 0.832671 -0.17154
N_ N_ 0.381433 0.337984 0.979481 -0.17154
N_ N_ 0.362141 0.296669 0.583076 -0.29468
O_ O_ 0.213717 0.177373 0.930259 -0.58347
O_ O_ 0.203593 0.199507 0.886123 -0.58347
O_ O_ 0.136076 0.256107 0.931668 -0.58347
O_ O_ 0.122744 0.26408 0.886638 -0.58347
O_ O_ 0.146106 0.107169 0.924642 -0.58347
O_ O_ 0.140258 0.116145 0.878707 -0.58347
O_ O_ 0.066152 0.18175 0.927066 -0.58347
O_ O_ 0.0571297 0.180493 0.880047 -0.58347
O_ O_ 0.05784 0.228528 0.5801 -0.46727
O_ O_ 0.228979 0.187461 0.584792 -0.46727
O_ O_ 0.0358317 0.181473 0.726482 -0.46727
O_ O_ 0.203595 0.137996 0.731002 -0.46727
O_ O_ 0.284589 0.320322 0.67887 -0.58347
O_ O_ 0.2936 0.304678 0.632906 -0.58347
O_ O_ 0.363233 0.247633 0.681772 -0.58347
O_ O_ 0.373846 0.240544 0.634872 -0.58347
O_ O_ 0.360576 0.395418 0.674753 -0.58347
O_ O_ 0.355851 0.391104 0.628708 -0.58347
O_ O_ 0.434415 0.32878 0.678083 -0.58347
O_ O_ 0.444322 0.322642 0.631178 -0.58347
O_ O_ 0.432081 0.261848 0.83063 -0.46727
O_ O_ 0.26533 0.320111 0.83748 -0.46727
O_ O_ 0.464537 0.308505 0.976333 -0.46727
O_ O_ 0.303701 0.373556 0.982884 -0.46727
Zn Zn 0.127859 0.681615 0.380168 0.90689
Zn Zn 0.137155 0.679099 0.427756 0.90689
Zn Zn 0.376109 0.824288 0.131829 0.90689
Zn Zn 0.368234 0.82837 0.179189 0.90689
H_ H_ 0.302917 0.69348 0.447397 0.11455
H_ H_ 0.374041 0.66533 0.350222 0.11455
H_ H_ 0.283686 0.67596 0.356233 0.11455
H_ H_ 0.391301 0.694719 0.467165 0.11455
H_ H_ 0.480484 0.689162 0.459435 0.11455
H_ H_ 0.460848 0.672411 0.37061 0.11455
H_ H_ 0.133885 0.514378 0.441908 0.11455
H_ H_ 0.164408 0.929786 0.349679 0.11455
H_ H_ 0.1238 0.523306 0.350175 0.11455
H_ H_ 0.0995709 0.925758 0.463527 0.11455
H_ H_ 0.106094 0.834596 0.460569 0.11455
H_ H_ 0.124105 0.851799 0.367972 0.11455
H_ H_ 0.0691525 0.613677 0.468134 0.11455
H_ H_ 0.0762336 0.580027 0.00769232 0.11455
H_ H_ 0.109768 0.624814 0.0509614 0.11455
H_ H_ 0.191637 0.746959 0.470638 0.11455
H_ H_ 0.241677 0.798284 0.014488 0.11455
H_ H_ 0.204985 0.781236 0.0612597 0.11455
H_ H_ 0.021854 0.699545 0.117458 0.11455
H_ H_ 0.0103552 0.689109 0.167335 0.11455
H_ H_ 0.273859 0.666277 0.138866 0.11455
H_ H_ 0.264014 0.673336 0.189287 0.11455
H_ H_ 0.0723409 0.600145 0.241194 0.11455
H_ H_ 0.0488618 0.572446 0.291294 0.11455
H_ H_ 0.0722663 0.622231 0.332 0.11455
H_ H_ 0.171203 0.754093 0.261216 0.11455
H_ H_ 0.205697 0.789338 0.306353 0.11455
H_ H_ 0.191699 0.748869 0.351135 0.11455
H_ H_ 0.201817 0.805512 0.19298 0.11455
H_ H_ 0.128604 0.833812 0.0986836 0.11455
H_ H_ 0.221451 0.832876 0.105144 0.11455
H_ H_ 0.117461 0.802745 0.216391 0.11455
H_ H_ 0.0250734 0.80607 0.205137 0.11455
H_ H_ 0.046387 0.849817 0.118393 0.11455
H_ H_ 0.339173 0.994401 0.189507 0.11455
H_ H_ 0.367693 0.574241 0.0966023 0.11455
H_ H_ 0.405107 0.985781 0.105805 0.11455
H_ H_ 0.383068 0.585031 0.214521 0.11455
H_ H_ 0.402376 0.672979 0.208966 0.11455
H_ H_ 0.371391 0.662216 0.118253 0.11455
H_ H_ 0.42338 0.901249 0.214559 0.11455
H_ H_ 0.430093 0.935553 0.264751 0.11455
H_ H_ 0.39461 0.884468 0.306113 0.11455
H_ H_ 0.319324 0.754537 0.220732 0.11455
H_ H_ 0.293 0.702536 0.260688 0.11455
H_ H_ 0.293933 0.735719 0.311983 0.11455
H_ H_ 0.486534 0.798041 0.372743 0.11455
H_ H_ 0.498291 0.806587 0.422996 0.11455
H_ H_ 0.239946 0.856486 0.388429 0.11455
H_ H_ 0.253701 0.868065 0.440118 0.11455
H_ H_ 0.441496 0.922094 0.501963 0.11455
H_ H_ 0.474193 0.930082 0.0475311 0.11455
H_ H_ 0.431291 0.884043 0.0893554 0.11455
H_ H_ 0.35821 0.756232 0.00388075 0.11455
H_ H_ 0.328519 0.703444 0.0451438 0.11455
H_ H_ 0.329438 0.743949 0.096078 0.11455
C_ C_ 0.232505 0.689365 0.404663 0.68181
C_ C_ 0.287782 0.686427 0.402144 -0.05681
C_ C_ 0.319385 0.694188 0.426191 -0.08735
C_ C_ 0.373227 0.695481 0.422929 -0.05681
C_ C_ 0.391867 0.685263 0.39453 -0.05681
C_ C_ 0.360368 0.677736 0.37113 -0.08735
C_ C_ 0.308555 0.681181 0.374423 -0.08735
C_ C_ 0.40553 0.698309 0.446108 -0.08735
C_ C_ 0.45782 0.694505 0.441224 -0.08735
C_ C_ 0.477069 0.686641 0.413571 -0.05681
C_ C_ 0.443794 0.677845 0.391437 -0.08735
C_ C_ 0.122924 0.777752 0.412102 0.68181
C_ C_ 0.136905 0.580833 0.397491 0.68181
C_ C_ 0.135456 0.52545 0.396019 -0.05681
C_ C_ 0.120896 0.99123 0.41987 -0.08735
C_ C_ 0.124007 0.939817 0.418724 -0.05681
C_ C_ 0.137632 0.917351 0.392469 -0.05681
C_ C_ 0.145939 0.947 0.368996 -0.08735
C_ C_ 0.152245 0.99839296 0.371989 -0.08735
C_ C_ 0.109813 0.910317 0.443099 -0.08735
C_ C_ 0.11591 0.857525 0.440966 -0.08735
C_ C_ 0.121826 0.833267 0.413955 -0.05681
C_ C_ 0.133557 0.864495 0.389874 -0.08735
C_ C_ 0.0334718 0.674515 0.405031 0.68181
C_ C_ 0.0936574 0.63331 0.483499 0.1947
C_ C_ 0.10674 0.607218 0.00492232 -0.08735
C_ C_ 0.123733 0.63456 0.0291348 -0.08735
C_ C_ 0.153628 0.678486 0.0260466 -0.05681
C_ C_ 0.168829 0.691939 0.997343 0.18498
C_ C_ 0.188096 0.734855 0.49207 -0.08735
C_ C_ 0.217368 0.764348 0.0169112 -0.08735
C_ C_ 0.195857 0.755989 0.0437905 -0.08735
C_ C_ 0.168864 0.710072 0.0497059 0.18498
C_ C_ 0.202043 0.685434 0.0957757 0.44287
C_ C_ 0.113835 0.700867 0.0900818 0.44287
C_ C_ 0.10666 0.703674 0.120628 -0.05681
C_ C_ 0.0574615 0.702113 0.131376 -0.08735
C_ C_ 0.0508679 0.691144 0.160539 -0.08735
C_ C_ 0.091473 0.692524 0.180062 -0.05681
C_ C_ 0.139468 0.691323 0.168953 -0.05681
C_ C_ 0.14824 0.693933 0.139102 -0.05681
C_ C_ 0.197774 0.689936 0.126373 -0.05681
C_ C_ 0.236883 0.676018 0.145667 -0.08735
C_ C_ 0.229382 0.673796 0.176274 -0.08735
C_ C_ 0.181732 0.687122 0.187763 -0.05681
C_ C_ 0.173178 0.680536 0.217954 0.44287
C_ C_ 0.0829176 0.69194 0.209078 0.44287
C_ C_ 0.11217 0.667786 0.255933 0.18498
C_ C_ 0.0840334 0.620684 0.25996 -0.08735
C_ C_ 0.0690999 0.606226 0.288133 -0.08735
C_ C_ 0.0860352 0.631464 0.312053 -0.08735
C_ C_ 0.118414 0.67212 0.309589 0.18498
C_ C_ 0.13275 0.69098 0.281525 -0.05681
C_ C_ 0.161859 0.736084 0.281709 -0.08735
C_ C_ 0.179823 0.758138 0.306401 -0.08735
C_ C_ 0.170338 0.736415 0.333058 0.1947
C_ C_ 0.273766 0.815985 0.154094 0.68181
C_ C_ 0.218752 0.821567 0.150721 -0.05681
C_ C_ 0.186046 0.814765 0.174105 -0.08735
C_ C_ 0.133112 0.817201 0.171548 -0.05681
C_ C_ 0.114195 0.82835 0.143751 -0.05681
C_ C_ 0.146232 0.829748 0.120311 -0.08735
C_ C_ 0.197337 0.829743 0.123192 -0.08735
C_ C_ 0.101287 0.811979 0.194466 -0.08735
C_ C_ 0.0475863 0.817241 0.18966 -0.08735
C_ C_ 0.0279137 0.829325 0.162731 -0.05681
C_ C_ 0.0622696 0.839236 0.140279 -0.08735
C_ C_ 0.385777 0.730329 0.160752 0.68181
C_ C_ 0.36777 0.924451 0.150203 0.68181
C_ C_ 0.369415 0.980932 0.146979 -0.05681
C_ C_ 0.361367 0.515039 0.172064 -0.08735
C_ C_ 0.369143 0.566666 0.169433 -0.05681
C_ C_ 0.370932 0.59048 0.142195 -0.05681
C_ C_ 0.360008 0.560267 0.118804 -0.08735
C_ C_ 0.388166 0.00574678 0.121626 -0.08735
C_ C_ 0.380994 0.600718 0.193166 -0.08735
C_ C_ 0.387533 0.653593 0.19039 -0.08735
C_ C_ 0.384407 0.675414 0.163855 -0.05681
C_ C_ 0.373655 0.645053 0.139807 -0.08735
C_ C_ 0.470497 0.830294 0.155555 0.68181
C_ C_ 0.403498 0.881901 0.23271 0.1947
C_ C_ 0.40891 0.902191 0.260229 -0.08735
C_ C_ 0.388354 0.874083 0.283697 -0.08735
C_ C_ 0.360144 0.829082 0.278472 -0.05681
C_ C_ 0.35349 0.812308 0.249261 0.18498
C_ C_ 0.327442 0.767725 0.243542 -0.08735
C_ C_ 0.31157 0.737512 0.265261 -0.08735
C_ C_ 0.311955 0.754832 0.293598 -0.08735
C_ C_ 0.341474 0.798118 0.301387 0.18498
C_ C_ 0.310292 0.831789 0.347586 0.44287
C_ C_ 0.395501 0.807318 0.342847 0.44287
C_ C_ 0.406912 0.820285 0.371883 -0.05681
C_ C_ 0.455501 0.813909 0.384092 -0.08735
C_ C_ 0.461241 0.814577 0.413611 -0.08735
C_ C_ 0.418692 0.828199 0.431461 -0.05681
C_ C_ 0.372794 0.840555 0.420115 -0.05681
C_ C_ 0.365901 0.835501 0.389566 -0.05681
C_ C_ 0.316737 0.839696 0.378221 -0.05681
C_ C_ 0.276886 0.851183 0.39693 -0.08735
C_ C_ 0.285561 0.85655 0.426609 -0.08735
C_ C_ 0.330669 0.847795 0.437794 -0.05681
C_ C_ 0.33872 0.855437 0.467 0.44287
C_ C_ 0.423368 0.830153 0.461681 0.44287
C_ C_ 0.402817 0.847412 0.00839356 0.18498
C_ C_ 0.433528 0.890128 0.0152727 -0.08735
C_ C_ 0.448318 0.900091 0.0436058 -0.08735
C_ C_ 0.425998 0.872054 0.067119 -0.08735
C_ C_ 0.391637 0.83373 0.0612089 0.18498
C_ C_ 0.387994 0.815196 0.031917 -0.05681
C_ C_ 0.360618 0.770637 0.0262065 -0.08735
C_ C_ 0.346922 0.73942 0.0502196 -0.08735
C_ C_ 0.347544 0.761346 0.0774492 0.1947
N_ N_ 0.129195 0.668251 0.476565 -0.29468
N_ N_ 0.161363 0.697963 0.0785486 -0.17154
N_ N_ 0.123561 0.68717 0.227647 -0.17154
N_ N_ 0.140438 0.69377 0.333158 -0.29468
N_ N_ 0.374508 0.840232 0.22732 -0.29468
N_ N_ 0.349171 0.811518 0.331296 -0.17154
N_ N_ 0.385946 0.846029 0.478698 -0.17154
N_ N_ 0.373361 0.80494 0.0826331 -0.29468
O_ O_ 0.212799 0.691485 0.428505 -0.58347
O_ O_ 0.204942 0.67968 0.383245 -0.58347
O_ O_ 0.122712 0.751253 0.434741 -0.58347
O_ O_ 0.125631 0.757275 0.388013 -0.58347
O_ O_ 0.14723 0.602048 0.422047 -0.58347
O_ O_ 0.128965 0.608487 0.374869 -0.58347
O_ O_ 0.0627607 0.669833 0.426068 -0.58347
O_ O_ 0.0527452 0.684691 0.379852 -0.58347
O_ O_ 0.0757232 0.710614 0.0736252 -0.46727
O_ O_ 0.248131 0.685325 0.083883 -0.46727
O_ O_ 0.0355278 0.696516 0.218282 -0.46727
O_ O_ 0.210283 0.675148 0.236131 -0.46727
O_ O_ 0.292695 0.819639 0.178565 -0.58347
O_ O_ 0.301277 0.816171 0.131234 -0.58347
O_ O_ 0.386261 0.75754 0.183425 -0.58347
O_ O_ 0.376782 0.750892 0.136967 -0.58347
O_ O_ 0.361435 0.903785 0.174109 -0.58347
O_ O_ 0.371181 0.898114 0.127626 -0.58347
O_ O_ 0.442357 0.840412 0.177728 -0.58347
O_ O_ 0.44988 0.827375 0.130525 -0.58347
O_ O_ 0.435346 0.80276 0.326098 -0.46727
O_ O_ 0.263256 0.838809 0.336581 -0.46727
O_ O_ 0.464432 0.81686 0.4741 -0.46727
O_ O_ 0.306631 0.883546 0.482131 -0.46727
Zn Zn 0.137736 0.691366 0.87906 0.90689
Zn Zn 0.14879 0.681448 0.927534 0.90689
Zn Zn 0.37454 0.815467 0.631415 0.90689
Zn Zn 0.361315 0.821835 0.680032 0.90689
H_ H_ 0.311375 0.704311 0.940592 0.11455
H_ H_ 0.385951 0.666798 0.844222 0.11455
H_ H_ 0.295629 0.674137 0.85021 0.11455
H_ H_ 0.403505 0.703841 0.961881 0.11455
H_ H_ 0.487083 0.688878 0.953698 0.11455
H_ H_ 0.468236 0.665703 0.863379 0.11455
H_ H_ 0.161799 0.510638 0.941011 0.11455
H_ H_ 0.0937239 0.938279 0.852041 0.11455
H_ H_ 0.146769 0.534564 0.850783 0.11455
H_ H_ 0.167374 0.929017 0.964927 0.11455
H_ H_ 0.163057 0.833482 0.956552 0.11455
H_ H_ 0.101069 0.852501 0.874383 0.11455
H_ H_ 0.0988572 0.606801 0.95958 0.11455
H_ H_ 0.0638108 0.585734 0.516714 0.11455
H_ H_ 0.0987585 0.631462 0.555316 0.11455
H_ H_ 0.213688 0.748543 0.973714 0.11455
H_ H_ 0.236221 0.792914 0.508881 0.11455
H_ H_ 0.213874 0.772541 0.558205 0.11455
H_ H_ 1.019668 0.695023 0.619316 0.11455
H_ H_ 1.00654718 0.674665 0.669132 0.11455
H_ H_ 0.27033 0.669271 0.637711 0.11455
H_ H_ 0.259089 0.651109 0.686793 0.11455
H_ H_ 0.068953 0.580558 0.746688 0.11455
H_ H_ 0.0543121 0.559844 0.799663 0.11455
H_ H_ 0.0736978 0.622363 0.835771 0.11455
H_ H_ 0.169676 0.729613 0.75212 0.11455
H_ H_ 0.202573 0.785145 0.789096 0.11455
H_ H_ 0.194911 0.752616 0.839601 0.11455
H_ H_ 0.192499 0.790681 0.691499 0.11455
H_ H_ 0.130768 0.837765 0.594254 0.11455
H_ H_ 0.219087 0.845054 0.606615 0.11455
H_ H_ 0.108638 0.795197 0.709439 0.11455
H_ H_ 0.0150512 0.799581 0.701292 0.11455
H_ H_ 0.0403471 0.827356 0.610333 0.11455
H_ H_ 0.378262 0.988099 0.693354 0.11455
H_ H_ 0.35938 0.567433 0.599611 0.11455
H_ H_ 0.372466 0.97267 0.601971 0.11455
H_ H_ 0.400269 0.573024 0.716099 0.11455
H_ H_ 0.41639 0.664014 0.708066 0.11455
H_ H_ 0.375868 0.648328 0.620929 0.11455
H_ H_ 0.419019 0.897971 0.715526 0.11455
H_ H_ 0.438988 0.922306 0.76549 0.11455
H_ H_ 0.39789 0.875225 0.805728 0.11455
H_ H_ 0.310437 0.759791 0.720403 0.11455
H_ H_ 0.2803 0.704767 0.757778 0.11455
H_ H_ 0.304346 0.721419 0.80757 0.11455
H_ H_ 0.49483 0.780731 0.873058 0.11455
H_ H_ 0.506634 0.801458 0.922456 0.11455
H_ H_ 0.249595 0.830395 0.88435 0.11455
H_ H_ 0.26174 0.851958 0.936153 0.11455
H_ H_ 0.446304 0.912718 0.997216 0.11455
H_ H_ 0.465772 0.932895 0.552369 0.11455
H_ H_ 0.432095 0.876894 0.587652 0.11455
H_ H_ 0.333013 0.770569 0.503311 0.11455
H_ H_ 0.299475 0.717886 0.545291 0.11455
H_ H_ 0.325614 0.737051 0.593494 0.11455
C_ C_ 0.243769 0.691807 0.900077 0.68181
C_ C_ 0.296748 0.689771 0.89667 -0.05681
C_ C_ 0.3287 0.702534 0.919359 -0.08735
C_ C_ 0.381939 0.698688 0.916085 -0.05681
C_ C_ 0.401976 0.686974 0.888152 -0.05681
C_ C_ 0.369387 0.680273 0.864253 -0.08735
C_ C_ 0.317356 0.678059 0.869277 -0.08735
C_ C_ 0.412512 0.694253 0.939522 -0.08735
C_ C_ 0.464585 0.68631 0.935928 -0.08735
C_ C_ 0.486344 0.683137 0.908373 -0.05681
C_ C_ 0.454929 0.679012 0.884717 -0.08735
C_ C_ 0.141965 0.784049 0.909213 0.68181
C_ C_ 0.14857 0.586895 0.899821 0.68181
C_ C_ 0.150299 0.5297 0.896553 -0.05681
C_ C_ 0.152348 0.999787 0.921556 -0.08735
C_ C_ 0.146163 0.947448 0.920427 -0.05681
C_ C_ 0.130429 0.923299 0.894259 -0.05681
C_ C_ 0.114679 0.953319 0.871173 -0.08735
C_ C_ 0.117454 0.00750675 0.872766 -0.08735
C_ C_ 0.162627 0.914131 0.942418 -0.08735
C_ C_ 0.157601 0.861024 0.939372 -0.08735
C_ C_ 0.143606 0.839415 0.912993 -0.05681
C_ C_ 0.122809 0.871278 0.891676 -0.08735
C_ C_ 0.0433896 0.676537 0.904593 0.68181
C_ C_ 0.116088 0.626914 0.978146 0.1947
C_ C_ 0.0883843 0.61686 0.512082 -0.08735
C_ C_ 0.112933 0.640623 0.534457 -0.08735
C_ C_ 0.148892 0.680247 0.52841 -0.05681
C_ C_ 0.154982 0.694595 0.498556 0.18498
C_ C_ 0.202226 0.735193 0.993256 -0.08735
C_ C_ 0.209296 0.763733 0.513508 -0.08735
C_ C_ 0.196423 0.753781 0.541237 -0.08735
C_ C_ 0.16757 0.710815 0.54914 0.18498
C_ C_ 0.198905 0.692102 0.597583 0.44287
C_ C_ 0.110671 0.702437 0.590721 0.44287
C_ C_ 0.100589 0.692112 0.620801 -0.05681
C_ C_ 0.0527941 0.691891 0.632519 -0.08735
C_ C_ 0.0451978 0.682838 0.661565 -0.08735
C_ C_ 0.0858004 0.667163 0.679332 -0.05681
C_ C_ 0.134686 0.665343 0.667645 -0.05681
C_ C_ 0.142036 0.675344 0.637867 -0.05681
C_ C_ 0.19105 0.677282 0.626528 -0.05681
C_ C_ 0.232028 0.664481 0.644756 -0.08735
C_ C_ 0.224767 0.654571 0.673363 -0.08735
C_ C_ 0.176586 0.651823 0.685011 -0.05681
C_ C_ 0.166431 0.647372 0.715104 0.44287
C_ C_ 0.0808462 0.668128 0.710074 0.44287
C_ C_ 0.112419 0.646691 0.756571 0.18498
C_ C_ 0.0844017 0.602945 0.763819 -0.08735
C_ C_ 0.0732026 0.594278 0.792473 -0.08735
C_ C_ 0.0859902 0.628643 0.813904 -0.08735
C_ C_ 0.117579 0.6685 0.808029 0.18498
C_ C_ 0.12999 0.678583 0.779727 -0.05681
C_ C_ 0.157231 0.723532 0.773487 -0.08735
C_ C_ 0.17777 0.752475 0.794817 -0.08735
C_ C_ 0.17172 0.73659 0.823241 0.1947
C_ C_ 0.268282 0.816184 0.6537 0.68181
C_ C_ 0.212149 0.813663 0.64815 -0.05681
C_ C_ 0.178709 0.804814 0.670429 -0.08735
C_ C_ 0.125374 0.806782 0.664795 -0.05681
C_ C_ 0.107865 0.812881 0.637044 -0.05681
C_ C_ 0.142121 0.827921 0.615791 -0.08735
C_ C_ 0.194105 0.830396 0.621637 -0.08735
C_ C_ 0.0929271 0.799191 0.68714 -0.08735
C_ C_ 0.0402604 0.80661 0.683089 -0.08735
C_ C_ 0.0221294 0.814261 0.655773 -0.05681
C_ C_ 0.0558906 0.815727 0.632984 -0.08735
C_ C_ 0.382296 0.720105 0.663695 0.68181
C_ C_ 0.371723 0.916738 0.651664 0.68181
C_ C_ 0.37062 0.972525 0.647795 -0.05681
C_ C_ 0.38041 0.501907 0.674117 -0.08735
C_ C_ 0.383247 0.555484 0.670567 -0.05681
C_ C_ 0.375204 0.579761 0.644473 -0.05681
C_ C_ 0.367833 0.54829 0.620209 -0.08735
C_ C_ 0.376666 0.995827 0.620419 -0.08735
C_ C_ 0.391341 0.586929 0.69448 -0.08735
C_ C_ 0.392843 0.640424 0.692604 -0.08735
C_ C_ 0.377626 0.662621 0.666591 -0.05681
C_ C_ 0.371192 0.631966 0.64205 -0.08735
C_ C_ 0.46707 0.821318 0.658183 0.68181
C_ C_ 0.399902 0.877717 0.732894 0.1947
C_ C_ 0.410131 0.893322 0.761305 -0.08735
C_ C_ 0.388862 0.865028 0.78364 -0.08735
C_ C_ 0.365755 0.81912 0.777004 -0.05681
C_ C_ 0.356043 0.804795 0.747571 0.18498
C_ C_ 0.326506 0.76354 0.741822 -0.08735
C_ C_ 0.308373 0.732551 0.763612 -0.08735
C_ C_ 0.321916 0.7432 0.791598 -0.08735
C_ C_ 0.353093 0.782879 0.798949 0.18498
C_ C_ 0.32041 0.808142 0.847091 0.44287
C_ C_ 0.40738 0.792686 0.842412 0.44287
C_ C_ 0.415163 0.807291 0.871318 -0.05681
C_ C_ 0.462605 0.798178 0.884708 -0.08735
C_ C_ 0.470855 0.804765 0.914185 -0.08735
C_ C_ 0.431272 0.819917 0.932026 -0.05681
C_ C_ 0.381363 0.824616 0.919477 -0.05681
C_ C_ 0.373873 0.817562 0.888927 -0.05681
C_ C_ 0.326984 0.818964 0.876255 -0.05681
C_ C_ 0.285708 0.829181 0.893472 -0.08735
C_ C_ 0.292993 0.842746 0.92221 -0.08735
C_ C_ 0.340068 0.836518 0.935995 -0.05681
C_ C_ 0.348204 0.844934 0.965581 0.44287
C_ C_ 0.436646 0.822012 0.961325 0.44287
C_ C_ 0.393269 0.854879 0.509397 0.18498
C_ C_ 0.426214 0.896884 0.517542 -0.08735
C_ C_ 0.435661 0.907735 0.546418 -0.08735
C_ C_ 0.41694 0.873594 0.5672 -0.08735
C_ C_ 0.384604 0.834027 0.560291 0.18498
C_ C_ 0.373372 0.821799 0.531858 -0.05681
C_ C_ 0.34605 0.778225 0.526282 -0.08735
C_ C_ 0.325353 0.749587 0.548403 -0.08735
C_ C_ 0.333106 0.766282 0.576489 0.1947
N_ N_ 0.14518 0.6683 0.974404 -0.29468
N_ N_ 0.158744 0.69763 0.579275 -0.17154
N_ N_ 0.120437 0.656263 0.726403 -0.17154
N_ N_ 0.136881 0.699115 0.829492 -0.29468
N_ N_ 0.371255 0.835877 0.726605 -0.29468
N_ N_ 0.360955 0.796137 0.830242 -0.17154
N_ N_ 0.395278 0.835524 0.978089 -0.17154
N_ N_ 0.36445 0.806269 0.582495 -0.29468
O_ O_ 0.222449 0.69549 0.924194 -0.58347
O_ O_ 0.215583 0.690489 0.878417 -0.58347
O_ O_ 0.146549 0.753488 0.930095 -0.58347
O_ O_ 0.138366 0.765796 0.884579 -0.58347
O_ O_ 0.158413 0.607514 0.924178 -0.58347
O_ O_ 0.14221 0.614783 0.877295 -0.58347
O_ O_ 0.0716041 0.668807 0.926724 -0.58347
O_ O_ 0.0618295 0.690981 0.881168 -0.58347
O_ O_ 0.0731978 0.717642 0.574567 -0.46727
O_ O_ 0.245122 0.69133 0.585749 -0.46727
O_ O_ 0.037734 0.67697 0.721911 -0.46727
O_ O_ 0.206282 0.635549 0.73131 -0.46727
O_ O_ 0.285295 0.816944 0.678904 -0.58347
O_ O_ 0.299023 0.810749 0.633081 -0.58347
O_ O_ 0.372596 0.745891 0.685431 -0.58347
O_ O_ 0.373564 0.738189 0.638388 -0.58347
O_ O_ 0.356697 0.896268 0.675223 -0.58347
O_ O_ 0.375631 0.889074 0.629318 -0.58347
O_ O_ 0.437226 0.830435 0.678904 -0.58347
O_ O_ 0.44933 0.815638 0.633123 -0.58347
O_ O_ 0.444259 0.775137 0.827192 -0.46727
O_ O_ 0.275509 0.809952 0.835212 -0.46727
O_ O_ 0.480873 0.812031 0.973115 -0.46727
O_ O_ 0.313672 0.864552 0.981842 -0.46727
Zn Zn 0.630687 0.18998 0.381454 0.90689
Zn Zn 0.638303 0.180636 0.428893 0.90689
Zn Zn 0.870453 0.316828 0.131976 0.90689
Zn Zn 0.859088 0.323256 0.180623 0.90689
H_ H_ 0.803607 0.190011 0.443181 0.11455
H_ H_ 0.874705 0.174575 0.345182 0.11455
H_ H_ 0.781034 0.164249 0.352381 0.11455
H_ H_ 0.887899 0.19644 0.462834 0.11455
H_ H_ 0.982392 0.189094 0.458067 0.11455
H_ H_ 0.964085 0.175261 0.365943 0.11455
H_ H_ 0.618866 0.0154207 0.442139 0.11455
H_ H_ 0.59992 0.435057 0.353961 0.11455
H_ H_ 0.644776 0.0259789 0.351851 0.11455
H_ H_ 0.64064 0.429462 0.470296 0.11455
H_ H_ 0.634409 0.335522 0.46409 0.11455
H_ H_ 0.599814 0.35511 0.374217 0.11455
H_ H_ 0.585434 0.108732 0.464418 0.11455
H_ H_ 0.575685 0.0638392 0.0139622 0.11455
H_ H_ 0.601661 0.119809 0.0561728 0.11455
H_ H_ 0.69668 0.245106 0.47001 0.11455
H_ H_ 0.704592 0.301224 0.010086 0.11455
H_ H_ 0.679528 0.284904 0.0602053 0.11455
H_ H_ 0.508685 0.204796 0.124315 0.11455
H_ H_ 0.498971 0.187727 0.172584 0.11455
H_ H_ 0.758076 0.144062 0.136726 0.11455
H_ H_ 0.746975 0.134166 0.187454 0.11455
H_ H_ 0.563762 0.08957 0.250637 0.11455
H_ H_ 0.550193 0.0709719 0.303699 0.11455
H_ H_ 0.569588 0.126371 0.339656 0.11455
H_ H_ 0.665049 0.238744 0.256105 0.11455
H_ H_ 0.702994 0.287924 0.295509 0.11455
H_ H_ 0.686621 0.263623 0.346631 0.11455
H_ H_ 0.690208 0.318157 0.198716 0.11455
H_ H_ 0.623642 0.322842 0.101741 0.11455
H_ H_ 0.712538 0.30786 0.106952 0.11455
H_ H_ 0.603797 0.305511 0.21652 0.11455
H_ H_ 0.510478 0.298945 0.204082 0.11455
H_ H_ 0.534875 0.33181 0.118928 0.11455
H_ H_ 0.907686 0.487081 0.185801 0.11455
H_ H_ 0.897376 0.0709019 0.0992528 0.11455
H_ H_ 0.806325 0.484045 0.110683 0.11455
H_ H_ 0.824964 0.0705754 0.211702 0.11455
H_ H_ 0.836313 0.162148 0.210749 0.11455
H_ H_ 0.879857 0.155337 0.120971 0.11455
H_ H_ 0.911078 0.393509 0.217713 0.11455
H_ H_ 0.926887 0.422754 0.263827 0.11455
H_ H_ 0.890465 0.379581 0.306284 0.11455
H_ H_ 0.794146 0.262153 0.224834 0.11455
H_ H_ 0.766093 0.207959 0.266032 0.11455
H_ H_ 0.787049 0.230623 0.316126 0.11455
H_ H_ 0.977843 0.294261 0.377447 0.11455
H_ H_ -0.012480000000000047 0.295183 0.426713 0.11455
H_ H_ 0.726525 0.332639 0.393555 0.11455
H_ H_ 0.742143 0.344748 0.443777 0.11455
H_ H_ 0.924703 0.407774 0.507251 0.11455
H_ H_ 0.939387 0.443305 0.0495829 0.11455
H_ H_ 0.916793 0.388348 0.089236 0.11455
H_ H_ 0.840455 0.254633 0.00803419 0.11455
H_ H_ 0.803167 0.211839 0.0497271 0.11455
H_ H_ 0.82031 0.235571 0.098749 0.11455
C_ C_ 0.731348 0.186788 0.403401 0.68181
C_ C_ 0.786961 0.184075 0.398458 -0.05681
C_ C_ 0.819228 0.187557 0.421708 -0.08735
C_ C_ 0.870746 0.184763 0.417723 -0.05681
C_ C_ 0.891215 0.178013 0.389937 -0.05681
C_ C_ 0.858137 0.170901 0.366193 -0.08735
C_ C_ 0.805746 0.172307 0.370544 -0.08735
C_ C_ 0.903175 0.184962 0.441785 -0.08735
C_ C_ 0.956255 0.18124 0.439046 -0.08735
C_ C_ 0.976964 0.175678 0.410888 -0.05681
C_ C_ 0.944799 0.175176 0.387079 -0.08735
C_ C_ 0.62556 0.282689 0.414065 0.68181
C_ C_ 0.630997 0.0858428 0.399354 0.68181
C_ C_ 0.626074 0.0297671 0.396635 -0.05681
C_ C_ 0.631785 0.500617 0.42706 -0.08735
C_ C_ 0.625816 0.44699 0.424474 -0.05681
C_ C_ 0.618991 0.423401 0.397865 -0.05681
C_ C_ 0.606472 0.453161 0.373524 -0.08735
C_ C_ 0.607361 0.506431 0.376168 -0.08735
C_ C_ 0.635778 0.413713 0.448954 -0.08735
C_ C_ 0.629799 0.360804 0.445107 -0.08735
C_ C_ 0.625181 0.339877 0.417419 -0.05681
C_ C_ 0.614294 0.371791 0.394927 -0.08735
C_ C_ 0.53434 0.181637 0.411035 0.68181
C_ C_ 0.608138 0.12652 0.481927 0.1947
C_ C_ 0.591694 0.102415 0.0112049 -0.08735
C_ C_ 0.609371 0.131951 0.0342989 -0.08735
C_ C_ 0.640092 0.176187 0.0281835 -0.05681
C_ C_ 0.654191 0.185155 0.999168 0.18498
C_ C_ 0.68683 0.234881 0.492489 -0.08735
C_ C_ 0.694603 0.263404 0.0154333 -0.08735
C_ C_ 0.682738 0.252987 0.0443793 -0.08735
C_ C_ 0.657952 0.207925 0.0512562 0.18498
C_ C_ 0.689359 0.182089 0.0980057 0.44287
C_ C_ 0.60006 0.201071 0.0938968 0.44287
C_ C_ 0.593686 0.193146 0.123101 -0.05681
C_ C_ 0.543872 0.192626 0.134934 -0.08735
C_ C_ 0.538448 0.185153 0.163811 -0.08735
C_ C_ 0.577931 0.176373 0.181997 -0.05681
C_ C_ 0.627443 0.174503 0.170349 -0.05681
C_ C_ 0.635146 0.180295 0.140786 -0.05681
C_ C_ 0.68395 0.173629 0.127348 -0.05681
C_ C_ 0.72337 0.15355 0.144701 -0.08735
C_ C_ 0.715581 0.14817 0.17453 -0.08735
C_ C_ 0.668689 0.161784 0.188087 -0.05681
C_ C_ 0.659673 0.157068 0.218286 0.44287
C_ C_ 0.573275 0.175625 0.212059 0.44287
C_ C_ 0.603818 0.158618 0.259863 0.18498
C_ C_ 0.572983 0.118211 0.26769 -0.08735
C_ C_ 0.566981 0.104803 0.296786 -0.08735
C_ C_ 0.584371 0.137135 0.318067 -0.08735
C_ C_ 0.614164 0.17853 0.312684 0.18498
C_ C_ 0.625412 0.188586 0.282973 -0.05681
C_ C_ 0.657802 0.229142 0.277251 -0.08735
C_ C_ 0.680287 0.255591 0.300158 -0.08735
C_ C_ 0.665774 0.245129 0.328193 0.1947
C_ C_ 0.768244 0.305627 0.157068 0.68181
C_ C_ 0.711095 0.310991 0.153744 -0.05681
C_ C_ 0.678083 0.31474 0.177091 -0.08735
C_ C_ 0.624233 0.318174 0.172734 -0.05681
C_ C_ 0.604181 0.324737 0.145495 -0.05681
C_ C_ 0.637884 0.319666 0.122392 -0.08735
C_ C_ 0.689164 0.312243 0.126529 -0.08735
C_ C_ 0.589773 0.314886 0.195314 -0.08735
C_ C_ 0.536476 0.312501 0.190124 -0.08735
C_ C_ 0.517537 0.322984 0.163033 -0.05681
C_ C_ 0.551846 0.328482 0.14087 -0.08735
C_ C_ 0.869879 0.222788 0.164999 0.68181
C_ C_ 0.854557 0.419655 0.150891 0.68181
C_ C_ 0.860927 0.47656 0.146861 -0.05681
C_ C_ 0.843749 0.00622773 0.167895 -0.08735
C_ C_ 0.851124 0.0596183 0.167356 -0.05681
C_ C_ 0.869234 0.0837295 0.143172 -0.05681
C_ C_ 0.88194 0.0523464 0.118987 -0.08735
C_ C_ 0.832076 0.502327 0.125729 -0.08735
C_ C_ 0.838778 0.0889409 0.192032 -0.08735
C_ C_ 0.843825 0.141502 0.191076 -0.08735
C_ C_ 0.864583 0.166763 0.167814 -0.05681
C_ C_ 0.871057 0.13691 0.141761 -0.08735
C_ C_ 0.964305 0.324127 0.157539 0.68181
C_ C_ 0.900604 0.369272 0.234151 0.1947
C_ C_ 0.908109 0.387892 0.261588 -0.08735
C_ C_ 0.884549 0.365722 0.285361 -0.08735
C_ C_ 0.853838 0.321911 0.280812 -0.05681
C_ C_ 0.84205 0.309807 0.251468 0.18498
C_ C_ 0.806628 0.268823 0.246849 -0.08735
C_ C_ 0.791563 0.237703 0.27016 -0.08735
C_ C_ 0.807351 0.249469 0.29924 -0.08735
C_ C_ 0.835492 0.292561 0.305046 0.18498
C_ C_ 0.804082 0.315623 0.352198 0.44287
C_ C_ 0.890288 0.297794 0.347918 0.44287
C_ C_ 0.897299 0.307752 0.377355 -0.05681
C_ C_ 0.944903 0.301636 0.389595 -0.08735
C_ C_ 0.953492 0.304946 0.419659 -0.08735
C_ C_ 0.91172 0.316773 0.437066 -0.05681
C_ C_ 0.863224 0.327391 0.424271 -0.05681
C_ C_ 0.855994 0.31991 0.394641 -0.05681
C_ C_ 0.808652 0.326622 0.382226 -0.05681
C_ C_ 0.765849 0.335093 0.399621 -0.08735
C_ C_ 0.774536 0.342708 0.429712 -0.08735
C_ C_ 0.821739 0.337823 0.442173 -0.05681
C_ C_ 0.831182 0.344576 0.471923 0.44287
C_ C_ 0.91374 0.312557 0.467577 0.44287
C_ C_ 0.887723 0.347127 0.0118828 0.18498
C_ C_ 0.910277 0.393234 0.0179193 -0.08735
C_ C_ 0.921413 0.407484 0.0455369 -0.08735
C_ C_ 0.902596 0.379549 0.0686156 -0.08735
C_ C_ 0.880155 0.332138 0.064308 0.18498
C_ C_ 0.872795 0.315417 0.0351634 -0.05681
C_ C_ 0.849213 0.268483 0.0294893 -0.08735
C_ C_ 0.830055 0.240288 0.0520962 -0.08735
C_ C_ 0.83817 0.257865 0.0809439 0.1947
N_ N_ 0.638995 0.166893 0.475579 -0.29468
N_ N_ 0.648538 0.196031 0.0813881 -0.17154
N_ N_ 0.613032 0.167149 0.229984 -0.17154
N_ N_ 0.633007 0.204406 0.334307 -0.29468
N_ N_ 0.861698 0.336667 0.229702 -0.29468
N_ N_ 0.844627 0.306873 0.33471 -0.17154
N_ N_ 0.875012 0.33069 0.483921 -0.17154
N_ N_ 0.863896 0.30129 0.0858302 -0.29468
O_ O_ 0.71289 0.179591 0.427664 -0.58347
O_ O_ 0.703367 0.200886 0.382731 -0.58347
O_ O_ 0.639036 0.254737 0.4341 -0.58347
O_ O_ 0.619694 0.261635 0.389892 -0.58347
O_ O_ 0.634092 0.106325 0.423348 -0.58347
O_ O_ 0.637388 0.113635 0.377104 -0.58347
O_ O_ 0.56404 0.181987 0.432501 -0.58347
O_ O_ 0.552873 0.179566 0.385202 -0.58347
O_ O_ 0.559772 0.212546 0.0783559 -0.46727
O_ O_ 0.732089 0.170721 0.0863208 -0.46727
O_ O_ 0.53114 0.188401 0.222746 -0.46727
O_ O_ 0.697635 0.145715 0.234959 -0.46727
O_ O_ 0.786394 0.318088 0.180437 -0.58347
O_ O_ 0.79679 0.308202 0.134918 -0.58347
O_ O_ 0.857339 0.251499 0.186372 -0.58347
O_ O_ 0.88959 0.242452 0.142619 -0.58347
O_ O_ 0.855091 0.400094 0.175934 -0.58347
O_ O_ 0.859337 0.390355 0.129153 -0.58347
O_ O_ 0.934976 0.323587 0.178636 -0.58347
O_ O_ 0.943758 0.330069 0.132969 -0.58347
O_ O_ 0.928089 0.281815 0.332657 -0.46727
O_ O_ 0.760965 0.326419 0.339835 -0.46727
O_ O_ 0.957653 0.30024 0.48116 -0.46727
O_ O_ 0.795317 0.361942 0.488461 -0.46727
Zn Zn 0.629867 0.183107 0.881643 0.90689
Zn Zn 0.637795 0.175727 0.92978 0.90689
Zn Zn 0.865219 0.300668 0.633436 0.90689
Zn Zn 0.855803 0.301991 0.681185 0.90689
H_ H_ 0.815471 0.224305 0.94019 0.11455
H_ H_ 0.875663 0.161274 0.849878 0.11455
H_ H_ 0.783138 0.161118 0.85906 0.11455
H_ H_ 0.898157 0.21242 0.963247 0.11455
H_ H_ 0.990188 0.200051 0.955141 0.11455
H_ H_ 0.965843 0.15742 0.869126 0.11455
H_ H_ 0.610599 0.0104456 0.943796 0.11455
H_ H_ 0.654813 0.433302 0.851993 0.11455
H_ H_ 0.640216 0.0242383 0.85238 0.11455
H_ H_ 0.60996 0.427905 0.965807 0.11455
H_ H_ 0.605934 0.33499 0.962557 0.11455
H_ H_ 0.635535 0.344132 0.87142 0.11455
H_ H_ 0.581382 0.100918 0.964876 0.11455
H_ H_ 0.585427 0.0670277 0.509816 0.11455
H_ H_ 0.609873 0.122643 0.552946 0.11455
H_ H_ 0.698694 0.234152 0.972082 0.11455
H_ H_ 0.724684 0.300794 0.508268 0.11455
H_ H_ 0.7075 0.278171 0.559659 0.11455
H_ H_ 0.521895 0.185922 0.618581 0.11455
H_ H_ 0.510254 0.193026 0.67304 0.11455
H_ H_ 0.767341 0.147418 0.635418 0.11455
H_ H_ 0.75668 0.148187 0.688661 0.11455
H_ H_ 0.575674 0.083777 0.743705 0.11455
H_ H_ 0.548929 0.0603246 0.794214 0.11455
H_ H_ 0.577842 0.109844 0.834409 0.11455
H_ H_ 0.665115 0.241298 0.754392 0.11455
H_ H_ 0.689738 0.291329 0.797409 0.11455
H_ H_ 0.673945 0.261799 0.846459 0.11455
H_ H_ 0.687482 0.306226 0.697947 0.11455
H_ H_ 0.622522 0.310243 0.596532 0.11455
H_ H_ 0.716011 0.307907 0.607112 0.11455
H_ H_ 0.605016 0.335747 0.713407 0.11455
H_ H_ 0.51501 0.337413 0.707316 0.11455
H_ H_ 0.540751 0.330533 0.614989 0.11455
H_ H_ 0.87885 0.47378 0.691939 0.11455
H_ H_ 0.839485 0.0563164 0.600571 0.11455
H_ H_ 0.808951 0.456416 0.608293 0.11455
H_ H_ 0.885927 0.0557855 0.716579 0.11455
H_ H_ 0.900419 0.14712 0.71003 0.11455
H_ H_ 0.883372 0.133562 0.62013 0.11455
H_ H_ 0.913846 0.370744 0.713363 0.11455
H_ H_ 0.927675 0.409501 0.761936 0.11455
H_ H_ 0.883805 0.371792 0.804905 0.11455
H_ H_ 0.789016 0.24749 0.72887 0.11455
H_ H_ 0.764197 0.192106 0.769676 0.11455
H_ H_ 0.793905 0.212884 0.817717 0.11455
H_ H_ 0.981918 0.311458 0.873394 0.11455
H_ H_ -0.0038399999999999546 0.31689 0.923058 0.11455
H_ H_ 0.732817 0.330419 0.892526 0.11455
H_ H_ 0.744649 0.338098 0.941316 0.11455
H_ H_ 0.923871 0.418792 1.0012633 0.11455
H_ H_ 0.938828 0.427641 0.556909 0.11455
H_ H_ 0.924377 0.362037 0.593803 0.11455
H_ H_ 0.821158 0.257297 0.511213 0.11455
H_ H_ 0.802307 0.199594 0.5496 0.11455
H_ H_ 0.827727 0.218891 0.599926 0.11455
C_ C_ 0.735688 0.191044 0.906218 0.68181
C_ C_ 0.791744 0.189101 0.901664 -0.05681
C_ C_ 0.826224 0.203 0.923033 -0.08735
C_ C_ 0.878441 0.193181 0.920634 -0.05681
C_ C_ 0.896854 0.180461 0.893101 -0.05681
C_ C_ 0.862617 0.17123 0.870364 -0.08735
C_ C_ 0.810924 0.172079 0.876573 -0.08735
C_ C_ 0.911971 0.206068 0.941699 -0.08735
C_ C_ 0.963933 0.197634 0.937421 -0.08735
C_ C_ 0.98288 0.187582 0.909438 -0.05681
C_ C_ 0.948428 0.176689 0.887572 -0.08735
C_ C_ 0.623675 0.278043 0.912884 0.68181
C_ C_ 0.632491 0.0827261 0.899363 0.68181
C_ C_ 0.62398 0.0262975 0.898424 -0.05681
C_ C_ 0.620608 0.493 0.92547 -0.08735
C_ C_ 0.617293 0.439979 0.92134 -0.05681
C_ C_ 0.62576 0.417924 0.894233 -0.05681
C_ C_ 0.642556 0.449782 0.872015 -0.08735
C_ C_ 0.645291 0.501372 0.87467 -0.08735
C_ C_ 0.612818 0.410033 0.945738 -0.08735
C_ C_ 0.61374 0.356775 0.943881 -0.08735
C_ C_ 0.624264 0.334316 0.917455 -0.05681
C_ C_ 0.630434 0.363563 0.892061 -0.08735
C_ C_ 0.536324 0.174973 0.907671 0.68181
C_ C_ 0.599976 0.120164 0.982968 0.1947
C_ C_ 0.602581 0.107004 0.508004 -0.08735
C_ C_ 0.622772 0.131888 0.531493 -0.08735
C_ C_ 0.650426 0.177206 0.526829 -0.05681
C_ C_ 0.658115 0.193664 0.497689 0.18498
C_ C_ 0.684912 0.226451 0.994107 -0.08735
C_ C_ 0.700037 0.268495 0.514812 -0.08735
C_ C_ 0.691992 0.255281 0.542672 -0.08735
C_ C_ 0.668143 0.20693 0.549601 0.18498
C_ C_ 0.696046 0.177465 0.597419 0.44287
C_ C_ 0.611068 0.19771 0.591928 0.44287
C_ C_ 0.601283 0.188846 0.621765 -0.05681
C_ C_ 0.552637 0.191206 0.633294 -0.08735
C_ C_ 0.546438 0.19345 0.663316 -0.08735
C_ C_ 0.586154 0.187022 0.681221 -0.05681
C_ C_ 0.636388 0.181644 0.669532 -0.05681
C_ C_ 0.643022 0.181771 0.639485 -0.05681
C_ C_ 0.68976 0.170388 0.627359 -0.05681
C_ C_ 0.729776 0.156356 0.646005 -0.08735
C_ C_ 0.725523 0.160449 0.676154 -0.08735
C_ C_ 0.677382 0.170874 0.687902 -0.05681
C_ C_ 0.665653 0.159076 0.716954 0.44287
C_ C_ 0.581264 0.190546 0.711402 0.44287
C_ C_ 0.608483 0.15413 0.757345 0.18498
C_ C_ 0.586066 0.106418 0.762048 -0.08735
C_ C_ 0.575834 0.0907279 0.789557 -0.08735
C_ C_ 0.591195 0.120026 0.813094 -0.08735
C_ C_ 0.618433 0.165051 0.809209 0.18498
C_ C_ 0.62888 0.180452 0.780576 -0.05681
C_ C_ 0.658793 0.22422 0.776427 -0.08735
C_ C_ 0.668758 0.256514 0.800579 -0.08735
C_ C_ 0.662846 0.237266 0.827883 0.1947
C_ C_ 0.765192 0.30075 0.65864 0.68181
C_ C_ 0.709271 0.303139 0.652891 -0.05681
C_ C_ 0.673583 0.306045 0.675688 -0.08735
C_ C_ 0.621392 0.314915 0.670263 -0.05681
C_ C_ 0.604759 0.315943 0.641755 -0.05681
C_ C_ 0.637773 0.310208 0.619408 -0.08735
C_ C_ 0.69006 0.305649 0.625183 -0.08735
C_ C_ 0.589782 0.327804 0.692932 -0.08735
C_ C_ 0.540104 0.33563 0.688346 -0.08735
C_ C_ 0.520401 0.328693 0.660546 -0.05681
C_ C_ 0.55366 0.325335 0.636545 -0.08735
C_ C_ 0.877801 0.203643 0.664406 0.68181
C_ C_ 0.85694 0.401167 0.649901 0.68181
C_ C_ 0.850456 0.458245 0.648205 -0.05681
C_ C_ 0.868307 -0.009871999999999992 0.672388 -0.08735
C_ C_ 0.874815 0.0425247 0.669187 -0.05681
C_ C_ 0.865636 0.0658211 0.644162 -0.05681
C_ C_ 0.852666 0.0371949 0.620207 -0.08735
C_ C_ 0.832 0.479351 0.623764 -0.08735
C_ C_ 0.881978 0.0735318 0.694951 -0.08735
C_ C_ 0.88694 0.126078 0.692232 -0.08735
C_ C_ 0.883091 0.149423 0.665271 -0.05681
C_ C_ 0.873347 0.119357 0.641087 -0.08735
C_ C_ 0.963565 0.304283 0.659398 0.68181
C_ C_ 0.896612 0.353277 0.732531 0.1947
C_ C_ 0.905197 0.375005 0.759532 -0.08735
C_ C_ 0.881423 0.353928 0.783807 -0.08735
C_ C_ 0.850919 0.310981 0.780989 -0.05681
C_ C_ 0.83898 0.294009 0.752339 0.18498
C_ C_ 0.804575 0.252896 0.749424 -0.08735
C_ C_ 0.789046 0.223703 0.772668 -0.08735
C_ C_ 0.803917 0.239144 0.800028 -0.08735
C_ C_ 0.831949 0.283956 0.805014 0.18498
C_ C_ 0.80131 0.313249 0.851507 0.44287
C_ C_ 0.891173 0.295698 0.84501 0.44287
C_ C_ 0.90042 0.309553 0.873732 -0.05681
C_ C_ 0.949893 0.312008 0.886665 -0.08735
C_ C_ 0.95729 0.32473 0.915148 -0.08735
C_ C_ 0.914875 0.323832 0.934512 -0.05681
C_ C_ 0.865461 0.322985 0.922183 -0.05681
C_ C_ 0.859189 0.31917 0.891676 -0.05681
C_ C_ 0.80902 0.320326 0.881496 -0.05681
C_ C_ 0.770079 0.334026 0.900258 -0.08735
C_ C_ 0.779766 0.340574 0.928343 -0.08735
C_ C_ 0.825686 0.336141 0.939751 -0.05681
C_ C_ 0.832416 0.342425 0.969877 0.44287
C_ C_ 0.919777 0.319925 0.965078 0.44287
C_ C_ 0.882591 0.341273 0.514842 0.18498
C_ C_ 0.915635 0.381527 0.522844 -0.08735
C_ C_ 0.930808 0.38981 0.551085 -0.08735
C_ C_ 0.915437 0.3552 0.571735 -0.08735
C_ C_ 0.88119 0.317251 0.566412 0.18498
C_ C_ 0.865672 0.307534 0.537072 -0.05681
C_ C_ 0.832366 0.268177 0.532948 -0.08735
C_ C_ 0.816068 0.236376 0.555361 -0.08735
C_ C_ 0.832996 0.245974 0.583008 0.1947
N_ N_ 0.631925 0.157022 0.977479 -0.29468
N_ N_ 0.657806 0.194705 0.57953 -0.17154
N_ N_ 0.619387 0.169523 0.728607 -0.17154
N_ N_ 0.635698 0.194885 0.832319 -0.29468
N_ N_ 0.858278 0.319255 0.728297 -0.29468
N_ N_ 0.842696 0.297445 0.834781 -0.17154
N_ N_ 0.878752 0.333788 0.98208 -0.17154
N_ N_ 0.863176 0.289348 0.588747 -0.29468
O_ O_ 0.718089 0.183442 0.931407 -0.58347
O_ O_ 0.707512 0.194431 0.884251 -0.58347
O_ O_ 0.629092 0.250455 0.934767 -0.58347
O_ O_ 0.621665 0.258771 0.888501 -0.58347
O_ O_ 0.639873 0.102205 0.924313 -0.58347
O_ O_ 0.636247 0.109659 0.87729 -0.58347
O_ O_ 0.565088 0.173171 0.929275 -0.58347
O_ O_ 0.556369 0.176759 0.883351 -0.58347
O_ O_ 0.572864 0.209089 0.575339 -0.46727
O_ O_ 0.738406 0.163163 0.585184 -0.46727
O_ O_ 0.537665 0.202657 0.723467 -0.46727
O_ O_ 0.69996 0.137753 0.733583 -0.46727
O_ O_ 0.782337 0.305186 0.683233 -0.58347
O_ O_ 0.792171 0.283017 0.638906 -0.58347
O_ O_ 0.857773 0.227497 0.686155 -0.58347
O_ O_ 0.878375 0.225413 0.640576 -0.58347
O_ O_ 0.856458 0.377603 0.672798 -0.58347
O_ O_ 0.852674 0.37318 0.626976 -0.58347
O_ O_ 0.934145 0.293464 0.679836 -0.58347
O_ O_ 0.944636 0.315339 0.635037 -0.58347
O_ O_ 0.926741 0.270391 0.830672 -0.46727
O_ O_ 0.755308 0.318801 0.839392 -0.46727
O_ O_ 0.965701 0.308495 0.976118 -0.46727
O_ O_ 0.794652 0.356764 0.985142 -0.46727
Zn Zn 0.625861 0.68525 0.38438 0.90689
Zn Zn 0.633048 0.684214 0.433343 0.90689
Zn Zn 0.87945 0.816722 0.133586 0.90689
Zn Zn 0.868401 0.821448 0.182394 0.90689
H_ H_ 0.804493 0.694646 0.445375 0.11455
H_ H_ 0.871061 0.658072 0.34707 0.11455
H_ H_ 0.782158 0.659234 0.354317 0.11455
H_ H_ 0.892707 0.69456 0.464052 0.11455
H_ H_ 0.985247 0.699048 0.453686 0.11455
H_ H_ 0.956118 0.666191 0.365324 0.11455
H_ H_ 0.63997 0.517529 0.446674 0.11455
H_ H_ 0.648467 0.935068 0.347651 0.11455
H_ H_ 0.598605 0.529234 0.358646 0.11455
H_ H_ 0.615671 0.937398 0.465914 0.11455
H_ H_ 0.61864 0.845039 0.464055 0.11455
H_ H_ 0.639265 0.848473 0.372595 0.11455
H_ H_ 0.579751 0.600424 0.464295 0.11455
H_ H_ 0.561014 0.586233 0.0161112 0.11455
H_ H_ 0.597776 0.63377 0.0555389 0.11455
H_ H_ 0.685737 0.748894 0.479376 0.11455
H_ H_ 0.715392 0.803829 0.0120735 0.11455
H_ H_ 0.697653 0.788407 0.062136 0.11455
H_ H_ 0.509992 0.699985 0.121123 0.11455
H_ H_ 0.499052 0.703195 0.174058 0.11455
H_ H_ 0.75782 0.657599 0.137448 0.11455
H_ H_ 0.748737 0.662653 0.187721 0.11455
H_ H_ 0.562267 0.599729 0.244889 0.11455
H_ H_ 0.539143 0.573902 0.296684 0.11455
H_ H_ 0.573072 0.621699 0.335514 0.11455
H_ H_ 0.642957 0.765421 0.260901 0.11455
H_ H_ 0.689305 0.80288 0.301051 0.11455
H_ H_ 0.682752 0.763754 0.349031 0.11455
H_ H_ 0.696564 0.813271 0.198516 0.11455
H_ H_ 0.638021 0.835167 0.0981352 0.11455
H_ H_ 0.726503 0.833092 0.107765 0.11455
H_ H_ 0.614817 0.820313 0.214483 0.11455
H_ H_ 0.519382 0.815183 0.206559 0.11455
H_ H_ 0.54638 0.834258 0.115928 0.11455
H_ H_ 0.82885 0.992386 0.188019 0.11455
H_ H_ 0.808596 0.576475 0.111661 0.11455
H_ H_ 0.898197 0.979477 0.103268 0.11455
H_ H_ 0.927511 0.570258 0.206887 0.11455
H_ H_ 0.918894 0.668403 0.205982 0.11455
H_ H_ 0.840602 0.652234 0.125441 0.11455
H_ H_ 0.918777 0.896245 0.221627 0.11455
H_ H_ 0.917631 0.929458 0.270307 0.11455
H_ H_ 0.88897 0.873648 0.310436 0.11455
H_ H_ 0.814603 0.755277 0.223544 0.11455
H_ H_ 0.785872 0.691584 0.261512 0.11455
H_ H_ 0.808211 0.709233 0.31168 0.11455
H_ H_ 0.986381 0.781737 0.375992 0.11455
H_ H_ -0.005711000000000022 0.796445 0.423925 0.11455
H_ H_ 0.732019 0.814524 0.38962 0.11455
H_ H_ 0.747178 0.828652 0.443835 0.11455
H_ H_ 0.940853 0.907948 0.502822 0.11455
H_ H_ 0.973256 0.924109 0.04932 0.11455
H_ H_ 0.942273 0.867304 0.0880191 0.11455
H_ H_ 0.829106 0.763644 0.00716666 0.11455
H_ H_ 0.790904 0.718451 0.0531716 0.11455
H_ H_ 0.812185 0.750305 0.100055 0.11455
C_ C_ 0.727135 0.683143 0.406154 0.68181
C_ C_ 0.782787 0.673028 0.400773 -0.05681
C_ C_ 0.817715 0.680725 0.424708 -0.08735
C_ C_ 0.870343 0.677641 0.419797 -0.05681
C_ C_ 0.889656 0.668371 0.391852 -0.05681
C_ C_ 0.855909 0.659465 0.369337 -0.08735
C_ C_ 0.804391 0.666286 0.373128 -0.08735
C_ C_ 0.905425 0.682903 0.442938 -0.08735
C_ C_ 0.957448 0.685541 0.436996 -0.08735
C_ C_ 0.975194 0.675379 0.409813 -0.05681
C_ C_ 0.942388 0.667409 0.386851 -0.08735
C_ C_ 0.623956 0.783781 0.414425 0.68181
C_ C_ 0.630677 0.585641 0.403601 0.68181
C_ C_ 0.622003 0.531016 0.402983 -0.05681
C_ C_ 0.61736 1.000110996 0.421578 -0.08735
C_ C_ 0.621714 0.947008 0.419757 -0.05681
C_ C_ 0.628793 0.922793 0.393255 -0.05681
C_ C_ 0.636429 0.951668 0.368301 -0.08735
C_ C_ 0.635597 1.00506077 0.370067 -0.08735
C_ C_ 0.622747 0.917139 0.444885 -0.08735
C_ C_ 0.617015 0.863753 0.443806 -0.08735
C_ C_ 0.626744 0.839873 0.417343 -0.05681
C_ C_ 0.63527 0.86932 0.393284 -0.08735
C_ C_ 0.532064 0.681764 0.409991 0.68181
C_ C_ 0.593843 0.623153 0.482919 0.1947
C_ C_ 0.587719 0.618458 0.0121885 -0.08735
C_ C_ 0.60828 0.644616 0.0347647 -0.08735
C_ C_ 0.6391 0.686717 0.0294157 -0.05681
C_ C_ 0.658015 0.693672 1.000279356 0.18498
C_ C_ 0.665924 0.741451 0.498422 -0.08735
C_ C_ 0.694666 0.772896 0.0169307 -0.08735
C_ C_ 0.680297 0.763593 0.0455091 -0.08735
C_ C_ 0.657798 0.717413 0.0518893 0.18498
C_ C_ 0.687686 0.688797 0.0982877 0.44287
C_ C_ 0.600782 0.711689 0.093521 0.44287
C_ C_ 0.59092 0.704358 0.123202 -0.05681
C_ C_ 0.542615 0.701371 0.135154 -0.08735
C_ C_ 0.536518 0.699405 0.165304 -0.08735
C_ C_ 0.579076 0.69912 0.183629 -0.05681
C_ C_ 0.626671 0.696014 0.170858 -0.05681
C_ C_ 0.632546 0.693116 0.141148 -0.05681
C_ C_ 0.679657 0.679581 0.128051 -0.05681
C_ C_ 0.719733 0.66658 0.14635 -0.08735
C_ C_ 0.714073 0.667986 0.175605 -0.08735
C_ C_ 0.66866 0.683303 0.188679 -0.05681
C_ C_ 0.662959 0.681029 0.218534 0.44287
C_ C_ 0.573908 0.697589 0.21349 0.44287
C_ C_ 0.608717 0.6652 0.259506 0.18498
C_ C_ 0.575764 0.622665 0.263452 -0.08735
C_ C_ 0.566769 0.604167 0.291938 -0.08735
C_ C_ 0.585528 0.632521 0.314994 -0.08735
C_ C_ 0.617833 0.67404 0.312122 0.18498
C_ C_ 0.624496 0.693572 0.284522 -0.05681
C_ C_ 0.641752 0.744153 0.28137 -0.08735
C_ C_ 0.666379 0.766743 0.305362 -0.08735
C_ C_ 0.664171 0.743817 0.33197 0.1947
C_ C_ 0.775205 0.818276 0.159116 0.68181
C_ C_ 0.719596 0.822883 0.154696 -0.05681
C_ C_ 0.684732 0.820269 0.177012 -0.08735
C_ C_ 0.633664 0.826597 0.17133 -0.05681
C_ C_ 0.614916 0.830106 0.142952 -0.05681
C_ C_ 0.649672 0.825645 0.120309 -0.08735
C_ C_ 0.701259 0.824329 0.126253 -0.08735
C_ C_ 0.598811 0.822151 0.192899 -0.08735
C_ C_ 0.547162 0.820267 0.18772 -0.08735
C_ C_ 0.526908 0.824661 0.160752 -0.05681
C_ C_ 0.561232 0.82804 0.138224 -0.08735
C_ C_ 0.879814 0.72181 0.16251 0.68181
C_ C_ 0.869721 0.919041 0.151827 0.68181
C_ C_ 0.866078 0.976495 0.14757 -0.05681
C_ C_ 0.888253 0.505367 0.168572 -0.08735
C_ C_ 0.884541 0.559343 0.167742 -0.05681
C_ C_ 0.856254 0.58311 0.146846 -0.05681
C_ C_ 0.830348 0.554412 0.126557 -0.08735
C_ C_ 0.885618 0.999322 0.121607 -0.08735
C_ C_ 0.911349 0.590865 0.187687 -0.08735
C_ C_ 0.901987 0.643763 0.188838 -0.08735
C_ C_ 0.878721 0.665916 0.165719 -0.05681
C_ C_ 0.858125 0.635721 0.144229 -0.08735
C_ C_ 0.973322 0.826447 0.158912 0.68181
C_ C_ 0.898833 0.875373 0.237487 0.1947
C_ C_ 0.901528 0.892733 0.26638 -0.08735
C_ C_ 0.881681 0.862646 0.288222 -0.08735
C_ C_ 0.858449 0.815832 0.281257 -0.05681
C_ C_ 0.853094 0.802929 0.25144 0.18498
C_ C_ 0.827266 0.759283 0.244567 -0.08735
C_ C_ 0.807936 0.727807 0.266151 -0.08735
C_ C_ 0.818118 0.737263 0.295378 -0.08735
C_ C_ 0.836422 0.783807 0.302859 0.18498
C_ C_ 0.80566 0.805834 0.350461 0.44287
C_ C_ 0.893935 0.78582 0.344189 0.44287
C_ C_ 0.901824 0.800791 0.373687 -0.05681
C_ C_ 0.950443 0.793839 0.386673 -0.08735
C_ C_ 0.956964 0.802173 0.415585 -0.08735
C_ C_ 0.917123 0.815604 0.433596 -0.05681
C_ C_ 0.87088 0.824786 0.420832 -0.05681
C_ C_ 0.861985 0.817012 0.391504 -0.05681
C_ C_ 0.812191 0.816589 0.380405 -0.05681
C_ C_ 0.771334 0.819719 0.398869 -0.08735
C_ C_ 0.779112 0.830824 0.428223 -0.08735
C_ C_ 0.830499 0.833198 0.438954 -0.05681
C_ C_ 0.837228 0.837876 0.468345 0.44287
C_ C_ 0.922015 0.815325 0.463425 0.44287
C_ C_ 0.889637 0.848602 0.0101969 0.18498
C_ C_ 0.928131 0.884301 0.0166141 -0.08735
C_ C_ 0.9426 0.89594 0.0441508 -0.08735
C_ C_ 0.923905 0.865927 0.0666549 -0.08735
C_ C_ 0.886356 0.828262 0.0616658 0.18498
C_ C_ 0.869006 0.819531 0.0333781 -0.05681
C_ C_ 0.836153 0.777861 0.0291412 -0.08735
C_ C_ 0.818785 0.752438 0.0542895 -0.08735
C_ C_ 0.828188 0.769616 0.0818979 0.1947
N_ N_ 0.62363 0.66522 0.478993 -0.29468
N_ N_ 0.646433 0.705977 0.0812682 -0.17154
N_ N_ 0.615822 0.68448 0.230274 -0.17154
N_ N_ 0.634064 0.70047 0.335004 -0.29468
N_ N_ 0.875492 0.832282 0.230648 -0.29468
N_ N_ 0.844879 0.792128 0.332731 -0.17154
N_ N_ 0.883714 0.830194 0.480169 -0.17154
N_ N_ 0.866408 0.805391 0.0848094 -0.29468
O_ O_ 0.709754 0.687199 0.431866 -0.58347
O_ O_ 0.69717 0.68846 0.385323 -0.58347
O_ O_ 0.617844 0.758791 0.43746 -0.58347
O_ O_ 0.627596 0.761319 0.390313 -0.58347
O_ O_ 0.640817 0.609406 0.427252 -0.58347
O_ O_ 0.627382 0.609826 0.381027 -0.58347
O_ O_ 0.558842 0.678217 0.431593 -0.58347
O_ O_ 0.55108 0.684267 0.385041 -0.58347
O_ O_ 0.563051 0.728329 0.0775797 -0.46727
O_ O_ 0.732804 0.674634 0.087049 -0.46727
O_ O_ 0.532337 0.7158 0.2263 -0.46727
O_ O_ 0.703703 0.679259 0.235287 -0.46727
O_ O_ 0.793142 0.81561 0.18408 -0.58347
O_ O_ 0.803808 0.815275 0.138577 -0.58347
O_ O_ 0.873065 0.749513 0.184492 -0.58347
O_ O_ 0.883294 0.741858 0.138514 -0.58347
O_ O_ 0.863021 0.899763 0.176838 -0.58347
O_ O_ 0.878196 0.889669 0.131513 -0.58347
O_ O_ 0.94405 0.822728 0.18077 -0.58347
O_ O_ 0.955547 0.822674 0.134575 -0.58347
O_ O_ 0.932115 0.773809 0.327155 -0.46727
O_ O_ 0.761007 0.817119 0.338487 -0.46727
O_ O_ 0.96455 0.80427 0.475663 -0.46727
O_ O_ 0.798851 0.850072 0.484917 -0.46727
Zn Zn 0.634721 0.68339 0.882979 0.90689
Zn Zn 0.644298 0.672793 0.931837 0.90689
Zn Zn 0.870915 0.805888 0.631918 0.90689
Zn Zn 0.868876 0.812401 0.679696 0.90689
H_ H_ 0.816704 0.689395 0.947388 0.11455
H_ H_ 0.879709 0.650774 0.848787 0.11455
H_ H_ 0.786567 0.657444 0.859421 0.11455
H_ H_ 0.90344 0.693714 0.965351 0.11455
H_ H_ 0.992619 0.700179 0.955129 0.11455
H_ H_ 0.966058 0.660463 0.867133 0.11455
H_ H_ 0.622936 0.508372 0.94634 0.11455
H_ H_ 0.634926 0.932639 0.849091 0.11455
H_ H_ 0.662769 0.523454 0.857709 0.11455
H_ H_ 0.621343 0.929167 0.966659 0.11455
H_ H_ 0.634376 0.835353 0.962271 0.11455
H_ H_ 0.614308 0.842521 0.87181 0.11455
H_ H_ 0.579793 0.613572 0.967553 0.11455
H_ H_ 0.559905 0.572068 0.514275 0.11455
H_ H_ 0.587438 0.625641 0.555168 0.11455
H_ H_ 0.702537 0.744389 0.972821 0.11455
H_ H_ 0.702483 0.806357 0.518305 0.11455
H_ H_ 0.675046 0.780735 0.56783 0.11455
H_ H_ 0.502854 0.68129 0.629343 0.11455
H_ H_ 0.501268 0.675479 0.68207 0.11455
H_ H_ 0.758126 0.657768 0.63537 0.11455
H_ H_ 0.754975 0.658338 0.687529 0.11455
H_ H_ 0.57224 0.579002 0.754569 0.11455
H_ H_ 0.55614 0.556566 0.804728 0.11455
H_ H_ 0.578433 0.617178 0.841631 0.11455
H_ H_ 0.683546 0.726915 0.759585 0.11455
H_ H_ 0.712697 0.776691 0.797628 0.11455
H_ H_ 0.69174 0.751655 0.848451 0.11455
H_ H_ 0.692188 0.782155 0.698369 0.11455
H_ H_ 0.630274 0.824647 0.601806 0.11455
H_ H_ 0.722317 0.818836 0.610198 0.11455
H_ H_ 0.606864 0.780592 0.715569 0.11455
H_ H_ 0.517353 0.788448 0.707588 0.11455
H_ H_ 0.546946 0.816893 0.619504 0.11455
H_ H_ 0.870081 0.970889 0.693874 0.11455
H_ H_ 0.821613 0.550376 0.600865 0.11455
H_ H_ 0.853807 0.962442 0.601564 0.11455
H_ H_ 0.89689 0.557743 0.710401 0.11455
H_ H_ 0.889074 0.653314 0.706694 0.11455
H_ H_ 0.851712 0.636327 0.617823 0.11455
H_ H_ 0.911719 0.892565 0.714374 0.11455
H_ H_ 0.903323 0.936394 0.762313 0.11455
H_ H_ 0.884775 0.885727 0.80465 0.11455
H_ H_ 0.82494 0.743281 0.724077 0.11455
H_ H_ 0.788159 0.689624 0.764293 0.11455
H_ H_ 0.796223 0.726323 0.813763 0.11455
H_ H_ 0.984252 0.799392 0.871832 0.11455
H_ H_ 0.995784 0.798626 0.926736 0.11455
H_ H_ 0.733418 0.827384 0.887926 0.11455
H_ H_ 0.745128 0.860398 0.939524 0.11455
H_ H_ 0.94281 0.905823 0.998398 0.11455
H_ H_ 0.960263 0.923767 0.553417 0.11455
H_ H_ 0.931711 0.864059 0.589509 0.11455
H_ H_ 0.837819 0.755032 0.506665 0.11455
H_ H_ 0.798828 0.709086 0.545584 0.11455
H_ H_ 0.80817 0.739927 0.594536 0.11455
C_ C_ 0.738672 0.678412 0.906701 0.68181
C_ C_ 0.795019 0.682542 0.90199 -0.05681
C_ C_ 0.828124 0.688384 0.92531 -0.08735
C_ C_ 0.880121 0.682858 0.920614 -0.05681
C_ C_ 0.899152 0.670883 0.893185 -0.05681
C_ C_ 0.866583 0.663914 0.870045 -0.08735
C_ C_ 0.814297 0.674231 0.874443 -0.08735
C_ C_ 0.914886 0.690195 0.94308 -0.08735
C_ C_ 0.968631 0.687213 0.937971 -0.08735
C_ C_ 0.98827 0.674443 0.910828 -0.05681
C_ C_ 0.952848 0.668798 0.888067 -0.08735
C_ C_ 0.63297 0.779445 0.914702 0.68181
C_ C_ 0.637824 0.580176 0.904669 0.68181
C_ C_ 0.633636 0.524381 0.902386 -0.05681
C_ C_ 0.616702 -0.005673999999999957 0.922756 -0.08735
C_ C_ 0.616006 0.940672 0.920291 -0.05681
C_ C_ 0.615275 0.918134 0.892867 -0.05681
C_ C_ 0.627882 0.951179 0.868881 -0.08735
C_ C_ 0.632329 0.00262564 0.872326 -0.08735
C_ C_ 0.617548 0.910742 0.94633 -0.08735
C_ C_ 0.626764 0.859026 0.94417 -0.08735
C_ C_ 0.625749 0.834443 0.917565 -0.05681
C_ C_ 0.623351 0.864604 0.891916 -0.08735
C_ C_ 0.542367 0.678685 0.906802 0.68181
C_ C_ 0.601067 0.629741 0.984641 0.1947
C_ C_ 0.578974 0.608309 0.510765 -0.08735
C_ C_ 0.600797 0.634417 0.534521 -0.08735
C_ C_ 0.626783 0.67986 0.530455 -0.05681
C_ C_ 0.637467 0.695426 0.502399 0.18498
C_ C_ 0.68669 0.737769 0.994524 -0.08735
C_ C_ 0.674135 0.775896 0.521864 -0.08735
C_ C_ 0.661863 0.759553 0.549717 -0.08735
C_ C_ 0.640733 0.711106 0.553814 0.18498
C_ C_ 0.677493 0.676776 0.597761 0.44287
C_ C_ 0.589405 0.693426 0.597371 0.44287
C_ C_ 0.586079 0.678833 0.627181 -0.05681
C_ C_ 0.538918 0.677963 0.641249 -0.08735
C_ C_ 0.537462 0.67169 0.671382 -0.08735
C_ C_ 0.581835 0.663388 0.687478 -0.05681
C_ C_ 0.627666 0.660481 0.673276 -0.05681
C_ C_ 0.63004 0.669237 0.642956 -0.05681
C_ C_ 0.677081 0.67199 0.628345 -0.05681
C_ C_ 0.721276 0.660677 0.645197 -0.08735
C_ C_ 0.71889 0.655913 0.674944 -0.08735
C_ C_ 0.672667 0.654025 0.688908 -0.05681
C_ C_ 0.66915 0.654598 0.718676 0.44287
C_ C_ 0.579593 0.666035 0.717585 0.44287
C_ C_ 0.617359 0.643479 0.762043 0.18498
C_ C_ 0.59168 0.598616 0.770368 -0.08735
C_ C_ 0.579056 0.588885 0.798931 -0.08735
C_ C_ 0.593203 0.622036 0.820963 -0.08735
C_ C_ 0.623672 0.664693 0.814619 0.18498
C_ C_ 0.636067 0.675526 0.785273 -0.05681
C_ C_ 0.667135 0.717824 0.779686 -0.08735
C_ C_ 0.68657 0.74775 0.802534 -0.08735
C_ C_ 0.675552 0.73295 0.831441 0.1947
C_ C_ 0.772115 0.800402 0.658827 0.68181
C_ C_ 0.71659 0.808223 0.655427 -0.05681
C_ C_ 0.680103 0.797757 0.677292 -0.08735
C_ C_ 0.6284 0.805172 0.673039 -0.05681
C_ C_ 0.611275 0.814215 0.64554 -0.05681
C_ C_ 0.644901 0.818193 0.622464 -0.08735
C_ C_ 0.69634 0.814906 0.627508 -0.08735
C_ C_ 0.594608 0.791868 0.694699 -0.08735
C_ C_ 0.541917 0.799164 0.690421 -0.08735
C_ C_ 0.522521 0.814744 0.663496 -0.05681
C_ C_ 0.559123 0.820218 0.641236 -0.08735
C_ C_ 0.876468 0.708597 0.658712 0.68181
C_ C_ 0.855945 0.904338 0.649569 0.68181
C_ C_ 0.86134 0.960431 0.648139 -0.05681
C_ C_ 0.86961 0.48829 0.670392 -0.08735
C_ C_ 0.868717 0.543523 0.668352 -0.05681
C_ C_ 0.852068 0.565596 0.643315 -0.05681
C_ C_ 0.830105 0.533981 0.621669 -0.08735
C_ C_ 0.855443 0.984553 0.621608 -0.08735
C_ C_ 0.884456 0.576484 0.690649 -0.08735
C_ C_ 0.885929 0.630197 0.687765 -0.08735
C_ C_ 0.874634 0.652226 0.661962 -0.05681
C_ C_ 0.85706 0.619689 0.639408 -0.08735
C_ C_ 0.966689 0.817529 0.65268 0.68181
C_ C_ 0.889632 0.876718 0.731955 0.1947
C_ C_ 0.888429 0.898922 0.759746 -0.08735
C_ C_ 0.876912 0.870225 0.783682 -0.08735
C_ C_ 0.859062 0.819629 0.7797 -0.05681
C_ C_ 0.854785 0.800201 0.750282 0.18498
C_ C_ 0.830677 0.753237 0.745652 -0.08735
C_ C_ 0.812325 0.724173 0.768155 -0.08735
C_ C_ 0.816301 0.742372 0.797121 -0.08735
C_ C_ 0.840168 0.789872 0.802859 0.18498
C_ C_ 0.807272 0.810905 0.848691 0.44287
C_ C_ 0.895891 0.802727 0.84481 0.44287
C_ C_ 0.903017 0.80699 0.874378 -0.05681
C_ C_ 0.95135 0.80474 0.88694 -0.08735
C_ C_ 0.957384 0.80727 0.9171 -0.08735
C_ C_ 0.913134 0.81784 0.934498 -0.05681
C_ C_ 0.866299 0.826834 0.92135 -0.05681
C_ C_ 0.860099 0.814298 0.89264 -0.05681
C_ C_ 0.811423 0.818227 0.87982 -0.05681
C_ C_ 0.768256 0.829404 0.897475 -0.08735
C_ C_ 0.775158 0.846873 0.926846 -0.08735
C_ C_ 0.823989 0.839729 0.938411 -0.05681
C_ C_ 0.832096 0.844877 0.968597 0.44287
C_ C_ 0.916326 0.814699 0.964458 0.44287
C_ C_ 0.89712 0.839165 0.509888 0.18498
C_ C_ 0.923496 0.883646 0.517847 -0.08735
C_ C_ 0.937604 0.891847 0.547396 -0.08735
C_ C_ 0.917898 0.861363 0.568997 -0.08735
C_ C_ 0.882708 0.824716 0.562639 0.18498
C_ C_ 0.873075 0.813831 0.533027 -0.05681
C_ C_ 0.845454 0.768001 0.527873 -0.08735
C_ C_ 0.82426 0.740594 0.550096 -0.08735
C_ C_ 0.831311 0.756333 0.577943 0.1947
N_ N_ 0.636166 0.66499 0.978998 -0.29468
N_ N_ 0.636583 0.692739 0.583487 -0.17154
N_ N_ 0.622179 0.656541 0.732637 -0.17154
N_ N_ 0.642933 0.693891 0.836745 -0.29468
N_ N_ 0.874119 0.829099 0.727647 -0.29468
N_ N_ 0.850203 0.803981 0.832531 -0.17154
N_ N_ 0.877789 0.832919 0.981281 -0.17154
N_ N_ 0.859792 0.798388 0.583497 -0.29468
O_ O_ 0.720888 0.675321 0.931169 -0.58347
O_ O_ 0.709408 0.68246 0.884596 -0.58347
O_ O_ 0.641844 0.75236 0.936026 -0.58347
O_ O_ 0.631495 0.759213 0.890612 -0.58347
O_ O_ 0.637451 0.599295 0.929761 -0.58347
O_ O_ 0.636708 0.608119 0.882503 -0.58347
O_ O_ 0.567765 0.675526 0.929603 -0.58347
O_ O_ 0.563415 0.682925 0.882495 -0.58347
O_ O_ 0.548745 0.710006 0.584216 -0.46727
O_ O_ 0.720924 0.666501 0.584643 -0.46727
O_ O_ 0.534603 0.66525 0.729987 -0.46727
O_ O_ 0.706382 0.638977 0.733618 -0.46727
O_ O_ 0.794516 0.802412 0.683416 -0.58347
O_ O_ 0.798182 0.79788 0.636564 -0.58347
O_ O_ 0.882307 0.737933 0.680061 -0.58347
O_ O_ 0.8779 0.729023 0.633281 -0.58347
O_ O_ 0.853611 0.883474 0.673548 -0.58347
O_ O_ 0.864446 0.878883 0.626642 -0.58347
O_ O_ 0.939585 0.821853 0.674872 -0.58347
O_ O_ 0.945673 0.806118 0.628776 -0.58347
O_ O_ 0.935784 0.799961 0.828456 -0.46727
O_ O_ 0.764689 0.82538 0.835668 -0.46727
O_ O_ 0.953832 0.788821 0.97651 -0.46727
O_ O_ 0.796681 0.861071 0.985471 -0.46727
_cell_length_a 26.376
_cell_length_b 26.400000238300095
_cell_length_c 46.67800035477134
_cell_angle_alpha 90.00700052986613
_cell_angle_beta 89.99899961309502
_cell_angle_gamma 90.45000003183146
_symmetry_space_group_name_H-M         'P 1'
_symmetry_Int_Tables_number            1
loop_
_symmetry_equiv_pos_as_xyz
   'x, y, z'
                         
loop_
_atom_site_label
_atom_site_type_symbol
_atom_site_fract_x 
_atom_site_fract_y
_atom_site_fract_z
_atom_site_charge
Zn Zn 0.126101 0.179581 0.381867 0.90689
Zn Zn 0.133409 0.175004 0.429643 0.90689
Zn Zn 0.366297 0.323771 0.130869 0.90689
Zn Zn 0.356862 0.333569 0.178621 0.90689
H_ H_ 0.300098 0.190049 0.445177 0.11455
H_ H_ 0.371946 0.154567 0.347167 0.11455
H_ H_ 0.278009 0.158472 0.355758 0.11455
H_ H_ 0.38503 0.200259 0.46467 0.11455
H_ H_ 0.474985 0.199504 0.458486 0.11455
H_ H_ 0.456273 0.1765 0.367781 0.11455
H_ H_ 0.106019 0.00920829 0.439041 0.11455
H_ H_ 0.109638 0.432365 0.347768 0.11455
H_ H_ 0.168823 0.0193154 0.353867 0.11455
H_ H_ 0.134877 0.430991 0.463638 0.11455
H_ H_ 0.114544 0.339561 0.46029 0.11455
H_ H_ 0.108572 0.351293 0.36996 0.11455
H_ H_ 0.0827705 0.09932 0.465317 0.11455
H_ H_ 0.0863391 0.0704557 0.0151039 0.11455
H_ H_ 0.111136 0.120474 0.0564117 0.11455
H_ H_ 0.193143 0.241887 0.472695 0.11455
H_ H_ 0.215845 0.308558 0.0150883 0.11455
H_ H_ 0.199113 0.283202 0.0638278 0.11455
H_ H_ 0.00856359 0.225741 0.120753 0.11455
H_ H_ -0.011287000000000047 0.199245 0.169669 0.11455
H_ H_ 0.254496 0.180625 0.142847 0.11455
H_ H_ 0.234986 0.186917 0.194411 0.11455
H_ H_ 0.0627924 0.0774594 0.250256 0.11455
H_ H_ 0.0486624 0.0527162 0.300733 0.11455
H_ H_ 0.0727658 0.108696 0.337736 0.11455
H_ H_ 0.138821 0.246441 0.256325 0.11455
H_ H_ 0.178834 0.292932 0.298523 0.11455
H_ H_ 0.174546 0.249848 0.347162 0.11455
H_ H_ 0.195482 0.317129 0.196182 0.11455
H_ H_ 0.122433 0.373165 0.102988 0.11455
H_ H_ 0.213491 0.360025 0.106591 0.11455
H_ H_ 0.109494 0.304215 0.215013 0.11455
H_ H_ 0.0189821 0.308411 0.207538 0.11455
H_ H_ 0.0391822 0.34382 0.11803 0.11455
H_ H_ 0.361148 0.497324 0.19221 0.11455
H_ H_ 0.393832 0.0736075 0.0966679 0.11455
H_ H_ 0.352774 0.484315 0.102633 0.11455
H_ H_ 0.332086 0.0769906 0.210688 0.11455
H_ H_ 0.329055 0.170482 0.20652 0.11455
H_ H_ 0.389518 0.156923 0.120451 0.11455
H_ H_ 0.421033 0.399626 0.218053 0.11455
H_ H_ 0.410488 0.438299 0.267093 0.11455
H_ H_ 0.365396 0.393336 0.306112 0.11455
H_ H_ 0.300791 0.265374 0.219649 0.11455
H_ H_ 0.266453 0.210269 0.255916 0.11455
H_ H_ 0.274272 0.236456 0.306712 0.11455
H_ H_ 0.473303 0.292895 0.367671 0.11455
H_ H_ 0.49016 0.29504 0.417554 0.11455
H_ H_ 0.224644 0.33008 0.387935 0.11455
H_ H_ 0.240766 0.318582 0.439669 0.11455
H_ H_ 0.436171 0.399836 0.498033 0.11455
H_ H_ 0.469584 0.43125 0.0467835 0.11455
H_ H_ 0.432286 0.387263 0.0901758 0.11455
H_ H_ 0.333239 0.262282 0.00754182 0.11455
H_ H_ 0.288803 0.229543 0.0480193 0.11455
H_ H_ 0.301547 0.264472 0.0961298 0.11455
C_ C_ 0.228355 0.183139 0.404449 0.68181
C_ C_ 0.282761 0.177642 0.400811 -0.05681
C_ C_ 0.315331 0.182562 0.424444 -0.08735
C_ C_ 0.367559 0.182205 0.42103 -0.05681
C_ C_ 0.388196 0.171326 0.394013 -0.05681
C_ C_ 0.35675 0.165105 0.36876 -0.08735
C_ C_ 0.305019 0.164165 0.37336 -0.08735
C_ C_ 0.400904 0.194711 0.443363 -0.08735
C_ C_ 0.453124 0.192232 0.440124 -0.08735
C_ C_ 0.477019 0.17962 0.413941 -0.05681
C_ C_ 0.442341 0.173008 0.389667 -0.08735
C_ C_ 0.120212 0.278716 0.410356 0.68181
C_ C_ 0.134854 0.078676 0.399513 0.68181
C_ C_ 0.137502 0.0224708 0.397093 -0.05681
C_ C_ 0.136048 0.495135 0.421261 -0.08735
C_ C_ 0.135548 0.441589 0.418303 -0.05681
C_ C_ 0.122155 0.419136 0.392945 -0.05681
C_ C_ 0.117509 0.450406 0.368182 -0.08735
C_ C_ 0.129384 0.501601 0.369845 -0.08735
C_ C_ 0.132876 0.411036 0.442804 -0.08735
C_ C_ 0.130861 0.358298 0.441684 -0.08735
C_ C_ 0.124658 0.335372 0.413788 -0.05681
C_ C_ 0.120909 0.367366 0.389811 -0.08735
C_ C_ 0.0321043 0.169367 0.408165 0.68181
C_ C_ 0.102445 0.12043 0.482879 0.1947
C_ C_ 0.100198 0.109062 0.0108453 -0.08735
C_ C_ 0.121442 0.134027 0.0344833 -0.08735
C_ C_ 0.14739 0.181381 0.0292405 -0.05681
C_ C_ 0.15183 0.197111 1.00001 0.18498
C_ C_ 0.183813 0.230318 0.495035 -0.08735
C_ C_ 0.192198 0.2748 0.0183444 -0.08735
C_ C_ 0.18375 0.259331 0.0465902 -0.08735
C_ C_ 0.16 0.211398 0.0522985 0.18498
C_ C_ 0.184371 0.188943 0.101577 0.44287
C_ C_ 0.0996145 0.20701 0.0923455 0.44287
C_ C_ 0.0854741 0.202003 0.122441 -0.05681
C_ C_ 0.0371978 0.206055 0.133422 -0.08735
C_ C_ 0.0267203 0.197525 0.162823 -0.08735
C_ C_ 0.0654859 0.180103 0.181616 -0.05681
C_ C_ 0.115138 0.175497 0.170078 -0.05681
C_ C_ 0.126113 0.189067 0.141847 -0.05681
C_ C_ 0.174787 0.184409 0.130777 -0.05681
C_ C_ 0.214153 0.179 0.149337 -0.08735
C_ C_ 0.20579 0.177408 0.179127 -0.08735
C_ C_ 0.155502 0.170766 0.189458 -0.05681
C_ C_ 0.145745 0.158637 0.218591 0.44287
C_ C_ 0.0589471 0.180682 0.212247 0.44287
C_ C_ 0.0908587 0.153644 0.259153 0.18498
C_ C_ 0.0713504 0.105322 0.266749 -0.08735
C_ C_ 0.0610127 0.0921454 0.294239 -0.08735
C_ C_ 0.0785777 0.122267 0.316203 -0.08735
C_ C_ 0.106349 0.166673 0.311345 0.18498
C_ C_ 0.109663 0.185361 0.282385 -0.05681
C_ C_ 0.13522 0.231343 0.277506 -0.08735
C_ C_ 0.156633 0.256586 0.301667 -0.08735
C_ C_ 0.154789 0.234529 0.328674 0.1947
C_ C_ 0.264034 0.329827 0.153662 0.68181
C_ C_ 0.209493 0.337356 0.151575 -0.05681
C_ C_ 0.179157 0.329193 0.175426 -0.08735
C_ C_ 0.126597 0.330098 0.171694 -0.05681
C_ C_ 0.106229 0.343031 0.143881 -0.05681
C_ C_ 0.137125 0.355388 0.122021 -0.08735
C_ C_ 0.189804 0.351812 0.124886 -0.08735
C_ C_ 0.093849 0.317729 0.194193 -0.08735
C_ C_ 0.0415762 0.321297 0.189332 -0.08735
C_ C_ 0.0183389 0.334373 0.162757 -0.05681
C_ C_ 0.0524933 0.344115 0.14102 -0.08735
C_ C_ 0.358961 0.227607 0.161449 0.68181
C_ C_ 0.361605 0.426927 0.150471 0.68181
C_ C_ 0.361495 0.483336 0.147288 -0.05681
C_ C_ 0.349864 0.0112047 0.169304 -0.08735
C_ C_ 0.351571 0.0646627 0.166504 -0.05681
C_ C_ 0.371121 0.0870549 0.1424 -0.05681
C_ C_ 0.383027 0.0571086 0.11794 -0.08735
C_ C_ 0.358073 0.506711 0.121169 -0.08735
C_ C_ 0.340264 0.0950809 0.190641 -0.08735
C_ C_ 0.345817 0.148181 0.189019 -0.08735
C_ C_ 0.363173 0.171714 0.164076 -0.05681
C_ C_ 0.372624 0.140615 0.140203 -0.08735
C_ C_ 0.46212 0.320719 0.157584 0.68181
C_ C_ 0.395784 0.381478 0.234255 0.1947
C_ C_ 0.394688 0.401377 0.262546 -0.08735
C_ C_ 0.367295 0.376857 0.284507 -0.08735
C_ C_ 0.345893 0.329321 0.278049 -0.05681
C_ C_ 0.339182 0.315465 0.248497 0.18498
C_ C_ 0.310176 0.27349 0.241572 -0.08735
C_ C_ 0.286847 0.245066 0.262407 -0.08735
C_ C_ 0.292879 0.257697 0.29054 -0.08735
C_ C_ 0.324534 0.298246 0.299277 0.18498
C_ C_ 0.296195 0.323852 0.34689 0.44287
C_ C_ 0.382136 0.293164 0.340419 0.44287
C_ C_ 0.393701 0.307634 0.369423 -0.05681
C_ C_ 0.442027 0.300813 0.380574 -0.08735
C_ C_ 0.450456 0.299435 0.409957 -0.08735
C_ C_ 0.411667 0.311223 0.430106 -0.05681
C_ C_ 0.360996 0.31852 0.41858 -0.05681
C_ C_ 0.353773 0.316545 0.388984 -0.05681
C_ C_ 0.303206 0.319729 0.377903 -0.05681
C_ C_ 0.262973 0.324034 0.396206 -0.08735
C_ C_ 0.27178 0.323326 0.426743 -0.08735
C_ C_ 0.320438 0.326408 0.436931 -0.05681
C_ C_ 0.330826 0.335298 0.466101 0.44287
C_ C_ 0.417056 0.311934 0.460009 0.44287
C_ C_ 0.391558 0.352721 0.00924603 0.18498
C_ C_ 0.422964 0.39437 0.0156849 -0.08735
C_ C_ 0.440961 0.403745 0.0440427 -0.08735
C_ C_ 0.421495 0.376275 0.0674826 -0.08735
C_ C_ 0.387075 0.337574 0.061451 0.18498
C_ C_ 0.374633 0.321903 0.0326942 -0.05681
C_ C_ 0.341222 0.279389 0.0285113 -0.08735
C_ C_ 0.312995 0.26216 0.0511519 -0.08735
C_ C_ 0.324365 0.279298 0.0783993 0.1947
N_ N_ 0.129317 0.165215 0.477656 -0.29468
N_ N_ 0.147678 0.198491 0.0824317 -0.17154
N_ N_ 0.0986654 0.166299 0.229253 -0.17154
N_ N_ 0.128021 0.191182 0.333584 -0.29468
N_ N_ 0.364297 0.342574 0.227482 -0.29468
N_ N_ 0.334393 0.304958 0.329027 -0.17154
N_ N_ 0.377856 0.324528 0.478149 -0.17154
N_ N_ 0.362013 0.312465 0.0836132 -0.29468
O_ O_ 0.208987 0.174225 0.428441 -0.58347
O_ O_ 0.202367 0.192698 0.382626 -0.58347
O_ O_ 0.130054 0.250071 0.431596 -0.58347
O_ O_ 0.116211 0.25873 0.385151 -0.58347
O_ O_ 0.135501 0.101119 0.424103 -0.58347
O_ O_ 0.137532 0.107108 0.378435 -0.58347
O_ O_ 0.0613005 0.178492 0.429781 -0.58347
O_ O_ 0.0521715 0.16442 0.384095 -0.58347
O_ O_ 0.0643924 0.219309 0.0748357 -0.46727
O_ O_ 0.231694 0.186907 0.0919965 -0.46727
O_ O_ 0.0137504 0.183203 0.223369 -0.46727
O_ O_ 0.182902 0.139777 0.234759 -0.46727
O_ O_ 0.283408 0.327427 0.178814 -0.58347
O_ O_ 0.292541 0.330166 0.130845 -0.58347
O_ O_ 0.360206 0.254396 0.184178 -0.58347
O_ O_ 0.355017 0.249991 0.136905 -0.58347
O_ O_ 0.348097 0.407287 0.174581 -0.58347
O_ O_ 0.370616 0.399155 0.129219 -0.58347
O_ O_ 0.43379 0.338354 0.17722 -0.58347
O_ O_ 0.444651 0.316087 0.132611 -0.58347
O_ O_ 0.421278 0.2844 0.32245 -0.46727
O_ O_ 0.25091 0.325168 0.337117 -0.46727
O_ O_ 0.463892 0.310906 0.46984 -0.46727
O_ O_ 0.29308 0.352107 0.48236 -0.46727
Zn Zn 0.129744 0.187622 0.881641 0.90689
Zn Zn 0.142107 0.180507 0.928771 0.90689
Zn Zn 0.366917 0.316126 0.631283 0.90689
Zn Zn 0.361364 0.323316 0.678272 0.90689
H_ H_ 0.305716 0.195751 0.947245 0.11455
H_ H_ 0.36597 0.150732 0.849227 0.11455
H_ H_ 0.28134 0.177176 0.858119 0.11455
H_ H_ 0.392098 0.187695 0.966276 0.11455
H_ H_ 0.48537 0.17368 0.957899 0.11455
H_ H_ 0.465254 0.153994 0.867498 0.11455
H_ H_ 0.168274 0.017303 0.940815 0.11455
H_ H_ 0.133457 0.436608 0.845147 0.11455
H_ H_ 0.104536 0.0274304 0.853857 0.11455
H_ H_ 0.13598 0.435 0.962512 0.11455
H_ H_ 0.127721 0.342627 0.959905 0.11455
H_ H_ 0.124577 0.357911 0.866288 0.11455
H_ H_ 0.0890329 0.105938 0.96555 0.11455
H_ H_ 0.0605947 0.0792633 0.514394 0.11455
H_ H_ 0.0809619 0.14067 0.551657 0.11455
H_ H_ 0.183427 0.256698 0.97318 0.11455
H_ H_ 0.222739 0.297401 0.509317 0.11455
H_ H_ 0.202223 0.275907 0.559586 0.11455
H_ H_ 0.00886903 0.198325 0.624586 0.11455
H_ H_ 0.00173881 0.197585 0.676276 0.11455
H_ H_ 0.252663 0.137205 0.630996 0.11455
H_ H_ 0.248014 0.135157 0.682332 0.11455
H_ H_ 0.091262 0.0761065 0.748761 0.11455
H_ H_ 0.0818586 0.0506824 0.798719 0.11455
H_ H_ 0.0875807 0.117721 0.837065 0.11455
H_ H_ 0.153672 0.254103 0.757642 0.11455
H_ H_ 0.19043 0.296555 0.796904 0.11455
H_ H_ 0.190206 0.25785 0.845895 0.11455
H_ H_ 0.195767 0.309349 0.693834 0.11455
H_ H_ 0.117035 0.318273 0.599004 0.11455
H_ H_ 0.212344 0.3297 0.605101 0.11455
H_ H_ 0.109663 0.31727 0.716464 0.11455
H_ H_ 0.0161193 0.306087 0.711233 0.11455
H_ H_ 0.0346991 0.326566 0.619188 0.11455
H_ H_ 0.372864 0.486202 0.694925 0.11455
H_ H_ 0.388632 0.0626596 0.596147 0.11455
H_ H_ 0.361532 0.473991 0.603112 0.11455
H_ H_ 0.36249 0.0714752 0.712662 0.11455
H_ H_ 0.356539 0.163287 0.706201 0.11455
H_ H_ 0.383092 0.147901 0.617633 0.11455
H_ H_ 0.404846 0.39697 0.720276 0.11455
H_ H_ 0.433562 0.408625 0.77039 0.11455
H_ H_ 0.406509 0.348662 0.807822 0.11455
H_ H_ 0.296141 0.249815 0.72298 0.11455
H_ H_ 0.271625 0.189769 0.76119 0.11455
H_ H_ 0.292834 0.209675 0.812216 0.11455
H_ H_ 0.481865 0.272301 0.878699 0.11455
H_ H_ 0.491485 0.284571 0.927866 0.11455
H_ H_ 0.239072 0.344136 0.883854 0.11455
H_ H_ 0.249842 0.367077 0.938064 0.11455
H_ H_ 0.435153 0.41871 -0.000865049 0.11455
H_ H_ 0.444195 0.433267 0.547388 0.11455
H_ H_ 0.410521 0.382241 0.587296 0.11455
H_ H_ 0.331119 0.248033 0.506108 0.11455
H_ H_ 0.306505 0.19765 0.54522 0.11455
H_ H_ 0.319309 0.230216 0.595222 0.11455
C_ C_ 0.231869 0.193081 0.907017 0.68181
C_ C_ 0.288502 0.188707 0.902332 -0.05681
C_ C_ 0.320296 0.183749 0.925597 -0.08735
C_ C_ 0.371325 0.173926 0.920862 -0.05681
C_ C_ 0.392031 0.166374 0.892929 -0.05681
C_ C_ 0.356022 0.166298 0.869277 -0.08735
C_ C_ 0.307496 0.180319 0.874249 -0.08735
C_ C_ 0.407156 0.177137 0.94426 -0.08735
C_ C_ 0.46014 0.169877 0.939842 -0.08735
C_ C_ 0.480823 0.161872 0.913011 -0.05681
C_ C_ 0.446858 0.156151 0.889536 -0.08735
C_ C_ 0.125139 0.284269 0.910651 0.68181
C_ C_ 0.143065 0.0880935 0.90044 0.68181
C_ C_ 0.140998 0.0305769 0.896786 -0.05681
C_ C_ 0.149749 0.497281 0.920838 -0.08735
C_ C_ 0.137298 0.446135 0.917949 -0.05681
C_ C_ 0.132503 0.423887 0.890638 -0.05681
C_ C_ 0.130539 0.454061 0.865527 -0.08735
C_ C_ 0.140078 0.508664 0.868784 -0.08735
C_ C_ 0.136157 0.417363 0.942093 -0.08735
C_ C_ 0.128098 0.364967 0.939969 -0.08735
C_ C_ 0.1242 0.340118 0.913041 -0.05681
C_ C_ 0.131364 0.372204 0.888284 -0.08735
C_ C_ 0.0383029 0.186363 0.904802 0.68181
C_ C_ 0.1045 0.128309 0.982015 0.1947
C_ C_ 0.0888423 0.108488 0.511498 -0.08735
C_ C_ 0.104268 0.140052 0.533657 -0.08735
C_ C_ 0.134803 0.182178 0.528502 -0.05681
C_ C_ 0.148104 0.192956 0.499476 0.18498
C_ C_ 0.173618 0.245432 0.995033 -0.08735
C_ C_ 0.198793 0.26478 0.516182 -0.08735
C_ C_ 0.181641 0.256199 0.543969 -0.08735
C_ C_ 0.148073 0.215988 0.550799 0.18498
C_ C_ 0.184875 0.181651 0.596324 0.44287
C_ C_ 0.0964901 0.203969 0.593198 0.44287
C_ C_ 0.0913226 0.191079 0.623802 -0.05681
C_ C_ 0.0423915 0.194225 0.637799 -0.08735
C_ C_ 0.0381473 0.194464 0.666999 -0.08735
C_ C_ 0.0827882 0.187941 0.683871 -0.05681
C_ C_ 0.130358 0.177877 0.669496 -0.05681
C_ C_ 0.134564 0.177181 0.639455 -0.05681
C_ C_ 0.18109 0.1718 0.625589 -0.05681
C_ C_ 0.22024 0.151301 0.640657 -0.08735
C_ C_ 0.214959 0.147498 0.67135 -0.08735
C_ C_ 0.17077 0.160857 0.68539 -0.05681
C_ C_ 0.167396 0.157424 0.715801 0.44287
C_ C_ 0.0798819 0.183917 0.713752 0.44287
C_ C_ 0.117481 0.153825 0.759246 0.18498
C_ C_ 0.101651 0.103459 0.765968 -0.08735
C_ C_ 0.0928643 0.0896294 0.794392 -0.08735
C_ C_ 0.103524 0.124374 0.815595 -0.08735
C_ C_ 0.125276 0.171814 0.810602 0.18498
C_ C_ 0.132278 0.186648 0.782286 -0.05681
C_ C_ 0.15255 0.235521 0.778067 -0.08735
C_ C_ 0.175452 0.259819 0.801295 -0.08735
C_ C_ 0.167205 0.243397 0.828699 0.1947
C_ C_ 0.265684 0.31034 0.654454 0.68181
C_ C_ 0.210055 0.313743 0.649401 -0.05681
C_ C_ 0.178899 0.30957 0.673868 -0.08735
C_ C_ 0.125936 0.313423 0.671239 -0.05681
C_ C_ 0.104121 0.316011 0.644613 -0.05681
C_ C_ 0.135655 0.318165 0.620029 -0.08735
C_ C_ 0.189222 0.318145 0.622604 -0.08735
C_ C_ 0.0946642 0.317728 0.695315 -0.08735
C_ C_ 0.0414173 0.313223 0.691572 -0.08735
C_ C_ 0.0193619 0.310896 0.665145 -0.05681
C_ C_ 0.0506083 0.31722 0.64057 -0.08735
C_ C_ 0.37328 0.221488 0.660419 0.68181
C_ C_ 0.35904 0.41741 0.651307 0.68181
C_ C_ 0.372742 0.472605 0.649021 -0.05681
C_ C_ 0.371905 0.00522118 0.671468 -0.08735
C_ C_ 0.374871 0.0580392 0.668654 -0.05681
C_ C_ 0.38225 0.0798766 0.641435 -0.05681
C_ C_ 0.382043 0.0478803 0.617603 -0.08735
C_ C_ 0.370468 0.496695 0.622111 -0.08735
C_ C_ 0.369625 0.0880414 0.691436 -0.08735
C_ C_ 0.368387 0.141115 0.689169 -0.08735
C_ C_ 0.376484 0.163667 0.662586 -0.05681
C_ C_ 0.385601 0.13142 0.638735 -0.08735
C_ C_ 0.464131 0.323587 0.656636 0.68181
C_ C_ 0.394504 0.36932 0.735891 0.1947
C_ C_ 0.403587 0.380604 0.764543 -0.08735
C_ C_ 0.390852 0.344496 0.786093 -0.08735
C_ C_ 0.353191 0.307502 0.78087 -0.05681
C_ C_ 0.342259 0.299071 0.750621 0.18498
C_ C_ 0.308663 0.25704 0.744214 -0.08735
C_ C_ 0.296204 0.22261 0.766043 -0.08735
C_ C_ 0.304799 0.235088 0.794962 -0.08735
C_ C_ 0.339653 0.27467 0.802461 0.18498
C_ C_ 0.309565 0.310564 0.849513 0.44287
C_ C_ 0.394211 0.278641 0.846414 0.44287
C_ C_ 0.40111 0.29067 0.876383 -0.05681
C_ C_ 0.451794 0.287066 0.889698 -0.08735
C_ C_ 0.45606 0.297737 0.918246 -0.08735
C_ C_ 0.415425 0.314129 0.935021 -0.05681
C_ C_ 0.366428 0.32082 0.921923 -0.05681
C_ C_ 0.360765 0.309415 0.892174 -0.05681
C_ C_ 0.314549 0.320247 0.878827 -0.05681
C_ C_ 0.273589 0.337512 0.894689 -0.08735
C_ C_ 0.278822 0.347556 0.925423 -0.08735
C_ C_ 0.326383 0.338852 0.938726 -0.05681
C_ C_ 0.335281 0.34552 0.967938 0.44287
C_ C_ 0.420177 0.3178 0.963791 0.44287
C_ C_ 0.389297 0.337761 0.508321 0.18498
C_ C_ 0.418144 0.38014 0.515333 -0.08735
C_ C_ 0.425622 0.396641 0.543771 -0.08735
C_ C_ 0.403697 0.370171 0.566148 -0.08735
C_ C_ 0.37988 0.323272 0.560112 0.18498
C_ C_ 0.367604 0.309617 0.530969 -0.05681
C_ C_ 0.342756 0.261017 0.526374 -0.08735
C_ C_ 0.325058 0.234082 0.54984 -0.08735
C_ C_ 0.334985 0.251723 0.577766 0.1947
N_ N_ 0.131683 0.17215 0.977088 -0.29468
N_ N_ 0.143289 0.198662 0.580611 -0.17154
N_ N_ 0.12307 0.169129 0.729306 -0.17154
N_ N_ 0.139598 0.201486 0.83295 -0.29468
N_ N_ 0.366593 0.326498 0.728968 -0.29468
N_ N_ 0.348966 0.288049 0.832671 -0.17154
N_ N_ 0.381433 0.337984 0.979481 -0.17154
N_ N_ 0.362141 0.296669 0.583076 -0.29468
O_ O_ 0.213717 0.177373 0.930259 -0.58347
O_ O_ 0.203593 0.199507 0.886123 -0.58347
O_ O_ 0.136076 0.256107 0.931668 -0.58347
O_ O_ 0.122744 0.26408 0.886638 -0.58347
O_ O_ 0.146106 0.107169 0.924642 -0.58347
O_ O_ 0.140258 0.116145 0.878707 -0.58347
O_ O_ 0.066152 0.18175 0.927066 -0.58347
O_ O_ 0.0571297 0.180493 0.880047 -0.58347
O_ O_ 0.05784 0.228528 0.5801 -0.46727
O_ O_ 0.228979 0.187461 0.584792 -0.46727
O_ O_ 0.0358317 0.181473 0.726482 -0.46727
O_ O_ 0.203595 0.137996 0.731002 -0.46727
O_ O_ 0.284589 0.320322 0.67887 -0.58347
O_ O_ 0.2936 0.304678 0.632906 -0.58347
O_ O_ 0.363233 0.247633 0.681772 -0.58347
O_ O_ 0.373846 0.240544 0.634872 -0.58347
O_ O_ 0.360576 0.395418 0.674753 -0.58347
O_ O_ 0.355851 0.391104 0.628708 -0.58347
O_ O_ 0.434415 0.32878 0.678083 -0.58347
O_ O_ 0.444322 0.322642 0.631178 -0.58347
O_ O_ 0.432081 0.261848 0.83063 -0.46727
O_ O_ 0.26533 0.320111 0.83748 -0.46727
O_ O_ 0.464537 0.308505 0.976333 -0.46727
O_ O_ 0.303701 0.373556 0.982884 -0.46727
Zn Zn 0.127859 0.681615 0.380168 0.90689
Zn Zn 0.137155 0.679099 0.427756 0.90689
Zn Zn 0.376109 0.824288 0.131829 0.90689
Zn Zn 0.368234 0.82837 0.179189 0.90689
H_ H_ 0.302917 0.69348 0.447397 0.11455
H_ H_ 0.374041 0.66533 0.350222 0.11455
H_ H_ 0.283686 0.67596 0.356233 0.11455
H_ H_ 0.391301 0.694719 0.467165 0.11455
H_ H_ 0.480484 0.689162 0.459435 0.11455
H_ H_ 0.460848 0.672411 0.37061 0.11455
H_ H_ 0.133885 0.514378 0.441908 0.11455
H_ H_ 0.164408 0.929786 0.349679 0.11455
H_ H_ 0.1238 0.523306 0.350175 0.11455
H_ H_ 0.0995709 0.925758 0.463527 0.11455
H_ H_ 0.106094 0.834596 0.460569 0.11455
H_ H_ 0.124105 0.851799 0.367972 0.11455
H_ H_ 0.0691525 0.613677 0.468134 0.11455
H_ H_ 0.0762336 0.580027 0.00769232 0.11455
H_ H_ 0.109768 0.624814 0.0509614 0.11455
H_ H_ 0.191637 0.746959 0.470638 0.11455
H_ H_ 0.241677 0.798284 0.014488 0.11455
H_ H_ 0.204985 0.781236 0.0612597 0.11455
H_ H_ 0.021854 0.699545 0.117458 0.11455
H_ H_ 0.0103552 0.689109 0.167335 0.11455
H_ H_ 0.273859 0.666277 0.138866 0.11455
H_ H_ 0.264014 0.673336 0.189287 0.11455
H_ H_ 0.0723409 0.600145 0.241194 0.11455
H_ H_ 0.0488618 0.572446 0.291294 0.11455
H_ H_ 0.0722663 0.622231 0.332 0.11455
H_ H_ 0.171203 0.754093 0.261216 0.11455
H_ H_ 0.205697 0.789338 0.306353 0.11455
H_ H_ 0.191699 0.748869 0.351135 0.11455
H_ H_ 0.201817 0.805512 0.19298 0.11455
H_ H_ 0.128604 0.833812 0.0986836 0.11455
H_ H_ 0.221451 0.832876 0.105144 0.11455
H_ H_ 0.117461 0.802745 0.216391 0.11455
H_ H_ 0.0250734 0.80607 0.205137 0.11455
H_ H_ 0.046387 0.849817 0.118393 0.11455
H_ H_ 0.339173 0.994401 0.189507 0.11455
H_ H_ 0.367693 0.574241 0.0966023 0.11455
H_ H_ 0.405107 0.985781 0.105805 0.11455
H_ H_ 0.383068 0.585031 0.214521 0.11455
H_ H_ 0.402376 0.672979 0.208966 0.11455
H_ H_ 0.371391 0.662216 0.118253 0.11455
H_ H_ 0.42338 0.901249 0.214559 0.11455
H_ H_ 0.430093 0.935553 0.264751 0.11455
H_ H_ 0.39461 0.884468 0.306113 0.11455
H_ H_ 0.319324 0.754537 0.220732 0.11455
H_ H_ 0.293 0.702536 0.260688 0.11455
H_ H_ 0.293933 0.735719 0.311983 0.11455
H_ H_ 0.486534 0.798041 0.372743 0.11455
H_ H_ 0.498291 0.806587 0.422996 0.11455
H_ H_ 0.239946 0.856486 0.388429 0.11455
H_ H_ 0.253701 0.868065 0.440118 0.11455
H_ H_ 0.441496 0.922094 0.501963 0.11455
H_ H_ 0.474193 0.930082 0.0475311 0.11455
H_ H_ 0.431291 0.884043 0.0893554 0.11455
H_ H_ 0.35821 0.756232 0.00388075 0.11455
H_ H_ 0.328519 0.703444 0.0451438 0.11455
H_ H_ 0.329438 0.743949 0.096078 0.11455
C_ C_ 0.232505 0.689365 0.404663 0.68181
C_ C_ 0.287782 0.686427 0.402144 -0.05681
C_ C_ 0.319385 0.694188 0.426191 -0.08735
C_ C_ 0.373227 0.695481 0.422929 -0.05681
C_ C_ 0.391867 0.685263 0.39453 -0.05681
C_ C_ 0.360368 0.677736 0.37113 -0.08735
C_ C_ 0.308555 0.681181 0.374423 -0.08735
C_ C_ 0.40553 0.698309 0.446108 -0.08735
C_ C_ 0.45782 0.694505 0.441224 -0.08735
C_ C_ 0.477069 0.686641 0.413571 -0.05681
C_ C_ 0.443794 0.677845 0.391437 -0.08735
C_ C_ 0.122924 0.777752 0.412102 0.68181
C_ C_ 0.136905 0.580833 0.397491 0.68181
C_ C_ 0.135456 0.52545 0.396019 -0.05681
C_ C_ 0.120896 0.99123 0.41987 -0.08735
C_ C_ 0.124007 0.939817 0.418724 -0.05681
C_ C_ 0.137632 0.917351 0.392469 -0.05681
C_ C_ 0.145939 0.947 0.368996 -0.08735
C_ C_ 0.152245 0.99839296 0.371989 -0.08735
C_ C_ 0.109813 0.910317 0.443099 -0.08735
C_ C_ 0.11591 0.857525 0.440966 -0.08735
C_ C_ 0.121826 0.833267 0.413955 -0.05681
C_ C_ 0.133557 0.864495 0.389874 -0.08735
C_ C_ 0.0334718 0.674515 0.405031 0.68181
C_ C_ 0.0936574 0.63331 0.483499 0.1947
C_ C_ 0.10674 0.607218 0.00492232 -0.08735
C_ C_ 0.123733 0.63456 0.0291348 -0.08735
C_ C_ 0.153628 0.678486 0.0260466 -0.05681
C_ C_ 0.168829 0.691939 0.997343 0.18498
C_ C_ 0.188096 0.734855 0.49207 -0.08735
C_ C_ 0.217368 0.764348 0.0169112 -0.08735
C_ C_ 0.195857 0.755989 0.0437905 -0.08735
C_ C_ 0.168864 0.710072 0.0497059 0.18498
C_ C_ 0.202043 0.685434 0.0957757 0.44287
C_ C_ 0.113835 0.700867 0.0900818 0.44287
C_ C_ 0.10666 0.703674 0.120628 -0.05681
C_ C_ 0.0574615 0.702113 0.131376 -0.08735
C_ C_ 0.0508679 0.691144 0.160539 -0.08735
C_ C_ 0.091473 0.692524 0.180062 -0.05681
C_ C_ 0.139468 0.691323 0.168953 -0.05681
C_ C_ 0.14824 0.693933 0.139102 -0.05681
C_ C_ 0.197774 0.689936 0.126373 -0.05681
C_ C_ 0.236883 0.676018 0.145667 -0.08735
C_ C_ 0.229382 0.673796 0.176274 -0.08735
C_ C_ 0.181732 0.687122 0.187763 -0.05681
C_ C_ 0.173178 0.680536 0.217954 0.44287
C_ C_ 0.0829176 0.69194 0.209078 0.44287
C_ C_ 0.11217 0.667786 0.255933 0.18498
C_ C_ 0.0840334 0.620684 0.25996 -0.08735
C_ C_ 0.0690999 0.606226 0.288133 -0.08735
C_ C_ 0.0860352 0.631464 0.312053 -0.08735
C_ C_ 0.118414 0.67212 0.309589 0.18498
C_ C_ 0.13275 0.69098 0.281525 -0.05681
C_ C_ 0.161859 0.736084 0.281709 -0.08735
C_ C_ 0.179823 0.758138 0.306401 -0.08735
C_ C_ 0.170338 0.736415 0.333058 0.1947
C_ C_ 0.273766 0.815985 0.154094 0.68181
C_ C_ 0.218752 0.821567 0.150721 -0.05681
C_ C_ 0.186046 0.814765 0.174105 -0.08735
C_ C_ 0.133112 0.817201 0.171548 -0.05681
C_ C_ 0.114195 0.82835 0.143751 -0.05681
C_ C_ 0.146232 0.829748 0.120311 -0.08735
C_ C_ 0.197337 0.829743 0.123192 -0.08735
C_ C_ 0.101287 0.811979 0.194466 -0.08735
C_ C_ 0.0475863 0.817241 0.18966 -0.08735
C_ C_ 0.0279137 0.829325 0.162731 -0.05681
C_ C_ 0.0622696 0.839236 0.140279 -0.08735
C_ C_ 0.385777 0.730329 0.160752 0.68181
C_ C_ 0.36777 0.924451 0.150203 0.68181
C_ C_ 0.369415 0.980932 0.146979 -0.05681
C_ C_ 0.361367 0.515039 0.172064 -0.08735
C_ C_ 0.369143 0.566666 0.169433 -0.05681
C_ C_ 0.370932 0.59048 0.142195 -0.05681
C_ C_ 0.360008 0.560267 0.118804 -0.08735
C_ C_ 0.388166 0.00574678 0.121626 -0.08735
C_ C_ 0.380994 0.600718 0.193166 -0.08735
C_ C_ 0.387533 0.653593 0.19039 -0.08735
C_ C_ 0.384407 0.675414 0.163855 -0.05681
C_ C_ 0.373655 0.645053 0.139807 -0.08735
C_ C_ 0.470497 0.830294 0.155555 0.68181
C_ C_ 0.403498 0.881901 0.23271 0.1947
C_ C_ 0.40891 0.902191 0.260229 -0.08735
C_ C_ 0.388354 0.874083 0.283697 -0.08735
C_ C_ 0.360144 0.829082 0.278472 -0.05681
C_ C_ 0.35349 0.812308 0.249261 0.18498
C_ C_ 0.327442 0.767725 0.243542 -0.08735
C_ C_ 0.31157 0.737512 0.265261 -0.08735
C_ C_ 0.311955 0.754832 0.293598 -0.08735
C_ C_ 0.341474 0.798118 0.301387 0.18498
C_ C_ 0.310292 0.831789 0.347586 0.44287
C_ C_ 0.395501 0.807318 0.342847 0.44287
C_ C_ 0.406912 0.820285 0.371883 -0.05681
C_ C_ 0.455501 0.813909 0.384092 -0.08735
C_ C_ 0.461241 0.814577 0.413611 -0.08735
C_ C_ 0.418692 0.828199 0.431461 -0.05681
C_ C_ 0.372794 0.840555 0.420115 -0.05681
C_ C_ 0.365901 0.835501 0.389566 -0.05681
C_ C_ 0.316737 0.839696 0.378221 -0.05681
C_ C_ 0.276886 0.851183 0.39693 -0.08735
C_ C_ 0.285561 0.85655 0.426609 -0.08735
C_ C_ 0.330669 0.847795 0.437794 -0.05681
C_ C_ 0.33872 0.855437 0.467 0.44287
C_ C_ 0.423368 0.830153 0.461681 0.44287
C_ C_ 0.402817 0.847412 0.00839356 0.18498
C_ C_ 0.433528 0.890128 0.0152727 -0.08735
C_ C_ 0.448318 0.900091 0.0436058 -0.08735
C_ C_ 0.425998 0.872054 0.067119 -0.08735
C_ C_ 0.391637 0.83373 0.0612089 0.18498
C_ C_ 0.387994 0.815196 0.031917 -0.05681
C_ C_ 0.360618 0.770637 0.0262065 -0.08735
C_ C_ 0.346922 0.73942 0.0502196 -0.08735
C_ C_ 0.347544 0.761346 0.0774492 0.1947
N_ N_ 0.129195 0.668251 0.476565 -0.29468
N_ N_ 0.161363 0.697963 0.0785486 -0.17154
N_ N_ 0.123561 0.68717 0.227647 -0.17154
N_ N_ 0.140438 0.69377 0.333158 -0.29468
N_ N_ 0.374508 0.840232 0.22732 -0.29468
N_ N_ 0.349171 0.811518 0.331296 -0.17154
N_ N_ 0.385946 0.846029 0.478698 -0.17154
N_ N_ 0.373361 0.80494 0.0826331 -0.29468
O_ O_ 0.212799 0.691485 0.428505 -0.58347
O_ O_ 0.204942 0.67968 0.383245 -0.58347
O_ O_ 0.122712 0.751253 0.434741 -0.58347
O_ O_ 0.125631 0.757275 0.388013 -0.58347
O_ O_ 0.14723 0.602048 0.422047 -0.58347
O_ O_ 0.128965 0.608487 0.374869 -0.58347
O_ O_ 0.0627607 0.669833 0.426068 -0.58347
O_ O_ 0.0527452 0.684691 0.379852 -0.58347
O_ O_ 0.0757232 0.710614 0.0736252 -0.46727
O_ O_ 0.248131 0.685325 0.083883 -0.46727
O_ O_ 0.0355278 0.696516 0.218282 -0.46727
O_ O_ 0.210283 0.675148 0.236131 -0.46727
O_ O_ 0.292695 0.819639 0.178565 -0.58347
O_ O_ 0.301277 0.816171 0.131234 -0.58347
O_ O_ 0.386261 0.75754 0.183425 -0.58347
O_ O_ 0.376782 0.750892 0.136967 -0.58347
O_ O_ 0.361435 0.903785 0.174109 -0.58347
O_ O_ 0.371181 0.898114 0.127626 -0.58347
O_ O_ 0.442357 0.840412 0.177728 -0.58347
O_ O_ 0.44988 0.827375 0.130525 -0.58347
O_ O_ 0.435346 0.80276 0.326098 -0.46727
O_ O_ 0.263256 0.838809 0.336581 -0.46727
O_ O_ 0.464432 0.81686 0.4741 -0.46727
O_ O_ 0.306631 0.883546 0.482131 -0.46727
Zn Zn 0.137736 0.691366 0.87906 0.90689
Zn Zn 0.14879 0.681448 0.927534 0.90689
Zn Zn 0.37454 0.815467 0.631415 0.90689
Zn Zn 0.361315 0.821835 0.680032 0.90689
H_ H_ 0.311375 0.704311 0.940592 0.11455
H_ H_ 0.385951 0.666798 0.844222 0.11455
H_ H_ 0.295629 0.674137 0.85021 0.11455
H_ H_ 0.403505 0.703841 0.961881 0.11455
H_ H_ 0.487083 0.688878 0.953698 0.11455
H_ H_ 0.468236 0.665703 0.863379 0.11455
H_ H_ 0.161799 0.510638 0.941011 0.11455
H_ H_ 0.0937239 0.938279 0.852041 0.11455
H_ H_ 0.146769 0.534564 0.850783 0.11455
H_ H_ 0.167374 0.929017 0.964927 0.11455
H_ H_ 0.163057 0.833482 0.956552 0.11455
H_ H_ 0.101069 0.852501 0.874383 0.11455
H_ H_ 0.0988572 0.606801 0.95958 0.11455
H_ H_ 0.0638108 0.585734 0.516714 0.11455
H_ H_ 0.0987585 0.631462 0.555316 0.11455
H_ H_ 0.213688 0.748543 0.973714 0.11455
H_ H_ 0.236221 0.792914 0.508881 0.11455
H_ H_ 0.213874 0.772541 0.558205 0.11455
H_ H_ 1.019668 0.695023 0.619316 0.11455
H_ H_ 1.00654718 0.674665 0.669132 0.11455
H_ H_ 0.27033 0.669271 0.637711 0.11455
H_ H_ 0.259089 0.651109 0.686793 0.11455
H_ H_ 0.068953 0.580558 0.746688 0.11455
H_ H_ 0.0543121 0.559844 0.799663 0.11455
H_ H_ 0.0736978 0.622363 0.835771 0.11455
H_ H_ 0.169676 0.729613 0.75212 0.11455
H_ H_ 0.202573 0.785145 0.789096 0.11455
H_ H_ 0.194911 0.752616 0.839601 0.11455
H_ H_ 0.192499 0.790681 0.691499 0.11455
H_ H_ 0.130768 0.837765 0.594254 0.11455
H_ H_ 0.219087 0.845054 0.606615 0.11455
H_ H_ 0.108638 0.795197 0.709439 0.11455
H_ H_ 0.0150512 0.799581 0.701292 0.11455
H_ H_ 0.0403471 0.827356 0.610333 0.11455
H_ H_ 0.378262 0.988099 0.693354 0.11455
H_ H_ 0.35938 0.567433 0.599611 0.11455
H_ H_ 0.372466 0.97267 0.601971 0.11455
H_ H_ 0.400269 0.573024 0.716099 0.11455
H_ H_ 0.41639 0.664014 0.708066 0.11455
H_ H_ 0.375868 0.648328 0.620929 0.11455
H_ H_ 0.419019 0.897971 0.715526 0.11455
H_ H_ 0.438988 0.922306 0.76549 0.11455
H_ H_ 0.39789 0.875225 0.805728 0.11455
H_ H_ 0.310437 0.759791 0.720403 0.11455
H_ H_ 0.2803 0.704767 0.757778 0.11455
H_ H_ 0.304346 0.721419 0.80757 0.11455
H_ H_ 0.49483 0.780731 0.873058 0.11455
H_ H_ 0.506634 0.801458 0.922456 0.11455
H_ H_ 0.249595 0.830395 0.88435 0.11455
H_ H_ 0.26174 0.851958 0.936153 0.11455
H_ H_ 0.446304 0.912718 0.997216 0.11455
H_ H_ 0.465772 0.932895 0.552369 0.11455
H_ H_ 0.432095 0.876894 0.587652 0.11455
H_ H_ 0.333013 0.770569 0.503311 0.11455
H_ H_ 0.299475 0.717886 0.545291 0.11455
H_ H_ 0.325614 0.737051 0.593494 0.11455
C_ C_ 0.243769 0.691807 0.900077 0.68181
C_ C_ 0.296748 0.689771 0.89667 -0.05681
C_ C_ 0.3287 0.702534 0.919359 -0.08735
C_ C_ 0.381939 0.698688 0.916085 -0.05681
C_ C_ 0.401976 0.686974 0.888152 -0.05681
C_ C_ 0.369387 0.680273 0.864253 -0.08735
C_ C_ 0.317356 0.678059 0.869277 -0.08735
C_ C_ 0.412512 0.694253 0.939522 -0.08735
C_ C_ 0.464585 0.68631 0.935928 -0.08735
C_ C_ 0.486344 0.683137 0.908373 -0.05681
C_ C_ 0.454929 0.679012 0.884717 -0.08735
C_ C_ 0.141965 0.784049 0.909213 0.68181
C_ C_ 0.14857 0.586895 0.899821 0.68181
C_ C_ 0.150299 0.5297 0.896553 -0.05681
C_ C_ 0.152348 0.999787 0.921556 -0.08735
C_ C_ 0.146163 0.947448 0.920427 -0.05681
C_ C_ 0.130429 0.923299 0.894259 -0.05681
C_ C_ 0.114679 0.953319 0.871173 -0.08735
C_ C_ 0.117454 0.00750675 0.872766 -0.08735
C_ C_ 0.162627 0.914131 0.942418 -0.08735
C_ C_ 0.157601 0.861024 0.939372 -0.08735
C_ C_ 0.143606 0.839415 0.912993 -0.05681
C_ C_ 0.122809 0.871278 0.891676 -0.08735
C_ C_ 0.0433896 0.676537 0.904593 0.68181
C_ C_ 0.116088 0.626914 0.978146 0.1947
C_ C_ 0.0883843 0.61686 0.512082 -0.08735
C_ C_ 0.112933 0.640623 0.534457 -0.08735
C_ C_ 0.148892 0.680247 0.52841 -0.05681
C_ C_ 0.154982 0.694595 0.498556 0.18498
C_ C_ 0.202226 0.735193 0.993256 -0.08735
C_ C_ 0.209296 0.763733 0.513508 -0.08735
C_ C_ 0.196423 0.753781 0.541237 -0.08735
C_ C_ 0.16757 0.710815 0.54914 0.18498
C_ C_ 0.198905 0.692102 0.597583 0.44287
C_ C_ 0.110671 0.702437 0.590721 0.44287
C_ C_ 0.100589 0.692112 0.620801 -0.05681
C_ C_ 0.0527941 0.691891 0.632519 -0.08735
C_ C_ 0.0451978 0.682838 0.661565 -0.08735
C_ C_ 0.0858004 0.667163 0.679332 -0.05681
C_ C_ 0.134686 0.665343 0.667645 -0.05681
C_ C_ 0.142036 0.675344 0.637867 -0.05681
C_ C_ 0.19105 0.677282 0.626528 -0.05681
C_ C_ 0.232028 0.664481 0.644756 -0.08735
C_ C_ 0.224767 0.654571 0.673363 -0.08735
C_ C_ 0.176586 0.651823 0.685011 -0.05681
C_ C_ 0.166431 0.647372 0.715104 0.44287
C_ C_ 0.0808462 0.668128 0.710074 0.44287
C_ C_ 0.112419 0.646691 0.756571 0.18498
C_ C_ 0.0844017 0.602945 0.763819 -0.08735
C_ C_ 0.0732026 0.594278 0.792473 -0.08735
C_ C_ 0.0859902 0.628643 0.813904 -0.08735
C_ C_ 0.117579 0.6685 0.808029 0.18498
C_ C_ 0.12999 0.678583 0.779727 -0.05681
C_ C_ 0.157231 0.723532 0.773487 -0.08735
C_ C_ 0.17777 0.752475 0.794817 -0.08735
C_ C_ 0.17172 0.73659 0.823241 0.1947
C_ C_ 0.268282 0.816184 0.6537 0.68181
C_ C_ 0.212149 0.813663 0.64815 -0.05681
C_ C_ 0.178709 0.804814 0.670429 -0.08735
C_ C_ 0.125374 0.806782 0.664795 -0.05681
C_ C_ 0.107865 0.812881 0.637044 -0.05681
C_ C_ 0.142121 0.827921 0.615791 -0.08735
C_ C_ 0.194105 0.830396 0.621637 -0.08735
C_ C_ 0.0929271 0.799191 0.68714 -0.08735
C_ C_ 0.0402604 0.80661 0.683089 -0.08735
C_ C_ 0.0221294 0.814261 0.655773 -0.05681
C_ C_ 0.0558906 0.815727 0.632984 -0.08735
C_ C_ 0.382296 0.720105 0.663695 0.68181
C_ C_ 0.371723 0.916738 0.651664 0.68181
C_ C_ 0.37062 0.972525 0.647795 -0.05681
C_ C_ 0.38041 0.501907 0.674117 -0.08735
C_ C_ 0.383247 0.555484 0.670567 -0.05681
C_ C_ 0.375204 0.579761 0.644473 -0.05681
C_ C_ 0.367833 0.54829 0.620209 -0.08735
C_ C_ 0.376666 0.995827 0.620419 -0.08735
C_ C_ 0.391341 0.586929 0.69448 -0.08735
C_ C_ 0.392843 0.640424 0.692604 -0.08735
C_ C_ 0.377626 0.662621 0.666591 -0.05681
C_ C_ 0.371192 0.631966 0.64205 -0.08735
C_ C_ 0.46707 0.821318 0.658183 0.68181
C_ C_ 0.399902 0.877717 0.732894 0.1947
C_ C_ 0.410131 0.893322 0.761305 -0.08735
C_ C_ 0.388862 0.865028 0.78364 -0.08735
C_ C_ 0.365755 0.81912 0.777004 -0.05681
C_ C_ 0.356043 0.804795 0.747571 0.18498
C_ C_ 0.326506 0.76354 0.741822 -0.08735
C_ C_ 0.308373 0.732551 0.763612 -0.08735
C_ C_ 0.321916 0.7432 0.791598 -0.08735
C_ C_ 0.353093 0.782879 0.798949 0.18498
C_ C_ 0.32041 0.808142 0.847091 0.44287
C_ C_ 0.40738 0.792686 0.842412 0.44287
C_ C_ 0.415163 0.807291 0.871318 -0.05681
C_ C_ 0.462605 0.798178 0.884708 -0.08735
C_ C_ 0.470855 0.804765 0.914185 -0.08735
C_ C_ 0.431272 0.819917 0.932026 -0.05681
C_ C_ 0.381363 0.824616 0.919477 -0.05681
C_ C_ 0.373873 0.817562 0.888927 -0.05681
C_ C_ 0.326984 0.818964 0.876255 -0.05681
C_ C_ 0.285708 0.829181 0.893472 -0.08735
C_ C_ 0.292993 0.842746 0.92221 -0.08735
C_ C_ 0.340068 0.836518 0.935995 -0.05681
C_ C_ 0.348204 0.844934 0.965581 0.44287
C_ C_ 0.436646 0.822012 0.961325 0.44287
C_ C_ 0.393269 0.854879 0.509397 0.18498
C_ C_ 0.426214 0.896884 0.517542 -0.08735
C_ C_ 0.435661 0.907735 0.546418 -0.08735
C_ C_ 0.41694 0.873594 0.5672 -0.08735
C_ C_ 0.384604 0.834027 0.560291 0.18498
C_ C_ 0.373372 0.821799 0.531858 -0.05681
C_ C_ 0.34605 0.778225 0.526282 -0.08735
C_ C_ 0.325353 0.749587 0.548403 -0.08735
C_ C_ 0.333106 0.766282 0.576489 0.1947
N_ N_ 0.14518 0.6683 0.974404 -0.29468
N_ N_ 0.158744 0.69763 0.579275 -0.17154
N_ N_ 0.120437 0.656263 0.726403 -0.17154
N_ N_ 0.136881 0.699115 0.829492 -0.29468
N_ N_ 0.371255 0.835877 0.726605 -0.29468
N_ N_ 0.360955 0.796137 0.830242 -0.17154
N_ N_ 0.395278 0.835524 0.978089 -0.17154
N_ N_ 0.36445 0.806269 0.582495 -0.29468
O_ O_ 0.222449 0.69549 0.924194 -0.58347
O_ O_ 0.215583 0.690489 0.878417 -0.58347
O_ O_ 0.146549 0.753488 0.930095 -0.58347
O_ O_ 0.138366 0.765796 0.884579 -0.58347
O_ O_ 0.158413 0.607514 0.924178 -0.58347
O_ O_ 0.14221 0.614783 0.877295 -0.58347
O_ O_ 0.0716041 0.668807 0.926724 -0.58347
O_ O_ 0.0618295 0.690981 0.881168 -0.58347
O_ O_ 0.0731978 0.717642 0.574567 -0.46727
O_ O_ 0.245122 0.69133 0.585749 -0.46727
O_ O_ 0.037734 0.67697 0.721911 -0.46727
O_ O_ 0.206282 0.635549 0.73131 -0.46727
O_ O_ 0.285295 0.816944 0.678904 -0.58347
O_ O_ 0.299023 0.810749 0.633081 -0.58347
O_ O_ 0.372596 0.745891 0.685431 -0.58347
O_ O_ 0.373564 0.738189 0.638388 -0.58347
O_ O_ 0.356697 0.896268 0.675223 -0.58347
O_ O_ 0.375631 0.889074 0.629318 -0.58347
O_ O_ 0.437226 0.830435 0.678904 -0.58347
O_ O_ 0.44933 0.815638 0.633123 -0.58347
O_ O_ 0.444259 0.775137 0.827192 -0.46727
O_ O_ 0.275509 0.809952 0.835212 -0.46727
O_ O_ 0.480873 0.812031 0.973115 -0.46727
O_ O_ 0.313672 0.864552 0.981842 -0.46727
Zn Zn 0.630687 0.18998 0.381454 0.90689
Zn Zn 0.638303 0.180636 0.428893 0.90689
Zn Zn 0.870453 0.316828 0.131976 0.90689
Zn Zn 0.859088 0.323256 0.180623 0.90689
H_ H_ 0.803607 0.190011 0.443181 0.11455
H_ H_ 0.874705 0.174575 0.345182 0.11455
H_ H_ 0.781034 0.164249 0.352381 0.11455
H_ H_ 0.887899 0.19644 0.462834 0.11455
H_ H_ 0.982392 0.189094 0.458067 0.11455
H_ H_ 0.964085 0.175261 0.365943 0.11455
H_ H_ 0.618866 0.0154207 0.442139 0.11455
H_ H_ 0.59992 0.435057 0.353961 0.11455
H_ H_ 0.644776 0.0259789 0.351851 0.11455
H_ H_ 0.64064 0.429462 0.470296 0.11455
H_ H_ 0.634409 0.335522 0.46409 0.11455
H_ H_ 0.599814 0.35511 0.374217 0.11455
H_ H_ 0.585434 0.108732 0.464418 0.11455
H_ H_ 0.575685 0.0638392 0.0139622 0.11455
H_ H_ 0.601661 0.119809 0.0561728 0.11455
H_ H_ 0.69668 0.245106 0.47001 0.11455
H_ H_ 0.704592 0.301224 0.010086 0.11455
H_ H_ 0.679528 0.284904 0.0602053 0.11455
H_ H_ 0.508685 0.204796 0.124315 0.11455
H_ H_ 0.498971 0.187727 0.172584 0.11455
H_ H_ 0.758076 0.144062 0.136726 0.11455
H_ H_ 0.746975 0.134166 0.187454 0.11455
H_ H_ 0.563762 0.08957 0.250637 0.11455
H_ H_ 0.550193 0.0709719 0.303699 0.11455
H_ H_ 0.569588 0.126371 0.339656 0.11455
H_ H_ 0.665049 0.238744 0.256105 0.11455
H_ H_ 0.702994 0.287924 0.295509 0.11455
H_ H_ 0.686621 0.263623 0.346631 0.11455
H_ H_ 0.690208 0.318157 0.198716 0.11455
H_ H_ 0.623642 0.322842 0.101741 0.11455
H_ H_ 0.712538 0.30786 0.106952 0.11455
H_ H_ 0.603797 0.305511 0.21652 0.11455
H_ H_ 0.510478 0.298945 0.204082 0.11455
H_ H_ 0.534875 0.33181 0.118928 0.11455
H_ H_ 0.907686 0.487081 0.185801 0.11455
H_ H_ 0.897376 0.0709019 0.0992528 0.11455
H_ H_ 0.806325 0.484045 0.110683 0.11455
H_ H_ 0.824964 0.0705754 0.211702 0.11455
H_ H_ 0.836313 0.162148 0.210749 0.11455
H_ H_ 0.879857 0.155337 0.120971 0.11455
H_ H_ 0.911078 0.393509 0.217713 0.11455
H_ H_ 0.926887 0.422754 0.263827 0.11455
H_ H_ 0.890465 0.379581 0.306284 0.11455
H_ H_ 0.794146 0.262153 0.224834 0.11455
H_ H_ 0.766093 0.207959 0.266032 0.11455
H_ H_ 0.787049 0.230623 0.316126 0.11455
H_ H_ 0.977843 0.294261 0.377447 0.11455
H_ H_ -0.012480000000000047 0.295183 0.426713 0.11455
H_ H_ 0.726525 0.332639 0.393555 0.11455
H_ H_ 0.742143 0.344748 0.443777 0.11455
H_ H_ 0.924703 0.407774 0.507251 0.11455
H_ H_ 0.939387 0.443305 0.0495829 0.11455
H_ H_ 0.916793 0.388348 0.089236 0.11455
H_ H_ 0.840455 0.254633 0.00803419 0.11455
H_ H_ 0.803167 0.211839 0.0497271 0.11455
H_ H_ 0.82031 0.235571 0.098749 0.11455
C_ C_ 0.731348 0.186788 0.403401 0.68181
C_ C_ 0.786961 0.184075 0.398458 -0.05681
C_ C_ 0.819228 0.187557 0.421708 -0.08735
C_ C_ 0.870746 0.184763 0.417723 -0.05681
C_ C_ 0.891215 0.178013 0.389937 -0.05681
C_ C_ 0.858137 0.170901 0.366193 -0.08735
C_ C_ 0.805746 0.172307 0.370544 -0.08735
C_ C_ 0.903175 0.184962 0.441785 -0.08735
C_ C_ 0.956255 0.18124 0.439046 -0.08735
C_ C_ 0.976964 0.175678 0.410888 -0.05681
C_ C_ 0.944799 0.175176 0.387079 -0.08735
C_ C_ 0.62556 0.282689 0.414065 0.68181
C_ C_ 0.630997 0.0858428 0.399354 0.68181
C_ C_ 0.626074 0.0297671 0.396635 -0.05681
C_ C_ 0.631785 0.500617 0.42706 -0.08735
C_ C_ 0.625816 0.44699 0.424474 -0.05681
C_ C_ 0.618991 0.423401 0.397865 -0.05681
C_ C_ 0.606472 0.453161 0.373524 -0.08735
C_ C_ 0.607361 0.506431 0.376168 -0.08735
C_ C_ 0.635778 0.413713 0.448954 -0.08735
C_ C_ 0.629799 0.360804 0.445107 -0.08735
C_ C_ 0.625181 0.339877 0.417419 -0.05681
C_ C_ 0.614294 0.371791 0.394927 -0.08735
C_ C_ 0.53434 0.181637 0.411035 0.68181
C_ C_ 0.608138 0.12652 0.481927 0.1947
C_ C_ 0.591694 0.102415 0.0112049 -0.08735
C_ C_ 0.609371 0.131951 0.0342989 -0.08735
C_ C_ 0.640092 0.176187 0.0281835 -0.05681
C_ C_ 0.654191 0.185155 0.999168 0.18498
C_ C_ 0.68683 0.234881 0.492489 -0.08735
C_ C_ 0.694603 0.263404 0.0154333 -0.08735
C_ C_ 0.682738 0.252987 0.0443793 -0.08735
C_ C_ 0.657952 0.207925 0.0512562 0.18498
C_ C_ 0.689359 0.182089 0.0980057 0.44287
C_ C_ 0.60006 0.201071 0.0938968 0.44287
C_ C_ 0.593686 0.193146 0.123101 -0.05681
C_ C_ 0.543872 0.192626 0.134934 -0.08735
C_ C_ 0.538448 0.185153 0.163811 -0.08735
C_ C_ 0.577931 0.176373 0.181997 -0.05681
C_ C_ 0.627443 0.174503 0.170349 -0.05681
C_ C_ 0.635146 0.180295 0.140786 -0.05681
C_ C_ 0.68395 0.173629 0.127348 -0.05681
C_ C_ 0.72337 0.15355 0.144701 -0.08735
C_ C_ 0.715581 0.14817 0.17453 -0.08735
C_ C_ 0.668689 0.161784 0.188087 -0.05681
C_ C_ 0.659673 0.157068 0.218286 0.44287
C_ C_ 0.573275 0.175625 0.212059 0.44287
C_ C_ 0.603818 0.158618 0.259863 0.18498
C_ C_ 0.572983 0.118211 0.26769 -0.08735
C_ C_ 0.566981 0.104803 0.296786 -0.08735
C_ C_ 0.584371 0.137135 0.318067 -0.08735
C_ C_ 0.614164 0.17853 0.312684 0.18498
C_ C_ 0.625412 0.188586 0.282973 -0.05681
C_ C_ 0.657802 0.229142 0.277251 -0.08735
C_ C_ 0.680287 0.255591 0.300158 -0.08735
C_ C_ 0.665774 0.245129 0.328193 0.1947
C_ C_ 0.768244 0.305627 0.157068 0.68181
C_ C_ 0.711095 0.310991 0.153744 -0.05681
C_ C_ 0.678083 0.31474 0.177091 -0.08735
C_ C_ 0.624233 0.318174 0.172734 -0.05681
C_ C_ 0.604181 0.324737 0.145495 -0.05681
C_ C_ 0.637884 0.319666 0.122392 -0.08735
C_ C_ 0.689164 0.312243 0.126529 -0.08735
C_ C_ 0.589773 0.314886 0.195314 -0.08735
C_ C_ 0.536476 0.312501 0.190124 -0.08735
C_ C_ 0.517537 0.322984 0.163033 -0.05681
C_ C_ 0.551846 0.328482 0.14087 -0.08735
C_ C_ 0.869879 0.222788 0.164999 0.68181
C_ C_ 0.854557 0.419655 0.150891 0.68181
C_ C_ 0.860927 0.47656 0.146861 -0.05681
C_ C_ 0.843749 0.00622773 0.167895 -0.08735
C_ C_ 0.851124 0.0596183 0.167356 -0.05681
C_ C_ 0.869234 0.0837295 0.143172 -0.05681
C_ C_ 0.88194 0.0523464 0.118987 -0.08735
C_ C_ 0.832076 0.502327 0.125729 -0.08735
C_ C_ 0.838778 0.0889409 0.192032 -0.08735
C_ C_ 0.843825 0.141502 0.191076 -0.08735
C_ C_ 0.864583 0.166763 0.167814 -0.05681
C_ C_ 0.871057 0.13691 0.141761 -0.08735
C_ C_ 0.964305 0.324127 0.157539 0.68181
C_ C_ 0.900604 0.369272 0.234151 0.1947
C_ C_ 0.908109 0.387892 0.261588 -0.08735
C_ C_ 0.884549 0.365722 0.285361 -0.08735
C_ C_ 0.853838 0.321911 0.280812 -0.05681
C_ C_ 0.84205 0.309807 0.251468 0.18498
C_ C_ 0.806628 0.268823 0.246849 -0.08735
C_ C_ 0.791563 0.237703 0.27016 -0.08735
C_ C_ 0.807351 0.249469 0.29924 -0.08735
C_ C_ 0.835492 0.292561 0.305046 0.18498
C_ C_ 0.804082 0.315623 0.352198 0.44287
C_ C_ 0.890288 0.297794 0.347918 0.44287
C_ C_ 0.897299 0.307752 0.377355 -0.05681
C_ C_ 0.944903 0.301636 0.389595 -0.08735
C_ C_ 0.953492 0.304946 0.419659 -0.08735
C_ C_ 0.91172 0.316773 0.437066 -0.05681
C_ C_ 0.863224 0.327391 0.424271 -0.05681
C_ C_ 0.855994 0.31991 0.394641 -0.05681
C_ C_ 0.808652 0.326622 0.382226 -0.05681
C_ C_ 0.765849 0.335093 0.399621 -0.08735
C_ C_ 0.774536 0.342708 0.429712 -0.08735
C_ C_ 0.821739 0.337823 0.442173 -0.05681
C_ C_ 0.831182 0.344576 0.471923 0.44287
C_ C_ 0.91374 0.312557 0.467577 0.44287
C_ C_ 0.887723 0.347127 0.0118828 0.18498
C_ C_ 0.910277 0.393234 0.0179193 -0.08735
C_ C_ 0.921413 0.407484 0.0455369 -0.08735
C_ C_ 0.902596 0.379549 0.0686156 -0.08735
C_ C_ 0.880155 0.332138 0.064308 0.18498
C_ C_ 0.872795 0.315417 0.0351634 -0.05681
C_ C_ 0.849213 0.268483 0.0294893 -0.08735
C_ C_ 0.830055 0.240288 0.0520962 -0.08735
C_ C_ 0.83817 0.257865 0.0809439 0.1947
N_ N_ 0.638995 0.166893 0.475579 -0.29468
N_ N_ 0.648538 0.196031 0.0813881 -0.17154
N_ N_ 0.613032 0.167149 0.229984 -0.17154
N_ N_ 0.633007 0.204406 0.334307 -0.29468
N_ N_ 0.861698 0.336667 0.229702 -0.29468
N_ N_ 0.844627 0.306873 0.33471 -0.17154
N_ N_ 0.875012 0.33069 0.483921 -0.17154
N_ N_ 0.863896 0.30129 0.0858302 -0.29468
O_ O_ 0.71289 0.179591 0.427664 -0.58347
O_ O_ 0.703367 0.200886 0.382731 -0.58347
O_ O_ 0.639036 0.254737 0.4341 -0.58347
O_ O_ 0.619694 0.261635 0.389892 -0.58347
O_ O_ 0.634092 0.106325 0.423348 -0.58347
O_ O_ 0.637388 0.113635 0.377104 -0.58347
O_ O_ 0.56404 0.181987 0.432501 -0.58347
O_ O_ 0.552873 0.179566 0.385202 -0.58347
O_ O_ 0.559772 0.212546 0.0783559 -0.46727
O_ O_ 0.732089 0.170721 0.0863208 -0.46727
O_ O_ 0.53114 0.188401 0.222746 -0.46727
O_ O_ 0.697635 0.145715 0.234959 -0.46727
O_ O_ 0.786394 0.318088 0.180437 -0.58347
O_ O_ 0.79679 0.308202 0.134918 -0.58347
O_ O_ 0.857339 0.251499 0.186372 -0.58347
O_ O_ 0.88959 0.242452 0.142619 -0.58347
O_ O_ 0.855091 0.400094 0.175934 -0.58347
O_ O_ 0.859337 0.390355 0.129153 -0.58347
O_ O_ 0.934976 0.323587 0.178636 -0.58347
O_ O_ 0.943758 0.330069 0.132969 -0.58347
O_ O_ 0.928089 0.281815 0.332657 -0.46727
O_ O_ 0.760965 0.326419 0.339835 -0.46727
O_ O_ 0.957653 0.30024 0.48116 -0.46727
O_ O_ 0.795317 0.361942 0.488461 -0.46727
Zn Zn 0.629867 0.183107 0.881643 0.90689
Zn Zn 0.637795 0.175727 0.92978 0.90689
Zn Zn 0.865219 0.300668 0.633436 0.90689
Zn Zn 0.855803 0.301991 0.681185 0.90689
H_ H_ 0.815471 0.224305 0.94019 0.11455
H_ H_ 0.875663 0.161274 0.849878 0.11455
H_ H_ 0.783138 0.161118 0.85906 0.11455
H_ H_ 0.898157 0.21242 0.963247 0.11455
H_ H_ 0.990188 0.200051 0.955141 0.11455
H_ H_ 0.965843 0.15742 0.869126 0.11455
H_ H_ 0.610599 0.0104456 0.943796 0.11455
H_ H_ 0.654813 0.433302 0.851993 0.11455
H_ H_ 0.640216 0.0242383 0.85238 0.11455
H_ H_ 0.60996 0.427905 0.965807 0.11455
H_ H_ 0.605934 0.33499 0.962557 0.11455
H_ H_ 0.635535 0.344132 0.87142 0.11455
H_ H_ 0.581382 0.100918 0.964876 0.11455
H_ H_ 0.585427 0.0670277 0.509816 0.11455
H_ H_ 0.609873 0.122643 0.552946 0.11455
H_ H_ 0.698694 0.234152 0.972082 0.11455
H_ H_ 0.724684 0.300794 0.508268 0.11455
H_ H_ 0.7075 0.278171 0.559659 0.11455
H_ H_ 0.521895 0.185922 0.618581 0.11455
H_ H_ 0.510254 0.193026 0.67304 0.11455
H_ H_ 0.767341 0.147418 0.635418 0.11455
H_ H_ 0.75668 0.148187 0.688661 0.11455
H_ H_ 0.575674 0.083777 0.743705 0.11455
H_ H_ 0.548929 0.0603246 0.794214 0.11455
H_ H_ 0.577842 0.109844 0.834409 0.11455
H_ H_ 0.665115 0.241298 0.754392 0.11455
H_ H_ 0.689738 0.291329 0.797409 0.11455
H_ H_ 0.673945 0.261799 0.846459 0.11455
H_ H_ 0.687482 0.306226 0.697947 0.11455
H_ H_ 0.622522 0.310243 0.596532 0.11455
H_ H_ 0.716011 0.307907 0.607112 0.11455
H_ H_ 0.605016 0.335747 0.713407 0.11455
H_ H_ 0.51501 0.337413 0.707316 0.11455
H_ H_ 0.540751 0.330533 0.614989 0.11455
H_ H_ 0.87885 0.47378 0.691939 0.11455
H_ H_ 0.839485 0.0563164 0.600571 0.11455
H_ H_ 0.808951 0.456416 0.608293 0.11455
H_ H_ 0.885927 0.0557855 0.716579 0.11455
H_ H_ 0.900419 0.14712 0.71003 0.11455
H_ H_ 0.883372 0.133562 0.62013 0.11455
H_ H_ 0.913846 0.370744 0.713363 0.11455
H_ H_ 0.927675 0.409501 0.761936 0.11455
H_ H_ 0.883805 0.371792 0.804905 0.11455
H_ H_ 0.789016 0.24749 0.72887 0.11455
H_ H_ 0.764197 0.192106 0.769676 0.11455
H_ H_ 0.793905 0.212884 0.817717 0.11455
H_ H_ 0.981918 0.311458 0.873394 0.11455
H_ H_ -0.0038399999999999546 0.31689 0.923058 0.11455
H_ H_ 0.732817 0.330419 0.892526 0.11455
H_ H_ 0.744649 0.338098 0.941316 0.11455
H_ H_ 0.923871 0.418792 1.0012633 0.11455
H_ H_ 0.938828 0.427641 0.556909 0.11455
H_ H_ 0.924377 0.362037 0.593803 0.11455
H_ H_ 0.821158 0.257297 0.511213 0.11455
H_ H_ 0.802307 0.199594 0.5496 0.11455
H_ H_ 0.827727 0.218891 0.599926 0.11455
C_ C_ 0.735688 0.191044 0.906218 0.68181
C_ C_ 0.791744 0.189101 0.901664 -0.05681
C_ C_ 0.826224 0.203 0.923033 -0.08735
C_ C_ 0.878441 0.193181 0.920634 -0.05681
C_ C_ 0.896854 0.180461 0.893101 -0.05681
C_ C_ 0.862617 0.17123 0.870364 -0.08735
C_ C_ 0.810924 0.172079 0.876573 -0.08735
C_ C_ 0.911971 0.206068 0.941699 -0.08735
C_ C_ 0.963933 0.197634 0.937421 -0.08735
C_ C_ 0.98288 0.187582 0.909438 -0.05681
C_ C_ 0.948428 0.176689 0.887572 -0.08735
C_ C_ 0.623675 0.278043 0.912884 0.68181
C_ C_ 0.632491 0.0827261 0.899363 0.68181
C_ C_ 0.62398 0.0262975 0.898424 -0.05681
C_ C_ 0.620608 0.493 0.92547 -0.08735
C_ C_ 0.617293 0.439979 0.92134 -0.05681
C_ C_ 0.62576 0.417924 0.894233 -0.05681
C_ C_ 0.642556 0.449782 0.872015 -0.08735
C_ C_ 0.645291 0.501372 0.87467 -0.08735
C_ C_ 0.612818 0.410033 0.945738 -0.08735
C_ C_ 0.61374 0.356775 0.943881 -0.08735
C_ C_ 0.624264 0.334316 0.917455 -0.05681
C_ C_ 0.630434 0.363563 0.892061 -0.08735
C_ C_ 0.536324 0.174973 0.907671 0.68181
C_ C_ 0.599976 0.120164 0.982968 0.1947
C_ C_ 0.602581 0.107004 0.508004 -0.08735
C_ C_ 0.622772 0.131888 0.531493 -0.08735
C_ C_ 0.650426 0.177206 0.526829 -0.05681
C_ C_ 0.658115 0.193664 0.497689 0.18498
C_ C_ 0.684912 0.226451 0.994107 -0.08735
C_ C_ 0.700037 0.268495 0.514812 -0.08735
C_ C_ 0.691992 0.255281 0.542672 -0.08735
C_ C_ 0.668143 0.20693 0.549601 0.18498
C_ C_ 0.696046 0.177465 0.597419 0.44287
C_ C_ 0.611068 0.19771 0.591928 0.44287
C_ C_ 0.601283 0.188846 0.621765 -0.05681
C_ C_ 0.552637 0.191206 0.633294 -0.08735
C_ C_ 0.546438 0.19345 0.663316 -0.08735
C_ C_ 0.586154 0.187022 0.681221 -0.05681
C_ C_ 0.636388 0.181644 0.669532 -0.05681
C_ C_ 0.643022 0.181771 0.639485 -0.05681
C_ C_ 0.68976 0.170388 0.627359 -0.05681
C_ C_ 0.729776 0.156356 0.646005 -0.08735
C_ C_ 0.725523 0.160449 0.676154 -0.08735
C_ C_ 0.677382 0.170874 0.687902 -0.05681
C_ C_ 0.665653 0.159076 0.716954 0.44287
C_ C_ 0.581264 0.190546 0.711402 0.44287
C_ C_ 0.608483 0.15413 0.757345 0.18498
C_ C_ 0.586066 0.106418 0.762048 -0.08735
C_ C_ 0.575834 0.0907279 0.789557 -0.08735
C_ C_ 0.591195 0.120026 0.813094 -0.08735
C_ C_ 0.618433 0.165051 0.809209 0.18498
C_ C_ 0.62888 0.180452 0.780576 -0.05681
C_ C_ 0.658793 0.22422 0.776427 -0.08735
C_ C_ 0.668758 0.256514 0.800579 -0.08735
C_ C_ 0.662846 0.237266 0.827883 0.1947
C_ C_ 0.765192 0.30075 0.65864 0.68181
C_ C_ 0.709271 0.303139 0.652891 -0.05681
C_ C_ 0.673583 0.306045 0.675688 -0.08735
C_ C_ 0.621392 0.314915 0.670263 -0.05681
C_ C_ 0.604759 0.315943 0.641755 -0.05681
C_ C_ 0.637773 0.310208 0.619408 -0.08735
C_ C_ 0.69006 0.305649 0.625183 -0.08735
C_ C_ 0.589782 0.327804 0.692932 -0.08735
C_ C_ 0.540104 0.33563 0.688346 -0.08735
C_ C_ 0.520401 0.328693 0.660546 -0.05681
C_ C_ 0.55366 0.325335 0.636545 -0.08735
C_ C_ 0.877801 0.203643 0.664406 0.68181
C_ C_ 0.85694 0.401167 0.649901 0.68181
C_ C_ 0.850456 0.458245 0.648205 -0.05681
C_ C_ 0.868307 -0.009871999999999992 0.672388 -0.08735
C_ C_ 0.874815 0.0425247 0.669187 -0.05681
C_ C_ 0.865636 0.0658211 0.644162 -0.05681
C_ C_ 0.852666 0.0371949 0.620207 -0.08735
C_ C_ 0.832 0.479351 0.623764 -0.08735
C_ C_ 0.881978 0.0735318 0.694951 -0.08735
C_ C_ 0.88694 0.126078 0.692232 -0.08735
C_ C_ 0.883091 0.149423 0.665271 -0.05681
C_ C_ 0.873347 0.119357 0.641087 -0.08735
C_ C_ 0.963565 0.304283 0.659398 0.68181
C_ C_ 0.896612 0.353277 0.732531 0.1947
C_ C_ 0.905197 0.375005 0.759532 -0.08735
C_ C_ 0.881423 0.353928 0.783807 -0.08735
C_ C_ 0.850919 0.310981 0.780989 -0.05681
C_ C_ 0.83898 0.294009 0.752339 0.18498
C_ C_ 0.804575 0.252896 0.749424 -0.08735
C_ C_ 0.789046 0.223703 0.772668 -0.08735
C_ C_ 0.803917 0.239144 0.800028 -0.08735
C_ C_ 0.831949 0.283956 0.805014 0.18498
C_ C_ 0.80131 0.313249 0.851507 0.44287
C_ C_ 0.891173 0.295698 0.84501 0.44287
C_ C_ 0.90042 0.309553 0.873732 -0.05681
C_ C_ 0.949893 0.312008 0.886665 -0.08735
C_ C_ 0.95729 0.32473 0.915148 -0.08735
C_ C_ 0.914875 0.323832 0.934512 -0.05681
C_ C_ 0.865461 0.322985 0.922183 -0.05681
C_ C_ 0.859189 0.31917 0.891676 -0.05681
C_ C_ 0.80902 0.320326 0.881496 -0.05681
C_ C_ 0.770079 0.334026 0.900258 -0.08735
C_ C_ 0.779766 0.340574 0.928343 -0.08735
C_ C_ 0.825686 0.336141 0.939751 -0.05681
C_ C_ 0.832416 0.342425 0.969877 0.44287
C_ C_ 0.919777 0.319925 0.965078 0.44287
C_ C_ 0.882591 0.341273 0.514842 0.18498
C_ C_ 0.915635 0.381527 0.522844 -0.08735
C_ C_ 0.930808 0.38981 0.551085 -0.08735
C_ C_ 0.915437 0.3552 0.571735 -0.08735
C_ C_ 0.88119 0.317251 0.566412 0.18498
C_ C_ 0.865672 0.307534 0.537072 -0.05681
C_ C_ 0.832366 0.268177 0.532948 -0.08735
C_ C_ 0.816068 0.236376 0.555361 -0.08735
C_ C_ 0.832996 0.245974 0.583008 0.1947
N_ N_ 0.631925 0.157022 0.977479 -0.29468
N_ N_ 0.657806 0.194705 0.57953 -0.17154
N_ N_ 0.619387 0.169523 0.728607 -0.17154
N_ N_ 0.635698 0.194885 0.832319 -0.29468
N_ N_ 0.858278 0.319255 0.728297 -0.29468
N_ N_ 0.842696 0.297445 0.834781 -0.17154
N_ N_ 0.878752 0.333788 0.98208 -0.17154
N_ N_ 0.863176 0.289348 0.588747 -0.29468
O_ O_ 0.718089 0.183442 0.931407 -0.58347
O_ O_ 0.707512 0.194431 0.884251 -0.58347
O_ O_ 0.629092 0.250455 0.934767 -0.58347
O_ O_ 0.621665 0.258771 0.888501 -0.58347
O_ O_ 0.639873 0.102205 0.924313 -0.58347
O_ O_ 0.636247 0.109659 0.87729 -0.58347
O_ O_ 0.565088 0.173171 0.929275 -0.58347
O_ O_ 0.556369 0.176759 0.883351 -0.58347
O_ O_ 0.572864 0.209089 0.575339 -0.46727
O_ O_ 0.738406 0.163163 0.585184 -0.46727
O_ O_ 0.537665 0.202657 0.723467 -0.46727
O_ O_ 0.69996 0.137753 0.733583 -0.46727
O_ O_ 0.782337 0.305186 0.683233 -0.58347
O_ O_ 0.792171 0.283017 0.638906 -0.58347
O_ O_ 0.857773 0.227497 0.686155 -0.58347
O_ O_ 0.878375 0.225413 0.640576 -0.58347
O_ O_ 0.856458 0.377603 0.672798 -0.58347
O_ O_ 0.852674 0.37318 0.626976 -0.58347
O_ O_ 0.934145 0.293464 0.679836 -0.58347
O_ O_ 0.944636 0.315339 0.635037 -0.58347
O_ O_ 0.926741 0.270391 0.830672 -0.46727
O_ O_ 0.755308 0.318801 0.839392 -0.46727
O_ O_ 0.965701 0.308495 0.976118 -0.46727
O_ O_ 0.794652 0.356764 0.985142 -0.46727
Zn Zn 0.625861 0.68525 0.38438 0.90689
Zn Zn 0.633048 0.684214 0.433343 0.90689
Zn Zn 0.87945 0.816722 0.133586 0.90689
Zn Zn 0.868401 0.821448 0.182394 0.90689
H_ H_ 0.804493 0.694646 0.445375 0.11455
H_ H_ 0.871061 0.658072 0.34707 0.11455
H_ H_ 0.782158 0.659234 0.354317 0.11455
H_ H_ 0.892707 0.69456 0.464052 0.11455
H_ H_ 0.985247 0.699048 0.453686 0.11455
H_ H_ 0.956118 0.666191 0.365324 0.11455
H_ H_ 0.63997 0.517529 0.446674 0.11455
H_ H_ 0.648467 0.935068 0.347651 0.11455
H_ H_ 0.598605 0.529234 0.358646 0.11455
H_ H_ 0.615671 0.937398 0.465914 0.11455
H_ H_ 0.61864 0.845039 0.464055 0.11455
H_ H_ 0.639265 0.848473 0.372595 0.11455
H_ H_ 0.579751 0.600424 0.464295 0.11455
H_ H_ 0.561014 0.586233 0.0161112 0.11455
H_ H_ 0.597776 0.63377 0.0555389 0.11455
H_ H_ 0.685737 0.748894 0.479376 0.11455
H_ H_ 0.715392 0.803829 0.0120735 0.11455
H_ H_ 0.697653 0.788407 0.062136 0.11455
H_ H_ 0.509992 0.699985 0.121123 0.11455
H_ H_ 0.499052 0.703195 0.174058 0.11455
H_ H_ 0.75782 0.657599 0.137448 0.11455
H_ H_ 0.748737 0.662653 0.187721 0.11455
H_ H_ 0.562267 0.599729 0.244889 0.11455
H_ H_ 0.539143 0.573902 0.296684 0.11455
H_ H_ 0.573072 0.621699 0.335514 0.11455
H_ H_ 0.642957 0.765421 0.260901 0.11455
H_ H_ 0.689305 0.80288 0.301051 0.11455
H_ H_ 0.682752 0.763754 0.349031 0.11455
H_ H_ 0.696564 0.813271 0.198516 0.11455
H_ H_ 0.638021 0.835167 0.0981352 0.11455
H_ H_ 0.726503 0.833092 0.107765 0.11455
H_ H_ 0.614817 0.820313 0.214483 0.11455
H_ H_ 0.519382 0.815183 0.206559 0.11455
H_ H_ 0.54638 0.834258 0.115928 0.11455
H_ H_ 0.82885 0.992386 0.188019 0.11455
H_ H_ 0.808596 0.576475 0.111661 0.11455
H_ H_ 0.898197 0.979477 0.103268 0.11455
H_ H_ 0.927511 0.570258 0.206887 0.11455
H_ H_ 0.918894 0.668403 0.205982 0.11455
H_ H_ 0.840602 0.652234 0.125441 0.11455
H_ H_ 0.918777 0.896245 0.221627 0.11455
H_ H_ 0.917631 0.929458 0.270307 0.11455
H_ H_ 0.88897 0.873648 0.310436 0.11455
H_ H_ 0.814603 0.755277 0.223544 0.11455
H_ H_ 0.785872 0.691584 0.261512 0.11455
H_ H_ 0.808211 0.709233 0.31168 0.11455
H_ H_ 0.986381 0.781737 0.375992 0.11455
H_ H_ -0.005711000000000022 0.796445 0.423925 0.11455
H_ H_ 0.732019 0.814524 0.38962 0.11455
H_ H_ 0.747178 0.828652 0.443835 0.11455
H_ H_ 0.940853 0.907948 0.502822 0.11455
H_ H_ 0.973256 0.924109 0.04932 0.11455
H_ H_ 0.942273 0.867304 0.0880191 0.11455
H_ H_ 0.829106 0.763644 0.00716666 0.11455
H_ H_ 0.790904 0.718451 0.0531716 0.11455
H_ H_ 0.812185 0.750305 0.100055 0.11455
C_ C_ 0.727135 0.683143 0.406154 0.68181
C_ C_ 0.782787 0.673028 0.400773 -0.05681
C_ C_ 0.817715 0.680725 0.424708 -0.08735
C_ C_ 0.870343 0.677641 0.419797 -0.05681
C_ C_ 0.889656 0.668371 0.391852 -0.05681
C_ C_ 0.855909 0.659465 0.369337 -0.08735
C_ C_ 0.804391 0.666286 0.373128 -0.08735
C_ C_ 0.905425 0.682903 0.442938 -0.08735
C_ C_ 0.957448 0.685541 0.436996 -0.08735
C_ C_ 0.975194 0.675379 0.409813 -0.05681
C_ C_ 0.942388 0.667409 0.386851 -0.08735
C_ C_ 0.623956 0.783781 0.414425 0.68181
C_ C_ 0.630677 0.585641 0.403601 0.68181
C_ C_ 0.622003 0.531016 0.402983 -0.05681
C_ C_ 0.61736 1.000110996 0.421578 -0.08735
C_ C_ 0.621714 0.947008 0.419757 -0.05681
C_ C_ 0.628793 0.922793 0.393255 -0.05681
C_ C_ 0.636429 0.951668 0.368301 -0.08735
C_ C_ 0.635597 1.00506077 0.370067 -0.08735
C_ C_ 0.622747 0.917139 0.444885 -0.08735
C_ C_ 0.617015 0.863753 0.443806 -0.08735
C_ C_ 0.626744 0.839873 0.417343 -0.05681
C_ C_ 0.63527 0.86932 0.393284 -0.08735
C_ C_ 0.532064 0.681764 0.409991 0.68181
C_ C_ 0.593843 0.623153 0.482919 0.1947
C_ C_ 0.587719 0.618458 0.0121885 -0.08735
C_ C_ 0.60828 0.644616 0.0347647 -0.08735
C_ C_ 0.6391 0.686717 0.0294157 -0.05681
C_ C_ 0.658015 0.693672 1.000279356 0.18498
C_ C_ 0.665924 0.741451 0.498422 -0.08735
C_ C_ 0.694666 0.772896 0.0169307 -0.08735
C_ C_ 0.680297 0.763593 0.0455091 -0.08735
C_ C_ 0.657798 0.717413 0.0518893 0.18498
C_ C_ 0.687686 0.688797 0.0982877 0.44287
C_ C_ 0.600782 0.711689 0.093521 0.44287
C_ C_ 0.59092 0.704358 0.123202 -0.05681
C_ C_ 0.542615 0.701371 0.135154 -0.08735
C_ C_ 0.536518 0.699405 0.165304 -0.08735
C_ C_ 0.579076 0.69912 0.183629 -0.05681
C_ C_ 0.626671 0.696014 0.170858 -0.05681
C_ C_ 0.632546 0.693116 0.141148 -0.05681
C_ C_ 0.679657 0.679581 0.128051 -0.05681
C_ C_ 0.719733 0.66658 0.14635 -0.08735
C_ C_ 0.714073 0.667986 0.175605 -0.08735
C_ C_ 0.66866 0.683303 0.188679 -0.05681
C_ C_ 0.662959 0.681029 0.218534 0.44287
C_ C_ 0.573908 0.697589 0.21349 0.44287
C_ C_ 0.608717 0.6652 0.259506 0.18498
C_ C_ 0.575764 0.622665 0.263452 -0.08735
C_ C_ 0.566769 0.604167 0.291938 -0.08735
C_ C_ 0.585528 0.632521 0.314994 -0.08735
C_ C_ 0.617833 0.67404 0.312122 0.18498
C_ C_ 0.624496 0.693572 0.284522 -0.05681
C_ C_ 0.641752 0.744153 0.28137 -0.08735
C_ C_ 0.666379 0.766743 0.305362 -0.08735
C_ C_ 0.664171 0.743817 0.33197 0.1947
C_ C_ 0.775205 0.818276 0.159116 0.68181
C_ C_ 0.719596 0.822883 0.154696 -0.05681
C_ C_ 0.684732 0.820269 0.177012 -0.08735
C_ C_ 0.633664 0.826597 0.17133 -0.05681
C_ C_ 0.614916 0.830106 0.142952 -0.05681
C_ C_ 0.649672 0.825645 0.120309 -0.08735
C_ C_ 0.701259 0.824329 0.126253 -0.08735
C_ C_ 0.598811 0.822151 0.192899 -0.08735
C_ C_ 0.547162 0.820267 0.18772 -0.08735
C_ C_ 0.526908 0.824661 0.160752 -0.05681
C_ C_ 0.561232 0.82804 0.138224 -0.08735
C_ C_ 0.879814 0.72181 0.16251 0.68181
C_ C_ 0.869721 0.919041 0.151827 0.68181
C_ C_ 0.866078 0.976495 0.14757 -0.05681
C_ C_ 0.888253 0.505367 0.168572 -0.08735
C_ C_ 0.884541 0.559343 0.167742 -0.05681
C_ C_ 0.856254 0.58311 0.146846 -0.05681
C_ C_ 0.830348 0.554412 0.126557 -0.08735
C_ C_ 0.885618 0.999322 0.121607 -0.08735
C_ C_ 0.911349 0.590865 0.187687 -0.08735
C_ C_ 0.901987 0.643763 0.188838 -0.08735
C_ C_ 0.878721 0.665916 0.165719 -0.05681
C_ C_ 0.858125 0.635721 0.144229 -0.08735
C_ C_ 0.973322 0.826447 0.158912 0.68181
C_ C_ 0.898833 0.875373 0.237487 0.1947
C_ C_ 0.901528 0.892733 0.26638 -0.08735
C_ C_ 0.881681 0.862646 0.288222 -0.08735
C_ C_ 0.858449 0.815832 0.281257 -0.05681
C_ C_ 0.853094 0.802929 0.25144 0.18498
C_ C_ 0.827266 0.759283 0.244567 -0.08735
C_ C_ 0.807936 0.727807 0.266151 -0.08735
C_ C_ 0.818118 0.737263 0.295378 -0.08735
C_ C_ 0.836422 0.783807 0.302859 0.18498
C_ C_ 0.80566 0.805834 0.350461 0.44287
C_ C_ 0.893935 0.78582 0.344189 0.44287
C_ C_ 0.901824 0.800791 0.373687 -0.05681
C_ C_ 0.950443 0.793839 0.386673 -0.08735
C_ C_ 0.956964 0.802173 0.415585 -0.08735
C_ C_ 0.917123 0.815604 0.433596 -0.05681
C_ C_ 0.87088 0.824786 0.420832 -0.05681
C_ C_ 0.861985 0.817012 0.391504 -0.05681
C_ C_ 0.812191 0.816589 0.380405 -0.05681
C_ C_ 0.771334 0.819719 0.398869 -0.08735
C_ C_ 0.779112 0.830824 0.428223 -0.08735
C_ C_ 0.830499 0.833198 0.438954 -0.05681
C_ C_ 0.837228 0.837876 0.468345 0.44287
C_ C_ 0.922015 0.815325 0.463425 0.44287
C_ C_ 0.889637 0.848602 0.0101969 0.18498
C_ C_ 0.928131 0.884301 0.0166141 -0.08735
C_ C_ 0.9426 0.89594 0.0441508 -0.08735
C_ C_ 0.923905 0.865927 0.0666549 -0.08735
C_ C_ 0.886356 0.828262 0.0616658 0.18498
C_ C_ 0.869006 0.819531 0.0333781 -0.05681
C_ C_ 0.836153 0.777861 0.0291412 -0.08735
C_ C_ 0.818785 0.752438 0.0542895 -0.08735
C_ C_ 0.828188 0.769616 0.0818979 0.1947
N_ N_ 0.62363 0.66522 0.478993 -0.29468
N_ N_ 0.646433 0.705977 0.0812682 -0.17154
N_ N_ 0.615822 0.68448 0.230274 -0.17154
N_ N_ 0.634064 0.70047 0.335004 -0.29468
N_ N_ 0.875492 0.832282 0.230648 -0.29468
N_ N_ 0.844879 0.792128 0.332731 -0.17154
N_ N_ 0.883714 0.830194 0.480169 -0.17154
N_ N_ 0.866408 0.805391 0.0848094 -0.29468
O_ O_ 0.709754 0.687199 0.431866 -0.58347
O_ O_ 0.69717 0.68846 0.385323 -0.58347
O_ O_ 0.617844 0.758791 0.43746 -0.58347
O_ O_ 0.627596 0.761319 0.390313 -0.58347
O_ O_ 0.640817 0.609406 0.427252 -0.58347
O_ O_ 0.627382 0.609826 0.381027 -0.58347
O_ O_ 0.558842 0.678217 0.431593 -0.58347
O_ O_ 0.55108 0.684267 0.385041 -0.58347
O_ O_ 0.563051 0.728329 0.0775797 -0.46727
O_ O_ 0.732804 0.674634 0.087049 -0.46727
O_ O_ 0.532337 0.7158 0.2263 -0.46727
O_ O_ 0.703703 0.679259 0.235287 -0.46727
O_ O_ 0.793142 0.81561 0.18408 -0.58347
O_ O_ 0.803808 0.815275 0.138577 -0.58347
O_ O_ 0.873065 0.749513 0.184492 -0.58347
O_ O_ 0.883294 0.741858 0.138514 -0.58347
O_ O_ 0.863021 0.899763 0.176838 -0.58347
O_ O_ 0.878196 0.889669 0.131513 -0.58347
O_ O_ 0.94405 0.822728 0.18077 -0.58347
O_ O_ 0.955547 0.822674 0.134575 -0.58347
O_ O_ 0.932115 0.773809 0.327155 -0.46727
O_ O_ 0.761007 0.817119 0.338487 -0.46727
O_ O_ 0.96455 0.80427 0.475663 -0.46727
O_ O_ 0.798851 0.850072 0.484917 -0.46727
Zn Zn 0.634721 0.68339 0.882979 0.90689
Zn Zn 0.644298 0.672793 0.931837 0.90689
Zn Zn 0.870915 0.805888 0.631918 0.90689
Zn Zn 0.868876 0.812401 0.679696 0.90689
H_ H_ 0.816704 0.689395 0.947388 0.11455
H_ H_ 0.879709 0.650774 0.848787 0.11455
H_ H_ 0.786567 0.657444 0.859421 0.11455
H_ H_ 0.90344 0.693714 0.965351 0.11455
H_ H_ 0.992619 0.700179 0.955129 0.11455
H_ H_ 0.966058 0.660463 0.867133 0.11455
H_ H_ 0.622936 0.508372 0.94634 0.11455
H_ H_ 0.634926 0.932639 0.849091 0.11455
H_ H_ 0.662769 0.523454 0.857709 0.11455
H_ H_ 0.621343 0.929167 0.966659 0.11455
H_ H_ 0.634376 0.835353 0.962271 0.11455
H_ H_ 0.614308 0.842521 0.87181 0.11455
H_ H_ 0.579793 0.613572 0.967553 0.11455
H_ H_ 0.559905 0.572068 0.514275 0.11455
H_ H_ 0.587438 0.625641 0.555168 0.11455
H_ H_ 0.702537 0.744389 0.972821 0.11455
H_ H_ 0.702483 0.806357 0.518305 0.11455
H_ H_ 0.675046 0.780735 0.56783 0.11455
H_ H_ 0.502854 0.68129 0.629343 0.11455
H_ H_ 0.501268 0.675479 0.68207 0.11455
H_ H_ 0.758126 0.657768 0.63537 0.11455
H_ H_ 0.754975 0.658338 0.687529 0.11455
H_ H_ 0.57224 0.579002 0.754569 0.11455
H_ H_ 0.55614 0.556566 0.804728 0.11455
H_ H_ 0.578433 0.617178 0.841631 0.11455
H_ H_ 0.683546 0.726915 0.759585 0.11455
H_ H_ 0.712697 0.776691 0.797628 0.11455
H_ H_ 0.69174 0.751655 0.848451 0.11455
H_ H_ 0.692188 0.782155 0.698369 0.11455
H_ H_ 0.630274 0.824647 0.601806 0.11455
H_ H_ 0.722317 0.818836 0.610198 0.11455
H_ H_ 0.606864 0.780592 0.715569 0.11455
H_ H_ 0.517353 0.788448 0.707588 0.11455
H_ H_ 0.546946 0.816893 0.619504 0.11455
H_ H_ 0.870081 0.970889 0.693874 0.11455
H_ H_ 0.821613 0.550376 0.600865 0.11455
H_ H_ 0.853807 0.962442 0.601564 0.11455
H_ H_ 0.89689 0.557743 0.710401 0.11455
H_ H_ 0.889074 0.653314 0.706694 0.11455
H_ H_ 0.851712 0.636327 0.617823 0.11455
H_ H_ 0.911719 0.892565 0.714374 0.11455
H_ H_ 0.903323 0.936394 0.762313 0.11455
H_ H_ 0.884775 0.885727 0.80465 0.11455
H_ H_ 0.82494 0.743281 0.724077 0.11455
H_ H_ 0.788159 0.689624 0.764293 0.11455
H_ H_ 0.796223 0.726323 0.813763 0.11455
H_ H_ 0.984252 0.799392 0.871832 0.11455
H_ H_ 0.995784 0.798626 0.926736 0.11455
H_ H_ 0.733418 0.827384 0.887926 0.11455
H_ H_ 0.745128 0.860398 0.939524 0.11455
H_ H_ 0.94281 0.905823 0.998398 0.11455
H_ H_ 0.960263 0.923767 0.553417 0.11455
H_ H_ 0.931711 0.864059 0.589509 0.11455
H_ H_ 0.837819 0.755032 0.506665 0.11455
H_ H_ 0.798828 0.709086 0.545584 0.11455
H_ H_ 0.80817 0.739927 0.594536 0.11455
C_ C_ 0.738672 0.678412 0.906701 0.68181
C_ C_ 0.795019 0.682542 0.90199 -0.05681
C_ C_ 0.828124 0.688384 0.92531 -0.08735
C_ C_ 0.880121 0.682858 0.920614 -0.05681
C_ C_ 0.899152 0.670883 0.893185 -0.05681
C_ C_ 0.866583 0.663914 0.870045 -0.08735
C_ C_ 0.814297 0.674231 0.874443 -0.08735
C_ C_ 0.914886 0.690195 0.94308 -0.08735
C_ C_ 0.968631 0.687213 0.937971 -0.08735
C_ C_ 0.98827 0.674443 0.910828 -0.05681
C_ C_ 0.952848 0.668798 0.888067 -0.08735
C_ C_ 0.63297 0.779445 0.914702 0.68181
C_ C_ 0.637824 0.580176 0.904669 0.68181
C_ C_ 0.633636 0.524381 0.902386 -0.05681
C_ C_ 0.616702 -0.005673999999999957 0.922756 -0.08735
C_ C_ 0.616006 0.940672 0.920291 -0.05681
C_ C_ 0.615275 0.918134 0.892867 -0.05681
C_ C_ 0.627882 0.951179 0.868881 -0.08735
C_ C_ 0.632329 0.00262564 0.872326 -0.08735
C_ C_ 0.617548 0.910742 0.94633 -0.08735
C_ C_ 0.626764 0.859026 0.94417 -0.08735
C_ C_ 0.625749 0.834443 0.917565 -0.05681
C_ C_ 0.623351 0.864604 0.891916 -0.08735
C_ C_ 0.542367 0.678685 0.906802 0.68181
C_ C_ 0.601067 0.629741 0.984641 0.1947
C_ C_ 0.578974 0.608309 0.510765 -0.08735
C_ C_ 0.600797 0.634417 0.534521 -0.08735
C_ C_ 0.626783 0.67986 0.530455 -0.05681
C_ C_ 0.637467 0.695426 0.502399 0.18498
C_ C_ 0.68669 0.737769 0.994524 -0.08735
C_ C_ 0.674135 0.775896 0.521864 -0.08735
C_ C_ 0.661863 0.759553 0.549717 -0.08735
C_ C_ 0.640733 0.711106 0.553814 0.18498
C_ C_ 0.677493 0.676776 0.597761 0.44287
C_ C_ 0.589405 0.693426 0.597371 0.44287
C_ C_ 0.586079 0.678833 0.627181 -0.05681
C_ C_ 0.538918 0.677963 0.641249 -0.08735
C_ C_ 0.537462 0.67169 0.671382 -0.08735
C_ C_ 0.581835 0.663388 0.687478 -0.05681
C_ C_ 0.627666 0.660481 0.673276 -0.05681
C_ C_ 0.63004 0.669237 0.642956 -0.05681
C_ C_ 0.677081 0.67199 0.628345 -0.05681
C_ C_ 0.721276 0.660677 0.645197 -0.08735
C_ C_ 0.71889 0.655913 0.674944 -0.08735
C_ C_ 0.672667 0.654025 0.688908 -0.05681
C_ C_ 0.66915 0.654598 0.718676 0.44287
C_ C_ 0.579593 0.666035 0.717585 0.44287
C_ C_ 0.617359 0.643479 0.762043 0.18498
C_ C_ 0.59168 0.598616 0.770368 -0.08735
C_ C_ 0.579056 0.588885 0.798931 -0.08735
C_ C_ 0.593203 0.622036 0.820963 -0.08735
C_ C_ 0.623672 0.664693 0.814619 0.18498
C_ C_ 0.636067 0.675526 0.785273 -0.05681
C_ C_ 0.667135 0.717824 0.779686 -0.08735
C_ C_ 0.68657 0.74775 0.802534 -0.08735
C_ C_ 0.675552 0.73295 0.831441 0.1947
C_ C_ 0.772115 0.800402 0.658827 0.68181
C_ C_ 0.71659 0.808223 0.655427 -0.05681
C_ C_ 0.680103 0.797757 0.677292 -0.08735
C_ C_ 0.6284 0.805172 0.673039 -0.05681
C_ C_ 0.611275 0.814215 0.64554 -0.05681
C_ C_ 0.644901 0.818193 0.622464 -0.08735
C_ C_ 0.69634 0.814906 0.627508 -0.08735
C_ C_ 0.594608 0.791868 0.694699 -0.08735
C_ C_ 0.541917 0.799164 0.690421 -0.08735
C_ C_ 0.522521 0.814744 0.663496 -0.05681
C_ C_ 0.559123 0.820218 0.641236 -0.08735
C_ C_ 0.876468 0.708597 0.658712 0.68181
C_ C_ 0.855945 0.904338 0.649569 0.68181
C_ C_ 0.86134 0.960431 0.648139 -0.05681
C_ C_ 0.86961 0.48829 0.670392 -0.08735
C_ C_ 0.868717 0.543523 0.668352 -0.05681
C_ C_ 0.852068 0.565596 0.643315 -0.05681
C_ C_ 0.830105 0.533981 0.621669 -0.08735
C_ C_ 0.855443 0.984553 0.621608 -0.08735
C_ C_ 0.884456 0.576484 0.690649 -0.08735
C_ C_ 0.885929 0.630197 0.687765 -0.08735
C_ C_ 0.874634 0.652226 0.661962 -0.05681
C_ C_ 0.85706 0.619689 0.639408 -0.08735
C_ C_ 0.966689 0.817529 0.65268 0.68181
C_ C_ 0.889632 0.876718 0.731955 0.1947
C_ C_ 0.888429 0.898922 0.759746 -0.08735
C_ C_ 0.876912 0.870225 0.783682 -0.08735
C_ C_ 0.859062 0.819629 0.7797 -0.05681
C_ C_ 0.854785 0.800201 0.750282 0.18498
C_ C_ 0.830677 0.753237 0.745652 -0.08735
C_ C_ 0.812325 0.724173 0.768155 -0.08735
C_ C_ 0.816301 0.742372 0.797121 -0.08735
C_ C_ 0.840168 0.789872 0.802859 0.18498
C_ C_ 0.807272 0.810905 0.848691 0.44287
C_ C_ 0.895891 0.802727 0.84481 0.44287
C_ C_ 0.903017 0.80699 0.874378 -0.05681
C_ C_ 0.95135 0.80474 0.88694 -0.08735
C_ C_ 0.957384 0.80727 0.9171 -0.08735
C_ C_ 0.913134 0.81784 0.934498 -0.05681
C_ C_ 0.866299 0.826834 0.92135 -0.05681
C_ C_ 0.860099 0.814298 0.89264 -0.05681
C_ C_ 0.811423 0.818227 0.87982 -0.05681
C_ C_ 0.768256 0.829404 0.897475 -0.08735
C_ C_ 0.775158 0.846873 0.926846 -0.08735
C_ C_ 0.823989 0.839729 0.938411 -0.05681
C_ C_ 0.832096 0.844877 0.968597 0.44287
C_ C_ 0.916326 0.814699 0.964458 0.44287
C_ C_ 0.89712 0.839165 0.509888 0.18498
C_ C_ 0.923496 0.883646 0.517847 -0.08735
C_ C_ 0.937604 0.891847 0.547396 -0.08735
C_ C_ 0.917898 0.861363 0.568997 -0.08735
C_ C_ 0.882708 0.824716 0.562639 0.18498
C_ C_ 0.873075 0.813831 0.533027 -0.05681
C_ C_ 0.845454 0.768001 0.527873 -0.08735
C_ C_ 0.82426 0.740594 0.550096 -0.08735
C_ C_ 0.831311 0.756333 0.577943 0.1947
N_ N_ 0.636166 0.66499 0.978998 -0.29468
N_ N_ 0.636583 0.692739 0.583487 -0.17154
N_ N_ 0.622179 0.656541 0.732637 -0.17154
N_ N_ 0.642933 0.693891 0.836745 -0.29468
N_ N_ 0.874119 0.829099 0.727647 -0.29468
N_ N_ 0.850203 0.803981 0.832531 -0.17154
N_ N_ 0.877789 0.832919 0.981281 -0.17154
N_ N_ 0.859792 0.798388 0.583497 -0.29468
O_ O_ 0.720888 0.675321 0.931169 -0.58347
O_ O_ 0.709408 0.68246 0.884596 -0.58347
O_ O_ 0.641844 0.75236 0.936026 -0.58347
O_ O_ 0.631495 0.759213 0.890612 -0.58347
O_ O_ 0.637451 0.599295 0.929761 -0.58347
O_ O_ 0.636708 0.608119 0.882503 -0.58347
O_ O_ 0.567765 0.675526 0.929603 -0.58347
O_ O_ 0.563415 0.682925 0.882495 -0.58347
O_ O_ 0.548745 0.710006 0.584216 -0.46727
O_ O_ 0.720924 0.666501 0.584643 -0.46727
O_ O_ 0.534603 0.66525 0.729987 -0.46727
O_ O_ 0.706382 0.638977 0.733618 -0.46727
O_ O_ 0.794516 0.802412 0.683416 -0.58347
O_ O_ 0.798182 0.79788 0.636564 -0.58347
O_ O_ 0.882307 0.737933 0.680061 -0.58347
O_ O_ 0.8779 0.729023 0.633281 -0.58347
O_ O_ 0.853611 0.883474 0.673548 -0.58347
O_ O_ 0.864446 0.878883 0.626642 -0.58347
O_ O_ 0.939585 0.821853 0.674872 -0.58347
O_ O_ 0.945673 0.806118 0.628776 -0.58347
O_ O_ 0.935784 0.799961 0.828456 -0.46727
O_ O_ 0.764689 0.82538 0.835668 -0.46727
O_ O_ 0.953832 0.788821 0.97651 -0.46727
O_ O_ 0.796681 0.861071 0.985471 -0.46727
