_cell_length_a 26.376
_cell_length_b 26.400000238300095
_cell_length_c 46.67800035477134
_cell_angle_alpha 90.00700052986613
_cell_angle_beta 89.99899961309502
_cell_angle_gamma 90.45000003183146
_symmetry_space_group_name_H-M         'P 1'
_symmetry_Int_Tables_number            1
loop_
_symmetry_equiv_pos_as_xyz
   'x, y, z'
                         
loop_
_atom_site_label
_atom_site_type_symbol
_atom_site_fract_x 
_atom_site_fract_y
_atom_site_fract_z
_atom_site_charge
Zn Zn 0.126397 0.183952 0.381539 0.90689
Zn Zn 0.132131 0.1831 0.429198 0.90689
Zn Zn 0.382576 0.306554 0.13342 0.90689
Zn Zn 0.369346 0.313401 0.182419 0.90689
H_ H_ 0.30262 0.19108 0.445763 0.11455
H_ H_ 0.367867 0.146202 0.349017 0.11455
H_ H_ 0.279736 0.156374 0.357106 0.11455
H_ H_ 0.385813 0.194013 0.463829 0.11455
H_ H_ 0.474859 0.183465 0.459485 0.11455
H_ H_ 0.454351 0.156773 0.366968 0.11455
H_ H_ 0.16081 0.0136239 0.442572 0.11455
H_ H_ 0.127367 0.432407 0.346171 0.11455
H_ H_ 0.109692 0.0242879 0.355246 0.11455
H_ H_ 0.153727 0.430634 0.462694 0.11455
H_ H_ 0.132457 0.340197 0.458852 0.11455
H_ H_ 0.130729 0.349097 0.367038 0.11455
H_ H_ 0.0857685 0.107193 0.464356 0.11455
H_ H_ 0.074807 0.071684 0.0160124 0.11455
H_ H_ 0.114412 0.119927 0.0558684 0.11455
H_ H_ 0.185082 0.252529 0.471981 0.11455
H_ H_ 0.226582 0.296395 0.0120617 0.11455
H_ H_ 0.19566 0.282121 0.0621969 0.11455
H_ H_ 0.0107391 0.211322 0.120206 0.11455
H_ H_ -0.0034560000000000146 0.178077 0.16967 0.11455
H_ H_ 0.263103 0.187956 0.141659 0.11455
H_ H_ 0.249313 0.174136 0.191664 0.11455
H_ H_ 0.0574719 0.0967842 0.249666 0.11455
H_ H_ 0.0232029 0.0880262 0.295748 0.11455
H_ H_ 0.0550113 0.134132 0.337634 0.11455
H_ H_ 0.158481 0.2554 0.25954 0.11455
H_ H_ 0.197041 0.290085 0.30148 0.11455
H_ H_ 0.185432 0.255726 0.348239 0.11455
H_ H_ 0.199573 0.304428 0.199299 0.11455
H_ H_ 0.145571 0.369724 0.103601 0.11455
H_ H_ 0.230769 0.342726 0.110189 0.11455
H_ H_ 0.114688 0.300982 0.213939 0.11455
H_ H_ 0.0270946 0.288906 0.203301 0.11455
H_ H_ 0.0528369 0.359374 0.1201 0.11455
H_ H_ 0.411946 0.481604 0.18941 0.11455
H_ H_ 0.366463 0.0639828 0.101288 0.11455
H_ H_ 0.352071 0.468804 0.100997 0.11455
H_ H_ 0.394966 0.0648132 0.218546 0.11455
H_ H_ 0.393328 0.156075 0.213645 0.11455
H_ H_ 0.37021 0.146682 0.123217 0.11455
H_ H_ 0.405741 0.401194 0.220768 0.11455
H_ H_ 0.415801 0.429803 0.26855 0.11455
H_ H_ 0.385812 0.372335 0.309639 0.11455
H_ H_ 0.311276 0.245512 0.225534 0.11455
H_ H_ 0.27477 0.200093 0.266 0.11455
H_ H_ 0.299645 0.219964 0.315395 0.11455
H_ H_ 0.485667 0.282984 0.376022 0.11455
H_ H_ 0.494805 0.301706 0.427145 0.11455
H_ H_ 0.235229 0.318414 0.389006 0.11455
H_ H_ 0.245445 0.338859 0.442069 0.11455
H_ H_ 0.456915 0.389314 0.50433 0.11455
H_ H_ 0.458394 0.431296 0.0516798 0.11455
H_ H_ 0.439008 0.372623 0.0884793 0.11455
H_ H_ 0.355092 0.244306 0.00730004 0.11455
H_ H_ 0.312957 0.202335 0.0486489 0.11455
H_ H_ 0.320959 0.235392 0.0970399 0.11455
C_ C_ 0.228434 0.182569 0.402728 0.68181
C_ C_ 0.284696 0.180426 0.399811 -0.05681
C_ C_ 0.317638 0.189177 0.42371 -0.08735
C_ C_ 0.370181 0.187548 0.418386 -0.05681
C_ C_ 0.389459 0.171093 0.391817 -0.05681
C_ C_ 0.356078 0.161937 0.368875 -0.08735
C_ C_ 0.304372 0.166327 0.373552 -0.08735
C_ C_ 0.402223 0.187215 0.442458 -0.08735
C_ C_ 0.453641 0.181431 0.438951 -0.08735
C_ C_ 0.475601 0.173729 0.411529 -0.05681
C_ C_ 0.441527 0.16759 0.388306 -0.08735
C_ C_ 0.120981 0.28206 0.413718 0.68181
C_ C_ 0.13973 0.0856487 0.398994 0.68181
C_ C_ 0.137206 0.02854 0.398546 -0.05681
C_ C_ 0.151241 0.497341 0.419661 -0.08735
C_ C_ 0.14635 0.443694 0.418722 -0.05681
C_ C_ 0.132644 0.421453 0.392101 -0.05681
C_ C_ 0.130453 0.451281 0.367338 -0.08735
C_ C_ 0.133161 0.505271 0.368285 -0.08735
C_ C_ 0.149577 0.412554 0.442207 -0.08735
C_ C_ 0.129276 0.364 0.440333 -0.08735
C_ C_ 0.125445 0.339118 0.414264 -0.05681
C_ C_ 0.131392 0.368027 0.388543 -0.08735
C_ C_ 0.031439 0.183931 0.407234 0.68181
C_ C_ 0.106669 0.126122 0.482123 0.1947
C_ C_ 0.0956473 0.106173 0.0131183 -0.08735
C_ C_ 0.114734 0.133038 0.0349615 -0.08735
C_ C_ 0.137983 0.181521 0.0292836 -0.05681
C_ C_ 0.154261 0.192166 1.000794794 0.18498
C_ C_ 0.178865 0.240331 0.492723 -0.08735
C_ C_ 0.200002 0.265676 0.0165431 -0.08735
C_ C_ 0.184341 0.256184 0.044928 -0.08735
C_ C_ 0.156614 0.212707 0.0518601 0.18498
C_ C_ 0.187681 0.195355 0.100021 0.44287
C_ C_ 0.0990658 0.205475 0.0914018 0.44287
C_ C_ 0.0915836 0.204733 0.121885 -0.05681
C_ C_ 0.0417142 0.203631 0.134766 -0.08735
C_ C_ 0.0357638 0.18916 0.162644 -0.08735
C_ C_ 0.0784606 0.183243 0.181361 -0.05681
C_ C_ 0.125428 0.186154 0.170344 -0.05681
C_ C_ 0.132475 0.195196 0.140686 -0.05681
C_ C_ 0.180592 0.19604 0.129599 -0.05681
C_ C_ 0.223225 0.187546 0.14843 -0.08735
C_ C_ 0.215667 0.178857 0.17777 -0.08735
C_ C_ 0.167041 0.174207 0.18909 -0.05681
C_ C_ 0.158768 0.173712 0.219183 0.44287
C_ C_ 0.0723339 0.180727 0.21112 0.44287
C_ C_ 0.10227 0.163587 0.260608 0.18498
C_ C_ 0.0730886 0.11996 0.266829 -0.08735
C_ C_ 0.0574116 0.108996 0.294502 -0.08735
C_ C_ 0.0738947 0.138279 0.317575 -0.08735
C_ C_ 0.110816 0.176847 0.312791 0.18498
C_ C_ 0.122591 0.190966 0.28399 -0.05681
C_ C_ 0.14729 0.239333 0.281316 -0.08735
C_ C_ 0.170575 0.261684 0.304392 -0.08735
C_ C_ 0.163369 0.241555 0.33093 0.1947
C_ C_ 0.275338 0.308693 0.159152 0.68181
C_ C_ 0.222603 0.321056 0.155128 -0.05681
C_ C_ 0.187569 0.317345 0.177801 -0.08735
C_ C_ 0.136209 0.322471 0.172536 -0.05681
C_ C_ 0.119334 0.340556 0.144983 -0.05681
C_ C_ 0.156286 0.353009 0.123923 -0.08735
C_ C_ 0.204076 0.33512 0.127909 -0.08735
C_ C_ 0.10125 0.313068 0.192763 -0.08735
C_ C_ 0.0491275 0.306002 0.186215 -0.08735
C_ C_ 0.0314981 0.316807 0.158542 -0.05681
C_ C_ 0.0656208 0.341638 0.139448 -0.08735
C_ C_ 0.377928 0.211641 0.165138 0.68181
C_ C_ 0.374864 0.410564 0.150371 0.68181
C_ C_ 0.378844 0.468855 0.147183 -0.05681
C_ C_ 0.388134 -0.0049400000000000555 0.174503 -0.08735
C_ C_ 0.382151 0.0490189 0.172791 -0.05681
C_ C_ 0.378419 0.0746303 0.14451 -0.05681
C_ C_ 0.37167 0.0439281 0.121178 -0.08735
C_ C_ 0.360158 0.490589 0.121666 -0.08735
C_ C_ 0.386479 0.0810011 0.197245 -0.08735
C_ C_ 0.382803 0.13318 0.195595 -0.08735
C_ C_ 0.376914 0.156861 0.168829 -0.05681
C_ C_ 0.375792 0.127913 0.14411 -0.08735
C_ C_ 0.4739 0.318126 0.1596 0.68181
C_ C_ 0.393157 0.374583 0.23742 0.1947
C_ C_ 0.398505 0.393166 0.264859 -0.08735
C_ C_ 0.382942 0.361552 0.287308 -0.08735
C_ C_ 0.359514 0.31482 0.282459 -0.05681
C_ C_ 0.352933 0.300262 0.253106 0.18498
C_ C_ 0.324215 0.25674 0.247003 -0.08735
C_ C_ 0.308437 0.225066 0.268348 -0.08735
C_ C_ 0.318857 0.236905 0.297785 -0.08735
C_ C_ 0.343824 0.281173 0.304761 0.18498
C_ C_ 0.307786 0.30311 0.350914 0.44287
C_ C_ 0.395487 0.28878 0.346705 0.44287
C_ C_ 0.403314 0.293489 0.376591 -0.05681
C_ C_ 0.450581 0.292372 0.388601 -0.08735
C_ C_ 0.456486 0.300104 0.418794 -0.08735
C_ C_ 0.414442 0.301802 0.436569 -0.05681
C_ C_ 0.366626 0.309612 0.424344 -0.05681
C_ C_ 0.361597 0.307145 0.394471 -0.05681
C_ C_ 0.31252 0.308489 0.380773 -0.05681
C_ C_ 0.270504 0.31535 0.399099 -0.08735
C_ C_ 0.277102 0.324968 0.428495 -0.08735
C_ C_ 0.326139 0.322775 0.441444 -0.05681
C_ C_ 0.336612 0.335382 0.470938 0.44287
C_ C_ 0.420548 0.30523 0.466344 0.44287
C_ C_ 0.402178 0.333151 0.0107331 0.18498
C_ C_ 0.428825 0.379825 0.0172074 -0.08735
C_ C_ 0.437292 0.395042 0.0455166 -0.08735
C_ C_ 0.431113 0.359049 0.0677778 -0.08735
C_ C_ 0.404456 0.314327 0.0634863 0.18498
C_ C_ 0.391178 0.299321 0.0342581 -0.05681
C_ C_ 0.35763 0.261295 0.029143 -0.08735
C_ C_ 0.331467 0.238678 0.0518979 -0.08735
C_ C_ 0.345964 0.250492 0.079799 0.1947
N_ N_ 0.134536 0.166798 0.477133 -0.29468
N_ N_ 0.147837 0.202267 0.0817799 -0.17154
N_ N_ 0.110866 0.174733 0.23005 -0.17154
N_ N_ 0.133425 0.200648 0.336097 -0.29468
N_ N_ 0.371194 0.329143 0.231288 -0.29468
N_ N_ 0.349592 0.29366 0.334693 -0.17154
N_ N_ 0.38238 0.32467 0.483004 -0.17154
N_ N_ 0.380611 0.290098 0.0850184 -0.29468
O_ O_ 0.210551 0.193406 0.426457 -0.58347
O_ O_ 0.199004 0.175503 0.380881 -0.58347
O_ O_ 0.119427 0.257293 0.436044 -0.58347
O_ O_ 0.129827 0.259008 0.389703 -0.58347
O_ O_ 0.145179 0.108702 0.422808 -0.58347
O_ O_ 0.124936 0.111378 0.376512 -0.58347
O_ O_ 0.0583124 0.170493 0.427505 -0.58347
O_ O_ 0.0519064 0.191208 0.38227 -0.58347
O_ O_ 0.0629404 0.213362 0.0729816 -0.46727
O_ O_ 0.235482 0.191624 0.0903534 -0.46727
O_ O_ 0.0258346 0.185345 0.220201 -0.46727
O_ O_ 0.197226 0.170298 0.236994 -0.46727
O_ O_ 0.295671 0.314426 0.183337 -0.58347
O_ O_ 0.302157 0.303659 0.137453 -0.58347
O_ O_ 0.368167 0.238498 0.186593 -0.58347
O_ O_ 0.386325 0.231623 0.141641 -0.58347
O_ O_ 0.369328 0.389998 0.175359 -0.58347
O_ O_ 0.377488 0.38144 0.128448 -0.58347
O_ O_ 0.446075 0.316778 0.18118 -0.58347
O_ O_ 0.455028 0.311774 0.135228 -0.58347
O_ O_ 0.435546 0.282214 0.328707 -0.46727
O_ O_ 0.264493 0.316213 0.33831 -0.46727
O_ O_ 0.462182 0.292914 0.479361 -0.46727
O_ O_ 0.299493 0.350879 0.487658 -0.46727
Zn Zn 0.125218 0.181166 0.882885 0.90689
Zn Zn 0.137492 0.173242 0.929273 0.90689
Zn Zn 0.371168 0.308956 0.635175 0.90689
Zn Zn 0.361674 0.318426 0.682822 0.90689
H_ H_ 0.299742 0.167733 0.94579 0.11455
H_ H_ 0.371594 0.172767 0.847538 0.11455
H_ H_ 0.277948 0.15952 0.853772 0.11455
H_ H_ 0.384961 0.174252 0.965567 0.11455
H_ H_ 0.478965 0.17712 0.956405 0.11455
H_ H_ 0.456383 0.165398 0.867149 0.11455
H_ H_ 0.136524 0.00318795 0.945942 0.11455
H_ H_ 0.115938 0.426809 0.845431 0.11455
H_ H_ 0.139659 0.0252062 0.85296 0.11455
H_ H_ 0.148458 0.428355 0.961453 0.11455
H_ H_ 0.149583 0.331336 0.959264 0.11455
H_ H_ 0.120563 0.347183 0.867674 0.11455
H_ H_ 0.0820712 0.105131 0.967668 0.11455
H_ H_ 0.0753608 0.0734945 0.512003 0.11455
H_ H_ 0.115544 0.115271 0.554803 0.11455
H_ H_ 0.197832 0.239477 0.972848 0.11455
H_ H_ 0.21401 0.306743 0.510031 0.11455
H_ H_ 0.191699 0.286708 0.559688 0.11455
H_ H_ 0.0122884 0.206733 0.619 0.11455
H_ H_ -0.006932000000000049 0.191726 0.67195 0.11455
H_ H_ 0.257582 0.148429 0.639326 0.11455
H_ H_ 0.24451 0.145496 0.688577 0.11455
H_ H_ 0.0451102 0.0894569 0.7494 0.11455
H_ H_ 0.0372578 0.0574119 0.797548 0.11455
H_ H_ 0.0771821 0.107462 0.838436 0.11455
H_ H_ 0.141542 0.241119 0.755743 0.11455
H_ H_ 0.187133 0.286813 0.795969 0.11455
H_ H_ 0.181234 0.250183 0.845256 0.11455
H_ H_ 0.190338 0.307237 0.700367 0.11455
H_ H_ 0.128135 0.33052 0.600507 0.11455
H_ H_ 0.22137 0.339959 0.610785 0.11455
H_ H_ 0.104582 0.319705 0.717904 0.11455
H_ H_ 0.0140213 0.311249 0.710389 0.11455
H_ H_ 0.0422141 0.31148 0.620635 0.11455
H_ H_ 0.362222 0.483229 0.697674 0.11455
H_ H_ 0.35742 0.0649139 0.601482 0.11455
H_ H_ 0.406461 0.466895 0.609675 0.11455
H_ H_ 0.386606 0.0731842 0.719865 0.11455
H_ H_ 0.37909 0.165272 0.716092 0.11455
H_ H_ 0.349694 0.146272 0.624561 0.11455
H_ H_ 0.415849 0.381943 0.719062 0.11455
H_ H_ 0.428847 0.41222 0.765333 0.11455
H_ H_ 0.387267 0.369606 0.807306 0.11455
H_ H_ 0.287549 0.259533 0.726058 0.11455
H_ H_ 0.251839 0.206778 0.764151 0.11455
H_ H_ 0.29165 0.213676 0.813465 0.11455
H_ H_ 0.482504 0.279713 0.867366 0.11455
H_ H_ 0.495476 0.290577 0.921933 0.11455
H_ H_ 0.236622 0.341138 0.894762 0.11455
H_ H_ 0.248389 0.332944 0.944176 0.11455
H_ H_ 0.429045 0.410224 0.000497575 0.11455
H_ H_ 0.467118 0.419705 0.553003 0.11455
H_ H_ 0.421099 0.381719 0.592429 0.11455
H_ H_ 0.337258 0.250972 0.510784 0.11455
H_ H_ 0.290452 0.214178 0.551455 0.11455
H_ H_ 0.313242 0.240459 0.600837 0.11455
C_ C_ 0.227114 0.176998 0.905185 0.68181
C_ C_ 0.282909 0.169164 0.9004 -0.05681
C_ C_ 0.314147 0.162139 0.92412 -0.08735
C_ C_ 0.366793 0.160154 0.91977 -0.05681
C_ C_ 0.387921 0.163797 0.891922 -0.05681
C_ C_ 0.354747 0.164883 0.868179 -0.08735
C_ C_ 0.304466 0.169838 0.872532 -0.08735
C_ C_ 0.399914 0.172845 0.943584 -0.08735
C_ C_ 0.453491 0.173561 0.93832 -0.08735
C_ C_ 0.475573 0.165021 0.911716 -0.05681
C_ C_ 0.442467 0.164708 0.888276 -0.08735
C_ C_ 0.125947 0.27544 0.910355 0.68181
C_ C_ 0.139955 0.0789349 0.904059 0.68181
C_ C_ 0.140585 0.0224816 0.900039 -0.05681
C_ C_ 0.132437 0.490477 0.920455 -0.08735
C_ C_ 0.133346 0.437837 0.918282 -0.05681
C_ C_ 0.123549 0.415028 0.891181 -0.05681
C_ C_ 0.119313 0.445355 0.86651 -0.08735
C_ C_ 0.124029 0.499457 0.869169 -0.08735
C_ C_ 0.135334 0.406562 0.942868 -0.08735
C_ C_ 0.138447 0.354227 0.94116 -0.08735
C_ C_ 0.13221 0.331727 0.912391 -0.05681
C_ C_ 0.121905 0.363609 0.888032 -0.08735
C_ C_ 0.0320965 0.174578 0.906196 0.68181
C_ C_ 0.102861 0.123239 0.984675 0.1947
C_ C_ 0.101396 0.105478 0.508963 -0.08735
C_ C_ 0.119728 0.131949 0.53278 -0.08735
C_ C_ 0.144166 0.180428 0.528001 -0.05681
C_ C_ 0.149737 0.197715 0.498905 0.18498
C_ C_ 0.187013 0.232434 0.994449 -0.08735
C_ C_ 0.194733 0.271324 0.515351 -0.08735
C_ C_ 0.183808 0.257854 0.543778 -0.08735
C_ C_ 0.160744 0.211625 0.550179 0.18498
C_ C_ 0.190185 0.183219 0.597606 0.44287
C_ C_ 0.101761 0.204794 0.59054 0.44287
C_ C_ 0.0937877 0.200202 0.621253 -0.05681
C_ C_ 0.0442293 0.200223 0.632455 -0.08735
C_ C_ 0.0322386 0.187676 0.661931 -0.08735
C_ C_ 0.0739114 0.184772 0.681421 -0.05681
C_ C_ 0.124305 0.181594 0.669034 -0.05681
C_ C_ 0.134925 0.187123 0.639356 -0.05681
C_ C_ 0.184087 0.181663 0.627122 -0.05681
C_ C_ 0.221033 0.161253 0.646844 -0.08735
C_ C_ 0.212385 0.159472 0.675251 -0.08735
C_ C_ 0.164028 0.166863 0.687766 -0.05681
C_ C_ 0.156089 0.154688 0.717069 0.44287
C_ C_ 0.0679739 0.173387 0.710846 0.44287
C_ C_ 0.100315 0.148469 0.757972 0.18498
C_ C_ 0.0684513 0.107086 0.76507 -0.08735
C_ C_ 0.061476 0.0906081 0.793669 -0.08735
C_ C_ 0.0830777 0.118914 0.816396 -0.08735
C_ C_ 0.110384 0.163071 0.810586 0.18498
C_ C_ 0.12264 0.177228 0.781218 -0.05681
C_ C_ 0.144729 0.224561 0.776647 -0.08735
C_ C_ 0.159245 0.256414 0.799571 -0.08735
C_ C_ 0.161035 0.233013 0.826933 0.1947
C_ C_ 0.266793 0.313026 0.660174 0.68181
C_ C_ 0.210748 0.318912 0.655075 -0.05681
C_ C_ 0.176491 0.314499 0.678345 -0.08735
C_ C_ 0.12506 0.325842 0.673182 -0.05681
C_ C_ 0.105794 0.327181 0.645152 -0.05681
C_ C_ 0.142197 0.326163 0.622218 -0.08735
C_ C_ 0.192945 0.331746 0.627792 -0.08735
C_ C_ 0.0903907 0.321171 0.696219 -0.08735
C_ C_ 0.0376223 0.321921 0.693313 -0.08735
C_ C_ 0.0190354 0.322096 0.663515 -0.05681
C_ C_ 0.0541503 0.324255 0.640685 -0.08735
C_ C_ 0.372959 0.215938 0.664046 0.68181
C_ C_ 0.367568 0.410636 0.654254 0.68181
C_ C_ 0.371286 0.467623 0.650792 -0.05681
C_ C_ 0.370982 -0.000327414 0.6766 -0.08735
C_ C_ 0.37058 0.0538071 0.674055 -0.05681
C_ C_ 0.366691 0.0759313 0.64734 -0.05681
C_ C_ 0.364295 0.0466936 0.622656 -0.08735
C_ C_ 0.389716 0.490098 0.625319 -0.08735
C_ C_ 0.374498 0.0860208 0.698698 -0.08735
C_ C_ 0.376979 0.139471 0.696177 -0.08735
C_ C_ 0.367283 0.160469 0.668786 -0.05681
C_ C_ 0.359044 0.128515 0.645256 -0.08735
C_ C_ 0.464875 0.320518 0.659319 0.68181
C_ C_ 0.399368 0.362824 0.736191 0.1947
C_ C_ 0.407481 0.379203 0.763852 -0.08735
C_ C_ 0.381272 0.356674 0.786909 -0.08735
C_ C_ 0.351136 0.314828 0.782296 -0.05681
C_ C_ 0.337807 0.30383 0.7525 0.18498
C_ C_ 0.301431 0.265564 0.74704 -0.08735
C_ C_ 0.278332 0.238092 0.768788 -0.08735
C_ C_ 0.298495 0.240846 0.796451 -0.08735
C_ C_ 0.325991 0.285056 0.803796 0.18498
C_ C_ 0.298129 0.303873 0.852727 0.44287
C_ C_ 0.38315 0.284089 0.844037 0.44287
C_ C_ 0.396695 0.289412 0.873832 -0.05681
C_ C_ 0.449116 0.287543 0.883049 -0.08735
C_ C_ 0.459289 0.295681 0.913025 -0.08735
C_ C_ 0.420842 0.307758 0.932314 -0.05681
C_ C_ 0.368685 0.312775 0.922138 -0.05681
C_ C_ 0.35862 0.304282 0.893497 -0.05681
C_ C_ 0.307754 0.307462 0.883097 -0.05681
C_ C_ 0.270359 0.326048 0.902067 -0.08735
C_ C_ 0.279561 0.334308 0.930355 -0.08735
C_ C_ 0.329088 0.324731 0.941643 -0.05681
C_ C_ 0.340551 0.332176 0.971483 0.44287
C_ C_ 0.428964 0.311016 0.962075 0.44287
C_ C_ 0.39174 0.340168 0.512884 0.18498
C_ C_ 0.428678 0.37797 0.520139 -0.08735
C_ C_ 0.437091 0.393434 0.548159 -0.08735
C_ C_ 0.412952 0.36863 0.570561 -0.08735
C_ C_ 0.384983 0.322997 0.564626 0.18498
C_ C_ 0.371127 0.309837 0.535536 -0.05681
C_ C_ 0.340023 0.268552 0.531866 -0.08735
C_ C_ 0.314294 0.246348 0.554513 -0.08735
C_ C_ 0.329113 0.260926 0.582748 0.1947
N_ N_ 0.129423 0.165985 0.979403 -0.29468
N_ N_ 0.150778 0.199258 0.580474 -0.17154
N_ N_ 0.108137 0.159045 0.72796 -0.17154
N_ N_ 0.129731 0.192376 0.832422 -0.29468
N_ N_ 0.363902 0.326359 0.73 -0.29468
N_ N_ 0.336129 0.293347 0.833643 -0.17154
N_ N_ 0.389027 0.323862 0.981071 -0.17154
N_ N_ 0.363583 0.297755 0.587582 -0.29468
O_ O_ 0.211406 0.177601 0.930879 -0.58347
O_ O_ 0.19772 0.188731 0.884928 -0.58347
O_ O_ 0.137008 0.247905 0.930867 -0.58347
O_ O_ 0.114028 0.254185 0.886567 -0.58347
O_ O_ 0.138192 0.0987553 0.928197 -0.58347
O_ O_ 0.139048 0.108422 0.882696 -0.58347
O_ O_ 0.0603318 0.178034 0.927679 -0.58347
O_ O_ 0.0509083 0.171195 0.882096 -0.58347
O_ O_ 0.063416 0.211746 0.573323 -0.46727
O_ O_ 0.232607 0.171787 0.585339 -0.46727
O_ O_ 0.0214145 0.172091 0.720588 -0.46727
O_ O_ 0.19398 0.144735 0.733408 -0.46727
O_ O_ 0.286578 0.32967 0.682361 -0.58347
O_ O_ 0.294974 0.298777 0.638898 -0.58347
O_ O_ 0.361185 0.24326 0.6853 -0.58347
O_ O_ 0.382169 0.235326 0.639856 -0.58347
O_ O_ 0.36516 0.393358 0.67912 -0.58347
O_ O_ 0.361259 0.383729 0.632063 -0.58347
O_ O_ 0.435942 0.316631 0.681514 -0.58347
O_ O_ 0.444566 0.321516 0.634141 -0.58347
O_ O_ 0.419387 0.26672 0.826751 -0.46727
O_ O_ 0.252546 0.310207 0.841591 -0.46727
O_ O_ 0.474245 0.30448 0.971386 -0.46727
O_ O_ 0.305172 0.340348 0.989445 -0.46727
Zn Zn 0.123815 0.684161 0.382828 0.90689
Zn Zn 0.139653 0.680738 0.429462 0.90689
Zn Zn 0.374963 0.807157 0.134551 0.90689
Zn Zn 0.372186 0.81632 0.182659 0.90689
H_ H_ 0.30656 0.682194 0.445806 0.11455
H_ H_ 0.364872 0.677028 0.345439 0.11455
H_ H_ 0.277318 0.670788 0.35457 0.11455
H_ H_ 0.391024 0.702623 0.462622 0.11455
H_ H_ 0.478379 0.677557 0.458315 0.11455
H_ H_ 0.454753 0.659618 0.364574 0.11455
H_ H_ 0.159471 0.515709 0.43957 0.11455
H_ H_ 0.121822 0.934001 0.351939 0.11455
H_ H_ 0.132011 0.528279 0.349068 0.11455
H_ H_ 0.156615 0.935466 0.468086 0.11455
H_ H_ 0.151219 0.840923 0.466002 0.11455
H_ H_ 0.10406 0.851526 0.376973 0.11455
H_ H_ 0.0843281 0.608363 0.464197 0.11455
H_ H_ 0.064417 0.578616 0.0196468 0.11455
H_ H_ 0.102029 0.630326 0.057835 0.11455
H_ H_ 0.198956 0.745382 0.475247 0.11455
H_ H_ 0.227567 0.79127 0.00544989 0.11455
H_ H_ 0.204739 0.780954 0.056489 0.11455
H_ H_ 0.019362 0.715655 0.119365 0.11455
H_ H_ 0.00369013 0.695706 0.170757 0.11455
H_ H_ 0.266917 0.687263 0.140767 0.11455
H_ H_ 0.251478 0.669662 0.192218 0.11455
H_ H_ 0.0608753 0.601391 0.246569 0.11455
H_ H_ 0.0369773 0.57377 0.292679 0.11455
H_ H_ 0.0616026 0.629361 0.335909 0.11455
H_ H_ 0.166064 0.752666 0.258233 0.11455
H_ H_ 0.193846 0.799713 0.300567 0.11455
H_ H_ 0.172991 0.771878 0.34701 0.11455
H_ H_ 0.203148 0.806843 0.197839 0.11455
H_ H_ 0.131308 0.849043 0.100573 0.11455
H_ H_ 0.221725 0.836742 0.105415 0.11455
H_ H_ 0.11735 0.818053 0.218347 0.11455
H_ H_ 0.0222944 0.803685 0.209424 0.11455
H_ H_ 0.0495373 0.836322 0.117627 0.11455
H_ H_ 0.386125 0.97714 0.196238 0.11455
H_ H_ 0.339572 0.555496 0.101454 0.11455
H_ H_ 0.374292 0.965501 0.103533 0.11455
H_ H_ 0.40048 0.563442 0.213777 0.11455
H_ H_ 0.374494 0.652746 0.214456 0.11455
H_ H_ 0.35725 0.641172 0.121098 0.11455
H_ H_ 0.43313 0.878517 0.214651 0.11455
H_ H_ 0.45766 0.90201 0.262856 0.11455
H_ H_ 0.404913 0.878849 0.304932 0.11455
H_ H_ 0.299694 0.760582 0.225442 0.11455
H_ H_ 0.261265 0.716218 0.26982 0.11455
H_ H_ 0.29021 0.730202 0.315664 0.11455
H_ H_ 0.484719 0.793729 0.374145 0.11455
H_ H_ 0.495832 0.812234 0.427011 0.11455
H_ H_ 0.232875 0.842074 0.389043 0.11455
H_ H_ 0.249269 0.857254 0.439731 0.11455
H_ H_ 0.427818 0.919145 0.501464 0.11455
H_ H_ 0.442697 0.939274 0.0502173 0.11455
H_ H_ 0.430787 0.87632 0.088496 0.11455
H_ H_ 0.338718 0.751345 0.00852072 0.11455
H_ H_ 0.300581 0.710587 0.0508056 0.11455
H_ H_ 0.326279 0.737166 0.0998863 0.11455
C_ C_ 0.229356 0.679587 0.406802 0.68181
C_ C_ 0.283573 0.682129 0.401097 -0.05681
C_ C_ 0.317806 0.687729 0.423496 -0.08735
C_ C_ 0.369437 0.68479 0.4185 -0.05681
C_ C_ 0.389049 0.674784 0.390686 -0.05681
C_ C_ 0.35506 0.673382 0.367632 -0.08735
C_ C_ 0.302472 0.676305 0.373015 -0.08735
C_ C_ 0.401835 0.68821 0.441257 -0.08735
C_ C_ 0.453266 0.677327 0.438482 -0.08735
C_ C_ 0.474481 0.673292 0.410231 -0.05681
C_ C_ 0.440959 0.669643 0.386225 -0.08735
C_ C_ 0.128149 0.780868 0.41858 0.68181
C_ C_ 0.139268 0.583727 0.397331 0.68181
C_ C_ 0.136346 0.528157 0.395811 -0.05681
C_ C_ 0.146235 0.996266 0.423146 -0.08735
C_ C_ 0.139754 0.943461 0.423383 -0.05681
C_ C_ 0.124872 0.919711 0.397543 -0.05681
C_ C_ 0.122484 0.948989 0.372778 -0.08735
C_ C_ 0.122535 1.00218768 0.373411 -0.08735
C_ C_ 0.146103 0.915023 0.448579 -0.08735
C_ C_ 0.143541 0.862404 0.447525 -0.08735
C_ C_ 0.130113 0.838256 0.421074 -0.05681
C_ C_ 0.124925 0.867123 0.396142 -0.08735
C_ C_ 0.0329135 0.683735 0.405988 0.68181
C_ C_ 0.10922 0.624367 0.481892 0.1947
C_ C_ 0.0879779 0.610888 0.0156073 -0.08735
C_ C_ 0.111203 0.638795 0.0365736 -0.08735
C_ C_ 0.142067 0.680579 0.029449 -0.05681
C_ C_ 0.146744 0.694165 0.999727 0.18498
C_ C_ 0.187434 0.734101 0.495485 -0.08735
C_ C_ 0.205981 0.758762 0.0121746 -0.08735
C_ C_ 0.192826 0.753483 0.040962 -0.08735
C_ C_ 0.164031 0.712895 0.0505547 0.18498
C_ C_ 0.196732 0.697141 0.0999119 0.44287
C_ C_ 0.109085 0.714081 0.0929921 0.44287
C_ C_ 0.100224 0.704529 0.122446 -0.05681
C_ C_ 0.0490509 0.706513 0.1337 -0.08735
C_ C_ 0.0414318 0.688895 0.161375 -0.08735
C_ C_ 0.0822829 0.683584 0.179953 -0.05681
C_ C_ 0.131496 0.678485 0.169188 -0.05681
C_ C_ 0.140298 0.690102 0.140019 -0.05681
C_ C_ 0.188171 0.691519 0.129528 -0.05681
C_ C_ 0.229002 0.677077 0.148063 -0.08735
C_ C_ 0.221038 0.6731 0.177225 -0.08735
C_ C_ 0.171424 0.677021 0.188004 -0.05681
C_ C_ 0.161546 0.673532 0.218109 0.44287
C_ C_ 0.075501 0.687763 0.209987 0.44287
C_ C_ 0.102968 0.669059 0.259541 0.18498
C_ C_ 0.0764338 0.623885 0.264567 -0.08735
C_ C_ 0.0624273 0.608579 0.29168 -0.08735
C_ C_ 0.0815425 0.63685 0.3154 -0.08735
C_ C_ 0.116278 0.67791 0.312084 0.18498
C_ C_ 0.125255 0.693821 0.282976 -0.05681
C_ C_ 0.157861 0.73683 0.279712 -0.08735
C_ C_ 0.173523 0.764694 0.303493 -0.08735
C_ C_ 0.160692 0.747807 0.330419 0.1947
C_ C_ 0.274355 0.817488 0.154893 0.68181
C_ C_ 0.218965 0.824977 0.151805 -0.05681
C_ C_ 0.185641 0.821237 0.176589 -0.08735
C_ C_ 0.133956 0.822746 0.172153 -0.05681
C_ C_ 0.113756 0.829524 0.144472 -0.05681
C_ C_ 0.146895 0.838157 0.12101 -0.08735
C_ C_ 0.197804 0.833465 0.124424 -0.08735
C_ C_ 0.102049 0.822671 0.19655 -0.08735
C_ C_ 0.0489235 0.820002 0.191707 -0.08735
C_ C_ 0.0275148 0.824651 0.163021 -0.05681
C_ C_ 0.0607403 0.831984 0.139219 -0.08735
C_ C_ 0.368972 0.714124 0.164031 0.68181
C_ C_ 0.379709 0.907948 0.152195 0.68181
C_ C_ 0.386689 0.964669 0.149647 -0.05681
C_ C_ 0.392787 0.49913 0.170173 -0.08735
C_ C_ 0.385077 0.552002 0.168873 -0.05681
C_ C_ 0.370167 0.57617 0.1424 -0.05681
C_ C_ 0.358592 0.54355 0.11975 -0.08735
C_ C_ 0.378235 -0.00912500000000005 0.1233 -0.08735
C_ C_ 0.391144 0.582049 0.193705 -0.08735
C_ C_ 0.382929 0.634284 0.193038 -0.08735
C_ C_ 0.370415 0.657421 0.166566 -0.05681
C_ C_ 0.366976 0.627433 0.14179 -0.08735
C_ C_ 0.470566 0.812511 0.158845 0.68181
C_ C_ 0.408988 0.867589 0.232483 0.1947
C_ C_ 0.423745 0.878554 0.260522 -0.08735
C_ C_ 0.397562 0.861475 0.284288 -0.08735
C_ C_ 0.36133 0.822633 0.280746 -0.05681
C_ C_ 0.346744 0.811732 0.251828 0.18498
C_ C_ 0.309101 0.774164 0.247184 -0.08735
C_ C_ 0.291543 0.746155 0.270703 -0.08735
C_ C_ 0.307786 0.754139 0.298314 -0.08735
C_ C_ 0.340014 0.794253 0.303925 0.18498
C_ C_ 0.309193 0.827077 0.34949 0.44287
C_ C_ 0.395703 0.7991 0.344983 0.44287
C_ C_ 0.403252 0.805992 0.375001 -0.05681
C_ C_ 0.451652 0.804971 0.387011 -0.08735
C_ C_ 0.458392 0.813811 0.417099 -0.08735
C_ C_ 0.415847 0.817925 0.435225 -0.05681
C_ C_ 0.367309 0.823881 0.42282 -0.05681
C_ C_ 0.362467 0.821815 0.392369 -0.05681
C_ C_ 0.31433 0.828491 0.379888 -0.05681
C_ C_ 0.271014 0.83836 0.398025 -0.08735
C_ C_ 0.277852 0.839396 0.42742 -0.08735
C_ C_ 0.326391 0.835857 0.43934 -0.05681
C_ C_ 0.334533 0.847672 0.469015 0.44287
C_ C_ 0.420114 0.822285 0.466245 0.44287
C_ C_ 0.388787 0.843109 0.0113324 0.18498
C_ C_ 0.407527 0.891775 0.0186586 -0.08735
C_ C_ 0.425086 0.901805 0.0458691 -0.08735
C_ C_ 0.417854 0.867054 0.0678069 -0.08735
C_ C_ 0.388954 0.824634 0.0625126 0.18498
C_ C_ 0.375194 0.81068 0.0343848 -0.05681
C_ C_ 0.346594 0.766751 0.0291966 -0.08735
C_ C_ 0.324625 0.743381 0.0533018 -0.08735
C_ C_ 0.339156 0.75645 0.0809099 0.1947
N_ N_ 0.140664 0.664438 0.477957 -0.29468
N_ N_ 0.157 0.708272 0.0817803 -0.17154
N_ N_ 0.114815 0.682407 0.229149 -0.17154
N_ N_ 0.134987 0.703679 0.335067 -0.29468
N_ N_ 0.373011 0.832017 0.229133 -0.29468
N_ N_ 0.347526 0.808496 0.332807 -0.17154
N_ N_ 0.379559 0.839754 0.482117 -0.17154
N_ N_ 0.370944 0.795911 0.084605 -0.29468
O_ O_ 0.214075 0.682102 0.432852 -0.58347
O_ O_ 0.199578 0.684393 0.385729 -0.58347
O_ O_ 0.135165 0.752065 0.439919 -0.58347
O_ O_ 0.124226 0.760346 0.393611 -0.58347
O_ O_ 0.147951 0.606127 0.421187 -0.58347
O_ O_ 0.123271 0.608088 0.376644 -0.58347
O_ O_ 0.0622751 0.677089 0.427905 -0.58347
O_ O_ 0.0519259 0.688875 0.381039 -0.58347
O_ O_ 0.0699907 0.721917 0.0761161 -0.46727
O_ O_ 0.241266 0.68664 0.0884451 -0.46727
O_ O_ 0.031226 0.69879 0.221913 -0.46727
O_ O_ 0.200185 0.670494 0.235795 -0.46727
O_ O_ 0.295204 0.82313 0.178846 -0.58347
O_ O_ 0.299848 0.80855 0.133338 -0.58347
O_ O_ 0.365691 0.740878 0.185813 -0.58347
O_ O_ 0.370976 0.735259 0.139859 -0.58347
O_ O_ 0.379438 0.889032 0.176876 -0.58347
O_ O_ 0.378242 0.881212 0.129639 -0.58347
O_ O_ 0.442092 0.804917 0.181059 -0.58347
O_ O_ 0.449956 0.809195 0.134144 -0.58347
O_ O_ 0.429186 0.776192 0.330374 -0.46727
O_ O_ 0.267066 0.837128 0.336838 -0.46727
O_ O_ 0.465932 0.819914 0.478209 -0.46727
O_ O_ 0.29793 0.867508 0.484337 -0.46727
Zn Zn 0.123018 0.677633 0.881337 0.90689
Zn Zn 0.127605 0.673778 0.931296 0.90689
Zn Zn 0.376013 0.813477 0.635336 0.90689
Zn Zn 0.363182 0.817576 0.683407 0.90689
H_ H_ 0.296823 0.725346 0.940534 0.11455
H_ H_ 0.36872 0.66118 0.849333 0.11455
H_ H_ 0.277433 0.659073 0.857372 0.11455
H_ H_ 0.378401 0.708058 0.964678 0.11455
H_ H_ 0.472333 0.699749 0.961503 0.11455
H_ H_ 0.453466 0.663502 0.869761 0.11455
H_ H_ 0.132404 0.508986 0.941569 0.11455
H_ H_ 0.144317 0.93259 0.846243 0.11455
H_ H_ 0.123125 0.523849 0.850969 0.11455
H_ H_ 0.123615 0.921411 0.966108 0.11455
H_ H_ 0.111997 0.831402 0.959146 0.11455
H_ H_ 0.129207 0.844377 0.86808 0.11455
H_ H_ 0.0862671 0.594758 0.971413 0.11455
H_ H_ 0.0678701 0.578593 0.513451 0.11455
H_ H_ 0.106117 0.622406 0.555277 0.11455
H_ H_ 0.19554 0.731938 0.968797 0.11455
H_ H_ 0.223647 0.801636 0.515185 0.11455
H_ H_ 0.21023 0.775169 0.564179 0.11455
H_ H_ 1.0164937 0.709033 0.618393 0.11455
H_ H_ 1.00196369 0.70253 0.671091 0.11455
H_ H_ 0.268754 0.678363 0.63922 0.11455
H_ H_ 0.249229 0.666916 0.691933 0.11455
H_ H_ 0.0564806 0.590902 0.748818 0.11455
H_ H_ 0.0439527 0.560387 0.796003 0.11455
H_ H_ 0.0799571 0.608983 0.837531 0.11455
H_ H_ 0.162437 0.740869 0.757093 0.11455
H_ H_ 0.20793 0.774243 0.802569 0.11455
H_ H_ 0.181376 0.750982 0.848325 0.11455
H_ H_ 0.196259 0.806526 0.694743 0.11455
H_ H_ 0.134168 0.848026 0.596905 0.11455
H_ H_ 0.22766 0.842073 0.604991 0.11455
H_ H_ 0.109915 0.804597 0.713427 0.11455
H_ H_ 0.0195838 0.801895 0.704133 0.11455
H_ H_ 0.0479494 0.830298 0.613237 0.11455
H_ H_ 0.376533 0.981491 0.697091 0.11455
H_ H_ 0.418227 0.56269 0.606131 0.11455
H_ H_ 0.355408 0.971368 0.605511 0.11455
H_ H_ 0.335972 0.571499 0.715043 0.11455
H_ H_ 0.340018 0.661509 0.708045 0.11455
H_ H_ 0.401573 0.644174 0.623938 0.11455
H_ H_ 0.427159 0.8863 0.718256 0.11455
H_ H_ 0.429939 0.923157 0.767072 0.11455
H_ H_ 0.397759 0.869452 0.808552 0.11455
H_ H_ 0.30219 0.759722 0.724527 0.11455
H_ H_ 0.282399 0.700665 0.762435 0.11455
H_ H_ 0.298053 0.719886 0.81038 0.11455
H_ H_ 0.482356 0.786192 0.875436 0.11455
H_ H_ 0.496735 0.802002 0.925821 0.11455
H_ H_ 0.239425 0.843894 0.890034 0.11455
H_ H_ 0.2486 0.855733 0.938223 0.11455
H_ H_ 0.411701 0.921296 1.00285105 0.11455
H_ H_ 0.455241 0.936815 0.552989 0.11455
H_ H_ 0.434541 0.87988 0.590509 0.11455
H_ H_ 0.321392 0.766329 0.511204 0.11455
H_ H_ 0.306643 0.710345 0.551356 0.11455
H_ H_ 0.327464 0.736134 0.60133 0.11455
C_ C_ 0.22408 0.682629 0.903586 0.68181
C_ C_ 0.279751 0.685871 0.900267 -0.05681
C_ C_ 0.312152 0.705073 0.921789 -0.08735
C_ C_ 0.365424 0.699688 0.919231 -0.05681
C_ C_ 0.385876 0.686455 0.892068 -0.05681
C_ C_ 0.354771 0.678553 0.869857 -0.08735
C_ C_ 0.300301 0.675912 0.874003 -0.08735
C_ C_ 0.395355 0.70358 0.942934 -0.08735
C_ C_ 0.448515 0.697415 0.940883 -0.08735
C_ C_ 0.471369 0.68593 0.913459 -0.05681
C_ C_ 0.438981 0.677775 0.889753 -0.08735
C_ C_ 0.1213 0.775184 0.911948 0.68181
C_ C_ 0.128557 0.578835 0.899452 0.68181
C_ C_ 0.127543 0.521841 0.896732 -0.05681
C_ C_ 0.130262 0.989287 0.923412 -0.08735
C_ C_ 0.126735 0.937554 0.918815 -0.05681
C_ C_ 0.127231 0.915623 0.891438 -0.05681
C_ C_ 0.139454 0.947185 0.868412 -0.08735
C_ C_ 0.142958 0.00155175 0.872392 -0.08735
C_ C_ 0.119288 0.907717 0.9439 -0.08735
C_ C_ 0.116844 0.855004 0.940588 -0.08735
C_ C_ 0.12065 0.830629 0.913456 -0.05681
C_ C_ 0.127258 0.861601 0.889013 -0.08735
C_ C_ 0.0273994 0.680908 0.908468 0.68181
C_ C_ 0.0995609 0.622265 0.987207 0.1947
C_ C_ 0.0994338 0.605626 0.510625 -0.08735
C_ C_ 0.118298 0.633312 0.533794 -0.08735
C_ C_ 0.149417 0.675386 0.529063 -0.05681
C_ C_ 0.160932 0.68983 0.500577 0.18498
C_ C_ 0.181286 0.730503 0.991144 -0.08735
C_ C_ 0.204445 0.764396 0.518199 -0.08735
C_ C_ 0.198069 0.74842 0.546915 -0.08735
C_ C_ 0.167888 0.70509 0.552908 0.18498
C_ C_ 0.193468 0.679892 0.600313 0.44287
C_ C_ 0.108737 0.703114 0.593014 0.44287
C_ C_ 0.0983461 0.699148 0.622214 -0.05681
C_ C_ 0.0481758 0.701407 0.632906 -0.08735
C_ C_ 0.0405436 0.699506 0.663228 -0.08735
C_ C_ 0.0786615 0.685875 0.681646 -0.05681
C_ C_ 0.129006 0.683626 0.670098 -0.05681
C_ C_ 0.138155 0.689364 0.640942 -0.05681
C_ C_ 0.186608 0.679086 0.629284 -0.05681
C_ C_ 0.228363 0.678834 0.64757 -0.08735
C_ C_ 0.220508 0.674937 0.678354 -0.08735
C_ C_ 0.16942 0.673196 0.688804 -0.05681
C_ C_ 0.158353 0.656059 0.717359 0.44287
C_ C_ 0.0707387 0.681277 0.711422 0.44287
C_ C_ 0.101827 0.656466 0.75914 0.18498
C_ C_ 0.076173 0.610828 0.76577 -0.08735
C_ C_ 0.063645 0.596108 0.7942 -0.08735
C_ C_ 0.082318 0.625852 0.816543 -0.08735
C_ C_ 0.111843 0.669165 0.811735 0.18498
C_ C_ 0.122598 0.685471 0.782223 -0.05681
C_ C_ 0.158869 0.722746 0.778047 -0.08735
C_ C_ 0.1765 0.748221 0.803302 -0.08735
C_ C_ 0.163658 0.73288 0.830774 0.1947
C_ C_ 0.274865 0.81691 0.65614 0.68181
C_ C_ 0.217964 0.822382 0.651032 -0.05681
C_ C_ 0.182302 0.816796 0.673249 -0.08735
C_ C_ 0.130658 0.817746 0.668267 -0.05681
C_ C_ 0.113231 0.828757 0.640104 -0.05681
C_ C_ 0.147563 0.838231 0.619388 -0.08735
C_ C_ 0.200138 0.83439 0.623591 -0.08735
C_ C_ 0.0965041 0.810206 0.6911 -0.08735
C_ C_ 0.0452283 0.813611 0.686788 -0.08735
C_ C_ 0.0268952 0.821948 0.658 -0.05681
C_ C_ 0.0609358 0.826794 0.634093 -0.08735
C_ C_ 0.379476 0.717382 0.665701 0.68181
C_ C_ 0.361433 0.915442 0.654993 0.68181
C_ C_ 0.36159 0.969647 0.652815 -0.05681
C_ C_ 0.364659 0.499029 0.67521 -0.08735
C_ C_ 0.371604 0.552385 0.673612 -0.05681
C_ C_ 0.383747 0.576473 0.647138 -0.05681
C_ C_ 0.399968 0.543705 0.624444 -0.08735
C_ C_ 0.362062 0.993009 0.625195 -0.08735
C_ C_ 0.354271 0.584313 0.695629 -0.08735
C_ C_ 0.352567 0.637443 0.691621 -0.08735
C_ C_ 0.374029 0.65969 0.666943 -0.05681
C_ C_ 0.390018 0.629284 0.645526 -0.08735
C_ C_ 0.469561 0.813978 0.659349 0.68181
C_ C_ 0.404654 0.869095 0.735713 0.1947
C_ C_ 0.412608 0.886455 0.763616 -0.08735
C_ C_ 0.389015 0.860209 0.786364 -0.08735
C_ C_ 0.358573 0.818331 0.780892 -0.05681
C_ C_ 0.344675 0.807914 0.75186 0.18498
C_ C_ 0.314759 0.767423 0.745784 -0.08735
C_ C_ 0.300615 0.733984 0.768139 -0.08735
C_ C_ 0.309874 0.747202 0.796266 -0.08735
C_ C_ 0.339344 0.789942 0.803899 0.18498
C_ C_ 0.310049 0.815211 0.850319 0.44287
C_ C_ 0.395436 0.794203 0.846042 0.44287
C_ C_ 0.40553 0.81162 0.874883 -0.05681
C_ C_ 0.454372 0.806478 0.887406 -0.08735
C_ C_ 0.462761 0.817723 0.915748 -0.08735
C_ C_ 0.419245 0.821465 0.934001 -0.05681
C_ C_ 0.370578 0.834285 0.921505 -0.05681
C_ C_ 0.365202 0.82801 0.891329 -0.05681
C_ C_ 0.316307 0.82765 0.880192 -0.05681
C_ C_ 0.277219 0.841701 0.89853 -0.08735
C_ C_ 0.282537 0.844737 0.926739 -0.08735
C_ C_ 0.329264 0.839929 0.939805 -0.05681
C_ C_ 0.335506 0.839359 0.969941 0.44287
C_ C_ 0.424295 0.828843 0.964266 0.44287
C_ C_ 0.386902 0.852471 0.512179 0.18498
C_ C_ 0.41868 0.892166 0.518852 -0.08735
C_ C_ 0.432947 0.902316 0.547405 -0.08735
C_ C_ 0.419904 0.869913 0.569862 -0.08735
C_ C_ 0.389026 0.828073 0.564434 0.18498
C_ C_ 0.372089 0.818098 0.535012 -0.05681
C_ C_ 0.338926 0.774575 0.530957 -0.08735
C_ C_ 0.325263 0.746257 0.555505 -0.08735
C_ C_ 0.34167 0.758608 0.582974 0.1947
N_ N_ 0.126588 0.66473 0.979487 -0.29468
N_ N_ 0.155382 0.693062 0.582232 -0.17154
N_ N_ 0.109505 0.663365 0.728686 -0.17154
N_ N_ 0.132294 0.693113 0.834317 -0.29468
N_ N_ 0.3695 0.832853 0.730077 -0.29468
N_ N_ 0.349485 0.80114 0.833787 -0.17154
N_ N_ 0.3819 0.830403 0.981932 -0.17154
N_ N_ 0.368465 0.800615 0.587077 -0.29468
O_ O_ 0.203387 0.676318 0.927281 -0.58347
O_ O_ 0.196668 0.676819 0.881072 -0.58347
O_ O_ 0.121868 0.749132 0.934095 -0.58347
O_ O_ 0.125359 0.753555 0.887463 -0.58347
O_ O_ 0.133586 0.60064 0.923917 -0.58347
O_ O_ 0.130823 0.605503 0.876906 -0.58347
O_ O_ 0.0549625 0.667944 0.930312 -0.58347
O_ O_ 0.0451634 0.679354 0.883516 -0.58347
O_ O_ 0.070187 0.713198 0.574443 -0.46727
O_ O_ 0.239104 0.675377 0.58916 -0.46727
O_ O_ 0.0248337 0.689562 0.721473 -0.46727
O_ O_ 0.193924 0.637212 0.734153 -0.46727
O_ O_ 0.291148 0.815423 0.681709 -0.58347
O_ O_ 0.303006 0.799876 0.636011 -0.58347
O_ O_ 0.36697 0.741892 0.687774 -0.58347
O_ O_ 0.388041 0.740234 0.641328 -0.58347
O_ O_ 0.360316 0.893209 0.679985 -0.58347
O_ O_ 0.36583 0.888119 0.632026 -0.58347
O_ O_ 0.441413 0.811948 0.681157 -0.58347
O_ O_ 0.450233 0.825426 0.635049 -0.58347
O_ O_ 0.428843 0.768188 0.832861 -0.46727
O_ O_ 0.263028 0.813802 0.84091 -0.46727
O_ O_ 0.468926 0.833391 0.976363 -0.46727
O_ O_ 0.295414 0.85225 0.985905 -0.46727
Zn Zn 0.624297 0.178762 0.381134 0.90689
Zn Zn 0.633958 0.176947 0.429012 0.90689
Zn Zn 0.882908 0.316517 0.1289 0.90689
Zn Zn 0.872315 0.322984 0.177783 0.90689
H_ H_ 0.801306 0.204239 0.442764 0.11455
H_ H_ 0.87428 0.157541 0.347283 0.11455
H_ H_ 0.775406 0.157757 0.355769 0.11455
H_ H_ 0.887592 0.194236 0.463972 0.11455
H_ H_ 0.984079 0.178908 0.454684 0.11455
H_ H_ 0.956031 0.164504 0.366346 0.11455
H_ H_ 0.643293 0.0118941 0.445555 0.11455
H_ H_ 0.629693 0.42966 0.345811 0.11455
H_ H_ 0.608235 0.0185146 0.35277 0.11455
H_ H_ 0.667656 0.423528 0.461047 0.11455
H_ H_ 0.649995 0.329185 0.457862 0.11455
H_ H_ 0.615916 0.343591 0.368463 0.11455
H_ H_ 0.57058 0.115905 0.465136 0.11455
H_ H_ 0.58354 0.0648796 0.0123954 0.11455
H_ H_ 0.600444 0.11885 0.0557447 0.11455
H_ H_ 0.698098 0.235238 0.473555 0.11455
H_ H_ 0.689388 0.31332 0.011189 0.11455
H_ H_ 0.669189 0.291715 0.0617844 0.11455
H_ H_ 0.503526 0.212773 0.122256 0.11455
H_ H_ 0.492373 0.21263 0.176256 0.11455
H_ H_ 0.750018 0.16966 0.138675 0.11455
H_ H_ 0.738969 0.158976 0.191331 0.11455
H_ H_ 0.554166 0.0879067 0.250769 0.11455
H_ H_ 0.542679 0.0563332 0.299519 0.11455
H_ H_ 0.56379 0.110954 0.339483 0.11455
H_ H_ 0.617083 0.258906 0.258279 0.11455
H_ H_ 0.659539 0.302484 0.302015 0.11455
H_ H_ 0.669638 0.259966 0.34659 0.11455
H_ H_ 0.70539 0.311349 0.196713 0.11455
H_ H_ 0.633277 0.324314 0.0993704 0.11455
H_ H_ 0.724347 0.320391 0.104206 0.11455
H_ H_ 0.619198 0.309991 0.215093 0.11455
H_ H_ 0.524495 0.307702 0.209825 0.11455
H_ H_ 0.545282 0.317921 0.118004 0.11455
H_ H_ 0.893916 0.487832 0.191378 0.11455
H_ H_ 0.895757 0.0630084 0.0937939 0.11455
H_ H_ 0.867283 0.47017 0.100028 0.11455
H_ H_ 0.852262 0.0721971 0.211004 0.11455
H_ H_ 0.860905 0.16544 0.206523 0.11455
H_ H_ 0.881223 0.152555 0.115277 0.11455
H_ H_ 0.931681 0.392365 0.214192 0.11455
H_ H_ 0.939619 0.428682 0.263277 0.11455
H_ H_ 0.896468 0.383097 0.30289 0.11455
H_ H_ 0.807962 0.267218 0.220737 0.11455
H_ H_ 0.785388 0.204452 0.25523 0.11455
H_ H_ 0.792146 0.230885 0.308582 0.11455
H_ H_ 0.985691 0.276829 0.370999 0.11455
H_ H_ 0.0005100000000000104 0.290668 0.421204 0.11455
H_ H_ 0.738971 0.332201 0.381967 0.11455
H_ H_ 0.744153 0.3355 0.434742 0.11455
H_ H_ 0.942875 0.405106 0.493313 0.11455
H_ H_ 0.999814 0.404229 0.043086 0.11455
H_ H_ 0.950033 0.368211 0.0844162 0.11455
H_ H_ 0.828772 0.26342 0.00544979 0.11455
H_ H_ 0.792768 0.223376 0.0456926 0.11455
H_ H_ 0.808639 0.255338 0.0952132 0.11455
C_ C_ 0.727927 0.1879 0.403538 0.68181
C_ C_ 0.784315 0.183252 0.399006 -0.05681
C_ C_ 0.817988 0.189265 0.422511 -0.08735
C_ C_ 0.870595 0.180807 0.419596 -0.05681
C_ C_ 0.890231 0.169081 0.392766 -0.05681
C_ C_ 0.856344 0.163738 0.369162 -0.08735
C_ C_ 0.803197 0.170163 0.371784 -0.08735
C_ C_ 0.90311 0.185926 0.443364 -0.08735
C_ C_ 0.956692 0.178546 0.438315 -0.08735
C_ C_ 0.975683 0.179148 0.410729 -0.05681
C_ C_ 0.942277 0.167681 0.387865 -0.08735
C_ C_ 0.627219 0.274014 0.410752 0.68181
C_ C_ 0.636705 0.0801534 0.400818 0.68181
C_ C_ 0.632166 0.0247327 0.399252 -0.05681
C_ C_ 0.646983 0.490361 0.421624 -0.08735
C_ C_ 0.645039 0.437811 0.418125 -0.05681
C_ C_ 0.6382 0.414108 0.390311 -0.05681
C_ C_ 0.637122 0.44732 0.366322 -0.08735
C_ C_ 0.637576 0.501536 0.369833 -0.08735
C_ C_ 0.656556 0.406821 0.441528 -0.08735
C_ C_ 0.648864 0.352686 0.439423 -0.08735
C_ C_ 0.633542 0.33082 0.412581 -0.05681
C_ C_ 0.628765 0.360683 0.387966 -0.08735
C_ C_ 0.530045 0.174319 0.407225 0.68181
C_ C_ 0.595914 0.128759 0.482456 0.1947
C_ C_ 0.597649 0.102567 0.0095955 -0.08735
C_ C_ 0.611681 0.132347 0.0344912 -0.08735
C_ C_ 0.63195 0.18146 0.029608 -0.05681
C_ C_ 0.643211 0.197016 1.0000222627 0.18498
C_ C_ 0.684871 0.23129 0.49464 -0.08735
C_ C_ 0.673548 0.277208 0.0154031 -0.08735
C_ C_ 0.667758 0.263294 0.044652 -0.08735
C_ C_ 0.644935 0.215473 0.0528112 0.18498
C_ C_ 0.678246 0.198456 0.101008 0.44287
C_ C_ 0.589521 0.202399 0.0944363 0.44287
C_ C_ 0.582163 0.198727 0.123944 -0.05681
C_ C_ 0.534321 0.205405 0.136828 -0.08735
C_ C_ 0.526751 0.203106 0.167105 -0.08735
C_ C_ 0.566792 0.186284 0.184002 -0.05681
C_ C_ 0.615629 0.179876 0.171854 -0.05681
C_ C_ 0.623201 0.19008 0.142829 -0.05681
C_ C_ 0.673142 0.18879 0.130734 -0.05681
C_ C_ 0.714151 0.17412 0.148606 -0.08735
C_ C_ 0.706303 0.171703 0.178543 -0.08735
C_ C_ 0.656356 0.176327 0.190718 -0.05681
C_ C_ 0.647753 0.170005 0.220513 0.44287
C_ C_ 0.560171 0.181453 0.213355 0.44287
C_ C_ 0.590014 0.159206 0.261266 0.18498
C_ C_ 0.568464 0.110169 0.267363 -0.08735
C_ C_ 0.56193 0.093315 0.294523 -0.08735
C_ C_ 0.575902 0.124373 0.318438 -0.08735
C_ C_ 0.600915 0.169835 0.313077 0.18498
C_ C_ 0.600092 0.191483 0.285017 -0.05681
C_ C_ 0.620088 0.240305 0.28006 -0.08735
C_ C_ 0.643881 0.265045 0.302931 -0.08735
C_ C_ 0.649409 0.241278 0.328365 0.1947
C_ C_ 0.779673 0.323008 0.153148 0.68181
C_ C_ 0.723396 0.32475 0.150533 -0.05681
C_ C_ 0.692064 0.319784 0.174533 -0.08735
C_ C_ 0.63802 0.31599 0.169573 -0.05681
C_ C_ 0.615961 0.319206 0.14331 -0.05681
C_ C_ 0.648926 0.326098 0.120977 -0.08735
C_ C_ 0.701697 0.319776 0.124036 -0.08735
C_ C_ 0.604979 0.314258 0.194022 -0.08735
C_ C_ 0.551685 0.311612 0.19034 -0.08735
C_ C_ 0.530105 0.319458 0.1637 -0.05681
C_ C_ 0.562606 0.319179 0.138588 -0.08735
C_ C_ 0.870024 0.220527 0.157616 0.68181
C_ C_ 0.887931 0.417329 0.146742 0.68181
C_ C_ 0.884749 0.472875 0.144703 -0.05681
C_ C_ 0.870233 0.00346852 0.169006 -0.08735
C_ C_ 0.867061 0.0567421 0.165951 -0.05681
C_ C_ 0.876336 0.0802951 0.139015 -0.05681
C_ C_ 0.888395 0.0482203 0.114883 -0.08735
C_ C_ 0.874758 0.4954 0.118274 -0.08735
C_ C_ 0.860173 0.0887858 0.190336 -0.08735
C_ C_ 0.8676 0.142343 0.187683 -0.08735
C_ C_ 0.872882 0.164585 0.160209 -0.05681
C_ C_ 0.878739 0.133791 0.136007 -0.08735
C_ C_ 0.97641 0.313765 0.15269 0.68181
C_ C_ 0.913825 0.373793 0.231106 0.1947
C_ C_ 0.920724 0.39123 0.259206 -0.08735
C_ C_ 0.894972 0.366922 0.28122 -0.08735
C_ C_ 0.866013 0.322149 0.276555 -0.05681
C_ C_ 0.859665 0.306605 0.24779 0.18498
C_ C_ 0.828036 0.265687 0.241188 -0.08735
C_ C_ 0.808526 0.235104 0.262153 -0.08735
C_ C_ 0.814141 0.249187 0.291293 -0.08735
C_ C_ 0.846411 0.290204 0.298661 0.18498
C_ C_ 0.812229 0.313944 0.345705 0.44287
C_ C_ 0.898753 0.296902 0.340681 0.44287
C_ C_ 0.906339 0.301265 0.370484 -0.05681
C_ C_ 0.952596 0.290814 0.384043 -0.08735
C_ C_ 0.959183 0.299579 0.412543 -0.08735
C_ C_ 0.918404 0.307053 0.430559 -0.05681
C_ C_ 0.869691 0.315846 0.418702 -0.05681
C_ C_ 0.863931 0.314722 0.388658 -0.05681
C_ C_ 0.81567 0.315082 0.376156 -0.05681
C_ C_ 0.772798 0.322461 0.392829 -0.08735
C_ C_ 0.777008 0.327384 0.423006 -0.08735
C_ C_ 0.827308 0.322692 0.436575 -0.05681
C_ C_ 0.837232 0.333061 0.466423 0.44287
C_ C_ 0.923585 0.312141 0.460689 0.44287
C_ C_ 0.909516 0.333699 0.00611925 0.18498
C_ C_ 0.94888 0.3699 0.0112512 -0.08735
C_ C_ 0.965687 0.38077 0.0391891 -0.08735
C_ C_ 0.93814 0.357933 0.0621287 -0.08735
C_ C_ 0.899554 0.320811 0.0583035 0.18498
C_ C_ 0.884567 0.308473 0.0294762 -0.05681
C_ C_ 0.846829 0.270179 0.0254272 -0.08735
C_ C_ 0.824521 0.249452 0.0503205 -0.08735
C_ C_ 0.832398 0.270552 0.0767472 0.1947
N_ N_ 0.627412 0.167133 0.477411 -0.29468
N_ N_ 0.63754 0.202383 0.0835913 -0.17154
N_ N_ 0.60046 0.172038 0.231252 -0.17154
N_ N_ 0.625444 0.197672 0.334426 -0.29468
N_ N_ 0.883628 0.331617 0.226497 -0.29468
N_ N_ 0.852554 0.301363 0.328668 -0.17154
N_ N_ 0.885149 0.32792 0.477431 -0.17154
N_ N_ 0.873026 0.29926 0.0815288 -0.29468
O_ O_ 0.708127 0.181644 0.428084 -0.58347
O_ O_ 0.699383 0.195108 0.381777 -0.58347
O_ O_ 0.637512 0.24782 0.432046 -0.58347
O_ O_ 0.616416 0.253315 0.386972 -0.58347
O_ O_ 0.631219 0.101569 0.424414 -0.58347
O_ O_ 0.636321 0.106437 0.378068 -0.58347
O_ O_ 0.558999 0.179725 0.427753 -0.58347
O_ O_ 0.548217 0.169892 0.382329 -0.58347
O_ O_ 0.549628 0.210309 0.0770821 -0.46727
O_ O_ 0.723126 0.208515 0.0905571 -0.46727
O_ O_ 0.514043 0.177294 0.224041 -0.46727
O_ O_ 0.685441 0.160936 0.238006 -0.46727
O_ O_ 0.801113 0.328765 0.177427 -0.58347
O_ O_ 0.805546 0.319816 0.130353 -0.58347
O_ O_ 0.86746 0.246586 0.179943 -0.58347
O_ O_ 0.87646 0.241833 0.133604 -0.58347
O_ O_ 0.885405 0.396597 0.170744 -0.58347
O_ O_ 0.887801 0.391748 0.123831 -0.58347
O_ O_ 0.947465 0.31664 0.174747 -0.58347
O_ O_ 0.956675 0.317655 0.127206 -0.58347
O_ O_ 0.935503 0.274112 0.327172 -0.46727
O_ O_ 0.767448 0.324801 0.333805 -0.46727
O_ O_ 0.963967 0.297217 0.474158 -0.46727
O_ O_ 0.800881 0.346457 0.483811 -0.46727
Zn Zn 0.623213 0.181031 0.880949 0.90689
Zn Zn 0.633376 0.181432 0.928196 0.90689
Zn Zn 0.872248 0.326558 0.63021 0.90689
Zn Zn 0.860969 0.331214 0.677303 0.90689
H_ H_ 0.8045 0.180082 0.944696 0.11455
H_ H_ 0.872381 0.175198 0.845197 0.11455
H_ H_ 0.782201 0.165161 0.852875 0.11455
H_ H_ 0.888763 0.181982 0.961599 0.11455
H_ H_ 0.97961 0.183473 0.955646 0.11455
H_ H_ 0.958471 0.175455 0.86403 0.11455
H_ H_ 0.64572 0.0143613 0.942204 0.11455
H_ H_ 0.665648 0.436634 0.852698 0.11455
H_ H_ 0.646543 0.021363 0.850195 0.11455
H_ H_ 0.579397 0.435103 0.956076 0.11455
H_ H_ 0.579138 0.34084 0.955482 0.11455
H_ H_ 0.661819 0.34774 0.875889 0.11455
H_ H_ 0.591463 0.0970093 0.964577 0.11455
H_ H_ 0.570604 0.0758674 0.513997 0.11455
H_ H_ 0.605546 0.121833 0.555947 0.11455
H_ H_ 0.679179 0.252763 0.973192 0.11455
H_ H_ 0.725629 0.294954 0.509793 0.11455
H_ H_ 0.699406 0.278191 0.561358 0.11455
H_ H_ 0.507825 0.213915 0.620378 0.11455
H_ H_ 0.491632 0.192131 0.669389 0.11455
H_ H_ 0.74894 0.134628 0.635612 0.11455
H_ H_ 0.736247 0.128991 0.68751 0.11455
H_ H_ 0.53086 0.0992778 0.750017 0.11455
H_ H_ 0.504637 0.0859251 0.80249 0.11455
H_ H_ 0.550231 0.134296 0.84045 0.11455
H_ H_ 0.660397 0.225562 0.754536 0.11455
H_ H_ 0.697537 0.274725 0.792357 0.11455
H_ H_ 0.673984 0.25591 0.844461 0.11455
H_ H_ 0.695789 0.326805 0.696326 0.11455
H_ H_ 0.621422 0.319155 0.599831 0.11455
H_ H_ 0.714871 0.316745 0.604739 0.11455
H_ H_ 0.610923 0.342755 0.717309 0.11455
H_ H_ 0.521462 0.3411 0.709557 0.11455
H_ H_ 0.536153 0.331642 0.619474 0.11455
H_ H_ 0.882835 0.495606 0.69126 0.11455
H_ H_ 0.859084 0.0702024 0.596883 0.11455
H_ H_ 0.846481 0.487159 0.600247 0.11455
H_ H_ 0.875039 0.0861964 0.715006 0.11455
H_ H_ 0.875672 0.180851 0.710093 0.11455
H_ H_ 0.861567 0.158844 0.61782 0.11455
H_ H_ 0.913986 0.398668 0.713417 0.11455
H_ H_ 0.938696 0.417605 0.763656 0.11455
H_ H_ 0.899109 0.370974 0.803753 0.11455
H_ H_ 0.794419 0.263998 0.721089 0.11455
H_ H_ 0.772774 0.207307 0.760027 0.11455
H_ H_ 0.788733 0.226441 0.809616 0.11455
H_ H_ 0.99489 0.308018 0.86302 0.11455
H_ H_ 0.00958155 0.303683 0.916131 0.11455
H_ H_ 0.742745 0.3223 0.888164 0.11455
H_ H_ 0.760103 0.338384 0.939234 0.11455
H_ H_ 0.968699 0.386953 0.993656 0.11455
H_ H_ 0.954111 0.438468 0.5408 0.11455
H_ H_ 0.915708 0.395716 0.584419 0.11455
H_ H_ 0.845976 0.248339 0.508762 0.11455
H_ H_ 0.793042 0.220812 0.548584 0.11455
H_ H_ 0.808681 0.257546 0.59641 0.11455
C_ C_ 0.728564 0.182012 0.902826 0.68181
C_ C_ 0.78451 0.183109 0.898942 -0.05681
C_ C_ 0.818101 0.185019 0.922142 -0.08735
C_ C_ 0.871435 0.178414 0.917307 -0.05681
C_ C_ 0.891645 0.172706 0.889583 -0.05681
C_ C_ 0.857537 0.173728 0.867086 -0.08735
C_ C_ 0.803988 0.174839 0.871618 -0.08735
C_ C_ 0.90293 0.175751 0.940497 -0.08735
C_ C_ 0.955442 0.176533 0.937586 -0.08735
C_ C_ 0.976918 0.173697 0.909031 -0.05681
C_ C_ 0.943894 0.173061 0.884719 -0.08735
C_ C_ 0.625183 0.279529 0.911467 0.68181
C_ C_ 0.641603 0.0831381 0.89787 0.68181
C_ C_ 0.644734 0.0276248 0.896446 -0.05681
C_ C_ 0.625641 0.498664 0.923216 -0.08735
C_ C_ 0.627926 0.445873 0.920225 -0.05681
C_ C_ 0.648811 0.422844 0.896008 -0.05681
C_ C_ 0.662064 0.454203 0.872667 -0.08735
C_ C_ 0.658904 0.505457 0.874909 -0.08735
C_ C_ 0.603777 0.415785 0.940902 -0.08735
C_ C_ 0.603285 0.361225 0.93944 -0.08735
C_ C_ 0.623965 0.337017 0.914807 -0.05681
C_ C_ 0.645041 0.368386 0.89282 -0.08735
C_ C_ 0.531145 0.170272 0.907222 0.68181
C_ C_ 0.606061 0.120711 0.981929 0.1947
C_ C_ 0.591367 0.107531 0.510658 -0.08735
C_ C_ 0.610292 0.135023 0.53422 -0.08735
C_ C_ 0.63848 0.179052 0.52912 -0.05681
C_ C_ 0.648758 0.193113 0.500324 0.18498
C_ C_ 0.665795 0.243196 0.993491 -0.08735
C_ C_ 0.703654 0.261407 0.516546 -0.08735
C_ C_ 0.686628 0.252551 0.544782 -0.08735
C_ C_ 0.654758 0.21271 0.551221 0.18498
C_ C_ 0.684197 0.183391 0.598951 0.44287
C_ C_ 0.597629 0.20601 0.593054 0.44287
C_ C_ 0.58752 0.191595 0.621545 -0.05681
C_ C_ 0.54027 0.200926 0.633686 -0.08735
C_ C_ 0.529824 0.186333 0.661049 -0.08735
C_ C_ 0.56998 0.176485 0.680677 -0.05681
C_ C_ 0.619166 0.171121 0.669437 -0.05681
C_ C_ 0.626867 0.179006 0.639118 -0.05681
C_ C_ 0.676078 0.169305 0.627662 -0.05681
C_ C_ 0.714245 0.150883 0.645887 -0.08735
C_ C_ 0.707993 0.147165 0.67587 -0.08735
C_ C_ 0.659792 0.153996 0.687545 -0.05681
C_ C_ 0.648654 0.144808 0.717066 0.44287
C_ C_ 0.563447 0.174226 0.711001 0.44287
C_ C_ 0.590534 0.151681 0.758834 0.18498
C_ C_ 0.55096 0.11899 0.766622 -0.08735
C_ C_ 0.539579 0.108014 0.795854 -0.08735
C_ C_ 0.562486 0.136596 0.817429 -0.08735
C_ C_ 0.602455 0.169339 0.811174 0.18498
C_ C_ 0.617882 0.176743 0.781793 -0.05681
C_ C_ 0.65554 0.212791 0.775766 -0.08735
C_ C_ 0.673492 0.242862 0.798068 -0.08735
C_ C_ 0.661008 0.230368 0.82697 0.1947
C_ C_ 0.769531 0.328283 0.653221 0.68181
C_ C_ 0.712582 0.322429 0.650827 -0.05681
C_ C_ 0.680003 0.32383 0.675453 -0.08735
C_ C_ 0.626279 0.327842 0.671954 -0.05681
C_ C_ 0.606272 0.328841 0.644018 -0.05681
C_ C_ 0.638094 0.320083 0.620374 -0.08735
C_ C_ 0.690957 0.318971 0.623437 -0.08735
C_ C_ 0.594939 0.33805 0.694717 -0.08735
C_ C_ 0.543118 0.336865 0.691101 -0.08735
C_ C_ 0.521461 0.32905 0.6637 -0.05681
C_ C_ 0.553378 0.329264 0.640763 -0.08735
C_ C_ 0.866599 0.228779 0.659013 0.68181
C_ C_ 0.865937 0.430254 0.647148 0.68181
C_ C_ 0.863732 0.484775 0.645978 -0.05681
C_ C_ 0.860374 0.0175369 0.673754 -0.08735
C_ C_ 0.864827 0.0695449 0.670502 -0.05681
C_ C_ 0.860994 0.0908091 0.641859 -0.05681
C_ C_ 0.857041 0.0564238 0.618119 -0.08735
C_ C_ 0.851805 0.508007 0.619715 -0.08735
C_ C_ 0.87125 0.101522 0.694133 -0.08735
C_ C_ 0.870047 0.155857 0.690712 -0.08735
C_ C_ 0.867516 0.174371 0.663194 -0.05681
C_ C_ 0.866538 0.143246 0.638676 -0.08735
C_ C_ 0.96381 0.3206 0.65728 0.68181
C_ C_ 0.895698 0.37782 0.731073 0.1947
C_ C_ 0.907287 0.392332 0.759502 -0.08735
C_ C_ 0.888459 0.361791 0.782132 -0.08735
C_ C_ 0.85645 0.319922 0.776125 -0.05681
C_ C_ 0.846848 0.306362 0.746649 0.18498
C_ C_ 0.81319 0.266001 0.742007 -0.08735
C_ C_ 0.792809 0.238901 0.765062 -0.08735
C_ C_ 0.810264 0.244847 0.792655 -0.08735
C_ C_ 0.84171 0.286385 0.798965 0.18498
C_ C_ 0.813935 0.313092 0.846741 0.44287
C_ C_ 0.901752 0.296118 0.838776 0.44287
C_ C_ 0.912612 0.308183 0.867579 -0.05681
C_ C_ 0.962305 0.308083 0.877936 -0.08735
C_ C_ 0.972038 0.305459 0.908398 -0.08735
C_ C_ 0.930935 0.307346 0.927365 -0.05681
C_ C_ 0.882311 0.318119 0.916657 -0.05681
C_ C_ 0.872633 0.315086 0.886596 -0.05681
C_ C_ 0.822791 0.321438 0.876029 -0.05681
C_ C_ 0.783206 0.319405 0.895953 -0.08735
C_ C_ 0.792131 0.329465 0.925156 -0.08735
C_ C_ 0.8412 0.323812 0.936662 -0.05681
C_ C_ 0.852379 0.328554 0.965674 0.44287
C_ C_ 0.939789 0.310281 0.95781 0.44287
C_ C_ 0.895057 0.340889 0.506744 0.18498
C_ C_ 0.927748 0.382313 0.5123 -0.08735
C_ C_ 0.936651 0.400704 0.539442 -0.08735
C_ C_ 0.913234 0.378909 0.563094 -0.08735
C_ C_ 0.886551 0.332695 0.559876 0.18498
C_ C_ 0.877245 0.314104 0.531425 -0.05681
C_ C_ 0.848924 0.2687 0.528444 -0.08735
C_ C_ 0.826832 0.245616 0.551665 -0.08735
C_ C_ 0.831223 0.268952 0.578625 0.1947
N_ N_ 0.632259 0.166172 0.977961 -0.29468
N_ N_ 0.644107 0.197988 0.580999 -0.17154
N_ N_ 0.602247 0.159192 0.7282 -0.17154
N_ N_ 0.631004 0.189484 0.832995 -0.29468
N_ N_ 0.864237 0.336501 0.725943 -0.29468
N_ N_ 0.852489 0.299051 0.828846 -0.17154
N_ N_ 0.899161 0.31983 0.976077 -0.17154
N_ N_ 0.864491 0.309265 0.582972 -0.29468
O_ O_ 0.708383 0.19402 0.925901 -0.58347
O_ O_ 0.701938 0.180384 0.880901 -0.58347
O_ O_ 0.61585 0.25358 0.932751 -0.58347
O_ O_ 0.626048 0.258134 0.887028 -0.58347
O_ O_ 0.647889 0.107272 0.921553 -0.58347
O_ O_ 0.62731 0.105728 0.875274 -0.58347
O_ O_ 0.562342 0.16034 0.927224 -0.58347
O_ O_ 0.548325 0.183723 0.882293 -0.58347
O_ O_ 0.562187 0.222492 0.576389 -0.46727
O_ O_ 0.73008 0.173627 0.58716 -0.46727
O_ O_ 0.521826 0.19183 0.722473 -0.46727
O_ O_ 0.68484 0.129811 0.735132 -0.46727
O_ O_ 0.788409 0.335128 0.678209 -0.58347
O_ O_ 0.797364 0.318826 0.631845 -0.58347
O_ O_ 0.857035 0.256093 0.680012 -0.58347
O_ O_ 0.877949 0.25104 0.634744 -0.58347
O_ O_ 0.865485 0.408337 0.672599 -0.58347
O_ O_ 0.865103 0.403366 0.625172 -0.58347
O_ O_ 0.93403 0.324771 0.678546 -0.58347
O_ O_ 0.948921 0.331194 0.632365 -0.58347
O_ O_ 0.938139 0.287224 0.821093 -0.46727
O_ O_ 0.767413 0.317086 0.835637 -0.46727
O_ O_ 0.983134 0.293219 0.968148 -0.46727
O_ O_ 0.816248 0.343947 0.98148 -0.46727
Zn Zn 0.623949 0.681706 0.382173 0.90689
Zn Zn 0.635692 0.678827 0.431782 0.90689
Zn Zn 0.878415 0.816373 0.129745 0.90689
Zn Zn 0.867245 0.820974 0.177019 0.90689
H_ H_ 0.807401 0.691604 0.445659 0.11455
H_ H_ 0.875239 0.660729 0.347921 0.11455
H_ H_ 0.782312 0.668294 0.354816 0.11455
H_ H_ 0.895397 0.688087 0.46548 0.11455
H_ H_ 0.982616 0.695553 0.456082 0.11455
H_ H_ 0.962598 0.682784 0.366296 0.11455
H_ H_ 0.65059 0.510701 0.443018 0.11455
H_ H_ 0.614187 0.928302 0.350334 0.11455
H_ H_ 0.633415 0.524053 0.349969 0.11455
H_ H_ 0.648888 0.926557 0.467275 0.11455
H_ H_ 0.6336 0.835438 0.464122 0.11455
H_ H_ 0.608202 0.851833 0.374695 0.11455
H_ H_ 0.593581 0.598114 0.46392 0.11455
H_ H_ 0.565236 0.585452 0.0212166 0.11455
H_ H_ 0.61444 0.629615 0.0603467 0.11455
H_ H_ 0.691668 0.743203 0.473556 0.11455
H_ H_ 0.732847 0.797672 0.00140827 0.11455
H_ H_ 0.71956 0.782606 0.0564394 0.11455
H_ H_ 0.523294 0.702661 0.118109 0.11455
H_ H_ 0.508855 0.679522 0.168041 0.11455
H_ H_ 0.774765 0.677936 0.137988 0.11455
H_ H_ 0.762526 0.66954 0.189521 0.11455
H_ H_ 0.559124 0.587549 0.245193 0.11455
H_ H_ 0.542843 0.562333 0.296534 0.11455
H_ H_ 0.561997 0.621751 0.334812 0.11455
H_ H_ 0.670241 0.737803 0.257376 0.11455
H_ H_ 0.689637 0.789928 0.297094 0.11455
H_ H_ 0.673264 0.756845 0.345663 0.11455
H_ H_ 0.700143 0.806745 0.193999 0.11455
H_ H_ 0.625647 0.833613 0.098913 0.11455
H_ H_ 0.71954 0.837153 0.10341 0.11455
H_ H_ 0.615764 0.793804 0.214082 0.11455
H_ H_ 0.527197 0.792706 0.207086 0.11455
H_ H_ 0.542729 0.825404 0.118065 0.11455
H_ H_ 0.867702 0.986147 0.191444 0.11455
H_ H_ 0.855173 0.565207 0.0947985 0.11455
H_ H_ 0.891976 0.972649 0.0989304 0.11455
H_ H_ 0.908562 0.573401 0.210658 0.11455
H_ H_ 0.920711 0.664708 0.199557 0.11455
H_ H_ 0.856024 0.649021 0.118155 0.11455
H_ H_ 0.914543 0.893887 0.213447 0.11455
H_ H_ 0.925219 0.926674 0.2633 0.11455
H_ H_ 0.883553 0.887194 0.301928 0.11455
H_ H_ 0.804944 0.750393 0.223328 0.11455
H_ H_ 0.801865 0.692155 0.264252 0.11455
H_ H_ 0.816723 0.720691 0.312232 0.11455
H_ H_ 0.98624 0.802353 0.368769 0.11455
H_ H_ -0.0007540000000000324 0.810847 0.423476 0.11455
H_ H_ 0.737625 0.845258 0.385667 0.11455
H_ H_ 0.752026 0.862537 0.435526 0.11455
H_ H_ 0.937047 0.921992 0.49645 0.11455
H_ H_ 0.950081 0.944119 0.0509263 0.11455
H_ H_ 0.941991 0.880066 0.0866311 0.11455
H_ H_ 0.837827 0.774269 0.0026069 0.11455
H_ H_ 0.807861 0.718173 0.0425793 0.11455
H_ H_ 0.832206 0.7393 0.0911964 0.11455
C_ C_ 0.730746 0.678299 0.405881 0.68181
C_ C_ 0.786142 0.67963 0.401376 -0.05681
C_ C_ 0.819749 0.683437 0.425054 -0.08735
C_ C_ 0.871964 0.686295 0.419765 -0.05681
C_ C_ 0.893103 0.680601 0.391594 -0.05681
C_ C_ 0.859528 0.669648 0.369202 -0.08735
C_ C_ 0.807305 0.670093 0.373755 -0.08735
C_ C_ 0.904656 0.690781 0.443429 -0.08735
C_ C_ 0.956333 0.690358 0.438731 -0.08735
C_ C_ 0.977049 0.684874 0.410786 -0.05681
C_ C_ 0.945566 0.680643 0.387619 -0.08735
C_ C_ 0.626048 0.777777 0.415946 0.68181
C_ C_ 0.637717 0.581155 0.399667 0.68181
C_ C_ 0.642101 0.523405 0.397395 -0.05681
C_ C_ 0.641346 0.995093 0.423274 -0.08735
C_ C_ 0.638712 0.942372 0.422508 -0.05681
C_ C_ 0.628625 0.917247 0.395339 -0.05681
C_ C_ 0.621616 0.9465 0.370916 -0.08735
C_ C_ 0.623051 0.99883 0.372608 -0.08735
C_ C_ 0.639425 0.911481 0.446953 -0.08735
C_ C_ 0.637389 0.858195 0.444428 -0.08735
C_ C_ 0.624402 0.834001 0.419039 -0.05681
C_ C_ 0.618226 0.86603 0.394677 -0.08735
C_ C_ 0.52928 0.673439 0.406625 0.68181
C_ C_ 0.60508 0.621033 0.482633 0.1947
C_ C_ 0.591189 0.614023 0.015642 -0.08735
C_ C_ 0.619365 0.640364 0.0375596 -0.08735
C_ C_ 0.651625 0.679976 0.0295345 -0.05681
C_ C_ 0.660072 0.687667 1.000547541 0.18498
C_ C_ 0.675662 0.737009 0.49572 -0.08735
C_ C_ 0.710591 0.763724 0.0110899 -0.08735
C_ C_ 0.700961 0.756071 0.0402684 -0.08735
C_ C_ 0.669222 0.715629 0.0502047 0.18498
C_ C_ 0.7016 0.693743 0.0982951 0.44287
C_ C_ 0.614845 0.715019 0.0905323 0.44287
C_ C_ 0.605901 0.700602 0.119891 -0.05681
C_ C_ 0.55587 0.695244 0.131103 -0.08735
C_ C_ 0.546227 0.681893 0.158951 -0.08735
C_ C_ 0.585042 0.677706 0.178369 -0.05681
C_ C_ 0.635923 0.672817 0.167727 -0.05681
C_ C_ 0.645663 0.683805 0.138699 -0.05681
C_ C_ 0.694338 0.686111 0.128375 -0.05681
C_ C_ 0.734986 0.6747 0.146592 -0.08735
C_ C_ 0.728154 0.671518 0.176558 -0.08735
C_ C_ 0.677397 0.666901 0.187501 -0.05681
C_ C_ 0.666311 0.662757 0.216816 0.44287
C_ C_ 0.578421 0.670045 0.208637 0.44287
C_ C_ 0.606795 0.65084 0.256583 0.18498
C_ C_ 0.575049 0.608915 0.262353 -0.08735
C_ C_ 0.562887 0.597167 0.290805 -0.08735
C_ C_ 0.575938 0.628449 0.312731 -0.08735
C_ C_ 0.610756 0.667529 0.308393 0.18498
C_ C_ 0.622592 0.682836 0.27985 -0.05681
C_ C_ 0.655032 0.726152 0.277315 -0.08735
C_ C_ 0.669513 0.755825 0.300439 -0.08735
C_ C_ 0.660167 0.737096 0.328188 0.1947
C_ C_ 0.777031 0.813917 0.151497 0.68181
C_ C_ 0.719882 0.815964 0.148504 -0.05681
C_ C_ 0.687154 0.80494 0.17191 -0.08735
C_ C_ 0.633954 0.808109 0.168628 -0.05681
C_ C_ 0.613219 0.820507 0.141956 -0.05681
C_ C_ 0.64459 0.833219 0.119768 -0.08735
C_ C_ 0.697551 0.82761 0.121816 -0.08735
C_ C_ 0.601737 0.800202 0.193009 -0.08735
C_ C_ 0.548326 0.799856 0.189558 -0.08735
C_ C_ 0.525565 0.808403 0.162248 -0.05681
C_ C_ 0.559315 0.820088 0.138446 -0.08735
C_ C_ 0.882578 0.722229 0.157667 0.68181
C_ C_ 0.873533 0.916827 0.147474 0.68181
C_ C_ 0.870978 0.97344 0.14394 -0.05681
C_ C_ 0.887906 0.504308 0.169337 -0.08735
C_ C_ 0.889521 0.556915 0.165914 -0.05681
C_ C_ 0.876787 0.578648 0.138835 -0.05681
C_ C_ 0.867139 0.5466 0.115307 -0.08735
C_ C_ 0.881678 0.99638 0.118075 -0.08735
C_ C_ 0.897571 0.588128 0.190308 -0.08735
C_ C_ 0.900416 0.640903 0.1855 -0.08735
C_ C_ 0.889363 0.664293 0.158927 -0.05681
C_ C_ 0.871833 0.632408 0.136995 -0.08735
C_ C_ 0.97151 0.819374 0.158853 0.68181
C_ C_ 0.892542 0.876372 0.230194 0.1947
C_ C_ 0.897497 0.896463 0.258193 -0.08735
C_ C_ 0.874619 0.873581 0.280698 -0.08735
C_ C_ 0.851417 0.82665 0.276041 -0.05681
C_ C_ 0.844182 0.80896 0.24751 0.18498
C_ C_ 0.821309 0.76204 0.24415 -0.08735
C_ C_ 0.815591 0.728539 0.267079 -0.08735
C_ C_ 0.822324 0.745277 0.294512 -0.08735
C_ C_ 0.837775 0.796584 0.300259 0.18498
C_ C_ 0.806775 0.821456 0.346579 0.44287
C_ C_ 0.894104 0.80886 0.340148 0.44287
C_ C_ 0.903473 0.809742 0.370352 -0.05681
C_ C_ 0.953741 0.807359 0.38309 -0.08735
C_ C_ 0.961002 0.812327 0.413656 -0.08735
C_ C_ 0.919696 0.824361 0.431617 -0.05681
C_ C_ 0.870882 0.827739 0.418268 -0.05681
C_ C_ 0.861436 0.818198 0.388598 -0.05681
C_ C_ 0.816551 0.830437 0.376239 -0.05681
C_ C_ 0.775956 0.84271 0.394728 -0.08735
C_ C_ 0.784167 0.849984 0.423388 -0.08735
C_ C_ 0.830523 0.841846 0.435988 -0.05681
C_ C_ 0.83867 0.847554 0.46633 0.44287
C_ C_ 0.925274 0.831373 0.46104 0.44287
C_ C_ 0.891406 0.859492 0.00788323 0.18498
C_ C_ 0.91565 0.905553 0.0157032 -0.08735
C_ C_ 0.928645 0.912099 0.0456413 -0.08735
C_ C_ 0.922909 0.876527 0.0658989 -0.08735
C_ C_ 0.894905 0.832627 0.058746 0.18498
C_ C_ 0.879792 0.823563 0.0289138 -0.05681
C_ C_ 0.851313 0.778459 0.0240476 -0.08735
C_ C_ 0.833692 0.748212 0.0473478 -0.08735
C_ C_ 0.846117 0.762483 0.074747 0.1947
N_ N_ 0.629154 0.665234 0.478577 -0.29468
N_ N_ 0.662946 0.708697 0.0807386 -0.17154
N_ N_ 0.617342 0.662439 0.226711 -0.17154
N_ N_ 0.630113 0.694651 0.332014 -0.29468
N_ N_ 0.862262 0.835671 0.224979 -0.29468
N_ N_ 0.846819 0.810968 0.329538 -0.17154
N_ N_ 0.88458 0.840154 0.478314 -0.17154
N_ N_ 0.874236 0.804483 0.0807631 -0.29468
O_ O_ 0.711593 0.68318 0.430802 -0.58347
O_ O_ 0.701228 0.682139 0.383963 -0.58347
O_ O_ 0.620606 0.750524 0.438222 -0.58347
O_ O_ 0.621795 0.758619 0.391476 -0.58347
O_ O_ 0.650544 0.60163 0.422654 -0.58347
O_ O_ 0.627962 0.608088 0.377938 -0.58347
O_ O_ 0.556901 0.664687 0.428291 -0.58347
O_ O_ 0.549068 0.677303 0.381959 -0.58347
O_ O_ 0.575093 0.720653 0.073537 -0.46727
O_ O_ 0.745192 0.680715 0.0859606 -0.46727
O_ O_ 0.533048 0.675883 0.219747 -0.46727
O_ O_ 0.704082 0.650373 0.233482 -0.46727
O_ O_ 0.796572 0.810776 0.176124 -0.58347
O_ O_ 0.803966 0.820182 0.129583 -0.58347
O_ O_ 0.875725 0.746414 0.180545 -0.58347
O_ O_ 0.875807 0.746137 0.133921 -0.58347
O_ O_ 0.860501 0.896652 0.170944 -0.58347
O_ O_ 0.880528 0.891305 0.125765 -0.58347
O_ O_ 0.944312 0.826179 0.17988 -0.58347
O_ O_ 0.953002 0.816914 0.133578 -0.58347
O_ O_ 0.934159 0.803639 0.322665 -0.46727
O_ O_ 0.760003 0.82318 0.337634 -0.46727
O_ O_ 0.972445 0.828052 0.472667 -0.46727
O_ O_ 0.802108 0.864387 0.481877 -0.46727
Zn Zn 0.62091 0.69065 0.883614 0.90689
Zn Zn 0.629545 0.678208 0.933129 0.90689
Zn Zn 0.872776 0.830714 0.632204 0.90689
Zn Zn 0.867637 0.836899 0.680584 0.90689
H_ H_ 0.796675 0.69548 0.946464 0.11455
H_ H_ 0.866934 0.661296 0.850447 0.11455
H_ H_ 0.775121 0.672357 0.856669 0.11455
H_ H_ 0.883375 0.701857 0.965105 0.11455
H_ H_ 0.975623 0.687984 0.958534 0.11455
H_ H_ 0.953484 0.680196 0.868114 0.11455
H_ H_ 0.613388 0.513627 0.944093 0.11455
H_ H_ 0.624026 0.931398 0.848569 0.11455
H_ H_ 0.66117 0.529956 0.85544 0.11455
H_ H_ 0.636135 0.929753 0.965653 0.11455
H_ H_ 0.611229 0.837639 0.9625 0.11455
H_ H_ 0.630873 0.848342 0.872821 0.11455
H_ H_ 0.568618 0.610948 0.972305 0.11455
H_ H_ 0.582707 0.563032 0.512373 0.11455
H_ H_ 0.609234 0.611718 0.554284 0.11455
H_ H_ 0.70162 0.73117 0.969625 0.11455
H_ H_ 0.719286 0.795917 0.514877 0.11455
H_ H_ 0.695401 0.776348 0.565807 0.11455
H_ H_ 0.507762 0.696508 0.62018 0.11455
H_ H_ 0.491808 0.683541 0.671918 0.11455
H_ H_ 0.756635 0.657622 0.638836 0.11455
H_ H_ 0.743765 0.646903 0.692326 0.11455
H_ H_ 0.567844 0.575047 0.750249 0.11455
H_ H_ 0.556426 0.550032 0.799304 0.11455
H_ H_ 0.586816 0.603312 0.838249 0.11455
H_ H_ 0.642805 0.749421 0.756501 0.11455
H_ H_ 0.671508 0.800463 0.796336 0.11455
H_ H_ 0.66534 0.76547 0.845336 0.11455
H_ H_ 0.697928 0.812444 0.698696 0.11455
H_ H_ 0.629317 0.842047 0.602282 0.11455
H_ H_ 0.719771 0.848316 0.610292 0.11455
H_ H_ 0.610979 0.78504 0.714757 0.11455
H_ H_ 0.520861 0.789897 0.707437 0.11455
H_ H_ 0.544109 0.835134 0.618962 0.11455
H_ H_ 0.856026 1.00128785 0.694273 0.11455
H_ H_ 0.848051 0.580465 0.597265 0.11455
H_ H_ 0.833408 0.981706 0.605341 0.11455
H_ H_ 0.897421 0.578664 0.711969 0.11455
H_ H_ 0.899363 0.671697 0.70833 0.11455
H_ H_ 0.866733 0.66081 0.617949 0.11455
H_ H_ 0.924105 0.905932 0.718736 0.11455
H_ H_ 0.917858 0.941231 0.767208 0.11455
H_ H_ 0.87747 0.889257 0.805775 0.11455
H_ H_ 0.814019 0.763013 0.720637 0.11455
H_ H_ 0.7978 0.698668 0.756399 0.11455
H_ H_ 0.819661 0.715845 0.806155 0.11455
H_ H_ 0.991778 0.807374 0.873588 0.11455
H_ H_ 0.996 0.817539 0.923367 0.11455
H_ H_ 0.73974 0.854089 0.885958 0.11455
H_ H_ 0.744702 0.857386 0.935802 0.11455
H_ H_ 0.92919 0.93136 0.999148419 0.11455
H_ H_ 0.933643 0.956279 0.547511 0.11455
H_ H_ 0.910604 0.90038 0.586641 0.11455
H_ H_ 0.843916 0.765292 0.50571 0.11455
H_ H_ 0.807712 0.719455 0.547211 0.11455
H_ H_ 0.805323 0.764206 0.596003 0.11455
C_ C_ 0.725344 0.692452 0.905201 0.68181
C_ C_ 0.780005 0.690729 0.901167 -0.05681
C_ C_ 0.811195 0.692556 0.925211 -0.08735
C_ C_ 0.865571 0.690443 0.920811 -0.05681
C_ C_ 0.886116 0.680723 0.89363 -0.05681
C_ C_ 0.853281 0.673227 0.870854 -0.08735
C_ C_ 0.800277 0.675157 0.874318 -0.08735
C_ C_ 0.8977 0.693913 0.943762 -0.08735
C_ C_ 0.951641 0.691535 0.939514 -0.08735
C_ C_ 0.971946 0.685433 0.912662 -0.05681
C_ C_ 0.938739 0.679151 0.888954 -0.08735
C_ C_ 0.613266 0.782829 0.913721 0.68181
C_ C_ 0.636857 0.586579 0.903688 0.68181
C_ C_ 0.642605 0.53087 0.900417 -0.05681
C_ C_ 0.643079 -0.0026530000000000165 0.921458 -0.08735
C_ C_ 0.639541 0.942685 0.92053 -0.05681
C_ C_ 0.636012 0.920763 0.893878 -0.05681
C_ C_ 0.633738 0.949515 0.86923 -0.08735
C_ C_ 0.637972 0.00190465 0.869576 -0.08735
C_ C_ 0.632026 0.911166 0.944949 -0.08735
C_ C_ 0.621493 0.860639 0.943366 -0.08735
C_ C_ 0.616654 0.83968 0.916268 -0.05681
C_ C_ 0.630437 0.869791 0.891938 -0.08735
C_ C_ 0.526332 0.68167 0.910197 0.68181
C_ C_ 0.592109 0.631185 0.987942 0.1947
C_ C_ 0.600787 0.59997 0.509311 -0.08735
C_ C_ 0.614015 0.629788 0.532509 -0.08735
C_ C_ 0.633103 0.679364 0.529064 -0.05681
C_ C_ 0.645581 0.694413 0.500816 0.18498
C_ C_ 0.692304 0.728137 0.992048 -0.08735
C_ C_ 0.69647 0.764118 0.519335 -0.08735
C_ C_ 0.683143 0.75174 0.548059 -0.08735
C_ C_ 0.653261 0.708388 0.552208 0.18498
C_ C_ 0.685908 0.680277 0.599154 0.44287
C_ C_ 0.598888 0.702939 0.594459 0.44287
C_ C_ 0.587622 0.689345 0.623491 -0.05681
C_ C_ 0.538696 0.688795 0.634366 -0.08735
C_ C_ 0.53059 0.681525 0.663468 -0.08735
C_ C_ 0.572206 0.672718 0.682367 -0.05681
C_ C_ 0.621411 0.669858 0.670674 -0.05681
C_ C_ 0.628074 0.673188 0.640623 -0.05681
C_ C_ 0.675858 0.66775 0.629222 -0.05681
C_ C_ 0.719214 0.659349 0.647674 -0.08735
C_ C_ 0.711476 0.65359 0.678108 -0.08735
C_ C_ 0.663412 0.660299 0.688907 -0.05681
C_ C_ 0.655313 0.663936 0.718072 0.44287
C_ C_ 0.565159 0.666926 0.711731 0.44287
C_ C_ 0.60102 0.650203 0.760344 0.18498
C_ C_ 0.581119 0.602065 0.767521 -0.08735
C_ C_ 0.571815 0.587862 0.795482 -0.08735
C_ C_ 0.59158 0.616139 0.817962 -0.08735
C_ C_ 0.611935 0.665696 0.813008 0.18498
C_ C_ 0.614673 0.683678 0.783795 -0.05681
C_ C_ 0.634747 0.732891 0.778103 -0.08735
C_ C_ 0.654865 0.761239 0.800342 -0.08735
C_ C_ 0.646072 0.746108 0.828271 0.1947
C_ C_ 0.772525 0.826161 0.658554 0.68181
C_ C_ 0.716128 0.827218 0.655646 -0.05681
C_ C_ 0.683597 0.814651 0.678238 -0.08735
C_ C_ 0.631126 0.813085 0.673461 -0.05681
C_ C_ 0.611242 0.827538 0.646128 -0.05681
C_ C_ 0.643332 0.835017 0.623608 -0.08735
C_ C_ 0.696366 0.833028 0.627626 -0.08735
C_ C_ 0.597861 0.798681 0.694811 -0.08735
C_ C_ 0.545713 0.802528 0.689914 -0.08735
C_ C_ 0.526095 0.81632 0.663069 -0.05681
C_ C_ 0.558908 0.822291 0.639886 -0.08735
C_ C_ 0.880428 0.731858 0.659816 0.68181
C_ C_ 0.857973 0.929244 0.653488 0.68181
C_ C_ 0.850617 0.985111 0.649987 -0.05681
C_ C_ 0.876381 0.513969 0.670081 -0.08735
C_ C_ 0.88013 0.566859 0.666959 -0.05681
C_ C_ 0.870068 0.590999 0.640936 -0.05681
C_ C_ 0.857273 0.560498 0.617737 -0.08735
C_ C_ 0.84743 1.00490102 0.622404 -0.08735
C_ C_ 0.890896 0.597221 0.690536 -0.08735
C_ C_ 0.891909 0.650501 0.689171 -0.08735
C_ C_ 0.883028 0.675437 0.662301 -0.05681
C_ C_ 0.874596 0.643309 0.638342 -0.08735
C_ C_ 0.970272 0.823072 0.653796 0.68181
C_ C_ 0.902977 0.885063 0.735416 0.1947
C_ C_ 0.90034 0.904501 0.762213 -0.08735
C_ C_ 0.875045 0.876267 0.783691 -0.08735
C_ C_ 0.856483 0.82805 0.777832 -0.05681
C_ C_ 0.85277 0.813062 0.748735 0.18498
C_ C_ 0.825905 0.76977 0.741591 -0.08735
C_ C_ 0.81404 0.734372 0.763038 -0.08735
C_ C_ 0.821188 0.74679 0.792644 -0.08735
C_ C_ 0.842595 0.794544 0.800325 0.18498
C_ C_ 0.808551 0.812161 0.848267 0.44287
C_ C_ 0.897587 0.799448 0.842548 0.44287
C_ C_ 0.906073 0.80976 0.871819 -0.05681
C_ C_ 0.955993 0.807549 0.884829 -0.08735
C_ C_ 0.960031 0.814609 0.914765 -0.08735
C_ C_ 0.91842 0.826418 0.932106 -0.05681
C_ C_ 0.869443 0.828686 0.920082 -0.05681
C_ C_ 0.863217 0.820565 0.889344 -0.05681
C_ C_ 0.815955 0.828441 0.876788 -0.05681
C_ C_ 0.776137 0.845557 0.894712 -0.08735
C_ C_ 0.780021 0.850203 0.922969 -0.08735
C_ C_ 0.829408 0.843706 0.936376 -0.05681
C_ C_ 0.837393 0.854814 0.966048 0.44287
C_ C_ 0.923201 0.835989 0.961835 0.44287
C_ C_ 0.894732 0.853374 0.508163 0.18498
C_ C_ 0.91915 0.899526 0.514233 -0.08735
C_ C_ 0.923362 0.917409 0.542476 -0.08735
C_ C_ 0.904031 0.889026 0.564535 -0.08735
C_ C_ 0.877708 0.844401 0.559988 0.18498
C_ C_ 0.875491 0.824799 0.531394 -0.05681
C_ C_ 0.849673 0.779428 0.527063 -0.08735
C_ C_ 0.826102 0.756628 0.550637 -0.08735
C_ C_ 0.826564 0.779067 0.577966 0.1947
N_ N_ 0.630372 0.665774 0.980579 -0.29468
N_ N_ 0.644981 0.693127 0.582074 -0.17154
N_ N_ 0.605812 0.663873 0.729431 -0.17154
N_ N_ 0.62258 0.69861 0.835139 -0.29468
N_ N_ 0.875962 0.841463 0.728353 -0.29468
N_ N_ 0.849369 0.804335 0.831116 -0.17154
N_ N_ 0.884627 0.85205 0.978049 -0.17154
N_ N_ 0.859259 0.817342 0.583005 -0.29468
O_ O_ 0.705609 0.679591 0.928155 -0.58347
O_ O_ 0.696998 0.704395 0.88498 -0.58347
O_ O_ 0.627732 0.751921 0.932877 -0.58347
O_ O_ 0.600157 0.764266 0.889518 -0.58347
O_ O_ 0.626218 0.604922 0.927858 -0.58347
O_ O_ 0.640638 0.616244 0.882623 -0.58347
O_ O_ 0.55327 0.678351 0.932925 -0.58347
O_ O_ 0.546773 0.678696 0.885935 -0.58347
O_ O_ 0.564244 0.72748 0.580251 -0.46727
O_ O_ 0.731484 0.67385 0.588066 -0.46727
O_ O_ 0.51996 0.662706 0.722066 -0.46727
O_ O_ 0.693814 0.667669 0.73659 -0.46727
O_ O_ 0.793397 0.837898 0.681586 -0.58347
O_ O_ 0.798371 0.823031 0.635227 -0.58347
O_ O_ 0.877955 0.759631 0.681878 -0.58347
O_ O_ 0.870375 0.753198 0.635777 -0.58347
O_ O_ 0.865666 0.911013 0.677293 -0.58347
O_ O_ 0.868441 0.904515 0.631204 -0.58347
O_ O_ 0.945866 0.844718 0.674449 -0.58347
O_ O_ 0.953096 0.828265 0.628985 -0.58347
O_ O_ 0.934779 0.782542 0.826843 -0.46727
O_ O_ 0.763086 0.802592 0.839061 -0.46727
O_ O_ 0.966222 0.823699 0.975581 -0.46727
O_ O_ 0.798402 0.87548 0.980772 -0.46727
_cell_length_a 26.376
_cell_length_b 26.400000238300095
_cell_length_c 46.67800035477134
_cell_angle_alpha 90.00700052986613
_cell_angle_beta 89.99899961309502
_cell_angle_gamma 90.45000003183146
_symmetry_space_group_name_H-M         'P 1'
_symmetry_Int_Tables_number            1
loop_
_symmetry_equiv_pos_as_xyz
   'x, y, z'
                         
loop_
_atom_site_label
_atom_site_type_symbol
_atom_site_fract_x 
_atom_site_fract_y
_atom_site_fract_z
_atom_site_charge
Zn Zn 0.126397 0.183952 0.381539 0.90689
Zn Zn 0.132131 0.1831 0.429198 0.90689
Zn Zn 0.382576 0.306554 0.13342 0.90689
Zn Zn 0.369346 0.313401 0.182419 0.90689
H_ H_ 0.30262 0.19108 0.445763 0.11455
H_ H_ 0.367867 0.146202 0.349017 0.11455
H_ H_ 0.279736 0.156374 0.357106 0.11455
H_ H_ 0.385813 0.194013 0.463829 0.11455
H_ H_ 0.474859 0.183465 0.459485 0.11455
H_ H_ 0.454351 0.156773 0.366968 0.11455
H_ H_ 0.16081 0.0136239 0.442572 0.11455
H_ H_ 0.127367 0.432407 0.346171 0.11455
H_ H_ 0.109692 0.0242879 0.355246 0.11455
H_ H_ 0.153727 0.430634 0.462694 0.11455
H_ H_ 0.132457 0.340197 0.458852 0.11455
H_ H_ 0.130729 0.349097 0.367038 0.11455
H_ H_ 0.0857685 0.107193 0.464356 0.11455
H_ H_ 0.074807 0.071684 0.0160124 0.11455
H_ H_ 0.114412 0.119927 0.0558684 0.11455
H_ H_ 0.185082 0.252529 0.471981 0.11455
H_ H_ 0.226582 0.296395 0.0120617 0.11455
H_ H_ 0.19566 0.282121 0.0621969 0.11455
H_ H_ 0.0107391 0.211322 0.120206 0.11455
H_ H_ -0.0034560000000000146 0.178077 0.16967 0.11455
H_ H_ 0.263103 0.187956 0.141659 0.11455
H_ H_ 0.249313 0.174136 0.191664 0.11455
H_ H_ 0.0574719 0.0967842 0.249666 0.11455
H_ H_ 0.0232029 0.0880262 0.295748 0.11455
H_ H_ 0.0550113 0.134132 0.337634 0.11455
H_ H_ 0.158481 0.2554 0.25954 0.11455
H_ H_ 0.197041 0.290085 0.30148 0.11455
H_ H_ 0.185432 0.255726 0.348239 0.11455
H_ H_ 0.199573 0.304428 0.199299 0.11455
H_ H_ 0.145571 0.369724 0.103601 0.11455
H_ H_ 0.230769 0.342726 0.110189 0.11455
H_ H_ 0.114688 0.300982 0.213939 0.11455
H_ H_ 0.0270946 0.288906 0.203301 0.11455
H_ H_ 0.0528369 0.359374 0.1201 0.11455
H_ H_ 0.411946 0.481604 0.18941 0.11455
H_ H_ 0.366463 0.0639828 0.101288 0.11455
H_ H_ 0.352071 0.468804 0.100997 0.11455
H_ H_ 0.394966 0.0648132 0.218546 0.11455
H_ H_ 0.393328 0.156075 0.213645 0.11455
H_ H_ 0.37021 0.146682 0.123217 0.11455
H_ H_ 0.405741 0.401194 0.220768 0.11455
H_ H_ 0.415801 0.429803 0.26855 0.11455
H_ H_ 0.385812 0.372335 0.309639 0.11455
H_ H_ 0.311276 0.245512 0.225534 0.11455
H_ H_ 0.27477 0.200093 0.266 0.11455
H_ H_ 0.299645 0.219964 0.315395 0.11455
H_ H_ 0.485667 0.282984 0.376022 0.11455
H_ H_ 0.494805 0.301706 0.427145 0.11455
H_ H_ 0.235229 0.318414 0.389006 0.11455
H_ H_ 0.245445 0.338859 0.442069 0.11455
H_ H_ 0.456915 0.389314 0.50433 0.11455
H_ H_ 0.458394 0.431296 0.0516798 0.11455
H_ H_ 0.439008 0.372623 0.0884793 0.11455
H_ H_ 0.355092 0.244306 0.00730004 0.11455
H_ H_ 0.312957 0.202335 0.0486489 0.11455
H_ H_ 0.320959 0.235392 0.0970399 0.11455
C_ C_ 0.228434 0.182569 0.402728 0.68181
C_ C_ 0.284696 0.180426 0.399811 -0.05681
C_ C_ 0.317638 0.189177 0.42371 -0.08735
C_ C_ 0.370181 0.187548 0.418386 -0.05681
C_ C_ 0.389459 0.171093 0.391817 -0.05681
C_ C_ 0.356078 0.161937 0.368875 -0.08735
C_ C_ 0.304372 0.166327 0.373552 -0.08735
C_ C_ 0.402223 0.187215 0.442458 -0.08735
C_ C_ 0.453641 0.181431 0.438951 -0.08735
C_ C_ 0.475601 0.173729 0.411529 -0.05681
C_ C_ 0.441527 0.16759 0.388306 -0.08735
C_ C_ 0.120981 0.28206 0.413718 0.68181
C_ C_ 0.13973 0.0856487 0.398994 0.68181
C_ C_ 0.137206 0.02854 0.398546 -0.05681
C_ C_ 0.151241 0.497341 0.419661 -0.08735
C_ C_ 0.14635 0.443694 0.418722 -0.05681
C_ C_ 0.132644 0.421453 0.392101 -0.05681
C_ C_ 0.130453 0.451281 0.367338 -0.08735
C_ C_ 0.133161 0.505271 0.368285 -0.08735
C_ C_ 0.149577 0.412554 0.442207 -0.08735
C_ C_ 0.129276 0.364 0.440333 -0.08735
C_ C_ 0.125445 0.339118 0.414264 -0.05681
C_ C_ 0.131392 0.368027 0.388543 -0.08735
C_ C_ 0.031439 0.183931 0.407234 0.68181
C_ C_ 0.106669 0.126122 0.482123 0.1947
C_ C_ 0.0956473 0.106173 0.0131183 -0.08735
C_ C_ 0.114734 0.133038 0.0349615 -0.08735
C_ C_ 0.137983 0.181521 0.0292836 -0.05681
C_ C_ 0.154261 0.192166 1.000794794 0.18498
C_ C_ 0.178865 0.240331 0.492723 -0.08735
C_ C_ 0.200002 0.265676 0.0165431 -0.08735
C_ C_ 0.184341 0.256184 0.044928 -0.08735
C_ C_ 0.156614 0.212707 0.0518601 0.18498
C_ C_ 0.187681 0.195355 0.100021 0.44287
C_ C_ 0.0990658 0.205475 0.0914018 0.44287
C_ C_ 0.0915836 0.204733 0.121885 -0.05681
C_ C_ 0.0417142 0.203631 0.134766 -0.08735
C_ C_ 0.0357638 0.18916 0.162644 -0.08735
C_ C_ 0.0784606 0.183243 0.181361 -0.05681
C_ C_ 0.125428 0.186154 0.170344 -0.05681
C_ C_ 0.132475 0.195196 0.140686 -0.05681
C_ C_ 0.180592 0.19604 0.129599 -0.05681
C_ C_ 0.223225 0.187546 0.14843 -0.08735
C_ C_ 0.215667 0.178857 0.17777 -0.08735
C_ C_ 0.167041 0.174207 0.18909 -0.05681
C_ C_ 0.158768 0.173712 0.219183 0.44287
C_ C_ 0.0723339 0.180727 0.21112 0.44287
C_ C_ 0.10227 0.163587 0.260608 0.18498
C_ C_ 0.0730886 0.11996 0.266829 -0.08735
C_ C_ 0.0574116 0.108996 0.294502 -0.08735
C_ C_ 0.0738947 0.138279 0.317575 -0.08735
C_ C_ 0.110816 0.176847 0.312791 0.18498
C_ C_ 0.122591 0.190966 0.28399 -0.05681
C_ C_ 0.14729 0.239333 0.281316 -0.08735
C_ C_ 0.170575 0.261684 0.304392 -0.08735
C_ C_ 0.163369 0.241555 0.33093 0.1947
C_ C_ 0.275338 0.308693 0.159152 0.68181
C_ C_ 0.222603 0.321056 0.155128 -0.05681
C_ C_ 0.187569 0.317345 0.177801 -0.08735
C_ C_ 0.136209 0.322471 0.172536 -0.05681
C_ C_ 0.119334 0.340556 0.144983 -0.05681
C_ C_ 0.156286 0.353009 0.123923 -0.08735
C_ C_ 0.204076 0.33512 0.127909 -0.08735
C_ C_ 0.10125 0.313068 0.192763 -0.08735
C_ C_ 0.0491275 0.306002 0.186215 -0.08735
C_ C_ 0.0314981 0.316807 0.158542 -0.05681
C_ C_ 0.0656208 0.341638 0.139448 -0.08735
C_ C_ 0.377928 0.211641 0.165138 0.68181
C_ C_ 0.374864 0.410564 0.150371 0.68181
C_ C_ 0.378844 0.468855 0.147183 -0.05681
C_ C_ 0.388134 -0.0049400000000000555 0.174503 -0.08735
C_ C_ 0.382151 0.0490189 0.172791 -0.05681
C_ C_ 0.378419 0.0746303 0.14451 -0.05681
C_ C_ 0.37167 0.0439281 0.121178 -0.08735
C_ C_ 0.360158 0.490589 0.121666 -0.08735
C_ C_ 0.386479 0.0810011 0.197245 -0.08735
C_ C_ 0.382803 0.13318 0.195595 -0.08735
C_ C_ 0.376914 0.156861 0.168829 -0.05681
C_ C_ 0.375792 0.127913 0.14411 -0.08735
C_ C_ 0.4739 0.318126 0.1596 0.68181
C_ C_ 0.393157 0.374583 0.23742 0.1947
C_ C_ 0.398505 0.393166 0.264859 -0.08735
C_ C_ 0.382942 0.361552 0.287308 -0.08735
C_ C_ 0.359514 0.31482 0.282459 -0.05681
C_ C_ 0.352933 0.300262 0.253106 0.18498
C_ C_ 0.324215 0.25674 0.247003 -0.08735
C_ C_ 0.308437 0.225066 0.268348 -0.08735
C_ C_ 0.318857 0.236905 0.297785 -0.08735
C_ C_ 0.343824 0.281173 0.304761 0.18498
C_ C_ 0.307786 0.30311 0.350914 0.44287
C_ C_ 0.395487 0.28878 0.346705 0.44287
C_ C_ 0.403314 0.293489 0.376591 -0.05681
C_ C_ 0.450581 0.292372 0.388601 -0.08735
C_ C_ 0.456486 0.300104 0.418794 -0.08735
C_ C_ 0.414442 0.301802 0.436569 -0.05681
C_ C_ 0.366626 0.309612 0.424344 -0.05681
C_ C_ 0.361597 0.307145 0.394471 -0.05681
C_ C_ 0.31252 0.308489 0.380773 -0.05681
C_ C_ 0.270504 0.31535 0.399099 -0.08735
C_ C_ 0.277102 0.324968 0.428495 -0.08735
C_ C_ 0.326139 0.322775 0.441444 -0.05681
C_ C_ 0.336612 0.335382 0.470938 0.44287
C_ C_ 0.420548 0.30523 0.466344 0.44287
C_ C_ 0.402178 0.333151 0.0107331 0.18498
C_ C_ 0.428825 0.379825 0.0172074 -0.08735
C_ C_ 0.437292 0.395042 0.0455166 -0.08735
C_ C_ 0.431113 0.359049 0.0677778 -0.08735
C_ C_ 0.404456 0.314327 0.0634863 0.18498
C_ C_ 0.391178 0.299321 0.0342581 -0.05681
C_ C_ 0.35763 0.261295 0.029143 -0.08735
C_ C_ 0.331467 0.238678 0.0518979 -0.08735
C_ C_ 0.345964 0.250492 0.079799 0.1947
N_ N_ 0.134536 0.166798 0.477133 -0.29468
N_ N_ 0.147837 0.202267 0.0817799 -0.17154
N_ N_ 0.110866 0.174733 0.23005 -0.17154
N_ N_ 0.133425 0.200648 0.336097 -0.29468
N_ N_ 0.371194 0.329143 0.231288 -0.29468
N_ N_ 0.349592 0.29366 0.334693 -0.17154
N_ N_ 0.38238 0.32467 0.483004 -0.17154
N_ N_ 0.380611 0.290098 0.0850184 -0.29468
O_ O_ 0.210551 0.193406 0.426457 -0.58347
O_ O_ 0.199004 0.175503 0.380881 -0.58347
O_ O_ 0.119427 0.257293 0.436044 -0.58347
O_ O_ 0.129827 0.259008 0.389703 -0.58347
O_ O_ 0.145179 0.108702 0.422808 -0.58347
O_ O_ 0.124936 0.111378 0.376512 -0.58347
O_ O_ 0.0583124 0.170493 0.427505 -0.58347
O_ O_ 0.0519064 0.191208 0.38227 -0.58347
O_ O_ 0.0629404 0.213362 0.0729816 -0.46727
O_ O_ 0.235482 0.191624 0.0903534 -0.46727
O_ O_ 0.0258346 0.185345 0.220201 -0.46727
O_ O_ 0.197226 0.170298 0.236994 -0.46727
O_ O_ 0.295671 0.314426 0.183337 -0.58347
O_ O_ 0.302157 0.303659 0.137453 -0.58347
O_ O_ 0.368167 0.238498 0.186593 -0.58347
O_ O_ 0.386325 0.231623 0.141641 -0.58347
O_ O_ 0.369328 0.389998 0.175359 -0.58347
O_ O_ 0.377488 0.38144 0.128448 -0.58347
O_ O_ 0.446075 0.316778 0.18118 -0.58347
O_ O_ 0.455028 0.311774 0.135228 -0.58347
O_ O_ 0.435546 0.282214 0.328707 -0.46727
O_ O_ 0.264493 0.316213 0.33831 -0.46727
O_ O_ 0.462182 0.292914 0.479361 -0.46727
O_ O_ 0.299493 0.350879 0.487658 -0.46727
Zn Zn 0.125218 0.181166 0.882885 0.90689
Zn Zn 0.137492 0.173242 0.929273 0.90689
Zn Zn 0.371168 0.308956 0.635175 0.90689
Zn Zn 0.361674 0.318426 0.682822 0.90689
H_ H_ 0.299742 0.167733 0.94579 0.11455
H_ H_ 0.371594 0.172767 0.847538 0.11455
H_ H_ 0.277948 0.15952 0.853772 0.11455
H_ H_ 0.384961 0.174252 0.965567 0.11455
H_ H_ 0.478965 0.17712 0.956405 0.11455
H_ H_ 0.456383 0.165398 0.867149 0.11455
H_ H_ 0.136524 0.00318795 0.945942 0.11455
H_ H_ 0.115938 0.426809 0.845431 0.11455
H_ H_ 0.139659 0.0252062 0.85296 0.11455
H_ H_ 0.148458 0.428355 0.961453 0.11455
H_ H_ 0.149583 0.331336 0.959264 0.11455
H_ H_ 0.120563 0.347183 0.867674 0.11455
H_ H_ 0.0820712 0.105131 0.967668 0.11455
H_ H_ 0.0753608 0.0734945 0.512003 0.11455
H_ H_ 0.115544 0.115271 0.554803 0.11455
H_ H_ 0.197832 0.239477 0.972848 0.11455
H_ H_ 0.21401 0.306743 0.510031 0.11455
H_ H_ 0.191699 0.286708 0.559688 0.11455
H_ H_ 0.0122884 0.206733 0.619 0.11455
H_ H_ -0.006932000000000049 0.191726 0.67195 0.11455
H_ H_ 0.257582 0.148429 0.639326 0.11455
H_ H_ 0.24451 0.145496 0.688577 0.11455
H_ H_ 0.0451102 0.0894569 0.7494 0.11455
H_ H_ 0.0372578 0.0574119 0.797548 0.11455
H_ H_ 0.0771821 0.107462 0.838436 0.11455
H_ H_ 0.141542 0.241119 0.755743 0.11455
H_ H_ 0.187133 0.286813 0.795969 0.11455
H_ H_ 0.181234 0.250183 0.845256 0.11455
H_ H_ 0.190338 0.307237 0.700367 0.11455
H_ H_ 0.128135 0.33052 0.600507 0.11455
H_ H_ 0.22137 0.339959 0.610785 0.11455
H_ H_ 0.104582 0.319705 0.717904 0.11455
H_ H_ 0.0140213 0.311249 0.710389 0.11455
H_ H_ 0.0422141 0.31148 0.620635 0.11455
H_ H_ 0.362222 0.483229 0.697674 0.11455
H_ H_ 0.35742 0.0649139 0.601482 0.11455
H_ H_ 0.406461 0.466895 0.609675 0.11455
H_ H_ 0.386606 0.0731842 0.719865 0.11455
H_ H_ 0.37909 0.165272 0.716092 0.11455
H_ H_ 0.349694 0.146272 0.624561 0.11455
H_ H_ 0.415849 0.381943 0.719062 0.11455
H_ H_ 0.428847 0.41222 0.765333 0.11455
H_ H_ 0.387267 0.369606 0.807306 0.11455
H_ H_ 0.287549 0.259533 0.726058 0.11455
H_ H_ 0.251839 0.206778 0.764151 0.11455
H_ H_ 0.29165 0.213676 0.813465 0.11455
H_ H_ 0.482504 0.279713 0.867366 0.11455
H_ H_ 0.495476 0.290577 0.921933 0.11455
H_ H_ 0.236622 0.341138 0.894762 0.11455
H_ H_ 0.248389 0.332944 0.944176 0.11455
H_ H_ 0.429045 0.410224 0.000497575 0.11455
H_ H_ 0.467118 0.419705 0.553003 0.11455
H_ H_ 0.421099 0.381719 0.592429 0.11455
H_ H_ 0.337258 0.250972 0.510784 0.11455
H_ H_ 0.290452 0.214178 0.551455 0.11455
H_ H_ 0.313242 0.240459 0.600837 0.11455
C_ C_ 0.227114 0.176998 0.905185 0.68181
C_ C_ 0.282909 0.169164 0.9004 -0.05681
C_ C_ 0.314147 0.162139 0.92412 -0.08735
C_ C_ 0.366793 0.160154 0.91977 -0.05681
C_ C_ 0.387921 0.163797 0.891922 -0.05681
C_ C_ 0.354747 0.164883 0.868179 -0.08735
C_ C_ 0.304466 0.169838 0.872532 -0.08735
C_ C_ 0.399914 0.172845 0.943584 -0.08735
C_ C_ 0.453491 0.173561 0.93832 -0.08735
C_ C_ 0.475573 0.165021 0.911716 -0.05681
C_ C_ 0.442467 0.164708 0.888276 -0.08735
C_ C_ 0.125947 0.27544 0.910355 0.68181
C_ C_ 0.139955 0.0789349 0.904059 0.68181
C_ C_ 0.140585 0.0224816 0.900039 -0.05681
C_ C_ 0.132437 0.490477 0.920455 -0.08735
C_ C_ 0.133346 0.437837 0.918282 -0.05681
C_ C_ 0.123549 0.415028 0.891181 -0.05681
C_ C_ 0.119313 0.445355 0.86651 -0.08735
C_ C_ 0.124029 0.499457 0.869169 -0.08735
C_ C_ 0.135334 0.406562 0.942868 -0.08735
C_ C_ 0.138447 0.354227 0.94116 -0.08735
C_ C_ 0.13221 0.331727 0.912391 -0.05681
C_ C_ 0.121905 0.363609 0.888032 -0.08735
C_ C_ 0.0320965 0.174578 0.906196 0.68181
C_ C_ 0.102861 0.123239 0.984675 0.1947
C_ C_ 0.101396 0.105478 0.508963 -0.08735
C_ C_ 0.119728 0.131949 0.53278 -0.08735
C_ C_ 0.144166 0.180428 0.528001 -0.05681
C_ C_ 0.149737 0.197715 0.498905 0.18498
C_ C_ 0.187013 0.232434 0.994449 -0.08735
C_ C_ 0.194733 0.271324 0.515351 -0.08735
C_ C_ 0.183808 0.257854 0.543778 -0.08735
C_ C_ 0.160744 0.211625 0.550179 0.18498
C_ C_ 0.190185 0.183219 0.597606 0.44287
C_ C_ 0.101761 0.204794 0.59054 0.44287
C_ C_ 0.0937877 0.200202 0.621253 -0.05681
C_ C_ 0.0442293 0.200223 0.632455 -0.08735
C_ C_ 0.0322386 0.187676 0.661931 -0.08735
C_ C_ 0.0739114 0.184772 0.681421 -0.05681
C_ C_ 0.124305 0.181594 0.669034 -0.05681
C_ C_ 0.134925 0.187123 0.639356 -0.05681
C_ C_ 0.184087 0.181663 0.627122 -0.05681
C_ C_ 0.221033 0.161253 0.646844 -0.08735
C_ C_ 0.212385 0.159472 0.675251 -0.08735
C_ C_ 0.164028 0.166863 0.687766 -0.05681
C_ C_ 0.156089 0.154688 0.717069 0.44287
C_ C_ 0.0679739 0.173387 0.710846 0.44287
C_ C_ 0.100315 0.148469 0.757972 0.18498
C_ C_ 0.0684513 0.107086 0.76507 -0.08735
C_ C_ 0.061476 0.0906081 0.793669 -0.08735
C_ C_ 0.0830777 0.118914 0.816396 -0.08735
C_ C_ 0.110384 0.163071 0.810586 0.18498
C_ C_ 0.12264 0.177228 0.781218 -0.05681
C_ C_ 0.144729 0.224561 0.776647 -0.08735
C_ C_ 0.159245 0.256414 0.799571 -0.08735
C_ C_ 0.161035 0.233013 0.826933 0.1947
C_ C_ 0.266793 0.313026 0.660174 0.68181
C_ C_ 0.210748 0.318912 0.655075 -0.05681
C_ C_ 0.176491 0.314499 0.678345 -0.08735
C_ C_ 0.12506 0.325842 0.673182 -0.05681
C_ C_ 0.105794 0.327181 0.645152 -0.05681
C_ C_ 0.142197 0.326163 0.622218 -0.08735
C_ C_ 0.192945 0.331746 0.627792 -0.08735
C_ C_ 0.0903907 0.321171 0.696219 -0.08735
C_ C_ 0.0376223 0.321921 0.693313 -0.08735
C_ C_ 0.0190354 0.322096 0.663515 -0.05681
C_ C_ 0.0541503 0.324255 0.640685 -0.08735
C_ C_ 0.372959 0.215938 0.664046 0.68181
C_ C_ 0.367568 0.410636 0.654254 0.68181
C_ C_ 0.371286 0.467623 0.650792 -0.05681
C_ C_ 0.370982 -0.000327414 0.6766 -0.08735
C_ C_ 0.37058 0.0538071 0.674055 -0.05681
C_ C_ 0.366691 0.0759313 0.64734 -0.05681
C_ C_ 0.364295 0.0466936 0.622656 -0.08735
C_ C_ 0.389716 0.490098 0.625319 -0.08735
C_ C_ 0.374498 0.0860208 0.698698 -0.08735
C_ C_ 0.376979 0.139471 0.696177 -0.08735
C_ C_ 0.367283 0.160469 0.668786 -0.05681
C_ C_ 0.359044 0.128515 0.645256 -0.08735
C_ C_ 0.464875 0.320518 0.659319 0.68181
C_ C_ 0.399368 0.362824 0.736191 0.1947
C_ C_ 0.407481 0.379203 0.763852 -0.08735
C_ C_ 0.381272 0.356674 0.786909 -0.08735
C_ C_ 0.351136 0.314828 0.782296 -0.05681
C_ C_ 0.337807 0.30383 0.7525 0.18498
C_ C_ 0.301431 0.265564 0.74704 -0.08735
C_ C_ 0.278332 0.238092 0.768788 -0.08735
C_ C_ 0.298495 0.240846 0.796451 -0.08735
C_ C_ 0.325991 0.285056 0.803796 0.18498
C_ C_ 0.298129 0.303873 0.852727 0.44287
C_ C_ 0.38315 0.284089 0.844037 0.44287
C_ C_ 0.396695 0.289412 0.873832 -0.05681
C_ C_ 0.449116 0.287543 0.883049 -0.08735
C_ C_ 0.459289 0.295681 0.913025 -0.08735
C_ C_ 0.420842 0.307758 0.932314 -0.05681
C_ C_ 0.368685 0.312775 0.922138 -0.05681
C_ C_ 0.35862 0.304282 0.893497 -0.05681
C_ C_ 0.307754 0.307462 0.883097 -0.05681
C_ C_ 0.270359 0.326048 0.902067 -0.08735
C_ C_ 0.279561 0.334308 0.930355 -0.08735
C_ C_ 0.329088 0.324731 0.941643 -0.05681
C_ C_ 0.340551 0.332176 0.971483 0.44287
C_ C_ 0.428964 0.311016 0.962075 0.44287
C_ C_ 0.39174 0.340168 0.512884 0.18498
C_ C_ 0.428678 0.37797 0.520139 -0.08735
C_ C_ 0.437091 0.393434 0.548159 -0.08735
C_ C_ 0.412952 0.36863 0.570561 -0.08735
C_ C_ 0.384983 0.322997 0.564626 0.18498
C_ C_ 0.371127 0.309837 0.535536 -0.05681
C_ C_ 0.340023 0.268552 0.531866 -0.08735
C_ C_ 0.314294 0.246348 0.554513 -0.08735
C_ C_ 0.329113 0.260926 0.582748 0.1947
N_ N_ 0.129423 0.165985 0.979403 -0.29468
N_ N_ 0.150778 0.199258 0.580474 -0.17154
N_ N_ 0.108137 0.159045 0.72796 -0.17154
N_ N_ 0.129731 0.192376 0.832422 -0.29468
N_ N_ 0.363902 0.326359 0.73 -0.29468
N_ N_ 0.336129 0.293347 0.833643 -0.17154
N_ N_ 0.389027 0.323862 0.981071 -0.17154
N_ N_ 0.363583 0.297755 0.587582 -0.29468
O_ O_ 0.211406 0.177601 0.930879 -0.58347
O_ O_ 0.19772 0.188731 0.884928 -0.58347
O_ O_ 0.137008 0.247905 0.930867 -0.58347
O_ O_ 0.114028 0.254185 0.886567 -0.58347
O_ O_ 0.138192 0.0987553 0.928197 -0.58347
O_ O_ 0.139048 0.108422 0.882696 -0.58347
O_ O_ 0.0603318 0.178034 0.927679 -0.58347
O_ O_ 0.0509083 0.171195 0.882096 -0.58347
O_ O_ 0.063416 0.211746 0.573323 -0.46727
O_ O_ 0.232607 0.171787 0.585339 -0.46727
O_ O_ 0.0214145 0.172091 0.720588 -0.46727
O_ O_ 0.19398 0.144735 0.733408 -0.46727
O_ O_ 0.286578 0.32967 0.682361 -0.58347
O_ O_ 0.294974 0.298777 0.638898 -0.58347
O_ O_ 0.361185 0.24326 0.6853 -0.58347
O_ O_ 0.382169 0.235326 0.639856 -0.58347
O_ O_ 0.36516 0.393358 0.67912 -0.58347
O_ O_ 0.361259 0.383729 0.632063 -0.58347
O_ O_ 0.435942 0.316631 0.681514 -0.58347
O_ O_ 0.444566 0.321516 0.634141 -0.58347
O_ O_ 0.419387 0.26672 0.826751 -0.46727
O_ O_ 0.252546 0.310207 0.841591 -0.46727
O_ O_ 0.474245 0.30448 0.971386 -0.46727
O_ O_ 0.305172 0.340348 0.989445 -0.46727
Zn Zn 0.123815 0.684161 0.382828 0.90689
Zn Zn 0.139653 0.680738 0.429462 0.90689
Zn Zn 0.374963 0.807157 0.134551 0.90689
Zn Zn 0.372186 0.81632 0.182659 0.90689
H_ H_ 0.30656 0.682194 0.445806 0.11455
H_ H_ 0.364872 0.677028 0.345439 0.11455
H_ H_ 0.277318 0.670788 0.35457 0.11455
H_ H_ 0.391024 0.702623 0.462622 0.11455
H_ H_ 0.478379 0.677557 0.458315 0.11455
H_ H_ 0.454753 0.659618 0.364574 0.11455
H_ H_ 0.159471 0.515709 0.43957 0.11455
H_ H_ 0.121822 0.934001 0.351939 0.11455
H_ H_ 0.132011 0.528279 0.349068 0.11455
H_ H_ 0.156615 0.935466 0.468086 0.11455
H_ H_ 0.151219 0.840923 0.466002 0.11455
H_ H_ 0.10406 0.851526 0.376973 0.11455
H_ H_ 0.0843281 0.608363 0.464197 0.11455
H_ H_ 0.064417 0.578616 0.0196468 0.11455
H_ H_ 0.102029 0.630326 0.057835 0.11455
H_ H_ 0.198956 0.745382 0.475247 0.11455
H_ H_ 0.227567 0.79127 0.00544989 0.11455
H_ H_ 0.204739 0.780954 0.056489 0.11455
H_ H_ 0.019362 0.715655 0.119365 0.11455
H_ H_ 0.00369013 0.695706 0.170757 0.11455
H_ H_ 0.266917 0.687263 0.140767 0.11455
H_ H_ 0.251478 0.669662 0.192218 0.11455
H_ H_ 0.0608753 0.601391 0.246569 0.11455
H_ H_ 0.0369773 0.57377 0.292679 0.11455
H_ H_ 0.0616026 0.629361 0.335909 0.11455
H_ H_ 0.166064 0.752666 0.258233 0.11455
H_ H_ 0.193846 0.799713 0.300567 0.11455
H_ H_ 0.172991 0.771878 0.34701 0.11455
H_ H_ 0.203148 0.806843 0.197839 0.11455
H_ H_ 0.131308 0.849043 0.100573 0.11455
H_ H_ 0.221725 0.836742 0.105415 0.11455
H_ H_ 0.11735 0.818053 0.218347 0.11455
H_ H_ 0.0222944 0.803685 0.209424 0.11455
H_ H_ 0.0495373 0.836322 0.117627 0.11455
H_ H_ 0.386125 0.97714 0.196238 0.11455
H_ H_ 0.339572 0.555496 0.101454 0.11455
H_ H_ 0.374292 0.965501 0.103533 0.11455
H_ H_ 0.40048 0.563442 0.213777 0.11455
H_ H_ 0.374494 0.652746 0.214456 0.11455
H_ H_ 0.35725 0.641172 0.121098 0.11455
H_ H_ 0.43313 0.878517 0.214651 0.11455
H_ H_ 0.45766 0.90201 0.262856 0.11455
H_ H_ 0.404913 0.878849 0.304932 0.11455
H_ H_ 0.299694 0.760582 0.225442 0.11455
H_ H_ 0.261265 0.716218 0.26982 0.11455
H_ H_ 0.29021 0.730202 0.315664 0.11455
H_ H_ 0.484719 0.793729 0.374145 0.11455
H_ H_ 0.495832 0.812234 0.427011 0.11455
H_ H_ 0.232875 0.842074 0.389043 0.11455
H_ H_ 0.249269 0.857254 0.439731 0.11455
H_ H_ 0.427818 0.919145 0.501464 0.11455
H_ H_ 0.442697 0.939274 0.0502173 0.11455
H_ H_ 0.430787 0.87632 0.088496 0.11455
H_ H_ 0.338718 0.751345 0.00852072 0.11455
H_ H_ 0.300581 0.710587 0.0508056 0.11455
H_ H_ 0.326279 0.737166 0.0998863 0.11455
C_ C_ 0.229356 0.679587 0.406802 0.68181
C_ C_ 0.283573 0.682129 0.401097 -0.05681
C_ C_ 0.317806 0.687729 0.423496 -0.08735
C_ C_ 0.369437 0.68479 0.4185 -0.05681
C_ C_ 0.389049 0.674784 0.390686 -0.05681
C_ C_ 0.35506 0.673382 0.367632 -0.08735
C_ C_ 0.302472 0.676305 0.373015 -0.08735
C_ C_ 0.401835 0.68821 0.441257 -0.08735
C_ C_ 0.453266 0.677327 0.438482 -0.08735
C_ C_ 0.474481 0.673292 0.410231 -0.05681
C_ C_ 0.440959 0.669643 0.386225 -0.08735
C_ C_ 0.128149 0.780868 0.41858 0.68181
C_ C_ 0.139268 0.583727 0.397331 0.68181
C_ C_ 0.136346 0.528157 0.395811 -0.05681
C_ C_ 0.146235 0.996266 0.423146 -0.08735
C_ C_ 0.139754 0.943461 0.423383 -0.05681
C_ C_ 0.124872 0.919711 0.397543 -0.05681
C_ C_ 0.122484 0.948989 0.372778 -0.08735
C_ C_ 0.122535 1.00218768 0.373411 -0.08735
C_ C_ 0.146103 0.915023 0.448579 -0.08735
C_ C_ 0.143541 0.862404 0.447525 -0.08735
C_ C_ 0.130113 0.838256 0.421074 -0.05681
C_ C_ 0.124925 0.867123 0.396142 -0.08735
C_ C_ 0.0329135 0.683735 0.405988 0.68181
C_ C_ 0.10922 0.624367 0.481892 0.1947
C_ C_ 0.0879779 0.610888 0.0156073 -0.08735
C_ C_ 0.111203 0.638795 0.0365736 -0.08735
C_ C_ 0.142067 0.680579 0.029449 -0.05681
C_ C_ 0.146744 0.694165 0.999727 0.18498
C_ C_ 0.187434 0.734101 0.495485 -0.08735
C_ C_ 0.205981 0.758762 0.0121746 -0.08735
C_ C_ 0.192826 0.753483 0.040962 -0.08735
C_ C_ 0.164031 0.712895 0.0505547 0.18498
C_ C_ 0.196732 0.697141 0.0999119 0.44287
C_ C_ 0.109085 0.714081 0.0929921 0.44287
C_ C_ 0.100224 0.704529 0.122446 -0.05681
C_ C_ 0.0490509 0.706513 0.1337 -0.08735
C_ C_ 0.0414318 0.688895 0.161375 -0.08735
C_ C_ 0.0822829 0.683584 0.179953 -0.05681
C_ C_ 0.131496 0.678485 0.169188 -0.05681
C_ C_ 0.140298 0.690102 0.140019 -0.05681
C_ C_ 0.188171 0.691519 0.129528 -0.05681
C_ C_ 0.229002 0.677077 0.148063 -0.08735
C_ C_ 0.221038 0.6731 0.177225 -0.08735
C_ C_ 0.171424 0.677021 0.188004 -0.05681
C_ C_ 0.161546 0.673532 0.218109 0.44287
C_ C_ 0.075501 0.687763 0.209987 0.44287
C_ C_ 0.102968 0.669059 0.259541 0.18498
C_ C_ 0.0764338 0.623885 0.264567 -0.08735
C_ C_ 0.0624273 0.608579 0.29168 -0.08735
C_ C_ 0.0815425 0.63685 0.3154 -0.08735
C_ C_ 0.116278 0.67791 0.312084 0.18498
C_ C_ 0.125255 0.693821 0.282976 -0.05681
C_ C_ 0.157861 0.73683 0.279712 -0.08735
C_ C_ 0.173523 0.764694 0.303493 -0.08735
C_ C_ 0.160692 0.747807 0.330419 0.1947
C_ C_ 0.274355 0.817488 0.154893 0.68181
C_ C_ 0.218965 0.824977 0.151805 -0.05681
C_ C_ 0.185641 0.821237 0.176589 -0.08735
C_ C_ 0.133956 0.822746 0.172153 -0.05681
C_ C_ 0.113756 0.829524 0.144472 -0.05681
C_ C_ 0.146895 0.838157 0.12101 -0.08735
C_ C_ 0.197804 0.833465 0.124424 -0.08735
C_ C_ 0.102049 0.822671 0.19655 -0.08735
C_ C_ 0.0489235 0.820002 0.191707 -0.08735
C_ C_ 0.0275148 0.824651 0.163021 -0.05681
C_ C_ 0.0607403 0.831984 0.139219 -0.08735
C_ C_ 0.368972 0.714124 0.164031 0.68181
C_ C_ 0.379709 0.907948 0.152195 0.68181
C_ C_ 0.386689 0.964669 0.149647 -0.05681
C_ C_ 0.392787 0.49913 0.170173 -0.08735
C_ C_ 0.385077 0.552002 0.168873 -0.05681
C_ C_ 0.370167 0.57617 0.1424 -0.05681
C_ C_ 0.358592 0.54355 0.11975 -0.08735
C_ C_ 0.378235 -0.00912500000000005 0.1233 -0.08735
C_ C_ 0.391144 0.582049 0.193705 -0.08735
C_ C_ 0.382929 0.634284 0.193038 -0.08735
C_ C_ 0.370415 0.657421 0.166566 -0.05681
C_ C_ 0.366976 0.627433 0.14179 -0.08735
C_ C_ 0.470566 0.812511 0.158845 0.68181
C_ C_ 0.408988 0.867589 0.232483 0.1947
C_ C_ 0.423745 0.878554 0.260522 -0.08735
C_ C_ 0.397562 0.861475 0.284288 -0.08735
C_ C_ 0.36133 0.822633 0.280746 -0.05681
C_ C_ 0.346744 0.811732 0.251828 0.18498
C_ C_ 0.309101 0.774164 0.247184 -0.08735
C_ C_ 0.291543 0.746155 0.270703 -0.08735
C_ C_ 0.307786 0.754139 0.298314 -0.08735
C_ C_ 0.340014 0.794253 0.303925 0.18498
C_ C_ 0.309193 0.827077 0.34949 0.44287
C_ C_ 0.395703 0.7991 0.344983 0.44287
C_ C_ 0.403252 0.805992 0.375001 -0.05681
C_ C_ 0.451652 0.804971 0.387011 -0.08735
C_ C_ 0.458392 0.813811 0.417099 -0.08735
C_ C_ 0.415847 0.817925 0.435225 -0.05681
C_ C_ 0.367309 0.823881 0.42282 -0.05681
C_ C_ 0.362467 0.821815 0.392369 -0.05681
C_ C_ 0.31433 0.828491 0.379888 -0.05681
C_ C_ 0.271014 0.83836 0.398025 -0.08735
C_ C_ 0.277852 0.839396 0.42742 -0.08735
C_ C_ 0.326391 0.835857 0.43934 -0.05681
C_ C_ 0.334533 0.847672 0.469015 0.44287
C_ C_ 0.420114 0.822285 0.466245 0.44287
C_ C_ 0.388787 0.843109 0.0113324 0.18498
C_ C_ 0.407527 0.891775 0.0186586 -0.08735
C_ C_ 0.425086 0.901805 0.0458691 -0.08735
C_ C_ 0.417854 0.867054 0.0678069 -0.08735
C_ C_ 0.388954 0.824634 0.0625126 0.18498
C_ C_ 0.375194 0.81068 0.0343848 -0.05681
C_ C_ 0.346594 0.766751 0.0291966 -0.08735
C_ C_ 0.324625 0.743381 0.0533018 -0.08735
C_ C_ 0.339156 0.75645 0.0809099 0.1947
N_ N_ 0.140664 0.664438 0.477957 -0.29468
N_ N_ 0.157 0.708272 0.0817803 -0.17154
N_ N_ 0.114815 0.682407 0.229149 -0.17154
N_ N_ 0.134987 0.703679 0.335067 -0.29468
N_ N_ 0.373011 0.832017 0.229133 -0.29468
N_ N_ 0.347526 0.808496 0.332807 -0.17154
N_ N_ 0.379559 0.839754 0.482117 -0.17154
N_ N_ 0.370944 0.795911 0.084605 -0.29468
O_ O_ 0.214075 0.682102 0.432852 -0.58347
O_ O_ 0.199578 0.684393 0.385729 -0.58347
O_ O_ 0.135165 0.752065 0.439919 -0.58347
O_ O_ 0.124226 0.760346 0.393611 -0.58347
O_ O_ 0.147951 0.606127 0.421187 -0.58347
O_ O_ 0.123271 0.608088 0.376644 -0.58347
O_ O_ 0.0622751 0.677089 0.427905 -0.58347
O_ O_ 0.0519259 0.688875 0.381039 -0.58347
O_ O_ 0.0699907 0.721917 0.0761161 -0.46727
O_ O_ 0.241266 0.68664 0.0884451 -0.46727
O_ O_ 0.031226 0.69879 0.221913 -0.46727
O_ O_ 0.200185 0.670494 0.235795 -0.46727
O_ O_ 0.295204 0.82313 0.178846 -0.58347
O_ O_ 0.299848 0.80855 0.133338 -0.58347
O_ O_ 0.365691 0.740878 0.185813 -0.58347
O_ O_ 0.370976 0.735259 0.139859 -0.58347
O_ O_ 0.379438 0.889032 0.176876 -0.58347
O_ O_ 0.378242 0.881212 0.129639 -0.58347
O_ O_ 0.442092 0.804917 0.181059 -0.58347
O_ O_ 0.449956 0.809195 0.134144 -0.58347
O_ O_ 0.429186 0.776192 0.330374 -0.46727
O_ O_ 0.267066 0.837128 0.336838 -0.46727
O_ O_ 0.465932 0.819914 0.478209 -0.46727
O_ O_ 0.29793 0.867508 0.484337 -0.46727
Zn Zn 0.123018 0.677633 0.881337 0.90689
Zn Zn 0.127605 0.673778 0.931296 0.90689
Zn Zn 0.376013 0.813477 0.635336 0.90689
Zn Zn 0.363182 0.817576 0.683407 0.90689
H_ H_ 0.296823 0.725346 0.940534 0.11455
H_ H_ 0.36872 0.66118 0.849333 0.11455
H_ H_ 0.277433 0.659073 0.857372 0.11455
H_ H_ 0.378401 0.708058 0.964678 0.11455
H_ H_ 0.472333 0.699749 0.961503 0.11455
H_ H_ 0.453466 0.663502 0.869761 0.11455
H_ H_ 0.132404 0.508986 0.941569 0.11455
H_ H_ 0.144317 0.93259 0.846243 0.11455
H_ H_ 0.123125 0.523849 0.850969 0.11455
H_ H_ 0.123615 0.921411 0.966108 0.11455
H_ H_ 0.111997 0.831402 0.959146 0.11455
H_ H_ 0.129207 0.844377 0.86808 0.11455
H_ H_ 0.0862671 0.594758 0.971413 0.11455
H_ H_ 0.0678701 0.578593 0.513451 0.11455
H_ H_ 0.106117 0.622406 0.555277 0.11455
H_ H_ 0.19554 0.731938 0.968797 0.11455
H_ H_ 0.223647 0.801636 0.515185 0.11455
H_ H_ 0.21023 0.775169 0.564179 0.11455
H_ H_ 1.0164937 0.709033 0.618393 0.11455
H_ H_ 1.00196369 0.70253 0.671091 0.11455
H_ H_ 0.268754 0.678363 0.63922 0.11455
H_ H_ 0.249229 0.666916 0.691933 0.11455
H_ H_ 0.0564806 0.590902 0.748818 0.11455
H_ H_ 0.0439527 0.560387 0.796003 0.11455
H_ H_ 0.0799571 0.608983 0.837531 0.11455
H_ H_ 0.162437 0.740869 0.757093 0.11455
H_ H_ 0.20793 0.774243 0.802569 0.11455
H_ H_ 0.181376 0.750982 0.848325 0.11455
H_ H_ 0.196259 0.806526 0.694743 0.11455
H_ H_ 0.134168 0.848026 0.596905 0.11455
H_ H_ 0.22766 0.842073 0.604991 0.11455
H_ H_ 0.109915 0.804597 0.713427 0.11455
H_ H_ 0.0195838 0.801895 0.704133 0.11455
H_ H_ 0.0479494 0.830298 0.613237 0.11455
H_ H_ 0.376533 0.981491 0.697091 0.11455
H_ H_ 0.418227 0.56269 0.606131 0.11455
H_ H_ 0.355408 0.971368 0.605511 0.11455
H_ H_ 0.335972 0.571499 0.715043 0.11455
H_ H_ 0.340018 0.661509 0.708045 0.11455
H_ H_ 0.401573 0.644174 0.623938 0.11455
H_ H_ 0.427159 0.8863 0.718256 0.11455
H_ H_ 0.429939 0.923157 0.767072 0.11455
H_ H_ 0.397759 0.869452 0.808552 0.11455
H_ H_ 0.30219 0.759722 0.724527 0.11455
H_ H_ 0.282399 0.700665 0.762435 0.11455
H_ H_ 0.298053 0.719886 0.81038 0.11455
H_ H_ 0.482356 0.786192 0.875436 0.11455
H_ H_ 0.496735 0.802002 0.925821 0.11455
H_ H_ 0.239425 0.843894 0.890034 0.11455
H_ H_ 0.2486 0.855733 0.938223 0.11455
H_ H_ 0.411701 0.921296 1.00285105 0.11455
H_ H_ 0.455241 0.936815 0.552989 0.11455
H_ H_ 0.434541 0.87988 0.590509 0.11455
H_ H_ 0.321392 0.766329 0.511204 0.11455
H_ H_ 0.306643 0.710345 0.551356 0.11455
H_ H_ 0.327464 0.736134 0.60133 0.11455
C_ C_ 0.22408 0.682629 0.903586 0.68181
C_ C_ 0.279751 0.685871 0.900267 -0.05681
C_ C_ 0.312152 0.705073 0.921789 -0.08735
C_ C_ 0.365424 0.699688 0.919231 -0.05681
C_ C_ 0.385876 0.686455 0.892068 -0.05681
C_ C_ 0.354771 0.678553 0.869857 -0.08735
C_ C_ 0.300301 0.675912 0.874003 -0.08735
C_ C_ 0.395355 0.70358 0.942934 -0.08735
C_ C_ 0.448515 0.697415 0.940883 -0.08735
C_ C_ 0.471369 0.68593 0.913459 -0.05681
C_ C_ 0.438981 0.677775 0.889753 -0.08735
C_ C_ 0.1213 0.775184 0.911948 0.68181
C_ C_ 0.128557 0.578835 0.899452 0.68181
C_ C_ 0.127543 0.521841 0.896732 -0.05681
C_ C_ 0.130262 0.989287 0.923412 -0.08735
C_ C_ 0.126735 0.937554 0.918815 -0.05681
C_ C_ 0.127231 0.915623 0.891438 -0.05681
C_ C_ 0.139454 0.947185 0.868412 -0.08735
C_ C_ 0.142958 0.00155175 0.872392 -0.08735
C_ C_ 0.119288 0.907717 0.9439 -0.08735
C_ C_ 0.116844 0.855004 0.940588 -0.08735
C_ C_ 0.12065 0.830629 0.913456 -0.05681
C_ C_ 0.127258 0.861601 0.889013 -0.08735
C_ C_ 0.0273994 0.680908 0.908468 0.68181
C_ C_ 0.0995609 0.622265 0.987207 0.1947
C_ C_ 0.0994338 0.605626 0.510625 -0.08735
C_ C_ 0.118298 0.633312 0.533794 -0.08735
C_ C_ 0.149417 0.675386 0.529063 -0.05681
C_ C_ 0.160932 0.68983 0.500577 0.18498
C_ C_ 0.181286 0.730503 0.991144 -0.08735
C_ C_ 0.204445 0.764396 0.518199 -0.08735
C_ C_ 0.198069 0.74842 0.546915 -0.08735
C_ C_ 0.167888 0.70509 0.552908 0.18498
C_ C_ 0.193468 0.679892 0.600313 0.44287
C_ C_ 0.108737 0.703114 0.593014 0.44287
C_ C_ 0.0983461 0.699148 0.622214 -0.05681
C_ C_ 0.0481758 0.701407 0.632906 -0.08735
C_ C_ 0.0405436 0.699506 0.663228 -0.08735
C_ C_ 0.0786615 0.685875 0.681646 -0.05681
C_ C_ 0.129006 0.683626 0.670098 -0.05681
C_ C_ 0.138155 0.689364 0.640942 -0.05681
C_ C_ 0.186608 0.679086 0.629284 -0.05681
C_ C_ 0.228363 0.678834 0.64757 -0.08735
C_ C_ 0.220508 0.674937 0.678354 -0.08735
C_ C_ 0.16942 0.673196 0.688804 -0.05681
C_ C_ 0.158353 0.656059 0.717359 0.44287
C_ C_ 0.0707387 0.681277 0.711422 0.44287
C_ C_ 0.101827 0.656466 0.75914 0.18498
C_ C_ 0.076173 0.610828 0.76577 -0.08735
C_ C_ 0.063645 0.596108 0.7942 -0.08735
C_ C_ 0.082318 0.625852 0.816543 -0.08735
C_ C_ 0.111843 0.669165 0.811735 0.18498
C_ C_ 0.122598 0.685471 0.782223 -0.05681
C_ C_ 0.158869 0.722746 0.778047 -0.08735
C_ C_ 0.1765 0.748221 0.803302 -0.08735
C_ C_ 0.163658 0.73288 0.830774 0.1947
C_ C_ 0.274865 0.81691 0.65614 0.68181
C_ C_ 0.217964 0.822382 0.651032 -0.05681
C_ C_ 0.182302 0.816796 0.673249 -0.08735
C_ C_ 0.130658 0.817746 0.668267 -0.05681
C_ C_ 0.113231 0.828757 0.640104 -0.05681
C_ C_ 0.147563 0.838231 0.619388 -0.08735
C_ C_ 0.200138 0.83439 0.623591 -0.08735
C_ C_ 0.0965041 0.810206 0.6911 -0.08735
C_ C_ 0.0452283 0.813611 0.686788 -0.08735
C_ C_ 0.0268952 0.821948 0.658 -0.05681
C_ C_ 0.0609358 0.826794 0.634093 -0.08735
C_ C_ 0.379476 0.717382 0.665701 0.68181
C_ C_ 0.361433 0.915442 0.654993 0.68181
C_ C_ 0.36159 0.969647 0.652815 -0.05681
C_ C_ 0.364659 0.499029 0.67521 -0.08735
C_ C_ 0.371604 0.552385 0.673612 -0.05681
C_ C_ 0.383747 0.576473 0.647138 -0.05681
C_ C_ 0.399968 0.543705 0.624444 -0.08735
C_ C_ 0.362062 0.993009 0.625195 -0.08735
C_ C_ 0.354271 0.584313 0.695629 -0.08735
C_ C_ 0.352567 0.637443 0.691621 -0.08735
C_ C_ 0.374029 0.65969 0.666943 -0.05681
C_ C_ 0.390018 0.629284 0.645526 -0.08735
C_ C_ 0.469561 0.813978 0.659349 0.68181
C_ C_ 0.404654 0.869095 0.735713 0.1947
C_ C_ 0.412608 0.886455 0.763616 -0.08735
C_ C_ 0.389015 0.860209 0.786364 -0.08735
C_ C_ 0.358573 0.818331 0.780892 -0.05681
C_ C_ 0.344675 0.807914 0.75186 0.18498
C_ C_ 0.314759 0.767423 0.745784 -0.08735
C_ C_ 0.300615 0.733984 0.768139 -0.08735
C_ C_ 0.309874 0.747202 0.796266 -0.08735
C_ C_ 0.339344 0.789942 0.803899 0.18498
C_ C_ 0.310049 0.815211 0.850319 0.44287
C_ C_ 0.395436 0.794203 0.846042 0.44287
C_ C_ 0.40553 0.81162 0.874883 -0.05681
C_ C_ 0.454372 0.806478 0.887406 -0.08735
C_ C_ 0.462761 0.817723 0.915748 -0.08735
C_ C_ 0.419245 0.821465 0.934001 -0.05681
C_ C_ 0.370578 0.834285 0.921505 -0.05681
C_ C_ 0.365202 0.82801 0.891329 -0.05681
C_ C_ 0.316307 0.82765 0.880192 -0.05681
C_ C_ 0.277219 0.841701 0.89853 -0.08735
C_ C_ 0.282537 0.844737 0.926739 -0.08735
C_ C_ 0.329264 0.839929 0.939805 -0.05681
C_ C_ 0.335506 0.839359 0.969941 0.44287
C_ C_ 0.424295 0.828843 0.964266 0.44287
C_ C_ 0.386902 0.852471 0.512179 0.18498
C_ C_ 0.41868 0.892166 0.518852 -0.08735
C_ C_ 0.432947 0.902316 0.547405 -0.08735
C_ C_ 0.419904 0.869913 0.569862 -0.08735
C_ C_ 0.389026 0.828073 0.564434 0.18498
C_ C_ 0.372089 0.818098 0.535012 -0.05681
C_ C_ 0.338926 0.774575 0.530957 -0.08735
C_ C_ 0.325263 0.746257 0.555505 -0.08735
C_ C_ 0.34167 0.758608 0.582974 0.1947
N_ N_ 0.126588 0.66473 0.979487 -0.29468
N_ N_ 0.155382 0.693062 0.582232 -0.17154
N_ N_ 0.109505 0.663365 0.728686 -0.17154
N_ N_ 0.132294 0.693113 0.834317 -0.29468
N_ N_ 0.3695 0.832853 0.730077 -0.29468
N_ N_ 0.349485 0.80114 0.833787 -0.17154
N_ N_ 0.3819 0.830403 0.981932 -0.17154
N_ N_ 0.368465 0.800615 0.587077 -0.29468
O_ O_ 0.203387 0.676318 0.927281 -0.58347
O_ O_ 0.196668 0.676819 0.881072 -0.58347
O_ O_ 0.121868 0.749132 0.934095 -0.58347
O_ O_ 0.125359 0.753555 0.887463 -0.58347
O_ O_ 0.133586 0.60064 0.923917 -0.58347
O_ O_ 0.130823 0.605503 0.876906 -0.58347
O_ O_ 0.0549625 0.667944 0.930312 -0.58347
O_ O_ 0.0451634 0.679354 0.883516 -0.58347
O_ O_ 0.070187 0.713198 0.574443 -0.46727
O_ O_ 0.239104 0.675377 0.58916 -0.46727
O_ O_ 0.0248337 0.689562 0.721473 -0.46727
O_ O_ 0.193924 0.637212 0.734153 -0.46727
O_ O_ 0.291148 0.815423 0.681709 -0.58347
O_ O_ 0.303006 0.799876 0.636011 -0.58347
O_ O_ 0.36697 0.741892 0.687774 -0.58347
O_ O_ 0.388041 0.740234 0.641328 -0.58347
O_ O_ 0.360316 0.893209 0.679985 -0.58347
O_ O_ 0.36583 0.888119 0.632026 -0.58347
O_ O_ 0.441413 0.811948 0.681157 -0.58347
O_ O_ 0.450233 0.825426 0.635049 -0.58347
O_ O_ 0.428843 0.768188 0.832861 -0.46727
O_ O_ 0.263028 0.813802 0.84091 -0.46727
O_ O_ 0.468926 0.833391 0.976363 -0.46727
O_ O_ 0.295414 0.85225 0.985905 -0.46727
Zn Zn 0.624297 0.178762 0.381134 0.90689
Zn Zn 0.633958 0.176947 0.429012 0.90689
Zn Zn 0.882908 0.316517 0.1289 0.90689
Zn Zn 0.872315 0.322984 0.177783 0.90689
H_ H_ 0.801306 0.204239 0.442764 0.11455
H_ H_ 0.87428 0.157541 0.347283 0.11455
H_ H_ 0.775406 0.157757 0.355769 0.11455
H_ H_ 0.887592 0.194236 0.463972 0.11455
H_ H_ 0.984079 0.178908 0.454684 0.11455
H_ H_ 0.956031 0.164504 0.366346 0.11455
H_ H_ 0.643293 0.0118941 0.445555 0.11455
H_ H_ 0.629693 0.42966 0.345811 0.11455
H_ H_ 0.608235 0.0185146 0.35277 0.11455
H_ H_ 0.667656 0.423528 0.461047 0.11455
H_ H_ 0.649995 0.329185 0.457862 0.11455
H_ H_ 0.615916 0.343591 0.368463 0.11455
H_ H_ 0.57058 0.115905 0.465136 0.11455
H_ H_ 0.58354 0.0648796 0.0123954 0.11455
H_ H_ 0.600444 0.11885 0.0557447 0.11455
H_ H_ 0.698098 0.235238 0.473555 0.11455
H_ H_ 0.689388 0.31332 0.011189 0.11455
H_ H_ 0.669189 0.291715 0.0617844 0.11455
H_ H_ 0.503526 0.212773 0.122256 0.11455
H_ H_ 0.492373 0.21263 0.176256 0.11455
H_ H_ 0.750018 0.16966 0.138675 0.11455
H_ H_ 0.738969 0.158976 0.191331 0.11455
H_ H_ 0.554166 0.0879067 0.250769 0.11455
H_ H_ 0.542679 0.0563332 0.299519 0.11455
H_ H_ 0.56379 0.110954 0.339483 0.11455
H_ H_ 0.617083 0.258906 0.258279 0.11455
H_ H_ 0.659539 0.302484 0.302015 0.11455
H_ H_ 0.669638 0.259966 0.34659 0.11455
H_ H_ 0.70539 0.311349 0.196713 0.11455
H_ H_ 0.633277 0.324314 0.0993704 0.11455
H_ H_ 0.724347 0.320391 0.104206 0.11455
H_ H_ 0.619198 0.309991 0.215093 0.11455
H_ H_ 0.524495 0.307702 0.209825 0.11455
H_ H_ 0.545282 0.317921 0.118004 0.11455
H_ H_ 0.893916 0.487832 0.191378 0.11455
H_ H_ 0.895757 0.0630084 0.0937939 0.11455
H_ H_ 0.867283 0.47017 0.100028 0.11455
H_ H_ 0.852262 0.0721971 0.211004 0.11455
H_ H_ 0.860905 0.16544 0.206523 0.11455
H_ H_ 0.881223 0.152555 0.115277 0.11455
H_ H_ 0.931681 0.392365 0.214192 0.11455
H_ H_ 0.939619 0.428682 0.263277 0.11455
H_ H_ 0.896468 0.383097 0.30289 0.11455
H_ H_ 0.807962 0.267218 0.220737 0.11455
H_ H_ 0.785388 0.204452 0.25523 0.11455
H_ H_ 0.792146 0.230885 0.308582 0.11455
H_ H_ 0.985691 0.276829 0.370999 0.11455
H_ H_ 0.0005100000000000104 0.290668 0.421204 0.11455
H_ H_ 0.738971 0.332201 0.381967 0.11455
H_ H_ 0.744153 0.3355 0.434742 0.11455
H_ H_ 0.942875 0.405106 0.493313 0.11455
H_ H_ 0.999814 0.404229 0.043086 0.11455
H_ H_ 0.950033 0.368211 0.0844162 0.11455
H_ H_ 0.828772 0.26342 0.00544979 0.11455
H_ H_ 0.792768 0.223376 0.0456926 0.11455
H_ H_ 0.808639 0.255338 0.0952132 0.11455
C_ C_ 0.727927 0.1879 0.403538 0.68181
C_ C_ 0.784315 0.183252 0.399006 -0.05681
C_ C_ 0.817988 0.189265 0.422511 -0.08735
C_ C_ 0.870595 0.180807 0.419596 -0.05681
C_ C_ 0.890231 0.169081 0.392766 -0.05681
C_ C_ 0.856344 0.163738 0.369162 -0.08735
C_ C_ 0.803197 0.170163 0.371784 -0.08735
C_ C_ 0.90311 0.185926 0.443364 -0.08735
C_ C_ 0.956692 0.178546 0.438315 -0.08735
C_ C_ 0.975683 0.179148 0.410729 -0.05681
C_ C_ 0.942277 0.167681 0.387865 -0.08735
C_ C_ 0.627219 0.274014 0.410752 0.68181
C_ C_ 0.636705 0.0801534 0.400818 0.68181
C_ C_ 0.632166 0.0247327 0.399252 -0.05681
C_ C_ 0.646983 0.490361 0.421624 -0.08735
C_ C_ 0.645039 0.437811 0.418125 -0.05681
C_ C_ 0.6382 0.414108 0.390311 -0.05681
C_ C_ 0.637122 0.44732 0.366322 -0.08735
C_ C_ 0.637576 0.501536 0.369833 -0.08735
C_ C_ 0.656556 0.406821 0.441528 -0.08735
C_ C_ 0.648864 0.352686 0.439423 -0.08735
C_ C_ 0.633542 0.33082 0.412581 -0.05681
C_ C_ 0.628765 0.360683 0.387966 -0.08735
C_ C_ 0.530045 0.174319 0.407225 0.68181
C_ C_ 0.595914 0.128759 0.482456 0.1947
C_ C_ 0.597649 0.102567 0.0095955 -0.08735
C_ C_ 0.611681 0.132347 0.0344912 -0.08735
C_ C_ 0.63195 0.18146 0.029608 -0.05681
C_ C_ 0.643211 0.197016 1.0000222627 0.18498
C_ C_ 0.684871 0.23129 0.49464 -0.08735
C_ C_ 0.673548 0.277208 0.0154031 -0.08735
C_ C_ 0.667758 0.263294 0.044652 -0.08735
C_ C_ 0.644935 0.215473 0.0528112 0.18498
C_ C_ 0.678246 0.198456 0.101008 0.44287
C_ C_ 0.589521 0.202399 0.0944363 0.44287
C_ C_ 0.582163 0.198727 0.123944 -0.05681
C_ C_ 0.534321 0.205405 0.136828 -0.08735
C_ C_ 0.526751 0.203106 0.167105 -0.08735
C_ C_ 0.566792 0.186284 0.184002 -0.05681
C_ C_ 0.615629 0.179876 0.171854 -0.05681
C_ C_ 0.623201 0.19008 0.142829 -0.05681
C_ C_ 0.673142 0.18879 0.130734 -0.05681
C_ C_ 0.714151 0.17412 0.148606 -0.08735
C_ C_ 0.706303 0.171703 0.178543 -0.08735
C_ C_ 0.656356 0.176327 0.190718 -0.05681
C_ C_ 0.647753 0.170005 0.220513 0.44287
C_ C_ 0.560171 0.181453 0.213355 0.44287
C_ C_ 0.590014 0.159206 0.261266 0.18498
C_ C_ 0.568464 0.110169 0.267363 -0.08735
C_ C_ 0.56193 0.093315 0.294523 -0.08735
C_ C_ 0.575902 0.124373 0.318438 -0.08735
C_ C_ 0.600915 0.169835 0.313077 0.18498
C_ C_ 0.600092 0.191483 0.285017 -0.05681
C_ C_ 0.620088 0.240305 0.28006 -0.08735
C_ C_ 0.643881 0.265045 0.302931 -0.08735
C_ C_ 0.649409 0.241278 0.328365 0.1947
C_ C_ 0.779673 0.323008 0.153148 0.68181
C_ C_ 0.723396 0.32475 0.150533 -0.05681
C_ C_ 0.692064 0.319784 0.174533 -0.08735
C_ C_ 0.63802 0.31599 0.169573 -0.05681
C_ C_ 0.615961 0.319206 0.14331 -0.05681
C_ C_ 0.648926 0.326098 0.120977 -0.08735
C_ C_ 0.701697 0.319776 0.124036 -0.08735
C_ C_ 0.604979 0.314258 0.194022 -0.08735
C_ C_ 0.551685 0.311612 0.19034 -0.08735
C_ C_ 0.530105 0.319458 0.1637 -0.05681
C_ C_ 0.562606 0.319179 0.138588 -0.08735
C_ C_ 0.870024 0.220527 0.157616 0.68181
C_ C_ 0.887931 0.417329 0.146742 0.68181
C_ C_ 0.884749 0.472875 0.144703 -0.05681
C_ C_ 0.870233 0.00346852 0.169006 -0.08735
C_ C_ 0.867061 0.0567421 0.165951 -0.05681
C_ C_ 0.876336 0.0802951 0.139015 -0.05681
C_ C_ 0.888395 0.0482203 0.114883 -0.08735
C_ C_ 0.874758 0.4954 0.118274 -0.08735
C_ C_ 0.860173 0.0887858 0.190336 -0.08735
C_ C_ 0.8676 0.142343 0.187683 -0.08735
C_ C_ 0.872882 0.164585 0.160209 -0.05681
C_ C_ 0.878739 0.133791 0.136007 -0.08735
C_ C_ 0.97641 0.313765 0.15269 0.68181
C_ C_ 0.913825 0.373793 0.231106 0.1947
C_ C_ 0.920724 0.39123 0.259206 -0.08735
C_ C_ 0.894972 0.366922 0.28122 -0.08735
C_ C_ 0.866013 0.322149 0.276555 -0.05681
C_ C_ 0.859665 0.306605 0.24779 0.18498
C_ C_ 0.828036 0.265687 0.241188 -0.08735
C_ C_ 0.808526 0.235104 0.262153 -0.08735
C_ C_ 0.814141 0.249187 0.291293 -0.08735
C_ C_ 0.846411 0.290204 0.298661 0.18498
C_ C_ 0.812229 0.313944 0.345705 0.44287
C_ C_ 0.898753 0.296902 0.340681 0.44287
C_ C_ 0.906339 0.301265 0.370484 -0.05681
C_ C_ 0.952596 0.290814 0.384043 -0.08735
C_ C_ 0.959183 0.299579 0.412543 -0.08735
C_ C_ 0.918404 0.307053 0.430559 -0.05681
C_ C_ 0.869691 0.315846 0.418702 -0.05681
C_ C_ 0.863931 0.314722 0.388658 -0.05681
C_ C_ 0.81567 0.315082 0.376156 -0.05681
C_ C_ 0.772798 0.322461 0.392829 -0.08735
C_ C_ 0.777008 0.327384 0.423006 -0.08735
C_ C_ 0.827308 0.322692 0.436575 -0.05681
C_ C_ 0.837232 0.333061 0.466423 0.44287
C_ C_ 0.923585 0.312141 0.460689 0.44287
C_ C_ 0.909516 0.333699 0.00611925 0.18498
C_ C_ 0.94888 0.3699 0.0112512 -0.08735
C_ C_ 0.965687 0.38077 0.0391891 -0.08735
C_ C_ 0.93814 0.357933 0.0621287 -0.08735
C_ C_ 0.899554 0.320811 0.0583035 0.18498
C_ C_ 0.884567 0.308473 0.0294762 -0.05681
C_ C_ 0.846829 0.270179 0.0254272 -0.08735
C_ C_ 0.824521 0.249452 0.0503205 -0.08735
C_ C_ 0.832398 0.270552 0.0767472 0.1947
N_ N_ 0.627412 0.167133 0.477411 -0.29468
N_ N_ 0.63754 0.202383 0.0835913 -0.17154
N_ N_ 0.60046 0.172038 0.231252 -0.17154
N_ N_ 0.625444 0.197672 0.334426 -0.29468
N_ N_ 0.883628 0.331617 0.226497 -0.29468
N_ N_ 0.852554 0.301363 0.328668 -0.17154
N_ N_ 0.885149 0.32792 0.477431 -0.17154
N_ N_ 0.873026 0.29926 0.0815288 -0.29468
O_ O_ 0.708127 0.181644 0.428084 -0.58347
O_ O_ 0.699383 0.195108 0.381777 -0.58347
O_ O_ 0.637512 0.24782 0.432046 -0.58347
O_ O_ 0.616416 0.253315 0.386972 -0.58347
O_ O_ 0.631219 0.101569 0.424414 -0.58347
O_ O_ 0.636321 0.106437 0.378068 -0.58347
O_ O_ 0.558999 0.179725 0.427753 -0.58347
O_ O_ 0.548217 0.169892 0.382329 -0.58347
O_ O_ 0.549628 0.210309 0.0770821 -0.46727
O_ O_ 0.723126 0.208515 0.0905571 -0.46727
O_ O_ 0.514043 0.177294 0.224041 -0.46727
O_ O_ 0.685441 0.160936 0.238006 -0.46727
O_ O_ 0.801113 0.328765 0.177427 -0.58347
O_ O_ 0.805546 0.319816 0.130353 -0.58347
O_ O_ 0.86746 0.246586 0.179943 -0.58347
O_ O_ 0.87646 0.241833 0.133604 -0.58347
O_ O_ 0.885405 0.396597 0.170744 -0.58347
O_ O_ 0.887801 0.391748 0.123831 -0.58347
O_ O_ 0.947465 0.31664 0.174747 -0.58347
O_ O_ 0.956675 0.317655 0.127206 -0.58347
O_ O_ 0.935503 0.274112 0.327172 -0.46727
O_ O_ 0.767448 0.324801 0.333805 -0.46727
O_ O_ 0.963967 0.297217 0.474158 -0.46727
O_ O_ 0.800881 0.346457 0.483811 -0.46727
Zn Zn 0.623213 0.181031 0.880949 0.90689
Zn Zn 0.633376 0.181432 0.928196 0.90689
Zn Zn 0.872248 0.326558 0.63021 0.90689
Zn Zn 0.860969 0.331214 0.677303 0.90689
H_ H_ 0.8045 0.180082 0.944696 0.11455
H_ H_ 0.872381 0.175198 0.845197 0.11455
H_ H_ 0.782201 0.165161 0.852875 0.11455
H_ H_ 0.888763 0.181982 0.961599 0.11455
H_ H_ 0.97961 0.183473 0.955646 0.11455
H_ H_ 0.958471 0.175455 0.86403 0.11455
H_ H_ 0.64572 0.0143613 0.942204 0.11455
H_ H_ 0.665648 0.436634 0.852698 0.11455
H_ H_ 0.646543 0.021363 0.850195 0.11455
H_ H_ 0.579397 0.435103 0.956076 0.11455
H_ H_ 0.579138 0.34084 0.955482 0.11455
H_ H_ 0.661819 0.34774 0.875889 0.11455
H_ H_ 0.591463 0.0970093 0.964577 0.11455
H_ H_ 0.570604 0.0758674 0.513997 0.11455
H_ H_ 0.605546 0.121833 0.555947 0.11455
H_ H_ 0.679179 0.252763 0.973192 0.11455
H_ H_ 0.725629 0.294954 0.509793 0.11455
H_ H_ 0.699406 0.278191 0.561358 0.11455
H_ H_ 0.507825 0.213915 0.620378 0.11455
H_ H_ 0.491632 0.192131 0.669389 0.11455
H_ H_ 0.74894 0.134628 0.635612 0.11455
H_ H_ 0.736247 0.128991 0.68751 0.11455
H_ H_ 0.53086 0.0992778 0.750017 0.11455
H_ H_ 0.504637 0.0859251 0.80249 0.11455
H_ H_ 0.550231 0.134296 0.84045 0.11455
H_ H_ 0.660397 0.225562 0.754536 0.11455
H_ H_ 0.697537 0.274725 0.792357 0.11455
H_ H_ 0.673984 0.25591 0.844461 0.11455
H_ H_ 0.695789 0.326805 0.696326 0.11455
H_ H_ 0.621422 0.319155 0.599831 0.11455
H_ H_ 0.714871 0.316745 0.604739 0.11455
H_ H_ 0.610923 0.342755 0.717309 0.11455
H_ H_ 0.521462 0.3411 0.709557 0.11455
H_ H_ 0.536153 0.331642 0.619474 0.11455
H_ H_ 0.882835 0.495606 0.69126 0.11455
H_ H_ 0.859084 0.0702024 0.596883 0.11455
H_ H_ 0.846481 0.487159 0.600247 0.11455
H_ H_ 0.875039 0.0861964 0.715006 0.11455
H_ H_ 0.875672 0.180851 0.710093 0.11455
H_ H_ 0.861567 0.158844 0.61782 0.11455
H_ H_ 0.913986 0.398668 0.713417 0.11455
H_ H_ 0.938696 0.417605 0.763656 0.11455
H_ H_ 0.899109 0.370974 0.803753 0.11455
H_ H_ 0.794419 0.263998 0.721089 0.11455
H_ H_ 0.772774 0.207307 0.760027 0.11455
H_ H_ 0.788733 0.226441 0.809616 0.11455
H_ H_ 0.99489 0.308018 0.86302 0.11455
H_ H_ 0.00958155 0.303683 0.916131 0.11455
H_ H_ 0.742745 0.3223 0.888164 0.11455
H_ H_ 0.760103 0.338384 0.939234 0.11455
H_ H_ 0.968699 0.386953 0.993656 0.11455
H_ H_ 0.954111 0.438468 0.5408 0.11455
H_ H_ 0.915708 0.395716 0.584419 0.11455
H_ H_ 0.845976 0.248339 0.508762 0.11455
H_ H_ 0.793042 0.220812 0.548584 0.11455
H_ H_ 0.808681 0.257546 0.59641 0.11455
C_ C_ 0.728564 0.182012 0.902826 0.68181
C_ C_ 0.78451 0.183109 0.898942 -0.05681
C_ C_ 0.818101 0.185019 0.922142 -0.08735
C_ C_ 0.871435 0.178414 0.917307 -0.05681
C_ C_ 0.891645 0.172706 0.889583 -0.05681
C_ C_ 0.857537 0.173728 0.867086 -0.08735
C_ C_ 0.803988 0.174839 0.871618 -0.08735
C_ C_ 0.90293 0.175751 0.940497 -0.08735
C_ C_ 0.955442 0.176533 0.937586 -0.08735
C_ C_ 0.976918 0.173697 0.909031 -0.05681
C_ C_ 0.943894 0.173061 0.884719 -0.08735
C_ C_ 0.625183 0.279529 0.911467 0.68181
C_ C_ 0.641603 0.0831381 0.89787 0.68181
C_ C_ 0.644734 0.0276248 0.896446 -0.05681
C_ C_ 0.625641 0.498664 0.923216 -0.08735
C_ C_ 0.627926 0.445873 0.920225 -0.05681
C_ C_ 0.648811 0.422844 0.896008 -0.05681
C_ C_ 0.662064 0.454203 0.872667 -0.08735
C_ C_ 0.658904 0.505457 0.874909 -0.08735
C_ C_ 0.603777 0.415785 0.940902 -0.08735
C_ C_ 0.603285 0.361225 0.93944 -0.08735
C_ C_ 0.623965 0.337017 0.914807 -0.05681
C_ C_ 0.645041 0.368386 0.89282 -0.08735
C_ C_ 0.531145 0.170272 0.907222 0.68181
C_ C_ 0.606061 0.120711 0.981929 0.1947
C_ C_ 0.591367 0.107531 0.510658 -0.08735
C_ C_ 0.610292 0.135023 0.53422 -0.08735
C_ C_ 0.63848 0.179052 0.52912 -0.05681
C_ C_ 0.648758 0.193113 0.500324 0.18498
C_ C_ 0.665795 0.243196 0.993491 -0.08735
C_ C_ 0.703654 0.261407 0.516546 -0.08735
C_ C_ 0.686628 0.252551 0.544782 -0.08735
C_ C_ 0.654758 0.21271 0.551221 0.18498
C_ C_ 0.684197 0.183391 0.598951 0.44287
C_ C_ 0.597629 0.20601 0.593054 0.44287
C_ C_ 0.58752 0.191595 0.621545 -0.05681
C_ C_ 0.54027 0.200926 0.633686 -0.08735
C_ C_ 0.529824 0.186333 0.661049 -0.08735
C_ C_ 0.56998 0.176485 0.680677 -0.05681
C_ C_ 0.619166 0.171121 0.669437 -0.05681
C_ C_ 0.626867 0.179006 0.639118 -0.05681
C_ C_ 0.676078 0.169305 0.627662 -0.05681
C_ C_ 0.714245 0.150883 0.645887 -0.08735
C_ C_ 0.707993 0.147165 0.67587 -0.08735
C_ C_ 0.659792 0.153996 0.687545 -0.05681
C_ C_ 0.648654 0.144808 0.717066 0.44287
C_ C_ 0.563447 0.174226 0.711001 0.44287
C_ C_ 0.590534 0.151681 0.758834 0.18498
C_ C_ 0.55096 0.11899 0.766622 -0.08735
C_ C_ 0.539579 0.108014 0.795854 -0.08735
C_ C_ 0.562486 0.136596 0.817429 -0.08735
C_ C_ 0.602455 0.169339 0.811174 0.18498
C_ C_ 0.617882 0.176743 0.781793 -0.05681
C_ C_ 0.65554 0.212791 0.775766 -0.08735
C_ C_ 0.673492 0.242862 0.798068 -0.08735
C_ C_ 0.661008 0.230368 0.82697 0.1947
C_ C_ 0.769531 0.328283 0.653221 0.68181
C_ C_ 0.712582 0.322429 0.650827 -0.05681
C_ C_ 0.680003 0.32383 0.675453 -0.08735
C_ C_ 0.626279 0.327842 0.671954 -0.05681
C_ C_ 0.606272 0.328841 0.644018 -0.05681
C_ C_ 0.638094 0.320083 0.620374 -0.08735
C_ C_ 0.690957 0.318971 0.623437 -0.08735
C_ C_ 0.594939 0.33805 0.694717 -0.08735
C_ C_ 0.543118 0.336865 0.691101 -0.08735
C_ C_ 0.521461 0.32905 0.6637 -0.05681
C_ C_ 0.553378 0.329264 0.640763 -0.08735
C_ C_ 0.866599 0.228779 0.659013 0.68181
C_ C_ 0.865937 0.430254 0.647148 0.68181
C_ C_ 0.863732 0.484775 0.645978 -0.05681
C_ C_ 0.860374 0.0175369 0.673754 -0.08735
C_ C_ 0.864827 0.0695449 0.670502 -0.05681
C_ C_ 0.860994 0.0908091 0.641859 -0.05681
C_ C_ 0.857041 0.0564238 0.618119 -0.08735
C_ C_ 0.851805 0.508007 0.619715 -0.08735
C_ C_ 0.87125 0.101522 0.694133 -0.08735
C_ C_ 0.870047 0.155857 0.690712 -0.08735
C_ C_ 0.867516 0.174371 0.663194 -0.05681
C_ C_ 0.866538 0.143246 0.638676 -0.08735
C_ C_ 0.96381 0.3206 0.65728 0.68181
C_ C_ 0.895698 0.37782 0.731073 0.1947
C_ C_ 0.907287 0.392332 0.759502 -0.08735
C_ C_ 0.888459 0.361791 0.782132 -0.08735
C_ C_ 0.85645 0.319922 0.776125 -0.05681
C_ C_ 0.846848 0.306362 0.746649 0.18498
C_ C_ 0.81319 0.266001 0.742007 -0.08735
C_ C_ 0.792809 0.238901 0.765062 -0.08735
C_ C_ 0.810264 0.244847 0.792655 -0.08735
C_ C_ 0.84171 0.286385 0.798965 0.18498
C_ C_ 0.813935 0.313092 0.846741 0.44287
C_ C_ 0.901752 0.296118 0.838776 0.44287
C_ C_ 0.912612 0.308183 0.867579 -0.05681
C_ C_ 0.962305 0.308083 0.877936 -0.08735
C_ C_ 0.972038 0.305459 0.908398 -0.08735
C_ C_ 0.930935 0.307346 0.927365 -0.05681
C_ C_ 0.882311 0.318119 0.916657 -0.05681
C_ C_ 0.872633 0.315086 0.886596 -0.05681
C_ C_ 0.822791 0.321438 0.876029 -0.05681
C_ C_ 0.783206 0.319405 0.895953 -0.08735
C_ C_ 0.792131 0.329465 0.925156 -0.08735
C_ C_ 0.8412 0.323812 0.936662 -0.05681
C_ C_ 0.852379 0.328554 0.965674 0.44287
C_ C_ 0.939789 0.310281 0.95781 0.44287
C_ C_ 0.895057 0.340889 0.506744 0.18498
C_ C_ 0.927748 0.382313 0.5123 -0.08735
C_ C_ 0.936651 0.400704 0.539442 -0.08735
C_ C_ 0.913234 0.378909 0.563094 -0.08735
C_ C_ 0.886551 0.332695 0.559876 0.18498
C_ C_ 0.877245 0.314104 0.531425 -0.05681
C_ C_ 0.848924 0.2687 0.528444 -0.08735
C_ C_ 0.826832 0.245616 0.551665 -0.08735
C_ C_ 0.831223 0.268952 0.578625 0.1947
N_ N_ 0.632259 0.166172 0.977961 -0.29468
N_ N_ 0.644107 0.197988 0.580999 -0.17154
N_ N_ 0.602247 0.159192 0.7282 -0.17154
N_ N_ 0.631004 0.189484 0.832995 -0.29468
N_ N_ 0.864237 0.336501 0.725943 -0.29468
N_ N_ 0.852489 0.299051 0.828846 -0.17154
N_ N_ 0.899161 0.31983 0.976077 -0.17154
N_ N_ 0.864491 0.309265 0.582972 -0.29468
O_ O_ 0.708383 0.19402 0.925901 -0.58347
O_ O_ 0.701938 0.180384 0.880901 -0.58347
O_ O_ 0.61585 0.25358 0.932751 -0.58347
O_ O_ 0.626048 0.258134 0.887028 -0.58347
O_ O_ 0.647889 0.107272 0.921553 -0.58347
O_ O_ 0.62731 0.105728 0.875274 -0.58347
O_ O_ 0.562342 0.16034 0.927224 -0.58347
O_ O_ 0.548325 0.183723 0.882293 -0.58347
O_ O_ 0.562187 0.222492 0.576389 -0.46727
O_ O_ 0.73008 0.173627 0.58716 -0.46727
O_ O_ 0.521826 0.19183 0.722473 -0.46727
O_ O_ 0.68484 0.129811 0.735132 -0.46727
O_ O_ 0.788409 0.335128 0.678209 -0.58347
O_ O_ 0.797364 0.318826 0.631845 -0.58347
O_ O_ 0.857035 0.256093 0.680012 -0.58347
O_ O_ 0.877949 0.25104 0.634744 -0.58347
O_ O_ 0.865485 0.408337 0.672599 -0.58347
O_ O_ 0.865103 0.403366 0.625172 -0.58347
O_ O_ 0.93403 0.324771 0.678546 -0.58347
O_ O_ 0.948921 0.331194 0.632365 -0.58347
O_ O_ 0.938139 0.287224 0.821093 -0.46727
O_ O_ 0.767413 0.317086 0.835637 -0.46727
O_ O_ 0.983134 0.293219 0.968148 -0.46727
O_ O_ 0.816248 0.343947 0.98148 -0.46727
Zn Zn 0.623949 0.681706 0.382173 0.90689
Zn Zn 0.635692 0.678827 0.431782 0.90689
Zn Zn 0.878415 0.816373 0.129745 0.90689
Zn Zn 0.867245 0.820974 0.177019 0.90689
H_ H_ 0.807401 0.691604 0.445659 0.11455
H_ H_ 0.875239 0.660729 0.347921 0.11455
H_ H_ 0.782312 0.668294 0.354816 0.11455
H_ H_ 0.895397 0.688087 0.46548 0.11455
H_ H_ 0.982616 0.695553 0.456082 0.11455
H_ H_ 0.962598 0.682784 0.366296 0.11455
H_ H_ 0.65059 0.510701 0.443018 0.11455
H_ H_ 0.614187 0.928302 0.350334 0.11455
H_ H_ 0.633415 0.524053 0.349969 0.11455
H_ H_ 0.648888 0.926557 0.467275 0.11455
H_ H_ 0.6336 0.835438 0.464122 0.11455
H_ H_ 0.608202 0.851833 0.374695 0.11455
H_ H_ 0.593581 0.598114 0.46392 0.11455
H_ H_ 0.565236 0.585452 0.0212166 0.11455
H_ H_ 0.61444 0.629615 0.0603467 0.11455
H_ H_ 0.691668 0.743203 0.473556 0.11455
H_ H_ 0.732847 0.797672 0.00140827 0.11455
H_ H_ 0.71956 0.782606 0.0564394 0.11455
H_ H_ 0.523294 0.702661 0.118109 0.11455
H_ H_ 0.508855 0.679522 0.168041 0.11455
H_ H_ 0.774765 0.677936 0.137988 0.11455
H_ H_ 0.762526 0.66954 0.189521 0.11455
H_ H_ 0.559124 0.587549 0.245193 0.11455
H_ H_ 0.542843 0.562333 0.296534 0.11455
H_ H_ 0.561997 0.621751 0.334812 0.11455
H_ H_ 0.670241 0.737803 0.257376 0.11455
H_ H_ 0.689637 0.789928 0.297094 0.11455
H_ H_ 0.673264 0.756845 0.345663 0.11455
H_ H_ 0.700143 0.806745 0.193999 0.11455
H_ H_ 0.625647 0.833613 0.098913 0.11455
H_ H_ 0.71954 0.837153 0.10341 0.11455
H_ H_ 0.615764 0.793804 0.214082 0.11455
H_ H_ 0.527197 0.792706 0.207086 0.11455
H_ H_ 0.542729 0.825404 0.118065 0.11455
H_ H_ 0.867702 0.986147 0.191444 0.11455
H_ H_ 0.855173 0.565207 0.0947985 0.11455
H_ H_ 0.891976 0.972649 0.0989304 0.11455
H_ H_ 0.908562 0.573401 0.210658 0.11455
H_ H_ 0.920711 0.664708 0.199557 0.11455
H_ H_ 0.856024 0.649021 0.118155 0.11455
H_ H_ 0.914543 0.893887 0.213447 0.11455
H_ H_ 0.925219 0.926674 0.2633 0.11455
H_ H_ 0.883553 0.887194 0.301928 0.11455
H_ H_ 0.804944 0.750393 0.223328 0.11455
H_ H_ 0.801865 0.692155 0.264252 0.11455
H_ H_ 0.816723 0.720691 0.312232 0.11455
H_ H_ 0.98624 0.802353 0.368769 0.11455
H_ H_ -0.0007540000000000324 0.810847 0.423476 0.11455
H_ H_ 0.737625 0.845258 0.385667 0.11455
H_ H_ 0.752026 0.862537 0.435526 0.11455
H_ H_ 0.937047 0.921992 0.49645 0.11455
H_ H_ 0.950081 0.944119 0.0509263 0.11455
H_ H_ 0.941991 0.880066 0.0866311 0.11455
H_ H_ 0.837827 0.774269 0.0026069 0.11455
H_ H_ 0.807861 0.718173 0.0425793 0.11455
H_ H_ 0.832206 0.7393 0.0911964 0.11455
C_ C_ 0.730746 0.678299 0.405881 0.68181
C_ C_ 0.786142 0.67963 0.401376 -0.05681
C_ C_ 0.819749 0.683437 0.425054 -0.08735
C_ C_ 0.871964 0.686295 0.419765 -0.05681
C_ C_ 0.893103 0.680601 0.391594 -0.05681
C_ C_ 0.859528 0.669648 0.369202 -0.08735
C_ C_ 0.807305 0.670093 0.373755 -0.08735
C_ C_ 0.904656 0.690781 0.443429 -0.08735
C_ C_ 0.956333 0.690358 0.438731 -0.08735
C_ C_ 0.977049 0.684874 0.410786 -0.05681
C_ C_ 0.945566 0.680643 0.387619 -0.08735
C_ C_ 0.626048 0.777777 0.415946 0.68181
C_ C_ 0.637717 0.581155 0.399667 0.68181
C_ C_ 0.642101 0.523405 0.397395 -0.05681
C_ C_ 0.641346 0.995093 0.423274 -0.08735
C_ C_ 0.638712 0.942372 0.422508 -0.05681
C_ C_ 0.628625 0.917247 0.395339 -0.05681
C_ C_ 0.621616 0.9465 0.370916 -0.08735
C_ C_ 0.623051 0.99883 0.372608 -0.08735
C_ C_ 0.639425 0.911481 0.446953 -0.08735
C_ C_ 0.637389 0.858195 0.444428 -0.08735
C_ C_ 0.624402 0.834001 0.419039 -0.05681
C_ C_ 0.618226 0.86603 0.394677 -0.08735
C_ C_ 0.52928 0.673439 0.406625 0.68181
C_ C_ 0.60508 0.621033 0.482633 0.1947
C_ C_ 0.591189 0.614023 0.015642 -0.08735
C_ C_ 0.619365 0.640364 0.0375596 -0.08735
C_ C_ 0.651625 0.679976 0.0295345 -0.05681
C_ C_ 0.660072 0.687667 1.000547541 0.18498
C_ C_ 0.675662 0.737009 0.49572 -0.08735
C_ C_ 0.710591 0.763724 0.0110899 -0.08735
C_ C_ 0.700961 0.756071 0.0402684 -0.08735
C_ C_ 0.669222 0.715629 0.0502047 0.18498
C_ C_ 0.7016 0.693743 0.0982951 0.44287
C_ C_ 0.614845 0.715019 0.0905323 0.44287
C_ C_ 0.605901 0.700602 0.119891 -0.05681
C_ C_ 0.55587 0.695244 0.131103 -0.08735
C_ C_ 0.546227 0.681893 0.158951 -0.08735
C_ C_ 0.585042 0.677706 0.178369 -0.05681
C_ C_ 0.635923 0.672817 0.167727 -0.05681
C_ C_ 0.645663 0.683805 0.138699 -0.05681
C_ C_ 0.694338 0.686111 0.128375 -0.05681
C_ C_ 0.734986 0.6747 0.146592 -0.08735
C_ C_ 0.728154 0.671518 0.176558 -0.08735
C_ C_ 0.677397 0.666901 0.187501 -0.05681
C_ C_ 0.666311 0.662757 0.216816 0.44287
C_ C_ 0.578421 0.670045 0.208637 0.44287
C_ C_ 0.606795 0.65084 0.256583 0.18498
C_ C_ 0.575049 0.608915 0.262353 -0.08735
C_ C_ 0.562887 0.597167 0.290805 -0.08735
C_ C_ 0.575938 0.628449 0.312731 -0.08735
C_ C_ 0.610756 0.667529 0.308393 0.18498
C_ C_ 0.622592 0.682836 0.27985 -0.05681
C_ C_ 0.655032 0.726152 0.277315 -0.08735
C_ C_ 0.669513 0.755825 0.300439 -0.08735
C_ C_ 0.660167 0.737096 0.328188 0.1947
C_ C_ 0.777031 0.813917 0.151497 0.68181
C_ C_ 0.719882 0.815964 0.148504 -0.05681
C_ C_ 0.687154 0.80494 0.17191 -0.08735
C_ C_ 0.633954 0.808109 0.168628 -0.05681
C_ C_ 0.613219 0.820507 0.141956 -0.05681
C_ C_ 0.64459 0.833219 0.119768 -0.08735
C_ C_ 0.697551 0.82761 0.121816 -0.08735
C_ C_ 0.601737 0.800202 0.193009 -0.08735
C_ C_ 0.548326 0.799856 0.189558 -0.08735
C_ C_ 0.525565 0.808403 0.162248 -0.05681
C_ C_ 0.559315 0.820088 0.138446 -0.08735
C_ C_ 0.882578 0.722229 0.157667 0.68181
C_ C_ 0.873533 0.916827 0.147474 0.68181
C_ C_ 0.870978 0.97344 0.14394 -0.05681
C_ C_ 0.887906 0.504308 0.169337 -0.08735
C_ C_ 0.889521 0.556915 0.165914 -0.05681
C_ C_ 0.876787 0.578648 0.138835 -0.05681
C_ C_ 0.867139 0.5466 0.115307 -0.08735
C_ C_ 0.881678 0.99638 0.118075 -0.08735
C_ C_ 0.897571 0.588128 0.190308 -0.08735
C_ C_ 0.900416 0.640903 0.1855 -0.08735
C_ C_ 0.889363 0.664293 0.158927 -0.05681
C_ C_ 0.871833 0.632408 0.136995 -0.08735
C_ C_ 0.97151 0.819374 0.158853 0.68181
C_ C_ 0.892542 0.876372 0.230194 0.1947
C_ C_ 0.897497 0.896463 0.258193 -0.08735
C_ C_ 0.874619 0.873581 0.280698 -0.08735
C_ C_ 0.851417 0.82665 0.276041 -0.05681
C_ C_ 0.844182 0.80896 0.24751 0.18498
C_ C_ 0.821309 0.76204 0.24415 -0.08735
C_ C_ 0.815591 0.728539 0.267079 -0.08735
C_ C_ 0.822324 0.745277 0.294512 -0.08735
C_ C_ 0.837775 0.796584 0.300259 0.18498
C_ C_ 0.806775 0.821456 0.346579 0.44287
C_ C_ 0.894104 0.80886 0.340148 0.44287
C_ C_ 0.903473 0.809742 0.370352 -0.05681
C_ C_ 0.953741 0.807359 0.38309 -0.08735
C_ C_ 0.961002 0.812327 0.413656 -0.08735
C_ C_ 0.919696 0.824361 0.431617 -0.05681
C_ C_ 0.870882 0.827739 0.418268 -0.05681
C_ C_ 0.861436 0.818198 0.388598 -0.05681
C_ C_ 0.816551 0.830437 0.376239 -0.05681
C_ C_ 0.775956 0.84271 0.394728 -0.08735
C_ C_ 0.784167 0.849984 0.423388 -0.08735
C_ C_ 0.830523 0.841846 0.435988 -0.05681
C_ C_ 0.83867 0.847554 0.46633 0.44287
C_ C_ 0.925274 0.831373 0.46104 0.44287
C_ C_ 0.891406 0.859492 0.00788323 0.18498
C_ C_ 0.91565 0.905553 0.0157032 -0.08735
C_ C_ 0.928645 0.912099 0.0456413 -0.08735
C_ C_ 0.922909 0.876527 0.0658989 -0.08735
C_ C_ 0.894905 0.832627 0.058746 0.18498
C_ C_ 0.879792 0.823563 0.0289138 -0.05681
C_ C_ 0.851313 0.778459 0.0240476 -0.08735
C_ C_ 0.833692 0.748212 0.0473478 -0.08735
C_ C_ 0.846117 0.762483 0.074747 0.1947
N_ N_ 0.629154 0.665234 0.478577 -0.29468
N_ N_ 0.662946 0.708697 0.0807386 -0.17154
N_ N_ 0.617342 0.662439 0.226711 -0.17154
N_ N_ 0.630113 0.694651 0.332014 -0.29468
N_ N_ 0.862262 0.835671 0.224979 -0.29468
N_ N_ 0.846819 0.810968 0.329538 -0.17154
N_ N_ 0.88458 0.840154 0.478314 -0.17154
N_ N_ 0.874236 0.804483 0.0807631 -0.29468
O_ O_ 0.711593 0.68318 0.430802 -0.58347
O_ O_ 0.701228 0.682139 0.383963 -0.58347
O_ O_ 0.620606 0.750524 0.438222 -0.58347
O_ O_ 0.621795 0.758619 0.391476 -0.58347
O_ O_ 0.650544 0.60163 0.422654 -0.58347
O_ O_ 0.627962 0.608088 0.377938 -0.58347
O_ O_ 0.556901 0.664687 0.428291 -0.58347
O_ O_ 0.549068 0.677303 0.381959 -0.58347
O_ O_ 0.575093 0.720653 0.073537 -0.46727
O_ O_ 0.745192 0.680715 0.0859606 -0.46727
O_ O_ 0.533048 0.675883 0.219747 -0.46727
O_ O_ 0.704082 0.650373 0.233482 -0.46727
O_ O_ 0.796572 0.810776 0.176124 -0.58347
O_ O_ 0.803966 0.820182 0.129583 -0.58347
O_ O_ 0.875725 0.746414 0.180545 -0.58347
O_ O_ 0.875807 0.746137 0.133921 -0.58347
O_ O_ 0.860501 0.896652 0.170944 -0.58347
O_ O_ 0.880528 0.891305 0.125765 -0.58347
O_ O_ 0.944312 0.826179 0.17988 -0.58347
O_ O_ 0.953002 0.816914 0.133578 -0.58347
O_ O_ 0.934159 0.803639 0.322665 -0.46727
O_ O_ 0.760003 0.82318 0.337634 -0.46727
O_ O_ 0.972445 0.828052 0.472667 -0.46727
O_ O_ 0.802108 0.864387 0.481877 -0.46727
Zn Zn 0.62091 0.69065 0.883614 0.90689
Zn Zn 0.629545 0.678208 0.933129 0.90689
Zn Zn 0.872776 0.830714 0.632204 0.90689
Zn Zn 0.867637 0.836899 0.680584 0.90689
H_ H_ 0.796675 0.69548 0.946464 0.11455
H_ H_ 0.866934 0.661296 0.850447 0.11455
H_ H_ 0.775121 0.672357 0.856669 0.11455
H_ H_ 0.883375 0.701857 0.965105 0.11455
H_ H_ 0.975623 0.687984 0.958534 0.11455
H_ H_ 0.953484 0.680196 0.868114 0.11455
H_ H_ 0.613388 0.513627 0.944093 0.11455
H_ H_ 0.624026 0.931398 0.848569 0.11455
H_ H_ 0.66117 0.529956 0.85544 0.11455
H_ H_ 0.636135 0.929753 0.965653 0.11455
H_ H_ 0.611229 0.837639 0.9625 0.11455
H_ H_ 0.630873 0.848342 0.872821 0.11455
H_ H_ 0.568618 0.610948 0.972305 0.11455
H_ H_ 0.582707 0.563032 0.512373 0.11455
H_ H_ 0.609234 0.611718 0.554284 0.11455
H_ H_ 0.70162 0.73117 0.969625 0.11455
H_ H_ 0.719286 0.795917 0.514877 0.11455
H_ H_ 0.695401 0.776348 0.565807 0.11455
H_ H_ 0.507762 0.696508 0.62018 0.11455
H_ H_ 0.491808 0.683541 0.671918 0.11455
H_ H_ 0.756635 0.657622 0.638836 0.11455
H_ H_ 0.743765 0.646903 0.692326 0.11455
H_ H_ 0.567844 0.575047 0.750249 0.11455
H_ H_ 0.556426 0.550032 0.799304 0.11455
H_ H_ 0.586816 0.603312 0.838249 0.11455
H_ H_ 0.642805 0.749421 0.756501 0.11455
H_ H_ 0.671508 0.800463 0.796336 0.11455
H_ H_ 0.66534 0.76547 0.845336 0.11455
H_ H_ 0.697928 0.812444 0.698696 0.11455
H_ H_ 0.629317 0.842047 0.602282 0.11455
H_ H_ 0.719771 0.848316 0.610292 0.11455
H_ H_ 0.610979 0.78504 0.714757 0.11455
H_ H_ 0.520861 0.789897 0.707437 0.11455
H_ H_ 0.544109 0.835134 0.618962 0.11455
H_ H_ 0.856026 1.00128785 0.694273 0.11455
H_ H_ 0.848051 0.580465 0.597265 0.11455
H_ H_ 0.833408 0.981706 0.605341 0.11455
H_ H_ 0.897421 0.578664 0.711969 0.11455
H_ H_ 0.899363 0.671697 0.70833 0.11455
H_ H_ 0.866733 0.66081 0.617949 0.11455
H_ H_ 0.924105 0.905932 0.718736 0.11455
H_ H_ 0.917858 0.941231 0.767208 0.11455
H_ H_ 0.87747 0.889257 0.805775 0.11455
H_ H_ 0.814019 0.763013 0.720637 0.11455
H_ H_ 0.7978 0.698668 0.756399 0.11455
H_ H_ 0.819661 0.715845 0.806155 0.11455
H_ H_ 0.991778 0.807374 0.873588 0.11455
H_ H_ 0.996 0.817539 0.923367 0.11455
H_ H_ 0.73974 0.854089 0.885958 0.11455
H_ H_ 0.744702 0.857386 0.935802 0.11455
H_ H_ 0.92919 0.93136 0.999148419 0.11455
H_ H_ 0.933643 0.956279 0.547511 0.11455
H_ H_ 0.910604 0.90038 0.586641 0.11455
H_ H_ 0.843916 0.765292 0.50571 0.11455
H_ H_ 0.807712 0.719455 0.547211 0.11455
H_ H_ 0.805323 0.764206 0.596003 0.11455
C_ C_ 0.725344 0.692452 0.905201 0.68181
C_ C_ 0.780005 0.690729 0.901167 -0.05681
C_ C_ 0.811195 0.692556 0.925211 -0.08735
C_ C_ 0.865571 0.690443 0.920811 -0.05681
C_ C_ 0.886116 0.680723 0.89363 -0.05681
C_ C_ 0.853281 0.673227 0.870854 -0.08735
C_ C_ 0.800277 0.675157 0.874318 -0.08735
C_ C_ 0.8977 0.693913 0.943762 -0.08735
C_ C_ 0.951641 0.691535 0.939514 -0.08735
C_ C_ 0.971946 0.685433 0.912662 -0.05681
C_ C_ 0.938739 0.679151 0.888954 -0.08735
C_ C_ 0.613266 0.782829 0.913721 0.68181
C_ C_ 0.636857 0.586579 0.903688 0.68181
C_ C_ 0.642605 0.53087 0.900417 -0.05681
C_ C_ 0.643079 -0.0026530000000000165 0.921458 -0.08735
C_ C_ 0.639541 0.942685 0.92053 -0.05681
C_ C_ 0.636012 0.920763 0.893878 -0.05681
C_ C_ 0.633738 0.949515 0.86923 -0.08735
C_ C_ 0.637972 0.00190465 0.869576 -0.08735
C_ C_ 0.632026 0.911166 0.944949 -0.08735
C_ C_ 0.621493 0.860639 0.943366 -0.08735
C_ C_ 0.616654 0.83968 0.916268 -0.05681
C_ C_ 0.630437 0.869791 0.891938 -0.08735
C_ C_ 0.526332 0.68167 0.910197 0.68181
C_ C_ 0.592109 0.631185 0.987942 0.1947
C_ C_ 0.600787 0.59997 0.509311 -0.08735
C_ C_ 0.614015 0.629788 0.532509 -0.08735
C_ C_ 0.633103 0.679364 0.529064 -0.05681
C_ C_ 0.645581 0.694413 0.500816 0.18498
C_ C_ 0.692304 0.728137 0.992048 -0.08735
C_ C_ 0.69647 0.764118 0.519335 -0.08735
C_ C_ 0.683143 0.75174 0.548059 -0.08735
C_ C_ 0.653261 0.708388 0.552208 0.18498
C_ C_ 0.685908 0.680277 0.599154 0.44287
C_ C_ 0.598888 0.702939 0.594459 0.44287
C_ C_ 0.587622 0.689345 0.623491 -0.05681
C_ C_ 0.538696 0.688795 0.634366 -0.08735
C_ C_ 0.53059 0.681525 0.663468 -0.08735
C_ C_ 0.572206 0.672718 0.682367 -0.05681
C_ C_ 0.621411 0.669858 0.670674 -0.05681
C_ C_ 0.628074 0.673188 0.640623 -0.05681
C_ C_ 0.675858 0.66775 0.629222 -0.05681
C_ C_ 0.719214 0.659349 0.647674 -0.08735
C_ C_ 0.711476 0.65359 0.678108 -0.08735
C_ C_ 0.663412 0.660299 0.688907 -0.05681
C_ C_ 0.655313 0.663936 0.718072 0.44287
C_ C_ 0.565159 0.666926 0.711731 0.44287
C_ C_ 0.60102 0.650203 0.760344 0.18498
C_ C_ 0.581119 0.602065 0.767521 -0.08735
C_ C_ 0.571815 0.587862 0.795482 -0.08735
C_ C_ 0.59158 0.616139 0.817962 -0.08735
C_ C_ 0.611935 0.665696 0.813008 0.18498
C_ C_ 0.614673 0.683678 0.783795 -0.05681
C_ C_ 0.634747 0.732891 0.778103 -0.08735
C_ C_ 0.654865 0.761239 0.800342 -0.08735
C_ C_ 0.646072 0.746108 0.828271 0.1947
C_ C_ 0.772525 0.826161 0.658554 0.68181
C_ C_ 0.716128 0.827218 0.655646 -0.05681
C_ C_ 0.683597 0.814651 0.678238 -0.08735
C_ C_ 0.631126 0.813085 0.673461 -0.05681
C_ C_ 0.611242 0.827538 0.646128 -0.05681
C_ C_ 0.643332 0.835017 0.623608 -0.08735
C_ C_ 0.696366 0.833028 0.627626 -0.08735
C_ C_ 0.597861 0.798681 0.694811 -0.08735
C_ C_ 0.545713 0.802528 0.689914 -0.08735
C_ C_ 0.526095 0.81632 0.663069 -0.05681
C_ C_ 0.558908 0.822291 0.639886 -0.08735
C_ C_ 0.880428 0.731858 0.659816 0.68181
C_ C_ 0.857973 0.929244 0.653488 0.68181
C_ C_ 0.850617 0.985111 0.649987 -0.05681
C_ C_ 0.876381 0.513969 0.670081 -0.08735
C_ C_ 0.88013 0.566859 0.666959 -0.05681
C_ C_ 0.870068 0.590999 0.640936 -0.05681
C_ C_ 0.857273 0.560498 0.617737 -0.08735
C_ C_ 0.84743 1.00490102 0.622404 -0.08735
C_ C_ 0.890896 0.597221 0.690536 -0.08735
C_ C_ 0.891909 0.650501 0.689171 -0.08735
C_ C_ 0.883028 0.675437 0.662301 -0.05681
C_ C_ 0.874596 0.643309 0.638342 -0.08735
C_ C_ 0.970272 0.823072 0.653796 0.68181
C_ C_ 0.902977 0.885063 0.735416 0.1947
C_ C_ 0.90034 0.904501 0.762213 -0.08735
C_ C_ 0.875045 0.876267 0.783691 -0.08735
C_ C_ 0.856483 0.82805 0.777832 -0.05681
C_ C_ 0.85277 0.813062 0.748735 0.18498
C_ C_ 0.825905 0.76977 0.741591 -0.08735
C_ C_ 0.81404 0.734372 0.763038 -0.08735
C_ C_ 0.821188 0.74679 0.792644 -0.08735
C_ C_ 0.842595 0.794544 0.800325 0.18498
C_ C_ 0.808551 0.812161 0.848267 0.44287
C_ C_ 0.897587 0.799448 0.842548 0.44287
C_ C_ 0.906073 0.80976 0.871819 -0.05681
C_ C_ 0.955993 0.807549 0.884829 -0.08735
C_ C_ 0.960031 0.814609 0.914765 -0.08735
C_ C_ 0.91842 0.826418 0.932106 -0.05681
C_ C_ 0.869443 0.828686 0.920082 -0.05681
C_ C_ 0.863217 0.820565 0.889344 -0.05681
C_ C_ 0.815955 0.828441 0.876788 -0.05681
C_ C_ 0.776137 0.845557 0.894712 -0.08735
C_ C_ 0.780021 0.850203 0.922969 -0.08735
C_ C_ 0.829408 0.843706 0.936376 -0.05681
C_ C_ 0.837393 0.854814 0.966048 0.44287
C_ C_ 0.923201 0.835989 0.961835 0.44287
C_ C_ 0.894732 0.853374 0.508163 0.18498
C_ C_ 0.91915 0.899526 0.514233 -0.08735
C_ C_ 0.923362 0.917409 0.542476 -0.08735
C_ C_ 0.904031 0.889026 0.564535 -0.08735
C_ C_ 0.877708 0.844401 0.559988 0.18498
C_ C_ 0.875491 0.824799 0.531394 -0.05681
C_ C_ 0.849673 0.779428 0.527063 -0.08735
C_ C_ 0.826102 0.756628 0.550637 -0.08735
C_ C_ 0.826564 0.779067 0.577966 0.1947
N_ N_ 0.630372 0.665774 0.980579 -0.29468
N_ N_ 0.644981 0.693127 0.582074 -0.17154
N_ N_ 0.605812 0.663873 0.729431 -0.17154
N_ N_ 0.62258 0.69861 0.835139 -0.29468
N_ N_ 0.875962 0.841463 0.728353 -0.29468
N_ N_ 0.849369 0.804335 0.831116 -0.17154
N_ N_ 0.884627 0.85205 0.978049 -0.17154
N_ N_ 0.859259 0.817342 0.583005 -0.29468
O_ O_ 0.705609 0.679591 0.928155 -0.58347
O_ O_ 0.696998 0.704395 0.88498 -0.58347
O_ O_ 0.627732 0.751921 0.932877 -0.58347
O_ O_ 0.600157 0.764266 0.889518 -0.58347
O_ O_ 0.626218 0.604922 0.927858 -0.58347
O_ O_ 0.640638 0.616244 0.882623 -0.58347
O_ O_ 0.55327 0.678351 0.932925 -0.58347
O_ O_ 0.546773 0.678696 0.885935 -0.58347
O_ O_ 0.564244 0.72748 0.580251 -0.46727
O_ O_ 0.731484 0.67385 0.588066 -0.46727
O_ O_ 0.51996 0.662706 0.722066 -0.46727
O_ O_ 0.693814 0.667669 0.73659 -0.46727
O_ O_ 0.793397 0.837898 0.681586 -0.58347
O_ O_ 0.798371 0.823031 0.635227 -0.58347
O_ O_ 0.877955 0.759631 0.681878 -0.58347
O_ O_ 0.870375 0.753198 0.635777 -0.58347
O_ O_ 0.865666 0.911013 0.677293 -0.58347
O_ O_ 0.868441 0.904515 0.631204 -0.58347
O_ O_ 0.945866 0.844718 0.674449 -0.58347
O_ O_ 0.953096 0.828265 0.628985 -0.58347
O_ O_ 0.934779 0.782542 0.826843 -0.46727
O_ O_ 0.763086 0.802592 0.839061 -0.46727
O_ O_ 0.966222 0.823699 0.975581 -0.46727
O_ O_ 0.798402 0.87548 0.980772 -0.46727
