_cell_length_a 26.376
_cell_length_b 26.400000238300095
_cell_length_c 46.67800035477134
_cell_angle_alpha 90.00700052986613
_cell_angle_beta 89.99899961309502
_cell_angle_gamma 90.45000003183146
_symmetry_space_group_name_H-M         'P 1'
_symmetry_Int_Tables_number            1
loop_
_symmetry_equiv_pos_as_xyz
   'x, y, z'
                         
loop_
_atom_site_label
_atom_site_type_symbol
_atom_site_fract_x 
_atom_site_fract_y
_atom_site_fract_z
_atom_site_charge
Zn Zn 0.140481 0.181097 0.380625 0.90689
Zn Zn 0.148141 0.175321 0.427907 0.90689
Zn Zn 0.369425 0.304597 0.131918 0.90689
Zn Zn 0.361097 0.311539 0.180955 0.90689
H_ H_ 0.311813 0.201831 0.44097 0.11455
H_ H_ 0.392235 0.157576 0.347772 0.11455
H_ H_ 0.299874 0.146495 0.354309 0.11455
H_ H_ 0.403845 0.209872 0.461521 0.11455
H_ H_ 0.492405 0.203553 0.456473 0.11455
H_ H_ 0.473278 0.175257 0.367269 0.11455
H_ H_ 0.113197 0.0161852 0.438237 0.11455
H_ H_ 0.120953 0.432767 0.34634 0.11455
H_ H_ 0.148167 0.0122549 0.350008 0.11455
H_ H_ 0.164273 0.431808 0.46184 0.11455
H_ H_ 0.16043 0.339096 0.460106 0.11455
H_ H_ 0.108294 0.347252 0.372992 0.11455
H_ H_ 0.106813 0.087364 0.466088 0.11455
H_ H_ 0.094359 0.0714653 0.0208269 0.11455
H_ H_ 0.118259 0.128538 0.0604108 0.11455
H_ H_ 0.205261 0.238947 0.470002 0.11455
H_ H_ 0.226313 0.309671 0.0121338 0.11455
H_ H_ 0.205254 0.290271 0.0628434 0.11455
H_ H_ 0.0208142 0.200103 0.122537 0.11455
H_ H_ 0.0119723 0.202871 0.175363 0.11455
H_ H_ 0.270626 0.19511 0.139788 0.11455
H_ H_ 0.261423 0.186192 0.191988 0.11455
H_ H_ 0.0811281 0.0846359 0.246983 0.11455
H_ H_ 0.0536305 0.0654192 0.296083 0.11455
H_ H_ 0.0789496 0.119893 0.337632 0.11455
H_ H_ 0.165758 0.247058 0.258447 0.11455
H_ H_ 0.208403 0.28983 0.298002 0.11455
H_ H_ 0.191939 0.252679 0.347674 0.11455
H_ H_ 0.19115 0.31109 0.197714 0.11455
H_ H_ 0.122373 0.344954 0.100365 0.11455
H_ H_ 0.212073 0.339593 0.108033 0.11455
H_ H_ 0.103301 0.293943 0.214761 0.11455
H_ H_ 0.0163346 0.296692 0.208074 0.11455
H_ H_ 0.0382841 0.332012 0.118692 0.11455
H_ H_ 0.359227 0.480525 0.189779 0.11455
H_ H_ 0.345661 0.0605478 0.0967569 0.11455
H_ H_ 0.362529 0.468547 0.0987353 0.11455
H_ H_ 0.339582 0.0598974 0.213487 0.11455
H_ H_ 0.354098 0.152873 0.210701 0.11455
H_ H_ 0.362967 0.146359 0.118949 0.11455
H_ H_ 0.405123 0.396527 0.215065 0.11455
H_ H_ 0.429061 0.420319 0.263407 0.11455
H_ H_ 0.40074 0.369163 0.304759 0.11455
H_ H_ 0.306535 0.250254 0.225428 0.11455
H_ H_ 0.276548 0.199717 0.263892 0.11455
H_ H_ 0.302382 0.219818 0.314512 0.11455
H_ H_ 0.487242 0.320437 0.368936 0.11455
H_ H_ 0.50384 0.324857 0.421554 0.11455
H_ H_ 0.240572 0.313457 0.393175 0.11455
H_ H_ 0.251876 0.325838 0.443683 0.11455
H_ H_ 0.457409 0.406731 0.499028 0.11455
H_ H_ 0.444365 0.430637 0.047362 0.11455
H_ H_ 0.427376 0.369095 0.0875399 0.11455
H_ H_ 0.326964 0.256469 0.00520275 0.11455
H_ H_ 0.319407 0.192263 0.0441399 0.11455
H_ H_ 0.330225 0.225342 0.0943171 0.11455
C_ C_ 0.244179 0.177438 0.399602 0.68181
C_ C_ 0.300984 0.179344 0.396793 -0.05681
C_ C_ 0.330519 0.191782 0.420666 -0.08735
C_ C_ 0.383426 0.191268 0.418513 -0.05681
C_ C_ 0.404872 0.177533 0.39108 -0.05681
C_ C_ 0.374224 0.170468 0.36749 -0.08735
C_ C_ 0.324136 0.162216 0.371667 -0.08735
C_ C_ 0.41674 0.199955 0.441144 -0.08735
C_ C_ 0.469429 0.194041 0.438402 -0.08735
C_ C_ 0.49118 0.18803 0.411384 -0.05681
C_ C_ 0.458174 0.175875 0.389014 -0.08735
C_ C_ 0.143123 0.27666 0.412863 0.68181
C_ C_ 0.14231 0.0777184 0.3967 0.68181
C_ C_ 0.14074 0.0213489 0.395096 -0.05681
C_ C_ 0.142645 0.494665 0.418556 -0.08735
C_ C_ 0.145723 0.440917 0.416503 -0.05681
C_ C_ 0.134822 0.416471 0.39056 -0.05681
C_ C_ 0.127462 0.447378 0.366972 -0.08735
C_ C_ 0.12371 0.501128 0.369141 -0.08735
C_ C_ 0.157861 0.413135 0.441217 -0.08735
C_ C_ 0.154941 0.360442 0.440206 -0.08735
C_ C_ 0.141124 0.334653 0.414108 -0.05681
C_ C_ 0.125727 0.363758 0.391362 -0.08735
C_ C_ 0.0469931 0.178291 0.408304 0.68181
C_ C_ 0.124167 0.112564 0.482255 0.1947
C_ C_ 0.110829 0.108234 0.0157712 -0.08735
C_ C_ 0.124066 0.140862 0.0376102 -0.08735
C_ C_ 0.150287 0.186545 0.0305099 -0.05681
C_ C_ 0.158669 0.199454 1.00141575 0.18498
C_ C_ 0.198811 0.227351 0.49209 -0.08735
C_ C_ 0.206855 0.273716 0.0168408 -0.08735
C_ C_ 0.191603 0.263339 0.0456108 -0.08735
C_ C_ 0.16761 0.217952 0.0526769 0.18498
C_ C_ 0.198682 0.19579 0.100111 0.44287
C_ C_ 0.110884 0.205073 0.0923866 0.44287
C_ C_ 0.101265 0.197759 0.122292 -0.05681
C_ C_ 0.0541673 0.194908 0.135382 -0.08735
C_ C_ 0.0472111 0.192835 0.165869 -0.08735
C_ C_ 0.0891942 0.187153 0.1834 -0.05681
C_ C_ 0.136048 0.187611 0.17119 -0.05681
C_ C_ 0.14395 0.192571 0.140524 -0.05681
C_ C_ 0.192291 0.192032 0.129853 -0.05681
C_ C_ 0.234047 0.189846 0.149169 -0.08735
C_ C_ 0.227604 0.187701 0.17844 -0.08735
C_ C_ 0.177792 0.183111 0.189949 -0.05681
C_ C_ 0.170839 0.171944 0.218459 0.44287
C_ C_ 0.0817479 0.179559 0.213002 0.44287
C_ C_ 0.116048 0.154664 0.259253 0.18498
C_ C_ 0.0921598 0.109072 0.265026 -0.08735
C_ C_ 0.0799928 0.0973504 0.293634 -0.08735
C_ C_ 0.0946224 0.126787 0.316428 -0.08735
C_ C_ 0.124864 0.168064 0.310907 0.18498
C_ C_ 0.137975 0.182412 0.282527 -0.05681
C_ C_ 0.163399 0.230862 0.278685 -0.08735
C_ C_ 0.185726 0.254195 0.301472 -0.08735
C_ C_ 0.179545 0.232932 0.32928 0.1947
C_ C_ 0.265321 0.31429 0.157493 0.68181
C_ C_ 0.208435 0.32012 0.154002 -0.05681
C_ C_ 0.17576 0.321176 0.177551 -0.08735
C_ C_ 0.123196 0.321689 0.17296 -0.05681
C_ C_ 0.104365 0.329057 0.14516 -0.05681
C_ C_ 0.136056 0.33247 0.121474 -0.08735
C_ C_ 0.188076 0.328845 0.126328 -0.08735
C_ C_ 0.0902717 0.308652 0.195092 -0.08735
C_ C_ 0.0395746 0.307573 0.190128 -0.08735
C_ C_ 0.0177103 0.315806 0.162352 -0.05681
C_ C_ 0.0514262 0.327604 0.14015 -0.08735
C_ C_ 0.375669 0.209958 0.164716 0.68181
C_ C_ 0.360533 0.407132 0.148488 0.68181
C_ C_ 0.361505 0.464709 0.144549 -0.05681
C_ C_ 0.349525 -0.004487000000000019 0.171268 -0.08735
C_ C_ 0.352702 0.0489579 0.168283 -0.05681
C_ C_ 0.362009 0.0733928 0.140782 -0.05681
C_ C_ 0.358945 0.042107 0.115982 -0.08735
C_ C_ 0.371228 0.489464 0.117457 -0.08735
C_ C_ 0.352217 0.078005 0.193668 -0.08735
C_ C_ 0.360259 0.130043 0.191635 -0.08735
C_ C_ 0.370213 0.153582 0.165687 -0.05681
C_ C_ 0.367633 0.126644 0.139421 -0.08735
C_ C_ 0.464187 0.313927 0.158134 0.68181
C_ C_ 0.39401 0.371759 0.233155 0.1947
C_ C_ 0.40988 0.384084 0.261032 -0.08735
C_ C_ 0.39784 0.355074 0.283474 -0.08735
C_ C_ 0.366176 0.312976 0.278995 -0.05681
C_ C_ 0.349474 0.30068 0.251041 0.18498
C_ C_ 0.317914 0.259191 0.246954 -0.08735
C_ C_ 0.304227 0.227974 0.269656 -0.08735
C_ C_ 0.316114 0.243122 0.297233 -0.08735
C_ C_ 0.347345 0.285558 0.302984 0.18498
C_ C_ 0.31521 0.310448 0.350151 0.44287
C_ C_ 0.401736 0.288697 0.345132 0.44287
C_ C_ 0.40949 0.299543 0.374677 -0.05681
C_ C_ 0.458751 0.312356 0.38416 -0.08735
C_ C_ 0.467153 0.315814 0.413538 -0.08735
C_ C_ 0.425243 0.317498 0.432875 -0.05681
C_ C_ 0.375608 0.318138 0.420772 -0.05681
C_ C_ 0.368633 0.310773 0.392034 -0.05681
C_ C_ 0.320871 0.31449 0.380168 -0.05681
C_ C_ 0.27839 0.31786 0.399142 -0.08735
C_ C_ 0.285626 0.326594 0.428527 -0.08735
C_ C_ 0.335167 0.32909 0.438821 -0.05681
C_ C_ 0.34525 0.345362 0.467885 0.44287
C_ C_ 0.430667 0.324949 0.461696 0.44287
C_ C_ 0.386698 0.341622 0.00807595 0.18498
C_ C_ 0.412779 0.385481 0.0144083 -0.08735
C_ C_ 0.426071 0.396897 0.042975 -0.08735
C_ C_ 0.413375 0.363096 0.0652129 -0.08735
C_ C_ 0.387007 0.31958 0.0599499 0.18498
C_ C_ 0.376022 0.307089 0.0301547 -0.05681
C_ C_ 0.345199 0.261537 0.0248125 -0.08735
C_ C_ 0.33353 0.230458 0.0479252 -0.08735
C_ C_ 0.34131 0.248772 0.0762772 0.1947
N_ N_ 0.149351 0.156503 0.476153 -0.29468
N_ N_ 0.159339 0.20596 0.0822787 -0.17154
N_ N_ 0.122208 0.169352 0.23018 -0.17154
N_ N_ 0.142372 0.195067 0.332769 -0.29468
N_ N_ 0.366427 0.330366 0.22858 -0.29468
N_ N_ 0.35482 0.295923 0.33298 -0.17154
N_ N_ 0.391093 0.336624 0.479617 -0.17154
N_ N_ 0.368832 0.28972 0.0824688 -0.29468
O_ O_ 0.223397 0.175622 0.424567 -0.58347
O_ O_ 0.216974 0.176331 0.377667 -0.58347
O_ O_ 0.146933 0.250447 0.435666 -0.58347
O_ O_ 0.137353 0.256141 0.38917 -0.58347
O_ O_ 0.146899 0.0978726 0.4206 -0.58347
O_ O_ 0.14228 0.106988 0.374814 -0.58347
O_ O_ 0.0768782 0.171334 0.429098 -0.58347
O_ O_ 0.0649255 0.183318 0.383536 -0.58347
O_ O_ 0.073279 0.220945 0.0754675 -0.46727
O_ O_ 0.242089 0.185053 0.0886272 -0.46727
O_ O_ 0.0361001 0.184788 0.224373 -0.46727
O_ O_ 0.209957 0.155627 0.233817 -0.46727
O_ O_ 0.284521 0.314277 0.181923 -0.58347
O_ O_ 0.292421 0.303554 0.135277 -0.58347
O_ O_ 0.367227 0.237046 0.18705 -0.58347
O_ O_ 0.374874 0.231208 0.141167 -0.58347
O_ O_ 0.354754 0.38603 0.173125 -0.58347
O_ O_ 0.36322 0.379689 0.126424 -0.58347
O_ O_ 0.43741 0.325756 0.178859 -0.58347
O_ O_ 0.444853 0.311637 0.133946 -0.58347
O_ O_ 0.439299 0.26988 0.330302 -0.46727
O_ O_ 0.270855 0.321431 0.338401 -0.46727
O_ O_ 0.4768 0.322371 0.471486 -0.46727
O_ O_ 0.309406 0.372203 0.481862 -0.46727
Zn Zn 0.137382 0.187277 0.88179 0.90689
Zn Zn 0.14264 0.180654 0.929907 0.90689
Zn Zn 0.378326 0.319987 0.628527 0.90689
Zn Zn 0.370337 0.326944 0.675807 0.90689
H_ H_ 0.311498 0.158762 0.940815 0.11455
H_ H_ 0.382844 0.196598 0.84407 0.11455
H_ H_ 0.296218 0.180105 0.849914 0.11455
H_ H_ 0.397446 0.155252 0.960014 0.11455
H_ H_ 0.486323 0.164516 0.95613 0.11455
H_ H_ 0.473881 0.186756 0.864688 0.11455
H_ H_ 0.13347 0.0185518 0.944498 0.11455
H_ H_ 0.100696 0.437352 0.847644 0.11455
H_ H_ 0.137305 0.0213735 0.851267 0.11455
H_ H_ 0.142795 0.432294 0.96469 0.11455
H_ H_ 0.146977 0.341238 0.958762 0.11455
H_ H_ 0.134287 0.355865 0.867736 0.11455
H_ H_ 0.106943 0.0949591 0.971334 0.11455
H_ H_ 0.109691 0.0556319 0.514876 0.11455
H_ H_ 0.13257 0.110602 0.554311 0.11455
H_ H_ 0.198861 0.255743 0.975088 0.11455
H_ H_ 0.226659 0.298299 0.508288 0.11455
H_ H_ 0.199684 0.283306 0.557985 0.11455
H_ H_ 0.0160163 0.204876 0.619026 0.11455
H_ H_ 0.00284647 0.194249 0.668224 0.11455
H_ H_ 0.267299 0.188752 0.637577 0.11455
H_ H_ 0.250086 0.173435 0.689536 0.11455
H_ H_ 0.0722575 0.0973888 0.744126 0.11455
H_ H_ 0.0592107 0.0634329 0.790911 0.11455
H_ H_ 0.087195 0.110122 0.83434 0.11455
H_ H_ 0.164003 0.256107 0.756944 0.11455
H_ H_ 0.212041 0.288752 0.801041 0.11455
H_ H_ 0.19151 0.257743 0.84805 0.11455
H_ H_ 0.210486 0.29882 0.69341 0.11455
H_ H_ 0.127605 0.337041 0.599246 0.11455
H_ H_ 0.216594 0.338655 0.603739 0.11455
H_ H_ 0.121148 0.296205 0.71651 0.11455
H_ H_ 0.0270549 0.299051 0.710184 0.11455
H_ H_ 0.0454636 0.337389 0.620817 0.11455
H_ H_ 0.354433 0.493321 0.686383 0.11455
H_ H_ 0.339741 0.0762248 0.597989 0.11455
H_ H_ 0.418421 0.482268 0.601756 0.11455
H_ H_ 0.376967 0.074786 0.712406 0.11455
H_ H_ 0.384532 0.166531 0.70881 0.11455
H_ H_ 0.377324 0.158535 0.618986 0.11455
H_ H_ 0.412111 0.404094 0.709943 0.11455
H_ H_ 0.412405 0.446496 0.758276 0.11455
H_ H_ 0.387471 0.396798 0.800545 0.11455
H_ H_ 0.307934 0.262906 0.720629 0.11455
H_ H_ 0.288444 0.209685 0.761 0.11455
H_ H_ 0.305242 0.231441 0.809863 0.11455
H_ H_ 0.469238 0.28144 0.869373 0.11455
H_ H_ 0.486364 0.281718 0.921008 0.11455
H_ H_ 0.233378 0.360003 0.886054 0.11455
H_ H_ 0.244351 0.377479 0.935758 0.11455
H_ H_ 0.423593 0.410447 -0.0024849999999999595 0.11455
H_ H_ 0.480755 0.420954 0.550761 0.11455
H_ H_ 0.44079 0.372251 0.589138 0.11455
H_ H_ 0.34229 0.260352 0.505859 0.11455
H_ H_ 0.310514 0.212153 0.546468 0.11455
H_ H_ 0.322958 0.2388 0.594904 0.11455
C_ C_ 0.240455 0.180977 0.90129 0.68181
C_ C_ 0.296738 0.172087 0.896259 -0.05681
C_ C_ 0.328134 0.170842 0.921158 -0.08735
C_ C_ 0.380725 0.174866 0.916737 -0.05681
C_ C_ 0.402319 0.181056 0.888151 -0.05681
C_ C_ 0.370079 0.183142 0.864797 -0.08735
C_ C_ 0.318104 0.182886 0.869064 -0.08735
C_ C_ 0.411961 0.167994 0.940294 -0.08735
C_ C_ 0.4641 0.169685 0.936826 -0.08735
C_ C_ 0.487436 0.179384 0.909345 -0.05681
C_ C_ 0.456093 0.183678 0.885461 -0.08735
C_ C_ 0.136302 0.281973 0.911244 0.68181
C_ C_ 0.144872 0.0853092 0.900128 0.68181
C_ C_ 0.13895 0.0287114 0.898129 -0.05681
C_ C_ 0.127813 0.499249 0.921044 -0.08735
C_ C_ 0.133533 0.447675 0.919266 -0.05681
C_ C_ 0.122154 0.42435 0.893446 -0.05681
C_ C_ 0.114374 0.454017 0.868311 -0.08735
C_ C_ 0.110944 0.506714 0.871243 -0.08735
C_ C_ 0.133695 0.415312 0.943413 -0.08735
C_ C_ 0.136856 0.362357 0.940168 -0.08735
C_ C_ 0.135484 0.338562 0.913258 -0.05681
C_ C_ 0.130143 0.371679 0.889496 -0.08735
C_ C_ 0.0407928 0.172621 0.910009 0.68181
C_ C_ 0.121139 0.121337 0.987632 0.1947
C_ C_ 0.118613 0.094385 0.510084 -0.08735
C_ C_ 0.134382 0.124028 0.532624 -0.08735
C_ C_ 0.156169 0.172951 0.526993 -0.05681
C_ C_ 0.168731 0.185374 0.498639 0.18498
C_ C_ 0.184604 0.243859 0.995026 -0.08735
C_ C_ 0.208562 0.261815 0.512873 -0.08735
C_ C_ 0.191623 0.254576 0.541444 -0.08735
C_ C_ 0.16724 0.209039 0.549426 0.18498
C_ C_ 0.194651 0.190566 0.597628 0.44287
C_ C_ 0.107975 0.208128 0.590371 0.44287
C_ C_ 0.0985584 0.195112 0.62008 -0.05681
C_ C_ 0.0493152 0.196654 0.632208 -0.08735
C_ C_ 0.0403517 0.187664 0.660727 -0.08735
C_ C_ 0.0825147 0.18838 0.680085 -0.05681
C_ C_ 0.131284 0.183684 0.668544 -0.05681
C_ C_ 0.140026 0.184815 0.638162 -0.05681
C_ C_ 0.188968 0.188368 0.627587 -0.05681
C_ C_ 0.230059 0.188543 0.646649 -0.08735
C_ C_ 0.220808 0.18039 0.676421 -0.08735
C_ C_ 0.172366 0.183895 0.687539 -0.05681
C_ C_ 0.162847 0.176835 0.716548 0.44287
C_ C_ 0.0751695 0.188669 0.709883 0.44287
C_ C_ 0.108136 0.166543 0.757729 0.18498
C_ C_ 0.0823394 0.120525 0.76275 -0.08735
C_ C_ 0.0778557 0.0998137 0.78964 -0.08735
C_ C_ 0.0962414 0.127077 0.813966 -0.08735
C_ C_ 0.12367 0.172759 0.810024 0.18498
C_ C_ 0.12978 0.192249 0.78197 -0.05681
C_ C_ 0.157534 0.239608 0.77868 -0.08735
C_ C_ 0.185771 0.257277 0.802877 -0.08735
C_ C_ 0.173191 0.238982 0.829855 0.1947
C_ C_ 0.276094 0.32073 0.649231 0.68181
C_ C_ 0.219718 0.319135 0.64838 -0.05681
C_ C_ 0.190374 0.312944 0.674165 -0.08735
C_ C_ 0.138737 0.317361 0.672714 -0.05681
C_ C_ 0.115817 0.331046 0.64564 -0.05681
C_ C_ 0.145014 0.331613 0.619755 -0.08735
C_ C_ 0.196217 0.326293 0.622104 -0.08735
C_ C_ 0.105408 0.305805 0.695305 -0.08735
C_ C_ 0.0529205 0.305603 0.691649 -0.08735
C_ C_ 0.0307228 0.31865 0.666181 -0.05681
C_ C_ 0.06269 0.332744 0.643083 -0.08735
C_ C_ 0.376434 0.226593 0.662339 0.68181
C_ C_ 0.376976 0.421958 0.645075 0.68181
C_ C_ 0.382532 0.478996 0.643448 -0.05681
C_ C_ 0.36871 0.0101108 0.670856 -0.08735
C_ C_ 0.369677 0.0643538 0.668401 -0.05681
C_ C_ 0.366898 0.0880146 0.641346 -0.05681
C_ C_ 0.355005 0.0591725 0.616708 -0.08735
C_ C_ 0.397857 0.503449 0.617762 -0.08735
C_ C_ 0.375745 0.0938347 0.692588 -0.08735
C_ C_ 0.372738 0.146646 0.691028 -0.08735
C_ C_ 0.372548 0.170603 0.664193 -0.05681
C_ C_ 0.37484 0.141817 0.63942 -0.08735
C_ C_ 0.473202 0.320343 0.65858 0.68181
C_ C_ 0.397767 0.38496 0.728224 0.1947
C_ C_ 0.401624 0.405228 0.755022 -0.08735
C_ C_ 0.384877 0.378242 0.77846 -0.08735
C_ C_ 0.354507 0.335563 0.775267 -0.05681
C_ C_ 0.348125 0.317838 0.747417 0.18498
C_ C_ 0.319625 0.275145 0.742181 -0.08735
C_ C_ 0.305976 0.245309 0.764186 -0.08735
C_ C_ 0.313114 0.259795 0.792576 -0.08735
C_ C_ 0.335442 0.306636 0.798754 0.18498
C_ C_ 0.303036 0.335623 0.846476 0.44287
C_ C_ 0.38965 0.313474 0.839936 0.44287
C_ C_ 0.397926 0.318019 0.870231 -0.05681
C_ C_ 0.441669 0.294819 0.882047 -0.08735
C_ C_ 0.448816 0.296726 0.912419 -0.08735
C_ C_ 0.409765 0.312211 0.931393 -0.05681
C_ C_ 0.363117 0.329441 0.918497 -0.05681
C_ C_ 0.357552 0.327637 0.888019 -0.05681
C_ C_ 0.310187 0.341161 0.876857 -0.05681
C_ C_ 0.271016 0.358487 0.894742 -0.08735
C_ C_ 0.278191 0.361097 0.924128 -0.08735
C_ C_ 0.324661 0.349717 0.937009 -0.05681
C_ C_ 0.332164 0.347622 0.966099 0.44287
C_ C_ 0.414218 0.312185 0.961596 0.44287
C_ C_ 0.402155 0.348443 0.509851 0.18498
C_ C_ 0.440463 0.383642 0.515579 -0.08735
C_ C_ 0.453049 0.391733 0.544427 -0.08735
C_ C_ 0.427428 0.365535 0.567012 -0.08735
C_ C_ 0.396803 0.326381 0.561324 0.18498
C_ C_ 0.382248 0.316341 0.532649 -0.05681
C_ C_ 0.352264 0.272345 0.526883 -0.08735
C_ C_ 0.332719 0.245456 0.550044 -0.08735
C_ C_ 0.342346 0.259382 0.577765 0.1947
N_ N_ 0.142876 0.168014 0.97959 -0.29468
N_ N_ 0.155354 0.201951 0.579704 -0.17154
N_ N_ 0.114995 0.181832 0.727871 -0.17154
N_ N_ 0.143628 0.19743 0.834306 -0.29468
N_ N_ 0.368664 0.343759 0.723753 -0.29468
N_ N_ 0.343384 0.320775 0.828883 -0.17154
N_ N_ 0.376511 0.332525 0.978054 -0.17154
N_ N_ 0.37563 0.298809 0.583348 -0.29468
O_ O_ 0.220988 0.177336 0.92622 -0.58347
O_ O_ 0.212389 0.183188 0.880369 -0.58347
O_ O_ 0.14299 0.255739 0.933947 -0.58347
O_ O_ 0.13591 0.262054 0.887204 -0.58347
O_ O_ 0.143657 0.106921 0.924747 -0.58347
O_ O_ 0.137858 0.111023 0.877546 -0.58347
O_ O_ 0.0678137 0.171695 0.93207 -0.58347
O_ O_ 0.0604085 0.183988 0.885688 -0.58347
O_ O_ 0.0707993 0.222341 0.574204 -0.46727
O_ O_ 0.243841 0.19105 0.588594 -0.46727
O_ O_ 0.0286083 0.191026 0.720359 -0.46727
O_ O_ 0.202242 0.172282 0.734457 -0.46727
O_ O_ 0.297215 0.31047 0.672791 -0.58347
O_ O_ 0.30287 0.33148 0.627411 -0.58347
O_ O_ 0.379896 0.253249 0.685202 -0.58347
O_ O_ 0.370634 0.248488 0.637876 -0.58347
O_ O_ 0.363846 0.402572 0.669375 -0.58347
O_ O_ 0.378879 0.396051 0.622462 -0.58347
O_ O_ 0.445268 0.334842 0.678406 -0.58347
O_ O_ 0.452908 0.308225 0.634201 -0.58347
O_ O_ 0.427359 0.299272 0.822825 -0.46727
O_ O_ 0.259911 0.346968 0.834298 -0.46727
O_ O_ 0.456774 0.29618 0.97356 -0.46727
O_ O_ 0.293126 0.362643 0.981605 -0.46727
Zn Zn 0.119049 0.681991 0.382598 0.90689
Zn Zn 0.136277 0.673876 0.428366 0.90689
Zn Zn 0.364064 0.808728 0.12937 0.90689
Zn Zn 0.353081 0.811144 0.176373 0.90689
H_ H_ 0.302991 0.701167 0.44168 0.11455
H_ H_ 0.369426 0.674149 0.342895 0.11455
H_ H_ 0.278657 0.664051 0.352632 0.11455
H_ H_ 0.391715 0.688558 0.46295 0.11455
H_ H_ 0.47622 0.673305 0.453422 0.11455
H_ H_ 0.45575 0.683562 0.362432 0.11455
H_ H_ 0.144992 0.512156 0.439753 0.11455
H_ H_ 0.132014 0.91955 0.348237 0.11455
H_ H_ 0.124976 0.523631 0.34977 0.11455
H_ H_ 0.120492 0.932584 0.466834 0.11455
H_ H_ 0.110783 0.835062 0.464101 0.11455
H_ H_ 0.145056 0.844141 0.373493 0.11455
H_ H_ 0.0742243 0.609095 0.464647 0.11455
H_ H_ 0.0537419 0.578278 0.0162401 0.11455
H_ H_ 0.0874097 0.624303 0.0564603 0.11455
H_ H_ 0.189712 0.751854 0.475387 0.11455
H_ H_ 0.218826 0.797245 0.0146757 0.11455
H_ H_ 0.188084 0.776461 0.0627706 0.11455
H_ H_ 0.00206791 0.690056 0.12261 0.11455
H_ H_ -0.007940999999999976 0.675641 0.174317 0.11455
H_ H_ 0.24672 0.641897 0.1347 0.11455
H_ H_ 0.239392 0.63446 0.186904 0.11455
H_ H_ 0.0730667 0.571577 0.250274 0.11455
H_ H_ 0.0411085 0.555563 0.298302 0.11455
H_ H_ 0.0583934 0.613941 0.338154 0.11455
H_ H_ 0.150525 0.732079 0.255568 0.11455
H_ H_ 0.177615 0.785806 0.29673 0.11455
H_ H_ 0.161387 0.754492 0.345647 0.11455
H_ H_ 0.190784 0.792288 0.194488 0.11455
H_ H_ 0.117246 0.837445 0.100196 0.11455
H_ H_ 0.210395 0.820711 0.105137 0.11455
H_ H_ 0.101871 0.775527 0.214646 0.11455
H_ H_ 0.0141256 0.775543 0.205747 0.11455
H_ H_ 0.0364148 0.810316 0.118216 0.11455
H_ H_ 0.346296 0.978353 0.192193 0.11455
H_ H_ 0.378182 0.556782 0.0937104 0.11455
H_ H_ 0.3392 0.970066 0.100322 0.11455
H_ H_ 0.348681 0.564815 0.210351 0.11455
H_ H_ 0.360663 0.65421 0.205408 0.11455
H_ H_ 0.366747 0.642326 0.114682 0.11455
H_ H_ 0.414657 0.878685 0.211702 0.11455
H_ H_ 0.433628 0.909289 0.26228 0.11455
H_ H_ 0.383104 0.873037 0.301142 0.11455
H_ H_ 0.285012 0.76118 0.221316 0.11455
H_ H_ 0.258618 0.699611 0.261723 0.11455
H_ H_ 0.289728 0.718272 0.30908 0.11455
H_ H_ 0.480791 0.801709 0.366752 0.11455
H_ H_ 0.496702 0.808092 0.417569 0.11455
H_ H_ 0.228571 0.809362 0.38601 0.11455
H_ H_ 0.23963 0.82739 0.437773 0.11455
H_ H_ 0.423796 0.914227 0.495783 0.11455
H_ H_ 0.441453 0.931908 0.0486877 0.11455
H_ H_ 0.411364 0.876983 0.0855177 0.11455
H_ H_ 0.329206 0.752621 0.00277204 0.11455
H_ H_ 0.300804 0.703293 0.0428681 0.11455
H_ H_ 0.313468 0.729466 0.0935034 0.11455
C_ C_ 0.224312 0.680628 0.402868 0.68181
C_ C_ 0.281695 0.682511 0.397803 -0.05681
C_ C_ 0.316504 0.688062 0.421198 -0.08735
C_ C_ 0.36878 0.682168 0.416939 -0.05681
C_ C_ 0.389439 0.680238 0.389315 -0.05681
C_ C_ 0.35537 0.67679 0.365494 -0.08735
C_ C_ 0.302299 0.674197 0.370168 -0.08735
C_ C_ 0.402032 0.685296 0.440416 -0.08735
C_ C_ 0.453492 0.681313 0.436082 -0.08735
C_ C_ 0.475446 0.68641 0.408189 -0.05681
C_ C_ 0.442409 0.682444 0.384171 -0.08735
C_ C_ 0.123552 0.777555 0.415064 0.68181
C_ C_ 0.132752 0.581152 0.398749 0.68181
C_ C_ 0.135498 0.524978 0.395634 -0.05681
C_ C_ 0.132399 0.994527 0.421166 -0.08735
C_ C_ 0.127816 0.940452 0.421121 -0.05681
C_ C_ 0.13435 0.914344 0.394397 -0.05681
C_ C_ 0.133668 0.93992 0.369134 -0.08735
C_ C_ 0.138012 0.993102 0.369251 -0.08735
C_ C_ 0.122259 0.911702 0.446544 -0.08735
C_ C_ 0.120987 0.858497 0.445566 -0.08735
C_ C_ 0.1252 0.833535 0.418419 -0.05681
C_ C_ 0.1346 0.86154 0.393183 -0.08735
C_ C_ 0.0311941 0.672318 0.409741 0.68181
C_ C_ 0.0996378 0.624473 0.481942 0.1947
C_ C_ 0.0782047 0.61006 0.0110369 -0.08735
C_ C_ 0.0963862 0.636812 0.0343151 -0.08735
C_ C_ 0.129125 0.680184 0.029288 -0.05681
C_ C_ 0.145476 0.690237 1.000724663 0.18498
C_ C_ 0.177047 0.738374 0.49589 -0.08735
C_ C_ 0.196665 0.763325 0.0176567 -0.08735
C_ C_ 0.182022 0.750732 0.0452037 -0.08735
C_ C_ 0.150019 0.709191 0.0516429 0.18498
C_ C_ 0.181079 0.677753 0.0974293 0.44287
C_ C_ 0.0935112 0.702543 0.0953801 0.44287
C_ C_ 0.0836659 0.687395 0.123254 -0.05681
C_ C_ 0.0349313 0.690404 0.136534 -0.08735
C_ C_ 0.0292199 0.680395 0.165379 -0.08735
C_ C_ 0.0730016 0.66823 0.183501 -0.05681
C_ C_ 0.121472 0.670743 0.170844 -0.05681
C_ C_ 0.126904 0.675456 0.14077 -0.05681
C_ C_ 0.173868 0.666958 0.127691 -0.05681
C_ C_ 0.21282 0.652063 0.145074 -0.08735
C_ C_ 0.208707 0.647934 0.174254 -0.08735
C_ C_ 0.163669 0.655984 0.187903 -0.05681
C_ C_ 0.157178 0.656627 0.21807 0.44287
C_ C_ 0.0691369 0.664344 0.213354 0.44287
C_ C_ 0.102495 0.6437 0.258899 0.18498
C_ C_ 0.0740904 0.600684 0.265856 -0.08735
C_ C_ 0.0548776 0.591567 0.294034 -0.08735
C_ C_ 0.0669117 0.624107 0.316143 -0.08735
C_ C_ 0.103463 0.661539 0.310921 0.18498
C_ C_ 0.116498 0.6772 0.282046 -0.05681
C_ C_ 0.141976 0.722174 0.277334 -0.08735
C_ C_ 0.151856 0.752958 0.299756 -0.08735
C_ C_ 0.144567 0.735696 0.328335 0.1947
C_ C_ 0.262349 0.811653 0.155489 0.68181
C_ C_ 0.206538 0.813209 0.151446 -0.05681
C_ C_ 0.174976 0.805263 0.175561 -0.08735
C_ C_ 0.123335 0.806164 0.170882 -0.05681
C_ C_ 0.102002 0.8171 0.144538 -0.05681
C_ C_ 0.133772 0.823657 0.120459 -0.08735
C_ C_ 0.185374 0.815873 0.123511 -0.08735
C_ C_ 0.0911409 0.788886 0.19374 -0.08735
C_ C_ 0.0375328 0.789948 0.18965 -0.08735
C_ C_ 0.0159966 0.806057 0.163021 -0.05681
C_ C_ 0.0489637 0.816521 0.14089 -0.08735
C_ C_ 0.367697 0.711961 0.160086 0.68181
C_ C_ 0.354557 0.907855 0.148139 0.68181
C_ C_ 0.351297 0.965055 0.145893 -0.05681
C_ C_ 0.361056 0.497234 0.169496 -0.08735
C_ C_ 0.362642 0.548932 0.16706 -0.05681
C_ C_ 0.36643 0.571073 0.139835 -0.05681
C_ C_ 0.367176 0.541598 0.1153 -0.08735
C_ C_ 0.350616 -0.011201000000000016 0.118802 -0.08735
C_ C_ 0.360522 0.581495 0.190628 -0.08735
C_ C_ 0.369594 0.632619 0.18848 -0.08735
C_ C_ 0.368306 0.655633 0.161772 -0.05681
C_ C_ 0.367196 0.625822 0.13632 -0.08735
C_ C_ 0.456948 0.817406 0.154552 0.68181
C_ C_ 0.392362 0.865399 0.228846 0.1947
C_ C_ 0.401774 0.88468 0.256658 -0.08735
C_ C_ 0.376337 0.859423 0.279451 -0.08735
C_ C_ 0.342923 0.818574 0.275102 -0.05681
C_ C_ 0.331877 0.803715 0.245707 0.18498
C_ C_ 0.299351 0.763702 0.241804 -0.08735
C_ C_ 0.282461 0.733496 0.265761 -0.08735
C_ C_ 0.304734 0.739862 0.2926 -0.08735
C_ C_ 0.333553 0.783159 0.298096 0.18498
C_ C_ 0.301519 0.805097 0.347091 0.44287
C_ C_ 0.390257 0.799091 0.339347 0.44287
C_ C_ 0.399109 0.80664 0.368897 -0.05681
C_ C_ 0.449813 0.80723 0.381061 -0.08735
C_ C_ 0.457177 0.808043 0.410504 -0.08735
C_ C_ 0.415412 0.815035 0.429386 -0.05681
C_ C_ 0.366652 0.81812 0.417632 -0.05681
C_ C_ 0.357469 0.808881 0.388188 -0.05681
C_ C_ 0.308145 0.808009 0.37696 -0.05681
C_ C_ 0.266682 0.810515 0.395402 -0.08735
C_ C_ 0.272458 0.824517 0.423791 -0.08735
C_ C_ 0.323571 0.828304 0.435667 -0.05681
C_ C_ 0.331074 0.829321 0.465909 0.44287
C_ C_ 0.423047 0.820769 0.459316 0.44287
C_ C_ 0.378526 0.848296 0.00614562 0.18498
C_ C_ 0.402505 0.893647 0.0139593 -0.08735
C_ C_ 0.415772 0.902316 0.043092 -0.08735
C_ C_ 0.399119 0.869807 0.0648019 -0.08735
C_ C_ 0.375557 0.825468 0.0588459 0.18498
C_ C_ 0.363746 0.813526 0.0291583 -0.05681
C_ C_ 0.338275 0.767149 0.0243658 -0.08735
C_ C_ 0.321754 0.737547 0.0468903 -0.08735
C_ C_ 0.328082 0.753272 0.0752356 0.1947
N_ N_ 0.127294 0.667628 0.477333 -0.29468
N_ N_ 0.140666 0.695137 0.0825152 -0.17154
N_ N_ 0.109815 0.658626 0.229503 -0.17154
N_ N_ 0.120445 0.691674 0.33329 -0.29468
N_ N_ 0.357864 0.827204 0.223638 -0.29468
N_ N_ 0.341856 0.799365 0.328401 -0.17154
N_ N_ 0.380678 0.828098 0.47737 -0.17154
N_ N_ 0.35579 0.796588 0.0820633 -0.29468
O_ O_ 0.207575 0.665364 0.427876 -0.58347
O_ O_ 0.193022 0.695177 0.384266 -0.58347
O_ O_ 0.142028 0.748466 0.435007 -0.58347
O_ O_ 0.110275 0.757937 0.391874 -0.58347
O_ O_ 0.130529 0.598835 0.423852 -0.58347
O_ O_ 0.127547 0.608818 0.377442 -0.58347
O_ O_ 0.0609085 0.678516 0.430852 -0.58347
O_ O_ 0.0487477 0.673372 0.384754 -0.58347
O_ O_ 0.0541888 0.717213 0.0804885 -0.46727
O_ O_ 0.226345 0.669741 0.0847203 -0.46727
O_ O_ 0.0250937 0.676154 0.224159 -0.46727
O_ O_ 0.196839 0.649509 0.234201 -0.46727
O_ O_ 0.28029 0.822081 0.179761 -0.58347
O_ O_ 0.289367 0.803169 0.134588 -0.58347
O_ O_ 0.34929 0.739156 0.180016 -0.58347
O_ O_ 0.375114 0.733534 0.136083 -0.58347
O_ O_ 0.357706 0.885919 0.172243 -0.58347
O_ O_ 0.353243 0.881451 0.125527 -0.58347
O_ O_ 0.42792 0.803323 0.174914 -0.58347
O_ O_ 0.437158 0.821723 0.129048 -0.58347
O_ O_ 0.429877 0.789338 0.322044 -0.46727
O_ O_ 0.255957 0.805897 0.336916 -0.46727
O_ O_ 0.467691 0.812393 0.470729 -0.46727
O_ O_ 0.293388 0.837318 0.482412 -0.46727
Zn Zn 0.115812 0.687407 0.882709 0.90689
Zn Zn 0.126924 0.680738 0.93322 0.90689
Zn Zn 0.373349 0.822154 0.629082 0.90689
Zn Zn 0.361428 0.826678 0.676244 0.90689
H_ H_ 0.295475 0.699441 0.945838 0.11455
H_ H_ 0.361 0.675417 0.84813 0.11455
H_ H_ 0.270078 0.666754 0.856066 0.11455
H_ H_ 0.378407 0.710014 0.963493 0.11455
H_ H_ 0.472374 0.704293 0.955736 0.11455
H_ H_ 0.448006 0.69443 0.86767 0.11455
H_ H_ 0.128458 0.519096 0.941386 0.11455
H_ H_ 0.126594 0.934858 0.850447 0.11455
H_ H_ 0.100817 0.528266 0.85102 0.11455
H_ H_ 0.12103 0.930094 0.967264 0.11455
H_ H_ 0.104473 0.836047 0.961604 0.11455
H_ H_ 0.116828 0.853087 0.872405 0.11455
H_ H_ 0.0714947 0.605184 0.965097 0.11455
H_ H_ 0.0582606 0.578256 0.512884 0.11455
H_ H_ 0.111371 0.613242 0.551692 0.11455
H_ H_ 0.184177 0.744684 0.97303 0.11455
H_ H_ 0.236272 0.786213 0.516359 0.11455
H_ H_ 0.209093 0.760749 0.567813 0.11455
H_ H_ 1.0136291 0.705555 0.620113 0.11455
H_ H_ 1.000746682 0.699337 0.672105 0.11455
H_ H_ 0.263303 0.661369 0.636681 0.11455
H_ H_ 0.249763 0.653263 0.68747 0.11455
H_ H_ 0.062571 0.597481 0.746591 0.11455
H_ H_ 0.0348577 0.572837 0.796725 0.11455
H_ H_ 0.0591577 0.625796 0.837128 0.11455
H_ H_ 0.138049 0.760986 0.758408 0.11455
H_ H_ 0.171164 0.805549 0.799529 0.11455
H_ H_ 0.159952 0.770323 0.848418 0.11455
H_ H_ 0.195245 0.81195 0.694422 0.11455
H_ H_ 0.127332 0.845962 0.600243 0.11455
H_ H_ 0.215824 0.829962 0.604279 0.11455
H_ H_ 0.109714 0.806625 0.715688 0.11455
H_ H_ 0.0202813 0.792507 0.707956 0.11455
H_ H_ 0.037859 0.835812 0.618629 0.11455
H_ H_ 0.370704 0.993946 0.691431 0.11455
H_ H_ 0.417832 0.575213 0.596388 0.11455
H_ H_ 0.338034 0.985009 0.60122 0.11455
H_ H_ 0.349156 0.579458 0.70837 0.11455
H_ H_ 0.360903 0.673661 0.706776 0.11455
H_ H_ 0.387582 0.658636 0.614962 0.11455
H_ H_ 0.421698 0.899861 0.707505 0.11455
H_ H_ 0.433671 0.932044 0.758527 0.11455
H_ H_ 0.387395 0.890427 0.797684 0.11455
H_ H_ 0.308058 0.764932 0.717639 0.11455
H_ H_ 0.275241 0.71375 0.756066 0.11455
H_ H_ 0.298022 0.733757 0.806703 0.11455
H_ H_ 0.476565 0.801004 0.869049 0.11455
H_ H_ 0.488938 0.826325 0.920096 0.11455
H_ H_ 0.225981 0.846751 0.87861 0.11455
H_ H_ 0.232659 0.843724 0.932624 0.11455
H_ H_ 0.411035 0.920384 0.997175 0.11455
H_ H_ 0.440329 0.943195 0.544173 0.11455
H_ H_ 0.412143 0.893123 0.585852 0.11455
H_ H_ 0.329063 0.75931 0.50643 0.11455
H_ H_ 0.307456 0.707596 0.548968 0.11455
H_ H_ 0.320888 0.741979 0.596147 0.11455
C_ C_ 0.217655 0.687654 0.906727 0.68181
C_ C_ 0.274674 0.684413 0.902083 -0.05681
C_ C_ 0.30881 0.690387 0.925188 -0.08735
C_ C_ 0.361963 0.690417 0.921192 -0.05681
C_ C_ 0.381139 0.685358 0.893478 -0.05681
C_ C_ 0.347518 0.681961 0.869293 -0.08735
C_ C_ 0.294632 0.676306 0.873416 -0.08735
C_ C_ 0.394657 0.699417 0.943342 -0.08735
C_ C_ 0.447984 0.698808 0.938798 -0.08735
C_ C_ 0.46718 0.687418 0.911447 -0.05681
C_ C_ 0.433531 0.68737 0.889025 -0.08735
C_ C_ 0.112932 0.780818 0.915138 0.68181
C_ C_ 0.120999 0.585097 0.898597 0.68181
C_ C_ 0.113476 0.52858 0.897864 -0.05681
C_ C_ 0.136944 1.00028 0.923533 -0.08735
C_ C_ 0.132875 0.945127 0.921939 -0.05681
C_ C_ 0.129607 0.922493 0.895307 -0.05681
C_ C_ 0.128352 0.951362 0.870288 -0.08735
C_ C_ 0.134695 0.00341182 0.871525 -0.08735
C_ C_ 0.120016 0.916017 0.945738 -0.08735
C_ C_ 0.113239 0.862284 0.943826 -0.08735
C_ C_ 0.117138 0.838185 0.916715 -0.05681
C_ C_ 0.125715 0.869741 0.893457 -0.08735
C_ C_ 0.0190398 0.68002 0.909618 0.68181
C_ C_ 0.0921003 0.622585 0.982576 0.1947
C_ C_ 0.0884071 0.60556 0.509188 -0.08735
C_ C_ 0.112398 0.630695 0.531576 -0.08735
C_ C_ 0.139078 0.675091 0.52835 -0.05681
C_ C_ 0.14845 0.693749 0.499883 0.18498
C_ C_ 0.181029 0.730285 0.995416 -0.08735
C_ C_ 0.203228 0.760521 0.519661 -0.08735
C_ C_ 0.191324 0.744199 0.547686 -0.08735
C_ C_ 0.161617 0.700701 0.552441 0.18498
C_ C_ 0.18688 0.668484 0.598575 0.44287
C_ C_ 0.101761 0.699007 0.59398 0.44287
C_ C_ 0.0925664 0.688971 0.622774 -0.05681
C_ C_ 0.0434704 0.695051 0.634775 -0.08735
C_ C_ 0.0382929 0.694212 0.664538 -0.08735
C_ C_ 0.0807104 0.687985 0.684121 -0.05681
C_ C_ 0.127057 0.679429 0.670612 -0.05681
C_ C_ 0.132052 0.675506 0.640639 -0.05681
C_ C_ 0.180882 0.67024 0.628459 -0.05681
C_ C_ 0.222962 0.664096 0.646054 -0.08735
C_ C_ 0.217926 0.664393 0.674873 -0.08735
C_ C_ 0.169085 0.668307 0.68849 -0.05681
C_ C_ 0.162817 0.663215 0.719326 0.44287
C_ C_ 0.0764629 0.687103 0.713707 0.44287
C_ C_ 0.102302 0.664671 0.75975 0.18498
C_ C_ 0.0760074 0.619271 0.764701 -0.08735
C_ C_ 0.0578087 0.608695 0.793328 -0.08735
C_ C_ 0.0699915 0.638999 0.816126 -0.08735
C_ C_ 0.10432 0.678991 0.811853 0.18498
C_ C_ 0.115315 0.694652 0.782895 -0.05681
C_ C_ 0.138655 0.741578 0.77936 -0.08735
C_ C_ 0.149062 0.771657 0.802766 -0.08735
C_ C_ 0.148624 0.749318 0.830473 0.1947
C_ C_ 0.270548 0.81805 0.654211 0.68181
C_ C_ 0.213321 0.818279 0.649629 -0.05681
C_ C_ 0.179974 0.814771 0.674203 -0.08735
C_ C_ 0.127557 0.820041 0.670838 -0.05681
C_ C_ 0.10587 0.828329 0.643685 -0.05681
C_ C_ 0.138584 0.831128 0.619555 -0.08735
C_ C_ 0.191295 0.825819 0.622439 -0.08735
C_ C_ 0.0951423 0.813827 0.694904 -0.08735
C_ C_ 0.0434358 0.806392 0.690367 -0.08735
C_ C_ 0.0224713 0.822445 0.664539 -0.05681
C_ C_ 0.0540483 0.836881 0.640558 -0.08735
C_ C_ 0.373311 0.728416 0.658537 0.68181
C_ C_ 0.358045 0.925022 0.647004 0.68181
C_ C_ 0.360054 0.980335 0.645202 -0.05681
C_ C_ 0.366119 0.509247 0.666217 -0.08735
C_ C_ 0.371071 0.562746 0.663986 -0.05681
C_ C_ 0.384983 0.586452 0.638016 -0.05681
C_ C_ 0.401473 0.556125 0.614957 -0.08735
C_ C_ 0.353054 1.00575275 0.619062 -0.08735
C_ C_ 0.36587 0.594106 0.688997 -0.08735
C_ C_ 0.370453 0.64748 0.688431 -0.08735
C_ C_ 0.379155 0.672419 0.661373 -0.05681
C_ C_ 0.381766 0.639842 0.635774 -0.08735
C_ C_ 0.467815 0.827217 0.654777 0.68181
C_ C_ 0.402956 0.880722 0.726252 0.1947
C_ C_ 0.411294 0.898339 0.754799 -0.08735
C_ C_ 0.385336 0.87615 0.776978 -0.08735
C_ C_ 0.35732 0.832108 0.773208 -0.05681
C_ C_ 0.348186 0.818105 0.744206 0.18498
C_ C_ 0.319323 0.77497 0.739065 -0.08735
C_ C_ 0.302923 0.742268 0.761712 -0.08735
C_ C_ 0.314224 0.754653 0.790287 -0.08735
C_ C_ 0.33944 0.800126 0.796108 0.18498
C_ C_ 0.303981 0.830599 0.842492 0.44287
C_ C_ 0.388534 0.805763 0.838348 0.44287
C_ C_ 0.395466 0.815017 0.867945 -0.05681
C_ C_ 0.443443 0.815992 0.879568 -0.08735
C_ C_ 0.450682 0.825998 0.909635 -0.08735
C_ C_ 0.407764 0.834034 0.92777 -0.05681
C_ C_ 0.359752 0.835617 0.915361 -0.05681
C_ C_ 0.355709 0.830356 0.885078 -0.05681
C_ C_ 0.308962 0.835116 0.872582 -0.05681
C_ C_ 0.264483 0.844144 0.88906 -0.08735
C_ C_ 0.267697 0.843892 0.919689 -0.08735
C_ C_ 0.316757 0.844401 0.932771 -0.05681
C_ C_ 0.323991 0.847202 0.962642 0.44287
C_ C_ 0.411031 0.831222 0.9578 0.44287
C_ C_ 0.388337 0.844154 0.507067 0.18498
C_ C_ 0.410427 0.890989 0.51259 -0.08735
C_ C_ 0.423639 0.906984 0.540845 -0.08735
C_ C_ 0.410036 0.877098 0.563841 -0.08735
C_ C_ 0.384201 0.832545 0.55917 0.18498
C_ C_ 0.370876 0.815799 0.530842 -0.05681
C_ C_ 0.34408 0.770463 0.527519 -0.08735
C_ C_ 0.326393 0.743915 0.55124 -0.08735
C_ C_ 0.342376 0.759912 0.578515 0.1947
N_ N_ 0.125612 0.66091 0.978178 -0.29468
N_ N_ 0.149335 0.688934 0.581827 -0.17154
N_ N_ 0.117667 0.67901 0.730875 -0.17154
N_ N_ 0.121544 0.706585 0.835104 -0.29468
N_ N_ 0.372123 0.841701 0.721677 -0.29468
N_ N_ 0.345123 0.817371 0.825948 -0.17154
N_ N_ 0.369359 0.836405 0.97511 -0.17154
N_ N_ 0.365983 0.806188 0.582394 -0.29468
O_ O_ 0.199154 0.685334 0.931586 -0.58347
O_ O_ 0.190352 0.693835 0.885523 -0.58347
O_ O_ 0.123242 0.754423 0.937497 -0.58347
O_ O_ 0.111444 0.758792 0.890647 -0.58347
O_ O_ 0.129476 0.60682 0.922619 -0.58347
O_ O_ 0.116981 0.613629 0.876408 -0.58347
O_ O_ 0.0470972 0.674894 0.931438 -0.58347
O_ O_ 0.040716 0.685875 0.884304 -0.58347
O_ O_ 0.0673859 0.716324 0.576828 -0.46727
O_ O_ 0.230765 0.655121 0.587596 -0.46727
O_ O_ 0.0303355 0.690668 0.723767 -0.46727
O_ O_ 0.202647 0.656439 0.736936 -0.46727
O_ O_ 0.289743 0.833734 0.678417 -0.58347
O_ O_ 0.298715 0.817337 0.632001 -0.58347
O_ O_ 0.364824 0.75413 0.680735 -0.58347
O_ O_ 0.377975 0.750092 0.634423 -0.58347
O_ O_ 0.36034 0.90238 0.671667 -0.58347
O_ O_ 0.365941 0.900267 0.623538 -0.58347
O_ O_ 0.436161 0.822788 0.675643 -0.58347
O_ O_ 0.450059 0.827372 0.629479 -0.58347
O_ O_ 0.428111 0.790218 0.822367 -0.46727
O_ O_ 0.260983 0.843263 0.829539 -0.46727
O_ O_ 0.455611 0.819703 0.9704 -0.46727
O_ O_ 0.284815 0.847613 0.979797 -0.46727
Zn Zn 0.640564 0.189668 0.385638 0.90689
Zn Zn 0.649944 0.186426 0.433882 0.90689
Zn Zn 0.86935 0.306603 0.134577 0.90689
Zn Zn 0.859072 0.313143 0.183946 0.90689
H_ H_ 0.820041 0.194703 0.447857 0.11455
H_ H_ 0.884656 0.166412 0.352499 0.11455
H_ H_ 0.789301 0.172836 0.359804 0.11455
H_ H_ 0.907228 0.189297 0.470054 0.11455
H_ H_ 0.996371 0.174652 0.462176 0.11455
H_ H_ 0.972207 0.165561 0.367996 0.11455
H_ H_ 0.668991 0.0140247 0.44633 0.11455
H_ H_ 0.660671 0.439071 0.342826 0.11455
H_ H_ 0.644579 0.032296 0.357359 0.11455
H_ H_ 0.614683 0.442982 0.459498 0.11455
H_ H_ 0.6315 0.345633 0.458318 0.11455
H_ H_ 0.666556 0.358811 0.367621 0.11455
H_ H_ 0.592534 0.110596 0.468681 0.11455
H_ H_ 0.565319 0.0731764 0.0137453 0.11455
H_ H_ 0.60344 0.112258 0.0528795 0.11455
H_ H_ 0.703145 0.251122 0.475247 0.11455
H_ H_ 0.723214 0.294584 0.0161376 0.11455
H_ H_ 0.685293 0.277875 0.0631791 0.11455
H_ H_ 0.509607 0.174449 0.125468 0.11455
H_ H_ 0.501932 0.175082 0.17603 0.11455
H_ H_ 0.76431 0.190563 0.139004 0.11455
H_ H_ 0.75351 0.184272 0.189908 0.11455
H_ H_ 0.598638 0.0753343 0.249453 0.11455
H_ H_ 0.571973 0.0556202 0.300649 0.11455
H_ H_ 0.598104 0.109432 0.340554 0.11455
H_ H_ 0.662621 0.244225 0.259986 0.11455
H_ H_ 0.703033 0.291858 0.2984 0.11455
H_ H_ 0.690287 0.262379 0.34748 0.11455
H_ H_ 0.688227 0.304509 0.195305 0.11455
H_ H_ 0.622342 0.32315 0.0980739 0.11455
H_ H_ 0.711048 0.33919 0.105997 0.11455
H_ H_ 0.606116 0.313134 0.21732 0.11455
H_ H_ 0.513174 0.30552 0.20766 0.11455
H_ H_ 0.535427 0.303832 0.116336 0.11455
H_ H_ 0.845897 0.476568 0.189537 0.11455
H_ H_ 0.861581 0.0606879 0.101222 0.11455
H_ H_ 0.858627 0.470664 0.100923 0.11455
H_ H_ 0.853582 0.0630117 0.218898 0.11455
H_ H_ 0.864024 0.155911 0.216094 0.11455
H_ H_ 0.870318 0.147637 0.124592 0.11455
H_ H_ 0.89426 0.400007 0.220304 0.11455
H_ H_ 0.908002 0.424985 0.268053 0.11455
H_ H_ 0.887892 0.370938 0.308224 0.11455
H_ H_ 0.805491 0.244007 0.225862 0.11455
H_ H_ 0.795981 0.178552 0.261073 0.11455
H_ H_ 0.818002 0.199611 0.310571 0.11455
H_ H_ 0.993734 0.283124 0.372507 0.11455
H_ H_ 0.00484577 0.291449 0.424651 0.11455
H_ H_ 0.751473 0.336281 0.387424 0.11455
H_ H_ 0.755837 0.337428 0.442171 0.11455
H_ H_ 0.96147 0.395319 0.499717 0.11455
H_ H_ 0.964057 0.420541 0.0527174 0.11455
H_ H_ 0.934408 0.367527 0.0953803 0.11455
H_ H_ 0.831148 0.250514 0.0125241 0.11455
H_ H_ 0.811889 0.191097 0.0552644 0.11455
H_ H_ 0.82349 0.223452 0.102486 0.11455
C_ C_ 0.742276 0.191947 0.408686 0.68181
C_ C_ 0.798057 0.188044 0.404294 -0.05681
C_ C_ 0.833364 0.185344 0.427663 -0.08735
C_ C_ 0.884639 0.177623 0.423355 -0.05681
C_ C_ 0.904739 0.171591 0.395729 -0.05681
C_ C_ 0.869126 0.168701 0.372812 -0.08735
C_ C_ 0.81638 0.180419 0.376692 -0.08735
C_ C_ 0.920327 0.181674 0.447392 -0.08735
C_ C_ 0.97242 0.177607 0.442488 -0.08735
C_ C_ 0.990703 0.171203 0.412878 -0.05681
C_ C_ 0.956995 0.1673 0.390263 -0.08735
C_ C_ 0.64719 0.289707 0.41205 0.68181
C_ C_ 0.651102 0.0886019 0.404932 0.68181
C_ C_ 0.650747 0.0325718 0.402606 -0.05681
C_ C_ 0.622612 0.506979 0.414901 -0.08735
C_ C_ 0.626706 0.453369 0.413404 -0.05681
C_ C_ 0.647016 0.431069 0.387651 -0.05681
C_ C_ 0.652119 0.46023 0.362847 -0.08735
C_ C_ 0.646361 0.512686 0.364172 -0.08735
C_ C_ 0.619761 0.422699 0.438805 -0.08735
C_ C_ 0.634248 0.370381 0.438944 -0.08735
C_ C_ 0.647803 0.346083 0.412652 -0.05681
C_ C_ 0.653518 0.3767 0.387522 -0.08735
C_ C_ 0.547384 0.189883 0.407644 0.68181
C_ C_ 0.609067 0.131357 0.486313 0.1947
C_ C_ 0.594827 0.102207 0.00952312 -0.08735
C_ C_ 0.615479 0.127194 0.0323322 -0.08735
C_ C_ 0.641148 0.173762 0.0289037 -0.05681
C_ C_ 0.657247 0.188054 1.000862406 0.18498
C_ C_ 0.694611 0.238842 0.49728 -0.08735
C_ C_ 0.699625 0.263105 0.0189303 -0.08735
C_ C_ 0.682998 0.250114 0.0470186 -0.08735
C_ C_ 0.657322 0.203879 0.0521448 0.18498
C_ C_ 0.689948 0.185769 0.0997642 0.44287
C_ C_ 0.600768 0.19232 0.0942153 0.44287
C_ C_ 0.593399 0.183421 0.12383 -0.05681
C_ C_ 0.544563 0.181118 0.137933 -0.08735
C_ C_ 0.540401 0.17856 0.167395 -0.08735
C_ C_ 0.584297 0.178711 0.185679 -0.05681
C_ C_ 0.632409 0.175096 0.171649 -0.05681
C_ C_ 0.636804 0.181347 0.141743 -0.05681
C_ C_ 0.685563 0.186889 0.130059 -0.05681
C_ C_ 0.728259 0.191775 0.147924 -0.08735
C_ C_ 0.721303 0.183403 0.176567 -0.08735
C_ C_ 0.674683 0.174436 0.190269 -0.05681
C_ C_ 0.668341 0.175722 0.220116 0.44287
C_ C_ 0.581534 0.177588 0.215445 0.44287
C_ C_ 0.619171 0.152791 0.26227 0.18498
C_ C_ 0.60467 0.10247 0.267476 -0.08735
C_ C_ 0.589243 0.0905834 0.296121 -0.08735
C_ C_ 0.600916 0.123056 0.319316 -0.08735
C_ C_ 0.624906 0.169381 0.312932 0.18498
C_ C_ 0.631642 0.186475 0.285396 -0.05681
C_ C_ 0.655796 0.23345 0.281046 -0.08735
C_ C_ 0.682696 0.255194 0.302345 -0.08735
C_ C_ 0.673975 0.237465 0.330155 0.1947
C_ C_ 0.766767 0.313484 0.154462 0.68181
C_ C_ 0.709372 0.321696 0.151611 -0.05681
C_ C_ 0.676544 0.316401 0.174683 -0.08735
C_ C_ 0.624326 0.31715 0.171349 -0.05681
C_ C_ 0.603985 0.312456 0.142811 -0.05681
C_ C_ 0.636259 0.321138 0.119814 -0.08735
C_ C_ 0.687618 0.329429 0.124132 -0.08735
C_ C_ 0.591854 0.311441 0.1952 -0.08735
C_ C_ 0.540312 0.308933 0.19102 -0.08735
C_ C_ 0.520387 0.308845 0.161385 -0.05681
C_ C_ 0.551717 0.313792 0.137934 -0.08735
C_ C_ 0.870868 0.213252 0.167738 0.68181
C_ C_ 0.849836 0.407579 0.148824 0.68181
C_ C_ 0.853581 0.465401 0.146202 -0.05681
C_ C_ 0.852344 -0.0028209999999999624 0.175151 -0.08735
C_ C_ 0.858429 0.0503182 0.173153 -0.05681
C_ C_ 0.866047 0.0740558 0.145806 -0.05681
C_ C_ 0.864668 0.0428909 0.12158 -0.08735
C_ C_ 0.854096 0.490963 0.119393 -0.08735
C_ C_ 0.858518 0.0810984 0.197948 -0.08735
C_ C_ 0.864378 0.132927 0.196957 -0.08735
C_ C_ 0.864842 0.157775 0.169299 -0.05681
C_ C_ 0.869492 0.127516 0.144996 -0.08735
C_ C_ 0.96127 0.320133 0.158541 0.68181
C_ C_ 0.880706 0.375543 0.236601 0.1947
C_ C_ 0.893923 0.388519 0.264306 -0.08735
C_ C_ 0.88131 0.357924 0.287149 -0.08735
C_ C_ 0.860368 0.30962 0.281174 -0.05681
C_ C_ 0.844664 0.298416 0.25281 0.18498
C_ C_ 0.818821 0.251834 0.246739 -0.08735
C_ C_ 0.811933 0.216347 0.267337 -0.08735
C_ C_ 0.828322 0.226839 0.295093 -0.08735
C_ C_ 0.849359 0.275571 0.303077 0.18498
C_ C_ 0.815706 0.304081 0.350177 0.44287
C_ C_ 0.903375 0.287292 0.344758 0.44287
C_ C_ 0.913091 0.297867 0.373596 -0.05681
C_ C_ 0.964611 0.293911 0.38566 -0.08735
C_ C_ 0.97202 0.298954 0.415139 -0.08735
C_ C_ 0.928148 0.30492 0.433445 -0.05681
C_ C_ 0.881089 0.312794 0.421097 -0.05681
C_ C_ 0.872995 0.307802 0.391603 -0.05681
C_ C_ 0.824801 0.309226 0.380011 -0.05681
C_ C_ 0.784073 0.324027 0.398125 -0.08735
C_ C_ 0.789164 0.332084 0.427481 -0.08735
C_ C_ 0.839093 0.325949 0.439534 -0.05681
C_ C_ 0.848872 0.334671 0.468888 0.44287
C_ C_ 0.934813 0.308932 0.463349 0.44287
C_ C_ 0.898508 0.333471 0.0156462 0.18498
C_ C_ 0.922121 0.379192 0.0215034 -0.08735
C_ C_ 0.942155 0.38635 0.0486597 -0.08735
C_ C_ 0.926329 0.354299 0.0728704 -0.08735
C_ C_ 0.889187 0.316384 0.0672031 0.18498
C_ C_ 0.873098 0.305829 0.0385778 -0.05681
C_ C_ 0.846684 0.259707 0.0336571 -0.08735
C_ C_ 0.830707 0.228321 0.0562743 -0.08735
C_ C_ 0.83624 0.248386 0.0838431 0.1947
N_ N_ 0.640463 0.17225 0.481193 -0.29468
N_ N_ 0.647926 0.189518 0.0819866 -0.17154
N_ N_ 0.62269 0.1698 0.232202 -0.17154
N_ N_ 0.645975 0.196208 0.335803 -0.29468
N_ N_ 0.8587 0.329976 0.230638 -0.29468
N_ N_ 0.856624 0.289198 0.333468 -0.17154
N_ N_ 0.895676 0.327589 0.481028 -0.17154
N_ N_ 0.866837 0.29007 0.0887805 -0.29468
O_ O_ 0.724302 0.184926 0.434056 -0.58347
O_ O_ 0.714562 0.19828 0.38681 -0.58347
O_ O_ 0.649018 0.264389 0.434911 -0.58347
O_ O_ 0.637798 0.268466 0.388868 -0.58347
O_ O_ 0.654816 0.111061 0.428794 -0.58347
O_ O_ 0.649538 0.115212 0.382438 -0.58347
O_ O_ 0.574728 0.183354 0.430163 -0.58347
O_ O_ 0.567065 0.18379 0.383887 -0.58347
O_ O_ 0.561764 0.204065 0.077873 -0.46727
O_ O_ 0.733646 0.175821 0.0881701 -0.46727
O_ O_ 0.535509 0.177005 0.227462 -0.46727
O_ O_ 0.710309 0.176492 0.235938 -0.46727
O_ O_ 0.785062 0.306604 0.17926 -0.58347
O_ O_ 0.794178 0.304166 0.133482 -0.58347
O_ O_ 0.865215 0.239934 0.189747 -0.58347
O_ O_ 0.877481 0.232644 0.142988 -0.58347
O_ O_ 0.851245 0.389108 0.172249 -0.58347
O_ O_ 0.860372 0.380722 0.128159 -0.58347
O_ O_ 0.932903 0.323702 0.18008 -0.58347
O_ O_ 0.94239 0.308913 0.134434 -0.58347
O_ O_ 0.939244 0.276342 0.326518 -0.46727
O_ O_ 0.770011 0.30902 0.338763 -0.46727
O_ O_ 0.981578 0.2951 0.47299 -0.46727
O_ O_ 0.811407 0.348352 0.485343 -0.46727
Zn Zn 0.635302 0.182636 0.883177 0.90689
Zn Zn 0.645678 0.182438 0.930427 0.90689
Zn Zn 0.881885 0.321346 0.633266 0.90689
Zn Zn 0.87269 0.332069 0.680344 0.90689
H_ H_ 0.815671 0.173349 0.949137 0.11455
H_ H_ 0.883562 0.171804 0.849358 0.11455
H_ H_ 0.79093 0.19023 0.858063 0.11455
H_ H_ 0.902235 0.188118 0.96975 0.11455
H_ H_ 0.99184 0.167148 0.959914 0.11455
H_ H_ 0.967489 0.178701 0.868257 0.11455
H_ H_ 0.628931 0.0114467 0.946127 0.11455
H_ H_ 0.664688 0.433392 0.847975 0.11455
H_ H_ 0.653335 0.0303162 0.85454 0.11455
H_ H_ 0.595819 0.431365 0.959665 0.11455
H_ H_ 0.600773 0.340538 0.955137 0.11455
H_ H_ 0.642358 0.350777 0.868425 0.11455
H_ H_ 0.59795 0.0968322 0.963547 0.11455
H_ H_ 0.574064 0.0811212 0.518148 0.11455
H_ H_ 0.612044 0.131063 0.558442 0.11455
H_ H_ 0.691209 0.247665 0.97444 0.11455
H_ H_ 0.730175 0.305249 0.51498 0.11455
H_ H_ 0.698843 0.291132 0.563018 0.11455
H_ H_ 0.512654 0.21804 0.624128 0.11455
H_ H_ 0.499381 0.214955 0.676265 0.11455
H_ H_ 0.755358 0.141089 0.641733 0.11455
H_ H_ 0.739238 0.13151 0.690348 0.11455
H_ H_ 0.540792 0.0929004 0.756954 0.11455
H_ H_ 0.526694 0.0793499 0.803936 0.11455
H_ H_ 0.572054 0.126239 0.842626 0.11455
H_ H_ 0.656771 0.240004 0.757366 0.11455
H_ H_ 0.707408 0.276247 0.798528 0.11455
H_ H_ 0.684953 0.251952 0.846262 0.11455
H_ H_ 0.703783 0.314293 0.697249 0.11455
H_ H_ 0.634424 0.346416 0.600467 0.11455
H_ H_ 0.723604 0.338703 0.607344 0.11455
H_ H_ 0.613021 0.311499 0.715781 0.11455
H_ H_ 0.521504 0.316557 0.708921 0.11455
H_ H_ 0.548206 0.321906 0.6178 0.11455
H_ H_ 0.860639 0.494314 0.6949 0.11455
H_ H_ 0.829651 0.0724069 0.607804 0.11455
H_ H_ 0.912891 0.48241 0.608507 0.11455
H_ H_ 0.90278 0.084504 0.71748 0.11455
H_ H_ 0.898562 0.172026 0.71287 0.11455
H_ H_ 0.85617 0.157345 0.624967 0.11455
H_ H_ 0.911308 0.402793 0.718987 0.11455
H_ H_ 0.93371 0.427559 0.766034 0.11455
H_ H_ 0.891947 0.387371 0.8077 0.11455
H_ H_ 0.835741 0.242144 0.726586 0.11455
H_ H_ 0.796672 0.194825 0.766172 0.11455
H_ H_ 0.811045 0.22416 0.816255 0.11455
H_ H_ 0.994211 0.300526 0.878303 0.11455
H_ H_ 0.00462121 0.304988 0.928845 0.11455
H_ H_ 0.738879 0.319674 0.891573 0.11455
H_ H_ 0.750056 0.317995 0.943398 0.11455
H_ H_ 0.928671 0.40618 1.00398717 0.11455
H_ H_ 0.974471 0.428721 0.54829 0.11455
H_ H_ 0.933919 0.39031 0.587749 0.11455
H_ H_ 0.856502 0.248198 0.509253 0.11455
H_ H_ 0.807992 0.215205 0.549789 0.11455
H_ H_ 0.816718 0.253399 0.598309 0.11455
C_ C_ 0.742207 0.185204 0.907359 0.68181
C_ C_ 0.797365 0.181665 0.904413 -0.05681
C_ C_ 0.829884 0.179459 0.927839 -0.08735
C_ C_ 0.881896 0.180459 0.92353 -0.05681
C_ C_ 0.900782 0.179795 0.894932 -0.05681
C_ C_ 0.869088 0.181255 0.87127 -0.08735
C_ C_ 0.816751 0.188191 0.876244 -0.08735
C_ C_ 0.914829 0.182198 0.947268 -0.08735
C_ C_ 0.96621 0.177258 0.942052 -0.08735
C_ C_ 0.986462 0.178374 0.914702 -0.05681
C_ C_ 0.953142 0.180554 0.891295 -0.08735
C_ C_ 0.629992 0.280516 0.911251 0.68181
C_ C_ 0.643925 0.082152 0.902366 0.68181
C_ C_ 0.641799 0.0271424 0.900824 -0.05681
C_ C_ 0.613794 0.498922 0.918549 -0.08735
C_ C_ 0.61014 0.445739 0.914954 -0.05681
C_ C_ 0.630548 0.42158 0.889649 -0.05681
C_ C_ 0.649166 0.451831 0.867625 -0.08735
C_ C_ 0.654147 0.503882 0.871624 -0.08735
C_ C_ 0.596542 0.413961 0.938433 -0.08735
C_ C_ 0.603015 0.361526 0.935927 -0.08735
C_ C_ 0.620758 0.337473 0.91145 -0.05681
C_ C_ 0.635376 0.36877 0.889329 -0.08735
C_ C_ 0.543592 0.179141 0.906788 0.68181
C_ C_ 0.609764 0.118442 0.981744 0.1947
C_ C_ 0.601685 0.114556 0.513866 -0.08735
C_ C_ 0.621226 0.142423 0.536669 -0.08735
C_ C_ 0.647056 0.187355 0.531885 -0.05681
C_ C_ 0.661142 0.199494 0.503208 0.18498
C_ C_ 0.685436 0.233227 0.996713 -0.08735
C_ C_ 0.709732 0.270614 0.519628 -0.08735
C_ C_ 0.690994 0.262914 0.547121 -0.08735
C_ C_ 0.665282 0.218412 0.554785 0.18498
C_ C_ 0.691194 0.19126 0.602028 0.44287
C_ C_ 0.604949 0.208297 0.594907 0.44287
C_ C_ 0.593684 0.198908 0.624509 -0.05681
C_ C_ 0.543998 0.206169 0.636877 -0.08735
C_ C_ 0.536842 0.206352 0.667519 -0.08735
C_ C_ 0.575257 0.186087 0.684617 -0.05681
C_ C_ 0.623871 0.176827 0.673371 -0.05681
C_ C_ 0.632841 0.188093 0.642769 -0.05681
C_ C_ 0.681508 0.180556 0.631635 -0.05681
C_ C_ 0.719934 0.155221 0.64926 -0.08735
C_ C_ 0.706618 0.141965 0.676821 -0.08735
C_ C_ 0.661374 0.156868 0.690531 -0.05681
C_ C_ 0.652139 0.148064 0.720137 0.44287
C_ C_ 0.567668 0.178484 0.71458 0.44287
C_ C_ 0.598179 0.152988 0.762283 0.18498
C_ C_ 0.563628 0.116767 0.771159 -0.08735
C_ C_ 0.549336 0.111506 0.799121 -0.08735
C_ C_ 0.578615 0.132568 0.820386 -0.08735
C_ C_ 0.613087 0.170534 0.813643 0.18498
C_ C_ 0.621952 0.183707 0.784045 -0.05681
C_ C_ 0.656514 0.222938 0.778438 -0.08735
C_ C_ 0.683225 0.243059 0.80166 -0.08735
C_ C_ 0.675414 0.225686 0.829364 0.1947
C_ C_ 0.777904 0.318065 0.657529 0.68181
C_ C_ 0.720951 0.324957 0.653789 -0.05681
C_ C_ 0.688536 0.321113 0.675965 -0.08735
C_ C_ 0.635366 0.321712 0.672198 -0.05681
C_ C_ 0.614687 0.327016 0.643897 -0.05681
C_ C_ 0.648031 0.333558 0.621335 -0.08735
C_ C_ 0.699999 0.332166 0.626225 -0.08735
C_ C_ 0.600034 0.314277 0.69542 -0.08735
C_ C_ 0.548401 0.319655 0.690315 -0.08735
C_ C_ 0.528718 0.325707 0.663324 -0.05681
C_ C_ 0.562804 0.325495 0.639553 -0.08735
C_ C_ 0.884802 0.227899 0.664313 0.68181
C_ C_ 0.868463 0.426792 0.650773 0.68181
C_ C_ 0.882916 0.480222 0.650914 -0.05681
C_ C_ 0.880142 0.0108329 0.676506 -0.08735
C_ C_ 0.879661 0.0658666 0.67407 -0.05681
C_ C_ 0.863586 0.0883527 0.647512 -0.05681
C_ C_ 0.846542 0.0560517 0.626286 -0.08735
C_ C_ 0.90642 0.505441 0.626947 -0.08735
C_ C_ 0.894582 0.0983271 0.696889 -0.08735
C_ C_ 0.896751 0.150985 0.693416 -0.08735
C_ C_ 0.882724 0.173052 0.667488 -0.05681
C_ C_ 0.861982 0.141529 0.645787 -0.08735
C_ C_ 0.976071 0.324938 0.662338 0.68181
C_ C_ 0.898477 0.379431 0.736388 0.1947
C_ C_ 0.909548 0.39454 0.763137 -0.08735
C_ C_ 0.893411 0.365625 0.78695 -0.08735
C_ C_ 0.866553 0.320387 0.782335 -0.05681
C_ C_ 0.859086 0.305162 0.753459 0.18498
C_ C_ 0.838758 0.255813 0.748275 -0.08735
C_ C_ 0.822488 0.22508 0.770814 -0.08735
C_ C_ 0.829189 0.242355 0.800118 -0.08735
C_ C_ 0.852718 0.288209 0.806073 0.18498
C_ C_ 0.817709 0.306621 0.853698 0.44287
C_ C_ 0.904963 0.309936 0.848 0.44287
C_ C_ 0.913036 0.308695 0.877819 -0.05681
C_ C_ 0.960936 0.306104 0.890894 -0.08735
C_ C_ 0.966191 0.307996 0.919897 -0.08735
C_ C_ 0.925843 0.307932 0.938211 -0.05681
C_ C_ 0.876728 0.314313 0.926433 -0.05681
C_ C_ 0.869789 0.311295 0.895949 -0.05681
C_ C_ 0.821888 0.310916 0.883679 -0.05681
C_ C_ 0.779473 0.319192 0.901033 -0.08735
C_ C_ 0.78357 0.316807 0.931139 -0.08735
C_ C_ 0.834566 0.323381 0.943487 -0.05681
C_ C_ 0.841361 0.329539 0.973481 0.44287
C_ C_ 0.929389 0.307081 0.968858 0.44287
C_ C_ 0.90558 0.341699 0.510899 0.18498
C_ C_ 0.940166 0.381958 0.517145 -0.08735
C_ C_ 0.956509 0.392359 0.54516 -0.08735
C_ C_ 0.930334 0.3712 0.568228 -0.08735
C_ C_ 0.898938 0.327817 0.563276 0.18498
C_ C_ 0.89056 0.310076 0.534086 -0.05681
C_ C_ 0.861075 0.265731 0.530308 -0.08735
C_ C_ 0.834688 0.245263 0.554039 -0.08735
C_ C_ 0.840031 0.26708 0.580842 0.1947
N_ N_ 0.638295 0.161058 0.977661 -0.29468
N_ N_ 0.653182 0.204619 0.584642 -0.17154
N_ N_ 0.606548 0.16145 0.731512 -0.17154
N_ N_ 0.639254 0.193057 0.834597 -0.29468
N_ N_ 0.870626 0.337193 0.730531 -0.29468
N_ N_ 0.860015 0.302695 0.835925 -0.17154
N_ N_ 0.889749 0.322601 0.985648 -0.17154
N_ N_ 0.873843 0.305843 0.585471 -0.29468
O_ O_ 0.720169 0.194318 0.931008 -0.58347
O_ O_ 0.714068 0.174596 0.885324 -0.58347
O_ O_ 0.62783 0.254756 0.934575 -0.58347
O_ O_ 0.637835 0.259624 0.888016 -0.58347
O_ O_ 0.657706 0.10519 0.924638 -0.58347
O_ O_ 0.633248 0.108334 0.880559 -0.58347
O_ O_ 0.569617 0.167961 0.928305 -0.58347
O_ O_ 0.565914 0.186028 0.88234 -0.58347
O_ O_ 0.568752 0.221949 0.577584 -0.46727
O_ O_ 0.737228 0.19249 0.591622 -0.46727
O_ O_ 0.524127 0.189042 0.725361 -0.46727
O_ O_ 0.684027 0.121398 0.73638 -0.46727
O_ O_ 0.797971 0.320527 0.682659 -0.58347
O_ O_ 0.805975 0.320097 0.635922 -0.58347
O_ O_ 0.886758 0.258234 0.686136 -0.58347
O_ O_ 0.87804 0.246305 0.63989 -0.58347
O_ O_ 0.854702 0.407179 0.672965 -0.58347
O_ O_ 0.885458 0.399143 0.630458 -0.58347
O_ O_ 0.950774 0.347915 0.681003 -0.58347
O_ O_ 0.9576 0.320015 0.637385 -0.58347
O_ O_ 0.946396 0.307914 0.833826 -0.46727
O_ O_ 0.773259 0.312523 0.840676 -0.46727
O_ O_ 0.973043 0.296207 0.980657 -0.46727
O_ O_ 0.801168 0.338048 0.989687 -0.46727
Zn Zn 0.626179 0.693316 0.378444 0.90689
Zn Zn 0.632668 0.686009 0.426736 0.90689
Zn Zn 0.862799 0.806457 0.134118 0.90689
Zn Zn 0.853884 0.80942 0.180079 0.90689
H_ H_ 0.797222 0.687951 0.443962 0.11455
H_ H_ 0.87634 0.654874 0.348729 0.11455
H_ H_ 0.786279 0.655773 0.352596 0.11455
H_ H_ 0.887407 0.693777 0.463933 0.11455
H_ H_ 0.979588 0.672706 0.458662 0.11455
H_ H_ 0.961487 0.652767 0.370142 0.11455
H_ H_ 0.609649 0.524084 0.434347 0.11455
H_ H_ 0.626243 0.941376 0.352094 0.11455
H_ H_ 0.652651 0.534623 0.345027 0.11455
H_ H_ 0.674534 0.931069 0.467674 0.11455
H_ H_ 0.65983 0.837727 0.461225 0.11455
H_ H_ 0.6334 0.855852 0.371193 0.11455
H_ H_ 0.58056 0.608344 0.457992 0.11455
H_ H_ 0.558708 0.57874 0.0141358 0.11455
H_ H_ 0.59409 0.630341 0.0545887 0.11455
H_ H_ 0.700056 0.739095 0.473479 0.11455
H_ H_ 0.721666 0.79877 0.00889824 0.11455
H_ H_ 0.680343 0.793203 0.0605526 0.11455
H_ H_ 0.504801 0.717837 0.120486 0.11455
H_ H_ 0.486058 0.693178 0.170552 0.11455
H_ H_ 0.755792 0.687738 0.137056 0.11455
H_ H_ 0.741786 0.671104 0.188565 0.11455
H_ H_ 0.546071 0.597963 0.245567 0.11455
H_ H_ 0.513465 0.588368 0.292473 0.11455
H_ H_ 0.562742 0.625543 0.335103 0.11455
H_ H_ 0.657381 0.746049 0.250181 0.11455
H_ H_ 0.692662 0.791887 0.293466 0.11455
H_ H_ 0.670465 0.766784 0.341356 0.11455
H_ H_ 0.681654 0.815149 0.193762 0.11455
H_ H_ 0.622682 0.830015 0.0954838 0.11455
H_ H_ 0.710679 0.818727 0.101979 0.11455
H_ H_ 0.598598 0.812014 0.212054 0.11455
H_ H_ 0.508799 0.822689 0.205219 0.11455
H_ H_ 0.529056 0.82542 0.112708 0.11455
H_ H_ 0.840551 0.981058 0.194578 0.11455
H_ H_ 0.874324 0.554579 0.0974345 0.11455
H_ H_ 0.854215 0.966785 0.105736 0.11455
H_ H_ 0.844915 0.563256 0.215103 0.11455
H_ H_ 0.842652 0.657323 0.208858 0.11455
H_ H_ 0.866964 0.641427 0.117778 0.11455
H_ H_ 0.924925 0.87519 0.21566 0.11455
H_ H_ 0.939312 0.911968 0.261614 0.11455
H_ H_ 0.882235 0.886 0.303662 0.11455
H_ H_ 0.804007 0.746672 0.22894 0.11455
H_ H_ 0.779496 0.696388 0.272175 0.11455
H_ H_ 0.796798 0.728895 0.32078 0.11455
H_ H_ 0.984847 0.781674 0.37446 0.11455
H_ H_ 0.00353243 0.794075 0.424953 0.11455
H_ H_ 0.740816 0.83472 0.392336 0.11455
H_ H_ 0.756893 0.837607 0.443145 0.11455
H_ H_ 0.933959 0.907057 0.502835 0.11455
H_ H_ 0.961051 0.92806 0.054277 0.11455
H_ H_ 0.910121 0.883152 0.0915079 0.11455
H_ H_ 0.852879 0.74571 0.00771505 0.11455
H_ H_ 0.811612 0.699322 0.0478697 0.11455
H_ H_ 0.81771 0.731325 0.0961091 0.11455
C_ C_ 0.727238 0.686664 0.400384 0.68181
C_ C_ 0.784008 0.677151 0.398048 -0.05681
C_ C_ 0.814943 0.687457 0.42166 -0.08735
C_ C_ 0.869949 0.682915 0.418973 -0.05681
C_ C_ 0.890715 0.668899 0.391699 -0.05681
C_ C_ 0.860149 0.663931 0.367853 -0.08735
C_ C_ 0.806933 0.663536 0.371389 -0.08735
C_ C_ 0.90222 0.684692 0.443189 -0.08735
C_ C_ 0.954655 0.675809 0.440106 -0.08735
C_ C_ 0.975512 0.66934 0.413529 -0.05681
C_ C_ 0.944188 0.667863 0.388866 -0.08735
C_ C_ 0.634595 0.78658 0.412486 0.68181
C_ C_ 0.633069 0.592951 0.392315 0.68181
C_ C_ 0.63394 0.536374 0.390202 -0.05681
C_ C_ 0.656944 0.997734 0.42662 -0.08735
C_ C_ 0.648366 0.946028 0.423956 -0.05681
C_ C_ 0.634782 0.92465 0.39674 -0.05681
C_ C_ 0.635281 0.95718 0.372338 -0.08735
C_ C_ 0.639297 1.0102429 0.376648 -0.08735
C_ C_ 0.659588 0.914859 0.447476 -0.08735
C_ C_ 0.651014 0.863207 0.44449 -0.08735
C_ C_ 0.639916 0.840961 0.417298 -0.05681
C_ C_ 0.634619 0.872704 0.39333 -0.08735
C_ C_ 0.530045 0.689408 0.404798 0.68181
C_ C_ 0.596465 0.627841 0.476701 0.1947
C_ C_ 0.584778 0.612109 0.0107545 -0.08735
C_ C_ 0.607759 0.637585 0.0337676 -0.08735
C_ C_ 0.637713 0.682155 0.0282028 -0.05681
C_ C_ 0.648681 0.693776 0.999108 0.18498
C_ C_ 0.679292 0.734677 0.494541 -0.08735
C_ C_ 0.694378 0.768482 0.0158921 -0.08735
C_ C_ 0.675103 0.763621 0.0437651 -0.08735
C_ C_ 0.649446 0.716869 0.0502771 0.18498
C_ C_ 0.679947 0.691022 0.0972839 0.44287
C_ C_ 0.59401 0.712785 0.0918797 0.44287
C_ C_ 0.584308 0.69793 0.120176 -0.05681
C_ C_ 0.535918 0.700992 0.13189 -0.08735
C_ C_ 0.526847 0.694796 0.162027 -0.08735
C_ C_ 0.572356 0.687563 0.179425 -0.05681
C_ C_ 0.618179 0.676941 0.166342 -0.05681
C_ C_ 0.626057 0.685974 0.137422 -0.05681
C_ C_ 0.6756 0.68377 0.126526 -0.05681
C_ C_ 0.717022 0.679305 0.145141 -0.08735
C_ C_ 0.709656 0.667198 0.174285 -0.08735
C_ C_ 0.660596 0.667018 0.185247 -0.05681
C_ C_ 0.651648 0.65785 0.214118 0.44287
C_ C_ 0.56984 0.692321 0.21023 0.44287
C_ C_ 0.59319 0.662295 0.2561 0.18498
C_ C_ 0.55956 0.624421 0.262807 -0.08735
C_ C_ 0.546359 0.612894 0.290337 -0.08735
C_ C_ 0.5699 0.637796 0.313463 -0.08735
C_ C_ 0.603149 0.680404 0.307684 0.18498
C_ C_ 0.613121 0.692736 0.278492 -0.05681
C_ C_ 0.644447 0.735628 0.272596 -0.08735
C_ C_ 0.665325 0.760333 0.296043 -0.08735
C_ C_ 0.652462 0.747957 0.324648 0.1947
C_ C_ 0.761015 0.810491 0.156308 0.68181
C_ C_ 0.704959 0.816266 0.149473 -0.05681
C_ C_ 0.66919 0.817617 0.171883 -0.08735
C_ C_ 0.61652 0.818572 0.166842 -0.05681
C_ C_ 0.597913 0.826426 0.138385 -0.05681
C_ C_ 0.63431 0.82579 0.116456 -0.08735
C_ C_ 0.685219 0.815199 0.121112 -0.08735
C_ C_ 0.584631 0.814867 0.190264 -0.08735
C_ C_ 0.533641 0.82186 0.185282 -0.08735
C_ C_ 0.511288 0.825345 0.157596 -0.05681
C_ C_ 0.545267 0.825233 0.134157 -0.08735
C_ C_ 0.862082 0.712155 0.160915 0.68181
C_ C_ 0.855557 0.907404 0.152631 0.68181
C_ C_ 0.855611 0.965878 0.150403 -0.05681
C_ C_ 0.851754 0.495167 0.170453 -0.08735
C_ C_ 0.852279 0.54914 0.168461 -0.05681
C_ C_ 0.862797 0.57217 0.142011 -0.05681
C_ C_ 0.865236 0.541971 0.118096 -0.08735
C_ C_ 0.861828 0.989942 0.123263 -0.08735
C_ C_ 0.851634 0.579069 0.193633 -0.08735
C_ C_ 0.852542 0.632771 0.190611 -0.08735
C_ C_ 0.862221 0.655319 0.163441 -0.05681
C_ C_ 0.865324 0.624833 0.139396 -0.08735
C_ C_ 0.959039 0.804532 0.15928 0.68181
C_ C_ 0.903862 0.859971 0.233673 0.1947
C_ C_ 0.912278 0.881791 0.260505 -0.08735
C_ C_ 0.888772 0.861984 0.285245 -0.08735
C_ C_ 0.859616 0.817538 0.28294 -0.05681
C_ C_ 0.848062 0.799423 0.25478 0.18498
C_ C_ 0.815583 0.756945 0.251356 -0.08735
C_ C_ 0.801856 0.728032 0.274147 -0.08735
C_ C_ 0.80896 0.748199 0.301873 -0.08735
C_ C_ 0.839919 0.791149 0.306284 0.18498
C_ C_ 0.813665 0.822523 0.353464 0.44287
C_ C_ 0.899954 0.800689 0.346938 0.44287
C_ C_ 0.909777 0.809427 0.375434 -0.05681
C_ C_ 0.956263 0.797619 0.387812 -0.08735
C_ C_ 0.966607 0.803474 0.41744 -0.08735
C_ C_ 0.92563 0.815682 0.435365 -0.05681
C_ C_ 0.875109 0.821758 0.424044 -0.05681
C_ C_ 0.868656 0.820506 0.394347 -0.05681
C_ C_ 0.820125 0.82444 0.383192 -0.05681
C_ C_ 0.779414 0.832104 0.400494 -0.08735
C_ C_ 0.78723 0.836221 0.429006 -0.08735
C_ C_ 0.83454 0.831955 0.441371 -0.05681
C_ C_ 0.842941 0.830552 0.471786 0.44287
C_ C_ 0.93029 0.815918 0.465276 0.44287
C_ C_ 0.899335 0.838878 0.0134341 0.18498
C_ C_ 0.92266 0.885343 0.0212655 -0.08735
C_ C_ 0.929973 0.899608 0.0492052 -0.08735
C_ C_ 0.902021 0.873519 0.0700693 -0.08735
C_ C_ 0.879208 0.825712 0.0640021 0.18498
C_ C_ 0.877236 0.808528 0.0354871 -0.05681
C_ C_ 0.85236 0.761397 0.0288458 -0.08735
C_ C_ 0.829122 0.734756 0.0508431 -0.08735
C_ C_ 0.834824 0.751405 0.0792936 0.1947
N_ N_ 0.630044 0.668513 0.47394 -0.29468
N_ N_ 0.640451 0.704078 0.0803945 -0.17154
N_ N_ 0.607006 0.672101 0.226433 -0.17154
N_ N_ 0.623519 0.707099 0.330173 -0.29468
N_ N_ 0.868855 0.821064 0.230674 -0.29468
N_ N_ 0.851758 0.805475 0.336209 -0.17154
N_ N_ 0.890088 0.825251 0.48316 -0.17154
N_ N_ 0.859833 0.795629 0.0850674 -0.29468
O_ O_ 0.70654 0.689285 0.42463 -0.58347
O_ O_ 0.702413 0.689321 0.377276 -0.58347
O_ O_ 0.627888 0.759082 0.433535 -0.58347
O_ O_ 0.63087 0.767842 0.387656 -0.58347
O_ O_ 0.64096 0.614899 0.416156 -0.58347
O_ O_ 0.623191 0.618211 0.37014 -0.58347
O_ O_ 0.55772 0.676642 0.426054 -0.58347
O_ O_ 0.549478 0.694111 0.380644 -0.58347
O_ O_ 0.559626 0.739021 0.0775314 -0.46727
O_ O_ 0.726157 0.692583 0.0859249 -0.46727
O_ O_ 0.526079 0.705966 0.22227 -0.46727
O_ O_ 0.681798 0.62975 0.229102 -0.46727
O_ O_ 0.777743 0.812411 0.180784 -0.58347
O_ O_ 0.791472 0.80697 0.135109 -0.58347
O_ O_ 0.852599 0.738706 0.182587 -0.58347
O_ O_ 0.866626 0.732725 0.136862 -0.58347
O_ O_ 0.861459 0.886494 0.176534 -0.58347
O_ O_ 0.85306 0.882876 0.129684 -0.58347
O_ O_ 0.931584 0.80507 0.180884 -0.58347
O_ O_ 0.940575 0.811697 0.134589 -0.58347
O_ O_ 0.938486 0.791877 0.329043 -0.46727
O_ O_ 0.773825 0.840867 0.340722 -0.46727
O_ O_ 0.974278 0.810242 0.478509 -0.46727
O_ O_ 0.803526 0.83781 0.488369 -0.46727
Zn Zn 0.616712 0.692007 0.88071 0.90689
Zn Zn 0.62461 0.679654 0.929855 0.90689
Zn Zn 0.86937 0.819525 0.636307 0.90689
Zn Zn 0.863904 0.827476 0.685065 0.90689
H_ H_ 0.787135 0.676827 0.944524 0.11455
H_ H_ 0.85779 0.645245 0.848025 0.11455
H_ H_ 0.76973 0.665941 0.853181 0.11455
H_ H_ 0.872221 0.693435 0.961935 0.11455
H_ H_ 0.966438 0.68683 0.958137 0.11455
H_ H_ 0.951308 0.654956 0.86776 0.11455
H_ H_ 0.603892 0.515947 0.938206 0.11455
H_ H_ 0.657133 0.937784 0.850223 0.11455
H_ H_ 0.675116 0.525649 0.856854 0.11455
H_ H_ 0.616218 0.927105 0.968445 0.11455
H_ H_ 0.617901 0.837659 0.96203 0.11455
H_ H_ 0.634416 0.849579 0.872817 0.11455
H_ H_ 0.576562 0.608024 0.965183 0.11455
H_ H_ 0.568519 0.571905 0.506192 0.11455
H_ H_ 0.598858 0.612929 0.54771 0.11455
H_ H_ 0.694594 0.742627 0.972842 0.11455
H_ H_ 0.723706 0.790994 0.515324 0.11455
H_ H_ 0.689822 0.774945 0.562559 0.11455
H_ H_ 0.505859 0.715831 0.618926 0.11455
H_ H_ 0.492773 0.699381 0.670438 0.11455
H_ H_ 0.757032 0.674299 0.641222 0.11455
H_ H_ 0.742589 0.680599 0.691741 0.11455
H_ H_ 0.561196 0.592318 0.746525 0.11455
H_ H_ 0.545234 0.565874 0.798621 0.11455
H_ H_ 0.563696 0.626041 0.838807 0.11455
H_ H_ 0.643008 0.75447 0.755357 0.11455
H_ H_ 0.678096 0.799217 0.794993 0.11455
H_ H_ 0.660096 0.772766 0.843719 0.11455
H_ H_ 0.693585 0.820429 0.698229 0.11455
H_ H_ 0.62962 0.834091 0.595691 0.11455
H_ H_ 0.723627 0.821758 0.605867 0.11455
H_ H_ 0.60765 0.821977 0.715896 0.11455
H_ H_ 0.51611 0.838627 0.706212 0.11455
H_ H_ 0.541583 0.834595 0.615895 0.11455
H_ H_ 0.889835 0.992844 0.696442 0.11455
H_ H_ 0.932544 0.574105 0.607708 0.11455
H_ H_ 0.840169 0.978966 0.608741 0.11455
H_ H_ 0.836447 0.578408 0.711059 0.11455
H_ H_ 0.851782 0.666848 0.712844 0.11455
H_ H_ 0.908372 0.656186 0.626451 0.11455
H_ H_ 0.919582 0.891052 0.722231 0.11455
H_ H_ 0.935784 0.91 0.773219 0.11455
H_ H_ 0.901113 0.858747 0.812939 0.11455
H_ H_ 0.80788 0.758892 0.723528 0.11455
H_ H_ 0.783423 0.691542 0.758721 0.11455
H_ H_ 0.798899 0.705916 0.811583 0.11455
H_ H_ 0.986509 0.782404 0.872718 0.11455
H_ H_ 1.00521312 0.80525 0.922831 0.11455
H_ H_ 0.737498 0.825187 0.89092 0.11455
H_ H_ 0.751576 0.837302 0.943711 0.11455
H_ H_ 0.945475 0.903304 1.0050812 0.11455
H_ H_ 0.954019 0.933651 0.551487 0.11455
H_ H_ 0.9231 0.885084 0.592743 0.11455
H_ H_ 0.834226 0.753418 0.511301 0.11455
H_ H_ 0.794945 0.717109 0.55459 0.11455
H_ H_ 0.806969 0.752189 0.600876 0.11455
C_ C_ 0.718306 0.69107 0.903453 0.68181
C_ C_ 0.773802 0.679953 0.89973 -0.05681
C_ C_ 0.805134 0.675345 0.923518 -0.08735
C_ C_ 0.857543 0.668978 0.920449 -0.05681
C_ C_ 0.878265 0.659469 0.892679 -0.05681
C_ C_ 0.845742 0.653964 0.869357 -0.08735
C_ C_ 0.793885 0.667756 0.872493 -0.08735
C_ C_ 0.889639 0.67828 0.944005 -0.08735
C_ C_ 0.941397 0.678225 0.940293 -0.08735
C_ C_ 0.962731 0.668766 0.91242 -0.05681
C_ C_ 0.931323 0.659829 0.889281 -0.08735
C_ C_ 0.618494 0.783514 0.913807 0.68181
C_ C_ 0.634541 0.586372 0.89804 0.68181
C_ C_ 0.632954 0.528776 0.895714 -0.05681
C_ C_ 0.635457 -0.0042200000000000015 0.924965 -0.08735
C_ C_ 0.632756 0.943168 0.922766 -0.05681
C_ C_ 0.636019 0.921213 0.894321 -0.05681
C_ C_ 0.647892 0.952748 0.870414 -0.08735
C_ C_ 0.653509 0.00733071 0.874388 -0.08735
C_ C_ 0.62292 0.91327 0.946925 -0.08735
C_ C_ 0.621045 0.861899 0.944419 -0.08735
C_ C_ 0.621082 0.838971 0.917457 -0.05681
C_ C_ 0.63083 0.869433 0.893136 -0.08735
C_ C_ 0.521632 0.683748 0.906641 0.68181
C_ C_ 0.595038 0.62789 0.982621 0.1947
C_ C_ 0.587121 0.60733 0.503593 -0.08735
C_ C_ 0.606176 0.631224 0.528224 -0.08735
C_ C_ 0.6339 0.677428 0.525798 -0.05681
C_ C_ 0.648043 0.692317 0.497463 0.18498
C_ C_ 0.67967 0.737455 0.993909 -0.08735
C_ C_ 0.695013 0.763277 0.517704 -0.08735
C_ C_ 0.675579 0.751756 0.544911 -0.08735
C_ C_ 0.653191 0.705138 0.5501 0.18498
C_ C_ 0.682135 0.68189 0.597539 0.44287
C_ C_ 0.59581 0.703794 0.591343 0.44287
C_ C_ 0.587295 0.700889 0.621523 -0.05681
C_ C_ 0.539328 0.708931 0.632046 -0.08735
C_ C_ 0.530183 0.701469 0.661692 -0.08735
C_ C_ 0.571234 0.689926 0.680081 -0.05681
C_ C_ 0.620576 0.685708 0.668913 -0.05681
C_ C_ 0.628428 0.689608 0.639167 -0.05681
C_ C_ 0.67654 0.682209 0.628284 -0.05681
C_ C_ 0.718585 0.673641 0.647854 -0.08735
C_ C_ 0.712073 0.675987 0.677052 -0.08735
C_ C_ 0.662175 0.679529 0.688313 -0.05681
C_ C_ 0.651846 0.671406 0.717078 0.44287
C_ C_ 0.563971 0.686224 0.709983 0.44287
C_ C_ 0.595145 0.662972 0.757734 0.18498
C_ C_ 0.57502 0.61438 0.763598 -0.08735
C_ C_ 0.561099 0.602453 0.793187 -0.08735
C_ C_ 0.573326 0.634229 0.816335 -0.08735
C_ C_ 0.600561 0.679523 0.810749 0.18498
C_ C_ 0.610018 0.695123 0.781029 -0.05681
C_ C_ 0.639072 0.737927 0.776129 -0.08735
C_ C_ 0.656939 0.766548 0.799501 -0.08735
C_ C_ 0.648202 0.750605 0.827138 0.1947
C_ C_ 0.770442 0.822932 0.656991 0.68181
C_ C_ 0.713789 0.825764 0.652741 -0.05681
C_ C_ 0.679996 0.822211 0.675385 -0.08735
C_ C_ 0.626445 0.824615 0.669683 -0.05681
C_ C_ 0.607328 0.830369 0.640824 -0.05681
C_ C_ 0.642352 0.832729 0.618325 -0.08735
C_ C_ 0.696013 0.826927 0.623977 -0.08735
C_ C_ 0.593569 0.82603 0.693311 -0.08735
C_ C_ 0.541284 0.829464 0.6885 -0.08735
C_ C_ 0.523993 0.835184 0.660062 -0.05681
C_ C_ 0.556282 0.839736 0.636722 -0.08735
C_ C_ 0.876286 0.72603 0.665171 0.68181
C_ C_ 0.87068 0.922941 0.655588 0.68181
C_ C_ 0.872062 0.979697 0.652429 -0.05681
C_ C_ 0.874683 0.511067 0.675779 -0.08735
C_ C_ 0.884533 0.562136 0.675743 -0.05681
C_ C_ 0.904506 0.585855 0.650108 -0.05681
C_ C_ 0.917244 0.555938 0.626421 -0.08735
C_ C_ 0.855879 1.00240228 0.626395 -0.08735
C_ C_ 0.8634 0.592352 0.696351 -0.08735
C_ C_ 0.865006 0.644952 0.694578 -0.08735
C_ C_ 0.882623 0.670547 0.66905 -0.05681
C_ C_ 0.900792 0.638555 0.646682 -0.08735
C_ C_ 0.966595 0.825735 0.662228 0.68181
C_ C_ 0.89754 0.872775 0.73985 0.1947
C_ C_ 0.908797 0.881861 0.768407 -0.08735
C_ C_ 0.887282 0.854921 0.790947 -0.08735
C_ C_ 0.855748 0.812846 0.783279 -0.05681
C_ C_ 0.846065 0.80302 0.753831 0.18498
C_ C_ 0.815626 0.762631 0.746258 -0.08735
C_ C_ 0.800221 0.726465 0.766848 -0.08735
C_ C_ 0.811289 0.735312 0.795091 -0.08735
C_ C_ 0.837359 0.777858 0.804087 0.18498
C_ C_ 0.808521 0.801733 0.850511 0.44287
C_ C_ 0.894058 0.77419 0.845881 0.44287
C_ C_ 0.90499 0.785949 0.875453 -0.05681
C_ C_ 0.953435 0.783635 0.886935 -0.08735
C_ C_ 0.964059 0.798811 0.915763 -0.08735
C_ C_ 0.921401 0.806991 0.934598 -0.05681
C_ C_ 0.872336 0.807185 0.923114 -0.05681
C_ C_ 0.864542 0.80204 0.893406 -0.05681
C_ C_ 0.814424 0.808926 0.881426 -0.05681
C_ C_ 0.775594 0.817176 0.900161 -0.08735
C_ C_ 0.782813 0.826793 0.9306 -0.08735
C_ C_ 0.832258 0.82436 0.940533 -0.05681
C_ C_ 0.84251 0.830777 0.970556 0.44287
C_ C_ 0.929753 0.812887 0.964004 0.44287
C_ C_ 0.898713 0.837517 0.513422 0.18498
C_ C_ 0.922981 0.883647 0.519222 -0.08735
C_ C_ 0.933361 0.89932 0.547151 -0.08735
C_ C_ 0.915882 0.870902 0.570488 -0.08735
C_ C_ 0.883888 0.828565 0.565672 0.18498
C_ C_ 0.880104 0.808127 0.537039 -0.05681
C_ C_ 0.846521 0.766956 0.532905 -0.08735
C_ C_ 0.821969 0.74623 0.556818 -0.08735
C_ C_ 0.833003 0.761618 0.584354 0.1947
N_ N_ 0.622437 0.669125 0.977211 -0.29468
N_ N_ 0.642811 0.692193 0.579943 -0.17154
N_ N_ 0.603144 0.677045 0.727681 -0.17154
N_ N_ 0.61796 0.709787 0.832974 -0.29468
N_ N_ 0.867432 0.833971 0.733468 -0.29468
N_ N_ 0.847737 0.785136 0.834504 -0.17154
N_ N_ 0.89055 0.826531 0.98229 -0.17154
N_ N_ 0.864412 0.803326 0.588604 -0.29468
O_ O_ 0.697949 0.689155 0.927959 -0.58347
O_ O_ 0.690081 0.696869 0.882532 -0.58347
O_ O_ 0.613389 0.755138 0.935644 -0.58347
O_ O_ 0.609303 0.765092 0.889547 -0.58347
O_ O_ 0.637432 0.607025 0.92289 -0.58347
O_ O_ 0.624473 0.614643 0.877101 -0.58347
O_ O_ 0.549042 0.669723 0.927864 -0.58347
O_ O_ 0.540295 0.690868 0.881559 -0.58347
O_ O_ 0.560943 0.720808 0.574082 -0.46727
O_ O_ 0.727321 0.668229 0.588023 -0.46727
O_ O_ 0.518877 0.690042 0.721121 -0.46727
O_ O_ 0.692055 0.66753 0.734676 -0.46727
O_ O_ 0.790876 0.821532 0.682078 -0.58347
O_ O_ 0.7955 0.821999 0.634079 -0.58347
O_ O_ 0.868995 0.753373 0.687148 -0.58347
O_ O_ 0.868751 0.745294 0.640861 -0.58347
O_ O_ 0.860075 0.902934 0.679543 -0.58347
O_ O_ 0.874734 0.89606 0.634131 -0.58347
O_ O_ 0.938222 0.827038 0.683829 -0.58347
O_ O_ 0.948184 0.818279 0.637789 -0.58347
O_ O_ 0.926551 0.74713 0.830806 -0.46727
O_ O_ 0.763532 0.808661 0.838176 -0.46727
O_ O_ 0.974926 0.812115 0.974724 -0.46727
O_ O_ 0.804702 0.834452 0.989184 -0.46727
_cell_length_a 26.376
_cell_length_b 26.400000238300095
_cell_length_c 46.67800035477134
_cell_angle_alpha 90.00700052986613
_cell_angle_beta 89.99899961309502
_cell_angle_gamma 90.45000003183146
_symmetry_space_group_name_H-M         'P 1'
_symmetry_Int_Tables_number            1
loop_
_symmetry_equiv_pos_as_xyz
   'x, y, z'
                         
loop_
_atom_site_label
_atom_site_type_symbol
_atom_site_fract_x 
_atom_site_fract_y
_atom_site_fract_z
_atom_site_charge
Zn Zn 0.140481 0.181097 0.380625 0.90689
Zn Zn 0.148141 0.175321 0.427907 0.90689
Zn Zn 0.369425 0.304597 0.131918 0.90689
Zn Zn 0.361097 0.311539 0.180955 0.90689
H_ H_ 0.311813 0.201831 0.44097 0.11455
H_ H_ 0.392235 0.157576 0.347772 0.11455
H_ H_ 0.299874 0.146495 0.354309 0.11455
H_ H_ 0.403845 0.209872 0.461521 0.11455
H_ H_ 0.492405 0.203553 0.456473 0.11455
H_ H_ 0.473278 0.175257 0.367269 0.11455
H_ H_ 0.113197 0.0161852 0.438237 0.11455
H_ H_ 0.120953 0.432767 0.34634 0.11455
H_ H_ 0.148167 0.0122549 0.350008 0.11455
H_ H_ 0.164273 0.431808 0.46184 0.11455
H_ H_ 0.16043 0.339096 0.460106 0.11455
H_ H_ 0.108294 0.347252 0.372992 0.11455
H_ H_ 0.106813 0.087364 0.466088 0.11455
H_ H_ 0.094359 0.0714653 0.0208269 0.11455
H_ H_ 0.118259 0.128538 0.0604108 0.11455
H_ H_ 0.205261 0.238947 0.470002 0.11455
H_ H_ 0.226313 0.309671 0.0121338 0.11455
H_ H_ 0.205254 0.290271 0.0628434 0.11455
H_ H_ 0.0208142 0.200103 0.122537 0.11455
H_ H_ 0.0119723 0.202871 0.175363 0.11455
H_ H_ 0.270626 0.19511 0.139788 0.11455
H_ H_ 0.261423 0.186192 0.191988 0.11455
H_ H_ 0.0811281 0.0846359 0.246983 0.11455
H_ H_ 0.0536305 0.0654192 0.296083 0.11455
H_ H_ 0.0789496 0.119893 0.337632 0.11455
H_ H_ 0.165758 0.247058 0.258447 0.11455
H_ H_ 0.208403 0.28983 0.298002 0.11455
H_ H_ 0.191939 0.252679 0.347674 0.11455
H_ H_ 0.19115 0.31109 0.197714 0.11455
H_ H_ 0.122373 0.344954 0.100365 0.11455
H_ H_ 0.212073 0.339593 0.108033 0.11455
H_ H_ 0.103301 0.293943 0.214761 0.11455
H_ H_ 0.0163346 0.296692 0.208074 0.11455
H_ H_ 0.0382841 0.332012 0.118692 0.11455
H_ H_ 0.359227 0.480525 0.189779 0.11455
H_ H_ 0.345661 0.0605478 0.0967569 0.11455
H_ H_ 0.362529 0.468547 0.0987353 0.11455
H_ H_ 0.339582 0.0598974 0.213487 0.11455
H_ H_ 0.354098 0.152873 0.210701 0.11455
H_ H_ 0.362967 0.146359 0.118949 0.11455
H_ H_ 0.405123 0.396527 0.215065 0.11455
H_ H_ 0.429061 0.420319 0.263407 0.11455
H_ H_ 0.40074 0.369163 0.304759 0.11455
H_ H_ 0.306535 0.250254 0.225428 0.11455
H_ H_ 0.276548 0.199717 0.263892 0.11455
H_ H_ 0.302382 0.219818 0.314512 0.11455
H_ H_ 0.487242 0.320437 0.368936 0.11455
H_ H_ 0.50384 0.324857 0.421554 0.11455
H_ H_ 0.240572 0.313457 0.393175 0.11455
H_ H_ 0.251876 0.325838 0.443683 0.11455
H_ H_ 0.457409 0.406731 0.499028 0.11455
H_ H_ 0.444365 0.430637 0.047362 0.11455
H_ H_ 0.427376 0.369095 0.0875399 0.11455
H_ H_ 0.326964 0.256469 0.00520275 0.11455
H_ H_ 0.319407 0.192263 0.0441399 0.11455
H_ H_ 0.330225 0.225342 0.0943171 0.11455
C_ C_ 0.244179 0.177438 0.399602 0.68181
C_ C_ 0.300984 0.179344 0.396793 -0.05681
C_ C_ 0.330519 0.191782 0.420666 -0.08735
C_ C_ 0.383426 0.191268 0.418513 -0.05681
C_ C_ 0.404872 0.177533 0.39108 -0.05681
C_ C_ 0.374224 0.170468 0.36749 -0.08735
C_ C_ 0.324136 0.162216 0.371667 -0.08735
C_ C_ 0.41674 0.199955 0.441144 -0.08735
C_ C_ 0.469429 0.194041 0.438402 -0.08735
C_ C_ 0.49118 0.18803 0.411384 -0.05681
C_ C_ 0.458174 0.175875 0.389014 -0.08735
C_ C_ 0.143123 0.27666 0.412863 0.68181
C_ C_ 0.14231 0.0777184 0.3967 0.68181
C_ C_ 0.14074 0.0213489 0.395096 -0.05681
C_ C_ 0.142645 0.494665 0.418556 -0.08735
C_ C_ 0.145723 0.440917 0.416503 -0.05681
C_ C_ 0.134822 0.416471 0.39056 -0.05681
C_ C_ 0.127462 0.447378 0.366972 -0.08735
C_ C_ 0.12371 0.501128 0.369141 -0.08735
C_ C_ 0.157861 0.413135 0.441217 -0.08735
C_ C_ 0.154941 0.360442 0.440206 -0.08735
C_ C_ 0.141124 0.334653 0.414108 -0.05681
C_ C_ 0.125727 0.363758 0.391362 -0.08735
C_ C_ 0.0469931 0.178291 0.408304 0.68181
C_ C_ 0.124167 0.112564 0.482255 0.1947
C_ C_ 0.110829 0.108234 0.0157712 -0.08735
C_ C_ 0.124066 0.140862 0.0376102 -0.08735
C_ C_ 0.150287 0.186545 0.0305099 -0.05681
C_ C_ 0.158669 0.199454 1.00141575 0.18498
C_ C_ 0.198811 0.227351 0.49209 -0.08735
C_ C_ 0.206855 0.273716 0.0168408 -0.08735
C_ C_ 0.191603 0.263339 0.0456108 -0.08735
C_ C_ 0.16761 0.217952 0.0526769 0.18498
C_ C_ 0.198682 0.19579 0.100111 0.44287
C_ C_ 0.110884 0.205073 0.0923866 0.44287
C_ C_ 0.101265 0.197759 0.122292 -0.05681
C_ C_ 0.0541673 0.194908 0.135382 -0.08735
C_ C_ 0.0472111 0.192835 0.165869 -0.08735
C_ C_ 0.0891942 0.187153 0.1834 -0.05681
C_ C_ 0.136048 0.187611 0.17119 -0.05681
C_ C_ 0.14395 0.192571 0.140524 -0.05681
C_ C_ 0.192291 0.192032 0.129853 -0.05681
C_ C_ 0.234047 0.189846 0.149169 -0.08735
C_ C_ 0.227604 0.187701 0.17844 -0.08735
C_ C_ 0.177792 0.183111 0.189949 -0.05681
C_ C_ 0.170839 0.171944 0.218459 0.44287
C_ C_ 0.0817479 0.179559 0.213002 0.44287
C_ C_ 0.116048 0.154664 0.259253 0.18498
C_ C_ 0.0921598 0.109072 0.265026 -0.08735
C_ C_ 0.0799928 0.0973504 0.293634 -0.08735
C_ C_ 0.0946224 0.126787 0.316428 -0.08735
C_ C_ 0.124864 0.168064 0.310907 0.18498
C_ C_ 0.137975 0.182412 0.282527 -0.05681
C_ C_ 0.163399 0.230862 0.278685 -0.08735
C_ C_ 0.185726 0.254195 0.301472 -0.08735
C_ C_ 0.179545 0.232932 0.32928 0.1947
C_ C_ 0.265321 0.31429 0.157493 0.68181
C_ C_ 0.208435 0.32012 0.154002 -0.05681
C_ C_ 0.17576 0.321176 0.177551 -0.08735
C_ C_ 0.123196 0.321689 0.17296 -0.05681
C_ C_ 0.104365 0.329057 0.14516 -0.05681
C_ C_ 0.136056 0.33247 0.121474 -0.08735
C_ C_ 0.188076 0.328845 0.126328 -0.08735
C_ C_ 0.0902717 0.308652 0.195092 -0.08735
C_ C_ 0.0395746 0.307573 0.190128 -0.08735
C_ C_ 0.0177103 0.315806 0.162352 -0.05681
C_ C_ 0.0514262 0.327604 0.14015 -0.08735
C_ C_ 0.375669 0.209958 0.164716 0.68181
C_ C_ 0.360533 0.407132 0.148488 0.68181
C_ C_ 0.361505 0.464709 0.144549 -0.05681
C_ C_ 0.349525 -0.004487000000000019 0.171268 -0.08735
C_ C_ 0.352702 0.0489579 0.168283 -0.05681
C_ C_ 0.362009 0.0733928 0.140782 -0.05681
C_ C_ 0.358945 0.042107 0.115982 -0.08735
C_ C_ 0.371228 0.489464 0.117457 -0.08735
C_ C_ 0.352217 0.078005 0.193668 -0.08735
C_ C_ 0.360259 0.130043 0.191635 -0.08735
C_ C_ 0.370213 0.153582 0.165687 -0.05681
C_ C_ 0.367633 0.126644 0.139421 -0.08735
C_ C_ 0.464187 0.313927 0.158134 0.68181
C_ C_ 0.39401 0.371759 0.233155 0.1947
C_ C_ 0.40988 0.384084 0.261032 -0.08735
C_ C_ 0.39784 0.355074 0.283474 -0.08735
C_ C_ 0.366176 0.312976 0.278995 -0.05681
C_ C_ 0.349474 0.30068 0.251041 0.18498
C_ C_ 0.317914 0.259191 0.246954 -0.08735
C_ C_ 0.304227 0.227974 0.269656 -0.08735
C_ C_ 0.316114 0.243122 0.297233 -0.08735
C_ C_ 0.347345 0.285558 0.302984 0.18498
C_ C_ 0.31521 0.310448 0.350151 0.44287
C_ C_ 0.401736 0.288697 0.345132 0.44287
C_ C_ 0.40949 0.299543 0.374677 -0.05681
C_ C_ 0.458751 0.312356 0.38416 -0.08735
C_ C_ 0.467153 0.315814 0.413538 -0.08735
C_ C_ 0.425243 0.317498 0.432875 -0.05681
C_ C_ 0.375608 0.318138 0.420772 -0.05681
C_ C_ 0.368633 0.310773 0.392034 -0.05681
C_ C_ 0.320871 0.31449 0.380168 -0.05681
C_ C_ 0.27839 0.31786 0.399142 -0.08735
C_ C_ 0.285626 0.326594 0.428527 -0.08735
C_ C_ 0.335167 0.32909 0.438821 -0.05681
C_ C_ 0.34525 0.345362 0.467885 0.44287
C_ C_ 0.430667 0.324949 0.461696 0.44287
C_ C_ 0.386698 0.341622 0.00807595 0.18498
C_ C_ 0.412779 0.385481 0.0144083 -0.08735
C_ C_ 0.426071 0.396897 0.042975 -0.08735
C_ C_ 0.413375 0.363096 0.0652129 -0.08735
C_ C_ 0.387007 0.31958 0.0599499 0.18498
C_ C_ 0.376022 0.307089 0.0301547 -0.05681
C_ C_ 0.345199 0.261537 0.0248125 -0.08735
C_ C_ 0.33353 0.230458 0.0479252 -0.08735
C_ C_ 0.34131 0.248772 0.0762772 0.1947
N_ N_ 0.149351 0.156503 0.476153 -0.29468
N_ N_ 0.159339 0.20596 0.0822787 -0.17154
N_ N_ 0.122208 0.169352 0.23018 -0.17154
N_ N_ 0.142372 0.195067 0.332769 -0.29468
N_ N_ 0.366427 0.330366 0.22858 -0.29468
N_ N_ 0.35482 0.295923 0.33298 -0.17154
N_ N_ 0.391093 0.336624 0.479617 -0.17154
N_ N_ 0.368832 0.28972 0.0824688 -0.29468
O_ O_ 0.223397 0.175622 0.424567 -0.58347
O_ O_ 0.216974 0.176331 0.377667 -0.58347
O_ O_ 0.146933 0.250447 0.435666 -0.58347
O_ O_ 0.137353 0.256141 0.38917 -0.58347
O_ O_ 0.146899 0.0978726 0.4206 -0.58347
O_ O_ 0.14228 0.106988 0.374814 -0.58347
O_ O_ 0.0768782 0.171334 0.429098 -0.58347
O_ O_ 0.0649255 0.183318 0.383536 -0.58347
O_ O_ 0.073279 0.220945 0.0754675 -0.46727
O_ O_ 0.242089 0.185053 0.0886272 -0.46727
O_ O_ 0.0361001 0.184788 0.224373 -0.46727
O_ O_ 0.209957 0.155627 0.233817 -0.46727
O_ O_ 0.284521 0.314277 0.181923 -0.58347
O_ O_ 0.292421 0.303554 0.135277 -0.58347
O_ O_ 0.367227 0.237046 0.18705 -0.58347
O_ O_ 0.374874 0.231208 0.141167 -0.58347
O_ O_ 0.354754 0.38603 0.173125 -0.58347
O_ O_ 0.36322 0.379689 0.126424 -0.58347
O_ O_ 0.43741 0.325756 0.178859 -0.58347
O_ O_ 0.444853 0.311637 0.133946 -0.58347
O_ O_ 0.439299 0.26988 0.330302 -0.46727
O_ O_ 0.270855 0.321431 0.338401 -0.46727
O_ O_ 0.4768 0.322371 0.471486 -0.46727
O_ O_ 0.309406 0.372203 0.481862 -0.46727
Zn Zn 0.137382 0.187277 0.88179 0.90689
Zn Zn 0.14264 0.180654 0.929907 0.90689
Zn Zn 0.378326 0.319987 0.628527 0.90689
Zn Zn 0.370337 0.326944 0.675807 0.90689
H_ H_ 0.311498 0.158762 0.940815 0.11455
H_ H_ 0.382844 0.196598 0.84407 0.11455
H_ H_ 0.296218 0.180105 0.849914 0.11455
H_ H_ 0.397446 0.155252 0.960014 0.11455
H_ H_ 0.486323 0.164516 0.95613 0.11455
H_ H_ 0.473881 0.186756 0.864688 0.11455
H_ H_ 0.13347 0.0185518 0.944498 0.11455
H_ H_ 0.100696 0.437352 0.847644 0.11455
H_ H_ 0.137305 0.0213735 0.851267 0.11455
H_ H_ 0.142795 0.432294 0.96469 0.11455
H_ H_ 0.146977 0.341238 0.958762 0.11455
H_ H_ 0.134287 0.355865 0.867736 0.11455
H_ H_ 0.106943 0.0949591 0.971334 0.11455
H_ H_ 0.109691 0.0556319 0.514876 0.11455
H_ H_ 0.13257 0.110602 0.554311 0.11455
H_ H_ 0.198861 0.255743 0.975088 0.11455
H_ H_ 0.226659 0.298299 0.508288 0.11455
H_ H_ 0.199684 0.283306 0.557985 0.11455
H_ H_ 0.0160163 0.204876 0.619026 0.11455
H_ H_ 0.00284647 0.194249 0.668224 0.11455
H_ H_ 0.267299 0.188752 0.637577 0.11455
H_ H_ 0.250086 0.173435 0.689536 0.11455
H_ H_ 0.0722575 0.0973888 0.744126 0.11455
H_ H_ 0.0592107 0.0634329 0.790911 0.11455
H_ H_ 0.087195 0.110122 0.83434 0.11455
H_ H_ 0.164003 0.256107 0.756944 0.11455
H_ H_ 0.212041 0.288752 0.801041 0.11455
H_ H_ 0.19151 0.257743 0.84805 0.11455
H_ H_ 0.210486 0.29882 0.69341 0.11455
H_ H_ 0.127605 0.337041 0.599246 0.11455
H_ H_ 0.216594 0.338655 0.603739 0.11455
H_ H_ 0.121148 0.296205 0.71651 0.11455
H_ H_ 0.0270549 0.299051 0.710184 0.11455
H_ H_ 0.0454636 0.337389 0.620817 0.11455
H_ H_ 0.354433 0.493321 0.686383 0.11455
H_ H_ 0.339741 0.0762248 0.597989 0.11455
H_ H_ 0.418421 0.482268 0.601756 0.11455
H_ H_ 0.376967 0.074786 0.712406 0.11455
H_ H_ 0.384532 0.166531 0.70881 0.11455
H_ H_ 0.377324 0.158535 0.618986 0.11455
H_ H_ 0.412111 0.404094 0.709943 0.11455
H_ H_ 0.412405 0.446496 0.758276 0.11455
H_ H_ 0.387471 0.396798 0.800545 0.11455
H_ H_ 0.307934 0.262906 0.720629 0.11455
H_ H_ 0.288444 0.209685 0.761 0.11455
H_ H_ 0.305242 0.231441 0.809863 0.11455
H_ H_ 0.469238 0.28144 0.869373 0.11455
H_ H_ 0.486364 0.281718 0.921008 0.11455
H_ H_ 0.233378 0.360003 0.886054 0.11455
H_ H_ 0.244351 0.377479 0.935758 0.11455
H_ H_ 0.423593 0.410447 -0.0024849999999999595 0.11455
H_ H_ 0.480755 0.420954 0.550761 0.11455
H_ H_ 0.44079 0.372251 0.589138 0.11455
H_ H_ 0.34229 0.260352 0.505859 0.11455
H_ H_ 0.310514 0.212153 0.546468 0.11455
H_ H_ 0.322958 0.2388 0.594904 0.11455
C_ C_ 0.240455 0.180977 0.90129 0.68181
C_ C_ 0.296738 0.172087 0.896259 -0.05681
C_ C_ 0.328134 0.170842 0.921158 -0.08735
C_ C_ 0.380725 0.174866 0.916737 -0.05681
C_ C_ 0.402319 0.181056 0.888151 -0.05681
C_ C_ 0.370079 0.183142 0.864797 -0.08735
C_ C_ 0.318104 0.182886 0.869064 -0.08735
C_ C_ 0.411961 0.167994 0.940294 -0.08735
C_ C_ 0.4641 0.169685 0.936826 -0.08735
C_ C_ 0.487436 0.179384 0.909345 -0.05681
C_ C_ 0.456093 0.183678 0.885461 -0.08735
C_ C_ 0.136302 0.281973 0.911244 0.68181
C_ C_ 0.144872 0.0853092 0.900128 0.68181
C_ C_ 0.13895 0.0287114 0.898129 -0.05681
C_ C_ 0.127813 0.499249 0.921044 -0.08735
C_ C_ 0.133533 0.447675 0.919266 -0.05681
C_ C_ 0.122154 0.42435 0.893446 -0.05681
C_ C_ 0.114374 0.454017 0.868311 -0.08735
C_ C_ 0.110944 0.506714 0.871243 -0.08735
C_ C_ 0.133695 0.415312 0.943413 -0.08735
C_ C_ 0.136856 0.362357 0.940168 -0.08735
C_ C_ 0.135484 0.338562 0.913258 -0.05681
C_ C_ 0.130143 0.371679 0.889496 -0.08735
C_ C_ 0.0407928 0.172621 0.910009 0.68181
C_ C_ 0.121139 0.121337 0.987632 0.1947
C_ C_ 0.118613 0.094385 0.510084 -0.08735
C_ C_ 0.134382 0.124028 0.532624 -0.08735
C_ C_ 0.156169 0.172951 0.526993 -0.05681
C_ C_ 0.168731 0.185374 0.498639 0.18498
C_ C_ 0.184604 0.243859 0.995026 -0.08735
C_ C_ 0.208562 0.261815 0.512873 -0.08735
C_ C_ 0.191623 0.254576 0.541444 -0.08735
C_ C_ 0.16724 0.209039 0.549426 0.18498
C_ C_ 0.194651 0.190566 0.597628 0.44287
C_ C_ 0.107975 0.208128 0.590371 0.44287
C_ C_ 0.0985584 0.195112 0.62008 -0.05681
C_ C_ 0.0493152 0.196654 0.632208 -0.08735
C_ C_ 0.0403517 0.187664 0.660727 -0.08735
C_ C_ 0.0825147 0.18838 0.680085 -0.05681
C_ C_ 0.131284 0.183684 0.668544 -0.05681
C_ C_ 0.140026 0.184815 0.638162 -0.05681
C_ C_ 0.188968 0.188368 0.627587 -0.05681
C_ C_ 0.230059 0.188543 0.646649 -0.08735
C_ C_ 0.220808 0.18039 0.676421 -0.08735
C_ C_ 0.172366 0.183895 0.687539 -0.05681
C_ C_ 0.162847 0.176835 0.716548 0.44287
C_ C_ 0.0751695 0.188669 0.709883 0.44287
C_ C_ 0.108136 0.166543 0.757729 0.18498
C_ C_ 0.0823394 0.120525 0.76275 -0.08735
C_ C_ 0.0778557 0.0998137 0.78964 -0.08735
C_ C_ 0.0962414 0.127077 0.813966 -0.08735
C_ C_ 0.12367 0.172759 0.810024 0.18498
C_ C_ 0.12978 0.192249 0.78197 -0.05681
C_ C_ 0.157534 0.239608 0.77868 -0.08735
C_ C_ 0.185771 0.257277 0.802877 -0.08735
C_ C_ 0.173191 0.238982 0.829855 0.1947
C_ C_ 0.276094 0.32073 0.649231 0.68181
C_ C_ 0.219718 0.319135 0.64838 -0.05681
C_ C_ 0.190374 0.312944 0.674165 -0.08735
C_ C_ 0.138737 0.317361 0.672714 -0.05681
C_ C_ 0.115817 0.331046 0.64564 -0.05681
C_ C_ 0.145014 0.331613 0.619755 -0.08735
C_ C_ 0.196217 0.326293 0.622104 -0.08735
C_ C_ 0.105408 0.305805 0.695305 -0.08735
C_ C_ 0.0529205 0.305603 0.691649 -0.08735
C_ C_ 0.0307228 0.31865 0.666181 -0.05681
C_ C_ 0.06269 0.332744 0.643083 -0.08735
C_ C_ 0.376434 0.226593 0.662339 0.68181
C_ C_ 0.376976 0.421958 0.645075 0.68181
C_ C_ 0.382532 0.478996 0.643448 -0.05681
C_ C_ 0.36871 0.0101108 0.670856 -0.08735
C_ C_ 0.369677 0.0643538 0.668401 -0.05681
C_ C_ 0.366898 0.0880146 0.641346 -0.05681
C_ C_ 0.355005 0.0591725 0.616708 -0.08735
C_ C_ 0.397857 0.503449 0.617762 -0.08735
C_ C_ 0.375745 0.0938347 0.692588 -0.08735
C_ C_ 0.372738 0.146646 0.691028 -0.08735
C_ C_ 0.372548 0.170603 0.664193 -0.05681
C_ C_ 0.37484 0.141817 0.63942 -0.08735
C_ C_ 0.473202 0.320343 0.65858 0.68181
C_ C_ 0.397767 0.38496 0.728224 0.1947
C_ C_ 0.401624 0.405228 0.755022 -0.08735
C_ C_ 0.384877 0.378242 0.77846 -0.08735
C_ C_ 0.354507 0.335563 0.775267 -0.05681
C_ C_ 0.348125 0.317838 0.747417 0.18498
C_ C_ 0.319625 0.275145 0.742181 -0.08735
C_ C_ 0.305976 0.245309 0.764186 -0.08735
C_ C_ 0.313114 0.259795 0.792576 -0.08735
C_ C_ 0.335442 0.306636 0.798754 0.18498
C_ C_ 0.303036 0.335623 0.846476 0.44287
C_ C_ 0.38965 0.313474 0.839936 0.44287
C_ C_ 0.397926 0.318019 0.870231 -0.05681
C_ C_ 0.441669 0.294819 0.882047 -0.08735
C_ C_ 0.448816 0.296726 0.912419 -0.08735
C_ C_ 0.409765 0.312211 0.931393 -0.05681
C_ C_ 0.363117 0.329441 0.918497 -0.05681
C_ C_ 0.357552 0.327637 0.888019 -0.05681
C_ C_ 0.310187 0.341161 0.876857 -0.05681
C_ C_ 0.271016 0.358487 0.894742 -0.08735
C_ C_ 0.278191 0.361097 0.924128 -0.08735
C_ C_ 0.324661 0.349717 0.937009 -0.05681
C_ C_ 0.332164 0.347622 0.966099 0.44287
C_ C_ 0.414218 0.312185 0.961596 0.44287
C_ C_ 0.402155 0.348443 0.509851 0.18498
C_ C_ 0.440463 0.383642 0.515579 -0.08735
C_ C_ 0.453049 0.391733 0.544427 -0.08735
C_ C_ 0.427428 0.365535 0.567012 -0.08735
C_ C_ 0.396803 0.326381 0.561324 0.18498
C_ C_ 0.382248 0.316341 0.532649 -0.05681
C_ C_ 0.352264 0.272345 0.526883 -0.08735
C_ C_ 0.332719 0.245456 0.550044 -0.08735
C_ C_ 0.342346 0.259382 0.577765 0.1947
N_ N_ 0.142876 0.168014 0.97959 -0.29468
N_ N_ 0.155354 0.201951 0.579704 -0.17154
N_ N_ 0.114995 0.181832 0.727871 -0.17154
N_ N_ 0.143628 0.19743 0.834306 -0.29468
N_ N_ 0.368664 0.343759 0.723753 -0.29468
N_ N_ 0.343384 0.320775 0.828883 -0.17154
N_ N_ 0.376511 0.332525 0.978054 -0.17154
N_ N_ 0.37563 0.298809 0.583348 -0.29468
O_ O_ 0.220988 0.177336 0.92622 -0.58347
O_ O_ 0.212389 0.183188 0.880369 -0.58347
O_ O_ 0.14299 0.255739 0.933947 -0.58347
O_ O_ 0.13591 0.262054 0.887204 -0.58347
O_ O_ 0.143657 0.106921 0.924747 -0.58347
O_ O_ 0.137858 0.111023 0.877546 -0.58347
O_ O_ 0.0678137 0.171695 0.93207 -0.58347
O_ O_ 0.0604085 0.183988 0.885688 -0.58347
O_ O_ 0.0707993 0.222341 0.574204 -0.46727
O_ O_ 0.243841 0.19105 0.588594 -0.46727
O_ O_ 0.0286083 0.191026 0.720359 -0.46727
O_ O_ 0.202242 0.172282 0.734457 -0.46727
O_ O_ 0.297215 0.31047 0.672791 -0.58347
O_ O_ 0.30287 0.33148 0.627411 -0.58347
O_ O_ 0.379896 0.253249 0.685202 -0.58347
O_ O_ 0.370634 0.248488 0.637876 -0.58347
O_ O_ 0.363846 0.402572 0.669375 -0.58347
O_ O_ 0.378879 0.396051 0.622462 -0.58347
O_ O_ 0.445268 0.334842 0.678406 -0.58347
O_ O_ 0.452908 0.308225 0.634201 -0.58347
O_ O_ 0.427359 0.299272 0.822825 -0.46727
O_ O_ 0.259911 0.346968 0.834298 -0.46727
O_ O_ 0.456774 0.29618 0.97356 -0.46727
O_ O_ 0.293126 0.362643 0.981605 -0.46727
Zn Zn 0.119049 0.681991 0.382598 0.90689
Zn Zn 0.136277 0.673876 0.428366 0.90689
Zn Zn 0.364064 0.808728 0.12937 0.90689
Zn Zn 0.353081 0.811144 0.176373 0.90689
H_ H_ 0.302991 0.701167 0.44168 0.11455
H_ H_ 0.369426 0.674149 0.342895 0.11455
H_ H_ 0.278657 0.664051 0.352632 0.11455
H_ H_ 0.391715 0.688558 0.46295 0.11455
H_ H_ 0.47622 0.673305 0.453422 0.11455
H_ H_ 0.45575 0.683562 0.362432 0.11455
H_ H_ 0.144992 0.512156 0.439753 0.11455
H_ H_ 0.132014 0.91955 0.348237 0.11455
H_ H_ 0.124976 0.523631 0.34977 0.11455
H_ H_ 0.120492 0.932584 0.466834 0.11455
H_ H_ 0.110783 0.835062 0.464101 0.11455
H_ H_ 0.145056 0.844141 0.373493 0.11455
H_ H_ 0.0742243 0.609095 0.464647 0.11455
H_ H_ 0.0537419 0.578278 0.0162401 0.11455
H_ H_ 0.0874097 0.624303 0.0564603 0.11455
H_ H_ 0.189712 0.751854 0.475387 0.11455
H_ H_ 0.218826 0.797245 0.0146757 0.11455
H_ H_ 0.188084 0.776461 0.0627706 0.11455
H_ H_ 0.00206791 0.690056 0.12261 0.11455
H_ H_ -0.007940999999999976 0.675641 0.174317 0.11455
H_ H_ 0.24672 0.641897 0.1347 0.11455
H_ H_ 0.239392 0.63446 0.186904 0.11455
H_ H_ 0.0730667 0.571577 0.250274 0.11455
H_ H_ 0.0411085 0.555563 0.298302 0.11455
H_ H_ 0.0583934 0.613941 0.338154 0.11455
H_ H_ 0.150525 0.732079 0.255568 0.11455
H_ H_ 0.177615 0.785806 0.29673 0.11455
H_ H_ 0.161387 0.754492 0.345647 0.11455
H_ H_ 0.190784 0.792288 0.194488 0.11455
H_ H_ 0.117246 0.837445 0.100196 0.11455
H_ H_ 0.210395 0.820711 0.105137 0.11455
H_ H_ 0.101871 0.775527 0.214646 0.11455
H_ H_ 0.0141256 0.775543 0.205747 0.11455
H_ H_ 0.0364148 0.810316 0.118216 0.11455
H_ H_ 0.346296 0.978353 0.192193 0.11455
H_ H_ 0.378182 0.556782 0.0937104 0.11455
H_ H_ 0.3392 0.970066 0.100322 0.11455
H_ H_ 0.348681 0.564815 0.210351 0.11455
H_ H_ 0.360663 0.65421 0.205408 0.11455
H_ H_ 0.366747 0.642326 0.114682 0.11455
H_ H_ 0.414657 0.878685 0.211702 0.11455
H_ H_ 0.433628 0.909289 0.26228 0.11455
H_ H_ 0.383104 0.873037 0.301142 0.11455
H_ H_ 0.285012 0.76118 0.221316 0.11455
H_ H_ 0.258618 0.699611 0.261723 0.11455
H_ H_ 0.289728 0.718272 0.30908 0.11455
H_ H_ 0.480791 0.801709 0.366752 0.11455
H_ H_ 0.496702 0.808092 0.417569 0.11455
H_ H_ 0.228571 0.809362 0.38601 0.11455
H_ H_ 0.23963 0.82739 0.437773 0.11455
H_ H_ 0.423796 0.914227 0.495783 0.11455
H_ H_ 0.441453 0.931908 0.0486877 0.11455
H_ H_ 0.411364 0.876983 0.0855177 0.11455
H_ H_ 0.329206 0.752621 0.00277204 0.11455
H_ H_ 0.300804 0.703293 0.0428681 0.11455
H_ H_ 0.313468 0.729466 0.0935034 0.11455
C_ C_ 0.224312 0.680628 0.402868 0.68181
C_ C_ 0.281695 0.682511 0.397803 -0.05681
C_ C_ 0.316504 0.688062 0.421198 -0.08735
C_ C_ 0.36878 0.682168 0.416939 -0.05681
C_ C_ 0.389439 0.680238 0.389315 -0.05681
C_ C_ 0.35537 0.67679 0.365494 -0.08735
C_ C_ 0.302299 0.674197 0.370168 -0.08735
C_ C_ 0.402032 0.685296 0.440416 -0.08735
C_ C_ 0.453492 0.681313 0.436082 -0.08735
C_ C_ 0.475446 0.68641 0.408189 -0.05681
C_ C_ 0.442409 0.682444 0.384171 -0.08735
C_ C_ 0.123552 0.777555 0.415064 0.68181
C_ C_ 0.132752 0.581152 0.398749 0.68181
C_ C_ 0.135498 0.524978 0.395634 -0.05681
C_ C_ 0.132399 0.994527 0.421166 -0.08735
C_ C_ 0.127816 0.940452 0.421121 -0.05681
C_ C_ 0.13435 0.914344 0.394397 -0.05681
C_ C_ 0.133668 0.93992 0.369134 -0.08735
C_ C_ 0.138012 0.993102 0.369251 -0.08735
C_ C_ 0.122259 0.911702 0.446544 -0.08735
C_ C_ 0.120987 0.858497 0.445566 -0.08735
C_ C_ 0.1252 0.833535 0.418419 -0.05681
C_ C_ 0.1346 0.86154 0.393183 -0.08735
C_ C_ 0.0311941 0.672318 0.409741 0.68181
C_ C_ 0.0996378 0.624473 0.481942 0.1947
C_ C_ 0.0782047 0.61006 0.0110369 -0.08735
C_ C_ 0.0963862 0.636812 0.0343151 -0.08735
C_ C_ 0.129125 0.680184 0.029288 -0.05681
C_ C_ 0.145476 0.690237 1.000724663 0.18498
C_ C_ 0.177047 0.738374 0.49589 -0.08735
C_ C_ 0.196665 0.763325 0.0176567 -0.08735
C_ C_ 0.182022 0.750732 0.0452037 -0.08735
C_ C_ 0.150019 0.709191 0.0516429 0.18498
C_ C_ 0.181079 0.677753 0.0974293 0.44287
C_ C_ 0.0935112 0.702543 0.0953801 0.44287
C_ C_ 0.0836659 0.687395 0.123254 -0.05681
C_ C_ 0.0349313 0.690404 0.136534 -0.08735
C_ C_ 0.0292199 0.680395 0.165379 -0.08735
C_ C_ 0.0730016 0.66823 0.183501 -0.05681
C_ C_ 0.121472 0.670743 0.170844 -0.05681
C_ C_ 0.126904 0.675456 0.14077 -0.05681
C_ C_ 0.173868 0.666958 0.127691 -0.05681
C_ C_ 0.21282 0.652063 0.145074 -0.08735
C_ C_ 0.208707 0.647934 0.174254 -0.08735
C_ C_ 0.163669 0.655984 0.187903 -0.05681
C_ C_ 0.157178 0.656627 0.21807 0.44287
C_ C_ 0.0691369 0.664344 0.213354 0.44287
C_ C_ 0.102495 0.6437 0.258899 0.18498
C_ C_ 0.0740904 0.600684 0.265856 -0.08735
C_ C_ 0.0548776 0.591567 0.294034 -0.08735
C_ C_ 0.0669117 0.624107 0.316143 -0.08735
C_ C_ 0.103463 0.661539 0.310921 0.18498
C_ C_ 0.116498 0.6772 0.282046 -0.05681
C_ C_ 0.141976 0.722174 0.277334 -0.08735
C_ C_ 0.151856 0.752958 0.299756 -0.08735
C_ C_ 0.144567 0.735696 0.328335 0.1947
C_ C_ 0.262349 0.811653 0.155489 0.68181
C_ C_ 0.206538 0.813209 0.151446 -0.05681
C_ C_ 0.174976 0.805263 0.175561 -0.08735
C_ C_ 0.123335 0.806164 0.170882 -0.05681
C_ C_ 0.102002 0.8171 0.144538 -0.05681
C_ C_ 0.133772 0.823657 0.120459 -0.08735
C_ C_ 0.185374 0.815873 0.123511 -0.08735
C_ C_ 0.0911409 0.788886 0.19374 -0.08735
C_ C_ 0.0375328 0.789948 0.18965 -0.08735
C_ C_ 0.0159966 0.806057 0.163021 -0.05681
C_ C_ 0.0489637 0.816521 0.14089 -0.08735
C_ C_ 0.367697 0.711961 0.160086 0.68181
C_ C_ 0.354557 0.907855 0.148139 0.68181
C_ C_ 0.351297 0.965055 0.145893 -0.05681
C_ C_ 0.361056 0.497234 0.169496 -0.08735
C_ C_ 0.362642 0.548932 0.16706 -0.05681
C_ C_ 0.36643 0.571073 0.139835 -0.05681
C_ C_ 0.367176 0.541598 0.1153 -0.08735
C_ C_ 0.350616 -0.011201000000000016 0.118802 -0.08735
C_ C_ 0.360522 0.581495 0.190628 -0.08735
C_ C_ 0.369594 0.632619 0.18848 -0.08735
C_ C_ 0.368306 0.655633 0.161772 -0.05681
C_ C_ 0.367196 0.625822 0.13632 -0.08735
C_ C_ 0.456948 0.817406 0.154552 0.68181
C_ C_ 0.392362 0.865399 0.228846 0.1947
C_ C_ 0.401774 0.88468 0.256658 -0.08735
C_ C_ 0.376337 0.859423 0.279451 -0.08735
C_ C_ 0.342923 0.818574 0.275102 -0.05681
C_ C_ 0.331877 0.803715 0.245707 0.18498
C_ C_ 0.299351 0.763702 0.241804 -0.08735
C_ C_ 0.282461 0.733496 0.265761 -0.08735
C_ C_ 0.304734 0.739862 0.2926 -0.08735
C_ C_ 0.333553 0.783159 0.298096 0.18498
C_ C_ 0.301519 0.805097 0.347091 0.44287
C_ C_ 0.390257 0.799091 0.339347 0.44287
C_ C_ 0.399109 0.80664 0.368897 -0.05681
C_ C_ 0.449813 0.80723 0.381061 -0.08735
C_ C_ 0.457177 0.808043 0.410504 -0.08735
C_ C_ 0.415412 0.815035 0.429386 -0.05681
C_ C_ 0.366652 0.81812 0.417632 -0.05681
C_ C_ 0.357469 0.808881 0.388188 -0.05681
C_ C_ 0.308145 0.808009 0.37696 -0.05681
C_ C_ 0.266682 0.810515 0.395402 -0.08735
C_ C_ 0.272458 0.824517 0.423791 -0.08735
C_ C_ 0.323571 0.828304 0.435667 -0.05681
C_ C_ 0.331074 0.829321 0.465909 0.44287
C_ C_ 0.423047 0.820769 0.459316 0.44287
C_ C_ 0.378526 0.848296 0.00614562 0.18498
C_ C_ 0.402505 0.893647 0.0139593 -0.08735
C_ C_ 0.415772 0.902316 0.043092 -0.08735
C_ C_ 0.399119 0.869807 0.0648019 -0.08735
C_ C_ 0.375557 0.825468 0.0588459 0.18498
C_ C_ 0.363746 0.813526 0.0291583 -0.05681
C_ C_ 0.338275 0.767149 0.0243658 -0.08735
C_ C_ 0.321754 0.737547 0.0468903 -0.08735
C_ C_ 0.328082 0.753272 0.0752356 0.1947
N_ N_ 0.127294 0.667628 0.477333 -0.29468
N_ N_ 0.140666 0.695137 0.0825152 -0.17154
N_ N_ 0.109815 0.658626 0.229503 -0.17154
N_ N_ 0.120445 0.691674 0.33329 -0.29468
N_ N_ 0.357864 0.827204 0.223638 -0.29468
N_ N_ 0.341856 0.799365 0.328401 -0.17154
N_ N_ 0.380678 0.828098 0.47737 -0.17154
N_ N_ 0.35579 0.796588 0.0820633 -0.29468
O_ O_ 0.207575 0.665364 0.427876 -0.58347
O_ O_ 0.193022 0.695177 0.384266 -0.58347
O_ O_ 0.142028 0.748466 0.435007 -0.58347
O_ O_ 0.110275 0.757937 0.391874 -0.58347
O_ O_ 0.130529 0.598835 0.423852 -0.58347
O_ O_ 0.127547 0.608818 0.377442 -0.58347
O_ O_ 0.0609085 0.678516 0.430852 -0.58347
O_ O_ 0.0487477 0.673372 0.384754 -0.58347
O_ O_ 0.0541888 0.717213 0.0804885 -0.46727
O_ O_ 0.226345 0.669741 0.0847203 -0.46727
O_ O_ 0.0250937 0.676154 0.224159 -0.46727
O_ O_ 0.196839 0.649509 0.234201 -0.46727
O_ O_ 0.28029 0.822081 0.179761 -0.58347
O_ O_ 0.289367 0.803169 0.134588 -0.58347
O_ O_ 0.34929 0.739156 0.180016 -0.58347
O_ O_ 0.375114 0.733534 0.136083 -0.58347
O_ O_ 0.357706 0.885919 0.172243 -0.58347
O_ O_ 0.353243 0.881451 0.125527 -0.58347
O_ O_ 0.42792 0.803323 0.174914 -0.58347
O_ O_ 0.437158 0.821723 0.129048 -0.58347
O_ O_ 0.429877 0.789338 0.322044 -0.46727
O_ O_ 0.255957 0.805897 0.336916 -0.46727
O_ O_ 0.467691 0.812393 0.470729 -0.46727
O_ O_ 0.293388 0.837318 0.482412 -0.46727
Zn Zn 0.115812 0.687407 0.882709 0.90689
Zn Zn 0.126924 0.680738 0.93322 0.90689
Zn Zn 0.373349 0.822154 0.629082 0.90689
Zn Zn 0.361428 0.826678 0.676244 0.90689
H_ H_ 0.295475 0.699441 0.945838 0.11455
H_ H_ 0.361 0.675417 0.84813 0.11455
H_ H_ 0.270078 0.666754 0.856066 0.11455
H_ H_ 0.378407 0.710014 0.963493 0.11455
H_ H_ 0.472374 0.704293 0.955736 0.11455
H_ H_ 0.448006 0.69443 0.86767 0.11455
H_ H_ 0.128458 0.519096 0.941386 0.11455
H_ H_ 0.126594 0.934858 0.850447 0.11455
H_ H_ 0.100817 0.528266 0.85102 0.11455
H_ H_ 0.12103 0.930094 0.967264 0.11455
H_ H_ 0.104473 0.836047 0.961604 0.11455
H_ H_ 0.116828 0.853087 0.872405 0.11455
H_ H_ 0.0714947 0.605184 0.965097 0.11455
H_ H_ 0.0582606 0.578256 0.512884 0.11455
H_ H_ 0.111371 0.613242 0.551692 0.11455
H_ H_ 0.184177 0.744684 0.97303 0.11455
H_ H_ 0.236272 0.786213 0.516359 0.11455
H_ H_ 0.209093 0.760749 0.567813 0.11455
H_ H_ 1.0136291 0.705555 0.620113 0.11455
H_ H_ 1.000746682 0.699337 0.672105 0.11455
H_ H_ 0.263303 0.661369 0.636681 0.11455
H_ H_ 0.249763 0.653263 0.68747 0.11455
H_ H_ 0.062571 0.597481 0.746591 0.11455
H_ H_ 0.0348577 0.572837 0.796725 0.11455
H_ H_ 0.0591577 0.625796 0.837128 0.11455
H_ H_ 0.138049 0.760986 0.758408 0.11455
H_ H_ 0.171164 0.805549 0.799529 0.11455
H_ H_ 0.159952 0.770323 0.848418 0.11455
H_ H_ 0.195245 0.81195 0.694422 0.11455
H_ H_ 0.127332 0.845962 0.600243 0.11455
H_ H_ 0.215824 0.829962 0.604279 0.11455
H_ H_ 0.109714 0.806625 0.715688 0.11455
H_ H_ 0.0202813 0.792507 0.707956 0.11455
H_ H_ 0.037859 0.835812 0.618629 0.11455
H_ H_ 0.370704 0.993946 0.691431 0.11455
H_ H_ 0.417832 0.575213 0.596388 0.11455
H_ H_ 0.338034 0.985009 0.60122 0.11455
H_ H_ 0.349156 0.579458 0.70837 0.11455
H_ H_ 0.360903 0.673661 0.706776 0.11455
H_ H_ 0.387582 0.658636 0.614962 0.11455
H_ H_ 0.421698 0.899861 0.707505 0.11455
H_ H_ 0.433671 0.932044 0.758527 0.11455
H_ H_ 0.387395 0.890427 0.797684 0.11455
H_ H_ 0.308058 0.764932 0.717639 0.11455
H_ H_ 0.275241 0.71375 0.756066 0.11455
H_ H_ 0.298022 0.733757 0.806703 0.11455
H_ H_ 0.476565 0.801004 0.869049 0.11455
H_ H_ 0.488938 0.826325 0.920096 0.11455
H_ H_ 0.225981 0.846751 0.87861 0.11455
H_ H_ 0.232659 0.843724 0.932624 0.11455
H_ H_ 0.411035 0.920384 0.997175 0.11455
H_ H_ 0.440329 0.943195 0.544173 0.11455
H_ H_ 0.412143 0.893123 0.585852 0.11455
H_ H_ 0.329063 0.75931 0.50643 0.11455
H_ H_ 0.307456 0.707596 0.548968 0.11455
H_ H_ 0.320888 0.741979 0.596147 0.11455
C_ C_ 0.217655 0.687654 0.906727 0.68181
C_ C_ 0.274674 0.684413 0.902083 -0.05681
C_ C_ 0.30881 0.690387 0.925188 -0.08735
C_ C_ 0.361963 0.690417 0.921192 -0.05681
C_ C_ 0.381139 0.685358 0.893478 -0.05681
C_ C_ 0.347518 0.681961 0.869293 -0.08735
C_ C_ 0.294632 0.676306 0.873416 -0.08735
C_ C_ 0.394657 0.699417 0.943342 -0.08735
C_ C_ 0.447984 0.698808 0.938798 -0.08735
C_ C_ 0.46718 0.687418 0.911447 -0.05681
C_ C_ 0.433531 0.68737 0.889025 -0.08735
C_ C_ 0.112932 0.780818 0.915138 0.68181
C_ C_ 0.120999 0.585097 0.898597 0.68181
C_ C_ 0.113476 0.52858 0.897864 -0.05681
C_ C_ 0.136944 1.00028 0.923533 -0.08735
C_ C_ 0.132875 0.945127 0.921939 -0.05681
C_ C_ 0.129607 0.922493 0.895307 -0.05681
C_ C_ 0.128352 0.951362 0.870288 -0.08735
C_ C_ 0.134695 0.00341182 0.871525 -0.08735
C_ C_ 0.120016 0.916017 0.945738 -0.08735
C_ C_ 0.113239 0.862284 0.943826 -0.08735
C_ C_ 0.117138 0.838185 0.916715 -0.05681
C_ C_ 0.125715 0.869741 0.893457 -0.08735
C_ C_ 0.0190398 0.68002 0.909618 0.68181
C_ C_ 0.0921003 0.622585 0.982576 0.1947
C_ C_ 0.0884071 0.60556 0.509188 -0.08735
C_ C_ 0.112398 0.630695 0.531576 -0.08735
C_ C_ 0.139078 0.675091 0.52835 -0.05681
C_ C_ 0.14845 0.693749 0.499883 0.18498
C_ C_ 0.181029 0.730285 0.995416 -0.08735
C_ C_ 0.203228 0.760521 0.519661 -0.08735
C_ C_ 0.191324 0.744199 0.547686 -0.08735
C_ C_ 0.161617 0.700701 0.552441 0.18498
C_ C_ 0.18688 0.668484 0.598575 0.44287
C_ C_ 0.101761 0.699007 0.59398 0.44287
C_ C_ 0.0925664 0.688971 0.622774 -0.05681
C_ C_ 0.0434704 0.695051 0.634775 -0.08735
C_ C_ 0.0382929 0.694212 0.664538 -0.08735
C_ C_ 0.0807104 0.687985 0.684121 -0.05681
C_ C_ 0.127057 0.679429 0.670612 -0.05681
C_ C_ 0.132052 0.675506 0.640639 -0.05681
C_ C_ 0.180882 0.67024 0.628459 -0.05681
C_ C_ 0.222962 0.664096 0.646054 -0.08735
C_ C_ 0.217926 0.664393 0.674873 -0.08735
C_ C_ 0.169085 0.668307 0.68849 -0.05681
C_ C_ 0.162817 0.663215 0.719326 0.44287
C_ C_ 0.0764629 0.687103 0.713707 0.44287
C_ C_ 0.102302 0.664671 0.75975 0.18498
C_ C_ 0.0760074 0.619271 0.764701 -0.08735
C_ C_ 0.0578087 0.608695 0.793328 -0.08735
C_ C_ 0.0699915 0.638999 0.816126 -0.08735
C_ C_ 0.10432 0.678991 0.811853 0.18498
C_ C_ 0.115315 0.694652 0.782895 -0.05681
C_ C_ 0.138655 0.741578 0.77936 -0.08735
C_ C_ 0.149062 0.771657 0.802766 -0.08735
C_ C_ 0.148624 0.749318 0.830473 0.1947
C_ C_ 0.270548 0.81805 0.654211 0.68181
C_ C_ 0.213321 0.818279 0.649629 -0.05681
C_ C_ 0.179974 0.814771 0.674203 -0.08735
C_ C_ 0.127557 0.820041 0.670838 -0.05681
C_ C_ 0.10587 0.828329 0.643685 -0.05681
C_ C_ 0.138584 0.831128 0.619555 -0.08735
C_ C_ 0.191295 0.825819 0.622439 -0.08735
C_ C_ 0.0951423 0.813827 0.694904 -0.08735
C_ C_ 0.0434358 0.806392 0.690367 -0.08735
C_ C_ 0.0224713 0.822445 0.664539 -0.05681
C_ C_ 0.0540483 0.836881 0.640558 -0.08735
C_ C_ 0.373311 0.728416 0.658537 0.68181
C_ C_ 0.358045 0.925022 0.647004 0.68181
C_ C_ 0.360054 0.980335 0.645202 -0.05681
C_ C_ 0.366119 0.509247 0.666217 -0.08735
C_ C_ 0.371071 0.562746 0.663986 -0.05681
C_ C_ 0.384983 0.586452 0.638016 -0.05681
C_ C_ 0.401473 0.556125 0.614957 -0.08735
C_ C_ 0.353054 1.00575275 0.619062 -0.08735
C_ C_ 0.36587 0.594106 0.688997 -0.08735
C_ C_ 0.370453 0.64748 0.688431 -0.08735
C_ C_ 0.379155 0.672419 0.661373 -0.05681
C_ C_ 0.381766 0.639842 0.635774 -0.08735
C_ C_ 0.467815 0.827217 0.654777 0.68181
C_ C_ 0.402956 0.880722 0.726252 0.1947
C_ C_ 0.411294 0.898339 0.754799 -0.08735
C_ C_ 0.385336 0.87615 0.776978 -0.08735
C_ C_ 0.35732 0.832108 0.773208 -0.05681
C_ C_ 0.348186 0.818105 0.744206 0.18498
C_ C_ 0.319323 0.77497 0.739065 -0.08735
C_ C_ 0.302923 0.742268 0.761712 -0.08735
C_ C_ 0.314224 0.754653 0.790287 -0.08735
C_ C_ 0.33944 0.800126 0.796108 0.18498
C_ C_ 0.303981 0.830599 0.842492 0.44287
C_ C_ 0.388534 0.805763 0.838348 0.44287
C_ C_ 0.395466 0.815017 0.867945 -0.05681
C_ C_ 0.443443 0.815992 0.879568 -0.08735
C_ C_ 0.450682 0.825998 0.909635 -0.08735
C_ C_ 0.407764 0.834034 0.92777 -0.05681
C_ C_ 0.359752 0.835617 0.915361 -0.05681
C_ C_ 0.355709 0.830356 0.885078 -0.05681
C_ C_ 0.308962 0.835116 0.872582 -0.05681
C_ C_ 0.264483 0.844144 0.88906 -0.08735
C_ C_ 0.267697 0.843892 0.919689 -0.08735
C_ C_ 0.316757 0.844401 0.932771 -0.05681
C_ C_ 0.323991 0.847202 0.962642 0.44287
C_ C_ 0.411031 0.831222 0.9578 0.44287
C_ C_ 0.388337 0.844154 0.507067 0.18498
C_ C_ 0.410427 0.890989 0.51259 -0.08735
C_ C_ 0.423639 0.906984 0.540845 -0.08735
C_ C_ 0.410036 0.877098 0.563841 -0.08735
C_ C_ 0.384201 0.832545 0.55917 0.18498
C_ C_ 0.370876 0.815799 0.530842 -0.05681
C_ C_ 0.34408 0.770463 0.527519 -0.08735
C_ C_ 0.326393 0.743915 0.55124 -0.08735
C_ C_ 0.342376 0.759912 0.578515 0.1947
N_ N_ 0.125612 0.66091 0.978178 -0.29468
N_ N_ 0.149335 0.688934 0.581827 -0.17154
N_ N_ 0.117667 0.67901 0.730875 -0.17154
N_ N_ 0.121544 0.706585 0.835104 -0.29468
N_ N_ 0.372123 0.841701 0.721677 -0.29468
N_ N_ 0.345123 0.817371 0.825948 -0.17154
N_ N_ 0.369359 0.836405 0.97511 -0.17154
N_ N_ 0.365983 0.806188 0.582394 -0.29468
O_ O_ 0.199154 0.685334 0.931586 -0.58347
O_ O_ 0.190352 0.693835 0.885523 -0.58347
O_ O_ 0.123242 0.754423 0.937497 -0.58347
O_ O_ 0.111444 0.758792 0.890647 -0.58347
O_ O_ 0.129476 0.60682 0.922619 -0.58347
O_ O_ 0.116981 0.613629 0.876408 -0.58347
O_ O_ 0.0470972 0.674894 0.931438 -0.58347
O_ O_ 0.040716 0.685875 0.884304 -0.58347
O_ O_ 0.0673859 0.716324 0.576828 -0.46727
O_ O_ 0.230765 0.655121 0.587596 -0.46727
O_ O_ 0.0303355 0.690668 0.723767 -0.46727
O_ O_ 0.202647 0.656439 0.736936 -0.46727
O_ O_ 0.289743 0.833734 0.678417 -0.58347
O_ O_ 0.298715 0.817337 0.632001 -0.58347
O_ O_ 0.364824 0.75413 0.680735 -0.58347
O_ O_ 0.377975 0.750092 0.634423 -0.58347
O_ O_ 0.36034 0.90238 0.671667 -0.58347
O_ O_ 0.365941 0.900267 0.623538 -0.58347
O_ O_ 0.436161 0.822788 0.675643 -0.58347
O_ O_ 0.450059 0.827372 0.629479 -0.58347
O_ O_ 0.428111 0.790218 0.822367 -0.46727
O_ O_ 0.260983 0.843263 0.829539 -0.46727
O_ O_ 0.455611 0.819703 0.9704 -0.46727
O_ O_ 0.284815 0.847613 0.979797 -0.46727
Zn Zn 0.640564 0.189668 0.385638 0.90689
Zn Zn 0.649944 0.186426 0.433882 0.90689
Zn Zn 0.86935 0.306603 0.134577 0.90689
Zn Zn 0.859072 0.313143 0.183946 0.90689
H_ H_ 0.820041 0.194703 0.447857 0.11455
H_ H_ 0.884656 0.166412 0.352499 0.11455
H_ H_ 0.789301 0.172836 0.359804 0.11455
H_ H_ 0.907228 0.189297 0.470054 0.11455
H_ H_ 0.996371 0.174652 0.462176 0.11455
H_ H_ 0.972207 0.165561 0.367996 0.11455
H_ H_ 0.668991 0.0140247 0.44633 0.11455
H_ H_ 0.660671 0.439071 0.342826 0.11455
H_ H_ 0.644579 0.032296 0.357359 0.11455
H_ H_ 0.614683 0.442982 0.459498 0.11455
H_ H_ 0.6315 0.345633 0.458318 0.11455
H_ H_ 0.666556 0.358811 0.367621 0.11455
H_ H_ 0.592534 0.110596 0.468681 0.11455
H_ H_ 0.565319 0.0731764 0.0137453 0.11455
H_ H_ 0.60344 0.112258 0.0528795 0.11455
H_ H_ 0.703145 0.251122 0.475247 0.11455
H_ H_ 0.723214 0.294584 0.0161376 0.11455
H_ H_ 0.685293 0.277875 0.0631791 0.11455
H_ H_ 0.509607 0.174449 0.125468 0.11455
H_ H_ 0.501932 0.175082 0.17603 0.11455
H_ H_ 0.76431 0.190563 0.139004 0.11455
H_ H_ 0.75351 0.184272 0.189908 0.11455
H_ H_ 0.598638 0.0753343 0.249453 0.11455
H_ H_ 0.571973 0.0556202 0.300649 0.11455
H_ H_ 0.598104 0.109432 0.340554 0.11455
H_ H_ 0.662621 0.244225 0.259986 0.11455
H_ H_ 0.703033 0.291858 0.2984 0.11455
H_ H_ 0.690287 0.262379 0.34748 0.11455
H_ H_ 0.688227 0.304509 0.195305 0.11455
H_ H_ 0.622342 0.32315 0.0980739 0.11455
H_ H_ 0.711048 0.33919 0.105997 0.11455
H_ H_ 0.606116 0.313134 0.21732 0.11455
H_ H_ 0.513174 0.30552 0.20766 0.11455
H_ H_ 0.535427 0.303832 0.116336 0.11455
H_ H_ 0.845897 0.476568 0.189537 0.11455
H_ H_ 0.861581 0.0606879 0.101222 0.11455
H_ H_ 0.858627 0.470664 0.100923 0.11455
H_ H_ 0.853582 0.0630117 0.218898 0.11455
H_ H_ 0.864024 0.155911 0.216094 0.11455
H_ H_ 0.870318 0.147637 0.124592 0.11455
H_ H_ 0.89426 0.400007 0.220304 0.11455
H_ H_ 0.908002 0.424985 0.268053 0.11455
H_ H_ 0.887892 0.370938 0.308224 0.11455
H_ H_ 0.805491 0.244007 0.225862 0.11455
H_ H_ 0.795981 0.178552 0.261073 0.11455
H_ H_ 0.818002 0.199611 0.310571 0.11455
H_ H_ 0.993734 0.283124 0.372507 0.11455
H_ H_ 0.00484577 0.291449 0.424651 0.11455
H_ H_ 0.751473 0.336281 0.387424 0.11455
H_ H_ 0.755837 0.337428 0.442171 0.11455
H_ H_ 0.96147 0.395319 0.499717 0.11455
H_ H_ 0.964057 0.420541 0.0527174 0.11455
H_ H_ 0.934408 0.367527 0.0953803 0.11455
H_ H_ 0.831148 0.250514 0.0125241 0.11455
H_ H_ 0.811889 0.191097 0.0552644 0.11455
H_ H_ 0.82349 0.223452 0.102486 0.11455
C_ C_ 0.742276 0.191947 0.408686 0.68181
C_ C_ 0.798057 0.188044 0.404294 -0.05681
C_ C_ 0.833364 0.185344 0.427663 -0.08735
C_ C_ 0.884639 0.177623 0.423355 -0.05681
C_ C_ 0.904739 0.171591 0.395729 -0.05681
C_ C_ 0.869126 0.168701 0.372812 -0.08735
C_ C_ 0.81638 0.180419 0.376692 -0.08735
C_ C_ 0.920327 0.181674 0.447392 -0.08735
C_ C_ 0.97242 0.177607 0.442488 -0.08735
C_ C_ 0.990703 0.171203 0.412878 -0.05681
C_ C_ 0.956995 0.1673 0.390263 -0.08735
C_ C_ 0.64719 0.289707 0.41205 0.68181
C_ C_ 0.651102 0.0886019 0.404932 0.68181
C_ C_ 0.650747 0.0325718 0.402606 -0.05681
C_ C_ 0.622612 0.506979 0.414901 -0.08735
C_ C_ 0.626706 0.453369 0.413404 -0.05681
C_ C_ 0.647016 0.431069 0.387651 -0.05681
C_ C_ 0.652119 0.46023 0.362847 -0.08735
C_ C_ 0.646361 0.512686 0.364172 -0.08735
C_ C_ 0.619761 0.422699 0.438805 -0.08735
C_ C_ 0.634248 0.370381 0.438944 -0.08735
C_ C_ 0.647803 0.346083 0.412652 -0.05681
C_ C_ 0.653518 0.3767 0.387522 -0.08735
C_ C_ 0.547384 0.189883 0.407644 0.68181
C_ C_ 0.609067 0.131357 0.486313 0.1947
C_ C_ 0.594827 0.102207 0.00952312 -0.08735
C_ C_ 0.615479 0.127194 0.0323322 -0.08735
C_ C_ 0.641148 0.173762 0.0289037 -0.05681
C_ C_ 0.657247 0.188054 1.000862406 0.18498
C_ C_ 0.694611 0.238842 0.49728 -0.08735
C_ C_ 0.699625 0.263105 0.0189303 -0.08735
C_ C_ 0.682998 0.250114 0.0470186 -0.08735
C_ C_ 0.657322 0.203879 0.0521448 0.18498
C_ C_ 0.689948 0.185769 0.0997642 0.44287
C_ C_ 0.600768 0.19232 0.0942153 0.44287
C_ C_ 0.593399 0.183421 0.12383 -0.05681
C_ C_ 0.544563 0.181118 0.137933 -0.08735
C_ C_ 0.540401 0.17856 0.167395 -0.08735
C_ C_ 0.584297 0.178711 0.185679 -0.05681
C_ C_ 0.632409 0.175096 0.171649 -0.05681
C_ C_ 0.636804 0.181347 0.141743 -0.05681
C_ C_ 0.685563 0.186889 0.130059 -0.05681
C_ C_ 0.728259 0.191775 0.147924 -0.08735
C_ C_ 0.721303 0.183403 0.176567 -0.08735
C_ C_ 0.674683 0.174436 0.190269 -0.05681
C_ C_ 0.668341 0.175722 0.220116 0.44287
C_ C_ 0.581534 0.177588 0.215445 0.44287
C_ C_ 0.619171 0.152791 0.26227 0.18498
C_ C_ 0.60467 0.10247 0.267476 -0.08735
C_ C_ 0.589243 0.0905834 0.296121 -0.08735
C_ C_ 0.600916 0.123056 0.319316 -0.08735
C_ C_ 0.624906 0.169381 0.312932 0.18498
C_ C_ 0.631642 0.186475 0.285396 -0.05681
C_ C_ 0.655796 0.23345 0.281046 -0.08735
C_ C_ 0.682696 0.255194 0.302345 -0.08735
C_ C_ 0.673975 0.237465 0.330155 0.1947
C_ C_ 0.766767 0.313484 0.154462 0.68181
C_ C_ 0.709372 0.321696 0.151611 -0.05681
C_ C_ 0.676544 0.316401 0.174683 -0.08735
C_ C_ 0.624326 0.31715 0.171349 -0.05681
C_ C_ 0.603985 0.312456 0.142811 -0.05681
C_ C_ 0.636259 0.321138 0.119814 -0.08735
C_ C_ 0.687618 0.329429 0.124132 -0.08735
C_ C_ 0.591854 0.311441 0.1952 -0.08735
C_ C_ 0.540312 0.308933 0.19102 -0.08735
C_ C_ 0.520387 0.308845 0.161385 -0.05681
C_ C_ 0.551717 0.313792 0.137934 -0.08735
C_ C_ 0.870868 0.213252 0.167738 0.68181
C_ C_ 0.849836 0.407579 0.148824 0.68181
C_ C_ 0.853581 0.465401 0.146202 -0.05681
C_ C_ 0.852344 -0.0028209999999999624 0.175151 -0.08735
C_ C_ 0.858429 0.0503182 0.173153 -0.05681
C_ C_ 0.866047 0.0740558 0.145806 -0.05681
C_ C_ 0.864668 0.0428909 0.12158 -0.08735
C_ C_ 0.854096 0.490963 0.119393 -0.08735
C_ C_ 0.858518 0.0810984 0.197948 -0.08735
C_ C_ 0.864378 0.132927 0.196957 -0.08735
C_ C_ 0.864842 0.157775 0.169299 -0.05681
C_ C_ 0.869492 0.127516 0.144996 -0.08735
C_ C_ 0.96127 0.320133 0.158541 0.68181
C_ C_ 0.880706 0.375543 0.236601 0.1947
C_ C_ 0.893923 0.388519 0.264306 -0.08735
C_ C_ 0.88131 0.357924 0.287149 -0.08735
C_ C_ 0.860368 0.30962 0.281174 -0.05681
C_ C_ 0.844664 0.298416 0.25281 0.18498
C_ C_ 0.818821 0.251834 0.246739 -0.08735
C_ C_ 0.811933 0.216347 0.267337 -0.08735
C_ C_ 0.828322 0.226839 0.295093 -0.08735
C_ C_ 0.849359 0.275571 0.303077 0.18498
C_ C_ 0.815706 0.304081 0.350177 0.44287
C_ C_ 0.903375 0.287292 0.344758 0.44287
C_ C_ 0.913091 0.297867 0.373596 -0.05681
C_ C_ 0.964611 0.293911 0.38566 -0.08735
C_ C_ 0.97202 0.298954 0.415139 -0.08735
C_ C_ 0.928148 0.30492 0.433445 -0.05681
C_ C_ 0.881089 0.312794 0.421097 -0.05681
C_ C_ 0.872995 0.307802 0.391603 -0.05681
C_ C_ 0.824801 0.309226 0.380011 -0.05681
C_ C_ 0.784073 0.324027 0.398125 -0.08735
C_ C_ 0.789164 0.332084 0.427481 -0.08735
C_ C_ 0.839093 0.325949 0.439534 -0.05681
C_ C_ 0.848872 0.334671 0.468888 0.44287
C_ C_ 0.934813 0.308932 0.463349 0.44287
C_ C_ 0.898508 0.333471 0.0156462 0.18498
C_ C_ 0.922121 0.379192 0.0215034 -0.08735
C_ C_ 0.942155 0.38635 0.0486597 -0.08735
C_ C_ 0.926329 0.354299 0.0728704 -0.08735
C_ C_ 0.889187 0.316384 0.0672031 0.18498
C_ C_ 0.873098 0.305829 0.0385778 -0.05681
C_ C_ 0.846684 0.259707 0.0336571 -0.08735
C_ C_ 0.830707 0.228321 0.0562743 -0.08735
C_ C_ 0.83624 0.248386 0.0838431 0.1947
N_ N_ 0.640463 0.17225 0.481193 -0.29468
N_ N_ 0.647926 0.189518 0.0819866 -0.17154
N_ N_ 0.62269 0.1698 0.232202 -0.17154
N_ N_ 0.645975 0.196208 0.335803 -0.29468
N_ N_ 0.8587 0.329976 0.230638 -0.29468
N_ N_ 0.856624 0.289198 0.333468 -0.17154
N_ N_ 0.895676 0.327589 0.481028 -0.17154
N_ N_ 0.866837 0.29007 0.0887805 -0.29468
O_ O_ 0.724302 0.184926 0.434056 -0.58347
O_ O_ 0.714562 0.19828 0.38681 -0.58347
O_ O_ 0.649018 0.264389 0.434911 -0.58347
O_ O_ 0.637798 0.268466 0.388868 -0.58347
O_ O_ 0.654816 0.111061 0.428794 -0.58347
O_ O_ 0.649538 0.115212 0.382438 -0.58347
O_ O_ 0.574728 0.183354 0.430163 -0.58347
O_ O_ 0.567065 0.18379 0.383887 -0.58347
O_ O_ 0.561764 0.204065 0.077873 -0.46727
O_ O_ 0.733646 0.175821 0.0881701 -0.46727
O_ O_ 0.535509 0.177005 0.227462 -0.46727
O_ O_ 0.710309 0.176492 0.235938 -0.46727
O_ O_ 0.785062 0.306604 0.17926 -0.58347
O_ O_ 0.794178 0.304166 0.133482 -0.58347
O_ O_ 0.865215 0.239934 0.189747 -0.58347
O_ O_ 0.877481 0.232644 0.142988 -0.58347
O_ O_ 0.851245 0.389108 0.172249 -0.58347
O_ O_ 0.860372 0.380722 0.128159 -0.58347
O_ O_ 0.932903 0.323702 0.18008 -0.58347
O_ O_ 0.94239 0.308913 0.134434 -0.58347
O_ O_ 0.939244 0.276342 0.326518 -0.46727
O_ O_ 0.770011 0.30902 0.338763 -0.46727
O_ O_ 0.981578 0.2951 0.47299 -0.46727
O_ O_ 0.811407 0.348352 0.485343 -0.46727
Zn Zn 0.635302 0.182636 0.883177 0.90689
Zn Zn 0.645678 0.182438 0.930427 0.90689
Zn Zn 0.881885 0.321346 0.633266 0.90689
Zn Zn 0.87269 0.332069 0.680344 0.90689
H_ H_ 0.815671 0.173349 0.949137 0.11455
H_ H_ 0.883562 0.171804 0.849358 0.11455
H_ H_ 0.79093 0.19023 0.858063 0.11455
H_ H_ 0.902235 0.188118 0.96975 0.11455
H_ H_ 0.99184 0.167148 0.959914 0.11455
H_ H_ 0.967489 0.178701 0.868257 0.11455
H_ H_ 0.628931 0.0114467 0.946127 0.11455
H_ H_ 0.664688 0.433392 0.847975 0.11455
H_ H_ 0.653335 0.0303162 0.85454 0.11455
H_ H_ 0.595819 0.431365 0.959665 0.11455
H_ H_ 0.600773 0.340538 0.955137 0.11455
H_ H_ 0.642358 0.350777 0.868425 0.11455
H_ H_ 0.59795 0.0968322 0.963547 0.11455
H_ H_ 0.574064 0.0811212 0.518148 0.11455
H_ H_ 0.612044 0.131063 0.558442 0.11455
H_ H_ 0.691209 0.247665 0.97444 0.11455
H_ H_ 0.730175 0.305249 0.51498 0.11455
H_ H_ 0.698843 0.291132 0.563018 0.11455
H_ H_ 0.512654 0.21804 0.624128 0.11455
H_ H_ 0.499381 0.214955 0.676265 0.11455
H_ H_ 0.755358 0.141089 0.641733 0.11455
H_ H_ 0.739238 0.13151 0.690348 0.11455
H_ H_ 0.540792 0.0929004 0.756954 0.11455
H_ H_ 0.526694 0.0793499 0.803936 0.11455
H_ H_ 0.572054 0.126239 0.842626 0.11455
H_ H_ 0.656771 0.240004 0.757366 0.11455
H_ H_ 0.707408 0.276247 0.798528 0.11455
H_ H_ 0.684953 0.251952 0.846262 0.11455
H_ H_ 0.703783 0.314293 0.697249 0.11455
H_ H_ 0.634424 0.346416 0.600467 0.11455
H_ H_ 0.723604 0.338703 0.607344 0.11455
H_ H_ 0.613021 0.311499 0.715781 0.11455
H_ H_ 0.521504 0.316557 0.708921 0.11455
H_ H_ 0.548206 0.321906 0.6178 0.11455
H_ H_ 0.860639 0.494314 0.6949 0.11455
H_ H_ 0.829651 0.0724069 0.607804 0.11455
H_ H_ 0.912891 0.48241 0.608507 0.11455
H_ H_ 0.90278 0.084504 0.71748 0.11455
H_ H_ 0.898562 0.172026 0.71287 0.11455
H_ H_ 0.85617 0.157345 0.624967 0.11455
H_ H_ 0.911308 0.402793 0.718987 0.11455
H_ H_ 0.93371 0.427559 0.766034 0.11455
H_ H_ 0.891947 0.387371 0.8077 0.11455
H_ H_ 0.835741 0.242144 0.726586 0.11455
H_ H_ 0.796672 0.194825 0.766172 0.11455
H_ H_ 0.811045 0.22416 0.816255 0.11455
H_ H_ 0.994211 0.300526 0.878303 0.11455
H_ H_ 0.00462121 0.304988 0.928845 0.11455
H_ H_ 0.738879 0.319674 0.891573 0.11455
H_ H_ 0.750056 0.317995 0.943398 0.11455
H_ H_ 0.928671 0.40618 1.00398717 0.11455
H_ H_ 0.974471 0.428721 0.54829 0.11455
H_ H_ 0.933919 0.39031 0.587749 0.11455
H_ H_ 0.856502 0.248198 0.509253 0.11455
H_ H_ 0.807992 0.215205 0.549789 0.11455
H_ H_ 0.816718 0.253399 0.598309 0.11455
C_ C_ 0.742207 0.185204 0.907359 0.68181
C_ C_ 0.797365 0.181665 0.904413 -0.05681
C_ C_ 0.829884 0.179459 0.927839 -0.08735
C_ C_ 0.881896 0.180459 0.92353 -0.05681
C_ C_ 0.900782 0.179795 0.894932 -0.05681
C_ C_ 0.869088 0.181255 0.87127 -0.08735
C_ C_ 0.816751 0.188191 0.876244 -0.08735
C_ C_ 0.914829 0.182198 0.947268 -0.08735
C_ C_ 0.96621 0.177258 0.942052 -0.08735
C_ C_ 0.986462 0.178374 0.914702 -0.05681
C_ C_ 0.953142 0.180554 0.891295 -0.08735
C_ C_ 0.629992 0.280516 0.911251 0.68181
C_ C_ 0.643925 0.082152 0.902366 0.68181
C_ C_ 0.641799 0.0271424 0.900824 -0.05681
C_ C_ 0.613794 0.498922 0.918549 -0.08735
C_ C_ 0.61014 0.445739 0.914954 -0.05681
C_ C_ 0.630548 0.42158 0.889649 -0.05681
C_ C_ 0.649166 0.451831 0.867625 -0.08735
C_ C_ 0.654147 0.503882 0.871624 -0.08735
C_ C_ 0.596542 0.413961 0.938433 -0.08735
C_ C_ 0.603015 0.361526 0.935927 -0.08735
C_ C_ 0.620758 0.337473 0.91145 -0.05681
C_ C_ 0.635376 0.36877 0.889329 -0.08735
C_ C_ 0.543592 0.179141 0.906788 0.68181
C_ C_ 0.609764 0.118442 0.981744 0.1947
C_ C_ 0.601685 0.114556 0.513866 -0.08735
C_ C_ 0.621226 0.142423 0.536669 -0.08735
C_ C_ 0.647056 0.187355 0.531885 -0.05681
C_ C_ 0.661142 0.199494 0.503208 0.18498
C_ C_ 0.685436 0.233227 0.996713 -0.08735
C_ C_ 0.709732 0.270614 0.519628 -0.08735
C_ C_ 0.690994 0.262914 0.547121 -0.08735
C_ C_ 0.665282 0.218412 0.554785 0.18498
C_ C_ 0.691194 0.19126 0.602028 0.44287
C_ C_ 0.604949 0.208297 0.594907 0.44287
C_ C_ 0.593684 0.198908 0.624509 -0.05681
C_ C_ 0.543998 0.206169 0.636877 -0.08735
C_ C_ 0.536842 0.206352 0.667519 -0.08735
C_ C_ 0.575257 0.186087 0.684617 -0.05681
C_ C_ 0.623871 0.176827 0.673371 -0.05681
C_ C_ 0.632841 0.188093 0.642769 -0.05681
C_ C_ 0.681508 0.180556 0.631635 -0.05681
C_ C_ 0.719934 0.155221 0.64926 -0.08735
C_ C_ 0.706618 0.141965 0.676821 -0.08735
C_ C_ 0.661374 0.156868 0.690531 -0.05681
C_ C_ 0.652139 0.148064 0.720137 0.44287
C_ C_ 0.567668 0.178484 0.71458 0.44287
C_ C_ 0.598179 0.152988 0.762283 0.18498
C_ C_ 0.563628 0.116767 0.771159 -0.08735
C_ C_ 0.549336 0.111506 0.799121 -0.08735
C_ C_ 0.578615 0.132568 0.820386 -0.08735
C_ C_ 0.613087 0.170534 0.813643 0.18498
C_ C_ 0.621952 0.183707 0.784045 -0.05681
C_ C_ 0.656514 0.222938 0.778438 -0.08735
C_ C_ 0.683225 0.243059 0.80166 -0.08735
C_ C_ 0.675414 0.225686 0.829364 0.1947
C_ C_ 0.777904 0.318065 0.657529 0.68181
C_ C_ 0.720951 0.324957 0.653789 -0.05681
C_ C_ 0.688536 0.321113 0.675965 -0.08735
C_ C_ 0.635366 0.321712 0.672198 -0.05681
C_ C_ 0.614687 0.327016 0.643897 -0.05681
C_ C_ 0.648031 0.333558 0.621335 -0.08735
C_ C_ 0.699999 0.332166 0.626225 -0.08735
C_ C_ 0.600034 0.314277 0.69542 -0.08735
C_ C_ 0.548401 0.319655 0.690315 -0.08735
C_ C_ 0.528718 0.325707 0.663324 -0.05681
C_ C_ 0.562804 0.325495 0.639553 -0.08735
C_ C_ 0.884802 0.227899 0.664313 0.68181
C_ C_ 0.868463 0.426792 0.650773 0.68181
C_ C_ 0.882916 0.480222 0.650914 -0.05681
C_ C_ 0.880142 0.0108329 0.676506 -0.08735
C_ C_ 0.879661 0.0658666 0.67407 -0.05681
C_ C_ 0.863586 0.0883527 0.647512 -0.05681
C_ C_ 0.846542 0.0560517 0.626286 -0.08735
C_ C_ 0.90642 0.505441 0.626947 -0.08735
C_ C_ 0.894582 0.0983271 0.696889 -0.08735
C_ C_ 0.896751 0.150985 0.693416 -0.08735
C_ C_ 0.882724 0.173052 0.667488 -0.05681
C_ C_ 0.861982 0.141529 0.645787 -0.08735
C_ C_ 0.976071 0.324938 0.662338 0.68181
C_ C_ 0.898477 0.379431 0.736388 0.1947
C_ C_ 0.909548 0.39454 0.763137 -0.08735
C_ C_ 0.893411 0.365625 0.78695 -0.08735
C_ C_ 0.866553 0.320387 0.782335 -0.05681
C_ C_ 0.859086 0.305162 0.753459 0.18498
C_ C_ 0.838758 0.255813 0.748275 -0.08735
C_ C_ 0.822488 0.22508 0.770814 -0.08735
C_ C_ 0.829189 0.242355 0.800118 -0.08735
C_ C_ 0.852718 0.288209 0.806073 0.18498
C_ C_ 0.817709 0.306621 0.853698 0.44287
C_ C_ 0.904963 0.309936 0.848 0.44287
C_ C_ 0.913036 0.308695 0.877819 -0.05681
C_ C_ 0.960936 0.306104 0.890894 -0.08735
C_ C_ 0.966191 0.307996 0.919897 -0.08735
C_ C_ 0.925843 0.307932 0.938211 -0.05681
C_ C_ 0.876728 0.314313 0.926433 -0.05681
C_ C_ 0.869789 0.311295 0.895949 -0.05681
C_ C_ 0.821888 0.310916 0.883679 -0.05681
C_ C_ 0.779473 0.319192 0.901033 -0.08735
C_ C_ 0.78357 0.316807 0.931139 -0.08735
C_ C_ 0.834566 0.323381 0.943487 -0.05681
C_ C_ 0.841361 0.329539 0.973481 0.44287
C_ C_ 0.929389 0.307081 0.968858 0.44287
C_ C_ 0.90558 0.341699 0.510899 0.18498
C_ C_ 0.940166 0.381958 0.517145 -0.08735
C_ C_ 0.956509 0.392359 0.54516 -0.08735
C_ C_ 0.930334 0.3712 0.568228 -0.08735
C_ C_ 0.898938 0.327817 0.563276 0.18498
C_ C_ 0.89056 0.310076 0.534086 -0.05681
C_ C_ 0.861075 0.265731 0.530308 -0.08735
C_ C_ 0.834688 0.245263 0.554039 -0.08735
C_ C_ 0.840031 0.26708 0.580842 0.1947
N_ N_ 0.638295 0.161058 0.977661 -0.29468
N_ N_ 0.653182 0.204619 0.584642 -0.17154
N_ N_ 0.606548 0.16145 0.731512 -0.17154
N_ N_ 0.639254 0.193057 0.834597 -0.29468
N_ N_ 0.870626 0.337193 0.730531 -0.29468
N_ N_ 0.860015 0.302695 0.835925 -0.17154
N_ N_ 0.889749 0.322601 0.985648 -0.17154
N_ N_ 0.873843 0.305843 0.585471 -0.29468
O_ O_ 0.720169 0.194318 0.931008 -0.58347
O_ O_ 0.714068 0.174596 0.885324 -0.58347
O_ O_ 0.62783 0.254756 0.934575 -0.58347
O_ O_ 0.637835 0.259624 0.888016 -0.58347
O_ O_ 0.657706 0.10519 0.924638 -0.58347
O_ O_ 0.633248 0.108334 0.880559 -0.58347
O_ O_ 0.569617 0.167961 0.928305 -0.58347
O_ O_ 0.565914 0.186028 0.88234 -0.58347
O_ O_ 0.568752 0.221949 0.577584 -0.46727
O_ O_ 0.737228 0.19249 0.591622 -0.46727
O_ O_ 0.524127 0.189042 0.725361 -0.46727
O_ O_ 0.684027 0.121398 0.73638 -0.46727
O_ O_ 0.797971 0.320527 0.682659 -0.58347
O_ O_ 0.805975 0.320097 0.635922 -0.58347
O_ O_ 0.886758 0.258234 0.686136 -0.58347
O_ O_ 0.87804 0.246305 0.63989 -0.58347
O_ O_ 0.854702 0.407179 0.672965 -0.58347
O_ O_ 0.885458 0.399143 0.630458 -0.58347
O_ O_ 0.950774 0.347915 0.681003 -0.58347
O_ O_ 0.9576 0.320015 0.637385 -0.58347
O_ O_ 0.946396 0.307914 0.833826 -0.46727
O_ O_ 0.773259 0.312523 0.840676 -0.46727
O_ O_ 0.973043 0.296207 0.980657 -0.46727
O_ O_ 0.801168 0.338048 0.989687 -0.46727
Zn Zn 0.626179 0.693316 0.378444 0.90689
Zn Zn 0.632668 0.686009 0.426736 0.90689
Zn Zn 0.862799 0.806457 0.134118 0.90689
Zn Zn 0.853884 0.80942 0.180079 0.90689
H_ H_ 0.797222 0.687951 0.443962 0.11455
H_ H_ 0.87634 0.654874 0.348729 0.11455
H_ H_ 0.786279 0.655773 0.352596 0.11455
H_ H_ 0.887407 0.693777 0.463933 0.11455
H_ H_ 0.979588 0.672706 0.458662 0.11455
H_ H_ 0.961487 0.652767 0.370142 0.11455
H_ H_ 0.609649 0.524084 0.434347 0.11455
H_ H_ 0.626243 0.941376 0.352094 0.11455
H_ H_ 0.652651 0.534623 0.345027 0.11455
H_ H_ 0.674534 0.931069 0.467674 0.11455
H_ H_ 0.65983 0.837727 0.461225 0.11455
H_ H_ 0.6334 0.855852 0.371193 0.11455
H_ H_ 0.58056 0.608344 0.457992 0.11455
H_ H_ 0.558708 0.57874 0.0141358 0.11455
H_ H_ 0.59409 0.630341 0.0545887 0.11455
H_ H_ 0.700056 0.739095 0.473479 0.11455
H_ H_ 0.721666 0.79877 0.00889824 0.11455
H_ H_ 0.680343 0.793203 0.0605526 0.11455
H_ H_ 0.504801 0.717837 0.120486 0.11455
H_ H_ 0.486058 0.693178 0.170552 0.11455
H_ H_ 0.755792 0.687738 0.137056 0.11455
H_ H_ 0.741786 0.671104 0.188565 0.11455
H_ H_ 0.546071 0.597963 0.245567 0.11455
H_ H_ 0.513465 0.588368 0.292473 0.11455
H_ H_ 0.562742 0.625543 0.335103 0.11455
H_ H_ 0.657381 0.746049 0.250181 0.11455
H_ H_ 0.692662 0.791887 0.293466 0.11455
H_ H_ 0.670465 0.766784 0.341356 0.11455
H_ H_ 0.681654 0.815149 0.193762 0.11455
H_ H_ 0.622682 0.830015 0.0954838 0.11455
H_ H_ 0.710679 0.818727 0.101979 0.11455
H_ H_ 0.598598 0.812014 0.212054 0.11455
H_ H_ 0.508799 0.822689 0.205219 0.11455
H_ H_ 0.529056 0.82542 0.112708 0.11455
H_ H_ 0.840551 0.981058 0.194578 0.11455
H_ H_ 0.874324 0.554579 0.0974345 0.11455
H_ H_ 0.854215 0.966785 0.105736 0.11455
H_ H_ 0.844915 0.563256 0.215103 0.11455
H_ H_ 0.842652 0.657323 0.208858 0.11455
H_ H_ 0.866964 0.641427 0.117778 0.11455
H_ H_ 0.924925 0.87519 0.21566 0.11455
H_ H_ 0.939312 0.911968 0.261614 0.11455
H_ H_ 0.882235 0.886 0.303662 0.11455
H_ H_ 0.804007 0.746672 0.22894 0.11455
H_ H_ 0.779496 0.696388 0.272175 0.11455
H_ H_ 0.796798 0.728895 0.32078 0.11455
H_ H_ 0.984847 0.781674 0.37446 0.11455
H_ H_ 0.00353243 0.794075 0.424953 0.11455
H_ H_ 0.740816 0.83472 0.392336 0.11455
H_ H_ 0.756893 0.837607 0.443145 0.11455
H_ H_ 0.933959 0.907057 0.502835 0.11455
H_ H_ 0.961051 0.92806 0.054277 0.11455
H_ H_ 0.910121 0.883152 0.0915079 0.11455
H_ H_ 0.852879 0.74571 0.00771505 0.11455
H_ H_ 0.811612 0.699322 0.0478697 0.11455
H_ H_ 0.81771 0.731325 0.0961091 0.11455
C_ C_ 0.727238 0.686664 0.400384 0.68181
C_ C_ 0.784008 0.677151 0.398048 -0.05681
C_ C_ 0.814943 0.687457 0.42166 -0.08735
C_ C_ 0.869949 0.682915 0.418973 -0.05681
C_ C_ 0.890715 0.668899 0.391699 -0.05681
C_ C_ 0.860149 0.663931 0.367853 -0.08735
C_ C_ 0.806933 0.663536 0.371389 -0.08735
C_ C_ 0.90222 0.684692 0.443189 -0.08735
C_ C_ 0.954655 0.675809 0.440106 -0.08735
C_ C_ 0.975512 0.66934 0.413529 -0.05681
C_ C_ 0.944188 0.667863 0.388866 -0.08735
C_ C_ 0.634595 0.78658 0.412486 0.68181
C_ C_ 0.633069 0.592951 0.392315 0.68181
C_ C_ 0.63394 0.536374 0.390202 -0.05681
C_ C_ 0.656944 0.997734 0.42662 -0.08735
C_ C_ 0.648366 0.946028 0.423956 -0.05681
C_ C_ 0.634782 0.92465 0.39674 -0.05681
C_ C_ 0.635281 0.95718 0.372338 -0.08735
C_ C_ 0.639297 1.0102429 0.376648 -0.08735
C_ C_ 0.659588 0.914859 0.447476 -0.08735
C_ C_ 0.651014 0.863207 0.44449 -0.08735
C_ C_ 0.639916 0.840961 0.417298 -0.05681
C_ C_ 0.634619 0.872704 0.39333 -0.08735
C_ C_ 0.530045 0.689408 0.404798 0.68181
C_ C_ 0.596465 0.627841 0.476701 0.1947
C_ C_ 0.584778 0.612109 0.0107545 -0.08735
C_ C_ 0.607759 0.637585 0.0337676 -0.08735
C_ C_ 0.637713 0.682155 0.0282028 -0.05681
C_ C_ 0.648681 0.693776 0.999108 0.18498
C_ C_ 0.679292 0.734677 0.494541 -0.08735
C_ C_ 0.694378 0.768482 0.0158921 -0.08735
C_ C_ 0.675103 0.763621 0.0437651 -0.08735
C_ C_ 0.649446 0.716869 0.0502771 0.18498
C_ C_ 0.679947 0.691022 0.0972839 0.44287
C_ C_ 0.59401 0.712785 0.0918797 0.44287
C_ C_ 0.584308 0.69793 0.120176 -0.05681
C_ C_ 0.535918 0.700992 0.13189 -0.08735
C_ C_ 0.526847 0.694796 0.162027 -0.08735
C_ C_ 0.572356 0.687563 0.179425 -0.05681
C_ C_ 0.618179 0.676941 0.166342 -0.05681
C_ C_ 0.626057 0.685974 0.137422 -0.05681
C_ C_ 0.6756 0.68377 0.126526 -0.05681
C_ C_ 0.717022 0.679305 0.145141 -0.08735
C_ C_ 0.709656 0.667198 0.174285 -0.08735
C_ C_ 0.660596 0.667018 0.185247 -0.05681
C_ C_ 0.651648 0.65785 0.214118 0.44287
C_ C_ 0.56984 0.692321 0.21023 0.44287
C_ C_ 0.59319 0.662295 0.2561 0.18498
C_ C_ 0.55956 0.624421 0.262807 -0.08735
C_ C_ 0.546359 0.612894 0.290337 -0.08735
C_ C_ 0.5699 0.637796 0.313463 -0.08735
C_ C_ 0.603149 0.680404 0.307684 0.18498
C_ C_ 0.613121 0.692736 0.278492 -0.05681
C_ C_ 0.644447 0.735628 0.272596 -0.08735
C_ C_ 0.665325 0.760333 0.296043 -0.08735
C_ C_ 0.652462 0.747957 0.324648 0.1947
C_ C_ 0.761015 0.810491 0.156308 0.68181
C_ C_ 0.704959 0.816266 0.149473 -0.05681
C_ C_ 0.66919 0.817617 0.171883 -0.08735
C_ C_ 0.61652 0.818572 0.166842 -0.05681
C_ C_ 0.597913 0.826426 0.138385 -0.05681
C_ C_ 0.63431 0.82579 0.116456 -0.08735
C_ C_ 0.685219 0.815199 0.121112 -0.08735
C_ C_ 0.584631 0.814867 0.190264 -0.08735
C_ C_ 0.533641 0.82186 0.185282 -0.08735
C_ C_ 0.511288 0.825345 0.157596 -0.05681
C_ C_ 0.545267 0.825233 0.134157 -0.08735
C_ C_ 0.862082 0.712155 0.160915 0.68181
C_ C_ 0.855557 0.907404 0.152631 0.68181
C_ C_ 0.855611 0.965878 0.150403 -0.05681
C_ C_ 0.851754 0.495167 0.170453 -0.08735
C_ C_ 0.852279 0.54914 0.168461 -0.05681
C_ C_ 0.862797 0.57217 0.142011 -0.05681
C_ C_ 0.865236 0.541971 0.118096 -0.08735
C_ C_ 0.861828 0.989942 0.123263 -0.08735
C_ C_ 0.851634 0.579069 0.193633 -0.08735
C_ C_ 0.852542 0.632771 0.190611 -0.08735
C_ C_ 0.862221 0.655319 0.163441 -0.05681
C_ C_ 0.865324 0.624833 0.139396 -0.08735
C_ C_ 0.959039 0.804532 0.15928 0.68181
C_ C_ 0.903862 0.859971 0.233673 0.1947
C_ C_ 0.912278 0.881791 0.260505 -0.08735
C_ C_ 0.888772 0.861984 0.285245 -0.08735
C_ C_ 0.859616 0.817538 0.28294 -0.05681
C_ C_ 0.848062 0.799423 0.25478 0.18498
C_ C_ 0.815583 0.756945 0.251356 -0.08735
C_ C_ 0.801856 0.728032 0.274147 -0.08735
C_ C_ 0.80896 0.748199 0.301873 -0.08735
C_ C_ 0.839919 0.791149 0.306284 0.18498
C_ C_ 0.813665 0.822523 0.353464 0.44287
C_ C_ 0.899954 0.800689 0.346938 0.44287
C_ C_ 0.909777 0.809427 0.375434 -0.05681
C_ C_ 0.956263 0.797619 0.387812 -0.08735
C_ C_ 0.966607 0.803474 0.41744 -0.08735
C_ C_ 0.92563 0.815682 0.435365 -0.05681
C_ C_ 0.875109 0.821758 0.424044 -0.05681
C_ C_ 0.868656 0.820506 0.394347 -0.05681
C_ C_ 0.820125 0.82444 0.383192 -0.05681
C_ C_ 0.779414 0.832104 0.400494 -0.08735
C_ C_ 0.78723 0.836221 0.429006 -0.08735
C_ C_ 0.83454 0.831955 0.441371 -0.05681
C_ C_ 0.842941 0.830552 0.471786 0.44287
C_ C_ 0.93029 0.815918 0.465276 0.44287
C_ C_ 0.899335 0.838878 0.0134341 0.18498
C_ C_ 0.92266 0.885343 0.0212655 -0.08735
C_ C_ 0.929973 0.899608 0.0492052 -0.08735
C_ C_ 0.902021 0.873519 0.0700693 -0.08735
C_ C_ 0.879208 0.825712 0.0640021 0.18498
C_ C_ 0.877236 0.808528 0.0354871 -0.05681
C_ C_ 0.85236 0.761397 0.0288458 -0.08735
C_ C_ 0.829122 0.734756 0.0508431 -0.08735
C_ C_ 0.834824 0.751405 0.0792936 0.1947
N_ N_ 0.630044 0.668513 0.47394 -0.29468
N_ N_ 0.640451 0.704078 0.0803945 -0.17154
N_ N_ 0.607006 0.672101 0.226433 -0.17154
N_ N_ 0.623519 0.707099 0.330173 -0.29468
N_ N_ 0.868855 0.821064 0.230674 -0.29468
N_ N_ 0.851758 0.805475 0.336209 -0.17154
N_ N_ 0.890088 0.825251 0.48316 -0.17154
N_ N_ 0.859833 0.795629 0.0850674 -0.29468
O_ O_ 0.70654 0.689285 0.42463 -0.58347
O_ O_ 0.702413 0.689321 0.377276 -0.58347
O_ O_ 0.627888 0.759082 0.433535 -0.58347
O_ O_ 0.63087 0.767842 0.387656 -0.58347
O_ O_ 0.64096 0.614899 0.416156 -0.58347
O_ O_ 0.623191 0.618211 0.37014 -0.58347
O_ O_ 0.55772 0.676642 0.426054 -0.58347
O_ O_ 0.549478 0.694111 0.380644 -0.58347
O_ O_ 0.559626 0.739021 0.0775314 -0.46727
O_ O_ 0.726157 0.692583 0.0859249 -0.46727
O_ O_ 0.526079 0.705966 0.22227 -0.46727
O_ O_ 0.681798 0.62975 0.229102 -0.46727
O_ O_ 0.777743 0.812411 0.180784 -0.58347
O_ O_ 0.791472 0.80697 0.135109 -0.58347
O_ O_ 0.852599 0.738706 0.182587 -0.58347
O_ O_ 0.866626 0.732725 0.136862 -0.58347
O_ O_ 0.861459 0.886494 0.176534 -0.58347
O_ O_ 0.85306 0.882876 0.129684 -0.58347
O_ O_ 0.931584 0.80507 0.180884 -0.58347
O_ O_ 0.940575 0.811697 0.134589 -0.58347
O_ O_ 0.938486 0.791877 0.329043 -0.46727
O_ O_ 0.773825 0.840867 0.340722 -0.46727
O_ O_ 0.974278 0.810242 0.478509 -0.46727
O_ O_ 0.803526 0.83781 0.488369 -0.46727
Zn Zn 0.616712 0.692007 0.88071 0.90689
Zn Zn 0.62461 0.679654 0.929855 0.90689
Zn Zn 0.86937 0.819525 0.636307 0.90689
Zn Zn 0.863904 0.827476 0.685065 0.90689
H_ H_ 0.787135 0.676827 0.944524 0.11455
H_ H_ 0.85779 0.645245 0.848025 0.11455
H_ H_ 0.76973 0.665941 0.853181 0.11455
H_ H_ 0.872221 0.693435 0.961935 0.11455
H_ H_ 0.966438 0.68683 0.958137 0.11455
H_ H_ 0.951308 0.654956 0.86776 0.11455
H_ H_ 0.603892 0.515947 0.938206 0.11455
H_ H_ 0.657133 0.937784 0.850223 0.11455
H_ H_ 0.675116 0.525649 0.856854 0.11455
H_ H_ 0.616218 0.927105 0.968445 0.11455
H_ H_ 0.617901 0.837659 0.96203 0.11455
H_ H_ 0.634416 0.849579 0.872817 0.11455
H_ H_ 0.576562 0.608024 0.965183 0.11455
H_ H_ 0.568519 0.571905 0.506192 0.11455
H_ H_ 0.598858 0.612929 0.54771 0.11455
H_ H_ 0.694594 0.742627 0.972842 0.11455
H_ H_ 0.723706 0.790994 0.515324 0.11455
H_ H_ 0.689822 0.774945 0.562559 0.11455
H_ H_ 0.505859 0.715831 0.618926 0.11455
H_ H_ 0.492773 0.699381 0.670438 0.11455
H_ H_ 0.757032 0.674299 0.641222 0.11455
H_ H_ 0.742589 0.680599 0.691741 0.11455
H_ H_ 0.561196 0.592318 0.746525 0.11455
H_ H_ 0.545234 0.565874 0.798621 0.11455
H_ H_ 0.563696 0.626041 0.838807 0.11455
H_ H_ 0.643008 0.75447 0.755357 0.11455
H_ H_ 0.678096 0.799217 0.794993 0.11455
H_ H_ 0.660096 0.772766 0.843719 0.11455
H_ H_ 0.693585 0.820429 0.698229 0.11455
H_ H_ 0.62962 0.834091 0.595691 0.11455
H_ H_ 0.723627 0.821758 0.605867 0.11455
H_ H_ 0.60765 0.821977 0.715896 0.11455
H_ H_ 0.51611 0.838627 0.706212 0.11455
H_ H_ 0.541583 0.834595 0.615895 0.11455
H_ H_ 0.889835 0.992844 0.696442 0.11455
H_ H_ 0.932544 0.574105 0.607708 0.11455
H_ H_ 0.840169 0.978966 0.608741 0.11455
H_ H_ 0.836447 0.578408 0.711059 0.11455
H_ H_ 0.851782 0.666848 0.712844 0.11455
H_ H_ 0.908372 0.656186 0.626451 0.11455
H_ H_ 0.919582 0.891052 0.722231 0.11455
H_ H_ 0.935784 0.91 0.773219 0.11455
H_ H_ 0.901113 0.858747 0.812939 0.11455
H_ H_ 0.80788 0.758892 0.723528 0.11455
H_ H_ 0.783423 0.691542 0.758721 0.11455
H_ H_ 0.798899 0.705916 0.811583 0.11455
H_ H_ 0.986509 0.782404 0.872718 0.11455
H_ H_ 1.00521312 0.80525 0.922831 0.11455
H_ H_ 0.737498 0.825187 0.89092 0.11455
H_ H_ 0.751576 0.837302 0.943711 0.11455
H_ H_ 0.945475 0.903304 1.0050812 0.11455
H_ H_ 0.954019 0.933651 0.551487 0.11455
H_ H_ 0.9231 0.885084 0.592743 0.11455
H_ H_ 0.834226 0.753418 0.511301 0.11455
H_ H_ 0.794945 0.717109 0.55459 0.11455
H_ H_ 0.806969 0.752189 0.600876 0.11455
C_ C_ 0.718306 0.69107 0.903453 0.68181
C_ C_ 0.773802 0.679953 0.89973 -0.05681
C_ C_ 0.805134 0.675345 0.923518 -0.08735
C_ C_ 0.857543 0.668978 0.920449 -0.05681
C_ C_ 0.878265 0.659469 0.892679 -0.05681
C_ C_ 0.845742 0.653964 0.869357 -0.08735
C_ C_ 0.793885 0.667756 0.872493 -0.08735
C_ C_ 0.889639 0.67828 0.944005 -0.08735
C_ C_ 0.941397 0.678225 0.940293 -0.08735
C_ C_ 0.962731 0.668766 0.91242 -0.05681
C_ C_ 0.931323 0.659829 0.889281 -0.08735
C_ C_ 0.618494 0.783514 0.913807 0.68181
C_ C_ 0.634541 0.586372 0.89804 0.68181
C_ C_ 0.632954 0.528776 0.895714 -0.05681
C_ C_ 0.635457 -0.0042200000000000015 0.924965 -0.08735
C_ C_ 0.632756 0.943168 0.922766 -0.05681
C_ C_ 0.636019 0.921213 0.894321 -0.05681
C_ C_ 0.647892 0.952748 0.870414 -0.08735
C_ C_ 0.653509 0.00733071 0.874388 -0.08735
C_ C_ 0.62292 0.91327 0.946925 -0.08735
C_ C_ 0.621045 0.861899 0.944419 -0.08735
C_ C_ 0.621082 0.838971 0.917457 -0.05681
C_ C_ 0.63083 0.869433 0.893136 -0.08735
C_ C_ 0.521632 0.683748 0.906641 0.68181
C_ C_ 0.595038 0.62789 0.982621 0.1947
C_ C_ 0.587121 0.60733 0.503593 -0.08735
C_ C_ 0.606176 0.631224 0.528224 -0.08735
C_ C_ 0.6339 0.677428 0.525798 -0.05681
C_ C_ 0.648043 0.692317 0.497463 0.18498
C_ C_ 0.67967 0.737455 0.993909 -0.08735
C_ C_ 0.695013 0.763277 0.517704 -0.08735
C_ C_ 0.675579 0.751756 0.544911 -0.08735
C_ C_ 0.653191 0.705138 0.5501 0.18498
C_ C_ 0.682135 0.68189 0.597539 0.44287
C_ C_ 0.59581 0.703794 0.591343 0.44287
C_ C_ 0.587295 0.700889 0.621523 -0.05681
C_ C_ 0.539328 0.708931 0.632046 -0.08735
C_ C_ 0.530183 0.701469 0.661692 -0.08735
C_ C_ 0.571234 0.689926 0.680081 -0.05681
C_ C_ 0.620576 0.685708 0.668913 -0.05681
C_ C_ 0.628428 0.689608 0.639167 -0.05681
C_ C_ 0.67654 0.682209 0.628284 -0.05681
C_ C_ 0.718585 0.673641 0.647854 -0.08735
C_ C_ 0.712073 0.675987 0.677052 -0.08735
C_ C_ 0.662175 0.679529 0.688313 -0.05681
C_ C_ 0.651846 0.671406 0.717078 0.44287
C_ C_ 0.563971 0.686224 0.709983 0.44287
C_ C_ 0.595145 0.662972 0.757734 0.18498
C_ C_ 0.57502 0.61438 0.763598 -0.08735
C_ C_ 0.561099 0.602453 0.793187 -0.08735
C_ C_ 0.573326 0.634229 0.816335 -0.08735
C_ C_ 0.600561 0.679523 0.810749 0.18498
C_ C_ 0.610018 0.695123 0.781029 -0.05681
C_ C_ 0.639072 0.737927 0.776129 -0.08735
C_ C_ 0.656939 0.766548 0.799501 -0.08735
C_ C_ 0.648202 0.750605 0.827138 0.1947
C_ C_ 0.770442 0.822932 0.656991 0.68181
C_ C_ 0.713789 0.825764 0.652741 -0.05681
C_ C_ 0.679996 0.822211 0.675385 -0.08735
C_ C_ 0.626445 0.824615 0.669683 -0.05681
C_ C_ 0.607328 0.830369 0.640824 -0.05681
C_ C_ 0.642352 0.832729 0.618325 -0.08735
C_ C_ 0.696013 0.826927 0.623977 -0.08735
C_ C_ 0.593569 0.82603 0.693311 -0.08735
C_ C_ 0.541284 0.829464 0.6885 -0.08735
C_ C_ 0.523993 0.835184 0.660062 -0.05681
C_ C_ 0.556282 0.839736 0.636722 -0.08735
C_ C_ 0.876286 0.72603 0.665171 0.68181
C_ C_ 0.87068 0.922941 0.655588 0.68181
C_ C_ 0.872062 0.979697 0.652429 -0.05681
C_ C_ 0.874683 0.511067 0.675779 -0.08735
C_ C_ 0.884533 0.562136 0.675743 -0.05681
C_ C_ 0.904506 0.585855 0.650108 -0.05681
C_ C_ 0.917244 0.555938 0.626421 -0.08735
C_ C_ 0.855879 1.00240228 0.626395 -0.08735
C_ C_ 0.8634 0.592352 0.696351 -0.08735
C_ C_ 0.865006 0.644952 0.694578 -0.08735
C_ C_ 0.882623 0.670547 0.66905 -0.05681
C_ C_ 0.900792 0.638555 0.646682 -0.08735
C_ C_ 0.966595 0.825735 0.662228 0.68181
C_ C_ 0.89754 0.872775 0.73985 0.1947
C_ C_ 0.908797 0.881861 0.768407 -0.08735
C_ C_ 0.887282 0.854921 0.790947 -0.08735
C_ C_ 0.855748 0.812846 0.783279 -0.05681
C_ C_ 0.846065 0.80302 0.753831 0.18498
C_ C_ 0.815626 0.762631 0.746258 -0.08735
C_ C_ 0.800221 0.726465 0.766848 -0.08735
C_ C_ 0.811289 0.735312 0.795091 -0.08735
C_ C_ 0.837359 0.777858 0.804087 0.18498
C_ C_ 0.808521 0.801733 0.850511 0.44287
C_ C_ 0.894058 0.77419 0.845881 0.44287
C_ C_ 0.90499 0.785949 0.875453 -0.05681
C_ C_ 0.953435 0.783635 0.886935 -0.08735
C_ C_ 0.964059 0.798811 0.915763 -0.08735
C_ C_ 0.921401 0.806991 0.934598 -0.05681
C_ C_ 0.872336 0.807185 0.923114 -0.05681
C_ C_ 0.864542 0.80204 0.893406 -0.05681
C_ C_ 0.814424 0.808926 0.881426 -0.05681
C_ C_ 0.775594 0.817176 0.900161 -0.08735
C_ C_ 0.782813 0.826793 0.9306 -0.08735
C_ C_ 0.832258 0.82436 0.940533 -0.05681
C_ C_ 0.84251 0.830777 0.970556 0.44287
C_ C_ 0.929753 0.812887 0.964004 0.44287
C_ C_ 0.898713 0.837517 0.513422 0.18498
C_ C_ 0.922981 0.883647 0.519222 -0.08735
C_ C_ 0.933361 0.89932 0.547151 -0.08735
C_ C_ 0.915882 0.870902 0.570488 -0.08735
C_ C_ 0.883888 0.828565 0.565672 0.18498
C_ C_ 0.880104 0.808127 0.537039 -0.05681
C_ C_ 0.846521 0.766956 0.532905 -0.08735
C_ C_ 0.821969 0.74623 0.556818 -0.08735
C_ C_ 0.833003 0.761618 0.584354 0.1947
N_ N_ 0.622437 0.669125 0.977211 -0.29468
N_ N_ 0.642811 0.692193 0.579943 -0.17154
N_ N_ 0.603144 0.677045 0.727681 -0.17154
N_ N_ 0.61796 0.709787 0.832974 -0.29468
N_ N_ 0.867432 0.833971 0.733468 -0.29468
N_ N_ 0.847737 0.785136 0.834504 -0.17154
N_ N_ 0.89055 0.826531 0.98229 -0.17154
N_ N_ 0.864412 0.803326 0.588604 -0.29468
O_ O_ 0.697949 0.689155 0.927959 -0.58347
O_ O_ 0.690081 0.696869 0.882532 -0.58347
O_ O_ 0.613389 0.755138 0.935644 -0.58347
O_ O_ 0.609303 0.765092 0.889547 -0.58347
O_ O_ 0.637432 0.607025 0.92289 -0.58347
O_ O_ 0.624473 0.614643 0.877101 -0.58347
O_ O_ 0.549042 0.669723 0.927864 -0.58347
O_ O_ 0.540295 0.690868 0.881559 -0.58347
O_ O_ 0.560943 0.720808 0.574082 -0.46727
O_ O_ 0.727321 0.668229 0.588023 -0.46727
O_ O_ 0.518877 0.690042 0.721121 -0.46727
O_ O_ 0.692055 0.66753 0.734676 -0.46727
O_ O_ 0.790876 0.821532 0.682078 -0.58347
O_ O_ 0.7955 0.821999 0.634079 -0.58347
O_ O_ 0.868995 0.753373 0.687148 -0.58347
O_ O_ 0.868751 0.745294 0.640861 -0.58347
O_ O_ 0.860075 0.902934 0.679543 -0.58347
O_ O_ 0.874734 0.89606 0.634131 -0.58347
O_ O_ 0.938222 0.827038 0.683829 -0.58347
O_ O_ 0.948184 0.818279 0.637789 -0.58347
O_ O_ 0.926551 0.74713 0.830806 -0.46727
O_ O_ 0.763532 0.808661 0.838176 -0.46727
O_ O_ 0.974926 0.812115 0.974724 -0.46727
O_ O_ 0.804702 0.834452 0.989184 -0.46727
