_cell_length_a 26.376
_cell_length_b 26.400000238300095
_cell_length_c 46.67800035477134
_cell_angle_alpha 90.00700052986613
_cell_angle_beta 89.99899961309502
_cell_angle_gamma 90.45000003183146
_symmetry_space_group_name_H-M         'P 1'
_symmetry_Int_Tables_number            1
loop_
_symmetry_equiv_pos_as_xyz
   'x, y, z'
                         
loop_
_atom_site_label
_atom_site_type_symbol
_atom_site_fract_x 
_atom_site_fract_y
_atom_site_fract_z
_atom_site_charge
Zn Zn 0.117691 0.193588 0.381224 0.90689
Zn Zn 0.128313 0.185635 0.428228 0.90689
Zn Zn 0.377907 0.321595 0.134014 0.90689
Zn Zn 0.36646 0.331033 0.182021 0.90689
H_ H_ 0.300909 0.202684 0.442687 0.11455
H_ H_ 0.3616 0.162694 0.347141 0.11455
H_ H_ 0.274947 0.180137 0.353487 0.11455
H_ H_ 0.387817 0.222169 0.458701 0.11455
H_ H_ 0.481158 0.209568 0.451005 0.11455
H_ H_ 0.4492 0.159145 0.363711 0.11455
H_ H_ 0.130241 0.0248883 0.445014 0.11455
H_ H_ 0.125038 0.443922 0.346989 0.11455
H_ H_ 0.154531 0.0346808 0.353261 0.11455
H_ H_ 0.15373 0.433319 0.461965 0.11455
H_ H_ 0.118581 0.342885 0.458845 0.11455
H_ H_ 0.113195 0.358487 0.366876 0.11455
H_ H_ 0.0537223 0.124234 0.459918 0.11455
H_ H_ 0.073901 0.0748334 0.0137908 0.11455
H_ H_ 0.11973 0.120784 0.0541026 0.11455
H_ H_ 0.187772 0.243067 0.471941 0.11455
H_ H_ 0.241279 0.286254 0.00967515 0.11455
H_ H_ 0.205862 0.280349 0.0597853 0.11455
H_ H_ 0.02021 0.191594 0.120059 0.11455
H_ H_ 0.0081029 0.196541 0.172824 0.11455
H_ H_ 0.271625 0.186496 0.140158 0.11455
H_ H_ 0.258687 0.181512 0.19201 0.11455
H_ H_ 0.0676516 0.10147 0.247528 0.11455
H_ H_ 0.0450554 0.0775611 0.296598 0.11455
H_ H_ 0.0747356 0.13104 0.33749 0.11455
H_ H_ 0.164164 0.254135 0.255439 0.11455
H_ H_ 0.187666 0.307153 0.298968 0.11455
H_ H_ 0.158509 0.282664 0.347397 0.11455
H_ H_ 0.200522 0.327773 0.195309 0.11455
H_ H_ 0.132309 0.318713 0.0970959 0.11455
H_ H_ 0.227087 0.318234 0.106097 0.11455
H_ H_ 0.114499 0.333677 0.212786 0.11455
H_ H_ 0.0267576 0.318351 0.206806 0.11455
H_ H_ 0.0441954 0.304866 0.116058 0.11455
H_ H_ 0.352138 0.493176 0.191675 0.11455
H_ H_ 0.368383 0.0738254 0.0974532 0.11455
H_ H_ 0.420621 0.485452 0.109333 0.11455
H_ H_ 0.391419 0.075451 0.215871 0.11455
H_ H_ 0.382301 0.169305 0.214652 0.11455
H_ H_ 0.370879 0.158356 0.120342 0.11455
H_ H_ 0.420963 0.408331 0.219932 0.11455
H_ H_ 0.43129 0.439261 0.27004 0.11455
H_ H_ 0.388323 0.393736 0.31057 0.11455
H_ H_ 0.297251 0.276714 0.224744 0.11455
H_ H_ 0.258433 0.23251 0.261958 0.11455
H_ H_ 0.275867 0.249949 0.311615 0.11455
H_ H_ 0.469317 0.280692 0.376255 0.11455
H_ H_ 0.489979 0.309217 0.421794 0.11455
H_ H_ 0.225558 0.346401 0.391236 0.11455
H_ H_ 0.235393 0.343036 0.442914 0.11455
H_ H_ 0.427456 0.415599 0.502209 0.11455
H_ H_ 0.501138 0.398057 0.0517845 0.11455
H_ H_ 0.440282 0.378844 0.0919775 0.11455
H_ H_ 0.34606 0.260351 0.00615334 0.11455
H_ H_ 0.302611 0.216336 0.0485283 0.11455
H_ H_ 0.317385 0.245868 0.0973502 0.11455
C_ C_ 0.223643 0.190257 0.404392 0.68181
C_ C_ 0.279748 0.192687 0.399209 -0.05681
C_ C_ 0.315022 0.196354 0.421866 -0.08735
C_ C_ 0.367035 0.19281 0.417921 -0.05681
C_ C_ 0.38399 0.178994 0.390399 -0.05681
C_ C_ 0.349434 0.17573 0.367663 -0.08735
C_ C_ 0.297981 0.183069 0.371365 -0.08735
C_ C_ 0.401226 0.201268 0.439563 -0.08735
C_ C_ 0.45477 0.193911 0.434957 -0.08735
C_ C_ 0.471993 0.17499 0.408107 -0.05681
C_ C_ 0.436682 0.167193 0.385254 -0.08735
C_ C_ 0.122331 0.287696 0.410917 0.68181
C_ C_ 0.128842 0.0920065 0.400788 0.68181
C_ C_ 0.135002 0.0348461 0.399039 -0.05681
C_ C_ 0.139301 0.503043 0.421897 -0.08735
C_ C_ 0.131968 0.451066 0.418964 -0.05681
C_ C_ 0.125059 0.428765 0.391683 -0.05681
C_ C_ 0.12205 0.460723 0.368187 -0.08735
C_ C_ 0.122574 0.512878 0.371307 -0.08735
C_ C_ 0.134739 0.418714 0.443027 -0.08735
C_ C_ 0.126073 0.366431 0.440153 -0.08735
C_ C_ 0.119719 0.343634 0.413137 -0.05681
C_ C_ 0.119921 0.374179 0.388168 -0.08735
C_ C_ 0.0261023 0.195831 0.40355 0.68181
C_ C_ 0.0742532 0.141859 0.478299 0.1947
C_ C_ 0.0988851 0.106751 0.0105203 -0.08735
C_ C_ 0.127004 0.128927 0.0325596 -0.08735
C_ C_ 0.154389 0.172948 0.0273866 -0.05681
C_ C_ 0.15998 0.190198 0.997775 0.18498
C_ C_ 0.172605 0.233286 0.493443 -0.08735
C_ C_ 0.212909 0.258464 0.0146549 -0.08735
C_ C_ 0.197145 0.251773 0.0428948 -0.08735
C_ C_ 0.169195 0.206051 0.0505292 0.18498
C_ C_ 0.20001 0.186057 0.0982387 0.44287
C_ C_ 0.111159 0.195052 0.0921199 0.44287
C_ C_ 0.102587 0.188658 0.122207 -0.05681
C_ C_ 0.0537633 0.188962 0.133531 -0.08735
C_ C_ 0.0460146 0.19007 0.163282 -0.08735
C_ C_ 0.0885128 0.193367 0.181849 -0.05681
C_ C_ 0.137059 0.188281 0.17095 -0.05681
C_ C_ 0.144756 0.184685 0.14098 -0.05681
C_ C_ 0.193354 0.184783 0.129084 -0.05681
C_ C_ 0.233728 0.184919 0.148057 -0.08735
C_ C_ 0.226328 0.179315 0.178082 -0.08735
C_ C_ 0.18067 0.181571 0.189458 -0.05681
C_ C_ 0.172086 0.173823 0.21884 0.44287
C_ C_ 0.0846943 0.189346 0.212064 0.44287
C_ C_ 0.113434 0.166343 0.25892 0.18498
C_ C_ 0.081546 0.123962 0.265259 -0.08735
C_ C_ 0.0688796 0.111175 0.29373 -0.08735
C_ C_ 0.0846387 0.140867 0.315691 -0.08735
C_ C_ 0.112501 0.183925 0.310798 0.18498
C_ C_ 0.122715 0.199137 0.281686 -0.05681
C_ C_ 0.153939 0.241644 0.277498 -0.08735
C_ C_ 0.166028 0.272043 0.301388 -0.08735
C_ C_ 0.152223 0.257828 0.329553 0.1947
C_ C_ 0.275296 0.332779 0.155274 0.68181
C_ C_ 0.219913 0.329945 0.150644 -0.05681
C_ C_ 0.186464 0.324479 0.173754 -0.08735
C_ C_ 0.132468 0.326107 0.168247 -0.05681
C_ C_ 0.112389 0.321245 0.140505 -0.05681
C_ C_ 0.14651 0.319911 0.118212 -0.08735
C_ C_ 0.199788 0.318876 0.124066 -0.08735
C_ C_ 0.0997223 0.329238 0.191564 -0.08735
C_ C_ 0.0495654 0.32521 0.187694 -0.08735
C_ C_ 0.0269706 0.318811 0.161235 -0.05681
C_ C_ 0.0602198 0.314765 0.13712 -0.08735
C_ C_ 0.366992 0.227328 0.165566 0.68181
C_ C_ 0.375378 0.427144 0.152645 0.68181
C_ C_ 0.382939 0.483202 0.150274 -0.05681
C_ C_ 0.373062 0.0117311 0.173098 -0.08735
C_ C_ 0.371126 0.064151 0.171346 -0.05681
C_ C_ 0.369462 0.0875047 0.14437 -0.05681
C_ C_ 0.369315 0.0564016 0.118797 -0.08735
C_ C_ 0.400624 0.507462 0.125833 -0.08735
C_ C_ 0.376794 0.09334 0.197506 -0.08735
C_ C_ 0.374045 0.146597 0.195455 -0.08735
C_ C_ 0.371799 0.170533 0.167451 -0.05681
C_ C_ 0.371531 0.141694 0.141656 -0.08735
C_ C_ 0.471369 0.3282 0.16114 0.68181
C_ C_ 0.40058 0.3892 0.236985 0.1947
C_ C_ 0.409092 0.406591 0.264709 -0.08735
C_ C_ 0.387648 0.379744 0.287955 -0.08735
C_ C_ 0.356743 0.336538 0.281829 -0.05681
C_ C_ 0.348248 0.322019 0.25275 0.18498
C_ C_ 0.311663 0.285691 0.24646 -0.08735
C_ C_ 0.288097 0.257871 0.268631 -0.08735
C_ C_ 0.300597 0.267903 0.296058 -0.08735
C_ C_ 0.332344 0.308342 0.30434 0.18498
C_ C_ 0.298673 0.33011 0.351335 0.44287
C_ C_ 0.384731 0.305521 0.345281 0.44287
C_ C_ 0.390582 0.306731 0.375704 -0.05681
C_ C_ 0.437253 0.29833 0.388196 -0.08735
C_ C_ 0.448546 0.313646 0.415351 -0.08735
C_ C_ 0.406633 0.321734 0.43432 -0.05681
C_ C_ 0.358661 0.329695 0.422562 -0.05681
C_ C_ 0.351726 0.324807 0.392339 -0.05681
C_ C_ 0.302714 0.330239 0.380426 -0.05681
C_ C_ 0.260845 0.337255 0.399397 -0.08735
C_ C_ 0.267107 0.339317 0.429327 -0.08735
C_ C_ 0.317151 0.338727 0.439834 -0.05681
C_ C_ 0.325961 0.343866 0.470107 0.44287
C_ C_ 0.412304 0.322632 0.463963 0.44287
C_ C_ 0.41256 0.338077 0.0107412 0.18498
C_ C_ 0.4513 0.370075 0.0185582 -0.08735
C_ C_ 0.463051 0.379874 0.0472349 -0.08735
C_ C_ 0.430792 0.36659 0.0693113 -0.08735
C_ C_ 0.393273 0.328411 0.0629355 0.18498
C_ C_ 0.385955 0.312759 0.0343246 -0.05681
C_ C_ 0.351749 0.273036 0.028773 -0.08735
C_ C_ 0.327881 0.248587 0.051555 -0.08735
C_ C_ 0.337081 0.262816 0.0803883 0.1947
N_ N_ 0.114427 0.172114 0.474506 -0.29468
N_ N_ 0.160757 0.194265 0.0805414 -0.17154
N_ N_ 0.12363 0.180807 0.229722 -0.17154
N_ N_ 0.129622 0.211246 0.334087 -0.29468
N_ N_ 0.369648 0.347684 0.230961 -0.29468
N_ N_ 0.339958 0.318694 0.334029 -0.17154
N_ N_ 0.374528 0.338458 0.481347 -0.17154
N_ N_ 0.367525 0.303828 0.0848675 -0.29468
O_ O_ 0.206303 0.176828 0.428554 -0.58347
O_ O_ 0.192225 0.203549 0.383905 -0.58347
O_ O_ 0.133269 0.260922 0.431909 -0.58347
O_ O_ 0.108516 0.266754 0.387718 -0.58347
O_ O_ 0.119759 0.11255 0.42474 -0.58347
O_ O_ 0.129295 0.117647 0.377804 -0.58347
O_ O_ 0.0564814 0.201489 0.424054 -0.58347
O_ O_ 0.0426894 0.180741 0.379847 -0.58347
O_ O_ 0.0747181 0.206777 0.0749639 -0.46727
O_ O_ 0.24475 0.175168 0.0876663 -0.46727
O_ O_ 0.0395472 0.193334 0.222619 -0.46727
O_ O_ 0.208201 0.15916 0.236784 -0.46727
O_ O_ 0.294641 0.330652 0.18005 -0.58347
O_ O_ 0.301734 0.324273 0.133235 -0.58347
O_ O_ 0.369381 0.25352 0.187837 -0.58347
O_ O_ 0.367781 0.24927 0.14073 -0.58347
O_ O_ 0.361612 0.407924 0.176093 -0.58347
O_ O_ 0.385403 0.397836 0.13162 -0.58347
O_ O_ 0.442916 0.335333 0.182306 -0.58347
O_ O_ 0.452298 0.316433 0.137285 -0.58347
O_ O_ 0.418137 0.279588 0.329204 -0.46727
O_ O_ 0.253483 0.335467 0.33983 -0.46727
O_ O_ 0.457666 0.316352 0.474631 -0.46727
O_ O_ 0.287996 0.349187 0.487808 -0.46727
Zn Zn 0.134385 0.186204 0.880234 0.90689
Zn Zn 0.146365 0.175625 0.928469 0.90689
Zn Zn 0.380252 0.309132 0.634604 0.90689
Zn Zn 0.368097 0.312293 0.681923 0.90689
H_ H_ 0.312332 0.220942 0.935027 0.11455
H_ H_ 0.376161 0.140239 0.847636 0.11455
H_ H_ 0.285553 0.157444 0.851951 0.11455
H_ H_ 0.404382 0.204863 0.957543 0.11455
H_ H_ 0.487862 0.198186 0.950173 0.11455
H_ H_ 0.466618 0.163811 0.86124 0.11455
H_ H_ 0.136776 0.0131979 0.943195 0.11455
H_ H_ 0.166633 0.434595 0.846639 0.11455
H_ H_ 0.139604 0.0228089 0.850743 0.11455
H_ H_ 0.117615 0.42701 0.962355 0.11455
H_ H_ 0.114002 0.335382 0.956559 0.11455
H_ H_ 0.149047 0.35159 0.867677 0.11455
H_ H_ 0.0997466 0.0962309 0.964115 0.11455
H_ H_ 0.030954 0.0972787 0.507966 0.11455
H_ H_ 0.0780056 0.127647 0.54988 0.11455
H_ H_ 0.201446 0.244162 0.970494 0.11455
H_ H_ 0.225076 0.286557 0.51115 0.11455
H_ H_ 0.204225 0.263548 0.562005 0.11455
H_ H_ 0.0112625 0.206162 0.625699 0.11455
H_ H_ 0.00809051 0.202982 0.67815 0.11455
H_ H_ 0.258371 0.148232 0.630126 0.11455
H_ H_ 0.258888 0.153077 0.681212 0.11455
H_ H_ 0.100827 0.0828698 0.744381 0.11455
H_ H_ 0.0798388 0.0513773 0.795331 0.11455
H_ H_ 0.089891 0.108372 0.835315 0.11455
H_ H_ 0.155588 0.250213 0.754685 0.11455
H_ H_ 0.169686 0.308945 0.794868 0.11455
H_ H_ 0.170442 0.272676 0.844646 0.11455
H_ H_ 0.201627 0.295121 0.696373 0.11455
H_ H_ 0.134956 0.326736 0.598142 0.11455
H_ H_ 0.226846 0.327211 0.607495 0.11455
H_ H_ 0.117626 0.3215 0.714089 0.11455
H_ H_ 0.0276074 0.317756 0.709731 0.11455
H_ H_ 0.0459005 0.314163 0.615577 0.11455
H_ H_ 0.356797 0.480693 0.693273 0.11455
H_ H_ 0.362447 0.059515 0.592923 0.11455
H_ H_ 0.384897 0.467421 0.6014 0.11455
H_ H_ 0.382861 0.0533126 0.710967 0.11455
H_ H_ 0.39168 0.146417 0.710544 0.11455
H_ H_ 0.363407 0.140774 0.617986 0.11455
H_ H_ 0.430486 0.380477 0.715795 0.11455
H_ H_ 0.456732 0.40153 0.764681 0.11455
H_ H_ 0.406417 0.370251 0.805635 0.11455
H_ H_ 0.312301 0.252224 0.725555 0.11455
H_ H_ 0.260916 0.215453 0.764724 0.11455
H_ H_ 0.282344 0.235382 0.815987 0.11455
H_ H_ 0.49019 0.280588 0.869238 0.11455
H_ H_ 0.506302 0.303009 0.917027 0.11455
H_ H_ 0.242873 0.341977 0.895903 0.11455
H_ H_ 0.259947 0.343074 0.945979 0.11455
H_ H_ 0.475173 0.387102 0.00143601 0.11455
H_ H_ 0.448597 0.4374 0.552717 0.11455
H_ H_ 0.430091 0.376774 0.588564 0.11455
H_ H_ 0.323134 0.264338 0.509052 0.11455
H_ H_ 0.307302 0.203409 0.549009 0.11455
H_ H_ 0.3302 0.22766 0.597874 0.11455
C_ C_ 0.238744 0.189269 0.900733 0.68181
C_ C_ 0.2921 0.187976 0.895547 -0.05681
C_ C_ 0.325633 0.200619 0.916624 -0.08735
C_ C_ 0.378847 0.191999 0.914013 -0.05681
C_ C_ 0.397649 0.175097 0.887 -0.05681
C_ C_ 0.363756 0.15853 0.866319 -0.08735
C_ C_ 0.312595 0.168372 0.86939 -0.08735
C_ C_ 0.413727 0.198562 0.935976 -0.08735
C_ C_ 0.464119 0.186696 0.932099 -0.08735
C_ C_ 0.484503 0.179409 0.905474 -0.05681
C_ C_ 0.451309 0.17119 0.882754 -0.08735
C_ C_ 0.128966 0.278314 0.909025 0.68181
C_ C_ 0.143695 0.0799235 0.899493 0.68181
C_ C_ 0.133882 0.02426 0.897535 -0.05681
C_ C_ 0.128134 0.493739 0.921143 -0.08735
C_ C_ 0.131975 0.440534 0.918736 -0.05681
C_ C_ 0.147713 0.418748 0.892785 -0.05681
C_ C_ 0.15262 0.448241 0.868195 -0.08735
C_ C_ 0.148593 0.501286 0.871712 -0.08735
C_ C_ 0.125944 0.409902 0.94194 -0.08735
C_ C_ 0.122292 0.356845 0.93747 -0.08735
C_ C_ 0.130215 0.334012 0.911608 -0.05681
C_ C_ 0.144041 0.366757 0.889137 -0.08735
C_ C_ 0.0422322 0.175633 0.905322 0.68181
C_ C_ 0.112682 0.118693 0.982316 0.1947
C_ C_ 0.0647701 0.122576 0.505879 -0.08735
C_ C_ 0.0873528 0.144045 0.529482 -0.08735
C_ C_ 0.123975 0.181502 0.526436 -0.05681
C_ C_ 0.136634 0.195506 0.497268 0.18498
C_ C_ 0.192615 0.229984 0.991656 -0.08735
C_ C_ 0.201521 0.255074 0.515417 -0.08735
C_ C_ 0.183328 0.248951 0.543576 -0.08735
C_ C_ 0.145137 0.208822 0.549536 0.18498
C_ C_ 0.178484 0.170428 0.592475 0.44287
C_ C_ 0.0930583 0.197435 0.59274 0.44287
C_ C_ 0.089919 0.192384 0.622226 -0.05681
C_ C_ 0.0446786 0.191916 0.636813 -0.08735
C_ C_ 0.0418179 0.191474 0.666633 -0.08735
C_ C_ 0.0855404 0.183509 0.682029 -0.05681
C_ C_ 0.13218 0.181139 0.668124 -0.05681
C_ C_ 0.134339 0.180187 0.637465 -0.05681
C_ C_ 0.178261 0.170414 0.623084 -0.05681
C_ C_ 0.22123 0.158614 0.639433 -0.08735
C_ C_ 0.221622 0.164381 0.669589 -0.08735
C_ C_ 0.176697 0.171283 0.684667 -0.05681
C_ C_ 0.172698 0.167095 0.714435 0.44287
C_ C_ 0.084235 0.176731 0.712692 0.44287
C_ C_ 0.123889 0.153814 0.757358 0.18498
C_ C_ 0.1079 0.104262 0.763481 -0.08735
C_ C_ 0.0918242 0.0907448 0.791044 -0.08735
C_ C_ 0.09876 0.123763 0.814057 -0.08735
C_ C_ 0.122606 0.170594 0.808908 0.18498
C_ C_ 0.12915 0.18847 0.780338 -0.05681
C_ C_ 0.146156 0.238486 0.775723 -0.08735
C_ C_ 0.159097 0.269596 0.798788 -0.08735
C_ C_ 0.151526 0.252534 0.827149 0.1947
C_ C_ 0.276437 0.305085 0.657695 0.68181
C_ C_ 0.220783 0.305371 0.652547 -0.05681
C_ C_ 0.1864 0.301399 0.674816 -0.08735
C_ C_ 0.132591 0.303859 0.670335 -0.05681
C_ C_ 0.115281 0.308878 0.642186 -0.05681
C_ C_ 0.149685 0.320535 0.620246 -0.08735
C_ C_ 0.200601 0.31633 0.624808 -0.08735
C_ C_ 0.100735 0.316484 0.693489 -0.08735
C_ C_ 0.0486845 0.31445 0.690606 -0.08735
C_ C_ 0.027227 0.311983 0.662224 -0.05681
C_ C_ 0.0611183 0.310976 0.63753 -0.08735
C_ C_ 0.372291 0.210435 0.662126 0.68181
C_ C_ 0.366731 0.409745 0.650031 0.68181
C_ C_ 0.371572 0.46631 0.648312 -0.05681
C_ C_ 0.357865 -0.0038839999999999986 0.667082 -0.08735
C_ C_ 0.369221 0.0466021 0.666304 -0.05681
C_ C_ 0.36962 0.0708006 0.638358 -0.05681
C_ C_ 0.364355 0.0411341 0.613299 -0.08735
C_ C_ 0.384317 0.489261 0.621353 -0.08735
C_ C_ 0.376803 0.074739 0.691617 -0.08735
C_ C_ 0.387611 0.126049 0.689704 -0.08735
C_ C_ 0.377178 0.152754 0.663822 -0.05681
C_ C_ 0.370597 0.123092 0.63834 -0.08735
C_ C_ 0.471656 0.30786 0.65779 0.68181
C_ C_ 0.408498 0.36892 0.734418 0.1947
C_ C_ 0.422258 0.383106 0.762213 -0.08735
C_ C_ 0.396042 0.361857 0.785305 -0.08735
C_ C_ 0.358834 0.323847 0.780699 -0.05681
C_ C_ 0.349171 0.307466 0.75145 0.18498
C_ C_ 0.314092 0.270079 0.746596 -0.08735
C_ C_ 0.286185 0.24617 0.769029 -0.08735
C_ C_ 0.295638 0.259705 0.797732 -0.08735
C_ C_ 0.331769 0.298661 0.804038 0.18498
C_ C_ 0.311195 0.321037 0.853285 0.44287
C_ C_ 0.392675 0.292437 0.845188 0.44287
C_ C_ 0.407625 0.305095 0.872789 -0.05681
C_ C_ 0.456418 0.297065 0.88261 -0.08735
C_ C_ 0.469752 0.307618 0.910456 -0.08735
C_ C_ 0.431756 0.322613 0.931361 -0.05681
C_ C_ 0.380083 0.327659 0.921227 -0.05681
C_ C_ 0.370117 0.319757 0.891304 -0.05681
C_ C_ 0.32062 0.326737 0.882159 -0.05681
C_ C_ 0.280599 0.328898 0.903095 -0.08735
C_ C_ 0.291895 0.336439 0.931826 -0.08735
C_ C_ 0.341138 0.335637 0.941596 -0.05681
C_ C_ 0.353528 0.341413 0.970332 0.44287
C_ C_ 0.440219 0.317083 0.961455 0.44287
C_ C_ 0.384126 0.349112 0.510633 0.18498
C_ C_ 0.410827 0.392295 0.518079 -0.08735
C_ C_ 0.427485 0.403127 0.546928 -0.08735
C_ C_ 0.41452 0.369318 0.568418 -0.08735
C_ C_ 0.388629 0.323715 0.562824 0.18498
C_ C_ 0.3736 0.314436 0.534121 -0.05681
C_ C_ 0.340699 0.271404 0.529858 -0.08735
C_ C_ 0.332629 0.236456 0.552407 -0.08735
C_ C_ 0.345085 0.249402 0.579965 0.1947
N_ N_ 0.140157 0.159988 0.976347 -0.29468
N_ N_ 0.138527 0.192032 0.578502 -0.17154
N_ N_ 0.126286 0.169239 0.728033 -0.17154
N_ N_ 0.136503 0.203054 0.831354 -0.29468
N_ N_ 0.37374 0.33033 0.729228 -0.29468
N_ N_ 0.346494 0.303798 0.834814 -0.17154
N_ N_ 0.401428 0.331057 0.979909 -0.17154
N_ N_ 0.37057 0.292613 0.584947 -0.29468
O_ O_ 0.222856 0.181876 0.925836 -0.58347
O_ O_ 0.209701 0.197202 0.880829 -0.58347
O_ O_ 0.13971 0.252081 0.93095 -0.58347
O_ O_ 0.115772 0.260131 0.885998 -0.58347
O_ O_ 0.149913 0.100396 0.92323 -0.58347
O_ O_ 0.143909 0.106731 0.876773 -0.58347
O_ O_ 0.0725637 0.173407 0.927967 -0.58347
O_ O_ 0.0592699 0.168644 0.880866 -0.58347
O_ O_ 0.0529555 0.213295 0.57767 -0.46727
O_ O_ 0.223164 0.165074 0.579694 -0.46727
O_ O_ 0.0413477 0.171905 0.726938 -0.46727
O_ O_ 0.214416 0.153304 0.728378 -0.46727
O_ O_ 0.294869 0.318257 0.682013 -0.58347
O_ O_ 0.306629 0.295658 0.637914 -0.58347
O_ O_ 0.366059 0.234504 0.684988 -0.58347
O_ O_ 0.390042 0.234845 0.641137 -0.58347
O_ O_ 0.375311 0.38814 0.673889 -0.58347
O_ O_ 0.366101 0.384687 0.626299 -0.58347
O_ O_ 0.442834 0.307266 0.679474 -0.58347
O_ O_ 0.452584 0.317878 0.633325 -0.58347
O_ O_ 0.426133 0.274974 0.827812 -0.46727
O_ O_ 0.271551 0.34583 0.842209 -0.46727
O_ O_ 0.483484 0.300455 0.971902 -0.46727
O_ O_ 0.319886 0.361262 0.988127 -0.46727
Zn Zn 0.116154 0.692719 0.384225 0.90689
Zn Zn 0.129503 0.686818 0.431966 0.90689
Zn Zn 0.378586 0.820627 0.135935 0.90689
Zn Zn 0.363717 0.824932 0.181908 0.90689
H_ H_ 0.296471 0.679799 0.44896 0.11455
H_ H_ 0.365879 0.672694 0.350096 0.11455
H_ H_ 0.271695 0.6756 0.359485 0.11455
H_ H_ 0.385872 0.675203 0.467304 0.11455
H_ H_ 0.47925 0.669583 0.459196 0.11455
H_ H_ 0.455392 0.682582 0.368204 0.11455
H_ H_ 0.144508 0.518332 0.443162 0.11455
H_ H_ 0.165094 0.939927 0.351406 0.11455
H_ H_ 0.117695 0.537522 0.352517 0.11455
H_ H_ 0.109627 0.939845 0.467875 0.11455
H_ H_ 0.109955 0.849509 0.463556 0.11455
H_ H_ 0.128582 0.857029 0.371707 0.11455
H_ H_ 0.0736434 0.613801 0.464867 0.11455
H_ H_ 0.0944276 0.573263 0.0222173 0.11455
H_ H_ 0.106811 0.635805 0.0595044 0.11455
H_ H_ 0.188951 0.751462 0.476743 0.11455
H_ H_ 0.234332 0.797144 0.0146381 0.11455
H_ H_ 0.195896 0.798501 0.0615557 0.11455
H_ H_ 0.0085713 0.722367 0.123996 0.11455
H_ H_ -0.004469999999999974 0.709562 0.174283 0.11455
H_ H_ 0.26136 0.688761 0.141142 0.11455
H_ H_ 0.24942 0.678834 0.192179 0.11455
H_ H_ 0.0481198 0.607305 0.247786 0.11455
H_ H_ 0.0279739 0.581684 0.296553 0.11455
H_ H_ 0.0555263 0.631825 0.337259 0.11455
H_ H_ 0.165316 0.751952 0.263938 0.11455
H_ H_ 0.194754 0.798579 0.305769 0.11455
H_ H_ 0.181815 0.754263 0.35106 0.11455
H_ H_ 0.187655 0.803533 0.196775 0.11455
H_ H_ 0.132093 0.858479 0.101823 0.11455
H_ H_ 0.220038 0.827097 0.107425 0.11455
H_ H_ 0.102154 0.831557 0.215116 0.11455
H_ H_ 0.0097658 0.839123 0.205214 0.11455
H_ H_ 0.0466073 0.828292 0.115274 0.11455
H_ H_ 0.371003 0.994918 0.193239 0.11455
H_ H_ 0.412756 0.57575 0.104477 0.11455
H_ H_ 0.36926 0.980286 0.101275 0.11455
H_ H_ 0.362065 0.573452 0.219749 0.11455
H_ H_ 0.382609 0.664791 0.218279 0.11455
H_ H_ 0.410321 0.658157 0.128317 0.11455
H_ H_ 0.410745 0.900263 0.217833 0.11455
H_ H_ 0.402229 0.945126 0.261623 0.11455
H_ H_ 0.366477 0.906014 0.30455 0.11455
H_ H_ 0.310715 0.74984 0.22714 0.11455
H_ H_ 0.2931 0.698346 0.268787 0.11455
H_ H_ 0.296685 0.733934 0.317817 0.11455
H_ H_ 0.485231 0.817073 0.374324 0.11455
H_ H_ 0.493158 0.814996 0.426885 0.11455
H_ H_ 0.229209 0.828133 0.391068 0.11455
H_ H_ 0.238615 0.829034 0.444747 0.11455
H_ H_ 0.429303 0.900774 0.501346 0.11455
H_ H_ 0.450772 0.947866 0.0512426 0.11455
H_ H_ 0.434695 0.888917 0.0894434 0.11455
H_ H_ 0.374628 0.748179 0.0123185 0.11455
H_ H_ 0.333878 0.705372 0.0487955 0.11455
H_ H_ 0.330907 0.741841 0.099836 0.11455
C_ C_ 0.22427 0.689891 0.410596 0.68181
C_ C_ 0.280654 0.686197 0.404836 -0.05681
C_ C_ 0.313677 0.679643 0.427503 -0.08735
C_ C_ 0.367696 0.676565 0.422823 -0.05681
C_ C_ 0.386119 0.678642 0.394204 -0.05681
C_ C_ 0.353424 0.675038 0.371502 -0.08735
C_ C_ 0.300274 0.678648 0.376479 -0.08735
C_ C_ 0.400476 0.674148 0.445709 -0.08735
C_ C_ 0.452013 0.675144 0.44064 -0.08735
C_ C_ 0.471612 0.679246 0.412837 -0.05681
C_ C_ 0.438236 0.678947 0.389502 -0.08735
C_ C_ 0.121252 0.789769 0.413727 0.68181
C_ C_ 0.133334 0.592819 0.401264 0.68181
C_ C_ 0.132686 0.535516 0.397754 -0.05681
C_ C_ 0.126639 1.0056553 0.424317 -0.08735
C_ C_ 0.124402 0.952194 0.422077 -0.05681
C_ C_ 0.131309 0.928831 0.394516 -0.05681
C_ C_ 0.147756 0.957301 0.370226 -0.08735
C_ C_ 0.145811 1.0114756 0.372262 -0.08735
C_ C_ 0.111997 0.921944 0.446364 -0.08735
C_ C_ 0.116879 0.869678 0.443058 -0.08735
C_ C_ 0.120551 0.846265 0.416221 -0.05681
C_ C_ 0.124503 0.875985 0.392014 -0.08735
C_ C_ 0.0231435 0.684148 0.407352 0.68181
C_ C_ 0.0931063 0.63094 0.483772 0.1947
C_ C_ 0.106692 0.610226 0.0166101 -0.08735
C_ C_ 0.116558 0.645522 0.0377351 -0.08735
C_ C_ 0.139555 0.692595 0.0307585 -0.05681
C_ C_ 0.153738 0.700551 1.00188684 0.18498
C_ C_ 0.17884 0.739051 0.499158 -0.08735
C_ C_ 0.200239 0.775467 0.016905 -0.08735
C_ C_ 0.185631 0.769137 0.0453789 -0.08735
C_ C_ 0.156729 0.726391 0.0532479 0.18498
C_ C_ 0.19007 0.707131 0.100663 0.44287
C_ C_ 0.101721 0.722227 0.095052 0.44287
C_ C_ 0.0914055 0.712435 0.125125 -0.05681
C_ C_ 0.0418232 0.713279 0.136696 -0.08735
C_ C_ 0.0350559 0.709221 0.166702 -0.08735
C_ C_ 0.0780643 0.704737 0.185027 -0.05681
C_ C_ 0.128103 0.700988 0.173393 -0.05681
C_ C_ 0.134355 0.705274 0.142816 -0.05681
C_ C_ 0.183013 0.699937 0.131408 -0.05681
C_ C_ 0.222949 0.686645 0.149957 -0.08735
C_ C_ 0.216137 0.685637 0.179989 -0.08735
C_ C_ 0.168561 0.687891 0.191468 -0.05681
C_ C_ 0.159446 0.684287 0.220743 0.44287
C_ C_ 0.0703023 0.698401 0.214752 0.44287
C_ C_ 0.101397 0.669822 0.261513 0.18498
C_ C_ 0.0671563 0.628241 0.265845 -0.08735
C_ C_ 0.0537167 0.615791 0.29352 -0.08735
C_ C_ 0.072824 0.643045 0.317515 -0.08735
C_ C_ 0.105843 0.683193 0.314282 0.18498
C_ C_ 0.119453 0.696613 0.286061 -0.05681
C_ C_ 0.149118 0.741818 0.283395 -0.08735
C_ C_ 0.168098 0.766208 0.308284 -0.08735
C_ C_ 0.15619 0.746187 0.334555 0.1947
C_ C_ 0.270145 0.813913 0.158146 0.68181
C_ C_ 0.21399 0.826068 0.153782 -0.05681
C_ C_ 0.176713 0.821033 0.176655 -0.08735
C_ C_ 0.125879 0.83125 0.17134 -0.05681
C_ C_ 0.108764 0.836823 0.143125 -0.05681
C_ C_ 0.143785 0.839955 0.120759 -0.08735
C_ C_ 0.194097 0.82941 0.12496 -0.08735
C_ C_ 0.0906787 0.831601 0.19349 -0.08735
C_ C_ 0.0373941 0.83521 0.186736 -0.08735
C_ C_ 0.0209471 0.836723 0.158972 -0.05681
C_ C_ 0.0566406 0.832133 0.136908 -0.08735
C_ C_ 0.376574 0.727986 0.169241 0.68181
C_ C_ 0.367854 0.924387 0.151808 0.68181
C_ C_ 0.370444 0.9806 0.148581 -0.05681
C_ C_ 0.371582 0.51305 0.174293 -0.08735
C_ C_ 0.376719 0.565591 0.173127 -0.05681
C_ C_ 0.388356 0.589035 0.14753 -0.05681
C_ C_ 0.401343 0.559502 0.124383 -0.08735
C_ C_ 0.36864 0.00319998 0.121441 -0.08735
C_ C_ 0.369466 0.5939 0.199371 -0.08735
C_ C_ 0.371924 0.64481 0.197557 -0.08735
C_ C_ 0.38111 0.671461 0.171183 -0.05681
C_ C_ 0.39014 0.641638 0.146399 -0.08735
C_ C_ 0.469619 0.824516 0.161759 0.68181
C_ C_ 0.388354 0.883346 0.23439 0.1947
C_ C_ 0.388399 0.905951 0.260864 -0.08735
C_ C_ 0.36198 0.885233 0.284426 -0.08735
C_ C_ 0.34318 0.836004 0.281592 -0.05681
C_ C_ 0.341094 0.814299 0.253546 0.18498
C_ C_ 0.31201 0.76768 0.248933 -0.08735
C_ C_ 0.302134 0.738547 0.273195 -0.08735
C_ C_ 0.311511 0.756678 0.30139 -0.08735
C_ C_ 0.333221 0.80437 0.306324 0.18498
C_ C_ 0.303646 0.82628 0.35223 0.44287
C_ C_ 0.392829 0.821653 0.345592 0.44287
C_ C_ 0.401396 0.821696 0.375545 -0.05681
C_ C_ 0.451826 0.818347 0.388572 -0.08735
C_ C_ 0.455547 0.813397 0.418062 -0.08735
C_ C_ 0.412431 0.813565 0.435824 -0.05681
C_ C_ 0.363779 0.816172 0.423543 -0.05681
C_ C_ 0.357995 0.823555 0.393625 -0.05681
C_ C_ 0.309449 0.822596 0.382021 -0.05681
C_ C_ 0.266929 0.826294 0.399816 -0.08735
C_ C_ 0.27115 0.823075 0.42997 -0.08735
C_ C_ 0.320773 0.82154 0.442139 -0.05681
C_ C_ 0.329369 0.831965 0.471133 0.44287
C_ C_ 0.413542 0.810039 0.465954 0.44287
C_ C_ 0.401718 0.848987 0.0113769 0.18498
C_ C_ 0.422213 0.897146 0.0176732 -0.08735
C_ C_ 0.431935 0.911381 0.0463999 -0.08735
C_ C_ 0.416677 0.880718 0.0693296 -0.08735
C_ C_ 0.389744 0.835867 0.0637876 0.18498
C_ C_ 0.38483 0.817596 0.0351275 -0.05681
C_ C_ 0.375654 0.765744 0.0325157 -0.08735
C_ C_ 0.353965 0.73907 0.0552955 -0.08735
C_ C_ 0.352856 0.759997 0.0820422 0.1947
N_ N_ 0.120305 0.673885 0.479607 -0.29468
N_ N_ 0.149308 0.716103 0.0833423 -0.17154
N_ N_ 0.110482 0.684802 0.231879 -0.17154
N_ N_ 0.122714 0.707884 0.337496 -0.29468
N_ N_ 0.360739 0.840515 0.230306 -0.29468
N_ N_ 0.34476 0.82019 0.334991 -0.17154
N_ N_ 0.373553 0.820178 0.482987 -0.17154
N_ N_ 0.375108 0.805976 0.0867966 -0.29468
O_ O_ 0.206488 0.690883 0.435501 -0.58347
O_ O_ 0.193495 0.693155 0.389745 -0.58347
O_ O_ 0.126734 0.764027 0.436691 -0.58347
O_ O_ 0.114375 0.768498 0.389269 -0.58347
O_ O_ 0.141376 0.613466 0.425299 -0.58347
O_ O_ 0.119495 0.618835 0.380641 -0.58347
O_ O_ 0.0520028 0.681868 0.429456 -0.58347
O_ O_ 0.0428667 0.691538 0.382107 -0.58347
O_ O_ 0.0639506 0.727938 0.0763334 -0.46727
O_ O_ 0.234761 0.70332 0.0896694 -0.46727
O_ O_ 0.0242329 0.709286 0.225655 -0.46727
O_ O_ 0.19546 0.670362 0.238034 -0.46727
O_ O_ 0.285655 0.811424 0.182592 -0.58347
O_ O_ 0.300259 0.825526 0.138362 -0.58347
O_ O_ 0.377459 0.755267 0.19097 -0.58347
O_ O_ 0.369275 0.750273 0.145539 -0.58347
O_ O_ 0.353409 0.902667 0.174656 -0.58347
O_ O_ 0.378244 0.895492 0.131228 -0.58347
O_ O_ 0.437228 0.838856 0.181526 -0.58347
O_ O_ 0.451718 0.815059 0.136918 -0.58347
O_ O_ 0.431402 0.815171 0.327637 -0.46727
O_ O_ 0.257775 0.825194 0.341527 -0.46727
O_ O_ 0.455799 0.795085 0.478681 -0.46727
O_ O_ 0.28877 0.844654 0.488351 -0.46727
Zn Zn 0.137253 0.680374 0.885378 0.90689
Zn Zn 0.140019 0.679704 0.935362 0.90689
Zn Zn 0.367564 0.805486 0.634367 0.90689
Zn Zn 0.357608 0.816245 0.679992 0.90689
H_ H_ 0.314279 0.679424 0.947331 0.11455
H_ H_ 0.378207 0.654079 0.849154 0.11455
H_ H_ 0.289066 0.664195 0.858416 0.11455
H_ H_ 0.401763 0.693053 0.96356 0.11455
H_ H_ 0.49285 0.690665 0.956858 0.11455
H_ H_ 0.465645 0.654225 0.866912 0.11455
H_ H_ 0.121328 0.509203 0.942376 0.11455
H_ H_ 0.140072 0.924702 0.848814 0.11455
H_ H_ 0.163974 0.524434 0.855542 0.11455
H_ H_ 0.123456 0.928595 0.965342 0.11455
H_ H_ 0.131182 0.837031 0.964183 0.11455
H_ H_ 0.127608 0.841591 0.874762 0.11455
H_ H_ 0.101852 0.597738 0.970755 0.11455
H_ H_ 0.0531423 0.582797 0.514494 0.11455
H_ H_ 0.0910223 0.617976 0.556245 0.11455
H_ H_ 0.204697 0.738508 0.975518 0.11455
H_ H_ 0.222941 0.797899 0.520579 0.11455
H_ H_ 0.194322 0.77494 0.567487 0.11455
H_ H_ 1.0118015 0.704737 0.626834 0.11455
H_ H_ 0.998563 0.694144 0.67873 0.11455
H_ H_ 0.260366 0.666508 0.639998 0.11455
H_ H_ 0.248082 0.646941 0.694818 0.11455
H_ H_ 0.0775418 0.579281 0.752845 0.11455
H_ H_ 0.0739684 0.548465 0.802716 0.11455
H_ H_ 0.093425 0.607412 0.842038 0.11455
H_ H_ 0.16266 0.740327 0.761293 0.11455
H_ H_ 0.189281 0.794017 0.799984 0.11455
H_ H_ 0.175804 0.762271 0.851875 0.11455
H_ H_ 0.191579 0.809089 0.697549 0.11455
H_ H_ 0.131423 0.822165 0.596551 0.11455
H_ H_ 0.221343 0.806361 0.606832 0.11455
H_ H_ 0.105676 0.812156 0.714716 0.11455
H_ H_ 0.0123032 0.814199 0.705045 0.11455
H_ H_ 0.0389682 0.809254 0.615782 0.11455
H_ H_ 0.352584 0.980181 0.689183 0.11455
H_ H_ 0.403115 0.55902 0.599134 0.11455
H_ H_ 0.353836 0.964824 0.596293 0.11455
H_ H_ 0.326334 0.560385 0.708812 0.11455
H_ H_ 0.332174 0.651451 0.706875 0.11455
H_ H_ 0.401071 0.646736 0.624591 0.11455
H_ H_ 0.424255 0.892203 0.713386 0.11455
H_ H_ 0.446035 0.918412 0.760592 0.11455
H_ H_ 0.413852 0.873472 0.804632 0.11455
H_ H_ 0.298798 0.762063 0.726361 0.11455
H_ H_ 0.291605 0.695437 0.763373 0.11455
H_ H_ 0.327251 0.713355 0.812969 0.11455
H_ H_ 0.502783 0.790604 0.876088 0.11455
H_ H_ 0.508027 0.81329 0.925403 0.11455
H_ H_ 0.248681 0.825422 0.886762 0.11455
H_ H_ 0.255553 0.832832 0.938812 0.11455
H_ H_ 0.430226 0.923822 0.999982 0.11455
H_ H_ 0.453539 0.919443 0.547731 0.11455
H_ H_ 0.424931 0.866107 0.590778 0.11455
H_ H_ 0.335966 0.740935 0.510712 0.11455
H_ H_ 0.296896 0.695064 0.552363 0.11455
H_ H_ 0.315288 0.725717 0.600838 0.11455
C_ C_ 0.23543 0.684186 0.906384 0.68181
C_ C_ 0.292683 0.676016 0.902814 -0.05681
C_ C_ 0.327478 0.680421 0.925282 -0.08735
C_ C_ 0.379824 0.680887 0.919438 -0.05681
C_ C_ 0.399066 0.670032 0.892867 -0.05681
C_ C_ 0.365127 0.663968 0.869901 -0.08735
C_ C_ 0.31304 0.666617 0.875972 -0.08735
C_ C_ 0.415197 0.684158 0.942842 -0.08735
C_ C_ 0.467467 0.684507 0.937472 -0.08735
C_ C_ 0.487601 0.676932 0.910581 -0.05681
C_ C_ 0.451545 0.668508 0.887312 -0.08735
C_ C_ 0.134091 0.779079 0.916033 0.68181
C_ C_ 0.135734 0.57956 0.900769 0.68181
C_ C_ 0.139353 0.524432 0.89752 -0.05681
C_ C_ 0.131424 0.994283 0.922618 -0.08735
C_ C_ 0.130277 0.942065 0.921071 -0.05681
C_ C_ 0.132208 0.918159 0.894422 -0.05681
C_ C_ 0.135759 0.94695 0.869264 -0.08735
C_ C_ 0.137029 0.000633841 0.870853 -0.08735
C_ C_ 0.129547 0.912843 0.945504 -0.08735
C_ C_ 0.129446 0.860177 0.945064 -0.08735
C_ C_ 0.133519 0.836338 0.918982 -0.05681
C_ C_ 0.130081 0.864438 0.893427 -0.08735
C_ C_ 0.0395805 0.680085 0.913978 0.68181
C_ C_ 0.115051 0.622689 0.988002 0.1947
C_ C_ 0.0823113 0.611723 0.511409 -0.08735
C_ C_ 0.10521 0.632551 0.534825 -0.08735
C_ C_ 0.134789 0.679044 0.531304 -0.05681
C_ C_ 0.146665 0.695684 0.503188 0.18498
C_ C_ 0.187204 0.73893 0.995691 -0.08735
C_ C_ 0.200694 0.764371 0.522408 -0.08735
C_ C_ 0.186833 0.748864 0.54996 -0.08735
C_ C_ 0.153628 0.706724 0.555789 0.18498
C_ C_ 0.18509 0.675571 0.601382 0.44287
C_ C_ 0.0995871 0.699312 0.597413 0.44287
C_ C_ 0.0917843 0.688173 0.626249 -0.05681
C_ C_ 0.044235 0.69205 0.639113 -0.08735
C_ C_ 0.0362719 0.688753 0.669585 -0.08735
C_ C_ 0.0769944 0.677865 0.687407 -0.05681
C_ C_ 0.126553 0.671222 0.675052 -0.05681
C_ C_ 0.133215 0.678853 0.64451 -0.05681
C_ C_ 0.179784 0.670442 0.631755 -0.05681
C_ C_ 0.221459 0.660048 0.649784 -0.08735
C_ C_ 0.214918 0.654057 0.679739 -0.08735
C_ C_ 0.168898 0.662932 0.692671 -0.05681
C_ C_ 0.16068 0.656694 0.723004 0.44287
C_ C_ 0.0714721 0.674657 0.717908 0.44287
C_ C_ 0.108414 0.650435 0.76417 0.18498
C_ C_ 0.0937505 0.601745 0.769863 -0.08735
C_ C_ 0.0865151 0.585594 0.797496 -0.08735
C_ C_ 0.101899 0.617899 0.820684 -0.08735
C_ C_ 0.122206 0.665718 0.815192 0.18498
C_ C_ 0.130259 0.681286 0.786997 -0.05681
C_ C_ 0.159056 0.726675 0.782028 -0.08735
C_ C_ 0.170992 0.757421 0.805382 -0.08735
C_ C_ 0.163723 0.740645 0.832979 0.1947
C_ C_ 0.266105 0.804661 0.657988 0.68181
C_ C_ 0.211762 0.808638 0.653016 -0.05681
C_ C_ 0.176528 0.812798 0.674703 -0.08735
C_ C_ 0.124092 0.816381 0.670121 -0.05681
C_ C_ 0.106003 0.813806 0.642043 -0.05681
C_ C_ 0.143036 0.814568 0.618854 -0.08735
C_ C_ 0.193898 0.809759 0.625091 -0.08735
C_ C_ 0.0902708 0.811794 0.693918 -0.08735
C_ C_ 0.0392784 0.811196 0.688268 -0.08735
C_ C_ 0.0193236 0.817027 0.659734 -0.05681
C_ C_ 0.0526107 0.816045 0.636506 -0.08735
C_ C_ 0.365017 0.714483 0.665072 0.68181
C_ C_ 0.361151 0.910019 0.648356 0.68181
C_ C_ 0.359672 0.965923 0.643182 -0.05681
C_ C_ 0.365471 0.49609 0.673116 -0.08735
C_ C_ 0.366708 0.549552 0.669397 -0.05681
C_ C_ 0.381466 0.572584 0.643296 -0.05681
C_ C_ 0.393432 0.540517 0.619526 -0.08735
C_ C_ 0.362043 0.988305 0.615054 -0.08735
C_ C_ 0.348012 0.578694 0.691379 -0.08735
C_ C_ 0.344094 0.631432 0.688657 -0.08735
C_ C_ 0.362624 0.657882 0.664223 -0.05681
C_ C_ 0.379291 0.626992 0.640682 -0.08735
C_ C_ 0.464694 0.810779 0.657468 0.68181
C_ C_ 0.40096 0.875972 0.731265 0.1947
C_ C_ 0.4178 0.88891 0.758039 -0.08735
C_ C_ 0.401718 0.862072 0.782583 -0.08735
C_ C_ 0.368566 0.82029 0.779745 -0.05681
C_ C_ 0.353114 0.807365 0.751305 0.18498
C_ C_ 0.3216 0.765247 0.746147 -0.08735
C_ C_ 0.317036 0.728448 0.768351 -0.08735
C_ C_ 0.335556 0.737666 0.796346 -0.08735
C_ C_ 0.35744 0.785723 0.802302 0.18498
C_ C_ 0.323043 0.808623 0.848842 0.44287
C_ C_ 0.409719 0.789425 0.844917 0.44287
C_ C_ 0.418729 0.799078 0.875311 -0.05681
C_ C_ 0.467275 0.790957 0.888703 -0.08735
C_ C_ 0.471598 0.804785 0.917823 -0.08735
C_ C_ 0.42748 0.812486 0.935068 -0.05681
C_ C_ 0.378888 0.812946 0.922977 -0.05681
C_ C_ 0.374833 0.808833 0.89301 -0.05681
C_ C_ 0.328093 0.814713 0.879614 -0.05681
C_ C_ 0.286565 0.825751 0.896582 -0.08735
C_ C_ 0.289101 0.829737 0.926409 -0.08735
C_ C_ 0.337046 0.821395 0.940327 -0.05681
C_ C_ 0.344552 0.82779 0.970557 0.44287
C_ C_ 0.433271 0.821882 0.965109 0.44287
C_ C_ 0.382095 0.834421 0.512639 0.18498
C_ C_ 0.412339 0.877548 0.518563 -0.08735
C_ C_ 0.426491 0.887376 0.545709 -0.08735
C_ C_ 0.407191 0.859867 0.56967 -0.08735
C_ C_ 0.374924 0.818362 0.565184 0.18498
C_ C_ 0.363183 0.80426 0.535897 -0.05681
C_ C_ 0.334166 0.759578 0.532073 -0.08735
C_ C_ 0.319268 0.729584 0.555615 -0.08735
C_ C_ 0.328226 0.748666 0.583397 0.1947
N_ N_ 0.137569 0.668726 0.981606 -0.29468
N_ N_ 0.144428 0.690666 0.58486 -0.17154
N_ N_ 0.1138 0.664969 0.734386 -0.17154
N_ N_ 0.136333 0.696391 0.837203 -0.29468
N_ N_ 0.369955 0.83296 0.727266 -0.29468
N_ N_ 0.364446 0.799702 0.832382 -0.17154
N_ N_ 0.392863 0.836229 0.98197 -0.17154
N_ N_ 0.357756 0.789983 0.587556 -0.29468
O_ O_ 0.216693 0.676021 0.930989 -0.58347
O_ O_ 0.209251 0.693097 0.88533 -0.58347
O_ O_ 0.142765 0.754913 0.938031 -0.58347
O_ O_ 0.121074 0.754984 0.892776 -0.58347
O_ O_ 0.125665 0.602809 0.923854 -0.58347
O_ O_ 0.15205 0.607139 0.87971 -0.58347
O_ O_ 0.067001 0.687524 0.936559 -0.58347
O_ O_ 0.0607897 0.673204 0.889545 -0.58347
O_ O_ 0.0598677 0.7108 0.580477 -0.46727
O_ O_ 0.231026 0.675942 0.591423 -0.46727
O_ O_ 0.0290683 0.675049 0.729552 -0.46727
O_ O_ 0.203205 0.65435 0.738754 -0.46727
O_ O_ 0.284813 0.817089 0.682156 -0.58347
O_ O_ 0.295989 0.798245 0.636953 -0.58347
O_ O_ 0.346028 0.740737 0.684036 -0.58347
O_ O_ 0.37849 0.734684 0.642034 -0.58347
O_ O_ 0.360371 0.894027 0.674055 -0.58347
O_ O_ 0.359317 0.879251 0.627121 -0.58347
O_ O_ 0.434373 0.814231 0.678779 -0.58347
O_ O_ 0.444763 0.812251 0.632335 -0.58347
O_ O_ 0.447891 0.772459 0.829962 -0.46727
O_ O_ 0.278619 0.810488 0.837077 -0.46727
O_ O_ 0.480317 0.827065 0.975129 -0.46727
O_ O_ 0.306648 0.838806 0.987176 -0.46727
Zn Zn 0.622904 0.184859 0.381336 0.90689
Zn Zn 0.633251 0.177069 0.428481 0.90689
Zn Zn 0.876466 0.322503 0.132372 0.90689
Zn Zn 0.869415 0.328451 0.180106 0.90689
H_ H_ 0.799677 0.198332 0.446775 0.11455
H_ H_ 0.867438 0.169211 0.348319 0.11455
H_ H_ 0.776255 0.158537 0.359331 0.11455
H_ H_ 0.886318 0.188425 0.466029 0.11455
H_ H_ 0.978173 0.199103 0.455428 0.11455
H_ H_ 0.948783 0.183267 0.365128 0.11455
H_ H_ 0.661786 0.0134091 0.437342 0.11455
H_ H_ 0.691177 0.432548 0.356139 0.11455
H_ H_ 0.58266 0.0292706 0.357817 0.11455
H_ H_ 0.555835 0.424322 0.447677 0.11455
H_ H_ 0.56756 0.328828 0.444668 0.11455
H_ H_ 0.660896 0.35106 0.370843 0.11455
H_ H_ 0.572696 0.116763 0.462065 0.11455
H_ H_ 0.579568 0.0678589 0.00780709 0.11455
H_ H_ 0.624776 0.107199 0.0498743 0.11455
H_ H_ 0.691351 0.237599 0.474566 0.11455
H_ H_ 0.700154 0.30864 0.0147937 0.11455
H_ H_ 0.684134 0.28068 0.0608587 0.11455
H_ H_ 0.510656 0.206655 0.121223 0.11455
H_ H_ 0.502611 0.207537 0.175584 0.11455
H_ H_ 0.761674 0.163785 0.133343 0.11455
H_ H_ 0.750356 0.140709 0.184228 0.11455
H_ H_ 0.576135 0.0865307 0.247425 0.11455
H_ H_ 0.543065 0.0652807 0.296165 0.11455
H_ H_ 0.570946 0.119184 0.333844 0.11455
H_ H_ 0.66216 0.244545 0.254566 0.11455
H_ H_ 0.687392 0.293243 0.297402 0.11455
H_ H_ 0.680851 0.260684 0.345832 0.11455
H_ H_ 0.706916 0.321626 0.197039 0.11455
H_ H_ 0.630585 0.349577 0.100474 0.11455
H_ H_ 0.718673 0.350633 0.105573 0.11455
H_ H_ 0.618826 0.320625 0.219022 0.11455
H_ H_ 0.525336 0.313564 0.209888 0.11455
H_ H_ 0.544242 0.339645 0.121439 0.11455
H_ H_ 0.852584 0.495545 0.194282 0.11455
H_ H_ 0.828015 0.077924 0.0975931 0.11455
H_ H_ 0.891801 0.480302 0.102156 0.11455
H_ H_ 0.923606 0.0749131 0.202447 0.11455
H_ H_ 0.910771 0.166156 0.204441 0.11455
H_ H_ 0.860548 0.157706 0.11669 0.11455
H_ H_ 0.924711 0.397655 0.217249 0.11455
H_ H_ 0.931684 0.429979 0.266614 0.11455
H_ H_ 0.893733 0.381304 0.305112 0.11455
H_ H_ 0.812027 0.266719 0.220706 0.11455
H_ H_ 0.775229 0.209877 0.258567 0.11455
H_ H_ 0.797967 0.227327 0.308715 0.11455
H_ H_ 0.987033 0.30279 0.368213 0.11455
H_ H_ 0.00159197 0.314915 0.421792 0.11455
H_ H_ 0.733609 0.317206 0.389078 0.11455
H_ H_ 0.745034 0.331422 0.441808 0.11455
H_ H_ 0.930428 0.412205 0.498179 0.11455
H_ H_ 0.960699 0.435629 0.0500885 0.11455
H_ H_ 0.940541 0.377582 0.0882431 0.11455
H_ H_ 0.835298 0.261503 0.00869565 0.11455
H_ H_ 0.795951 0.222311 0.048893 0.11455
H_ H_ 0.811137 0.252493 0.0998725 0.11455
C_ C_ 0.726731 0.182914 0.407145 0.68181
C_ C_ 0.780213 0.185739 0.402182 -0.05681
C_ C_ 0.81464 0.192415 0.424676 -0.08735
C_ C_ 0.867244 0.190565 0.4211 -0.05681
C_ C_ 0.885987 0.187376 0.392335 -0.05681
C_ C_ 0.851845 0.181229 0.369549 -0.08735
C_ C_ 0.799423 0.179569 0.373958 -0.08735
C_ C_ 0.8999 0.191835 0.444091 -0.08735
C_ C_ 0.953108 0.193805 0.438005 -0.08735
C_ C_ 0.971528 0.192757 0.409573 -0.05681
C_ C_ 0.936953 0.184918 0.386611 -0.08735
C_ C_ 0.621126 0.278177 0.408172 0.68181
C_ C_ 0.629166 0.0830833 0.40003 0.68181
C_ C_ 0.624739 0.0269782 0.397712 -0.05681
C_ C_ 0.613671 0.495693 0.419634 -0.08735
C_ C_ 0.614522 0.441299 0.416192 -0.05681
C_ C_ 0.644079 0.419418 0.39427 -0.05681
C_ C_ 0.672383 0.450237 0.374482 -0.08735
C_ C_ 0.664892 0.502225 0.375531 -0.08735
C_ C_ 0.585729 0.4087 0.434024 -0.08735
C_ C_ 0.584406 0.355496 0.428411 -0.08735
C_ C_ 0.616727 0.333283 0.408255 -0.05681
C_ C_ 0.642644 0.365367 0.389585 -0.08735
C_ C_ 0.528502 0.17536 0.402106 0.68181
C_ C_ 0.588004 0.133089 0.480013 0.1947
C_ C_ 0.599081 0.103449 0.00591315 -0.08735
C_ C_ 0.62203 0.127966 0.0297673 -0.08735
C_ C_ 0.642357 0.176703 0.026563 -0.05681
C_ C_ 0.64838 0.194088 0.997112 0.18498
C_ C_ 0.678351 0.22964 0.495568 -0.08735
C_ C_ 0.687245 0.271546 0.0164478 -0.08735
C_ C_ 0.680184 0.253696 0.0441205 -0.08735
C_ C_ 0.652508 0.210653 0.0492853 0.18498
C_ C_ 0.683195 0.182705 0.0947763 0.44287
C_ C_ 0.59711 0.206847 0.0921789 0.44287
C_ C_ 0.591927 0.195421 0.121689 -0.05681
C_ C_ 0.543367 0.201699 0.134303 -0.08735
C_ C_ 0.539729 0.20139 0.165044 -0.08735
C_ C_ 0.581616 0.187149 0.181418 -0.05681
C_ C_ 0.630792 0.181496 0.16894 -0.05681
C_ C_ 0.633971 0.181082 0.139458 -0.05681
C_ C_ 0.679199 0.170744 0.124969 -0.05681
C_ C_ 0.721846 0.159891 0.141967 -0.08735
C_ C_ 0.717635 0.153867 0.172209 -0.08735
C_ C_ 0.671448 0.164266 0.185829 -0.05681
C_ C_ 0.665318 0.158627 0.216417 0.44287
C_ C_ 0.577338 0.18144 0.211597 0.44287
C_ C_ 0.610583 0.155961 0.257828 0.18498
C_ C_ 0.586782 0.110754 0.264669 -0.08735
C_ C_ 0.566512 0.10049 0.291227 -0.08735
C_ C_ 0.583079 0.130759 0.313834 -0.08735
C_ C_ 0.612531 0.174052 0.309914 0.18498
C_ C_ 0.62422 0.187694 0.280502 -0.05681
C_ C_ 0.652388 0.232179 0.276682 -0.08735
C_ C_ 0.666326 0.260331 0.300179 -0.08735
C_ C_ 0.665645 0.236688 0.327987 0.1947
C_ C_ 0.777891 0.335727 0.154541 0.68181
C_ C_ 0.721807 0.340277 0.151666 -0.05681
C_ C_ 0.689719 0.330354 0.17599 -0.08735
C_ C_ 0.634431 0.331043 0.173663 -0.05681
C_ C_ 0.613557 0.335583 0.145439 -0.05681
C_ C_ 0.645464 0.342957 0.122078 -0.08735
C_ C_ 0.698194 0.349797 0.125101 -0.08735
C_ C_ 0.602485 0.325689 0.197474 -0.08735
C_ C_ 0.549492 0.323139 0.191766 -0.08735
C_ C_ 0.528831 0.325423 0.164679 -0.05681
C_ C_ 0.561429 0.330311 0.141436 -0.08735
C_ C_ 0.873002 0.225326 0.161471 0.68181
C_ C_ 0.874374 0.424332 0.151633 0.68181
C_ C_ 0.873459 0.481126 0.148673 -0.05681
C_ C_ 0.871659 0.00955288 0.167266 -0.08735
C_ C_ 0.876741 0.0636276 0.164413 -0.05681
C_ C_ 0.863248 0.0877432 0.139098 -0.05681
C_ C_ 0.843543 0.0580297 0.116783 -0.08735
C_ C_ 0.883531 0.504314 0.122207 -0.08735
C_ C_ 0.898493 0.0921623 0.187372 -0.08735
C_ C_ 0.892707 0.145329 0.186883 -0.08735
C_ C_ 0.878055 0.170368 0.162765 -0.05681
C_ C_ 0.86476 0.141315 0.137757 -0.08735
C_ C_ 0.972093 0.321182 0.158322 0.68181
C_ C_ 0.903301 0.379115 0.233444 0.1947
C_ C_ 0.906583 0.397124 0.261818 -0.08735
C_ C_ 0.889878 0.36696 0.283356 -0.08735
C_ C_ 0.863495 0.323403 0.278074 -0.05681
C_ C_ 0.852125 0.312076 0.24839 0.18498
C_ C_ 0.822958 0.271819 0.242605 -0.08735
C_ C_ 0.801732 0.24133 0.264069 -0.08735
C_ C_ 0.809158 0.254309 0.293177 -0.08735
C_ C_ 0.840281 0.294587 0.300891 0.18498
C_ C_ 0.807887 0.313296 0.348983 0.44287
C_ C_ 0.895424 0.296062 0.342447 0.44287
C_ C_ 0.905282 0.309851 0.371254 -0.05681
C_ C_ 0.953924 0.314199 0.382927 -0.08735
C_ C_ 0.961927 0.31918 0.412746 -0.08735
C_ C_ 0.919102 0.320683 0.431351 -0.05681
C_ C_ 0.869608 0.322421 0.419562 -0.05681
C_ C_ 0.862846 0.318535 0.390049 -0.05681
C_ C_ 0.813431 0.319399 0.379393 -0.05681
C_ C_ 0.771362 0.31735 0.398147 -0.08735
C_ C_ 0.777837 0.32308 0.427323 -0.08735
C_ C_ 0.828333 0.322552 0.439123 -0.05681
C_ C_ 0.836823 0.326036 0.468683 0.44287
C_ C_ 0.926092 0.317449 0.461138 0.44287
C_ C_ 0.898474 0.343725 0.0125521 0.18498
C_ C_ 0.923673 0.389332 0.0192357 -0.08735
C_ C_ 0.938335 0.40187 0.0467309 -0.08735
C_ C_ 0.921704 0.371893 0.0689514 -0.08735
C_ C_ 0.891519 0.329874 0.0644597 0.18498
C_ C_ 0.879591 0.314677 0.0357283 -0.05681
C_ C_ 0.846824 0.272899 0.0302279 -0.08735
C_ C_ 0.824615 0.249737 0.0541404 -0.08735
C_ C_ 0.83464 0.268255 0.0820632 0.1947
N_ N_ 0.620286 0.172174 0.476573 -0.29468
N_ N_ 0.642296 0.195555 0.0789722 -0.17154
N_ N_ 0.619886 0.169491 0.229292 -0.17154
N_ N_ 0.632535 0.197875 0.332094 -0.29468
N_ N_ 0.86982 0.340893 0.227092 -0.29468
N_ N_ 0.847677 0.30467 0.331355 -0.17154
N_ N_ 0.885947 0.323955 0.4794 -0.17154
N_ N_ 0.868248 0.306225 0.0878797 -0.29468
O_ O_ 0.709578 0.180349 0.432424 -0.58347
O_ O_ 0.698985 0.190852 0.386262 -0.58347
O_ O_ 0.63301 0.253614 0.43007 -0.58347
O_ O_ 0.611703 0.256349 0.384366 -0.58347
O_ O_ 0.633702 0.10486 0.424025 -0.58347
O_ O_ 0.624228 0.110051 0.378064 -0.58347
O_ O_ 0.557692 0.178077 0.423745 -0.58347
O_ O_ 0.55086 0.178416 0.377628 -0.58347
O_ O_ 0.561493 0.232645 0.0779967 -0.46727
O_ O_ 0.730433 0.177886 0.0825361 -0.46727
O_ O_ 0.533952 0.193958 0.223001 -0.46727
O_ O_ 0.703418 0.141443 0.23057 -0.46727
O_ O_ 0.798907 0.332323 0.179162 -0.58347
O_ O_ 0.80201 0.32478 0.13185 -0.58347
O_ O_ 0.873571 0.252279 0.184588 -0.58347
O_ O_ 0.868573 0.249001 0.137956 -0.58347
O_ O_ 0.866733 0.402855 0.175694 -0.58347
O_ O_ 0.883261 0.398688 0.129114 -0.58347
O_ O_ 0.946081 0.332271 0.179542 -0.58347
O_ O_ 0.951044 0.310167 0.135249 -0.58347
O_ O_ 0.932101 0.287641 0.3242 -0.46727
O_ O_ 0.762552 0.323751 0.337611 -0.46727
O_ O_ 0.971355 0.310936 0.471747 -0.46727
O_ O_ 0.80001 0.332205 0.487387 -0.46727
Zn Zn 0.633136 0.18177 0.878869 0.90689
Zn Zn 0.643128 0.179082 0.926369 0.90689
Zn Zn 0.878874 0.307723 0.632755 0.90689
Zn Zn 0.866988 0.314009 0.680562 0.90689
H_ H_ 0.810652 0.186415 0.945596 0.11455
H_ H_ 0.879675 0.175801 0.846738 0.11455
H_ H_ 0.790824 0.177813 0.855637 0.11455
H_ H_ 0.893278 0.1821 0.963362 0.11455
H_ H_ 0.987773 0.181932 0.957129 0.11455
H_ H_ 0.966912 0.182345 0.866754 0.11455
H_ H_ 0.633356 0.010559 0.946817 0.11455
H_ H_ 0.625651 0.438092 0.841937 0.11455
H_ H_ 0.64971 0.0227766 0.853615 0.11455
H_ H_ 0.621748 0.428998 0.959643 0.11455
H_ H_ 0.62044 0.332864 0.954601 0.11455
H_ H_ 0.6279 0.347547 0.860695 0.11455
H_ H_ 0.57958 0.109956 0.961684 0.11455
H_ H_ 0.545124 0.0882162 0.508847 0.11455
H_ H_ 0.57487 0.129689 0.551179 0.11455
H_ H_ 0.685067 0.252215 0.971907 0.11455
H_ H_ 0.723977 0.288282 0.51705 0.11455
H_ H_ 0.707605 0.257576 0.564856 0.11455
H_ H_ 0.506085 0.208458 0.623865 0.11455
H_ H_ 0.494869 0.190191 0.675672 0.11455
H_ H_ 0.7386 0.116998 0.63219 0.11455
H_ H_ 0.732515 0.105023 0.683041 0.11455
H_ H_ 0.568532 0.0714585 0.754069 0.11455
H_ H_ 0.538696 0.0612179 0.802616 0.11455
H_ H_ 0.567505 0.12108 0.839029 0.11455
H_ H_ 0.668095 0.223023 0.753082 0.11455
H_ H_ 0.712746 0.26555 0.792142 0.11455
H_ H_ 0.684082 0.256528 0.841655 0.11455
H_ H_ 0.701048 0.299881 0.694001 0.11455
H_ H_ 0.63075 0.341764 0.59832 0.11455
H_ H_ 0.718732 0.327646 0.603154 0.11455
H_ H_ 0.616908 0.307751 0.715258 0.11455
H_ H_ 0.527424 0.304095 0.70808 0.11455
H_ H_ 0.541319 0.327574 0.618242 0.11455
H_ H_ 0.856425 0.476519 0.691272 0.11455
H_ H_ 0.846868 0.0590196 0.592699 0.11455
H_ H_ 0.889909 0.463471 0.602116 0.11455
H_ H_ 0.845559 0.0610145 0.714162 0.11455
H_ H_ 0.853894 0.150406 0.710777 0.11455
H_ H_ 0.858356 0.143192 0.617213 0.11455
H_ H_ 0.917469 0.387843 0.710197 0.11455
H_ H_ 0.943434 0.421744 0.759617 0.11455
H_ H_ 0.902218 0.388059 0.801512 0.11455
H_ H_ 0.808343 0.254868 0.727777 0.11455
H_ H_ 0.782025 0.205921 0.769878 0.11455
H_ H_ 0.808302 0.23301 0.818575 0.11455
H_ H_ 0.994223 0.302107 0.872569 0.11455
H_ H_ 0.00420226 0.299893 0.925137 0.11455
H_ H_ 0.747006 0.350206 0.89078 0.11455
H_ H_ 0.761244 0.364362 0.941785 0.11455
H_ H_ 0.928664 0.417543 1.00323858 0.11455
H_ H_ 0.939043 0.439116 0.548047 0.11455
H_ H_ 0.927693 0.378476 0.587729 0.11455
H_ H_ 0.85148 0.241234 0.506427 0.11455
H_ H_ 0.813971 0.202231 0.548448 0.11455
H_ H_ 0.829758 0.231861 0.595156 0.11455
C_ C_ 0.734723 0.189269 0.903183 0.68181
C_ C_ 0.790793 0.184873 0.89959 -0.05681
C_ C_ 0.824885 0.184167 0.923514 -0.08735
C_ C_ 0.877724 0.178206 0.919143 -0.05681
C_ C_ 0.898719 0.181475 0.891582 -0.05681
C_ C_ 0.866191 0.180248 0.867943 -0.08735
C_ C_ 0.814756 0.179571 0.872836 -0.08735
C_ C_ 0.910966 0.178073 0.942107 -0.08735
C_ C_ 0.965218 0.176926 0.93847 -0.08735
C_ C_ 0.984598 0.179032 0.910676 -0.05681
C_ C_ 0.951837 0.181066 0.887765 -0.08735
C_ C_ 0.628011 0.278534 0.906585 0.68181
C_ C_ 0.644351 0.0809952 0.90055 0.68181
C_ C_ 0.639185 0.0242515 0.899819 -0.05681
C_ C_ 0.642 0.491558 0.918696 -0.08735
C_ C_ 0.636738 0.438835 0.914625 -0.05681
C_ C_ 0.63393 0.417644 0.887035 -0.05681
C_ C_ 0.633522 0.449646 0.863756 -0.08735
C_ C_ 0.637673 0.502405 0.868576 -0.08735
C_ C_ 0.624337 0.409893 0.938872 -0.08735
C_ C_ 0.620478 0.357862 0.93621 -0.08735
C_ C_ 0.62035 0.33531 0.908471 -0.05681
C_ C_ 0.622724 0.364977 0.882696 -0.08735
C_ C_ 0.541384 0.176934 0.902889 0.68181
C_ C_ 0.602595 0.125624 0.978802 0.1947
C_ C_ 0.57172 0.115786 0.506721 -0.08735
C_ C_ 0.593957 0.13697 0.531303 -0.08735
C_ C_ 0.628145 0.178412 0.528046 -0.05681
C_ C_ 0.642685 0.194222 0.499522 0.18498
C_ C_ 0.674309 0.241004 0.99216 -0.08735
C_ C_ 0.701415 0.253951 0.518703 -0.08735
C_ C_ 0.689197 0.239491 0.546577 -0.08735
C_ C_ 0.651611 0.201391 0.552173 0.18498
C_ C_ 0.678418 0.165496 0.598147 0.44287
C_ C_ 0.595318 0.201115 0.594488 0.44287
C_ C_ 0.585428 0.187601 0.623644 -0.05681
C_ C_ 0.538572 0.19366 0.636418 -0.08735
C_ C_ 0.532187 0.186215 0.666046 -0.08735
C_ C_ 0.573933 0.173048 0.684206 -0.05681
C_ C_ 0.619618 0.158356 0.670235 -0.05681
C_ C_ 0.625347 0.167384 0.640171 -0.05681
C_ C_ 0.670606 0.154721 0.627909 -0.05681
C_ C_ 0.708447 0.132896 0.642838 -0.08735
C_ C_ 0.702624 0.125829 0.672029 -0.08735
C_ C_ 0.659809 0.140197 0.686892 -0.05681
C_ C_ 0.654256 0.136291 0.717005 0.44287
C_ C_ 0.570203 0.169718 0.714542 0.44287
C_ C_ 0.603201 0.143529 0.760149 0.18498
C_ C_ 0.574428 0.101179 0.76931 -0.08735
C_ C_ 0.561324 0.0947464 0.797527 -0.08735
C_ C_ 0.58413 0.123389 0.818569 -0.08735
C_ C_ 0.610412 0.166887 0.811606 0.18498
C_ C_ 0.622569 0.176094 0.781476 -0.05681
C_ C_ 0.654466 0.218231 0.775255 -0.08735
C_ C_ 0.679946 0.2423 0.796654 -0.08735
C_ C_ 0.668755 0.231879 0.825385 0.1947
C_ C_ 0.773823 0.30538 0.651898 0.68181
C_ C_ 0.717465 0.314253 0.648488 -0.05681
C_ C_ 0.686058 0.31049 0.673448 -0.08735
C_ C_ 0.633858 0.314191 0.669609 -0.05681
C_ C_ 0.612455 0.32205 0.642289 -0.05681
C_ C_ 0.646086 0.328158 0.618136 -0.08735
C_ C_ 0.696496 0.321786 0.621165 -0.08735
C_ C_ 0.602039 0.314227 0.693101 -0.08735
C_ C_ 0.549228 0.314848 0.690071 -0.08735
C_ C_ 0.527668 0.314987 0.661979 -0.05681
C_ C_ 0.558732 0.324279 0.638813 -0.08735
C_ C_ 0.868407 0.20781 0.662471 0.68181
C_ C_ 0.861794 0.408152 0.649223 0.68181
C_ C_ 0.865509 0.464933 0.646094 -0.05681
C_ C_ 0.845868 -0.005186000000000024 0.668648 -0.08735
C_ C_ 0.841817 0.0492909 0.666834 -0.05681
C_ C_ 0.846594 0.0719956 0.639452 -0.05681
C_ C_ 0.847462 0.041701 0.614499 -0.08735
C_ C_ 0.873002 0.487533 0.619182 -0.08735
C_ C_ 0.846832 0.0785328 0.691989 -0.08735
C_ C_ 0.856979 0.128511 0.690732 -0.08735
C_ C_ 0.865036 0.15311 0.66353 -0.05681
C_ C_ 0.860733 0.124043 0.637802 -0.08735
C_ C_ 0.971553 0.31041 0.659399 0.68181
C_ C_ 0.903619 0.37121 0.730498 0.1947
C_ C_ 0.919123 0.389186 0.757698 -0.08735
C_ C_ 0.895526 0.369427 0.781998 -0.08735
C_ C_ 0.868449 0.324897 0.779116 -0.05681
C_ C_ 0.853775 0.306185 0.751436 0.18498
C_ C_ 0.822441 0.265517 0.748642 -0.08735
C_ C_ 0.810069 0.238373 0.773429 -0.08735
C_ C_ 0.823156 0.252788 0.801446 -0.08735
C_ C_ 0.84906 0.300366 0.804757 0.18498
C_ C_ 0.818765 0.331879 0.850663 0.44287
C_ C_ 0.90538 0.306873 0.845239 0.44287
C_ C_ 0.912014 0.311252 0.874795 -0.05681
C_ C_ 0.961273 0.308114 0.886492 -0.08735
C_ C_ 0.967712 0.307352 0.916378 -0.08735
C_ C_ 0.926593 0.314324 0.93527 -0.05681
C_ C_ 0.878824 0.320602 0.923414 -0.05681
C_ C_ 0.871213 0.320265 0.893294 -0.05681
C_ C_ 0.822913 0.330713 0.880403 -0.05681
C_ C_ 0.784073 0.342524 0.898832 -0.08735
C_ C_ 0.791772 0.34875 0.928709 -0.08735
C_ C_ 0.837058 0.335932 0.941676 -0.05681
C_ C_ 0.846244 0.341819 0.970858 0.44287
C_ C_ 0.931288 0.313996 0.965668 0.44287
C_ C_ 0.896873 0.337578 0.508823 0.18498
C_ C_ 0.915272 0.385732 0.515096 -0.08735
C_ C_ 0.920875 0.402428 0.544108 -0.08735
C_ C_ 0.90807 0.372343 0.566515 -0.08735
C_ C_ 0.888513 0.3242 0.56149 0.18498
C_ C_ 0.882834 0.3062 0.532371 -0.05681
C_ C_ 0.862451 0.257105 0.528252 -0.08735
C_ C_ 0.843176 0.230734 0.551126 -0.08735
C_ C_ 0.852813 0.247032 0.578768 0.1947
N_ N_ 0.633761 0.166048 0.974416 -0.29468
N_ N_ 0.640498 0.187274 0.582065 -0.17154
N_ N_ 0.610716 0.152635 0.729371 -0.17154
N_ N_ 0.633409 0.194683 0.831589 -0.29468
N_ N_ 0.871517 0.331335 0.727933 -0.29468
N_ N_ 0.859385 0.317838 0.833324 -0.17154
N_ N_ 0.892201 0.330434 0.982487 -0.17154
N_ N_ 0.878333 0.290271 0.583884 -0.29468
O_ O_ 0.718451 0.187743 0.928436 -0.58347
O_ O_ 0.704811 0.190228 0.882092 -0.58347
O_ O_ 0.634677 0.254201 0.929014 -0.58347
O_ O_ 0.627127 0.255716 0.882709 -0.58347
O_ O_ 0.648999 0.104794 0.923988 -0.58347
O_ O_ 0.642388 0.106349 0.876993 -0.58347
O_ O_ 0.568745 0.172441 0.92515 -0.58347
O_ O_ 0.561277 0.172193 0.878951 -0.58347
O_ O_ 0.557147 0.214195 0.577425 -0.46727
O_ O_ 0.721353 0.154856 0.585609 -0.46727
O_ O_ 0.529656 0.182821 0.727403 -0.46727
O_ O_ 0.688791 0.113475 0.732224 -0.46727
O_ O_ 0.795639 0.315589 0.675976 -0.58347
O_ O_ 0.801018 0.301573 0.62955 -0.58347
O_ O_ 0.864512 0.234849 0.685209 -0.58347
O_ O_ 0.878223 0.22994 0.63861 -0.58347
O_ O_ 0.863686 0.389137 0.673127 -0.58347
O_ O_ 0.87025 0.381162 0.628224 -0.58347
O_ O_ 0.942235 0.315081 0.679815 -0.58347
O_ O_ 0.952891 0.310043 0.63473 -0.58347
O_ O_ 0.94327 0.293564 0.829048 -0.46727
O_ O_ 0.771614 0.334059 0.839898 -0.46727
O_ O_ 0.969508 0.28739 0.977162 -0.46727
O_ O_ 0.811016 0.359437 0.987963 -0.46727
Zn Zn 0.618918 0.679311 0.382366 0.90689
Zn Zn 0.628717 0.677895 0.429726 0.90689
Zn Zn 0.873398 0.815752 0.129838 0.90689
Zn Zn 0.860457 0.826223 0.176664 0.90689
H_ H_ 0.797711 0.656184 0.443686 0.11455
H_ H_ 0.864047 0.683102 0.344097 0.11455
H_ H_ 0.770918 0.697157 0.355315 0.11455
H_ H_ 0.881745 0.65323 0.463343 0.11455
H_ H_ 0.972301 0.661491 0.455689 0.11455
H_ H_ 0.954051 0.682713 0.364749 0.11455
H_ H_ 0.591881 0.512197 0.437079 0.11455
H_ H_ 0.578514 0.936525 0.351508 0.11455
H_ H_ 0.675743 0.523017 0.356269 0.11455
H_ H_ 0.656514 0.926297 0.461714 0.11455
H_ H_ 0.659959 0.834416 0.454061 0.11455
H_ H_ 0.581939 0.851553 0.374178 0.11455
H_ H_ 0.581296 0.600877 0.461749 0.11455
H_ H_ 0.591074 0.564531 0.0120628 0.11455
H_ H_ 0.61924 0.613934 0.053646 0.11455
H_ H_ 0.68539 0.740065 0.47658 0.11455
H_ H_ 0.714363 0.805481 0.012405 0.11455
H_ H_ 0.712411 0.76791 0.0612584 0.11455
H_ H_ 0.514769 0.697227 0.11926 0.11455
H_ H_ 0.503824 0.686037 0.170488 0.11455
H_ H_ 0.770987 0.681065 0.140572 0.11455
H_ H_ 0.754087 0.683015 0.193153 0.11455
H_ H_ 0.580701 0.578446 0.248937 0.11455
H_ H_ 0.553161 0.55503 0.294705 0.11455
H_ H_ 0.567266 0.615251 0.337034 0.11455
H_ H_ 0.660977 0.742612 0.260266 0.11455
H_ H_ 0.679171 0.79862 0.300415 0.11455
H_ H_ 0.665025 0.761322 0.349678 0.11455
H_ H_ 0.699077 0.811488 0.197032 0.11455
H_ H_ 0.625344 0.81259 0.0985384 0.11455
H_ H_ 0.716155 0.810966 0.107034 0.11455
H_ H_ 0.608505 0.819659 0.219829 0.11455
H_ H_ 0.519329 0.837429 0.21078 0.11455
H_ H_ 0.539941 0.826205 0.119712 0.11455
H_ H_ 0.875078 0.989432 0.187433 0.11455
H_ H_ 0.89774 0.573364 0.0993658 0.11455
H_ H_ 0.833835 0.982408 0.0988812 0.11455
H_ H_ 0.852754 0.582026 0.214249 0.11455
H_ H_ 0.868709 0.672454 0.210123 0.11455
H_ H_ 0.872498 0.655882 0.119266 0.11455
H_ H_ 0.901573 0.906882 0.212971 0.11455
H_ H_ 0.934302 0.925409 0.261296 0.11455
H_ H_ 0.900223 0.873947 0.303303 0.11455
H_ H_ 0.809203 0.756316 0.221751 0.11455
H_ H_ 0.771294 0.70741 0.260179 0.11455
H_ H_ 0.804044 0.71475 0.308679 0.11455
H_ H_ 0.986644 0.784264 0.369542 0.11455
H_ H_ -3.6000000000036e-05 0.789896 0.420244 0.11455
H_ H_ 0.735804 0.819876 0.385963 0.11455
H_ H_ 0.74875 0.836059 0.438465 0.11455
H_ H_ 0.954297 0.88235 0.496164 0.11455
H_ H_ 0.949489 0.935378 0.0436502 0.11455
H_ H_ 0.929192 0.876912 0.0840207 0.11455
H_ H_ 0.846972 0.75099 0.00514056 0.11455
H_ H_ 0.813805 0.696838 0.0461702 0.11455
H_ H_ 0.827827 0.733217 0.0946207 0.11455
C_ C_ 0.721975 0.684549 0.404494 0.68181
C_ C_ 0.778213 0.681244 0.400796 -0.05681
C_ C_ 0.811687 0.667268 0.423482 -0.08735
C_ C_ 0.864272 0.6647 0.418065 -0.05681
C_ C_ 0.884229 0.672363 0.389647 -0.05681
C_ C_ 0.848479 0.679149 0.366601 -0.08735
C_ C_ 0.795867 0.680769 0.372186 -0.08735
C_ C_ 0.89719 0.655458 0.440945 -0.08735
C_ C_ 0.947748 0.662695 0.437239 -0.08735
C_ C_ 0.969288 0.67466 0.410088 -0.05681
C_ C_ 0.938257 0.673697 0.385818 -0.08735
C_ C_ 0.617278 0.778691 0.412091 0.68181
C_ C_ 0.636253 0.579287 0.39871 0.68181
C_ C_ 0.638032 0.52575 0.398265 -0.05681
C_ C_ 0.643067 0.9955 0.419371 -0.08735
C_ C_ 0.638203 0.941427 0.416818 -0.05681
C_ C_ 0.612889 0.920908 0.393649 -0.05681
C_ C_ 0.593087 0.953458 0.372458 -0.08735
C_ C_ 0.602604 1.00651378 0.372857 -0.08735
C_ C_ 0.648624 0.910679 0.441011 -0.08735
C_ C_ 0.639378 0.857993 0.438849 -0.08735
C_ C_ 0.619365 0.835834 0.412992 -0.05681
C_ C_ 0.603446 0.866881 0.391522 -0.08735
C_ C_ 0.526229 0.675403 0.407496 0.68181
C_ C_ 0.596671 0.621539 0.48005 0.1947
C_ C_ 0.608998 0.599239 0.00882181 -0.08735
C_ C_ 0.620686 0.629287 0.0319712 -0.08735
C_ C_ 0.645586 0.67619 0.0266343 -0.05681
C_ C_ 0.654109 0.692352 0.997757 0.18498
C_ C_ 0.672723 0.733642 0.497173 -0.08735
C_ C_ 0.696558 0.769852 0.0166389 -0.08735
C_ C_ 0.690241 0.749897 0.045183 -0.08735
C_ C_ 0.662728 0.705502 0.0505044 0.18498
C_ C_ 0.697073 0.684679 0.0982843 0.44287
C_ C_ 0.607139 0.696771 0.0925943 0.44287
C_ C_ 0.597724 0.690389 0.121513 -0.05681
C_ C_ 0.54863 0.692194 0.133362 -0.08735
C_ C_ 0.541198 0.685739 0.16313 -0.08735
C_ C_ 0.5832 0.679596 0.181951 -0.05681
C_ C_ 0.632935 0.679215 0.171346 -0.05681
C_ C_ 0.641202 0.687767 0.141066 -0.05681
C_ C_ 0.690377 0.683331 0.128875 -0.05681
C_ C_ 0.731898 0.68267 0.148098 -0.08735
C_ C_ 0.724216 0.675105 0.177428 -0.08735
C_ C_ 0.675588 0.671671 0.189523 -0.05681
C_ C_ 0.6657 0.66275 0.217789 0.44287
C_ C_ 0.576486 0.676578 0.211268 0.44287
C_ C_ 0.608397 0.653761 0.258831 0.18498
C_ C_ 0.586339 0.604963 0.265392 -0.08735
C_ C_ 0.570689 0.592316 0.293014 -0.08735
C_ C_ 0.58313 0.623909 0.316343 -0.08735
C_ C_ 0.606652 0.67067 0.312375 0.18498
C_ C_ 0.619632 0.685697 0.282449 -0.05681
C_ C_ 0.647304 0.731229 0.280512 -0.08735
C_ C_ 0.659989 0.761804 0.304472 -0.08735
C_ C_ 0.646041 0.744273 0.331733 0.1947
C_ C_ 0.770662 0.813938 0.155628 0.68181
C_ C_ 0.714968 0.813218 0.152134 -0.05681
C_ C_ 0.68151 0.814748 0.176147 -0.08735
C_ C_ 0.629078 0.81539 0.1732 -0.05681
C_ C_ 0.60791 0.815289 0.144636 -0.05681
C_ C_ 0.639964 0.812262 0.121428 -0.08735
C_ C_ 0.692458 0.812281 0.125821 -0.08735
C_ C_ 0.598002 0.821814 0.197123 -0.08735
C_ C_ 0.545976 0.830766 0.192933 -0.08735
C_ C_ 0.524134 0.82769 0.165431 -0.05681
C_ C_ 0.555587 0.822593 0.141121 -0.08735
C_ C_ 0.875816 0.72725 0.162404 0.68181
C_ C_ 0.855182 0.919825 0.144993 0.68181
C_ C_ 0.859626 0.978321 0.143635 -0.05681
C_ C_ 0.861487 0.514056 0.173075 -0.08735
C_ C_ 0.869801 0.564944 0.170378 -0.05681
C_ C_ 0.877497 0.587846 0.143153 -0.05681
C_ C_ 0.884355 0.558266 0.119656 -0.08735
C_ C_ 0.845637 1.00473397 0.118102 -0.08735
C_ C_ 0.866622 0.596353 0.194542 -0.08735
C_ C_ 0.871926 0.648346 0.191616 -0.08735
C_ C_ 0.873572 0.672383 0.164675 -0.05681
C_ C_ 0.870314 0.641403 0.140146 -0.08735
C_ C_ 0.965038 0.837118 0.154614 0.68181
C_ C_ 0.886119 0.885597 0.23113 0.1947
C_ C_ 0.904378 0.896408 0.258818 -0.08735
C_ C_ 0.886047 0.866783 0.281854 -0.08735
C_ C_ 0.858334 0.820767 0.27701 -0.05681
C_ C_ 0.8461 0.81036 0.247521 0.18498
C_ C_ 0.817665 0.765915 0.242483 -0.08735
C_ C_ 0.798818 0.734963 0.264388 -0.08735
C_ C_ 0.812552 0.743311 0.29351 -0.08735
C_ C_ 0.840511 0.787486 0.299626 0.18498
C_ C_ 0.811059 0.816716 0.345629 0.44287
C_ C_ 0.896421 0.790509 0.340625 0.44287
C_ C_ 0.905721 0.800033 0.369653 -0.05681
C_ C_ 0.953953 0.797488 0.382873 -0.08735
C_ C_ 0.960251 0.797589 0.413386 -0.08735
C_ C_ 0.918505 0.801967 0.432286 -0.05681
C_ C_ 0.870352 0.809858 0.418813 -0.05681
C_ C_ 0.863748 0.807545 0.388212 -0.05681
C_ C_ 0.814795 0.815231 0.376165 -0.05681
C_ C_ 0.773179 0.820624 0.393542 -0.08735
C_ C_ 0.781175 0.828714 0.424115 -0.08735
C_ C_ 0.827712 0.817234 0.43688 -0.05681
C_ C_ 0.834544 0.823335 0.466385 0.44287
C_ C_ 0.923128 0.801914 0.461779 0.44287
C_ C_ 0.884637 0.844182 0.00619984 0.18498
C_ C_ 0.912722 0.88934 0.0122259 -0.08735
C_ C_ 0.925887 0.904473 0.0400428 -0.08735
C_ C_ 0.913504 0.871187 0.0630017 -0.08735
C_ C_ 0.883961 0.828209 0.0583971 0.18498
C_ C_ 0.872803 0.812467 0.0301162 -0.05681
C_ C_ 0.8524 0.764835 0.0267409 -0.08735
C_ C_ 0.83449 0.734199 0.0491775 -0.08735
C_ C_ 0.836581 0.756173 0.0768133 0.1947
N_ N_ 0.619734 0.667009 0.476754 -0.29468
N_ N_ 0.654742 0.690202 0.0807178 -0.17154
N_ N_ 0.617516 0.667678 0.2287 -0.17154
N_ N_ 0.623029 0.697338 0.335029 -0.29468
N_ N_ 0.863034 0.840828 0.225892 -0.29468
N_ N_ 0.849341 0.797794 0.328683 -0.17154
N_ N_ 0.88231 0.817504 0.478544 -0.17154
N_ N_ 0.866673 0.799568 0.08164 -0.29468
O_ O_ 0.703897 0.683539 0.429041 -0.58347
O_ O_ 0.694429 0.692054 0.38318 -0.58347
O_ O_ 0.619343 0.751545 0.435376 -0.58347
O_ O_ 0.605324 0.756752 0.388748 -0.58347
O_ O_ 0.639116 0.601817 0.422003 -0.58347
O_ O_ 0.63031 0.604612 0.376267 -0.58347
O_ O_ 0.554742 0.669948 0.427525 -0.58347
O_ O_ 0.543456 0.66872 0.382675 -0.58347
O_ O_ 0.569593 0.708303 0.0753688 -0.46727
O_ O_ 0.739434 0.672352 0.086009 -0.46727
O_ O_ 0.530023 0.673939 0.220867 -0.46727
O_ O_ 0.701078 0.643534 0.234098 -0.46727
O_ O_ 0.789816 0.807962 0.180045 -0.58347
O_ O_ 0.797385 0.809477 0.133848 -0.58347
O_ O_ 0.879718 0.753923 0.183794 -0.58347
O_ O_ 0.879154 0.746305 0.137307 -0.58347
O_ O_ 0.84587 0.899137 0.168488 -0.58347
O_ O_ 0.868836 0.892408 0.124145 -0.58347
O_ O_ 0.936553 0.850615 0.174664 -0.58347
O_ O_ 0.945729 0.823955 0.130208 -0.58347
O_ O_ 0.928084 0.764376 0.326216 -0.46727
O_ O_ 0.766205 0.823451 0.33411 -0.46727
O_ O_ 0.96202 0.779524 0.473402 -0.46727
O_ O_ 0.798107 0.843801 0.48069 -0.46727
Zn Zn 0.633239 0.685788 0.88098 0.90689
Zn Zn 0.644356 0.673538 0.92757 0.90689
Zn Zn 0.872114 0.807492 0.63009 0.90689
Zn Zn 0.861534 0.812476 0.678092 0.90689
H_ H_ 0.805214 0.693624 0.948334 0.11455
H_ H_ 0.885554 0.67173 0.851217 0.11455
H_ H_ 0.792458 0.673978 0.855299 0.11455
H_ H_ 0.893786 0.706391 0.969706 0.11455
H_ H_ 0.986043 0.715575 0.958227 0.11455
H_ H_ 0.96513 0.660997 0.874048 0.11455
H_ H_ 0.656342 0.505546 0.940068 0.11455
H_ H_ 0.63187 0.935822 0.846065 0.11455
H_ H_ 0.651597 0.523663 0.849867 0.11455
H_ H_ 0.642445 0.924903 0.966814 0.11455
H_ H_ 0.625417 0.834112 0.962623 0.11455
H_ H_ 0.644727 0.849268 0.871012 0.11455
H_ H_ 0.607512 0.590095 0.963741 0.11455
H_ H_ 0.567892 0.565599 0.510613 0.11455
H_ H_ 0.606177 0.608814 0.552518 0.11455
H_ H_ 0.68232 0.75757 0.97194 0.11455
H_ H_ 0.713459 0.792542 0.51706 0.11455
H_ H_ 0.702831 0.757123 0.566655 0.11455
H_ H_ 0.508958 0.700145 0.620739 0.11455
H_ H_ 0.490388 0.678721 0.671224 0.11455
H_ H_ 0.75672 0.659085 0.639469 0.11455
H_ H_ 0.742898 0.648701 0.692206 0.11455
H_ H_ 0.550051 0.590095 0.750986 0.11455
H_ H_ 0.532315 0.573932 0.803384 0.11455
H_ H_ 0.56716 0.627413 0.839901 0.11455
H_ H_ 0.652089 0.747581 0.755538 0.11455
H_ H_ 0.703874 0.783732 0.796389 0.11455
H_ H_ 0.690607 0.749024 0.845382 0.11455
H_ H_ 0.697848 0.801647 0.694327 0.11455
H_ H_ 0.61926 0.828038 0.597966 0.11455
H_ H_ 0.715139 0.83229 0.60406 0.11455
H_ H_ 0.608047 0.799819 0.714541 0.11455
H_ H_ 0.515983 0.796693 0.707124 0.11455
H_ H_ 0.536179 0.812856 0.614668 0.11455
H_ H_ 0.841756 0.978247 0.690942 0.11455
H_ H_ 0.886527 0.555535 0.59666 0.11455
H_ H_ 0.841377 0.968355 0.597102 0.11455
H_ H_ 0.844474 0.565858 0.714079 0.11455
H_ H_ 0.860097 0.65595 0.707393 0.11455
H_ H_ 0.891261 0.637085 0.618883 0.11455
H_ H_ 0.902021 0.897123 0.711198 0.11455
H_ H_ 0.910215 0.9332 0.761202 0.11455
H_ H_ 0.864681 0.891799 0.800327 0.11455
H_ H_ 0.824416 0.738626 0.723043 0.11455
H_ H_ 0.793408 0.689187 0.762228 0.11455
H_ H_ 0.807332 0.717699 0.811404 0.11455
H_ H_ 0.982229 0.812312 0.870893 0.11455
H_ H_ 0.990762 0.809326 0.921567 0.11455
H_ H_ 0.73504 0.860776 0.884298 0.11455
H_ H_ 0.747385 0.864207 0.935873 0.11455
H_ H_ 0.920442 0.913093 0.993921 0.11455
H_ H_ 0.968421 0.91253 0.544931 0.11455
H_ H_ 0.92645 0.868282 0.586989 0.11455
H_ H_ 0.825742 0.75041 0.508904 0.11455
H_ H_ 0.785072 0.712205 0.550056 0.11455
H_ H_ 0.80716 0.743454 0.595864 0.11455
C_ C_ 0.734614 0.687213 0.903325 0.68181
C_ C_ 0.791635 0.681958 0.902148 -0.05681
C_ C_ 0.822108 0.688134 0.926912 -0.08735
C_ C_ 0.876275 0.689031 0.924708 -0.05681
C_ C_ 0.897997 0.68084 0.896467 -0.05681
C_ C_ 0.867404 0.67549 0.872366 -0.08735
C_ C_ 0.814162 0.676676 0.875311 -0.08735
C_ C_ 0.909251 0.695361 0.948329 -0.08735
C_ C_ 0.961278 0.696838 0.942567 -0.08735
C_ C_ 0.982801 0.682811 0.916347 -0.05681
C_ C_ 0.949553 0.674009 0.89356 -0.08735
C_ C_ 0.632664 0.778605 0.911541 0.68181
C_ C_ 0.645511 0.581915 0.898206 0.68181
C_ C_ 0.640513 0.524276 0.896018 -0.05681
C_ C_ 0.639553 -0.004997999999999947 0.925021 -0.08735
C_ C_ 0.64298 0.941754 0.92187 -0.05681
C_ C_ 0.63656 0.918991 0.894241 -0.05681
C_ C_ 0.637158 0.949673 0.868176 -0.08735
C_ C_ 0.637319 0.00162618 0.872302 -0.08735
C_ C_ 0.642054 0.910816 0.945695 -0.08735
C_ C_ 0.632107 0.857871 0.94332 -0.08735
C_ C_ 0.629301 0.834908 0.915669 -0.05681
C_ C_ 0.633732 0.867197 0.891415 -0.08735
C_ C_ 0.542845 0.67627 0.905638 0.68181
C_ C_ 0.618226 0.614781 0.980752 0.1947
C_ C_ 0.590656 0.60083 0.507579 -0.08735
C_ C_ 0.609477 0.626261 0.530916 -0.08735
C_ C_ 0.631393 0.673116 0.528222 -0.05681
C_ C_ 0.641108 0.692345 0.50031 0.18498
C_ C_ 0.676077 0.741981 0.993143 -0.08735
C_ C_ 0.692105 0.75818 0.520657 -0.08735
C_ C_ 0.681608 0.740362 0.547664 -0.08735
C_ C_ 0.652473 0.697388 0.551743 0.18498
C_ C_ 0.683806 0.670427 0.599065 0.44287
C_ C_ 0.59667 0.68442 0.592217 0.44287
C_ C_ 0.58779 0.682723 0.622315 -0.05681
C_ C_ 0.538072 0.684034 0.633977 -0.08735
C_ C_ 0.529503 0.678722 0.66292 -0.08735
C_ C_ 0.570813 0.675583 0.682372 -0.05681
C_ C_ 0.620494 0.673016 0.670531 -0.05681
C_ C_ 0.628402 0.676002 0.641209 -0.05681
C_ C_ 0.677366 0.668372 0.629969 -0.05681
C_ C_ 0.719485 0.667065 0.648356 -0.08735
C_ C_ 0.712677 0.664925 0.678069 -0.08735
C_ C_ 0.663043 0.66954 0.688438 -0.05681
C_ C_ 0.653948 0.663497 0.718212 0.44287
C_ C_ 0.564472 0.671919 0.711772 0.44287
C_ C_ 0.597685 0.65634 0.758981 0.18498
C_ C_ 0.569177 0.614462 0.7672 -0.08735
C_ C_ 0.561474 0.600772 0.796584 -0.08735
C_ C_ 0.580691 0.631486 0.817583 -0.08735
C_ C_ 0.611924 0.673893 0.811551 0.18498
C_ C_ 0.619911 0.685933 0.782299 -0.05681
C_ C_ 0.652911 0.72733 0.776522 -0.08735
C_ C_ 0.676253 0.753843 0.800166 -0.08735
C_ C_ 0.671145 0.734312 0.827826 0.1947
C_ C_ 0.768896 0.805923 0.65186 0.68181
C_ C_ 0.71243 0.815281 0.649068 -0.05681
C_ C_ 0.681599 0.803629 0.672791 -0.08735
C_ C_ 0.627227 0.803731 0.668969 -0.05681
C_ C_ 0.605769 0.814964 0.642054 -0.05681
C_ C_ 0.637194 0.817781 0.617893 -0.08735
C_ C_ 0.691299 0.819051 0.621719 -0.08735
C_ C_ 0.594035 0.802893 0.69296 -0.08735
C_ C_ 0.540915 0.801338 0.68899 -0.08735
C_ C_ 0.52005 0.810051 0.661328 -0.05681
C_ C_ 0.552838 0.81061 0.637233 -0.08735
C_ C_ 0.872597 0.711691 0.659268 0.68181
C_ C_ 0.856115 0.907583 0.644916 0.68181
C_ C_ 0.849389 0.963151 0.643048 -0.05681
C_ C_ 0.862249 0.495038 0.670934 -0.08735
C_ C_ 0.858782 0.548363 0.66787 -0.05681
C_ C_ 0.866693 0.570596 0.639918 -0.05681
C_ C_ 0.873802 0.539285 0.615495 -0.08735
C_ C_ 0.844052 0.988858 0.616659 -0.08735
C_ C_ 0.853497 0.578123 0.692566 -0.08735
C_ C_ 0.864064 0.630723 0.688742 -0.08735
C_ C_ 0.873733 0.654199 0.662737 -0.05681
C_ C_ 0.876951 0.622127 0.638307 -0.08735
C_ C_ 0.963123 0.816113 0.654121 0.68181
C_ C_ 0.88341 0.878196 0.729427 0.1947
C_ C_ 0.88564 0.900139 0.756185 -0.08735
C_ C_ 0.868768 0.873149 0.780099 -0.08735
C_ C_ 0.850775 0.823634 0.775874 -0.05681
C_ C_ 0.848755 0.80481 0.748138 0.18498
C_ C_ 0.833212 0.752875 0.744442 -0.08735
C_ C_ 0.81123 0.72509 0.767023 -0.08735
C_ C_ 0.813327 0.74558 0.793886 -0.08735
C_ C_ 0.834276 0.793374 0.799558 0.18498
C_ C_ 0.802795 0.818575 0.845807 0.44287
C_ C_ 0.892037 0.799451 0.840486 0.44287
C_ C_ 0.900676 0.80729 0.870763 -0.05681
C_ C_ 0.947547 0.808867 0.883053 -0.08735
C_ C_ 0.954672 0.81104 0.91237 -0.08735
C_ C_ 0.912569 0.818182 0.930232 -0.05681
C_ C_ 0.86246 0.820642 0.918912 -0.05681
C_ C_ 0.857102 0.811721 0.888602 -0.05681
C_ C_ 0.810377 0.827483 0.874662 -0.05681
C_ C_ 0.771641 0.848784 0.892606 -0.08735
C_ C_ 0.777266 0.849868 0.922476 -0.08735
C_ C_ 0.821497 0.833453 0.935852 -0.05681
C_ C_ 0.828187 0.83612 0.966237 0.44287
C_ C_ 0.916572 0.820582 0.960489 0.44287
C_ C_ 0.890583 0.831987 0.508458 0.18498
C_ C_ 0.928496 0.867592 0.513881 -0.08735
C_ C_ 0.938565 0.884154 0.540779 -0.08735
C_ C_ 0.915395 0.86005 0.563945 -0.08735
C_ C_ 0.880221 0.821206 0.559708 0.18498
C_ C_ 0.86367 0.809191 0.531786 -0.05681
C_ C_ 0.829999 0.768497 0.529047 -0.08735
C_ C_ 0.807947 0.746564 0.552269 -0.08735
C_ C_ 0.822021 0.763401 0.578661 0.1947
N_ N_ 0.637141 0.662881 0.975897 -0.29468
N_ N_ 0.644485 0.681251 0.581517 -0.17154
N_ N_ 0.605353 0.666026 0.729123 -0.17154
N_ N_ 0.633544 0.700949 0.832885 -0.29468
N_ N_ 0.860547 0.833605 0.724796 -0.29468
N_ N_ 0.843942 0.805304 0.829258 -0.17154
N_ N_ 0.874833 0.827603 0.977793 -0.17154
N_ N_ 0.860665 0.796811 0.58295 -0.29468
O_ O_ 0.713989 0.692012 0.928152 -0.58347
O_ O_ 0.707477 0.684934 0.881147 -0.58347
O_ O_ 0.628217 0.748856 0.932599 -0.58347
O_ O_ 0.634051 0.759653 0.88716 -0.58347
O_ O_ 0.659511 0.599197 0.921564 -0.58347
O_ O_ 0.632293 0.611178 0.87782 -0.58347
O_ O_ 0.570936 0.659847 0.925153 -0.58347
O_ O_ 0.559674 0.695425 0.882849 -0.58347
O_ O_ 0.55629 0.686206 0.574447 -0.46727
O_ O_ 0.729315 0.662184 0.589273 -0.46727
O_ O_ 0.519625 0.679483 0.723252 -0.46727
O_ O_ 0.692102 0.6564 0.73704 -0.46727
O_ O_ 0.789006 0.798785 0.676509 -0.58347
O_ O_ 0.795435 0.805076 0.629492 -0.58347
O_ O_ 0.874494 0.73872 0.681815 -0.58347
O_ O_ 0.882157 0.731934 0.635178 -0.58347
O_ O_ 0.850315 0.885612 0.668666 -0.58347
O_ O_ 0.866142 0.881084 0.62274 -0.58347
O_ O_ 0.933543 0.825153 0.674113 -0.58347
O_ O_ 0.947043 0.810812 0.629146 -0.58347
O_ O_ 0.930683 0.793191 0.82306 -0.46727
O_ O_ 0.758901 0.823046 0.834947 -0.46727
O_ O_ 0.961983 0.820013 0.972117 -0.46727
O_ O_ 0.788341 0.836303 0.983286 -0.46727
_cell_length_a 26.376
_cell_length_b 26.400000238300095
_cell_length_c 46.67800035477134
_cell_angle_alpha 90.00700052986613
_cell_angle_beta 89.99899961309502
_cell_angle_gamma 90.45000003183146
_symmetry_space_group_name_H-M         'P 1'
_symmetry_Int_Tables_number            1
loop_
_symmetry_equiv_pos_as_xyz
   'x, y, z'
                         
loop_
_atom_site_label
_atom_site_type_symbol
_atom_site_fract_x 
_atom_site_fract_y
_atom_site_fract_z
_atom_site_charge
Zn Zn 0.117691 0.193588 0.381224 0.90689
Zn Zn 0.128313 0.185635 0.428228 0.90689
Zn Zn 0.377907 0.321595 0.134014 0.90689
Zn Zn 0.36646 0.331033 0.182021 0.90689
H_ H_ 0.300909 0.202684 0.442687 0.11455
H_ H_ 0.3616 0.162694 0.347141 0.11455
H_ H_ 0.274947 0.180137 0.353487 0.11455
H_ H_ 0.387817 0.222169 0.458701 0.11455
H_ H_ 0.481158 0.209568 0.451005 0.11455
H_ H_ 0.4492 0.159145 0.363711 0.11455
H_ H_ 0.130241 0.0248883 0.445014 0.11455
H_ H_ 0.125038 0.443922 0.346989 0.11455
H_ H_ 0.154531 0.0346808 0.353261 0.11455
H_ H_ 0.15373 0.433319 0.461965 0.11455
H_ H_ 0.118581 0.342885 0.458845 0.11455
H_ H_ 0.113195 0.358487 0.366876 0.11455
H_ H_ 0.0537223 0.124234 0.459918 0.11455
H_ H_ 0.073901 0.0748334 0.0137908 0.11455
H_ H_ 0.11973 0.120784 0.0541026 0.11455
H_ H_ 0.187772 0.243067 0.471941 0.11455
H_ H_ 0.241279 0.286254 0.00967515 0.11455
H_ H_ 0.205862 0.280349 0.0597853 0.11455
H_ H_ 0.02021 0.191594 0.120059 0.11455
H_ H_ 0.0081029 0.196541 0.172824 0.11455
H_ H_ 0.271625 0.186496 0.140158 0.11455
H_ H_ 0.258687 0.181512 0.19201 0.11455
H_ H_ 0.0676516 0.10147 0.247528 0.11455
H_ H_ 0.0450554 0.0775611 0.296598 0.11455
H_ H_ 0.0747356 0.13104 0.33749 0.11455
H_ H_ 0.164164 0.254135 0.255439 0.11455
H_ H_ 0.187666 0.307153 0.298968 0.11455
H_ H_ 0.158509 0.282664 0.347397 0.11455
H_ H_ 0.200522 0.327773 0.195309 0.11455
H_ H_ 0.132309 0.318713 0.0970959 0.11455
H_ H_ 0.227087 0.318234 0.106097 0.11455
H_ H_ 0.114499 0.333677 0.212786 0.11455
H_ H_ 0.0267576 0.318351 0.206806 0.11455
H_ H_ 0.0441954 0.304866 0.116058 0.11455
H_ H_ 0.352138 0.493176 0.191675 0.11455
H_ H_ 0.368383 0.0738254 0.0974532 0.11455
H_ H_ 0.420621 0.485452 0.109333 0.11455
H_ H_ 0.391419 0.075451 0.215871 0.11455
H_ H_ 0.382301 0.169305 0.214652 0.11455
H_ H_ 0.370879 0.158356 0.120342 0.11455
H_ H_ 0.420963 0.408331 0.219932 0.11455
H_ H_ 0.43129 0.439261 0.27004 0.11455
H_ H_ 0.388323 0.393736 0.31057 0.11455
H_ H_ 0.297251 0.276714 0.224744 0.11455
H_ H_ 0.258433 0.23251 0.261958 0.11455
H_ H_ 0.275867 0.249949 0.311615 0.11455
H_ H_ 0.469317 0.280692 0.376255 0.11455
H_ H_ 0.489979 0.309217 0.421794 0.11455
H_ H_ 0.225558 0.346401 0.391236 0.11455
H_ H_ 0.235393 0.343036 0.442914 0.11455
H_ H_ 0.427456 0.415599 0.502209 0.11455
H_ H_ 0.501138 0.398057 0.0517845 0.11455
H_ H_ 0.440282 0.378844 0.0919775 0.11455
H_ H_ 0.34606 0.260351 0.00615334 0.11455
H_ H_ 0.302611 0.216336 0.0485283 0.11455
H_ H_ 0.317385 0.245868 0.0973502 0.11455
C_ C_ 0.223643 0.190257 0.404392 0.68181
C_ C_ 0.279748 0.192687 0.399209 -0.05681
C_ C_ 0.315022 0.196354 0.421866 -0.08735
C_ C_ 0.367035 0.19281 0.417921 -0.05681
C_ C_ 0.38399 0.178994 0.390399 -0.05681
C_ C_ 0.349434 0.17573 0.367663 -0.08735
C_ C_ 0.297981 0.183069 0.371365 -0.08735
C_ C_ 0.401226 0.201268 0.439563 -0.08735
C_ C_ 0.45477 0.193911 0.434957 -0.08735
C_ C_ 0.471993 0.17499 0.408107 -0.05681
C_ C_ 0.436682 0.167193 0.385254 -0.08735
C_ C_ 0.122331 0.287696 0.410917 0.68181
C_ C_ 0.128842 0.0920065 0.400788 0.68181
C_ C_ 0.135002 0.0348461 0.399039 -0.05681
C_ C_ 0.139301 0.503043 0.421897 -0.08735
C_ C_ 0.131968 0.451066 0.418964 -0.05681
C_ C_ 0.125059 0.428765 0.391683 -0.05681
C_ C_ 0.12205 0.460723 0.368187 -0.08735
C_ C_ 0.122574 0.512878 0.371307 -0.08735
C_ C_ 0.134739 0.418714 0.443027 -0.08735
C_ C_ 0.126073 0.366431 0.440153 -0.08735
C_ C_ 0.119719 0.343634 0.413137 -0.05681
C_ C_ 0.119921 0.374179 0.388168 -0.08735
C_ C_ 0.0261023 0.195831 0.40355 0.68181
C_ C_ 0.0742532 0.141859 0.478299 0.1947
C_ C_ 0.0988851 0.106751 0.0105203 -0.08735
C_ C_ 0.127004 0.128927 0.0325596 -0.08735
C_ C_ 0.154389 0.172948 0.0273866 -0.05681
C_ C_ 0.15998 0.190198 0.997775 0.18498
C_ C_ 0.172605 0.233286 0.493443 -0.08735
C_ C_ 0.212909 0.258464 0.0146549 -0.08735
C_ C_ 0.197145 0.251773 0.0428948 -0.08735
C_ C_ 0.169195 0.206051 0.0505292 0.18498
C_ C_ 0.20001 0.186057 0.0982387 0.44287
C_ C_ 0.111159 0.195052 0.0921199 0.44287
C_ C_ 0.102587 0.188658 0.122207 -0.05681
C_ C_ 0.0537633 0.188962 0.133531 -0.08735
C_ C_ 0.0460146 0.19007 0.163282 -0.08735
C_ C_ 0.0885128 0.193367 0.181849 -0.05681
C_ C_ 0.137059 0.188281 0.17095 -0.05681
C_ C_ 0.144756 0.184685 0.14098 -0.05681
C_ C_ 0.193354 0.184783 0.129084 -0.05681
C_ C_ 0.233728 0.184919 0.148057 -0.08735
C_ C_ 0.226328 0.179315 0.178082 -0.08735
C_ C_ 0.18067 0.181571 0.189458 -0.05681
C_ C_ 0.172086 0.173823 0.21884 0.44287
C_ C_ 0.0846943 0.189346 0.212064 0.44287
C_ C_ 0.113434 0.166343 0.25892 0.18498
C_ C_ 0.081546 0.123962 0.265259 -0.08735
C_ C_ 0.0688796 0.111175 0.29373 -0.08735
C_ C_ 0.0846387 0.140867 0.315691 -0.08735
C_ C_ 0.112501 0.183925 0.310798 0.18498
C_ C_ 0.122715 0.199137 0.281686 -0.05681
C_ C_ 0.153939 0.241644 0.277498 -0.08735
C_ C_ 0.166028 0.272043 0.301388 -0.08735
C_ C_ 0.152223 0.257828 0.329553 0.1947
C_ C_ 0.275296 0.332779 0.155274 0.68181
C_ C_ 0.219913 0.329945 0.150644 -0.05681
C_ C_ 0.186464 0.324479 0.173754 -0.08735
C_ C_ 0.132468 0.326107 0.168247 -0.05681
C_ C_ 0.112389 0.321245 0.140505 -0.05681
C_ C_ 0.14651 0.319911 0.118212 -0.08735
C_ C_ 0.199788 0.318876 0.124066 -0.08735
C_ C_ 0.0997223 0.329238 0.191564 -0.08735
C_ C_ 0.0495654 0.32521 0.187694 -0.08735
C_ C_ 0.0269706 0.318811 0.161235 -0.05681
C_ C_ 0.0602198 0.314765 0.13712 -0.08735
C_ C_ 0.366992 0.227328 0.165566 0.68181
C_ C_ 0.375378 0.427144 0.152645 0.68181
C_ C_ 0.382939 0.483202 0.150274 -0.05681
C_ C_ 0.373062 0.0117311 0.173098 -0.08735
C_ C_ 0.371126 0.064151 0.171346 -0.05681
C_ C_ 0.369462 0.0875047 0.14437 -0.05681
C_ C_ 0.369315 0.0564016 0.118797 -0.08735
C_ C_ 0.400624 0.507462 0.125833 -0.08735
C_ C_ 0.376794 0.09334 0.197506 -0.08735
C_ C_ 0.374045 0.146597 0.195455 -0.08735
C_ C_ 0.371799 0.170533 0.167451 -0.05681
C_ C_ 0.371531 0.141694 0.141656 -0.08735
C_ C_ 0.471369 0.3282 0.16114 0.68181
C_ C_ 0.40058 0.3892 0.236985 0.1947
C_ C_ 0.409092 0.406591 0.264709 -0.08735
C_ C_ 0.387648 0.379744 0.287955 -0.08735
C_ C_ 0.356743 0.336538 0.281829 -0.05681
C_ C_ 0.348248 0.322019 0.25275 0.18498
C_ C_ 0.311663 0.285691 0.24646 -0.08735
C_ C_ 0.288097 0.257871 0.268631 -0.08735
C_ C_ 0.300597 0.267903 0.296058 -0.08735
C_ C_ 0.332344 0.308342 0.30434 0.18498
C_ C_ 0.298673 0.33011 0.351335 0.44287
C_ C_ 0.384731 0.305521 0.345281 0.44287
C_ C_ 0.390582 0.306731 0.375704 -0.05681
C_ C_ 0.437253 0.29833 0.388196 -0.08735
C_ C_ 0.448546 0.313646 0.415351 -0.08735
C_ C_ 0.406633 0.321734 0.43432 -0.05681
C_ C_ 0.358661 0.329695 0.422562 -0.05681
C_ C_ 0.351726 0.324807 0.392339 -0.05681
C_ C_ 0.302714 0.330239 0.380426 -0.05681
C_ C_ 0.260845 0.337255 0.399397 -0.08735
C_ C_ 0.267107 0.339317 0.429327 -0.08735
C_ C_ 0.317151 0.338727 0.439834 -0.05681
C_ C_ 0.325961 0.343866 0.470107 0.44287
C_ C_ 0.412304 0.322632 0.463963 0.44287
C_ C_ 0.41256 0.338077 0.0107412 0.18498
C_ C_ 0.4513 0.370075 0.0185582 -0.08735
C_ C_ 0.463051 0.379874 0.0472349 -0.08735
C_ C_ 0.430792 0.36659 0.0693113 -0.08735
C_ C_ 0.393273 0.328411 0.0629355 0.18498
C_ C_ 0.385955 0.312759 0.0343246 -0.05681
C_ C_ 0.351749 0.273036 0.028773 -0.08735
C_ C_ 0.327881 0.248587 0.051555 -0.08735
C_ C_ 0.337081 0.262816 0.0803883 0.1947
N_ N_ 0.114427 0.172114 0.474506 -0.29468
N_ N_ 0.160757 0.194265 0.0805414 -0.17154
N_ N_ 0.12363 0.180807 0.229722 -0.17154
N_ N_ 0.129622 0.211246 0.334087 -0.29468
N_ N_ 0.369648 0.347684 0.230961 -0.29468
N_ N_ 0.339958 0.318694 0.334029 -0.17154
N_ N_ 0.374528 0.338458 0.481347 -0.17154
N_ N_ 0.367525 0.303828 0.0848675 -0.29468
O_ O_ 0.206303 0.176828 0.428554 -0.58347
O_ O_ 0.192225 0.203549 0.383905 -0.58347
O_ O_ 0.133269 0.260922 0.431909 -0.58347
O_ O_ 0.108516 0.266754 0.387718 -0.58347
O_ O_ 0.119759 0.11255 0.42474 -0.58347
O_ O_ 0.129295 0.117647 0.377804 -0.58347
O_ O_ 0.0564814 0.201489 0.424054 -0.58347
O_ O_ 0.0426894 0.180741 0.379847 -0.58347
O_ O_ 0.0747181 0.206777 0.0749639 -0.46727
O_ O_ 0.24475 0.175168 0.0876663 -0.46727
O_ O_ 0.0395472 0.193334 0.222619 -0.46727
O_ O_ 0.208201 0.15916 0.236784 -0.46727
O_ O_ 0.294641 0.330652 0.18005 -0.58347
O_ O_ 0.301734 0.324273 0.133235 -0.58347
O_ O_ 0.369381 0.25352 0.187837 -0.58347
O_ O_ 0.367781 0.24927 0.14073 -0.58347
O_ O_ 0.361612 0.407924 0.176093 -0.58347
O_ O_ 0.385403 0.397836 0.13162 -0.58347
O_ O_ 0.442916 0.335333 0.182306 -0.58347
O_ O_ 0.452298 0.316433 0.137285 -0.58347
O_ O_ 0.418137 0.279588 0.329204 -0.46727
O_ O_ 0.253483 0.335467 0.33983 -0.46727
O_ O_ 0.457666 0.316352 0.474631 -0.46727
O_ O_ 0.287996 0.349187 0.487808 -0.46727
Zn Zn 0.134385 0.186204 0.880234 0.90689
Zn Zn 0.146365 0.175625 0.928469 0.90689
Zn Zn 0.380252 0.309132 0.634604 0.90689
Zn Zn 0.368097 0.312293 0.681923 0.90689
H_ H_ 0.312332 0.220942 0.935027 0.11455
H_ H_ 0.376161 0.140239 0.847636 0.11455
H_ H_ 0.285553 0.157444 0.851951 0.11455
H_ H_ 0.404382 0.204863 0.957543 0.11455
H_ H_ 0.487862 0.198186 0.950173 0.11455
H_ H_ 0.466618 0.163811 0.86124 0.11455
H_ H_ 0.136776 0.0131979 0.943195 0.11455
H_ H_ 0.166633 0.434595 0.846639 0.11455
H_ H_ 0.139604 0.0228089 0.850743 0.11455
H_ H_ 0.117615 0.42701 0.962355 0.11455
H_ H_ 0.114002 0.335382 0.956559 0.11455
H_ H_ 0.149047 0.35159 0.867677 0.11455
H_ H_ 0.0997466 0.0962309 0.964115 0.11455
H_ H_ 0.030954 0.0972787 0.507966 0.11455
H_ H_ 0.0780056 0.127647 0.54988 0.11455
H_ H_ 0.201446 0.244162 0.970494 0.11455
H_ H_ 0.225076 0.286557 0.51115 0.11455
H_ H_ 0.204225 0.263548 0.562005 0.11455
H_ H_ 0.0112625 0.206162 0.625699 0.11455
H_ H_ 0.00809051 0.202982 0.67815 0.11455
H_ H_ 0.258371 0.148232 0.630126 0.11455
H_ H_ 0.258888 0.153077 0.681212 0.11455
H_ H_ 0.100827 0.0828698 0.744381 0.11455
H_ H_ 0.0798388 0.0513773 0.795331 0.11455
H_ H_ 0.089891 0.108372 0.835315 0.11455
H_ H_ 0.155588 0.250213 0.754685 0.11455
H_ H_ 0.169686 0.308945 0.794868 0.11455
H_ H_ 0.170442 0.272676 0.844646 0.11455
H_ H_ 0.201627 0.295121 0.696373 0.11455
H_ H_ 0.134956 0.326736 0.598142 0.11455
H_ H_ 0.226846 0.327211 0.607495 0.11455
H_ H_ 0.117626 0.3215 0.714089 0.11455
H_ H_ 0.0276074 0.317756 0.709731 0.11455
H_ H_ 0.0459005 0.314163 0.615577 0.11455
H_ H_ 0.356797 0.480693 0.693273 0.11455
H_ H_ 0.362447 0.059515 0.592923 0.11455
H_ H_ 0.384897 0.467421 0.6014 0.11455
H_ H_ 0.382861 0.0533126 0.710967 0.11455
H_ H_ 0.39168 0.146417 0.710544 0.11455
H_ H_ 0.363407 0.140774 0.617986 0.11455
H_ H_ 0.430486 0.380477 0.715795 0.11455
H_ H_ 0.456732 0.40153 0.764681 0.11455
H_ H_ 0.406417 0.370251 0.805635 0.11455
H_ H_ 0.312301 0.252224 0.725555 0.11455
H_ H_ 0.260916 0.215453 0.764724 0.11455
H_ H_ 0.282344 0.235382 0.815987 0.11455
H_ H_ 0.49019 0.280588 0.869238 0.11455
H_ H_ 0.506302 0.303009 0.917027 0.11455
H_ H_ 0.242873 0.341977 0.895903 0.11455
H_ H_ 0.259947 0.343074 0.945979 0.11455
H_ H_ 0.475173 0.387102 0.00143601 0.11455
H_ H_ 0.448597 0.4374 0.552717 0.11455
H_ H_ 0.430091 0.376774 0.588564 0.11455
H_ H_ 0.323134 0.264338 0.509052 0.11455
H_ H_ 0.307302 0.203409 0.549009 0.11455
H_ H_ 0.3302 0.22766 0.597874 0.11455
C_ C_ 0.238744 0.189269 0.900733 0.68181
C_ C_ 0.2921 0.187976 0.895547 -0.05681
C_ C_ 0.325633 0.200619 0.916624 -0.08735
C_ C_ 0.378847 0.191999 0.914013 -0.05681
C_ C_ 0.397649 0.175097 0.887 -0.05681
C_ C_ 0.363756 0.15853 0.866319 -0.08735
C_ C_ 0.312595 0.168372 0.86939 -0.08735
C_ C_ 0.413727 0.198562 0.935976 -0.08735
C_ C_ 0.464119 0.186696 0.932099 -0.08735
C_ C_ 0.484503 0.179409 0.905474 -0.05681
C_ C_ 0.451309 0.17119 0.882754 -0.08735
C_ C_ 0.128966 0.278314 0.909025 0.68181
C_ C_ 0.143695 0.0799235 0.899493 0.68181
C_ C_ 0.133882 0.02426 0.897535 -0.05681
C_ C_ 0.128134 0.493739 0.921143 -0.08735
C_ C_ 0.131975 0.440534 0.918736 -0.05681
C_ C_ 0.147713 0.418748 0.892785 -0.05681
C_ C_ 0.15262 0.448241 0.868195 -0.08735
C_ C_ 0.148593 0.501286 0.871712 -0.08735
C_ C_ 0.125944 0.409902 0.94194 -0.08735
C_ C_ 0.122292 0.356845 0.93747 -0.08735
C_ C_ 0.130215 0.334012 0.911608 -0.05681
C_ C_ 0.144041 0.366757 0.889137 -0.08735
C_ C_ 0.0422322 0.175633 0.905322 0.68181
C_ C_ 0.112682 0.118693 0.982316 0.1947
C_ C_ 0.0647701 0.122576 0.505879 -0.08735
C_ C_ 0.0873528 0.144045 0.529482 -0.08735
C_ C_ 0.123975 0.181502 0.526436 -0.05681
C_ C_ 0.136634 0.195506 0.497268 0.18498
C_ C_ 0.192615 0.229984 0.991656 -0.08735
C_ C_ 0.201521 0.255074 0.515417 -0.08735
C_ C_ 0.183328 0.248951 0.543576 -0.08735
C_ C_ 0.145137 0.208822 0.549536 0.18498
C_ C_ 0.178484 0.170428 0.592475 0.44287
C_ C_ 0.0930583 0.197435 0.59274 0.44287
C_ C_ 0.089919 0.192384 0.622226 -0.05681
C_ C_ 0.0446786 0.191916 0.636813 -0.08735
C_ C_ 0.0418179 0.191474 0.666633 -0.08735
C_ C_ 0.0855404 0.183509 0.682029 -0.05681
C_ C_ 0.13218 0.181139 0.668124 -0.05681
C_ C_ 0.134339 0.180187 0.637465 -0.05681
C_ C_ 0.178261 0.170414 0.623084 -0.05681
C_ C_ 0.22123 0.158614 0.639433 -0.08735
C_ C_ 0.221622 0.164381 0.669589 -0.08735
C_ C_ 0.176697 0.171283 0.684667 -0.05681
C_ C_ 0.172698 0.167095 0.714435 0.44287
C_ C_ 0.084235 0.176731 0.712692 0.44287
C_ C_ 0.123889 0.153814 0.757358 0.18498
C_ C_ 0.1079 0.104262 0.763481 -0.08735
C_ C_ 0.0918242 0.0907448 0.791044 -0.08735
C_ C_ 0.09876 0.123763 0.814057 -0.08735
C_ C_ 0.122606 0.170594 0.808908 0.18498
C_ C_ 0.12915 0.18847 0.780338 -0.05681
C_ C_ 0.146156 0.238486 0.775723 -0.08735
C_ C_ 0.159097 0.269596 0.798788 -0.08735
C_ C_ 0.151526 0.252534 0.827149 0.1947
C_ C_ 0.276437 0.305085 0.657695 0.68181
C_ C_ 0.220783 0.305371 0.652547 -0.05681
C_ C_ 0.1864 0.301399 0.674816 -0.08735
C_ C_ 0.132591 0.303859 0.670335 -0.05681
C_ C_ 0.115281 0.308878 0.642186 -0.05681
C_ C_ 0.149685 0.320535 0.620246 -0.08735
C_ C_ 0.200601 0.31633 0.624808 -0.08735
C_ C_ 0.100735 0.316484 0.693489 -0.08735
C_ C_ 0.0486845 0.31445 0.690606 -0.08735
C_ C_ 0.027227 0.311983 0.662224 -0.05681
C_ C_ 0.0611183 0.310976 0.63753 -0.08735
C_ C_ 0.372291 0.210435 0.662126 0.68181
C_ C_ 0.366731 0.409745 0.650031 0.68181
C_ C_ 0.371572 0.46631 0.648312 -0.05681
C_ C_ 0.357865 -0.0038839999999999986 0.667082 -0.08735
C_ C_ 0.369221 0.0466021 0.666304 -0.05681
C_ C_ 0.36962 0.0708006 0.638358 -0.05681
C_ C_ 0.364355 0.0411341 0.613299 -0.08735
C_ C_ 0.384317 0.489261 0.621353 -0.08735
C_ C_ 0.376803 0.074739 0.691617 -0.08735
C_ C_ 0.387611 0.126049 0.689704 -0.08735
C_ C_ 0.377178 0.152754 0.663822 -0.05681
C_ C_ 0.370597 0.123092 0.63834 -0.08735
C_ C_ 0.471656 0.30786 0.65779 0.68181
C_ C_ 0.408498 0.36892 0.734418 0.1947
C_ C_ 0.422258 0.383106 0.762213 -0.08735
C_ C_ 0.396042 0.361857 0.785305 -0.08735
C_ C_ 0.358834 0.323847 0.780699 -0.05681
C_ C_ 0.349171 0.307466 0.75145 0.18498
C_ C_ 0.314092 0.270079 0.746596 -0.08735
C_ C_ 0.286185 0.24617 0.769029 -0.08735
C_ C_ 0.295638 0.259705 0.797732 -0.08735
C_ C_ 0.331769 0.298661 0.804038 0.18498
C_ C_ 0.311195 0.321037 0.853285 0.44287
C_ C_ 0.392675 0.292437 0.845188 0.44287
C_ C_ 0.407625 0.305095 0.872789 -0.05681
C_ C_ 0.456418 0.297065 0.88261 -0.08735
C_ C_ 0.469752 0.307618 0.910456 -0.08735
C_ C_ 0.431756 0.322613 0.931361 -0.05681
C_ C_ 0.380083 0.327659 0.921227 -0.05681
C_ C_ 0.370117 0.319757 0.891304 -0.05681
C_ C_ 0.32062 0.326737 0.882159 -0.05681
C_ C_ 0.280599 0.328898 0.903095 -0.08735
C_ C_ 0.291895 0.336439 0.931826 -0.08735
C_ C_ 0.341138 0.335637 0.941596 -0.05681
C_ C_ 0.353528 0.341413 0.970332 0.44287
C_ C_ 0.440219 0.317083 0.961455 0.44287
C_ C_ 0.384126 0.349112 0.510633 0.18498
C_ C_ 0.410827 0.392295 0.518079 -0.08735
C_ C_ 0.427485 0.403127 0.546928 -0.08735
C_ C_ 0.41452 0.369318 0.568418 -0.08735
C_ C_ 0.388629 0.323715 0.562824 0.18498
C_ C_ 0.3736 0.314436 0.534121 -0.05681
C_ C_ 0.340699 0.271404 0.529858 -0.08735
C_ C_ 0.332629 0.236456 0.552407 -0.08735
C_ C_ 0.345085 0.249402 0.579965 0.1947
N_ N_ 0.140157 0.159988 0.976347 -0.29468
N_ N_ 0.138527 0.192032 0.578502 -0.17154
N_ N_ 0.126286 0.169239 0.728033 -0.17154
N_ N_ 0.136503 0.203054 0.831354 -0.29468
N_ N_ 0.37374 0.33033 0.729228 -0.29468
N_ N_ 0.346494 0.303798 0.834814 -0.17154
N_ N_ 0.401428 0.331057 0.979909 -0.17154
N_ N_ 0.37057 0.292613 0.584947 -0.29468
O_ O_ 0.222856 0.181876 0.925836 -0.58347
O_ O_ 0.209701 0.197202 0.880829 -0.58347
O_ O_ 0.13971 0.252081 0.93095 -0.58347
O_ O_ 0.115772 0.260131 0.885998 -0.58347
O_ O_ 0.149913 0.100396 0.92323 -0.58347
O_ O_ 0.143909 0.106731 0.876773 -0.58347
O_ O_ 0.0725637 0.173407 0.927967 -0.58347
O_ O_ 0.0592699 0.168644 0.880866 -0.58347
O_ O_ 0.0529555 0.213295 0.57767 -0.46727
O_ O_ 0.223164 0.165074 0.579694 -0.46727
O_ O_ 0.0413477 0.171905 0.726938 -0.46727
O_ O_ 0.214416 0.153304 0.728378 -0.46727
O_ O_ 0.294869 0.318257 0.682013 -0.58347
O_ O_ 0.306629 0.295658 0.637914 -0.58347
O_ O_ 0.366059 0.234504 0.684988 -0.58347
O_ O_ 0.390042 0.234845 0.641137 -0.58347
O_ O_ 0.375311 0.38814 0.673889 -0.58347
O_ O_ 0.366101 0.384687 0.626299 -0.58347
O_ O_ 0.442834 0.307266 0.679474 -0.58347
O_ O_ 0.452584 0.317878 0.633325 -0.58347
O_ O_ 0.426133 0.274974 0.827812 -0.46727
O_ O_ 0.271551 0.34583 0.842209 -0.46727
O_ O_ 0.483484 0.300455 0.971902 -0.46727
O_ O_ 0.319886 0.361262 0.988127 -0.46727
Zn Zn 0.116154 0.692719 0.384225 0.90689
Zn Zn 0.129503 0.686818 0.431966 0.90689
Zn Zn 0.378586 0.820627 0.135935 0.90689
Zn Zn 0.363717 0.824932 0.181908 0.90689
H_ H_ 0.296471 0.679799 0.44896 0.11455
H_ H_ 0.365879 0.672694 0.350096 0.11455
H_ H_ 0.271695 0.6756 0.359485 0.11455
H_ H_ 0.385872 0.675203 0.467304 0.11455
H_ H_ 0.47925 0.669583 0.459196 0.11455
H_ H_ 0.455392 0.682582 0.368204 0.11455
H_ H_ 0.144508 0.518332 0.443162 0.11455
H_ H_ 0.165094 0.939927 0.351406 0.11455
H_ H_ 0.117695 0.537522 0.352517 0.11455
H_ H_ 0.109627 0.939845 0.467875 0.11455
H_ H_ 0.109955 0.849509 0.463556 0.11455
H_ H_ 0.128582 0.857029 0.371707 0.11455
H_ H_ 0.0736434 0.613801 0.464867 0.11455
H_ H_ 0.0944276 0.573263 0.0222173 0.11455
H_ H_ 0.106811 0.635805 0.0595044 0.11455
H_ H_ 0.188951 0.751462 0.476743 0.11455
H_ H_ 0.234332 0.797144 0.0146381 0.11455
H_ H_ 0.195896 0.798501 0.0615557 0.11455
H_ H_ 0.0085713 0.722367 0.123996 0.11455
H_ H_ -0.004469999999999974 0.709562 0.174283 0.11455
H_ H_ 0.26136 0.688761 0.141142 0.11455
H_ H_ 0.24942 0.678834 0.192179 0.11455
H_ H_ 0.0481198 0.607305 0.247786 0.11455
H_ H_ 0.0279739 0.581684 0.296553 0.11455
H_ H_ 0.0555263 0.631825 0.337259 0.11455
H_ H_ 0.165316 0.751952 0.263938 0.11455
H_ H_ 0.194754 0.798579 0.305769 0.11455
H_ H_ 0.181815 0.754263 0.35106 0.11455
H_ H_ 0.187655 0.803533 0.196775 0.11455
H_ H_ 0.132093 0.858479 0.101823 0.11455
H_ H_ 0.220038 0.827097 0.107425 0.11455
H_ H_ 0.102154 0.831557 0.215116 0.11455
H_ H_ 0.0097658 0.839123 0.205214 0.11455
H_ H_ 0.0466073 0.828292 0.115274 0.11455
H_ H_ 0.371003 0.994918 0.193239 0.11455
H_ H_ 0.412756 0.57575 0.104477 0.11455
H_ H_ 0.36926 0.980286 0.101275 0.11455
H_ H_ 0.362065 0.573452 0.219749 0.11455
H_ H_ 0.382609 0.664791 0.218279 0.11455
H_ H_ 0.410321 0.658157 0.128317 0.11455
H_ H_ 0.410745 0.900263 0.217833 0.11455
H_ H_ 0.402229 0.945126 0.261623 0.11455
H_ H_ 0.366477 0.906014 0.30455 0.11455
H_ H_ 0.310715 0.74984 0.22714 0.11455
H_ H_ 0.2931 0.698346 0.268787 0.11455
H_ H_ 0.296685 0.733934 0.317817 0.11455
H_ H_ 0.485231 0.817073 0.374324 0.11455
H_ H_ 0.493158 0.814996 0.426885 0.11455
H_ H_ 0.229209 0.828133 0.391068 0.11455
H_ H_ 0.238615 0.829034 0.444747 0.11455
H_ H_ 0.429303 0.900774 0.501346 0.11455
H_ H_ 0.450772 0.947866 0.0512426 0.11455
H_ H_ 0.434695 0.888917 0.0894434 0.11455
H_ H_ 0.374628 0.748179 0.0123185 0.11455
H_ H_ 0.333878 0.705372 0.0487955 0.11455
H_ H_ 0.330907 0.741841 0.099836 0.11455
C_ C_ 0.22427 0.689891 0.410596 0.68181
C_ C_ 0.280654 0.686197 0.404836 -0.05681
C_ C_ 0.313677 0.679643 0.427503 -0.08735
C_ C_ 0.367696 0.676565 0.422823 -0.05681
C_ C_ 0.386119 0.678642 0.394204 -0.05681
C_ C_ 0.353424 0.675038 0.371502 -0.08735
C_ C_ 0.300274 0.678648 0.376479 -0.08735
C_ C_ 0.400476 0.674148 0.445709 -0.08735
C_ C_ 0.452013 0.675144 0.44064 -0.08735
C_ C_ 0.471612 0.679246 0.412837 -0.05681
C_ C_ 0.438236 0.678947 0.389502 -0.08735
C_ C_ 0.121252 0.789769 0.413727 0.68181
C_ C_ 0.133334 0.592819 0.401264 0.68181
C_ C_ 0.132686 0.535516 0.397754 -0.05681
C_ C_ 0.126639 1.0056553 0.424317 -0.08735
C_ C_ 0.124402 0.952194 0.422077 -0.05681
C_ C_ 0.131309 0.928831 0.394516 -0.05681
C_ C_ 0.147756 0.957301 0.370226 -0.08735
C_ C_ 0.145811 1.0114756 0.372262 -0.08735
C_ C_ 0.111997 0.921944 0.446364 -0.08735
C_ C_ 0.116879 0.869678 0.443058 -0.08735
C_ C_ 0.120551 0.846265 0.416221 -0.05681
C_ C_ 0.124503 0.875985 0.392014 -0.08735
C_ C_ 0.0231435 0.684148 0.407352 0.68181
C_ C_ 0.0931063 0.63094 0.483772 0.1947
C_ C_ 0.106692 0.610226 0.0166101 -0.08735
C_ C_ 0.116558 0.645522 0.0377351 -0.08735
C_ C_ 0.139555 0.692595 0.0307585 -0.05681
C_ C_ 0.153738 0.700551 1.00188684 0.18498
C_ C_ 0.17884 0.739051 0.499158 -0.08735
C_ C_ 0.200239 0.775467 0.016905 -0.08735
C_ C_ 0.185631 0.769137 0.0453789 -0.08735
C_ C_ 0.156729 0.726391 0.0532479 0.18498
C_ C_ 0.19007 0.707131 0.100663 0.44287
C_ C_ 0.101721 0.722227 0.095052 0.44287
C_ C_ 0.0914055 0.712435 0.125125 -0.05681
C_ C_ 0.0418232 0.713279 0.136696 -0.08735
C_ C_ 0.0350559 0.709221 0.166702 -0.08735
C_ C_ 0.0780643 0.704737 0.185027 -0.05681
C_ C_ 0.128103 0.700988 0.173393 -0.05681
C_ C_ 0.134355 0.705274 0.142816 -0.05681
C_ C_ 0.183013 0.699937 0.131408 -0.05681
C_ C_ 0.222949 0.686645 0.149957 -0.08735
C_ C_ 0.216137 0.685637 0.179989 -0.08735
C_ C_ 0.168561 0.687891 0.191468 -0.05681
C_ C_ 0.159446 0.684287 0.220743 0.44287
C_ C_ 0.0703023 0.698401 0.214752 0.44287
C_ C_ 0.101397 0.669822 0.261513 0.18498
C_ C_ 0.0671563 0.628241 0.265845 -0.08735
C_ C_ 0.0537167 0.615791 0.29352 -0.08735
C_ C_ 0.072824 0.643045 0.317515 -0.08735
C_ C_ 0.105843 0.683193 0.314282 0.18498
C_ C_ 0.119453 0.696613 0.286061 -0.05681
C_ C_ 0.149118 0.741818 0.283395 -0.08735
C_ C_ 0.168098 0.766208 0.308284 -0.08735
C_ C_ 0.15619 0.746187 0.334555 0.1947
C_ C_ 0.270145 0.813913 0.158146 0.68181
C_ C_ 0.21399 0.826068 0.153782 -0.05681
C_ C_ 0.176713 0.821033 0.176655 -0.08735
C_ C_ 0.125879 0.83125 0.17134 -0.05681
C_ C_ 0.108764 0.836823 0.143125 -0.05681
C_ C_ 0.143785 0.839955 0.120759 -0.08735
C_ C_ 0.194097 0.82941 0.12496 -0.08735
C_ C_ 0.0906787 0.831601 0.19349 -0.08735
C_ C_ 0.0373941 0.83521 0.186736 -0.08735
C_ C_ 0.0209471 0.836723 0.158972 -0.05681
C_ C_ 0.0566406 0.832133 0.136908 -0.08735
C_ C_ 0.376574 0.727986 0.169241 0.68181
C_ C_ 0.367854 0.924387 0.151808 0.68181
C_ C_ 0.370444 0.9806 0.148581 -0.05681
C_ C_ 0.371582 0.51305 0.174293 -0.08735
C_ C_ 0.376719 0.565591 0.173127 -0.05681
C_ C_ 0.388356 0.589035 0.14753 -0.05681
C_ C_ 0.401343 0.559502 0.124383 -0.08735
C_ C_ 0.36864 0.00319998 0.121441 -0.08735
C_ C_ 0.369466 0.5939 0.199371 -0.08735
C_ C_ 0.371924 0.64481 0.197557 -0.08735
C_ C_ 0.38111 0.671461 0.171183 -0.05681
C_ C_ 0.39014 0.641638 0.146399 -0.08735
C_ C_ 0.469619 0.824516 0.161759 0.68181
C_ C_ 0.388354 0.883346 0.23439 0.1947
C_ C_ 0.388399 0.905951 0.260864 -0.08735
C_ C_ 0.36198 0.885233 0.284426 -0.08735
C_ C_ 0.34318 0.836004 0.281592 -0.05681
C_ C_ 0.341094 0.814299 0.253546 0.18498
C_ C_ 0.31201 0.76768 0.248933 -0.08735
C_ C_ 0.302134 0.738547 0.273195 -0.08735
C_ C_ 0.311511 0.756678 0.30139 -0.08735
C_ C_ 0.333221 0.80437 0.306324 0.18498
C_ C_ 0.303646 0.82628 0.35223 0.44287
C_ C_ 0.392829 0.821653 0.345592 0.44287
C_ C_ 0.401396 0.821696 0.375545 -0.05681
C_ C_ 0.451826 0.818347 0.388572 -0.08735
C_ C_ 0.455547 0.813397 0.418062 -0.08735
C_ C_ 0.412431 0.813565 0.435824 -0.05681
C_ C_ 0.363779 0.816172 0.423543 -0.05681
C_ C_ 0.357995 0.823555 0.393625 -0.05681
C_ C_ 0.309449 0.822596 0.382021 -0.05681
C_ C_ 0.266929 0.826294 0.399816 -0.08735
C_ C_ 0.27115 0.823075 0.42997 -0.08735
C_ C_ 0.320773 0.82154 0.442139 -0.05681
C_ C_ 0.329369 0.831965 0.471133 0.44287
C_ C_ 0.413542 0.810039 0.465954 0.44287
C_ C_ 0.401718 0.848987 0.0113769 0.18498
C_ C_ 0.422213 0.897146 0.0176732 -0.08735
C_ C_ 0.431935 0.911381 0.0463999 -0.08735
C_ C_ 0.416677 0.880718 0.0693296 -0.08735
C_ C_ 0.389744 0.835867 0.0637876 0.18498
C_ C_ 0.38483 0.817596 0.0351275 -0.05681
C_ C_ 0.375654 0.765744 0.0325157 -0.08735
C_ C_ 0.353965 0.73907 0.0552955 -0.08735
C_ C_ 0.352856 0.759997 0.0820422 0.1947
N_ N_ 0.120305 0.673885 0.479607 -0.29468
N_ N_ 0.149308 0.716103 0.0833423 -0.17154
N_ N_ 0.110482 0.684802 0.231879 -0.17154
N_ N_ 0.122714 0.707884 0.337496 -0.29468
N_ N_ 0.360739 0.840515 0.230306 -0.29468
N_ N_ 0.34476 0.82019 0.334991 -0.17154
N_ N_ 0.373553 0.820178 0.482987 -0.17154
N_ N_ 0.375108 0.805976 0.0867966 -0.29468
O_ O_ 0.206488 0.690883 0.435501 -0.58347
O_ O_ 0.193495 0.693155 0.389745 -0.58347
O_ O_ 0.126734 0.764027 0.436691 -0.58347
O_ O_ 0.114375 0.768498 0.389269 -0.58347
O_ O_ 0.141376 0.613466 0.425299 -0.58347
O_ O_ 0.119495 0.618835 0.380641 -0.58347
O_ O_ 0.0520028 0.681868 0.429456 -0.58347
O_ O_ 0.0428667 0.691538 0.382107 -0.58347
O_ O_ 0.0639506 0.727938 0.0763334 -0.46727
O_ O_ 0.234761 0.70332 0.0896694 -0.46727
O_ O_ 0.0242329 0.709286 0.225655 -0.46727
O_ O_ 0.19546 0.670362 0.238034 -0.46727
O_ O_ 0.285655 0.811424 0.182592 -0.58347
O_ O_ 0.300259 0.825526 0.138362 -0.58347
O_ O_ 0.377459 0.755267 0.19097 -0.58347
O_ O_ 0.369275 0.750273 0.145539 -0.58347
O_ O_ 0.353409 0.902667 0.174656 -0.58347
O_ O_ 0.378244 0.895492 0.131228 -0.58347
O_ O_ 0.437228 0.838856 0.181526 -0.58347
O_ O_ 0.451718 0.815059 0.136918 -0.58347
O_ O_ 0.431402 0.815171 0.327637 -0.46727
O_ O_ 0.257775 0.825194 0.341527 -0.46727
O_ O_ 0.455799 0.795085 0.478681 -0.46727
O_ O_ 0.28877 0.844654 0.488351 -0.46727
Zn Zn 0.137253 0.680374 0.885378 0.90689
Zn Zn 0.140019 0.679704 0.935362 0.90689
Zn Zn 0.367564 0.805486 0.634367 0.90689
Zn Zn 0.357608 0.816245 0.679992 0.90689
H_ H_ 0.314279 0.679424 0.947331 0.11455
H_ H_ 0.378207 0.654079 0.849154 0.11455
H_ H_ 0.289066 0.664195 0.858416 0.11455
H_ H_ 0.401763 0.693053 0.96356 0.11455
H_ H_ 0.49285 0.690665 0.956858 0.11455
H_ H_ 0.465645 0.654225 0.866912 0.11455
H_ H_ 0.121328 0.509203 0.942376 0.11455
H_ H_ 0.140072 0.924702 0.848814 0.11455
H_ H_ 0.163974 0.524434 0.855542 0.11455
H_ H_ 0.123456 0.928595 0.965342 0.11455
H_ H_ 0.131182 0.837031 0.964183 0.11455
H_ H_ 0.127608 0.841591 0.874762 0.11455
H_ H_ 0.101852 0.597738 0.970755 0.11455
H_ H_ 0.0531423 0.582797 0.514494 0.11455
H_ H_ 0.0910223 0.617976 0.556245 0.11455
H_ H_ 0.204697 0.738508 0.975518 0.11455
H_ H_ 0.222941 0.797899 0.520579 0.11455
H_ H_ 0.194322 0.77494 0.567487 0.11455
H_ H_ 1.0118015 0.704737 0.626834 0.11455
H_ H_ 0.998563 0.694144 0.67873 0.11455
H_ H_ 0.260366 0.666508 0.639998 0.11455
H_ H_ 0.248082 0.646941 0.694818 0.11455
H_ H_ 0.0775418 0.579281 0.752845 0.11455
H_ H_ 0.0739684 0.548465 0.802716 0.11455
H_ H_ 0.093425 0.607412 0.842038 0.11455
H_ H_ 0.16266 0.740327 0.761293 0.11455
H_ H_ 0.189281 0.794017 0.799984 0.11455
H_ H_ 0.175804 0.762271 0.851875 0.11455
H_ H_ 0.191579 0.809089 0.697549 0.11455
H_ H_ 0.131423 0.822165 0.596551 0.11455
H_ H_ 0.221343 0.806361 0.606832 0.11455
H_ H_ 0.105676 0.812156 0.714716 0.11455
H_ H_ 0.0123032 0.814199 0.705045 0.11455
H_ H_ 0.0389682 0.809254 0.615782 0.11455
H_ H_ 0.352584 0.980181 0.689183 0.11455
H_ H_ 0.403115 0.55902 0.599134 0.11455
H_ H_ 0.353836 0.964824 0.596293 0.11455
H_ H_ 0.326334 0.560385 0.708812 0.11455
H_ H_ 0.332174 0.651451 0.706875 0.11455
H_ H_ 0.401071 0.646736 0.624591 0.11455
H_ H_ 0.424255 0.892203 0.713386 0.11455
H_ H_ 0.446035 0.918412 0.760592 0.11455
H_ H_ 0.413852 0.873472 0.804632 0.11455
H_ H_ 0.298798 0.762063 0.726361 0.11455
H_ H_ 0.291605 0.695437 0.763373 0.11455
H_ H_ 0.327251 0.713355 0.812969 0.11455
H_ H_ 0.502783 0.790604 0.876088 0.11455
H_ H_ 0.508027 0.81329 0.925403 0.11455
H_ H_ 0.248681 0.825422 0.886762 0.11455
H_ H_ 0.255553 0.832832 0.938812 0.11455
H_ H_ 0.430226 0.923822 0.999982 0.11455
H_ H_ 0.453539 0.919443 0.547731 0.11455
H_ H_ 0.424931 0.866107 0.590778 0.11455
H_ H_ 0.335966 0.740935 0.510712 0.11455
H_ H_ 0.296896 0.695064 0.552363 0.11455
H_ H_ 0.315288 0.725717 0.600838 0.11455
C_ C_ 0.23543 0.684186 0.906384 0.68181
C_ C_ 0.292683 0.676016 0.902814 -0.05681
C_ C_ 0.327478 0.680421 0.925282 -0.08735
C_ C_ 0.379824 0.680887 0.919438 -0.05681
C_ C_ 0.399066 0.670032 0.892867 -0.05681
C_ C_ 0.365127 0.663968 0.869901 -0.08735
C_ C_ 0.31304 0.666617 0.875972 -0.08735
C_ C_ 0.415197 0.684158 0.942842 -0.08735
C_ C_ 0.467467 0.684507 0.937472 -0.08735
C_ C_ 0.487601 0.676932 0.910581 -0.05681
C_ C_ 0.451545 0.668508 0.887312 -0.08735
C_ C_ 0.134091 0.779079 0.916033 0.68181
C_ C_ 0.135734 0.57956 0.900769 0.68181
C_ C_ 0.139353 0.524432 0.89752 -0.05681
C_ C_ 0.131424 0.994283 0.922618 -0.08735
C_ C_ 0.130277 0.942065 0.921071 -0.05681
C_ C_ 0.132208 0.918159 0.894422 -0.05681
C_ C_ 0.135759 0.94695 0.869264 -0.08735
C_ C_ 0.137029 0.000633841 0.870853 -0.08735
C_ C_ 0.129547 0.912843 0.945504 -0.08735
C_ C_ 0.129446 0.860177 0.945064 -0.08735
C_ C_ 0.133519 0.836338 0.918982 -0.05681
C_ C_ 0.130081 0.864438 0.893427 -0.08735
C_ C_ 0.0395805 0.680085 0.913978 0.68181
C_ C_ 0.115051 0.622689 0.988002 0.1947
C_ C_ 0.0823113 0.611723 0.511409 -0.08735
C_ C_ 0.10521 0.632551 0.534825 -0.08735
C_ C_ 0.134789 0.679044 0.531304 -0.05681
C_ C_ 0.146665 0.695684 0.503188 0.18498
C_ C_ 0.187204 0.73893 0.995691 -0.08735
C_ C_ 0.200694 0.764371 0.522408 -0.08735
C_ C_ 0.186833 0.748864 0.54996 -0.08735
C_ C_ 0.153628 0.706724 0.555789 0.18498
C_ C_ 0.18509 0.675571 0.601382 0.44287
C_ C_ 0.0995871 0.699312 0.597413 0.44287
C_ C_ 0.0917843 0.688173 0.626249 -0.05681
C_ C_ 0.044235 0.69205 0.639113 -0.08735
C_ C_ 0.0362719 0.688753 0.669585 -0.08735
C_ C_ 0.0769944 0.677865 0.687407 -0.05681
C_ C_ 0.126553 0.671222 0.675052 -0.05681
C_ C_ 0.133215 0.678853 0.64451 -0.05681
C_ C_ 0.179784 0.670442 0.631755 -0.05681
C_ C_ 0.221459 0.660048 0.649784 -0.08735
C_ C_ 0.214918 0.654057 0.679739 -0.08735
C_ C_ 0.168898 0.662932 0.692671 -0.05681
C_ C_ 0.16068 0.656694 0.723004 0.44287
C_ C_ 0.0714721 0.674657 0.717908 0.44287
C_ C_ 0.108414 0.650435 0.76417 0.18498
C_ C_ 0.0937505 0.601745 0.769863 -0.08735
C_ C_ 0.0865151 0.585594 0.797496 -0.08735
C_ C_ 0.101899 0.617899 0.820684 -0.08735
C_ C_ 0.122206 0.665718 0.815192 0.18498
C_ C_ 0.130259 0.681286 0.786997 -0.05681
C_ C_ 0.159056 0.726675 0.782028 -0.08735
C_ C_ 0.170992 0.757421 0.805382 -0.08735
C_ C_ 0.163723 0.740645 0.832979 0.1947
C_ C_ 0.266105 0.804661 0.657988 0.68181
C_ C_ 0.211762 0.808638 0.653016 -0.05681
C_ C_ 0.176528 0.812798 0.674703 -0.08735
C_ C_ 0.124092 0.816381 0.670121 -0.05681
C_ C_ 0.106003 0.813806 0.642043 -0.05681
C_ C_ 0.143036 0.814568 0.618854 -0.08735
C_ C_ 0.193898 0.809759 0.625091 -0.08735
C_ C_ 0.0902708 0.811794 0.693918 -0.08735
C_ C_ 0.0392784 0.811196 0.688268 -0.08735
C_ C_ 0.0193236 0.817027 0.659734 -0.05681
C_ C_ 0.0526107 0.816045 0.636506 -0.08735
C_ C_ 0.365017 0.714483 0.665072 0.68181
C_ C_ 0.361151 0.910019 0.648356 0.68181
C_ C_ 0.359672 0.965923 0.643182 -0.05681
C_ C_ 0.365471 0.49609 0.673116 -0.08735
C_ C_ 0.366708 0.549552 0.669397 -0.05681
C_ C_ 0.381466 0.572584 0.643296 -0.05681
C_ C_ 0.393432 0.540517 0.619526 -0.08735
C_ C_ 0.362043 0.988305 0.615054 -0.08735
C_ C_ 0.348012 0.578694 0.691379 -0.08735
C_ C_ 0.344094 0.631432 0.688657 -0.08735
C_ C_ 0.362624 0.657882 0.664223 -0.05681
C_ C_ 0.379291 0.626992 0.640682 -0.08735
C_ C_ 0.464694 0.810779 0.657468 0.68181
C_ C_ 0.40096 0.875972 0.731265 0.1947
C_ C_ 0.4178 0.88891 0.758039 -0.08735
C_ C_ 0.401718 0.862072 0.782583 -0.08735
C_ C_ 0.368566 0.82029 0.779745 -0.05681
C_ C_ 0.353114 0.807365 0.751305 0.18498
C_ C_ 0.3216 0.765247 0.746147 -0.08735
C_ C_ 0.317036 0.728448 0.768351 -0.08735
C_ C_ 0.335556 0.737666 0.796346 -0.08735
C_ C_ 0.35744 0.785723 0.802302 0.18498
C_ C_ 0.323043 0.808623 0.848842 0.44287
C_ C_ 0.409719 0.789425 0.844917 0.44287
C_ C_ 0.418729 0.799078 0.875311 -0.05681
C_ C_ 0.467275 0.790957 0.888703 -0.08735
C_ C_ 0.471598 0.804785 0.917823 -0.08735
C_ C_ 0.42748 0.812486 0.935068 -0.05681
C_ C_ 0.378888 0.812946 0.922977 -0.05681
C_ C_ 0.374833 0.808833 0.89301 -0.05681
C_ C_ 0.328093 0.814713 0.879614 -0.05681
C_ C_ 0.286565 0.825751 0.896582 -0.08735
C_ C_ 0.289101 0.829737 0.926409 -0.08735
C_ C_ 0.337046 0.821395 0.940327 -0.05681
C_ C_ 0.344552 0.82779 0.970557 0.44287
C_ C_ 0.433271 0.821882 0.965109 0.44287
C_ C_ 0.382095 0.834421 0.512639 0.18498
C_ C_ 0.412339 0.877548 0.518563 -0.08735
C_ C_ 0.426491 0.887376 0.545709 -0.08735
C_ C_ 0.407191 0.859867 0.56967 -0.08735
C_ C_ 0.374924 0.818362 0.565184 0.18498
C_ C_ 0.363183 0.80426 0.535897 -0.05681
C_ C_ 0.334166 0.759578 0.532073 -0.08735
C_ C_ 0.319268 0.729584 0.555615 -0.08735
C_ C_ 0.328226 0.748666 0.583397 0.1947
N_ N_ 0.137569 0.668726 0.981606 -0.29468
N_ N_ 0.144428 0.690666 0.58486 -0.17154
N_ N_ 0.1138 0.664969 0.734386 -0.17154
N_ N_ 0.136333 0.696391 0.837203 -0.29468
N_ N_ 0.369955 0.83296 0.727266 -0.29468
N_ N_ 0.364446 0.799702 0.832382 -0.17154
N_ N_ 0.392863 0.836229 0.98197 -0.17154
N_ N_ 0.357756 0.789983 0.587556 -0.29468
O_ O_ 0.216693 0.676021 0.930989 -0.58347
O_ O_ 0.209251 0.693097 0.88533 -0.58347
O_ O_ 0.142765 0.754913 0.938031 -0.58347
O_ O_ 0.121074 0.754984 0.892776 -0.58347
O_ O_ 0.125665 0.602809 0.923854 -0.58347
O_ O_ 0.15205 0.607139 0.87971 -0.58347
O_ O_ 0.067001 0.687524 0.936559 -0.58347
O_ O_ 0.0607897 0.673204 0.889545 -0.58347
O_ O_ 0.0598677 0.7108 0.580477 -0.46727
O_ O_ 0.231026 0.675942 0.591423 -0.46727
O_ O_ 0.0290683 0.675049 0.729552 -0.46727
O_ O_ 0.203205 0.65435 0.738754 -0.46727
O_ O_ 0.284813 0.817089 0.682156 -0.58347
O_ O_ 0.295989 0.798245 0.636953 -0.58347
O_ O_ 0.346028 0.740737 0.684036 -0.58347
O_ O_ 0.37849 0.734684 0.642034 -0.58347
O_ O_ 0.360371 0.894027 0.674055 -0.58347
O_ O_ 0.359317 0.879251 0.627121 -0.58347
O_ O_ 0.434373 0.814231 0.678779 -0.58347
O_ O_ 0.444763 0.812251 0.632335 -0.58347
O_ O_ 0.447891 0.772459 0.829962 -0.46727
O_ O_ 0.278619 0.810488 0.837077 -0.46727
O_ O_ 0.480317 0.827065 0.975129 -0.46727
O_ O_ 0.306648 0.838806 0.987176 -0.46727
Zn Zn 0.622904 0.184859 0.381336 0.90689
Zn Zn 0.633251 0.177069 0.428481 0.90689
Zn Zn 0.876466 0.322503 0.132372 0.90689
Zn Zn 0.869415 0.328451 0.180106 0.90689
H_ H_ 0.799677 0.198332 0.446775 0.11455
H_ H_ 0.867438 0.169211 0.348319 0.11455
H_ H_ 0.776255 0.158537 0.359331 0.11455
H_ H_ 0.886318 0.188425 0.466029 0.11455
H_ H_ 0.978173 0.199103 0.455428 0.11455
H_ H_ 0.948783 0.183267 0.365128 0.11455
H_ H_ 0.661786 0.0134091 0.437342 0.11455
H_ H_ 0.691177 0.432548 0.356139 0.11455
H_ H_ 0.58266 0.0292706 0.357817 0.11455
H_ H_ 0.555835 0.424322 0.447677 0.11455
H_ H_ 0.56756 0.328828 0.444668 0.11455
H_ H_ 0.660896 0.35106 0.370843 0.11455
H_ H_ 0.572696 0.116763 0.462065 0.11455
H_ H_ 0.579568 0.0678589 0.00780709 0.11455
H_ H_ 0.624776 0.107199 0.0498743 0.11455
H_ H_ 0.691351 0.237599 0.474566 0.11455
H_ H_ 0.700154 0.30864 0.0147937 0.11455
H_ H_ 0.684134 0.28068 0.0608587 0.11455
H_ H_ 0.510656 0.206655 0.121223 0.11455
H_ H_ 0.502611 0.207537 0.175584 0.11455
H_ H_ 0.761674 0.163785 0.133343 0.11455
H_ H_ 0.750356 0.140709 0.184228 0.11455
H_ H_ 0.576135 0.0865307 0.247425 0.11455
H_ H_ 0.543065 0.0652807 0.296165 0.11455
H_ H_ 0.570946 0.119184 0.333844 0.11455
H_ H_ 0.66216 0.244545 0.254566 0.11455
H_ H_ 0.687392 0.293243 0.297402 0.11455
H_ H_ 0.680851 0.260684 0.345832 0.11455
H_ H_ 0.706916 0.321626 0.197039 0.11455
H_ H_ 0.630585 0.349577 0.100474 0.11455
H_ H_ 0.718673 0.350633 0.105573 0.11455
H_ H_ 0.618826 0.320625 0.219022 0.11455
H_ H_ 0.525336 0.313564 0.209888 0.11455
H_ H_ 0.544242 0.339645 0.121439 0.11455
H_ H_ 0.852584 0.495545 0.194282 0.11455
H_ H_ 0.828015 0.077924 0.0975931 0.11455
H_ H_ 0.891801 0.480302 0.102156 0.11455
H_ H_ 0.923606 0.0749131 0.202447 0.11455
H_ H_ 0.910771 0.166156 0.204441 0.11455
H_ H_ 0.860548 0.157706 0.11669 0.11455
H_ H_ 0.924711 0.397655 0.217249 0.11455
H_ H_ 0.931684 0.429979 0.266614 0.11455
H_ H_ 0.893733 0.381304 0.305112 0.11455
H_ H_ 0.812027 0.266719 0.220706 0.11455
H_ H_ 0.775229 0.209877 0.258567 0.11455
H_ H_ 0.797967 0.227327 0.308715 0.11455
H_ H_ 0.987033 0.30279 0.368213 0.11455
H_ H_ 0.00159197 0.314915 0.421792 0.11455
H_ H_ 0.733609 0.317206 0.389078 0.11455
H_ H_ 0.745034 0.331422 0.441808 0.11455
H_ H_ 0.930428 0.412205 0.498179 0.11455
H_ H_ 0.960699 0.435629 0.0500885 0.11455
H_ H_ 0.940541 0.377582 0.0882431 0.11455
H_ H_ 0.835298 0.261503 0.00869565 0.11455
H_ H_ 0.795951 0.222311 0.048893 0.11455
H_ H_ 0.811137 0.252493 0.0998725 0.11455
C_ C_ 0.726731 0.182914 0.407145 0.68181
C_ C_ 0.780213 0.185739 0.402182 -0.05681
C_ C_ 0.81464 0.192415 0.424676 -0.08735
C_ C_ 0.867244 0.190565 0.4211 -0.05681
C_ C_ 0.885987 0.187376 0.392335 -0.05681
C_ C_ 0.851845 0.181229 0.369549 -0.08735
C_ C_ 0.799423 0.179569 0.373958 -0.08735
C_ C_ 0.8999 0.191835 0.444091 -0.08735
C_ C_ 0.953108 0.193805 0.438005 -0.08735
C_ C_ 0.971528 0.192757 0.409573 -0.05681
C_ C_ 0.936953 0.184918 0.386611 -0.08735
C_ C_ 0.621126 0.278177 0.408172 0.68181
C_ C_ 0.629166 0.0830833 0.40003 0.68181
C_ C_ 0.624739 0.0269782 0.397712 -0.05681
C_ C_ 0.613671 0.495693 0.419634 -0.08735
C_ C_ 0.614522 0.441299 0.416192 -0.05681
C_ C_ 0.644079 0.419418 0.39427 -0.05681
C_ C_ 0.672383 0.450237 0.374482 -0.08735
C_ C_ 0.664892 0.502225 0.375531 -0.08735
C_ C_ 0.585729 0.4087 0.434024 -0.08735
C_ C_ 0.584406 0.355496 0.428411 -0.08735
C_ C_ 0.616727 0.333283 0.408255 -0.05681
C_ C_ 0.642644 0.365367 0.389585 -0.08735
C_ C_ 0.528502 0.17536 0.402106 0.68181
C_ C_ 0.588004 0.133089 0.480013 0.1947
C_ C_ 0.599081 0.103449 0.00591315 -0.08735
C_ C_ 0.62203 0.127966 0.0297673 -0.08735
C_ C_ 0.642357 0.176703 0.026563 -0.05681
C_ C_ 0.64838 0.194088 0.997112 0.18498
C_ C_ 0.678351 0.22964 0.495568 -0.08735
C_ C_ 0.687245 0.271546 0.0164478 -0.08735
C_ C_ 0.680184 0.253696 0.0441205 -0.08735
C_ C_ 0.652508 0.210653 0.0492853 0.18498
C_ C_ 0.683195 0.182705 0.0947763 0.44287
C_ C_ 0.59711 0.206847 0.0921789 0.44287
C_ C_ 0.591927 0.195421 0.121689 -0.05681
C_ C_ 0.543367 0.201699 0.134303 -0.08735
C_ C_ 0.539729 0.20139 0.165044 -0.08735
C_ C_ 0.581616 0.187149 0.181418 -0.05681
C_ C_ 0.630792 0.181496 0.16894 -0.05681
C_ C_ 0.633971 0.181082 0.139458 -0.05681
C_ C_ 0.679199 0.170744 0.124969 -0.05681
C_ C_ 0.721846 0.159891 0.141967 -0.08735
C_ C_ 0.717635 0.153867 0.172209 -0.08735
C_ C_ 0.671448 0.164266 0.185829 -0.05681
C_ C_ 0.665318 0.158627 0.216417 0.44287
C_ C_ 0.577338 0.18144 0.211597 0.44287
C_ C_ 0.610583 0.155961 0.257828 0.18498
C_ C_ 0.586782 0.110754 0.264669 -0.08735
C_ C_ 0.566512 0.10049 0.291227 -0.08735
C_ C_ 0.583079 0.130759 0.313834 -0.08735
C_ C_ 0.612531 0.174052 0.309914 0.18498
C_ C_ 0.62422 0.187694 0.280502 -0.05681
C_ C_ 0.652388 0.232179 0.276682 -0.08735
C_ C_ 0.666326 0.260331 0.300179 -0.08735
C_ C_ 0.665645 0.236688 0.327987 0.1947
C_ C_ 0.777891 0.335727 0.154541 0.68181
C_ C_ 0.721807 0.340277 0.151666 -0.05681
C_ C_ 0.689719 0.330354 0.17599 -0.08735
C_ C_ 0.634431 0.331043 0.173663 -0.05681
C_ C_ 0.613557 0.335583 0.145439 -0.05681
C_ C_ 0.645464 0.342957 0.122078 -0.08735
C_ C_ 0.698194 0.349797 0.125101 -0.08735
C_ C_ 0.602485 0.325689 0.197474 -0.08735
C_ C_ 0.549492 0.323139 0.191766 -0.08735
C_ C_ 0.528831 0.325423 0.164679 -0.05681
C_ C_ 0.561429 0.330311 0.141436 -0.08735
C_ C_ 0.873002 0.225326 0.161471 0.68181
C_ C_ 0.874374 0.424332 0.151633 0.68181
C_ C_ 0.873459 0.481126 0.148673 -0.05681
C_ C_ 0.871659 0.00955288 0.167266 -0.08735
C_ C_ 0.876741 0.0636276 0.164413 -0.05681
C_ C_ 0.863248 0.0877432 0.139098 -0.05681
C_ C_ 0.843543 0.0580297 0.116783 -0.08735
C_ C_ 0.883531 0.504314 0.122207 -0.08735
C_ C_ 0.898493 0.0921623 0.187372 -0.08735
C_ C_ 0.892707 0.145329 0.186883 -0.08735
C_ C_ 0.878055 0.170368 0.162765 -0.05681
C_ C_ 0.86476 0.141315 0.137757 -0.08735
C_ C_ 0.972093 0.321182 0.158322 0.68181
C_ C_ 0.903301 0.379115 0.233444 0.1947
C_ C_ 0.906583 0.397124 0.261818 -0.08735
C_ C_ 0.889878 0.36696 0.283356 -0.08735
C_ C_ 0.863495 0.323403 0.278074 -0.05681
C_ C_ 0.852125 0.312076 0.24839 0.18498
C_ C_ 0.822958 0.271819 0.242605 -0.08735
C_ C_ 0.801732 0.24133 0.264069 -0.08735
C_ C_ 0.809158 0.254309 0.293177 -0.08735
C_ C_ 0.840281 0.294587 0.300891 0.18498
C_ C_ 0.807887 0.313296 0.348983 0.44287
C_ C_ 0.895424 0.296062 0.342447 0.44287
C_ C_ 0.905282 0.309851 0.371254 -0.05681
C_ C_ 0.953924 0.314199 0.382927 -0.08735
C_ C_ 0.961927 0.31918 0.412746 -0.08735
C_ C_ 0.919102 0.320683 0.431351 -0.05681
C_ C_ 0.869608 0.322421 0.419562 -0.05681
C_ C_ 0.862846 0.318535 0.390049 -0.05681
C_ C_ 0.813431 0.319399 0.379393 -0.05681
C_ C_ 0.771362 0.31735 0.398147 -0.08735
C_ C_ 0.777837 0.32308 0.427323 -0.08735
C_ C_ 0.828333 0.322552 0.439123 -0.05681
C_ C_ 0.836823 0.326036 0.468683 0.44287
C_ C_ 0.926092 0.317449 0.461138 0.44287
C_ C_ 0.898474 0.343725 0.0125521 0.18498
C_ C_ 0.923673 0.389332 0.0192357 -0.08735
C_ C_ 0.938335 0.40187 0.0467309 -0.08735
C_ C_ 0.921704 0.371893 0.0689514 -0.08735
C_ C_ 0.891519 0.329874 0.0644597 0.18498
C_ C_ 0.879591 0.314677 0.0357283 -0.05681
C_ C_ 0.846824 0.272899 0.0302279 -0.08735
C_ C_ 0.824615 0.249737 0.0541404 -0.08735
C_ C_ 0.83464 0.268255 0.0820632 0.1947
N_ N_ 0.620286 0.172174 0.476573 -0.29468
N_ N_ 0.642296 0.195555 0.0789722 -0.17154
N_ N_ 0.619886 0.169491 0.229292 -0.17154
N_ N_ 0.632535 0.197875 0.332094 -0.29468
N_ N_ 0.86982 0.340893 0.227092 -0.29468
N_ N_ 0.847677 0.30467 0.331355 -0.17154
N_ N_ 0.885947 0.323955 0.4794 -0.17154
N_ N_ 0.868248 0.306225 0.0878797 -0.29468
O_ O_ 0.709578 0.180349 0.432424 -0.58347
O_ O_ 0.698985 0.190852 0.386262 -0.58347
O_ O_ 0.63301 0.253614 0.43007 -0.58347
O_ O_ 0.611703 0.256349 0.384366 -0.58347
O_ O_ 0.633702 0.10486 0.424025 -0.58347
O_ O_ 0.624228 0.110051 0.378064 -0.58347
O_ O_ 0.557692 0.178077 0.423745 -0.58347
O_ O_ 0.55086 0.178416 0.377628 -0.58347
O_ O_ 0.561493 0.232645 0.0779967 -0.46727
O_ O_ 0.730433 0.177886 0.0825361 -0.46727
O_ O_ 0.533952 0.193958 0.223001 -0.46727
O_ O_ 0.703418 0.141443 0.23057 -0.46727
O_ O_ 0.798907 0.332323 0.179162 -0.58347
O_ O_ 0.80201 0.32478 0.13185 -0.58347
O_ O_ 0.873571 0.252279 0.184588 -0.58347
O_ O_ 0.868573 0.249001 0.137956 -0.58347
O_ O_ 0.866733 0.402855 0.175694 -0.58347
O_ O_ 0.883261 0.398688 0.129114 -0.58347
O_ O_ 0.946081 0.332271 0.179542 -0.58347
O_ O_ 0.951044 0.310167 0.135249 -0.58347
O_ O_ 0.932101 0.287641 0.3242 -0.46727
O_ O_ 0.762552 0.323751 0.337611 -0.46727
O_ O_ 0.971355 0.310936 0.471747 -0.46727
O_ O_ 0.80001 0.332205 0.487387 -0.46727
Zn Zn 0.633136 0.18177 0.878869 0.90689
Zn Zn 0.643128 0.179082 0.926369 0.90689
Zn Zn 0.878874 0.307723 0.632755 0.90689
Zn Zn 0.866988 0.314009 0.680562 0.90689
H_ H_ 0.810652 0.186415 0.945596 0.11455
H_ H_ 0.879675 0.175801 0.846738 0.11455
H_ H_ 0.790824 0.177813 0.855637 0.11455
H_ H_ 0.893278 0.1821 0.963362 0.11455
H_ H_ 0.987773 0.181932 0.957129 0.11455
H_ H_ 0.966912 0.182345 0.866754 0.11455
H_ H_ 0.633356 0.010559 0.946817 0.11455
H_ H_ 0.625651 0.438092 0.841937 0.11455
H_ H_ 0.64971 0.0227766 0.853615 0.11455
H_ H_ 0.621748 0.428998 0.959643 0.11455
H_ H_ 0.62044 0.332864 0.954601 0.11455
H_ H_ 0.6279 0.347547 0.860695 0.11455
H_ H_ 0.57958 0.109956 0.961684 0.11455
H_ H_ 0.545124 0.0882162 0.508847 0.11455
H_ H_ 0.57487 0.129689 0.551179 0.11455
H_ H_ 0.685067 0.252215 0.971907 0.11455
H_ H_ 0.723977 0.288282 0.51705 0.11455
H_ H_ 0.707605 0.257576 0.564856 0.11455
H_ H_ 0.506085 0.208458 0.623865 0.11455
H_ H_ 0.494869 0.190191 0.675672 0.11455
H_ H_ 0.7386 0.116998 0.63219 0.11455
H_ H_ 0.732515 0.105023 0.683041 0.11455
H_ H_ 0.568532 0.0714585 0.754069 0.11455
H_ H_ 0.538696 0.0612179 0.802616 0.11455
H_ H_ 0.567505 0.12108 0.839029 0.11455
H_ H_ 0.668095 0.223023 0.753082 0.11455
H_ H_ 0.712746 0.26555 0.792142 0.11455
H_ H_ 0.684082 0.256528 0.841655 0.11455
H_ H_ 0.701048 0.299881 0.694001 0.11455
H_ H_ 0.63075 0.341764 0.59832 0.11455
H_ H_ 0.718732 0.327646 0.603154 0.11455
H_ H_ 0.616908 0.307751 0.715258 0.11455
H_ H_ 0.527424 0.304095 0.70808 0.11455
H_ H_ 0.541319 0.327574 0.618242 0.11455
H_ H_ 0.856425 0.476519 0.691272 0.11455
H_ H_ 0.846868 0.0590196 0.592699 0.11455
H_ H_ 0.889909 0.463471 0.602116 0.11455
H_ H_ 0.845559 0.0610145 0.714162 0.11455
H_ H_ 0.853894 0.150406 0.710777 0.11455
H_ H_ 0.858356 0.143192 0.617213 0.11455
H_ H_ 0.917469 0.387843 0.710197 0.11455
H_ H_ 0.943434 0.421744 0.759617 0.11455
H_ H_ 0.902218 0.388059 0.801512 0.11455
H_ H_ 0.808343 0.254868 0.727777 0.11455
H_ H_ 0.782025 0.205921 0.769878 0.11455
H_ H_ 0.808302 0.23301 0.818575 0.11455
H_ H_ 0.994223 0.302107 0.872569 0.11455
H_ H_ 0.00420226 0.299893 0.925137 0.11455
H_ H_ 0.747006 0.350206 0.89078 0.11455
H_ H_ 0.761244 0.364362 0.941785 0.11455
H_ H_ 0.928664 0.417543 1.00323858 0.11455
H_ H_ 0.939043 0.439116 0.548047 0.11455
H_ H_ 0.927693 0.378476 0.587729 0.11455
H_ H_ 0.85148 0.241234 0.506427 0.11455
H_ H_ 0.813971 0.202231 0.548448 0.11455
H_ H_ 0.829758 0.231861 0.595156 0.11455
C_ C_ 0.734723 0.189269 0.903183 0.68181
C_ C_ 0.790793 0.184873 0.89959 -0.05681
C_ C_ 0.824885 0.184167 0.923514 -0.08735
C_ C_ 0.877724 0.178206 0.919143 -0.05681
C_ C_ 0.898719 0.181475 0.891582 -0.05681
C_ C_ 0.866191 0.180248 0.867943 -0.08735
C_ C_ 0.814756 0.179571 0.872836 -0.08735
C_ C_ 0.910966 0.178073 0.942107 -0.08735
C_ C_ 0.965218 0.176926 0.93847 -0.08735
C_ C_ 0.984598 0.179032 0.910676 -0.05681
C_ C_ 0.951837 0.181066 0.887765 -0.08735
C_ C_ 0.628011 0.278534 0.906585 0.68181
C_ C_ 0.644351 0.0809952 0.90055 0.68181
C_ C_ 0.639185 0.0242515 0.899819 -0.05681
C_ C_ 0.642 0.491558 0.918696 -0.08735
C_ C_ 0.636738 0.438835 0.914625 -0.05681
C_ C_ 0.63393 0.417644 0.887035 -0.05681
C_ C_ 0.633522 0.449646 0.863756 -0.08735
C_ C_ 0.637673 0.502405 0.868576 -0.08735
C_ C_ 0.624337 0.409893 0.938872 -0.08735
C_ C_ 0.620478 0.357862 0.93621 -0.08735
C_ C_ 0.62035 0.33531 0.908471 -0.05681
C_ C_ 0.622724 0.364977 0.882696 -0.08735
C_ C_ 0.541384 0.176934 0.902889 0.68181
C_ C_ 0.602595 0.125624 0.978802 0.1947
C_ C_ 0.57172 0.115786 0.506721 -0.08735
C_ C_ 0.593957 0.13697 0.531303 -0.08735
C_ C_ 0.628145 0.178412 0.528046 -0.05681
C_ C_ 0.642685 0.194222 0.499522 0.18498
C_ C_ 0.674309 0.241004 0.99216 -0.08735
C_ C_ 0.701415 0.253951 0.518703 -0.08735
C_ C_ 0.689197 0.239491 0.546577 -0.08735
C_ C_ 0.651611 0.201391 0.552173 0.18498
C_ C_ 0.678418 0.165496 0.598147 0.44287
C_ C_ 0.595318 0.201115 0.594488 0.44287
C_ C_ 0.585428 0.187601 0.623644 -0.05681
C_ C_ 0.538572 0.19366 0.636418 -0.08735
C_ C_ 0.532187 0.186215 0.666046 -0.08735
C_ C_ 0.573933 0.173048 0.684206 -0.05681
C_ C_ 0.619618 0.158356 0.670235 -0.05681
C_ C_ 0.625347 0.167384 0.640171 -0.05681
C_ C_ 0.670606 0.154721 0.627909 -0.05681
C_ C_ 0.708447 0.132896 0.642838 -0.08735
C_ C_ 0.702624 0.125829 0.672029 -0.08735
C_ C_ 0.659809 0.140197 0.686892 -0.05681
C_ C_ 0.654256 0.136291 0.717005 0.44287
C_ C_ 0.570203 0.169718 0.714542 0.44287
C_ C_ 0.603201 0.143529 0.760149 0.18498
C_ C_ 0.574428 0.101179 0.76931 -0.08735
C_ C_ 0.561324 0.0947464 0.797527 -0.08735
C_ C_ 0.58413 0.123389 0.818569 -0.08735
C_ C_ 0.610412 0.166887 0.811606 0.18498
C_ C_ 0.622569 0.176094 0.781476 -0.05681
C_ C_ 0.654466 0.218231 0.775255 -0.08735
C_ C_ 0.679946 0.2423 0.796654 -0.08735
C_ C_ 0.668755 0.231879 0.825385 0.1947
C_ C_ 0.773823 0.30538 0.651898 0.68181
C_ C_ 0.717465 0.314253 0.648488 -0.05681
C_ C_ 0.686058 0.31049 0.673448 -0.08735
C_ C_ 0.633858 0.314191 0.669609 -0.05681
C_ C_ 0.612455 0.32205 0.642289 -0.05681
C_ C_ 0.646086 0.328158 0.618136 -0.08735
C_ C_ 0.696496 0.321786 0.621165 -0.08735
C_ C_ 0.602039 0.314227 0.693101 -0.08735
C_ C_ 0.549228 0.314848 0.690071 -0.08735
C_ C_ 0.527668 0.314987 0.661979 -0.05681
C_ C_ 0.558732 0.324279 0.638813 -0.08735
C_ C_ 0.868407 0.20781 0.662471 0.68181
C_ C_ 0.861794 0.408152 0.649223 0.68181
C_ C_ 0.865509 0.464933 0.646094 -0.05681
C_ C_ 0.845868 -0.005186000000000024 0.668648 -0.08735
C_ C_ 0.841817 0.0492909 0.666834 -0.05681
C_ C_ 0.846594 0.0719956 0.639452 -0.05681
C_ C_ 0.847462 0.041701 0.614499 -0.08735
C_ C_ 0.873002 0.487533 0.619182 -0.08735
C_ C_ 0.846832 0.0785328 0.691989 -0.08735
C_ C_ 0.856979 0.128511 0.690732 -0.08735
C_ C_ 0.865036 0.15311 0.66353 -0.05681
C_ C_ 0.860733 0.124043 0.637802 -0.08735
C_ C_ 0.971553 0.31041 0.659399 0.68181
C_ C_ 0.903619 0.37121 0.730498 0.1947
C_ C_ 0.919123 0.389186 0.757698 -0.08735
C_ C_ 0.895526 0.369427 0.781998 -0.08735
C_ C_ 0.868449 0.324897 0.779116 -0.05681
C_ C_ 0.853775 0.306185 0.751436 0.18498
C_ C_ 0.822441 0.265517 0.748642 -0.08735
C_ C_ 0.810069 0.238373 0.773429 -0.08735
C_ C_ 0.823156 0.252788 0.801446 -0.08735
C_ C_ 0.84906 0.300366 0.804757 0.18498
C_ C_ 0.818765 0.331879 0.850663 0.44287
C_ C_ 0.90538 0.306873 0.845239 0.44287
C_ C_ 0.912014 0.311252 0.874795 -0.05681
C_ C_ 0.961273 0.308114 0.886492 -0.08735
C_ C_ 0.967712 0.307352 0.916378 -0.08735
C_ C_ 0.926593 0.314324 0.93527 -0.05681
C_ C_ 0.878824 0.320602 0.923414 -0.05681
C_ C_ 0.871213 0.320265 0.893294 -0.05681
C_ C_ 0.822913 0.330713 0.880403 -0.05681
C_ C_ 0.784073 0.342524 0.898832 -0.08735
C_ C_ 0.791772 0.34875 0.928709 -0.08735
C_ C_ 0.837058 0.335932 0.941676 -0.05681
C_ C_ 0.846244 0.341819 0.970858 0.44287
C_ C_ 0.931288 0.313996 0.965668 0.44287
C_ C_ 0.896873 0.337578 0.508823 0.18498
C_ C_ 0.915272 0.385732 0.515096 -0.08735
C_ C_ 0.920875 0.402428 0.544108 -0.08735
C_ C_ 0.90807 0.372343 0.566515 -0.08735
C_ C_ 0.888513 0.3242 0.56149 0.18498
C_ C_ 0.882834 0.3062 0.532371 -0.05681
C_ C_ 0.862451 0.257105 0.528252 -0.08735
C_ C_ 0.843176 0.230734 0.551126 -0.08735
C_ C_ 0.852813 0.247032 0.578768 0.1947
N_ N_ 0.633761 0.166048 0.974416 -0.29468
N_ N_ 0.640498 0.187274 0.582065 -0.17154
N_ N_ 0.610716 0.152635 0.729371 -0.17154
N_ N_ 0.633409 0.194683 0.831589 -0.29468
N_ N_ 0.871517 0.331335 0.727933 -0.29468
N_ N_ 0.859385 0.317838 0.833324 -0.17154
N_ N_ 0.892201 0.330434 0.982487 -0.17154
N_ N_ 0.878333 0.290271 0.583884 -0.29468
O_ O_ 0.718451 0.187743 0.928436 -0.58347
O_ O_ 0.704811 0.190228 0.882092 -0.58347
O_ O_ 0.634677 0.254201 0.929014 -0.58347
O_ O_ 0.627127 0.255716 0.882709 -0.58347
O_ O_ 0.648999 0.104794 0.923988 -0.58347
O_ O_ 0.642388 0.106349 0.876993 -0.58347
O_ O_ 0.568745 0.172441 0.92515 -0.58347
O_ O_ 0.561277 0.172193 0.878951 -0.58347
O_ O_ 0.557147 0.214195 0.577425 -0.46727
O_ O_ 0.721353 0.154856 0.585609 -0.46727
O_ O_ 0.529656 0.182821 0.727403 -0.46727
O_ O_ 0.688791 0.113475 0.732224 -0.46727
O_ O_ 0.795639 0.315589 0.675976 -0.58347
O_ O_ 0.801018 0.301573 0.62955 -0.58347
O_ O_ 0.864512 0.234849 0.685209 -0.58347
O_ O_ 0.878223 0.22994 0.63861 -0.58347
O_ O_ 0.863686 0.389137 0.673127 -0.58347
O_ O_ 0.87025 0.381162 0.628224 -0.58347
O_ O_ 0.942235 0.315081 0.679815 -0.58347
O_ O_ 0.952891 0.310043 0.63473 -0.58347
O_ O_ 0.94327 0.293564 0.829048 -0.46727
O_ O_ 0.771614 0.334059 0.839898 -0.46727
O_ O_ 0.969508 0.28739 0.977162 -0.46727
O_ O_ 0.811016 0.359437 0.987963 -0.46727
Zn Zn 0.618918 0.679311 0.382366 0.90689
Zn Zn 0.628717 0.677895 0.429726 0.90689
Zn Zn 0.873398 0.815752 0.129838 0.90689
Zn Zn 0.860457 0.826223 0.176664 0.90689
H_ H_ 0.797711 0.656184 0.443686 0.11455
H_ H_ 0.864047 0.683102 0.344097 0.11455
H_ H_ 0.770918 0.697157 0.355315 0.11455
H_ H_ 0.881745 0.65323 0.463343 0.11455
H_ H_ 0.972301 0.661491 0.455689 0.11455
H_ H_ 0.954051 0.682713 0.364749 0.11455
H_ H_ 0.591881 0.512197 0.437079 0.11455
H_ H_ 0.578514 0.936525 0.351508 0.11455
H_ H_ 0.675743 0.523017 0.356269 0.11455
H_ H_ 0.656514 0.926297 0.461714 0.11455
H_ H_ 0.659959 0.834416 0.454061 0.11455
H_ H_ 0.581939 0.851553 0.374178 0.11455
H_ H_ 0.581296 0.600877 0.461749 0.11455
H_ H_ 0.591074 0.564531 0.0120628 0.11455
H_ H_ 0.61924 0.613934 0.053646 0.11455
H_ H_ 0.68539 0.740065 0.47658 0.11455
H_ H_ 0.714363 0.805481 0.012405 0.11455
H_ H_ 0.712411 0.76791 0.0612584 0.11455
H_ H_ 0.514769 0.697227 0.11926 0.11455
H_ H_ 0.503824 0.686037 0.170488 0.11455
H_ H_ 0.770987 0.681065 0.140572 0.11455
H_ H_ 0.754087 0.683015 0.193153 0.11455
H_ H_ 0.580701 0.578446 0.248937 0.11455
H_ H_ 0.553161 0.55503 0.294705 0.11455
H_ H_ 0.567266 0.615251 0.337034 0.11455
H_ H_ 0.660977 0.742612 0.260266 0.11455
H_ H_ 0.679171 0.79862 0.300415 0.11455
H_ H_ 0.665025 0.761322 0.349678 0.11455
H_ H_ 0.699077 0.811488 0.197032 0.11455
H_ H_ 0.625344 0.81259 0.0985384 0.11455
H_ H_ 0.716155 0.810966 0.107034 0.11455
H_ H_ 0.608505 0.819659 0.219829 0.11455
H_ H_ 0.519329 0.837429 0.21078 0.11455
H_ H_ 0.539941 0.826205 0.119712 0.11455
H_ H_ 0.875078 0.989432 0.187433 0.11455
H_ H_ 0.89774 0.573364 0.0993658 0.11455
H_ H_ 0.833835 0.982408 0.0988812 0.11455
H_ H_ 0.852754 0.582026 0.214249 0.11455
H_ H_ 0.868709 0.672454 0.210123 0.11455
H_ H_ 0.872498 0.655882 0.119266 0.11455
H_ H_ 0.901573 0.906882 0.212971 0.11455
H_ H_ 0.934302 0.925409 0.261296 0.11455
H_ H_ 0.900223 0.873947 0.303303 0.11455
H_ H_ 0.809203 0.756316 0.221751 0.11455
H_ H_ 0.771294 0.70741 0.260179 0.11455
H_ H_ 0.804044 0.71475 0.308679 0.11455
H_ H_ 0.986644 0.784264 0.369542 0.11455
H_ H_ -3.6000000000036e-05 0.789896 0.420244 0.11455
H_ H_ 0.735804 0.819876 0.385963 0.11455
H_ H_ 0.74875 0.836059 0.438465 0.11455
H_ H_ 0.954297 0.88235 0.496164 0.11455
H_ H_ 0.949489 0.935378 0.0436502 0.11455
H_ H_ 0.929192 0.876912 0.0840207 0.11455
H_ H_ 0.846972 0.75099 0.00514056 0.11455
H_ H_ 0.813805 0.696838 0.0461702 0.11455
H_ H_ 0.827827 0.733217 0.0946207 0.11455
C_ C_ 0.721975 0.684549 0.404494 0.68181
C_ C_ 0.778213 0.681244 0.400796 -0.05681
C_ C_ 0.811687 0.667268 0.423482 -0.08735
C_ C_ 0.864272 0.6647 0.418065 -0.05681
C_ C_ 0.884229 0.672363 0.389647 -0.05681
C_ C_ 0.848479 0.679149 0.366601 -0.08735
C_ C_ 0.795867 0.680769 0.372186 -0.08735
C_ C_ 0.89719 0.655458 0.440945 -0.08735
C_ C_ 0.947748 0.662695 0.437239 -0.08735
C_ C_ 0.969288 0.67466 0.410088 -0.05681
C_ C_ 0.938257 0.673697 0.385818 -0.08735
C_ C_ 0.617278 0.778691 0.412091 0.68181
C_ C_ 0.636253 0.579287 0.39871 0.68181
C_ C_ 0.638032 0.52575 0.398265 -0.05681
C_ C_ 0.643067 0.9955 0.419371 -0.08735
C_ C_ 0.638203 0.941427 0.416818 -0.05681
C_ C_ 0.612889 0.920908 0.393649 -0.05681
C_ C_ 0.593087 0.953458 0.372458 -0.08735
C_ C_ 0.602604 1.00651378 0.372857 -0.08735
C_ C_ 0.648624 0.910679 0.441011 -0.08735
C_ C_ 0.639378 0.857993 0.438849 -0.08735
C_ C_ 0.619365 0.835834 0.412992 -0.05681
C_ C_ 0.603446 0.866881 0.391522 -0.08735
C_ C_ 0.526229 0.675403 0.407496 0.68181
C_ C_ 0.596671 0.621539 0.48005 0.1947
C_ C_ 0.608998 0.599239 0.00882181 -0.08735
C_ C_ 0.620686 0.629287 0.0319712 -0.08735
C_ C_ 0.645586 0.67619 0.0266343 -0.05681
C_ C_ 0.654109 0.692352 0.997757 0.18498
C_ C_ 0.672723 0.733642 0.497173 -0.08735
C_ C_ 0.696558 0.769852 0.0166389 -0.08735
C_ C_ 0.690241 0.749897 0.045183 -0.08735
C_ C_ 0.662728 0.705502 0.0505044 0.18498
C_ C_ 0.697073 0.684679 0.0982843 0.44287
C_ C_ 0.607139 0.696771 0.0925943 0.44287
C_ C_ 0.597724 0.690389 0.121513 -0.05681
C_ C_ 0.54863 0.692194 0.133362 -0.08735
C_ C_ 0.541198 0.685739 0.16313 -0.08735
C_ C_ 0.5832 0.679596 0.181951 -0.05681
C_ C_ 0.632935 0.679215 0.171346 -0.05681
C_ C_ 0.641202 0.687767 0.141066 -0.05681
C_ C_ 0.690377 0.683331 0.128875 -0.05681
C_ C_ 0.731898 0.68267 0.148098 -0.08735
C_ C_ 0.724216 0.675105 0.177428 -0.08735
C_ C_ 0.675588 0.671671 0.189523 -0.05681
C_ C_ 0.6657 0.66275 0.217789 0.44287
C_ C_ 0.576486 0.676578 0.211268 0.44287
C_ C_ 0.608397 0.653761 0.258831 0.18498
C_ C_ 0.586339 0.604963 0.265392 -0.08735
C_ C_ 0.570689 0.592316 0.293014 -0.08735
C_ C_ 0.58313 0.623909 0.316343 -0.08735
C_ C_ 0.606652 0.67067 0.312375 0.18498
C_ C_ 0.619632 0.685697 0.282449 -0.05681
C_ C_ 0.647304 0.731229 0.280512 -0.08735
C_ C_ 0.659989 0.761804 0.304472 -0.08735
C_ C_ 0.646041 0.744273 0.331733 0.1947
C_ C_ 0.770662 0.813938 0.155628 0.68181
C_ C_ 0.714968 0.813218 0.152134 -0.05681
C_ C_ 0.68151 0.814748 0.176147 -0.08735
C_ C_ 0.629078 0.81539 0.1732 -0.05681
C_ C_ 0.60791 0.815289 0.144636 -0.05681
C_ C_ 0.639964 0.812262 0.121428 -0.08735
C_ C_ 0.692458 0.812281 0.125821 -0.08735
C_ C_ 0.598002 0.821814 0.197123 -0.08735
C_ C_ 0.545976 0.830766 0.192933 -0.08735
C_ C_ 0.524134 0.82769 0.165431 -0.05681
C_ C_ 0.555587 0.822593 0.141121 -0.08735
C_ C_ 0.875816 0.72725 0.162404 0.68181
C_ C_ 0.855182 0.919825 0.144993 0.68181
C_ C_ 0.859626 0.978321 0.143635 -0.05681
C_ C_ 0.861487 0.514056 0.173075 -0.08735
C_ C_ 0.869801 0.564944 0.170378 -0.05681
C_ C_ 0.877497 0.587846 0.143153 -0.05681
C_ C_ 0.884355 0.558266 0.119656 -0.08735
C_ C_ 0.845637 1.00473397 0.118102 -0.08735
C_ C_ 0.866622 0.596353 0.194542 -0.08735
C_ C_ 0.871926 0.648346 0.191616 -0.08735
C_ C_ 0.873572 0.672383 0.164675 -0.05681
C_ C_ 0.870314 0.641403 0.140146 -0.08735
C_ C_ 0.965038 0.837118 0.154614 0.68181
C_ C_ 0.886119 0.885597 0.23113 0.1947
C_ C_ 0.904378 0.896408 0.258818 -0.08735
C_ C_ 0.886047 0.866783 0.281854 -0.08735
C_ C_ 0.858334 0.820767 0.27701 -0.05681
C_ C_ 0.8461 0.81036 0.247521 0.18498
C_ C_ 0.817665 0.765915 0.242483 -0.08735
C_ C_ 0.798818 0.734963 0.264388 -0.08735
C_ C_ 0.812552 0.743311 0.29351 -0.08735
C_ C_ 0.840511 0.787486 0.299626 0.18498
C_ C_ 0.811059 0.816716 0.345629 0.44287
C_ C_ 0.896421 0.790509 0.340625 0.44287
C_ C_ 0.905721 0.800033 0.369653 -0.05681
C_ C_ 0.953953 0.797488 0.382873 -0.08735
C_ C_ 0.960251 0.797589 0.413386 -0.08735
C_ C_ 0.918505 0.801967 0.432286 -0.05681
C_ C_ 0.870352 0.809858 0.418813 -0.05681
C_ C_ 0.863748 0.807545 0.388212 -0.05681
C_ C_ 0.814795 0.815231 0.376165 -0.05681
C_ C_ 0.773179 0.820624 0.393542 -0.08735
C_ C_ 0.781175 0.828714 0.424115 -0.08735
C_ C_ 0.827712 0.817234 0.43688 -0.05681
C_ C_ 0.834544 0.823335 0.466385 0.44287
C_ C_ 0.923128 0.801914 0.461779 0.44287
C_ C_ 0.884637 0.844182 0.00619984 0.18498
C_ C_ 0.912722 0.88934 0.0122259 -0.08735
C_ C_ 0.925887 0.904473 0.0400428 -0.08735
C_ C_ 0.913504 0.871187 0.0630017 -0.08735
C_ C_ 0.883961 0.828209 0.0583971 0.18498
C_ C_ 0.872803 0.812467 0.0301162 -0.05681
C_ C_ 0.8524 0.764835 0.0267409 -0.08735
C_ C_ 0.83449 0.734199 0.0491775 -0.08735
C_ C_ 0.836581 0.756173 0.0768133 0.1947
N_ N_ 0.619734 0.667009 0.476754 -0.29468
N_ N_ 0.654742 0.690202 0.0807178 -0.17154
N_ N_ 0.617516 0.667678 0.2287 -0.17154
N_ N_ 0.623029 0.697338 0.335029 -0.29468
N_ N_ 0.863034 0.840828 0.225892 -0.29468
N_ N_ 0.849341 0.797794 0.328683 -0.17154
N_ N_ 0.88231 0.817504 0.478544 -0.17154
N_ N_ 0.866673 0.799568 0.08164 -0.29468
O_ O_ 0.703897 0.683539 0.429041 -0.58347
O_ O_ 0.694429 0.692054 0.38318 -0.58347
O_ O_ 0.619343 0.751545 0.435376 -0.58347
O_ O_ 0.605324 0.756752 0.388748 -0.58347
O_ O_ 0.639116 0.601817 0.422003 -0.58347
O_ O_ 0.63031 0.604612 0.376267 -0.58347
O_ O_ 0.554742 0.669948 0.427525 -0.58347
O_ O_ 0.543456 0.66872 0.382675 -0.58347
O_ O_ 0.569593 0.708303 0.0753688 -0.46727
O_ O_ 0.739434 0.672352 0.086009 -0.46727
O_ O_ 0.530023 0.673939 0.220867 -0.46727
O_ O_ 0.701078 0.643534 0.234098 -0.46727
O_ O_ 0.789816 0.807962 0.180045 -0.58347
O_ O_ 0.797385 0.809477 0.133848 -0.58347
O_ O_ 0.879718 0.753923 0.183794 -0.58347
O_ O_ 0.879154 0.746305 0.137307 -0.58347
O_ O_ 0.84587 0.899137 0.168488 -0.58347
O_ O_ 0.868836 0.892408 0.124145 -0.58347
O_ O_ 0.936553 0.850615 0.174664 -0.58347
O_ O_ 0.945729 0.823955 0.130208 -0.58347
O_ O_ 0.928084 0.764376 0.326216 -0.46727
O_ O_ 0.766205 0.823451 0.33411 -0.46727
O_ O_ 0.96202 0.779524 0.473402 -0.46727
O_ O_ 0.798107 0.843801 0.48069 -0.46727
Zn Zn 0.633239 0.685788 0.88098 0.90689
Zn Zn 0.644356 0.673538 0.92757 0.90689
Zn Zn 0.872114 0.807492 0.63009 0.90689
Zn Zn 0.861534 0.812476 0.678092 0.90689
H_ H_ 0.805214 0.693624 0.948334 0.11455
H_ H_ 0.885554 0.67173 0.851217 0.11455
H_ H_ 0.792458 0.673978 0.855299 0.11455
H_ H_ 0.893786 0.706391 0.969706 0.11455
H_ H_ 0.986043 0.715575 0.958227 0.11455
H_ H_ 0.96513 0.660997 0.874048 0.11455
H_ H_ 0.656342 0.505546 0.940068 0.11455
H_ H_ 0.63187 0.935822 0.846065 0.11455
H_ H_ 0.651597 0.523663 0.849867 0.11455
H_ H_ 0.642445 0.924903 0.966814 0.11455
H_ H_ 0.625417 0.834112 0.962623 0.11455
H_ H_ 0.644727 0.849268 0.871012 0.11455
H_ H_ 0.607512 0.590095 0.963741 0.11455
H_ H_ 0.567892 0.565599 0.510613 0.11455
H_ H_ 0.606177 0.608814 0.552518 0.11455
H_ H_ 0.68232 0.75757 0.97194 0.11455
H_ H_ 0.713459 0.792542 0.51706 0.11455
H_ H_ 0.702831 0.757123 0.566655 0.11455
H_ H_ 0.508958 0.700145 0.620739 0.11455
H_ H_ 0.490388 0.678721 0.671224 0.11455
H_ H_ 0.75672 0.659085 0.639469 0.11455
H_ H_ 0.742898 0.648701 0.692206 0.11455
H_ H_ 0.550051 0.590095 0.750986 0.11455
H_ H_ 0.532315 0.573932 0.803384 0.11455
H_ H_ 0.56716 0.627413 0.839901 0.11455
H_ H_ 0.652089 0.747581 0.755538 0.11455
H_ H_ 0.703874 0.783732 0.796389 0.11455
H_ H_ 0.690607 0.749024 0.845382 0.11455
H_ H_ 0.697848 0.801647 0.694327 0.11455
H_ H_ 0.61926 0.828038 0.597966 0.11455
H_ H_ 0.715139 0.83229 0.60406 0.11455
H_ H_ 0.608047 0.799819 0.714541 0.11455
H_ H_ 0.515983 0.796693 0.707124 0.11455
H_ H_ 0.536179 0.812856 0.614668 0.11455
H_ H_ 0.841756 0.978247 0.690942 0.11455
H_ H_ 0.886527 0.555535 0.59666 0.11455
H_ H_ 0.841377 0.968355 0.597102 0.11455
H_ H_ 0.844474 0.565858 0.714079 0.11455
H_ H_ 0.860097 0.65595 0.707393 0.11455
H_ H_ 0.891261 0.637085 0.618883 0.11455
H_ H_ 0.902021 0.897123 0.711198 0.11455
H_ H_ 0.910215 0.9332 0.761202 0.11455
H_ H_ 0.864681 0.891799 0.800327 0.11455
H_ H_ 0.824416 0.738626 0.723043 0.11455
H_ H_ 0.793408 0.689187 0.762228 0.11455
H_ H_ 0.807332 0.717699 0.811404 0.11455
H_ H_ 0.982229 0.812312 0.870893 0.11455
H_ H_ 0.990762 0.809326 0.921567 0.11455
H_ H_ 0.73504 0.860776 0.884298 0.11455
H_ H_ 0.747385 0.864207 0.935873 0.11455
H_ H_ 0.920442 0.913093 0.993921 0.11455
H_ H_ 0.968421 0.91253 0.544931 0.11455
H_ H_ 0.92645 0.868282 0.586989 0.11455
H_ H_ 0.825742 0.75041 0.508904 0.11455
H_ H_ 0.785072 0.712205 0.550056 0.11455
H_ H_ 0.80716 0.743454 0.595864 0.11455
C_ C_ 0.734614 0.687213 0.903325 0.68181
C_ C_ 0.791635 0.681958 0.902148 -0.05681
C_ C_ 0.822108 0.688134 0.926912 -0.08735
C_ C_ 0.876275 0.689031 0.924708 -0.05681
C_ C_ 0.897997 0.68084 0.896467 -0.05681
C_ C_ 0.867404 0.67549 0.872366 -0.08735
C_ C_ 0.814162 0.676676 0.875311 -0.08735
C_ C_ 0.909251 0.695361 0.948329 -0.08735
C_ C_ 0.961278 0.696838 0.942567 -0.08735
C_ C_ 0.982801 0.682811 0.916347 -0.05681
C_ C_ 0.949553 0.674009 0.89356 -0.08735
C_ C_ 0.632664 0.778605 0.911541 0.68181
C_ C_ 0.645511 0.581915 0.898206 0.68181
C_ C_ 0.640513 0.524276 0.896018 -0.05681
C_ C_ 0.639553 -0.004997999999999947 0.925021 -0.08735
C_ C_ 0.64298 0.941754 0.92187 -0.05681
C_ C_ 0.63656 0.918991 0.894241 -0.05681
C_ C_ 0.637158 0.949673 0.868176 -0.08735
C_ C_ 0.637319 0.00162618 0.872302 -0.08735
C_ C_ 0.642054 0.910816 0.945695 -0.08735
C_ C_ 0.632107 0.857871 0.94332 -0.08735
C_ C_ 0.629301 0.834908 0.915669 -0.05681
C_ C_ 0.633732 0.867197 0.891415 -0.08735
C_ C_ 0.542845 0.67627 0.905638 0.68181
C_ C_ 0.618226 0.614781 0.980752 0.1947
C_ C_ 0.590656 0.60083 0.507579 -0.08735
C_ C_ 0.609477 0.626261 0.530916 -0.08735
C_ C_ 0.631393 0.673116 0.528222 -0.05681
C_ C_ 0.641108 0.692345 0.50031 0.18498
C_ C_ 0.676077 0.741981 0.993143 -0.08735
C_ C_ 0.692105 0.75818 0.520657 -0.08735
C_ C_ 0.681608 0.740362 0.547664 -0.08735
C_ C_ 0.652473 0.697388 0.551743 0.18498
C_ C_ 0.683806 0.670427 0.599065 0.44287
C_ C_ 0.59667 0.68442 0.592217 0.44287
C_ C_ 0.58779 0.682723 0.622315 -0.05681
C_ C_ 0.538072 0.684034 0.633977 -0.08735
C_ C_ 0.529503 0.678722 0.66292 -0.08735
C_ C_ 0.570813 0.675583 0.682372 -0.05681
C_ C_ 0.620494 0.673016 0.670531 -0.05681
C_ C_ 0.628402 0.676002 0.641209 -0.05681
C_ C_ 0.677366 0.668372 0.629969 -0.05681
C_ C_ 0.719485 0.667065 0.648356 -0.08735
C_ C_ 0.712677 0.664925 0.678069 -0.08735
C_ C_ 0.663043 0.66954 0.688438 -0.05681
C_ C_ 0.653948 0.663497 0.718212 0.44287
C_ C_ 0.564472 0.671919 0.711772 0.44287
C_ C_ 0.597685 0.65634 0.758981 0.18498
C_ C_ 0.569177 0.614462 0.7672 -0.08735
C_ C_ 0.561474 0.600772 0.796584 -0.08735
C_ C_ 0.580691 0.631486 0.817583 -0.08735
C_ C_ 0.611924 0.673893 0.811551 0.18498
C_ C_ 0.619911 0.685933 0.782299 -0.05681
C_ C_ 0.652911 0.72733 0.776522 -0.08735
C_ C_ 0.676253 0.753843 0.800166 -0.08735
C_ C_ 0.671145 0.734312 0.827826 0.1947
C_ C_ 0.768896 0.805923 0.65186 0.68181
C_ C_ 0.71243 0.815281 0.649068 -0.05681
C_ C_ 0.681599 0.803629 0.672791 -0.08735
C_ C_ 0.627227 0.803731 0.668969 -0.05681
C_ C_ 0.605769 0.814964 0.642054 -0.05681
C_ C_ 0.637194 0.817781 0.617893 -0.08735
C_ C_ 0.691299 0.819051 0.621719 -0.08735
C_ C_ 0.594035 0.802893 0.69296 -0.08735
C_ C_ 0.540915 0.801338 0.68899 -0.08735
C_ C_ 0.52005 0.810051 0.661328 -0.05681
C_ C_ 0.552838 0.81061 0.637233 -0.08735
C_ C_ 0.872597 0.711691 0.659268 0.68181
C_ C_ 0.856115 0.907583 0.644916 0.68181
C_ C_ 0.849389 0.963151 0.643048 -0.05681
C_ C_ 0.862249 0.495038 0.670934 -0.08735
C_ C_ 0.858782 0.548363 0.66787 -0.05681
C_ C_ 0.866693 0.570596 0.639918 -0.05681
C_ C_ 0.873802 0.539285 0.615495 -0.08735
C_ C_ 0.844052 0.988858 0.616659 -0.08735
C_ C_ 0.853497 0.578123 0.692566 -0.08735
C_ C_ 0.864064 0.630723 0.688742 -0.08735
C_ C_ 0.873733 0.654199 0.662737 -0.05681
C_ C_ 0.876951 0.622127 0.638307 -0.08735
C_ C_ 0.963123 0.816113 0.654121 0.68181
C_ C_ 0.88341 0.878196 0.729427 0.1947
C_ C_ 0.88564 0.900139 0.756185 -0.08735
C_ C_ 0.868768 0.873149 0.780099 -0.08735
C_ C_ 0.850775 0.823634 0.775874 -0.05681
C_ C_ 0.848755 0.80481 0.748138 0.18498
C_ C_ 0.833212 0.752875 0.744442 -0.08735
C_ C_ 0.81123 0.72509 0.767023 -0.08735
C_ C_ 0.813327 0.74558 0.793886 -0.08735
C_ C_ 0.834276 0.793374 0.799558 0.18498
C_ C_ 0.802795 0.818575 0.845807 0.44287
C_ C_ 0.892037 0.799451 0.840486 0.44287
C_ C_ 0.900676 0.80729 0.870763 -0.05681
C_ C_ 0.947547 0.808867 0.883053 -0.08735
C_ C_ 0.954672 0.81104 0.91237 -0.08735
C_ C_ 0.912569 0.818182 0.930232 -0.05681
C_ C_ 0.86246 0.820642 0.918912 -0.05681
C_ C_ 0.857102 0.811721 0.888602 -0.05681
C_ C_ 0.810377 0.827483 0.874662 -0.05681
C_ C_ 0.771641 0.848784 0.892606 -0.08735
C_ C_ 0.777266 0.849868 0.922476 -0.08735
C_ C_ 0.821497 0.833453 0.935852 -0.05681
C_ C_ 0.828187 0.83612 0.966237 0.44287
C_ C_ 0.916572 0.820582 0.960489 0.44287
C_ C_ 0.890583 0.831987 0.508458 0.18498
C_ C_ 0.928496 0.867592 0.513881 -0.08735
C_ C_ 0.938565 0.884154 0.540779 -0.08735
C_ C_ 0.915395 0.86005 0.563945 -0.08735
C_ C_ 0.880221 0.821206 0.559708 0.18498
C_ C_ 0.86367 0.809191 0.531786 -0.05681
C_ C_ 0.829999 0.768497 0.529047 -0.08735
C_ C_ 0.807947 0.746564 0.552269 -0.08735
C_ C_ 0.822021 0.763401 0.578661 0.1947
N_ N_ 0.637141 0.662881 0.975897 -0.29468
N_ N_ 0.644485 0.681251 0.581517 -0.17154
N_ N_ 0.605353 0.666026 0.729123 -0.17154
N_ N_ 0.633544 0.700949 0.832885 -0.29468
N_ N_ 0.860547 0.833605 0.724796 -0.29468
N_ N_ 0.843942 0.805304 0.829258 -0.17154
N_ N_ 0.874833 0.827603 0.977793 -0.17154
N_ N_ 0.860665 0.796811 0.58295 -0.29468
O_ O_ 0.713989 0.692012 0.928152 -0.58347
O_ O_ 0.707477 0.684934 0.881147 -0.58347
O_ O_ 0.628217 0.748856 0.932599 -0.58347
O_ O_ 0.634051 0.759653 0.88716 -0.58347
O_ O_ 0.659511 0.599197 0.921564 -0.58347
O_ O_ 0.632293 0.611178 0.87782 -0.58347
O_ O_ 0.570936 0.659847 0.925153 -0.58347
O_ O_ 0.559674 0.695425 0.882849 -0.58347
O_ O_ 0.55629 0.686206 0.574447 -0.46727
O_ O_ 0.729315 0.662184 0.589273 -0.46727
O_ O_ 0.519625 0.679483 0.723252 -0.46727
O_ O_ 0.692102 0.6564 0.73704 -0.46727
O_ O_ 0.789006 0.798785 0.676509 -0.58347
O_ O_ 0.795435 0.805076 0.629492 -0.58347
O_ O_ 0.874494 0.73872 0.681815 -0.58347
O_ O_ 0.882157 0.731934 0.635178 -0.58347
O_ O_ 0.850315 0.885612 0.668666 -0.58347
O_ O_ 0.866142 0.881084 0.62274 -0.58347
O_ O_ 0.933543 0.825153 0.674113 -0.58347
O_ O_ 0.947043 0.810812 0.629146 -0.58347
O_ O_ 0.930683 0.793191 0.82306 -0.46727
O_ O_ 0.758901 0.823046 0.834947 -0.46727
O_ O_ 0.961983 0.820013 0.972117 -0.46727
O_ O_ 0.788341 0.836303 0.983286 -0.46727
