_cell_length_a 26.376
_cell_length_b 26.400000238300095
_cell_length_c 46.67800035477134
_cell_angle_alpha 90.00700052986613
_cell_angle_beta 89.99899961309502
_cell_angle_gamma 90.45000003183146
_symmetry_space_group_name_H-M         'P 1'
_symmetry_Int_Tables_number            1
loop_
_symmetry_equiv_pos_as_xyz
   'x, y, z'
                         
loop_
_atom_site_label
_atom_site_type_symbol
_atom_site_fract_x 
_atom_site_fract_y
_atom_site_fract_z
_atom_site_charge
Zn Zn 0.12271 0.178191 0.380366 0.90689
Zn Zn 0.131615 0.175585 0.431151 0.90689
Zn Zn 0.374955 0.304603 0.134102 0.90689
Zn Zn 0.365238 0.31385 0.180202 0.90689
H_ H_ 0.297946 0.185756 0.444141 0.11455
H_ H_ 0.365991 0.150273 0.34706 0.11455
H_ H_ 0.273387 0.157555 0.352586 0.11455
H_ H_ 0.380836 0.198113 0.462747 0.11455
H_ H_ 0.474464 0.194833 0.456253 0.11455
H_ H_ 0.452364 0.163868 0.366793 0.11455
H_ H_ 0.115099 0.00844377 0.44435 0.11455
H_ H_ 0.169336 0.430433 0.348355 0.11455
H_ H_ 0.142011 0.0189034 0.355066 0.11455
H_ H_ 0.0959402 0.431191 0.459246 0.11455
H_ H_ 0.0975126 0.336478 0.455943 0.11455
H_ H_ 0.143561 0.346792 0.368259 0.11455
H_ H_ 0.0842109 0.103755 0.464095 0.11455
H_ H_ 0.0552169 0.0712568 0.0118095 0.11455
H_ H_ 0.0987826 0.112186 0.0539861 0.11455
H_ H_ 0.180267 0.252452 0.474562 0.11455
H_ H_ 0.219532 0.281862 0.0123757 0.11455
H_ H_ 0.186942 0.268611 0.0614511 0.11455
H_ H_ 0.0114114 0.20855 0.122362 0.11455
H_ H_ -0.0012729999999999686 0.201073 0.175254 0.11455
H_ H_ 0.251641 0.129765 0.133352 0.11455
H_ H_ 0.248079 0.13423 0.186954 0.11455
H_ H_ 0.0481971 0.0928665 0.246289 0.11455
H_ H_ 0.0305064 0.0655505 0.296794 0.11455
H_ H_ 0.0673491 0.110543 0.33651 0.11455
H_ H_ 0.154807 0.238701 0.254826 0.11455
H_ H_ 0.197396 0.274148 0.29709 0.11455
H_ H_ 0.182261 0.24222 0.34539 0.11455
H_ H_ 0.202646 0.313102 0.198242 0.11455
H_ H_ 0.127211 0.326122 0.100843 0.11455
H_ H_ 0.215442 0.307022 0.106389 0.11455
H_ H_ 0.116864 0.30747 0.218661 0.11455
H_ H_ 0.0224784 0.314615 0.212475 0.11455
H_ H_ 0.0430022 0.323729 0.121006 0.11455
H_ H_ 0.33017 0.482882 0.184548 0.11455
H_ H_ 0.353071 0.0597846 0.0975671 0.11455
H_ H_ 0.413257 0.464302 0.106049 0.11455
H_ H_ 0.346751 0.0621346 0.215 0.11455
H_ H_ 0.361109 0.154464 0.209805 0.11455
H_ H_ 0.357821 0.139277 0.118227 0.11455
H_ H_ 0.416788 0.394301 0.213256 0.11455
H_ H_ 0.429428 0.425914 0.262474 0.11455
H_ H_ 0.391228 0.380189 0.304268 0.11455
H_ H_ 0.310162 0.254114 0.223214 0.11455
H_ H_ 0.292438 0.192402 0.260282 0.11455
H_ H_ 0.323599 0.209175 0.310433 0.11455
H_ H_ 0.486346 0.298399 0.377023 0.11455
H_ H_ 0.489148 0.297634 0.429317 0.11455
H_ H_ 0.226151 0.30603 0.38428 0.11455
H_ H_ 0.235544 0.319009 0.435759 0.11455
H_ H_ 0.420715 0.409328 0.49659 0.11455
H_ H_ 0.479964 0.393583 0.0486076 0.11455
H_ H_ 0.426675 0.369734 0.0875718 0.11455
H_ H_ 0.3346 0.242289 0.00816134 0.11455
H_ H_ 0.302377 0.196047 0.0510524 0.11455
H_ H_ 0.30817 0.236817 0.0993741 0.11455
C_ C_ 0.225638 0.177649 0.403187 0.68181
C_ C_ 0.280264 0.172327 0.398596 -0.05681
C_ C_ 0.31196 0.179542 0.422211 -0.08735
C_ C_ 0.365318 0.176952 0.418519 -0.05681
C_ C_ 0.386206 0.165496 0.391761 -0.05681
C_ C_ 0.352713 0.160773 0.36873 -0.08735
C_ C_ 0.299465 0.160731 0.371521 -0.08735
C_ C_ 0.396579 0.189406 0.442033 -0.08735
C_ C_ 0.45018 0.187041 0.438392 -0.08735
C_ C_ 0.471403 0.178049 0.411524 -0.05681
C_ C_ 0.43869 0.169329 0.388319 -0.08735
C_ C_ 0.122629 0.275635 0.410433 0.68181
C_ C_ 0.128806 0.0758874 0.401696 0.68181
C_ C_ 0.127024 0.0193937 0.399864 -0.05681
C_ C_ 0.120214 0.493374 0.41817 -0.08735
C_ C_ 0.126198 0.441161 0.416719 -0.05681
C_ C_ 0.141928 0.41745 0.391963 -0.05681
C_ C_ 0.152773 0.448729 0.367584 -0.08735
C_ C_ 0.16034 0.499661 0.371005 -0.08735
C_ C_ 0.105288 0.411737 0.439022 -0.08735
C_ C_ 0.113592 0.358652 0.43874 -0.08735
C_ C_ 0.125724 0.3323 0.413086 -0.05681
C_ C_ 0.139415 0.363804 0.389288 -0.08735
C_ C_ 0.0270779 0.184241 0.406459 0.68181
C_ C_ 0.101696 0.123046 0.48256 0.1947
C_ C_ 0.0845574 0.0992826 0.00869769 -0.08735
C_ C_ 0.107161 0.122639 0.03127 -0.08735
C_ C_ 0.139133 0.164831 0.0276375 -0.05681
C_ C_ 0.147764 0.178182 0.999063 0.18498
C_ C_ 0.175869 0.238633 0.496203 -0.08735
C_ C_ 0.196931 0.248825 0.0167135 -0.08735
C_ C_ 0.177302 0.241718 0.0444246 -0.08735
C_ C_ 0.149683 0.197436 0.0509764 0.18498
C_ C_ 0.178724 0.167517 0.0966213 0.44287
C_ C_ 0.0953319 0.198821 0.0923222 0.44287
C_ C_ 0.0893908 0.195185 0.122157 -0.05681
C_ C_ 0.0442701 0.203645 0.135447 -0.08735
C_ C_ 0.0362181 0.19271 0.164389 -0.08735
C_ C_ 0.077728 0.182603 0.182085 -0.05681
C_ C_ 0.125226 0.173522 0.169929 -0.05681
C_ C_ 0.131485 0.178641 0.139318 -0.05681
C_ C_ 0.176355 0.164499 0.127228 -0.05681
C_ C_ 0.217237 0.142909 0.144113 -0.08735
C_ C_ 0.214205 0.146054 0.174522 -0.08735
C_ C_ 0.167306 0.157883 0.186609 -0.05681
C_ C_ 0.158789 0.154585 0.21695 0.44287
C_ C_ 0.072002 0.181655 0.212455 0.44287
C_ C_ 0.101385 0.149309 0.259008 0.18498
C_ C_ 0.0711762 0.106559 0.263951 -0.08735
C_ C_ 0.0577926 0.0943073 0.292735 -0.08735
C_ C_ 0.0800952 0.119381 0.315094 -0.08735
C_ C_ 0.108041 0.163294 0.310303 0.18498
C_ C_ 0.11551 0.179661 0.281802 -0.05681
C_ C_ 0.14677 0.222521 0.276122 -0.08735
C_ C_ 0.170237 0.246181 0.299307 -0.08735
C_ C_ 0.15906 0.23 0.327515 0.1947
C_ C_ 0.27253 0.312584 0.157002 0.68181
C_ C_ 0.216565 0.311784 0.152838 -0.05681
C_ C_ 0.18442 0.312362 0.176339 -0.08735
C_ C_ 0.13228 0.31371 0.173632 -0.05681
C_ C_ 0.110116 0.318957 0.147022 -0.05681
C_ C_ 0.142989 0.320475 0.122245 -0.08735
C_ C_ 0.193899 0.310814 0.12492 -0.08735
C_ C_ 0.0996346 0.313108 0.197064 -0.08735
C_ C_ 0.0467463 0.314689 0.194033 -0.08735
C_ C_ 0.0249952 0.319304 0.165863 -0.05681
C_ C_ 0.0582446 0.321751 0.142586 -0.08735
C_ C_ 0.366235 0.210185 0.162075 0.68181
C_ C_ 0.365078 0.408491 0.148828 0.68181
C_ C_ 0.372751 0.466323 0.145999 -0.05681
C_ C_ 0.352776 -0.00347900000000001 0.171628 -0.08735
C_ C_ 0.35195 0.0490965 0.169406 -0.05681
C_ C_ 0.353593 0.0716417 0.141769 -0.05681
C_ C_ 0.353988 0.0406901 0.117325 -0.08735
C_ C_ 0.397422 0.488214 0.121793 -0.08735
C_ C_ 0.351055 0.0788485 0.193075 -0.08735
C_ C_ 0.361202 0.131275 0.190565 -0.08735
C_ C_ 0.363793 0.154574 0.163873 -0.05681
C_ C_ 0.35516 0.124633 0.139366 -0.08735
C_ C_ 0.468685 0.314767 0.157565 0.68181
C_ C_ 0.400826 0.372498 0.231875 0.1947
C_ C_ 0.407899 0.390307 0.259419 -0.08735
C_ C_ 0.383841 0.368048 0.282457 -0.08735
C_ C_ 0.35828 0.321333 0.279016 -0.05681
C_ C_ 0.35258 0.304644 0.249959 0.18498
C_ C_ 0.324311 0.261104 0.243639 -0.08735
C_ C_ 0.313294 0.225693 0.26576 -0.08735
C_ C_ 0.329615 0.237544 0.293444 -0.08735
C_ C_ 0.349286 0.284477 0.301149 0.18498
C_ C_ 0.311362 0.303504 0.346738 0.44287
C_ C_ 0.400401 0.290687 0.344703 0.44287
C_ C_ 0.404536 0.29616 0.37516 -0.05681
C_ C_ 0.452043 0.299476 0.388817 -0.08735
C_ C_ 0.454381 0.302001 0.419254 -0.08735
C_ C_ 0.409984 0.309302 0.434709 -0.05681
C_ C_ 0.362708 0.311072 0.421216 -0.05681
C_ C_ 0.359309 0.304264 0.390849 -0.05681
C_ C_ 0.313458 0.307561 0.376581 -0.05681
C_ C_ 0.267119 0.308593 0.393301 -0.08735
C_ C_ 0.270675 0.31386 0.42367 -0.08735
C_ C_ 0.318439 0.316332 0.437398 -0.05681
C_ C_ 0.323475 0.329038 0.466693 0.44287
C_ C_ 0.413088 0.316474 0.464374 0.44287
C_ C_ 0.393101 0.325315 0.00987809 0.18498
C_ C_ 0.433045 0.362126 0.0165671 -0.08735
C_ C_ 0.446115 0.373919 0.0445054 -0.08735
C_ C_ 0.415074 0.356865 0.0671216 -0.08735
C_ C_ 0.383301 0.316609 0.0634153 0.18498
C_ C_ 0.370393 0.300439 0.0336642 -0.05681
C_ C_ 0.338922 0.25895 0.0292046 -0.08735
C_ C_ 0.321726 0.231609 0.0543732 -0.08735
C_ C_ 0.328767 0.251454 0.0816027 0.1947
N_ N_ 0.129175 0.164645 0.478357 -0.29468
N_ N_ 0.140039 0.183909 0.0801017 -0.17154
N_ N_ 0.111151 0.163113 0.229148 -0.17154
N_ N_ 0.124596 0.192214 0.332862 -0.29468
N_ N_ 0.371847 0.33217 0.227081 -0.29468
N_ N_ 0.354079 0.295437 0.331103 -0.17154
N_ N_ 0.370202 0.329183 0.479744 -0.17154
N_ N_ 0.362664 0.290981 0.0857238 -0.29468
O_ O_ 0.203956 0.188382 0.426921 -0.58347
O_ O_ 0.198681 0.173794 0.380733 -0.58347
O_ O_ 0.123518 0.247742 0.43233 -0.58347
O_ O_ 0.127563 0.254731 0.386203 -0.58347
O_ O_ 0.144784 0.0979297 0.4251 -0.58347
O_ O_ 0.118528 0.0995124 0.37916 -0.58347
O_ O_ 0.054011 0.168581 0.427506 -0.58347
O_ O_ 0.0453923 0.184193 0.381628 -0.58347
O_ O_ 0.0611132 0.221412 0.0761619 -0.46727
O_ O_ 0.220221 0.1499 0.0851784 -0.46727
O_ O_ 0.0283434 0.18999 0.224196 -0.46727
O_ O_ 0.195403 0.138039 0.234422 -0.46727
O_ O_ 0.29201 0.313737 0.181997 -0.58347
O_ O_ 0.299787 0.30585 0.134756 -0.58347
O_ O_ 0.366935 0.237249 0.183262 -0.58347
O_ O_ 0.373262 0.228982 0.138557 -0.58347
O_ O_ 0.357935 0.389141 0.172639 -0.58347
O_ O_ 0.370825 0.380084 0.128257 -0.58347
O_ O_ 0.438996 0.317144 0.17856 -0.58347
O_ O_ 0.449536 0.306508 0.132196 -0.58347
O_ O_ 0.4403 0.279438 0.328362 -0.46727
O_ O_ 0.267159 0.297427 0.334281 -0.46727
O_ O_ 0.452971 0.302641 0.479089 -0.46727
O_ O_ 0.282266 0.345913 0.480433 -0.46727
Zn Zn 0.11546 0.186844 0.881271 0.90689
Zn Zn 0.126344 0.171849 0.929056 0.90689
Zn Zn 0.367939 0.323011 0.632734 0.90689
Zn Zn 0.358252 0.327116 0.68072 0.90689
H_ H_ 0.292157 0.202454 0.940031 0.11455
H_ H_ 0.361965 0.153329 0.846331 0.11455
H_ H_ 0.27116 0.16135 0.85247 0.11455
H_ H_ 0.377255 0.185421 0.965851 0.11455
H_ H_ 0.468833 0.168812 0.957217 0.11455
H_ H_ 0.444903 0.152479 0.86734 0.11455
H_ H_ 0.123303 0.0146458 0.93915 0.11455
H_ H_ 0.0928679 0.431629 0.84851 0.11455
H_ H_ 0.125171 0.0228244 0.848311 0.11455
H_ H_ 0.158293 0.430521 0.959789 0.11455
H_ H_ 0.154125 0.337156 0.958697 0.11455
H_ H_ 0.101614 0.348315 0.869518 0.11455
H_ H_ 0.0679895 0.101127 0.964284 0.11455
H_ H_ 0.0588113 0.080791 0.510734 0.11455
H_ H_ 0.0952475 0.12699 0.553975 0.11455
H_ H_ 0.19276 0.229911 0.971938 0.11455
H_ H_ 0.220756 0.301811 0.515387 0.11455
H_ H_ 0.207597 0.27264 0.56444 0.11455
H_ H_ 0.0111908 0.205972 0.620168 0.11455
H_ H_ -0.008187000000000055 0.181941 0.669889 0.11455
H_ H_ 0.255713 0.15731 0.637657 0.11455
H_ H_ 0.239433 0.141215 0.690615 0.11455
H_ H_ 0.062978 0.0701504 0.752358 0.11455
H_ H_ 0.0393697 0.0566024 0.80267 0.11455
H_ H_ 0.045194 0.127497 0.835978 0.11455
H_ H_ 0.143943 0.237701 0.753509 0.11455
H_ H_ 0.181588 0.284412 0.792434 0.11455
H_ H_ 0.173507 0.25993 0.842903 0.11455
H_ H_ 0.188508 0.303967 0.695443 0.11455
H_ H_ 0.129457 0.332226 0.597267 0.11455
H_ H_ 0.219645 0.331618 0.60612 0.11455
H_ H_ 0.10654 0.303186 0.713515 0.11455
H_ H_ 0.0169429 0.309693 0.707048 0.11455
H_ H_ 0.0393944 0.325429 0.616968 0.11455
H_ H_ 0.3503 0.495206 0.693374 0.11455
H_ H_ 0.396574 0.0804307 0.594763 0.11455
H_ H_ 0.355868 0.483749 0.60308 0.11455
H_ H_ 0.358134 0.0765312 0.71247 0.11455
H_ H_ 0.362347 0.1693 0.709046 0.11455
H_ H_ 0.391503 0.163573 0.617056 0.11455
H_ H_ 0.412088 0.391408 0.719488 0.11455
H_ H_ 0.417703 0.429217 0.768383 0.11455
H_ H_ 0.365275 0.392316 0.808663 0.11455
H_ H_ 0.300022 0.255014 0.725442 0.11455
H_ H_ 0.25915 0.206675 0.767619 0.11455
H_ H_ 0.280544 0.234327 0.816213 0.11455
H_ H_ 0.461112 0.264366 0.870806 0.11455
H_ H_ 0.481883 0.265936 0.920174 0.11455
H_ H_ 0.226091 0.352459 0.892968 0.11455
H_ H_ 0.247748 0.354348 0.943764 0.11455
H_ H_ 0.453115 0.377067 -0.0011970000000000036 0.11455
H_ H_ 0.461405 0.420192 0.545112 0.11455
H_ H_ 0.426554 0.37948 0.58652 0.11455
H_ H_ 0.318977 0.259441 0.508443 0.11455
H_ H_ 0.297627 0.20888 0.551865 0.11455
H_ H_ 0.317226 0.241846 0.599544 0.11455
C_ C_ 0.220381 0.180217 0.902894 0.68181
C_ C_ 0.27441 0.178832 0.89709 -0.05681
C_ C_ 0.307529 0.183583 0.921019 -0.08735
C_ C_ 0.361173 0.176289 0.918462 -0.05681
C_ C_ 0.379896 0.16608 0.891202 -0.05681
C_ C_ 0.347365 0.167155 0.866885 -0.08735
C_ C_ 0.294618 0.163555 0.871197 -0.08735
C_ C_ 0.392485 0.178503 0.943143 -0.08735
C_ C_ 0.444062 0.168632 0.93883 -0.08735
C_ C_ 0.464689 0.161633 0.91147 -0.05681
C_ C_ 0.43183 0.159478 0.8881 -0.08735
C_ C_ 0.128326 0.278438 0.910071 0.68181
C_ C_ 0.122526 0.0803489 0.898105 0.68181
C_ C_ 0.128956 0.0253166 0.894544 -0.05681
C_ C_ 0.145177 0.494217 0.917699 -0.08735
C_ C_ 0.134228 0.441347 0.917437 -0.05681
C_ C_ 0.11733 0.418079 0.891928 -0.05681
C_ C_ 0.105373 0.448855 0.86838 -0.08735
C_ C_ 0.117604 0.502444 0.869692 -0.08735
C_ C_ 0.148529 0.411087 0.940186 -0.08735
C_ C_ 0.145088 0.359495 0.939944 -0.08735
C_ C_ 0.127106 0.334449 0.9141 -0.05681
C_ C_ 0.112879 0.36342 0.889735 -0.08735
C_ C_ 0.0247189 0.182928 0.907819 0.68181
C_ C_ 0.0919228 0.116413 0.981237 0.1947
C_ C_ 0.09014 0.105957 0.510237 -0.08735
C_ C_ 0.106537 0.136696 0.53217 -0.08735
C_ C_ 0.137603 0.17982 0.528259 -0.05681
C_ C_ 0.147367 0.194451 0.500784 0.18498
C_ C_ 0.17969 0.219894 0.993548 -0.08735
C_ C_ 0.198094 0.266384 0.518573 -0.08735
C_ C_ 0.192569 0.249493 0.546232 -0.08735
C_ C_ 0.159405 0.207816 0.551702 0.18498
C_ C_ 0.185962 0.178757 0.596504 0.44287
C_ C_ 0.101928 0.208017 0.592532 0.44287
C_ C_ 0.090705 0.194644 0.621021 -0.05681
C_ C_ 0.0412665 0.189892 0.632604 -0.08735
C_ C_ 0.0321134 0.180035 0.662217 -0.08735
C_ C_ 0.0721333 0.173957 0.681109 -0.05681
C_ C_ 0.120859 0.171454 0.669777 -0.05681
C_ C_ 0.130132 0.182728 0.640369 -0.05681
C_ C_ 0.177318 0.173645 0.62788 -0.05681
C_ C_ 0.217727 0.160483 0.647013 -0.08735
C_ C_ 0.210604 0.15431 0.677246 -0.08735
C_ C_ 0.161369 0.160356 0.689043 -0.05681
C_ C_ 0.15219 0.147504 0.717702 0.44287
C_ C_ 0.0640763 0.16382 0.710693 0.44287
C_ C_ 0.0930255 0.148307 0.759204 0.18498
C_ C_ 0.0678472 0.102831 0.767394 -0.08735
C_ C_ 0.0570192 0.0918919 0.796994 -0.08735
C_ C_ 0.0679598 0.12953 0.816543 -0.08735
C_ C_ 0.102822 0.168016 0.811104 0.18498
C_ C_ 0.112525 0.180038 0.781936 -0.05681
C_ C_ 0.134133 0.22761 0.775621 -0.08735
C_ C_ 0.15274 0.256791 0.797762 -0.08735
C_ C_ 0.15078 0.240119 0.826729 0.1947
C_ C_ 0.266941 0.309355 0.656693 0.68181
C_ C_ 0.210539 0.312871 0.650906 -0.05681
C_ C_ 0.17618 0.311558 0.674219 -0.08735
C_ C_ 0.123578 0.30703 0.66893 -0.05681
C_ C_ 0.106301 0.318482 0.641449 -0.05681
C_ C_ 0.140554 0.326489 0.618944 -0.08735
C_ C_ 0.192699 0.326506 0.624024 -0.08735
C_ C_ 0.0911323 0.309074 0.691886 -0.08735
C_ C_ 0.0398716 0.315583 0.68727 -0.08735
C_ C_ 0.0194383 0.321943 0.660308 -0.05681
C_ C_ 0.0533077 0.323772 0.637501 -0.08735
C_ C_ 0.369332 0.230333 0.663227 0.68181
C_ C_ 0.356189 0.425721 0.650303 0.68181
C_ C_ 0.352409 0.483679 0.647432 -0.05681
C_ C_ 0.372225 0.0147152 0.668442 -0.08735
C_ C_ 0.370024 0.067189 0.666971 -0.05681
C_ C_ 0.381177 0.0919132 0.640547 -0.05681
C_ C_ 0.390563 0.0612136 0.616137 -0.08735
C_ C_ 0.357024 0.507443 0.621306 -0.08735
C_ C_ 0.364427 0.096927 0.691506 -0.08735
C_ C_ 0.367242 0.15029 0.68909 -0.08735
C_ C_ 0.375755 0.174714 0.663616 -0.05681
C_ C_ 0.385526 0.144564 0.638877 -0.08735
C_ C_ 0.46273 0.325615 0.657262 0.68181
C_ C_ 0.390284 0.376057 0.736528 0.1947
C_ C_ 0.390887 0.397256 0.763414 -0.08735
C_ C_ 0.362844 0.376599 0.785799 -0.08735
C_ C_ 0.338805 0.329985 0.77989 -0.05681
C_ C_ 0.331077 0.314462 0.752229 0.18498
C_ C_ 0.303335 0.268102 0.746567 -0.08735
C_ C_ 0.283922 0.239811 0.77028 -0.08735
C_ C_ 0.290636 0.258367 0.797689 -0.08735
C_ C_ 0.318724 0.301978 0.802854 0.18498
C_ C_ 0.293105 0.328762 0.850407 0.44287
C_ C_ 0.378502 0.30354 0.842742 0.44287
C_ C_ 0.38969 0.303044 0.872304 -0.05681
C_ C_ 0.434906 0.282384 0.882675 -0.08735
C_ C_ 0.444371 0.282538 0.911327 -0.08735
C_ C_ 0.411074 0.302192 0.931032 -0.05681
C_ C_ 0.364353 0.32228 0.920633 -0.05681
C_ C_ 0.352848 0.321107 0.891299 -0.05681
C_ C_ 0.302752 0.330275 0.880779 -0.05681
C_ C_ 0.265708 0.35095 0.900362 -0.08735
C_ C_ 0.277716 0.35055 0.929486 -0.08735
C_ C_ 0.328326 0.338605 0.939545 -0.05681
C_ C_ 0.340589 0.342627 0.968944 0.44287
C_ C_ 0.418425 0.301457 0.961033 0.44287
C_ C_ 0.378411 0.344454 0.509644 0.18498
C_ C_ 0.413765 0.383754 0.514529 -0.08735
C_ C_ 0.431601 0.392612 0.541284 -0.08735
C_ C_ 0.411559 0.369104 0.565811 -0.08735
C_ C_ 0.3776 0.327999 0.561559 0.18498
C_ C_ 0.361945 0.312626 0.5332 -0.05681
C_ C_ 0.331131 0.271471 0.529543 -0.08735
C_ C_ 0.318986 0.242608 0.554051 -0.08735
C_ C_ 0.327739 0.262735 0.581239 0.1947
N_ N_ 0.121876 0.15599 0.975812 -0.29468
N_ N_ 0.147656 0.195608 0.57995 -0.17154
N_ N_ 0.103499 0.154484 0.729004 -0.17154
N_ N_ 0.12159 0.19794 0.833399 -0.29468
N_ N_ 0.35672 0.33742 0.730331 -0.29468
N_ N_ 0.331319 0.315775 0.831808 -0.17154
N_ N_ 0.380835 0.316266 0.979999 -0.17154
N_ N_ 0.359117 0.302292 0.584746 -0.29468
O_ O_ 0.202101 0.174136 0.927326 -0.58347
O_ O_ 0.190703 0.188388 0.881877 -0.58347
O_ O_ 0.126171 0.249804 0.932317 -0.58347
O_ O_ 0.12029 0.260939 0.885885 -0.58347
O_ O_ 0.129207 0.100417 0.923086 -0.58347
O_ O_ 0.115451 0.109187 0.876435 -0.58347
O_ O_ 0.0503422 0.16496 0.926866 -0.58347
O_ O_ 0.0424103 0.190304 0.883359 -0.58347
O_ O_ 0.0671292 0.228118 0.576815 -0.46727
O_ O_ 0.229731 0.169289 0.584797 -0.46727
O_ O_ 0.0201819 0.174024 0.721843 -0.46727
O_ O_ 0.189524 0.138936 0.73527 -0.46727
O_ O_ 0.283409 0.31584 0.682371 -0.58347
O_ O_ 0.296385 0.315894 0.6357 -0.58347
O_ O_ 0.367646 0.254906 0.68738 -0.58347
O_ O_ 0.375809 0.252491 0.640216 -0.58347
O_ O_ 0.35485 0.405588 0.67527 -0.58347
O_ O_ 0.357207 0.397898 0.628129 -0.58347
O_ O_ 0.434204 0.331217 0.678501 -0.58347
O_ O_ 0.443088 0.324161 0.632624 -0.58347
O_ O_ 0.414038 0.291622 0.824731 -0.46727
O_ O_ 0.248053 0.342728 0.839783 -0.46727
O_ O_ 0.45166 0.268981 0.970241 -0.46727
O_ O_ 0.305188 0.358515 0.986968 -0.46727
Zn Zn 0.127689 0.6767 0.381527 0.90689
Zn Zn 0.141065 0.672575 0.430026 0.90689
Zn Zn 0.378304 0.813637 0.132107 0.90689
Zn Zn 0.369248 0.809917 0.179287 0.90689
H_ H_ 0.303986 0.683617 0.443206 0.11455
H_ H_ 0.3763 0.673475 0.344982 0.11455
H_ H_ 0.281329 0.678935 0.352868 0.11455
H_ H_ 0.385178 0.685361 0.461104 0.11455
H_ H_ 0.478145 0.682153 0.456769 0.11455
H_ H_ 0.46433 0.664257 0.365969 0.11455
H_ H_ 0.103721 0.511189 0.436819 0.11455
H_ H_ 0.138784 0.926289 0.349699 0.11455
H_ H_ 0.177034 0.521039 0.354321 0.11455
H_ H_ 0.116024 0.923967 0.467903 0.11455
H_ H_ 0.110237 0.83365 0.463478 0.11455
H_ H_ 0.14053 0.843078 0.372095 0.11455
H_ H_ 0.078309 0.606127 0.463113 0.11455
H_ H_ 0.0909128 0.561569 0.0132002 0.11455
H_ H_ 0.108125 0.618252 0.0536008 0.11455
H_ H_ 0.209548 0.725713 0.473613 0.11455
H_ H_ 0.216786 0.798297 0.0144502 0.11455
H_ H_ 0.187526 0.784358 0.0610852 0.11455
H_ H_ 0.0169916 0.706502 0.125397 0.11455
H_ H_ 0.00957811 0.701949 0.176382 0.11455
H_ H_ 0.270643 0.66384 0.133903 0.11455
H_ H_ 0.263627 0.640812 0.183501 0.11455
H_ H_ 0.0825195 0.583745 0.245346 0.11455
H_ H_ 0.0540611 0.558609 0.292802 0.11455
H_ H_ 0.0832074 0.606126 0.334854 0.11455
H_ H_ 0.180033 0.734442 0.25744 0.11455
H_ H_ 0.210281 0.775932 0.303796 0.11455
H_ H_ 0.182189 0.752282 0.349447 0.11455
H_ H_ 0.202133 0.798615 0.196319 0.11455
H_ H_ 0.132967 0.836746 0.101591 0.11455
H_ H_ 0.223997 0.823171 0.106843 0.11455
H_ H_ 0.116572 0.808942 0.217458 0.11455
H_ H_ 0.0252385 0.819339 0.209252 0.11455
H_ H_ 0.0468856 0.821172 0.1201 0.11455
H_ H_ 0.351281 0.978983 0.19306 0.11455
H_ H_ 0.421664 0.558418 0.101283 0.11455
H_ H_ 0.342895 0.968931 0.100045 0.11455
H_ H_ 0.334671 0.565918 0.207544 0.11455
H_ H_ 0.362647 0.649603 0.205814 0.11455
H_ H_ 0.405784 0.645325 0.119463 0.11455
H_ H_ 0.421042 0.880949 0.215496 0.11455
H_ H_ 0.422232 0.923836 0.262898 0.11455
H_ H_ 0.383259 0.883082 0.303695 0.11455
H_ H_ 0.307439 0.751896 0.223157 0.11455
H_ H_ 0.283319 0.695051 0.262339 0.11455
H_ H_ 0.31497 0.71491 0.31358 0.11455
H_ H_ 0.491004 0.779624 0.369263 0.11455
H_ H_ 0.507863 0.788615 0.421475 0.11455
H_ H_ 0.246712 0.834572 0.392197 0.11455
H_ H_ 0.258789 0.827875 0.440397 0.11455
H_ H_ 0.444145 0.903168 0.494526 0.11455
H_ H_ 0.423191 0.949673 0.0427828 0.11455
H_ H_ 0.41467 0.892839 0.0848833 0.11455
H_ H_ 0.354864 0.7413 0.00810006 0.11455
H_ H_ 0.319845 0.700503 0.0527675 0.11455
H_ H_ 0.339919 0.735672 0.0985679 0.11455
C_ C_ 0.231293 0.687415 0.403848 0.68181
C_ C_ 0.287467 0.688688 0.398462 -0.05681
C_ C_ 0.320394 0.684923 0.42183 -0.08735
C_ C_ 0.372294 0.680669 0.418032 -0.05681
C_ C_ 0.392283 0.674012 0.390028 -0.05681
C_ C_ 0.360415 0.674267 0.366411 -0.08735
C_ C_ 0.307195 0.680441 0.370659 -0.08735
C_ C_ 0.404918 0.677276 0.440973 -0.08735
C_ C_ 0.457577 0.677619 0.437982 -0.08735
C_ C_ 0.477945 0.675527 0.409992 -0.05681
C_ C_ 0.445474 0.669399 0.386841 -0.08735
C_ C_ 0.129671 0.77525 0.416238 0.68181
C_ C_ 0.139051 0.5796 0.397503 0.68181
C_ C_ 0.136029 0.523027 0.393997 -0.05681
C_ C_ 0.118615 0.990269 0.423667 -0.08735
C_ C_ 0.125022 0.937102 0.422581 -0.05681
C_ C_ 0.127946 0.912521 0.395304 -0.05681
C_ C_ 0.133295 0.943624 0.370257 -0.08735
C_ C_ 0.133244 0.995332 0.372932 -0.08735
C_ C_ 0.119898 0.907219 0.447136 -0.08735
C_ C_ 0.122324 0.853349 0.445303 -0.08735
C_ C_ 0.124286 0.830503 0.418293 -0.05681
C_ C_ 0.129124 0.859828 0.393423 -0.08735
C_ C_ 0.0350883 0.6717 0.406794 0.68181
C_ C_ 0.0942158 0.625621 0.482131 0.1947
C_ C_ 0.103974 0.600875 0.00952856 -0.08735
C_ C_ 0.115827 0.632916 0.0320902 -0.08735
C_ C_ 0.144056 0.677987 0.0276024 -0.05681
C_ C_ 0.155876 0.690268 0.998354 0.18498
C_ C_ 0.18904 0.725494 0.492551 -0.08735
C_ C_ 0.188651 0.769466 0.0160108 -0.08735
C_ C_ 0.175405 0.758538 0.0441803 -0.08735
C_ C_ 0.15473 0.711143 0.0504975 0.18498
C_ C_ 0.189621 0.685403 0.0967672 0.44287
C_ C_ 0.100479 0.698889 0.0939385 0.44287
C_ C_ 0.0971226 0.69415 0.123357 -0.05681
C_ C_ 0.0496726 0.69283 0.136597 -0.08735
C_ C_ 0.0450741 0.689415 0.166901 -0.08735
C_ C_ 0.0897151 0.686489 0.183367 -0.05681
C_ C_ 0.136013 0.674101 0.169318 -0.05681
C_ C_ 0.140773 0.680505 0.139747 -0.05681
C_ C_ 0.18728 0.677509 0.125701 -0.05681
C_ C_ 0.231973 0.666935 0.142156 -0.08735
C_ C_ 0.227855 0.6543 0.172185 -0.08735
C_ C_ 0.180928 0.664262 0.186265 -0.05681
C_ C_ 0.176157 0.660466 0.215557 0.44287
C_ C_ 0.0888621 0.682023 0.214113 0.44287
C_ C_ 0.123228 0.648895 0.258566 0.18498
C_ C_ 0.0940463 0.605811 0.263081 -0.08735
C_ C_ 0.0775695 0.591429 0.289334 -0.08735
C_ C_ 0.0867666 0.621988 0.313089 -0.08735
C_ C_ 0.120095 0.664222 0.31036 0.18498
C_ C_ 0.133943 0.68105 0.282639 -0.05681
C_ C_ 0.163638 0.723562 0.279585 -0.08735
C_ C_ 0.182499 0.747087 0.304069 -0.08735
C_ C_ 0.166281 0.732807 0.331512 0.1947
C_ C_ 0.27727 0.809588 0.156413 0.68181
C_ C_ 0.220903 0.816401 0.153434 -0.05681
C_ C_ 0.188311 0.812814 0.17597 -0.08735
C_ C_ 0.135096 0.818006 0.172144 -0.05681
C_ C_ 0.115125 0.823438 0.144512 -0.05681
C_ C_ 0.146878 0.830995 0.122589 -0.08735
C_ C_ 0.199446 0.826812 0.126447 -0.08735
C_ C_ 0.10244 0.813545 0.195495 -0.08735
C_ C_ 0.0480007 0.812633 0.19194 -0.08735
C_ C_ 0.0288383 0.820652 0.164414 -0.05681
C_ C_ 0.06204 0.822865 0.140812 -0.08735
C_ C_ 0.374237 0.71305 0.160722 0.68181
C_ C_ 0.364372 0.909731 0.148595 0.68181
C_ C_ 0.352597 0.965171 0.146734 -0.05681
C_ C_ 0.350589 0.499927 0.165657 -0.08735
C_ C_ 0.360246 0.552014 0.164848 -0.05681
C_ C_ 0.385819 0.573488 0.140496 -0.05681
C_ C_ 0.402525 0.542345 0.119643 -0.08735
C_ C_ 0.350764 -0.011094999999999966 0.119361 -0.08735
C_ C_ 0.350882 0.58002 0.187835 -0.08735
C_ C_ 0.362166 0.630791 0.187067 -0.08735
C_ C_ 0.377804 0.654611 0.16209 -0.05681
C_ C_ 0.393459 0.627395 0.139386 -0.08735
C_ C_ 0.472471 0.814237 0.159891 0.68181
C_ C_ 0.401164 0.865344 0.232543 0.1947
C_ C_ 0.406097 0.88691 0.259435 -0.08735
C_ C_ 0.380865 0.863263 0.283095 -0.08735
C_ C_ 0.356197 0.817832 0.278054 -0.05681
C_ C_ 0.348734 0.800797 0.248999 0.18498
C_ C_ 0.322912 0.755905 0.245095 -0.08735
C_ C_ 0.308035 0.724674 0.267442 -0.08735
C_ C_ 0.319695 0.738941 0.295767 -0.08735
C_ C_ 0.342334 0.785897 0.301138 0.18498
C_ C_ 0.318587 0.814263 0.348519 0.44287
C_ C_ 0.403976 0.792363 0.341332 0.44287
C_ C_ 0.414008 0.796477 0.371208 -0.05681
C_ C_ 0.461307 0.793986 0.382706 -0.08735
C_ C_ 0.47037 0.798499 0.412827 -0.08735
C_ C_ 0.429295 0.808021 0.431104 -0.05681
C_ C_ 0.38102 0.81913 0.419239 -0.05681
C_ C_ 0.3731 0.807902 0.389959 -0.05681
C_ C_ 0.323993 0.814223 0.378846 -0.05681
C_ C_ 0.283035 0.8216 0.397946 -0.08735
C_ C_ 0.290212 0.820389 0.426726 -0.08735
C_ C_ 0.339672 0.821545 0.438136 -0.05681
C_ C_ 0.348406 0.825225 0.467908 0.44287
C_ C_ 0.434341 0.809101 0.461653 0.44287
C_ C_ 0.385067 0.840275 0.00808552 0.18498
C_ C_ 0.406121 0.89006 0.0123738 -0.08735
C_ C_ 0.410405 0.911537 0.039509 -0.08735
C_ C_ 0.409987 0.877621 0.0627154 -0.08735
C_ C_ 0.387801 0.82943 0.0589672 0.18498
C_ C_ 0.378741 0.809185 0.0319841 -0.05681
C_ C_ 0.360444 0.76045 0.0289689 -0.08735
C_ C_ 0.34011 0.736829 0.0527673 -0.08735
C_ C_ 0.352206 0.755556 0.0792338 0.1947
N_ N_ 0.133867 0.658637 0.4772 -0.29468
N_ N_ 0.147658 0.692591 0.0804292 -0.17154
N_ N_ 0.130408 0.666679 0.229237 -0.17154
N_ N_ 0.134667 0.692468 0.334726 -0.29468
N_ N_ 0.368232 0.827647 0.227309 -0.29468
N_ N_ 0.355369 0.796619 0.331336 -0.17154
N_ N_ 0.394871 0.819453 0.479229 -0.17154
N_ N_ 0.373082 0.802051 0.0832067 -0.29468
O_ O_ 0.214241 0.67862 0.428298 -0.58347
O_ O_ 0.200789 0.687715 0.38286 -0.58347
O_ O_ 0.142623 0.74968 0.436711 -0.58347
O_ O_ 0.11436 0.753089 0.393486 -0.58347
O_ O_ 0.137931 0.598539 0.421831 -0.58347
O_ O_ 0.135889 0.607818 0.375254 -0.58347
O_ O_ 0.0651588 0.673618 0.428003 -0.58347
O_ O_ 0.0549769 0.666497 0.38269 -0.58347
O_ O_ 0.0603631 0.708286 0.0779214 -0.46727
O_ O_ 0.233179 0.695453 0.0862967 -0.46727
O_ O_ 0.0467037 0.68255 0.228622 -0.46727
O_ O_ 0.214737 0.647339 0.231574 -0.46727
O_ O_ 0.298217 0.816295 0.180599 -0.58347
O_ O_ 0.304567 0.804707 0.134222 -0.58347
O_ O_ 0.354685 0.738415 0.181227 -0.58347
O_ O_ 0.39178 0.737265 0.139583 -0.58347
O_ O_ 0.3702 0.887698 0.17299 -0.58347
O_ O_ 0.363895 0.88301 0.126714 -0.58347
O_ O_ 0.442545 0.804371 0.180006 -0.58347
O_ O_ 0.455675 0.821149 0.134932 -0.58347
O_ O_ 0.441123 0.782168 0.322736 -0.46727
O_ O_ 0.269936 0.814498 0.338766 -0.46727
O_ O_ 0.478002 0.803696 0.47341 -0.46727
O_ O_ 0.309784 0.836286 0.48485 -0.46727
Zn Zn 0.130236 0.682613 0.880114 0.90689
Zn Zn 0.140642 0.671777 0.927071 0.90689
Zn Zn 0.375803 0.823284 0.629446 0.90689
Zn Zn 0.367741 0.83198 0.675712 0.90689
H_ H_ 0.30863 0.688083 0.94304 0.11455
H_ H_ 0.374043 0.680865 0.842881 0.11455
H_ H_ 0.284447 0.696405 0.851322 0.11455
H_ H_ 0.389928 0.681776 0.962989 0.11455
H_ H_ 0.482467 0.678662 0.954491 0.11455
H_ H_ 0.462805 0.681968 0.865591 0.11455
H_ H_ 0.165057 0.50873 0.936262 0.11455
H_ H_ 0.134519 0.932867 0.843557 0.11455
H_ H_ 0.110948 0.524777 0.849814 0.11455
H_ H_ 0.120538 0.926702 0.963789 0.11455
H_ H_ 0.113642 0.832305 0.955946 0.11455
H_ H_ 0.137187 0.849245 0.865431 0.11455
H_ H_ 0.0945575 0.598896 0.964044 0.11455
H_ H_ 0.0483942 0.587121 0.513739 0.11455
H_ H_ 0.0790235 0.644309 0.552 0.11455
H_ H_ 0.187383 0.750778 0.97255 0.11455
H_ H_ 0.223661 0.794224 0.508288 0.11455
H_ H_ 0.19063 0.788585 0.555428 0.11455
H_ H_ 1.0122551 0.724292 0.621648 0.11455
H_ H_ 0.999842982 0.71595 0.672046 0.11455
H_ H_ 0.263114 0.675931 0.633907 0.11455
H_ H_ 0.251346 0.663903 0.685274 0.11455
H_ H_ 0.0521683 0.598912 0.745923 0.11455
H_ H_ 0.0469276 0.568618 0.794642 0.11455
H_ H_ 0.0571168 0.633272 0.834144 0.11455
H_ H_ 0.167852 0.736837 0.755223 0.11455
H_ H_ 0.200631 0.786008 0.796904 0.11455
H_ H_ 0.198019 0.746177 0.845249 0.11455
H_ H_ 0.204019 0.804718 0.689915 0.11455
H_ H_ 0.129151 0.880971 0.603699 0.11455
H_ H_ 0.220423 0.863134 0.604784 0.11455
H_ H_ 0.117938 0.812397 0.713494 0.11455
H_ H_ 0.0242124 0.826676 0.707768 0.11455
H_ H_ 0.0464425 0.852026 0.616815 0.11455
H_ H_ 0.366367 0.996393 0.688886 0.11455
H_ H_ 0.356156 0.578072 0.596323 0.11455
H_ H_ 0.384155 0.989464 0.596726 0.11455
H_ H_ 0.345479 0.583787 0.712991 0.11455
H_ H_ 0.341561 0.67559 0.707518 0.11455
H_ H_ 0.389517 0.660278 0.619804 0.11455
H_ H_ 0.412275 0.909073 0.711411 0.11455
H_ H_ 0.424896 0.941635 0.762207 0.11455
H_ H_ 0.405238 0.881152 0.800818 0.11455
H_ H_ 0.300867 0.771268 0.718049 0.11455
H_ H_ 0.274145 0.716134 0.755942 0.11455
H_ H_ 0.293425 0.733561 0.804539 0.11455
H_ H_ 0.487082 0.79917 0.868727 0.11455
H_ H_ 0.495993 0.795123 0.923755 0.11455
H_ H_ 0.23618 0.833747 0.886385 0.11455
H_ H_ 0.243349 0.82005 0.937241 0.11455
H_ H_ 0.409127 0.913168 0.993959 0.11455
H_ H_ 0.460982 0.933452 0.543728 0.11455
H_ H_ 0.430772 0.878863 0.583821 0.11455
H_ H_ 0.344331 0.747423 0.509061 0.11455
H_ H_ 0.320806 0.699911 0.548435 0.11455
H_ H_ 0.321808 0.742048 0.595593 0.11455
C_ C_ 0.233627 0.688474 0.902288 0.68181
C_ C_ 0.289192 0.693203 0.897566 -0.05681
C_ C_ 0.322474 0.690808 0.921594 -0.08735
C_ C_ 0.374063 0.682129 0.91726 -0.05681
C_ C_ 0.393898 0.680693 0.890093 -0.05681
C_ C_ 0.360873 0.683096 0.86579 -0.08735
C_ C_ 0.309094 0.688005 0.869069 -0.08735
C_ C_ 0.406768 0.680767 0.940996 -0.08735
C_ C_ 0.458904 0.675821 0.937292 -0.08735
C_ C_ 0.481722 0.679763 0.909044 -0.05681
C_ C_ 0.446946 0.68298 0.886707 -0.08735
C_ C_ 0.132308 0.778725 0.90739 0.68181
C_ C_ 0.135766 0.579819 0.897405 0.68181
C_ C_ 0.131963 0.52568 0.895494 -0.05681
C_ C_ 0.127121 0.99536 0.919512 -0.08735
C_ C_ 0.127234 0.940925 0.916604 -0.05681
C_ C_ 0.133496 0.918437 0.889299 -0.05681
C_ C_ 0.134412 0.949539 0.8649 -0.08735
C_ C_ 0.133468 0.00138462 0.867118 -0.08735
C_ C_ 0.121524 0.908421 0.940948 -0.08735
C_ C_ 0.120807 0.856897 0.937523 -0.08735
C_ C_ 0.129888 0.835697 0.90996 -0.05681
C_ C_ 0.134889 0.86678 0.886595 -0.08735
C_ C_ 0.036834 0.674617 0.905647 0.68181
C_ C_ 0.112805 0.618319 0.981779 0.1947
C_ C_ 0.0749513 0.617502 0.509672 -0.08735
C_ C_ 0.0993644 0.64259 0.53296 -0.08735
C_ C_ 0.133249 0.681349 0.527767 -0.05681
C_ C_ 0.151746 0.688878 0.497887 0.18498
C_ C_ 0.175843 0.739216 0.993066 -0.08735
C_ C_ 0.199719 0.762646 0.512725 -0.08735
C_ C_ 0.180011 0.759487 0.539774 -0.08735
C_ C_ 0.153562 0.715106 0.549282 0.18498
C_ C_ 0.185276 0.704446 0.596189 0.44287
C_ C_ 0.0989915 0.717092 0.592756 0.44287
C_ C_ 0.0918134 0.709807 0.622532 -0.05681
C_ C_ 0.0449549 0.715465 0.635062 -0.08735
C_ C_ 0.0384736 0.711496 0.664611 -0.08735
C_ C_ 0.079548 0.700054 0.682138 -0.05681
C_ C_ 0.126803 0.684845 0.669225 -0.05681
C_ C_ 0.132945 0.695466 0.639372 -0.05681
C_ C_ 0.181747 0.692963 0.626478 -0.05681
C_ C_ 0.222774 0.678768 0.643536 -0.08735
C_ C_ 0.216175 0.66474 0.671879 -0.08735
C_ C_ 0.167472 0.670698 0.685811 -0.05681
C_ C_ 0.157927 0.659924 0.716416 0.44287
C_ C_ 0.0743134 0.692419 0.712091 0.44287
C_ C_ 0.103458 0.659599 0.757704 0.18498
C_ C_ 0.0668208 0.621408 0.763102 -0.08735
C_ C_ 0.0589169 0.605752 0.790903 -0.08735
C_ C_ 0.0785526 0.632344 0.814478 -0.08735
C_ C_ 0.113774 0.670945 0.809835 0.18498
C_ C_ 0.121136 0.687535 0.781409 -0.05681
C_ C_ 0.15642 0.725677 0.777216 -0.08735
C_ C_ 0.17798 0.752758 0.800058 -0.08735
C_ C_ 0.170682 0.7356 0.828251 0.1947
C_ C_ 0.273194 0.824272 0.651947 0.68181
C_ C_ 0.219667 0.833046 0.647863 -0.05681
C_ C_ 0.188455 0.81997 0.671362 -0.08735
C_ C_ 0.134351 0.825758 0.669284 -0.05681
C_ C_ 0.114788 0.845915 0.643192 -0.05681
C_ C_ 0.146671 0.86345 0.622105 -0.08735
C_ C_ 0.198327 0.85652 0.623745 -0.08735
C_ C_ 0.101871 0.820413 0.69201 -0.08735
C_ C_ 0.0495083 0.830994 0.688843 -0.08735
C_ C_ 0.0275485 0.843043 0.661764 -0.05681
C_ C_ 0.0621129 0.84335 0.63839 -0.08735
C_ C_ 0.370153 0.728845 0.660243 0.68181
C_ C_ 0.364187 0.926528 0.644668 0.68181
C_ C_ 0.373256 0.984777 0.643288 -0.05681
C_ C_ 0.352992 0.514006 0.67125 -0.08735
C_ C_ 0.35751 0.567568 0.668863 -0.05681
C_ C_ 0.362125 0.590212 0.640986 -0.05681
C_ C_ 0.358166 0.560144 0.616719 -0.08735
C_ C_ 0.379898 1.00955657 0.616577 -0.08735
C_ C_ 0.353011 0.598231 0.692647 -0.08735
C_ C_ 0.354354 0.650806 0.689774 -0.08735
C_ C_ 0.367841 0.673503 0.66366 -0.05681
C_ C_ 0.370421 0.643244 0.638794 -0.08735
C_ C_ 0.471653 0.830105 0.655794 0.68181
C_ C_ 0.396351 0.889697 0.729853 0.1947
C_ C_ 0.408842 0.904575 0.757839 -0.08735
C_ C_ 0.393352 0.872213 0.780274 -0.08735
C_ C_ 0.362234 0.827339 0.775112 -0.05681
C_ C_ 0.349781 0.816271 0.745334 0.18498
C_ C_ 0.316549 0.776352 0.739865 -0.08735
C_ C_ 0.29626 0.749139 0.761718 -0.08735
C_ C_ 0.31306 0.755731 0.789929 -0.08735
C_ C_ 0.343678 0.79652 0.797928 0.18498
C_ C_ 0.311343 0.823596 0.844592 0.44287
C_ C_ 0.398014 0.795029 0.840993 0.44287
C_ C_ 0.405965 0.804867 0.870769 -0.05681
C_ C_ 0.454758 0.803535 0.882698 -0.08735
C_ C_ 0.45791 0.804017 0.913372 -0.08735
C_ C_ 0.417289 0.817736 0.930713 -0.05681
C_ C_ 0.368955 0.8219 0.917967 -0.05681
C_ C_ 0.363661 0.817433 0.888684 -0.05681
C_ C_ 0.315313 0.825899 0.875751 -0.05681
C_ C_ 0.273331 0.825771 0.893987 -0.08735
C_ C_ 0.278174 0.82255 0.92412 -0.08735
C_ C_ 0.325665 0.823482 0.937158 -0.05681
C_ C_ 0.332611 0.815871 0.967181 0.44287
C_ C_ 0.421415 0.819033 0.961106 0.44287
C_ C_ 0.403576 0.836516 0.508007 0.18498
C_ C_ 0.429673 0.882782 0.512797 -0.08735
C_ C_ 0.437595 0.900696 0.540301 -0.08735
C_ C_ 0.424753 0.867439 0.563408 -0.08735
C_ C_ 0.39235 0.824701 0.559356 0.18498
C_ C_ 0.381515 0.808909 0.531307 -0.05681
C_ C_ 0.355283 0.762315 0.528676 -0.08735
C_ C_ 0.341547 0.735633 0.552156 -0.08735
C_ C_ 0.34369 0.759176 0.578989 0.1947
N_ N_ 0.14167 0.661196 0.976022 -0.29468
N_ N_ 0.145142 0.707554 0.579206 -0.17154
N_ N_ 0.112586 0.674149 0.728286 -0.17154
N_ N_ 0.135469 0.697477 0.832747 -0.29468
N_ N_ 0.369692 0.846874 0.724454 -0.29468
N_ N_ 0.351314 0.807074 0.828324 -0.17154
N_ N_ 0.378994 0.823416 0.978972 -0.17154
N_ N_ 0.37185 0.800909 0.582691 -0.29468
O_ O_ 0.216509 0.681696 0.92688 -0.58347
O_ O_ 0.206577 0.680226 0.880232 -0.58347
O_ O_ 0.13842 0.749694 0.928615 -0.58347
O_ O_ 0.131987 0.759093 0.882637 -0.58347
O_ O_ 0.147756 0.598821 0.920885 -0.58347
O_ O_ 0.122305 0.607782 0.877066 -0.58347
O_ O_ 0.0663363 0.657377 0.924971 -0.58347
O_ O_ 0.0547308 0.682322 0.881254 -0.58347
O_ O_ 0.0602323 0.731043 0.575807 -0.46727
O_ O_ 0.22817 0.700698 0.58376 -0.46727
O_ O_ 0.02727 0.686564 0.722488 -0.46727
O_ O_ 0.194263 0.635838 0.731398 -0.46727
O_ O_ 0.292979 0.826704 0.677141 -0.58347
O_ O_ 0.300492 0.822866 0.630046 -0.58347
O_ O_ 0.371822 0.758401 0.682291 -0.58347
O_ O_ 0.373053 0.748204 0.636149 -0.58347
O_ O_ 0.358962 0.904548 0.668685 -0.58347
O_ O_ 0.37641 0.899767 0.623702 -0.58347
O_ O_ 0.442343 0.840518 0.676665 -0.58347
O_ O_ 0.450645 0.822107 0.63104 -0.58347
O_ O_ 0.434869 0.776441 0.825107 -0.46727
O_ O_ 0.266567 0.831633 0.832749 -0.46727
O_ O_ 0.465256 0.808037 0.972979 -0.46727
O_ O_ 0.292919 0.814915 0.984393 -0.46727
Zn Zn 0.623228 0.190501 0.385103 0.90689
Zn Zn 0.629014 0.183757 0.433791 0.90689
Zn Zn 0.873392 0.313932 0.133107 0.90689
Zn Zn 0.864703 0.319555 0.182619 0.90689
H_ H_ 0.797531 0.212339 0.446965 0.11455
H_ H_ 0.861256 0.187085 0.348212 0.11455
H_ H_ 0.771943 0.195978 0.357064 0.11455
H_ H_ 0.883863 0.21068 0.465556 0.11455
H_ H_ 0.977114 0.20478 0.456777 0.11455
H_ H_ 0.950497 0.188192 0.364405 0.11455
H_ H_ 0.607635 0.02005 0.439848 0.11455
H_ H_ 0.67064 0.436466 0.353381 0.11455
H_ H_ 0.694776 0.0320988 0.364799 0.11455
H_ H_ 0.586501 0.436707 0.463139 0.11455
H_ H_ 0.592218 0.347011 0.461858 0.11455
H_ H_ 0.645724 0.353499 0.375732 0.11455
H_ H_ 0.576333 0.107407 0.468925 0.11455
H_ H_ 0.55059 0.0789154 0.019647 0.11455
H_ H_ 0.589233 0.124095 0.0585453 0.11455
H_ H_ 0.702915 0.236384 0.477827 0.11455
H_ H_ 0.699091 0.303144 0.013624 0.11455
H_ H_ 0.706966 0.268473 0.0618849 0.11455
H_ H_ 0.524409 0.220951 0.129538 0.11455
H_ H_ 0.518541 0.203492 0.180159 0.11455
H_ H_ 0.770542 0.13691 0.131637 0.11455
H_ H_ 0.765445 0.127075 0.184594 0.11455
H_ H_ 0.6159 0.0640964 0.257875 0.11455
H_ H_ 0.577145 0.0536477 0.304033 0.11455
H_ H_ 0.593249 0.115306 0.341405 0.11455
H_ H_ 0.678 0.239065 0.260204 0.11455
H_ H_ 0.707043 0.288866 0.299677 0.11455
H_ H_ 0.673635 0.272762 0.347613 0.11455
H_ H_ 0.695868 0.297686 0.197926 0.11455
H_ H_ 0.624329 0.355032 0.105256 0.11455
H_ H_ 0.717882 0.341654 0.110908 0.11455
H_ H_ 0.608003 0.311888 0.218352 0.11455
H_ H_ 0.519038 0.308724 0.211481 0.11455
H_ H_ 0.540258 0.323302 0.120694 0.11455
H_ H_ 0.873267 0.485022 0.197332 0.11455
H_ H_ 0.869947 0.0634265 0.102372 0.11455
H_ H_ 0.879308 0.477059 0.10622 0.11455
H_ H_ 0.863915 0.0653495 0.219683 0.11455
H_ H_ 0.858868 0.15617 0.214934 0.11455
H_ H_ 0.886965 0.145404 0.123044 0.11455
H_ H_ 0.913809 0.394609 0.218648 0.11455
H_ H_ 0.91514 0.437728 0.266433 0.11455
H_ H_ 0.863524 0.40234 0.306182 0.11455
H_ H_ 0.797772 0.264466 0.225127 0.11455
H_ H_ 0.774073 0.208195 0.266527 0.11455
H_ H_ 0.785731 0.237664 0.314267 0.11455
H_ H_ 0.983582 0.304123 0.370983 0.11455
H_ H_ -0.0047920000000000185 0.307724 0.422068 0.11455
H_ H_ 0.73508 0.370159 0.392268 0.11455
H_ H_ 0.758763 0.387608 0.443678 0.11455
H_ H_ 0.965355 0.40846 0.500618 0.11455
H_ H_ 0.929661 0.440798 0.0493133 0.11455
H_ H_ 0.925696 0.378847 0.0866881 0.11455
H_ H_ 0.841424 0.246286 0.00879645 0.11455
H_ H_ 0.813764 0.198973 0.0528794 0.11455
H_ H_ 0.819649 0.235849 0.0992643 0.11455
C_ C_ 0.721917 0.200995 0.409028 0.68181
C_ C_ 0.777603 0.201262 0.403866 -0.05681
C_ C_ 0.811827 0.20455 0.425932 -0.08735
C_ C_ 0.86604 0.199874 0.421033 -0.05681
C_ C_ 0.8834 0.192215 0.393045 -0.05681
C_ C_ 0.84977 0.193474 0.370442 -0.08735
C_ C_ 0.796975 0.19995 0.375536 -0.08735
C_ C_ 0.899666 0.204354 0.443596 -0.08735
C_ C_ 0.951499 0.197263 0.43851 -0.08735
C_ C_ 0.97322 0.193296 0.410369 -0.05681
C_ C_ 0.937545 0.191854 0.387576 -0.08735
C_ C_ 0.618153 0.285799 0.416625 0.68181
C_ C_ 0.636473 0.0909642 0.40018 0.68181
C_ C_ 0.638947 0.033925 0.398205 -0.05681
C_ C_ 0.621553 0.504926 0.421894 -0.08735
C_ C_ 0.615388 0.45204 0.419923 -0.05681
C_ C_ 0.63843 0.426296 0.39619 -0.05681
C_ C_ 0.656276 0.455278 0.371989 -0.08735
C_ C_ 0.656977 0.510009 0.372967 -0.08735
C_ C_ 0.60047 0.422112 0.444292 -0.08735
C_ C_ 0.601244 0.368242 0.443758 -0.08735
C_ C_ 0.616694 0.343951 0.418833 -0.05681
C_ C_ 0.635484 0.373005 0.395318 -0.08735
C_ C_ 0.527771 0.173041 0.410603 0.68181
C_ C_ 0.592009 0.128832 0.486045 0.1947
C_ C_ 0.576706 0.110121 0.0144051 -0.08735
C_ C_ 0.599108 0.13523 0.0371654 -0.08735
C_ C_ 0.628843 0.177103 0.0330988 -0.05681
C_ C_ 0.630998 0.196109 1.00386034 0.18498
C_ C_ 0.687718 0.230217 0.498597 -0.08735
C_ C_ 0.684155 0.266538 0.0182457 -0.08735
C_ C_ 0.687477 0.246268 0.0458675 -0.08735
C_ C_ 0.659503 0.202068 0.0536526 0.18498
C_ C_ 0.695908 0.173679 0.0988121 0.44287
C_ C_ 0.609329 0.199819 0.0969093 0.44287
C_ C_ 0.603971 0.190158 0.127203 -0.05681
C_ C_ 0.557999 0.204213 0.141213 -0.08735
C_ C_ 0.553526 0.193174 0.170734 -0.08735
C_ C_ 0.596197 0.177103 0.18752 -0.05681
C_ C_ 0.640875 0.163056 0.172779 -0.05681
C_ C_ 0.644525 0.168894 0.142357 -0.05681
C_ C_ 0.691919 0.164053 0.128995 -0.05681
C_ C_ 0.732669 0.145065 0.143563 -0.08735
C_ C_ 0.731914 0.143628 0.173915 -0.08735
C_ C_ 0.684305 0.1497 0.188979 -0.05681
C_ C_ 0.680441 0.145345 0.219648 0.44287
C_ C_ 0.595058 0.171735 0.217417 0.44287
C_ C_ 0.62807 0.1457 0.263916 0.18498
C_ C_ 0.6117 0.0958683 0.272514 -0.08735
C_ C_ 0.591552 0.0883421 0.298283 -0.08735
C_ C_ 0.599638 0.125022 0.319259 -0.08735
C_ C_ 0.621239 0.171097 0.314138 0.18498
C_ C_ 0.636425 0.182845 0.285424 -0.05681
C_ C_ 0.667608 0.226424 0.281191 -0.08735
C_ C_ 0.676758 0.258546 0.303602 -0.08735
C_ C_ 0.661808 0.245587 0.331346 0.1947
C_ C_ 0.768791 0.309838 0.156319 0.68181
C_ C_ 0.715065 0.316763 0.155039 -0.05681
C_ C_ 0.682137 0.307148 0.17694 -0.08735
C_ C_ 0.6287 0.31168 0.173706 -0.05681
C_ C_ 0.609579 0.321213 0.145791 -0.05681
C_ C_ 0.640128 0.33582 0.123984 -0.08735
C_ C_ 0.692604 0.331579 0.128343 -0.08735
C_ C_ 0.594665 0.313564 0.197034 -0.08735
C_ C_ 0.543371 0.31249 0.192412 -0.08735
C_ C_ 0.523189 0.31255 0.164 -0.05681
C_ C_ 0.556671 0.319607 0.14148 -0.08735
C_ C_ 0.869261 0.216089 0.16708 0.68181
C_ C_ 0.865023 0.414805 0.151748 0.68181
C_ C_ 0.868293 0.471821 0.150949 -0.05681
C_ C_ 0.880654 0.00172943 0.175199 -0.08735
C_ C_ 0.88046 0.0536066 0.173639 -0.05681
C_ C_ 0.884386 0.0767872 0.146292 -0.05681
C_ C_ 0.882725 0.0486793 0.121583 -0.08735
C_ C_ 0.871958 0.496519 0.12435 -0.08735
C_ C_ 0.871504 0.0826442 0.198038 -0.08735
C_ C_ 0.86633 0.135274 0.195586 -0.08735
C_ C_ 0.870667 0.159854 0.169212 -0.05681
C_ C_ 0.879947 0.130379 0.144328 -0.08735
C_ C_ 0.968087 0.324377 0.161425 0.68181
C_ C_ 0.890079 0.381068 0.235241 0.1947
C_ C_ 0.891941 0.404234 0.262728 -0.08735
C_ C_ 0.863457 0.382934 0.285033 -0.08735
C_ C_ 0.843703 0.334269 0.281124 -0.05681
C_ C_ 0.840538 0.314351 0.253164 0.18498
C_ C_ 0.811336 0.271087 0.246977 -0.08735
C_ C_ 0.797725 0.241026 0.269758 -0.08735
C_ C_ 0.806036 0.256968 0.298192 -0.08735
C_ C_ 0.829389 0.303262 0.303631 0.18498
C_ C_ 0.802839 0.329542 0.350949 0.44287
C_ C_ 0.890956 0.310338 0.343112 0.44287
C_ C_ 0.903815 0.322652 0.372015 -0.05681
C_ C_ 0.952076 0.311398 0.38275 -0.08735
C_ C_ 0.95846 0.314378 0.411912 -0.08735
C_ C_ 0.919472 0.330864 0.43084 -0.05681
C_ C_ 0.871655 0.343932 0.421202 -0.05681
C_ C_ 0.863102 0.335791 0.390836 -0.05681
C_ C_ 0.812991 0.342972 0.380322 -0.05681
C_ C_ 0.774763 0.365605 0.398869 -0.08735
C_ C_ 0.787455 0.376833 0.428055 -0.08735
C_ C_ 0.834358 0.366208 0.439722 -0.05681
C_ C_ 0.846426 0.366555 0.470032 0.44287
C_ C_ 0.928891 0.333411 0.461086 0.44287
C_ C_ 0.878796 0.344305 0.0103654 0.18498
C_ C_ 0.896046 0.391595 0.0156705 -0.08735
C_ C_ 0.911702 0.404161 0.0441426 -0.08735
C_ C_ 0.905666 0.371362 0.0672154 -0.08735
C_ C_ 0.881071 0.326699 0.0623756 0.18498
C_ C_ 0.867973 0.310529 0.0335727 -0.05681
C_ C_ 0.848617 0.262518 0.0296946 -0.08735
C_ C_ 0.838359 0.233862 0.0539798 -0.08735
C_ C_ 0.844323 0.251894 0.0812171 0.1947
N_ N_ 0.627009 0.166296 0.481114 -0.29468
N_ N_ 0.654545 0.193402 0.0837627 -0.17154
N_ N_ 0.635073 0.153026 0.232482 -0.17154
N_ N_ 0.63554 0.202626 0.336792 -0.29468
N_ N_ 0.86069 0.340941 0.230662 -0.29468
N_ N_ 0.842315 0.316972 0.332952 -0.17154
N_ N_ 0.893517 0.348404 0.479683 -0.17154
N_ N_ 0.870161 0.296112 0.0852062 -0.29468
O_ O_ 0.703722 0.179931 0.430962 -0.58347
O_ O_ 0.693507 0.21059 0.387703 -0.58347
O_ O_ 0.62962 0.260065 0.438508 -0.58347
O_ O_ 0.602428 0.264765 0.393545 -0.58347
O_ O_ 0.626582 0.110881 0.424317 -0.58347
O_ O_ 0.649977 0.117725 0.379392 -0.58347
O_ O_ 0.555456 0.181222 0.432354 -0.58347
O_ O_ 0.550093 0.171735 0.387114 -0.58347
O_ O_ 0.571789 0.219931 0.0817923 -0.46727
O_ O_ 0.736688 0.163227 0.0853798 -0.46727
O_ O_ 0.557049 0.190761 0.231195 -0.46727
O_ O_ 0.720235 0.134621 0.235295 -0.46727
O_ O_ 0.790111 0.319164 0.18074 -0.58347
O_ O_ 0.795519 0.308955 0.133255 -0.58347
O_ O_ 0.862161 0.244968 0.190155 -0.58347
O_ O_ 0.879413 0.239219 0.143149 -0.58347
O_ O_ 0.861329 0.392434 0.175124 -0.58347
O_ O_ 0.870629 0.388632 0.129439 -0.58347
O_ O_ 0.939833 0.319508 0.184375 -0.58347
O_ O_ 0.947278 0.321241 0.137104 -0.58347
O_ O_ 0.928205 0.298916 0.325725 -0.46727
O_ O_ 0.756552 0.331664 0.342279 -0.46727
O_ O_ 0.973378 0.318749 0.471056 -0.46727
O_ O_ 0.809078 0.379456 0.488483 -0.46727
Zn Zn 0.614127 0.182595 0.883358 0.90689
Zn Zn 0.624407 0.174031 0.931021 0.90689
Zn Zn 0.866919 0.325664 0.630988 0.90689
Zn Zn 0.86227 0.328499 0.678061 0.90689
H_ H_ 0.794764 0.189024 0.947259 0.11455
H_ H_ 0.863128 0.179323 0.847176 0.11455
H_ H_ 0.766737 0.173063 0.854366 0.11455
H_ H_ 0.880481 0.192036 0.962759 0.11455
H_ H_ 0.970848 0.182651 0.958171 0.11455
H_ H_ 0.951026 0.174818 0.866459 0.11455
H_ H_ 0.637255 0.00911914 0.94657 0.11455
H_ H_ 0.619246 0.433009 0.849302 0.11455
H_ H_ 0.599963 0.0216473 0.857752 0.11455
H_ H_ 0.634604 0.417432 0.966338 0.11455
H_ H_ 0.63728 0.326071 0.958496 0.11455
H_ H_ 0.616193 0.353505 0.867917 0.11455
H_ H_ 0.562862 0.109358 0.969404 0.11455
H_ H_ 0.55523 0.0793875 0.517648 0.11455
H_ H_ 0.597634 0.12221 0.558713 0.11455
H_ H_ 0.662912 0.247816 0.974941 0.11455
H_ H_ 0.732802 0.289741 0.51851 0.11455
H_ H_ 0.713304 0.263416 0.567537 0.11455
H_ H_ 0.528122 0.232733 0.629635 0.11455
H_ H_ 0.512825 0.206933 0.679432 0.11455
H_ H_ 0.757209 0.129229 0.636314 0.11455
H_ H_ 0.754474 0.127862 0.689439 0.11455
H_ H_ 0.576741 0.085379 0.748427 0.11455
H_ H_ 0.54961 0.0616936 0.795705 0.11455
H_ H_ 0.575108 0.115401 0.839926 0.11455
H_ H_ 0.653757 0.246499 0.762209 0.11455
H_ H_ 0.689056 0.291854 0.804273 0.11455
H_ H_ 0.660968 0.264838 0.850543 0.11455
H_ H_ 0.696239 0.328833 0.693134 0.11455
H_ H_ 0.619514 0.328621 0.595222 0.11455
H_ H_ 0.710938 0.335332 0.600397 0.11455
H_ H_ 0.609529 0.334112 0.71443 0.11455
H_ H_ 0.514589 0.331246 0.708138 0.11455
H_ H_ 0.533386 0.347846 0.6159 0.11455
H_ H_ 0.850519 0.496989 0.694373 0.11455
H_ H_ 0.815714 0.0744639 0.601856 0.11455
H_ H_ 0.848418 0.486912 0.606 0.11455
H_ H_ 0.902529 0.0741886 0.707918 0.11455
H_ H_ 0.914044 0.168666 0.703528 0.11455
H_ H_ 0.848354 0.158866 0.617725 0.11455
H_ H_ 0.917096 0.398453 0.712989 0.11455
H_ H_ 0.936875 0.425187 0.763266 0.11455
H_ H_ 0.899035 0.386527 0.804495 0.11455
H_ H_ 0.798605 0.266056 0.723619 0.11455
H_ H_ 0.779036 0.204777 0.763421 0.11455
H_ H_ 0.798245 0.234062 0.81412 0.11455
H_ H_ 0.976611 0.280483 0.875014 0.11455
H_ H_ -0.00978100000000004 0.299292 0.926747 0.11455
H_ H_ 0.739115 0.367737 0.885342 0.11455
H_ H_ 0.741975 0.355465 0.938111 0.11455
H_ H_ 0.909668 0.41594 0.997513 0.11455
H_ H_ 0.987698 0.421716 0.552761 0.11455
H_ H_ 0.93565 0.385143 0.5909 0.11455
H_ H_ 0.841301 0.275255 0.504916 0.11455
H_ H_ 0.814481 0.221016 0.545097 0.11455
H_ H_ 0.821258 0.250916 0.593513 0.11455
C_ C_ 0.719961 0.182017 0.908505 0.68181
C_ C_ 0.775766 0.181771 0.90229 -0.05681
C_ C_ 0.811013 0.183751 0.925896 -0.08735
C_ C_ 0.861855 0.182486 0.919759 -0.05681
C_ C_ 0.880486 0.181942 0.891672 -0.05681
C_ C_ 0.848761 0.183142 0.868483 -0.08735
C_ C_ 0.795499 0.177033 0.87238 -0.08735
C_ C_ 0.895408 0.183348 0.942895 -0.08735
C_ C_ 0.946915 0.177917 0.939104 -0.08735
C_ C_ 0.96904 0.179905 0.912134 -0.05681
C_ C_ 0.93492 0.178682 0.887941 -0.08735
C_ C_ 0.621468 0.276018 0.908874 0.68181
C_ C_ 0.6219 0.0782052 0.903356 0.68181
C_ C_ 0.624149 0.0211238 0.901514 -0.05681
C_ C_ 0.631451 0.490905 0.924802 -0.08735
C_ C_ 0.627624 0.437927 0.921792 -0.05681
C_ C_ 0.625369 0.419131 0.894405 -0.05681
C_ C_ 0.622679 0.449327 0.870245 -0.08735
C_ C_ 0.628819 0.500915 0.871521 -0.08735
C_ C_ 0.628204 0.404133 0.944616 -0.08735
C_ C_ 0.627961 0.351539 0.940223 -0.08735
C_ C_ 0.623993 0.333123 0.912336 -0.05681
C_ C_ 0.627216 0.367248 0.888734 -0.08735
C_ C_ 0.520765 0.169313 0.904499 0.68181
C_ C_ 0.580498 0.129979 0.986967 0.1947
C_ C_ 0.582603 0.113498 0.514123 -0.08735
C_ C_ 0.60582 0.136818 0.537189 -0.08735
C_ C_ 0.63665 0.178558 0.532608 -0.05681
C_ C_ 0.649331 0.191018 0.504035 0.18498
C_ C_ 0.659298 0.239645 0.996399 -0.08735
C_ C_ 0.706141 0.257742 0.520572 -0.08735
C_ C_ 0.693894 0.247251 0.549144 -0.08735
C_ C_ 0.662833 0.20514 0.55535 0.18498
C_ C_ 0.694806 0.175805 0.600641 0.44287
C_ C_ 0.609628 0.204974 0.597683 0.44287
C_ C_ 0.603387 0.198432 0.627176 -0.05681
C_ C_ 0.555578 0.209803 0.640337 -0.08735
C_ C_ 0.551141 0.201954 0.670271 -0.08735
C_ C_ 0.592517 0.191398 0.687736 -0.05681
C_ C_ 0.640024 0.181651 0.674131 -0.05681
C_ C_ 0.644512 0.183261 0.644035 -0.05681
C_ C_ 0.689484 0.167562 0.630671 -0.05681
C_ C_ 0.727392 0.145123 0.647615 -0.08735
C_ C_ 0.722829 0.14043 0.677755 -0.08735
C_ C_ 0.679544 0.16014 0.690846 -0.05681
C_ C_ 0.670547 0.155394 0.721308 0.44287
C_ C_ 0.5894 0.189162 0.71808 0.44287
C_ C_ 0.616116 0.153507 0.762831 0.18498
C_ C_ 0.589342 0.107032 0.767474 -0.08735
C_ C_ 0.578022 0.0914056 0.795452 -0.08735
C_ C_ 0.588309 0.123831 0.818445 -0.08735
C_ C_ 0.615663 0.168057 0.813927 0.18498
C_ C_ 0.628433 0.183629 0.786105 -0.05681
C_ C_ 0.653854 0.229002 0.782613 -0.08735
C_ C_ 0.668458 0.257431 0.806709 -0.08735
C_ C_ 0.657282 0.237508 0.833773 0.1947
C_ C_ 0.764803 0.335818 0.652004 0.68181
C_ C_ 0.708188 0.334949 0.647199 -0.05681
C_ C_ 0.678435 0.331889 0.671699 -0.08735
C_ C_ 0.62581 0.333328 0.668378 -0.05681
C_ C_ 0.604376 0.340678 0.639971 -0.05681
C_ C_ 0.63549 0.337365 0.61657 -0.08735
C_ C_ 0.686709 0.333428 0.620005 -0.08735
C_ C_ 0.593205 0.339529 0.69282 -0.08735
C_ C_ 0.540348 0.33628 0.689439 -0.08735
C_ C_ 0.518245 0.337405 0.661257 -0.05681
C_ C_ 0.550512 0.343915 0.637625 -0.08735
C_ C_ 0.87091 0.227889 0.660361 0.68181
C_ C_ 0.858786 0.427208 0.651676 0.68181
C_ C_ 0.865996 0.48441 0.650531 -0.05681
C_ C_ 0.888487 0.0102555 0.665873 -0.08735
C_ C_ 0.885699 0.0629641 0.664864 -0.05681
C_ C_ 0.863299 0.0873624 0.639963 -0.05681
C_ C_ 0.836766 0.0578451 0.619858 -0.08735
C_ C_ 0.863245 0.506814 0.623166 -0.08735
C_ C_ 0.900437 0.0937784 0.68755 -0.08735
C_ C_ 0.897157 0.147121 0.686955 -0.08735
C_ C_ 0.876763 0.171611 0.662362 -0.05681
C_ C_ 0.86524 0.140299 0.63716 -0.08735
C_ C_ 0.962729 0.328018 0.655892 0.68181
C_ C_ 0.899339 0.379343 0.73089 0.1947
C_ C_ 0.911199 0.393919 0.759002 -0.08735
C_ C_ 0.88767 0.370682 0.782638 -0.08735
C_ C_ 0.859438 0.328128 0.777454 -0.05681
C_ C_ 0.846927 0.314844 0.748935 0.18498
C_ C_ 0.815152 0.273668 0.744792 -0.08735
C_ C_ 0.796654 0.241475 0.768411 -0.08735
C_ C_ 0.814213 0.255258 0.796064 -0.08735
C_ C_ 0.841863 0.299861 0.801389 0.18498
C_ C_ 0.809785 0.328051 0.846741 0.44287
C_ C_ 0.89464 0.300277 0.84345 0.44287
C_ C_ 0.901173 0.304186 0.873898 -0.05681
C_ C_ 0.946671 0.296065 0.887851 -0.08735
C_ C_ 0.952662 0.303999 0.917264 -0.08735
C_ C_ 0.910076 0.313851 0.935323 -0.05681
C_ C_ 0.862562 0.319427 0.921676 -0.05681
C_ C_ 0.858419 0.317235 0.890998 -0.05681
C_ C_ 0.811043 0.326828 0.877712 -0.05681
C_ C_ 0.769544 0.343078 0.895764 -0.08735
C_ C_ 0.774811 0.342134 0.925373 -0.08735
C_ C_ 0.821376 0.331831 0.939067 -0.05681
C_ C_ 0.827773 0.339682 0.968254 0.44287
C_ C_ 0.913493 0.313863 0.9658 0.44287
C_ C_ 0.906289 0.355144 0.509693 0.18498
C_ C_ 0.942807 0.391713 0.517186 -0.08735
C_ C_ 0.955369 0.39875 0.547011 -0.08735
C_ C_ 0.925278 0.378327 0.568761 -0.08735
C_ C_ 0.887351 0.343201 0.561745 0.18498
C_ C_ 0.879276 0.328914 0.531825 -0.05681
C_ C_ 0.854115 0.284755 0.525738 -0.08735
C_ C_ 0.833751 0.257062 0.549427 -0.08735
C_ C_ 0.835076 0.274245 0.576791 0.1947
N_ N_ 0.614596 0.16773 0.981316 -0.29468
N_ N_ 0.654974 0.19318 0.584563 -0.17154
N_ N_ 0.627316 0.167675 0.73402 -0.17154
N_ N_ 0.629505 0.195469 0.83727 -0.29468
N_ N_ 0.865475 0.340979 0.725497 -0.29468
N_ N_ 0.84965 0.313742 0.830659 -0.17154
N_ N_ 0.87242 0.332313 0.981194 -0.17154
N_ N_ 0.861024 0.318638 0.582894 -0.29468
O_ O_ 0.701013 0.175875 0.93307 -0.58347
O_ O_ 0.688679 0.188553 0.888115 -0.58347
O_ O_ 0.631011 0.247652 0.929515 -0.58347
O_ O_ 0.602081 0.25621 0.887062 -0.58347
O_ O_ 0.62438 0.0979829 0.928652 -0.58347
O_ O_ 0.625728 0.106594 0.8814 -0.58347
O_ O_ 0.55056 0.171297 0.925874 -0.58347
O_ O_ 0.540708 0.171581 0.879089 -0.58347
O_ O_ 0.574191 0.226332 0.581599 -0.46727
O_ O_ 0.738572 0.166839 0.5883 -0.46727
O_ O_ 0.543749 0.195105 0.729381 -0.46727
O_ O_ 0.705952 0.138223 0.738042 -0.46727
O_ O_ 0.785486 0.327338 0.676466 -0.58347
O_ O_ 0.791793 0.326911 0.630106 -0.58347
O_ O_ 0.867799 0.253619 0.682382 -0.58347
O_ O_ 0.874927 0.249199 0.635945 -0.58347
O_ O_ 0.855629 0.404835 0.675263 -0.58347
O_ O_ 0.863174 0.401781 0.628705 -0.58347
O_ O_ 0.935318 0.341707 0.676149 -0.58347
O_ O_ 0.944357 0.321673 0.631805 -0.58347
O_ O_ 0.933472 0.294005 0.827555 -0.46727
O_ O_ 0.764887 0.333656 0.834471 -0.46727
O_ O_ 0.957015 0.309086 0.979083 -0.46727
O_ O_ 0.787475 0.342799 0.984126 -0.46727
Zn Zn 0.627522 0.687769 0.380502 0.90689
Zn Zn 0.636509 0.686493 0.428632 0.90689
Zn Zn 0.88253 0.813882 0.13549 0.90689
Zn Zn 0.869614 0.815825 0.183535 0.90689
H_ H_ 0.808744 0.711591 0.446526 0.11455
H_ H_ 0.873052 0.690496 0.3455 0.11455
H_ H_ 0.781566 0.688453 0.356239 0.11455
H_ H_ 0.897377 0.704698 0.464068 0.11455
H_ H_ 0.982712 0.677419 0.457872 0.11455
H_ H_ 0.954186 0.660505 0.365531 0.11455
H_ H_ 0.605551 0.527602 0.43907 0.11455
H_ H_ 0.676012 0.939851 0.356218 0.11455
H_ H_ 0.676994 0.527709 0.354681 0.11455
H_ H_ 0.591146 0.936637 0.461178 0.11455
H_ H_ 0.57908 0.845065 0.453899 0.11455
H_ H_ 0.653233 0.856525 0.371558 0.11455
H_ H_ 0.576745 0.618541 0.466788 0.11455
H_ H_ 0.588324 0.54923 0.0110485 0.11455
H_ H_ 0.615233 0.60396 0.0550027 0.11455
H_ H_ 0.692545 0.758841 0.480331 0.11455
H_ H_ 0.727382 0.785337 0.0140659 0.11455
H_ H_ 0.710556 0.759453 0.0619944 0.11455
H_ H_ 0.513784 0.683812 0.121583 0.11455
H_ H_ 0.502446 0.69045 0.174167 0.11455
H_ H_ 0.759501 0.641102 0.139862 0.11455
H_ H_ 0.755854 0.676761 0.191296 0.11455
H_ H_ 0.565677 0.591358 0.248227 0.11455
H_ H_ 0.547366 0.570695 0.296833 0.11455
H_ H_ 0.575482 0.624737 0.338495 0.11455
H_ H_ 0.648873 0.756889 0.25754 0.11455
H_ H_ 0.678739 0.806236 0.301439 0.11455
H_ H_ 0.671997 0.769681 0.348129 0.11455
H_ H_ 0.70289 0.808149 0.199714 0.11455
H_ H_ 0.63249 0.814544 0.102094 0.11455
H_ H_ 0.724721 0.808413 0.10753 0.11455
H_ H_ 0.613677 0.828808 0.219694 0.11455
H_ H_ 0.523021 0.822692 0.211566 0.11455
H_ H_ 0.545044 0.797869 0.121849 0.11455
H_ H_ 0.883715 0.98364 0.19637 0.11455
H_ H_ 0.882512 0.565577 0.100691 0.11455
H_ H_ 0.89105 0.97518 0.103639 0.11455
H_ H_ 0.869247 0.570509 0.220012 0.11455
H_ H_ 0.88208 0.662337 0.215 0.11455
H_ H_ 0.897632 0.64761 0.121674 0.11455
H_ H_ 0.913505 0.8984 0.215994 0.11455
H_ H_ 0.932641 0.925639 0.26362 0.11455
H_ H_ 0.897154 0.882095 0.305245 0.11455
H_ H_ 0.814993 0.749457 0.224748 0.11455
H_ H_ 0.78108 0.701499 0.265706 0.11455
H_ H_ 0.784157 0.737061 0.314977 0.11455
H_ H_ 0.984499 0.783695 0.372424 0.11455
H_ H_ 0.000671196 0.805572 0.421302 0.11455
H_ H_ 0.742739 0.850021 0.39211 0.11455
H_ H_ 0.75654 0.856073 0.442222 0.11455
H_ H_ 0.937809 0.927024 0.497993 0.11455
H_ H_ 0.969459 0.925707 0.0480031 0.11455
H_ H_ 0.950214 0.868048 0.0893935 0.11455
H_ H_ 0.833088 0.754986 0.0114393 0.11455
H_ H_ 0.79936 0.711351 0.0526915 0.11455
H_ H_ 0.829341 0.738465 0.10215 0.11455
C_ C_ 0.731226 0.701366 0.406308 0.68181
C_ C_ 0.787373 0.700383 0.401576 -0.05681
C_ C_ 0.822656 0.702352 0.424864 -0.08735
C_ C_ 0.87442 0.694702 0.419336 -0.05681
C_ C_ 0.89223 0.684072 0.391454 -0.05681
C_ C_ 0.858296 0.684766 0.368341 -0.08735
C_ C_ 0.806439 0.69306 0.373415 -0.08735
C_ C_ 0.910788 0.69708 0.442135 -0.08735
C_ C_ 0.960858 0.684039 0.438272 -0.08735
C_ C_ 0.979434 0.675696 0.410412 -0.05681
C_ C_ 0.943087 0.673067 0.386705 -0.08735
C_ C_ 0.618819 0.786419 0.412931 0.68181
C_ C_ 0.642337 0.589803 0.398555 0.68181
C_ C_ 0.643156 0.534754 0.398721 -0.05681
C_ C_ 0.617559 1.00269952 0.419459 -0.08735
C_ C_ 0.616426 0.94886 0.417871 -0.05681
C_ C_ 0.638154 0.926598 0.393266 -0.05681
C_ C_ 0.66121 0.95786 0.374033 -0.08735
C_ C_ 0.66252 1.0115379 0.375312 -0.08735
C_ C_ 0.597402 0.920216 0.439541 -0.08735
C_ C_ 0.59927 0.867026 0.437965 -0.08735
C_ C_ 0.616139 0.843001 0.413246 -0.05681
C_ C_ 0.637528 0.872867 0.390772 -0.08735
C_ C_ 0.533677 0.675771 0.405699 0.68181
C_ C_ 0.604518 0.632135 0.482769 0.1947
C_ C_ 0.603444 0.589046 0.00897561 -0.08735
C_ C_ 0.621419 0.616332 0.0323486 -0.08735
C_ C_ 0.643518 0.665393 0.0280876 -0.05681
C_ C_ 0.654986 0.681579 0.999239 0.18498
C_ C_ 0.685348 0.74151 0.499461 -0.08735
C_ C_ 0.700472 0.756415 0.0176766 -0.08735
C_ C_ 0.691292 0.737986 0.0442725 -0.08735
C_ C_ 0.657921 0.697047 0.0510888 0.18498
C_ C_ 0.6912 0.671517 0.0986173 0.44287
C_ C_ 0.602763 0.683535 0.0930448 0.44287
C_ C_ 0.594455 0.680819 0.122388 -0.05681
C_ C_ 0.545077 0.684372 0.135768 -0.08735
C_ C_ 0.540368 0.683587 0.165351 -0.08735
C_ C_ 0.582348 0.679385 0.182895 -0.05681
C_ C_ 0.631119 0.675256 0.170563 -0.05681
C_ C_ 0.638283 0.675636 0.140947 -0.05681
C_ C_ 0.687 0.668821 0.129151 -0.05681
C_ C_ 0.727795 0.662847 0.147486 -0.08735
C_ C_ 0.722269 0.670837 0.177685 -0.08735
C_ C_ 0.673309 0.675471 0.188702 -0.05681
C_ C_ 0.666206 0.677831 0.218767 0.44287
C_ C_ 0.576793 0.684426 0.212587 0.44287
C_ C_ 0.608782 0.662341 0.259222 0.18498
C_ C_ 0.584312 0.614713 0.26547 -0.08735
C_ C_ 0.572169 0.603517 0.29408 -0.08735
C_ C_ 0.58716 0.632775 0.31648 -0.08735
C_ C_ 0.615887 0.677152 0.311333 0.18498
C_ C_ 0.621746 0.694327 0.283029 -0.05681
C_ C_ 0.641727 0.742262 0.279023 -0.08735
C_ C_ 0.659179 0.771116 0.302497 -0.08735
C_ C_ 0.657993 0.749523 0.329802 0.1947
C_ C_ 0.777833 0.808458 0.159471 0.68181
C_ C_ 0.721062 0.80573 0.155077 -0.05681
C_ C_ 0.687028 0.807263 0.178616 -0.08735
C_ C_ 0.633141 0.806301 0.173728 -0.05681
C_ C_ 0.613229 0.807267 0.14672 -0.05681
C_ C_ 0.647854 0.809294 0.123949 -0.08735
C_ C_ 0.70074 0.808102 0.12683 -0.08735
C_ C_ 0.601097 0.817709 0.197824 -0.08735
C_ C_ 0.548179 0.820559 0.193643 -0.08735
C_ C_ 0.526647 0.813353 0.165212 -0.05681
C_ C_ 0.559588 0.806405 0.142423 -0.08735
C_ C_ 0.884857 0.719028 0.166199 0.68181
C_ C_ 0.876391 0.913268 0.150007 0.68181
C_ C_ 0.880021 0.970565 0.14938 -0.05681
C_ C_ 0.870694 0.502254 0.176401 -0.08735
C_ C_ 0.872497 0.556686 0.173423 -0.05681
C_ C_ 0.877829 0.580208 0.146515 -0.05681
C_ C_ 0.881403 0.548054 0.122107 -0.08735
C_ C_ 0.884465 0.996414 0.12297 -0.08735
C_ C_ 0.879632 0.587811 0.198308 -0.08735
C_ C_ 0.880072 0.641039 0.195304 -0.08735
C_ C_ 0.884805 0.663587 0.166975 -0.05681
C_ C_ 0.888408 0.631993 0.142867 -0.08735
C_ C_ 0.973289 0.819679 0.159295 0.68181
C_ C_ 0.896268 0.877621 0.232791 0.1947
C_ C_ 0.910207 0.892231 0.259866 -0.08735
C_ C_ 0.895282 0.864484 0.284235 -0.08735
C_ C_ 0.861285 0.823154 0.279505 -0.05681
C_ C_ 0.84727 0.810404 0.25076 0.18498
C_ C_ 0.819796 0.766296 0.24681 -0.08735
C_ C_ 0.800659 0.737533 0.269535 -0.08735
C_ C_ 0.809221 0.751739 0.297966 -0.08735
C_ C_ 0.83899 0.795376 0.303209 0.18498
C_ C_ 0.812364 0.82735 0.348992 0.44287
C_ C_ 0.897318 0.798028 0.343199 0.44287
C_ C_ 0.908279 0.809799 0.372563 -0.05681
C_ C_ 0.957664 0.801672 0.385071 -0.08735
C_ C_ 0.963843 0.808867 0.413621 -0.08735
C_ C_ 0.926152 0.824852 0.430873 -0.05681
C_ C_ 0.877734 0.831544 0.420302 -0.05681
C_ C_ 0.868055 0.825664 0.390627 -0.05681
C_ C_ 0.81924 0.830779 0.379165 -0.05681
C_ C_ 0.778808 0.840897 0.398132 -0.08735
C_ C_ 0.787186 0.84516 0.42693 -0.08735
C_ C_ 0.836552 0.841554 0.438488 -0.05681
C_ C_ 0.845388 0.84669 0.468477 0.44287
C_ C_ 0.93368 0.830422 0.460907 0.44287
C_ C_ 0.900373 0.834401 0.0110971 0.18498
C_ C_ 0.931432 0.877087 0.0164506 -0.08735
C_ C_ 0.944358 0.890766 0.0447258 -0.08735
C_ C_ 0.931579 0.860105 0.0684536 -0.08735
C_ C_ 0.89973 0.816964 0.0636495 0.18498
C_ C_ 0.880418 0.80612 0.0354757 -0.05681
C_ C_ 0.841892 0.770364 0.0320678 -0.08735
C_ C_ 0.824537 0.743313 0.0564133 -0.08735
C_ C_ 0.843434 0.75557 0.0833748 0.1947
N_ N_ 0.636031 0.672596 0.478642 -0.29468
N_ N_ 0.651011 0.680544 0.0814139 -0.17154
N_ N_ 0.617471 0.6773 0.229562 -0.17154
N_ N_ 0.632536 0.705416 0.334111 -0.29468
N_ N_ 0.866995 0.836167 0.227642 -0.29468
N_ N_ 0.85064 0.807949 0.332651 -0.17154
N_ N_ 0.893332 0.840949 0.47888 -0.17154
N_ N_ 0.879474 0.792915 0.0875606 -0.29468
O_ O_ 0.711286 0.695416 0.430166 -0.58347
O_ O_ 0.704626 0.70513 0.384793 -0.58347
O_ O_ 0.626263 0.761904 0.43534 -0.58347
O_ O_ 0.610057 0.762361 0.389703 -0.58347
O_ O_ 0.646387 0.611572 0.422424 -0.58347
O_ O_ 0.64611 0.615334 0.374925 -0.58347
O_ O_ 0.561573 0.679379 0.428236 -0.58347
O_ O_ 0.552349 0.67593 0.380704 -0.58347
O_ O_ 0.567885 0.705558 0.0776268 -0.46727
O_ O_ 0.737285 0.66755 0.0868835 -0.46727
O_ O_ 0.532723 0.690392 0.224276 -0.46727
O_ O_ 0.704146 0.669033 0.236209 -0.46727
O_ O_ 0.79557 0.814685 0.18368 -0.58347
O_ O_ 0.807201 0.801771 0.13815 -0.58347
O_ O_ 0.87724 0.743783 0.188916 -0.58347
O_ O_ 0.889143 0.7427 0.142799 -0.58347
O_ O_ 0.869926 0.889494 0.172916 -0.58347
O_ O_ 0.876624 0.887508 0.127358 -0.58347
O_ O_ 0.945541 0.820568 0.18223 -0.58347
O_ O_ 0.954802 0.817334 0.134245 -0.58347
O_ O_ 0.928569 0.770869 0.327245 -0.46727
O_ O_ 0.77053 0.838264 0.336683 -0.46727
O_ O_ 0.980187 0.825047 0.470928 -0.46727
O_ O_ 0.807615 0.857485 0.486132 -0.46727
Zn Zn 0.627906 0.68379 0.884313 0.90689
Zn Zn 0.643352 0.670254 0.92974 0.90689
Zn Zn 0.880072 0.823128 0.631008 0.90689
Zn Zn 0.871235 0.829456 0.679279 0.90689
H_ H_ 0.811503 0.702165 0.946027 0.11455
H_ H_ 0.874484 0.659807 0.848902 0.11455
H_ H_ 0.781475 0.677528 0.85625 0.11455
H_ H_ 0.893387 0.697762 0.964683 0.11455
H_ H_ 0.984798 0.687031 0.957546 0.11455
H_ H_ 0.95765 0.661011 0.866394 0.11455
H_ H_ 0.637538 0.506935 0.946058 0.11455
H_ H_ 0.59754 0.929721 0.852313 0.11455
H_ H_ 0.624802 0.52614 0.852382 0.11455
H_ H_ 0.65331 0.928819 0.967843 0.11455
H_ H_ 0.661876 0.839416 0.961291 0.11455
H_ H_ 0.607344 0.846531 0.875061 0.11455
H_ H_ 0.589799 0.59194 0.963803 0.11455
H_ H_ 0.580196 0.574417 0.512438 0.11455
H_ H_ 0.628528 0.609087 0.552586 0.11455
H_ H_ 0.690591 0.738779 0.972411 0.11455
H_ H_ 0.729588 0.801109 0.520861 0.11455
H_ H_ 0.715584 0.765059 0.570255 0.11455
H_ H_ 0.518991 0.700347 0.621865 0.11455
H_ H_ 0.503113 0.696103 0.674553 0.11455
H_ H_ 0.769289 0.669556 0.644262 0.11455
H_ H_ 0.754813 0.682831 0.696547 0.11455
H_ H_ 0.563566 0.594232 0.750571 0.11455
H_ H_ 0.546485 0.566506 0.802315 0.11455
H_ H_ 0.571056 0.623068 0.84166 0.11455
H_ H_ 0.654628 0.752519 0.762599 0.11455
H_ H_ 0.692218 0.793846 0.804355 0.11455
H_ H_ 0.68936 0.753092 0.848947 0.11455
H_ H_ 0.705118 0.783881 0.685536 0.11455
H_ H_ 0.634673 0.861502 0.594673 0.11455
H_ H_ 0.726154 0.864421 0.606285 0.11455
H_ H_ 0.617077 0.788756 0.706167 0.11455
H_ H_ 0.52671 0.804161 0.702846 0.11455
H_ H_ 0.542272 0.836223 0.615188 0.11455
H_ H_ 0.904582 0.99194 0.683592 0.11455
H_ H_ 0.861973 0.576385 0.598276 0.11455
H_ H_ 0.808267 0.984784 0.610574 0.11455
H_ H_ 0.870897 0.581362 0.719467 0.11455
H_ H_ 0.880444 0.675392 0.712396 0.11455
H_ H_ 0.890247 0.660606 0.62126 0.11455
H_ H_ 0.917451 0.912908 0.711325 0.11455
H_ H_ 0.940136 0.938025 0.759806 0.11455
H_ H_ 0.910615 0.885064 0.803476 0.11455
H_ H_ 0.809037 0.766997 0.721862 0.11455
H_ H_ 0.789181 0.710319 0.762998 0.11455
H_ H_ 0.820382 0.726665 0.810123 0.11455
H_ H_ 0.997356 0.810945 0.872506 0.11455
H_ H_ 1.00902218 0.808453 0.923983 0.11455
H_ H_ 0.746484 0.841929 0.884807 0.11455
H_ H_ 0.752352 0.845543 0.937594 0.11455
H_ H_ 0.946305 0.898448 0.998051 0.11455
H_ H_ 0.956358 0.951589 0.547239 0.11455
H_ H_ 0.929235 0.899868 0.587108 0.11455
H_ H_ 0.873717 0.758976 0.502862 0.11455
H_ H_ 0.847612 0.701152 0.543959 0.11455
H_ H_ 0.844335 0.740127 0.593862 0.11455
C_ C_ 0.733525 0.677674 0.908863 0.68181
C_ C_ 0.78813 0.687911 0.902213 -0.05681
C_ C_ 0.822136 0.696029 0.924192 -0.08735
C_ C_ 0.874702 0.687218 0.920627 -0.05681
C_ C_ 0.893923 0.674569 0.892662 -0.05681
C_ C_ 0.859694 0.673587 0.869792 -0.08735
C_ C_ 0.80804 0.679118 0.874415 -0.08735
C_ C_ 0.909379 0.6865 0.943593 -0.08735
C_ C_ 0.962516 0.681031 0.93891 -0.08735
C_ C_ 0.982102 0.67298 0.911107 -0.05681
C_ C_ 0.946127 0.671864 0.887524 -0.08735
C_ C_ 0.634583 0.776022 0.915117 0.68181
C_ C_ 0.636922 0.578488 0.902241 0.68181
C_ C_ 0.63085 0.522203 0.899201 -0.05681
C_ C_ 0.639306 -0.007224000000000008 0.92544 -0.08735
C_ C_ 0.636902 0.941248 0.92218 -0.05681
C_ C_ 0.619345 0.918142 0.897587 -0.05681
C_ C_ 0.60681 0.947362 0.873369 -0.08735
C_ C_ 0.61534 -0.0008749999999999591 0.875001 -0.08735
C_ C_ 0.645251 0.911137 0.945973 -0.08735
C_ C_ 0.646579 0.858726 0.944081 -0.08735
C_ C_ 0.632233 0.832149 0.918361 -0.05681
C_ C_ 0.618686 0.863732 0.894502 -0.08735
C_ C_ 0.537231 0.678786 0.904167 0.68181
C_ C_ 0.609244 0.608737 0.981345 0.1947
C_ C_ 0.603057 0.607006 0.509249 -0.08735
C_ C_ 0.62634 0.628907 0.533071 -0.08735
C_ C_ 0.651588 0.67619 0.529934 -0.05681
C_ C_ 0.657218 0.696159 0.501675 0.18498
C_ C_ 0.681916 0.726839 0.994538 -0.08735
C_ C_ 0.709145 0.764419 0.523537 -0.08735
C_ C_ 0.695888 0.747927 0.551418 -0.08735
C_ C_ 0.666543 0.705431 0.554853 0.18498
C_ C_ 0.694715 0.671251 0.601499 0.44287
C_ C_ 0.61093 0.697352 0.596351 0.44287
C_ C_ 0.600205 0.686101 0.625295 -0.05681
C_ C_ 0.550047 0.692889 0.636512 -0.08735
C_ C_ 0.540935 0.689056 0.666527 -0.08735
C_ C_ 0.583323 0.685823 0.685459 -0.05681
C_ C_ 0.633463 0.678555 0.673865 -0.05681
C_ C_ 0.640859 0.675181 0.64341 -0.05681
C_ C_ 0.688736 0.674422 0.632138 -0.05681
C_ C_ 0.729812 0.667211 0.651964 -0.08735
C_ C_ 0.723062 0.674437 0.681929 -0.08735
C_ C_ 0.674126 0.673996 0.693056 -0.05681
C_ C_ 0.664374 0.663635 0.721698 0.44287
C_ C_ 0.579924 0.6897 0.714536 0.44287
C_ C_ 0.605801 0.659579 0.761938 0.18498
C_ C_ 0.579735 0.613288 0.768242 -0.08735
C_ C_ 0.564076 0.602535 0.796606 -0.08735
C_ C_ 0.579432 0.632302 0.819142 -0.08735
C_ C_ 0.613855 0.672107 0.814542 0.18498
C_ C_ 0.625476 0.687755 0.785605 -0.05681
C_ C_ 0.653535 0.733645 0.782346 -0.08735
C_ C_ 0.672007 0.75794 0.806396 -0.08735
C_ C_ 0.667221 0.73722 0.83274 0.1947
C_ C_ 0.776576 0.815268 0.649615 0.68181
C_ C_ 0.721338 0.818908 0.645322 -0.05681
C_ C_ 0.68769 0.798825 0.665812 -0.08735
C_ C_ 0.635121 0.81073 0.663845 -0.05681
C_ C_ 0.612788 0.828193 0.637155 -0.05681
C_ C_ 0.64772 0.844865 0.61508 -0.08735
C_ C_ 0.700628 0.841622 0.620354 -0.08735
C_ C_ 0.602448 0.803356 0.686841 -0.08735
C_ C_ 0.5512 0.814876 0.68524 -0.08735
C_ C_ 0.527835 0.826951 0.659078 -0.05681
C_ C_ 0.559691 0.833518 0.635309 -0.08735
C_ C_ 0.8867 0.729754 0.663303 0.68181
C_ C_ 0.862396 0.923509 0.647092 0.68181
C_ C_ 0.865189 0.98044 0.644566 -0.05681
C_ C_ 0.865734 0.513721 0.674775 -0.08735
C_ C_ 0.874596 0.566654 0.672396 -0.05681
C_ C_ 0.87635 0.589303 0.644813 -0.05681
C_ C_ 0.868646 0.560343 0.620613 -0.08735
C_ C_ 0.834548 1.00582822 0.623794 -0.08735
C_ C_ 0.873027 0.598254 0.697854 -0.08735
C_ C_ 0.88112 0.651335 0.694383 -0.08735
C_ C_ 0.883243 0.673321 0.66622 -0.05681
C_ C_ 0.883476 0.643032 0.642101 -0.08735
C_ C_ 0.9711 0.833612 0.657491 0.68181
C_ C_ 0.902805 0.890152 0.729815 0.1947
C_ C_ 0.915191 0.907019 0.757731 -0.08735
C_ C_ 0.903012 0.873412 0.780582 -0.08735
C_ C_ 0.872072 0.830753 0.777149 -0.05681
C_ C_ 0.85138 0.819889 0.748038 0.18498
C_ C_ 0.822707 0.776855 0.742992 -0.08735
C_ C_ 0.812311 0.744167 0.766192 -0.08735
C_ C_ 0.828507 0.753171 0.79401 -0.08735
C_ C_ 0.856362 0.796857 0.799993 0.18498
C_ C_ 0.822883 0.821514 0.847324 0.44287
C_ C_ 0.910426 0.812549 0.842368 0.44287
C_ C_ 0.916039 0.81838 0.872575 -0.05681
C_ C_ 0.964648 0.8147 0.885886 -0.08735
C_ C_ 0.969854 0.813605 0.915353 -0.08735
C_ C_ 0.927302 0.814101 0.932764 -0.05681
C_ C_ 0.878615 0.818495 0.920677 -0.05681
C_ C_ 0.873925 0.822063 0.890598 -0.05681
C_ C_ 0.825785 0.82602 0.877166 -0.05681
C_ C_ 0.782061 0.833769 0.894617 -0.08735
C_ C_ 0.78686 0.833711 0.925531 -0.08735
C_ C_ 0.837611 0.828583 0.938507 -0.05681
C_ C_ 0.844064 0.829342 0.968411 0.44287
C_ C_ 0.932 0.809655 0.962406 0.44287
C_ C_ 0.9053 0.854894 0.508039 0.18498
C_ C_ 0.926675 0.902313 0.51401 -0.08735
C_ C_ 0.938221 0.916263 0.542226 -0.08735
C_ C_ 0.921129 0.888174 0.566486 -0.08735
C_ C_ 0.895377 0.840553 0.560062 0.18498
C_ C_ 0.896709 0.82137 0.530796 -0.05681
C_ C_ 0.878064 0.771241 0.525285 -0.08735
C_ C_ 0.859276 0.741491 0.548376 -0.08735
C_ C_ 0.86149 0.761009 0.577144 0.1947
N_ N_ 0.636566 0.652764 0.976942 -0.29468
N_ N_ 0.65643 0.687127 0.583735 -0.17154
N_ N_ 0.617358 0.67196 0.73246 -0.17154
N_ N_ 0.637744 0.694716 0.837532 -0.29468
N_ N_ 0.871169 0.84787 0.725258 -0.29468
N_ N_ 0.863249 0.811748 0.830262 -0.17154
N_ N_ 0.891788 0.819809 0.980729 -0.17154
N_ N_ 0.879374 0.809816 0.581686 -0.29468
O_ O_ 0.71745 0.680489 0.933665 -0.58347
O_ O_ 0.70398 0.674046 0.887074 -0.58347
O_ O_ 0.629408 0.745005 0.935416 -0.58347
O_ O_ 0.636798 0.758264 0.889787 -0.58347
O_ O_ 0.654259 0.598871 0.924746 -0.58347
O_ O_ 0.617369 0.606257 0.882984 -0.58347
O_ O_ 0.566449 0.666906 0.924841 -0.58347
O_ O_ 0.554563 0.691629 0.880331 -0.58347
O_ O_ 0.574641 0.714283 0.578997 -0.46727
O_ O_ 0.737897 0.662763 0.591065 -0.46727
O_ O_ 0.538537 0.70872 0.726596 -0.46727
O_ O_ 0.703016 0.653485 0.740137 -0.46727
O_ O_ 0.794214 0.829689 0.672916 -0.58347
O_ O_ 0.804857 0.809988 0.62764 -0.58347
O_ O_ 0.875011 0.757496 0.684275 -0.58347
O_ O_ 0.888607 0.748473 0.637456 -0.58347
O_ O_ 0.868797 0.902235 0.670831 -0.58347
O_ O_ 0.863659 0.895652 0.624524 -0.58347
O_ O_ 0.944392 0.829333 0.679477 -0.58347
O_ O_ 0.953092 0.836244 0.632907 -0.58347
O_ O_ 0.952169 0.811563 0.826803 -0.46727
O_ O_ 0.77911 0.828076 0.835015 -0.46727
O_ O_ 0.975567 0.793341 0.973629 -0.46727
O_ O_ 0.804231 0.839263 0.98612 -0.46727
_cell_length_a 26.376
_cell_length_b 26.400000238300095
_cell_length_c 46.67800035477134
_cell_angle_alpha 90.00700052986613
_cell_angle_beta 89.99899961309502
_cell_angle_gamma 90.45000003183146
_symmetry_space_group_name_H-M         'P 1'
_symmetry_Int_Tables_number            1
loop_
_symmetry_equiv_pos_as_xyz
   'x, y, z'
                         
loop_
_atom_site_label
_atom_site_type_symbol
_atom_site_fract_x 
_atom_site_fract_y
_atom_site_fract_z
_atom_site_charge
Zn Zn 0.12271 0.178191 0.380366 0.90689
Zn Zn 0.131615 0.175585 0.431151 0.90689
Zn Zn 0.374955 0.304603 0.134102 0.90689
Zn Zn 0.365238 0.31385 0.180202 0.90689
H_ H_ 0.297946 0.185756 0.444141 0.11455
H_ H_ 0.365991 0.150273 0.34706 0.11455
H_ H_ 0.273387 0.157555 0.352586 0.11455
H_ H_ 0.380836 0.198113 0.462747 0.11455
H_ H_ 0.474464 0.194833 0.456253 0.11455
H_ H_ 0.452364 0.163868 0.366793 0.11455
H_ H_ 0.115099 0.00844377 0.44435 0.11455
H_ H_ 0.169336 0.430433 0.348355 0.11455
H_ H_ 0.142011 0.0189034 0.355066 0.11455
H_ H_ 0.0959402 0.431191 0.459246 0.11455
H_ H_ 0.0975126 0.336478 0.455943 0.11455
H_ H_ 0.143561 0.346792 0.368259 0.11455
H_ H_ 0.0842109 0.103755 0.464095 0.11455
H_ H_ 0.0552169 0.0712568 0.0118095 0.11455
H_ H_ 0.0987826 0.112186 0.0539861 0.11455
H_ H_ 0.180267 0.252452 0.474562 0.11455
H_ H_ 0.219532 0.281862 0.0123757 0.11455
H_ H_ 0.186942 0.268611 0.0614511 0.11455
H_ H_ 0.0114114 0.20855 0.122362 0.11455
H_ H_ -0.0012729999999999686 0.201073 0.175254 0.11455
H_ H_ 0.251641 0.129765 0.133352 0.11455
H_ H_ 0.248079 0.13423 0.186954 0.11455
H_ H_ 0.0481971 0.0928665 0.246289 0.11455
H_ H_ 0.0305064 0.0655505 0.296794 0.11455
H_ H_ 0.0673491 0.110543 0.33651 0.11455
H_ H_ 0.154807 0.238701 0.254826 0.11455
H_ H_ 0.197396 0.274148 0.29709 0.11455
H_ H_ 0.182261 0.24222 0.34539 0.11455
H_ H_ 0.202646 0.313102 0.198242 0.11455
H_ H_ 0.127211 0.326122 0.100843 0.11455
H_ H_ 0.215442 0.307022 0.106389 0.11455
H_ H_ 0.116864 0.30747 0.218661 0.11455
H_ H_ 0.0224784 0.314615 0.212475 0.11455
H_ H_ 0.0430022 0.323729 0.121006 0.11455
H_ H_ 0.33017 0.482882 0.184548 0.11455
H_ H_ 0.353071 0.0597846 0.0975671 0.11455
H_ H_ 0.413257 0.464302 0.106049 0.11455
H_ H_ 0.346751 0.0621346 0.215 0.11455
H_ H_ 0.361109 0.154464 0.209805 0.11455
H_ H_ 0.357821 0.139277 0.118227 0.11455
H_ H_ 0.416788 0.394301 0.213256 0.11455
H_ H_ 0.429428 0.425914 0.262474 0.11455
H_ H_ 0.391228 0.380189 0.304268 0.11455
H_ H_ 0.310162 0.254114 0.223214 0.11455
H_ H_ 0.292438 0.192402 0.260282 0.11455
H_ H_ 0.323599 0.209175 0.310433 0.11455
H_ H_ 0.486346 0.298399 0.377023 0.11455
H_ H_ 0.489148 0.297634 0.429317 0.11455
H_ H_ 0.226151 0.30603 0.38428 0.11455
H_ H_ 0.235544 0.319009 0.435759 0.11455
H_ H_ 0.420715 0.409328 0.49659 0.11455
H_ H_ 0.479964 0.393583 0.0486076 0.11455
H_ H_ 0.426675 0.369734 0.0875718 0.11455
H_ H_ 0.3346 0.242289 0.00816134 0.11455
H_ H_ 0.302377 0.196047 0.0510524 0.11455
H_ H_ 0.30817 0.236817 0.0993741 0.11455
C_ C_ 0.225638 0.177649 0.403187 0.68181
C_ C_ 0.280264 0.172327 0.398596 -0.05681
C_ C_ 0.31196 0.179542 0.422211 -0.08735
C_ C_ 0.365318 0.176952 0.418519 -0.05681
C_ C_ 0.386206 0.165496 0.391761 -0.05681
C_ C_ 0.352713 0.160773 0.36873 -0.08735
C_ C_ 0.299465 0.160731 0.371521 -0.08735
C_ C_ 0.396579 0.189406 0.442033 -0.08735
C_ C_ 0.45018 0.187041 0.438392 -0.08735
C_ C_ 0.471403 0.178049 0.411524 -0.05681
C_ C_ 0.43869 0.169329 0.388319 -0.08735
C_ C_ 0.122629 0.275635 0.410433 0.68181
C_ C_ 0.128806 0.0758874 0.401696 0.68181
C_ C_ 0.127024 0.0193937 0.399864 -0.05681
C_ C_ 0.120214 0.493374 0.41817 -0.08735
C_ C_ 0.126198 0.441161 0.416719 -0.05681
C_ C_ 0.141928 0.41745 0.391963 -0.05681
C_ C_ 0.152773 0.448729 0.367584 -0.08735
C_ C_ 0.16034 0.499661 0.371005 -0.08735
C_ C_ 0.105288 0.411737 0.439022 -0.08735
C_ C_ 0.113592 0.358652 0.43874 -0.08735
C_ C_ 0.125724 0.3323 0.413086 -0.05681
C_ C_ 0.139415 0.363804 0.389288 -0.08735
C_ C_ 0.0270779 0.184241 0.406459 0.68181
C_ C_ 0.101696 0.123046 0.48256 0.1947
C_ C_ 0.0845574 0.0992826 0.00869769 -0.08735
C_ C_ 0.107161 0.122639 0.03127 -0.08735
C_ C_ 0.139133 0.164831 0.0276375 -0.05681
C_ C_ 0.147764 0.178182 0.999063 0.18498
C_ C_ 0.175869 0.238633 0.496203 -0.08735
C_ C_ 0.196931 0.248825 0.0167135 -0.08735
C_ C_ 0.177302 0.241718 0.0444246 -0.08735
C_ C_ 0.149683 0.197436 0.0509764 0.18498
C_ C_ 0.178724 0.167517 0.0966213 0.44287
C_ C_ 0.0953319 0.198821 0.0923222 0.44287
C_ C_ 0.0893908 0.195185 0.122157 -0.05681
C_ C_ 0.0442701 0.203645 0.135447 -0.08735
C_ C_ 0.0362181 0.19271 0.164389 -0.08735
C_ C_ 0.077728 0.182603 0.182085 -0.05681
C_ C_ 0.125226 0.173522 0.169929 -0.05681
C_ C_ 0.131485 0.178641 0.139318 -0.05681
C_ C_ 0.176355 0.164499 0.127228 -0.05681
C_ C_ 0.217237 0.142909 0.144113 -0.08735
C_ C_ 0.214205 0.146054 0.174522 -0.08735
C_ C_ 0.167306 0.157883 0.186609 -0.05681
C_ C_ 0.158789 0.154585 0.21695 0.44287
C_ C_ 0.072002 0.181655 0.212455 0.44287
C_ C_ 0.101385 0.149309 0.259008 0.18498
C_ C_ 0.0711762 0.106559 0.263951 -0.08735
C_ C_ 0.0577926 0.0943073 0.292735 -0.08735
C_ C_ 0.0800952 0.119381 0.315094 -0.08735
C_ C_ 0.108041 0.163294 0.310303 0.18498
C_ C_ 0.11551 0.179661 0.281802 -0.05681
C_ C_ 0.14677 0.222521 0.276122 -0.08735
C_ C_ 0.170237 0.246181 0.299307 -0.08735
C_ C_ 0.15906 0.23 0.327515 0.1947
C_ C_ 0.27253 0.312584 0.157002 0.68181
C_ C_ 0.216565 0.311784 0.152838 -0.05681
C_ C_ 0.18442 0.312362 0.176339 -0.08735
C_ C_ 0.13228 0.31371 0.173632 -0.05681
C_ C_ 0.110116 0.318957 0.147022 -0.05681
C_ C_ 0.142989 0.320475 0.122245 -0.08735
C_ C_ 0.193899 0.310814 0.12492 -0.08735
C_ C_ 0.0996346 0.313108 0.197064 -0.08735
C_ C_ 0.0467463 0.314689 0.194033 -0.08735
C_ C_ 0.0249952 0.319304 0.165863 -0.05681
C_ C_ 0.0582446 0.321751 0.142586 -0.08735
C_ C_ 0.366235 0.210185 0.162075 0.68181
C_ C_ 0.365078 0.408491 0.148828 0.68181
C_ C_ 0.372751 0.466323 0.145999 -0.05681
C_ C_ 0.352776 -0.00347900000000001 0.171628 -0.08735
C_ C_ 0.35195 0.0490965 0.169406 -0.05681
C_ C_ 0.353593 0.0716417 0.141769 -0.05681
C_ C_ 0.353988 0.0406901 0.117325 -0.08735
C_ C_ 0.397422 0.488214 0.121793 -0.08735
C_ C_ 0.351055 0.0788485 0.193075 -0.08735
C_ C_ 0.361202 0.131275 0.190565 -0.08735
C_ C_ 0.363793 0.154574 0.163873 -0.05681
C_ C_ 0.35516 0.124633 0.139366 -0.08735
C_ C_ 0.468685 0.314767 0.157565 0.68181
C_ C_ 0.400826 0.372498 0.231875 0.1947
C_ C_ 0.407899 0.390307 0.259419 -0.08735
C_ C_ 0.383841 0.368048 0.282457 -0.08735
C_ C_ 0.35828 0.321333 0.279016 -0.05681
C_ C_ 0.35258 0.304644 0.249959 0.18498
C_ C_ 0.324311 0.261104 0.243639 -0.08735
C_ C_ 0.313294 0.225693 0.26576 -0.08735
C_ C_ 0.329615 0.237544 0.293444 -0.08735
C_ C_ 0.349286 0.284477 0.301149 0.18498
C_ C_ 0.311362 0.303504 0.346738 0.44287
C_ C_ 0.400401 0.290687 0.344703 0.44287
C_ C_ 0.404536 0.29616 0.37516 -0.05681
C_ C_ 0.452043 0.299476 0.388817 -0.08735
C_ C_ 0.454381 0.302001 0.419254 -0.08735
C_ C_ 0.409984 0.309302 0.434709 -0.05681
C_ C_ 0.362708 0.311072 0.421216 -0.05681
C_ C_ 0.359309 0.304264 0.390849 -0.05681
C_ C_ 0.313458 0.307561 0.376581 -0.05681
C_ C_ 0.267119 0.308593 0.393301 -0.08735
C_ C_ 0.270675 0.31386 0.42367 -0.08735
C_ C_ 0.318439 0.316332 0.437398 -0.05681
C_ C_ 0.323475 0.329038 0.466693 0.44287
C_ C_ 0.413088 0.316474 0.464374 0.44287
C_ C_ 0.393101 0.325315 0.00987809 0.18498
C_ C_ 0.433045 0.362126 0.0165671 -0.08735
C_ C_ 0.446115 0.373919 0.0445054 -0.08735
C_ C_ 0.415074 0.356865 0.0671216 -0.08735
C_ C_ 0.383301 0.316609 0.0634153 0.18498
C_ C_ 0.370393 0.300439 0.0336642 -0.05681
C_ C_ 0.338922 0.25895 0.0292046 -0.08735
C_ C_ 0.321726 0.231609 0.0543732 -0.08735
C_ C_ 0.328767 0.251454 0.0816027 0.1947
N_ N_ 0.129175 0.164645 0.478357 -0.29468
N_ N_ 0.140039 0.183909 0.0801017 -0.17154
N_ N_ 0.111151 0.163113 0.229148 -0.17154
N_ N_ 0.124596 0.192214 0.332862 -0.29468
N_ N_ 0.371847 0.33217 0.227081 -0.29468
N_ N_ 0.354079 0.295437 0.331103 -0.17154
N_ N_ 0.370202 0.329183 0.479744 -0.17154
N_ N_ 0.362664 0.290981 0.0857238 -0.29468
O_ O_ 0.203956 0.188382 0.426921 -0.58347
O_ O_ 0.198681 0.173794 0.380733 -0.58347
O_ O_ 0.123518 0.247742 0.43233 -0.58347
O_ O_ 0.127563 0.254731 0.386203 -0.58347
O_ O_ 0.144784 0.0979297 0.4251 -0.58347
O_ O_ 0.118528 0.0995124 0.37916 -0.58347
O_ O_ 0.054011 0.168581 0.427506 -0.58347
O_ O_ 0.0453923 0.184193 0.381628 -0.58347
O_ O_ 0.0611132 0.221412 0.0761619 -0.46727
O_ O_ 0.220221 0.1499 0.0851784 -0.46727
O_ O_ 0.0283434 0.18999 0.224196 -0.46727
O_ O_ 0.195403 0.138039 0.234422 -0.46727
O_ O_ 0.29201 0.313737 0.181997 -0.58347
O_ O_ 0.299787 0.30585 0.134756 -0.58347
O_ O_ 0.366935 0.237249 0.183262 -0.58347
O_ O_ 0.373262 0.228982 0.138557 -0.58347
O_ O_ 0.357935 0.389141 0.172639 -0.58347
O_ O_ 0.370825 0.380084 0.128257 -0.58347
O_ O_ 0.438996 0.317144 0.17856 -0.58347
O_ O_ 0.449536 0.306508 0.132196 -0.58347
O_ O_ 0.4403 0.279438 0.328362 -0.46727
O_ O_ 0.267159 0.297427 0.334281 -0.46727
O_ O_ 0.452971 0.302641 0.479089 -0.46727
O_ O_ 0.282266 0.345913 0.480433 -0.46727
Zn Zn 0.11546 0.186844 0.881271 0.90689
Zn Zn 0.126344 0.171849 0.929056 0.90689
Zn Zn 0.367939 0.323011 0.632734 0.90689
Zn Zn 0.358252 0.327116 0.68072 0.90689
H_ H_ 0.292157 0.202454 0.940031 0.11455
H_ H_ 0.361965 0.153329 0.846331 0.11455
H_ H_ 0.27116 0.16135 0.85247 0.11455
H_ H_ 0.377255 0.185421 0.965851 0.11455
H_ H_ 0.468833 0.168812 0.957217 0.11455
H_ H_ 0.444903 0.152479 0.86734 0.11455
H_ H_ 0.123303 0.0146458 0.93915 0.11455
H_ H_ 0.0928679 0.431629 0.84851 0.11455
H_ H_ 0.125171 0.0228244 0.848311 0.11455
H_ H_ 0.158293 0.430521 0.959789 0.11455
H_ H_ 0.154125 0.337156 0.958697 0.11455
H_ H_ 0.101614 0.348315 0.869518 0.11455
H_ H_ 0.0679895 0.101127 0.964284 0.11455
H_ H_ 0.0588113 0.080791 0.510734 0.11455
H_ H_ 0.0952475 0.12699 0.553975 0.11455
H_ H_ 0.19276 0.229911 0.971938 0.11455
H_ H_ 0.220756 0.301811 0.515387 0.11455
H_ H_ 0.207597 0.27264 0.56444 0.11455
H_ H_ 0.0111908 0.205972 0.620168 0.11455
H_ H_ -0.008187000000000055 0.181941 0.669889 0.11455
H_ H_ 0.255713 0.15731 0.637657 0.11455
H_ H_ 0.239433 0.141215 0.690615 0.11455
H_ H_ 0.062978 0.0701504 0.752358 0.11455
H_ H_ 0.0393697 0.0566024 0.80267 0.11455
H_ H_ 0.045194 0.127497 0.835978 0.11455
H_ H_ 0.143943 0.237701 0.753509 0.11455
H_ H_ 0.181588 0.284412 0.792434 0.11455
H_ H_ 0.173507 0.25993 0.842903 0.11455
H_ H_ 0.188508 0.303967 0.695443 0.11455
H_ H_ 0.129457 0.332226 0.597267 0.11455
H_ H_ 0.219645 0.331618 0.60612 0.11455
H_ H_ 0.10654 0.303186 0.713515 0.11455
H_ H_ 0.0169429 0.309693 0.707048 0.11455
H_ H_ 0.0393944 0.325429 0.616968 0.11455
H_ H_ 0.3503 0.495206 0.693374 0.11455
H_ H_ 0.396574 0.0804307 0.594763 0.11455
H_ H_ 0.355868 0.483749 0.60308 0.11455
H_ H_ 0.358134 0.0765312 0.71247 0.11455
H_ H_ 0.362347 0.1693 0.709046 0.11455
H_ H_ 0.391503 0.163573 0.617056 0.11455
H_ H_ 0.412088 0.391408 0.719488 0.11455
H_ H_ 0.417703 0.429217 0.768383 0.11455
H_ H_ 0.365275 0.392316 0.808663 0.11455
H_ H_ 0.300022 0.255014 0.725442 0.11455
H_ H_ 0.25915 0.206675 0.767619 0.11455
H_ H_ 0.280544 0.234327 0.816213 0.11455
H_ H_ 0.461112 0.264366 0.870806 0.11455
H_ H_ 0.481883 0.265936 0.920174 0.11455
H_ H_ 0.226091 0.352459 0.892968 0.11455
H_ H_ 0.247748 0.354348 0.943764 0.11455
H_ H_ 0.453115 0.377067 -0.0011970000000000036 0.11455
H_ H_ 0.461405 0.420192 0.545112 0.11455
H_ H_ 0.426554 0.37948 0.58652 0.11455
H_ H_ 0.318977 0.259441 0.508443 0.11455
H_ H_ 0.297627 0.20888 0.551865 0.11455
H_ H_ 0.317226 0.241846 0.599544 0.11455
C_ C_ 0.220381 0.180217 0.902894 0.68181
C_ C_ 0.27441 0.178832 0.89709 -0.05681
C_ C_ 0.307529 0.183583 0.921019 -0.08735
C_ C_ 0.361173 0.176289 0.918462 -0.05681
C_ C_ 0.379896 0.16608 0.891202 -0.05681
C_ C_ 0.347365 0.167155 0.866885 -0.08735
C_ C_ 0.294618 0.163555 0.871197 -0.08735
C_ C_ 0.392485 0.178503 0.943143 -0.08735
C_ C_ 0.444062 0.168632 0.93883 -0.08735
C_ C_ 0.464689 0.161633 0.91147 -0.05681
C_ C_ 0.43183 0.159478 0.8881 -0.08735
C_ C_ 0.128326 0.278438 0.910071 0.68181
C_ C_ 0.122526 0.0803489 0.898105 0.68181
C_ C_ 0.128956 0.0253166 0.894544 -0.05681
C_ C_ 0.145177 0.494217 0.917699 -0.08735
C_ C_ 0.134228 0.441347 0.917437 -0.05681
C_ C_ 0.11733 0.418079 0.891928 -0.05681
C_ C_ 0.105373 0.448855 0.86838 -0.08735
C_ C_ 0.117604 0.502444 0.869692 -0.08735
C_ C_ 0.148529 0.411087 0.940186 -0.08735
C_ C_ 0.145088 0.359495 0.939944 -0.08735
C_ C_ 0.127106 0.334449 0.9141 -0.05681
C_ C_ 0.112879 0.36342 0.889735 -0.08735
C_ C_ 0.0247189 0.182928 0.907819 0.68181
C_ C_ 0.0919228 0.116413 0.981237 0.1947
C_ C_ 0.09014 0.105957 0.510237 -0.08735
C_ C_ 0.106537 0.136696 0.53217 -0.08735
C_ C_ 0.137603 0.17982 0.528259 -0.05681
C_ C_ 0.147367 0.194451 0.500784 0.18498
C_ C_ 0.17969 0.219894 0.993548 -0.08735
C_ C_ 0.198094 0.266384 0.518573 -0.08735
C_ C_ 0.192569 0.249493 0.546232 -0.08735
C_ C_ 0.159405 0.207816 0.551702 0.18498
C_ C_ 0.185962 0.178757 0.596504 0.44287
C_ C_ 0.101928 0.208017 0.592532 0.44287
C_ C_ 0.090705 0.194644 0.621021 -0.05681
C_ C_ 0.0412665 0.189892 0.632604 -0.08735
C_ C_ 0.0321134 0.180035 0.662217 -0.08735
C_ C_ 0.0721333 0.173957 0.681109 -0.05681
C_ C_ 0.120859 0.171454 0.669777 -0.05681
C_ C_ 0.130132 0.182728 0.640369 -0.05681
C_ C_ 0.177318 0.173645 0.62788 -0.05681
C_ C_ 0.217727 0.160483 0.647013 -0.08735
C_ C_ 0.210604 0.15431 0.677246 -0.08735
C_ C_ 0.161369 0.160356 0.689043 -0.05681
C_ C_ 0.15219 0.147504 0.717702 0.44287
C_ C_ 0.0640763 0.16382 0.710693 0.44287
C_ C_ 0.0930255 0.148307 0.759204 0.18498
C_ C_ 0.0678472 0.102831 0.767394 -0.08735
C_ C_ 0.0570192 0.0918919 0.796994 -0.08735
C_ C_ 0.0679598 0.12953 0.816543 -0.08735
C_ C_ 0.102822 0.168016 0.811104 0.18498
C_ C_ 0.112525 0.180038 0.781936 -0.05681
C_ C_ 0.134133 0.22761 0.775621 -0.08735
C_ C_ 0.15274 0.256791 0.797762 -0.08735
C_ C_ 0.15078 0.240119 0.826729 0.1947
C_ C_ 0.266941 0.309355 0.656693 0.68181
C_ C_ 0.210539 0.312871 0.650906 -0.05681
C_ C_ 0.17618 0.311558 0.674219 -0.08735
C_ C_ 0.123578 0.30703 0.66893 -0.05681
C_ C_ 0.106301 0.318482 0.641449 -0.05681
C_ C_ 0.140554 0.326489 0.618944 -0.08735
C_ C_ 0.192699 0.326506 0.624024 -0.08735
C_ C_ 0.0911323 0.309074 0.691886 -0.08735
C_ C_ 0.0398716 0.315583 0.68727 -0.08735
C_ C_ 0.0194383 0.321943 0.660308 -0.05681
C_ C_ 0.0533077 0.323772 0.637501 -0.08735
C_ C_ 0.369332 0.230333 0.663227 0.68181
C_ C_ 0.356189 0.425721 0.650303 0.68181
C_ C_ 0.352409 0.483679 0.647432 -0.05681
C_ C_ 0.372225 0.0147152 0.668442 -0.08735
C_ C_ 0.370024 0.067189 0.666971 -0.05681
C_ C_ 0.381177 0.0919132 0.640547 -0.05681
C_ C_ 0.390563 0.0612136 0.616137 -0.08735
C_ C_ 0.357024 0.507443 0.621306 -0.08735
C_ C_ 0.364427 0.096927 0.691506 -0.08735
C_ C_ 0.367242 0.15029 0.68909 -0.08735
C_ C_ 0.375755 0.174714 0.663616 -0.05681
C_ C_ 0.385526 0.144564 0.638877 -0.08735
C_ C_ 0.46273 0.325615 0.657262 0.68181
C_ C_ 0.390284 0.376057 0.736528 0.1947
C_ C_ 0.390887 0.397256 0.763414 -0.08735
C_ C_ 0.362844 0.376599 0.785799 -0.08735
C_ C_ 0.338805 0.329985 0.77989 -0.05681
C_ C_ 0.331077 0.314462 0.752229 0.18498
C_ C_ 0.303335 0.268102 0.746567 -0.08735
C_ C_ 0.283922 0.239811 0.77028 -0.08735
C_ C_ 0.290636 0.258367 0.797689 -0.08735
C_ C_ 0.318724 0.301978 0.802854 0.18498
C_ C_ 0.293105 0.328762 0.850407 0.44287
C_ C_ 0.378502 0.30354 0.842742 0.44287
C_ C_ 0.38969 0.303044 0.872304 -0.05681
C_ C_ 0.434906 0.282384 0.882675 -0.08735
C_ C_ 0.444371 0.282538 0.911327 -0.08735
C_ C_ 0.411074 0.302192 0.931032 -0.05681
C_ C_ 0.364353 0.32228 0.920633 -0.05681
C_ C_ 0.352848 0.321107 0.891299 -0.05681
C_ C_ 0.302752 0.330275 0.880779 -0.05681
C_ C_ 0.265708 0.35095 0.900362 -0.08735
C_ C_ 0.277716 0.35055 0.929486 -0.08735
C_ C_ 0.328326 0.338605 0.939545 -0.05681
C_ C_ 0.340589 0.342627 0.968944 0.44287
C_ C_ 0.418425 0.301457 0.961033 0.44287
C_ C_ 0.378411 0.344454 0.509644 0.18498
C_ C_ 0.413765 0.383754 0.514529 -0.08735
C_ C_ 0.431601 0.392612 0.541284 -0.08735
C_ C_ 0.411559 0.369104 0.565811 -0.08735
C_ C_ 0.3776 0.327999 0.561559 0.18498
C_ C_ 0.361945 0.312626 0.5332 -0.05681
C_ C_ 0.331131 0.271471 0.529543 -0.08735
C_ C_ 0.318986 0.242608 0.554051 -0.08735
C_ C_ 0.327739 0.262735 0.581239 0.1947
N_ N_ 0.121876 0.15599 0.975812 -0.29468
N_ N_ 0.147656 0.195608 0.57995 -0.17154
N_ N_ 0.103499 0.154484 0.729004 -0.17154
N_ N_ 0.12159 0.19794 0.833399 -0.29468
N_ N_ 0.35672 0.33742 0.730331 -0.29468
N_ N_ 0.331319 0.315775 0.831808 -0.17154
N_ N_ 0.380835 0.316266 0.979999 -0.17154
N_ N_ 0.359117 0.302292 0.584746 -0.29468
O_ O_ 0.202101 0.174136 0.927326 -0.58347
O_ O_ 0.190703 0.188388 0.881877 -0.58347
O_ O_ 0.126171 0.249804 0.932317 -0.58347
O_ O_ 0.12029 0.260939 0.885885 -0.58347
O_ O_ 0.129207 0.100417 0.923086 -0.58347
O_ O_ 0.115451 0.109187 0.876435 -0.58347
O_ O_ 0.0503422 0.16496 0.926866 -0.58347
O_ O_ 0.0424103 0.190304 0.883359 -0.58347
O_ O_ 0.0671292 0.228118 0.576815 -0.46727
O_ O_ 0.229731 0.169289 0.584797 -0.46727
O_ O_ 0.0201819 0.174024 0.721843 -0.46727
O_ O_ 0.189524 0.138936 0.73527 -0.46727
O_ O_ 0.283409 0.31584 0.682371 -0.58347
O_ O_ 0.296385 0.315894 0.6357 -0.58347
O_ O_ 0.367646 0.254906 0.68738 -0.58347
O_ O_ 0.375809 0.252491 0.640216 -0.58347
O_ O_ 0.35485 0.405588 0.67527 -0.58347
O_ O_ 0.357207 0.397898 0.628129 -0.58347
O_ O_ 0.434204 0.331217 0.678501 -0.58347
O_ O_ 0.443088 0.324161 0.632624 -0.58347
O_ O_ 0.414038 0.291622 0.824731 -0.46727
O_ O_ 0.248053 0.342728 0.839783 -0.46727
O_ O_ 0.45166 0.268981 0.970241 -0.46727
O_ O_ 0.305188 0.358515 0.986968 -0.46727
Zn Zn 0.127689 0.6767 0.381527 0.90689
Zn Zn 0.141065 0.672575 0.430026 0.90689
Zn Zn 0.378304 0.813637 0.132107 0.90689
Zn Zn 0.369248 0.809917 0.179287 0.90689
H_ H_ 0.303986 0.683617 0.443206 0.11455
H_ H_ 0.3763 0.673475 0.344982 0.11455
H_ H_ 0.281329 0.678935 0.352868 0.11455
H_ H_ 0.385178 0.685361 0.461104 0.11455
H_ H_ 0.478145 0.682153 0.456769 0.11455
H_ H_ 0.46433 0.664257 0.365969 0.11455
H_ H_ 0.103721 0.511189 0.436819 0.11455
H_ H_ 0.138784 0.926289 0.349699 0.11455
H_ H_ 0.177034 0.521039 0.354321 0.11455
H_ H_ 0.116024 0.923967 0.467903 0.11455
H_ H_ 0.110237 0.83365 0.463478 0.11455
H_ H_ 0.14053 0.843078 0.372095 0.11455
H_ H_ 0.078309 0.606127 0.463113 0.11455
H_ H_ 0.0909128 0.561569 0.0132002 0.11455
H_ H_ 0.108125 0.618252 0.0536008 0.11455
H_ H_ 0.209548 0.725713 0.473613 0.11455
H_ H_ 0.216786 0.798297 0.0144502 0.11455
H_ H_ 0.187526 0.784358 0.0610852 0.11455
H_ H_ 0.0169916 0.706502 0.125397 0.11455
H_ H_ 0.00957811 0.701949 0.176382 0.11455
H_ H_ 0.270643 0.66384 0.133903 0.11455
H_ H_ 0.263627 0.640812 0.183501 0.11455
H_ H_ 0.0825195 0.583745 0.245346 0.11455
H_ H_ 0.0540611 0.558609 0.292802 0.11455
H_ H_ 0.0832074 0.606126 0.334854 0.11455
H_ H_ 0.180033 0.734442 0.25744 0.11455
H_ H_ 0.210281 0.775932 0.303796 0.11455
H_ H_ 0.182189 0.752282 0.349447 0.11455
H_ H_ 0.202133 0.798615 0.196319 0.11455
H_ H_ 0.132967 0.836746 0.101591 0.11455
H_ H_ 0.223997 0.823171 0.106843 0.11455
H_ H_ 0.116572 0.808942 0.217458 0.11455
H_ H_ 0.0252385 0.819339 0.209252 0.11455
H_ H_ 0.0468856 0.821172 0.1201 0.11455
H_ H_ 0.351281 0.978983 0.19306 0.11455
H_ H_ 0.421664 0.558418 0.101283 0.11455
H_ H_ 0.342895 0.968931 0.100045 0.11455
H_ H_ 0.334671 0.565918 0.207544 0.11455
H_ H_ 0.362647 0.649603 0.205814 0.11455
H_ H_ 0.405784 0.645325 0.119463 0.11455
H_ H_ 0.421042 0.880949 0.215496 0.11455
H_ H_ 0.422232 0.923836 0.262898 0.11455
H_ H_ 0.383259 0.883082 0.303695 0.11455
H_ H_ 0.307439 0.751896 0.223157 0.11455
H_ H_ 0.283319 0.695051 0.262339 0.11455
H_ H_ 0.31497 0.71491 0.31358 0.11455
H_ H_ 0.491004 0.779624 0.369263 0.11455
H_ H_ 0.507863 0.788615 0.421475 0.11455
H_ H_ 0.246712 0.834572 0.392197 0.11455
H_ H_ 0.258789 0.827875 0.440397 0.11455
H_ H_ 0.444145 0.903168 0.494526 0.11455
H_ H_ 0.423191 0.949673 0.0427828 0.11455
H_ H_ 0.41467 0.892839 0.0848833 0.11455
H_ H_ 0.354864 0.7413 0.00810006 0.11455
H_ H_ 0.319845 0.700503 0.0527675 0.11455
H_ H_ 0.339919 0.735672 0.0985679 0.11455
C_ C_ 0.231293 0.687415 0.403848 0.68181
C_ C_ 0.287467 0.688688 0.398462 -0.05681
C_ C_ 0.320394 0.684923 0.42183 -0.08735
C_ C_ 0.372294 0.680669 0.418032 -0.05681
C_ C_ 0.392283 0.674012 0.390028 -0.05681
C_ C_ 0.360415 0.674267 0.366411 -0.08735
C_ C_ 0.307195 0.680441 0.370659 -0.08735
C_ C_ 0.404918 0.677276 0.440973 -0.08735
C_ C_ 0.457577 0.677619 0.437982 -0.08735
C_ C_ 0.477945 0.675527 0.409992 -0.05681
C_ C_ 0.445474 0.669399 0.386841 -0.08735
C_ C_ 0.129671 0.77525 0.416238 0.68181
C_ C_ 0.139051 0.5796 0.397503 0.68181
C_ C_ 0.136029 0.523027 0.393997 -0.05681
C_ C_ 0.118615 0.990269 0.423667 -0.08735
C_ C_ 0.125022 0.937102 0.422581 -0.05681
C_ C_ 0.127946 0.912521 0.395304 -0.05681
C_ C_ 0.133295 0.943624 0.370257 -0.08735
C_ C_ 0.133244 0.995332 0.372932 -0.08735
C_ C_ 0.119898 0.907219 0.447136 -0.08735
C_ C_ 0.122324 0.853349 0.445303 -0.08735
C_ C_ 0.124286 0.830503 0.418293 -0.05681
C_ C_ 0.129124 0.859828 0.393423 -0.08735
C_ C_ 0.0350883 0.6717 0.406794 0.68181
C_ C_ 0.0942158 0.625621 0.482131 0.1947
C_ C_ 0.103974 0.600875 0.00952856 -0.08735
C_ C_ 0.115827 0.632916 0.0320902 -0.08735
C_ C_ 0.144056 0.677987 0.0276024 -0.05681
C_ C_ 0.155876 0.690268 0.998354 0.18498
C_ C_ 0.18904 0.725494 0.492551 -0.08735
C_ C_ 0.188651 0.769466 0.0160108 -0.08735
C_ C_ 0.175405 0.758538 0.0441803 -0.08735
C_ C_ 0.15473 0.711143 0.0504975 0.18498
C_ C_ 0.189621 0.685403 0.0967672 0.44287
C_ C_ 0.100479 0.698889 0.0939385 0.44287
C_ C_ 0.0971226 0.69415 0.123357 -0.05681
C_ C_ 0.0496726 0.69283 0.136597 -0.08735
C_ C_ 0.0450741 0.689415 0.166901 -0.08735
C_ C_ 0.0897151 0.686489 0.183367 -0.05681
C_ C_ 0.136013 0.674101 0.169318 -0.05681
C_ C_ 0.140773 0.680505 0.139747 -0.05681
C_ C_ 0.18728 0.677509 0.125701 -0.05681
C_ C_ 0.231973 0.666935 0.142156 -0.08735
C_ C_ 0.227855 0.6543 0.172185 -0.08735
C_ C_ 0.180928 0.664262 0.186265 -0.05681
C_ C_ 0.176157 0.660466 0.215557 0.44287
C_ C_ 0.0888621 0.682023 0.214113 0.44287
C_ C_ 0.123228 0.648895 0.258566 0.18498
C_ C_ 0.0940463 0.605811 0.263081 -0.08735
C_ C_ 0.0775695 0.591429 0.289334 -0.08735
C_ C_ 0.0867666 0.621988 0.313089 -0.08735
C_ C_ 0.120095 0.664222 0.31036 0.18498
C_ C_ 0.133943 0.68105 0.282639 -0.05681
C_ C_ 0.163638 0.723562 0.279585 -0.08735
C_ C_ 0.182499 0.747087 0.304069 -0.08735
C_ C_ 0.166281 0.732807 0.331512 0.1947
C_ C_ 0.27727 0.809588 0.156413 0.68181
C_ C_ 0.220903 0.816401 0.153434 -0.05681
C_ C_ 0.188311 0.812814 0.17597 -0.08735
C_ C_ 0.135096 0.818006 0.172144 -0.05681
C_ C_ 0.115125 0.823438 0.144512 -0.05681
C_ C_ 0.146878 0.830995 0.122589 -0.08735
C_ C_ 0.199446 0.826812 0.126447 -0.08735
C_ C_ 0.10244 0.813545 0.195495 -0.08735
C_ C_ 0.0480007 0.812633 0.19194 -0.08735
C_ C_ 0.0288383 0.820652 0.164414 -0.05681
C_ C_ 0.06204 0.822865 0.140812 -0.08735
C_ C_ 0.374237 0.71305 0.160722 0.68181
C_ C_ 0.364372 0.909731 0.148595 0.68181
C_ C_ 0.352597 0.965171 0.146734 -0.05681
C_ C_ 0.350589 0.499927 0.165657 -0.08735
C_ C_ 0.360246 0.552014 0.164848 -0.05681
C_ C_ 0.385819 0.573488 0.140496 -0.05681
C_ C_ 0.402525 0.542345 0.119643 -0.08735
C_ C_ 0.350764 -0.011094999999999966 0.119361 -0.08735
C_ C_ 0.350882 0.58002 0.187835 -0.08735
C_ C_ 0.362166 0.630791 0.187067 -0.08735
C_ C_ 0.377804 0.654611 0.16209 -0.05681
C_ C_ 0.393459 0.627395 0.139386 -0.08735
C_ C_ 0.472471 0.814237 0.159891 0.68181
C_ C_ 0.401164 0.865344 0.232543 0.1947
C_ C_ 0.406097 0.88691 0.259435 -0.08735
C_ C_ 0.380865 0.863263 0.283095 -0.08735
C_ C_ 0.356197 0.817832 0.278054 -0.05681
C_ C_ 0.348734 0.800797 0.248999 0.18498
C_ C_ 0.322912 0.755905 0.245095 -0.08735
C_ C_ 0.308035 0.724674 0.267442 -0.08735
C_ C_ 0.319695 0.738941 0.295767 -0.08735
C_ C_ 0.342334 0.785897 0.301138 0.18498
C_ C_ 0.318587 0.814263 0.348519 0.44287
C_ C_ 0.403976 0.792363 0.341332 0.44287
C_ C_ 0.414008 0.796477 0.371208 -0.05681
C_ C_ 0.461307 0.793986 0.382706 -0.08735
C_ C_ 0.47037 0.798499 0.412827 -0.08735
C_ C_ 0.429295 0.808021 0.431104 -0.05681
C_ C_ 0.38102 0.81913 0.419239 -0.05681
C_ C_ 0.3731 0.807902 0.389959 -0.05681
C_ C_ 0.323993 0.814223 0.378846 -0.05681
C_ C_ 0.283035 0.8216 0.397946 -0.08735
C_ C_ 0.290212 0.820389 0.426726 -0.08735
C_ C_ 0.339672 0.821545 0.438136 -0.05681
C_ C_ 0.348406 0.825225 0.467908 0.44287
C_ C_ 0.434341 0.809101 0.461653 0.44287
C_ C_ 0.385067 0.840275 0.00808552 0.18498
C_ C_ 0.406121 0.89006 0.0123738 -0.08735
C_ C_ 0.410405 0.911537 0.039509 -0.08735
C_ C_ 0.409987 0.877621 0.0627154 -0.08735
C_ C_ 0.387801 0.82943 0.0589672 0.18498
C_ C_ 0.378741 0.809185 0.0319841 -0.05681
C_ C_ 0.360444 0.76045 0.0289689 -0.08735
C_ C_ 0.34011 0.736829 0.0527673 -0.08735
C_ C_ 0.352206 0.755556 0.0792338 0.1947
N_ N_ 0.133867 0.658637 0.4772 -0.29468
N_ N_ 0.147658 0.692591 0.0804292 -0.17154
N_ N_ 0.130408 0.666679 0.229237 -0.17154
N_ N_ 0.134667 0.692468 0.334726 -0.29468
N_ N_ 0.368232 0.827647 0.227309 -0.29468
N_ N_ 0.355369 0.796619 0.331336 -0.17154
N_ N_ 0.394871 0.819453 0.479229 -0.17154
N_ N_ 0.373082 0.802051 0.0832067 -0.29468
O_ O_ 0.214241 0.67862 0.428298 -0.58347
O_ O_ 0.200789 0.687715 0.38286 -0.58347
O_ O_ 0.142623 0.74968 0.436711 -0.58347
O_ O_ 0.11436 0.753089 0.393486 -0.58347
O_ O_ 0.137931 0.598539 0.421831 -0.58347
O_ O_ 0.135889 0.607818 0.375254 -0.58347
O_ O_ 0.0651588 0.673618 0.428003 -0.58347
O_ O_ 0.0549769 0.666497 0.38269 -0.58347
O_ O_ 0.0603631 0.708286 0.0779214 -0.46727
O_ O_ 0.233179 0.695453 0.0862967 -0.46727
O_ O_ 0.0467037 0.68255 0.228622 -0.46727
O_ O_ 0.214737 0.647339 0.231574 -0.46727
O_ O_ 0.298217 0.816295 0.180599 -0.58347
O_ O_ 0.304567 0.804707 0.134222 -0.58347
O_ O_ 0.354685 0.738415 0.181227 -0.58347
O_ O_ 0.39178 0.737265 0.139583 -0.58347
O_ O_ 0.3702 0.887698 0.17299 -0.58347
O_ O_ 0.363895 0.88301 0.126714 -0.58347
O_ O_ 0.442545 0.804371 0.180006 -0.58347
O_ O_ 0.455675 0.821149 0.134932 -0.58347
O_ O_ 0.441123 0.782168 0.322736 -0.46727
O_ O_ 0.269936 0.814498 0.338766 -0.46727
O_ O_ 0.478002 0.803696 0.47341 -0.46727
O_ O_ 0.309784 0.836286 0.48485 -0.46727
Zn Zn 0.130236 0.682613 0.880114 0.90689
Zn Zn 0.140642 0.671777 0.927071 0.90689
Zn Zn 0.375803 0.823284 0.629446 0.90689
Zn Zn 0.367741 0.83198 0.675712 0.90689
H_ H_ 0.30863 0.688083 0.94304 0.11455
H_ H_ 0.374043 0.680865 0.842881 0.11455
H_ H_ 0.284447 0.696405 0.851322 0.11455
H_ H_ 0.389928 0.681776 0.962989 0.11455
H_ H_ 0.482467 0.678662 0.954491 0.11455
H_ H_ 0.462805 0.681968 0.865591 0.11455
H_ H_ 0.165057 0.50873 0.936262 0.11455
H_ H_ 0.134519 0.932867 0.843557 0.11455
H_ H_ 0.110948 0.524777 0.849814 0.11455
H_ H_ 0.120538 0.926702 0.963789 0.11455
H_ H_ 0.113642 0.832305 0.955946 0.11455
H_ H_ 0.137187 0.849245 0.865431 0.11455
H_ H_ 0.0945575 0.598896 0.964044 0.11455
H_ H_ 0.0483942 0.587121 0.513739 0.11455
H_ H_ 0.0790235 0.644309 0.552 0.11455
H_ H_ 0.187383 0.750778 0.97255 0.11455
H_ H_ 0.223661 0.794224 0.508288 0.11455
H_ H_ 0.19063 0.788585 0.555428 0.11455
H_ H_ 1.0122551 0.724292 0.621648 0.11455
H_ H_ 0.999842982 0.71595 0.672046 0.11455
H_ H_ 0.263114 0.675931 0.633907 0.11455
H_ H_ 0.251346 0.663903 0.685274 0.11455
H_ H_ 0.0521683 0.598912 0.745923 0.11455
H_ H_ 0.0469276 0.568618 0.794642 0.11455
H_ H_ 0.0571168 0.633272 0.834144 0.11455
H_ H_ 0.167852 0.736837 0.755223 0.11455
H_ H_ 0.200631 0.786008 0.796904 0.11455
H_ H_ 0.198019 0.746177 0.845249 0.11455
H_ H_ 0.204019 0.804718 0.689915 0.11455
H_ H_ 0.129151 0.880971 0.603699 0.11455
H_ H_ 0.220423 0.863134 0.604784 0.11455
H_ H_ 0.117938 0.812397 0.713494 0.11455
H_ H_ 0.0242124 0.826676 0.707768 0.11455
H_ H_ 0.0464425 0.852026 0.616815 0.11455
H_ H_ 0.366367 0.996393 0.688886 0.11455
H_ H_ 0.356156 0.578072 0.596323 0.11455
H_ H_ 0.384155 0.989464 0.596726 0.11455
H_ H_ 0.345479 0.583787 0.712991 0.11455
H_ H_ 0.341561 0.67559 0.707518 0.11455
H_ H_ 0.389517 0.660278 0.619804 0.11455
H_ H_ 0.412275 0.909073 0.711411 0.11455
H_ H_ 0.424896 0.941635 0.762207 0.11455
H_ H_ 0.405238 0.881152 0.800818 0.11455
H_ H_ 0.300867 0.771268 0.718049 0.11455
H_ H_ 0.274145 0.716134 0.755942 0.11455
H_ H_ 0.293425 0.733561 0.804539 0.11455
H_ H_ 0.487082 0.79917 0.868727 0.11455
H_ H_ 0.495993 0.795123 0.923755 0.11455
H_ H_ 0.23618 0.833747 0.886385 0.11455
H_ H_ 0.243349 0.82005 0.937241 0.11455
H_ H_ 0.409127 0.913168 0.993959 0.11455
H_ H_ 0.460982 0.933452 0.543728 0.11455
H_ H_ 0.430772 0.878863 0.583821 0.11455
H_ H_ 0.344331 0.747423 0.509061 0.11455
H_ H_ 0.320806 0.699911 0.548435 0.11455
H_ H_ 0.321808 0.742048 0.595593 0.11455
C_ C_ 0.233627 0.688474 0.902288 0.68181
C_ C_ 0.289192 0.693203 0.897566 -0.05681
C_ C_ 0.322474 0.690808 0.921594 -0.08735
C_ C_ 0.374063 0.682129 0.91726 -0.05681
C_ C_ 0.393898 0.680693 0.890093 -0.05681
C_ C_ 0.360873 0.683096 0.86579 -0.08735
C_ C_ 0.309094 0.688005 0.869069 -0.08735
C_ C_ 0.406768 0.680767 0.940996 -0.08735
C_ C_ 0.458904 0.675821 0.937292 -0.08735
C_ C_ 0.481722 0.679763 0.909044 -0.05681
C_ C_ 0.446946 0.68298 0.886707 -0.08735
C_ C_ 0.132308 0.778725 0.90739 0.68181
C_ C_ 0.135766 0.579819 0.897405 0.68181
C_ C_ 0.131963 0.52568 0.895494 -0.05681
C_ C_ 0.127121 0.99536 0.919512 -0.08735
C_ C_ 0.127234 0.940925 0.916604 -0.05681
C_ C_ 0.133496 0.918437 0.889299 -0.05681
C_ C_ 0.134412 0.949539 0.8649 -0.08735
C_ C_ 0.133468 0.00138462 0.867118 -0.08735
C_ C_ 0.121524 0.908421 0.940948 -0.08735
C_ C_ 0.120807 0.856897 0.937523 -0.08735
C_ C_ 0.129888 0.835697 0.90996 -0.05681
C_ C_ 0.134889 0.86678 0.886595 -0.08735
C_ C_ 0.036834 0.674617 0.905647 0.68181
C_ C_ 0.112805 0.618319 0.981779 0.1947
C_ C_ 0.0749513 0.617502 0.509672 -0.08735
C_ C_ 0.0993644 0.64259 0.53296 -0.08735
C_ C_ 0.133249 0.681349 0.527767 -0.05681
C_ C_ 0.151746 0.688878 0.497887 0.18498
C_ C_ 0.175843 0.739216 0.993066 -0.08735
C_ C_ 0.199719 0.762646 0.512725 -0.08735
C_ C_ 0.180011 0.759487 0.539774 -0.08735
C_ C_ 0.153562 0.715106 0.549282 0.18498
C_ C_ 0.185276 0.704446 0.596189 0.44287
C_ C_ 0.0989915 0.717092 0.592756 0.44287
C_ C_ 0.0918134 0.709807 0.622532 -0.05681
C_ C_ 0.0449549 0.715465 0.635062 -0.08735
C_ C_ 0.0384736 0.711496 0.664611 -0.08735
C_ C_ 0.079548 0.700054 0.682138 -0.05681
C_ C_ 0.126803 0.684845 0.669225 -0.05681
C_ C_ 0.132945 0.695466 0.639372 -0.05681
C_ C_ 0.181747 0.692963 0.626478 -0.05681
C_ C_ 0.222774 0.678768 0.643536 -0.08735
C_ C_ 0.216175 0.66474 0.671879 -0.08735
C_ C_ 0.167472 0.670698 0.685811 -0.05681
C_ C_ 0.157927 0.659924 0.716416 0.44287
C_ C_ 0.0743134 0.692419 0.712091 0.44287
C_ C_ 0.103458 0.659599 0.757704 0.18498
C_ C_ 0.0668208 0.621408 0.763102 -0.08735
C_ C_ 0.0589169 0.605752 0.790903 -0.08735
C_ C_ 0.0785526 0.632344 0.814478 -0.08735
C_ C_ 0.113774 0.670945 0.809835 0.18498
C_ C_ 0.121136 0.687535 0.781409 -0.05681
C_ C_ 0.15642 0.725677 0.777216 -0.08735
C_ C_ 0.17798 0.752758 0.800058 -0.08735
C_ C_ 0.170682 0.7356 0.828251 0.1947
C_ C_ 0.273194 0.824272 0.651947 0.68181
C_ C_ 0.219667 0.833046 0.647863 -0.05681
C_ C_ 0.188455 0.81997 0.671362 -0.08735
C_ C_ 0.134351 0.825758 0.669284 -0.05681
C_ C_ 0.114788 0.845915 0.643192 -0.05681
C_ C_ 0.146671 0.86345 0.622105 -0.08735
C_ C_ 0.198327 0.85652 0.623745 -0.08735
C_ C_ 0.101871 0.820413 0.69201 -0.08735
C_ C_ 0.0495083 0.830994 0.688843 -0.08735
C_ C_ 0.0275485 0.843043 0.661764 -0.05681
C_ C_ 0.0621129 0.84335 0.63839 -0.08735
C_ C_ 0.370153 0.728845 0.660243 0.68181
C_ C_ 0.364187 0.926528 0.644668 0.68181
C_ C_ 0.373256 0.984777 0.643288 -0.05681
C_ C_ 0.352992 0.514006 0.67125 -0.08735
C_ C_ 0.35751 0.567568 0.668863 -0.05681
C_ C_ 0.362125 0.590212 0.640986 -0.05681
C_ C_ 0.358166 0.560144 0.616719 -0.08735
C_ C_ 0.379898 1.00955657 0.616577 -0.08735
C_ C_ 0.353011 0.598231 0.692647 -0.08735
C_ C_ 0.354354 0.650806 0.689774 -0.08735
C_ C_ 0.367841 0.673503 0.66366 -0.05681
C_ C_ 0.370421 0.643244 0.638794 -0.08735
C_ C_ 0.471653 0.830105 0.655794 0.68181
C_ C_ 0.396351 0.889697 0.729853 0.1947
C_ C_ 0.408842 0.904575 0.757839 -0.08735
C_ C_ 0.393352 0.872213 0.780274 -0.08735
C_ C_ 0.362234 0.827339 0.775112 -0.05681
C_ C_ 0.349781 0.816271 0.745334 0.18498
C_ C_ 0.316549 0.776352 0.739865 -0.08735
C_ C_ 0.29626 0.749139 0.761718 -0.08735
C_ C_ 0.31306 0.755731 0.789929 -0.08735
C_ C_ 0.343678 0.79652 0.797928 0.18498
C_ C_ 0.311343 0.823596 0.844592 0.44287
C_ C_ 0.398014 0.795029 0.840993 0.44287
C_ C_ 0.405965 0.804867 0.870769 -0.05681
C_ C_ 0.454758 0.803535 0.882698 -0.08735
C_ C_ 0.45791 0.804017 0.913372 -0.08735
C_ C_ 0.417289 0.817736 0.930713 -0.05681
C_ C_ 0.368955 0.8219 0.917967 -0.05681
C_ C_ 0.363661 0.817433 0.888684 -0.05681
C_ C_ 0.315313 0.825899 0.875751 -0.05681
C_ C_ 0.273331 0.825771 0.893987 -0.08735
C_ C_ 0.278174 0.82255 0.92412 -0.08735
C_ C_ 0.325665 0.823482 0.937158 -0.05681
C_ C_ 0.332611 0.815871 0.967181 0.44287
C_ C_ 0.421415 0.819033 0.961106 0.44287
C_ C_ 0.403576 0.836516 0.508007 0.18498
C_ C_ 0.429673 0.882782 0.512797 -0.08735
C_ C_ 0.437595 0.900696 0.540301 -0.08735
C_ C_ 0.424753 0.867439 0.563408 -0.08735
C_ C_ 0.39235 0.824701 0.559356 0.18498
C_ C_ 0.381515 0.808909 0.531307 -0.05681
C_ C_ 0.355283 0.762315 0.528676 -0.08735
C_ C_ 0.341547 0.735633 0.552156 -0.08735
C_ C_ 0.34369 0.759176 0.578989 0.1947
N_ N_ 0.14167 0.661196 0.976022 -0.29468
N_ N_ 0.145142 0.707554 0.579206 -0.17154
N_ N_ 0.112586 0.674149 0.728286 -0.17154
N_ N_ 0.135469 0.697477 0.832747 -0.29468
N_ N_ 0.369692 0.846874 0.724454 -0.29468
N_ N_ 0.351314 0.807074 0.828324 -0.17154
N_ N_ 0.378994 0.823416 0.978972 -0.17154
N_ N_ 0.37185 0.800909 0.582691 -0.29468
O_ O_ 0.216509 0.681696 0.92688 -0.58347
O_ O_ 0.206577 0.680226 0.880232 -0.58347
O_ O_ 0.13842 0.749694 0.928615 -0.58347
O_ O_ 0.131987 0.759093 0.882637 -0.58347
O_ O_ 0.147756 0.598821 0.920885 -0.58347
O_ O_ 0.122305 0.607782 0.877066 -0.58347
O_ O_ 0.0663363 0.657377 0.924971 -0.58347
O_ O_ 0.0547308 0.682322 0.881254 -0.58347
O_ O_ 0.0602323 0.731043 0.575807 -0.46727
O_ O_ 0.22817 0.700698 0.58376 -0.46727
O_ O_ 0.02727 0.686564 0.722488 -0.46727
O_ O_ 0.194263 0.635838 0.731398 -0.46727
O_ O_ 0.292979 0.826704 0.677141 -0.58347
O_ O_ 0.300492 0.822866 0.630046 -0.58347
O_ O_ 0.371822 0.758401 0.682291 -0.58347
O_ O_ 0.373053 0.748204 0.636149 -0.58347
O_ O_ 0.358962 0.904548 0.668685 -0.58347
O_ O_ 0.37641 0.899767 0.623702 -0.58347
O_ O_ 0.442343 0.840518 0.676665 -0.58347
O_ O_ 0.450645 0.822107 0.63104 -0.58347
O_ O_ 0.434869 0.776441 0.825107 -0.46727
O_ O_ 0.266567 0.831633 0.832749 -0.46727
O_ O_ 0.465256 0.808037 0.972979 -0.46727
O_ O_ 0.292919 0.814915 0.984393 -0.46727
Zn Zn 0.623228 0.190501 0.385103 0.90689
Zn Zn 0.629014 0.183757 0.433791 0.90689
Zn Zn 0.873392 0.313932 0.133107 0.90689
Zn Zn 0.864703 0.319555 0.182619 0.90689
H_ H_ 0.797531 0.212339 0.446965 0.11455
H_ H_ 0.861256 0.187085 0.348212 0.11455
H_ H_ 0.771943 0.195978 0.357064 0.11455
H_ H_ 0.883863 0.21068 0.465556 0.11455
H_ H_ 0.977114 0.20478 0.456777 0.11455
H_ H_ 0.950497 0.188192 0.364405 0.11455
H_ H_ 0.607635 0.02005 0.439848 0.11455
H_ H_ 0.67064 0.436466 0.353381 0.11455
H_ H_ 0.694776 0.0320988 0.364799 0.11455
H_ H_ 0.586501 0.436707 0.463139 0.11455
H_ H_ 0.592218 0.347011 0.461858 0.11455
H_ H_ 0.645724 0.353499 0.375732 0.11455
H_ H_ 0.576333 0.107407 0.468925 0.11455
H_ H_ 0.55059 0.0789154 0.019647 0.11455
H_ H_ 0.589233 0.124095 0.0585453 0.11455
H_ H_ 0.702915 0.236384 0.477827 0.11455
H_ H_ 0.699091 0.303144 0.013624 0.11455
H_ H_ 0.706966 0.268473 0.0618849 0.11455
H_ H_ 0.524409 0.220951 0.129538 0.11455
H_ H_ 0.518541 0.203492 0.180159 0.11455
H_ H_ 0.770542 0.13691 0.131637 0.11455
H_ H_ 0.765445 0.127075 0.184594 0.11455
H_ H_ 0.6159 0.0640964 0.257875 0.11455
H_ H_ 0.577145 0.0536477 0.304033 0.11455
H_ H_ 0.593249 0.115306 0.341405 0.11455
H_ H_ 0.678 0.239065 0.260204 0.11455
H_ H_ 0.707043 0.288866 0.299677 0.11455
H_ H_ 0.673635 0.272762 0.347613 0.11455
H_ H_ 0.695868 0.297686 0.197926 0.11455
H_ H_ 0.624329 0.355032 0.105256 0.11455
H_ H_ 0.717882 0.341654 0.110908 0.11455
H_ H_ 0.608003 0.311888 0.218352 0.11455
H_ H_ 0.519038 0.308724 0.211481 0.11455
H_ H_ 0.540258 0.323302 0.120694 0.11455
H_ H_ 0.873267 0.485022 0.197332 0.11455
H_ H_ 0.869947 0.0634265 0.102372 0.11455
H_ H_ 0.879308 0.477059 0.10622 0.11455
H_ H_ 0.863915 0.0653495 0.219683 0.11455
H_ H_ 0.858868 0.15617 0.214934 0.11455
H_ H_ 0.886965 0.145404 0.123044 0.11455
H_ H_ 0.913809 0.394609 0.218648 0.11455
H_ H_ 0.91514 0.437728 0.266433 0.11455
H_ H_ 0.863524 0.40234 0.306182 0.11455
H_ H_ 0.797772 0.264466 0.225127 0.11455
H_ H_ 0.774073 0.208195 0.266527 0.11455
H_ H_ 0.785731 0.237664 0.314267 0.11455
H_ H_ 0.983582 0.304123 0.370983 0.11455
H_ H_ -0.0047920000000000185 0.307724 0.422068 0.11455
H_ H_ 0.73508 0.370159 0.392268 0.11455
H_ H_ 0.758763 0.387608 0.443678 0.11455
H_ H_ 0.965355 0.40846 0.500618 0.11455
H_ H_ 0.929661 0.440798 0.0493133 0.11455
H_ H_ 0.925696 0.378847 0.0866881 0.11455
H_ H_ 0.841424 0.246286 0.00879645 0.11455
H_ H_ 0.813764 0.198973 0.0528794 0.11455
H_ H_ 0.819649 0.235849 0.0992643 0.11455
C_ C_ 0.721917 0.200995 0.409028 0.68181
C_ C_ 0.777603 0.201262 0.403866 -0.05681
C_ C_ 0.811827 0.20455 0.425932 -0.08735
C_ C_ 0.86604 0.199874 0.421033 -0.05681
C_ C_ 0.8834 0.192215 0.393045 -0.05681
C_ C_ 0.84977 0.193474 0.370442 -0.08735
C_ C_ 0.796975 0.19995 0.375536 -0.08735
C_ C_ 0.899666 0.204354 0.443596 -0.08735
C_ C_ 0.951499 0.197263 0.43851 -0.08735
C_ C_ 0.97322 0.193296 0.410369 -0.05681
C_ C_ 0.937545 0.191854 0.387576 -0.08735
C_ C_ 0.618153 0.285799 0.416625 0.68181
C_ C_ 0.636473 0.0909642 0.40018 0.68181
C_ C_ 0.638947 0.033925 0.398205 -0.05681
C_ C_ 0.621553 0.504926 0.421894 -0.08735
C_ C_ 0.615388 0.45204 0.419923 -0.05681
C_ C_ 0.63843 0.426296 0.39619 -0.05681
C_ C_ 0.656276 0.455278 0.371989 -0.08735
C_ C_ 0.656977 0.510009 0.372967 -0.08735
C_ C_ 0.60047 0.422112 0.444292 -0.08735
C_ C_ 0.601244 0.368242 0.443758 -0.08735
C_ C_ 0.616694 0.343951 0.418833 -0.05681
C_ C_ 0.635484 0.373005 0.395318 -0.08735
C_ C_ 0.527771 0.173041 0.410603 0.68181
C_ C_ 0.592009 0.128832 0.486045 0.1947
C_ C_ 0.576706 0.110121 0.0144051 -0.08735
C_ C_ 0.599108 0.13523 0.0371654 -0.08735
C_ C_ 0.628843 0.177103 0.0330988 -0.05681
C_ C_ 0.630998 0.196109 1.00386034 0.18498
C_ C_ 0.687718 0.230217 0.498597 -0.08735
C_ C_ 0.684155 0.266538 0.0182457 -0.08735
C_ C_ 0.687477 0.246268 0.0458675 -0.08735
C_ C_ 0.659503 0.202068 0.0536526 0.18498
C_ C_ 0.695908 0.173679 0.0988121 0.44287
C_ C_ 0.609329 0.199819 0.0969093 0.44287
C_ C_ 0.603971 0.190158 0.127203 -0.05681
C_ C_ 0.557999 0.204213 0.141213 -0.08735
C_ C_ 0.553526 0.193174 0.170734 -0.08735
C_ C_ 0.596197 0.177103 0.18752 -0.05681
C_ C_ 0.640875 0.163056 0.172779 -0.05681
C_ C_ 0.644525 0.168894 0.142357 -0.05681
C_ C_ 0.691919 0.164053 0.128995 -0.05681
C_ C_ 0.732669 0.145065 0.143563 -0.08735
C_ C_ 0.731914 0.143628 0.173915 -0.08735
C_ C_ 0.684305 0.1497 0.188979 -0.05681
C_ C_ 0.680441 0.145345 0.219648 0.44287
C_ C_ 0.595058 0.171735 0.217417 0.44287
C_ C_ 0.62807 0.1457 0.263916 0.18498
C_ C_ 0.6117 0.0958683 0.272514 -0.08735
C_ C_ 0.591552 0.0883421 0.298283 -0.08735
C_ C_ 0.599638 0.125022 0.319259 -0.08735
C_ C_ 0.621239 0.171097 0.314138 0.18498
C_ C_ 0.636425 0.182845 0.285424 -0.05681
C_ C_ 0.667608 0.226424 0.281191 -0.08735
C_ C_ 0.676758 0.258546 0.303602 -0.08735
C_ C_ 0.661808 0.245587 0.331346 0.1947
C_ C_ 0.768791 0.309838 0.156319 0.68181
C_ C_ 0.715065 0.316763 0.155039 -0.05681
C_ C_ 0.682137 0.307148 0.17694 -0.08735
C_ C_ 0.6287 0.31168 0.173706 -0.05681
C_ C_ 0.609579 0.321213 0.145791 -0.05681
C_ C_ 0.640128 0.33582 0.123984 -0.08735
C_ C_ 0.692604 0.331579 0.128343 -0.08735
C_ C_ 0.594665 0.313564 0.197034 -0.08735
C_ C_ 0.543371 0.31249 0.192412 -0.08735
C_ C_ 0.523189 0.31255 0.164 -0.05681
C_ C_ 0.556671 0.319607 0.14148 -0.08735
C_ C_ 0.869261 0.216089 0.16708 0.68181
C_ C_ 0.865023 0.414805 0.151748 0.68181
C_ C_ 0.868293 0.471821 0.150949 -0.05681
C_ C_ 0.880654 0.00172943 0.175199 -0.08735
C_ C_ 0.88046 0.0536066 0.173639 -0.05681
C_ C_ 0.884386 0.0767872 0.146292 -0.05681
C_ C_ 0.882725 0.0486793 0.121583 -0.08735
C_ C_ 0.871958 0.496519 0.12435 -0.08735
C_ C_ 0.871504 0.0826442 0.198038 -0.08735
C_ C_ 0.86633 0.135274 0.195586 -0.08735
C_ C_ 0.870667 0.159854 0.169212 -0.05681
C_ C_ 0.879947 0.130379 0.144328 -0.08735
C_ C_ 0.968087 0.324377 0.161425 0.68181
C_ C_ 0.890079 0.381068 0.235241 0.1947
C_ C_ 0.891941 0.404234 0.262728 -0.08735
C_ C_ 0.863457 0.382934 0.285033 -0.08735
C_ C_ 0.843703 0.334269 0.281124 -0.05681
C_ C_ 0.840538 0.314351 0.253164 0.18498
C_ C_ 0.811336 0.271087 0.246977 -0.08735
C_ C_ 0.797725 0.241026 0.269758 -0.08735
C_ C_ 0.806036 0.256968 0.298192 -0.08735
C_ C_ 0.829389 0.303262 0.303631 0.18498
C_ C_ 0.802839 0.329542 0.350949 0.44287
C_ C_ 0.890956 0.310338 0.343112 0.44287
C_ C_ 0.903815 0.322652 0.372015 -0.05681
C_ C_ 0.952076 0.311398 0.38275 -0.08735
C_ C_ 0.95846 0.314378 0.411912 -0.08735
C_ C_ 0.919472 0.330864 0.43084 -0.05681
C_ C_ 0.871655 0.343932 0.421202 -0.05681
C_ C_ 0.863102 0.335791 0.390836 -0.05681
C_ C_ 0.812991 0.342972 0.380322 -0.05681
C_ C_ 0.774763 0.365605 0.398869 -0.08735
C_ C_ 0.787455 0.376833 0.428055 -0.08735
C_ C_ 0.834358 0.366208 0.439722 -0.05681
C_ C_ 0.846426 0.366555 0.470032 0.44287
C_ C_ 0.928891 0.333411 0.461086 0.44287
C_ C_ 0.878796 0.344305 0.0103654 0.18498
C_ C_ 0.896046 0.391595 0.0156705 -0.08735
C_ C_ 0.911702 0.404161 0.0441426 -0.08735
C_ C_ 0.905666 0.371362 0.0672154 -0.08735
C_ C_ 0.881071 0.326699 0.0623756 0.18498
C_ C_ 0.867973 0.310529 0.0335727 -0.05681
C_ C_ 0.848617 0.262518 0.0296946 -0.08735
C_ C_ 0.838359 0.233862 0.0539798 -0.08735
C_ C_ 0.844323 0.251894 0.0812171 0.1947
N_ N_ 0.627009 0.166296 0.481114 -0.29468
N_ N_ 0.654545 0.193402 0.0837627 -0.17154
N_ N_ 0.635073 0.153026 0.232482 -0.17154
N_ N_ 0.63554 0.202626 0.336792 -0.29468
N_ N_ 0.86069 0.340941 0.230662 -0.29468
N_ N_ 0.842315 0.316972 0.332952 -0.17154
N_ N_ 0.893517 0.348404 0.479683 -0.17154
N_ N_ 0.870161 0.296112 0.0852062 -0.29468
O_ O_ 0.703722 0.179931 0.430962 -0.58347
O_ O_ 0.693507 0.21059 0.387703 -0.58347
O_ O_ 0.62962 0.260065 0.438508 -0.58347
O_ O_ 0.602428 0.264765 0.393545 -0.58347
O_ O_ 0.626582 0.110881 0.424317 -0.58347
O_ O_ 0.649977 0.117725 0.379392 -0.58347
O_ O_ 0.555456 0.181222 0.432354 -0.58347
O_ O_ 0.550093 0.171735 0.387114 -0.58347
O_ O_ 0.571789 0.219931 0.0817923 -0.46727
O_ O_ 0.736688 0.163227 0.0853798 -0.46727
O_ O_ 0.557049 0.190761 0.231195 -0.46727
O_ O_ 0.720235 0.134621 0.235295 -0.46727
O_ O_ 0.790111 0.319164 0.18074 -0.58347
O_ O_ 0.795519 0.308955 0.133255 -0.58347
O_ O_ 0.862161 0.244968 0.190155 -0.58347
O_ O_ 0.879413 0.239219 0.143149 -0.58347
O_ O_ 0.861329 0.392434 0.175124 -0.58347
O_ O_ 0.870629 0.388632 0.129439 -0.58347
O_ O_ 0.939833 0.319508 0.184375 -0.58347
O_ O_ 0.947278 0.321241 0.137104 -0.58347
O_ O_ 0.928205 0.298916 0.325725 -0.46727
O_ O_ 0.756552 0.331664 0.342279 -0.46727
O_ O_ 0.973378 0.318749 0.471056 -0.46727
O_ O_ 0.809078 0.379456 0.488483 -0.46727
Zn Zn 0.614127 0.182595 0.883358 0.90689
Zn Zn 0.624407 0.174031 0.931021 0.90689
Zn Zn 0.866919 0.325664 0.630988 0.90689
Zn Zn 0.86227 0.328499 0.678061 0.90689
H_ H_ 0.794764 0.189024 0.947259 0.11455
H_ H_ 0.863128 0.179323 0.847176 0.11455
H_ H_ 0.766737 0.173063 0.854366 0.11455
H_ H_ 0.880481 0.192036 0.962759 0.11455
H_ H_ 0.970848 0.182651 0.958171 0.11455
H_ H_ 0.951026 0.174818 0.866459 0.11455
H_ H_ 0.637255 0.00911914 0.94657 0.11455
H_ H_ 0.619246 0.433009 0.849302 0.11455
H_ H_ 0.599963 0.0216473 0.857752 0.11455
H_ H_ 0.634604 0.417432 0.966338 0.11455
H_ H_ 0.63728 0.326071 0.958496 0.11455
H_ H_ 0.616193 0.353505 0.867917 0.11455
H_ H_ 0.562862 0.109358 0.969404 0.11455
H_ H_ 0.55523 0.0793875 0.517648 0.11455
H_ H_ 0.597634 0.12221 0.558713 0.11455
H_ H_ 0.662912 0.247816 0.974941 0.11455
H_ H_ 0.732802 0.289741 0.51851 0.11455
H_ H_ 0.713304 0.263416 0.567537 0.11455
H_ H_ 0.528122 0.232733 0.629635 0.11455
H_ H_ 0.512825 0.206933 0.679432 0.11455
H_ H_ 0.757209 0.129229 0.636314 0.11455
H_ H_ 0.754474 0.127862 0.689439 0.11455
H_ H_ 0.576741 0.085379 0.748427 0.11455
H_ H_ 0.54961 0.0616936 0.795705 0.11455
H_ H_ 0.575108 0.115401 0.839926 0.11455
H_ H_ 0.653757 0.246499 0.762209 0.11455
H_ H_ 0.689056 0.291854 0.804273 0.11455
H_ H_ 0.660968 0.264838 0.850543 0.11455
H_ H_ 0.696239 0.328833 0.693134 0.11455
H_ H_ 0.619514 0.328621 0.595222 0.11455
H_ H_ 0.710938 0.335332 0.600397 0.11455
H_ H_ 0.609529 0.334112 0.71443 0.11455
H_ H_ 0.514589 0.331246 0.708138 0.11455
H_ H_ 0.533386 0.347846 0.6159 0.11455
H_ H_ 0.850519 0.496989 0.694373 0.11455
H_ H_ 0.815714 0.0744639 0.601856 0.11455
H_ H_ 0.848418 0.486912 0.606 0.11455
H_ H_ 0.902529 0.0741886 0.707918 0.11455
H_ H_ 0.914044 0.168666 0.703528 0.11455
H_ H_ 0.848354 0.158866 0.617725 0.11455
H_ H_ 0.917096 0.398453 0.712989 0.11455
H_ H_ 0.936875 0.425187 0.763266 0.11455
H_ H_ 0.899035 0.386527 0.804495 0.11455
H_ H_ 0.798605 0.266056 0.723619 0.11455
H_ H_ 0.779036 0.204777 0.763421 0.11455
H_ H_ 0.798245 0.234062 0.81412 0.11455
H_ H_ 0.976611 0.280483 0.875014 0.11455
H_ H_ -0.00978100000000004 0.299292 0.926747 0.11455
H_ H_ 0.739115 0.367737 0.885342 0.11455
H_ H_ 0.741975 0.355465 0.938111 0.11455
H_ H_ 0.909668 0.41594 0.997513 0.11455
H_ H_ 0.987698 0.421716 0.552761 0.11455
H_ H_ 0.93565 0.385143 0.5909 0.11455
H_ H_ 0.841301 0.275255 0.504916 0.11455
H_ H_ 0.814481 0.221016 0.545097 0.11455
H_ H_ 0.821258 0.250916 0.593513 0.11455
C_ C_ 0.719961 0.182017 0.908505 0.68181
C_ C_ 0.775766 0.181771 0.90229 -0.05681
C_ C_ 0.811013 0.183751 0.925896 -0.08735
C_ C_ 0.861855 0.182486 0.919759 -0.05681
C_ C_ 0.880486 0.181942 0.891672 -0.05681
C_ C_ 0.848761 0.183142 0.868483 -0.08735
C_ C_ 0.795499 0.177033 0.87238 -0.08735
C_ C_ 0.895408 0.183348 0.942895 -0.08735
C_ C_ 0.946915 0.177917 0.939104 -0.08735
C_ C_ 0.96904 0.179905 0.912134 -0.05681
C_ C_ 0.93492 0.178682 0.887941 -0.08735
C_ C_ 0.621468 0.276018 0.908874 0.68181
C_ C_ 0.6219 0.0782052 0.903356 0.68181
C_ C_ 0.624149 0.0211238 0.901514 -0.05681
C_ C_ 0.631451 0.490905 0.924802 -0.08735
C_ C_ 0.627624 0.437927 0.921792 -0.05681
C_ C_ 0.625369 0.419131 0.894405 -0.05681
C_ C_ 0.622679 0.449327 0.870245 -0.08735
C_ C_ 0.628819 0.500915 0.871521 -0.08735
C_ C_ 0.628204 0.404133 0.944616 -0.08735
C_ C_ 0.627961 0.351539 0.940223 -0.08735
C_ C_ 0.623993 0.333123 0.912336 -0.05681
C_ C_ 0.627216 0.367248 0.888734 -0.08735
C_ C_ 0.520765 0.169313 0.904499 0.68181
C_ C_ 0.580498 0.129979 0.986967 0.1947
C_ C_ 0.582603 0.113498 0.514123 -0.08735
C_ C_ 0.60582 0.136818 0.537189 -0.08735
C_ C_ 0.63665 0.178558 0.532608 -0.05681
C_ C_ 0.649331 0.191018 0.504035 0.18498
C_ C_ 0.659298 0.239645 0.996399 -0.08735
C_ C_ 0.706141 0.257742 0.520572 -0.08735
C_ C_ 0.693894 0.247251 0.549144 -0.08735
C_ C_ 0.662833 0.20514 0.55535 0.18498
C_ C_ 0.694806 0.175805 0.600641 0.44287
C_ C_ 0.609628 0.204974 0.597683 0.44287
C_ C_ 0.603387 0.198432 0.627176 -0.05681
C_ C_ 0.555578 0.209803 0.640337 -0.08735
C_ C_ 0.551141 0.201954 0.670271 -0.08735
C_ C_ 0.592517 0.191398 0.687736 -0.05681
C_ C_ 0.640024 0.181651 0.674131 -0.05681
C_ C_ 0.644512 0.183261 0.644035 -0.05681
C_ C_ 0.689484 0.167562 0.630671 -0.05681
C_ C_ 0.727392 0.145123 0.647615 -0.08735
C_ C_ 0.722829 0.14043 0.677755 -0.08735
C_ C_ 0.679544 0.16014 0.690846 -0.05681
C_ C_ 0.670547 0.155394 0.721308 0.44287
C_ C_ 0.5894 0.189162 0.71808 0.44287
C_ C_ 0.616116 0.153507 0.762831 0.18498
C_ C_ 0.589342 0.107032 0.767474 -0.08735
C_ C_ 0.578022 0.0914056 0.795452 -0.08735
C_ C_ 0.588309 0.123831 0.818445 -0.08735
C_ C_ 0.615663 0.168057 0.813927 0.18498
C_ C_ 0.628433 0.183629 0.786105 -0.05681
C_ C_ 0.653854 0.229002 0.782613 -0.08735
C_ C_ 0.668458 0.257431 0.806709 -0.08735
C_ C_ 0.657282 0.237508 0.833773 0.1947
C_ C_ 0.764803 0.335818 0.652004 0.68181
C_ C_ 0.708188 0.334949 0.647199 -0.05681
C_ C_ 0.678435 0.331889 0.671699 -0.08735
C_ C_ 0.62581 0.333328 0.668378 -0.05681
C_ C_ 0.604376 0.340678 0.639971 -0.05681
C_ C_ 0.63549 0.337365 0.61657 -0.08735
C_ C_ 0.686709 0.333428 0.620005 -0.08735
C_ C_ 0.593205 0.339529 0.69282 -0.08735
C_ C_ 0.540348 0.33628 0.689439 -0.08735
C_ C_ 0.518245 0.337405 0.661257 -0.05681
C_ C_ 0.550512 0.343915 0.637625 -0.08735
C_ C_ 0.87091 0.227889 0.660361 0.68181
C_ C_ 0.858786 0.427208 0.651676 0.68181
C_ C_ 0.865996 0.48441 0.650531 -0.05681
C_ C_ 0.888487 0.0102555 0.665873 -0.08735
C_ C_ 0.885699 0.0629641 0.664864 -0.05681
C_ C_ 0.863299 0.0873624 0.639963 -0.05681
C_ C_ 0.836766 0.0578451 0.619858 -0.08735
C_ C_ 0.863245 0.506814 0.623166 -0.08735
C_ C_ 0.900437 0.0937784 0.68755 -0.08735
C_ C_ 0.897157 0.147121 0.686955 -0.08735
C_ C_ 0.876763 0.171611 0.662362 -0.05681
C_ C_ 0.86524 0.140299 0.63716 -0.08735
C_ C_ 0.962729 0.328018 0.655892 0.68181
C_ C_ 0.899339 0.379343 0.73089 0.1947
C_ C_ 0.911199 0.393919 0.759002 -0.08735
C_ C_ 0.88767 0.370682 0.782638 -0.08735
C_ C_ 0.859438 0.328128 0.777454 -0.05681
C_ C_ 0.846927 0.314844 0.748935 0.18498
C_ C_ 0.815152 0.273668 0.744792 -0.08735
C_ C_ 0.796654 0.241475 0.768411 -0.08735
C_ C_ 0.814213 0.255258 0.796064 -0.08735
C_ C_ 0.841863 0.299861 0.801389 0.18498
C_ C_ 0.809785 0.328051 0.846741 0.44287
C_ C_ 0.89464 0.300277 0.84345 0.44287
C_ C_ 0.901173 0.304186 0.873898 -0.05681
C_ C_ 0.946671 0.296065 0.887851 -0.08735
C_ C_ 0.952662 0.303999 0.917264 -0.08735
C_ C_ 0.910076 0.313851 0.935323 -0.05681
C_ C_ 0.862562 0.319427 0.921676 -0.05681
C_ C_ 0.858419 0.317235 0.890998 -0.05681
C_ C_ 0.811043 0.326828 0.877712 -0.05681
C_ C_ 0.769544 0.343078 0.895764 -0.08735
C_ C_ 0.774811 0.342134 0.925373 -0.08735
C_ C_ 0.821376 0.331831 0.939067 -0.05681
C_ C_ 0.827773 0.339682 0.968254 0.44287
C_ C_ 0.913493 0.313863 0.9658 0.44287
C_ C_ 0.906289 0.355144 0.509693 0.18498
C_ C_ 0.942807 0.391713 0.517186 -0.08735
C_ C_ 0.955369 0.39875 0.547011 -0.08735
C_ C_ 0.925278 0.378327 0.568761 -0.08735
C_ C_ 0.887351 0.343201 0.561745 0.18498
C_ C_ 0.879276 0.328914 0.531825 -0.05681
C_ C_ 0.854115 0.284755 0.525738 -0.08735
C_ C_ 0.833751 0.257062 0.549427 -0.08735
C_ C_ 0.835076 0.274245 0.576791 0.1947
N_ N_ 0.614596 0.16773 0.981316 -0.29468
N_ N_ 0.654974 0.19318 0.584563 -0.17154
N_ N_ 0.627316 0.167675 0.73402 -0.17154
N_ N_ 0.629505 0.195469 0.83727 -0.29468
N_ N_ 0.865475 0.340979 0.725497 -0.29468
N_ N_ 0.84965 0.313742 0.830659 -0.17154
N_ N_ 0.87242 0.332313 0.981194 -0.17154
N_ N_ 0.861024 0.318638 0.582894 -0.29468
O_ O_ 0.701013 0.175875 0.93307 -0.58347
O_ O_ 0.688679 0.188553 0.888115 -0.58347
O_ O_ 0.631011 0.247652 0.929515 -0.58347
O_ O_ 0.602081 0.25621 0.887062 -0.58347
O_ O_ 0.62438 0.0979829 0.928652 -0.58347
O_ O_ 0.625728 0.106594 0.8814 -0.58347
O_ O_ 0.55056 0.171297 0.925874 -0.58347
O_ O_ 0.540708 0.171581 0.879089 -0.58347
O_ O_ 0.574191 0.226332 0.581599 -0.46727
O_ O_ 0.738572 0.166839 0.5883 -0.46727
O_ O_ 0.543749 0.195105 0.729381 -0.46727
O_ O_ 0.705952 0.138223 0.738042 -0.46727
O_ O_ 0.785486 0.327338 0.676466 -0.58347
O_ O_ 0.791793 0.326911 0.630106 -0.58347
O_ O_ 0.867799 0.253619 0.682382 -0.58347
O_ O_ 0.874927 0.249199 0.635945 -0.58347
O_ O_ 0.855629 0.404835 0.675263 -0.58347
O_ O_ 0.863174 0.401781 0.628705 -0.58347
O_ O_ 0.935318 0.341707 0.676149 -0.58347
O_ O_ 0.944357 0.321673 0.631805 -0.58347
O_ O_ 0.933472 0.294005 0.827555 -0.46727
O_ O_ 0.764887 0.333656 0.834471 -0.46727
O_ O_ 0.957015 0.309086 0.979083 -0.46727
O_ O_ 0.787475 0.342799 0.984126 -0.46727
Zn Zn 0.627522 0.687769 0.380502 0.90689
Zn Zn 0.636509 0.686493 0.428632 0.90689
Zn Zn 0.88253 0.813882 0.13549 0.90689
Zn Zn 0.869614 0.815825 0.183535 0.90689
H_ H_ 0.808744 0.711591 0.446526 0.11455
H_ H_ 0.873052 0.690496 0.3455 0.11455
H_ H_ 0.781566 0.688453 0.356239 0.11455
H_ H_ 0.897377 0.704698 0.464068 0.11455
H_ H_ 0.982712 0.677419 0.457872 0.11455
H_ H_ 0.954186 0.660505 0.365531 0.11455
H_ H_ 0.605551 0.527602 0.43907 0.11455
H_ H_ 0.676012 0.939851 0.356218 0.11455
H_ H_ 0.676994 0.527709 0.354681 0.11455
H_ H_ 0.591146 0.936637 0.461178 0.11455
H_ H_ 0.57908 0.845065 0.453899 0.11455
H_ H_ 0.653233 0.856525 0.371558 0.11455
H_ H_ 0.576745 0.618541 0.466788 0.11455
H_ H_ 0.588324 0.54923 0.0110485 0.11455
H_ H_ 0.615233 0.60396 0.0550027 0.11455
H_ H_ 0.692545 0.758841 0.480331 0.11455
H_ H_ 0.727382 0.785337 0.0140659 0.11455
H_ H_ 0.710556 0.759453 0.0619944 0.11455
H_ H_ 0.513784 0.683812 0.121583 0.11455
H_ H_ 0.502446 0.69045 0.174167 0.11455
H_ H_ 0.759501 0.641102 0.139862 0.11455
H_ H_ 0.755854 0.676761 0.191296 0.11455
H_ H_ 0.565677 0.591358 0.248227 0.11455
H_ H_ 0.547366 0.570695 0.296833 0.11455
H_ H_ 0.575482 0.624737 0.338495 0.11455
H_ H_ 0.648873 0.756889 0.25754 0.11455
H_ H_ 0.678739 0.806236 0.301439 0.11455
H_ H_ 0.671997 0.769681 0.348129 0.11455
H_ H_ 0.70289 0.808149 0.199714 0.11455
H_ H_ 0.63249 0.814544 0.102094 0.11455
H_ H_ 0.724721 0.808413 0.10753 0.11455
H_ H_ 0.613677 0.828808 0.219694 0.11455
H_ H_ 0.523021 0.822692 0.211566 0.11455
H_ H_ 0.545044 0.797869 0.121849 0.11455
H_ H_ 0.883715 0.98364 0.19637 0.11455
H_ H_ 0.882512 0.565577 0.100691 0.11455
H_ H_ 0.89105 0.97518 0.103639 0.11455
H_ H_ 0.869247 0.570509 0.220012 0.11455
H_ H_ 0.88208 0.662337 0.215 0.11455
H_ H_ 0.897632 0.64761 0.121674 0.11455
H_ H_ 0.913505 0.8984 0.215994 0.11455
H_ H_ 0.932641 0.925639 0.26362 0.11455
H_ H_ 0.897154 0.882095 0.305245 0.11455
H_ H_ 0.814993 0.749457 0.224748 0.11455
H_ H_ 0.78108 0.701499 0.265706 0.11455
H_ H_ 0.784157 0.737061 0.314977 0.11455
H_ H_ 0.984499 0.783695 0.372424 0.11455
H_ H_ 0.000671196 0.805572 0.421302 0.11455
H_ H_ 0.742739 0.850021 0.39211 0.11455
H_ H_ 0.75654 0.856073 0.442222 0.11455
H_ H_ 0.937809 0.927024 0.497993 0.11455
H_ H_ 0.969459 0.925707 0.0480031 0.11455
H_ H_ 0.950214 0.868048 0.0893935 0.11455
H_ H_ 0.833088 0.754986 0.0114393 0.11455
H_ H_ 0.79936 0.711351 0.0526915 0.11455
H_ H_ 0.829341 0.738465 0.10215 0.11455
C_ C_ 0.731226 0.701366 0.406308 0.68181
C_ C_ 0.787373 0.700383 0.401576 -0.05681
C_ C_ 0.822656 0.702352 0.424864 -0.08735
C_ C_ 0.87442 0.694702 0.419336 -0.05681
C_ C_ 0.89223 0.684072 0.391454 -0.05681
C_ C_ 0.858296 0.684766 0.368341 -0.08735
C_ C_ 0.806439 0.69306 0.373415 -0.08735
C_ C_ 0.910788 0.69708 0.442135 -0.08735
C_ C_ 0.960858 0.684039 0.438272 -0.08735
C_ C_ 0.979434 0.675696 0.410412 -0.05681
C_ C_ 0.943087 0.673067 0.386705 -0.08735
C_ C_ 0.618819 0.786419 0.412931 0.68181
C_ C_ 0.642337 0.589803 0.398555 0.68181
C_ C_ 0.643156 0.534754 0.398721 -0.05681
C_ C_ 0.617559 1.00269952 0.419459 -0.08735
C_ C_ 0.616426 0.94886 0.417871 -0.05681
C_ C_ 0.638154 0.926598 0.393266 -0.05681
C_ C_ 0.66121 0.95786 0.374033 -0.08735
C_ C_ 0.66252 1.0115379 0.375312 -0.08735
C_ C_ 0.597402 0.920216 0.439541 -0.08735
C_ C_ 0.59927 0.867026 0.437965 -0.08735
C_ C_ 0.616139 0.843001 0.413246 -0.05681
C_ C_ 0.637528 0.872867 0.390772 -0.08735
C_ C_ 0.533677 0.675771 0.405699 0.68181
C_ C_ 0.604518 0.632135 0.482769 0.1947
C_ C_ 0.603444 0.589046 0.00897561 -0.08735
C_ C_ 0.621419 0.616332 0.0323486 -0.08735
C_ C_ 0.643518 0.665393 0.0280876 -0.05681
C_ C_ 0.654986 0.681579 0.999239 0.18498
C_ C_ 0.685348 0.74151 0.499461 -0.08735
C_ C_ 0.700472 0.756415 0.0176766 -0.08735
C_ C_ 0.691292 0.737986 0.0442725 -0.08735
C_ C_ 0.657921 0.697047 0.0510888 0.18498
C_ C_ 0.6912 0.671517 0.0986173 0.44287
C_ C_ 0.602763 0.683535 0.0930448 0.44287
C_ C_ 0.594455 0.680819 0.122388 -0.05681
C_ C_ 0.545077 0.684372 0.135768 -0.08735
C_ C_ 0.540368 0.683587 0.165351 -0.08735
C_ C_ 0.582348 0.679385 0.182895 -0.05681
C_ C_ 0.631119 0.675256 0.170563 -0.05681
C_ C_ 0.638283 0.675636 0.140947 -0.05681
C_ C_ 0.687 0.668821 0.129151 -0.05681
C_ C_ 0.727795 0.662847 0.147486 -0.08735
C_ C_ 0.722269 0.670837 0.177685 -0.08735
C_ C_ 0.673309 0.675471 0.188702 -0.05681
C_ C_ 0.666206 0.677831 0.218767 0.44287
C_ C_ 0.576793 0.684426 0.212587 0.44287
C_ C_ 0.608782 0.662341 0.259222 0.18498
C_ C_ 0.584312 0.614713 0.26547 -0.08735
C_ C_ 0.572169 0.603517 0.29408 -0.08735
C_ C_ 0.58716 0.632775 0.31648 -0.08735
C_ C_ 0.615887 0.677152 0.311333 0.18498
C_ C_ 0.621746 0.694327 0.283029 -0.05681
C_ C_ 0.641727 0.742262 0.279023 -0.08735
C_ C_ 0.659179 0.771116 0.302497 -0.08735
C_ C_ 0.657993 0.749523 0.329802 0.1947
C_ C_ 0.777833 0.808458 0.159471 0.68181
C_ C_ 0.721062 0.80573 0.155077 -0.05681
C_ C_ 0.687028 0.807263 0.178616 -0.08735
C_ C_ 0.633141 0.806301 0.173728 -0.05681
C_ C_ 0.613229 0.807267 0.14672 -0.05681
C_ C_ 0.647854 0.809294 0.123949 -0.08735
C_ C_ 0.70074 0.808102 0.12683 -0.08735
C_ C_ 0.601097 0.817709 0.197824 -0.08735
C_ C_ 0.548179 0.820559 0.193643 -0.08735
C_ C_ 0.526647 0.813353 0.165212 -0.05681
C_ C_ 0.559588 0.806405 0.142423 -0.08735
C_ C_ 0.884857 0.719028 0.166199 0.68181
C_ C_ 0.876391 0.913268 0.150007 0.68181
C_ C_ 0.880021 0.970565 0.14938 -0.05681
C_ C_ 0.870694 0.502254 0.176401 -0.08735
C_ C_ 0.872497 0.556686 0.173423 -0.05681
C_ C_ 0.877829 0.580208 0.146515 -0.05681
C_ C_ 0.881403 0.548054 0.122107 -0.08735
C_ C_ 0.884465 0.996414 0.12297 -0.08735
C_ C_ 0.879632 0.587811 0.198308 -0.08735
C_ C_ 0.880072 0.641039 0.195304 -0.08735
C_ C_ 0.884805 0.663587 0.166975 -0.05681
C_ C_ 0.888408 0.631993 0.142867 -0.08735
C_ C_ 0.973289 0.819679 0.159295 0.68181
C_ C_ 0.896268 0.877621 0.232791 0.1947
C_ C_ 0.910207 0.892231 0.259866 -0.08735
C_ C_ 0.895282 0.864484 0.284235 -0.08735
C_ C_ 0.861285 0.823154 0.279505 -0.05681
C_ C_ 0.84727 0.810404 0.25076 0.18498
C_ C_ 0.819796 0.766296 0.24681 -0.08735
C_ C_ 0.800659 0.737533 0.269535 -0.08735
C_ C_ 0.809221 0.751739 0.297966 -0.08735
C_ C_ 0.83899 0.795376 0.303209 0.18498
C_ C_ 0.812364 0.82735 0.348992 0.44287
C_ C_ 0.897318 0.798028 0.343199 0.44287
C_ C_ 0.908279 0.809799 0.372563 -0.05681
C_ C_ 0.957664 0.801672 0.385071 -0.08735
C_ C_ 0.963843 0.808867 0.413621 -0.08735
C_ C_ 0.926152 0.824852 0.430873 -0.05681
C_ C_ 0.877734 0.831544 0.420302 -0.05681
C_ C_ 0.868055 0.825664 0.390627 -0.05681
C_ C_ 0.81924 0.830779 0.379165 -0.05681
C_ C_ 0.778808 0.840897 0.398132 -0.08735
C_ C_ 0.787186 0.84516 0.42693 -0.08735
C_ C_ 0.836552 0.841554 0.438488 -0.05681
C_ C_ 0.845388 0.84669 0.468477 0.44287
C_ C_ 0.93368 0.830422 0.460907 0.44287
C_ C_ 0.900373 0.834401 0.0110971 0.18498
C_ C_ 0.931432 0.877087 0.0164506 -0.08735
C_ C_ 0.944358 0.890766 0.0447258 -0.08735
C_ C_ 0.931579 0.860105 0.0684536 -0.08735
C_ C_ 0.89973 0.816964 0.0636495 0.18498
C_ C_ 0.880418 0.80612 0.0354757 -0.05681
C_ C_ 0.841892 0.770364 0.0320678 -0.08735
C_ C_ 0.824537 0.743313 0.0564133 -0.08735
C_ C_ 0.843434 0.75557 0.0833748 0.1947
N_ N_ 0.636031 0.672596 0.478642 -0.29468
N_ N_ 0.651011 0.680544 0.0814139 -0.17154
N_ N_ 0.617471 0.6773 0.229562 -0.17154
N_ N_ 0.632536 0.705416 0.334111 -0.29468
N_ N_ 0.866995 0.836167 0.227642 -0.29468
N_ N_ 0.85064 0.807949 0.332651 -0.17154
N_ N_ 0.893332 0.840949 0.47888 -0.17154
N_ N_ 0.879474 0.792915 0.0875606 -0.29468
O_ O_ 0.711286 0.695416 0.430166 -0.58347
O_ O_ 0.704626 0.70513 0.384793 -0.58347
O_ O_ 0.626263 0.761904 0.43534 -0.58347
O_ O_ 0.610057 0.762361 0.389703 -0.58347
O_ O_ 0.646387 0.611572 0.422424 -0.58347
O_ O_ 0.64611 0.615334 0.374925 -0.58347
O_ O_ 0.561573 0.679379 0.428236 -0.58347
O_ O_ 0.552349 0.67593 0.380704 -0.58347
O_ O_ 0.567885 0.705558 0.0776268 -0.46727
O_ O_ 0.737285 0.66755 0.0868835 -0.46727
O_ O_ 0.532723 0.690392 0.224276 -0.46727
O_ O_ 0.704146 0.669033 0.236209 -0.46727
O_ O_ 0.79557 0.814685 0.18368 -0.58347
O_ O_ 0.807201 0.801771 0.13815 -0.58347
O_ O_ 0.87724 0.743783 0.188916 -0.58347
O_ O_ 0.889143 0.7427 0.142799 -0.58347
O_ O_ 0.869926 0.889494 0.172916 -0.58347
O_ O_ 0.876624 0.887508 0.127358 -0.58347
O_ O_ 0.945541 0.820568 0.18223 -0.58347
O_ O_ 0.954802 0.817334 0.134245 -0.58347
O_ O_ 0.928569 0.770869 0.327245 -0.46727
O_ O_ 0.77053 0.838264 0.336683 -0.46727
O_ O_ 0.980187 0.825047 0.470928 -0.46727
O_ O_ 0.807615 0.857485 0.486132 -0.46727
Zn Zn 0.627906 0.68379 0.884313 0.90689
Zn Zn 0.643352 0.670254 0.92974 0.90689
Zn Zn 0.880072 0.823128 0.631008 0.90689
Zn Zn 0.871235 0.829456 0.679279 0.90689
H_ H_ 0.811503 0.702165 0.946027 0.11455
H_ H_ 0.874484 0.659807 0.848902 0.11455
H_ H_ 0.781475 0.677528 0.85625 0.11455
H_ H_ 0.893387 0.697762 0.964683 0.11455
H_ H_ 0.984798 0.687031 0.957546 0.11455
H_ H_ 0.95765 0.661011 0.866394 0.11455
H_ H_ 0.637538 0.506935 0.946058 0.11455
H_ H_ 0.59754 0.929721 0.852313 0.11455
H_ H_ 0.624802 0.52614 0.852382 0.11455
H_ H_ 0.65331 0.928819 0.967843 0.11455
H_ H_ 0.661876 0.839416 0.961291 0.11455
H_ H_ 0.607344 0.846531 0.875061 0.11455
H_ H_ 0.589799 0.59194 0.963803 0.11455
H_ H_ 0.580196 0.574417 0.512438 0.11455
H_ H_ 0.628528 0.609087 0.552586 0.11455
H_ H_ 0.690591 0.738779 0.972411 0.11455
H_ H_ 0.729588 0.801109 0.520861 0.11455
H_ H_ 0.715584 0.765059 0.570255 0.11455
H_ H_ 0.518991 0.700347 0.621865 0.11455
H_ H_ 0.503113 0.696103 0.674553 0.11455
H_ H_ 0.769289 0.669556 0.644262 0.11455
H_ H_ 0.754813 0.682831 0.696547 0.11455
H_ H_ 0.563566 0.594232 0.750571 0.11455
H_ H_ 0.546485 0.566506 0.802315 0.11455
H_ H_ 0.571056 0.623068 0.84166 0.11455
H_ H_ 0.654628 0.752519 0.762599 0.11455
H_ H_ 0.692218 0.793846 0.804355 0.11455
H_ H_ 0.68936 0.753092 0.848947 0.11455
H_ H_ 0.705118 0.783881 0.685536 0.11455
H_ H_ 0.634673 0.861502 0.594673 0.11455
H_ H_ 0.726154 0.864421 0.606285 0.11455
H_ H_ 0.617077 0.788756 0.706167 0.11455
H_ H_ 0.52671 0.804161 0.702846 0.11455
H_ H_ 0.542272 0.836223 0.615188 0.11455
H_ H_ 0.904582 0.99194 0.683592 0.11455
H_ H_ 0.861973 0.576385 0.598276 0.11455
H_ H_ 0.808267 0.984784 0.610574 0.11455
H_ H_ 0.870897 0.581362 0.719467 0.11455
H_ H_ 0.880444 0.675392 0.712396 0.11455
H_ H_ 0.890247 0.660606 0.62126 0.11455
H_ H_ 0.917451 0.912908 0.711325 0.11455
H_ H_ 0.940136 0.938025 0.759806 0.11455
H_ H_ 0.910615 0.885064 0.803476 0.11455
H_ H_ 0.809037 0.766997 0.721862 0.11455
H_ H_ 0.789181 0.710319 0.762998 0.11455
H_ H_ 0.820382 0.726665 0.810123 0.11455
H_ H_ 0.997356 0.810945 0.872506 0.11455
H_ H_ 1.00902218 0.808453 0.923983 0.11455
H_ H_ 0.746484 0.841929 0.884807 0.11455
H_ H_ 0.752352 0.845543 0.937594 0.11455
H_ H_ 0.946305 0.898448 0.998051 0.11455
H_ H_ 0.956358 0.951589 0.547239 0.11455
H_ H_ 0.929235 0.899868 0.587108 0.11455
H_ H_ 0.873717 0.758976 0.502862 0.11455
H_ H_ 0.847612 0.701152 0.543959 0.11455
H_ H_ 0.844335 0.740127 0.593862 0.11455
C_ C_ 0.733525 0.677674 0.908863 0.68181
C_ C_ 0.78813 0.687911 0.902213 -0.05681
C_ C_ 0.822136 0.696029 0.924192 -0.08735
C_ C_ 0.874702 0.687218 0.920627 -0.05681
C_ C_ 0.893923 0.674569 0.892662 -0.05681
C_ C_ 0.859694 0.673587 0.869792 -0.08735
C_ C_ 0.80804 0.679118 0.874415 -0.08735
C_ C_ 0.909379 0.6865 0.943593 -0.08735
C_ C_ 0.962516 0.681031 0.93891 -0.08735
C_ C_ 0.982102 0.67298 0.911107 -0.05681
C_ C_ 0.946127 0.671864 0.887524 -0.08735
C_ C_ 0.634583 0.776022 0.915117 0.68181
C_ C_ 0.636922 0.578488 0.902241 0.68181
C_ C_ 0.63085 0.522203 0.899201 -0.05681
C_ C_ 0.639306 -0.007224000000000008 0.92544 -0.08735
C_ C_ 0.636902 0.941248 0.92218 -0.05681
C_ C_ 0.619345 0.918142 0.897587 -0.05681
C_ C_ 0.60681 0.947362 0.873369 -0.08735
C_ C_ 0.61534 -0.0008749999999999591 0.875001 -0.08735
C_ C_ 0.645251 0.911137 0.945973 -0.08735
C_ C_ 0.646579 0.858726 0.944081 -0.08735
C_ C_ 0.632233 0.832149 0.918361 -0.05681
C_ C_ 0.618686 0.863732 0.894502 -0.08735
C_ C_ 0.537231 0.678786 0.904167 0.68181
C_ C_ 0.609244 0.608737 0.981345 0.1947
C_ C_ 0.603057 0.607006 0.509249 -0.08735
C_ C_ 0.62634 0.628907 0.533071 -0.08735
C_ C_ 0.651588 0.67619 0.529934 -0.05681
C_ C_ 0.657218 0.696159 0.501675 0.18498
C_ C_ 0.681916 0.726839 0.994538 -0.08735
C_ C_ 0.709145 0.764419 0.523537 -0.08735
C_ C_ 0.695888 0.747927 0.551418 -0.08735
C_ C_ 0.666543 0.705431 0.554853 0.18498
C_ C_ 0.694715 0.671251 0.601499 0.44287
C_ C_ 0.61093 0.697352 0.596351 0.44287
C_ C_ 0.600205 0.686101 0.625295 -0.05681
C_ C_ 0.550047 0.692889 0.636512 -0.08735
C_ C_ 0.540935 0.689056 0.666527 -0.08735
C_ C_ 0.583323 0.685823 0.685459 -0.05681
C_ C_ 0.633463 0.678555 0.673865 -0.05681
C_ C_ 0.640859 0.675181 0.64341 -0.05681
C_ C_ 0.688736 0.674422 0.632138 -0.05681
C_ C_ 0.729812 0.667211 0.651964 -0.08735
C_ C_ 0.723062 0.674437 0.681929 -0.08735
C_ C_ 0.674126 0.673996 0.693056 -0.05681
C_ C_ 0.664374 0.663635 0.721698 0.44287
C_ C_ 0.579924 0.6897 0.714536 0.44287
C_ C_ 0.605801 0.659579 0.761938 0.18498
C_ C_ 0.579735 0.613288 0.768242 -0.08735
C_ C_ 0.564076 0.602535 0.796606 -0.08735
C_ C_ 0.579432 0.632302 0.819142 -0.08735
C_ C_ 0.613855 0.672107 0.814542 0.18498
C_ C_ 0.625476 0.687755 0.785605 -0.05681
C_ C_ 0.653535 0.733645 0.782346 -0.08735
C_ C_ 0.672007 0.75794 0.806396 -0.08735
C_ C_ 0.667221 0.73722 0.83274 0.1947
C_ C_ 0.776576 0.815268 0.649615 0.68181
C_ C_ 0.721338 0.818908 0.645322 -0.05681
C_ C_ 0.68769 0.798825 0.665812 -0.08735
C_ C_ 0.635121 0.81073 0.663845 -0.05681
C_ C_ 0.612788 0.828193 0.637155 -0.05681
C_ C_ 0.64772 0.844865 0.61508 -0.08735
C_ C_ 0.700628 0.841622 0.620354 -0.08735
C_ C_ 0.602448 0.803356 0.686841 -0.08735
C_ C_ 0.5512 0.814876 0.68524 -0.08735
C_ C_ 0.527835 0.826951 0.659078 -0.05681
C_ C_ 0.559691 0.833518 0.635309 -0.08735
C_ C_ 0.8867 0.729754 0.663303 0.68181
C_ C_ 0.862396 0.923509 0.647092 0.68181
C_ C_ 0.865189 0.98044 0.644566 -0.05681
C_ C_ 0.865734 0.513721 0.674775 -0.08735
C_ C_ 0.874596 0.566654 0.672396 -0.05681
C_ C_ 0.87635 0.589303 0.644813 -0.05681
C_ C_ 0.868646 0.560343 0.620613 -0.08735
C_ C_ 0.834548 1.00582822 0.623794 -0.08735
C_ C_ 0.873027 0.598254 0.697854 -0.08735
C_ C_ 0.88112 0.651335 0.694383 -0.08735
C_ C_ 0.883243 0.673321 0.66622 -0.05681
C_ C_ 0.883476 0.643032 0.642101 -0.08735
C_ C_ 0.9711 0.833612 0.657491 0.68181
C_ C_ 0.902805 0.890152 0.729815 0.1947
C_ C_ 0.915191 0.907019 0.757731 -0.08735
C_ C_ 0.903012 0.873412 0.780582 -0.08735
C_ C_ 0.872072 0.830753 0.777149 -0.05681
C_ C_ 0.85138 0.819889 0.748038 0.18498
C_ C_ 0.822707 0.776855 0.742992 -0.08735
C_ C_ 0.812311 0.744167 0.766192 -0.08735
C_ C_ 0.828507 0.753171 0.79401 -0.08735
C_ C_ 0.856362 0.796857 0.799993 0.18498
C_ C_ 0.822883 0.821514 0.847324 0.44287
C_ C_ 0.910426 0.812549 0.842368 0.44287
C_ C_ 0.916039 0.81838 0.872575 -0.05681
C_ C_ 0.964648 0.8147 0.885886 -0.08735
C_ C_ 0.969854 0.813605 0.915353 -0.08735
C_ C_ 0.927302 0.814101 0.932764 -0.05681
C_ C_ 0.878615 0.818495 0.920677 -0.05681
C_ C_ 0.873925 0.822063 0.890598 -0.05681
C_ C_ 0.825785 0.82602 0.877166 -0.05681
C_ C_ 0.782061 0.833769 0.894617 -0.08735
C_ C_ 0.78686 0.833711 0.925531 -0.08735
C_ C_ 0.837611 0.828583 0.938507 -0.05681
C_ C_ 0.844064 0.829342 0.968411 0.44287
C_ C_ 0.932 0.809655 0.962406 0.44287
C_ C_ 0.9053 0.854894 0.508039 0.18498
C_ C_ 0.926675 0.902313 0.51401 -0.08735
C_ C_ 0.938221 0.916263 0.542226 -0.08735
C_ C_ 0.921129 0.888174 0.566486 -0.08735
C_ C_ 0.895377 0.840553 0.560062 0.18498
C_ C_ 0.896709 0.82137 0.530796 -0.05681
C_ C_ 0.878064 0.771241 0.525285 -0.08735
C_ C_ 0.859276 0.741491 0.548376 -0.08735
C_ C_ 0.86149 0.761009 0.577144 0.1947
N_ N_ 0.636566 0.652764 0.976942 -0.29468
N_ N_ 0.65643 0.687127 0.583735 -0.17154
N_ N_ 0.617358 0.67196 0.73246 -0.17154
N_ N_ 0.637744 0.694716 0.837532 -0.29468
N_ N_ 0.871169 0.84787 0.725258 -0.29468
N_ N_ 0.863249 0.811748 0.830262 -0.17154
N_ N_ 0.891788 0.819809 0.980729 -0.17154
N_ N_ 0.879374 0.809816 0.581686 -0.29468
O_ O_ 0.71745 0.680489 0.933665 -0.58347
O_ O_ 0.70398 0.674046 0.887074 -0.58347
O_ O_ 0.629408 0.745005 0.935416 -0.58347
O_ O_ 0.636798 0.758264 0.889787 -0.58347
O_ O_ 0.654259 0.598871 0.924746 -0.58347
O_ O_ 0.617369 0.606257 0.882984 -0.58347
O_ O_ 0.566449 0.666906 0.924841 -0.58347
O_ O_ 0.554563 0.691629 0.880331 -0.58347
O_ O_ 0.574641 0.714283 0.578997 -0.46727
O_ O_ 0.737897 0.662763 0.591065 -0.46727
O_ O_ 0.538537 0.70872 0.726596 -0.46727
O_ O_ 0.703016 0.653485 0.740137 -0.46727
O_ O_ 0.794214 0.829689 0.672916 -0.58347
O_ O_ 0.804857 0.809988 0.62764 -0.58347
O_ O_ 0.875011 0.757496 0.684275 -0.58347
O_ O_ 0.888607 0.748473 0.637456 -0.58347
O_ O_ 0.868797 0.902235 0.670831 -0.58347
O_ O_ 0.863659 0.895652 0.624524 -0.58347
O_ O_ 0.944392 0.829333 0.679477 -0.58347
O_ O_ 0.953092 0.836244 0.632907 -0.58347
O_ O_ 0.952169 0.811563 0.826803 -0.46727
O_ O_ 0.77911 0.828076 0.835015 -0.46727
O_ O_ 0.975567 0.793341 0.973629 -0.46727
O_ O_ 0.804231 0.839263 0.98612 -0.46727
